
 OpenBabel10282417223D

 98 97  0  0  0  0  0  0  0  0999 V2000
    1.2905   -0.1752    0.2777 C   0  0  0  0  0  0  0  0  0  0  0  0
    0.3720   -0.2290    1.3060 O   0  0  0  0  0  0  0  0  0  0  0  0
    0.7525    0.0448   -1.1040 C   0  0  0  0  0  0  0  0  0  0  0  0
    2.4773   -0.2788    0.4691 O   0  0  0  0  0  0  0  0  0  0  0  0
   -1.1127   -0.3087    1.3321 C   0  0  0  0  0  0  0  0  0  0  0  0
    0.9091    1.4860   -1.6884 C   0  0  0  0  0  0  0  0  0  0  0  0
   -1.8478    1.0144    1.0362 C   0  0  0  0  0  0  0  0  0  0  0  0
    2.3382    1.6246   -2.0785 C   0  0  0  0  0  0  0  0  0  0  0  0
   -1.6001    1.4117   -0.3846 C   0  0  0  0  0  0  0  0  0  0  0  0
    2.5924    0.5674   -3.1393 C   0  0  0  0  0  0  0  0  0  0  0  0
   -2.0368    0.3297   -1.4354 C   0  0  0  0  0  0  0  0  0  0  0  0
    1.7164    0.8492   -4.3714 C   0  0  0  0  0  0  0  0  0  0  0  0
   -3.5160    0.3340   -1.5153 C   0  0  0  0  0  0  0  0  0  0  0  0
    2.0462    2.2503   -4.8883 C   0  0  0  0  0  0  0  0  0  0  0  0
   -3.8837    1.7160   -2.0124 C   0  0  0  0  0  0  0  0  0  0  0  0
    3.5531    2.3194   -5.1550 C   0  0  0  0  0  0  0  0  0  0  0  0
   -3.2449    1.9637   -3.3943 C   0  0  0  0  0  0  0  0  0  0  0  0
    3.9237    1.2457   -6.1834 C   0  0  0  0  0  0  0  0  0  0  0  0
   -3.7039    0.8634   -4.3557 C   0  0  0  0  0  0  0  0  0  0  0  0
    3.1501    1.5081   -7.4776 C   0  0  0  0  0  0  0  0  0  0  0  0
   -5.2346    0.8458   -4.3613 C   0  0  0  0  0  0  0  0  0  0  0  0
    3.5134    2.8967   -8.0099 C   0  0  0  0  0  0  0  0  0  0  0  0
   -5.7448    2.2241   -4.7954 C   0  0  0  0  0  0  0  0  0  0  0  0
    5.0191    2.9631   -8.2812 C   0  0  0  0  0  0  0  0  0  0  0  0
   -5.2292    2.5304   -6.2032 C   0  0  0  0  0  0  0  0  0  0  0  0
    5.4097    1.9064   -9.3202 C   0  0  0  0  0  0  0  0  0  0  0  0
   -5.7307    1.4564   -7.1717 C   0  0  0  0  0  0  0  0  0  0  0  0
    4.6793    2.1564  -10.6442 C   0  0  0  0  0  0  0  0  0  0  0  0
   -7.2632    1.4375   -7.1806 C   0  0  0  0  0  0  0  0  0  0  0  0
    5.0064    3.5419  -11.2026 C   0  0  0  0  0  0  0  0  0  0  0  0
   -7.8154    2.7895   -7.6457 C   0  0  0  0  0  0  0  0  0  0  0  0
    6.4992    3.6686  -11.4588 C   0  0  0  0  0  0  0  0  0  0  0  0
   -7.3165    3.1361   -9.0489 C   0  0  0  0  0  0  0  0  0  0  0  0
   -7.7637    2.0776  -10.0438 C   0  0  0  0  0  0  0  0  0  0  0  0
    0.9005   -0.7493   -1.8370 H   0  0  0  0  0  0  0  0  0  0  0  0
   -0.2185   -0.2697   -0.8952 H   0  0  0  0  0  0  0  0  0  0  0  0
   -1.4556   -1.1397    0.7054 H   0  0  0  0  0  0  0  0  0  0  0  0
   -1.3737   -0.5881    2.3547 H   0  0  0  0  0  0  0  0  0  0  0  0
    0.2131    1.6781   -2.5227 H   0  0  0  0  0  0  0  0  0  0  0  0
    0.7379    2.3544   -1.0387 H   0  0  0  0  0  0  0  0  0  0  0  0
   -2.9234    0.9731    1.2074 H   0  0  0  0  0  0  0  0  0  0  0  0
   -1.4312    1.8028    1.6745 H   0  0  0  0  0  0  0  0  0  0  0  0
    2.5337    2.6528   -2.4005 H   0  0  0  0  0  0  0  0  0  0  0  0
    2.9498    1.4932   -1.1871 H   0  0  0  0  0  0  0  0  0  0  0  0
   -1.8467    2.4333   -0.6843 H   0  0  0  0  0  0  0  0  0  0  0  0
   -0.5614    1.5729   -0.2401 H   0  0  0  0  0  0  0  0  0  0  0  0
    3.6598    0.5328   -3.3413 H   0  0  0  0  0  0  0  0  0  0  0  0
    2.4038   -0.4485   -2.7980 H   0  0  0  0  0  0  0  0  0  0  0  0
   -1.5457    0.4724   -2.4108 H   0  0  0  0  0  0  0  0  0  0  0  0
   -1.8176   -0.7264   -1.2306 H   0  0  0  0  0  0  0  0  0  0  0  0
    1.8837    0.0669   -5.1160 H   0  0  0  0  0  0  0  0  0  0  0  0
    0.6394    0.7680   -4.1885 H   0  0  0  0  0  0  0  0  0  0  0  0
   -3.8364   -0.4891   -2.1635 H   0  0  0  0  0  0  0  0  0  0  0  0
   -3.9191    0.0954   -0.5315 H   0  0  0  0  0  0  0  0  0  0  0  0
    1.4451    2.4765   -5.7724 H   0  0  0  0  0  0  0  0  0  0  0  0
    1.7517    3.0372   -4.1878 H   0  0  0  0  0  0  0  0  0  0  0  0
   -4.9664    1.8051   -1.9965 H   0  0  0  0  0  0  0  0  0  0  0  0
   -3.5735    2.5053   -1.3295 H   0  0  0  0  0  0  0  0  0  0  0  0
    3.8320    3.3272   -5.4668 H   0  0  0  0  0  0  0  0  0  0  0  0
    4.1501    2.1827   -4.2490 H   0  0  0  0  0  0  0  0  0  0  0  0
   -3.5088    2.9675   -3.7332 H   0  0  0  0  0  0  0  0  0  0  0  0
   -2.1503    2.0091   -3.3885 H   0  0  0  0  0  0  0  0  0  0  0  0
    5.0060    1.2319   -6.3303 H   0  0  0  0  0  0  0  0  0  0  0  0
    3.7182    0.2304   -5.8312 H   0  0  0  0  0  0  0  0  0  0  0  0
   -3.2758    1.0275   -5.3483 H   0  0  0  0  0  0  0  0  0  0  0  0
   -3.3178   -0.1245   -4.0843 H   0  0  0  0  0  0  0  0  0  0  0  0
    3.3564    0.7148   -8.1996 H   0  0  0  0  0  0  0  0  0  0  0  0
    2.0673    1.4364   -7.3395 H   0  0  0  0  0  0  0  0  0  0  0  0
   -5.5982    0.0344   -4.9942 H   0  0  0  0  0  0  0  0  0  0  0  0
   -5.6545    0.5889   -3.3848 H   0  0  0  0  0  0  0  0  0  0  0  0
    2.9201    3.1188   -8.8998 H   0  0  0  0  0  0  0  0  0  0  0  0
    3.2283    3.6936   -7.3159 H   0  0  0  0  0  0  0  0  0  0  0  0
   -6.8342    2.2534   -4.7277 H   0  0  0  0  0  0  0  0  0  0  0  0
   -5.4417    3.0228   -4.1116 H   0  0  0  0  0  0  0  0  0  0  0  0
    5.2935    3.9735   -8.5937 H   0  0  0  0  0  0  0  0  0  0  0  0
    5.6077    2.8166   -7.3697 H   0  0  0  0  0  0  0  0  0  0  0  0
   -5.5370    3.5359   -6.4995 H   0  0  0  0  0  0  0  0  0  0  0  0
   -4.1365    2.5825   -6.2431 H   0  0  0  0  0  0  0  0  0  0  0  0
    6.4941    1.9014   -9.4515 H   0  0  0  0  0  0  0  0  0  0  0  0
    5.1930    0.8921   -8.9686 H   0  0  0  0  0  0  0  0  0  0  0  0
   -5.3109    1.6301   -8.1652 H   0  0  0  0  0  0  0  0  0  0  0  0
   -5.3528    0.4618   -6.9134 H   0  0  0  0  0  0  0  0  0  0  0  0
    4.9497    1.3793  -11.3650 H   0  0  0  0  0  0  0  0  0  0  0  0
    3.5937    2.0619  -10.5173 H   0  0  0  0  0  0  0  0  0  0  0  0
   -7.6182    0.6175   -7.8087 H   0  0  0  0  0  0  0  0  0  0  0  0
   -7.6727    1.1949   -6.1942 H   0  0  0  0  0  0  0  0  0  0  0  0
    4.4452    3.7085  -12.1259 H   0  0  0  0  0  0  0  0  0  0  0  0
    4.6812    4.3338  -10.5171 H   0  0  0  0  0  0  0  0  0  0  0  0
   -8.9087    2.7671   -7.6221 H   0  0  0  0  0  0  0  0  0  0  0  0
   -7.5319    3.5895   -6.9504 H   0  0  0  0  0  0  0  0  0  0  0  0
    6.8183    2.9014  -12.1701 H   0  0  0  0  0  0  0  0  0  0  0  0
    6.7422    4.6548  -11.8546 H   0  0  0  0  0  0  0  0  0  0  0  0
    7.0871    3.5433  -10.5435 H   0  0  0  0  0  0  0  0  0  0  0  0
   -7.6943    4.1192   -9.3415 H   0  0  0  0  0  0  0  0  0  0  0  0
   -6.2237    3.2254   -9.0717 H   0  0  0  0  0  0  0  0  0  0  0  0
   -8.8556    2.0125  -10.0477 H   0  0  0  0  0  0  0  0  0  0  0  0
   -7.4101    2.3149  -11.0473 H   0  0  0  0  0  0  0  0  0  0  0  0
   -7.3691    1.0864   -9.7974 H   0  0  0  0  0  0  0  0  0  0  0  0
  1  2  1  0  0  0  0
  1  3  1  0  0  0  0
  1  4  2  0  0  0  0
  2  5  1  0  0  0  0
  3  6  1  0  0  0  0
  3 35  1  0  0  0  0
  3 36  1  0  0  0  0
  5  7  1  0  0  0  0
  5 37  1  0  0  0  0
  5 38  1  0  0  0  0
  6  8  1  0  0  0  0
  6 39  1  0  0  0  0
  6 40  1  0  0  0  0
  7  9  1  0  0  0  0
  7 41  1  0  0  0  0
  7 42  1  0  0  0  0
  8 10  1  0  0  0  0
  8 43  1  0  0  0  0
  8 44  1  0  0  0  0
  9 11  1  0  0  0  0
  9 45  1  0  0  0  0
  9 46  1  0  0  0  0
 10 12  1  0  0  0  0
 10 47  1  0  0  0  0
 10 48  1  0  0  0  0
 11 13  1  0  0  0  0
 11 49  1  0  0  0  0
 11 50  1  0  0  0  0
 12 14  1  0  0  0  0
 12 51  1  0  0  0  0
 12 52  1  0  0  0  0
 13 15  1  0  0  0  0
 13 53  1  0  0  0  0
 13 54  1  0  0  0  0
 14 16  1  0  0  0  0
 14 55  1  0  0  0  0
 14 56  1  0  0  0  0
 15 17  1  0  0  0  0
 15 57  1  0  0  0  0
 15 58  1  0  0  0  0
 16 18  1  0  0  0  0
 16 59  1  0  0  0  0
 16 60  1  0  0  0  0
 17 19  1  0  0  0  0
 17 61  1  0  0  0  0
 17 62  1  0  0  0  0
 18 20  1  0  0  0  0
 18 63  1  0  0  0  0
 18 64  1  0  0  0  0
 19 21  1  0  0  0  0
 19 65  1  0  0  0  0
 19 66  1  0  0  0  0
 20 22  1  0  0  0  0
 20 67  1  0  0  0  0
 20 68  1  0  0  0  0
 21 23  1  0  0  0  0
 21 69  1  0  0  0  0
 21 70  1  0  0  0  0
 22 24  1  0  0  0  0
 22 71  1  0  0  0  0
 22 72  1  0  0  0  0
 23 25  1  0  0  0  0
 23 73  1  0  0  0  0
 23 74  1  0  0  0  0
 24 26  1  0  0  0  0
 24 75  1  0  0  0  0
 24 76  1  0  0  0  0
 25 27  1  0  0  0  0
 25 77  1  0  0  0  0
 25 78  1  0  0  0  0
 26 28  1  0  0  0  0
 26 79  1  0  0  0  0
 26 80  1  0  0  0  0
 27 29  1  0  0  0  0
 27 81  1  0  0  0  0
 27 82  1  0  0  0  0
 28 30  1  0  0  0  0
 28 83  1  0  0  0  0
 28 84  1  0  0  0  0
 29 31  1  0  0  0  0
 29 85  1  0  0  0  0
 29 86  1  0  0  0  0
 30 32  1  0  0  0  0
 30 87  1  0  0  0  0
 30 88  1  0  0  0  0
 31 33  1  0  0  0  0
 31 89  1  0  0  0  0
 31 90  1  0  0  0  0
 32 91  1  0  0  0  0
 32 92  1  0  0  0  0
 32 93  1  0  0  0  0
 33 34  1  0  0  0  0
 33 94  1  0  0  0  0
 33 95  1  0  0  0  0
 34 96  1  0  0  0  0
 34 97  1  0  0  0  0
 34 98  1  0  0  0  0
M  END
>  <DRUGBANK_ID>
DB15782

>  <COMMON_NAME>
Cetyl palmitate

>  <CAS_NUMBER>
540-10-3

>  <UNII>
5ZA2S6B08X

>  <SYNONYMS>
Hexadecanoic acid, hexadecyl ester; Hexadecyl palmitate; n-Hexadecyl hexadecanoate; Palmityl palmitate

$$$$
