
 OpenBabel10282417153D

 45 44  0  0  1  0  0  0  0  0999 V2000
    1.0565   -0.0461   -0.0684 C   0  0  0  0  0  0  0  0  0  0  0  0
    0.4065   -0.7032    1.6487 As  0  0  0  0  0  0  0  0  0  0  0  0
   -1.5435   -0.7032    1.6487 C   0  0  0  0  0  0  0  0  0  0  0  0
    1.1532   -2.7887    1.9812 S   0  0  0  0  0  0  0  0  0  0  0  0
    0.5498   -3.3986    3.5750 C   0  0  0  0  0  0  0  0  0  0  0  0
    1.0565   -2.4955    4.6878 C   0  0  1  0  0  0  0  0  0  0  0  0
    0.5498   -1.0804    4.4621 C   0  0  0  0  0  0  0  0  0  0  0  0
   -0.1808   -0.5198    5.3379 O   0  0  0  0  0  0  0  0  0  0  0  0
    0.9050   -0.3601    3.2308 N   0  0  0  0  0  0  0  0  0  0  0  0
    1.7501   -1.0085    2.2178 C   0  0  0  0  0  0  0  0  0  0  0  0
    0.9901   -1.0957    0.9043 C   0  0  0  0  0  0  0  0  0  0  0  0
    1.4506   -0.5278   -0.1352 O   0  0  0  0  0  0  0  0  0  0  0  0
   -0.2345   -1.8116    0.8387 O   0  0  0  0  0  0  0  0  0  0  0  0
    0.5665   -2.9909    5.9822 N   0  0  0  0  0  0  0  0  0  0  0  0
    1.5218   -3.3902    7.0257 C   0  0  0  0  0  0  0  0  0  0  0  0
    1.0981   -3.8184    8.1448 O   0  0  0  0  0  0  0  0  0  0  0  0
    3.0162   -3.2909    6.7663 C   0  0  0  0  0  0  0  0  0  0  0  0
    3.3834   -4.1652    5.5783 C   0  0  0  0  0  0  0  0  0  0  0  0
    2.6234   -3.6947    4.3489 C   0  0  1  0  0  0  0  0  0  0  0  0
    2.9906   -2.2507    4.0480 C   0  0  0  0  0  0  0  0  0  0  0  0
    3.5201   -1.9489    2.9328 O   0  0  0  0  0  0  0  0  0  0  0  0
    2.7420   -1.2391    5.0130 O   0  0  0  0  0  0  0  0  0  0  0  0
    2.9785   -4.5402    3.2000 N   0  0  0  0  0  0  0  0  0  0  0  0
    0.6998    0.9501   -0.2273 H   0  0  0  0  0  0  0  0  0  0  0  0
    0.6999   -0.6818   -0.8517 H   0  0  0  0  0  0  0  0  0  0  0  0
    2.1265   -0.0461   -0.0684 H   0  0  0  0  0  0  0  0  0  0  0  0
   -1.9002   -1.3389    0.8653 H   0  0  0  0  0  0  0  0  0  0  0  0
   -1.9002   -1.0637    2.5908 H   0  0  0  0  0  0  0  0  0  0  0  0
   -1.9002    0.2931    1.4898 H   0  0  0  0  0  0  0  0  0  0  0  0
   -0.5202   -3.3986    3.5750 H   0  0  0  0  0  0  0  0  0  0  0  0
    0.9065   -4.3948    3.7339 H   0  0  0  0  0  0  0  0  0  0  0  0
    2.1265   -2.4955    4.6878 H   0  0  0  0  0  0  0  0  0  0  0  0
    0.5650    0.5895    3.0794 H   0  0  0  0  0  0  0  0  0  0  0  0
    2.6418   -0.4342    2.0765 H   0  0  0  0  0  0  0  0  0  0  0  0
    2.0086   -1.9935    2.5463 H   0  0  0  0  0  0  0  0  0  0  0  0
   -0.7345   -1.8689   -0.0254 H   0  0  0  0  0  0  0  0  0  0  0  0
   -0.4363   -3.0575    6.1562 H   0  0  0  0  0  0  0  0  0  0  0  0
    3.2747   -2.2744    6.5545 H   0  0  0  0  0  0  0  0  0  0  0  0
    3.5512   -3.6221    7.6317 H   0  0  0  0  0  0  0  0  0  0  0  0
    4.4354   -4.0953    5.3957 H   0  0  0  0  0  0  0  0  0  0  0  0
    3.1249   -5.1816    5.7901 H   0  0  0  0  0  0  0  0  0  0  0  0
    1.5714   -3.7646    4.5315 H   0  0  0  0  0  0  0  0  0  0  0  0
    2.9835   -0.2891    4.8150 H   0  0  0  0  0  0  0  0  0  0  0  0
    2.4685   -4.2245    2.3750 H   0  0  0  0  0  0  0  0  0  0  0  0
    3.9813   -4.4736    3.0260 H   0  0  0  0  0  0  0  0  0  0  0  0
  1  2  1  0  0  0  0
  1 24  1  0  0  0  0
  1 25  1  0  0  0  0
  1 26  1  0  0  0  0
  2  3  1  0  0  0  0
  2  4  1  0  0  0  0
  3 27  1  0  0  0  0
  3 28  1  0  0  0  0
  3 29  1  0  0  0  0
  4  5  1  0  0  0  0
  5  6  1  0  0  0  0
  5 30  1  0  0  0  0
  5 31  1  0  0  0  0
  6  7  1  0  0  0  0
  6 14  1  0  0  0  0
  6 32  1  1  0  0  0
  7  8  2  0  0  0  0
  7  9  1  0  0  0  0
  9 10  1  0  0  0  0
  9 33  1  0  0  0  0
 10 11  1  0  0  0  0
 10 34  1  0  0  0  0
 10 35  1  0  0  0  0
 11 12  2  0  0  0  0
 11 13  1  0  0  0  0
 13 36  1  0  0  0  0
 14 15  1  0  0  0  0
 14 37  1  0  0  0  0
 15 16  2  0  0  0  0
 15 17  1  0  0  0  0
 17 18  1  0  0  0  0
 17 38  1  0  0  0  0
 17 39  1  0  0  0  0
 18 19  1  0  0  0  0
 18 40  1  0  0  0  0
 18 41  1  0  0  0  0
 19 20  1  0  0  0  0
 19 23  1  0  0  0  0
 19 42  1  1  0  0  0
 20 21  2  0  0  0  0
 20 22  1  0  0  0  0
 22 43  1  0  0  0  0
 23 44  1  0  0  0  0
 23 45  1  0  0  0  0
M  END
>  <DRUGBANK_ID>
DB06179

>  <COMMON_NAME>
Darinaparsin

>  <CAS_NUMBER>
69819-86-9

>  <UNII>
9XX54M675G

>  <SYNONYMS>
Darinaparsin

$$$$
