PU4
 OpenBabel10282417133D

 44 46  0  0  0  0  0  0  0  0999 V2000
    1.5097   -0.1528   -0.1278 C   0  0  0  0  0  0  0  0  0  0  0  0
    1.0386   -1.6084   -0.3143 C   0  0  0  0  0  0  0  0  0  0  0  0
    1.1625   -2.4865    0.9019 C   0  0  0  0  0  0  0  0  0  0  0  0
    0.3812   -1.9461    2.1138 C   0  0  0  0  0  0  0  0  0  0  0  0
   -1.0817   -1.9302    2.0383 N   0  0  0  0  0  0  0  0  0  0  0  0
   -1.8721   -2.6680    2.9104 C   0  0  0  0  0  0  0  0  0  0  0  0
   -1.5034   -3.5177    3.8804 N   0  0  0  0  0  0  0  0  0  0  0  0
   -2.5884   -4.0479    4.5032 C   0  0  0  0  0  0  0  0  0  0  0  0
   -3.9019   -3.8265    4.2535 N   0  0  0  0  0  0  0  0  0  0  0  0
   -3.1747   -2.3351    2.5725 C   0  0  0  0  0  0  0  0  0  0  0  0
   -4.2139   -2.9598    3.2740 C   0  0  0  0  0  0  0  0  0  0  0  0
   -5.5294   -2.6860    2.9698 N   0  0  0  0  0  0  0  0  0  0  0  0
   -3.2153   -1.4068    1.5838 N   0  0  0  0  0  0  0  0  0  0  0  0
   -1.9550   -1.1546    1.2603 C   0  0  0  0  0  0  0  0  0  0  0  0
   -1.6442   -0.1141    0.2099 C   0  0  0  0  0  0  0  0  0  0  0  0
   -1.9904   -0.5151   -1.2263 C   0  0  0  0  0  0  0  0  0  0  0  0
   -3.3229   -0.7694   -1.5262 C   0  0  0  0  0  0  0  0  0  0  0  0
   -3.6988   -1.1809   -2.8038 C   0  0  0  0  0  0  0  0  0  0  0  0
   -1.0620   -0.6716   -2.2820 C   0  0  0  0  0  0  0  0  0  0  0  0
   -1.4153   -1.1819   -3.5269 C   0  0  0  0  0  0  0  0  0  0  0  0
   -2.7482   -1.4010   -3.8036 C   0  0  0  0  0  0  0  0  0  0  0  0
   -3.0036   -1.8006   -5.0834 O   0  0  0  0  0  0  0  0  0  0  0  0
   -4.3824   -1.8711   -5.4053 C   0  0  0  0  0  0  0  0  0  0  0  0
    1.2347    0.2830    0.8388 H   0  0  0  0  0  0  0  0  0  0  0  0
    1.0859    0.5282   -0.8784 H   0  0  0  0  0  0  0  0  0  0  0  0
    2.5896   -0.0762   -0.2085 H   0  0  0  0  0  0  0  0  0  0  0  0
   -0.0162   -1.7197   -0.5193 H   0  0  0  0  0  0  0  0  0  0  0  0
    1.5083   -2.0347   -1.2052 H   0  0  0  0  0  0  0  0  0  0  0  0
    0.7828   -3.4846    0.6444 H   0  0  0  0  0  0  0  0  0  0  0  0
    2.2288   -2.5868    1.1212 H   0  0  0  0  0  0  0  0  0  0  0  0
    0.6637   -2.5868    2.9584 H   0  0  0  0  0  0  0  0  0  0  0  0
    0.7003   -0.9398    2.3959 H   0  0  0  0  0  0  0  0  0  0  0  0
   -2.3830   -4.7433    5.3099 H   0  0  0  0  0  0  0  0  0  0  0  0
   -5.7104   -2.0368    2.2180 H   0  0  0  0  0  0  0  0  0  0  0  0
   -6.2653   -3.1475    3.4786 H   0  0  0  0  0  0  0  0  0  0  0  0
   -2.1748    0.8174    0.4423 H   0  0  0  0  0  0  0  0  0  0  0  0
   -0.6261    0.1855    0.3207 H   0  0  0  0  0  0  0  0  0  0  0  0
   -4.0813   -0.6513   -0.7565 H   0  0  0  0  0  0  0  0  0  0  0  0
   -4.7570   -1.3275   -2.9749 H   0  0  0  0  0  0  0  0  0  0  0  0
   -0.0070   -0.4608   -2.1906 H   0  0  0  0  0  0  0  0  0  0  0  0
   -0.6496   -1.3859   -4.2734 H   0  0  0  0  0  0  0  0  0  0  0  0
   -4.8654   -2.6571   -4.8163 H   0  0  0  0  0  0  0  0  0  0  0  0
   -4.8684   -0.9009   -5.2503 H   0  0  0  0  0  0  0  0  0  0  0  0
   -4.4717   -2.1290   -6.4615 H   0  0  0  0  0  0  0  0  0  0  0  0
  1  2  1  0  0  0  0
  1 24  1  0  0  0  0
  1 25  1  0  0  0  0
  1 26  1  0  0  0  0
  2  3  1  0  0  0  0
  2 27  1  0  0  0  0
  2 28  1  0  0  0  0
  3  4  1  0  0  0  0
  3 29  1  0  0  0  0
  3 30  1  0  0  0  0
  4  5  1  0  0  0  0
  4 31  1  0  0  0  0
  4 32  1  0  0  0  0
  5  6  1  0  0  0  0
  5 14  1  0  0  0  0
  6  7  2  0  0  0  0
  6 10  1  0  0  0  0
  7  8  1  0  0  0  0
  8  9  2  0  0  0  0
  8 33  1  0  0  0  0
  9 11  1  0  0  0  0
 10 11  2  0  0  0  0
 10 13  1  0  0  0  0
 11 12  1  0  0  0  0
 12 34  1  0  0  0  0
 12 35  1  0  0  0  0
 13 14  2  0  0  0  0
 14 15  1  0  0  0  0
 15 16  1  0  0  0  0
 15 36  1  0  0  0  0
 15 37  1  0  0  0  0
 16 17  2  0  0  0  0
 16 19  1  0  0  0  0
 17 18  1  0  0  0  0
 17 38  1  0  0  0  0
 18 21  2  0  0  0  0
 18 39  1  0  0  0  0
 19 20  2  0  0  0  0
 19 40  1  0  0  0  0
 20 21  1  0  0  0  0
 20 41  1  0  0  0  0
 21 22  1  0  0  0  0
 22 23  1  0  0  0  0
 23 42  1  0  0  0  0
 23 43  1  0  0  0  0
 23 44  1  0  0  0  0
M  END
>  <DRUGBANK_ID>
DB03899

>  <SECONDARY_ACCESSION_NUMBERS>
EXPT02695

>  <COMMON_NAME>
9-Butyl-8-(4-Methoxybenzyl)-9h-Purin-6-Amine

$$$$
