
 OpenBabel10282417123D

 33 34  0  0  0  0  0  0  0  0999 V2000
    0.9222   -0.0575   -0.0252 O   0  0  0  0  0  0  0  0  0  0  0  0
    2.4705   -0.0575   -0.0252 P   0  0  0  0  0  0  0  0  0  0  0  0
    2.5530    1.1916   -1.0675 O   0  0  0  0  0  0  0  0  0  0  0  0
    4.2005   -0.0575   -0.0252 O   0  0  0  0  0  0  0  0  0  0  0  0
    2.6310   -1.3207   -1.0470 O   0  0  0  0  0  0  0  0  0  0  0  0
    2.5376   -2.5421   -0.3344 C   0  0  0  0  0  0  0  0  0  0  0  0
    3.6958   -2.7919    0.7004 C   0  0  1  0  0  0  0  0  0  0  0  0
    4.6515   -1.7159    1.0150 O   0  0  0  0  0  0  0  0  0  0  0  0
    3.2395   -3.0801    2.1087 C   0  0  1  0  0  0  0  0  0  0  0  0
    4.3076   -3.7905    2.7486 O   0  0  0  0  0  0  0  0  0  0  0  0
    3.1133   -1.7117    2.7896 C   0  0  0  0  0  0  0  0  0  0  0  0
    4.2677   -0.9104    2.2745 C   0  0  2  0  0  0  0  0  0  0  0  0
    4.0434    0.7235    2.2338 N   0  0  0  0  0  0  0  0  0  0  0  0
    2.8645    1.4922    2.0387 C   0  0  0  0  0  0  0  0  0  0  0  0
    1.7114    1.0753    2.1608 O   0  0  0  0  0  0  0  0  0  0  0  0
    3.0239    2.7662    1.5485 N   0  0  0  0  0  0  0  0  0  0  0  0
    4.0400    3.5797    1.9584 C   0  0  0  0  0  0  0  0  0  0  0  0
    3.9385    4.7875    1.9389 O   0  0  0  0  0  0  0  0  0  0  0  0
    5.2044    2.8296    2.5094 C   0  0  0  0  0  0  0  0  0  0  0  0
    5.1635    1.4885    2.5541 C   0  0  0  0  0  0  0  0  0  0  0  0
    6.6415    3.8019    3.1709 Br  0  0  0  0  0  0  0  0  0  0  0  0
    1.6928    1.6457   -0.9586 H   0  0  0  0  0  0  0  0  0  0  0  0
    4.7009   -0.8860   -0.1153 H   0  0  0  0  0  0  0  0  0  0  0  0
    1.5550   -2.6032    0.1481 H   0  0  0  0  0  0  0  0  0  0  0  0
    2.5135   -3.3405   -1.0910 H   0  0  0  0  0  0  0  0  0  0  0  0
    4.2892   -3.6083    0.2590 H   0  0  0  0  0  0  0  0  0  0  0  0
    2.3274   -3.6740    2.1565 H   0  0  0  0  0  0  0  0  0  0  0  0
    5.1505   -3.3870    2.4542 H   0  0  0  0  0  0  0  0  0  0  0  0
    2.1707   -1.2436    2.5111 H   0  0  0  0  0  0  0  0  0  0  0  0
    3.2155   -1.7464    3.8707 H   0  0  0  0  0  0  0  0  0  0  0  0
    5.2018   -1.0297    2.8233 H   0  0  0  0  0  0  0  0  0  0  0  0
    2.1873    3.2738    1.2831 H   0  0  0  0  0  0  0  0  0  0  0  0
    6.0011    0.9280    2.9397 H   0  0  0  0  0  0  0  0  0  0  0  0
  1  2  2  0  0  0  0
  3  2  1  0  0  0  0
  3 22  1  0  0  0  0
  4  2  1  0  0  0  0
  4 23  1  0  0  0  0
  5  2  1  0  0  0  0
  6  5  1  0  0  0  0
  6 24  1  0  0  0  0
  6 25  1  0  0  0  0
  7  6  1  0  0  0  0
  7  8  1  0  0  0  0
  7 26  1  6  0  0  0
  9  7  1  0  0  0  0
  9 10  1  0  0  0  0
  9 27  1  1  0  0  0
 10 28  1  0  0  0  0
 11  9  1  0  0  0  0
 11 29  1  0  0  0  0
 11 30  1  0  0  0  0
 12  8  1  0  0  0  0
 12 11  1  0  0  0  0
 12 31  1  1  0  0  0
 12 13  1  0  0  0  0
 14 13  1  0  0  0  0
 14 15  2  0  0  0  0
 14 16  1  0  0  0  0
 16 32  1  0  0  0  0
 17 16  1  0  0  0  0
 17 18  2  0  0  0  0
 17 19  1  0  0  0  0
 19 20  2  0  0  0  0
 20 13  1  0  0  0  0
 20 33  1  0  0  0  0
 21 19  1  0  0  0  0
M  END
>  <DRUGBANK_ID>
DB01903

>  <SECONDARY_ACCESSION_NUMBERS>
EXPT00758

>  <COMMON_NAME>
5-Bromo-2'-deoxyuridine 5'-(dihydrogen phosphate)

>  <CAS_NUMBER>
51432-32-7

$$$$
