
 OpenBabel10282417203D

 16 16  0  0  0  0  0  0  0  0999 V2000
    1.0535    0.0257    0.0660 C   0  0  0  0  0  0  0  0  0  0  0  0
    0.6076    1.1626   -0.8183 C   0  0  0  0  0  0  0  0  0  0  0  0
    0.9753    2.4854   -0.4881 C   0  0  0  0  0  0  0  0  0  0  0  0
    0.6452    3.5639   -1.3144 C   0  0  0  0  0  0  0  0  0  0  0  0
   -0.0654    3.3398   -2.4887 C   0  0  0  0  0  0  0  0  0  0  0  0
   -0.4651    2.0479   -2.8313 C   0  0  0  0  0  0  0  0  0  0  0  0
   -0.1400    0.9620   -2.0003 C   0  0  0  0  0  0  0  0  0  0  0  0
   -0.7410   -0.7761   -2.5229 Br  0  0  0  0  0  0  0  0  0  0  0  0
   -1.1697    1.8240   -3.9886 O   0  0  0  0  0  0  0  0  0  0  0  0
   -0.4688    4.8154   -3.6086 Br  0  0  0  0  0  0  0  0  0  0  0  0
    1.9508    2.8996    1.0961 Br  0  0  0  0  0  0  0  0  0  0  0  0
    0.7216   -0.9579   -0.2681 H   0  0  0  0  0  0  0  0  0  0  0  0
    0.6686    0.1549    1.0827 H   0  0  0  0  0  0  0  0  0  0  0  0
    2.1484   -0.0116    0.0894 H   0  0  0  0  0  0  0  0  0  0  0  0
    0.9513    4.5720   -1.0454 H   0  0  0  0  0  0  0  0  0  0  0  0
   -1.2812    2.6739   -4.4496 H   0  0  0  0  0  0  0  0  0  0  0  0
  1  2  1  0  0  0  0
  1 12  1  0  0  0  0
  1 13  1  0  0  0  0
  1 14  1  0  0  0  0
  2  3  2  0  0  0  0
  2  7  1  0  0  0  0
  3  4  1  0  0  0  0
  3 11  1  0  0  0  0
  4  5  2  0  0  0  0
  4 15  1  0  0  0  0
  5  6  1  0  0  0  0
  5 10  1  0  0  0  0
  6  7  2  0  0  0  0
  6  9  1  0  0  0  0
  7  8  1  0  0  0  0
  9 16  1  0  0  0  0
M  END
>  <DRUGBANK_ID>
DB13513

>  <COMMON_NAME>
Tribromometacresol

>  <CAS_NUMBER>
4619-74-3

>  <UNII>
Q3Z845166M

>  <SYNONYMS>
2,4,6-tribromo-m-cresol

$$$$
