CIH
 OpenBabel10282417163D

 35 36  0  0  0  0  0  0  0  0999 V2000
   -2.0764    0.1775    0.2816 Cl  0  0  0  0  0  0  0  0  0  0  0  0
   -0.3426    0.0468    0.1386 C   0  0  0  0  0  0  0  0  0  0  0  0
    0.3503    1.2454    0.0334 C   0  0  0  0  0  0  0  0  0  0  0  0
    1.7402    1.2339    0.0044 C   0  0  0  0  0  0  0  0  0  0  0  0
    2.4384    0.0264    0.0289 C   0  0  0  0  0  0  0  0  0  0  0  0
    1.7496   -1.1829    0.0605 C   0  0  0  0  0  0  0  0  0  0  0  0
    0.3506   -1.1930    0.1278 C   0  0  0  0  0  0  0  0  0  0  0  0
   -0.3560   -2.4714    0.0498 C   0  0  0  0  0  0  0  0  0  0  0  0
   -1.2496   -2.6694   -0.9830 C   0  0  0  0  0  0  0  0  0  0  0  0
   -2.0875   -3.7660   -0.9445 C   0  0  0  0  0  0  0  0  0  0  0  0
   -1.3678   -1.5566   -2.3162 Cl  0  0  0  0  0  0  0  0  0  0  0  0
   -0.2386   -3.4896    1.0156 C   0  0  0  0  0  0  0  0  0  0  0  0
   -0.9711   -4.6969    0.9178 C   0  0  0  0  0  0  0  0  0  0  0  0
   -1.8828   -4.8668   -0.1222 C   0  0  0  0  0  0  0  0  0  0  0  0
   -2.5592   -6.0979   -0.3403 N   0  0  0  0  0  0  0  0  0  0  0  0
   -3.3268   -6.5342   -1.4182 C   0  0  0  0  0  0  0  0  0  0  0  0
   -3.9247   -7.6104   -1.3342 O   0  0  0  0  0  0  0  0  0  0  0  0
   -3.5193   -5.6956   -2.6487 C   0  0  0  0  0  0  0  0  0  0  0  0
   -4.8695   -5.3065   -2.9311 C   0  0  0  0  0  0  0  0  0  0  0  0
   -5.9192   -4.9038   -3.1893 N   0  0  0  0  0  0  0  0  0  0  0  0
   -2.4781   -5.1800   -3.3485 C   0  0  0  0  0  0  0  0  0  0  0  0
   -2.6111   -4.0024   -4.2881 C   0  0  0  0  0  0  0  0  0  0  0  0
   -1.1640   -5.5124   -3.0309 O   0  0  0  0  0  0  0  0  0  0  0  0
   -0.1953    2.1837   -0.0101 H   0  0  0  0  0  0  0  0  0  0  0  0
    2.2796    2.1750   -0.0251 H   0  0  0  0  0  0  0  0  0  0  0  0
    3.5244    0.0255    0.0154 H   0  0  0  0  0  0  0  0  0  0  0  0
    2.3054   -2.1181    0.0145 H   0  0  0  0  0  0  0  0  0  0  0  0
   -2.9225   -3.7186   -1.6129 H   0  0  0  0  0  0  0  0  0  0  0  0
    0.4210   -3.3309    1.8655 H   0  0  0  0  0  0  0  0  0  0  0  0
   -0.8286   -5.4583    1.6825 H   0  0  0  0  0  0  0  0  0  0  0  0
   -2.4504   -6.8241    0.3630 H   0  0  0  0  0  0  0  0  0  0  0  0
   -2.1486   -3.1360   -3.8407 H   0  0  0  0  0  0  0  0  0  0  0  0
   -2.0611   -4.1531   -5.2129 H   0  0  0  0  0  0  0  0  0  0  0  0
   -3.6357   -3.6763   -4.4775 H   0  0  0  0  0  0  0  0  0  0  0  0
   -0.5889   -4.7368   -3.1873 H   0  0  0  0  0  0  0  0  0  0  0  0
  1  2  1  0  0  0  0
  2  3  2  0  0  0  0
  2  7  1  0  0  0  0
  3  4  1  0  0  0  0
  3 24  1  0  0  0  0
  4  5  2  0  0  0  0
  4 25  1  0  0  0  0
  5  6  1  0  0  0  0
  5 26  1  0  0  0  0
  6  7  2  0  0  0  0
  6 27  1  0  0  0  0
  7  8  1  0  0  0  0
  8  9  2  0  0  0  0
  8 12  1  0  0  0  0
  9 10  1  0  0  0  0
  9 11  1  0  0  0  0
 10 14  2  0  0  0  0
 10 28  1  0  0  0  0
 12 13  2  0  0  0  0
 12 29  1  0  0  0  0
 13 14  1  0  0  0  0
 13 30  1  0  0  0  0
 14 15  1  0  0  0  0
 15 16  1  0  0  0  0
 15 31  1  0  0  0  0
 16 17  2  0  0  0  0
 16 18  1  0  0  0  0
 18 19  1  0  0  0  0
 18 21  2  0  0  0  0
 19 20  3  0  0  0  0
 21 22  1  0  0  0  0
 21 23  1  0  0  0  0
 22 32  1  0  0  0  0
 22 33  1  0  0  0  0
 22 34  1  0  0  0  0
 23 35  1  0  0  0  0
M  END
>  <DRUGBANK_ID>
DB07559

>  <COMMON_NAME>
(2Z)-2-cyano-N-(2,2'-dichlorobiphenyl-4-yl)-3-hydroxybut-2-enamide

$$$$
