
 OpenBabel10282417213D

 55 55  0  0  0  0  0  0  0  0999 V2000
    0.0765   -1.0228    0.0251 C   0  0  0  0  0  0  0  0  0  0  0  0
    1.2627   -0.2837    0.0031 C   0  0  0  0  0  0  0  0  0  0  0  0
   -1.1353   -0.3354    0.0765 C   0  0  0  0  0  0  0  0  0  0  0  0
    0.1079   -2.5222   -0.0099 C   0  0  0  0  0  0  0  0  0  0  0  0
   -0.6091   -3.1189    1.1721 C   0  0  0  0  0  0  0  0  0  0  0  0
   -1.1446    1.0400    0.1932 C   0  0  0  0  0  0  0  0  0  0  0  0
    1.2494    1.1090   -0.0014 C   0  0  0  0  0  0  0  0  0  0  0  0
    0.0331    1.7888    0.0711 C   0  0  0  0  0  0  0  0  0  0  0  0
   -1.6933   -3.9075    1.0507 C   0  0  0  0  0  0  0  0  0  0  0  0
   -5.8131   -5.1343    1.2869 C   0  0  0  0  0  0  0  0  0  0  0  0
   -4.7982   -4.2485    1.2102 C   0  0  0  0  0  0  0  0  0  0  0  0
    2.4524   -0.9551   -0.0279 O   0  0  0  0  0  0  0  0  0  0  0  0
   -2.3272   -1.0000   -0.0007 O   0  0  0  0  0  0  0  0  0  0  0  0
   -3.9147   -3.7975    2.3410 C   0  0  0  0  0  0  0  0  0  0  0  0
   -2.4787   -4.3541    2.2607 C   0  0  0  0  0  0  0  0  0  0  0  0
   -2.1686   -4.3203   -0.3175 C   0  0  0  0  0  0  0  0  0  0  0  0
   -6.4845   -5.6439    0.0446 C   0  0  0  0  0  0  0  0  0  0  0  0
   -6.3029   -5.6258    2.6092 C   0  0  0  0  0  0  0  0  0  0  0  0
   -0.0059    3.2939   -0.0176 C   0  0  0  0  0  0  0  0  0  0  0  0
   -0.7588    3.8054   -1.2612 C   0  0  0  0  0  0  0  0  0  0  0  0
   -2.9964    3.8974   -0.0260 C   0  0  0  0  0  0  0  0  0  0  0  0
   -2.2574    3.4636   -1.2995 C   0  0  0  0  0  0  0  0  0  0  0  0
   -3.0228    5.4085    0.0793 C   0  0  0  0  0  0  0  0  0  0  0  0
   -0.3227   -2.8136   -0.9732 H   0  0  0  0  0  0  0  0  0  0  0  0
    1.1266   -2.9170   -0.0125 H   0  0  0  0  0  0  0  0  0  0  0  0
   -0.2628   -2.7992    2.1531 H   0  0  0  0  0  0  0  0  0  0  0  0
   -2.1029    1.5141    0.3422 H   0  0  0  0  0  0  0  0  0  0  0  0
    2.1774    1.6684   -0.0602 H   0  0  0  0  0  0  0  0  0  0  0  0
   -4.5640   -3.8386    0.2343 H   0  0  0  0  0  0  0  0  0  0  0  0
    3.1788   -0.3151    0.0151 H   0  0  0  0  0  0  0  0  0  0  0  0
   -3.0671   -0.3725    0.0247 H   0  0  0  0  0  0  0  0  0  0  0  0
   -4.3270   -4.1085    3.3071 H   0  0  0  0  0  0  0  0  0  0  0  0
   -3.8994   -2.7021    2.3543 H   0  0  0  0  0  0  0  0  0  0  0  0
   -2.4856   -5.4506    2.2915 H   0  0  0  0  0  0  0  0  0  0  0  0
   -1.9605   -4.0362    3.1774 H   0  0  0  0  0  0  0  0  0  0  0  0
   -2.5929   -3.4561   -0.8449 H   0  0  0  0  0  0  0  0  0  0  0  0
   -1.3509   -4.7297   -0.9154 H   0  0  0  0  0  0  0  0  0  0  0  0
   -2.9203   -5.1087   -0.2819 H   0  0  0  0  0  0  0  0  0  0  0  0
   -6.4514   -6.7392    0.0144 H   0  0  0  0  0  0  0  0  0  0  0  0
   -7.5274   -5.3189    0.0117 H   0  0  0  0  0  0  0  0  0  0  0  0
   -5.9916   -5.2885   -0.8689 H   0  0  0  0  0  0  0  0  0  0  0  0
   -5.5242   -6.1887    3.1334 H   0  0  0  0  0  0  0  0  0  0  0  0
   -6.5940   -4.7659    3.2246 H   0  0  0  0  0  0  0  0  0  0  0  0
   -7.1836   -6.2636    2.5045 H   0  0  0  0  0  0  0  0  0  0  0  0
   -0.4261    3.6978    0.9096 H   0  0  0  0  0  0  0  0  0  0  0  0
    1.0172    3.6892   -0.0583 H   0  0  0  0  0  0  0  0  0  0  0  0
   -0.6470    4.8950   -1.3097 H   0  0  0  0  0  0  0  0  0  0  0  0
   -0.2821    3.4186   -2.1703 H   0  0  0  0  0  0  0  0  0  0  0  0
   -4.0151    3.4953   -0.0341 H   0  0  0  0  0  0  0  0  0  0  0  0
   -2.5337    3.4998    0.8842 H   0  0  0  0  0  0  0  0  0  0  0  0
   -2.7238    3.9315   -2.1730 H   0  0  0  0  0  0  0  0  0  0  0  0
   -2.3928    2.3931   -1.4857 H   0  0  0  0  0  0  0  0  0  0  0  0
   -3.5239    5.8312   -0.7950 H   0  0  0  0  0  0  0  0  0  0  0  0
   -3.5487    5.7221    0.9829 H   0  0  0  0  0  0  0  0  0  0  0  0
   -2.0102    5.8205    0.1297 H   0  0  0  0  0  0  0  0  0  0  0  0
  2  1  2  0  0  0  0
  3  1  1  0  0  0  0
  4  1  1  0  0  0  0
  4 24  1  0  0  0  0
  4 25  1  0  0  0  0
  5  4  1  0  0  0  0
  5 26  1  0  0  0  0
  6  3  2  0  0  0  0
  6  8  1  0  0  0  0
  6 27  1  0  0  0  0
  7  2  1  0  0  0  0
  7 28  1  0  0  0  0
  8  7  2  0  0  0  0
  9  5  2  0  0  0  0
 10 11  2  0  0  0  0
 11 14  1  0  0  0  0
 11 29  1  0  0  0  0
 12  2  1  0  0  0  0
 12 30  1  0  0  0  0
 13  3  1  0  0  0  0
 13 31  1  0  0  0  0
 14 15  1  0  0  0  0
 14 32  1  0  0  0  0
 14 33  1  0  0  0  0
 15  9  1  0  0  0  0
 15 34  1  0  0  0  0
 15 35  1  0  0  0  0
 16  9  1  0  0  0  0
 16 36  1  0  0  0  0
 16 37  1  0  0  0  0
 16 38  1  0  0  0  0
 17 10  1  0  0  0  0
 17 39  1  0  0  0  0
 17 40  1  0  0  0  0
 17 41  1  0  0  0  0
 18 10  1  0  0  0  0
 18 42  1  0  0  0  0
 18 43  1  0  0  0  0
 18 44  1  0  0  0  0
 19  8  1  0  0  0  0
 19 45  1  0  0  0  0
 19 46  1  0  0  0  0
 20 19  1  0  0  0  0
 20 47  1  0  0  0  0
 20 48  1  0  0  0  0
 21 22  1  0  0  0  0
 21 49  1  0  0  0  0
 21 50  1  0  0  0  0
 22 20  1  0  0  0  0
 22 51  1  0  0  0  0
 22 52  1  0  0  0  0
 23 21  1  0  0  0  0
 23 53  1  0  0  0  0
 23 54  1  0  0  0  0
 23 55  1  0  0  0  0
M  END
>  <DRUGBANK_ID>
DB14734

>  <COMMON_NAME>
Cannabigerol

>  <CAS_NUMBER>
25654-31-3

>  <UNII>
J1K406072N

$$$$
