
 OpenBabel10282417133D

105107  0  0  0  0  0  0  0  0999 V2000
  -15.0622   -5.4406    1.7108 C   0  0  2  0  0  0  0  0  0  0  0  0
  -13.9432   -4.6051    2.0505 O   0  0  0  0  0  0  0  0  0  0  0  0
  -14.4809   -6.8189    1.4510 C   0  0  1  0  0  0  0  0  0  0  0  0
  -12.7177   -5.3313    1.8304 C   0  0  1  0  0  0  0  0  0  0  0  0
  -13.0660   -6.5302    0.9935 C   0  0  1  0  0  0  0  0  0  0  0  0
  -14.4952   -7.5437    2.6771 O   0  0  0  0  0  0  0  0  0  0  0  0
   -4.3199   -1.7366   10.4312 C   0  0  0  0  0  0  0  0  0  0  0  0
   -4.1173   -3.2385   10.8441 C   0  0  0  0  0  0  0  0  0  0  0  0
   -4.2520   -1.4820    8.9227 N   0  0  0  0  0  0  0  0  0  0  0  0
   -4.6076   -0.4220    8.1325 C   0  0  0  0  0  0  0  0  0  0  0  0
   -5.3086    0.4572    8.5261 O   0  0  0  0  0  0  0  0  0  0  0  0
   -5.3425   -1.2263    5.9293 C   0  0  0  0  0  0  0  0  0  0  0  0
   -4.1763   -0.5944    6.6109 C   0  0  0  0  0  0  0  0  0  0  0  0
   -6.3925   -0.3067    6.1861 N   0  0  0  0  0  0  0  0  0  0  0  0
   -6.6183    0.3798    4.0293 O   0  0  0  0  0  0  0  0  0  0  0  0
   -6.8925    0.5214    5.2172 C   0  0  0  0  0  0  0  0  0  0  0  0
  -10.4193    0.9754    4.8329 C   0  0  0  0  0  0  0  0  0  0  0  0
   -8.8768   -0.9926    5.5779 C   0  0  0  0  0  0  0  0  0  0  0  0
   -9.3608    0.4883    5.8682 C   0  0  0  0  0  0  0  0  0  0  0  0
   -9.9968    0.6969    7.2760 C   0  0  0  0  0  0  0  0  0  0  0  0
   -8.0697    1.3748    5.7239 C   0  0  1  0  0  0  0  0  0  0  0  0
   -7.7266    2.0304    6.9423 O   0  0  0  0  0  0  0  0  0  0  0  0
  -11.6309    0.2292    4.9416 O   0  0  0  0  0  0  0  0  0  0  0  0
  -11.6856   -1.1256    2.9657 O   0  0  0  0  0  0  0  0  0  0  0  0
  -11.6599   -3.3888    2.2702 O   0  0  0  0  0  0  0  0  0  0  0  0
  -12.6273   -2.1904    4.9573 O   0  0  0  0  0  0  0  0  0  0  0  0
  -11.0979   -1.5890    6.3438 O   0  0  0  0  0  0  0  0  0  0  0  0
  -12.7593   -1.6593    0.6691 O   0  0  0  0  0  0  0  0  0  0  0  0
  -13.8952   -2.0362    2.9561 O   0  0  0  0  0  0  0  0  0  0  0  0
  -11.3918   -1.3573    4.6548 P   0  0  3  0  0  0  0  0  0  0  0  0
  -12.5658   -2.0742    2.0897 P   0  0  3  0  0  0  0  0  0  0  0  0
  -11.7135   -4.3675    1.2483 C   0  0  0  0  0  0  0  0  0  0  0  0
  -12.2304   -7.6533    1.1263 O   0  0  0  0  0  0  0  0  0  0  0  0
  -11.0306   -9.5870    1.9077 O   0  0  0  0  0  0  0  0  0  0  0  0
  -10.3316   -7.2880    2.6476 O   0  0  0  0  0  0  0  0  0  0  0  0
  -11.6059   -8.2245    2.4875 P   0  0  0  0  0  0  0  0  0  0  0  0
  -12.4335   -8.3533    3.7139 O   0  0  0  0  0  0  0  0  0  0  0  0
  -15.7575   -4.8417    0.5980 N   0  0  0  0  0  0  0  0  0  0  0  0
  -16.8541   -5.3593   -0.0309 C   0  0  0  0  0  0  0  0  0  0  0  0
  -15.4968   -3.6277    0.0253 C   0  0  0  0  0  0  0  0  0  0  0  0
  -17.2045   -4.4017   -0.9667 C   0  0  0  0  0  0  0  0  0  0  0  0
  -17.4650   -6.5313    0.1972 N   0  0  0  0  0  0  0  0  0  0  0  0
  -16.3472   -3.3304   -0.9271 N   0  0  0  0  0  0  0  0  0  0  0  0
  -18.3247   -4.6646   -1.7630 C   0  0  0  0  0  0  0  0  0  0  0  0
  -18.5251   -6.6805   -0.6284 C   0  0  0  0  0  0  0  0  0  0  0  0
  -18.9826   -5.8304   -1.5773 N   0  0  0  0  0  0  0  0  0  0  0  0
  -18.7611   -3.7737   -2.7159 N   0  0  0  0  0  0  0  0  0  0  0  0
   -2.8766   -4.5777   10.3796 S   0  0  0  0  0  0  0  0  0  0  0  0
   -2.1724   -4.4803    8.7594 C   0  0  0  0  0  0  0  0  0  0  0  0
   -2.8411   -3.6863    7.6976 C   0  0  0  0  0  0  0  0  0  0  0  0
   -1.1533   -5.1145    8.4968 O   0  0  0  0  0  0  0  0  0  0  0  0
   -1.5566   -2.5967    6.7569 S   0  0  0  0  0  0  0  0  0  0  0  0
   -0.7371   -1.1793    7.7473 C   0  0  0  0  0  0  0  0  0  0  0  0
   -1.4353   -0.1946    8.6514 C   0  0  0  0  0  0  0  0  0  0  0  0
   -1.8854   -0.9590    9.8280 C   0  0  0  0  0  0  0  0  0  0  0  0
   -1.1080   -1.8328   10.7437 C   0  0  0  0  0  0  0  0  0  0  0  0
   -0.5039   -0.9494   11.7356 C   0  0  0  0  0  0  0  0  0  0  0  0
  -15.7345   -5.4304    2.5746 H   0  0  0  0  0  0  0  0  0  0  0  0
  -15.0197   -7.4270    0.7255 H   0  0  0  0  0  0  0  0  0  0  0  0
  -12.3511   -5.6191    2.8198 H   0  0  0  0  0  0  0  0  0  0  0  0
  -13.0715   -6.2404   -0.0684 H   0  0  0  0  0  0  0  0  0  0  0  0
  -13.8954   -7.1413    3.3433 H   0  0  0  0  0  0  0  0  0  0  0  0
   -3.6155   -1.2318   11.1141 H   0  0  0  0  0  0  0  0  0  0  0  0
   -5.1855   -1.1879   10.8097 H   0  0  0  0  0  0  0  0  0  0  0  0
   -3.9784   -3.2051   11.9471 H   0  0  0  0  0  0  0  0  0  0  0  0
   -5.0685   -3.7049   10.6456 H   0  0  0  0  0  0  0  0  0  0  0  0
   -3.4386   -1.7748    8.4196 H   0  0  0  0  0  0  0  0  0  0  0  0
   -5.5771   -2.2005    6.3809 H   0  0  0  0  0  0  0  0  0  0  0  0
   -5.1844   -1.3839    4.8574 H   0  0  0  0  0  0  0  0  0  0  0  0
   -3.3815   -1.2640    6.3582 H   0  0  0  0  0  0  0  0  0  0  0  0
   -3.8600    0.3638    6.1849 H   0  0  0  0  0  0  0  0  0  0  0  0
   -6.5839   -0.0945    7.1645 H   0  0  0  0  0  0  0  0  0  0  0  0
  -10.0483    0.8940    3.8053 H   0  0  0  0  0  0  0  0  0  0  0  0
  -10.6782    2.0297    4.9966 H   0  0  0  0  0  0  0  0  0  0  0  0
   -8.4654   -1.0408    4.5647 H   0  0  0  0  0  0  0  0  0  0  0  0
   -8.2514   -1.3316    6.3985 H   0  0  0  0  0  0  0  0  0  0  0  0
   -9.4430   -1.9083    5.5101 H   0  0  0  0  0  0  0  0  0  0  0  0
  -10.1639    1.7652    7.4683 H   0  0  0  0  0  0  0  0  0  0  0  0
  -10.9892    0.2602    7.4080 H   0  0  0  0  0  0  0  0  0  0  0  0
   -9.3631    0.2872    8.0655 H   0  0  0  0  0  0  0  0  0  0  0  0
   -8.2038    2.1575    4.9747 H   0  0  0  0  0  0  0  0  0  0  0  0
   -7.6529    1.3731    7.6563 H   0  0  0  0  0  0  0  0  0  0  0  0
  -11.9895   -1.8421    6.6672 H   0  0  0  0  0  0  0  0  0  0  0  0
  -14.7685   -2.3350    2.6841 H   0  0  0  0  0  0  0  0  0  0  0  0
  -10.7171   -4.8003    1.0947 H   0  0  0  0  0  0  0  0  0  0  0  0
  -12.0100   -3.9332    0.2880 H   0  0  0  0  0  0  0  0  0  0  0  0
  -11.7823  -10.1952    1.7796 H   0  0  0  0  0  0  0  0  0  0  0  0
  -10.4005   -6.4706    2.1391 H   0  0  0  0  0  0  0  0  0  0  0  0
  -14.6854   -2.9902    0.3328 H   0  0  0  0  0  0  0  0  0  0  0  0
  -19.0858   -7.6045   -0.5167 H   0  0  0  0  0  0  0  0  0  0  0  0
  -18.2619   -2.8998   -2.8222 H   0  0  0  0  0  0  0  0  0  0  0  0
  -19.5819   -3.9905   -3.2543 H   0  0  0  0  0  0  0  0  0  0  0  0
   -3.2601   -4.3493    6.9275 H   0  0  0  0  0  0  0  0  0  0  0  0
   -3.7978   -3.3377    8.0724 H   0  0  0  0  0  0  0  0  0  0  0  0
    0.0391   -1.6567    8.3377 H   0  0  0  0  0  0  0  0  0  0  0  0
   -0.2360   -0.5394    7.0156 H   0  0  0  0  0  0  0  0  0  0  0  0
   -0.8277    0.6181    9.0613 H   0  0  0  0  0  0  0  0  0  0  0  0
   -2.2552    0.3381    8.1462 H   0  0  0  0  0  0  0  0  0  0  0  0
   -2.5364   -0.2246   10.3111 H   0  0  0  0  0  0  0  0  0  0  0  0
   -2.3120   -1.8464    9.4337 H   0  0  0  0  0  0  0  0  0  0  0  0
   -1.7693   -2.4753   11.3323 H   0  0  0  0  0  0  0  0  0  0  0  0
   -0.4788   -2.5269   10.1789 H   0  0  0  0  0  0  0  0  0  0  0  0
   -1.3269   -0.4618   12.2753 H   0  0  0  0  0  0  0  0  0  0  0  0
    0.0601   -1.5921   12.3983 H   0  0  0  0  0  0  0  0  0  0  0  0
    0.0842   -0.2172   11.1911 H   0  0  0  0  0  0  0  0  0  0  0  0
  1 38  1  0  0  0  0
  1 58  1  1  0  0  0
  2  1  1  0  0  0  0
  3  1  1  0  0  0  0
  3  6  1  0  0  0  0
  3 59  1  6  0  0  0
  4  2  1  0  0  0  0
  4 32  1  0  0  0  0
  4 60  1  1  0  0  0
  5  3  1  0  0  0  0
  5  4  1  0  0  0  0
  5 33  1  0  0  0  0
  5 61  1  6  0  0  0
  6 62  1  0  0  0  0
  7  8  1  0  0  0  0
  7 63  1  0  0  0  0
  7 64  1  0  0  0  0
  8 48  1  0  0  0  0
  8 65  1  0  0  0  0
  8 66  1  0  0  0  0
  9  7  1  0  0  0  0
  9 67  1  0  0  0  0
 10  9  1  0  0  0  0
 10 11  2  0  0  0  0
 12 14  1  0  0  0  0
 12 68  1  0  0  0  0
 12 69  1  0  0  0  0
 13 10  1  0  0  0  0
 13 12  1  0  0  0  0
 13 70  1  0  0  0  0
 13 71  1  0  0  0  0
 14 72  1  0  0  0  0
 16 14  1  0  0  0  0
 16 15  2  0  0  0  0
 17 23  1  0  0  0  0
 17 73  1  0  0  0  0
 17 74  1  0  0  0  0
 18 75  1  0  0  0  0
 18 76  1  0  0  0  0
 18 77  1  0  0  0  0
 19 17  1  0  0  0  0
 19 18  1  0  0  0  0
 19 20  1  0  0  0  0
 20 78  1  0  0  0  0
 20 79  1  0  0  0  0
 20 80  1  0  0  0  0
 21 22  1  0  0  0  0
 21 81  1  6  0  0  0
 21 19  1  0  0  0  0
 21 16  1  0  0  0  0
 22 82  1  0  0  0  0
 23 30  1  0  0  0  0
 24 31  1  0  0  0  0
 27 83  1  0  0  0  0
 29 84  1  0  0  0  0
 30 24  1  0  0  0  0
 30 26  2  0  0  0  0
 30 27  1  0  0  0  0
 31 25  1  0  0  0  0
 31 28  2  0  0  0  0
 31 29  1  0  0  0  0
 32 25  1  0  0  0  0
 32 85  1  0  0  0  0
 32 86  1  0  0  0  0
 33 36  1  0  0  0  0
 34 87  1  0  0  0  0
 35 88  1  0  0  0  0
 36 34  1  0  0  0  0
 36 35  1  0  0  0  0
 36 37  2  0  0  0  0
 39 38  1  0  0  0  0
 40 38  1  0  0  0  0
 40 89  1  0  0  0  0
 41 39  2  0  0  0  0
 42 39  1  0  0  0  0
 43 40  2  0  0  0  0
 43 41  1  0  0  0  0
 44 41  1  0  0  0  0
 45 42  2  0  0  0  0
 45 90  1  0  0  0  0
 46 44  2  0  0  0  0
 46 45  1  0  0  0  0
 47 44  1  0  0  0  0
 47 91  1  0  0  0  0
 47 92  1  0  0  0  0
 48 49  1  0  0  0  0
 49 50  1  0  0  0  0
 49 51  2  0  0  0  0
 50 52  1  0  0  0  0
 50 93  1  0  0  0  0
 50 94  1  0  0  0  0
 53 52  1  0  0  0  0
 53 95  1  0  0  0  0
 53 96  1  0  0  0  0
 54 53  1  0  0  0  0
 54 97  1  0  0  0  0
 54 98  1  0  0  0  0
 55 54  1  0  0  0  0
 55 99  1  0  0  0  0
 55100  1  0  0  0  0
 56 55  1  0  0  0  0
 56101  1  0  0  0  0
 56102  1  0  0  0  0
 57 56  1  0  0  0  0
 57103  1  0  0  0  0
 57104  1  0  0  0  0
 57105  1  0  0  0  0
M  END
>  <DRUGBANK_ID>
DB03415

>  <SECONDARY_ACCESSION_NUMBERS>
EXPT01029

>  <COMMON_NAME>
3-thiaoctanoyl-CoA

>  <SYNONYMS>
3-thiaoctanoyl-coenzyme A

$$$$
