5105
 OpenBabel10282417173D

 53 54  0  0  0  0  0  0  0  0999 V2000
    1.0487   -0.0351   -0.1136 O   0  0  0  0  0  0  0  0  0  0  0  0
    5.0358    0.9584   -4.1443 O   0  0  0  0  0  0  0  0  0  0  0  0
    4.1151    3.9326   -2.5925 O   0  0  0  0  0  0  0  0  0  0  0  0
    6.6361    2.0968   -2.9557 O   0  0  0  0  0  0  0  0  0  0  0  0
   -0.2629    3.6702    4.2817 N   0  0  0  0  0  0  0  0  0  0  0  0
    3.0327    2.0203   -2.1509 N   0  0  0  0  0  0  0  0  0  0  0  0
   -1.4148    3.1203    5.0005 C   0  0  0  0  0  0  0  0  0  0  0  0
   -0.6952    4.3229    3.0372 C   0  0  0  0  0  0  0  0  0  0  0  0
   -1.7344    5.4076    3.3273 C   0  0  0  0  0  0  0  0  0  0  0  0
   -2.4604    4.1476    5.3706 C   0  0  0  0  0  0  0  0  0  0  0  0
   -2.9274    4.8535    4.1041 C   0  0  0  0  0  0  0  0  0  0  0  0
    0.7472    2.6264    4.0231 C   0  0  0  0  0  0  0  0  0  0  0  0
    0.2898    1.4736    3.1493 C   0  0  0  0  0  0  0  0  0  0  0  0
    0.8564    1.3070    1.8879 C   0  0  0  0  0  0  0  0  0  0  0  0
   -0.6992    0.5622    3.5598 C   0  0  0  0  0  0  0  0  0  0  0  0
    0.4553    0.2444    1.0810 C   0  0  0  0  0  0  0  0  0  0  0  0
   -1.1723   -0.4319    2.7131 C   0  0  0  0  0  0  0  0  0  0  0  0
   -0.5999   -0.5825    1.4607 C   0  0  0  0  0  0  0  0  0  0  0  0
    2.4794   -0.0328   -0.0368 C   0  0  0  0  0  0  0  0  0  0  0  0
    3.0052   -0.3318   -1.4304 C   0  0  0  0  0  0  0  0  0  0  0  0
    2.5029    0.6983   -2.4359 C   0  0  0  0  0  0  0  0  0  0  0  0
    3.8353    2.7887   -2.9466 C   0  0  0  0  0  0  0  0  0  0  0  0
    4.3094    2.1870   -4.2720 C   0  0  0  0  0  0  0  0  0  0  0  0
    6.1865    1.0591   -3.4287 C   0  0  0  0  0  0  0  0  0  0  0  0
    6.8514   -0.2728   -3.2699 C   0  0  0  0  0  0  0  0  0  0  0  0
    2.7438    2.4941   -1.3018 H   0  0  0  0  0  0  0  0  0  0  0  0
   -1.0867    2.5797    5.8957 H   0  0  0  0  0  0  0  0  0  0  0  0
   -1.9620    2.4360    4.3508 H   0  0  0  0  0  0  0  0  0  0  0  0
   -1.1348    3.5964    2.3418 H   0  0  0  0  0  0  0  0  0  0  0  0
    0.1636    4.7781    2.5279 H   0  0  0  0  0  0  0  0  0  0  0  0
   -2.0811    5.8358    2.3810 H   0  0  0  0  0  0  0  0  0  0  0  0
   -1.2685    6.2140    3.9050 H   0  0  0  0  0  0  0  0  0  0  0  0
   -2.0621    4.8546    6.1035 H   0  0  0  0  0  0  0  0  0  0  0  0
   -3.3055    3.6214    5.8317 H   0  0  0  0  0  0  0  0  0  0  0  0
   -3.6286    5.6506    4.3616 H   0  0  0  0  0  0  0  0  0  0  0  0
   -3.4676    4.1385    3.4673 H   0  0  0  0  0  0  0  0  0  0  0  0
    1.1173    2.2140    4.9703 H   0  0  0  0  0  0  0  0  0  0  0  0
    1.6304    3.1055    3.5741 H   0  0  0  0  0  0  0  0  0  0  0  0
    1.6069    2.0143    1.5484 H   0  0  0  0  0  0  0  0  0  0  0  0
   -1.1615    0.6331    4.5394 H   0  0  0  0  0  0  0  0  0  0  0  0
   -1.9667   -1.0906    3.0508 H   0  0  0  0  0  0  0  0  0  0  0  0
   -0.9524   -1.3670    0.7998 H   0  0  0  0  0  0  0  0  0  0  0  0
    2.8705    0.9383    0.2850 H   0  0  0  0  0  0  0  0  0  0  0  0
    2.8236   -0.7967    0.6704 H   0  0  0  0  0  0  0  0  0  0  0  0
    4.1000   -0.3537   -1.4133 H   0  0  0  0  0  0  0  0  0  0  0  0
    2.6509   -1.3206   -1.7428 H   0  0  0  0  0  0  0  0  0  0  0  0
    2.7776    0.3755   -3.4403 H   0  0  0  0  0  0  0  0  0  0  0  0
    1.4113    0.7790   -2.4259 H   0  0  0  0  0  0  0  0  0  0  0  0
    3.4134    1.9916   -4.8755 H   0  0  0  0  0  0  0  0  0  0  0  0
    4.9023    2.9207   -4.8273 H   0  0  0  0  0  0  0  0  0  0  0  0
    6.2073   -0.9632   -2.7196 H   0  0  0  0  0  0  0  0  0  0  0  0
    7.1179   -0.6834   -4.2461 H   0  0  0  0  0  0  0  0  0  0  0  0
    7.7717   -0.1347   -2.6928 H   0  0  0  0  0  0  0  0  0  0  0  0
  1 16  1  0  0  0  0
  1 19  1  0  0  0  0
  2 23  1  0  0  0  0
  2 24  1  0  0  0  0
  3 22  2  0  0  0  0
  4 24  2  0  0  0  0
  5  7  1  0  0  0  0
  5  8  1  0  0  0  0
  5 12  1  0  0  0  0
  6 21  1  0  0  0  0
  6 22  1  0  0  0  0
  6 26  1  0  0  0  0
  7 10  1  0  0  0  0
  7 27  1  0  0  0  0
  7 28  1  0  0  0  0
  8  9  1  0  0  0  0
  8 29  1  0  0  0  0
  8 30  1  0  0  0  0
  9 11  1  0  0  0  0
  9 31  1  0  0  0  0
  9 32  1  0  0  0  0
 10 11  1  0  0  0  0
 10 33  1  0  0  0  0
 10 34  1  0  0  0  0
 11 35  1  0  0  0  0
 11 36  1  0  0  0  0
 12 13  1  0  0  0  0
 12 37  1  0  0  0  0
 12 38  1  0  0  0  0
 13 14  2  0  0  0  0
 13 15  1  0  0  0  0
 14 16  1  0  0  0  0
 14 39  1  0  0  0  0
 15 17  2  0  0  0  0
 15 40  1  0  0  0  0
 16 18  2  0  0  0  0
 17 18  1  0  0  0  0
 17 41  1  0  0  0  0
 18 42  1  0  0  0  0
 19 20  1  0  0  0  0
 19 43  1  0  0  0  0
 19 44  1  0  0  0  0
 20 21  1  0  0  0  0
 20 45  1  0  0  0  0
 20 46  1  0  0  0  0
 21 47  1  0  0  0  0
 21 48  1  0  0  0  0
 22 23  1  0  0  0  0
 23 49  1  0  0  0  0
 23 50  1  0  0  0  0
 24 25  1  0  0  0  0
 25 51  1  0  0  0  0
 25 52  1  0  0  0  0
 25 53  1  0  0  0  0
M  END
>  <DRUGBANK_ID>
DB08806

>  <COMMON_NAME>
Roxatidine acetate

>  <CAS_NUMBER>
78628-28-1

>  <UNII>
ZUP3LSD0DO

>  <SYNONYMS>
Pifatidine

$$$$
