
 OpenBabel10282417203D

 94 95  0  0  0  0  0  0  0  0999 V2000
   -2.5315    1.3134    0.0498 C   0  0  0  0  0  0  0  0  0  0  0  0
   -1.3285    0.4713    0.0403 C   0  0  0  0  0  0  0  0  0  0  0  0
   -0.1645    1.1274   -0.1191 N   0  0  0  0  0  0  0  0  0  0  0  0
    0.9018    0.4052   -0.3929 C   0  0  0  0  0  0  0  0  0  0  0  0
    0.7340   -0.9983   -0.4927 C   0  0  0  0  0  0  0  0  0  0  0  0
   -0.5037   -1.5634   -0.2571 C   0  0  0  0  0  0  0  0  0  0  0  0
   -1.5588   -0.8462    0.0117 N   0  0  0  0  0  0  0  0  0  0  0  0
    1.6891   -2.1297   -0.4324 C   0  0  0  0  0  0  0  0  0  0  0  0
    1.6665   -2.8751    1.1866 N   0  0  0  0  0  0  0  0  0  0  0  0
    2.0544   -4.2559    1.2288 C   0  0  0  0  0  0  0  0  0  0  0  0
    2.2940   -5.1446    2.2223 C   0  0  0  0  0  0  0  0  0  0  0  0
    2.4241   -6.8871    2.0014 S   0  0  0  0  0  0  0  0  0  0  0  0
    3.7138   -7.5768    0.4225 S   0  0  0  0  0  0  0  0  0  0  0  0
    3.0824   -9.2455   -0.0738 C   0  0  0  0  0  0  0  0  0  0  0  0
    2.8531  -10.2070    0.9470 C   0  0  0  0  0  0  0  0  0  0  0  0
    2.4414  -11.6165    0.7749 N   0  0  0  0  0  0  0  0  0  0  0  0
    2.3054  -12.4859    1.8790 C   0  0  0  0  0  0  0  0  0  0  0  0
    2.1767  -13.7043    1.8250 O   0  0  0  0  0  0  0  0  0  0  0  0
    2.1628  -12.3500   -0.5122 C   0  0  0  0  0  0  0  0  0  0  0  0
    0.7726  -12.1454   -1.1797 C   0  0  0  0  0  0  0  0  0  0  0  0
    0.0842  -10.9608   -1.1109 C   0  0  0  0  0  0  0  0  0  0  0  0
   -0.9046  -10.5167   -1.8736 N   0  0  0  0  0  0  0  0  0  0  0  0
   -1.3913  -11.3513   -2.7522 C   0  0  0  0  0  0  0  0  0  0  0  0
   -0.9957  -12.6376   -2.7926 N   0  0  0  0  0  0  0  0  0  0  0  0
    0.0628  -13.0042   -1.9754 C   0  0  0  0  0  0  0  0  0  0  0  0
   -2.4439  -10.7093   -3.6028 C   0  0  0  0  0  0  0  0  0  0  0  0
    0.4777  -10.0590   -0.1673 N   0  0  0  0  0  0  0  0  0  0  0  0
    2.5273   -9.6872    2.3757 C   0  0  0  0  0  0  0  0  0  0  0  0
    2.8614   -9.4341   -1.7730 C   0  0  0  0  0  0  0  0  0  0  0  0
    1.5913   -8.9985   -2.6677 C   0  0  0  0  0  0  0  0  0  0  0  0
    1.4550   -7.6327   -2.8162 O   0  0  0  0  0  0  0  0  0  0  0  0
    0.8408   -7.0940   -1.7597 C   0  0  0  0  0  0  0  0  0  0  0  0
    0.4348   -7.6548   -0.6919 O   0  0  0  0  0  0  0  0  0  0  0  0
    0.8071   -5.6781   -1.8980 C   0  0  0  0  0  0  0  0  0  0  0  0
    2.1602   -5.3096   -2.6089 C   0  0  0  0  0  0  0  0  0  0  0  0
   -0.4227   -5.1597   -2.5299 C   0  0  0  0  0  0  0  0  0  0  0  0
    2.4666   -4.7502    3.6597 C   0  0  0  0  0  0  0  0  0  0  0  0
    3.7799   -3.9129    3.8466 C   0  0  0  0  0  0  0  0  0  0  0  0
    4.0346   -2.7929    2.9594 O   0  0  0  0  0  0  0  0  0  0  0  0
    4.5198   -3.0249    1.7222 C   0  0  0  0  0  0  0  0  0  0  0  0
    4.9624   -4.1038    1.3253 O   0  0  0  0  0  0  0  0  0  0  0  0
    4.2913   -1.8578    0.7872 C   0  0  0  0  0  0  0  0  0  0  0  0
    3.2832   -0.7590    1.0220 C   0  0  0  0  0  0  0  0  0  0  0  0
    5.4396   -0.9451    0.5882 C   0  0  0  0  0  0  0  0  0  0  0  0
    2.5066   -4.7070   -0.0552 C   0  0  0  0  0  0  0  0  0  0  0  0
    1.5199   -2.1893    2.4859 C   0  0  0  0  0  0  0  0  0  0  0  0
    1.5400   -1.0296    2.8995 O   0  0  0  0  0  0  0  0  0  0  0  0
    2.0061    1.2425   -0.5685 N   0  0  0  0  0  0  0  0  0  0  0  0
   -2.5106    1.9369    0.9402 H   0  0  0  0  0  0  0  0  0  0  0  0
   -2.5042    1.9141   -0.8610 H   0  0  0  0  0  0  0  0  0  0  0  0
   -3.4120    0.6697    0.0376 H   0  0  0  0  0  0  0  0  0  0  0  0
   -0.6157   -2.6458   -0.1566 H   0  0  0  0  0  0  0  0  0  0  0  0
    1.4549   -2.8036   -1.2669 H   0  0  0  0  0  0  0  0  0  0  0  0
    2.6437   -1.8437   -0.8665 H   0  0  0  0  0  0  0  0  0  0  0  0
    2.3591  -12.0349    2.8679 H   0  0  0  0  0  0  0  0  0  0  0  0
    3.0209  -12.1198   -1.1509 H   0  0  0  0  0  0  0  0  0  0  0  0
    2.2785  -13.4269   -0.3564 H   0  0  0  0  0  0  0  0  0  0  0  0
    0.2718  -14.0676   -1.9444 H   0  0  0  0  0  0  0  0  0  0  0  0
   -2.9983   -9.9855   -2.9818 H   0  0  0  0  0  0  0  0  0  0  0  0
   -2.0075  -10.1133   -4.4165 H   0  0  0  0  0  0  0  0  0  0  0  0
   -3.1471  -11.4374   -3.9928 H   0  0  0  0  0  0  0  0  0  0  0  0
    0.4156   -9.0742   -0.4214 H   0  0  0  0  0  0  0  0  0  0  0  0
    1.4363  -10.2840   -0.2406 H   0  0  0  0  0  0  0  0  0  0  0  0
    3.3340   -9.0640    2.7549 H   0  0  0  0  0  0  0  0  0  0  0  0
    1.5370   -9.1897    2.3503 H   0  0  0  0  0  0  0  0  0  0  0  0
    2.3725  -10.3553    3.2123 H   0  0  0  0  0  0  0  0  0  0  0  0
    3.7610   -9.0812   -2.2922 H   0  0  0  0  0  0  0  0  0  0  0  0
    2.8690  -10.4968   -1.9805 H   0  0  0  0  0  0  0  0  0  0  0  0
    1.5298   -9.4960   -3.6484 H   0  0  0  0  0  0  0  0  0  0  0  0
    0.6027   -9.2146   -2.3406 H   0  0  0  0  0  0  0  0  0  0  0  0
    0.5876   -5.4209   -0.8484 H   0  0  0  0  0  0  0  0  0  0  0  0
    2.2118   -5.7025   -3.6238 H   0  0  0  0  0  0  0  0  0  0  0  0
    2.3434   -4.2394   -2.6677 H   0  0  0  0  0  0  0  0  0  0  0  0
    3.0417   -5.7781   -2.1236 H   0  0  0  0  0  0  0  0  0  0  0  0
   -1.2794   -5.4767   -1.9202 H   0  0  0  0  0  0  0  0  0  0  0  0
   -0.3656   -4.0709   -2.5129 H   0  0  0  0  0  0  0  0  0  0  0  0
   -0.4963   -5.5745   -3.5263 H   0  0  0  0  0  0  0  0  0  0  0  0
    1.5094   -4.3441    4.0116 H   0  0  0  0  0  0  0  0  0  0  0  0
    2.5184   -5.5950    4.3541 H   0  0  0  0  0  0  0  0  0  0  0  0
    3.7232   -3.4379    4.8262 H   0  0  0  0  0  0  0  0  0  0  0  0
    4.6458   -4.5798    3.8264 H   0  0  0  0  0  0  0  0  0  0  0  0
    4.1725   -2.3599   -0.1892 H   0  0  0  0  0  0  0  0  0  0  0  0
    3.4390    0.0540    1.7219 H   0  0  0  0  0  0  0  0  0  0  0  0
    3.2652   -0.4011    0.0123 H   0  0  0  0  0  0  0  0  0  0  0  0
    2.2352   -0.8642    1.1219 H   0  0  0  0  0  0  0  0  0  0  0  0
    6.3214   -1.5167    0.3783 H   0  0  0  0  0  0  0  0  0  0  0  0
    5.2064   -0.2738   -0.2593 H   0  0  0  0  0  0  0  0  0  0  0  0
    5.4999   -0.3495    1.5019 H   0  0  0  0  0  0  0  0  0  0  0  0
    1.7704   -4.2742   -0.6604 H   0  0  0  0  0  0  0  0  0  0  0  0
    3.4617   -4.3750   -0.4387 H   0  0  0  0  0  0  0  0  0  0  0  0
    2.3883   -5.7544   -0.1967 H   0  0  0  0  0  0  0  0  0  0  0  0
    1.5417   -2.8520    3.3130 H   0  0  0  0  0  0  0  0  0  0  0  0
    1.7645    2.1502   -0.1635 H   0  0  0  0  0  0  0  0  0  0  0  0
    2.9135    1.0941   -0.1611 H   0  0  0  0  0  0  0  0  0  0  0  0
  1  2  1  0  0  0  0
  1 49  1  0  0  0  0
  1 50  1  0  0  0  0
  1 51  1  0  0  0  0
  2  3  2  0  0  0  0
  2  7  1  0  0  0  0
  3  4  1  0  0  0  0
  4  5  2  0  0  0  0
  4 48  1  0  0  0  0
  5  6  1  0  0  0  0
  5  8  1  0  0  0  0
  6  7  2  0  0  0  0
  6 52  1  0  0  0  0
  8  9  1  0  0  0  0
  8 53  1  0  0  0  0
  8 54  1  0  0  0  0
  9 10  1  0  0  0  0
  9 46  1  0  0  0  0
 10 11  2  0  0  0  0
 10 45  1  0  0  0  0
 11 12  1  0  0  0  0
 11 37  1  0  0  0  0
 12 13  1  0  0  0  0
 13 14  1  0  0  0  0
 14 15  2  0  0  0  0
 14 29  1  0  0  0  0
 15 16  1  0  0  0  0
 15 28  1  0  0  0  0
 16 17  1  0  0  0  0
 16 19  1  0  0  0  0
 17 18  2  0  0  0  0
 17 55  1  0  0  0  0
 19 20  1  0  0  0  0
 19 56  1  0  0  0  0
 19 57  1  0  0  0  0
 20 21  2  0  0  0  0
 20 25  1  0  0  0  0
 21 22  1  0  0  0  0
 21 27  1  0  0  0  0
 22 23  2  0  0  0  0
 23 24  1  0  0  0  0
 23 26  1  0  0  0  0
 24 25  2  0  0  0  0
 25 58  1  0  0  0  0
 26 59  1  0  0  0  0
 26 60  1  0  0  0  0
 26 61  1  0  0  0  0
 27 62  1  0  0  0  0
 27 63  1  0  0  0  0
 28 64  1  0  0  0  0
 28 65  1  0  0  0  0
 28 66  1  0  0  0  0
 29 30  1  0  0  0  0
 29 67  1  0  0  0  0
 29 68  1  0  0  0  0
 30 31  1  0  0  0  0
 30 69  1  0  0  0  0
 30 70  1  0  0  0  0
 31 32  1  0  0  0  0
 32 33  2  0  0  0  0
 32 34  1  0  0  0  0
 34 35  1  0  0  0  0
 34 36  1  0  0  0  0
 34 71  1  0  0  0  0
 35 72  1  0  0  0  0
 35 73  1  0  0  0  0
 35 74  1  0  0  0  0
 36 75  1  0  0  0  0
 36 76  1  0  0  0  0
 36 77  1  0  0  0  0
 37 38  1  0  0  0  0
 37 78  1  0  0  0  0
 37 79  1  0  0  0  0
 38 39  1  0  0  0  0
 38 80  1  0  0  0  0
 38 81  1  0  0  0  0
 39 40  1  0  0  0  0
 40 41  2  0  0  0  0
 40 42  1  0  0  0  0
 42 43  1  0  0  0  0
 42 44  1  0  0  0  0
 42 82  1  0  0  0  0
 43 83  1  0  0  0  0
 43 84  1  0  0  0  0
 43 85  1  0  0  0  0
 44 86  1  0  0  0  0
 44 87  1  0  0  0  0
 44 88  1  0  0  0  0
 45 89  1  0  0  0  0
 45 90  1  0  0  0  0
 45 91  1  0  0  0  0
 46 47  2  0  0  0  0
 46 92  1  0  0  0  0
 48 93  1  0  0  0  0
 48 94  1  0  0  0  0
M  END
>  <DRUGBANK_ID>
DB13416

>  <COMMON_NAME>
Sulbutiamine

>  <CAS_NUMBER>
3286-46-2

>  <UNII>
42NCM1BW43

>  <SYNONYMS>
Sulbutiamina; Sulbutiamine

$$$$
