
 OpenBabel10282417133D

 20 19  0  0  0  0  0  0  0  0999 V2000
    0.9467   -0.1227   -0.0909 O   0  0  0  0  0  0  0  0  0  0  0  0
    3.1448    2.7269    0.0570 N   0  3  0  0  0  0  0  0  0  0  0  0
    4.3243    4.4202   -0.9822 N   0  0  0  0  0  0  0  0  0  0  0  0
    4.2664    4.3561    1.3107 N   0  0  0  0  0  0  0  0  0  0  0  0
    1.0610    1.9547    1.1481 C   0  0  0  0  0  0  0  0  0  0  0  0
    2.5820    1.9750    1.1940 C   0  0  0  0  0  0  0  0  0  0  0  0
    0.5208    1.2288   -0.0749 C   0  0  0  0  0  0  0  0  0  0  0  0
    3.9066    3.8245    0.1409 C   0  0  0  0  0  0  0  0  0  0  0  0
    2.9453    2.3905   -0.8783 H   0  0  0  0  0  0  0  0  0  0  0  0
    4.8986    5.2509   -0.9525 H   0  0  0  0  0  0  0  0  0  0  0  0
    4.0770    4.0737   -1.9023 H   0  0  0  0  0  0  0  0  0  0  0  0
    3.9813    3.9482    2.1915 H   0  0  0  0  0  0  0  0  0  0  0  0
    4.8425    5.1809    1.3702 H   0  0  0  0  0  0  0  0  0  0  0  0
    1.9093   -0.1796   -0.1952 H   0  0  0  0  0  0  0  0  0  0  0  0
    0.6804    2.9831    1.1593 H   0  0  0  0  0  0  0  0  0  0  0  0
    0.6984    1.4563    2.0547 H   0  0  0  0  0  0  0  0  0  0  0  0
    2.8967    2.4111    2.1429 H   0  0  0  0  0  0  0  0  0  0  0  0
    3.0080    0.9677    1.1657 H   0  0  0  0  0  0  0  0  0  0  0  0
    0.8382    1.7149   -1.0031 H   0  0  0  0  0  0  0  0  0  0  0  0
   -0.5727    1.2349   -0.0578 H   0  0  0  0  0  0  0  0  0  0  0  0
  1  7  1  0  0  0  0
  1 14  1  0  0  0  0
  2  6  1  0  0  0  0
  2  8  2  0  0  0  0
  2  9  1  0  0  0  0
  3  8  1  0  0  0  0
  3 10  1  0  0  0  0
  3 11  1  0  0  0  0
  4  8  1  0  0  0  0
  4 12  1  0  0  0  0
  4 13  1  0  0  0  0
  5  6  1  0  0  0  0
  5  7  1  0  0  0  0
  5 15  1  0  0  0  0
  5 16  1  0  0  0  0
  6 17  1  0  0  0  0
  6 18  1  0  0  0  0
  7 19  1  0  0  0  0
  7 20  1  0  0  0  0
M  CHG  1   2   1
M  END
>  <DRUGBANK_ID>
DB03637

>  <SECONDARY_ACCESSION_NUMBERS>
EXPT02563

>  <COMMON_NAME>
Guanidine-3-propanol

$$$$
