
 OpenBabel10282417103D

 14 13  0  0  0  0  0  0  0  0999 V2000
   -0.6336   -0.4568   -1.8843 C   0  0  0  0  0  0  0  0  0  0  0  0
    0.2647    0.5060   -1.0754 C   0  0  2  0  0  0  0  0  0  0  0  0
    1.0406   -0.0912    0.1037 C   0  0  0  0  0  0  0  0  0  0  0  0
   -0.4710   -1.7788   -1.6771 O   0  0  0  0  0  0  0  0  0  0  0  0
   -1.4594   -0.0452   -2.6958 O   0  0  0  0  0  0  0  0  0  0  0  0
   -0.5345    1.6690   -0.6105 N   0  0  0  0  0  0  0  0  0  0  0  0
    0.0299   -1.1064    1.2403 S   0  0  0  0  0  0  0  0  0  0  0  0
    1.0018    0.8942   -1.7922 H   0  0  0  0  0  0  0  0  0  0  0  0
    1.8555   -0.7202   -0.2712 H   0  0  0  0  0  0  0  0  0  0  0  0
    1.5043    0.7060    0.6961 H   0  0  0  0  0  0  0  0  0  0  0  0
    0.0492   -2.0306   -0.8865 H   0  0  0  0  0  0  0  0  0  0  0  0
   -1.0415    2.0402   -1.4217 H   0  0  0  0  0  0  0  0  0  0  0  0
   -1.2673    1.3476    0.0200 H   0  0  0  0  0  0  0  0  0  0  0  0
   -1.0052   -0.2586    1.3553 H   0  0  0  0  0  0  0  0  0  0  0  0
  2  6  1  0  0  0  0
  2  8  1  6  0  0  0
  2  3  1  0  0  0  0
  2  1  1  0  0  0  0
  3  9  1  0  0  0  0
  3 10  1  0  0  0  0
  4  1  1  0  0  0  0
  4 11  1  0  0  0  0
  5  1  2  0  0  0  0
  6 12  1  0  0  0  0
  6 13  1  0  0  0  0
  7  3  1  0  0  0  0
  7 14  1  0  0  0  0
M  END
>  <DRUGBANK_ID>
DB00151

>  <SECONDARY_ACCESSION_NUMBERS>
NUTR00018; DB04443; DB09485

>  <COMMON_NAME>
Cysteine

>  <CAS_NUMBER>
52-90-4

>  <UNII>
K848JZ4886

>  <SYNONYMS>
(2R)-2-amino-3-mercaptopropanoic acid; (2R)-2-amino-3-sulfanylpropanoic acid; (R)-2-Amino-3-mercaptopropanoic acid; Cisteina; Cisteinum; Cys; Cysteine; Cysteinum; Free Cysteine; L-2-Amino-3-mercaptopropionic acid; L-Cys; L-Cystein; L-cysteine; L-Zystein

$$$$
