TBL
 OpenBabel10282417173D

 30 30  0  0  0  0  0  0  0  0999 V2000
    0.8762    0.3382   -0.1186 O   0  0  0  0  0  0  0  0  0  0  0  0
    2.2901    0.0388   -0.1806 S   0  0  0  0  0  0  0  0  0  0  0  0
    2.7988   -1.2582    0.1836 O   0  0  0  0  0  0  0  0  0  0  0  0
    3.0557    1.1291    0.8625 N   0  0  0  0  0  0  0  0  0  0  0  0
    4.5321    1.1373    1.0622 C   0  0  2  0  0  0  0  0  0  0  0  0
    5.2255    1.6234   -0.2007 C   0  0  0  0  0  0  0  0  0  0  0  0
    5.1827   -0.1379    1.5910 C   0  0  0  0  0  0  0  0  0  0  0  0
    6.3947   -0.3161    1.5874 O   0  0  0  0  0  0  0  0  0  0  0  0
    4.3530   -1.0333    2.1652 O   0  0  0  0  0  0  0  0  0  0  0  0
    2.8662    0.4556   -1.7981 C   0  0  0  0  0  0  0  0  0  0  0  0
    2.8274    1.7958   -2.1900 C   0  0  0  0  0  0  0  0  0  0  0  0
    3.4303    2.1839   -3.3845 C   0  0  0  0  0  0  0  0  0  0  0  0
    4.0464    1.2382   -4.2061 C   0  0  0  0  0  0  0  0  0  0  0  0
    4.1349   -0.0919   -3.7771 C   0  0  0  0  0  0  0  0  0  0  0  0
    3.5157   -0.4989   -2.5890 C   0  0  0  0  0  0  0  0  0  0  0  0
    4.5798    1.5070   -5.4382 O   0  0  0  0  0  0  0  0  0  0  0  0
    4.3347    2.8151   -5.9533 C   0  0  0  0  0  0  0  0  0  0  0  0
    4.7315    1.8918    1.8400 H   0  0  0  0  0  0  0  0  0  0  0  0
    2.6111    2.0497    0.8722 H   0  0  0  0  0  0  0  0  0  0  0  0
    4.8181    2.5889   -0.5227 H   0  0  0  0  0  0  0  0  0  0  0  0
    6.3068    1.7256   -0.1018 H   0  0  0  0  0  0  0  0  0  0  0  0
    5.0993    0.8911   -0.9924 H   0  0  0  0  0  0  0  0  0  0  0  0
    3.4297   -0.9594    1.8355 H   0  0  0  0  0  0  0  0  0  0  0  0
    2.4022    2.5550   -1.5395 H   0  0  0  0  0  0  0  0  0  0  0  0
    3.4277    3.2392   -3.6347 H   0  0  0  0  0  0  0  0  0  0  0  0
    4.7031   -0.8124   -4.3638 H   0  0  0  0  0  0  0  0  0  0  0  0
    3.5866   -1.5387   -2.2741 H   0  0  0  0  0  0  0  0  0  0  0  0
    3.2659    3.0640   -5.9557 H   0  0  0  0  0  0  0  0  0  0  0  0
    4.9056    3.5553   -5.3836 H   0  0  0  0  0  0  0  0  0  0  0  0
    4.6800    2.8504   -6.9904 H   0  0  0  0  0  0  0  0  0  0  0  0
  2  1  2  0  0  0  0
  2  4  1  0  0  0  0
  3  2  2  0  0  0  0
  4 19  1  0  0  0  0
  5  4  1  0  0  0  0
  5  6  1  0  0  0  0
  5 18  1  1  0  0  0
  6 20  1  0  0  0  0
  6 21  1  0  0  0  0
  6 22  1  0  0  0  0
  7  5  1  0  0  0  0
  7  9  1  0  0  0  0
  8  7  2  0  0  0  0
  9 23  1  0  0  0  0
 10  2  1  0  0  0  0
 10 11  1  0  0  0  0
 11 24  1  0  0  0  0
 12 11  2  0  0  0  0
 12 25  1  0  0  0  0
 13 12  1  0  0  0  0
 14 13  2  0  0  0  0
 14 15  1  0  0  0  0
 14 26  1  0  0  0  0
 15 10  2  0  0  0  0
 15 27  1  0  0  0  0
 16 13  1  0  0  0  0
 17 16  1  0  0  0  0
 17 28  1  0  0  0  0
 17 29  1  0  0  0  0
 17 30  1  0  0  0  0
M  END
>  <DRUGBANK_ID>
DB08599

>  <COMMON_NAME>
N-[(4-methoxyphenyl)sulfonyl]-D-alanine

$$$$
