
 OpenBabel10282417183D

 33 32  0  0  0  0  0  0  0  0999 V2000
    2.4201    4.8956   -0.9939 O   0  0  0  0  0  0  0  0  0  0  0  0
    2.3619    3.6946   -1.7594 C   0  0  0  0  0  0  0  0  0  0  0  0
    3.1219    2.5681   -1.0236 C   0  0  0  0  0  0  0  0  0  0  0  0
    2.5850    2.3176    0.4271 C   0  0  2  0  0  0  0  0  0  0  0  0
    1.0426    2.3966    0.5061 C   0  0  0  0  0  0  0  0  0  0  0  0
    0.3955    1.3067    1.0265 N   0  0  0  0  0  0  0  0  0  0  0  0
   -1.0577    1.2633    1.0695 C   0  0  0  0  0  0  0  0  0  0  0  0
   -1.5809   -0.0343    0.4686 C   0  0  0  0  0  0  0  0  0  0  0  0
   -1.1147   -1.2569    1.2454 C   0  0  0  0  0  0  0  0  0  0  0  0
   -1.5890   -1.2242    2.5838 O   0  0  0  0  0  0  0  0  0  0  0  0
    0.4228    3.4022    0.1451 O   0  0  0  0  0  0  0  0  0  0  0  0
    3.0999    3.2576    1.3728 O   0  0  0  0  0  0  0  0  0  0  0  0
    2.9861    1.2674   -1.8368 C   0  0  0  0  0  0  0  0  0  0  0  0
    4.6132    2.9726   -1.0005 C   0  0  0  0  0  0  0  0  0  0  0  0
    1.6641    4.8501   -0.3721 H   0  0  0  0  0  0  0  0  0  0  0  0
    1.3153    3.4366   -1.9582 H   0  0  0  0  0  0  0  0  0  0  0  0
    2.7962    3.8925   -2.7450 H   0  0  0  0  0  0  0  0  0  0  0  0
    2.9217    1.3338    0.7756 H   0  0  0  0  0  0  0  0  0  0  0  0
    0.9347    0.6416    1.5711 H   0  0  0  0  0  0  0  0  0  0  0  0
   -1.3742    1.3933    2.1092 H   0  0  0  0  0  0  0  0  0  0  0  0
   -1.4820    2.1029    0.5083 H   0  0  0  0  0  0  0  0  0  0  0  0
   -2.6768    0.0011    0.4628 H   0  0  0  0  0  0  0  0  0  0  0  0
   -1.2482   -0.1153   -0.5740 H   0  0  0  0  0  0  0  0  0  0  0  0
   -1.4979   -2.1667    0.7762 H   0  0  0  0  0  0  0  0  0  0  0  0
   -0.0225   -1.3317    1.2598 H   0  0  0  0  0  0  0  0  0  0  0  0
   -1.2221   -0.4425    3.0302 H   0  0  0  0  0  0  0  0  0  0  0  0
    2.9642    4.1486    0.9971 H   0  0  0  0  0  0  0  0  0  0  0  0
    3.3281    1.4062   -2.8686 H   0  0  0  0  0  0  0  0  0  0  0  0
    3.5913    0.4661   -1.3961 H   0  0  0  0  0  0  0  0  0  0  0  0
    1.9478    0.9218   -1.8709 H   0  0  0  0  0  0  0  0  0  0  0  0
    4.9841    3.1347   -2.0205 H   0  0  0  0  0  0  0  0  0  0  0  0
    4.7761    3.9081   -0.4540 H   0  0  0  0  0  0  0  0  0  0  0  0
    5.2336    2.1988   -0.5391 H   0  0  0  0  0  0  0  0  0  0  0  0
  1  2  1  0  0  0  0
  1 15  1  0  0  0  0
  2  3  1  0  0  0  0
  2 16  1  0  0  0  0
  2 17  1  0  0  0  0
  3 13  1  0  0  0  0
  3 14  1  0  0  0  0
  4 12  1  0  0  0  0
  4 18  1  1  0  0  0
  4  5  1  0  0  0  0
  4  3  1  0  0  0  0
  5  6  1  0  0  0  0
  5 11  2  0  0  0  0
  6  7  1  0  0  0  0
  6 19  1  0  0  0  0
  7  8  1  0  0  0  0
  7 20  1  0  0  0  0
  7 21  1  0  0  0  0
  8  9  1  0  0  0  0
  8 22  1  0  0  0  0
  8 23  1  0  0  0  0
  9 10  1  0  0  0  0
  9 24  1  0  0  0  0
  9 25  1  0  0  0  0
 10 26  1  0  0  0  0
 12 27  1  0  0  0  0
 13 28  1  0  0  0  0
 13 29  1  0  0  0  0
 13 30  1  0  0  0  0
 14 31  1  0  0  0  0
 14 32  1  0  0  0  0
 14 33  1  0  0  0  0
M  END
>  <DRUGBANK_ID>
DB09357

>  <COMMON_NAME>
Dexpanthenol

>  <CAS_NUMBER>
81-13-0

>  <UNII>
1O6C93RI7Z

>  <SYNONYMS>
(+)-Panthenol; (2R)-2,4-dihydroxy-N-(3-hydroxypropyl)-3,3-dimethylbutanamide; Bepanthen; Bepanthene; Bepantol; D-panthenol; D-panthenol 50; D-Pantothenol; D-Pantothenyl alcohol; D(+)-Panthenol; Dexpantenol; Dexpanthenol; Dexpanthenolum; Pantol; Pantothenyl alcohol; Provitamin B

$$$$
