
 OpenBabel10282417193D

 47 49  0  0  0  0  0  0  0  0999 V2000
    1.4967   -0.1588    0.2215 C   0  0  0  0  0  0  0  0  0  0  0  0
    1.1211   -1.1947    1.1507 O   0  0  0  0  0  0  0  0  0  0  0  0
    1.0153   -2.4181    0.5329 C   0  0  0  0  0  0  0  0  0  0  0  0
    2.2660   -2.8694    0.0982 C   0  0  0  0  0  0  0  0  0  0  0  0
    2.4596   -4.1822   -0.2411 C   0  0  0  0  0  0  0  0  0  0  0  0
    1.3876   -5.0647   -0.1729 C   0  0  0  0  0  0  0  0  0  0  0  0
    0.1041   -4.5913    0.1997 C   0  0  0  0  0  0  0  0  0  0  0  0
   -0.1441   -3.2360    0.5119 C   0  0  0  0  0  0  0  0  0  0  0  0
   -1.6496   -2.8787    0.6662 C   0  0  0  0  0  0  0  0  0  0  0  0
   -2.4890   -3.7812    0.5782 O   0  0  0  0  0  0  0  0  0  0  0  0
   -2.1725   -1.5928    0.7950 N   0  0  0  0  0  0  0  0  0  0  0  0
   -1.4175   -0.3881    0.7358 C   0  0  0  0  0  0  0  0  0  0  0  0
   -1.5968    0.6325   -0.3441 C   0  0  0  0  0  0  0  0  0  0  0  0
   -2.1935    0.2395   -1.5383 C   0  0  0  0  0  0  0  0  0  0  0  0
   -2.2266    1.1102   -2.6140 C   0  0  0  0  0  0  0  0  0  0  0  0
   -1.5801    2.3520   -2.5450 C   0  0  0  0  0  0  0  0  0  0  0  0
   -0.8910    2.7171   -1.3876 C   0  0  0  0  0  0  0  0  0  0  0  0
   -0.8927    1.8594   -0.2991 C   0  0  0  0  0  0  0  0  0  0  0  0
   -1.6015    3.3006   -3.7031 C   0  0  0  0  0  0  0  0  0  0  0  0
   -2.1270    4.5072   -3.3595 F   0  0  0  0  0  0  0  0  0  0  0  0
   -0.3532    3.5531   -4.1829 F   0  0  0  0  0  0  0  0  0  0  0  0
   -2.3317    2.8498   -4.7570 F   0  0  0  0  0  0  0  0  0  0  0  0
    1.6481   -6.5086   -0.5285 C   0  0  0  0  0  0  0  0  0  0  0  0
    1.4410   -7.4914    0.6163 C   0  0  3  0  0  0  0  0  0  0  0  0
    2.2054   -7.0967    1.8496 C   0  0  0  0  0  0  0  0  0  0  0  0
    3.4107   -6.9516    1.9477 O   0  0  0  0  0  0  0  0  0  0  0  0
    1.2934   -6.9040    2.8262 N   0  0  0  0  0  0  0  0  0  0  0  0
    0.0555   -7.0977    2.3628 C   0  0  0  0  0  0  0  0  0  0  0  0
   -0.9788   -6.9201    3.0062 O   0  0  0  0  0  0  0  0  0  0  0  0
    0.0804   -7.5181    1.0696 O   0  0  0  0  0  0  0  0  0  0  0  0
    1.1495    0.7482    0.7048 H   0  0  0  0  0  0  0  0  0  0  0  0
    1.0102   -0.2702   -0.7631 H   0  0  0  0  0  0  0  0  0  0  0  0
    2.5672   -0.0463    0.0844 H   0  0  0  0  0  0  0  0  0  0  0  0
    3.1097   -2.1872    0.0827 H   0  0  0  0  0  0  0  0  0  0  0  0
    3.4664   -4.5013   -0.4957 H   0  0  0  0  0  0  0  0  0  0  0  0
   -0.7211   -5.3041    0.2660 H   0  0  0  0  0  0  0  0  0  0  0  0
   -3.1825   -1.5271    0.8051 H   0  0  0  0  0  0  0  0  0  0  0  0
   -1.1846   -0.0003    1.7304 H   0  0  0  0  0  0  0  0  0  0  0  0
   -0.5802   -0.8166    0.2735 H   0  0  0  0  0  0  0  0  0  0  0  0
   -2.5862   -0.7699   -1.6445 H   0  0  0  0  0  0  0  0  0  0  0  0
   -2.7628    0.8055   -3.5083 H   0  0  0  0  0  0  0  0  0  0  0  0
   -0.3580    3.6668   -1.3320 H   0  0  0  0  0  0  0  0  0  0  0  0
   -0.2622    2.1443    0.5435 H   0  0  0  0  0  0  0  0  0  0  0  0
    1.0111   -6.7565   -1.3837 H   0  0  0  0  0  0  0  0  0  0  0  0
    2.6871   -6.6026   -0.8777 H   0  0  0  0  0  0  0  0  0  0  0  0
    1.7165   -8.5047    0.3114 H   0  0  0  0  0  0  0  0  0  0  0  0
    1.5020   -6.5756    3.7532 H   0  0  0  0  0  0  0  0  0  0  0  0
  1  2  1  0  0  0  0
  1 31  1  0  0  0  0
  1 32  1  0  0  0  0
  1 33  1  0  0  0  0
  2  3  1  0  0  0  0
  3  4  2  0  0  0  0
  3  8  1  0  0  0  0
  4  5  1  0  0  0  0
  4 34  1  0  0  0  0
  5  6  2  0  0  0  0
  5 35  1  0  0  0  0
  6  7  1  0  0  0  0
  6 23  1  0  0  0  0
  7  8  2  0  0  0  0
  7 36  1  0  0  0  0
  8  9  1  0  0  0  0
  9 10  2  0  0  0  0
  9 11  1  0  0  0  0
 11 12  1  0  0  0  0
 11 37  1  0  0  0  0
 12 13  1  0  0  0  0
 12 38  1  0  0  0  0
 12 39  1  0  0  0  0
 13 14  2  0  0  0  0
 13 18  1  0  0  0  0
 14 15  1  0  0  0  0
 14 40  1  0  0  0  0
 15 16  2  0  0  0  0
 15 41  1  0  0  0  0
 16 17  1  0  0  0  0
 16 19  1  0  0  0  0
 17 18  2  0  0  0  0
 17 42  1  0  0  0  0
 18 43  1  0  0  0  0
 19 20  1  0  0  0  0
 19 21  1  0  0  0  0
 19 22  1  0  0  0  0
 23 24  1  0  0  0  0
 23 44  1  0  0  0  0
 23 45  1  0  0  0  0
 24 25  1  0  0  0  0
 24 30  1  0  0  0  0
 24 46  1  0  0  0  0
 25 26  2  0  0  0  0
 25 27  1  0  0  0  0
 27 28  1  0  0  0  0
 27 47  1  0  0  0  0
 28 29  2  0  0  0  0
 28 30  1  0  0  0  0
M  END
>  <DRUGBANK_ID>
DB12055

>  <COMMON_NAME>
MK-0767

>  <CAS_NUMBER>
934017-32-0

>  <UNII>
Y180U02GSB

$$$$
