
 OpenBabel10282417193D

 86 89  0  0  1  0  0  0  0  0999 V2000
    1.4059    0.9436   -2.2661 C   0  0  0  0  0  0  0  0  0  0  0  0
    1.1868    1.2433   -0.7770 C   0  0  0  0  0  0  0  0  0  0  0  0
    0.0495    2.2231   -1.0071 C   0  0  0  0  0  0  0  0  0  0  0  0
    0.7661    0.1782    0.4761 C   0  0  0  0  0  0  0  0  0  0  0  0
    1.3290   -1.3167    0.7016 C   0  0  1  0  0  0  0  0  0  0  0  0
    1.8465   -1.3850   -0.6481 C   0  0  0  0  0  0  0  0  0  0  0  0
    3.0499   -1.2011   -0.8185 O   0  0  0  0  0  0  0  0  0  0  0  0
    0.7985   -1.3835   -1.5837 N   0  0  0  0  0  0  0  0  0  0  0  0
    1.1904   -1.3842   -2.9712 C   0  0  1  0  0  0  0  0  0  0  0  0
   -0.1611   -1.1822   -4.4406 C   0  0  0  0  0  0  0  0  0  0  0  0
   -0.7690   -0.1251   -4.8206 O   0  0  0  0  0  0  0  0  0  0  0  0
   -0.2245   -2.4689   -5.6766 N   0  0  0  0  0  0  0  0  0  0  0  0
   -0.0266   -3.9148   -5.1325 C   0  0  1  0  0  0  0  0  0  0  0  0
    0.8668   -5.2952   -4.8696 C   0  0  0  0  0  0  0  0  0  0  0  0
    1.8079   -5.4264   -5.6792 O   0  0  0  0  0  0  0  0  0  0  0  0
    0.4886   -6.4059   -3.6141 N   0  0  0  0  0  0  0  0  0  0  0  0
    1.3753   -7.3146   -4.2965 C   0  0  0  0  0  0  0  0  0  0  0  0
    0.9375   -8.5878   -3.6537 C   0  0  0  0  0  0  0  0  0  0  0  0
    1.6988   -8.5378   -2.3920 C   0  0  0  0  0  0  0  0  0  0  0  0
    0.7429   -7.1805   -1.8570 C   0  0  1  0  0  0  0  0  0  0  0  0
    1.2902   -6.6672   -0.0660 C   0  0  0  0  0  0  0  0  0  0  0  0
    2.2646   -7.2535    0.4203 O   0  0  0  0  0  0  0  0  0  0  0  0
    1.1896   -5.5477    0.7753 N   0  0  0  0  0  0  0  0  0  0  0  0
    2.5026   -4.5586    0.9177 C   0  0  1  0  0  0  0  0  0  0  0  0
    2.1598   -3.3050    1.8953 C   0  0  0  0  0  0  0  0  0  0  0  0
    1.4653   -3.5028    2.8968 O   0  0  0  0  0  0  0  0  0  0  0  0
    2.4330   -1.9499    1.5035 N   0  0  0  0  0  0  0  0  0  0  0  0
    4.0673   -5.1980    0.9180 C   0  0  0  0  0  0  0  0  0  0  0  0
    4.8802   -4.6599    2.0779 C   0  0  0  0  0  0  0  0  0  0  0  0
    4.5351   -6.7446    0.8183 C   0  0  0  0  0  0  0  0  0  0  0  0
    0.7618   -3.0336   -4.3372 C   0  0  0  0  0  0  0  0  0  0  0  0
    1.7761   -1.5458   -5.2037 C   0  0  0  0  0  0  0  0  0  0  0  0
    1.7977   -0.3254   -4.9262 O   0  0  0  0  0  0  0  0  0  0  0  0
    2.8632   -1.8254   -5.9235 O   0  0  0  0  0  0  0  0  0  0  0  0
    2.9729   -1.6512   -3.2540 C   0  0  0  0  0  0  0  0  0  0  0  0
    3.8235   -2.6817   -2.6909 C   0  0  0  0  0  0  0  0  0  0  0  0
    5.1537   -2.7415   -2.4371 C   0  0  0  0  0  0  0  0  0  0  0  0
    5.4363   -3.9942   -2.0170 N   0  0  0  0  0  0  0  0  0  0  0  0
    4.4179   -4.7831   -2.3610 C   0  0  0  0  0  0  0  0  0  0  0  0
    3.3553   -3.9501   -2.5862 C   0  0  0  0  0  0  0  0  0  0  0  0
    2.1911   -4.4589   -2.7697 C   0  0  0  0  0  0  0  0  0  0  0  0
    1.9403   -5.2510   -1.7873 C   0  0  0  0  0  0  0  0  0  0  0  0
    2.9721   -6.1858   -1.8255 C   0  0  0  0  0  0  0  0  0  0  0  0
    4.2525   -6.1022   -2.2484 C   0  0  0  0  0  0  0  0  0  0  0  0
    0.4580    0.5828   -2.7039 H   0  0  0  0  0  0  0  0  0  0  0  0
    2.2863    0.3349   -2.3464 H   0  0  0  0  0  0  0  0  0  0  0  0
    1.6766    1.7300   -2.9714 H   0  0  0  0  0  0  0  0  0  0  0  0
    2.1412    1.6769   -0.4844 H   0  0  0  0  0  0  0  0  0  0  0  0
   -0.8669    1.6829   -1.3001 H   0  0  0  0  0  0  0  0  0  0  0  0
   -0.1116    2.8233   -0.1291 H   0  0  0  0  0  0  0  0  0  0  0  0
    0.2852    2.8779   -1.8623 H   0  0  0  0  0  0  0  0  0  0  0  0
    0.7118    0.7353    1.4065 H   0  0  0  0  0  0  0  0  0  0  0  0
   -0.2941   -0.0499    0.2523 H   0  0  0  0  0  0  0  0  0  0  0  0
    0.4888   -2.0024    0.8023 H   0  0  0  0  0  0  0  0  0  0  0  0
   -0.1328   -1.0517   -1.3634 H   0  0  0  0  0  0  0  0  0  0  0  0
    1.4109   -2.3508   -2.5765 H   0  0  0  0  0  0  0  0  0  0  0  0
    0.5455   -2.4396   -6.3810 H   0  0  0  0  0  0  0  0  0  0  0  0
   -0.9686   -4.2248   -4.6868 H   0  0  0  0  0  0  0  0  0  0  0  0
    2.4294   -7.4429   -4.6821 H   0  0  0  0  0  0  0  0  0  0  0  0
    2.1123   -6.6470   -3.8168 H   0  0  0  0  0  0  0  0  0  0  0  0
    0.9078   -9.4755   -4.2531 H   0  0  0  0  0  0  0  0  0  0  0  0
   -0.1174   -8.4674   -3.3779 H   0  0  0  0  0  0  0  0  0  0  0  0
    1.8400   -9.4597   -1.8196 H   0  0  0  0  0  0  0  0  0  0  0  0
    2.7667   -8.3642   -2.7024 H   0  0  0  0  0  0  0  0  0  0  0  0
   -0.2135   -7.6162   -1.5165 H   0  0  0  0  0  0  0  0  0  0  0  0
    1.2468   -5.9690    1.7140 H   0  0  0  0  0  0  0  0  0  0  0  0
    2.4842   -4.0167   -0.0192 H   0  0  0  0  0  0  0  0  0  0  0  0
    3.3455   -1.8515    1.0400 H   0  0  0  0  0  0  0  0  0  0  0  0
    4.5389   -4.6848    0.0831 H   0  0  0  0  0  0  0  0  0  0  0  0
    4.5262   -5.1592    2.9775 H   0  0  0  0  0  0  0  0  0  0  0  0
    5.9442   -4.8865    1.9138 H   0  0  0  0  0  0  0  0  0  0  0  0
    4.7898   -3.5765    2.1656 H   0  0  0  0  0  0  0  0  0  0  0  0
    4.2149   -7.4075    0.0060 H   0  0  0  0  0  0  0  0  0  0  0  0
    5.6165   -6.8599    0.6344 H   0  0  0  0  0  0  0  0  0  0  0  0
    4.2011   -7.2864    1.7106 H   0  0  0  0  0  0  0  0  0  0  0  0
   -0.3165   -2.7723   -3.8293 H   0  0  0  0  0  0  0  0  0  0  0  0
    0.4703   -3.1728   -3.2704 H   0  0  0  0  0  0  0  0  0  0  0  0
    3.3793   -1.0132   -5.6123 H   0  0  0  0  0  0  0  0  0  0  0  0
    2.9999   -2.3623   -4.0847 H   0  0  0  0  0  0  0  0  0  0  0  0
    3.5700   -0.7658   -3.3771 H   0  0  0  0  0  0  0  0  0  0  0  0
    5.8605   -1.9498   -2.4800 H   0  0  0  0  0  0  0  0  0  0  0  0
    6.1484   -4.3288   -1.3958 H   0  0  0  0  0  0  0  0  0  0  0  0
    1.2033   -4.3833   -3.0798 H   0  0  0  0  0  0  0  0  0  0  0  0
    0.8179   -5.2531   -1.5882 H   0  0  0  0  0  0  0  0  0  0  0  0
    2.8837   -7.1690   -1.4427 H   0  0  0  0  0  0  0  0  0  0  0  0
    4.9319   -6.8586   -1.9100 H   0  0  0  0  0  0  0  0  0  0  0  0
  1  2  1  0  0  0  0
  1 45  1  0  0  0  0
  1 46  1  0  0  0  0
  1 47  1  0  0  0  0
  2  3  1  0  0  0  0
  2  4  1  0  0  0  0
  2 48  1  0  0  0  0
  3 49  1  0  0  0  0
  3 50  1  0  0  0  0
  3 51  1  0  0  0  0
  4 52  1  0  0  0  0
  4 53  1  0  0  0  0
  5  6  1  0  0  0  0
  5 27  1  0  0  0  0
  5 54  1  1  0  0  0
  5  4  1  0  0  0  0
  6  8  1  0  0  0  0
  6  7  2  0  0  0  0
  8  9  1  0  0  0  0
  8 55  1  0  0  0  0
  9 10  1  0  0  0  0
  9 35  1  0  0  0  0
  9 56  1  6  0  0  0
 10 12  1  0  0  0  0
 10 11  2  0  0  0  0
 12 13  1  0  0  0  0
 12 57  1  0  0  0  0
 13 14  1  0  0  0  0
 13 58  1  1  0  0  0
 13 31  1  0  0  0  0
 14 16  1  0  0  0  0
 14 15  2  0  0  0  0
 16 17  1  0  0  0  0
 17 18  1  0  0  0  0
 17 59  1  0  0  0  0
 17 60  1  0  0  0  0
 18 19  1  0  0  0  0
 18 61  1  0  0  0  0
 18 62  1  0  0  0  0
 19 20  1  0  0  0  0
 19 63  1  0  0  0  0
 19 64  1  0  0  0  0
 20 16  1  0  0  0  0
 20 21  1  0  0  0  0
 20 65  1  1  0  0  0
 21 23  1  0  0  0  0
 21 22  2  0  0  0  0
 23 24  1  0  0  0  0
 23 66  1  0  0  0  0
 24 25  1  0  0  0  0
 24 28  1  0  0  0  0
 24 67  1  6  0  0  0
 25 27  1  0  0  0  0
 25 26  2  0  0  0  0
 27 68  1  0  0  0  0
 28 29  1  0  0  0  0
 28 30  1  0  0  0  0
 28 69  1  0  0  0  0
 29 70  1  0  0  0  0
 29 71  1  0  0  0  0
 29 72  1  0  0  0  0
 30 73  1  0  0  0  0
 30 74  1  0  0  0  0
 30 75  1  0  0  0  0
 31 32  1  0  0  0  0
 31 76  1  0  0  0  0
 31 77  1  0  0  0  0
 32 33  2  0  0  0  0
 32 34  1  0  0  0  0
 34 78  1  0  0  0  0
 35 36  1  0  0  0  0
 35 79  1  0  0  0  0
 35 80  1  0  0  0  0
 36 37  2  0  0  0  0
 36 40  1  0  0  0  0
 37 38  1  0  0  0  0
 37 81  1  0  0  0  0
 38 39  1  0  0  0  0
 38 82  1  0  0  0  0
 39 40  1  0  0  0  0
 39 44  2  0  0  0  0
 40 41  2  0  0  0  0
 41 42  1  0  0  0  0
 41 83  1  0  0  0  0
 42 43  2  0  0  0  0
 42 84  1  0  0  0  0
 43 44  1  0  0  0  0
 43 85  1  0  0  0  0
 44 86  1  0  0  0  0
M  END
>  <DRUGBANK_ID>
DB12054

>  <COMMON_NAME>
BQ-123

>  <CAS_NUMBER>
136553-81-6

>  <UNII>
S2A8YZM151

$$$$
