
 OpenBabel10282417123D

 28 28  0  0  0  0  0  0  0  0999 V2000
    1.0124    0.1129   -0.0038 O   0  0  0  0  0  0  0  0  0  0  0  0
    1.1702   -0.0793    2.2062 O   0  0  0  0  0  0  0  0  0  0  0  0
   -2.8470    2.2916   -0.9920 O   0  0  0  0  0  0  0  0  0  0  0  0
   -3.0056   -1.1913   -1.5309 O   0  0  0  0  0  0  0  0  0  0  0  0
   -1.7829    0.9446    0.3648 N   0  0  0  0  0  0  0  0  0  0  0  0
   -3.0517    0.1893   -1.5540 N   0  0  0  0  0  0  0  0  0  0  0  0
   -1.0615   -0.0818    1.2031 C   0  0  1  0  0  0  0  0  0  0  0  0
   -1.3545   -1.4699    0.7298 C   0  0  0  0  0  0  0  0  0  0  0  0
   -0.9721   -2.7691    1.2917 C   0  0  0  0  0  0  0  0  0  0  0  0
    0.4691    0.0513    1.2343 C   0  0  0  0  0  0  0  0  0  0  0  0
   -0.4871   -2.8285    2.5792 C   0  0  0  0  0  0  0  0  0  0  0  0
   -1.3266   -3.9205    0.5585 C   0  0  0  0  0  0  0  0  0  0  0  0
   -0.3213   -4.0613    3.1574 C   0  0  0  0  0  0  0  0  0  0  0  0
   -1.2233   -5.1511    1.1709 C   0  0  0  0  0  0  0  0  0  0  0  0
   -2.5531    1.1184   -0.7300 C   0  0  0  0  0  0  0  0  0  0  0  0
   -0.6880   -5.2151    2.4584 C   0  0  0  0  0  0  0  0  0  0  0  0
   -1.5978    1.8728    0.7286 H   0  0  0  0  0  0  0  0  0  0  0  0
   -3.6655    0.5126   -2.2935 H   0  0  0  0  0  0  0  0  0  0  0  0
    1.9684   -0.0506    0.1412 H   0  0  0  0  0  0  0  0  0  0  0  0
   -2.6751   -1.2835   -0.6530 H   0  0  0  0  0  0  0  0  0  0  0  0
   -1.4195    0.0655    2.2324 H   0  0  0  0  0  0  0  0  0  0  0  0
   -2.4369   -1.5446    0.9041 H   0  0  0  0  0  0  0  0  0  0  0  0
   -0.9672   -1.5185   -0.2960 H   0  0  0  0  0  0  0  0  0  0  0  0
   -0.2830   -1.9212    3.1361 H   0  0  0  0  0  0  0  0  0  0  0  0
   -1.7345   -3.8475   -0.4542 H   0  0  0  0  0  0  0  0  0  0  0  0
    0.0618   -4.0956    4.1690 H   0  0  0  0  0  0  0  0  0  0  0  0
   -1.5787   -6.0437    0.6636 H   0  0  0  0  0  0  0  0  0  0  0  0
   -0.5626   -6.1773    2.9365 H   0  0  0  0  0  0  0  0  0  0  0  0
  1 10  1  0  0  0  0
  1 19  1  0  0  0  0
  2 10  2  0  0  0  0
  3 15  2  0  0  0  0
  4  6  1  0  0  0  0
  4 20  1  0  0  0  0
  5 15  1  0  0  0  0
  5 17  1  0  0  0  0
  6 15  1  0  0  0  0
  6 18  1  0  0  0  0
  7  5  1  0  0  0  0
  7  8  1  0  0  0  0
  7 10  1  0  0  0  0
  7 21  1  1  0  0  0
  8  9  1  0  0  0  0
  8 22  1  0  0  0  0
  8 23  1  0  0  0  0
  9 11  2  0  0  0  0
  9 12  1  0  0  0  0
 11 13  1  0  0  0  0
 11 24  1  0  0  0  0
 12 14  2  0  0  0  0
 12 25  1  0  0  0  0
 13 16  2  0  0  0  0
 13 26  1  0  0  0  0
 14 16  1  0  0  0  0
 14 27  1  0  0  0  0
 16 28  1  0  0  0  0
M  END
>  <DRUGBANK_ID>
DB02652

>  <SECONDARY_ACCESSION_NUMBERS>
EXPT02026

>  <COMMON_NAME>
L-[(N-Hydroxyamino)Carbonyl]Phenylalanine

$$$$
