
 OpenBabel10282417153D

 66 67  0  0  0  0  0  0  0  0999 V2000
    1.0331    0.0147    0.0535 C   0  0  1  0  0  0  0  0  0  0  0  0
    0.3353    1.1608   -0.7220 C   0  0  0  0  0  0  0  0  0  0  0  0
    0.6453   -0.9460   -0.2583 H   0  0  0  0  0  0  0  0  0  0  0  0
    2.6210   -0.0716   -0.0227 C   0  0  0  0  0  0  0  0  0  0  0  0
    3.2397   -0.0727   -1.2209 O   0  0  0  0  0  0  0  0  0  0  0  0
    2.6050   -0.1225   -2.4923 C   0  0  0  0  0  0  0  0  0  0  0  0
    1.7482   -1.3598   -2.6554 C   0  0  0  0  0  0  0  0  0  0  0  0
    0.5548    0.0240    1.4751 N   0  0  0  0  0  0  0  0  0  0  0  0
    3.3473   -0.2104    0.9580 O   0  0  0  0  0  0  0  0  0  0  0  0
    5.2504   -0.4035    5.2965 C   0  0  0  0  0  0  0  0  0  0  0  0
    6.4308   -1.0232    4.8729 N   0  0  0  0  0  0  0  0  0  0  0  0
    7.4487   -0.6079    5.5945 C   0  0  0  0  0  0  0  0  0  0  0  0
    5.4187    0.5011    6.3338 C   0  0  0  0  0  0  0  0  0  0  0  0
    7.0879    0.6299    6.7170 S   0  0  0  0  0  0  0  0  0  0  0  0
    5.1784    0.7955    9.4162 C   0  0  0  0  0  0  0  0  0  0  0  0
    4.0163    0.7064    8.4357 C   0  0  0  0  0  0  0  0  0  0  0  0
    4.3862    1.2998    7.0741 C   0  0  0  0  0  0  0  0  0  0  0  0
    2.8190    1.4638    9.0124 C   0  0  0  0  0  0  0  0  0  0  0  0
    8.7029   -1.0756    5.5104 N   0  0  0  0  0  0  0  0  0  0  0  0
    3.8958   -0.6208    4.6450 C   0  0  0  0  0  0  0  0  0  0  0  0
    3.3987   -1.7192    3.9878 C   0  0  0  0  0  0  0  0  0  0  0  0
    2.2092   -1.2945    3.2938 C   0  0  0  0  0  0  0  0  0  0  0  0
    2.1046    0.0775    3.4981 C   0  0  0  0  0  0  0  0  0  0  0  0
    2.9107    0.3368    4.5846 O   0  0  0  0  0  0  0  0  0  0  0  0
    1.1481    1.4916    2.2891 P   0  0  3  0  0  0  0  0  0  0  0  0
    2.0719    2.0016    1.1821 O   0  0  0  0  0  0  0  0  0  0  0  0
    1.7415    2.9592    3.1030 N   0  0  0  0  0  0  0  0  0  0  0  0
    2.6641    2.7905    4.2087 C   0  0  1  0  0  0  0  0  0  0  0  0
    4.0255    2.3340    3.6617 C   0  0  0  0  0  0  0  0  0  0  0  0
    2.9572    4.0088    5.0330 C   0  0  0  0  0  0  0  0  0  0  0  0
    2.6575    4.1225    6.2058 O   0  0  0  0  0  0  0  0  0  0  0  0
    3.7322    4.8603    4.3051 O   0  0  0  0  0  0  0  0  0  0  0  0
    4.2910    5.9437    5.0285 C   0  0  0  0  0  0  0  0  0  0  0  0
    3.1695    6.8903    5.3797 C   0  0  0  0  0  0  0  0  0  0  0  0
    2.1166    2.1805    4.9351 H   0  0  0  0  0  0  0  0  0  0  0  0
    0.5003    1.1224   -1.7925 H   0  0  0  0  0  0  0  0  0  0  0  0
   -0.7498    1.1221   -0.5930 H   0  0  0  0  0  0  0  0  0  0  0  0
    0.6418    2.1733   -0.4373 H   0  0  0  0  0  0  0  0  0  0  0  0
    2.1114    0.8272   -2.6906 H   0  0  0  0  0  0  0  0  0  0  0  0
    3.4133   -0.1648   -3.2265 H   0  0  0  0  0  0  0  0  0  0  0  0
    0.9333   -1.4428   -1.9472 H   0  0  0  0  0  0  0  0  0  0  0  0
    1.2717   -1.3750   -3.6331 H   0  0  0  0  0  0  0  0  0  0  0  0
    2.3538   -2.2561   -2.4961 H   0  0  0  0  0  0  0  0  0  0  0  0
   -0.4584    0.0452    1.4797 H   0  0  0  0  0  0  0  0  0  0  0  0
    5.5324    1.8295    9.4932 H   0  0  0  0  0  0  0  0  0  0  0  0
    4.8895    0.4417   10.4069 H   0  0  0  0  0  0  0  0  0  0  0  0
    6.0118    0.1644    9.1059 H   0  0  0  0  0  0  0  0  0  0  0  0
    3.7307   -0.3465    8.3065 H   0  0  0  0  0  0  0  0  0  0  0  0
    4.6886    2.3504    7.1525 H   0  0  0  0  0  0  0  0  0  0  0  0
    3.4603    1.3163    6.5022 H   0  0  0  0  0  0  0  0  0  0  0  0
    1.9430    1.3843    8.3598 H   0  0  0  0  0  0  0  0  0  0  0  0
    2.5480    1.0591    9.9921 H   0  0  0  0  0  0  0  0  0  0  0  0
    3.0537    2.5270    9.1349 H   0  0  0  0  0  0  0  0  0  0  0  0
    9.3942   -0.8766    6.2239 H   0  0  0  0  0  0  0  0  0  0  0  0
    8.9614   -1.7221    4.7787 H   0  0  0  0  0  0  0  0  0  0  0  0
    3.8694   -2.6883    3.9831 H   0  0  0  0  0  0  0  0  0  0  0  0
    1.6292   -1.8913    2.6105 H   0  0  0  0  0  0  0  0  0  0  0  0
    2.2632    3.4085    2.3476 H   0  0  0  0  0  0  0  0  0  0  0  0
    4.5850    3.0882    3.1128 H   0  0  0  0  0  0  0  0  0  0  0  0
    4.6495    2.0540    4.5025 H   0  0  0  0  0  0  0  0  0  0  0  0
    3.9619    1.5069    2.9536 H   0  0  0  0  0  0  0  0  0  0  0  0
    4.8564    5.5869    5.8984 H   0  0  0  0  0  0  0  0  0  0  0  0
    5.0019    6.4248    4.3496 H   0  0  0  0  0  0  0  0  0  0  0  0
    2.4524    6.4267    6.0634 H   0  0  0  0  0  0  0  0  0  0  0  0
    3.5544    7.7909    5.8509 H   0  0  0  0  0  0  0  0  0  0  0  0
    2.6052    7.1374    4.4745 H   0  0  0  0  0  0  0  0  0  0  0  0
  1  3  1  6  0  0  0
  1  4  1  0  0  0  0
  2  1  1  0  0  0  0
  2 36  1  0  0  0  0
  2 37  1  0  0  0  0
  2 38  1  0  0  0  0
  4  5  1  0  0  0  0
  4  9  2  0  0  0  0
  5  6  1  0  0  0  0
  6  7  1  0  0  0  0
  6 39  1  0  0  0  0
  6 40  1  0  0  0  0
  7 41  1  0  0  0  0
  7 42  1  0  0  0  0
  7 43  1  0  0  0  0
  8  1  1  0  0  0  0
  8 44  1  0  0  0  0
 10 11  1  0  0  0  0
 10 20  1  0  0  0  0
 11 12  2  0  0  0  0
 12 14  1  0  0  0  0
 12 19  1  0  0  0  0
 13 14  1  0  0  0  0
 13 10  2  0  0  0  0
 13 17  1  0  0  0  0
 15 16  1  0  0  0  0
 15 45  1  0  0  0  0
 15 46  1  0  0  0  0
 15 47  1  0  0  0  0
 16 17  1  0  0  0  0
 16 18  1  0  0  0  0
 16 48  1  0  0  0  0
 17 49  1  0  0  0  0
 17 50  1  0  0  0  0
 18 51  1  0  0  0  0
 18 52  1  0  0  0  0
 18 53  1  0  0  0  0
 19 54  1  0  0  0  0
 19 55  1  0  0  0  0
 20 21  2  0  0  0  0
 21 22  1  0  0  0  0
 21 56  1  0  0  0  0
 22 23  2  0  0  0  0
 22 57  1  0  0  0  0
 23 24  1  0  0  0  0
 23 25  1  0  0  0  0
 24 20  1  0  0  0  0
 25  8  1  0  0  0  0
 25 26  2  0  0  0  0
 25 27  1  0  0  0  0
 27 28  1  0  0  0  0
 27 58  1  0  0  0  0
 28 29  1  0  0  0  0
 28 30  1  0  0  0  0
 28 35  1  1  0  0  0
 29 59  1  0  0  0  0
 29 60  1  0  0  0  0
 29 61  1  0  0  0  0
 30 31  2  0  0  0  0
 30 32  1  0  0  0  0
 32 33  1  0  0  0  0
 33 34  1  0  0  0  0
 33 62  1  0  0  0  0
 33 63  1  0  0  0  0
 34 64  1  0  0  0  0
 34 65  1  0  0  0  0
 34 66  1  0  0  0  0
M  END
>  <DRUGBANK_ID>
DB05518

>  <COMMON_NAME>
Managlinat dialanetil

>  <CAS_NUMBER>
280782-97-0

>  <UNII>
3W93F83K7S

>  <SYNONYMS>
Managlinat dialanetil; Managlinat dialanÃ©til; Managlinat dialanetilo; Managlinatum dialanetilum

$$$$
