
 OpenBabel10282417183D

 72 76  0  0  0  0  0  0  0  0999 V2000
    1.0289    0.3859   -0.1081 C   0  0  0  0  0  0  0  0  0  0  0  0
    1.8476    0.2868    2.2519 C   0  0  0  0  0  0  0  0  0  0  0  0
    2.9895    8.3213    2.7504 C   0  0  0  0  0  0  0  0  0  0  0  0
    3.1909    8.4837    5.1668 C   0  0  0  0  0  0  0  0  0  0  0  0
   -2.0779    3.8312    2.5778 C   0  0  0  0  0  0  0  0  0  0  0  0
   -0.5658    4.0371    4.3991 C   0  0  0  0  0  0  0  0  0  0  0  0
   -1.8474    5.1686    2.1793 C   0  0  0  0  0  0  0  0  0  0  0  0
   -0.3687    5.3488    4.0005 C   0  0  0  0  0  0  0  0  0  0  0  0
   -1.6573    0.7828    0.7035 C   0  0  0  0  0  0  0  0  0  0  0  0
    0.3073    8.6157    5.5246 C   0  0  0  0  0  0  0  0  0  0  0  0
   -1.5702   -0.7613    0.7746 C   0  0  0  0  0  0  0  0  0  0  0  0
    0.6393   10.1041    5.3015 C   0  0  0  0  0  0  0  0  0  0  0  0
   -1.3778    1.8034    3.9503 C   0  0  0  0  0  0  0  0  0  0  0  0
   -0.7118    7.3917    2.4862 C   0  0  0  0  0  0  0  0  0  0  0  0
    0.3030   -2.4117    1.6081 C   0  0  0  0  0  0  0  0  0  0  0  0
    2.4416   11.2805    3.7885 C   0  0  0  0  0  0  0  0  0  0  0  0
   -1.3871    3.2391    3.6503 C   0  0  0  0  0  0  0  0  0  0  0  0
   -0.9542    5.9695    2.8845 C   0  0  0  0  0  0  0  0  0  0  0  0
   -0.9556    0.9391    3.0207 C   0  0  0  0  0  0  0  0  0  0  0  0
    0.1129    8.2366    3.1274 C   0  0  0  0  0  0  0  0  0  0  0  0
   -0.5040    1.2505    1.6220 C   0  0  3  0  0  0  0  0  0  0  0  0
    0.9780    7.9504    4.3124 C   0  0  3  0  0  0  0  0  0  0  0  0
   -0.8092   -0.5644    3.0630 C   0  0  0  0  0  0  0  0  0  0  0  0
    0.4743    9.7117    2.9045 C   0  0  0  0  0  0  0  0  0  0  0  0
    0.5978    0.2110    1.3499 C   0  0  0  0  0  0  0  0  0  0  0  0
    2.2295    8.7395    4.0350 C   0  0  0  0  0  0  0  0  0  0  0  0
   -0.3169   -1.0121    1.6583 C   0  0  3  0  0  0  0  0  0  0  0  0
    1.5152   10.0911    4.0120 C   0  0  3  0  0  0  0  0  0  0  0  0
   -1.0813   -1.2662    4.0187 O   0  0  0  0  0  0  0  0  0  0  0  0
    0.0062   10.4300    2.0419 O   0  0  0  0  0  0  0  0  0  0  0  0
    2.2057   -2.0729   -0.1789 O   0  0  0  0  0  0  0  0  0  0  0  0
    1.4184   -4.3678    0.1513 O   0  0  0  0  0  0  0  0  0  0  0  0
    0.0016   -2.6855   -1.0606 O   0  0  0  0  0  0  0  0  0  0  0  0
    4.7040   10.6365    5.2559 O   0  0  0  0  0  0  0  0  0  0  0  0
    4.3440   12.9569    4.6920 O   0  0  0  0  0  0  0  0  0  0  0  0
    2.9350   11.7953    6.4232 O   0  0  0  0  0  0  0  0  0  0  0  0
    0.9074   -3.0162    0.0051 S   0  0  0  0  0  0  0  0  0  0  0  0
    3.5982   11.8009    5.1451 S   0  0  0  0  0  0  0  0  0  0  0  0
    0.7024    1.3252   -0.5586 H   0  0  0  0  0  0  0  0  0  0  0  0
    0.5816   -0.3807   -0.7329 H   0  0  0  0  0  0  0  0  0  0  0  0
    2.1168    0.3674   -0.1983 H   0  0  0  0  0  0  0  0  0  0  0  0
    2.4939   -0.5826    2.0825 H   0  0  0  0  0  0  0  0  0  0  0  0
    2.4330    1.1812    2.0189 H   0  0  0  0  0  0  0  0  0  0  0  0
    1.6319    0.3110    3.3252 H   0  0  0  0  0  0  0  0  0  0  0  0
    3.8213    9.0085    2.5655 H   0  0  0  0  0  0  0  0  0  0  0  0
    3.4218    7.3222    2.8924 H   0  0  0  0  0  0  0  0  0  0  0  0
    2.3892    8.2838    1.8378 H   0  0  0  0  0  0  0  0  0  0  0  0
    2.8973    8.9774    6.0954 H   0  0  0  0  0  0  0  0  0  0  0  0
    3.3807    7.4315    5.3786 H   0  0  0  0  0  0  0  0  0  0  0  0
    4.1382    8.8172    4.7794 H   0  0  0  0  0  0  0  0  0  0  0  0
   -2.7918    3.2393    2.0151 H   0  0  0  0  0  0  0  0  0  0  0  0
   -0.0358    3.6889    5.2828 H   0  0  0  0  0  0  0  0  0  0  0  0
   -2.3798    5.5565    1.3133 H   0  0  0  0  0  0  0  0  0  0  0  0
    0.2882    5.8109    4.6946 H   0  0  0  0  0  0  0  0  0  0  0  0
   -1.5074    1.1204   -0.3278 H   0  0  0  0  0  0  0  0  0  0  0  0
   -2.6383    1.1455    1.0222 H   0  0  0  0  0  0  0  0  0  0  0  0
    0.7388    8.2568    6.4655 H   0  0  0  0  0  0  0  0  0  0  0  0
   -0.7741    8.4378    5.5830 H   0  0  0  0  0  0  0  0  0  0  0  0
   -2.4829   -1.1926    1.2010 H   0  0  0  0  0  0  0  0  0  0  0  0
   -1.4753   -1.1470   -0.2377 H   0  0  0  0  0  0  0  0  0  0  0  0
   -0.2693   10.7087    5.1938 H   0  0  0  0  0  0  0  0  0  0  0  0
    1.1602   10.4597    6.1848 H   0  0  0  0  0  0  0  0  0  0  0  0
   -1.6262    1.4930    4.9603 H   0  0  0  0  0  0  0  0  0  0  0  0
   -1.2708    7.7627    1.6257 H   0  0  0  0  0  0  0  0  0  0  0  0
    1.1449   -2.5051    2.3041 H   0  0  0  0  0  0  0  0  0  0  0  0
   -0.4376   -3.1568    1.9204 H   0  0  0  0  0  0  0  0  0  0  0  0
    3.0255   11.1717    2.8681 H   0  0  0  0  0  0  0  0  0  0  0  0
    1.8171   12.1697    3.6500 H   0  0  0  0  0  0  0  0  0  0  0  0
   -0.1585    2.2713    1.4424 H   0  0  0  0  0  0  0  0  0  0  0  0
    1.3943    6.9724    4.4659 H   0  0  0  0  0  0  0  0  0  0  0  0
    2.1176   -1.5542   -1.0103 H   0  0  0  0  0  0  0  0  0  0  0  0
    4.6096   10.1656    6.1202 H   0  0  0  0  0  0  0  0  0  0  0  0
  1 39  1  0  0  0  0
  1 40  1  0  0  0  0
  1 41  1  0  0  0  0
  2 42  1  0  0  0  0
  2 43  1  0  0  0  0
  2 44  1  0  0  0  0
  3 45  1  0  0  0  0
  3 46  1  0  0  0  0
  3 47  1  0  0  0  0
  4 48  1  0  0  0  0
  4 49  1  0  0  0  0
  4 50  1  0  0  0  0
  5 51  1  0  0  0  0
  6 52  1  0  0  0  0
  7  5  1  0  0  0  0
  7 53  1  0  0  0  0
  8  6  2  0  0  0  0
  8 54  1  0  0  0  0
  9 55  1  0  0  0  0
  9 56  1  0  0  0  0
 10 57  1  0  0  0  0
 10 58  1  0  0  0  0
 11  9  1  0  0  0  0
 11 59  1  0  0  0  0
 11 60  1  0  0  0  0
 12 10  1  0  0  0  0
 12 61  1  0  0  0  0
 12 62  1  0  0  0  0
 13 17  1  0  0  0  0
 13 63  1  0  0  0  0
 14 18  1  0  0  0  0
 14 64  1  0  0  0  0
 15 65  1  0  0  0  0
 15 66  1  0  0  0  0
 16 67  1  0  0  0  0
 16 68  1  0  0  0  0
 17  5  2  0  0  0  0
 17  6  1  0  0  0  0
 18  7  2  0  0  0  0
 18  8  1  0  0  0  0
 19 13  2  3  0  0  0
 20 14  2  3  0  0  0
 21  9  1  0  0  0  0
 21 19  1  0  0  0  0
 21 69  1  0  0  0  0
 22 10  1  0  0  0  0
 22 20  1  0  0  0  0
 22 70  1  0  0  0  0
 23 19  1  0  0  0  0
 24 20  1  0  0  0  0
 25  1  1  0  0  0  0
 25  2  1  0  0  0  0
 25 21  1  0  0  0  0
 26  3  1  0  0  0  0
 26  4  1  0  0  0  0
 26 22  1  0  0  0  0
 27 11  1  0  0  0  0
 27 15  1  0  0  0  0
 27 23  1  0  0  0  0
 27 25  1  0  0  0  0
 28 12  1  0  0  0  0
 28 16  1  0  0  0  0
 28 24  1  0  0  0  0
 28 26  1  0  0  0  0
 29 23  2  0  0  0  0
 30 24  2  0  0  0  0
 31 71  1  0  0  0  0
 34 72  1  0  0  0  0
 37 15  1  0  0  0  0
 37 31  1  0  0  0  0
 37 32  2  0  0  0  0
 37 33  2  0  0  0  0
 38 16  1  0  0  0  0
 38 34  1  0  0  0  0
 38 35  2  0  0  0  0
 38 36  2  0  0  0  0
M  END
>  <DRUGBANK_ID>
DB09534

>  <COMMON_NAME>
Ecamsule

>  <CAS_NUMBER>
92761-26-7

>  <UNII>
M94R1PM439

>  <SYNONYMS>
Ecamsule; Terephthalylidene dicamphor sulfonic acid

$$$$
