
 OpenBabel10282417233D

 80 81  0  0  1  0  0  0  0  0999 V2000
    1.0863   -0.1512    0.0788 C   0  0  0  0  0  0  0  0  0  0  0  0
    0.6357    0.9913    0.9747 C   0  0  0  0  0  0  0  0  0  0  0  0
    1.1305    2.3302    0.4246 C   0  0  0  0  0  0  0  0  0  0  0  0
    0.5785    2.5987   -0.9801 C   0  0  0  0  0  0  0  0  0  0  0  0
   -0.9542    2.6137   -0.9748 C   0  0  0  0  0  0  0  0  0  0  0  0
   -1.4832    3.7289   -0.0656 C   0  0  0  0  0  0  0  0  0  0  0  0
   -1.0193    5.1051   -0.5611 C   0  0  0  0  0  0  0  0  0  0  0  0
   -1.4688    5.3641   -1.9992 C   0  0  0  0  0  0  0  0  0  0  0  0
   -2.9577    5.3046   -2.0725 C   0  0  0  0  0  0  0  0  0  0  0  0
   -3.6874    6.3451   -2.4615 C   0  0  0  0  0  0  0  0  0  0  0  0
   -5.1759    6.3467   -2.3645 C   0  0  0  0  0  0  0  0  0  0  0  0
   -5.6226    7.4845   -1.4459 C   0  0  0  0  0  0  0  0  0  0  0  0
   -5.1626    8.8480   -1.9778 C   0  0  0  0  0  0  0  0  0  0  0  0
   -5.6932    9.0819   -3.3963 C   0  0  0  0  0  0  0  0  0  0  0  0
   -7.2261    9.0719   -3.4023 C   0  0  0  0  0  0  0  0  0  0  0  0
   -7.7814   10.2293   -2.5702 C   0  0  0  0  0  0  0  0  0  0  0  0
   -7.2616   11.5849   -3.0465 C   0  0  0  0  0  0  0  0  0  0  0  0
   -7.7367   11.9531   -4.4298 C   0  0  0  0  0  0  0  0  0  0  0  0
   -8.3962   12.9663   -4.6434 O   0  0  0  0  0  0  0  0  0  0  0  0
   -7.3363   11.0721   -5.3810 O   0  0  0  0  0  0  0  0  0  0  0  0
   -7.8502   11.1827   -6.7333 C   0  0  0  0  0  0  0  0  0  0  0  0
   -9.3867   11.0972   -6.7922 C   0  0  1  0  0  0  0  0  0  0  0  0
   -9.9210   12.4325   -6.6590 O   0  0  0  0  0  0  0  0  0  0  0  0
  -10.5844   12.8352   -7.8643 C   0  0  2  0  0  0  0  0  0  0  0  0
  -10.2300   11.8076   -8.9332 C   0  0  2  0  0  0  0  0  0  0  0  0
  -11.2700   11.6095   -9.8856 O   0  0  0  0  0  0  0  0  0  0  0  0
   -9.9410   10.5571   -8.1128 C   0  0  2  0  0  0  0  0  0  0  0  0
  -11.1591    9.8271   -7.8918 O   0  0  0  0  0  0  0  0  0  0  0  0
  -10.2226   14.2021   -8.2158 N   0  0  0  0  0  0  0  0  0  0  0  0
   -9.0068   14.7042   -8.5683 C   0  0  0  0  0  0  0  0  0  0  0  0
   -9.1302   15.9616   -8.9377 N   0  0  0  0  0  0  0  0  0  0  0  0
  -10.4858   16.2167   -8.7684 C   0  0  0  0  0  0  0  0  0  0  0  0
  -11.1769   15.1445   -8.3353 N   0  0  0  0  0  0  0  0  0  0  0  0
  -11.1275   17.5228   -9.0472 C   0  0  0  0  0  0  0  0  0  0  0  0
  -10.3090   18.5245   -9.5074 N   0  0  0  0  0  0  0  0  0  0  0  0
  -12.3275   17.7546   -8.8966 O   0  0  0  0  0  0  0  0  0  0  0  0
    0.6934   -0.0565   -0.9388 H   0  0  0  0  0  0  0  0  0  0  0  0
    0.7331   -1.1083    0.4639 H   0  0  0  0  0  0  0  0  0  0  0  0
    2.1784   -0.1654    0.0172 H   0  0  0  0  0  0  0  0  0  0  0  0
   -0.4569    0.9798    1.0655 H   0  0  0  0  0  0  0  0  0  0  0  0
    1.0141    0.8486    1.9907 H   0  0  0  0  0  0  0  0  0  0  0  0
    0.8461    3.1347    1.1136 H   0  0  0  0  0  0  0  0  0  0  0  0
    2.2246    2.3485    0.3986 H   0  0  0  0  0  0  0  0  0  0  0  0
    0.9864    3.5410   -1.3606 H   0  0  0  0  0  0  0  0  0  0  0  0
    0.9358    1.8531   -1.6959 H   0  0  0  0  0  0  0  0  0  0  0  0
   -1.3222    2.7184   -2.0003 H   0  0  0  0  0  0  0  0  0  0  0  0
   -1.3680    1.6532   -0.6538 H   0  0  0  0  0  0  0  0  0  0  0  0
   -2.5748    3.6719   -0.0134 H   0  0  0  0  0  0  0  0  0  0  0  0
   -1.1660    3.5872    0.9720 H   0  0  0  0  0  0  0  0  0  0  0  0
   -1.3970    5.8838    0.1114 H   0  0  0  0  0  0  0  0  0  0  0  0
    0.0724    5.1882   -0.5106 H   0  0  0  0  0  0  0  0  0  0  0  0
   -1.0807    6.3332   -2.3289 H   0  0  0  0  0  0  0  0  0  0  0  0
   -1.0585    4.6298   -2.6983 H   0  0  0  0  0  0  0  0  0  0  0  0
   -3.4733    4.4065   -1.7427 H   0  0  0  0  0  0  0  0  0  0  0  0
   -3.1715    7.2388   -2.8020 H   0  0  0  0  0  0  0  0  0  0  0  0
   -5.5879    6.4424   -3.3734 H   0  0  0  0  0  0  0  0  0  0  0  0
   -5.5641    5.3988   -1.9787 H   0  0  0  0  0  0  0  0  0  0  0  0
   -6.7137    7.4536   -1.3482 H   0  0  0  0  0  0  0  0  0  0  0  0
   -5.2426    7.3389   -0.4288 H   0  0  0  0  0  0  0  0  0  0  0  0
   -5.4845    9.6377   -1.2919 H   0  0  0  0  0  0  0  0  0  0  0  0
   -4.0711    8.9291   -1.9765 H   0  0  0  0  0  0  0  0  0  0  0  0
   -5.2825   10.0170   -3.7876 H   0  0  0  0  0  0  0  0  0  0  0  0
   -5.3199    8.3328   -4.1010 H   0  0  0  0  0  0  0  0  0  0  0  0
   -7.5989    9.1028   -4.4267 H   0  0  0  0  0  0  0  0  0  0  0  0
   -7.6280    8.1235   -3.0328 H   0  0  0  0  0  0  0  0  0  0  0  0
   -8.8753   10.2038   -2.5847 H   0  0  0  0  0  0  0  0  0  0  0  0
   -7.5059   10.0947   -1.5151 H   0  0  0  0  0  0  0  0  0  0  0  0
   -7.6246   12.3523   -2.3547 H   0  0  0  0  0  0  0  0  0  0  0  0
   -6.1706   11.6657   -3.0093 H   0  0  0  0  0  0  0  0  0  0  0  0
   -7.4583   12.1062   -7.1666 H   0  0  0  0  0  0  0  0  0  0  0  0
   -7.4142   10.3366   -7.2789 H   0  0  0  0  0  0  0  0  0  0  0  0
   -9.7574   10.5105   -5.9426 H   0  0  0  0  0  0  0  0  0  0  0  0
  -11.6593   12.8323   -7.6483 H   0  0  0  0  0  0  0  0  0  0  0  0
   -9.3266   12.0954   -9.4801 H   0  0  0  0  0  0  0  0  0  0  0  0
  -12.0360   11.2147   -9.4267 H   0  0  0  0  0  0  0  0  0  0  0  0
   -9.2557    9.8698   -8.6186 H   0  0  0  0  0  0  0  0  0  0  0  0
  -11.7775   10.3652   -7.3678 H   0  0  0  0  0  0  0  0  0  0  0  0
   -8.0944   14.1244   -8.5572 H   0  0  0  0  0  0  0  0  0  0  0  0
  -10.7336   19.4215   -9.6968 H   0  0  0  0  0  0  0  0  0  0  0  0
   -9.3176   18.3845   -9.6450 H   0  0  0  0  0  0  0  0  0  0  0  0
  1  2  1  0  0  0  0
  1 37  1  0  0  0  0
  1 38  1  0  0  0  0
  1 39  1  0  0  0  0
  2  3  1  0  0  0  0
  2 40  1  0  0  0  0
  2 41  1  0  0  0  0
  3  4  1  0  0  0  0
  3 42  1  0  0  0  0
  3 43  1  0  0  0  0
  4  5  1  0  0  0  0
  4 44  1  0  0  0  0
  4 45  1  0  0  0  0
  5  6  1  0  0  0  0
  5 46  1  0  0  0  0
  5 47  1  0  0  0  0
  6  7  1  0  0  0  0
  6 48  1  0  0  0  0
  6 49  1  0  0  0  0
  7  8  1  0  0  0  0
  7 50  1  0  0  0  0
  7 51  1  0  0  0  0
  8  9  1  0  0  0  0
  8 52  1  0  0  0  0
  8 53  1  0  0  0  0
  9 10  2  0  0  0  0
  9 54  1  0  0  0  0
 10 11  1  0  0  0  0
 10 55  1  0  0  0  0
 11 12  1  0  0  0  0
 11 56  1  0  0  0  0
 11 57  1  0  0  0  0
 12 13  1  0  0  0  0
 12 58  1  0  0  0  0
 12 59  1  0  0  0  0
 13 14  1  0  0  0  0
 13 60  1  0  0  0  0
 13 61  1  0  0  0  0
 14 15  1  0  0  0  0
 14 62  1  0  0  0  0
 14 63  1  0  0  0  0
 15 16  1  0  0  0  0
 15 64  1  0  0  0  0
 15 65  1  0  0  0  0
 16 17  1  0  0  0  0
 16 66  1  0  0  0  0
 16 67  1  0  0  0  0
 17 18  1  0  0  0  0
 17 68  1  0  0  0  0
 17 69  1  0  0  0  0
 18 19  2  0  0  0  0
 18 20  1  0  0  0  0
 20 21  1  0  0  0  0
 21 70  1  0  0  0  0
 21 71  1  0  0  0  0
 22 21  1  0  0  0  0
 22 23  1  0  0  0  0
 22 72  1  1  0  0  0
 24 23  1  0  0  0  0
 24 73  1  1  0  0  0
 24 29  1  0  0  0  0
 25 24  1  0  0  0  0
 25 26  1  0  0  0  0
 25 27  1  0  0  0  0
 25 74  1  6  0  0  0
 26 75  1  0  0  0  0
 27 22  1  0  0  0  0
 27 28  1  0  0  0  0
 27 76  1  6  0  0  0
 28 77  1  0  0  0  0
 29 30  1  0  0  0  0
 29 33  1  0  0  0  0
 30 31  2  0  0  0  0
 30 78  1  0  0  0  0
 31 32  1  0  0  0  0
 32 33  2  0  0  0  0
 32 34  1  0  0  0  0
 34 35  1  0  0  0  0
 34 36  2  0  0  0  0
 35 79  1  0  0  0  0
 35 80  1  0  0  0  0
M  END
>  <DRUGBANK_ID>
DB17193

>  <COMMON_NAME>
Ribavirin elaidate

>  <CAS_NUMBER>
1352921-29-9

>  <UNII>
4LU13X0I13

>  <SYNONYMS>
1h-1,2,4-triazole-3-carboxamide, 1-(5-o-((9e)-1-oxo-9-octadecen-1-yl)-.beta.-d-ribofuranosyl)-; Ribavirin-5'-elaidic acid ester

$$$$
