
 OpenBabel10282417143D

 19 18  0  0  0  0  0  0  0  0999 V2000
    0.8041   -0.0489   -0.1480 C   0  0  0  0  0  0  0  0  0  0  0  0
    0.4404    1.1023    0.7319 N   0  0  0  0  0  0  0  0  0  0  0  0
    0.4790    0.1816   -1.5596 N   0  0  0  0  0  0  0  0  0  0  0  0
    0.4125   -1.4698    0.4854 C   0  0  0  0  0  0  0  0  0  0  0  0
   -0.3958    2.1123    0.3930 C   0  0  0  0  0  0  0  0  0  0  0  0
   -0.3325   -0.6488   -2.2635 C   0  0  0  0  0  0  0  0  0  0  0  0
    1.3880   -2.2729    0.6266 O   0  5  0  0  0  0  0  0  0  0  0  0
   -0.7728   -1.5603    0.9317 O   0  0  0  0  0  0  0  0  0  0  0  0
   -0.7129    2.9581    1.4058 N   0  0  0  0  0  0  0  0  0  0  0  0
   -0.7718    2.3875   -0.7415 O   0  0  0  0  0  0  0  0  0  0  0  0
   -0.7121   -0.1722   -3.4718 N   0  0  0  0  0  0  0  0  0  0  0  0
   -0.6913   -1.7850   -1.9773 O   0  0  0  0  0  0  0  0  0  0  0  0
    1.9026   -0.0160   -0.1199 H   0  0  0  0  0  0  0  0  0  0  0  0
    0.5123    0.8654    1.7107 H   0  0  0  0  0  0  0  0  0  0  0  0
    0.4597    1.1570   -1.8107 H   0  0  0  0  0  0  0  0  0  0  0  0
   -1.3837    3.6717    1.1556 H   0  0  0  0  0  0  0  0  0  0  0  0
   -0.5904    2.7382    2.3803 H   0  0  0  0  0  0  0  0  0  0  0  0
   -1.3824   -0.7674   -3.9373 H   0  0  0  0  0  0  0  0  0  0  0  0
   -0.5976    0.7843   -3.7549 H   0  0  0  0  0  0  0  0  0  0  0  0
  1  2  1  0  0  0  0
  1  3  1  0  0  0  0
  1  4  1  0  0  0  0
  1 13  1  0  0  0  0
  2  5  1  0  0  0  0
  2 14  1  0  0  0  0
  3  6  1  0  0  0  0
  3 15  1  0  0  0  0
  4  7  1  0  0  0  0
  4  8  2  0  0  0  0
  5  9  1  0  0  0  0
  5 10  2  0  0  0  0
  6 11  1  0  0  0  0
  6 12  2  0  0  0  0
  9 16  1  0  0  0  0
  9 17  1  0  0  0  0
 11 18  1  0  0  0  0
 11 19  1  0  0  0  0
M  CHG  1   7  -1
M  END
>  <DRUGBANK_ID>
DB04380

>  <SECONDARY_ACCESSION_NUMBERS>
EXPT00066

>  <COMMON_NAME>
Allantoate

>  <SYNONYMS>
bis[(aminocarbonyl)amino]acetate; diureido-acetate; diureidoacetate

$$$$
