
 OpenBabel10282417203D

 34 35  0  0  0  0  0  0  0  0999 V2000
    0.9592   -0.0698   -0.1078 O   0  0  0  0  0  0  0  0  0  0  0  0
    0.5320    0.9217    0.8157 C   0  0  0  0  0  0  0  0  0  0  0  0
    1.0348    0.6123    2.2238 C   0  0  2  0  0  0  0  0  0  0  0  0
    0.1241   -0.4080    2.9021 C   0  0  1  0  0  0  0  0  0  0  0  0
    0.8408   -1.2749    3.7856 O   0  0  0  0  0  0  0  0  0  0  0  0
   -0.7934    0.4722    3.6903 C   0  0  0  0  0  0  0  0  0  0  0  0
    0.1011    1.6535    4.0961 C   0  0  1  0  0  0  0  0  0  0  0  0
    0.9901    1.8566    2.9903 O   0  0  0  0  0  0  0  0  0  0  0  0
   -0.6363    2.8323    4.5575 N   0  0  0  0  0  0  0  0  0  0  0  0
   -1.5039    2.5169    5.5911 C   0  0  0  0  0  0  0  0  0  0  0  0
   -1.8237    1.3806    5.9458 O   0  0  0  0  0  0  0  0  0  0  0  0
   -2.0239    3.5242    6.3011 N   0  0  0  0  0  0  0  0  0  0  0  0
   -2.0000    4.8220    5.9480 C   0  0  0  0  0  0  0  0  0  0  0  0
   -2.6644    5.6370    6.5751 O   0  0  0  0  0  0  0  0  0  0  0  0
   -1.1266    5.1732    4.7923 C   0  0  0  0  0  0  0  0  0  0  0  0
   -0.4177    4.1743    4.2103 C   0  0  0  0  0  0  0  0  0  0  0  0
   -1.1431    6.6506    4.4624 C   0  0  0  0  0  0  0  0  0  0  0  0
   -2.5367    7.1285    4.0278 C   0  0  0  0  0  0  0  0  0  0  0  0
    1.9330   -0.0700   -0.1060 H   0  0  0  0  0  0  0  0  0  0  0  0
    0.8907    1.8995    0.4839 H   0  0  0  0  0  0  0  0  0  0  0  0
   -0.5633    0.9561    0.7923 H   0  0  0  0  0  0  0  0  0  0  0  0
    2.0645    0.2331    2.2002 H   0  0  0  0  0  0  0  0  0  0  0  0
   -0.4297   -1.0553    2.2142 H   0  0  0  0  0  0  0  0  0  0  0  0
    1.3029   -0.7532    4.4621 H   0  0  0  0  0  0  0  0  0  0  0  0
   -1.6281    0.8317    3.0768 H   0  0  0  0  0  0  0  0  0  0  0  0
   -1.1917   -0.0945    4.5324 H   0  0  0  0  0  0  0  0  0  0  0  0
    0.7313    1.3613    4.9467 H   0  0  0  0  0  0  0  0  0  0  0  0
   -2.6280    3.2459    7.0538 H   0  0  0  0  0  0  0  0  0  0  0  0
    0.3189    4.3860    3.4341 H   0  0  0  0  0  0  0  0  0  0  0  0
   -0.8349    7.2272    5.3463 H   0  0  0  0  0  0  0  0  0  0  0  0
   -0.4280    6.8892    3.6689 H   0  0  0  0  0  0  0  0  0  0  0  0
   -3.2894    7.0158    4.8159 H   0  0  0  0  0  0  0  0  0  0  0  0
   -2.5232    8.1924    3.7726 H   0  0  0  0  0  0  0  0  0  0  0  0
   -2.8909    6.5635    3.1605 H   0  0  0  0  0  0  0  0  0  0  0  0
  1  2  1  0  0  0  0
  1 19  1  0  0  0  0
  2 20  1  0  0  0  0
  2 21  1  0  0  0  0
  3  2  1  0  0  0  0
  3  4  1  0  0  0  0
  3  8  1  0  0  0  0
  3 22  1  6  0  0  0
  4  5  1  0  0  0  0
  4  6  1  0  0  0  0
  4 23  1  6  0  0  0
  5 24  1  0  0  0  0
  6  7  1  0  0  0  0
  6 25  1  0  0  0  0
  6 26  1  0  0  0  0
  7  8  1  0  0  0  0
  7 27  1  1  0  0  0
  7  9  1  0  0  0  0
  9 10  1  0  0  0  0
  9 16  1  0  0  0  0
 10 11  2  0  0  0  0
 10 12  1  0  0  0  0
 12 13  1  0  0  0  0
 12 28  1  0  0  0  0
 13 14  2  0  0  0  0
 13 15  1  0  0  0  0
 15 16  2  0  0  0  0
 15 17  1  0  0  0  0
 16 29  1  0  0  0  0
 17 18  1  0  0  0  0
 17 30  1  0  0  0  0
 17 31  1  0  0  0  0
 18 32  1  0  0  0  0
 18 33  1  0  0  0  0
 18 34  1  0  0  0  0
M  END
>  <DRUGBANK_ID>
DB13421

>  <COMMON_NAME>
Edoxudine

>  <CAS_NUMBER>
15176-29-1

>  <UNII>
15ZQM81Y3R

>  <SYNONYMS>
2'-Deoxy-5-ethyluridine; 5-Ethyl-2'-deoxyuridine; Edoxudine

$$$$
