
 OpenBabel10282417133D

 32 31  0  0  1  0  0  0  0  0999 V2000
   -0.4458   -5.1952    4.6117 C   0  0  0  0  0  0  0  0  0  0  0  0
   -1.5686   -6.2769    4.8889 C   0  0  0  0  0  0  0  0  0  0  0  0
   -0.1029   -5.0459    3.1363 C   0  0  0  0  0  0  0  0  0  0  0  0
   -3.0529   -5.9872    4.4999 C   0  0  1  0  0  0  0  0  0  0  0  0
   -3.3033   -6.0580    3.0210 C   0  0  0  0  0  0  0  0  0  0  0  0
   -3.9930   -6.9917    5.0208 N   0  0  0  0  0  0  0  0  0  0  0  0
    1.0629   -2.2081    0.9343 N   0  0  0  0  0  0  0  0  0  0  0  0
    0.5437   -3.8832    2.4919 N   0  0  0  0  0  0  0  0  0  0  0  0
   -0.8567   -3.0424    0.0436 N   0  0  0  0  0  0  0  0  0  0  0  0
   -3.8190   -6.9382    2.3464 O   0  0  0  0  0  0  0  0  0  0  0  0
   -2.8095   -4.9863    2.4761 O   0  0  0  0  0  0  0  0  0  0  0  0
   -0.0466   -5.3315    0.6324 O   0  0  0  0  0  0  0  0  0  0  0  0
   -2.4934   -2.7386    1.8136 O   0  0  0  0  0  0  0  0  0  0  0  0
   -3.2762   -2.5625   -0.4761 O   0  0  0  0  0  0  0  0  0  0  0  0
   -2.5709   -4.8157    0.2973 O   0  0  0  0  0  0  0  0  0  0  0  0
    0.4695   -3.8785    0.7728 P   0  0  1  0  0  0  0  0  0  0  0  0
   -2.4150   -3.3693    0.3266 S   0  0  0  0  0  0  0  0  0  0  0  0
   -3.3446   -4.9874    4.8485 H   0  0  0  0  0  0  0  0  0  0  0  0
    0.4689   -5.4901    5.1373 H   0  0  0  0  0  0  0  0  0  0  0  0
   -0.7790   -4.2316    5.0064 H   0  0  0  0  0  0  0  0  0  0  0  0
   -1.2594   -7.2266    4.4333 H   0  0  0  0  0  0  0  0  0  0  0  0
   -1.5675   -6.4194    5.9748 H   0  0  0  0  0  0  0  0  0  0  0  0
    0.0749   -6.0310    2.6861 H   0  0  0  0  0  0  0  0  0  0  0  0
   -1.0390   -4.7518    2.8037 H   0  0  0  0  0  0  0  0  0  0  0  0
   -4.9056   -6.7480    4.6040 H   0  0  0  0  0  0  0  0  0  0  0  0
   -3.7815   -7.8537    4.4961 H   0  0  0  0  0  0  0  0  0  0  0  0
    1.2796   -1.9769    1.8932 H   0  0  0  0  0  0  0  0  0  0  0  0
    0.5246   -1.4632    0.5286 H   0  0  0  0  0  0  0  0  0  0  0  0
    0.1906   -3.0470    2.9337 H   0  0  0  0  0  0  0  0  0  0  0  0
   -0.8058   -2.1396   -0.3970 H   0  0  0  0  0  0  0  0  0  0  0  0
   -2.5038   -5.4059    1.6127 H   0  0  0  0  0  0  0  0  0  0  0  0
   -2.1402   -3.3578    2.4813 H   0  0  0  0  0  0  0  0  0  0  0  0
  1 19  1  0  0  0  0
  1 20  1  0  0  0  0
  2  1  1  0  0  0  0
  2 21  1  0  0  0  0
  2 22  1  0  0  0  0
  3  1  1  0  0  0  0
  3 23  1  0  0  0  0
  3 24  1  0  0  0  0
  4  2  1  0  0  0  0
  4  6  1  0  0  0  0
  4 18  1  1  0  0  0
  5  4  1  0  0  0  0
  6 25  1  0  0  0  0
  6 26  1  0  0  0  0
  7 27  1  0  0  0  0
  7 28  1  0  0  0  0
  8  3  1  0  0  0  0
  8 29  1  0  0  0  0
  9 30  1  0  0  0  0
 10  5  2  0  0  0  0
 11  5  1  0  0  0  0
 11 31  1  0  0  0  0
 13 32  1  0  0  0  0
 16  9  1  0  0  0  0
 16 12  2  6  0  0  0
 16  8  1  0  0  0  0
 16  7  1  0  0  0  0
 17  9  1  0  0  0  0
 17 13  1  0  0  0  0
 17 14  2  0  0  0  0
 17 15  2  0  0  0  0
M  END
>  <DRUGBANK_ID>
DB02965

>  <SECONDARY_ACCESSION_NUMBERS>
EXPT02674

>  <COMMON_NAME>
Ndelta-(N'-Sulphodiaminophosphinyl)-L-Ornithine

$$$$
