
 OpenBabel10282417213D

 39 38  0  0  0  0  0  0  0  0999 V2000
   -0.4988   -0.4977   -4.7328 C   0  0  0  0  0  0  0  0  0  0  0  0
    0.6464    0.2125   -4.0391 C   0  0  1  0  0  0  0  0  0  0  0  0
    2.2575   -0.5142   -2.1293 C   0  0  0  0  0  0  0  0  0  0  0  0
    2.5476   -1.7974   -1.8908 C   0  0  0  0  0  0  0  0  0  0  0  0
    0.8658   -0.4059   -2.6601 C   0  0  2  0  0  0  0  0  0  0  0  0
    1.2204   -2.5229   -1.8993 C   0  0  0  0  0  0  0  0  0  0  0  0
   -0.1760   -1.8617   -4.9923 O   0  0  0  0  0  0  0  0  0  0  0  0
    1.7940    0.2465   -4.8771 O   0  0  0  0  0  0  0  0  0  0  0  0
    2.8293    0.5920   -1.8745 O   0  5  0  0  0  0  0  0  0  0  0  0
    3.5700   -2.3670   -1.4316 O   0  5  0  0  0  0  0  0  0  0  0  0
    0.8818   -3.4522   -1.1822 O   0  0  0  0  0  0  0  0  0  0  0  0
    0.2950   -1.6829   -2.4350 O   0  0  0  0  0  0  0  0  0  0  0  0
    2.9728   -1.6525    1.3864 C   0  0  0  0  0  0  0  0  0  0  0  0
    2.4328   -1.2547    2.7456 C   0  0  1  0  0  0  0  0  0  0  0  0
    0.7812    0.6350    2.6861 C   0  0  0  0  0  0  0  0  0  0  0  0
   -0.2210    0.9062    3.5288 C   0  0  0  0  0  0  0  0  0  0  0  0
    0.9503   -0.8333    2.5629 C   0  0  2  0  0  0  0  0  0  0  0  0
   -0.8173   -0.4059    3.9041 C   0  0  0  0  0  0  0  0  0  0  0  0
    2.2070   -2.8201    1.1309 O   0  0  0  0  0  0  0  0  0  0  0  0
    2.5484   -2.4145    3.5541 O   0  0  0  0  0  0  0  0  0  0  0  0
    1.5098    1.4746    1.8659 O   0  0  0  0  0  0  0  0  0  0  0  0
   -0.7338    2.1064    3.9110 O   0  0  0  0  0  0  0  0  0  0  0  0
   -1.9137   -0.5911    4.4014 O   0  0  0  0  0  0  0  0  0  0  0  0
    0.0330   -1.3839    3.4907 O   0  0  0  0  0  0  0  0  0  0  0  0
    1.7604    0.5666   -0.2875 Fe  0  2  0  0  0  0  0  0  0  0  0  0
    0.3815    1.2640   -3.8617 H   0  0  0  0  0  0  0  0  0  0  0  0
    0.2901    0.2355   -1.9810 H   0  0  0  0  0  0  0  0  0  0  0  0
    3.0482   -0.4493    3.1581 H   0  0  0  0  0  0  0  0  0  0  0  0
    0.5712   -1.0864    1.5623 H   0  0  0  0  0  0  0  0  0  0  0  0
   -0.7005   -0.0160   -5.6876 H   0  0  0  0  0  0  0  0  0  0  0  0
   -1.3977   -0.4623   -4.1061 H   0  0  0  0  0  0  0  0  0  0  0  0
    0.0535   -2.2883   -4.1432 H   0  0  0  0  0  0  0  0  0  0  0  0
    2.2871   -0.5867   -4.7438 H   0  0  0  0  0  0  0  0  0  0  0  0
    4.0420   -1.8741    1.3769 H   0  0  0  0  0  0  0  0  0  0  0  0
    2.8307   -0.8512    0.6737 H   0  0  0  0  0  0  0  0  0  0  0  0
    1.6138   -2.7930    0.3550 H   0  0  0  0  0  0  0  0  0  0  0  0
    2.4054   -3.1626    2.9181 H   0  0  0  0  0  0  0  0  0  0  0  0
    2.4077    1.5582    2.2792 H   0  0  0  0  0  0  0  0  0  0  0  0
   -0.0998    2.8128    3.7164 H   0  0  0  0  0  0  0  0  0  0  0  0
  1 30  1  0  0  0  0
  1 31  1  0  0  0  0
  2  1  1  0  0  0  0
  2  8  1  0  0  0  0
  2 26  1  1  0  0  0
  4  3  2  0  0  0  0
  5  3  1  0  0  0  0
  5 12  1  0  0  0  0
  5 27  1  1  0  0  0
  5  2  1  0  0  0  0
  6  4  1  0  0  0  0
  7  1  1  0  0  0  0
  7 32  1  0  0  0  0
  8 33  1  0  0  0  0
  9  3  1  0  0  0  0
 10  4  1  0  0  0  0
 11  6  2  0  0  0  0
 12  6  1  0  0  0  0
 13 34  1  0  0  0  0
 13 35  1  0  0  0  0
 14 13  1  0  0  0  0
 14 20  1  0  0  0  0
 14 28  1  1  0  0  0
 16 15  2  0  0  0  0
 17 15  1  0  0  0  0
 17 24  1  0  0  0  0
 17 29  1  6  0  0  0
 17 14  1  0  0  0  0
 18 16  1  0  0  0  0
 19 13  1  0  0  0  0
 19 36  1  0  0  0  0
 20 37  1  0  0  0  0
 21 15  1  0  0  0  0
 21 38  1  0  0  0  0
 22 16  1  0  0  0  0
 22 39  1  0  0  0  0
 23 18  2  0  0  0  0
 24 18  1  0  0  0  0
M  CHG  3   9  -1  10  -1  25   2
M  END
>  <DRUGBANK_ID>
DB14490

>  <SECONDARY_ACCESSION_NUMBERS>
DBSALT000075

>  <COMMON_NAME>
Ferrous ascorbate

>  <CAS_NUMBER>
24808-52-4

>  <UNII>
DI3477D0PI

>  <SYNONYMS>
Ferrous cevitamate; Iron(2+) L-ascorbate; L-Ascorbic acid, iron complex

$$$$
