
 OpenBabel10282417163D

165172  0  0  0  0  0  0  0  0999 V2000
    2.0326   -1.3530  -14.8902 C   0  0  1  0  0  0  0  0  0  0  0  0
    2.5869   -0.3093  -15.8827 C   0  0  1  0  0  0  0  0  0  0  0  0
    1.8360    0.9886  -15.7224 C   0  0  2  0  0  0  0  0  0  0  0  0
    0.6391   -1.5894  -15.2662 O   0  0  0  0  0  0  0  0  0  0  0  0
    0.4384    0.7208  -16.1476 C   0  0  1  0  0  0  0  0  0  0  0  0
   -0.1516   -0.3641  -15.2492 C   0  0  1  0  0  0  0  0  0  0  0  0
    3.8946    0.2303  -15.9208 O   0  0  0  0  0  0  0  0  0  0  0  0
    2.4266    1.9669  -16.5936 O   0  0  0  0  0  0  0  0  0  0  0  0
   -0.3165    1.9232  -16.1189 O   0  0  0  0  0  0  0  0  0  0  0  0
   -1.5284   -0.6648  -15.8216 C   0  0  0  0  0  0  0  0  0  0  0  0
   -2.1919   -1.6236  -15.0153 O   0  0  0  0  0  0  0  0  0  0  0  0
    2.7763   -2.6202  -14.9274 O   0  0  0  0  0  0  0  0  0  0  0  0
    3.7370   -0.2906   -6.1792 C   0  0  1  0  0  0  0  0  0  0  0  0
    3.9888   -0.3607   -7.7145 C   0  0  1  0  0  0  0  0  0  0  0  0
    4.1351   -2.6975  -14.3880 C   0  0  1  0  0  0  0  0  0  0  0  0
    4.8292   -2.1938   -9.4603 C   0  0  2  0  0  0  0  0  0  0  0  0
    4.7429   -1.7375   -8.0013 C   0  0  1  0  0  0  0  0  0  0  0  0
    4.7471   -4.0567  -14.0061 C   0  0  1  0  0  0  0  0  0  0  0  0
    5.7494    0.1454   -1.3368 C   0  0  1  0  0  0  0  0  0  0  0  0
    5.7190    0.6180    0.1048 C   0  0  1  0  0  0  0  0  0  0  0  0
    5.1163   -0.3377   -5.5312 C   0  0  2  0  0  0  0  0  0  0  0  0
    5.0361   -1.4733  -14.5460 C   0  0  2  0  0  0  0  0  0  0  0  0
    3.3105   -2.1870   -9.8783 C   0  0  2  0  0  0  0  0  0  0  0  0
    5.6927   -0.6230    1.0057 C   0  0  2  0  0  0  0  0  0  0  0  0
    4.5964   -0.6531   -1.5546 O   0  0  0  0  0  0  0  0  0  0  0  0
    6.0855   -3.9285  -13.5052 O   0  0  0  0  0  0  0  0  0  0  0  0
    3.0327   -2.7811  -11.2430 C   0  0  0  0  0  0  0  0  0  0  0  0
    4.5895   -1.6242    0.5998 C   0  0  1  0  0  0  0  0  0  0  0  0
    6.4359   -1.5406  -14.0649 C   0  0  1  0  0  0  0  0  0  0  0  0
    4.6798   -1.9063   -0.8899 C   0  0  1  0  0  0  0  0  0  0  0  0
    5.7687   -1.7198   -5.7635 C   0  0  1  0  0  0  0  0  0  0  0  0
    6.9488   -2.9533  -14.0936 C   0  0  1  0  0  0  0  0  0  0  0  0
    4.9154    0.1823   -4.1278 C   0  0  1  0  0  0  0  0  0  0  0  0
    6.0535   -1.8846   -7.2457 C   0  0  0  0  0  0  0  0  0  0  0  0
    6.0433    1.0785   -3.5477 C   0  0  1  0  0  0  0  0  0  0  0  0
    5.7650    1.3020   -2.1581 O   0  0  0  0  0  0  0  0  0  0  0  0
    3.8927   -4.6757  -12.9417 O   0  0  0  0  0  0  0  0  0  0  0  0
    3.8453   -4.1373  -11.5627 C   0  0  1  0  0  0  0  0  0  0  0  0
    3.1900    1.0320   -5.6270 C   0  0  0  0  0  0  0  0  0  0  0  0
    2.6144   -0.3128   -8.3745 C   0  0  0  0  0  0  0  0  0  0  0  0
    5.3252   -3.6665   -9.5216 C   0  0  0  0  0  0  0  0  0  0  0  0
    2.7203   -0.7427   -9.7785 C   0  0  0  0  0  0  0  0  0  0  0  0
    3.5612    0.9478   -4.1511 C   0  0  0  0  0  0  0  0  0  0  0  0
    3.6992   -3.2153   -2.7608 O   0  0  0  0  0  0  0  0  0  0  0  0
    3.5428   -2.8103   -1.3905 C   0  0  0  0  0  0  0  0  0  0  0  0
    5.2201   -4.2481  -10.9094 C   0  0  0  0  0  0  0  0  0  0  0  0
    9.1666    1.7722   -6.7321 C   0  0  0  0  0  0  0  0  0  0  0  0
    8.0834    1.4826   -5.9808 C   0  0  0  0  0  0  0  0  0  0  0  0
    6.8500    1.4423    0.4136 O   0  0  0  0  0  0  0  0  0  0  0  0
    4.5089   -0.2366  -13.9128 O   0  0  0  0  0  0  0  0  0  0  0  0
    5.5024   -0.2261    2.3620 O   0  0  0  0  0  0  0  0  0  0  0  0
    7.2463   -0.6588  -14.8531 O   0  0  0  0  0  0  0  0  0  0  0  0
    4.6901   -2.8369    1.3390 O   0  0  0  0  0  0  0  0  0  0  0  0
    2.8036   -1.4272   -5.6485 C   0  0  0  0  0  0  0  0  0  0  0  0
    6.9368   -2.0726   -5.0269 O   0  0  0  0  0  0  0  0  0  0  0  0
    4.8056    0.8736   -8.2385 C   0  0  0  0  0  0  0  0  0  0  0  0
    5.8881   -1.3513  -10.2359 C   0  0  0  0  0  0  0  0  0  0  0  0
    7.4683    0.4918   -3.6835 C   0  0  0  0  0  0  0  0  0  0  0  0
    8.2384   -2.8392  -13.2697 C   0  0  0  0  0  0  0  0  0  0  0  0
    8.0269    0.3410   -5.0808 C   0  0  0  0  0  0  0  0  0  0  0  0
    6.0036    2.5008   -4.1500 C   0  0  0  0  0  0  0  0  0  0  0  0
    8.7910   -4.1157  -13.0361 O   0  0  0  0  0  0  0  0  0  0  0  0
    9.0907    3.0070   -7.5402 C   0  0  0  0  0  0  0  0  0  0  0  0
   10.3111    0.8348   -6.7032 C   0  0  0  0  0  0  0  0  0  0  0  0
    4.1098   -2.5192   -7.5717 H   0  0  0  0  0  0  0  0  0  0  0  0
    2.7558   -2.8248   -9.1804 H   0  0  0  0  0  0  0  0  0  0  0  0
    5.6901    0.4283   -6.0290 H   0  0  0  0  0  0  0  0  0  0  0  0
    4.8011   -0.7349   -3.5638 H   0  0  0  0  0  0  0  0  0  0  0  0
    4.8705   -3.9807   -3.0420 C   0  0  2  0  0  0  0  0  0  0  0  0
    4.9258   -4.2427   -4.4480 O   0  0  0  0  0  0  0  0  0  0  0  0
    6.1954   -4.7956   -4.8311 C   0  0  0  0  0  0  0  0  0  0  0  0
    6.2112   -6.2119   -4.3156 C   0  0  1  0  0  0  0  0  0  0  0  0
    6.1029   -6.1462   -2.7920 C   0  0  1  0  0  0  0  0  0  0  0  0
    4.8784   -5.3444   -2.3268 C   0  0  1  0  0  0  0  0  0  0  0  0
    4.9320   -5.2393   -0.9013 O   0  0  0  0  0  0  0  0  0  0  0  0
    6.0560   -7.4628   -2.2498 O   0  0  0  0  0  0  0  0  0  0  0  0
    5.0782   -6.9109   -4.8473 O   0  0  0  0  0  0  0  0  0  0  0  0
    1.5418   -3.0396  -11.5674 C   0  0  0  0  0  0  0  0  0  0  0  0
    3.3673   -1.5598  -12.0160 C   0  0  0  0  0  0  0  0  0  0  0  0
    1.8804   -0.9185  -13.9003 H   0  0  0  0  0  0  0  0  0  0  0  0
    2.5114   -0.7980  -16.8486 H   0  0  0  0  0  0  0  0  0  0  0  0
    1.9093    1.3953  -14.6982 H   0  0  0  0  0  0  0  0  0  0  0  0
    0.4961    0.3661  -17.1845 H   0  0  0  0  0  0  0  0  0  0  0  0
   -0.2517   -0.0151  -14.2087 H   0  0  0  0  0  0  0  0  0  0  0  0
    4.0392    0.5810  -15.0019 H   0  0  0  0  0  0  0  0  0  0  0  0
    3.0762    1.4556  -17.1253 H   0  0  0  0  0  0  0  0  0  0  0  0
   -0.1041    2.3974  -15.2963 H   0  0  0  0  0  0  0  0  0  0  0  0
   -2.1384    0.2431  -15.8710 H   0  0  0  0  0  0  0  0  0  0  0  0
   -1.4193   -1.0735  -16.8317 H   0  0  0  0  0  0  0  0  0  0  0  0
   -1.5857   -2.3872  -14.9774 H   0  0  0  0  0  0  0  0  0  0  0  0
    4.0002   -2.6626  -13.3795 H   0  0  0  0  0  0  0  0  0  0  0  0
    4.7385   -4.7393  -14.8591 H   0  0  0  0  0  0  0  0  0  0  0  0
    6.6573   -0.4443   -1.4941 H   0  0  0  0  0  0  0  0  0  0  0  0
    4.8229    1.2295    0.2625 H   0  0  0  0  0  0  0  0  0  0  0  0
    5.0906   -1.3606  -15.6256 H   0  0  0  0  0  0  0  0  0  0  0  0
    6.6735   -1.1161    0.9647 H   0  0  0  0  0  0  0  0  0  0  0  0
    3.6126   -1.1802    0.8190 H   0  0  0  0  0  0  0  0  0  0  0  0
    6.4876   -1.1112  -13.0613 H   0  0  0  0  0  0  0  0  0  0  0  0
    5.6484   -2.3719   -1.1063 H   0  0  0  0  0  0  0  0  0  0  0  0
    5.0432   -2.4519   -5.4720 H   0  0  0  0  0  0  0  0  0  0  0  0
    7.1520   -3.2820  -15.1131 H   0  0  0  0  0  0  0  0  0  0  0  0
    6.8004   -1.1626   -7.5899 H   0  0  0  0  0  0  0  0  0  0  0  0
    6.5132   -2.8657   -7.3978 H   0  0  0  0  0  0  0  0  0  0  0  0
    3.2482   -4.8964  -11.0284 H   0  0  0  0  0  0  0  0  0  0  0  0
    3.6833    1.9077   -6.0591 H   0  0  0  0  0  0  0  0  0  0  0  0
    2.1151    1.1523   -5.7802 H   0  0  0  0  0  0  0  0  0  0  0  0
    2.1871    0.6947   -8.3417 H   0  0  0  0  0  0  0  0  0  0  0  0
    1.8960   -0.9969   -7.9290 H   0  0  0  0  0  0  0  0  0  0  0  0
    6.3896   -3.7207   -9.2562 H   0  0  0  0  0  0  0  0  0  0  0  0
    4.7833   -4.2968   -8.8107 H   0  0  0  0  0  0  0  0  0  0  0  0
    3.3451    0.0087  -10.2812 H   0  0  0  0  0  0  0  0  0  0  0  0
    1.7266   -0.6807  -10.2359 H   0  0  0  0  0  0  0  0  0  0  0  0
    2.8044    0.4011   -3.5814 H   0  0  0  0  0  0  0  0  0  0  0  0
    3.5800    1.9398   -3.6990 H   0  0  0  0  0  0  0  0  0  0  0  0
    3.4122   -3.6899   -0.7613 H   0  0  0  0  0  0  0  0  0  0  0  0
    2.5920   -2.2723   -1.3306 H   0  0  0  0  0  0  0  0  0  0  0  0
    5.9672   -3.7178  -11.4784 H   0  0  0  0  0  0  0  0  0  0  0  0
    5.5552   -5.2928  -10.9199 H   0  0  0  0  0  0  0  0  0  0  0  0
    7.1947    2.0084   -6.2723 H   0  0  0  0  0  0  0  0  0  0  0  0
    7.6565    0.9786    0.1349 H   0  0  0  0  0  0  0  0  0  0  0  0
    4.8069   -0.0663  -12.9988 H   0  0  0  0  0  0  0  0  0  0  0  0
    4.6858    0.3047    2.3877 H   0  0  0  0  0  0  0  0  0  0  0  0
    7.0395   -0.8048  -15.7951 H   0  0  0  0  0  0  0  0  0  0  0  0
    5.5915   -3.1907    1.2656 H   0  0  0  0  0  0  0  0  0  0  0  0
    2.8195   -1.4926   -4.5601 H   0  0  0  0  0  0  0  0  0  0  0  0
    1.7645   -1.2560   -5.9350 H   0  0  0  0  0  0  0  0  0  0  0  0
    3.0674   -2.4272   -5.9916 H   0  0  0  0  0  0  0  0  0  0  0  0
    7.6970   -2.0706   -5.6435 H   0  0  0  0  0  0  0  0  0  0  0  0
    4.3285    1.8187   -7.9714 H   0  0  0  0  0  0  0  0  0  0  0  0
    5.8388    0.8997   -7.8896 H   0  0  0  0  0  0  0  0  0  0  0  0
    4.8766    0.9398   -9.3192 H   0  0  0  0  0  0  0  0  0  0  0  0
    6.1158   -1.7660  -11.2103 H   0  0  0  0  0  0  0  0  0  0  0  0
    5.6158   -0.3216  -10.4401 H   0  0  0  0  0  0  0  0  0  0  0  0
    6.8665   -1.3455   -9.7417 H   0  0  0  0  0  0  0  0  0  0  0  0
    8.1802    1.0664   -3.0786 H   0  0  0  0  0  0  0  0  0  0  0  0
    7.4880   -0.5140   -3.2446 H   0  0  0  0  0  0  0  0  0  0  0  0
    8.9574   -2.1952  -13.7874 H   0  0  0  0  0  0  0  0  0  0  0  0
    8.0517   -2.3822  -12.2866 H   0  0  0  0  0  0  0  0  0  0  0  0
    8.9178   -0.2868   -5.0221 H   0  0  0  0  0  0  0  0  0  0  0  0
    7.3886   -0.2358   -5.6932 H   0  0  0  0  0  0  0  0  0  0  0  0
    5.8362    2.4789   -5.2224 H   0  0  0  0  0  0  0  0  0  0  0  0
    5.1873    3.1219   -3.7804 H   0  0  0  0  0  0  0  0  0  0  0  0
    6.9222    3.0524   -3.9220 H   0  0  0  0  0  0  0  0  0  0  0  0
    8.0676   -4.6199  -12.6166 H   0  0  0  0  0  0  0  0  0  0  0  0
    9.8454    3.6998   -7.1662 H   0  0  0  0  0  0  0  0  0  0  0  0
    9.2214    2.7905   -8.5993 H   0  0  0  0  0  0  0  0  0  0  0  0
    8.1199    3.5161   -7.4272 H   0  0  0  0  0  0  0  0  0  0  0  0
   10.6582    0.6875   -5.6731 H   0  0  0  0  0  0  0  0  0  0  0  0
    9.9891   -0.1456   -7.0900 H   0  0  0  0  0  0  0  0  0  0  0  0
   11.1373    1.1943   -7.3069 H   0  0  0  0  0  0  0  0  0  0  0  0
    5.7492   -3.3818   -2.7853 H   0  0  0  0  0  0  0  0  0  0  0  0
    6.2655   -4.7525   -5.9218 H   0  0  0  0  0  0  0  0  0  0  0  0
    7.0336   -4.2318   -4.4043 H   0  0  0  0  0  0  0  0  0  0  0  0
    7.1202   -6.7350   -4.6231 H   0  0  0  0  0  0  0  0  0  0  0  0
    7.0015   -5.6660   -2.3828 H   0  0  0  0  0  0  0  0  0  0  0  0
    3.9474   -5.8713   -2.5712 H   0  0  0  0  0  0  0  0  0  0  0  0
    5.7770   -4.8365   -0.6548 H   0  0  0  0  0  0  0  0  0  0  0  0
    5.2485   -7.8726   -2.6159 H   0  0  0  0  0  0  0  0  0  0  0  0
    4.3250   -6.2840   -4.8228 H   0  0  0  0  0  0  0  0  0  0  0  0
    0.9779   -2.1026  -11.6663 H   0  0  0  0  0  0  0  0  0  0  0  0
    1.4471   -3.5373  -12.5426 H   0  0  0  0  0  0  0  0  0  0  0  0
    1.0623   -3.6555  -10.8103 H   0  0  0  0  0  0  0  0  0  0  0  0
    2.8179   -1.7489  -12.8808 H   0  0  0  0  0  0  0  0  0  0  0  0
    2.9644   -0.5533  -11.9295 H   0  0  0  0  0  0  0  0  0  0  0  0
    4.4397   -1.5060  -12.0840 H   0  0  0  0  0  0  0  0  0  0  0  0
  1 12  1  0  0  0  0
  1 80  1  1  0  0  0
  2  7  1  0  0  0  0
  2  1  1  0  0  0  0
  2 81  1  6  0  0  0
  3  2  1  0  0  0  0
  3  8  1  0  0  0  0
  3  5  1  0  0  0  0
  3 82  1  1  0  0  0
  4  1  1  0  0  0  0
  5  6  1  0  0  0  0
  5  9  1  0  0  0  0
  5 83  1  6  0  0  0
  6  4  1  0  0  0  0
  6 10  1  0  0  0  0
  6 84  1  1  0  0  0
  7 85  1  0  0  0  0
  8 86  1  0  0  0  0
  9 87  1  0  0  0  0
 10 88  1  0  0  0  0
 10 89  1  0  0  0  0
 11 10  1  0  0  0  0
 11 90  1  0  0  0  0
 13 54  1  1  0  0  0
 14 56  1  6  0  0  0
 14 13  1  0  0  0  0
 15 12  1  0  0  0  0
 15 18  1  0  0  0  0
 15 91  1  1  0  0  0
 16 57  1  6  0  0  0
 16 23  1  0  0  0  0
 16 17  1  0  0  0  0
 17 65  1  1  0  0  0
 17 34  1  0  0  0  0
 17 14  1  0  0  0  0
 18 37  1  0  0  0  0
 18 92  1  6  0  0  0
 19 93  1  6  0  0  0
 19 36  1  0  0  0  0
 20 49  1  0  0  0  0
 20 19  1  0  0  0  0
 20 94  1  1  0  0  0
 21 67  1  6  0  0  0
 21 13  1  0  0  0  0
 22 50  1  0  0  0  0
 22 29  1  0  0  0  0
 22 15  1  0  0  0  0
 22 95  1  6  0  0  0
 23 66  1  1  0  0  0
 23 42  1  0  0  0  0
 24 20  1  0  0  0  0
 24 51  1  0  0  0  0
 24 28  1  0  0  0  0
 24 96  1  6  0  0  0
 25 19  1  0  0  0  0
 26 18  1  0  0  0  0
 27 23  1  0  0  0  0
 27 78  1  0  0  0  0
 27 79  1  0  0  0  0
 28 30  1  0  0  0  0
 28 53  1  0  0  0  0
 28 97  1  1  0  0  0
 29 32  1  0  0  0  0
 29 52  1  0  0  0  0
 29 98  1  1  0  0  0
 30 25  1  0  0  0  0
 30 45  1  0  0  0  0
 30 99  1  6  0  0  0
 31 21  1  0  0  0  0
 31 55  1  0  0  0  0
 31100  1  1  0  0  0
 32 26  1  0  0  0  0
 32 59  1  0  0  0  0
 32101  1  6  0  0  0
 33 21  1  0  0  0  0
 33 43  1  0  0  0  0
 33 68  1  1  0  0  0
 33 35  1  0  0  0  0
 34 31  1  0  0  0  0
 34102  1  0  0  0  0
 34103  1  0  0  0  0
 35 36  1  1  0  0  0
 38 27  1  0  0  0  0
 38104  1  1  0  0  0
 38 37  1  0  0  0  0
 39 13  1  0  0  0  0
 39105  1  0  0  0  0
 39106  1  0  0  0  0
 40 14  1  0  0  0  0
 40107  1  0  0  0  0
 40108  1  0  0  0  0
 41 16  1  0  0  0  0
 41109  1  0  0  0  0
 41110  1  0  0  0  0
 42 40  1  0  0  0  0
 42111  1  0  0  0  0
 42112  1  0  0  0  0
 43 39  1  0  0  0  0
 43113  1  0  0  0  0
 43114  1  0  0  0  0
 44 45  1  0  0  0  0
 45115  1  0  0  0  0
 45116  1  0  0  0  0
 46 41  1  0  0  0  0
 46 38  1  0  0  0  0
 46117  1  0  0  0  0
 46118  1  0  0  0  0
 47 48  2  0  0  0  0
 48 60  1  0  0  0  0
 48119  1  0  0  0  0
 49120  1  0  0  0  0
 50121  1  0  0  0  0
 51122  1  0  0  0  0
 52123  1  0  0  0  0
 53124  1  0  0  0  0
 54125  1  0  0  0  0
 54126  1  0  0  0  0
 54127  1  0  0  0  0
 55128  1  0  0  0  0
 56129  1  0  0  0  0
 56130  1  0  0  0  0
 56131  1  0  0  0  0
 57132  1  0  0  0  0
 57133  1  0  0  0  0
 57134  1  0  0  0  0
 58 35  1  0  0  0  0
 58135  1  0  0  0  0
 58136  1  0  0  0  0
 59137  1  0  0  0  0
 59138  1  0  0  0  0
 60 58  1  0  0  0  0
 60139  1  0  0  0  0
 60140  1  0  0  0  0
 61 35  1  0  0  0  0
 61141  1  0  0  0  0
 61142  1  0  0  0  0
 61143  1  0  0  0  0
 62 59  1  0  0  0  0
 62144  1  0  0  0  0
 63 47  1  0  0  0  0
 63145  1  0  0  0  0
 63146  1  0  0  0  0
 63147  1  0  0  0  0
 64 47  1  0  0  0  0
 64148  1  0  0  0  0
 64149  1  0  0  0  0
 64150  1  0  0  0  0
 69 70  1  0  0  0  0
 69 74  1  0  0  0  0
 69151  1  1  0  0  0
 69 44  1  0  0  0  0
 70 71  1  0  0  0  0
 71 72  1  0  0  0  0
 71152  1  0  0  0  0
 71153  1  0  0  0  0
 72 73  1  0  0  0  0
 72 77  1  0  0  0  0
 72154  1  6  0  0  0
 73 74  1  0  0  0  0
 73 76  1  0  0  0  0
 73155  1  1  0  0  0
 74 75  1  0  0  0  0
 74156  1  6  0  0  0
 75157  1  0  0  0  0
 76158  1  0  0  0  0
 77159  1  0  0  0  0
 78160  1  0  0  0  0
 78161  1  0  0  0  0
 78162  1  0  0  0  0
 79163  1  0  0  0  0
 79164  1  0  0  0  0
 79165  1  0  0  0  0
M  END
>  <DRUGBANK_ID>
DB06748

>  <COMMON_NAME>
Ginsenoside C

>  <CAS_NUMBER>
11021-13-9

>  <UNII>
N219O0L31C

>  <SYNONYMS>
ginsenoside Rb2

$$$$
