
 OpenBabel10282417143D

 57 61  0  0  0  0  0  0  0  0999 V2000
   -9.9093    6.8681    9.2728 C   0  0  0  0  0  0  0  0  0  0  0  0
   -8.5392    6.8164    8.7334 C   0  0  0  0  0  0  0  0  0  0  0  0
   -7.5006    7.7281    8.9655 C   0  0  0  0  0  0  0  0  0  0  0  0
   -6.2076    7.4299    8.4562 C   0  0  0  0  0  0  0  0  0  0  0  0
   -5.9321    6.2664    7.7225 C   0  0  0  0  0  0  0  0  0  0  0  0
   -7.0062    5.4080    7.4864 C   0  0  0  0  0  0  0  0  0  0  0  0
   -8.2804    5.6596    7.9923 C   0  0  0  0  0  0  0  0  0  0  0  0
  -10.3257    6.0468   10.0840 O   0  0  0  0  0  0  0  0  0  0  0  0
  -10.6870    7.8065    8.7045 O   0  0  0  0  0  0  0  0  0  0  0  0
   -7.5032    8.9038    9.6629 O   0  0  0  0  0  0  0  0  0  0  0  0
   -8.7165    9.4862   10.1090 C   0  0  0  0  0  0  0  0  0  0  0  0
   -4.6416    6.0215    7.2017 N   0  0  0  0  0  0  0  0  0  0  0  0
   -4.6831    0.8030    3.5454 N   0  0  0  0  0  0  0  0  0  0  0  0
   -3.4598    1.5610    3.9390 C   0  0  0  0  0  0  0  0  0  0  0  0
   -3.6928    2.8359    4.7261 C   0  0  0  0  0  0  0  0  0  0  0  0
   -4.8133    3.6317    4.5490 C   0  0  0  0  0  0  0  0  0  0  0  0
   -5.8893    3.2638    3.6245 C   0  0  0  0  0  0  0  0  0  0  0  0
   -6.5797    2.0231    3.7788 C   0  0  0  0  0  0  0  0  0  0  0  0
   -5.6788    0.9699    4.3682 C   0  0  0  0  0  0  0  0  0  0  0  0
   -7.4564    1.5962    2.7728 C   0  0  0  0  0  0  0  0  0  0  0  0
   -7.5320    2.3270    1.5793 C   0  0  0  0  0  0  0  0  0  0  0  0
   -6.8098    3.5087    1.4009 C   0  0  0  0  0  0  0  0  0  0  0  0
   -6.0299    4.0027    2.4403 C   0  0  0  0  0  0  0  0  0  0  0  0
   -4.2627    5.0083    6.3090 C   0  0  0  0  0  0  0  0  0  0  0  0
   -5.0919    4.7081    5.3057 N   0  0  0  0  0  0  0  0  0  0  0  0
   -2.8642    3.2632    5.7388 C   0  0  0  0  0  0  0  0  0  0  0  0
   -3.1183    4.3388    6.5309 N   0  0  0  0  0  0  0  0  0  0  0  0
   -5.5106    0.6038    5.8274 C   0  0  0  0  0  0  0  0  0  0  0  0
   -5.9084    1.5430    6.7913 C   0  0  0  0  0  0  0  0  0  0  0  0
   -5.1459    1.7660    7.9455 C   0  0  0  0  0  0  0  0  0  0  0  0
   -4.0353    0.9738    8.2035 C   0  0  0  0  0  0  0  0  0  0  0  0
   -3.7820   -0.1134    7.3754 C   0  0  0  0  0  0  0  0  0  0  0  0
   -4.5211   -0.3349    6.1971 C   0  0  0  0  0  0  0  0  0  0  0  0
   -4.0202   -1.4241    5.5391 O   0  0  0  0  0  0  0  0  0  0  0  0
   -4.5349   -1.8950    4.3051 C   0  0  0  0  0  0  0  0  0  0  0  0
   -6.9532    2.3482    6.5631 F   0  0  0  0  0  0  0  0  0  0  0  0
   -8.3929    1.6768    0.2350 Cl  0  0  0  0  0  0  0  0  0  0  0  0
   -5.4032    8.1403    8.6452 H   0  0  0  0  0  0  0  0  0  0  0  0
   -6.8689    4.4951    6.9226 H   0  0  0  0  0  0  0  0  0  0  0  0
   -9.0697    4.9306    7.8132 H   0  0  0  0  0  0  0  0  0  0  0  0
  -10.2482    8.3114    7.9931 H   0  0  0  0  0  0  0  0  0  0  0  0
   -9.3215    9.8156    9.2597 H   0  0  0  0  0  0  0  0  0  0  0  0
   -9.2662    8.8245   10.7820 H   0  0  0  0  0  0  0  0  0  0  0  0
   -8.4618   10.3847   10.6795 H   0  0  0  0  0  0  0  0  0  0  0  0
   -3.8725    6.2575    7.8115 H   0  0  0  0  0  0  0  0  0  0  0  0
   -2.7876    0.8773    4.4653 H   0  0  0  0  0  0  0  0  0  0  0  0
   -2.9660    1.8363    3.0018 H   0  0  0  0  0  0  0  0  0  0  0  0
   -7.9259    0.6193    2.8318 H   0  0  0  0  0  0  0  0  0  0  0  0
   -6.7878    4.0106    0.4360 H   0  0  0  0  0  0  0  0  0  0  0  0
   -5.4135    4.8864    2.2816 H   0  0  0  0  0  0  0  0  0  0  0  0
   -1.9749    2.6962    6.0043 H   0  0  0  0  0  0  0  0  0  0  0  0
   -5.3646    2.6138    8.5908 H   0  0  0  0  0  0  0  0  0  0  0  0
   -3.3645    1.1973    9.0305 H   0  0  0  0  0  0  0  0  0  0  0  0
   -2.9370   -0.7654    7.5967 H   0  0  0  0  0  0  0  0  0  0  0  0
   -5.6265   -1.9242    4.2699 H   0  0  0  0  0  0  0  0  0  0  0  0
   -4.1048   -1.3456    3.4672 H   0  0  0  0  0  0  0  0  0  0  0  0
   -4.1614   -2.9151    4.1724 H   0  0  0  0  0  0  0  0  0  0  0  0
  1  2  1  0  0  0  0
  1  8  2  0  0  0  0
  1  9  1  0  0  0  0
  2  3  1  0  0  0  0
  2  7  2  0  0  0  0
  3  4  2  0  0  0  0
  3 10  1  0  0  0  0
  4  5  1  0  0  0  0
  4 38  1  0  0  0  0
  5  6  2  0  0  0  0
  5 12  1  0  0  0  0
  6  7  1  0  0  0  0
  6 39  1  0  0  0  0
  7 40  1  0  0  0  0
  9 41  1  0  0  0  0
 10 11  1  0  0  0  0
 11 42  1  0  0  0  0
 11 43  1  0  0  0  0
 11 44  1  0  0  0  0
 12 24  1  0  0  0  0
 12 45  1  0  0  0  0
 13 14  1  0  0  0  0
 13 19  2  0  0  0  0
 14 15  1  0  0  0  0
 14 46  1  0  0  0  0
 14 47  1  0  0  0  0
 15 16  1  0  0  0  0
 15 26  2  0  0  0  0
 16 17  1  0  0  0  0
 16 25  2  0  0  0  0
 17 18  1  0  0  0  0
 17 23  2  0  0  0  0
 18 19  1  0  0  0  0
 18 20  2  0  0  0  0
 19 28  1  0  0  0  0
 20 21  1  0  0  0  0
 20 48  1  0  0  0  0
 21 22  2  0  0  0  0
 21 37  1  0  0  0  0
 22 23  1  0  0  0  0
 22 49  1  0  0  0  0
 23 50  1  0  0  0  0
 24 25  1  0  0  0  0
 24 27  2  0  0  0  0
 26 27  1  0  0  0  0
 26 51  1  0  0  0  0
 28 29  1  0  0  0  0
 28 33  2  0  0  0  0
 29 30  2  0  0  0  0
 29 36  1  0  0  0  0
 30 31  1  0  0  0  0
 30 52  1  0  0  0  0
 31 32  2  0  0  0  0
 31 53  1  0  0  0  0
 32 33  1  0  0  0  0
 32 54  1  0  0  0  0
 33 34  1  0  0  0  0
 34 35  1  0  0  0  0
 35 55  1  0  0  0  0
 35 56  1  0  0  0  0
 35 57  1  0  0  0  0
M  END
>  <DRUGBANK_ID>
DB05220

>  <COMMON_NAME>
Alisertib

>  <CAS_NUMBER>
1028486-01-2

>  <UNII>
T66ES73M18

>  <SYNONYMS>
Alisertib

$$$$
