
 OpenBabel10282417193D

 58 61  0  0  1  0  0  0  0  0999 V2000
    1.4836   -0.7987   -2.1739 C   0  0  0  0  0  0  0  0  0  0  0  0
   -3.3244   -0.1746    1.2101 C   0  0  0  0  0  0  0  0  0  0  0  0
   -1.9576   -0.3116    1.8476 C   0  0  0  0  0  0  0  0  0  0  0  0
   -4.4126    3.7252   -2.1929 C   0  0  0  0  0  0  0  0  0  0  0  0
   -1.5613   -2.8055   -5.9394 C   0  0  0  0  0  0  0  0  0  0  0  0
   -2.4303   -3.8797   -6.1350 C   0  0  0  0  0  0  0  0  0  0  0  0
   -0.1954    2.2956   -2.7348 C   0  0  0  0  0  0  0  0  0  0  0  0
   -3.1614    3.0588   -2.7001 C   0  0  0  0  0  0  0  0  0  0  0  0
   -0.7476    3.4523   -1.9132 C   0  0  0  0  0  0  0  0  0  0  0  0
   -3.1391   -0.8482   -0.1398 C   0  0  0  0  0  0  0  0  0  0  0  0
   -0.9715   -0.4667    0.6960 C   0  0  0  0  0  0  0  0  0  0  0  0
   -3.8563    4.8039   -1.2978 C   0  0  0  0  0  0  0  0  0  0  0  0
   -0.5579   -3.9573   -4.0665 C   0  0  0  0  0  0  0  0  0  0  0  0
    0.3325   -1.6807   -4.7035 C   0  0  0  0  0  0  0  0  0  0  0  0
   -2.2421    1.9244   -0.6771 C   0  0  0  0  0  0  0  0  0  0  0  0
   -0.6071   -2.8427   -4.9148 C   0  0  0  0  0  0  0  0  0  0  0  0
   -2.3604   -4.9996   -5.3022 C   0  0  0  0  0  0  0  0  0  0  0  0
   -1.4307   -5.0331   -4.2577 C   0  0  0  0  0  0  0  0  0  0  0  0
   -0.2538    0.9741   -1.9480 C   0  0  1  0  0  0  0  0  0  0  0  0
   -1.6803    0.6755   -1.3822 C   0  0  1  0  0  0  0  0  0  0  0  0
   -0.3049   -0.5510   -3.9077 C   0  0  0  0  0  0  0  0  0  0  0  0
   -2.1937    3.1826   -1.5191 C   0  0  2  0  0  0  0  0  0  0  0  0
   -3.4416   -6.3086   -5.6213 Cl  0  0  0  0  0  0  0  0  0  0  0  0
   -1.3059   -6.3681   -3.1673 Cl  0  0  0  0  0  0  0  0  0  0  0  0
    0.3139   -0.1394   -2.7309 N   0  0  0  0  0  0  0  0  0  0  0  0
   -1.7507   -0.5523   -0.5443 N   0  0  0  0  0  0  0  0  0  0  0  0
   -1.3264   -0.0026   -4.3485 O   0  0  0  0  0  0  0  0  0  0  0  0
   -2.6724    4.2658   -0.6969 O   0  0  0  0  0  0  0  0  0  0  0  0
    0.4110    1.1375   -1.0929 H   0  0  0  0  0  0  0  0  0  0  0  0
   -2.3219    0.4561   -2.2403 H   0  0  0  0  0  0  0  0  0  0  0  0
    1.7624   -0.3765   -1.2049 H   0  0  0  0  0  0  0  0  0  0  0  0
    2.3187   -0.6597   -2.8655 H   0  0  0  0  0  0  0  0  0  0  0  0
    1.2761   -1.8634   -2.0407 H   0  0  0  0  0  0  0  0  0  0  0  0
   -3.5819    0.8844    1.1482 H   0  0  0  0  0  0  0  0  0  0  0  0
   -4.1310   -0.6159    1.7964 H   0  0  0  0  0  0  0  0  0  0  0  0
   -1.7126    0.5630    2.4590 H   0  0  0  0  0  0  0  0  0  0  0  0
   -1.9398   -1.2023    2.4795 H   0  0  0  0  0  0  0  0  0  0  0  0
   -5.0421    4.1063   -2.9991 H   0  0  0  0  0  0  0  0  0  0  0  0
   -5.0046    3.0134   -1.6037 H   0  0  0  0  0  0  0  0  0  0  0  0
   -1.6404   -1.9293   -6.5822 H   0  0  0  0  0  0  0  0  0  0  0  0
   -3.1628   -3.8324   -6.9371 H   0  0  0  0  0  0  0  0  0  0  0  0
    0.8399    2.5064   -3.0224 H   0  0  0  0  0  0  0  0  0  0  0  0
   -0.7655    2.2209   -3.6648 H   0  0  0  0  0  0  0  0  0  0  0  0
   -2.7710    3.5790   -3.5783 H   0  0  0  0  0  0  0  0  0  0  0  0
   -3.3752    2.0305   -3.0035 H   0  0  0  0  0  0  0  0  0  0  0  0
   -0.1359    3.5983   -1.0104 H   0  0  0  0  0  0  0  0  0  0  0  0
   -0.6786    4.3924   -2.4697 H   0  0  0  0  0  0  0  0  0  0  0  0
   -3.2453   -1.9322   -0.0167 H   0  0  0  0  0  0  0  0  0  0  0  0
   -3.8823   -0.5452   -0.8877 H   0  0  0  0  0  0  0  0  0  0  0  0
   -0.2476    0.3537    0.7050 H   0  0  0  0  0  0  0  0  0  0  0  0
   -0.3819   -1.3820    0.8196 H   0  0  0  0  0  0  0  0  0  0  0  0
   -3.5562    5.6818   -1.8769 H   0  0  0  0  0  0  0  0  0  0  0  0
   -4.5644    5.1123   -0.5238 H   0  0  0  0  0  0  0  0  0  0  0  0
    0.1619   -3.9879   -3.2514 H   0  0  0  0  0  0  0  0  0  0  0  0
    0.6295   -1.2649   -5.6751 H   0  0  0  0  0  0  0  0  0  0  0  0
    1.2603   -2.0472   -4.2613 H   0  0  0  0  0  0  0  0  0  0  0  0
   -1.7237    2.1038    0.2744 H   0  0  0  0  0  0  0  0  0  0  0  0
   -3.2987    1.7825   -0.4525 H   0  0  0  0  0  0  0  0  0  0  0  0
  1 31  1  0  0  0  0
  1 32  1  0  0  0  0
  1 33  1  0  0  0  0
  2 34  1  0  0  0  0
  2 35  1  0  0  0  0
  3  2  1  0  0  0  0
  3 36  1  0  0  0  0
  3 37  1  0  0  0  0
  4 38  1  0  0  0  0
  4 39  1  0  0  0  0
  5 40  1  0  0  0  0
  6  5  2  0  0  0  0
  6 41  1  0  0  0  0
  7 42  1  0  0  0  0
  7 43  1  0  0  0  0
  8  4  1  0  0  0  0
  8 44  1  0  0  0  0
  8 45  1  0  0  0  0
  9  7  1  0  0  0  0
  9 46  1  0  0  0  0
  9 47  1  0  0  0  0
 10  2  1  0  0  0  0
 10 48  1  0  0  0  0
 10 49  1  0  0  0  0
 11  3  1  0  0  0  0
 11 50  1  0  0  0  0
 11 51  1  0  0  0  0
 12  4  1  0  0  0  0
 12 52  1  0  0  0  0
 12 53  1  0  0  0  0
 13 54  1  0  0  0  0
 14 55  1  0  0  0  0
 14 56  1  0  0  0  0
 15 57  1  0  0  0  0
 15 58  1  0  0  0  0
 16  5  1  0  0  0  0
 16 13  2  0  0  0  0
 16 14  1  0  0  0  0
 17  6  1  0  0  0  0
 18 13  1  0  0  0  0
 18 17  2  0  0  0  0
 19  7  1  0  0  0  0
 19 29  1  1  0  0  0
 19 25  1  0  0  0  0
 20 15  1  0  0  0  0
 20 19  1  0  0  0  0
 20 30  1  6  0  0  0
 20 26  1  0  0  0  0
 21 14  1  0  0  0  0
 22  8  1  0  0  0  0
 22  9  1  0  0  0  0
 22 15  1  0  0  0  0
 22 28  1  1  0  0  0
 23 17  1  0  0  0  0
 24 18  1  0  0  0  0
 25  1  1  0  0  0  0
 25 21  1  0  0  0  0
 26 10  1  0  0  0  0
 26 11  1  0  0  0  0
 27 21  2  0  0  0  0
 28 12  1  0  0  0  0
M  END
>  <DRUGBANK_ID>
DB12704

>  <COMMON_NAME>
Spiradoline

>  <CAS_NUMBER>
87151-85-7

>  <UNII>
N18ZH0M4NP

>  <SYNONYMS>
Spiradoline

$$$$
