
 OpenBabel10282417203D

 55 57  0  0  0  0  0  0  0  0999 V2000
    1.3163    0.7305   -0.0009 C   0  0  0  0  0  0  0  0  0  0  0  0
    0.0777    1.3360   -0.0214 C   0  0  0  0  0  0  0  0  0  0  0  0
   -1.1950    0.2030   -0.0773 S   0  0  0  0  0  0  0  0  0  0  0  0
   -0.0944   -1.0906   -0.1443 C   0  0  0  0  0  0  0  0  0  0  0  0
    1.2296   -0.7101   -0.0213 C   0  0  0  0  0  0  0  0  0  0  0  0
    2.4235   -1.6494    0.0940 C   0  0  3  0  0  0  0  0  0  0  0  0
    2.5349   -2.4293    1.4059 C   0  0  0  0  0  0  0  0  0  0  0  0
    1.3961   -3.4645    1.4730 C   0  0  0  0  0  0  0  0  0  0  0  0
    1.3709   -4.2542    2.7396 C   0  0  0  0  0  0  0  0  0  0  0  0
    1.3312   -3.2840    3.9020 C   0  0  0  0  0  0  0  0  0  0  0  0
    2.5385   -2.3458    3.8944 C   0  0  0  0  0  0  0  0  0  0  0  0
    2.6048   -1.5197    2.6187 C   0  0  0  0  0  0  0  0  0  0  0  0
    2.5290   -2.7953   -0.8870 C   0  0  0  0  0  0  0  0  0  0  0  0
    3.5869   -3.4212   -0.9731 O   0  0  0  0  0  0  0  0  0  0  0  0
    1.3724   -3.1742   -1.4892 O   0  0  0  0  0  0  0  0  0  0  0  0
    1.5159   -4.1302   -2.5516 C   0  0  0  0  0  0  0  0  0  0  0  0
    1.6832   -3.3411   -3.8626 C   0  0  0  0  0  0  0  0  0  0  0  0
    2.8382   -2.4051   -3.9369 N   0  0  0  0  0  0  0  0  0  0  0  0
    2.5076   -1.1132   -3.3360 C   0  0  0  0  0  0  0  0  0  0  0  0
    3.3234    0.0912   -3.7497 C   0  0  0  0  0  0  0  0  0  0  0  0
    4.7388    0.1199   -3.1872 C   0  0  0  0  0  0  0  0  0  0  0  0
    5.6328   -1.0477   -3.5902 C   0  0  0  0  0  0  0  0  0  0  0  0
    5.2619   -2.3352   -2.8992 C   0  0  0  0  0  0  0  0  0  0  0  0
    4.1132   -3.0768   -3.6049 C   0  0  0  0  0  0  0  0  0  0  0  0
    2.2399    1.2986    0.0446 H   0  0  0  0  0  0  0  0  0  0  0  0
   -0.1541    2.3908    0.0005 H   0  0  0  0  0  0  0  0  0  0  0  0
   -0.4795   -2.0961   -0.2316 H   0  0  0  0  0  0  0  0  0  0  0  0
    3.3224   -1.0251   -0.0340 H   0  0  0  0  0  0  0  0  0  0  0  0
    3.4857   -2.9904    1.3874 H   0  0  0  0  0  0  0  0  0  0  0  0
    0.4377   -2.9548    1.4035 H   0  0  0  0  0  0  0  0  0  0  0  0
    1.4430   -4.1883    0.6536 H   0  0  0  0  0  0  0  0  0  0  0  0
    0.4714   -4.8792    2.7150 H   0  0  0  0  0  0  0  0  0  0  0  0
    2.2425   -4.9151    2.7761 H   0  0  0  0  0  0  0  0  0  0  0  0
    0.4129   -2.6849    3.8337 H   0  0  0  0  0  0  0  0  0  0  0  0
    1.2929   -3.8527    4.8308 H   0  0  0  0  0  0  0  0  0  0  0  0
    2.4831   -1.6665    4.7479 H   0  0  0  0  0  0  0  0  0  0  0  0
    3.4585   -2.9349    3.9899 H   0  0  0  0  0  0  0  0  0  0  0  0
    3.5345   -0.9348    2.5907 H   0  0  0  0  0  0  0  0  0  0  0  0
    1.7791   -0.8026    2.6067 H   0  0  0  0  0  0  0  0  0  0  0  0
    2.3201   -4.8527   -2.3673 H   0  0  0  0  0  0  0  0  0  0  0  0
    0.6051   -4.7382   -2.5976 H   0  0  0  0  0  0  0  0  0  0  0  0
    1.7300   -4.0319   -4.7105 H   0  0  0  0  0  0  0  0  0  0  0  0
    0.7509   -2.7756   -4.0082 H   0  0  0  0  0  0  0  0  0  0  0  0
    2.5753   -1.1130   -2.2649 H   0  0  0  0  0  0  0  0  0  0  0  0
    1.4557   -0.8675   -3.5431 H   0  0  0  0  0  0  0  0  0  0  0  0
    2.8018    0.9725   -3.3455 H   0  0  0  0  0  0  0  0  0  0  0  0
    3.3168    0.1942   -4.8365 H   0  0  0  0  0  0  0  0  0  0  0  0
    5.2101    1.0398   -3.5430 H   0  0  0  0  0  0  0  0  0  0  0  0
    4.6949    0.2026   -2.0906 H   0  0  0  0  0  0  0  0  0  0  0  0
    5.6223   -1.1973   -4.6721 H   0  0  0  0  0  0  0  0  0  0  0  0
    6.6578   -0.8046   -3.2900 H   0  0  0  0  0  0  0  0  0  0  0  0
    6.1224   -3.0219   -2.8849 H   0  0  0  0  0  0  0  0  0  0  0  0
    5.1006   -2.1045   -1.8406 H   0  0  0  0  0  0  0  0  0  0  0  0
    4.5031   -3.4924   -4.5404 H   0  0  0  0  0  0  0  0  0  0  0  0
    3.9626   -3.9955   -3.0334 H   0  0  0  0  0  0  0  0  0  0  0  0
  1  2  2  0  0  0  0
  1  5  1  0  0  0  0
  1 25  1  0  0  0  0
  2  3  1  0  0  0  0
  2 26  1  0  0  0  0
  3  4  1  0  0  0  0
  4  5  2  0  0  0  0
  4 27  1  0  0  0  0
  5  6  1  0  0  0  0
  6  7  1  0  0  0  0
  6 13  1  0  0  0  0
  6 28  1  0  0  0  0
  7  8  1  0  0  0  0
  7 12  1  0  0  0  0
  7 29  1  0  0  0  0
  8  9  1  0  0  0  0
  8 30  1  0  0  0  0
  8 31  1  0  0  0  0
  9 10  1  0  0  0  0
  9 32  1  0  0  0  0
  9 33  1  0  0  0  0
 10 11  1  0  0  0  0
 10 34  1  0  0  0  0
 10 35  1  0  0  0  0
 11 12  1  0  0  0  0
 11 36  1  0  0  0  0
 11 37  1  0  0  0  0
 12 38  1  0  0  0  0
 12 39  1  0  0  0  0
 13 14  2  0  0  0  0
 13 15  1  0  0  0  0
 15 16  1  0  0  0  0
 16 17  1  0  0  0  0
 16 40  1  0  0  0  0
 16 41  1  0  0  0  0
 17 18  1  0  0  0  0
 17 42  1  0  0  0  0
 17 43  1  0  0  0  0
 18 19  1  0  0  0  0
 18 24  1  0  0  0  0
 19 20  1  0  0  0  0
 19 44  1  0  0  0  0
 19 45  1  0  0  0  0
 20 21  1  0  0  0  0
 20 46  1  0  0  0  0
 20 47  1  0  0  0  0
 21 22  1  0  0  0  0
 21 48  1  0  0  0  0
 21 49  1  0  0  0  0
 22 23  1  0  0  0  0
 22 50  1  0  0  0  0
 22 51  1  0  0  0  0
 23 24  1  0  0  0  0
 23 52  1  0  0  0  0
 23 53  1  0  0  0  0
 24 54  1  0  0  0  0
 24 55  1  0  0  0  0
M  END
>  <DRUGBANK_ID>
DB13753

>  <COMMON_NAME>
Cetiedil

>  <CAS_NUMBER>
14176-10-4

>  <UNII>
621RT200TO

>  <SYNONYMS>
Cetiedil

$$$$
