
 OpenBabel10282417123D

 11 10  0  0  0  0  0  0  0  0999 V2000
    1.0550   -0.0218    0.0806 C   0  0  0  0  0  0  0  0  0  0  0  0
    0.3416   -1.5303   -1.2591 Te  0  0  0  0  0  0  0  0  0  0  0  0
    1.0550   -1.1243   -3.2355 C   0  0  0  0  0  0  0  0  0  0  0  0
    0.5483    0.2356   -3.6876 C   0  0  0  0  0  0  0  0  0  0  0  0
    1.4711    1.2598   -4.0281 O   0  5  0  0  0  0  0  0  0  0  0  0
   -0.7012    0.4560   -3.7609 O   0  0  0  0  0  0  0  0  0  0  0  0
    0.6983   -0.2248    1.0688 H   0  0  0  0  0  0  0  0  0  0  0  0
    0.6983    0.9355   -0.2376 H   0  0  0  0  0  0  0  0  0  0  0  0
    2.1250   -0.0218    0.0806 H   0  0  0  0  0  0  0  0  0  0  0  0
    2.1250   -1.1243   -3.2355 H   0  0  0  0  0  0  0  0  0  0  0  0
    0.6983   -1.8786   -3.9054 H   0  0  0  0  0  0  0  0  0  0  0  0
  1  2  1  0  0  0  0
  1  7  1  0  0  0  0
  1  8  1  0  0  0  0
  1  9  1  0  0  0  0
  2  3  1  0  0  0  0
  3  4  1  0  0  0  0
  3 10  1  0  0  0  0
  3 11  1  0  0  0  0
  4  5  1  0  0  0  0
  4  6  2  0  0  0  0
M  CHG  1   5  -1
M  END
>  <DRUGBANK_ID>
DB01918

>  <SECONDARY_ACCESSION_NUMBERS>
EXPT02242

>  <COMMON_NAME>
[Methyltelluro]Acetate

$$$$
