CPV
 OpenBabel10282417163D

 48 48  0  0  0  0  0  0  0  0999 V2000
    0.3032   -0.2472   -0.2915 C   0  0  0  0  0  0  0  0  0  0  0  0
    3.9668    0.6290    3.6642 N   0  0  0  0  0  0  0  0  0  0  0  0
   -0.3587   -0.7223   -1.2258 O   0  0  0  0  0  0  0  0  0  0  0  0
    2.5479    0.6786    3.2970 C   0  0  1  0  0  0  0  0  0  0  0  0
    2.6348    1.8748    2.3276 C   0  0  0  0  0  0  0  0  0  0  0  0
    3.1641    1.4838    0.9192 C   0  0  0  0  0  0  0  0  0  0  0  0
    1.9432   -0.7579    2.8466 C   0  0  1  0  0  0  0  0  0  0  0  0
    2.1808   -1.7402    3.8854 O   0  0  0  0  0  0  0  0  0  0  0  0
    5.5230    0.6110   -0.6222 C   0  0  0  0  0  0  0  0  0  0  0  0
   -0.1992   -0.0031    1.1530 C   0  0  2  0  0  0  0  0  0  0  0  0
   -0.0803    1.4453    1.5782 C   0  0  0  0  0  0  0  0  0  0  0  0
    0.4565   -0.8992    2.3118 C   0  0  0  0  0  0  0  0  0  0  0  0
    4.2667    2.4402    0.6173 C   0  0  0  0  0  0  0  0  0  0  0  0
    3.6479    0.0049    0.7143 C   0  0  0  0  0  0  0  0  0  0  0  0
    4.9947    2.0466   -0.6472 C   0  0  0  0  0  0  0  0  0  0  0  0
    4.3945   -0.3555   -0.5365 C   0  0  0  0  0  0  0  0  0  0  0  0
   -0.4865    1.8640    3.0131 C   0  0  0  0  0  0  0  0  0  0  0  0
   -0.1194    2.6318    0.6208 C   0  0  0  0  0  0  0  0  0  0  0  0
    1.5308    0.1130   -0.5814 O   0  0  0  0  0  0  0  0  0  0  0  0
    1.9856    0.9760    4.1854 H   0  0  0  0  0  0  0  0  0  0  0  0
    2.5543   -1.2795    2.1426 H   0  0  0  0  0  0  0  0  0  0  0  0
   -1.2634   -0.2150    1.0923 H   0  0  0  0  0  0  0  0  0  0  0  0
    4.1257    0.1377    4.5274 H   0  0  0  0  0  0  0  0  0  0  0  0
    4.3489    1.5745    3.7161 H   0  0  0  0  0  0  0  0  0  0  0  0
    1.7217    2.4559    2.3082 H   0  0  0  0  0  0  0  0  0  0  0  0
    3.1145    2.7833    2.7244 H   0  0  0  0  0  0  0  0  0  0  0  0
    2.4179    1.7796    0.1793 H   0  0  0  0  0  0  0  0  0  0  0  0
    1.7551   -1.4584    4.6996 H   0  0  0  0  0  0  0  0  0  0  0  0
    6.1637    0.4519    0.2515 H   0  0  0  0  0  0  0  0  0  0  0  0
    6.0668    0.3851   -1.5353 H   0  0  0  0  0  0  0  0  0  0  0  0
    0.9431    1.2456    1.5809 H   0  0  0  0  0  0  0  0  0  0  0  0
   -0.1548   -0.7690    3.2125 H   0  0  0  0  0  0  0  0  0  0  0  0
    0.3023   -1.9464    2.0317 H   0  0  0  0  0  0  0  0  0  0  0  0
    3.8177    3.4389    0.5190 H   0  0  0  0  0  0  0  0  0  0  0  0
    4.9339    2.4325    1.4789 H   0  0  0  0  0  0  0  0  0  0  0  0
    4.2798   -0.2971    1.5500 H   0  0  0  0  0  0  0  0  0  0  0  0
    2.8530   -0.7243    0.6479 H   0  0  0  0  0  0  0  0  0  0  0  0
    5.8328    2.7285   -0.7415 H   0  0  0  0  0  0  0  0  0  0  0  0
    4.3188    2.1805   -1.5039 H   0  0  0  0  0  0  0  0  0  0  0  0
    4.6962   -1.4103   -0.4461 H   0  0  0  0  0  0  0  0  0  0  0  0
    3.8103   -0.2996   -1.4579 H   0  0  0  0  0  0  0  0  0  0  0  0
   -0.1225    1.1926    3.7977 H   0  0  0  0  0  0  0  0  0  0  0  0
   -0.0723    2.8444    3.3035 H   0  0  0  0  0  0  0  0  0  0  0  0
   -1.5674    1.9193    3.0933 H   0  0  0  0  0  0  0  0  0  0  0  0
   -1.1355    2.8285    0.3100 H   0  0  0  0  0  0  0  0  0  0  0  0
    0.3006    3.5392    1.0911 H   0  0  0  0  0  0  0  0  0  0  0  0
    0.5084    2.4736   -0.2614 H   0  0  0  0  0  0  0  0  0  0  0  0
    1.9266   -0.4549   -1.2738 H   0  0  0  0  0  0  0  0  0  0  0  0
  1  3  2  0  0  0  0
  1 10  1  0  0  0  0
  1 19  1  0  0  0  0
  2 23  1  0  0  0  0
  2 24  1  0  0  0  0
  4 20  1  1  0  0  0
  4  2  1  0  0  0  0
  5  4  1  0  0  0  0
  5 25  1  0  0  0  0
  5 26  1  0  0  0  0
  6  5  1  0  0  0  0
  6 14  1  0  0  0  0
  6 13  1  0  0  0  0
  6 27  1  0  0  0  0
  7  4  1  0  0  0  0
  7  8  1  0  0  0  0
  7 12  1  0  0  0  0
  7 21  1  6  0  0  0
  8 28  1  0  0  0  0
  9 29  1  0  0  0  0
  9 30  1  0  0  0  0
 10 12  1  0  0  0  0
 10 11  1  0  0  0  0
 10 22  1  6  0  0  0
 11 18  1  0  0  0  0
 11 31  1  0  0  0  0
 12 32  1  0  0  0  0
 12 33  1  0  0  0  0
 13 34  1  0  0  0  0
 13 35  1  0  0  0  0
 14 36  1  0  0  0  0
 14 37  1  0  0  0  0
 15  9  1  0  0  0  0
 15 13  1  0  0  0  0
 15 38  1  0  0  0  0
 15 39  1  0  0  0  0
 16  9  1  0  0  0  0
 16 14  1  0  0  0  0
 16 40  1  0  0  0  0
 16 41  1  0  0  0  0
 17 11  1  0  0  0  0
 17 42  1  0  0  0  0
 17 43  1  0  0  0  0
 17 44  1  0  0  0  0
 18 45  1  0  0  0  0
 18 46  1  0  0  0  0
 18 47  1  0  0  0  0
 19 48  1  0  0  0  0
M  END
>  <DRUGBANK_ID>
DB07581

>  <COMMON_NAME>
5-AMINO-6-CYCLOHEXYL-4-HYDROXY-2-ISOPROPYL-HEXANOIC ACID

$$$$
