
 OpenBabel10282417243D

 39 39  0  0  1  0  0  0  0  0999 V2000
   -1.3089   -2.0602    0.6373 C   0  0  0  0  0  0  0  0  0  0  0  0
   -1.8601   -0.9812   -0.2439 C   0  0  0  0  0  0  0  0  0  0  0  0
   -2.9887   -0.4151    0.2499 C   0  0  0  0  0  0  0  0  0  0  0  0
   -1.0805   -0.6585   -1.5587 C   0  0  2  0  0  0  0  0  0  0  0  0
   -1.3163    0.7640   -2.1124 C   0  0  0  0  0  0  0  0  0  0  0  0
   -2.5818    0.9396   -2.9648 C   0  0  0  0  0  0  0  0  0  0  0  0
   -2.7388   -0.1184   -4.1167 C   0  0  1  0  0  0  0  0  0  0  0  0
   -4.1707    0.0121   -4.6926 C   0  0  0  0  0  0  0  0  0  0  0  0
   -1.7589    0.3211   -5.2142 C   0  0  0  0  0  0  0  0  0  0  0  0
   -0.7867   -0.4216   -5.7617 C   0  0  0  0  0  0  0  0  0  0  0  0
   -2.4816   -1.6350   -3.6405 C   0  0  1  0  0  0  0  0  0  0  0  0
   -1.1687   -1.6770   -2.7655 C   0  0  0  0  0  0  0  0  0  0  0  0
   -3.6388   -2.2917   -2.8958 C   0  0  0  0  0  0  0  0  0  0  0  0
   -4.4188   -3.5056   -3.1757 C   0  0  0  0  0  0  0  0  0  0  0  0
   -4.1649   -1.6299   -1.8638 C   0  0  0  0  0  0  0  0  0  0  0  0
   -0.7643   -1.5640    1.4482 H   0  0  0  0  0  0  0  0  0  0  0  0
   -0.6433   -2.7439    0.1134 H   0  0  0  0  0  0  0  0  0  0  0  0
   -2.1176   -2.6529    1.0836 H   0  0  0  0  0  0  0  0  0  0  0  0
   -3.5673   -0.9600    0.9999 H   0  0  0  0  0  0  0  0  0  0  0  0
   -3.5602    0.3805   -0.2219 H   0  0  0  0  0  0  0  0  0  0  0  0
   -0.0212   -0.6846   -1.2525 H   0  0  0  0  0  0  0  0  0  0  0  0
   -1.3263    1.4754   -1.2789 H   0  0  0  0  0  0  0  0  0  0  0  0
   -0.4558    1.0497   -2.7336 H   0  0  0  0  0  0  0  0  0  0  0  0
   -3.4670    0.9727   -2.3250 H   0  0  0  0  0  0  0  0  0  0  0  0
   -2.5971    1.9632   -3.3639 H   0  0  0  0  0  0  0  0  0  0  0  0
   -4.3973    1.0405   -4.9941 H   0  0  0  0  0  0  0  0  0  0  0  0
   -4.3099   -0.6438   -5.5580 H   0  0  0  0  0  0  0  0  0  0  0  0
   -4.9381   -0.2540   -3.9571 H   0  0  0  0  0  0  0  0  0  0  0  0
   -1.8530    1.3565   -5.5469 H   0  0  0  0  0  0  0  0  0  0  0  0
   -0.0894   -0.0154   -6.4825 H   0  0  0  0  0  0  0  0  0  0  0  0
   -0.6268   -1.4592   -5.4930 H   0  0  0  0  0  0  0  0  0  0  0  0
   -2.3452   -2.2538   -4.5431 H   0  0  0  0  0  0  0  0  0  0  0  0
   -0.3103   -1.4267   -3.4093 H   0  0  0  0  0  0  0  0  0  0  0  0
   -0.9561   -2.7072   -2.4553 H   0  0  0  0  0  0  0  0  0  0  0  0
   -4.2702   -4.2201   -2.3577 H   0  0  0  0  0  0  0  0  0  0  0  0
   -5.4828   -3.2111   -3.1491 H   0  0  0  0  0  0  0  0  0  0  0  0
   -4.2167   -3.9471   -4.1443 H   0  0  0  0  0  0  0  0  0  0  0  0
   -3.6915   -0.7056   -1.7514 H   0  0  0  0  0  0  0  0  0  0  0  0
   -4.9112   -1.9445   -1.1705 H   0  0  0  0  0  0  0  0  0  0  0  0
  1  2  1  0  0  0  0
  1 16  1  0  0  0  0
  1 17  1  0  0  0  0
  1 18  1  0  0  0  0
  2  3  2  0  0  0  0
  3 19  1  0  0  0  0
  3 20  1  0  0  0  0
  4  5  1  0  0  0  0
  4 12  1  0  0  0  0
  4 21  1  1  0  0  0
  4  2  1  0  0  0  0
  5  6  1  0  0  0  0
  5 22  1  0  0  0  0
  5 23  1  0  0  0  0
  6 24  1  0  0  0  0
  6 25  1  0  0  0  0
  7  6  1  0  0  0  0
  7  8  1  0  0  0  0
  7  9  1  6  0  0  0
  7 11  1  0  0  0  0
  8 26  1  0  0  0  0
  8 27  1  0  0  0  0
  8 28  1  0  0  0  0
  9 10  2  0  0  0  0
  9 29  1  0  0  0  0
 10 30  1  0  0  0  0
 10 31  1  0  0  0  0
 11 12  1  0  0  0  0
 11 13  1  0  0  0  0
 11 32  1  6  0  0  0
 12 33  1  0  0  0  0
 12 34  1  0  0  0  0
 13 14  1  0  0  0  0
 13 15  2  0  0  0  0
 14 35  1  0  0  0  0
 14 36  1  0  0  0  0
 14 37  1  0  0  0  0
 15 38  1  0  0  0  0
 15 39  1  0  0  0  0
M  END
>  <DRUGBANK_ID>
DB18097

>  <COMMON_NAME>
(-)-beta-Elemene

>  <CAS_NUMBER>
515-13-9

>  <UNII>
2QG8CX6LXD

>  <SYNONYMS>
.beta.-elemene; (-)-.beta.-elemene; (-)-B-elemene; (-)-beta-Elemene; Cyclohexane, 1-ethenyl-1-methyl-2,4-bis(1-methylethenyl)-, (1s,2s,4r)-; Elemene, (-)-.beta.-

$$$$
