
 OpenBabel10282417173D

 43 44  0  0  0  0  0  0  0  0999 V2000
    1.4585   -0.3630    0.8518 C   0  0  0  0  0  0  0  0  0  0  0  0
    1.0406    1.0306    2.6755 C   0  0  0  0  0  0  0  0  0  0  0  0
    0.2060    2.1288   -0.7433 C   0  0  0  0  0  0  0  0  0  0  0  0
   -0.8451    1.2767   -0.3825 C   0  0  0  0  0  0  0  0  0  0  0  0
   -0.8080   -1.8793    5.5692 C   0  0  0  0  0  0  0  0  0  0  0  0
    1.5369   -2.3953    5.8225 C   0  0  0  0  0  0  0  0  0  0  0  0
   -0.5147   -1.7868    4.2592 C   0  0  0  0  0  0  0  0  0  0  0  0
    1.8083   -2.1453    4.4864 C   0  0  0  0  0  0  0  0  0  0  0  0
    1.1307    1.5137   -1.5249 C   0  0  0  0  0  0  0  0  0  0  0  0
   -3.7985   -0.1491    0.0674 C   0  0  0  0  0  0  0  0  0  0  0  0
   -3.4455    0.8921    1.1725 C   0  0  0  0  0  0  0  0  0  0  0  0
   -0.0092   -0.6303   -1.5144 C   0  0  0  0  0  0  0  0  0  0  0  0
   -1.0355   -0.1807   -0.7150 C   0  0  0  0  0  0  0  0  0  0  0  0
    0.2419   -2.2270    6.3604 C   0  0  0  0  0  0  0  0  0  0  0  0
    0.7441   -1.7802    3.7291 C   0  0  0  0  0  0  0  0  0  0  0  0
   -1.8177   -1.4396    0.0015 C   0  0  0  0  0  0  0  0  0  0  0  0
   -1.3818   -0.0818    2.1399 C   0  0  0  0  0  0  0  0  0  0  0  0
    0.4380   -0.2428    2.0341 C   0  0  0  0  0  0  0  0  0  0  0  0
   -0.1162   -2.5240    7.9983 Cl  0  0  0  0  0  0  0  0  0  0  0  0
    1.0218    0.1967   -1.9645 N   0  0  0  0  0  0  0  0  0  0  0  0
   -1.2200   -2.4415    0.3995 O   0  0  0  0  0  0  0  0  0  0  0  0
   -2.2425   -0.8948    2.5533 O   0  0  0  0  0  0  0  0  0  0  0  0
   -3.1614   -1.3936    0.2337 O   0  0  0  0  0  0  0  0  0  0  0  0
   -2.0378    0.9900    1.6648 O   0  0  0  0  0  0  0  0  0  0  0  0
    0.9392   -1.5106    2.4547 O   0  0  0  0  0  0  0  0  0  0  0  0
    1.0466    0.2841    0.1824 H   0  0  0  0  0  0  0  0  0  0  0  0
    1.6436   -1.3420    0.3742 H   0  0  0  0  0  0  0  0  0  0  0  0
    2.4586    0.1160    0.8930 H   0  0  0  0  0  0  0  0  0  0  0  0
    0.7100    1.9393    2.1523 H   0  0  0  0  0  0  0  0  0  0  0  0
    0.7637    1.1033    3.7177 H   0  0  0  0  0  0  0  0  0  0  0  0
    2.1420    1.0564    2.6266 H   0  0  0  0  0  0  0  0  0  0  0  0
    0.3997    3.0306   -0.1285 H   0  0  0  0  0  0  0  0  0  0  0  0
   -1.1684    1.8763    0.4613 H   0  0  0  0  0  0  0  0  0  0  0  0
   -1.8520   -1.7772    5.8398 H   0  0  0  0  0  0  0  0  0  0  0  0
    2.3473   -2.7260    6.4478 H   0  0  0  0  0  0  0  0  0  0  0  0
   -1.3727   -1.8889    3.6659 H   0  0  0  0  0  0  0  0  0  0  0  0
    2.7846   -2.2471    4.0195 H   0  0  0  0  0  0  0  0  0  0  0  0
    2.1309    1.9453   -1.5229 H   0  0  0  0  0  0  0  0  0  0  0  0
   -4.8880   -0.3100    0.0261 H   0  0  0  0  0  0  0  0  0  0  0  0
   -3.5239    0.1703   -0.9397 H   0  0  0  0  0  0  0  0  0  0  0  0
   -4.0595    0.8158    2.0682 H   0  0  0  0  0  0  0  0  0  0  0  0
   -3.6621    1.8605    0.7014 H   0  0  0  0  0  0  0  0  0  0  0  0
    0.2297   -1.7063   -1.5055 H   0  0  0  0  0  0  0  0  0  0  0  0
  1 26  1  0  0  0  0
  1 27  1  0  0  0  0
  1 28  1  0  0  0  0
  2 29  1  0  0  0  0
  2 30  1  0  0  0  0
  2 31  1  0  0  0  0
  3 32  1  0  0  0  0
  4  3  2  0  0  0  0
  4 33  1  0  0  0  0
  5 34  1  0  0  0  0
  6 35  1  0  0  0  0
  7  5  1  0  0  0  0
  7 36  1  0  0  0  0
  8  6  2  0  0  0  0
  8 37  1  0  0  0  0
  9  3  1  0  0  0  0
  9 38  1  0  0  0  0
 10 39  1  0  0  0  0
 10 40  1  0  0  0  0
 11 10  1  0  0  0  0
 11 41  1  0  0  0  0
 11 42  1  0  0  0  0
 12 43  1  0  0  0  0
 13  4  1  0  0  0  0
 13 12  2  0  0  0  0
 14  5  2  0  0  0  0
 14  6  1  0  0  0  0
 15  7  2  0  0  0  0
 15  8  1  0  0  0  0
 16 13  1  0  0  0  0
 18  1  1  0  0  0  0
 18  2  1  0  0  0  0
 18 17  1  0  0  0  0
 19 14  1  0  0  0  0
 20  9  2  0  0  0  0
 20 12  1  0  0  0  0
 21 16  2  0  0  0  0
 22 17  2  0  0  0  0
 23 10  1  0  0  0  0
 23 16  1  0  0  0  0
 24 11  1  0  0  0  0
 24 17  1  0  0  0  0
 25 15  1  0  0  0  0
 25 18  1  0  0  0  0
M  END
>  <DRUGBANK_ID>
DB08983

>  <COMMON_NAME>
Etofibrate

>  <CAS_NUMBER>
31637-97-5

>  <UNII>
23TF67G79M

>  <SYNONYMS>
Etofibrate; Etofibrato; Etofibratum

$$$$
