
 OpenBabel10282417203D

 24 23  0  0  1  0  0  0  0  0999 V2000
    0.9986    2.6946    0.3493 C   0  0  0  0  0  0  0  0  0  0  0  0
    1.8368   -2.8853   -0.4113 C   0  0  0  0  0  0  0  0  0  0  0  0
    0.4229    1.3350    0.7492 C   0  0  2  0  0  0  0  0  0  0  0  0
    2.3126   -1.9762    0.7220 C   0  0  2  0  0  0  0  0  0  0  0  0
    0.8563    0.0195    0.0686 C   0  0  2  0  0  0  0  0  0  0  0  0
    2.2707   -0.4476    0.4636 C   0  0  2  0  0  0  0  0  0  0  0  0
    1.7324    2.8731   -1.4362 Br  0  0  0  0  0  0  0  0  0  0  0  0
    2.9813   -2.8055   -1.9871 Br  0  0  0  0  0  0  0  0  0  0  0  0
   -1.0149    1.4143    0.6746 O   0  0  0  0  0  0  0  0  0  0  0  0
    3.6232   -2.3633    1.1492 O   0  0  0  0  0  0  0  0  0  0  0  0
    0.6848    0.0425   -1.3516 O   0  0  0  0  0  0  0  0  0  0  0  0
    3.2352   -0.0588   -0.5172 O   0  0  0  0  0  0  0  0  0  0  0  0
    0.6239    1.2199    1.8220 H   0  0  0  0  0  0  0  0  0  0  0  0
    1.6562   -2.1713    1.5807 H   0  0  0  0  0  0  0  0  0  0  0  0
    0.1373   -0.7347    0.4116 H   0  0  0  0  0  0  0  0  0  0  0  0
    2.5833    0.0388    1.3950 H   0  0  0  0  0  0  0  0  0  0  0  0
    1.8114    2.9818    1.0204 H   0  0  0  0  0  0  0  0  0  0  0  0
    0.2211    3.4649    0.3925 H   0  0  0  0  0  0  0  0  0  0  0  0
    1.8698   -3.9333   -0.0997 H   0  0  0  0  0  0  0  0  0  0  0  0
    0.8238   -2.6477   -0.7436 H   0  0  0  0  0  0  0  0  0  0  0  0
   -1.2713    1.2722   -0.2546 H   0  0  0  0  0  0  0  0  0  0  0  0
    4.2401   -2.0562    0.4565 H   0  0  0  0  0  0  0  0  0  0  0  0
    1.1394    0.8459   -1.6878 H   0  0  0  0  0  0  0  0  0  0  0  0
    2.9633   -0.4709   -1.3621 H   0  0  0  0  0  0  0  0  0  0  0  0
  1 17  1  0  0  0  0
  1 18  1  0  0  0  0
  2 19  1  0  0  0  0
  2 20  1  0  0  0  0
  3  9  1  0  0  0  0
  3 13  1  1  0  0  0
  3  5  1  0  0  0  0
  3  1  1  0  0  0  0
  4  2  1  0  0  0  0
  4 10  1  0  0  0  0
  4 14  1  1  0  0  0
  5 15  1  1  0  0  0
  5 11  1  0  0  0  0
  5  6  1  0  0  0  0
  6  4  1  0  0  0  0
  6 12  1  0  0  0  0
  6 16  1  1  0  0  0
  7  1  1  0  0  0  0
  8  2  1  0  0  0  0
  9 21  1  0  0  0  0
 10 22  1  0  0  0  0
 11 23  1  0  0  0  0
 12 24  1  0  0  0  0
M  END
>  <DRUGBANK_ID>
DB13543

>  <COMMON_NAME>
Mitobronitol

>  <CAS_NUMBER>
488-41-5

>  <UNII>
5UP30YED7N

>  <SYNONYMS>
Mitobronitol

$$$$
