508
 OpenBabel10282417103D

 43 45  0  0  0  0  0  0  0  0999 V2000
    0.0277    1.7868    0.4231 S   0  0  0  0  0  0  0  0  0  0  0  0
    5.0903   -2.6744    0.3216 F   0  0  0  0  0  0  0  0  0  0  0  0
    4.2790   -2.9825   -1.6708 F   0  0  0  0  0  0  0  0  0  0  0  0
    5.7495   -1.4167   -1.3270 F   0  0  0  0  0  0  0  0  0  0  0  0
    0.0239   -1.2581    0.6368 N   0  0  0  0  0  0  0  0  0  0  0  0
   -3.0406   -2.6540    2.7142 N   0  0  0  0  0  0  0  0  0  0  0  0
    0.1076   -2.0314    1.9251 C   0  0  0  0  0  0  0  0  0  0  0  0
   -0.7302   -1.5820    3.1355 C   0  0  0  0  0  0  0  0  0  0  0  0
    1.2742   -0.6980    0.3032 C   0  0  0  0  0  0  0  0  0  0  0  0
   -1.1360   -0.7091    0.0607 C   0  0  0  0  0  0  0  0  0  0  0  0
   -2.2421   -1.4251    2.9618 C   0  0  0  0  0  0  0  0  0  0  0  0
    1.3956    0.6847    0.0711 C   0  0  0  0  0  0  0  0  0  0  0  0
   -1.3170    0.6898   -0.0144 C   0  0  0  0  0  0  0  0  0  0  0  0
    2.3544   -1.5522    0.0554 C   0  0  0  0  0  0  0  0  0  0  0  0
   -2.1158   -1.4793   -0.5839 C   0  0  0  0  0  0  0  0  0  0  0  0
    3.5389   -1.0574   -0.4776 C   0  0  0  0  0  0  0  0  0  0  0  0
    2.5772    1.1835   -0.4550 C   0  0  0  0  0  0  0  0  0  0  0  0
   -2.5253    1.2307   -0.4697 C   0  0  0  0  0  0  0  0  0  0  0  0
    3.6374    0.3188   -0.7434 C   0  0  0  0  0  0  0  0  0  0  0  0
   -3.3695   -0.9660   -0.9084 C   0  0  0  0  0  0  0  0  0  0  0  0
   -4.3676   -2.2415    2.2426 C   0  0  0  0  0  0  0  0  0  0  0  0
   -2.4490   -3.5400    1.7243 C   0  0  0  0  0  0  0  0  0  0  0  0
   -3.5853    0.4075   -0.8350 C   0  0  0  0  0  0  0  0  0  0  0  0
    4.6546   -2.0153   -0.7880 C   0  0  0  0  0  0  0  0  0  0  0  0
   -0.0037   -3.0968    1.7108 H   0  0  0  0  0  0  0  0  0  0  0  0
    1.1400   -2.0077    2.3146 H   0  0  0  0  0  0  0  0  0  0  0  0
   -0.5653   -2.2976    3.9563 H   0  0  0  0  0  0  0  0  0  0  0  0
   -0.3206   -0.6315    3.5057 H   0  0  0  0  0  0  0  0  0  0  0  0
   -2.6361   -0.9602    3.8763 H   0  0  0  0  0  0  0  0  0  0  0  0
   -2.4148   -0.6681    2.1943 H   0  0  0  0  0  0  0  0  0  0  0  0
    2.2391   -2.6266    0.2176 H   0  0  0  0  0  0  0  0  0  0  0  0
   -1.9437   -2.5375   -0.7926 H   0  0  0  0  0  0  0  0  0  0  0  0
    2.6654    2.2445   -0.6776 H   0  0  0  0  0  0  0  0  0  0  0  0
   -2.6535    2.3114   -0.5320 H   0  0  0  0  0  0  0  0  0  0  0  0
    4.5396    0.7229   -1.1920 H   0  0  0  0  0  0  0  0  0  0  0  0
   -4.1846   -1.6365   -1.1672 H   0  0  0  0  0  0  0  0  0  0  0  0
   -4.3136   -1.5126    1.4312 H   0  0  0  0  0  0  0  0  0  0  0  0
   -4.9386   -3.0986    1.8705 H   0  0  0  0  0  0  0  0  0  0  0  0
   -4.9392   -1.7889    3.0551 H   0  0  0  0  0  0  0  0  0  0  0  0
   -1.9289   -2.9415    1.0187 H   0  0  0  0  0  0  0  0  0  0  0  0
   -1.6929   -4.2155    2.1281 H   0  0  0  0  0  0  0  0  0  0  0  0
   -3.1522   -4.1246    1.1243 H   0  0  0  0  0  0  0  0  0  0  0  0
   -4.5535    0.8180   -1.0924 H   0  0  0  0  0  0  0  0  0  0  0  0
  1 12  1  0  0  0  0
  1 13  1  0  0  0  0
  2 24  1  0  0  0  0
  3 24  1  0  0  0  0
  4 24  1  0  0  0  0
  5  7  1  0  0  0  0
  5  9  1  0  0  0  0
  5 10  1  0  0  0  0
  6 11  1  0  0  0  0
  6 21  1  0  0  0  0
  6 22  1  0  0  0  0
  7  8  1  0  0  0  0
  7 25  1  0  0  0  0
  7 26  1  0  0  0  0
  8 11  1  0  0  0  0
  8 27  1  0  0  0  0
  8 28  1  0  0  0  0
  9 12  2  0  0  0  0
  9 14  1  0  0  0  0
 10 13  1  0  0  0  0
 10 15  2  0  0  0  0
 11 29  1  0  0  0  0
 11 30  1  0  0  0  0
 12 17  1  0  0  0  0
 13 18  2  0  0  0  0
 14 16  2  0  0  0  0
 14 31  1  0  0  0  0
 15 20  1  0  0  0  0
 15 32  1  0  0  0  0
 16 19  1  0  0  0  0
 16 24  1  0  0  0  0
 17 19  2  0  0  0  0
 17 33  1  0  0  0  0
 18 23  1  0  0  0  0
 18 34  1  0  0  0  0
 19 35  1  0  0  0  0
 20 23  2  0  0  0  0
 20 36  1  0  0  0  0
 21 37  1  0  0  0  0
 21 38  1  0  0  0  0
 21 39  1  0  0  0  0
 22 40  1  0  0  0  0
 22 41  1  0  0  0  0
 22 42  1  0  0  0  0
 23 43  1  0  0  0  0
M  END
>  <DRUGBANK_ID>
DB00508

>  <SECONDARY_ACCESSION_NUMBERS>
APRD00465

>  <COMMON_NAME>
Triflupromazine

>  <CAS_NUMBER>
146-54-3

>  <UNII>
RO16TQF95Y

>  <SYNONYMS>
10-(3-(Dimethylamino)propyl)-2-(trifluoromethyl)phenothiazine; 2-(Trifluoromethyl)promazine; 2-Trifluoromethyl-10-(gamma-dimethylaminopropyl)phenothiazine; Fluopromazine; Triflupromazin; Triflupromazina; Triflupromazine; Triflupromazinum

$$$$
