
 OpenBabel10282417133D

 37 39  0  0  0  0  0  0  0  0999 V2000
    1.0112    0.0502   -0.0006 C   0  0  0  0  0  0  0  0  0  0  0  0
    0.2532    7.8608    2.0669 C   0  0  0  0  0  0  0  0  0  0  0  0
    1.9999    4.0508    3.3229 C   0  0  0  0  0  0  0  0  0  0  0  0
    0.4877    1.5451    0.2836 C   0  0  2  0  0  0  0  0  0  0  0  0
    1.8138    6.1723    3.3999 C   0  0  0  0  0  0  0  0  0  0  0  0
    0.8730    2.7027   -0.7170 C   0  0  2  0  0  0  0  0  0  0  0  0
    0.8961    3.9801    0.0809 C   0  0  3  0  0  0  0  0  0  0  0  0
    1.9305    7.5514    3.6376 C   0  0  0  0  0  0  0  0  0  0  0  0
    0.8680    5.7635    2.4910 C   0  0  0  0  0  0  0  0  0  0  0  0
    0.4588    3.5221    1.4497 C   0  0  2  0  0  0  0  0  0  0  0  0
    2.8318    8.0542    4.5382 N   0  0  0  0  0  0  0  0  0  0  0  0
    1.1246    8.3947    2.9498 N   0  0  0  0  0  0  0  0  0  0  0  0
    0.0372    6.5574    1.7694 N   0  0  0  0  0  0  0  0  0  0  0  0
    2.5079    5.0939    3.9255 N   0  0  0  0  0  0  0  0  0  0  0  0
    1.0116    4.3938    2.4485 N   0  0  0  0  0  0  0  0  0  0  0  0
   -0.0099    3.1614   -1.7180 O   0  0  0  0  0  0  0  0  0  0  0  0
    2.1986    4.5566   -0.0406 O   0  0  0  0  0  0  0  0  0  0  0  0
    0.6374   -0.7643   -3.5718 O   0  0  0  0  0  0  0  0  0  0  0  0
    0.5295   -0.5893   -1.2470 O   0  0  0  0  0  0  0  0  0  0  0  0
    0.9374    2.1265    1.5428 O   0  0  0  0  0  0  0  0  0  0  0  0
    1.1062    0.4274   -2.5224 P   0  0  3  0  0  0  0  0  0  0  0  0
   -1.2802    1.0396   -2.5208 S   0  0  0  0  0  0  0  0  0  0  0  0
    1.7387    1.5426   -3.9212 S   0  0  0  0  0  0  0  0  0  0  0  0
   -0.5895    1.4220    0.4184 H   0  0  0  0  0  0  0  0  0  0  0  0
    1.8682    2.5045   -1.1278 H   0  0  0  0  0  0  0  0  0  0  0  0
    0.1891    4.7367   -0.2905 H   0  0  0  0  0  0  0  0  0  0  0  0
   -0.6354    3.5028    1.5589 H   0  0  0  0  0  0  0  0  0  0  0  0
    0.7058   -0.6147    0.8182 H   0  0  0  0  0  0  0  0  0  0  0  0
    2.1104    0.0064   -0.0064 H   0  0  0  0  0  0  0  0  0  0  0  0
   -0.3599    8.5866    1.5293 H   0  0  0  0  0  0  0  0  0  0  0  0
    2.3212    3.0218    3.4412 H   0  0  0  0  0  0  0  0  0  0  0  0
    3.4146    7.3973    5.0429 H   0  0  0  0  0  0  0  0  0  0  0  0
    2.8596    9.0458    4.7075 H   0  0  0  0  0  0  0  0  0  0  0  0
   -0.2907    2.5546   -2.4227 H   0  0  0  0  0  0  0  0  0  0  0  0
    2.8585    3.9546    0.3347 H   0  0  0  0  0  0  0  0  0  0  0  0
    1.2107   -1.4207   -3.9800 H   0  0  0  0  0  0  0  0  0  0  0  0
   -1.3133    1.5779   -1.2839 H   0  0  0  0  0  0  0  0  0  0  0  0
  1 28  1  0  0  0  0
  1 29  1  0  0  0  0
  2 30  1  0  0  0  0
  3 31  1  0  0  0  0
  4  1  1  0  0  0  0
  4 20  1  0  0  0  0
  4 24  1  1  0  0  0
  6  4  1  0  0  0  0
  6  7  1  0  0  0  0
  6 25  1  6  0  0  0
  6 16  1  0  0  0  0
  8  5  2  0  0  0  0
  9  5  1  0  0  0  0
 10  7  1  0  0  0  0
 10 15  1  0  0  0  0
 10 20  1  0  0  0  0
 10 27  1  1  0  0  0
 11  8  1  0  0  0  0
 11 32  1  0  0  0  0
 11 33  1  0  0  0  0
 12  2  2  0  0  0  0
 12  8  1  0  0  0  0
 13  2  1  0  0  0  0
 13  9  2  0  0  0  0
 14  3  2  0  0  0  0
 14  5  1  0  0  0  0
 15  3  1  0  0  0  0
 15  9  1  0  0  0  0
 16 34  1  0  0  0  0
 17  7  1  0  0  0  0
 17 35  1  0  0  0  0
 18 36  1  0  0  0  0
 19  1  1  0  0  0  0
 21 18  1  0  0  0  0
 21 19  1  0  0  0  0
 22 21  1  0  0  0  0
 22 37  1  0  0  0  0
 23 21  2  0  0  0  0
 26  7  1  0  0  0  0
M  END
>  <DRUGBANK_ID>
DB03011

>  <SECONDARY_ACCESSION_NUMBERS>
EXPT00438

>  <COMMON_NAME>
Adenosine-5'-(Dithio)Phosphate

>  <UNII>
9WPM6R7Z7Q

$$$$
