
 OpenBabel10282417193D

 46 47  0  0  1  0  0  0  0  0999 V2000
   -6.2992   -3.0472    8.7244 C   0  0  0  0  0  0  0  0  0  0  0  0
   -5.7600   -3.0848    7.4104 O   0  0  0  0  0  0  0  0  0  0  0  0
   -4.3995   -3.0567    7.3045 C   0  0  0  0  0  0  0  0  0  0  0  0
   -3.4716   -3.1981    8.3358 C   0  0  0  0  0  0  0  0  0  0  0  0
   -2.0973   -3.1963    8.0761 C   0  0  0  0  0  0  0  0  0  0  0  0
   -1.6291   -3.0199    6.7655 C   0  0  0  0  0  0  0  0  0  0  0  0
   -2.5647   -2.7384    5.7657 C   0  0  0  0  0  0  0  0  0  0  0  0
   -3.9201   -2.8469    6.0079 C   0  0  0  0  0  0  0  0  0  0  0  0
   -4.7754   -2.7934    4.9415 O   0  0  0  0  0  0  0  0  0  0  0  0
   -0.1700   -3.2409    6.4110 C   0  0  0  0  0  0  0  0  0  0  0  0
    0.1136   -4.5526    5.6099 C   0  0  2  0  0  0  0  0  0  0  0  0
   -0.6538   -4.6778    4.3026 C   0  0  0  0  0  0  0  0  0  0  0  0
   -0.1803   -4.1479    3.1080 C   0  0  0  0  0  0  0  0  0  0  0  0
   -1.0123   -4.0755    1.9666 C   0  0  0  0  0  0  0  0  0  0  0  0
   -2.3871   -4.4882    2.0030 C   0  0  0  0  0  0  0  0  0  0  0  0
   -2.8550   -5.0379    3.2060 C   0  0  0  0  0  0  0  0  0  0  0  0
   -1.9604   -5.1764    4.2916 C   0  0  0  0  0  0  0  0  0  0  0  0
   -4.0703   -5.4623    3.6725 O   0  0  0  0  0  0  0  0  0  0  0  0
   -5.1717   -5.5189    2.8224 C   0  0  0  0  0  0  0  0  0  0  0  0
   -2.9997   -4.2694    0.8155 O   0  0  0  0  0  0  0  0  0  0  0  0
   -4.3374   -4.3406    0.4129 C   0  0  0  0  0  0  0  0  0  0  0  0
   -0.3279   -3.5340    0.8889 O   0  0  0  0  0  0  0  0  0  0  0  0
   -0.9825   -3.4458   -0.3721 C   0  0  0  0  0  0  0  0  0  0  0  0
   -0.1284   -5.6887    6.4500 O   0  0  0  0  0  0  0  0  0  0  0  0
   -7.2481   -2.5061    8.6777 H   0  0  0  0  0  0  0  0  0  0  0  0
   -5.6754   -2.5114    9.4445 H   0  0  0  0  0  0  0  0  0  0  0  0
   -6.4919   -4.0688    9.0623 H   0  0  0  0  0  0  0  0  0  0  0  0
   -3.7797   -3.3395    9.3695 H   0  0  0  0  0  0  0  0  0  0  0  0
   -1.3996   -3.3470    8.8954 H   0  0  0  0  0  0  0  0  0  0  0  0
   -2.2417   -2.5584    4.7389 H   0  0  0  0  0  0  0  0  0  0  0  0
   -5.6366   -3.0952    5.2814 H   0  0  0  0  0  0  0  0  0  0  0  0
    0.1835   -2.3670    5.8507 H   0  0  0  0  0  0  0  0  0  0  0  0
    0.4121   -3.2764    7.3422 H   0  0  0  0  0  0  0  0  0  0  0  0
    1.1866   -4.5886    5.3876 H   0  0  0  0  0  0  0  0  0  0  0  0
    0.8330   -3.7527    3.0494 H   0  0  0  0  0  0  0  0  0  0  0  0
   -2.3888   -5.5559    5.2197 H   0  0  0  0  0  0  0  0  0  0  0  0
   -5.4403   -4.5114    2.5170 H   0  0  0  0  0  0  0  0  0  0  0  0
   -4.9466   -6.2450    2.0451 H   0  0  0  0  0  0  0  0  0  0  0  0
   -6.0579   -5.8954    3.3353 H   0  0  0  0  0  0  0  0  0  0  0  0
   -4.6974   -5.3642    0.4391 H   0  0  0  0  0  0  0  0  0  0  0  0
   -4.9462   -3.6000    0.9330 H   0  0  0  0  0  0  0  0  0  0  0  0
   -4.4073   -4.0789   -0.6469 H   0  0  0  0  0  0  0  0  0  0  0  0
   -1.3276   -4.4295   -0.7124 H   0  0  0  0  0  0  0  0  0  0  0  0
   -1.7897   -2.7047   -0.3360 H   0  0  0  0  0  0  0  0  0  0  0  0
   -0.2712   -3.0930   -1.1224 H   0  0  0  0  0  0  0  0  0  0  0  0
   -1.0536   -5.6313    6.7451 H   0  0  0  0  0  0  0  0  0  0  0  0
  1  2  1  0  0  0  0
  1 25  1  0  0  0  0
  1 26  1  0  0  0  0
  1 27  1  0  0  0  0
  2  3  1  0  0  0  0
  3  4  2  0  0  0  0
  3  8  1  0  0  0  0
  4  5  1  0  0  0  0
  4 28  1  0  0  0  0
  5  6  2  0  0  0  0
  5 29  1  0  0  0  0
  6  7  1  0  0  0  0
  6 10  1  0  0  0  0
  7  8  2  0  0  0  0
  7 30  1  0  0  0  0
  8  9  1  0  0  0  0
  9 31  1  0  0  0  0
 10 32  1  0  0  0  0
 10 33  1  0  0  0  0
 11 24  1  0  0  0  0
 11 34  1  6  0  0  0
 11 12  1  0  0  0  0
 11 10  1  0  0  0  0
 12 13  2  0  0  0  0
 12 17  1  0  0  0  0
 13 14  1  0  0  0  0
 13 35  1  0  0  0  0
 14 15  2  0  0  0  0
 14 22  1  0  0  0  0
 15 16  1  0  0  0  0
 15 20  1  0  0  0  0
 16 17  2  0  0  0  0
 16 18  1  0  0  0  0
 17 36  1  0  0  0  0
 18 19  1  0  0  0  0
 19 37  1  0  0  0  0
 19 38  1  0  0  0  0
 19 39  1  0  0  0  0
 20 21  1  0  0  0  0
 21 40  1  0  0  0  0
 21 41  1  0  0  0  0
 21 42  1  0  0  0  0
 22 23  1  0  0  0  0
 23 43  1  0  0  0  0
 23 44  1  0  0  0  0
 23 45  1  0  0  0  0
 24 46  1  0  0  0  0
M  END
>  <DRUGBANK_ID>
DB12596

>  <COMMON_NAME>
Combretastatin

>  <CAS_NUMBER>
82855-09-2

>  <UNII>
7O62J06F18

$$$$
