BI9
 OpenBabel10282417163D

 58 61  0  0  0  0  0  0  0  0999 V2000
   -0.7516    1.2696    0.2183 C   0  0  0  0  0  0  0  0  0  0  0  0
    0.6972    1.1703   -0.2771 C   0  0  0  0  0  0  0  0  0  0  0  0
    1.3400   -0.0270    0.1955 O   0  0  0  0  0  0  0  0  0  0  0  0
    0.6275   -1.1877   -0.2700 C   0  0  0  0  0  0  0  0  0  0  0  0
   -0.8244   -1.2042    0.2434 C   0  0  0  0  0  0  0  0  0  0  0  0
   -1.4916    0.0544   -0.1167 N   0  0  0  0  0  0  0  0  0  0  0  0
   -2.5987    0.0485   -0.9315 C   0  0  0  0  0  0  0  0  0  0  0  0
   -2.6166    0.6532   -2.1953 C   0  0  0  0  0  0  0  0  0  0  0  0
   -3.7446    0.5910   -3.0433 C   0  0  0  0  0  0  0  0  0  0  0  0
   -3.7770    1.1202   -4.3162 O   0  0  0  0  0  0  0  0  0  0  0  0
   -2.5606    1.7050   -4.7813 C   0  0  0  0  0  0  0  0  0  0  0  0
   -3.7514   -0.6085   -0.5181 C   0  0  0  0  0  0  0  0  0  0  0  0
   -4.8627   -0.6986   -1.3492 C   0  0  0  0  0  0  0  0  0  0  0  0
   -4.9057   -0.0727   -2.6045 C   0  0  0  0  0  0  0  0  0  0  0  0
   -6.1024   -0.0875   -3.3501 N   0  0  0  0  0  0  0  0  0  0  0  0
   -7.3003   -0.6661   -2.9396 C   0  0  0  0  0  0  0  0  0  0  0  0
   -7.7490   -1.7542   -3.5829 N   0  0  0  0  0  0  0  0  0  0  0  0
   -7.8557   -0.2109   -1.8034 N   0  0  0  0  0  0  0  0  0  0  0  0
   -8.8656   -0.9198   -1.2746 C   0  0  0  0  0  0  0  0  0  0  0  0
   -9.3360   -2.0918   -1.8172 C   0  0  0  0  0  0  0  0  0  0  0  0
  -10.7079   -2.8411   -1.0956 Cl  0  0  0  0  0  0  0  0  0  0  0  0
   -8.7444   -2.4894   -3.0201 C   0  0  0  0  0  0  0  0  0  0  0  0
   -9.2748   -3.5989   -3.7731 N   0  0  0  0  0  0  0  0  0  0  0  0
   -9.0051   -3.7901   -5.1705 C   0  0  0  0  0  0  0  0  0  0  0  0
   -7.7036   -4.3099   -5.3820 C   0  0  0  0  0  0  0  0  0  0  0  0
   -7.2330   -4.6612   -6.6365 C   0  0  0  0  0  0  0  0  0  0  0  0
   -8.0613   -4.5016   -7.7310 C   0  0  0  0  0  0  0  0  0  0  0  0
   -9.3338   -3.9343   -7.5675 C   0  0  0  0  0  0  0  0  0  0  0  0
   -9.8293   -3.4838   -6.3088 C   0  0  0  0  0  0  0  0  0  0  0  0
  -11.1419   -2.6665   -6.4821 C   0  0  0  0  0  0  0  0  0  0  0  0
  -11.6531   -2.5551   -7.6174 O   0  0  0  0  0  0  0  0  0  0  0  0
  -11.8069   -1.9633   -5.5020 N   0  0  0  0  0  0  0  0  0  0  0  0
  -11.2976   -1.7114   -4.2193 C   0  0  0  0  0  0  0  0  0  0  0  0
   -0.7447    1.3443    1.3129 H   0  0  0  0  0  0  0  0  0  0  0  0
   -1.2337    2.1738   -0.1674 H   0  0  0  0  0  0  0  0  0  0  0  0
    0.7422    1.1852   -1.3719 H   0  0  0  0  0  0  0  0  0  0  0  0
    1.2731    2.0230    0.0954 H   0  0  0  0  0  0  0  0  0  0  0  0
    1.1636   -2.0711    0.0916 H   0  0  0  0  0  0  0  0  0  0  0  0
    0.6608   -1.2027   -1.3661 H   0  0  0  0  0  0  0  0  0  0  0  0
   -0.8175   -1.2787    1.3368 H   0  0  0  0  0  0  0  0  0  0  0  0
   -1.3423   -2.0859   -0.1521 H   0  0  0  0  0  0  0  0  0  0  0  0
   -1.7092    1.1497   -2.5167 H   0  0  0  0  0  0  0  0  0  0  0  0
   -2.3018    2.5849   -4.1822 H   0  0  0  0  0  0  0  0  0  0  0  0
   -1.7392    0.9779   -4.7854 H   0  0  0  0  0  0  0  0  0  0  0  0
   -2.7052    2.0383   -5.8131 H   0  0  0  0  0  0  0  0  0  0  0  0
   -3.8129   -1.0323    0.4800 H   0  0  0  0  0  0  0  0  0  0  0  0
   -5.7068   -1.2799   -0.9915 H   0  0  0  0  0  0  0  0  0  0  0  0
   -6.0624    0.2283   -4.3061 H   0  0  0  0  0  0  0  0  0  0  0  0
   -9.2968   -0.4881   -0.3754 H   0  0  0  0  0  0  0  0  0  0  0  0
  -10.2375   -3.8205   -3.5454 H   0  0  0  0  0  0  0  0  0  0  0  0
   -7.0471   -4.4360   -4.5216 H   0  0  0  0  0  0  0  0  0  0  0  0
   -6.2330   -5.0717   -6.7370 H   0  0  0  0  0  0  0  0  0  0  0  0
   -7.7079   -4.7901   -8.7182 H   0  0  0  0  0  0  0  0  0  0  0  0
   -9.9411   -3.8309   -8.4702 H   0  0  0  0  0  0  0  0  0  0  0  0
  -12.6065   -1.4166   -5.7963 H   0  0  0  0  0  0  0  0  0  0  0  0
  -11.3849   -0.7052   -3.8193 H   0  0  0  0  0  0  0  0  0  0  0  0
  -11.7292   -2.4617   -3.5552 H   0  0  0  0  0  0  0  0  0  0  0  0
  -10.2538   -1.7801   -4.4129 H   0  0  0  0  0  0  0  0  0  0  0  0
  1  2  1  0  0  0  0
  1  6  1  0  0  0  0
  1 34  1  0  0  0  0
  1 35  1  0  0  0  0
  2  3  1  0  0  0  0
  2 36  1  0  0  0  0
  2 37  1  0  0  0  0
  3  4  1  0  0  0  0
  4  5  1  0  0  0  0
  4 38  1  0  0  0  0
  4 39  1  0  0  0  0
  5  6  1  0  0  0  0
  5 40  1  0  0  0  0
  5 41  1  0  0  0  0
  6  7  1  0  0  0  0
  7  8  1  0  0  0  0
  7 12  2  0  0  0  0
  8  9  2  0  0  0  0
  8 42  1  0  0  0  0
  9 10  1  0  0  0  0
  9 14  1  0  0  0  0
 10 11  1  0  0  0  0
 11 43  1  0  0  0  0
 11 44  1  0  0  0  0
 11 45  1  0  0  0  0
 12 13  1  0  0  0  0
 12 46  1  0  0  0  0
 13 14  2  0  0  0  0
 13 47  1  0  0  0  0
 14 15  1  0  0  0  0
 15 16  1  0  0  0  0
 15 48  1  0  0  0  0
 16 17  1  0  0  0  0
 16 18  2  0  0  0  0
 17 22  2  0  0  0  0
 18 19  1  0  0  0  0
 19 20  2  0  0  0  0
 19 49  1  0  0  0  0
 20 21  1  0  0  0  0
 20 22  1  0  0  0  0
 22 23  1  0  0  0  0
 23 24  1  0  0  0  0
 23 50  1  0  0  0  0
 24 25  1  0  0  0  0
 24 29  2  0  0  0  0
 25 26  2  0  0  0  0
 25 51  1  0  0  0  0
 26 27  1  0  0  0  0
 26 52  1  0  0  0  0
 27 28  2  0  0  0  0
 27 53  1  0  0  0  0
 28 29  1  0  0  0  0
 28 54  1  0  0  0  0
 29 30  1  0  0  0  0
 30 31  2  0  0  0  0
 30 32  1  0  0  0  0
 32 33  1  0  0  0  0
 32 55  1  0  0  0  0
 33 56  1  0  0  0  0
 33 57  1  0  0  0  0
 33 58  1  0  0  0  0
M  END
>  <DRUGBANK_ID>
DB07460

>  <COMMON_NAME>
2-({5-CHLORO-2-[(2-METHOXY-4-MORPHOLIN-4-YLPHENYL)AMINO]PYRIMIDIN-4-YL}AMINO)-N-METHYLBENZAMIDE

$$$$
