
 OpenBabel10282417133D

 87 91  0  0  1  0  0  0  0  0999 V2000
    0.9530    0.1103   -0.2353 C   0  0  0  0  0  0  0  0  0  0  0  0
   -7.0734    1.4923    3.2917 C   0  0  0  0  0  0  0  0  0  0  0  0
   -3.8311   -3.6171   -0.2141 C   0  0  0  0  0  0  0  0  0  0  0  0
   -5.8520    0.9227    3.4976 C   0  0  0  0  0  0  0  0  0  0  0  0
   -8.2097    0.6812    3.3667 C   0  0  0  0  0  0  0  0  0  0  0  0
   -3.4516   -4.2709    0.9237 C   0  0  0  0  0  0  0  0  0  0  0  0
   -3.0591   -2.5506   -0.6781 C   0  0  0  0  0  0  0  0  0  0  0  0
   -5.8218   -0.4415    3.7431 C   0  0  0  0  0  0  0  0  0  0  0  0
   -8.1412   -0.6724    3.7434 C   0  0  0  0  0  0  0  0  0  0  0  0
   -2.1795   -4.0028    1.4126 C   0  0  0  0  0  0  0  0  0  0  0  0
   -1.9799   -2.0663    0.0559 C   0  0  0  0  0  0  0  0  0  0  0  0
   -1.4511   -2.7591    7.7354 C   0  0  0  0  0  0  0  0  0  0  0  0
   -3.0537   -4.4691    8.0451 C   0  0  0  0  0  0  0  0  0  0  0  0
   -0.4713   -3.7024    7.3409 C   0  0  0  0  0  0  0  0  0  0  0  0
   -2.0508   -5.4404    7.6936 C   0  0  0  0  0  0  0  0  0  0  0  0
   -0.0978    1.6750    4.7661 C   0  0  0  0  0  0  0  0  0  0  0  0
    1.3124   -0.1250    4.1008 C   0  0  0  0  0  0  0  0  0  0  0  0
    0.1101    2.2706    3.5254 C   0  0  0  0  0  0  0  0  0  0  0  0
    1.1904    0.2753    2.7968 C   0  0  0  0  0  0  0  0  0  0  0  0
   -3.8860   -2.0951    7.3043 C   0  0  0  0  0  0  0  0  0  0  0  0
   -0.2957   -0.5357    5.9272 C   0  0  0  0  0  0  0  0  0  0  0  0
    0.2497   -6.0286    6.7314 C   0  0  0  0  0  0  0  0  0  0  0  0
   -6.0093   -3.1810    5.1625 C   0  0  0  0  0  0  0  0  0  0  0  0
   -0.3402   -2.4873    3.2650 C   0  0  0  0  0  0  0  0  0  0  0  0
   -2.7986   -3.0931    7.8575 C   0  0  0  0  0  0  0  0  0  0  0  0
    0.3823    0.3910    4.9754 C   0  0  0  0  0  0  0  0  0  0  0  0
   -0.7799   -5.0518    7.2380 C   0  0  0  0  0  0  0  0  0  0  0  0
    0.6732    1.5215    2.4812 C   0  0  0  0  0  0  0  0  0  0  0  0
   -6.9217   -1.2653    3.9526 C   0  0  0  0  0  0  0  0  0  0  0  0
   -1.5433   -2.7731    1.1541 C   0  0  0  0  0  0  0  0  0  0  0  0
   -4.5769   -2.8056    4.8770 C   0  0  2  0  0  0  0  0  0  0  0  0
   -1.2221   -2.5936    4.5219 C   0  0  2  0  0  0  0  0  0  0  0  0
   -3.6383   -3.9099    4.5476 C   0  0  1  0  0  0  0  0  0  0  0  0
   -2.4448   -3.2496    3.9655 C   0  0  1  0  0  0  0  0  0  0  0  0
    1.0188    2.1019    1.1313 C   0  0  1  0  0  0  0  0  0  0  0  0
   -3.9375   -1.7673    5.8012 N   0  0  0  0  0  0  0  0  0  0  0  0
   -1.4306   -1.3339    5.3566 N   0  0  0  0  0  0  0  0  0  0  0  0
    0.7018   -6.7168    7.8833 O   0  0  0  0  0  0  0  0  0  0  0  0
   -3.1818   -4.5990    5.6170 O   0  0  0  0  0  0  0  0  0  0  0  0
   -2.9195   -2.2582    3.1033 O   0  0  0  0  0  0  0  0  0  0  0  0
    2.4423    2.1921    1.0714 O   0  0  0  0  0  0  0  0  0  0  0  0
   -2.9063    0.5278    6.2910 O   0  0  0  0  0  0  0  0  0  0  0  0
   -2.9536   -0.0378    3.8943 O   0  0  0  0  0  0  0  0  0  0  0  0
    0.5280    1.4485   -0.0394 O   0  0  0  0  0  0  0  0  0  0  0  0
   -6.9198   -2.6204    4.1728 O   0  0  0  0  0  0  0  0  0  0  0  0
   -0.7614   -2.0153    1.9963 O   0  0  0  0  0  0  0  0  0  0  0  0
   -2.8673   -0.4965    5.2334 S   0  0  0  0  0  0  0  0  0  0  0  0
   -4.7445   -2.4779    3.8689 H   0  0  0  0  0  0  0  0  0  0  0  0
   -0.6560   -3.3031    5.1132 H   0  0  0  0  0  0  0  0  0  0  0  0
   -4.0658   -4.6696    3.8848 H   0  0  0  0  0  0  0  0  0  0  0  0
   -1.8958   -4.1482    3.6882 H   0  0  0  0  0  0  0  0  0  0  0  0
    0.6366    3.1260    1.0971 H   0  0  0  0  0  0  0  0  0  0  0  0
    0.7030   -0.2313   -1.2409 H   0  0  0  0  0  0  0  0  0  0  0  0
    0.3987   -0.5372    0.4353 H   0  0  0  0  0  0  0  0  0  0  0  0
    2.0292   -0.0248   -0.0816 H   0  0  0  0  0  0  0  0  0  0  0  0
   -7.1191    2.5442    3.0405 H   0  0  0  0  0  0  0  0  0  0  0  0
   -4.6987   -3.9828   -0.7455 H   0  0  0  0  0  0  0  0  0  0  0  0
   -4.9158    1.4747    3.4080 H   0  0  0  0  0  0  0  0  0  0  0  0
   -9.1694    1.1073    3.1120 H   0  0  0  0  0  0  0  0  0  0  0  0
   -4.1077   -4.9710    1.4428 H   0  0  0  0  0  0  0  0  0  0  0  0
   -3.3255   -2.0482   -1.5951 H   0  0  0  0  0  0  0  0  0  0  0  0
   -4.8352   -0.8114    3.6595 H   0  0  0  0  0  0  0  0  0  0  0  0
   -9.0362   -1.2719    3.8499 H   0  0  0  0  0  0  0  0  0  0  0  0
   -1.9118   -4.7128    2.1681 H   0  0  0  0  0  0  0  0  0  0  0  0
   -1.5086   -1.1260   -0.2041 H   0  0  0  0  0  0  0  0  0  0  0  0
   -1.2125   -1.7104    7.7122 H   0  0  0  0  0  0  0  0  0  0  0  0
   -4.0845   -4.8230    8.0849 H   0  0  0  0  0  0  0  0  0  0  0  0
    0.4753   -3.3556    6.9131 H   0  0  0  0  0  0  0  0  0  0  0  0
   -2.3648   -6.4722    7.5112 H   0  0  0  0  0  0  0  0  0  0  0  0
   -0.6532    2.1770    5.5544 H   0  0  0  0  0  0  0  0  0  0  0  0
    1.8065   -1.0829    4.2635 H   0  0  0  0  0  0  0  0  0  0  0  0
   -0.1987    3.3004    3.3856 H   0  0  0  0  0  0  0  0  0  0  0  0
    1.5038   -0.4441    2.0510 H   0  0  0  0  0  0  0  0  0  0  0  0
   -3.8123   -1.1410    7.8344 H   0  0  0  0  0  0  0  0  0  0  0  0
   -4.8679   -2.4961    7.5603 H   0  0  0  0  0  0  0  0  0  0  0  0
    0.4447   -1.1983    6.3762 H   0  0  0  0  0  0  0  0  0  0  0  0
   -0.6742    0.0630    6.7675 H   0  0  0  0  0  0  0  0  0  0  0  0
   -0.1129   -6.7353    5.9723 H   0  0  0  0  0  0  0  0  0  0  0  0
    1.1248   -5.5256    6.2946 H   0  0  0  0  0  0  0  0  0  0  0  0
   -6.1047   -4.2735    5.0672 H   0  0  0  0  0  0  0  0  0  0  0  0
   -6.3520   -2.9005    6.1527 H   0  0  0  0  0  0  0  0  0  0  0  0
    0.2523   -1.7414    3.6572 H   0  0  0  0  0  0  0  0  0  0  0  0
    0.3932   -3.2759    3.1063 H   0  0  0  0  0  0  0  0  0  0  0  0
    0.7004   -6.0476    8.5934 H   0  0  0  0  0  0  0  0  0  0  0  0
   -2.6482   -3.8779    6.0054 H   0  0  0  0  0  0  0  0  0  0  0  0
   -3.5960   -2.4620    2.4469 H   0  0  0  0  0  0  0  0  0  0  0  0
    2.7734    1.3402    1.3994 H   0  0  0  0  0  0  0  0  0  0  0  0
  1 53  1  0  0  0  0
  1 54  1  0  0  0  0
  1 55  1  0  0  0  0
  2 56  1  0  0  0  0
  3 57  1  0  0  0  0
  4  2  2  0  0  0  0
  4 58  1  0  0  0  0
  5  2  1  0  0  0  0
  5 59  1  0  0  0  0
  6  3  2  0  0  0  0
  6 60  1  0  0  0  0
  7  3  1  0  0  0  0
  7 61  1  0  0  0  0
  8  4  1  0  0  0  0
  8 62  1  0  0  0  0
  9  5  2  0  0  0  0
  9 63  1  0  0  0  0
 10  6  1  0  0  0  0
 10 64  1  0  0  0  0
 11  7  2  0  0  0  0
 11 65  1  0  0  0  0
 12 66  1  0  0  0  0
 13 67  1  0  0  0  0
 14 12  1  0  0  0  0
 14 68  1  0  0  0  0
 15 13  2  0  0  0  0
 15 69  1  0  0  0  0
 16 70  1  0  0  0  0
 17 71  1  0  0  0  0
 18 16  1  0  0  0  0
 18 72  1  0  0  0  0
 19 17  2  0  0  0  0
 19 73  1  0  0  0  0
 20 74  1  0  0  0  0
 20 75  1  0  0  0  0
 21 76  1  0  0  0  0
 21 77  1  0  0  0  0
 22 78  1  0  0  0  0
 22 79  1  0  0  0  0
 23 80  1  0  0  0  0
 23 81  1  0  0  0  0
 24 82  1  0  0  0  0
 24 83  1  0  0  0  0
 25 12  2  0  0  0  0
 25 13  1  0  0  0  0
 25 20  1  0  0  0  0
 26 16  2  0  0  0  0
 26 17  1  0  0  0  0
 26 21  1  0  0  0  0
 27 14  2  0  0  0  0
 27 15  1  0  0  0  0
 27 22  1  0  0  0  0
 28 18  2  0  0  0  0
 28 19  1  0  0  0  0
 29  8  2  0  0  0  0
 29  9  1  0  0  0  0
 30 10  2  0  0  0  0
 30 11  1  0  0  0  0
 31 48  1  6  0  0  0
 31 23  1  0  0  0  0
 32 49  1  1  0  0  0
 32 24  1  0  0  0  0
 33 31  1  0  0  0  0
 33 39  1  0  0  0  0
 33 50  1  6  0  0  0
 34 32  1  0  0  0  0
 34 33  1  0  0  0  0
 34 51  1  6  0  0  0
 34 40  1  0  0  0  0
 35 28  1  0  0  0  0
 35 41  1  0  0  0  0
 35 52  1  6  0  0  0
 36 20  1  0  0  0  0
 36 31  1  0  0  0  0
 37 21  1  0  0  0  0
 37 32  1  0  0  0  0
 38 22  1  0  0  0  0
 38 84  1  0  0  0  0
 39 85  1  0  0  0  0
 40 86  1  0  0  0  0
 41 87  1  0  0  0  0
 44  1  1  0  0  0  0
 44 35  1  0  0  0  0
 45 23  1  0  0  0  0
 45 29  1  0  0  0  0
 46 24  1  0  0  0  0
 46 30  1  0  0  0  0
 47 36  1  0  0  0  0
 47 37  1  0  0  0  0
 47 42  2  0  0  0  0
 47 43  2  0  0  0  0
M  END
>  <DRUGBANK_ID>
DB04042

>  <SECONDARY_ACCESSION_NUMBERS>
EXPT00465

>  <COMMON_NAME>
2-[4-(Hydroxy-Methoxy-Methyl)-Benzyl]-7-(4-Hydroxymethyl-Benzyl)-1,1-Dioxo-3,6-Bis-Phenoxymethyl-1lambda6-[1,2,7]Thiadiazepane-4,5-Diol

$$$$
