
 OpenBabel10282417213D

 56 58  0  0  0  0  0  0  0  0999 V2000
    1.9398    7.4407   -2.0903 N   0  0  0  0  0  0  0  0  0  0  0  0
    1.8201    6.2410   -1.3928 C   0  0  0  0  0  0  0  0  0  0  0  0
    0.7489    7.9077   -2.8509 C   0  0  1  0  0  0  0  0  0  0  0  0
    3.0855    8.3441   -1.9860 C   0  0  0  0  0  0  0  0  0  0  0  0
    1.0599    9.1039   -3.7799 C   0  0  0  0  0  0  0  0  0  0  0  0
    2.6681    5.5311    0.7904 N   0  0  0  0  0  0  0  0  0  0  0  0
    0.1774    6.8019   -3.7396 C   0  0  0  0  0  0  0  0  0  0  0  0
    3.0437    5.6934   -0.6273 C   0  0  1  0  0  0  0  0  0  0  0  0
    3.6409    3.5162    1.8219 C   0  0  0  0  0  0  0  0  0  0  0  0
    2.7150    9.8016   -2.0720 C   0  0  0  0  0  0  0  0  0  0  0  0
    1.7443   10.1945   -3.0032 C   0  0  0  0  0  0  0  0  0  0  0  0
    3.8004    5.0197    1.5791 C   0  0  2  0  0  0  0  0  0  0  0  0
    0.7671    5.5964   -1.4110 O   0  0  0  0  0  0  0  0  0  0  0  0
   -0.9928    6.4382   -3.7826 O   0  0  0  0  0  0  0  0  0  0  0  0
    4.4199    2.6427    1.4559 O   0  0  0  0  0  0  0  0  0  0  0  0
    3.9183    5.7621    2.9084 C   0  0  0  0  0  0  0  0  0  0  0  0
    1.0872    6.2700   -4.5870 O   0  0  0  0  0  0  0  0  0  0  0  0
    2.5434    3.1983    2.5374 O   0  0  0  0  0  0  0  0  0  0  0  0
    5.1749    5.3125    3.6573 C   0  0  0  0  0  0  0  0  0  0  0  0
    6.4357    5.6035    2.8793 C   0  0  0  0  0  0  0  0  0  0  0  0
    3.4940    4.3821   -1.2697 C   0  0  0  0  0  0  0  0  0  0  0  0
    1.4524   11.5480   -3.1808 C   0  0  0  0  0  0  0  0  0  0  0  0
    3.3471   10.7665   -1.2793 C   0  0  0  0  0  0  0  0  0  0  0  0
    6.7773    6.9283    2.5766 C   0  0  0  0  0  0  0  0  0  0  0  0
    7.2671    4.5657    2.4388 C   0  0  0  0  0  0  0  0  0  0  0  0
    3.0240   12.1141   -1.4304 C   0  0  0  0  0  0  0  0  0  0  0  0
    2.0910   12.5048   -2.3907 C   0  0  0  0  0  0  0  0  0  0  0  0
    8.4717    4.8592    1.8004 C   0  0  0  0  0  0  0  0  0  0  0  0
    7.9513    7.2154    1.8864 C   0  0  0  0  0  0  0  0  0  0  0  0
    8.8049    6.1815    1.5101 C   0  0  0  0  0  0  0  0  0  0  0  0
   -0.0101    8.1967   -2.1113 H   0  0  0  0  0  0  0  0  0  0  0  0
    3.6165    8.1964   -1.0459 H   0  0  0  0  0  0  0  0  0  0  0  0
    3.7614    8.0909   -2.8112 H   0  0  0  0  0  0  0  0  0  0  0  0
    1.7290    8.8009   -4.5974 H   0  0  0  0  0  0  0  0  0  0  0  0
    0.1368    9.4733   -4.2410 H   0  0  0  0  0  0  0  0  0  0  0  0
    2.3245    6.4140    1.1641 H   0  0  0  0  0  0  0  0  0  0  0  0
    3.8889    6.3766   -0.6801 H   0  0  0  0  0  0  0  0  0  0  0  0
    4.7303    5.1789    1.0220 H   0  0  0  0  0  0  0  0  0  0  0  0
    3.9585    6.8436    2.7226 H   0  0  0  0  0  0  0  0  0  0  0  0
    3.0359    5.5865    3.5345 H   0  0  0  0  0  0  0  0  0  0  0  0
    0.5949    5.5507   -5.0346 H   0  0  0  0  0  0  0  0  0  0  0  0
    2.5275    2.2213    2.5581 H   0  0  0  0  0  0  0  0  0  0  0  0
    5.2344    5.8327    4.6190 H   0  0  0  0  0  0  0  0  0  0  0  0
    5.1115    4.2433    3.8943 H   0  0  0  0  0  0  0  0  0  0  0  0
    3.7344    4.5320   -2.3253 H   0  0  0  0  0  0  0  0  0  0  0  0
    4.4043    3.9969   -0.7991 H   0  0  0  0  0  0  0  0  0  0  0  0
    2.7204    3.6118   -1.1932 H   0  0  0  0  0  0  0  0  0  0  0  0
    0.7200   11.8654   -3.9187 H   0  0  0  0  0  0  0  0  0  0  0  0
    4.0861   10.4772   -0.5358 H   0  0  0  0  0  0  0  0  0  0  0  0
    6.1243    7.7441    2.8765 H   0  0  0  0  0  0  0  0  0  0  0  0
    6.9838    3.5236    2.5820 H   0  0  0  0  0  0  0  0  0  0  0  0
    3.5029   12.8614   -0.8026 H   0  0  0  0  0  0  0  0  0  0  0  0
    1.8540   13.5583   -2.5166 H   0  0  0  0  0  0  0  0  0  0  0  0
    9.1557    4.0558    1.5391 H   0  0  0  0  0  0  0  0  0  0  0  0
    8.2087    8.2472    1.6658 H   0  0  0  0  0  0  0  0  0  0  0  0
    9.7310    6.4055    0.9887 H   0  0  0  0  0  0  0  0  0  0  0  0
  2  1  1  0  0  0  0
  3  1  1  0  0  0  0
  3  7  1  0  0  0  0
  3 31  1  1  0  0  0
  4  1  1  0  0  0  0
  4 32  1  0  0  0  0
  4 33  1  0  0  0  0
  5  3  1  0  0  0  0
  5 11  1  0  0  0  0
  5 34  1  0  0  0  0
  5 35  1  0  0  0  0
  6  8  1  0  0  0  0
  6 36  1  0  0  0  0
  8  2  1  0  0  0  0
  8 21  1  0  0  0  0
  8 37  1  6  0  0  0
 10  4  1  0  0  0  0
 11 10  2  0  0  0  0
 12 38  1  6  0  0  0
 12  6  1  0  0  0  0
 12  9  1  0  0  0  0
 13  2  2  0  0  0  0
 14  7  2  0  0  0  0
 15  9  2  0  0  0  0
 16 12  1  0  0  0  0
 16 39  1  0  0  0  0
 16 40  1  0  0  0  0
 17  7  1  0  0  0  0
 17 41  1  0  0  0  0
 18  9  1  0  0  0  0
 18 42  1  0  0  0  0
 19 16  1  0  0  0  0
 19 43  1  0  0  0  0
 19 44  1  0  0  0  0
 20 19  1  0  0  0  0
 21 45  1  0  0  0  0
 21 46  1  0  0  0  0
 21 47  1  0  0  0  0
 22 11  1  0  0  0  0
 22 48  1  0  0  0  0
 23 10  1  0  0  0  0
 23 49  1  0  0  0  0
 24 20  2  0  0  0  0
 24 50  1  0  0  0  0
 25 20  1  0  0  0  0
 25 51  1  0  0  0  0
 26 23  2  0  0  0  0
 26 52  1  0  0  0  0
 27 22  2  0  0  0  0
 27 26  1  0  0  0  0
 27 53  1  0  0  0  0
 28 25  2  0  0  0  0
 28 54  1  0  0  0  0
 29 24  1  0  0  0  0
 29 30  2  0  0  0  0
 29 55  1  0  0  0  0
 30 28  1  0  0  0  0
 30 56  1  0  0  0  0
M  END
>  <DRUGBANK_ID>
DB14217

>  <COMMON_NAME>
Quinaprilat

>  <CAS_NUMBER>
82768-85-2

>  <UNII>
34SSX5LDE5

>  <SYNONYMS>
Quinaprilat

$$$$
