
 OpenBabel10282417233D

 42 44  0  0  0  0  0  0  0  0999 V2000
    1.2163    0.9589    0.0506 N   0  0  0  0  0  0  0  0  0  0  0  0
    0.0204    0.4627    0.0326 C   0  0  0  0  0  0  0  0  0  0  0  0
    0.8881    2.7442    0.0936 C   0  0  2  0  0  0  0  0  0  0  0  0
    2.2148   -0.0385   -0.0073 C   0  0  0  0  0  0  0  0  0  0  0  0
    0.2363   -0.8559    0.0049 C   0  0  0  0  0  0  0  0  0  0  0  0
   -1.0416    1.2443    0.0559 N   0  0  0  0  0  0  0  0  0  0  0  0
    1.1785    3.4325    1.3675 O   0  0  0  0  0  0  0  0  0  0  0  0
    1.1013    3.9162   -1.9917 C   0  0  1  0  0  0  0  0  0  0  0  0
    1.5893   -1.1949   -0.0214 N   0  0  0  0  0  0  0  0  0  0  0  0
   -0.9633   -1.5138    0.0059 C   0  0  0  0  0  0  0  0  0  0  0  0
   -2.1257    0.5490    0.0123 C   0  0  0  0  0  0  0  0  0  0  0  0
    1.4625    4.7782    0.8879 C   0  0  1  0  0  0  0  0  0  0  0  0
    2.3089    5.1108   -0.9845 C   0  0  1  0  0  0  0  0  0  0  0  0
    2.5248    3.2515   -2.9751 O   0  0  0  0  0  0  0  0  0  0  0  0
   -2.1385   -0.7935   -0.0036 N   0  0  0  0  0  0  0  0  0  0  0  0
   -0.9710   -2.8756   -0.0084 N   0  0  0  0  0  0  0  0  0  0  0  0
   -0.2612    4.9135    1.0538 C   0  0  0  0  0  0  0  0  0  0  0  0
    3.4049    5.7602   -1.2302 O   0  0  0  0  0  0  0  0  0  0  0  0
   -0.9835    3.8503    0.2758 O   0  0  0  0  0  0  0  0  0  0  0  0
   -0.6821    3.9582   -1.4243 P   0  0  3  0  0  0  0  0  0  0  0  0
    0.3972    2.6102   -1.3184 O   0  0  0  0  0  0  0  0  0  0  0  0
   -2.1312    3.6261   -1.7521 O   0  0  0  0  0  0  0  0  0  0  0  0
   -0.3806    4.0660   -3.1244 O   0  0  0  0  0  0  0  0  0  0  0  0
    1.9996    3.1783   -0.9982 P   0  0  0  0  0  0  0  0  0  0  0  0
    0.7338    5.0789   -0.7208 O   0  0  0  0  0  0  0  0  0  0  0  0
    2.8098    2.7423    0.6348 O   0  0  0  0  0  0  0  0  0  0  0  0
    3.6020    3.7464   -0.6780 O   0  0  0  0  0  0  0  0  0  0  0  0
    2.0961    1.7555   -0.3222 H   0  0  0  0  0  0  0  0  0  0  0  0
    3.3192    0.0852    0.0080 H   0  0  0  0  0  0  0  0  0  0  0  0
    0.9683    3.0786   -2.8697 H   0  0  0  0  0  0  0  0  0  0  0  0
   -3.0354    1.1307   -0.0094 H   0  0  0  0  0  0  0  0  0  0  0  0
    1.9219    5.4903    1.5218 H   0  0  0  0  0  0  0  0  0  0  0  0
    1.4978    5.0785   -2.1902 H   0  0  0  0  0  0  0  0  0  0  0  0
    3.3701    3.1617   -2.4893 H   0  0  0  0  0  0  0  0  0  0  0  0
   -0.0851   -3.3615   -0.0003 H   0  0  0  0  0  0  0  0  0  0  0  0
   -1.8497   -3.3475   -0.0001 H   0  0  0  0  0  0  0  0  0  0  0  0
   -0.5062    4.7664    2.1029 H   0  0  0  0  0  0  0  0  0  0  0  0
   -0.5858    5.8745    0.6825 H   0  0  0  0  0  0  0  0  0  0  0  0
    3.7433    5.2566   -0.4349 H   0  0  0  0  0  0  0  0  0  0  0  0
   -1.1111    4.5839   -3.5255 H   0  0  0  0  0  0  0  0  0  0  0  0
    1.1419    6.0964   -1.3518 H   0  0  0  0  0  0  0  0  0  0  0  0
    4.0895    4.1437   -1.4611 H   0  0  0  0  0  0  0  0  0  0  0  0
  1  2  1  0  0  0  0
  1  4  1  0  0  0  0
  2  5  1  0  0  0  0
  2  6  2  0  0  0  0
  3  1  1  0  0  0  0
  3  7  1  0  0  0  0
  3  8  1  0  0  0  0
  3 28  1  6  0  0  0
  4  9  2  0  0  0  0
  4 29  1  0  0  0  0
  5 10  2  0  0  0  0
  5  9  1  0  0  0  0
  6 11  1  0  0  0  0
  7 12  1  0  0  0  0
  8 13  1  0  0  0  0
  8 14  1  0  0  0  0
  8 30  1  6  0  0  0
 10 15  1  0  0  0  0
 10 16  1  0  0  0  0
 11 15  2  0  0  0  0
 11 31  1  0  0  0  0
 12 13  1  0  0  0  0
 12 32  1  1  0  0  0
 12 17  1  0  0  0  0
 13 18  1  0  0  0  0
 13 33  1  6  0  0  0
 14 34  1  0  0  0  0
 16 35  1  0  0  0  0
 16 36  1  0  0  0  0
 17 19  1  0  0  0  0
 17 37  1  0  0  0  0
 17 38  1  0  0  0  0
 18 39  1  0  0  0  0
 19 20  1  0  0  0  0
 20 21  1  0  0  0  0
 20 22  2  0  0  0  0
 20 23  1  0  0  0  0
 21 24  1  0  0  0  0
 23 40  1  0  0  0  0
 24 25  1  0  0  0  0
 24 26  2  0  0  0  0
 24 27  1  0  0  0  0
 25 41  1  0  0  0  0
 27 42  1  0  0  0  0
M  END
>  <DRUGBANK_ID>
DB16833

>  <COMMON_NAME>
Adenosine disphosphate

>  <CAS_NUMBER>
58-64-0

>  <UNII>
61D2G4IYVH

>  <SYNONYMS>
ADP

$$$$
