DZO
 OpenBabel10282417163D

 38 41  0  0  0  0  0  0  0  0999 V2000
    2.2979   -0.1396    0.0068 C   0  0  0  0  0  0  0  0  0  0  0  0
   -2.1135   -0.6666    0.0470 C   0  0  0  0  0  0  0  0  0  0  0  0
    1.4830   -1.2896   -0.0122 C   0  0  0  0  0  0  0  0  0  0  0  0
    0.1927   -0.7957   -0.0015 C   0  0  0  0  0  0  0  0  0  0  0  0
   -2.9570   -3.3958    1.2191 C   0  0  0  0  0  0  0  0  0  0  0  0
   -3.0941   -4.7814    1.2631 C   0  0  0  0  0  0  0  0  0  0  0  0
   -2.3343   -5.6757    2.5220 Cl  0  0  0  0  0  0  0  0  0  0  0  0
   -3.8340   -5.4479    0.2902 C   0  0  0  0  0  0  0  0  0  0  0  0
   -4.4455   -4.7195   -0.7299 C   0  0  0  0  0  0  0  0  0  0  0  0
   -4.3182   -3.3270   -0.7699 C   0  0  0  0  0  0  0  0  0  0  0  0
   -3.5626   -2.6526    0.1977 C   0  0  0  0  0  0  0  0  0  0  0  0
   -3.3624   -1.2637    0.0958 N   0  0  0  0  0  0  0  0  0  0  0  0
   -2.0505    0.8424    0.0005 C   0  0  0  0  0  0  0  0  0  0  0  0
   -0.8256    1.3972   -0.0064 C   0  0  0  0  0  0  0  0  0  0  0  0
   -1.0296   -1.4069    0.0224 N   0  0  0  0  0  0  0  0  0  0  0  0
    0.3071    0.5955    0.0028 N   0  0  0  0  0  0  0  0  0  0  0  0
    1.6024    0.9993    0.0128 N   0  0  0  0  0  0  0  0  0  0  0  0
    1.8621   -2.6925   -0.0234 C   0  0  0  0  0  0  0  0  0  0  0  0
    1.4904   -3.5304   -1.0874 C   0  0  0  0  0  0  0  0  0  0  0  0
    2.6706   -3.2078    0.9964 C   0  0  0  0  0  0  0  0  0  0  0  0
    3.0904   -4.5389    0.9561 C   0  0  0  0  0  0  0  0  0  0  0  0
    2.7210   -5.3571   -0.1137 C   0  0  0  0  0  0  0  0  0  0  0  0
    1.9023   -4.8703   -1.1364 C   0  0  0  0  0  0  0  0  0  0  0  0
    1.7074   -5.6295   -2.2928 N   0  0  0  0  0  0  0  0  0  0  0  0
    3.3792   -0.0913    0.0064 H   0  0  0  0  0  0  0  0  0  0  0  0
   -2.3652   -2.8879    1.9766 H   0  0  0  0  0  0  0  0  0  0  0  0
   -3.9262   -6.5302    0.3163 H   0  0  0  0  0  0  0  0  0  0  0  0
   -5.0025   -5.2388   -1.5057 H   0  0  0  0  0  0  0  0  0  0  0  0
   -4.7666   -2.7798   -1.5954 H   0  0  0  0  0  0  0  0  0  0  0  0
   -4.2009   -0.7067    0.0194 H   0  0  0  0  0  0  0  0  0  0  0  0
   -2.9583    1.4248   -0.0229 H   0  0  0  0  0  0  0  0  0  0  0  0
   -0.6538    2.4634   -0.0254 H   0  0  0  0  0  0  0  0  0  0  0  0
    0.8838   -3.1277   -1.8945 H   0  0  0  0  0  0  0  0  0  0  0  0
    2.9788   -2.5815    1.8298 H   0  0  0  0  0  0  0  0  0  0  0  0
    3.7176   -4.9377    1.7493 H   0  0  0  0  0  0  0  0  0  0  0  0
    3.0820   -6.3822   -0.1431 H   0  0  0  0  0  0  0  0  0  0  0  0
    1.8215   -6.6332   -2.2060 H   0  0  0  0  0  0  0  0  0  0  0  0
    0.9548   -5.3361   -2.9055 H   0  0  0  0  0  0  0  0  0  0  0  0
  1  3  1  0  0  0  0
  1 17  2  0  0  0  0
  1 25  1  0  0  0  0
  2 12  1  0  0  0  0
  2 13  1  0  0  0  0
  2 15  2  0  0  0  0
  3  4  2  0  0  0  0
  3 18  1  0  0  0  0
  4 15  1  0  0  0  0
  4 16  1  0  0  0  0
  5  6  2  0  0  0  0
  5 11  1  0  0  0  0
  5 26  1  0  0  0  0
  6  7  1  0  0  0  0
  6  8  1  0  0  0  0
  8  9  2  0  0  0  0
  8 27  1  0  0  0  0
  9 10  1  0  0  0  0
  9 28  1  0  0  0  0
 10 11  2  0  0  0  0
 10 29  1  0  0  0  0
 11 12  1  0  0  0  0
 12 30  1  0  0  0  0
 13 14  2  0  0  0  0
 13 31  1  0  0  0  0
 14 16  1  0  0  0  0
 14 32  1  0  0  0  0
 16 17  1  0  0  0  0
 18 19  2  0  0  0  0
 18 20  1  0  0  0  0
 19 23  1  0  0  0  0
 19 33  1  0  0  0  0
 20 21  2  0  0  0  0
 20 34  1  0  0  0  0
 21 22  1  0  0  0  0
 21 35  1  0  0  0  0
 22 23  2  0  0  0  0
 22 36  1  0  0  0  0
 23 24  1  0  0  0  0
 24 37  1  0  0  0  0
 24 38  1  0  0  0  0
M  END
>  <DRUGBANK_ID>
DB07698

>  <COMMON_NAME>
3-(3-aminophenyl)-N-(3-chlorophenyl)pyrazolo[1,5-a]pyrimidin-5-amine

$$$$
