
 OpenBabel10282417203D

 33 33  0  0  0  0  0  0  0  0999 V2000
    0.7592    0.1847   -0.0898 C   0  0  0  0  0  0  0  0  0  0  0  0
    0.4989   -0.9771    0.8203 C   0  0  0  0  0  0  0  0  0  0  0  0
   -0.2964   -0.9113    1.7576 O   0  0  0  0  0  0  0  0  0  0  0  0
    1.0737   -2.1822    0.5333 N   0  0  0  0  0  0  0  0  0  0  0  0
    1.8399   -2.5498   -0.5933 C   0  0  0  0  0  0  0  0  0  0  0  0
    3.0316   -1.8990   -0.9258 C   0  0  0  0  0  0  0  0  0  0  0  0
    4.0646   -0.9755    0.9051 I   0  0  0  0  0  0  0  0  0  0  0  0
    3.7675   -2.1958   -2.0998 C   0  0  0  0  0  0  0  0  0  0  0  0
    4.9060   -1.2457   -2.4137 C   0  0  0  0  0  0  0  0  0  0  0  0
    5.6968   -1.4426   -3.4686 O   0  0  0  0  0  0  0  0  0  0  0  0
    5.1063   -0.2188   -1.7609 O   0  0  0  0  0  0  0  0  0  0  0  0
    3.3027   -3.3123   -2.8971 C   0  0  0  0  0  0  0  0  0  0  0  0
    4.7466   -4.0094   -4.5227 I   0  0  0  0  0  0  0  0  0  0  0  0
    2.1145   -4.1185   -2.5737 C   0  0  0  0  0  0  0  0  0  0  0  0
    1.7235   -5.2294   -3.6432 C   0  0  0  0  0  0  0  0  0  0  0  0
    2.3772   -5.4812   -4.6518 O   0  0  0  0  0  0  0  0  0  0  0  0
    0.5919   -6.0024   -3.6367 N   0  0  0  0  0  0  0  0  0  0  0  0
   -0.4206   -5.9073   -2.6779 C   0  0  0  0  0  0  0  0  0  0  0  0
   -1.7858   -5.4339   -3.0918 C   0  0  0  0  0  0  0  0  0  0  0  0
   -2.4101   -6.4359   -3.8524 O   0  0  0  0  0  0  0  0  0  0  0  0
    1.4491   -3.6938   -1.3371 C   0  0  0  0  0  0  0  0  0  0  0  0
   -0.2055   -4.7731    0.1604 I   0  0  0  0  0  0  0  0  0  0  0  0
    0.3314    1.0851    0.3521 H   0  0  0  0  0  0  0  0  0  0  0  0
    0.3212   -0.0074   -1.0722 H   0  0  0  0  0  0  0  0  0  0  0  0
    1.8192    0.3714   -0.2124 H   0  0  0  0  0  0  0  0  0  0  0  0
    0.5322   -2.9189    0.9810 H   0  0  0  0  0  0  0  0  0  0  0  0
    5.4943   -2.2079   -4.0341 H   0  0  0  0  0  0  0  0  0  0  0  0
    0.5722   -6.7329   -4.3435 H   0  0  0  0  0  0  0  0  0  0  0  0
   -0.3814   -6.7905   -2.0352 H   0  0  0  0  0  0  0  0  0  0  0  0
   -0.0776   -5.0371   -2.2013 H   0  0  0  0  0  0  0  0  0  0  0  0
   -2.3839   -5.2169   -2.1978 H   0  0  0  0  0  0  0  0  0  0  0  0
   -1.7066   -4.5008   -3.6622 H   0  0  0  0  0  0  0  0  0  0  0  0
   -1.7645   -6.6737   -4.5388 H   0  0  0  0  0  0  0  0  0  0  0  0
  1  2  1  0  0  0  0
  1 23  1  0  0  0  0
  1 24  1  0  0  0  0
  1 25  1  0  0  0  0
  2  3  2  0  0  0  0
  2  4  1  0  0  0  0
  4  5  1  0  0  0  0
  4 26  1  0  0  0  0
  5  6  2  0  0  0  0
  5 21  1  0  0  0  0
  6  7  1  0  0  0  0
  6  8  1  0  0  0  0
  8  9  1  0  0  0  0
  8 12  2  0  0  0  0
  9 10  1  0  0  0  0
  9 11  2  0  0  0  0
 10 27  1  0  0  0  0
 12 13  1  0  0  0  0
 12 14  1  0  0  0  0
 14 15  1  0  0  0  0
 14 21  2  0  0  0  0
 15 16  2  0  0  0  0
 15 17  1  0  0  0  0
 17 18  1  0  0  0  0
 17 28  1  0  0  0  0
 18 19  1  0  0  0  0
 18 29  1  0  0  0  0
 18 30  1  0  0  0  0
 19 20  1  0  0  0  0
 19 31  1  0  0  0  0
 19 32  1  0  0  0  0
 20 33  1  0  0  0  0
 21 22  1  0  0  0  0
M  END
>  <DRUGBANK_ID>
DB13444

>  <COMMON_NAME>
Ioxitalamic acid

>  <CAS_NUMBER>
28179-44-4

>  <UNII>
967RDI7Z6K

>  <SYNONYMS>
Acide ioxitalamique; Acido ioxitalamico; Acidum ioxitalamicum; Ioxitalamic acid

$$$$
