
 OpenBabel10282417223D

 64 68  0  0  0  0  0  0  0  0999 V2000
    0.6610   -0.0681    0.1227 C   0  0  0  0  0  0  0  0  0  0  0  0
    0.3434    1.3382    0.1016 N   0  0  0  0  0  0  0  0  0  0  0  0
   -0.9528    1.7789    0.2633 C   0  0  0  0  0  0  0  0  0  0  0  0
   -2.0939    0.8422    0.4161 C   0  0  0  0  0  0  0  0  0  0  0  0
   -0.9408    3.1501    0.2544 C   0  0  0  0  0  0  0  0  0  0  0  0
    0.3986    3.5597    0.0446 C   0  0  0  0  0  0  0  0  0  0  0  0
    1.2128    2.4027   -0.0691 C   0  0  0  0  0  0  0  0  0  0  0  0
    2.6661    2.4092   -0.3429 C   0  0  0  0  0  0  0  0  0  0  0  0
    3.2090    3.4698   -0.5967 O   0  0  0  0  0  0  0  0  0  0  0  0
    3.6032    1.1445   -0.4237 C   0  0  0  0  0  0  0  0  0  0  0  0
    3.2205   -0.0095   -0.6202 O   0  0  0  0  0  0  0  0  0  0  0  0
    4.9809    1.2715   -0.4606 N   0  0  0  0  0  0  0  0  0  0  0  0
    5.7299    2.4426   -0.4933 C   0  0  0  0  0  0  0  0  0  0  0  0
    5.5216    3.4290    0.4558 C   0  0  0  0  0  0  0  0  0  0  0  0
    6.2120    4.6249    0.3632 C   0  0  0  0  0  0  0  0  0  0  0  0
    7.2025    4.8312   -0.6074 C   0  0  0  0  0  0  0  0  0  0  0  0
    7.4669    3.7843   -1.4976 C   0  0  0  0  0  0  0  0  0  0  0  0
    6.7125    2.6022   -1.4674 C   0  0  0  0  0  0  0  0  0  0  0  0
    7.8890    6.0202   -0.5985 N   0  0  0  0  0  0  0  0  0  0  0  0
    8.5853    6.3995    0.6406 C   0  0  0  0  0  0  0  0  0  0  0  0
    8.2749    7.8666    0.9795 C   0  0  0  0  0  0  0  0  0  0  0  0
    8.5690    8.7297   -0.1579 N   0  0  0  0  0  0  0  0  0  0  0  0
    7.9233    8.3660   -1.4211 C   0  0  0  0  0  0  0  0  0  0  0  0
    8.2135    6.8611   -1.7637 C   0  0  0  0  0  0  0  0  0  0  0  0
    9.4490    9.7640   -0.0555 C   0  0  0  0  0  0  0  0  0  0  0  0
   10.7006    9.5138    0.3794 N   0  0  0  0  0  0  0  0  0  0  0  0
   11.5582   10.5627    0.4483 C   0  0  0  0  0  0  0  0  0  0  0  0
   11.1972   11.8530    0.1670 C   0  0  0  0  0  0  0  0  0  0  0  0
   12.0547   12.8751    0.2664 F   0  0  0  0  0  0  0  0  0  0  0  0
    9.8990   12.0234   -0.2301 C   0  0  0  0  0  0  0  0  0  0  0  0
    9.0237   10.9999   -0.3801 N   0  0  0  0  0  0  0  0  0  0  0  0
    0.8581    4.9511   -0.0032 C   0  0  0  0  0  0  0  0  0  0  0  0
    0.6655    5.7930    1.1008 C   0  0  0  0  0  0  0  0  0  0  0  0
    1.2084    7.0828    1.1110 C   0  0  0  0  0  0  0  0  0  0  0  0
    1.9670    7.5307    0.0304 C   0  0  0  0  0  0  0  0  0  0  0  0
    2.1552    6.7033   -1.0727 C   0  0  0  0  0  0  0  0  0  0  0  0
    1.5364    5.4529   -1.1202 C   0  0  0  0  0  0  0  0  0  0  0  0
    0.5082   -0.4759   -0.8807 H   0  0  0  0  0  0  0  0  0  0  0  0
    0.0630   -0.5872    0.8691 H   0  0  0  0  0  0  0  0  0  0  0  0
    1.6509   -0.1894    0.5156 H   0  0  0  0  0  0  0  0  0  0  0  0
   -2.1692    0.1986   -0.4666 H   0  0  0  0  0  0  0  0  0  0  0  0
   -1.9511    0.2126    1.3001 H   0  0  0  0  0  0  0  0  0  0  0  0
   -3.0345    1.3841    0.5337 H   0  0  0  0  0  0  0  0  0  0  0  0
   -1.8045    3.7946    0.3706 H   0  0  0  0  0  0  0  0  0  0  0  0
    5.4160    0.4201   -0.7909 H   0  0  0  0  0  0  0  0  0  0  0  0
    4.7675    3.3168    1.2284 H   0  0  0  0  0  0  0  0  0  0  0  0
    5.9426    5.4131    1.0599 H   0  0  0  0  0  0  0  0  0  0  0  0
    8.2949    3.8561   -2.1956 H   0  0  0  0  0  0  0  0  0  0  0  0
    6.8639    1.8441   -2.2327 H   0  0  0  0  0  0  0  0  0  0  0  0
    8.3030    5.7626    1.4869 H   0  0  0  0  0  0  0  0  0  0  0  0
    9.6601    6.2635    0.4796 H   0  0  0  0  0  0  0  0  0  0  0  0
    7.1981    7.9527    1.1835 H   0  0  0  0  0  0  0  0  0  0  0  0
    8.7992    8.1626    1.8927 H   0  0  0  0  0  0  0  0  0  0  0  0
    6.8400    8.4971   -1.2992 H   0  0  0  0  0  0  0  0  0  0  0  0
    8.2415    9.0079   -2.2504 H   0  0  0  0  0  0  0  0  0  0  0  0
    9.2812    6.7487   -1.9875 H   0  0  0  0  0  0  0  0  0  0  0  0
    7.6460    6.5722   -2.6557 H   0  0  0  0  0  0  0  0  0  0  0  0
   12.5761   10.3288    0.7427 H   0  0  0  0  0  0  0  0  0  0  0  0
    9.5144   13.0136   -0.4501 H   0  0  0  0  0  0  0  0  0  0  0  0
    0.1148    5.4431    1.9701 H   0  0  0  0  0  0  0  0  0  0  0  0
    1.0710    7.7245    1.9771 H   0  0  0  0  0  0  0  0  0  0  0  0
    2.4178    8.5190    0.0468 H   0  0  0  0  0  0  0  0  0  0  0  0
    2.8156    7.0064   -1.8807 H   0  0  0  0  0  0  0  0  0  0  0  0
    1.6751    4.8293   -2.0001 H   0  0  0  0  0  0  0  0  0  0  0  0
  1  2  1  0  0  0  0
  1 38  1  0  0  0  0
  1 39  1  0  0  0  0
  1 40  1  0  0  0  0
  2  3  1  0  0  0  0
  2  7  1  0  0  0  0
  3  4  1  0  0  0  0
  3  5  2  0  0  0  0
  4 41  1  0  0  0  0
  4 42  1  0  0  0  0
  4 43  1  0  0  0  0
  5  6  1  0  0  0  0
  5 44  1  0  0  0  0
  6  7  2  0  0  0  0
  6 32  1  0  0  0  0
  7  8  1  0  0  0  0
  8  9  2  0  0  0  0
  8 10  1  0  0  0  0
 10 11  2  0  0  0  0
 10 12  1  0  0  0  0
 12 13  1  0  0  0  0
 12 45  1  0  0  0  0
 13 14  2  0  0  0  0
 13 18  1  0  0  0  0
 14 15  1  0  0  0  0
 14 46  1  0  0  0  0
 15 16  2  0  0  0  0
 15 47  1  0  0  0  0
 16 17  1  0  0  0  0
 16 19  1  0  0  0  0
 17 18  2  0  0  0  0
 17 48  1  0  0  0  0
 18 49  1  0  0  0  0
 19 20  1  0  0  0  0
 19 24  1  0  0  0  0
 20 21  1  0  0  0  0
 20 50  1  0  0  0  0
 20 51  1  0  0  0  0
 21 22  1  0  0  0  0
 21 52  1  0  0  0  0
 21 53  1  0  0  0  0
 22 23  1  0  0  0  0
 22 25  1  0  0  0  0
 23 24  1  0  0  0  0
 23 54  1  0  0  0  0
 23 55  1  0  0  0  0
 24 56  1  0  0  0  0
 24 57  1  0  0  0  0
 25 26  2  0  0  0  0
 25 31  1  0  0  0  0
 26 27  1  0  0  0  0
 27 28  2  0  0  0  0
 27 58  1  0  0  0  0
 28 29  1  0  0  0  0
 28 30  1  0  0  0  0
 30 31  2  0  0  0  0
 30 59  1  0  0  0  0
 32 33  2  0  0  0  0
 32 37  1  0  0  0  0
 33 34  1  0  0  0  0
 33 60  1  0  0  0  0
 34 35  2  0  0  0  0
 34 61  1  0  0  0  0
 35 36  1  0  0  0  0
 35 62  1  0  0  0  0
 36 37  2  0  0  0  0
 36 63  1  0  0  0  0
 37 64  1  0  0  0  0
M  END
>  <DRUGBANK_ID>
DB15245

>  <COMMON_NAME>
Olorofim

>  <CAS_NUMBER>
1928707-56-5

>  <UNII>
T34SH2H9HI

>  <SYNONYMS>
Olorofim

$$$$
