
 OpenBabel10282417193D

 68 70  0  0  1  0  0  0  0  0999 V2000
   -0.3903    8.8439   -1.9295 C   0  0  0  0  0  0  0  0  0  0  0  0
    1.1153    8.5386   -1.9540 C   0  0  0  0  0  0  0  0  0  0  0  0
    1.6752    9.0565   -0.6388 C   0  0  0  0  0  0  0  0  0  0  0  0
    1.4107    7.0554   -2.0765 C   0  0  0  0  0  0  0  0  0  0  0  0
    0.9907    6.4522   -3.4236 C   0  0  2  0  0  0  0  0  0  0  0  0
    0.4245    7.3678   -4.4920 C   0  0  0  0  0  0  0  0  0  0  0  0
   -0.0987    6.5489   -5.5587 N   0  0  3  0  0  0  0  0  0  0  0  0
   -0.0524    7.2729   -6.7906 C   0  0  0  0  0  0  0  0  0  0  0  0
   -0.6245    6.5473   -7.9723 C   0  0  0  0  0  0  0  0  0  0  0  0
   -1.4923    5.3692   -7.6811 C   0  0  0  0  0  0  0  0  0  0  0  0
   -1.9498    4.6710   -8.7893 C   0  0  0  0  0  0  0  0  0  0  0  0
   -2.7703    3.5611   -8.6648 C   0  0  0  0  0  0  0  0  0  0  0  0
   -3.1434    3.1274   -7.3832 C   0  0  0  0  0  0  0  0  0  0  0  0
   -2.6818    3.8360   -6.2595 C   0  0  0  0  0  0  0  0  0  0  0  0
   -1.8339    4.9576   -6.3985 C   0  0  0  0  0  0  0  0  0  0  0  0
   -1.2429    5.6921   -5.2136 C   0  0  1  0  0  0  0  0  0  0  0  0
   -0.5736    4.6475   -4.3342 C   0  0  0  0  0  0  0  0  0  0  0  0
    0.0647    5.2902   -3.1291 C   0  0  1  0  0  0  0  0  0  0  0  0
    0.7933    4.3172   -2.3717 O   0  0  0  0  0  0  0  0  0  0  0  0
    1.7729    3.5668   -2.9462 C   0  0  0  0  0  0  0  0  0  0  0  0
    2.2621    3.7413   -4.0415 O   0  0  0  0  0  0  0  0  0  0  0  0
    2.3012    2.5335   -1.9434 C   0  0  2  0  0  0  0  0  0  0  0  0
    1.2137    1.8258   -1.0841 C   0  0  0  0  0  0  0  0  0  0  0  0
    1.8709    1.0503    0.0633 C   0  0  0  0  0  0  0  0  0  0  0  0
    0.1463    2.7384   -0.4669 C   0  0  0  0  0  0  0  0  0  0  0  0
    3.3511    3.1665   -1.1151 N   0  0  0  0  0  0  0  0  0  0  0  0
   -3.9365    2.0444   -7.0792 O   0  0  0  0  0  0  0  0  0  0  0  0
   -4.4490    1.3081   -8.1864 C   0  0  0  0  0  0  0  0  0  0  0  0
   -3.2271    2.8939   -9.7633 O   0  0  0  0  0  0  0  0  0  0  0  0
   -2.8531    3.3676  -11.0446 C   0  0  0  0  0  0  0  0  0  0  0  0
   -0.8466    8.4404   -1.0243 H   0  0  0  0  0  0  0  0  0  0  0  0
   -1.0167    8.4150   -2.7037 H   0  0  0  0  0  0  0  0  0  0  0  0
   -0.5367    9.9242   -1.9918 H   0  0  0  0  0  0  0  0  0  0  0  0
    1.6270    9.0529   -2.7776 H   0  0  0  0  0  0  0  0  0  0  0  0
    1.1442    8.5946    0.2014 H   0  0  0  0  0  0  0  0  0  0  0  0
    2.7405    8.8379   -0.5338 H   0  0  0  0  0  0  0  0  0  0  0  0
    1.5270   10.1380   -0.5880 H   0  0  0  0  0  0  0  0  0  0  0  0
    2.4817    6.8453   -1.9310 H   0  0  0  0  0  0  0  0  0  0  0  0
    0.9253    6.5355   -1.2366 H   0  0  0  0  0  0  0  0  0  0  0  0
    1.9139    6.0584   -3.8670 H   0  0  0  0  0  0  0  0  0  0  0  0
   -0.3729    8.0509   -4.2431 H   0  0  0  0  0  0  0  0  0  0  0  0
    1.2408    8.0188   -4.8328 H   0  0  0  0  0  0  0  0  0  0  0  0
   -0.4882    8.2761   -6.7159 H   0  0  0  0  0  0  0  0  0  0  0  0
    1.0171    7.4192   -6.9970 H   0  0  0  0  0  0  0  0  0  0  0  0
   -1.2294    7.2624   -8.5364 H   0  0  0  0  0  0  0  0  0  0  0  0
    0.2097    6.2075   -8.5965 H   0  0  0  0  0  0  0  0  0  0  0  0
   -1.6287    5.0390   -9.7559 H   0  0  0  0  0  0  0  0  0  0  0  0
   -2.9755    3.4799   -5.2716 H   0  0  0  0  0  0  0  0  0  0  0  0
   -2.0540    6.2199   -4.6840 H   0  0  0  0  0  0  0  0  0  0  0  0
    0.1890    4.1504   -4.9443 H   0  0  0  0  0  0  0  0  0  0  0  0
   -1.2342    3.8436   -3.9953 H   0  0  0  0  0  0  0  0  0  0  0  0
   -0.7547    5.6506   -2.4856 H   0  0  0  0  0  0  0  0  0  0  0  0
    2.7802    1.7626   -2.5618 H   0  0  0  0  0  0  0  0  0  0  0  0
    0.6937    1.1062   -1.7322 H   0  0  0  0  0  0  0  0  0  0  0  0
    2.3922    1.7312    0.7470 H   0  0  0  0  0  0  0  0  0  0  0  0
    1.1193    0.5215    0.6555 H   0  0  0  0  0  0  0  0  0  0  0  0
    2.5947    0.3234   -0.3152 H   0  0  0  0  0  0  0  0  0  0  0  0
   -0.5425    3.1186   -1.2273 H   0  0  0  0  0  0  0  0  0  0  0  0
   -0.5016    2.2030    0.2290 H   0  0  0  0  0  0  0  0  0  0  0  0
    0.6112    3.5782    0.0614 H   0  0  0  0  0  0  0  0  0  0  0  0
    4.0197    3.6377   -1.7251 H   0  0  0  0  0  0  0  0  0  0  0  0
    2.9243    3.8802   -0.5272 H   0  0  0  0  0  0  0  0  0  0  0  0
   -5.0996    1.9395   -8.8036 H   0  0  0  0  0  0  0  0  0  0  0  0
   -3.6351    0.8558   -8.7662 H   0  0  0  0  0  0  0  0  0  0  0  0
   -5.0659    0.4870   -7.8173 H   0  0  0  0  0  0  0  0  0  0  0  0
   -3.2220    4.3854  -11.2101 H   0  0  0  0  0  0  0  0  0  0  0  0
   -1.7689    3.3035  -11.1817 H   0  0  0  0  0  0  0  0  0  0  0  0
   -3.3265    2.7138  -11.7791 H   0  0  0  0  0  0  0  0  0  0  0  0
  1  2  1  0  0  0  0
  1 31  1  0  0  0  0
  1 32  1  0  0  0  0
  1 33  1  0  0  0  0
  2  3  1  0  0  0  0
  2  4  1  0  0  0  0
  2 34  1  0  0  0  0
  3 35  1  0  0  0  0
  3 36  1  0  0  0  0
  3 37  1  0  0  0  0
  4 38  1  0  0  0  0
  4 39  1  0  0  0  0
  5  6  1  0  0  0  0
  5 18  1  0  0  0  0
  5 40  1  6  0  0  0
  5  4  1  0  0  0  0
  6  7  1  0  0  0  0
  6 41  1  0  0  0  0
  6 42  1  0  0  0  0
  7  8  1  0  0  0  0
  8  9  1  0  0  0  0
  8 43  1  0  0  0  0
  8 44  1  0  0  0  0
  9 10  1  0  0  0  0
  9 45  1  0  0  0  0
  9 46  1  0  0  0  0
 10 11  2  0  0  0  0
 10 15  1  0  0  0  0
 11 12  1  0  0  0  0
 11 47  1  0  0  0  0
 12 13  2  0  0  0  0
 12 29  1  0  0  0  0
 13 14  1  0  0  0  0
 13 27  1  0  0  0  0
 14 15  2  0  0  0  0
 14 48  1  0  0  0  0
 15 16  1  0  0  0  0
 16  7  1  0  0  0  0
 16 17  1  0  0  0  0
 16 49  1  1  0  0  0
 17 18  1  0  0  0  0
 17 50  1  0  0  0  0
 17 51  1  0  0  0  0
 18 19  1  0  0  0  0
 18 52  1  1  0  0  0
 19 20  1  0  0  0  0
 20 21  2  0  0  0  0
 22 26  1  0  0  0  0
 22 53  1  6  0  0  0
 22 23  1  0  0  0  0
 22 20  1  0  0  0  0
 23 24  1  0  0  0  0
 23 25  1  0  0  0  0
 23 54  1  0  0  0  0
 24 55  1  0  0  0  0
 24 56  1  0  0  0  0
 24 57  1  0  0  0  0
 25 58  1  0  0  0  0
 25 59  1  0  0  0  0
 25 60  1  0  0  0  0
 26 61  1  0  0  0  0
 26 62  1  0  0  0  0
 27 28  1  0  0  0  0
 28 63  1  0  0  0  0
 28 64  1  0  0  0  0
 28 65  1  0  0  0  0
 29 30  1  0  0  0  0
 30 66  1  0  0  0  0
 30 67  1  0  0  0  0
 30 68  1  0  0  0  0
M  END
>  <DRUGBANK_ID>
DB11915

>  <COMMON_NAME>
Valbenazine

>  <CAS_NUMBER>
1025504-45-3

>  <UNII>
54K37P50KH

>  <SYNONYMS>
Valbenazine

$$$$
