
 OpenBabel10282417163D

 37 38  0  0  0  0  0  0  0  0999 V2000
   -1.1450   -0.3660   -0.0620 O   0  0  0  0  0  0  0  0  0  0  0  0
    1.1390   -0.3930    0.0300 O   0  0  0  0  0  0  0  0  0  0  0  0
   -2.8539    1.8718   -0.6909 O   0  0  0  0  0  0  0  0  0  0  0  0
    2.1665   -7.0208    1.3839 N   0  0  0  0  0  0  0  0  0  0  0  0
    1.7881   -4.7992    0.5195 N   0  0  0  0  0  0  0  0  0  0  0  0
    3.0633   -5.1977    2.6869 N   0  0  0  0  0  0  0  0  0  0  0  0
   -0.7540    1.0160    0.0990 C   0  0  1  0  0  0  0  0  0  0  0  0
    0.7790    1.0080   -0.0840 C   0  0  0  0  0  0  0  0  0  0  0  0
   -0.0420   -2.7228    0.1286 C   0  0  0  0  0  0  0  0  0  0  0  0
   -1.4498    1.9329   -0.8938 C   0  0  0  0  0  0  0  0  0  0  0  0
    0.0703   -5.4752    0.1433 C   0  0  0  0  0  0  0  0  0  0  0  0
    0.0205   -6.9925    0.2199 C   0  0  0  0  0  0  0  0  0  0  0  0
   -0.5936   -3.4158   -0.8607 C   0  0  0  0  0  0  0  0  0  0  0  0
    0.5001   -3.3563    1.2346 C   0  0  0  0  0  0  0  0  0  0  0  0
   -0.5052   -4.7867   -0.8883 C   0  0  0  0  0  0  0  0  0  0  0  0
    0.6717   -4.7511    1.0695 C   0  0  0  0  0  0  0  0  0  0  0  0
    1.4359   -7.5464    0.2216 C   0  0  0  0  0  0  0  0  0  0  0  0
    2.3328   -5.7233    1.5246 C   0  0  0  0  0  0  0  0  0  0  0  0
   -0.0170   -1.1260    0.0300 B   0  0  0  0  0  0  0  0  0  0  0  0
   -3.1697    0.9327   -0.8264 H   0  0  0  0  0  0  0  0  0  0  0  0
    1.9170   -3.7933    0.6285 H   0  0  0  0  0  0  0  0  0  0  0  0
    1.2812   -5.1639   -0.2870 H   0  0  0  0  0  0  0  0  0  0  0  0
    3.4413   -5.8389    3.3843 H   0  0  0  0  0  0  0  0  0  0  0  0
    3.1922   -4.1918    2.7960 H   0  0  0  0  0  0  0  0  0  0  0  0
   -1.0167    1.3723    1.0731 H   0  0  0  0  0  0  0  0  0  0  0  0
    1.0848    1.4372   -1.0152 H   0  0  0  0  0  0  0  0  0  0  0  0
    1.2561    1.5866    0.6792 H   0  0  0  0  0  0  0  0  0  0  0  0
   -1.1118    2.9377   -0.7488 H   0  0  0  0  0  0  0  0  0  0  0  0
   -1.2195    1.6195   -1.8906 H   0  0  0  0  0  0  0  0  0  0  0  0
   -0.4793   -7.2880    1.1187 H   0  0  0  0  0  0  0  0  0  0  0  0
   -0.5113   -7.3750   -0.6261 H   0  0  0  0  0  0  0  0  0  0  0  0
   -1.1116   -2.9021   -1.6433 H   0  0  0  0  0  0  0  0  0  0  0  0
    0.7652   -2.8380    2.1324 H   0  0  0  0  0  0  0  0  0  0  0  0
   -0.8923   -5.3232   -1.7293 H   0  0  0  0  0  0  0  0  0  0  0  0
    1.3348   -5.2541    1.7419 H   0  0  0  0  0  0  0  0  0  0  0  0
    1.4009   -8.6145    0.2755 H   0  0  0  0  0  0  0  0  0  0  0  0
    1.9356   -7.2509   -0.6772 H   0  0  0  0  0  0  0  0  0  0  0  0
  1  7  1  0  0  0  0
  1 19  1  0  0  0  0
  2  8  1  0  0  0  0
  2 19  1  0  0  0  0
  3 10  1  0  0  0  0
  3 20  1  0  0  0  0
  4 17  1  0  0  0  0
  4 18  2  0  0  0  0
  5 18  1  0  0  0  0
  5 21  1  0  0  0  0
  5 22  1  0  0  0  0
  6 18  1  0  0  0  0
  6 23  1  0  0  0  0
  6 24  1  0  0  0  0
  7  8  1  0  0  0  0
  7 10  1  0  0  0  0
  7 25  1  1  0  0  0
  8 26  1  0  0  0  0
  8 27  1  0  0  0  0
  9 13  2  0  0  0  0
  9 14  1  0  0  0  0
  9 19  1  0  0  0  0
 10 28  1  0  0  0  0
 10 29  1  0  0  0  0
 11 12  1  0  0  0  0
 11 15  2  0  0  0  0
 11 16  1  0  0  0  0
 12 17  1  0  0  0  0
 12 30  1  0  0  0  0
 12 31  1  0  0  0  0
 13 15  1  0  0  0  0
 13 32  1  0  0  0  0
 14 16  2  0  0  0  0
 14 33  1  0  0  0  0
 15 34  1  0  0  0  0
 16 35  1  0  0  0  0
 17 36  1  0  0  0  0
 17 37  1  0  0  0  0
M  END
>  <DRUGBANK_ID>
DB07071

>  <COMMON_NAME>
(R)-1-(4-(4-(Hydroxymethyl)-1,3,2-dioxaborolan-2-YL)phenethyl)guanidine

$$$$
