
 OpenBabel10282417163D

 55 55  0  0  0  0  0  0  0  0999 V2000
    1.0964    0.0346   -0.0941 C   0  0  0  0  0  0  0  0  0  0  0  0
    0.6409   -1.2126   -0.8330 C   0  0  0  0  0  0  0  0  0  0  0  0
    1.1427   -2.4751   -0.1272 C   0  0  0  0  0  0  0  0  0  0  0  0
   -3.9170  -11.7028    0.5591 C   0  0  0  0  0  0  0  0  0  0  0  0
   -4.1285  -12.8742   -0.3549 C   0  0  0  0  0  0  0  0  0  0  0  0
    0.5740   -2.6265    1.2913 C   0  0  0  0  0  0  0  0  0  0  0  0
   -4.5936  -10.5599    0.4220 C   0  0  0  0  0  0  0  0  0  0  0  0
   -2.8195  -13.2952   -1.0287 C   0  0  0  0  0  0  0  0  0  0  0  0
   -0.9504   -2.6469    1.3184 C   0  0  0  0  0  0  0  0  0  0  0  0
   -4.3431   -9.3326    1.2437 C   0  0  0  0  0  0  0  0  0  0  0  0
   -1.7062  -13.6582   -0.0422 C   0  0  0  0  0  0  0  0  0  0  0  0
   -2.1422   -4.9039    1.2719 C   0  0  0  0  0  0  0  0  0  0  0  0
   -2.6111   -5.9636    0.5930 C   0  0  0  0  0  0  0  0  0  0  0  0
   -5.4680   -6.3283   -0.3304 C   0  0  0  0  0  0  0  0  0  0  0  0
   -1.4589   -3.8283    0.5231 C   0  0  0  0  0  0  0  0  0  0  0  0
   -3.8863   -8.1592    0.3701 C   0  0  3  0  0  0  0  0  0  0  0  0
   -3.6648   -6.8661    1.1929 C   0  0  3  0  0  0  0  0  0  0  0  0
   -4.9874   -7.7226   -0.5930 C   0  0  0  0  0  0  0  0  0  0  0  0
   -5.0388   -6.1531    1.1170 C   0  0  3  0  0  0  0  0  0  0  0  0
   -2.0483  -14.8421    0.8245 C   0  0  0  0  0  0  0  0  0  0  0  0
   -1.3651   -3.8953   -0.7009 O   0  0  0  0  0  0  0  0  0  0  0  0
   -5.4302   -8.4072   -1.5074 O   0  0  0  0  0  0  0  0  0  0  0  0
   -5.0056   -4.7797    1.4883 O   0  0  0  0  0  0  0  0  0  0  0  0
   -1.4661  -15.9201    0.8239 O   0  0  0  0  0  0  0  0  0  0  0  0
   -3.0838  -14.6290    1.6551 O   0  0  0  0  0  0  0  0  0  0  0  0
   -3.1697  -11.7846    1.3446 H   0  0  0  0  0  0  0  0  0  0  0  0
   -5.3569  -10.5071   -0.3523 H   0  0  0  0  0  0  0  0  0  0  0  0
   -2.4201   -4.7034    2.3010 H   0  0  0  0  0  0  0  0  0  0  0  0
   -2.3895   -6.0683   -0.4704 H   0  0  0  0  0  0  0  0  0  0  0  0
    0.7091    0.0651    0.9290 H   0  0  0  0  0  0  0  0  0  0  0  0
    0.7417    0.9350   -0.5991 H   0  0  0  0  0  0  0  0  0  0  0  0
    2.1890    0.0604   -0.0438 H   0  0  0  0  0  0  0  0  0  0  0  0
   -0.4518   -1.2108   -0.9187 H   0  0  0  0  0  0  0  0  0  0  0  0
    1.0167   -1.1953   -1.8612 H   0  0  0  0  0  0  0  0  0  0  0  0
    0.8942   -3.3537   -0.7323 H   0  0  0  0  0  0  0  0  0  0  0  0
    2.2369   -2.4668   -0.0818 H   0  0  0  0  0  0  0  0  0  0  0  0
   -4.5634  -13.7016    0.2104 H   0  0  0  0  0  0  0  0  0  0  0  0
   -4.8709  -12.6447   -1.1281 H   0  0  0  0  0  0  0  0  0  0  0  0
    0.9629   -3.5472    1.7412 H   0  0  0  0  0  0  0  0  0  0  0  0
    0.9332   -1.8096    1.9272 H   0  0  0  0  0  0  0  0  0  0  0  0
   -3.0175  -14.1473   -1.6903 H   0  0  0  0  0  0  0  0  0  0  0  0
   -2.4714  -12.4762   -1.6742 H   0  0  0  0  0  0  0  0  0  0  0  0
   -1.3060   -2.6915    2.3534 H   0  0  0  0  0  0  0  0  0  0  0  0
   -1.3935   -1.7350    0.9027 H   0  0  0  0  0  0  0  0  0  0  0  0
   -3.5687   -9.5375    1.9954 H   0  0  0  0  0  0  0  0  0  0  0  0
   -5.2618   -9.0937    1.7897 H   0  0  0  0  0  0  0  0  0  0  0  0
   -0.8000  -13.9029   -0.6078 H   0  0  0  0  0  0  0  0  0  0  0  0
   -1.4303  -12.8141    0.5983 H   0  0  0  0  0  0  0  0  0  0  0  0
   -4.9528   -5.6434   -1.0123 H   0  0  0  0  0  0  0  0  0  0  0  0
   -6.5465   -6.2314   -0.4550 H   0  0  0  0  0  0  0  0  0  0  0  0
   -2.9891   -8.4287   -0.2013 H   0  0  0  0  0  0  0  0  0  0  0  0
   -3.3764   -7.0952    2.2263 H   0  0  0  0  0  0  0  0  0  0  0  0
   -5.7459   -6.6462    1.7924 H   0  0  0  0  0  0  0  0  0  0  0  0
   -4.4731   -4.2972    0.8284 H   0  0  0  0  0  0  0  0  0  0  0  0
   -3.2976  -15.4916    2.0660 H   0  0  0  0  0  0  0  0  0  0  0  0
  1 30  1  0  0  0  0
  1 31  1  0  0  0  0
  1 32  1  0  0  0  0
  2  1  1  0  0  0  0
  2 33  1  0  0  0  0
  2 34  1  0  0  0  0
  3  2  1  0  0  0  0
  3 35  1  0  0  0  0
  3 36  1  0  0  0  0
  5  4  1  0  0  0  0
  5 37  1  0  0  0  0
  5 38  1  0  0  0  0
  6  3  1  0  0  0  0
  6 39  1  0  0  0  0
  6 40  1  0  0  0  0
  7  4  2  3  0  0  0
  7 27  1  0  0  0  0
  8  5  1  0  0  0  0
  8 41  1  0  0  0  0
  8 42  1  0  0  0  0
  9  6  1  0  0  0  0
  9 43  1  0  0  0  0
  9 44  1  0  0  0  0
 10  7  1  0  0  0  0
 10 45  1  0  0  0  0
 10 46  1  0  0  0  0
 11  8  1  0  0  0  0
 11 47  1  0  0  0  0
 11 48  1  0  0  0  0
 13 12  2  0  0  0  0
 14 49  1  0  0  0  0
 14 50  1  0  0  0  0
 15  9  1  0  0  0  0
 15 12  1  0  0  0  0
 16 10  1  0  0  0  0
 16 51  1  0  0  0  0
 17 13  1  0  0  0  0
 17 16  1  0  0  0  0
 17 52  1  0  0  0  0
 18 14  1  0  0  0  0
 18 16  1  0  0  0  0
 19 14  1  0  0  0  0
 19 17  1  0  0  0  0
 19 53  1  0  0  0  0
 20 11  1  0  0  0  0
 21 15  2  0  0  0  0
 22 18  2  0  0  0  0
 23 19  1  0  0  0  0
 23 54  1  0  0  0  0
 24 20  2  0  0  0  0
 25 20  1  0  0  0  0
 25 55  1  0  0  0  0
 26  4  1  0  0  0  0
 28 12  1  0  0  0  0
 29 13  1  0  0  0  0
M  END
>  <DRUGBANK_ID>
DB07177

>  <COMMON_NAME>
(5E,13E)-11-HYDROXY-9,15-DIOXOPROSTA-5,13-DIEN-1-OIC ACID

$$$$
