
 OpenBabel10282417133D

 27 26  0  0  1  0  0  0  0  0999 V2000
    0.9706    0.1192    0.1203 N   0  0  0  0  0  0  0  0  0  0  0  0
    0.4252    0.1351   -1.2505 C   0  0  1  0  0  0  0  0  0  0  0  0
    0.9477   -1.1194   -2.0018 C   0  0  0  0  0  0  0  0  0  0  0  0
    0.5404   -2.4911   -1.4233 C   0  0  0  0  0  0  0  0  0  0  0  0
   -0.9630   -2.7419   -1.4570 C   0  0  0  0  0  0  0  0  0  0  0  0
   -1.5591   -2.5275   -2.8457 C   0  0  0  0  0  0  0  0  0  0  0  0
   -1.1364   -3.6136   -3.7130 N   0  0  0  0  0  0  0  0  0  0  0  0
   -2.0663   -4.4852   -4.2023 C   0  0  0  0  0  0  0  0  0  0  0  0
   -1.5045   -5.5293   -4.8387 O   0  0  0  0  0  0  0  0  0  0  0  0
   -3.2666   -4.3659   -4.0833 O   0  0  0  0  0  0  0  0  0  0  0  0
   -1.1256    0.3850   -1.1824 C   0  0  0  0  0  0  0  0  0  0  0  0
   -1.6048    1.2980   -2.0557 O   0  0  0  0  0  0  0  0  0  0  0  0
   -1.8993   -0.1471   -0.3984 O   0  0  0  0  0  0  0  0  0  0  0  0
    0.5939   -0.6998    0.6070 H   0  0  0  0  0  0  0  0  0  0  0  0
    1.9800   -0.0157    0.0924 H   0  0  0  0  0  0  0  0  0  0  0  0
    0.8559    1.0116   -1.7467 H   0  0  0  0  0  0  0  0  0  0  0  0
    0.6901   -1.0581   -3.0653 H   0  0  0  0  0  0  0  0  0  0  0  0
    2.0491   -1.0959   -2.0039 H   0  0  0  0  0  0  0  0  0  0  0  0
    1.0474   -3.2929   -1.9756 H   0  0  0  0  0  0  0  0  0  0  0  0
    0.8961   -2.5844   -0.3909 H   0  0  0  0  0  0  0  0  0  0  0  0
   -1.2127   -3.7396   -1.0833 H   0  0  0  0  0  0  0  0  0  0  0  0
   -1.4196   -2.1032   -0.7162 H   0  0  0  0  0  0  0  0  0  0  0  0
   -2.6490   -2.4642   -2.7812 H   0  0  0  0  0  0  0  0  0  0  0  0
   -1.2430   -1.5921   -3.3187 H   0  0  0  0  0  0  0  0  0  0  0  0
   -0.1498   -3.7864   -3.8088 H   0  0  0  0  0  0  0  0  0  0  0  0
   -0.5369   -5.5317   -4.8535 H   0  0  0  0  0  0  0  0  0  0  0  0
   -0.9498    1.9424   -2.3715 H   0  0  0  0  0  0  0  0  0  0  0  0
  1 14  1  0  0  0  0
  1 15  1  0  0  0  0
  2  1  1  0  0  0  0
  2  3  1  0  0  0  0
  2 11  1  0  0  0  0
  2 16  1  6  0  0  0
  3  4  1  0  0  0  0
  3 17  1  0  0  0  0
  3 18  1  0  0  0  0
  4  5  1  0  0  0  0
  4 19  1  0  0  0  0
  4 20  1  0  0  0  0
  5  6  1  0  0  0  0
  5 21  1  0  0  0  0
  5 22  1  0  0  0  0
  6  7  1  0  0  0  0
  6 23  1  0  0  0  0
  6 24  1  0  0  0  0
  7  8  1  0  0  0  0
  7 25  1  0  0  0  0
  8  9  1  0  0  0  0
  8 10  2  0  0  0  0
  9 26  1  0  0  0  0
 11 12  1  0  0  0  0
 11 13  2  0  0  0  0
 12 27  1  0  0  0  0
M  END
>  <DRUGBANK_ID>
DB03801

>  <SECONDARY_ACCESSION_NUMBERS>
EXPT01965

>  <COMMON_NAME>
Lysine Nz-Carboxylic Acid

>  <UNII>
J9ET8AZ2P7

$$$$
