
 OpenBabel10282417233D

 24 24  0  0  0  0  0  0  0  0999 V2000
    0.9330   -0.0550    0.0039 C   0  0  0  0  0  0  0  0  0  0  0  0
    1.9937    0.2094    4.0324 C   0  0  0  0  0  0  0  0  0  0  0  0
    4.4334   -2.6292    6.1372 C   0  0  0  0  0  0  0  0  0  0  0  0
    4.8081   -2.2351    4.8500 C   0  0  0  0  0  0  0  0  0  0  0  0
    1.6362    0.1323    2.7401 C   0  0  0  0  0  0  0  0  0  0  0  0
    2.4871   -1.1965    5.9954 C   0  0  0  0  0  0  0  0  0  0  0  0
    2.8451   -0.7921    4.7004 C   0  0  0  0  0  0  0  0  0  0  0  0
    3.2695   -2.1131    6.6956 C   0  0  0  0  0  0  0  0  0  0  0  0
    4.0171   -1.3270    4.1377 C   0  0  0  0  0  0  0  0  0  0  0  0
    0.7887    1.1765    2.1284 C   0  0  0  0  0  0  0  0  0  0  0  0
    2.8460   -2.4794    7.9399 O   0  0  0  0  0  0  0  0  0  0  0  0
    4.3971   -0.9538    2.8745 O   0  0  0  0  0  0  0  0  0  0  0  0
    0.3723    2.1337    2.7736 O   0  0  0  0  0  0  0  0  0  0  0  0
    0.4784    1.0386    0.8140 O   0  0  0  0  0  0  0  0  0  0  0  0
    1.6457    1.0311    4.6562 H   0  0  0  0  0  0  0  0  0  0  0  0
    1.9764   -0.6963    2.1397 H   0  0  0  0  0  0  0  0  0  0  0  0
    0.5373    0.0845   -1.0062 H   0  0  0  0  0  0  0  0  0  0  0  0
    0.5468   -1.0013    0.3931 H   0  0  0  0  0  0  0  0  0  0  0  0
    2.0252   -0.0564   -0.0546 H   0  0  0  0  0  0  0  0  0  0  0  0
    5.0568   -3.3314    6.6824 H   0  0  0  0  0  0  0  0  0  0  0  0
    5.7180   -2.6415    4.4184 H   0  0  0  0  0  0  0  0  0  0  0  0
    1.5871   -0.8088    6.4671 H   0  0  0  0  0  0  0  0  0  0  0  0
    3.4640   -3.1262    8.3176 H   0  0  0  0  0  0  0  0  0  0  0  0
    5.2299   -1.3960    2.6441 H   0  0  0  0  0  0  0  0  0  0  0  0
  1 17  1  0  0  0  0
  1 18  1  0  0  0  0
  1 19  1  0  0  0  0
  3 20  1  0  0  0  0
  4  3  1  0  0  0  0
  4 21  1  0  0  0  0
  5  2  2  0  0  0  0
  6 22  1  0  0  0  0
  7  2  1  0  0  0  0
  7  6  2  0  0  0  0
  8  3  2  0  0  0  0
  8  6  1  0  0  0  0
  9  4  2  0  0  0  0
  9  7  1  0  0  0  0
 10  5  1  0  0  0  0
 11  8  1  0  0  0  0
 11 23  1  0  0  0  0
 12  9  1  0  0  0  0
 12 24  1  0  0  0  0
 13 10  2  0  0  0  0
 14  1  1  0  0  0  0
 14 10  1  0  0  0  0
 15  2  1  0  0  0  0
 16  5  1  0  0  0  0
M  END
>  <DRUGBANK_ID>
DB16769

>  <COMMON_NAME>
Methyl 2,5-dihydroxycinnamate

>  <CAS_NUMBER>
63177-57-1

>  <UNII>
6LF2DGK4XM

>  <SYNONYMS>
2,4-Dihydroxymethylcinnamate; Methyl-2,5-dihydroxycinnamate

$$$$
