
 OpenBabel10282417123D

 14 13  0  0  0  0  0  0  0  0999 V2000
    0.9048   -0.0954   -0.0429 C   0  0  0  0  0  0  0  0  0  0  0  0
    0.5322    0.9323    1.0118 C   0  0  0  0  0  0  0  0  0  0  0  0
    1.1142    2.5934    0.6235 S   0  0  0  0  0  0  0  0  0  0  0  0
    2.8537    2.5589    0.6513 C   0  0  0  0  0  0  0  0  0  0  0  0
    3.5470    1.4548    0.9958 N   0  0  0  0  0  0  0  0  0  0  0  0
    3.4412    3.6527    0.3276 N   0  0  0  0  0  0  0  0  0  0  0  0
    0.5024    0.1754   -1.0235 H   0  0  0  0  0  0  0  0  0  0  0  0
    0.4980   -1.0733    0.2334 H   0  0  0  0  0  0  0  0  0  0  0  0
    1.9826   -0.2244   -0.1520 H   0  0  0  0  0  0  0  0  0  0  0  0
   -0.5630    0.9844    1.0587 H   0  0  0  0  0  0  0  0  0  0  0  0
    0.8707    0.6320    2.0082 H   0  0  0  0  0  0  0  0  0  0  0  0
    4.5527    1.4338    0.9188 H   0  0  0  0  0  0  0  0  0  0  0  0
    3.0973    0.5982    1.2685 H   0  0  0  0  0  0  0  0  0  0  0  0
    4.4520    3.5367    0.3823 H   0  0  0  0  0  0  0  0  0  0  0  0
  1  2  1  0  0  0  0
  1  7  1  0  0  0  0
  1  8  1  0  0  0  0
  1  9  1  0  0  0  0
  2  3  1  0  0  0  0
  2 10  1  0  0  0  0
  2 11  1  0  0  0  0
  3  4  1  0  0  0  0
  4  5  1  0  0  0  0
  4  6  2  0  0  0  0
  5 12  1  0  0  0  0
  5 13  1  0  0  0  0
  6 14  1  0  0  0  0
M  END
>  <DRUGBANK_ID>
DB02234

>  <SECONDARY_ACCESSION_NUMBERS>
EXPT01944; EXPT02886; DB02539

>  <COMMON_NAME>
S-Ethylisothiourea

>  <CAS_NUMBER>
2986-20-1

>  <UNII>
236P47H4VR

>  <SYNONYMS>
2-Ethyl-2-thiopseudourea; CARBAMIMIDOTHIOIC ACID, ETHYL ESTER; Ethyron; Etiron; S-ETHYLISOTHIOURONIUM

$$$$
