
 OpenBabel10282417143D

 42 41  0  0  1  0  0  0  0  0999 V2000
    1.1534   -1.5220   -1.8627 C   0  0  0  0  0  0  0  0  0  0  0  0
   -5.1428   -5.1114    3.5005 C   0  0  0  0  0  0  0  0  0  0  0  0
   -1.6708   -0.7500    3.4743 C   0  0  0  0  0  0  0  0  0  0  0  0
   -9.4724   -4.7844    3.4800 C   0  0  0  0  0  0  0  0  0  0  0  0
    0.9735    0.0386    0.0950 C   0  0  0  0  0  0  0  0  0  0  0  0
   -6.3243   -2.8871    2.9493 C   0  0  0  0  0  0  0  0  0  0  0  0
   -2.1440   -2.5275    1.7286 C   0  0  0  0  0  0  0  0  0  0  0  0
    0.5367   -0.2305   -1.3444 C   0  0  2  0  0  0  0  0  0  0  0  0
   -5.1876   -3.5952    3.6971 C   0  0  2  0  0  0  0  0  0  0  0  0
   -2.0526   -1.0350    2.0284 C   0  0  2  0  0  0  0  0  0  0  0  0
   -7.7563   -3.1653    3.3602 C   0  0  0  0  0  0  0  0  0  0  0  0
    0.1813   -0.7460    1.1037 C   0  0  0  0  0  0  0  0  0  0  0  0
   -3.5032   -3.1126    2.0082 C   0  0  0  0  0  0  0  0  0  0  0  0
   -0.8739   -0.2526   -1.5246 O   0  0  0  0  0  0  0  0  0  0  0  0
   -8.5518   -2.2759    3.6415 O   0  0  0  0  0  0  0  0  0  0  0  0
    0.6641   -1.6482    1.7826 O   0  0  0  0  0  0  0  0  0  0  0  0
   -4.1573   -3.6613    1.1284 O   0  0  0  0  0  0  0  0  0  0  0  0
   -8.0903   -4.4778    3.2511 O   0  0  0  0  0  0  0  0  0  0  0  0
   -1.1252   -0.3604    1.1323 O   0  0  0  0  0  0  0  0  0  0  0  0
   -3.8915   -3.0130    3.3131 O   0  0  0  0  0  0  0  0  0  0  0  0
    0.8991    0.5886   -1.9752 H   0  0  0  0  0  0  0  0  0  0  0  0
   -5.2918   -3.3903    4.7733 H   0  0  0  0  0  0  0  0  0  0  0  0
   -3.0296   -0.5726    1.8309 H   0  0  0  0  0  0  0  0  0  0  0  0
    2.2205   -1.3630   -2.0508 H   0  0  0  0  0  0  0  0  0  0  0  0
    0.6771   -1.8589   -2.7877 H   0  0  0  0  0  0  0  0  0  0  0  0
    1.0585   -2.3316   -1.1315 H   0  0  0  0  0  0  0  0  0  0  0  0
   -6.0501   -5.4926    3.0343 H   0  0  0  0  0  0  0  0  0  0  0  0
   -4.3026   -5.4321    2.8804 H   0  0  0  0  0  0  0  0  0  0  0  0
   -5.0342   -5.6209    4.4635 H   0  0  0  0  0  0  0  0  0  0  0  0
   -1.7620    0.3196    3.6833 H   0  0  0  0  0  0  0  0  0  0  0  0
   -2.2975   -1.3026    4.1755 H   0  0  0  0  0  0  0  0  0  0  0  0
   -0.6317   -1.0202    3.6767 H   0  0  0  0  0  0  0  0  0  0  0  0
   -9.7693   -4.4946    4.4923 H   0  0  0  0  0  0  0  0  0  0  0  0
  -10.1083   -4.2965    2.7337 H   0  0  0  0  0  0  0  0  0  0  0  0
   -9.6047   -5.8671    3.3816 H   0  0  0  0  0  0  0  0  0  0  0  0
    2.0280   -0.2481    0.2124 H   0  0  0  0  0  0  0  0  0  0  0  0
    0.9185    1.1026    0.3463 H   0  0  0  0  0  0  0  0  0  0  0  0
   -6.1660   -1.8056    3.0605 H   0  0  0  0  0  0  0  0  0  0  0  0
   -6.2671   -3.0827    1.8772 H   0  0  0  0  0  0  0  0  0  0  0  0
   -1.9584   -2.6878    0.6572 H   0  0  0  0  0  0  0  0  0  0  0  0
   -1.3839   -3.1079    2.2593 H   0  0  0  0  0  0  0  0  0  0  0  0
   -1.2692   -0.8741   -0.8877 H   0  0  0  0  0  0  0  0  0  0  0  0
  1 24  1  0  0  0  0
  1 25  1  0  0  0  0
  1 26  1  0  0  0  0
  2 27  1  0  0  0  0
  2 28  1  0  0  0  0
  2 29  1  0  0  0  0
  3 30  1  0  0  0  0
  3 31  1  0  0  0  0
  3 32  1  0  0  0  0
  4 33  1  0  0  0  0
  4 34  1  0  0  0  0
  4 35  1  0  0  0  0
  5 36  1  0  0  0  0
  5 37  1  0  0  0  0
  6 38  1  0  0  0  0
  6 39  1  0  0  0  0
  7 40  1  0  0  0  0
  7 41  1  0  0  0  0
  8 14  1  0  0  0  0
  8 21  1  6  0  0  0
  8  5  1  0  0  0  0
  8  1  1  0  0  0  0
  9 22  1  1  0  0  0
  9  6  1  0  0  0  0
  9  2  1  0  0  0  0
 10 23  1  6  0  0  0
 10  7  1  0  0  0  0
 10  3  1  0  0  0  0
 11  6  1  0  0  0  0
 12  5  1  0  0  0  0
 13  7  1  0  0  0  0
 14 42  1  0  0  0  0
 15 11  2  0  0  0  0
 16 12  2  0  0  0  0
 17 13  2  0  0  0  0
 18  4  1  0  0  0  0
 18 11  1  0  0  0  0
 19 10  1  0  0  0  0
 19 12  1  0  0  0  0
 20  9  1  0  0  0  0
 20 13  1  0  0  0  0
M  END
>  <DRUGBANK_ID>
DB04773

>  <COMMON_NAME>
METHYL (3R)-3-{[(3R)-3-{[(3R)-3-HYDROXYBUTANOYL]OXY}BUTANOYL]OXY}BUTANOATE

$$$$
