
 OpenBabel10282417193D

 62 64  0  0  0  0  0  0  0  0999 V2000
    2.4451   -0.1186    0.2910 C   0  0  0  0  0  0  0  0  0  0  0  0
    0.9468   -0.0908    0.5888 C   0  0  0  0  0  0  0  0  0  0  0  0
    0.2071   -1.2851    0.7719 C   0  0  0  0  0  0  0  0  0  0  0  0
   -1.1896   -1.1315    0.6743 C   0  0  0  0  0  0  0  0  0  0  0  0
   -1.8096    0.0969    0.3743 C   0  0  0  0  0  0  0  0  0  0  0  0
   -1.0236    1.2251    0.3388 C   0  0  0  0  0  0  0  0  0  0  0  0
    0.3345    1.1544    0.4819 N   0  0  0  0  0  0  0  0  0  0  0  0
   -1.7624    2.9023    0.2563 S   0  0  0  0  0  0  0  0  0  0  0  0
   -1.5326    3.5374    1.5120 O   0  0  0  0  0  0  0  0  0  0  0  0
   -1.3884    3.6021   -0.9914 O   0  0  0  0  0  0  0  0  0  0  0  0
   -3.5170    2.6539    0.0936 C   0  0  0  0  0  0  0  0  0  0  0  0
    0.8057   -2.6002    0.9918 N   0  0  0  0  0  0  0  0  0  0  0  0
    0.1859   -3.8787    0.6872 C   0  0  0  0  0  0  0  0  0  0  0  0
   -0.4032   -4.0878   -0.5463 C   0  0  0  0  0  0  0  0  0  0  0  0
   -1.2940   -5.1477   -0.7810 C   0  0  0  0  0  0  0  0  0  0  0  0
   -1.3478   -6.1150    0.1489 N   0  0  0  0  0  0  0  0  0  0  0  0
   -0.5516   -5.9474    1.2343 C   0  0  0  0  0  0  0  0  0  0  0  0
    0.2056   -4.8759    1.5577 N   0  0  0  0  0  0  0  0  0  0  0  0
   -2.1505   -5.3758   -1.8467 O   0  0  0  0  0  0  0  0  0  0  0  0
   -2.5864   -4.5799   -3.0060 C   0  0  0  0  0  0  0  0  0  0  0  0
   -1.5607   -4.4590   -4.1463 C   0  0  0  0  0  0  0  0  0  0  0  0
   -0.5549   -3.4369   -3.7866 C   0  0  0  0  0  0  0  0  0  0  0  0
   -1.2652   -2.0944   -3.2549 N   0  0  0  0  0  0  0  0  0  0  0  0
   -2.3730   -2.2174   -2.2427 C   0  0  0  0  0  0  0  0  0  0  0  0
   -3.3354   -3.2660   -2.6965 C   0  0  0  0  0  0  0  0  0  0  0  0
   -0.5609   -0.8700   -3.4229 C   0  0  0  0  0  0  0  0  0  0  0  0
    0.4461   -0.8266   -4.1350 O   0  0  0  0  0  0  0  0  0  0  0  0
   -0.9048    0.2036   -2.6314 O   0  0  0  0  0  0  0  0  0  0  0  0
   -0.1398    1.4480   -2.8344 C   0  0  0  0  0  0  0  0  0  0  0  0
    1.3023    1.5846   -2.3317 C   0  0  0  0  0  0  0  0  0  0  0  0
   -0.1783    1.8523   -4.2867 C   0  0  0  0  0  0  0  0  0  0  0  0
   -0.1578   -3.1988   -1.4821 O   0  0  0  0  0  0  0  0  0  0  0  0
    0.9343   -2.3436   -1.7046 C   0  0  0  0  0  0  0  0  0  0  0  0
    2.7264    0.3384   -0.6665 H   0  0  0  0  0  0  0  0  0  0  0  0
    2.9814    0.4207    1.0668 H   0  0  0  0  0  0  0  0  0  0  0  0
    2.8581   -1.1249    0.1930 H   0  0  0  0  0  0  0  0  0  0  0  0
   -1.8259   -2.0080    0.7271 H   0  0  0  0  0  0  0  0  0  0  0  0
   -2.8728    0.1206    0.1731 H   0  0  0  0  0  0  0  0  0  0  0  0
   -3.7538    2.1306   -0.8368 H   0  0  0  0  0  0  0  0  0  0  0  0
   -3.8700    2.0971    0.9618 H   0  0  0  0  0  0  0  0  0  0  0  0
   -4.0021    3.6346    0.0703 H   0  0  0  0  0  0  0  0  0  0  0  0
    1.6840   -2.6381    0.4747 H   0  0  0  0  0  0  0  0  0  0  0  0
   -0.5249   -6.7542    1.9570 H   0  0  0  0  0  0  0  0  0  0  0  0
   -3.3668   -5.1914   -3.4807 H   0  0  0  0  0  0  0  0  0  0  0  0
   -1.0702   -5.4304   -4.3149 H   0  0  0  0  0  0  0  0  0  0  0  0
   -1.9707   -4.0959   -5.0869 H   0  0  0  0  0  0  0  0  0  0  0  0
    0.0336   -4.0774   -3.0984 H   0  0  0  0  0  0  0  0  0  0  0  0
    0.2673   -3.2322   -4.4843 H   0  0  0  0  0  0  0  0  0  0  0  0
   -2.8191   -1.2530   -1.9790 H   0  0  0  0  0  0  0  0  0  0  0  0
   -2.0962   -2.5846   -1.2584 H   0  0  0  0  0  0  0  0  0  0  0  0
   -3.8168   -2.8460   -3.5857 H   0  0  0  0  0  0  0  0  0  0  0  0
   -4.1056   -3.4407   -1.9354 H   0  0  0  0  0  0  0  0  0  0  0  0
   -0.7058    2.2048   -2.3212 H   0  0  0  0  0  0  0  0  0  0  0  0
    1.9436    0.7647   -2.6545 H   0  0  0  0  0  0  0  0  0  0  0  0
    1.7549    2.5386   -2.6299 H   0  0  0  0  0  0  0  0  0  0  0  0
    1.3785    1.6700   -1.2605 H   0  0  0  0  0  0  0  0  0  0  0  0
   -1.2063    1.7807   -4.6402 H   0  0  0  0  0  0  0  0  0  0  0  0
    0.2219    2.8576   -4.4214 H   0  0  0  0  0  0  0  0  0  0  0  0
    0.4429    1.1902   -4.8876 H   0  0  0  0  0  0  0  0  0  0  0  0
    0.5788   -1.3468   -1.4754 H   0  0  0  0  0  0  0  0  0  0  0  0
    1.8994   -2.6311   -1.3384 H   0  0  0  0  0  0  0  0  0  0  0  0
    1.1472   -2.3249   -2.7600 H   0  0  0  0  0  0  0  0  0  0  0  0
  1  2  1  0  0  0  0
  1 34  1  0  0  0  0
  1 35  1  0  0  0  0
  1 36  1  0  0  0  0
  2  3  2  0  0  0  0
  2  7  1  0  0  0  0
  3  4  1  0  0  0  0
  3 12  1  0  0  0  0
  4  5  2  0  0  0  0
  4 37  1  0  0  0  0
  5  6  1  0  0  0  0
  5 38  1  0  0  0  0
  6  7  2  0  0  0  0
  6  8  1  0  0  0  0
  8  9  2  0  0  0  0
  8 10  2  0  0  0  0
  8 11  1  0  0  0  0
 11 39  1  0  0  0  0
 11 40  1  0  0  0  0
 11 41  1  0  0  0  0
 12 13  1  0  0  0  0
 12 42  1  0  0  0  0
 13 14  2  0  0  0  0
 13 18  1  0  0  0  0
 14 15  1  0  0  0  0
 14 32  1  0  0  0  0
 15 16  2  0  0  0  0
 15 19  1  0  0  0  0
 16 17  1  0  0  0  0
 17 18  2  0  0  0  0
 17 43  1  0  0  0  0
 19 20  1  0  0  0  0
 20 21  1  0  0  0  0
 20 25  1  0  0  0  0
 20 44  1  0  0  0  0
 21 22  1  0  0  0  0
 21 45  1  0  0  0  0
 21 46  1  0  0  0  0
 22 23  1  0  0  0  0
 22 47  1  0  0  0  0
 22 48  1  0  0  0  0
 23 24  1  0  0  0  0
 23 26  1  0  0  0  0
 24 25  1  0  0  0  0
 24 49  1  0  0  0  0
 24 50  1  0  0  0  0
 25 51  1  0  0  0  0
 25 52  1  0  0  0  0
 26 27  2  0  0  0  0
 26 28  1  0  0  0  0
 28 29  1  0  0  0  0
 29 30  1  0  0  0  0
 29 31  1  0  0  0  0
 29 53  1  0  0  0  0
 30 54  1  0  0  0  0
 30 55  1  0  0  0  0
 30 56  1  0  0  0  0
 31 57  1  0  0  0  0
 31 58  1  0  0  0  0
 31 59  1  0  0  0  0
 32 33  1  0  0  0  0
 33 60  1  0  0  0  0
 33 61  1  0  0  0  0
 33 62  1  0  0  0  0
M  END
>  <DRUGBANK_ID>
DB12084

>  <COMMON_NAME>
ADP-597

>  <CAS_NUMBER>
897732-93-3

>  <UNII>
345354O7AT

$$$$
