NC6
 OpenBabel10282417173D

 42 42  0  0  0  0  0  0  0  0999 V2000
   -1.4332    0.3265   -0.2931 C   0  0  0  0  0  0  0  0  0  0  0  0
   -1.6242    0.3557   -1.7467 N   0  0  0  0  0  0  0  0  0  0  0  0
   -2.8482    0.6372   -2.2918 C   0  0  0  0  0  0  0  0  0  0  0  0
   -2.8649    0.6277   -3.6584 N   0  0  0  0  0  0  0  0  0  0  0  0
   -4.0852    0.9398   -4.3866 C   0  0  0  0  0  0  0  0  0  0  0  0
   -3.9050    2.1502   -5.2992 C   0  0  0  0  0  0  0  0  0  0  0  0
   -2.8714    1.8905   -6.3996 C   0  0  0  0  0  0  0  0  0  0  0  0
   -3.2935    0.7741   -7.3670 C   0  0  0  0  0  0  0  0  0  0  0  0
   -4.6121    1.0568   -8.0929 C   0  0  0  0  0  0  0  0  0  0  0  0
   -3.8436    0.8769   -1.6197 O   0  0  0  0  0  0  0  0  0  0  0  0
   -4.5341    2.3134   -8.9335 C   0  0  0  0  0  0  0  0  0  0  0  0
   -4.7289    2.1208  -10.2517 O   0  0  0  0  0  0  0  0  0  0  0  0
   -4.3184    3.4308   -8.4799 O   0  0  0  0  0  0  0  0  0  0  0  0
   -0.9954   -1.0618    0.1891 C   0  0  0  0  0  0  0  0  0  0  0  0
    0.4314   -1.3949   -0.2415 C   0  0  0  0  0  0  0  0  0  0  0  0
    1.4177   -0.3279    0.2256 C   0  0  0  0  0  0  0  0  0  0  0  0
    1.0007    1.0648   -0.2402 C   0  0  0  0  0  0  0  0  0  0  0  0
   -0.4329    1.3923    0.1734 C   0  0  0  0  0  0  0  0  0  0  0  0
   -2.3957    0.5507    0.1810 H   0  0  0  0  0  0  0  0  0  0  0  0
   -0.8348    0.1862   -2.3509 H   0  0  0  0  0  0  0  0  0  0  0  0
   -2.0296    0.3943   -4.1731 H   0  0  0  0  0  0  0  0  0  0  0  0
   -4.3737    0.0490   -4.9532 H   0  0  0  0  0  0  0  0  0  0  0  0
   -4.9082    1.1384   -3.6937 H   0  0  0  0  0  0  0  0  0  0  0  0
   -4.8730    2.4178   -5.7400 H   0  0  0  0  0  0  0  0  0  0  0  0
   -3.5996    3.0229   -4.7104 H   0  0  0  0  0  0  0  0  0  0  0  0
   -2.6841    2.8183   -6.9478 H   0  0  0  0  0  0  0  0  0  0  0  0
   -1.9031    1.6399   -5.9535 H   0  0  0  0  0  0  0  0  0  0  0  0
   -2.4933    0.6131   -8.0979 H   0  0  0  0  0  0  0  0  0  0  0  0
   -3.3834   -0.1722   -6.8188 H   0  0  0  0  0  0  0  0  0  0  0  0
   -4.8746    0.1930   -8.7132 H   0  0  0  0  0  0  0  0  0  0  0  0
   -5.4452    1.1706   -7.3904 H   0  0  0  0  0  0  0  0  0  0  0  0
   -4.9380    1.2065  -10.5128 H   0  0  0  0  0  0  0  0  0  0  0  0
   -1.0440   -1.0858    1.2866 H   0  0  0  0  0  0  0  0  0  0  0  0
   -1.6849   -1.8314   -0.1751 H   0  0  0  0  0  0  0  0  0  0  0  0
    0.7220   -2.3699    0.1649 H   0  0  0  0  0  0  0  0  0  0  0  0
    0.4754   -1.4793   -1.3335 H   0  0  0  0  0  0  0  0  0  0  0  0
    1.4811   -0.3435    1.3212 H   0  0  0  0  0  0  0  0  0  0  0  0
    2.4187   -0.5593   -0.1547 H   0  0  0  0  0  0  0  0  0  0  0  0
    1.6849    1.8122    0.1770 H   0  0  0  0  0  0  0  0  0  0  0  0
    1.0895    1.1260   -1.3309 H   0  0  0  0  0  0  0  0  0  0  0  0
   -0.7145    2.3796   -0.2093 H   0  0  0  0  0  0  0  0  0  0  0  0
   -0.4723    1.4549    1.2699 H   0  0  0  0  0  0  0  0  0  0  0  0
  1  2  1  0  0  0  0
  1 14  1  0  0  0  0
  1 18  1  0  0  0  0
  1 19  1  0  0  0  0
  2  3  1  0  0  0  0
  2 20  1  0  0  0  0
  3  4  1  0  0  0  0
  3 10  2  0  0  0  0
  4  5  1  0  0  0  0
  4 21  1  0  0  0  0
  5  6  1  0  0  0  0
  5 22  1  0  0  0  0
  5 23  1  0  0  0  0
  6  7  1  0  0  0  0
  6 24  1  0  0  0  0
  6 25  1  0  0  0  0
  7  8  1  0  0  0  0
  7 26  1  0  0  0  0
  7 27  1  0  0  0  0
  8  9  1  0  0  0  0
  8 28  1  0  0  0  0
  8 29  1  0  0  0  0
  9 11  1  0  0  0  0
  9 30  1  0  0  0  0
  9 31  1  0  0  0  0
 11 12  1  0  0  0  0
 11 13  2  0  0  0  0
 12 32  1  0  0  0  0
 14 15  1  0  0  0  0
 14 33  1  0  0  0  0
 14 34  1  0  0  0  0
 15 16  1  0  0  0  0
 15 35  1  0  0  0  0
 15 36  1  0  0  0  0
 16 17  1  0  0  0  0
 16 37  1  0  0  0  0
 16 38  1  0  0  0  0
 17 18  1  0  0  0  0
 17 39  1  0  0  0  0
 17 40  1  0  0  0  0
 18 41  1  0  0  0  0
 18 42  1  0  0  0  0
M  END
>  <DRUGBANK_ID>
DB08258

>  <COMMON_NAME>
6-{[(CYCLOHEXYLAMINO)CARBONYL]AMINO}HEXANOIC ACID

>  <UNII>
BCV85A2H3R

$$$$
