
 OpenBabel10282417143D

 90 93  0  0  0  0  0  0  0  0999 V2000
    0.5278    0.1049    0.6998 C   0  0  0  0  0  0  0  0  0  0  0  0
    0.3170   -1.3922    0.9358 C   0  0  0  0  0  0  0  0  0  0  0  0
   -0.3457   -1.7273    1.9209 O   0  0  0  0  0  0  0  0  0  0  0  0
    0.9035   -2.4233    0.0764 N   0  0  0  0  0  0  0  0  0  0  0  0
    1.7370   -2.6749   -1.0904 C   0  0  0  0  0  0  0  0  0  0  0  0
    1.9905   -3.8729   -1.4932 N   0  0  0  0  0  0  0  0  0  0  0  0
    2.3274   -1.7236   -1.8541 N   0  0  0  0  0  0  0  0  0  0  0  0
    2.1807   -0.3788   -1.5441 C   0  0  0  0  0  0  0  0  0  0  0  0
    3.3262    0.3022   -0.8656 C   0  0  0  0  0  0  0  0  0  0  0  0
    4.1327    0.8925   -1.9404 C   0  0  0  0  0  0  0  0  0  0  0  0
    3.2214    1.7126   -2.8830 C   0  0  2  0  0  0  0  0  0  0  0  0
    3.4991    1.2254   -4.1988 N   0  0  0  0  0  0  0  0  0  0  0  0
    4.7708    1.5044   -4.5665 C   0  0  0  0  0  0  0  0  0  0  0  0
    5.6096    1.9394   -3.7524 O   0  0  0  0  0  0  0  0  0  0  0  0
    5.0730    1.2788   -5.9931 C   0  0  2  0  0  0  0  0  0  0  0  0
    5.2432   -0.2911   -6.2387 C   0  0  0  0  0  0  0  0  0  0  0  0
    6.2074   -0.5978   -7.3377 C   0  0  0  0  0  0  0  0  0  0  0  0
    7.3503    0.2135   -6.9323 C   0  0  0  0  0  0  0  0  0  0  0  0
    7.8788   -0.1104   -5.3697 C   0  0  0  0  0  0  0  0  0  0  0  0
    9.0668   -0.7491   -5.2537 O   0  0  0  0  0  0  0  0  0  0  0  0
    7.2720    0.1625   -4.2873 O   0  0  0  0  0  0  0  0  0  0  0  0
    6.1756    2.2976   -6.0615 N   0  0  0  0  0  0  0  0  0  0  0  0
    5.9634    3.5449   -6.5717 C   0  0  0  0  0  0  0  0  0  0  0  0
    4.8192    3.8519   -6.9167 O   0  0  0  0  0  0  0  0  0  0  0  0
    7.1513    4.5823   -6.6498 C   0  0  2  0  0  0  0  0  0  0  0  0
    8.6675    3.9296   -6.4849 C   0  0  0  0  0  0  0  0  0  0  0  0
    9.2329    2.6509   -7.0787 C   0  0  0  0  0  0  0  0  0  0  0  0
    9.7307    1.6639   -6.2504 C   0  0  0  0  0  0  0  0  0  0  0  0
   10.0010    0.5675   -7.0517 N   0  0  0  0  0  0  0  0  0  0  0  0
    9.7665    0.9768   -8.3484 C   0  0  0  0  0  0  0  0  0  0  0  0
    9.3648    2.2401   -8.3847 N   0  0  0  0  0  0  0  0  0  0  0  0
    6.9293    6.1226   -5.7768 N   0  0  0  0  0  0  0  0  0  0  0  0
    7.2595    5.7745   -4.5266 C   0  0  2  0  0  0  0  0  0  0  0  0
    8.3591    5.0101   -4.2571 O   0  0  0  0  0  0  0  0  0  0  0  0
    5.8009    5.1118   -4.4658 C   0  0  0  0  0  0  0  0  0  0  0  0
    5.2063    6.0628   -3.5929 C   0  0  2  0  0  0  0  0  0  0  0  0
    3.8171    6.4335   -3.5203 N   0  0  0  0  0  0  0  0  0  0  0  0
    2.9159    6.1660   -2.5191 C   0  0  0  0  0  0  0  0  0  0  0  0
    1.7548    6.5338   -2.6235 O   0  0  0  0  0  0  0  0  0  0  0  0
    3.4054    5.2881   -1.3601 C   0  0  1  0  0  0  0  0  0  0  0  0
    2.6922    5.6438   -0.0475 C   0  0  0  0  0  0  0  0  0  0  0  0
    2.0116    4.3815    0.4381 C   0  0  0  0  0  0  0  0  0  0  0  0
    2.5856    3.2889   -0.4118 C   0  0  0  0  0  0  0  0  0  0  0  0
    3.1003    3.8849   -1.5941 N   0  0  0  0  0  0  0  0  0  0  0  0
    3.3502    3.2513   -2.8081 C   0  0  0  0  0  0  0  0  0  0  0  0
    3.5036    3.8551   -3.8264 O   0  0  0  0  0  0  0  0  0  0  0  0
    5.9206    7.0015   -4.6586 C   0  0  0  0  0  0  0  0  0  0  0  0
    6.2131    8.1392   -4.2122 O   0  0  0  0  0  0  0  0  0  0  0  0
    0.0921    0.8617    1.3445 H   0  0  0  0  0  0  0  0  0  0  0  0
    0.1474    0.3642   -0.3017 H   0  0  0  0  0  0  0  0  0  0  0  0
    1.5948    0.2590    0.8914 H   0  0  0  0  0  0  0  0  0  0  0  0
    0.6195   -3.3047    0.4807 H   0  0  0  0  0  0  0  0  0  0  0  0
    1.5636   -4.5965   -0.9288 H   0  0  0  0  0  0  0  0  0  0  0  0
    2.9028   -1.9911   -2.6436 H   0  0  0  0  0  0  0  0  0  0  0  0
    1.4418    0.1639   -2.1354 H   0  0  0  0  0  0  0  0  0  0  0  0
    1.6168   -0.5371   -0.7139 H   0  0  0  0  0  0  0  0  0  0  0  0
    2.9466    1.0795   -0.2269 H   0  0  0  0  0  0  0  0  0  0  0  0
    3.8983   -0.3158   -0.1695 H   0  0  0  0  0  0  0  0  0  0  0  0
    4.9762    1.4592   -1.5373 H   0  0  0  0  0  0  0  0  0  0  0  0
    4.5560    0.0120   -2.4543 H   0  0  0  0  0  0  0  0  0  0  0  0
    2.1454    1.6085   -2.8136 H   0  0  0  0  0  0  0  0  0  0  0  0
    2.7916    0.9674   -4.8796 H   0  0  0  0  0  0  0  0  0  0  0  0
    4.2963    1.6131   -6.6751 H   0  0  0  0  0  0  0  0  0  0  0  0
    5.5773   -0.8190   -5.3369 H   0  0  0  0  0  0  0  0  0  0  0  0
    4.3040   -0.7954   -6.4694 H   0  0  0  0  0  0  0  0  0  0  0  0
    6.6330   -1.6002   -7.4304 H   0  0  0  0  0  0  0  0  0  0  0  0
    5.8387   -0.2701   -8.3210 H   0  0  0  0  0  0  0  0  0  0  0  0
    7.9788    0.0893   -7.7762 H   0  0  0  0  0  0  0  0  0  0  0  0
    7.1160    1.2275   -7.2522 H   0  0  0  0  0  0  0  0  0  0  0  0
    9.7827   -0.2173   -4.8010 H   0  0  0  0  0  0  0  0  0  0  0  0
    7.0085    2.1450   -5.4899 H   0  0  0  0  0  0  0  0  0  0  0  0
    7.1360    4.8464   -7.7075 H   0  0  0  0  0  0  0  0  0  0  0  0
    9.4441    4.6911   -6.6246 H   0  0  0  0  0  0  0  0  0  0  0  0
    8.7488    3.6031   -5.4410 H   0  0  0  0  0  0  0  0  0  0  0  0
    9.5825    1.6379   -5.1699 H   0  0  0  0  0  0  0  0  0  0  0  0
    9.7461   -0.3903   -6.7722 H   0  0  0  0  0  0  0  0  0  0  0  0
    9.5845    0.2071   -9.1034 H   0  0  0  0  0  0  0  0  0  0  0  0
    7.7862    6.7736   -4.4635 H   0  0  0  0  0  0  0  0  0  0  0  0
    9.0445    5.4933   -4.7609 H   0  0  0  0  0  0  0  0  0  0  0  0
    5.8263    4.0775   -4.2093 H   0  0  0  0  0  0  0  0  0  0  0  0
    5.0661    5.2336   -5.3280 H   0  0  0  0  0  0  0  0  0  0  0  0
    5.5674    5.5640   -2.6824 H   0  0  0  0  0  0  0  0  0  0  0  0
    3.4101    6.9020   -4.3173 H   0  0  0  0  0  0  0  0  0  0  0  0
    4.4736    5.3852   -1.1628 H   0  0  0  0  0  0  0  0  0  0  0  0
    1.9571    6.4430   -0.1631 H   0  0  0  0  0  0  0  0  0  0  0  0
    3.4254    5.9824    0.6926 H   0  0  0  0  0  0  0  0  0  0  0  0
    0.9281    4.4312    0.2943 H   0  0  0  0  0  0  0  0  0  0  0  0
    2.2019    4.1781    1.4967 H   0  0  0  0  0  0  0  0  0  0  0  0
    1.8047    2.5751   -0.6818 H   0  0  0  0  0  0  0  0  0  0  0  0
    3.4382    2.8569    0.1204 H   0  0  0  0  0  0  0  0  0  0  0  0
  1  2  1  0  0  0  0
  1 49  1  0  0  0  0
  1 50  1  0  0  0  0
  1 51  1  0  0  0  0
  2  3  2  0  0  0  0
  2  4  1  0  0  0  0
  4  5  1  0  0  0  0
  4 52  1  0  0  0  0
  5  6  2  0  0  0  0
  5  7  1  0  0  0  0
  6 53  1  0  0  0  0
  7  8  1  0  0  0  0
  7 54  1  0  0  0  0
  8  9  1  0  0  0  0
  8 55  1  0  0  0  0
  8 56  1  0  0  0  0
  9 10  1  0  0  0  0
  9 57  1  0  0  0  0
  9 58  1  0  0  0  0
 10 59  1  0  0  0  0
 10 60  1  0  0  0  0
 11 10  1  0  0  0  0
 11 12  1  0  0  0  0
 11 45  1  0  0  0  0
 11 61  1  1  0  0  0
 12 13  1  0  0  0  0
 12 62  1  0  0  0  0
 13 14  2  0  0  0  0
 13 15  1  0  0  0  0
 15 22  1  0  0  0  0
 15 63  1  6  0  0  0
 15 16  1  0  0  0  0
 16 17  1  0  0  0  0
 16 64  1  0  0  0  0
 16 65  1  0  0  0  0
 17 18  1  0  0  0  0
 17 66  1  0  0  0  0
 17 67  1  0  0  0  0
 18 19  1  0  0  0  0
 18 68  1  0  0  0  0
 18 69  1  0  0  0  0
 19 20  1  0  0  0  0
 19 21  2  0  0  0  0
 20 70  1  0  0  0  0
 22 23  1  0  0  0  0
 22 71  1  0  0  0  0
 23 24  2  0  0  0  0
 23 25  1  0  0  0  0
 25 32  1  0  0  0  0
 25 72  1  6  0  0  0
 25 26  1  0  0  0  0
 26 27  1  0  0  0  0
 26 73  1  0  0  0  0
 26 74  1  0  0  0  0
 27 28  2  0  0  0  0
 27 31  1  0  0  0  0
 28 29  1  0  0  0  0
 28 75  1  0  0  0  0
 29 30  1  0  0  0  0
 29 76  1  0  0  0  0
 30 31  2  0  0  0  0
 30 77  1  0  0  0  0
 32 33  1  0  0  0  0
 32 47  1  0  0  0  0
 33 35  1  0  0  0  0
 33 78  1  1  0  0  0
 33 34  1  0  0  0  0
 34 79  1  0  0  0  0
 35 80  1  0  0  0  0
 35 81  1  0  0  0  0
 36 35  1  0  0  0  0
 36 37  1  0  0  0  0
 36 47  1  0  0  0  0
 36 82  1  1  0  0  0
 37 38  1  0  0  0  0
 37 83  1  0  0  0  0
 38 39  2  0  0  0  0
 38 40  1  0  0  0  0
 40 41  1  0  0  0  0
 40 44  1  0  0  0  0
 40 84  1  1  0  0  0
 41 42  1  0  0  0  0
 41 85  1  0  0  0  0
 41 86  1  0  0  0  0
 42 43  1  0  0  0  0
 42 87  1  0  0  0  0
 42 88  1  0  0  0  0
 43 44  1  0  0  0  0
 43 89  1  0  0  0  0
 43 90  1  0  0  0  0
 44 45  1  0  0  0  0
 45 46  2  0  0  0  0
 47 48  2  0  0  0  0
M  END
>  <DRUGBANK_ID>
DB04350

>  <SECONDARY_ACCESSION_NUMBERS>
EXPT02785

>  <COMMON_NAME>
Argadin

>  <CAS_NUMBER>
289665-92-5

$$$$
