
 OpenBabel10282417123D

 19 18  0  0  0  0  0  0  0  0999 V2000
    0.8335   -0.3030   -0.3097 O   0  0  0  0  0  0  0  0  0  0  0  0
    0.3965   -0.2242    1.0485 C   0  0  0  0  0  0  0  0  0  0  0  0
    3.1455   -0.2041    1.7253 O   0  0  0  0  0  0  0  0  0  0  0  0
    2.4922   -1.4842    1.6883 C   0  0  0  0  0  0  0  0  0  0  0  0
    0.9434   -1.4237    1.8841 C   0  0  0  0  0  0  0  0  0  0  0  0
    0.4741   -1.5287    3.3068 O   0  0  0  0  0  0  0  0  0  0  0  0
    2.5865   -0.6488    4.1340 O   0  0  0  0  0  0  0  0  0  0  0  0
    0.5529    0.8632    3.3118 O   0  0  0  0  0  0  0  0  0  0  0  0
    1.0508   -0.1990    4.2514 P   0  0  0  0  0  0  0  0  0  0  0  0
    1.6275    1.1306    5.1961 O   0  0  0  0  0  0  0  0  0  0  0  0
    1.7373    0.0811   -0.2923 H   0  0  0  0  0  0  0  0  0  0  0  0
    0.7758    0.7546    1.3463 H   0  0  0  0  0  0  0  0  0  0  0  0
   -0.6940   -0.1728    1.1011 H   0  0  0  0  0  0  0  0  0  0  0  0
    2.7815    0.3105    2.4748 H   0  0  0  0  0  0  0  0  0  0  0  0
    2.9669   -2.1710    2.3966 H   0  0  0  0  0  0  0  0  0  0  0  0
    2.7187   -1.8543    0.6859 H   0  0  0  0  0  0  0  0  0  0  0  0
    0.5577   -2.3386    1.4243 H   0  0  0  0  0  0  0  0  0  0  0  0
    2.8773   -1.2781    4.8281 H   0  0  0  0  0  0  0  0  0  0  0  0
    1.6543    0.9256    6.1441 H   0  0  0  0  0  0  0  0  0  0  0  0
  1 11  1  0  0  0  0
  2  1  1  0  0  0  0
  2 12  1  0  0  0  0
  2 13  1  0  0  0  0
  3 14  1  0  0  0  0
  4  3  1  0  0  0  0
  4 15  1  0  0  0  0
  4 16  1  0  0  0  0
  5  4  1  0  0  0  0
  5  2  1  0  0  0  0
  5 17  1  0  0  0  0
  6  5  1  0  0  0  0
  7  9  1  0  0  0  0
  7 18  1  0  0  0  0
  9  6  1  0  0  0  0
  9  8  2  0  0  0  0
  9 10  1  0  0  0  0
 10 19  1  0  0  0  0
M  END
>  <DRUGBANK_ID>
DB01779

>  <SECONDARY_ACCESSION_NUMBERS>
EXPT01526

>  <COMMON_NAME>
Glycerol 2-phosphate

>  <CAS_NUMBER>
17181-54-3

>  <UNII>
WWH06G87W6

>  <SYNONYMS>
1,2,3-Propanetriol, 2-(dihydrogen phosphate); 1,3-Hydroxy-2-propyl dihydrogen phosphate; 2-glycerophosphate; beta-Glycerophosphoric acid; β-glycerophosphate; β-glycerophosphoric acid

$$$$
