
 OpenBabel10282417173D

 51 52  0  0  0  0  0  0  0  0999 V2000
    0.9522   -0.0333    0.0538 C   0  0  1  0  0  0  0  0  0  0  0  0
    0.7504    0.9308    1.1941 C   0  0  0  0  0  0  0  0  0  0  0  0
    1.4421    1.8949    1.4987 O   0  0  0  0  0  0  0  0  0  0  0  0
   -0.3927    0.6899    1.8408 O   0  0  0  0  0  0  0  0  0  0  0  0
    0.5173   -1.4819    0.3293 C   0  0  0  0  0  0  0  0  0  0  0  0
    1.0515   -2.1282    1.6121 C   0  0  0  0  0  0  0  0  0  0  0  0
    0.5329   -1.5392    2.9070 C   0  0  0  0  0  0  0  0  0  0  0  0
   -0.4696   -1.8769    3.5137 O   0  0  0  0  0  0  0  0  0  0  0  0
    1.2420   -0.4544    3.2875 O   0  0  0  0  0  0  0  0  0  0  0  0
    0.2652    0.5574   -1.1361 N   0  0  0  0  0  0  0  0  0  0  0  0
   -1.4297    0.5564   -1.3357 S   0  0  0  0  0  0  0  0  0  0  0  0
   -1.6715    1.2818   -2.5746 O   0  0  0  0  0  0  0  0  0  0  0  0
   -1.9269   -0.7782   -1.1609 O   0  0  0  0  0  0  0  0  0  0  0  0
   -2.0775    1.5976   -0.0326 C   0  0  0  0  0  0  0  0  0  0  0  0
   -2.9784    1.8666    2.1871 C   0  0  0  0  0  0  0  0  0  0  0  0
   -3.3062    1.2992    3.3931 C   0  0  0  0  0  0  0  0  0  0  0  0
   -3.2862    2.1134    4.5276 C   0  0  0  0  0  0  0  0  0  0  0  0
   -3.3131    3.4846    4.5244 C   0  0  0  0  0  0  0  0  0  0  0  0
   -2.8419    4.0538    3.3647 C   0  0  0  0  0  0  0  0  0  0  0  0
   -2.6066    3.2395    2.2209 C   0  0  0  0  0  0  0  0  0  0  0  0
   -1.9284    3.7429    1.1192 C   0  0  0  0  0  0  0  0  0  0  0  0
   -1.6581    2.9342    0.0090 C   0  0  0  0  0  0  0  0  0  0  0  0
   -2.7970    1.0579    1.0400 C   0  0  0  0  0  0  0  0  0  0  0  0
   -4.4589    3.6183    6.7004 C   0  0  0  0  0  0  0  0  0  0  0  0
   -3.7637    4.2369    5.5743 O   0  0  0  0  0  0  0  0  0  0  0  0
   -5.8693    3.0154    6.4459 C   0  0  0  0  0  0  0  0  0  0  0  0
   -5.9023    1.7539    5.5844 C   0  0  0  0  0  0  0  0  0  0  0  0
   -5.1268    0.5768    6.2246 C   0  0  0  0  0  0  0  0  0  0  0  0
    2.0365   -0.0454   -0.1330 H   0  0  0  0  0  0  0  0  0  0  0  0
   -0.6120    1.4961    2.3494 H   0  0  0  0  0  0  0  0  0  0  0  0
   -0.5661   -1.5722    0.3825 H   0  0  0  0  0  0  0  0  0  0  0  0
    0.8296   -2.0921   -0.5328 H   0  0  0  0  0  0  0  0  0  0  0  0
    0.7221   -3.1736    1.6148 H   0  0  0  0  0  0  0  0  0  0  0  0
    2.1430   -2.1307    1.6208 H   0  0  0  0  0  0  0  0  0  0  0  0
    0.5881    0.1312    3.7342 H   0  0  0  0  0  0  0  0  0  0  0  0
    0.6866    1.4287   -1.4663 H   0  0  0  0  0  0  0  0  0  0  0  0
   -3.5273    0.2376    3.5033 H   0  0  0  0  0  0  0  0  0  0  0  0
   -3.3550    1.6614    5.4786 H   0  0  0  0  0  0  0  0  0  0  0  0
   -2.6225    5.1178    3.3523 H   0  0  0  0  0  0  0  0  0  0  0  0
   -1.5245    4.7507    1.1633 H   0  0  0  0  0  0  0  0  0  0  0  0
   -1.0525    3.3412   -0.7940 H   0  0  0  0  0  0  0  0  0  0  0  0
   -2.9732   -0.0212    1.0958 H   0  0  0  0  0  0  0  0  0  0  0  0
   -3.8019    2.9143    7.2238 H   0  0  0  0  0  0  0  0  0  0  0  0
   -4.6124    4.4276    7.4301 H   0  0  0  0  0  0  0  0  0  0  0  0
   -6.3394    2.7496    7.4023 H   0  0  0  0  0  0  0  0  0  0  0  0
   -6.5023    3.7819    5.9823 H   0  0  0  0  0  0  0  0  0  0  0  0
   -6.9186    1.4118    5.3726 H   0  0  0  0  0  0  0  0  0  0  0  0
   -5.5759    2.0575    4.5853 H   0  0  0  0  0  0  0  0  0  0  0  0
   -5.6929    0.1143    7.0268 H   0  0  0  0  0  0  0  0  0  0  0  0
   -4.8680   -0.1718    5.4658 H   0  0  0  0  0  0  0  0  0  0  0  0
   -4.1930    0.8327    6.7439 H   0  0  0  0  0  0  0  0  0  0  0  0
  1 10  1  0  0  0  0
  1  5  1  0  0  0  0
  1  2  1  0  0  0  0
  1 29  1  6  0  0  0
  2  3  2  0  0  0  0
  2  4  1  0  0  0  0
  4 30  1  0  0  0  0
  5  6  1  0  0  0  0
  5 31  1  0  0  0  0
  5 32  1  0  0  0  0
  6  7  1  0  0  0  0
  6 33  1  0  0  0  0
  6 34  1  0  0  0  0
  7  8  2  0  0  0  0
  7  9  1  0  0  0  0
  9 35  1  0  0  0  0
 10 11  1  0  0  0  0
 10 36  1  0  0  0  0
 11 14  1  0  0  0  0
 11 12  2  0  0  0  0
 11 13  2  0  0  0  0
 14 22  2  0  0  0  0
 14 23  1  0  0  0  0
 15 16  1  0  0  0  0
 15 20  1  0  0  0  0
 15 23  2  0  0  0  0
 16 17  2  0  0  0  0
 16 37  1  0  0  0  0
 17 18  1  0  0  0  0
 17 38  1  0  0  0  0
 18 19  2  0  0  0  0
 18 25  1  0  0  0  0
 19 20  1  0  0  0  0
 19 39  1  0  0  0  0
 20 21  2  0  0  0  0
 21 22  1  0  0  0  0
 21 40  1  0  0  0  0
 22 41  1  0  0  0  0
 23 42  1  0  0  0  0
 24 25  1  0  0  0  0
 24 26  1  0  0  0  0
 24 43  1  0  0  0  0
 24 44  1  0  0  0  0
 26 27  1  0  0  0  0
 26 45  1  0  0  0  0
 26 46  1  0  0  0  0
 27 28  1  0  0  0  0
 27 47  1  0  0  0  0
 27 48  1  0  0  0  0
 28 49  1  0  0  0  0
 28 50  1  0  0  0  0
 28 51  1  0  0  0  0
M  END
>  <DRUGBANK_ID>
DB08106

>  <COMMON_NAME>
N-[(6-butoxynaphthalen-2-yl)sulfonyl]-D-glutamic acid

$$$$
