
 OpenBabel10282417213D

 29 28  0  0  0  0  0  0  0  0999 V2000
    1.1650   -1.1780   -0.0190 C   0  0  0  0  0  0  0  0  0  0  0  0
   -0.0340   -1.7580    0.0000 C   0  0  0  0  0  0  0  0  0  0  0  0
   -1.2060   -1.0400    0.0180 N   0  0  0  0  0  0  0  0  0  0  0  0
   -1.1930    0.3240   -0.0020 C   0  0  0  0  0  0  0  0  0  0  0  0
   -2.2240    0.9920   -0.0100 O   0  0  0  0  0  0  0  0  0  0  0  0
    0.0560    0.8960    0.0060 N   0  0  0  0  0  0  0  0  0  0  0  0
    1.2800    0.2510   -0.0010 C   0  0  0  0  0  0  0  0  0  0  0  0
    2.3150    0.9060    0.0060 O   0  0  0  0  0  0  0  0  0  0  0  0
   -0.1093   -3.2761    0.0019 C   0  0  0  0  0  0  0  0  0  0  0  0
   -1.2399   -3.8563    0.0198 O   0  0  0  0  0  0  0  0  0  0  0  0
    1.0837   -4.0462   -0.0165 O   0  5  0  0  0  0  0  0  0  0  0  0
    1.1650   -1.1780   -0.0190 C   0  0  0  0  0  0  0  0  0  0  0  0
   -0.0340   -1.7580    0.0000 C   0  0  0  0  0  0  0  0  0  0  0  0
   -1.2060   -1.0400    0.0180 N   0  0  0  0  0  0  0  0  0  0  0  0
   -1.1930    0.3240   -0.0020 C   0  0  0  0  0  0  0  0  0  0  0  0
   -2.2240    0.9920   -0.0100 O   0  0  0  0  0  0  0  0  0  0  0  0
    0.0560    0.8960    0.0060 N   0  0  0  0  0  0  0  0  0  0  0  0
    1.2800    0.2510   -0.0010 C   0  0  0  0  0  0  0  0  0  0  0  0
    2.3150    0.9060    0.0060 O   0  0  0  0  0  0  0  0  0  0  0  0
   -0.1093   -3.2761    0.0019 C   0  0  0  0  0  0  0  0  0  0  0  0
   -1.2399   -3.8563    0.0198 O   0  0  0  0  0  0  0  0  0  0  0  0
    1.0837   -4.0462   -0.0165 O   0  5  0  0  0  0  0  0  0  0  0  0
   -3.9800    0.9938   -0.5393 Mg  0  2  0  0  0  0  0  0  0  0  0  0
    2.0476   -1.7822   -0.0479 H   0  0  0  0  0  0  0  0  0  0  0  0
   -2.0979   -1.5340    0.0467 H   0  0  0  0  0  0  0  0  0  0  0  0
    0.0843    1.9155    0.0186 H   0  0  0  0  0  0  0  0  0  0  0  0
    2.0476   -1.7822   -0.0479 H   0  0  0  0  0  0  0  0  0  0  0  0
   -2.0979   -1.5340    0.0467 H   0  0  0  0  0  0  0  0  0  0  0  0
    0.0843    1.9155    0.0186 H   0  0  0  0  0  0  0  0  0  0  0  0
  1  2  2  0  0  0  0
  1  7  1  0  0  0  0
  1 24  1  0  0  0  0
  2  3  1  0  0  0  0
  2  9  1  0  0  0  0
  3  4  1  0  0  0  0
  3 25  1  0  0  0  0
  4  5  2  0  0  0  0
  4  6  1  0  0  0  0
  6  7  1  0  0  0  0
  6 26  1  0  0  0  0
  7  8  2  0  0  0  0
  9 10  2  0  0  0  0
  9 11  1  0  0  0  0
 12 13  2  0  0  0  0
 12 18  1  0  0  0  0
 12 27  1  0  0  0  0
 13 14  1  0  0  0  0
 13 20  1  0  0  0  0
 14 15  1  0  0  0  0
 14 28  1  0  0  0  0
 15 16  2  0  0  0  0
 15 17  1  0  0  0  0
 17 18  1  0  0  0  0
 17 29  1  0  0  0  0
 18 19  2  0  0  0  0
 20 21  2  0  0  0  0
 20 22  1  0  0  0  0
M  CHG  3  11  -1  22  -1  23   2
M  END
>  <DRUGBANK_ID>
DB13786

>  <COMMON_NAME>
Magnesium orotate

>  <CAS_NUMBER>
34717-03-8

>  <UNII>
GI96W46M5A

$$$$
