
 OpenBabel10282417223D

 30 30  0  0  1  0  0  0  0  0999 V2000
    0.9961   -0.3380    0.1158 N   0  0  0  0  0  0  0  0  0  0  0  0
    0.4336    0.2097    1.3857 C   0  0  1  0  0  0  0  0  0  0  0  0
    0.9764    1.6343    1.6715 C   0  0  0  0  0  0  0  0  0  0  0  0
    0.5976    2.7164    0.6844 C   0  0  0  0  0  0  0  0  0  0  0  0
   -0.3029    2.4690   -0.3452 C   0  0  0  0  0  0  0  0  0  0  0  0
   -0.8443    3.4607   -1.1200 C   0  0  0  0  0  0  0  0  0  0  0  0
   -0.3055    4.7210   -1.0848 C   0  0  0  0  0  0  0  0  0  0  0  0
   -0.5523    5.6507   -2.0540 O   0  0  0  0  0  0  0  0  0  0  0  0
   -1.3329    5.1969   -3.1808 C   0  0  0  0  0  0  0  0  0  0  0  0
   -0.6625    4.1678   -4.1177 C   0  0  0  0  0  0  0  0  0  0  0  0
   -0.4919    2.9393   -3.5650 F   0  0  0  0  0  0  0  0  0  0  0  0
    0.6023    5.0261   -0.0673 C   0  0  0  0  0  0  0  0  0  0  0  0
    1.0575    4.0279    0.8159 C   0  0  0  0  0  0  0  0  0  0  0  0
   -1.1393    0.1163    1.4875 C   0  0  0  0  0  0  0  0  0  0  0  0
   -1.6006   -0.7650    2.4002 O   0  0  0  0  0  0  0  0  0  0  0  0
   -1.9699    0.7623    0.8547 O   0  0  0  0  0  0  0  0  0  0  0  0
    0.7340    0.2662   -0.6684 H   0  0  0  0  0  0  0  0  0  0  0  0
    2.0116   -0.2045    0.1306 H   0  0  0  0  0  0  0  0  0  0  0  0
    0.8297   -0.4500    2.1656 H   0  0  0  0  0  0  0  0  0  0  0  0
    0.6205    1.9401    2.6642 H   0  0  0  0  0  0  0  0  0  0  0  0
    2.0741    1.5911    1.7308 H   0  0  0  0  0  0  0  0  0  0  0  0
   -0.6797    1.4939   -0.6143 H   0  0  0  0  0  0  0  0  0  0  0  0
   -1.6273    3.1439   -1.7983 H   0  0  0  0  0  0  0  0  0  0  0  0
   -2.3295    4.8793   -2.8478 H   0  0  0  0  0  0  0  0  0  0  0  0
   -1.4952    6.0954   -3.7849 H   0  0  0  0  0  0  0  0  0  0  0  0
   -1.3058    3.9978   -4.9835 H   0  0  0  0  0  0  0  0  0  0  0  0
    0.3225    4.5058   -4.4375 H   0  0  0  0  0  0  0  0  0  0  0  0
    0.9579    6.0450    0.0458 H   0  0  0  0  0  0  0  0  0  0  0  0
    1.7839    4.2812    1.5844 H   0  0  0  0  0  0  0  0  0  0  0  0
   -0.9228   -1.2979    2.8432 H   0  0  0  0  0  0  0  0  0  0  0  0
  1 17  1  0  0  0  0
  1 18  1  0  0  0  0
  2  1  1  0  0  0  0
  2  3  1  0  0  0  0
  2 14  1  0  0  0  0
  2 19  1  1  0  0  0
  3  4  1  0  0  0  0
  3 20  1  0  0  0  0
  3 21  1  0  0  0  0
  4  5  2  0  0  0  0
  4 13  1  0  0  0  0
  5  6  1  0  0  0  0
  5 22  1  0  0  0  0
  6  7  2  0  0  0  0
  6 23  1  0  0  0  0
  7  8  1  0  0  0  0
  7 12  1  0  0  0  0
  8  9  1  0  0  0  0
  9 10  1  0  0  0  0
  9 24  1  0  0  0  0
  9 25  1  0  0  0  0
 10 11  1  0  0  0  0
 10 26  1  0  0  0  0
 10 27  1  0  0  0  0
 12 13  2  0  0  0  0
 12 28  1  0  0  0  0
 13 29  1  0  0  0  0
 14 15  1  0  0  0  0
 14 16  2  0  0  0  0
 15 30  1  0  0  0  0
M  ISO  1  11  18
M  END
>  <DRUGBANK_ID>
DB15405

>  <COMMON_NAME>
FET F-18

>  <CAS_NUMBER>
178433-03-9

>  <UNII>
1326R5J1IA

>  <SYNONYMS>
18F-FET; FLUOROETHYL-L-TYROSINE (18F); O-(2-FLUOROETHYL)-L-TYROSINE F-18; O-18F-fluoroethyl-L-tyrosine

$$$$
