
 OpenBabel10282417143D

 31 33  0  0  0  0  0  0  0  0999 V2000
    0.9269    1.4207   -0.0095 C   0  0  0  0  0  0  0  0  0  0  0  0
    2.1736    0.7655   -0.0164 C   0  0  0  0  0  0  0  0  0  0  0  0
    2.1643   -0.6490   -0.0003 C   0  0  0  0  0  0  0  0  0  0  0  0
    0.9817   -1.4126    0.0134 C   0  0  0  0  0  0  0  0  0  0  0  0
   -0.2158   -0.7044    0.0057 C   0  0  0  0  0  0  0  0  0  0  0  0
   -0.2640    0.6787   -0.0126 C   0  0  0  0  0  0  0  0  0  0  0  0
   -2.3130    0.0538   -0.0057 C   0  0  0  0  0  0  0  0  0  0  0  0
   -1.5506    1.1309   -0.0509 N   0  0  0  0  0  0  0  0  0  0  0  0
   -3.7242   -0.0557   -0.0242 C   0  0  0  0  0  0  0  0  0  0  0  0
   -6.5345   -0.0763   -0.0152 C   0  0  0  0  0  0  0  0  0  0  0  0
   -5.8722    0.5151   -1.0159 C   0  0  0  0  0  0  0  0  0  0  0  0
   -4.4265    0.5369   -1.0076 C   0  0  0  0  0  0  0  0  0  0  0  0
   -4.4715   -0.7296    1.0876 C   0  0  0  0  0  0  0  0  0  0  0  0
   -1.5374   -1.0866    0.0156 N   0  0  0  0  0  0  0  0  0  0  0  0
   -5.8468   -0.6792    1.0073 N   0  0  0  0  0  0  0  0  0  0  0  0
   -3.8947   -1.3051    2.0085 O   0  0  0  0  0  0  0  0  0  0  0  0
    3.4427    1.5444   -0.0549 C   0  0  0  0  0  0  0  0  0  0  0  0
    4.6084    0.9290   -0.0779 N   0  3  0  0  0  0  0  0  0  0  0  0
    3.4377    2.8643   -0.0770 N   0  0  0  0  0  0  0  0  0  0  0  0
    0.8111    2.4960   -0.0101 H   0  0  0  0  0  0  0  0  0  0  0  0
    3.0856   -1.2257    0.0027 H   0  0  0  0  0  0  0  0  0  0  0  0
    1.0114   -2.4986    0.0262 H   0  0  0  0  0  0  0  0  0  0  0  0
   -7.6191   -0.1058    0.0330 H   0  0  0  0  0  0  0  0  0  0  0  0
   -6.3985    1.0008   -1.8319 H   0  0  0  0  0  0  0  0  0  0  0  0
   -3.9304    1.0659   -1.8165 H   0  0  0  0  0  0  0  0  0  0  0  0
   -1.8844   -2.0366    0.0238 H   0  0  0  0  0  0  0  0  0  0  0  0
   -6.3550   -1.1177    1.7669 H   0  0  0  0  0  0  0  0  0  0  0  0
    4.6760   -0.0793   -0.0672 H   0  0  0  0  0  0  0  0  0  0  0  0
    5.4868    1.4273   -0.1084 H   0  0  0  0  0  0  0  0  0  0  0  0
    4.2871    3.4116   -0.1082 H   0  0  0  0  0  0  0  0  0  0  0  0
    2.5781    3.3990   -0.0643 H   0  0  0  0  0  0  0  0  0  0  0  0
  1  2  2  0  0  0  0
  1  6  1  0  0  0  0
  1 20  1  0  0  0  0
  2  3  1  0  0  0  0
  2 17  1  0  0  0  0
  3  4  2  0  0  0  0
  3 21  1  0  0  0  0
  4  5  1  0  0  0  0
  4 22  1  0  0  0  0
  5 14  1  0  0  0  0
  5  6  2  0  0  0  0
  6  8  1  0  0  0  0
  7  9  1  0  0  0  0
  7  8  2  0  0  0  0
  7 14  1  0  0  0  0
  9 13  1  0  0  0  0
  9 12  2  0  0  0  0
 10 15  1  0  0  0  0
 10 11  2  0  0  0  0
 10 23  1  0  0  0  0
 11 12  1  0  0  0  0
 11 24  1  0  0  0  0
 12 25  1  0  0  0  0
 13 15  1  0  0  0  0
 13 16  2  0  0  0  0
 14 26  1  0  0  0  0
 15 27  1  0  0  0  0
 17 19  1  0  0  0  0
 17 18  2  0  0  0  0
 18 28  1  0  0  0  0
 18 29  1  0  0  0  0
 19 30  1  0  0  0  0
 19 31  1  0  0  0  0
M  CHG  1  18   1
M  END
>  <DRUGBANK_ID>
DB04442

>  <SECONDARY_ACCESSION_NUMBERS>
EXPT00015

>  <COMMON_NAME>
Imino[2-(2-oxo-1,2-dihydro-3-pyridinyl)-1H-benzimidazol-5-yl]methanaminium

$$$$
