
 OpenBabel10282417223D

 77 81  0  0  1  0  0  0  0  0999 V2000
   -7.8529    2.1336   -0.0151 C   0  0  0  0  0  0  0  0  0  0  0  0
   -7.3485    0.7463   -0.0722 C   0  0  0  0  0  0  0  0  0  0  0  0
   -8.2448   -0.3627   -0.0245 C   0  0  0  0  0  0  0  0  0  0  0  0
   -7.7861   -1.6595   -0.0834 C   0  0  0  0  0  0  0  0  0  0  0  0
   -6.4398   -1.7886   -0.2546 C   0  0  0  0  0  0  0  0  0  0  0  0
   -5.8866   -3.0122   -0.0877 N   0  0  0  0  0  0  0  0  0  0  0  0
   -4.6371   -3.2089    0.3632 C   0  0  0  0  0  0  0  0  0  0  0  0
   -4.3663   -4.3857    0.2578 O   0  0  0  0  0  0  0  0  0  0  0  0
   -3.6716   -2.0123    0.8555 C   0  0  1  0  0  0  0  0  0  0  0  0
   -4.1595   -0.5850    1.8468 C   0  0  0  0  0  0  0  0  0  0  0  0
   -2.9633    0.0862    2.5328 C   0  0  0  0  0  0  0  0  0  0  0  0
   -2.2323   -1.0087    3.2773 C   0  0  0  0  0  0  0  0  0  0  0  0
   -2.8062   -2.3320    2.9609 N   0  0  0  0  0  0  0  0  0  0  0  0
   -2.4667   -2.6672    1.5535 C   0  0  1  0  0  0  0  0  0  0  0  0
   -1.7642   -4.0312    1.4113 C   0  0  0  0  0  0  0  0  0  0  0  0
   -2.0173   -5.0510    0.4867 C   0  0  0  0  0  0  0  0  0  0  0  0
   -2.0249   -6.4058    0.9018 C   0  0  0  0  0  0  0  0  0  0  0  0
   -1.4282   -6.7805    2.0961 C   0  0  0  0  0  0  0  0  0  0  0  0
   -1.5545   -8.0663    2.6159 N   0  0  0  0  0  0  0  0  0  0  0  0
   -0.8025   -8.5207    3.7828 C   0  0  0  0  0  0  0  0  0  0  0  0
   -1.4325   -8.0699    5.1047 C   0  0  0  0  0  0  0  0  0  0  0  0
   -0.2729   -8.0022    6.0923 C   0  0  0  0  0  0  0  0  0  0  0  0
    1.0257   -8.0740    5.2873 C   0  0  0  0  0  0  0  0  0  0  0  0
    0.6462   -8.0296    3.8236 C   0  0  0  0  0  0  0  0  0  0  0  0
   -0.8833   -5.7242    2.8337 C   0  0  0  0  0  0  0  0  0  0  0  0
   -0.9424   -4.3836    2.4671 C   0  0  0  0  0  0  0  0  0  0  0  0
   -4.1801   -2.6583    3.4909 C   0  0  0  0  0  0  0  0  0  0  0  0
   -4.8487   -1.9044    4.1545 O   0  0  0  0  0  0  0  0  0  0  0  0
   -4.8508   -3.9719    3.2573 C   0  0  0  0  0  0  0  0  0  0  0  0
   -3.9758   -5.0097    3.3433 C   0  0  0  0  0  0  0  0  0  0  0  0
   -2.8075   -4.7255    3.9102 F   0  0  0  0  0  0  0  0  0  0  0  0
   -4.3331   -6.3356    3.2886 C   0  0  0  0  0  0  0  0  0  0  0  0
   -5.6423   -6.6716    3.4725 C   0  0  0  0  0  0  0  0  0  0  0  0
   -6.5755   -5.6495    3.5845 C   0  0  0  0  0  0  0  0  0  0  0  0
   -6.2174   -4.2841    3.4068 C   0  0  0  0  0  0  0  0  0  0  0  0
   -7.3199   -3.2834    3.6174 C   0  0  0  0  0  0  0  0  0  0  0  0
   -5.6123   -0.6964   -0.5257 C   0  0  0  0  0  0  0  0  0  0  0  0
   -5.9875    0.6010   -0.2960 C   0  0  0  0  0  0  0  0  0  0  0  0
   -4.9037    1.7007   -0.3107 C   0  0  0  0  0  0  0  0  0  0  0  0
   -4.1058    1.8337    0.7967 F   0  0  0  0  0  0  0  0  0  0  0  0
   -4.0091    1.4771   -1.3155 F   0  0  0  0  0  0  0  0  0  0  0  0
   -5.3782    2.9570   -0.4838 F   0  0  0  0  0  0  0  0  0  0  0  0
   -7.4327    2.6261    0.8654 H   0  0  0  0  0  0  0  0  0  0  0  0
   -7.5140    2.6218   -0.9340 H   0  0  0  0  0  0  0  0  0  0  0  0
   -8.9368    2.1461    0.0068 H   0  0  0  0  0  0  0  0  0  0  0  0
   -9.3148   -0.2138    0.0539 H   0  0  0  0  0  0  0  0  0  0  0  0
   -8.4278   -2.5313    0.0219 H   0  0  0  0  0  0  0  0  0  0  0  0
   -6.4143   -3.8818   -0.1590 H   0  0  0  0  0  0  0  0  0  0  0  0
   -3.2003   -1.6016   -0.0418 H   0  0  0  0  0  0  0  0  0  0  0  0
   -4.7543    0.2115    1.4613 H   0  0  0  0  0  0  0  0  0  0  0  0
   -4.9426   -0.7560    2.5790 H   0  0  0  0  0  0  0  0  0  0  0  0
   -3.1754    0.9309    3.2152 H   0  0  0  0  0  0  0  0  0  0  0  0
   -2.3521    0.5447    1.7414 H   0  0  0  0  0  0  0  0  0  0  0  0
   -2.2113   -0.8709    4.3536 H   0  0  0  0  0  0  0  0  0  0  0  0
   -1.1960   -0.9587    2.9079 H   0  0  0  0  0  0  0  0  0  0  0  0
   -1.6265   -2.0255    1.2201 H   0  0  0  0  0  0  0  0  0  0  0  0
   -2.4284   -4.8327   -0.4935 H   0  0  0  0  0  0  0  0  0  0  0  0
   -2.6529   -7.1130    0.3556 H   0  0  0  0  0  0  0  0  0  0  0  0
   -1.8739   -8.7934    1.9822 H   0  0  0  0  0  0  0  0  0  0  0  0
   -0.7880   -9.6194    3.7833 H   0  0  0  0  0  0  0  0  0  0  0  0
   -1.9190   -7.0911    5.0427 H   0  0  0  0  0  0  0  0  0  0  0  0
   -2.2176   -8.7556    5.4461 H   0  0  0  0  0  0  0  0  0  0  0  0
   -0.3286   -7.0803    6.6837 H   0  0  0  0  0  0  0  0  0  0  0  0
   -0.3163   -8.8392    6.7957 H   0  0  0  0  0  0  0  0  0  0  0  0
    1.6915   -7.2404    5.5404 H   0  0  0  0  0  0  0  0  0  0  0  0
    1.5565   -9.0056    5.4908 H   0  0  0  0  0  0  0  0  0  0  0  0
    1.2968   -8.6005    3.1585 H   0  0  0  0  0  0  0  0  0  0  0  0
    0.8212   -7.0066    3.5015 H   0  0  0  0  0  0  0  0  0  0  0  0
   -0.6504   -5.8542    3.8871 H   0  0  0  0  0  0  0  0  0  0  0  0
   -0.6829   -3.6614    3.2404 H   0  0  0  0  0  0  0  0  0  0  0  0
   -3.5706   -7.0891    3.3096 H   0  0  0  0  0  0  0  0  0  0  0  0
   -5.8651   -7.7154    3.6570 H   0  0  0  0  0  0  0  0  0  0  0  0
   -7.5781   -5.9183    3.9068 H   0  0  0  0  0  0  0  0  0  0  0  0
   -8.1745   -3.5488    2.9846 H   0  0  0  0  0  0  0  0  0  0  0  0
   -7.6252   -3.3143    4.6698 H   0  0  0  0  0  0  0  0  0  0  0  0
   -7.0742   -2.2500    3.3669 H   0  0  0  0  0  0  0  0  0  0  0  0
   -4.5905   -0.8264   -0.8340 H   0  0  0  0  0  0  0  0  0  0  0  0
  1  2  1  0  0  0  0
  1 43  1  0  0  0  0
  1 44  1  0  0  0  0
  1 45  1  0  0  0  0
  2  3  2  0  0  0  0
  2 38  1  0  0  0  0
  3  4  1  0  0  0  0
  3 46  1  0  0  0  0
  4  5  2  0  0  0  0
  4 47  1  0  0  0  0
  5  6  1  0  0  0  0
  5 37  1  0  0  0  0
  6  7  1  0  0  0  0
  6 48  1  0  0  0  0
  7  8  2  0  0  0  0
  9 10  1  0  0  0  0
  9 14  1  0  0  0  0
  9 49  1  6  0  0  0
  9  7  1  0  0  0  0
 10 11  1  0  0  0  0
 10 50  1  0  0  0  0
 10 51  1  0  0  0  0
 11 12  1  0  0  0  0
 11 52  1  0  0  0  0
 11 53  1  0  0  0  0
 12 13  1  0  0  0  0
 12 54  1  0  0  0  0
 12 55  1  0  0  0  0
 13 27  1  0  0  0  0
 14 13  1  0  0  0  0
 14 15  1  0  0  0  0
 14 56  1  6  0  0  0
 15 16  2  0  0  0  0
 15 26  1  0  0  0  0
 16 17  1  0  0  0  0
 16 57  1  0  0  0  0
 17 18  2  0  0  0  0
 17 58  1  0  0  0  0
 18 19  1  0  0  0  0
 18 25  1  0  0  0  0
 19 20  1  0  0  0  0
 19 59  1  0  0  0  0
 20 21  1  0  0  0  0
 20 24  1  0  0  0  0
 20 60  1  0  0  0  0
 21 22  1  0  0  0  0
 21 61  1  0  0  0  0
 21 62  1  0  0  0  0
 22 23  1  0  0  0  0
 22 63  1  0  0  0  0
 22 64  1  0  0  0  0
 23 24  1  0  0  0  0
 23 65  1  0  0  0  0
 23 66  1  0  0  0  0
 24 67  1  0  0  0  0
 24 68  1  0  0  0  0
 25 26  2  0  0  0  0
 25 69  1  0  0  0  0
 26 70  1  0  0  0  0
 27 28  2  0  0  0  0
 27 29  1  0  0  0  0
 29 30  2  0  0  0  0
 29 35  1  0  0  0  0
 30 31  1  0  0  0  0
 30 32  1  0  0  0  0
 32 33  2  0  0  0  0
 32 71  1  0  0  0  0
 33 34  1  0  0  0  0
 33 72  1  0  0  0  0
 34 35  2  0  0  0  0
 34 73  1  0  0  0  0
 35 36  1  0  0  0  0
 36 74  1  0  0  0  0
 36 75  1  0  0  0  0
 36 76  1  0  0  0  0
 37 38  2  0  0  0  0
 37 77  1  0  0  0  0
 38 39  1  0  0  0  0
 39 40  1  0  0  0  0
 39 41  1  0  0  0  0
 39 42  1  0  0  0  0
M  END
>  <DRUGBANK_ID>
DB15011

>  <COMMON_NAME>
Avacopan

>  <CAS_NUMBER>
1346623-17-3

>  <UNII>
O880NM097T

>  <SYNONYMS>
Avacopan

$$$$
