
 OpenBabel10282417203D

 69 72  0  0  1  0  0  0  0  0999 V2000
    0.4998    0.8542   -0.6041 C   0  0  0  0  0  0  0  0  0  0  0  0
   -0.2413   -1.2291   -0.9941 C   0  0  0  0  0  0  0  0  0  0  0  0
    1.1238   -2.6840    0.1862 O   0  0  0  0  0  0  0  0  0  0  0  0
    2.8778   -2.4153    0.3357 C   0  0  3  0  0  0  0  0  0  0  0  0
    3.5583   -1.8145   -1.4600 C   0  0  1  0  0  0  0  0  0  0  0  0
    3.5222   -0.2513   -1.3119 C   0  0  2  0  0  0  0  0  0  0  0  0
    3.6890   -0.2250    0.3896 C   0  0  2  0  0  0  0  0  0  0  0  0
    3.5956   -1.5249    1.0699 O   0  0  0  0  0  0  0  0  0  0  0  0
    2.9843    1.0389    1.1712 C   0  0  1  0  0  0  0  0  0  0  0  0
    1.4779    1.1911    1.4505 C   0  0  0  0  0  0  0  0  0  0  0  0
    0.6349   -0.2243    2.0153 O   0  0  0  0  0  0  0  0  0  0  0  0
    1.0297   -1.5596    1.9823 C   0  0  0  0  0  0  0  0  0  0  0  0
    0.1672   -1.6948    0.7660 C   0  0  0  0  0  0  0  0  0  0  0  0
    1.6373   -1.6614   -0.9740 C   0  0  0  0  0  0  0  0  0  0  0  0
    1.1485   -1.6431   -2.8209 C   0  0  0  0  0  0  0  0  0  0  0  0
   -0.5548   -2.0896   -3.0261 C   0  0  0  0  0  0  0  0  0  0  0  0
   -1.7460   -2.2908   -1.6000 C   0  0  0  0  0  0  0  0  0  0  0  0
   -1.3947   -2.0147    0.3373 C   0  0  0  0  0  0  0  0  0  0  0  0
    3.4607    1.1442    2.4761 O   0  0  0  0  0  0  0  0  0  0  0  0
    2.9662    0.0731    3.2914 C   0  0  0  0  0  0  0  0  0  0  0  0
    1.5157    0.1403    3.9094 C   0  0  0  0  0  0  0  0  0  0  0  0
    0.9658   -1.1021    4.2860 C   0  0  0  0  0  0  0  0  0  0  0  0
   -0.4434   -1.3036    4.2206 C   0  0  0  0  0  0  0  0  0  0  0  0
   -1.3421   -0.3441    3.7301 C   0  0  0  0  0  0  0  0  0  0  0  0
   -0.8627    0.8949    3.3747 C   0  0  0  0  0  0  0  0  0  0  0  0
    0.5226    1.1696    3.5914 C   0  0  0  0  0  0  0  0  0  0  0  0
    1.8332    0.1536   -1.7289 O   0  0  0  0  0  0  0  0  0  0  0  0
    0.8560   -0.6165   -0.1971 C   0  0  0  0  0  0  0  0  0  0  0  0
    0.4100   -2.7770   -1.2223 C   0  0  0  0  0  0  0  0  0  0  0  0
    1.8621   -3.6442   -1.4761 C   0  0  0  0  0  0  0  0  0  0  0  0
    2.0429   -4.8000   -0.9955 C   0  0  0  0  0  0  0  0  0  0  0  0
    0.8502   -5.3558   -0.8772 C   0  0  0  0  0  0  0  0  0  0  0  0
   -0.3742   -4.9457   -0.5370 C   0  0  0  0  0  0  0  0  0  0  0  0
   -0.5452   -3.7086   -0.6502 C   0  0  0  0  0  0  0  0  0  0  0  0
    4.6601   -2.5740   -1.5708 O   0  0  0  0  0  0  0  0  0  0  0  0
   -0.0595    0.6504    0.7183 H   0  0  0  0  0  0  0  0  0  0  0  0
    0.2034    1.5485   -1.2063 H   0  0  0  0  0  0  0  0  0  0  0  0
    1.8897    0.7091   -0.2338 H   0  0  0  0  0  0  0  0  0  0  0  0
   -1.2887   -0.8588   -0.9195 H   0  0  0  0  0  0  0  0  0  0  0  0
    0.0603   -0.9460   -1.8735 H   0  0  0  0  0  0  0  0  0  0  0  0
    2.9036   -3.4347    0.7265 H   0  0  0  0  0  0  0  0  0  0  0  0
    2.8523   -2.1524   -2.3619 H   0  0  0  0  0  0  0  0  0  0  0  0
    3.8416    0.3775   -2.0714 H   0  0  0  0  0  0  0  0  0  0  0  0
    4.7207   -0.1822    0.5208 H   0  0  0  0  0  0  0  0  0  0  0  0
    3.1328    1.8534    0.4418 H   0  0  0  0  0  0  0  0  0  0  0  0
    0.9745    2.2005    1.4753 H   0  0  0  0  0  0  0  0  0  0  0  0
    0.6756    1.7855    0.8014 H   0  0  0  0  0  0  0  0  0  0  0  0
    2.0347   -1.3504    1.8408 H   0  0  0  0  0  0  0  0  0  0  0  0
    0.8978   -2.5541    2.3909 H   0  0  0  0  0  0  0  0  0  0  0  0
    2.2975   -0.9574   -0.6314 H   0  0  0  0  0  0  0  0  0  0  0  0
    1.5443   -0.8275   -3.5046 H   0  0  0  0  0  0  0  0  0  0  0  0
   -1.0521   -2.1832   -3.9417 H   0  0  0  0  0  0  0  0  0  0  0  0
   -2.0253   -3.3524   -1.9016 H   0  0  0  0  0  0  0  0  0  0  0  0
   -1.5629   -2.7044    1.1677 H   0  0  0  0  0  0  0  0  0  0  0  0
    3.3006   -0.8932    2.8716 H   0  0  0  0  0  0  0  0  0  0  0  0
    3.5048    0.1108    4.1914 H   0  0  0  0  0  0  0  0  0  0  0  0
    1.6145   -1.9913    4.2271 H   0  0  0  0  0  0  0  0  0  0  0  0
   -0.8162   -2.2366    4.5907 H   0  0  0  0  0  0  0  0  0  0  0  0
   -2.4039   -0.5108    3.7198 H   0  0  0  0  0  0  0  0  0  0  0  0
   -1.5010    1.6762    2.9991 H   0  0  0  0  0  0  0  0  0  0  0  0
    0.8518    2.0255    3.0249 H   0  0  0  0  0  0  0  0  0  0  0  0
    1.5337   -0.5168    0.5935 H   0  0  0  0  0  0  0  0  0  0  0  0
   -0.6386    0.0208   -0.1969 H   0  0  0  0  0  0  0  0  0  0  0  0
    2.8451   -3.3547   -1.0720 H   0  0  0  0  0  0  0  0  0  0  0  0
    3.0772   -4.9834   -0.9188 H   0  0  0  0  0  0  0  0  0  0  0  0
    0.8763   -6.3417   -1.0768 H   0  0  0  0  0  0  0  0  0  0  0  0
   -1.3628   -5.1963   -0.3182 H   0  0  0  0  0  0  0  0  0  0  0  0
   -1.7885   -3.5031   -0.3274 H   0  0  0  0  0  0  0  0  0  0  0  0
    4.4718   -3.2495   -0.8877 H   0  0  0  0  0  0  0  0  0  0  0  0
  1  2  1  0  0  0  0
  1 36  1  0  0  0  0
  1 37  1  0  0  0  0
  1 38  1  0  0  0  0
  2  3  1  0  0  0  0
  2 39  1  0  0  0  0
  2 40  1  0  0  0  0
  3  4  1  0  0  0  0
  4  5  1  0  0  0  0
  4  8  1  0  0  0  0
  4 41  1  0  0  0  0
  5  6  1  0  0  0  0
  5 42  1  6  0  0  0
  5 35  1  0  0  0  0
  6  7  1  0  0  0  0
  6 27  1  0  0  0  0
  6 43  1  6  0  0  0
  7  8  1  0  0  0  0
  7 44  1  1  0  0  0
  7  9  1  0  0  0  0
  9 10  1  0  0  0  0
  9 19  1  0  0  0  0
  9 45  1  6  0  0  0
 10 11  1  0  0  0  0
 10 46  1  0  0  0  0
 10 47  1  0  0  0  0
 11 12  1  0  0  0  0
 12 13  1  0  0  0  0
 12 48  1  0  0  0  0
 12 49  1  0  0  0  0
 13 14  2  0  0  0  0
 13 18  1  0  0  0  0
 14 15  1  0  0  0  0
 14 50  1  0  0  0  0
 15 16  2  0  0  0  0
 15 51  1  0  0  0  0
 16 17  1  0  0  0  0
 16 52  1  0  0  0  0
 17 18  2  0  0  0  0
 17 53  1  0  0  0  0
 18 54  1  0  0  0  0
 19 20  1  0  0  0  0
 20 21  1  0  0  0  0
 20 55  1  0  0  0  0
 20 56  1  0  0  0  0
 21 22  2  0  0  0  0
 21 26  1  0  0  0  0
 22 23  1  0  0  0  0
 22 57  1  0  0  0  0
 23 24  2  0  0  0  0
 23 58  1  0  0  0  0
 24 25  1  0  0  0  0
 24 59  1  0  0  0  0
 25 26  2  0  0  0  0
 25 60  1  0  0  0  0
 26 61  1  0  0  0  0
 27 28  1  0  0  0  0
 28 29  1  0  0  0  0
 28 62  1  0  0  0  0
 28 63  1  0  0  0  0
 29 30  2  0  0  0  0
 29 34  1  0  0  0  0
 30 31  1  0  0  0  0
 30 64  1  0  0  0  0
 31 32  2  0  0  0  0
 31 65  1  0  0  0  0
 32 33  1  0  0  0  0
 32 66  1  0  0  0  0
 33 34  2  0  0  0  0
 33 67  1  0  0  0  0
 34 68  1  0  0  0  0
 35 69  1  0  0  0  0
M  END
>  <DRUGBANK_ID>
DB13227

>  <COMMON_NAME>
Tribenoside

>  <CAS_NUMBER>
10310-32-4

>  <UNII>
Z7N0Y673NU

>  <SYNONYMS>
TBGF; Tribenoside; Tribenosido; Tribenosidum

$$$$
