793
 OpenBabel10282417163D

 37 39  0  0  0  0  0  0  0  0999 V2000
    0.7508   -2.0642    1.3380 C   0  0  0  0  0  0  0  0  0  0  0  0
    0.4875   -1.3303    0.0338 C   0  0  2  0  0  0  0  0  0  0  0  0
    1.2194    0.0145    0.1263 C   0  0  0  0  0  0  0  0  0  0  0  0
    2.1801    0.0890    1.1543 C   0  0  0  0  0  0  0  0  0  0  0  0
    3.4544    0.5211    0.9066 C   0  0  0  0  0  0  0  0  0  0  0  0
    3.6686    1.2788   -0.2180 C   0  0  0  0  0  0  0  0  0  0  0  0
   -2.6626   -3.1001   -2.4560 C   0  0  0  0  0  0  0  0  0  0  0  0
   -2.8620   -1.8525   -1.6981 C   0  0  0  0  0  0  0  0  0  0  0  0
    0.5858   -4.5642   -0.9730 C   0  0  0  0  0  0  0  0  0  0  0  0
    0.4541   -4.8129    0.3897 C   0  0  0  0  0  0  0  0  0  0  0  0
    1.5983   -4.7924    1.1948 C   0  0  0  0  0  0  0  0  0  0  0  0
    2.9570   -4.4713   -0.6137 C   0  0  0  0  0  0  0  0  0  0  0  0
    1.8774   -4.4896   -1.4932 C   0  0  0  0  0  0  0  0  0  0  0  0
    2.6134    1.5177   -1.1104 C   0  0  0  0  0  0  0  0  0  0  0  0
    1.3709    0.8837   -0.9513 C   0  0  0  0  0  0  0  0  0  0  0  0
   -0.9431   -1.3001   -0.1837 N   0  0  0  0  0  0  0  0  0  0  0  0
   -1.5584   -2.1019   -1.0408 C   0  0  0  0  0  0  0  0  0  0  0  0
   -1.3966   -3.3090   -1.6993 C   0  0  0  0  0  0  0  0  0  0  0  0
   -3.3187   -3.6481   -3.3203 O   0  0  0  0  0  0  0  0  0  0  0  0
   -3.7058   -0.9787   -1.7364 O   0  0  0  0  0  0  0  0  0  0  0  0
   -0.5463   -4.3275   -1.7906 N   0  0  0  0  0  0  0  0  0  0  0  0
    2.8455   -4.5989    0.7235 N   0  0  0  0  0  0  0  0  0  0  0  0
    0.9665   -1.8576   -0.8068 H   0  0  0  0  0  0  0  0  0  0  0  0
    0.4405   -1.5097    2.2243 H   0  0  0  0  0  0  0  0  0  0  0  0
    1.8241   -2.3103    1.4180 H   0  0  0  0  0  0  0  0  0  0  0  0
    0.1426   -2.9331    1.4437 H   0  0  0  0  0  0  0  0  0  0  0  0
    2.0557   -0.4082    2.1087 H   0  0  0  0  0  0  0  0  0  0  0  0
    4.2353    0.2208    1.5975 H   0  0  0  0  0  0  0  0  0  0  0  0
    4.6509    1.7106   -0.3597 H   0  0  0  0  0  0  0  0  0  0  0  0
   -0.5292   -4.7649    0.8551 H   0  0  0  0  0  0  0  0  0  0  0  0
    1.5082   -4.6874    2.2787 H   0  0  0  0  0  0  0  0  0  0  0  0
    3.9708   -4.3088   -0.9692 H   0  0  0  0  0  0  0  0  0  0  0  0
    2.0515   -4.3562   -2.5529 H   0  0  0  0  0  0  0  0  0  0  0  0
    2.7994    2.1511   -1.9717 H   0  0  0  0  0  0  0  0  0  0  0  0
    0.5798    1.0407   -1.6822 H   0  0  0  0  0  0  0  0  0  0  0  0
   -1.4556   -0.8468    0.5726 H   0  0  0  0  0  0  0  0  0  0  0  0
   -0.7049   -5.1002   -2.4405 H   0  0  0  0  0  0  0  0  0  0  0  0
  1 24  1  0  0  0  0
  1 25  1  0  0  0  0
  1 26  1  0  0  0  0
  2 16  1  0  0  0  0
  2 23  1  6  0  0  0
  2  3  1  0  0  0  0
  2  1  1  0  0  0  0
  3  4  2  0  0  0  0
  3 15  1  0  0  0  0
  4  5  1  0  0  0  0
  4 27  1  0  0  0  0
  5  6  2  0  0  0  0
  5 28  1  0  0  0  0
  6 14  1  0  0  0  0
  6 29  1  0  0  0  0
  7  8  1  0  0  0  0
  7 18  1  0  0  0  0
  7 19  2  0  0  0  0
  8 17  1  0  0  0  0
  8 20  2  0  0  0  0
  9 10  2  0  0  0  0
  9 13  1  0  0  0  0
  9 21  1  0  0  0  0
 10 11  1  0  0  0  0
 10 30  1  0  0  0  0
 11 22  2  0  0  0  0
 11 31  1  0  0  0  0
 12 13  2  0  0  0  0
 12 22  1  0  0  0  0
 12 32  1  0  0  0  0
 13 33  1  0  0  0  0
 14 15  2  0  0  0  0
 14 34  1  0  0  0  0
 15 35  1  0  0  0  0
 16 17  1  0  0  0  0
 16 36  1  0  0  0  0
 17 18  2  0  0  0  0
 18 21  1  0  0  0  0
 21 37  1  0  0  0  0
M  END
>  <DRUGBANK_ID>
DB07234

>  <COMMON_NAME>
3-{[(1R)-1-phenylethyl]amino}-4-(pyridin-4-ylamino)cyclobut-3-ene-1,2-dione

$$$$
