
 OpenBabel10282417133D

 36 37  0  0  0  0  0  0  0  0999 V2000
   -0.1997   -0.2315    0.1929 C   0  0  1  0  0  0  0  0  0  0  0  0
    0.3658    1.1388    0.6767 C   0  0  2  0  0  0  0  0  0  0  0  0
   -0.5606    2.2196    0.4887 O   0  0  0  0  0  0  0  0  0  0  0  0
    1.6329    1.4424   -0.1122 C   0  0  1  0  0  0  0  0  0  0  0  0
    2.2428    2.6512    0.3545 O   0  0  0  0  0  0  0  0  0  0  0  0
    2.6100    0.2736   -0.0114 C   0  0  2  0  0  0  0  0  0  0  0  0
    3.7555    0.5639   -0.8181 O   0  0  0  0  0  0  0  0  0  0  0  0
    1.9393   -1.0472   -0.4419 C   0  0  1  0  0  0  0  0  0  0  0  0
    2.9245   -2.2284   -0.2919 C   0  0  0  0  0  0  0  0  0  0  0  0
    4.2202   -1.9283   -0.7965 O   0  0  0  0  0  0  0  0  0  0  0  0
    0.7368   -1.2820    0.3069 O   0  0  0  0  0  0  0  0  0  0  0  0
   -1.3323   -0.5879    0.9933 N   0  0  0  0  0  0  0  0  0  0  0  0
   -2.4608    0.0035    0.4707 C   0  0  0  0  0  0  0  0  0  0  0  0
   -3.3521    0.3392    1.2386 O   0  0  0  0  0  0  0  0  0  0  0  0
   -2.2750    0.1612   -0.8784 N   0  0  0  0  0  0  0  0  0  0  0  0
   -0.9391   -0.0169   -1.1646 C   0  0  0  0  0  0  0  0  0  0  0  0
   -0.4032    0.0495   -2.2653 O   0  0  0  0  0  0  0  0  0  0  0  0
   -3.1732    0.4602   -1.9099 N   0  0  0  0  0  0  0  0  0  0  0  0
   -4.5379    0.5523   -1.8644 C   0  0  0  0  0  0  0  0  0  0  0  0
   -5.1781    0.6741   -2.9103 O   0  0  0  0  0  0  0  0  0  0  0  0
   -5.2348    0.5305   -0.5458 C   0  0  0  0  0  0  0  0  0  0  0  0
    0.6135    1.0987    1.7478 H   0  0  0  0  0  0  0  0  0  0  0  0
   -0.9254    2.4902    1.3510 H   0  0  0  0  0  0  0  0  0  0  0  0
    1.3882    1.6316   -1.1630 H   0  0  0  0  0  0  0  0  0  0  0  0
    2.6484    2.4889    1.2225 H   0  0  0  0  0  0  0  0  0  0  0  0
    2.9499    0.1774    1.0287 H   0  0  0  0  0  0  0  0  0  0  0  0
    3.4598    0.8613   -1.6977 H   0  0  0  0  0  0  0  0  0  0  0  0
    1.6945   -0.9995   -1.5092 H   0  0  0  0  0  0  0  0  0  0  0  0
    3.0174   -2.5404    0.7541 H   0  0  0  0  0  0  0  0  0  0  0  0
    2.5811   -3.0984   -0.8582 H   0  0  0  0  0  0  0  0  0  0  0  0
    4.1430   -1.1369   -1.3672 H   0  0  0  0  0  0  0  0  0  0  0  0
   -1.3042   -0.7702    1.9857 H   0  0  0  0  0  0  0  0  0  0  0  0
   -2.7754    0.4361   -2.8489 H   0  0  0  0  0  0  0  0  0  0  0  0
   -5.0413   -0.4287   -0.0579 H   0  0  0  0  0  0  0  0  0  0  0  0
   -4.8986    1.3973    0.0294 H   0  0  0  0  0  0  0  0  0  0  0  0
   -6.3151    0.6196   -0.6565 H   0  0  0  0  0  0  0  0  0  0  0  0
  1  2  1  0  0  0  0
  1 11  1  6  0  0  0
  1 12  1  0  0  0  0
  1 16  1  0  0  0  0
  2  4  1  0  0  0  0
  2 22  1  1  0  0  0
  2  3  1  0  0  0  0
  3 23  1  0  0  0  0
  4  5  1  0  0  0  0
  4  6  1  0  0  0  0
  4 24  1  6  0  0  0
  5 25  1  0  0  0  0
  6  7  1  0  0  0  0
  6  8  1  0  0  0  0
  6 26  1  1  0  0  0
  7 27  1  0  0  0  0
  8 11  1  0  0  0  0
  8 28  1  6  0  0  0
  8  9  1  0  0  0  0
  9 10  1  0  0  0  0
  9 29  1  0  0  0  0
  9 30  1  0  0  0  0
 10 31  1  0  0  0  0
 12 32  1  0  0  0  0
 13 12  1  0  0  0  0
 13 14  2  0  0  0  0
 13 15  1  0  0  0  0
 15 18  1  0  0  0  0
 16 15  1  0  0  0  0
 16 17  2  0  0  0  0
 18 33  1  0  0  0  0
 19 18  1  0  0  0  0
 19 20  2  0  0  0  0
 21 19  1  0  0  0  0
 21 34  1  0  0  0  0
 21 35  1  0  0  0  0
 21 36  1  0  0  0  0
M  END
>  <DRUGBANK_ID>
DB03835

>  <SECONDARY_ACCESSION_NUMBERS>
EXPT01602

>  <COMMON_NAME>
N-[(5S,7R,8S,9S,10R)-8,9,10-Trihydroxy-7-(hydroxymethyl)-2,4-dioxo-6-oxa-1,3-diazaspiro[4.5]dec-3-yl]acetamide

$$$$
