P49
 OpenBabel10282417173D

 39 42  0  0  0  0  0  0  0  0999 V2000
    2.4857   -0.8936   -0.0971 C   0  0  0  0  0  0  0  0  0  0  0  0
    3.2578    0.2012    0.0524 N   0  0  0  0  0  0  0  0  0  0  0  0
    2.6290    1.3879    0.1626 C   0  0  0  0  0  0  0  0  0  0  0  0
    1.2849    1.5352    0.1172 N   0  0  0  0  0  0  0  0  0  0  0  0
    1.1153   -0.8479   -0.1329 C   0  0  0  0  0  0  0  0  0  0  0  0
    0.5597    0.4218   -0.0304 C   0  0  0  0  0  0  0  0  0  0  0  0
   -1.0964   -1.9583    0.3974 C   0  0  0  0  0  0  0  0  0  0  0  0
    0.2507   -2.0660   -0.3368 C   0  0  0  0  0  0  0  0  0  0  0  0
   -1.6929   -0.6161    0.1670 C   0  0  0  0  0  0  0  0  0  0  0  0
   -0.9018    0.5000   -0.0081 C   0  0  0  0  0  0  0  0  0  0  0  0
   -1.7790    1.5383   -0.1671 N   0  0  0  0  0  0  0  0  0  0  0  0
   -3.1051    1.1360   -0.1293 N   0  0  0  0  0  0  0  0  0  0  0  0
   -3.0420   -0.2032    0.0838 C   0  0  0  0  0  0  0  0  0  0  0  0
   -1.4192    2.9249   -0.3879 C   0  0  0  0  0  0  0  0  0  0  0  0
    3.4404    2.5164    0.2940 N   0  0  0  0  0  0  0  0  0  0  0  0
    3.0146    3.8392    0.4382 C   0  0  0  0  0  0  0  0  0  0  0  0
    2.1382    4.1870    1.4735 C   0  0  0  0  0  0  0  0  0  0  0  0
    1.6069    5.4722    1.5665 C   0  0  0  0  0  0  0  0  0  0  0  0
    1.9418    6.4295    0.6140 C   0  0  0  0  0  0  0  0  0  0  0  0
    2.8268    6.1055   -0.4137 C   0  0  0  0  0  0  0  0  0  0  0  0
    3.3723    4.8190   -0.4942 C   0  0  0  0  0  0  0  0  0  0  0  0
   -4.1961   -1.1275    0.2079 C   0  0  0  0  0  0  0  0  0  0  0  0
   -5.4340   -0.5836    0.1006 O   0  0  0  0  0  0  0  0  0  0  0  0
   -4.0626   -2.3377    0.3962 O   0  0  0  0  0  0  0  0  0  0  0  0
    3.0166   -1.8382   -0.1840 H   0  0  0  0  0  0  0  0  0  0  0  0
   -1.7488   -2.7619    0.0516 H   0  0  0  0  0  0  0  0  0  0  0  0
   -0.9480   -2.0813    1.4776 H   0  0  0  0  0  0  0  0  0  0  0  0
    0.0614   -2.1658   -1.4144 H   0  0  0  0  0  0  0  0  0  0  0  0
    0.7617   -2.9735   -0.0019 H   0  0  0  0  0  0  0  0  0  0  0  0
   -0.8313    3.2733    0.4659 H   0  0  0  0  0  0  0  0  0  0  0  0
   -0.8259    2.9928   -1.3051 H   0  0  0  0  0  0  0  0  0  0  0  0
   -2.3188    3.5370   -0.4850 H   0  0  0  0  0  0  0  0  0  0  0  0
    4.4255    2.3268    0.1968 H   0  0  0  0  0  0  0  0  0  0  0  0
    1.8638    3.4399    2.2149 H   0  0  0  0  0  0  0  0  0  0  0  0
    0.9228    5.7146    2.3742 H   0  0  0  0  0  0  0  0  0  0  0  0
    1.5101    7.4252    0.6706 H   0  0  0  0  0  0  0  0  0  0  0  0
    3.0764    6.8513   -1.1643 H   0  0  0  0  0  0  0  0  0  0  0  0
    4.0321    4.5774   -1.3236 H   0  0  0  0  0  0  0  0  0  0  0  0
   -5.3649    0.3800   -0.0423 H   0  0  0  0  0  0  0  0  0  0  0  0
  1  2  1  0  0  0  0
  1  5  2  0  0  0  0
  1 25  1  0  0  0  0
  2  3  2  0  0  0  0
  3  4  1  0  0  0  0
  3 15  1  0  0  0  0
  4  6  2  0  0  0  0
  5  6  1  0  0  0  0
  5  8  1  0  0  0  0
  6 10  1  0  0  0  0
  7  8  1  0  0  0  0
  7  9  1  0  0  0  0
  7 26  1  0  0  0  0
  7 27  1  0  0  0  0
  8 28  1  0  0  0  0
  8 29  1  0  0  0  0
  9 10  2  0  0  0  0
  9 13  1  0  0  0  0
 10 11  1  0  0  0  0
 11 12  1  0  0  0  0
 11 14  1  0  0  0  0
 12 13  2  0  0  0  0
 13 22  1  0  0  0  0
 14 30  1  0  0  0  0
 14 31  1  0  0  0  0
 14 32  1  0  0  0  0
 15 16  1  0  0  0  0
 15 33  1  0  0  0  0
 16 17  1  0  0  0  0
 16 21  2  0  0  0  0
 17 18  2  0  0  0  0
 17 34  1  0  0  0  0
 18 19  1  0  0  0  0
 18 35  1  0  0  0  0
 19 20  2  0  0  0  0
 19 36  1  0  0  0  0
 20 21  1  0  0  0  0
 20 37  1  0  0  0  0
 21 38  1  0  0  0  0
 22 23  1  0  0  0  0
 22 24  2  0  0  0  0
 23 39  1  0  0  0  0
M  END
>  <DRUGBANK_ID>
DB08355

>  <COMMON_NAME>
1-methyl-8-(phenylamino)-4,5-dihydro-1H-pyrazolo[4,3-h]quinazoline-3-carboxylic acid

$$$$
