
 OpenBabel10282417153D

 46 48  0  0  0  0  0  0  0  0999 V2000
    6.4293    2.8607   -2.2707 C   0  0  0  0  0  0  0  0  0  0  0  0
    7.2357    2.1646   -3.1756 C   0  0  0  0  0  0  0  0  0  0  0  0
    7.9672    2.8334   -4.1587 C   0  0  0  0  0  0  0  0  0  0  0  0
    7.8035    4.2091   -4.3199 C   0  0  0  0  0  0  0  0  0  0  0  0
    6.9048    4.8743   -3.4985 C   0  0  0  0  0  0  0  0  0  0  0  0
    6.2424    4.2257   -2.4649 C   0  0  0  0  0  0  0  0  0  0  0  0
    5.8248    2.2462   -1.1515 N   0  0  0  0  0  0  0  0  0  0  0  0
    5.9673    0.9074   -0.8120 C   0  0  0  0  0  0  0  0  0  0  0  0
    5.1899    0.4411    0.4224 C   0  0  2  0  0  0  0  0  0  0  0  0
    3.6947    0.6549    0.2540 C   0  0  0  0  0  0  0  0  0  0  0  0
    5.6982    1.0684    1.6519 N   0  0  0  0  0  0  0  0  0  0  0  0
    6.6507    0.0791   -1.4120 O   0  0  0  0  0  0  0  0  0  0  0  0
    8.7886    5.1475   -5.4358 S   0  0  0  0  0  0  0  0  0  0  0  0
    7.9337    6.7468   -5.6319 C   0  0  0  0  0  0  0  0  0  0  0  0
    7.8277    7.9112   -4.7969 C   0  0  0  0  0  0  0  0  0  0  0  0
    8.3251    8.1941   -7.4057 C   0  0  0  0  0  0  0  0  0  0  0  0
    7.8149    6.9748   -6.9590 C   0  0  0  0  0  0  0  0  0  0  0  0
    8.2000    9.3339   -6.5911 C   0  0  0  0  0  0  0  0  0  0  0  0
    7.4670    9.2064   -5.4205 C   0  0  0  0  0  0  0  0  0  0  0  0
    6.2139    9.9213   -5.9476 N   0  0  0  0  0  0  0  0  0  0  0  0
    6.4799   10.4311   -7.2025 C   0  0  0  0  0  0  0  0  0  0  0  0
    7.8542   10.6698   -6.9391 N   0  0  0  0  0  0  0  0  0  0  0  0
    6.1238   10.0083   -8.5480 N   0  0  0  0  0  0  0  0  0  0  0  0
    5.9663    8.6675   -8.8715 C   0  0  0  0  0  0  0  0  0  0  0  0
    6.4469    8.2814  -10.0985 O   0  0  0  0  0  0  0  0  0  0  0  0
    5.5821    8.4866  -11.2097 C   0  0  0  0  0  0  0  0  0  0  0  0
    5.5815    7.7831   -8.0930 O   0  0  0  0  0  0  0  0  0  0  0  0
    7.3467    1.0879   -3.1346 H   0  0  0  0  0  0  0  0  0  0  0  0
    8.6720    2.2492   -4.7493 H   0  0  0  0  0  0  0  0  0  0  0  0
    6.7391    5.9344   -3.6241 H   0  0  0  0  0  0  0  0  0  0  0  0
    5.6048    4.8347   -1.8349 H   0  0  0  0  0  0  0  0  0  0  0  0
    5.2925    2.8478   -0.5339 H   0  0  0  0  0  0  0  0  0  0  0  0
    5.3789   -0.6382    0.4981 H   0  0  0  0  0  0  0  0  0  0  0  0
    3.1606   -0.2713    0.4920 H   0  0  0  0  0  0  0  0  0  0  0  0
    3.3181    1.4312    0.9270 H   0  0  0  0  0  0  0  0  0  0  0  0
    3.4287    0.9409   -0.7688 H   0  0  0  0  0  0  0  0  0  0  0  0
    6.6989    0.8766    1.7286 H   0  0  0  0  0  0  0  0  0  0  0  0
    5.5936    2.0773    1.6138 H   0  0  0  0  0  0  0  0  0  0  0  0
    8.5862    7.8895   -3.9887 H   0  0  0  0  0  0  0  0  0  0  0  0
    8.4906    8.3542   -8.4510 H   0  0  0  0  0  0  0  0  0  0  0  0
    7.4970    6.1770   -7.6289 H   0  0  0  0  0  0  0  0  0  0  0  0
    7.9696   11.3018   -6.1654 H   0  0  0  0  0  0  0  0  0  0  0  0
    6.0705   10.6571   -9.3316 H   0  0  0  0  0  0  0  0  0  0  0  0
    4.5892    8.8083  -10.8901 H   0  0  0  0  0  0  0  0  0  0  0  0
    6.0786    9.2480  -11.8101 H   0  0  0  0  0  0  0  0  0  0  0  0
    5.4787    7.5720  -11.8129 H   0  0  0  0  0  0  0  0  0  0  0  0
  1  7  1  0  0  0  0
  1  2  2  0  0  0  0
  2  3  1  0  0  0  0
  2 28  1  0  0  0  0
  3  4  2  0  0  0  0
  3 29  1  0  0  0  0
  4  5  1  0  0  0  0
  4 13  1  0  0  0  0
  5  6  2  0  0  0  0
  5 30  1  0  0  0  0
  6  1  1  0  0  0  0
  6 31  1  0  0  0  0
  7  8  1  0  0  0  0
  7 32  1  0  0  0  0
  8 12  2  0  0  0  0
  9 11  1  0  0  0  0
  9 33  1  1  0  0  0
  9 10  1  0  0  0  0
  9  8  1  0  0  0  0
 10 34  1  0  0  0  0
 10 35  1  0  0  0  0
 10 36  1  0  0  0  0
 11 37  1  0  0  0  0
 11 38  1  0  0  0  0
 13 14  1  0  0  0  0
 14 15  2  0  0  0  0
 15 19  1  0  0  0  0
 15 39  1  0  0  0  0
 16 17  2  0  0  0  0
 16 40  1  0  0  0  0
 17 14  1  0  0  0  0
 17 41  1  0  0  0  0
 18 16  1  0  0  0  0
 18 19  2  0  0  0  0
 19 20  1  0  0  0  0
 20 21  2  0  0  0  0
 21 22  1  0  0  0  0
 21 23  1  0  0  0  0
 22 18  1  0  0  0  0
 22 42  1  0  0  0  0
 23 24  1  0  0  0  0
 23 43  1  0  0  0  0
 24 25  1  0  0  0  0
 24 27  2  0  0  0  0
 25 26  1  0  0  0  0
 26 44  1  0  0  0  0
 26 45  1  0  0  0  0
 26 46  1  0  0  0  0
M  END
>  <DRUGBANK_ID>
DB05932

>  <COMMON_NAME>
Denibulin

>  <CAS_NUMBER>
284019-34-7

>  <UNII>
K7037M241U

>  <SYNONYMS>
Denibulin

$$$$
