
 OpenBabel10282417213D

 54 57  0  0  0  0  0  0  0  0999 V2000
   -3.2812    0.3058   -1.6227 C   0  0  0  0  0  0  0  0  0  0  0  0
   -2.0970   -0.8561   -1.2335 C   0  0  0  0  0  0  0  0  0  0  0  0
   -2.3317   -1.9383   -0.0714 C   0  0  0  0  0  0  0  0  0  0  0  0
   -1.6376   -3.0960    0.4587 C   0  0  0  0  0  0  0  0  0  0  0  0
   -2.6881   -2.3866    2.4632 C   0  0  0  0  0  0  0  0  0  0  0  0
   -3.7838   -1.5527    1.8956 C   0  0  0  0  0  0  0  0  0  0  0  0
   -3.8483   -1.6890    0.2940 C   0  0  2  0  0  0  0  0  0  0  0  0
   -7.4523    0.1214   -0.1978 C   0  0  0  0  0  0  0  0  0  0  0  0
   -7.0949    3.0646   -1.3478 C   0  0  0  0  0  0  0  0  0  0  0  0
   -5.8385    2.1669   -1.0660 C   0  0  0  0  0  0  0  0  0  0  0  0
   -4.8674   -0.5512   -0.0484 C   0  0  2  0  0  0  0  0  0  0  0  0
   -4.6679    0.3292    0.5754 H   0  0  0  0  0  0  0  0  0  0  0  0
   -5.8697    0.8227   -1.8780 C   0  0  1  0  0  0  0  0  0  0  0  0
   -5.6566    0.8657   -2.9452 H   0  0  0  0  0  0  0  0  0  0  0  0
   -4.7677   -0.1428   -1.4708 C   0  0  2  0  0  0  0  0  0  0  0  0
   -4.9578   -0.9207   -2.2076 H   0  0  0  0  0  0  0  0  0  0  0  0
   -7.3956    0.6073   -1.8629 C   0  0  1  0  0  0  0  0  0  0  0  0
   -7.4931    2.3283   -2.6461 C   0  0  1  0  0  0  0  0  0  0  0  0
   -2.7430   -3.4902    1.4551 C   0  0  0  0  0  0  0  0  0  0  0  0
   -3.5589   -4.3506    1.2664 O   0  0  0  0  0  0  0  0  0  0  0  0
   -6.3302   -0.9081    0.2712 C   0  0  0  0  0  0  0  0  0  0  0  0
   -6.5945   -1.8135    1.0523 O   0  0  0  0  0  0  0  0  0  0  0  0
   -8.0950    3.6305   -3.5834 C   0  0  0  0  0  0  0  0  0  0  0  0
   -7.3944    4.6727   -3.6961 O   0  0  0  0  0  0  0  0  0  0  0  0
   -9.2747    3.6091   -4.5284 C   0  0  0  0  0  0  0  0  0  0  0  0
  -10.0876    4.7843   -4.4496 O   0  0  0  0  0  0  0  0  0  0  0  0
   -6.1982    2.5543   -3.5661 O   0  0  0  0  0  0  0  0  0  0  0  0
   -4.2210   -2.8242   -0.7539 C   0  0  0  0  0  0  0  0  0  0  0  0
   -8.0963   -0.7472   -2.3679 C   0  0  0  0  0  0  0  0  0  0  0  0
   -3.2218    0.6902   -2.6532 H   0  0  0  0  0  0  0  0  0  0  0  0
   -3.0479    1.2096   -1.0335 H   0  0  0  0  0  0  0  0  0  0  0  0
   -1.9592   -1.3985   -2.1742 H   0  0  0  0  0  0  0  0  0  0  0  0
   -1.1982   -0.2819   -0.9783 H   0  0  0  0  0  0  0  0  0  0  0  0
   -1.3622   -4.0513    1.0881 H   0  0  0  0  0  0  0  0  0  0  0  0
   -2.6006   -2.7246    3.4804 H   0  0  0  0  0  0  0  0  0  0  0  0
   -1.7650   -1.7918    2.3085 H   0  0  0  0  0  0  0  0  0  0  0  0
   -4.7030   -1.8067    2.4131 H   0  0  0  0  0  0  0  0  0  0  0  0
   -3.5441   -0.5027    2.1728 H   0  0  0  0  0  0  0  0  0  0  0  0
   -8.4011   -0.3940    0.0331 H   0  0  0  0  0  0  0  0  0  0  0  0
   -7.3573    0.9028    0.5525 H   0  0  0  0  0  0  0  0  0  0  0  0
   -8.1984    3.2112   -1.2437 H   0  0  0  0  0  0  0  0  0  0  0  0
   -7.4137    2.9154   -0.2926 H   0  0  0  0  0  0  0  0  0  0  0  0
   -5.7974    2.0237    0.0231 H   0  0  0  0  0  0  0  0  0  0  0  0
   -4.8859    2.6423   -1.2744 H   0  0  0  0  0  0  0  0  0  0  0  0
   -8.9063    3.5990   -5.5702 H   0  0  0  0  0  0  0  0  0  0  0  0
   -9.8617    2.7347   -4.3148 H   0  0  0  0  0  0  0  0  0  0  0  0
  -10.1200    5.0872   -3.5259 H   0  0  0  0  0  0  0  0  0  0  0  0
   -6.2643    3.3134   -4.1921 H   0  0  0  0  0  0  0  0  0  0  0  0
   -4.3751   -2.4500   -1.7677 H   0  0  0  0  0  0  0  0  0  0  0  0
   -3.4084   -3.5024   -1.0799 H   0  0  0  0  0  0  0  0  0  0  0  0
   -5.0798   -3.3920   -0.4542 H   0  0  0  0  0  0  0  0  0  0  0  0
   -7.6467   -1.6397   -1.8687 H   0  0  0  0  0  0  0  0  0  0  0  0
   -9.1345   -0.8242   -1.9731 H   0  0  0  0  0  0  0  0  0  0  0  0
   -8.1262   -1.0289   -3.4191 H   0  0  0  0  0  0  0  0  0  0  0  0
  1  2  1  0  0  0  0
  1 30  1  0  0  0  0
  1 31  1  0  0  0  0
  2  3  1  0  0  0  0
  2 32  1  0  0  0  0
  2 33  1  0  0  0  0
  3  4  2  0  0  0  0
  3  7  1  0  0  0  0
  4 19  1  0  0  0  0
  4 34  1  0  0  0  0
  5  6  1  0  0  0  0
  5 35  1  0  0  0  0
  5 36  1  0  0  0  0
  6  7  1  0  0  0  0
  6 37  1  0  0  0  0
  6 38  1  0  0  0  0
  7 11  1  0  0  0  0
  7 28  1  1  0  0  0
  8 17  1  0  0  0  0
  8 39  1  0  0  0  0
  8 40  1  0  0  0  0
  9 10  1  0  0  0  0
  9 41  1  0  0  0  0
  9 42  1  0  0  0  0
 10 13  1  0  0  0  0
 10 43  1  0  0  0  0
 10 44  1  0  0  0  0
 11 21  1  0  0  0  0
 11 12  1  6  0  0  0
 13 14  1  6  0  0  0
 15  1  1  0  0  0  0
 15 11  1  0  0  0  0
 15 13  1  0  0  0  0
 15 16  1  1  0  0  0
 17 18  1  0  0  0  0
 17 13  1  0  0  0  0
 17 29  1  1  0  0  0
 18  9  1  0  0  0  0
 18 23  1  6  0  0  0
 18 27  1  0  0  0  0
 19  5  1  0  0  0  0
 19 20  2  0  0  0  0
 21  8  1  0  0  0  0
 21 22  2  0  0  0  0
 23 25  1  0  0  0  0
 23 24  2  0  0  0  0
 25 26  1  0  0  0  0
 25 45  1  0  0  0  0
 25 46  1  0  0  0  0
 26 47  1  0  0  0  0
 27 48  1  0  0  0  0
 28 49  1  0  0  0  0
 28 50  1  0  0  0  0
 28 51  1  0  0  0  0
 29 52  1  0  0  0  0
 29 53  1  0  0  0  0
 29 54  1  0  0  0  0
M  END
>  <DRUGBANK_ID>
DB14681

>  <COMMON_NAME>
Cortisone

>  <CAS_NUMBER>
53-06-5

>  <UNII>
V27W9254FZ

>  <SYNONYMS>
11-dehydro-17-hydroxycorticosterone; 17alpha,21-Dihydroxy-4-pregnene-3,11,20-trione; 17α,21-dihydroxy-4-pregnene-3,11,20-trione; 4-pregnene-17α,21-diol-3,11,20-trione; Cortisona; Cortisone; Cortisonum; Kendall's compound E; Kortison; pregn-4-en-17α,21-diol-3,11,20-trione; Reichstein's substance Fa; Wintersteiner's compound F

$$$$
