PPB
 OpenBabel10282417173D

 59 61  0  0  0  0  0  0  0  0999 V2000
    1.0084   -1.6604    1.7431 C   0  0  0  0  0  0  0  0  0  0  0  0
    2.4154   -1.1469    2.0023 C   0  0  0  0  0  0  0  0  0  0  0  0
    0.9918    0.0538    0.0046 N   0  0  0  0  0  0  0  0  0  0  0  0
   -1.0982   -1.2858    0.3598 B   0  0  0  0  0  0  0  0  0  0  0  0
    0.5018   -1.2858    0.3598 C   0  0  2  0  0  0  0  0  0  0  0  0
   -1.8482   -2.2020   -0.5611 O   0  0  0  0  0  0  0  0  0  0  0  0
   -1.8482   -0.3697    1.2808 O   0  0  0  0  0  0  0  0  0  0  0  0
    4.0334    0.2766   -1.9922 N   0  0  0  0  0  0  0  0  0  0  0  0
    2.8360    1.0098   -1.5415 C   0  0  2  0  0  0  0  0  0  0  0  0
    1.7024    0.0310   -1.2820 C   0  0  0  0  0  0  0  0  0  0  0  0
    1.3690   -0.8071   -2.1773 O   0  0  0  0  0  0  0  0  0  0  0  0
    2.5192    1.8564   -2.7431 C   0  0  0  0  0  0  0  0  0  0  0  0
    3.9193    2.3849   -3.1779 C   0  0  0  0  0  0  0  0  0  0  0  0
    4.8559    1.2229   -2.8371 C   0  0  0  0  0  0  0  0  0  0  0  0
    4.3666   -1.1201   -1.6774 C   0  0  0  0  0  0  0  0  0  0  0  0
    5.4357   -1.6360   -2.1311 O   0  0  0  0  0  0  0  0  0  0  0  0
    3.4324   -1.9471   -0.8093 C   0  0  1  0  0  0  0  0  0  0  0  0
    3.2444   -0.8697    0.9404 C   0  0  0  0  0  0  0  0  0  0  0  0
    4.5620   -0.4542    1.1479 C   0  0  0  0  0  0  0  0  0  0  0  0
    2.8580   -1.0453    3.3389 C   0  0  0  0  0  0  0  0  0  0  0  0
    4.2145   -0.6622    3.5183 C   0  0  0  0  0  0  0  0  0  0  0  0
    5.0322   -0.3684    2.4534 C   0  0  0  0  0  0  0  0  0  0  0  0
    5.3712   -0.0398    0.0326 C   0  0  0  0  0  0  0  0  0  0  0  0
    5.9856    0.3395   -0.8629 N   0  0  0  0  0  0  0  0  0  0  0  0
    3.2898   -1.2876    0.5528 C   0  0  0  0  0  0  0  0  0  0  0  0
    2.1134   -2.0330   -1.4525 N   0  0  0  0  0  0  0  0  0  0  0  0
    2.9844    2.3897    0.8723 C   0  0  0  0  0  0  0  0  0  0  0  0
    2.1163    2.6638   -0.0944 C   0  0  0  0  0  0  0  0  0  0  0  0
    1.5504    1.6531   -0.8335 C   0  0  0  0  0  0  0  0  0  0  0  0
    1.7948    0.3416   -0.5343 C   0  0  0  0  0  0  0  0  0  0  0  0
    2.7176    0.1101    0.3815 C   0  0  0  0  0  0  0  0  0  0  0  0
    3.2293    1.0856    1.2696 C   0  0  0  0  0  0  0  0  0  0  0  0
    0.8584   -1.9973   -0.3554 H   0  0  0  0  0  0  0  0  0  0  0  0
    2.9755    1.5681   -0.6394 H   0  0  0  0  0  0  0  0  0  0  0  0
    3.8352   -2.9311   -0.6887 H   0  0  0  0  0  0  0  0  0  0  0  0
    0.3339   -1.2251    2.4505 H   0  0  0  0  0  0  0  0  0  0  0  0
    0.9931   -2.7254    1.8444 H   0  0  0  0  0  0  0  0  0  0  0  0
    1.2593    0.7264    0.7232 H   0  0  0  0  0  0  0  0  0  0  0  0
   -1.1984   -2.7380   -1.1000 H   0  0  0  0  0  0  0  0  0  0  0  0
   -2.8314   -0.4986    1.1513 H   0  0  0  0  0  0  0  0  0  0  0  0
    2.0125    1.3181   -3.5167 H   0  0  0  0  0  0  0  0  0  0  0  0
    1.8669    2.6639   -2.4835 H   0  0  0  0  0  0  0  0  0  0  0  0
    3.9589    2.6658   -4.2096 H   0  0  0  0  0  0  0  0  0  0  0  0
    4.1844    3.2645   -2.6292 H   0  0  0  0  0  0  0  0  0  0  0  0
    5.2323    0.7447   -3.7172 H   0  0  0  0  0  0  0  0  0  0  0  0
    5.7037    1.5746   -2.2872 H   0  0  0  0  0  0  0  0  0  0  0  0
    2.8751   -0.9736   -0.0584 H   0  0  0  0  0  0  0  0  0  0  0  0
    2.2108   -1.2449    4.1673 H   0  0  0  0  0  0  0  0  0  0  0  0
    4.6106   -0.6006    4.5104 H   0  0  0  0  0  0  0  0  0  0  0  0
    6.0441   -0.0697    2.6315 H   0  0  0  0  0  0  0  0  0  0  0  0
    2.6322   -1.8699    1.1639 H   0  0  0  0  0  0  0  0  0  0  0  0
    4.2499   -1.2251    1.0210 H   0  0  0  0  0  0  0  0  0  0  0  0
    1.4865   -2.5880   -0.8700 H   0  0  0  0  0  0  0  0  0  0  0  0
    1.7294   -1.0951   -1.5674 H   0  0  0  0  0  0  0  0  0  0  0  0
    3.5044    3.1915    1.3536 H   0  0  0  0  0  0  0  0  0  0  0  0
    1.8552    3.6809   -0.2998 H   0  0  0  0  0  0  0  0  0  0  0  0
    0.9093    1.8960   -1.6550 H   0  0  0  0  0  0  0  0  0  0  0  0
    1.2666   -0.4545   -1.0162 H   0  0  0  0  0  0  0  0  0  0  0  0
    3.7575    0.8383    2.1667 H   0  0  0  0  0  0  0  0  0  0  0  0
  1  2  1  0  0  0  0
  1 36  1  0  0  0  0
  1 37  1  0  0  0  0
  2 18  2  0  0  0  0
  2 20  1  0  0  0  0
  3 10  1  0  0  0  0
  3 38  1  0  0  0  0
  4  6  1  0  0  0  0
  4  7  1  0  0  0  0
  5  4  1  0  0  0  0
  5 33  1  6  0  0  0
  5  3  1  0  0  0  0
  5  1  1  0  0  0  0
  6 39  1  0  0  0  0
  7 40  1  0  0  0  0
  8  9  1  0  0  0  0
  8 14  1  0  0  0  0
  8 15  1  0  0  0  0
  9 10  1  0  0  0  0
  9 12  1  0  0  0  0
  9 34  1  1  0  0  0
 10 11  2  0  0  0  0
 12 13  1  0  0  0  0
 12 41  1  0  0  0  0
 12 42  1  0  0  0  0
 13 14  1  0  0  0  0
 13 43  1  0  0  0  0
 13 44  1  0  0  0  0
 14 45  1  0  0  0  0
 14 46  1  0  0  0  0
 15 16  2  0  0  0  0
 15 17  1  0  0  0  0
 17 25  1  0  0  0  0
 17 26  1  0  0  0  0
 17 35  1  1  0  0  0
 18 19  1  0  0  0  0
 18 47  1  0  0  0  0
 19 22  2  0  0  0  0
 19 23  1  0  0  0  0
 20 21  2  0  0  0  0
 20 48  1  0  0  0  0
 21 22  1  0  0  0  0
 21 49  1  0  0  0  0
 22 50  1  0  0  0  0
 23 24  3  0  0  0  0
 25 31  1  0  0  0  0
 25 51  1  0  0  0  0
 25 52  1  0  0  0  0
 26 53  1  0  0  0  0
 26 54  1  0  0  0  0
 27 28  2  0  0  0  0
 27 32  1  0  0  0  0
 27 55  1  0  0  0  0
 28 29  1  0  0  0  0
 28 56  1  0  0  0  0
 29 30  2  0  0  0  0
 29 57  1  0  0  0  0
 30 31  1  0  0  0  0
 30 58  1  0  0  0  0
 31 32  2  0  0  0  0
 32 59  1  0  0  0  0
M  END
>  <DRUGBANK_ID>
DB08420

>  <COMMON_NAME>
1-{[1-(2-AMINO-3-PHENYL-PROPIONYL)-PYRROLIDINE-2-CARBONYL]-AMINO}-2-(3-CYANO-PHENYL)-ETHANEBORONIC ACID

$$$$
