
 OpenBabel10282417113D

 45 47  0  0  0  0  0  0  0  0999 V2000
   -0.9498   -0.9679   -0.1287 N   0  0  0  0  0  0  0  0  0  0  0  0
   -1.4496   -1.8726    0.7897 C   0  0  0  0  0  0  0  0  0  0  0  0
   -0.6926   -3.1035    1.1893 C   0  0  0  0  0  0  0  0  0  0  0  0
   -2.5116   -1.6082    1.3605 O   0  0  0  0  0  0  0  0  0  0  0  0
    0.4076   -0.8914   -0.8062 C   0  0  1  0  0  0  0  0  0  0  0  0
    1.5078   -1.5222   -2.5405 N   0  0  0  0  0  0  0  0  0  0  0  0
    1.0676   -2.1957   -1.3185 C   0  0  2  0  0  0  0  0  0  0  0  0
    0.5484   -0.5082   -2.3559 C   0  0  0  0  0  0  0  0  0  0  0  0
    1.7250   -2.3365   -3.7226 C   0  0  0  0  0  0  0  0  0  0  0  0
   -0.0936   -3.3328   -2.0098 S   0  0  0  0  0  0  0  0  0  0  0  0
    0.0786    0.2619   -3.1324 O   0  0  0  0  0  0  0  0  0  0  0  0
    1.6128   -3.7244   -3.7102 C   0  0  0  0  0  0  0  0  0  0  0  0
    1.9787   -1.6780   -5.0448 C   0  0  0  0  0  0  0  0  0  0  0  0
    1.1386   -4.4695   -2.4968 C   0  0  0  0  0  0  0  0  0  0  0  0
    1.9998   -0.3360   -5.0023 O   0  0  0  0  0  0  0  0  0  0  0  0
    2.2478   -2.2797   -6.0702 O   0  0  0  0  0  0  0  0  0  0  0  0
    1.8430   -2.5835   -0.6561 H   0  0  0  0  0  0  0  0  0  0  0  0
    1.6662   -4.6889   -4.8852 C   0  0  0  0  0  0  0  0  0  0  0  0
    0.7191   -4.3950   -5.9380 O   0  0  0  0  0  0  0  0  0  0  0  0
   -0.6262   -4.4716   -5.9177 C   0  0  0  0  0  0  0  0  0  0  0  0
   -1.3064   -5.0571   -4.7309 C   0  0  0  0  0  0  0  0  0  0  0  0
   -1.2984   -4.0564   -6.8589 O   0  0  0  0  0  0  0  0  0  0  0  0
   -1.0341   -4.6543    0.3695 S   0  0  0  0  0  0  0  0  0  0  0  0
   -2.4364   -4.5023   -0.8051 C   0  0  0  0  0  0  0  0  0  0  0  0
   -2.9548   -3.6117   -1.7960 C   0  0  0  0  0  0  0  0  0  0  0  0
   -4.0541   -4.0152   -2.5546 C   0  0  0  0  0  0  0  0  0  0  0  0
   -4.6815   -5.1857   -2.3557 N   0  0  0  0  0  0  0  0  0  0  0  0
   -4.1326   -6.0148   -1.4514 C   0  0  0  0  0  0  0  0  0  0  0  0
   -2.9912   -5.7583   -0.7494 C   0  0  0  0  0  0  0  0  0  0  0  0
   -1.5391   -0.1348   -0.1307 H   0  0  0  0  0  0  0  0  0  0  0  0
    0.3809   -2.9009    1.2864 H   0  0  0  0  0  0  0  0  0  0  0  0
   -1.0203   -3.3780    2.1927 H   0  0  0  0  0  0  0  0  0  0  0  0
    1.0512   -0.2538   -0.1873 H   0  0  0  0  0  0  0  0  0  0  0  0
    1.8941   -4.6956   -1.7438 H   0  0  0  0  0  0  0  0  0  0  0  0
    0.6023   -5.4133   -2.6355 H   0  0  0  0  0  0  0  0  0  0  0  0
    1.6002    0.0541   -4.2026 H   0  0  0  0  0  0  0  0  0  0  0  0
    2.6776   -4.6395   -5.2961 H   0  0  0  0  0  0  0  0  0  0  0  0
    1.5336   -5.7416   -4.5949 H   0  0  0  0  0  0  0  0  0  0  0  0
   -1.9076   -4.2752   -4.2685 H   0  0  0  0  0  0  0  0  0  0  0  0
   -1.9250   -5.9107   -5.0060 H   0  0  0  0  0  0  0  0  0  0  0  0
   -0.6121   -5.4493   -4.0148 H   0  0  0  0  0  0  0  0  0  0  0  0
   -2.5161   -2.6741   -2.1486 H   0  0  0  0  0  0  0  0  0  0  0  0
   -4.4522   -3.4180   -3.3782 H   0  0  0  0  0  0  0  0  0  0  0  0
   -4.6389   -6.9432   -1.2427 H   0  0  0  0  0  0  0  0  0  0  0  0
   -2.5515   -6.5304   -0.1293 H   0  0  0  0  0  0  0  0  0  0  0  0
  1  2  1  0  0  0  0
  1 30  1  0  0  0  0
  2  4  2  0  0  0  0
  2  3  1  0  0  0  0
  3 23  1  0  0  0  0
  3 31  1  0  0  0  0
  3 32  1  0  0  0  0
  5 33  1  1  0  0  0
  5  1  1  0  0  0  0
  6  7  1  0  0  0  0
  6  8  1  0  0  0  0
  6  9  1  0  0  0  0
  7 17  1  1  0  0  0
  7  5  1  0  0  0  0
  7 10  1  0  0  0  0
  8  5  1  0  0  0  0
  8 11  2  0  0  0  0
  9 13  1  0  0  0  0
  9 12  2  0  0  0  0
 10 14  1  0  0  0  0
 12 14  1  0  0  0  0
 12 18  1  0  0  0  0
 13 15  1  0  0  0  0
 13 16  2  0  0  0  0
 14 34  1  0  0  0  0
 14 35  1  0  0  0  0
 15 36  1  0  0  0  0
 18 19  1  0  0  0  0
 18 37  1  0  0  0  0
 18 38  1  0  0  0  0
 19 20  1  0  0  0  0
 20 21  1  0  0  0  0
 20 22  2  0  0  0  0
 21 39  1  0  0  0  0
 21 40  1  0  0  0  0
 21 41  1  0  0  0  0
 23 24  1  0  0  0  0
 24 25  2  0  0  0  0
 25 26  1  0  0  0  0
 25 42  1  0  0  0  0
 26 27  2  0  0  0  0
 26 43  1  0  0  0  0
 27 28  1  0  0  0  0
 28 29  2  0  0  0  0
 28 44  1  0  0  0  0
 29 24  1  0  0  0  0
 29 45  1  0  0  0  0
M  END
>  <DRUGBANK_ID>
DB01139

>  <SECONDARY_ACCESSION_NUMBERS>
APRD00860

>  <COMMON_NAME>
Cefapirin

>  <CAS_NUMBER>
21593-23-7

>  <UNII>
89B59H32VN

>  <SYNONYMS>
(6R,7R)-3-(acetoxymethyl)-8-oxo-7-{[(pyridin-4-ylsulfanyl)acetyl]amino}-5-thia-1-azabicyclo[4.2.0]oct-2-ene-2-carboxylic acid; Cefapirin; Cefapirina; Cefapirine; Cefapirinum; Cefaprin; Cephapirin; Cephapirine; CEPR

$$$$
