926
 OpenBabel10282417113D

 56 56  0  0  0  0  0  0  0  0999 V2000
    0.9866    0.0880    0.0428 O   0  0  0  0  0  0  0  0  0  0  0  0
   -2.5634    4.3365    0.2483 O   0  0  0  0  0  0  0  0  0  0  0  0
   -3.4186    4.1312   -1.7850 O   0  0  0  0  0  0  0  0  0  0  0  0
    0.1623    2.1669   -2.9258 C   0  0  0  0  0  0  0  0  0  0  0  0
   -1.1220    2.6277   -2.5908 C   0  0  0  0  0  0  0  0  0  0  0  0
    0.8634    1.2717   -2.0946 C   0  0  0  0  0  0  0  0  0  0  0  0
   -1.7154    2.0931   -1.3675 C   0  0  0  0  0  0  0  0  0  0  0  0
    0.4122    0.9896   -0.8127 C   0  0  0  0  0  0  0  0  0  0  0  0
   -0.8528    1.4419   -0.4440 C   0  0  0  0  0  0  0  0  0  0  0  0
    0.7426    2.4969   -4.2740 C   0  0  0  0  0  0  0  0  0  0  0  0
   -1.6690    3.6693   -3.5413 C   0  0  0  0  0  0  0  0  0  0  0  0
    2.0284    0.5934   -2.7266 C   0  0  0  0  0  0  0  0  0  0  0  0
   -3.2112    1.9278   -0.9599 C   0  0  0  0  0  0  0  0  0  0  0  0
   -1.5678    4.1849   -4.7811 C   0  0  0  0  0  0  0  0  0  0  0  0
   -2.4075    5.2351   -5.4265 C   0  0  0  0  0  0  0  0  0  0  0  0
    2.3987    0.1296    0.2205 C   0  0  0  0  0  0  0  0  0  0  0  0
   -1.8901    5.4965   -6.8202 C   0  0  0  0  0  0  0  0  0  0  0  0
   -3.5494    5.8934   -5.0474 C   0  0  0  0  0  0  0  0  0  0  0  0
   -4.1828    5.8427   -3.7493 C   0  0  0  0  0  0  0  0  0  0  0  0
   -5.2270    6.2665   -3.0204 C   0  0  0  0  0  0  0  0  0  0  0  0
   -5.4721    5.9133   -1.5650 C   0  0  0  0  0  0  0  0  0  0  0  0
   -6.8022    6.3527   -1.0227 C   0  0  0  0  0  0  0  0  0  0  0  0
   -4.7173    5.3239   -0.5937 C   0  0  0  0  0  0  0  0  0  0  0  0
   -3.4276    4.7051   -0.7515 C   0  0  0  0  0  0  0  0  0  0  0  0
   -2.9785    3.5150    1.4018 C   0  0  0  0  0  0  0  0  0  0  0  0
   -3.1949    4.5891    2.3756 C   0  0  0  0  0  0  0  0  0  0  0  0
   -1.2108    1.1783    0.5509 H   0  0  0  0  0  0  0  0  0  0  0  0
    0.0278    2.1311   -5.0184 H   0  0  0  0  0  0  0  0  0  0  0  0
    0.9621    3.5666   -4.3241 H   0  0  0  0  0  0  0  0  0  0  0  0
    1.6718    2.0108   -4.5483 H   0  0  0  0  0  0  0  0  0  0  0  0
   -2.0864    4.4404   -2.9729 H   0  0  0  0  0  0  0  0  0  0  0  0
    1.7391    0.2213   -3.7125 H   0  0  0  0  0  0  0  0  0  0  0  0
    2.8561    1.3075   -2.7898 H   0  0  0  0  0  0  0  0  0  0  0  0
    2.3043   -0.3296   -2.2430 H   0  0  0  0  0  0  0  0  0  0  0  0
   -3.7543    2.7026   -0.4516 H   0  0  0  0  0  0  0  0  0  0  0  0
   -3.9381    1.8034   -1.7583 H   0  0  0  0  0  0  0  0  0  0  0  0
   -3.3116    1.2146   -0.1356 H   0  0  0  0  0  0  0  0  0  0  0  0
   -0.7888    3.8310   -5.4441 H   0  0  0  0  0  0  0  0  0  0  0  0
    2.6607   -0.7032    0.8774 H   0  0  0  0  0  0  0  0  0  0  0  0
    3.0156   -0.0508   -0.6555 H   0  0  0  0  0  0  0  0  0  0  0  0
    2.7097    1.0803    0.6520 H   0  0  0  0  0  0  0  0  0  0  0  0
   -2.6419    5.1817   -7.5469 H   0  0  0  0  0  0  0  0  0  0  0  0
   -1.6510    6.5564   -6.9265 H   0  0  0  0  0  0  0  0  0  0  0  0
   -0.9711    4.9468   -7.0628 H   0  0  0  0  0  0  0  0  0  0  0  0
   -4.0324    6.5552   -5.7586 H   0  0  0  0  0  0  0  0  0  0  0  0
   -3.5196    5.2979   -3.1816 H   0  0  0  0  0  0  0  0  0  0  0  0
   -5.9760    6.8861   -3.5053 H   0  0  0  0  0  0  0  0  0  0  0  0
   -7.4553    5.5071   -0.7737 H   0  0  0  0  0  0  0  0  0  0  0  0
   -6.6070    6.9110   -0.0981 H   0  0  0  0  0  0  0  0  0  0  0  0
   -7.3217    7.0232   -1.7035 H   0  0  0  0  0  0  0  0  0  0  0  0
   -5.2101    4.9256    0.2790 H   0  0  0  0  0  0  0  0  0  0  0  0
   -3.9266    2.9603    1.3119 H   0  0  0  0  0  0  0  0  0  0  0  0
   -2.2192    2.7657    1.6997 H   0  0  0  0  0  0  0  0  0  0  0  0
   -3.9213    5.2516    1.9068 H   0  0  0  0  0  0  0  0  0  0  0  0
   -3.5928    4.2192    3.3100 H   0  0  0  0  0  0  0  0  0  0  0  0
   -2.2449    5.1163    2.4514 H   0  0  0  0  0  0  0  0  0  0  0  0
  1  8  1  0  0  0  0
  1 16  1  0  0  0  0
  2 24  1  0  0  0  0
  2 25  1  0  0  0  0
  3 24  2  0  0  0  0
  4  5  2  0  0  0  0
  4  6  1  0  0  0  0
  4 10  1  0  0  0  0
  5  7  1  0  0  0  0
  5 11  1  0  0  0  0
  6  8  2  0  0  0  0
  6 12  1  0  0  0  0
  7  9  2  0  0  0  0
  7 13  1  0  0  0  0
  8  9  1  0  0  0  0
  9 27  1  0  0  0  0
 10 28  1  0  0  0  0
 10 29  1  0  0  0  0
 10 30  1  0  0  0  0
 11 14  2  3  0  0  0
 11 31  1  0  0  0  0
 12 32  1  0  0  0  0
 12 33  1  0  0  0  0
 12 34  1  0  0  0  0
 13 35  1  0  0  0  0
 13 36  1  0  0  0  0
 13 37  1  0  0  0  0
 14 15  1  0  0  0  0
 14 38  1  0  0  0  0
 15 17  1  0  0  0  0
 15 18  2  3  0  0  0
 16 39  1  0  0  0  0
 16 40  1  0  0  0  0
 16 41  1  0  0  0  0
 17 42  1  0  0  0  0
 17 43  1  0  0  0  0
 17 44  1  0  0  0  0
 18 19  1  0  0  0  0
 18 45  1  0  0  0  0
 19 20  2  3  0  0  0
 19 46  1  0  0  0  0
 20 21  1  0  0  0  0
 20 47  1  0  0  0  0
 21 22  1  0  0  0  0
 21 23  2  3  0  0  0
 22 48  1  0  0  0  0
 22 49  1  0  0  0  0
 22 50  1  0  0  0  0
 23 24  1  0  0  0  0
 23 51  1  0  0  0  0
 25 26  1  0  0  0  0
 25 52  1  0  0  0  0
 25 53  1  0  0  0  0
 26 54  1  0  0  0  0
 26 55  1  0  0  0  0
 26 56  1  0  0  0  0
M  END
>  <DRUGBANK_ID>
DB00926

>  <SECONDARY_ACCESSION_NUMBERS>
APRD00966

>  <COMMON_NAME>
Etretinate

>  <CAS_NUMBER>
54350-48-0

>  <UNII>
65M2UDR9AG

>  <SYNONYMS>
Etretinate; etretinato

$$$$
