
 OpenBabel10282417203D

 67 71  0  0  1  0  0  0  0  0999 V2000
   -2.2450    0.4454   -2.7774 C   0  0  0  0  0  0  0  0  0  0  0  0
   -2.3818    0.3502   -1.2660 C   0  0  2  0  0  0  0  0  0  0  0  0
   -3.8099    0.7490   -0.9800 C   0  0  0  0  0  0  0  0  0  0  0  0
   -4.1428    2.0874   -0.7167 C   0  0  0  0  0  0  0  0  0  0  0  0
   -5.3993    2.4207   -0.2075 C   0  0  0  0  0  0  0  0  0  0  0  0
   -6.3778    1.4254   -0.1266 C   0  0  0  0  0  0  0  0  0  0  0  0
   -6.1052    0.1201   -0.5590 C   0  0  0  0  0  0  0  0  0  0  0  0
   -4.7993   -0.2305   -0.9064 C   0  0  0  0  0  0  0  0  0  0  0  0
   -7.2050   -0.8814   -0.7551 C   0  0  0  0  0  0  0  0  0  0  0  0
   -7.2165   -1.3373   -2.0382 F   0  0  0  0  0  0  0  0  0  0  0  0
   -7.1028   -1.9769    0.0392 F   0  0  0  0  0  0  0  0  0  0  0  0
   -8.4396   -0.3566   -0.5327 F   0  0  0  0  0  0  0  0  0  0  0  0
   -5.6917    3.8282    0.2300 C   0  0  0  0  0  0  0  0  0  0  0  0
   -6.6070    4.4203   -0.5792 F   0  0  0  0  0  0  0  0  0  0  0  0
   -6.1944    3.8925    1.4934 F   0  0  0  0  0  0  0  0  0  0  0  0
   -4.5950    4.6354    0.2265 F   0  0  0  0  0  0  0  0  0  0  0  0
   -1.4518    1.2109   -0.6180 O   0  0  0  0  0  0  0  0  0  0  0  0
   -1.3371    1.2135    0.8290 C   0  0  1  0  0  0  0  0  0  0  0  0
   -0.6833    2.5971    1.0949 C   0  0  0  0  0  0  0  0  0  0  0  0
   -0.8615    3.2314    2.4794 C   0  0  0  0  0  0  0  0  0  0  0  0
   -2.2494    2.9989    3.0446 C   0  0  2  0  0  0  0  0  0  0  0  0
   -2.5035    3.3763    4.5159 C   0  0  0  0  0  0  0  0  0  0  0  0
   -3.5956    2.4819    4.9147 N   0  0  0  0  0  0  0  0  0  0  0  0
   -3.7236    1.4040    3.9598 C   0  0  0  0  0  0  0  0  0  0  0  0
   -2.4785    1.4918    3.0901 C   0  0  1  0  0  0  0  0  0  0  0  0
   -2.6204    0.9377    1.6840 C   0  0  2  0  0  0  0  0  0  0  0  0
   -3.1332   -0.5023    1.7340 C   0  0  0  0  0  0  0  0  0  0  0  0
   -4.4570   -0.7197    2.1720 C   0  0  0  0  0  0  0  0  0  0  0  0
   -4.9770   -1.9858    2.3579 C   0  0  0  0  0  0  0  0  0  0  0  0
   -4.2323   -3.0640    1.9342 C   0  0  0  0  0  0  0  0  0  0  0  0
   -2.9950   -2.8831    1.3280 C   0  0  0  0  0  0  0  0  0  0  0  0
   -2.4108   -1.6159    1.2989 C   0  0  0  0  0  0  0  0  0  0  0  0
   -4.7195   -4.2973    2.0971 F   0  0  0  0  0  0  0  0  0  0  0  0
   -4.4269    2.5563    6.0105 C   0  0  0  0  0  0  0  0  0  0  0  0
   -4.6043    1.5818    6.9097 C   0  0  0  0  0  0  0  0  0  0  0  0
   -5.5999    2.0708    7.8674 C   0  0  0  0  0  0  0  0  0  0  0  0
   -5.8439    1.5099    8.9142 O   0  0  0  0  0  0  0  0  0  0  0  0
   -6.2711    3.3111    7.3612 C   0  0  0  0  0  0  0  0  0  0  0  0
   -5.3507    3.7286    6.2146 C   0  0  0  0  0  0  0  0  0  0  0  0
   -3.0459   -0.1296   -3.2598 H   0  0  0  0  0  0  0  0  0  0  0  0
   -1.2863    0.0451   -3.1123 H   0  0  0  0  0  0  0  0  0  0  0  0
   -2.3159    1.4847   -3.1147 H   0  0  0  0  0  0  0  0  0  0  0  0
   -2.1544   -0.6816   -0.9973 H   0  0  0  0  0  0  0  0  0  0  0  0
   -3.3518    2.8405   -0.7256 H   0  0  0  0  0  0  0  0  0  0  0  0
   -7.3707    1.6758    0.2468 H   0  0  0  0  0  0  0  0  0  0  0  0
   -4.5419   -1.2800   -1.0616 H   0  0  0  0  0  0  0  0  0  0  0  0
   -0.5903    0.4597    1.0997 H   0  0  0  0  0  0  0  0  0  0  0  0
   -1.0295    3.3131    0.3356 H   0  0  0  0  0  0  0  0  0  0  0  0
    0.3929    2.4937    0.8940 H   0  0  0  0  0  0  0  0  0  0  0  0
   -0.6532    4.3049    2.4121 H   0  0  0  0  0  0  0  0  0  0  0  0
   -0.1184    2.7989    3.1567 H   0  0  0  0  0  0  0  0  0  0  0  0
   -2.9976    3.5070    2.4123 H   0  0  0  0  0  0  0  0  0  0  0  0
   -2.7520    4.4324    4.6389 H   0  0  0  0  0  0  0  0  0  0  0  0
   -1.6190    3.1300    5.1122 H   0  0  0  0  0  0  0  0  0  0  0  0
   -3.7866    0.4239    4.4419 H   0  0  0  0  0  0  0  0  0  0  0  0
   -4.6389    1.6230    3.4002 H   0  0  0  0  0  0  0  0  0  0  0  0
   -1.6472    0.9831    3.5921 H   0  0  0  0  0  0  0  0  0  0  0  0
   -3.4299    1.5404    1.3009 H   0  0  0  0  0  0  0  0  0  0  0  0
   -5.1334    0.1093    2.3507 H   0  0  0  0  0  0  0  0  0  0  0  0
   -5.9641   -2.1090    2.7878 H   0  0  0  0  0  0  0  0  0  0  0  0
   -2.4897   -3.7329    0.8832 H   0  0  0  0  0  0  0  0  0  0  0  0
   -1.4194   -1.5233    0.8631 H   0  0  0  0  0  0  0  0  0  0  0  0
   -4.1203    0.6253    6.9803 H   0  0  0  0  0  0  0  0  0  0  0  0
   -6.3262    4.0751    8.1388 H   0  0  0  0  0  0  0  0  0  0  0  0
   -7.2763    3.0489    7.0127 H   0  0  0  0  0  0  0  0  0  0  0  0
   -5.9456    3.9468    5.3192 H   0  0  0  0  0  0  0  0  0  0  0  0
   -4.7784    4.6217    6.4778 H   0  0  0  0  0  0  0  0  0  0  0  0
  1 40  1  0  0  0  0
  1 41  1  0  0  0  0
  1 42  1  0  0  0  0
  2 17  1  0  0  0  0
  2 43  1  1  0  0  0
  2  3  1  0  0  0  0
  2  1  1  0  0  0  0
  3  4  2  0  0  0  0
  3  8  1  0  0  0  0
  4  5  1  0  0  0  0
  4 44  1  0  0  0  0
  5  6  2  0  0  0  0
  5 13  1  0  0  0  0
  6  7  1  0  0  0  0
  6 45  1  0  0  0  0
  7  8  2  0  0  0  0
  7  9  1  0  0  0  0
  8 46  1  0  0  0  0
  9 10  1  0  0  0  0
  9 11  1  0  0  0  0
  9 12  1  0  0  0  0
 13 14  1  0  0  0  0
 13 15  1  0  0  0  0
 13 16  1  0  0  0  0
 18 19  1  0  0  0  0
 18 26  1  0  0  0  0
 18 47  1  1  0  0  0
 18 17  1  0  0  0  0
 19 20  1  0  0  0  0
 19 48  1  0  0  0  0
 19 49  1  0  0  0  0
 20 21  1  0  0  0  0
 20 50  1  0  0  0  0
 20 51  1  0  0  0  0
 21 22  1  0  0  0  0
 21 25  1  0  0  0  0
 21 52  1  6  0  0  0
 22 23  1  0  0  0  0
 22 53  1  0  0  0  0
 22 54  1  0  0  0  0
 23 24  1  0  0  0  0
 23 34  1  0  0  0  0
 24 55  1  0  0  0  0
 24 56  1  0  0  0  0
 25 24  1  0  0  0  0
 25 26  1  0  0  0  0
 25 57  1  1  0  0  0
 26 58  1  6  0  0  0
 26 27  1  0  0  0  0
 27 28  2  0  0  0  0
 27 32  1  0  0  0  0
 28 29  1  0  0  0  0
 28 59  1  0  0  0  0
 29 30  2  0  0  0  0
 29 60  1  0  0  0  0
 30 31  1  0  0  0  0
 30 33  1  0  0  0  0
 31 32  2  0  0  0  0
 31 61  1  0  0  0  0
 32 62  1  0  0  0  0
 34 35  2  0  0  0  0
 34 39  1  0  0  0  0
 35 36  1  0  0  0  0
 35 63  1  0  0  0  0
 36 37  2  0  0  0  0
 36 38  1  0  0  0  0
 38 39  1  0  0  0  0
 38 64  1  0  0  0  0
 38 65  1  0  0  0  0
 39 66  1  0  0  0  0
 39 67  1  0  0  0  0
M  END
>  <DRUGBANK_ID>
DB12973

>  <COMMON_NAME>
Serlopitant

>  <CAS_NUMBER>
860642-69-9

>  <UNII>
277V92K32B

>  <SYNONYMS>
Serlopitant

$$$$
