1388
 OpenBabel10282417113D

 74 77  0  0  1  0  0  0  0  0999 V2000
    0.9720   -0.8929   -0.0429 F   0  0  0  0  0  0  0  0  0  0  0  0
    8.7355    1.1794   -0.4518 O   0  0  0  0  0  0  0  0  0  0  0  0
   10.8861    1.2761   -1.1022 O   0  0  0  0  0  0  0  0  0  0  0  0
    8.5347   -0.3660   -3.0190 O   0  0  0  0  0  0  0  0  0  0  0  0
    5.0132    3.6208   -1.8733 N   0  0  0  0  0  0  0  0  0  0  0  0
    2.6016    4.0967    2.7649 N   0  0  0  0  0  0  0  0  0  0  0  0
    2.9486    4.6534    0.6607 N   0  0  0  0  0  0  0  0  0  0  0  0
    7.2666    1.0660   -0.6185 C   0  0  1  0  0  0  0  0  0  0  0  0
    6.7413   -0.3219   -0.0185 C   0  0  1  0  0  0  0  0  0  0  0  0
    6.6602    2.0358    0.3004 C   0  0  0  0  0  0  0  0  0  0  0  0
    7.1990   -0.4434    1.5261 C   0  0  0  0  0  0  0  0  0  0  0  0
    6.8506    1.6806   -2.0076 C   0  0  0  0  0  0  0  0  0  0  0  0
    5.2368   -0.6286   -0.1165 C   0  0  0  0  0  0  0  0  0  0  0  0
    5.1342    1.7445    0.2665 C   0  0  0  0  0  0  0  0  0  0  0  0
    4.4170    0.4337   -0.0232 C   0  0  0  0  0  0  0  0  0  0  0  0
    5.5006    2.2775   -2.4328 C   0  0  0  0  0  0  0  0  0  0  0  0
    6.7684    0.5812    2.6215 C   0  0  0  0  0  0  0  0  0  0  0  0
    6.6934   -1.7633    2.0561 C   0  0  0  0  0  0  0  0  0  0  0  0
    4.5370   -1.8524   -0.0686 C   0  0  0  0  0  0  0  0  0  0  0  0
    3.0027    0.1861   -0.2628 C   0  0  0  0  0  0  0  0  0  0  0  0
    3.1101   -2.0187    0.0264 C   0  0  0  0  0  0  0  0  0  0  0  0
    9.7309    1.1276   -1.4007 C   0  0  0  0  0  0  0  0  0  0  0  0
    2.3091   -0.9429   -0.1343 C   0  0  0  0  0  0  0  0  0  0  0  0
    3.5290    3.7065   -1.8403 C   0  0  0  0  0  0  0  0  0  0  0  0
    5.5721    4.3016   -0.6700 C   0  0  0  0  0  0  0  0  0  0  0  0
    2.6193    2.7096   -1.0337 C   0  0  0  0  0  0  0  0  0  0  0  0
    9.3377    0.7931   -2.8528 C   0  0  0  0  0  0  0  0  0  0  0  0
    2.4734    2.4432    0.7826 C   0  0  0  0  0  0  0  0  0  0  0  0
    2.6157    3.6963    1.4493 C   0  0  0  0  0  0  0  0  0  0  0  0
    9.1174   -1.5107   -2.4308 C   0  0  0  0  0  0  0  0  0  0  0  0
    2.4152    5.4620    2.6704 C   0  0  0  0  0  0  0  0  0  0  0  0
    2.6221    5.7228    1.3260 C   0  0  0  0  0  0  0  0  0  0  0  0
    2.0478    6.4802    3.5273 C   0  0  0  0  0  0  0  0  0  0  0  0
    2.4138    6.9215    0.6994 C   0  0  0  0  0  0  0  0  0  0  0  0
    1.6224    7.6474    2.8560 C   0  0  0  0  0  0  0  0  0  0  0  0
    1.7735    7.8508    1.4718 C   0  0  0  0  0  0  0  0  0  0  0  0
    2.5639    3.5370    3.6139 H   0  0  0  0  0  0  0  0  0  0  0  0
    7.2356   -1.0945   -0.6036 H   0  0  0  0  0  0  0  0  0  0  0  0
    6.9034    2.2554    1.3199 H   0  0  0  0  0  0  0  0  0  0  0  0
    7.1982    2.9539    0.0387 H   0  0  0  0  0  0  0  0  0  0  0  0
    8.2948   -0.4295    1.5249 H   0  0  0  0  0  0  0  0  0  0  0  0
    7.5466    2.4974   -2.2368 H   0  0  0  0  0  0  0  0  0  0  0  0
    6.9297    0.8561   -2.6991 H   0  0  0  0  0  0  0  0  0  0  0  0
    4.7450    2.3862    1.0306 H   0  0  0  0  0  0  0  0  0  0  0  0
    4.7349    2.1622   -0.5826 H   0  0  0  0  0  0  0  0  0  0  0  0
    5.5097    2.3403   -3.5320 H   0  0  0  0  0  0  0  0  0  0  0  0
    4.8118    1.4225   -2.3229 H   0  0  0  0  0  0  0  0  0  0  0  0
    5.7251    0.9044    2.5148 H   0  0  0  0  0  0  0  0  0  0  0  0
    6.8612    0.2025    3.6386 H   0  0  0  0  0  0  0  0  0  0  0  0
    7.4546    1.4348    2.6765 H   0  0  0  0  0  0  0  0  0  0  0  0
    6.9776   -2.5604    1.3703 H   0  0  0  0  0  0  0  0  0  0  0  0
    7.0827   -1.9591    3.0510 H   0  0  0  0  0  0  0  0  0  0  0  0
    5.6036   -1.7196    2.1635 H   0  0  0  0  0  0  0  0  0  0  0  0
    5.1167   -2.7552    0.0387 H   0  0  0  0  0  0  0  0  0  0  0  0
    2.1708    0.8466   -0.4662 H   0  0  0  0  0  0  0  0  0  0  0  0
    2.5981   -2.9329    0.2321 H   0  0  0  0  0  0  0  0  0  0  0  0
    3.2163    4.7191   -1.6211 H   0  0  0  0  0  0  0  0  0  0  0  0
    3.2669    3.5572   -2.9018 H   0  0  0  0  0  0  0  0  0  0  0  0
    5.4872    3.9195    0.3636 H   0  0  0  0  0  0  0  0  0  0  0  0
    6.6357    4.4464   -0.8268 H   0  0  0  0  0  0  0  0  0  0  0  0
    5.1075    5.2580   -0.4439 H   0  0  0  0  0  0  0  0  0  0  0  0
    1.5828    2.7807   -1.3850 H   0  0  0  0  0  0  0  0  0  0  0  0
    2.9181    1.8290   -1.6329 H   0  0  0  0  0  0  0  0  0  0  0  0
    8.8486    1.6560   -3.3157 H   0  0  0  0  0  0  0  0  0  0  0  0
   10.2316    0.6863   -3.4661 H   0  0  0  0  0  0  0  0  0  0  0  0
    1.5862    1.8612    1.0721 H   0  0  0  0  0  0  0  0  0  0  0  0
    3.1955    1.8190    1.3201 H   0  0  0  0  0  0  0  0  0  0  0  0
    9.9873   -1.7835   -3.0225 H   0  0  0  0  0  0  0  0  0  0  0  0
    9.3983   -1.3320   -1.3883 H   0  0  0  0  0  0  0  0  0  0  0  0
    8.3773   -2.3136   -2.4406 H   0  0  0  0  0  0  0  0  0  0  0  0
    1.9738    6.3629    4.5995 H   0  0  0  0  0  0  0  0  0  0  0  0
    2.6021    6.9758   -0.3645 H   0  0  0  0  0  0  0  0  0  0  0  0
    1.1306    8.4288    3.4225 H   0  0  0  0  0  0  0  0  0  0  0  0
    1.3874    8.7252    0.9674 H   0  0  0  0  0  0  0  0  0  0  0  0
  1 23  1  0  0  0  0
  2 22  1  0  0  0  0
  3 22  2  0  0  0  0
  4 27  1  0  0  0  0
  4 30  1  0  0  0  0
  5 16  1  0  0  0  0
  5 24  1  0  0  0  0
  5 25  1  0  0  0  0
  6 29  1  0  0  0  0
  6 31  1  0  0  0  0
  6 37  1  0  0  0  0
  7 29  2  0  0  0  0
  7 32  1  0  0  0  0
  8  9  1  0  0  0  0
  8 10  1  0  0  0  0
  8 12  1  0  0  0  0
  8  2  1  1  0  0  0
  9 13  1  0  0  0  0
  9 38  1  6  0  0  0
  9 11  1  0  0  0  0
 10 14  1  0  0  0  0
 10 39  1  0  0  0  0
 10 40  1  0  0  0  0
 11 17  1  0  0  0  0
 11 18  1  0  0  0  0
 11 41  1  0  0  0  0
 12 16  1  0  0  0  0
 12 42  1  0  0  0  0
 12 43  1  0  0  0  0
 13 15  2  0  0  0  0
 13 19  1  0  0  0  0
 14 15  1  0  0  0  0
 14 44  1  0  0  0  0
 14 45  1  0  0  0  0
 15 20  1  0  0  0  0
 16 46  1  0  0  0  0
 16 47  1  0  0  0  0
 17 48  1  0  0  0  0
 17 49  1  0  0  0  0
 17 50  1  0  0  0  0
 18 51  1  0  0  0  0
 18 52  1  0  0  0  0
 18 53  1  0  0  0  0
 19 21  2  0  0  0  0
 19 54  1  0  0  0  0
 20 23  2  0  0  0  0
 20 55  1  0  0  0  0
 21 23  1  0  0  0  0
 21 56  1  0  0  0  0
 22 27  1  0  0  0  0
 24 26  1  0  0  0  0
 24 57  1  0  0  0  0
 24 58  1  0  0  0  0
 25 59  1  0  0  0  0
 25 60  1  0  0  0  0
 25 61  1  0  0  0  0
 26 28  1  0  0  0  0
 26 62  1  0  0  0  0
 26 63  1  0  0  0  0
 27 64  1  0  0  0  0
 27 65  1  0  0  0  0
 28 29  1  0  0  0  0
 28 66  1  0  0  0  0
 28 67  1  0  0  0  0
 30 68  1  0  0  0  0
 30 69  1  0  0  0  0
 30 70  1  0  0  0  0
 31 32  1  0  0  0  0
 31 33  2  0  0  0  0
 32 34  2  0  0  0  0
 33 35  1  0  0  0  0
 33 71  1  0  0  0  0
 34 36  1  0  0  0  0
 34 72  1  0  0  0  0
 35 36  2  0  0  0  0
 35 73  1  0  0  0  0
 36 74  1  0  0  0  0
M  END
>  <DRUGBANK_ID>
DB01388

>  <COMMON_NAME>
Mibefradil

>  <CAS_NUMBER>
116644-53-2

>  <UNII>
27B90X776A

>  <SYNONYMS>
Mibefradil

$$$$
