3468
 OpenBabel10282417103D

 58 60  0  0  0  0  0  0  0  0999 V2000
    0.9628   -0.0685   -0.1298 N   0  0  0  0  0  0  0  0  0  0  0  0
   -6.6583   -6.3138   -1.9153 N   0  0  0  0  0  0  0  0  0  0  0  0
   -1.6570   -7.0602    6.0367 N   0  3  0  0  0  0  0  0  0  0  0  0
   -2.1169   -4.7266    1.2346 C   0  0  0  0  0  0  0  0  0  0  0  0
   -1.3659   -3.4343    0.9456 C   0  0  0  0  0  0  0  0  0  0  0  0
   -3.3137   -5.0961    0.4058 C   0  0  0  0  0  0  0  0  0  0  0  0
   -1.7298   -5.6412    2.1817 C   0  0  0  0  0  0  0  0  0  0  0  0
   -0.2876   -2.9661    1.7048 C   0  0  0  0  0  0  0  0  0  0  0  0
   -3.1888   -5.3231   -0.9683 C   0  0  0  0  0  0  0  0  0  0  0  0
   -1.7114   -2.6249   -0.1408 C   0  0  0  0  0  0  0  0  0  0  0  0
   -4.5636   -5.2811    0.9899 C   0  0  0  0  0  0  0  0  0  0  0  0
   -2.4465   -6.8839    2.4754 C   0  0  0  0  0  0  0  0  0  0  0  0
   -0.5292   -5.5017    2.9907 C   0  0  0  0  0  0  0  0  0  0  0  0
    0.2408   -1.1920    0.1931 C   0  0  0  0  0  0  0  0  0  0  0  0
   -5.5582   -5.9404   -1.1582 C   0  0  0  0  0  0  0  0  0  0  0  0
   -1.5512   -6.7695    4.7824 C   0  0  0  0  0  0  0  0  0  0  0  0
    0.5666   -1.9573    1.2915 C   0  0  0  0  0  0  0  0  0  0  0  0
   -4.2975   -5.7093   -1.7339 C   0  0  0  0  0  0  0  0  0  0  0  0
   -0.9076   -1.5447   -0.5210 C   0  0  0  0  0  0  0  0  0  0  0  0
   -5.6286   -5.7750    0.2333 C   0  0  0  0  0  0  0  0  0  0  0  0
   -2.3916   -7.4192    3.7026 C   0  0  0  0  0  0  0  0  0  0  0  0
   -0.4917   -5.8575    4.2664 C   0  0  0  0  0  0  0  0  0  0  0  0
   -7.9986   -6.4610   -1.3556 C   0  0  0  0  0  0  0  0  0  0  0  0
   -6.5815   -6.3230   -3.3763 C   0  0  0  0  0  0  0  0  0  0  0  0
    0.2358    1.1814   -0.2842 C   0  0  0  0  0  0  0  0  0  0  0  0
    2.4064   -0.0357    0.0084 C   0  0  0  0  0  0  0  0  0  0  0  0
   -0.8354   -6.4280    7.1215 C   0  0  0  0  0  0  0  0  0  0  0  0
   -2.6331   -8.0866    6.5081 C   0  0  0  0  0  0  0  0  0  0  0  0
   -0.0623   -3.3108    2.6984 H   0  0  0  0  0  0  0  0  0  0  0  0
   -2.2345   -5.1728   -1.4704 H   0  0  0  0  0  0  0  0  0  0  0  0
   -2.6184   -2.7862   -0.7175 H   0  0  0  0  0  0  0  0  0  0  0  0
   -4.7190   -5.0952    2.0486 H   0  0  0  0  0  0  0  0  0  0  0  0
   -3.0085   -7.3745    1.6828 H   0  0  0  0  0  0  0  0  0  0  0  0
    0.3798   -5.1121    2.5472 H   0  0  0  0  0  0  0  0  0  0  0  0
    1.4348   -1.7387    1.9053 H   0  0  0  0  0  0  0  0  0  0  0  0
   -4.1363   -5.8353   -2.8018 H   0  0  0  0  0  0  0  0  0  0  0  0
   -1.1771   -0.9799   -1.4098 H   0  0  0  0  0  0  0  0  0  0  0  0
   -6.5188   -6.0326    0.7926 H   0  0  0  0  0  0  0  0  0  0  0  0
   -2.9255   -8.3426    3.8960 H   0  0  0  0  0  0  0  0  0  0  0  0
    0.3848   -5.5943    4.8463 H   0  0  0  0  0  0  0  0  0  0  0  0
   -8.6733   -5.7003   -1.7623 H   0  0  0  0  0  0  0  0  0  0  0  0
   -8.3868   -7.4519   -1.6098 H   0  0  0  0  0  0  0  0  0  0  0  0
   -8.0645   -6.3806   -0.2703 H   0  0  0  0  0  0  0  0  0  0  0  0
   -6.2606   -5.3507   -3.7698 H   0  0  0  0  0  0  0  0  0  0  0  0
   -5.8890   -7.0993   -3.7180 H   0  0  0  0  0  0  0  0  0  0  0  0
   -7.5568   -6.5422   -3.8262 H   0  0  0  0  0  0  0  0  0  0  0  0
    0.5178    1.9016    0.4916 H   0  0  0  0  0  0  0  0  0  0  0  0
    0.4608    1.6016   -1.2659 H   0  0  0  0  0  0  0  0  0  0  0  0
   -0.8528    1.0591   -0.2108 H   0  0  0  0  0  0  0  0  0  0  0  0
    2.8374   -1.0233    0.2149 H   0  0  0  0  0  0  0  0  0  0  0  0
    2.8315    0.2971   -0.9417 H   0  0  0  0  0  0  0  0  0  0  0  0
    2.7266    0.6468    0.8022 H   0  0  0  0  0  0  0  0  0  0  0  0
   -1.5163   -5.9421    7.8226 H   0  0  0  0  0  0  0  0  0  0  0  0
   -0.2508   -7.2129    7.6065 H   0  0  0  0  0  0  0  0  0  0  0  0
   -0.1549   -5.6691    6.7353 H   0  0  0  0  0  0  0  0  0  0  0  0
   -3.6369   -7.7603    6.2239 H   0  0  0  0  0  0  0  0  0  0  0  0
   -2.3763   -9.0412    6.0387 H   0  0  0  0  0  0  0  0  0  0  0  0
   -2.5647   -8.1856    7.5928 H   0  0  0  0  0  0  0  0  0  0  0  0
  1 14  1  0  0  0  0
  1 25  1  0  0  0  0
  1 26  1  0  0  0  0
  2 15  1  0  0  0  0
  2 23  1  0  0  0  0
  2 24  1  0  0  0  0
  3 16  2  0  0  0  0
  3 27  1  0  0  0  0
  3 28  1  0  0  0  0
  4  5  1  0  0  0  0
  4  6  1  0  0  0  0
  4  7  2  0  0  0  0
  5  8  2  0  0  0  0
  5 10  1  0  0  0  0
  6  9  2  0  0  0  0
  6 11  1  0  0  0  0
  7 12  1  0  0  0  0
  7 13  1  0  0  0  0
  8 17  1  0  0  0  0
  8 29  1  0  0  0  0
  9 18  1  0  0  0  0
  9 30  1  0  0  0  0
 10 19  2  0  0  0  0
 10 31  1  0  0  0  0
 11 20  2  0  0  0  0
 11 32  1  0  0  0  0
 12 21  2  0  0  0  0
 12 33  1  0  0  0  0
 13 22  2  0  0  0  0
 13 34  1  0  0  0  0
 14 17  2  0  0  0  0
 14 19  1  0  0  0  0
 15 18  2  0  0  0  0
 15 20  1  0  0  0  0
 16 21  1  0  0  0  0
 16 22  1  0  0  0  0
 17 35  1  0  0  0  0
 18 36  1  0  0  0  0
 19 37  1  0  0  0  0
 20 38  1  0  0  0  0
 21 39  1  0  0  0  0
 22 40  1  0  0  0  0
 23 41  1  0  0  0  0
 23 42  1  0  0  0  0
 23 43  1  0  0  0  0
 24 44  1  0  0  0  0
 24 45  1  0  0  0  0
 24 46  1  0  0  0  0
 25 47  1  0  0  0  0
 25 48  1  0  0  0  0
 25 49  1  0  0  0  0
 26 50  1  0  0  0  0
 26 51  1  0  0  0  0
 26 52  1  0  0  0  0
 27 53  1  0  0  0  0
 27 54  1  0  0  0  0
 27 55  1  0  0  0  0
 28 56  1  0  0  0  0
 28 57  1  0  0  0  0
 28 58  1  0  0  0  0
M  CHG  1   3   1
M  END
>  <DRUGBANK_ID>
DB00406

>  <SECONDARY_ACCESSION_NUMBERS>
APRD00998

>  <COMMON_NAME>
Gentian violet cation

>  <CAS_NUMBER>
7438-46-2

>  <UNII>
3GVJ31T6YY

>  <SYNONYMS>
Crystal Violet; Crystal violet carbocation; Crystal violet ion(1); Crystal violet(1+); Gentian violet carbocation; Gentian violet cation; Gentian violet(1+); Methylrosaniline; Methylrosanilinium

$$$$
