
 OpenBabel10282417213D

 36 37  0  0  0  0  0  0  0  0999 V2000
    0.5331    1.3794    0.0071 C   0  0  0  0  0  0  0  0  0  0  0  0
   -0.4886    3.9593   -0.1327 S   0  0  0  0  0  0  0  0  0  0  0  0
    0.7636    2.8223    0.0477 N   0  0  0  0  0  0  0  0  0  0  0  0
   -0.6377    0.6339   -0.0024 C   0  0  0  0  0  0  0  0  0  0  0  0
    1.5635    0.4519    0.0067 O   0  0  0  0  0  0  0  0  0  0  0  0
    1.0816   -0.8460   -0.0001 N   0  0  0  0  0  0  0  0  0  0  0  0
   -0.2422   -0.7273   -0.0065 C   0  0  0  0  0  0  0  0  0  0  0  0
    2.1535    3.2282   -0.0255 C   0  0  0  0  0  0  0  0  0  0  0  0
   -0.3874    4.9269    1.3535 C   0  0  0  0  0  0  0  0  0  0  0  0
   -0.1618    4.8058   -1.2580 O   0  0  0  0  0  0  0  0  0  0  0  0
   -1.8467    3.4843   -0.0276 O   0  0  0  0  0  0  0  0  0  0  0  0
    3.1019    2.4429   -0.0138 O   0  0  0  0  0  0  0  0  0  0  0  0
   -0.4829    4.3184    2.6107 C   0  0  0  0  0  0  0  0  0  0  0  0
   -0.3607    6.3115    1.2239 C   0  0  0  0  0  0  0  0  0  0  0  0
   -2.0499    1.0319    0.0084 C   0  0  0  0  0  0  0  0  0  0  0  0
   -0.4682    6.5214    3.6365 C   0  0  0  0  0  0  0  0  0  0  0  0
   -0.4097    7.3232    4.7612 N   0  0  0  0  0  0  0  0  0  0  0  0
   -0.5147    5.1271    3.7505 C   0  0  0  0  0  0  0  0  0  0  0  0
   -0.3786    7.1000    2.3672 C   0  0  0  0  0  0  0  0  0  0  0  0
    2.4738    4.7059   -0.0741 C   0  0  0  0  0  0  0  0  0  0  0  0
   -1.1561   -1.8981   -0.0060 C   0  0  0  0  0  0  0  0  0  0  0  0
   -0.5694    3.2389    2.7195 H   0  0  0  0  0  0  0  0  0  0  0  0
   -0.3490    6.7765    0.2415 H   0  0  0  0  0  0  0  0  0  0  0  0
   -2.2394    1.5859    0.9327 H   0  0  0  0  0  0  0  0  0  0  0  0
   -2.2588    1.5807   -0.9144 H   0  0  0  0  0  0  0  0  0  0  0  0
   -2.7586    0.2061    0.0159 H   0  0  0  0  0  0  0  0  0  0  0  0
   -0.5684    6.9309    5.6792 H   0  0  0  0  0  0  0  0  0  0  0  0
   -0.4683    8.3285    4.6619 H   0  0  0  0  0  0  0  0  0  0  0  0
   -0.5971    4.6652    4.7323 H   0  0  0  0  0  0  0  0  0  0  0  0
   -0.3414    8.1791    2.2537 H   0  0  0  0  0  0  0  0  0  0  0  0
    2.0825    5.1670   -0.9808 H   0  0  0  0  0  0  0  0  0  0  0  0
    2.0993    5.2008    0.8196 H   0  0  0  0  0  0  0  0  0  0  0  0
    3.5557    4.8620   -0.0854 H   0  0  0  0  0  0  0  0  0  0  0  0
   -1.8125   -1.8562    0.8724 H   0  0  0  0  0  0  0  0  0  0  0  0
   -1.7991   -1.8666   -0.8942 H   0  0  0  0  0  0  0  0  0  0  0  0
   -0.6297   -2.8536    0.0053 H   0  0  0  0  0  0  0  0  0  0  0  0
  2  3  1  0  0  0  0
  3  1  1  0  0  0  0
  4  1  2  0  0  0  0
  5  1  1  0  0  0  0
  6  5  1  0  0  0  0
  6  7  2  0  0  0  0
  7  4  1  0  0  0  0
  8  3  1  0  0  0  0
  9  2  1  0  0  0  0
 10  2  2  0  0  0  0
 11  2  2  0  0  0  0
 12  8  2  0  0  0  0
 13  9  2  0  0  0  0
 13 22  1  0  0  0  0
 14  9  1  0  0  0  0
 14 23  1  0  0  0  0
 15  4  1  0  0  0  0
 15 24  1  0  0  0  0
 15 25  1  0  0  0  0
 15 26  1  0  0  0  0
 16 19  1  0  0  0  0
 17 16  1  0  0  0  0
 17 27  1  0  0  0  0
 17 28  1  0  0  0  0
 18 13  1  0  0  0  0
 18 16  2  0  0  0  0
 18 29  1  0  0  0  0
 19 14  2  0  0  0  0
 19 30  1  0  0  0  0
 20  8  1  0  0  0  0
 20 31  1  0  0  0  0
 20 32  1  0  0  0  0
 20 33  1  0  0  0  0
 21  7  1  0  0  0  0
 21 34  1  0  0  0  0
 21 35  1  0  0  0  0
 21 36  1  0  0  0  0
M  END
>  <DRUGBANK_ID>
DB14033

>  <SECONDARY_ACCESSION_NUMBERS>
DBSALT000856

>  <COMMON_NAME>
Acetyl sulfisoxazole

>  <CAS_NUMBER>
80-74-0

>  <UNII>
WBT5QH3KED

>  <SYNONYMS>
Sulfisoxazole acetyl

$$$$
