
 OpenBabel10282417133D

118120  0  0  0  0  0  0  0  0999 V2000
   -8.8713   15.3541    4.5553 S   0  0  0  0  0  0  0  0  0  0  0  0
   -3.9752   13.3536   -0.7258 S   0  0  0  0  0  0  0  0  0  0  0  0
   -4.9096    7.6238    1.3839 P   0  0  0  0  0  0  0  0  0  0  0  0
   -2.8428   13.4619    3.1241 P   0  0  3  0  0  0  0  0  0  0  0  0
   -1.3127   15.7310    2.4234 P   0  0  3  0  0  0  0  0  0  0  0  0
   -4.8803   11.5192    2.5221 O   0  0  0  0  0  0  0  0  0  0  0  0
   -4.0760    8.7555    0.6187 O   0  0  0  0  0  0  0  0  0  0  0  0
   -6.6900   10.1065    1.4288 O   0  0  0  0  0  0  0  0  0  0  0  0
   -2.3916   11.7746    3.7450 O   0  0  0  0  0  0  0  0  0  0  0  0
   -4.0013    8.2218    2.5492 O   0  0  0  0  0  0  0  0  0  0  0  0
   -6.1336    8.2460    0.5603 O   0  0  0  0  0  0  0  0  0  0  0  0
   -5.8620    7.6054    2.5409 O   0  0  0  0  0  0  0  0  0  0  0  0
   -1.3935   14.0044    2.3508 O   0  0  0  0  0  0  0  0  0  0  0  0
   -2.6951   14.2528    4.7162 O   0  0  0  0  0  0  0  0  0  0  0  0
   -4.1400   12.9764    3.8162 O   0  0  0  0  0  0  0  0  0  0  0  0
   -2.1554   15.8338    0.9161 O   0  0  0  0  0  0  0  0  0  0  0  0
   -0.2374   16.6876    1.4350 O   0  0  0  0  0  0  0  0  0  0  0  0
   -0.5584   15.6389    3.7725 O   0  0  0  0  0  0  0  0  0  0  0  0
   -0.6178   12.0209    2.8330 O   0  0  0  0  0  0  0  0  0  0  0  0
    0.7463   14.2405    1.2582 O   0  0  0  0  0  0  0  0  0  0  0  0
   -4.9093   16.9603    4.6785 O   0  0  0  0  0  0  0  0  0  0  0  0
  -10.5273   12.1338    5.3165 O   0  0  0  0  0  0  0  0  0  0  0  0
   -6.7762   13.5842    1.3455 O   0  0  0  0  0  0  0  0  0  0  0  0
   -5.8332   13.1175   -0.0893 N   0  3  0  0  0  0  0  0  0  0  0  0
   -5.9065   15.3236   -0.9881 N   0  0  0  0  0  0  0  0  0  0  0  0
   -3.9208   14.4000    1.8698 N   0  0  0  0  0  0  0  0  0  0  0  0
   -3.3985   17.6061    1.9876 N   0  0  0  0  0  0  0  0  0  0  0  0
   -3.9266   18.2446   -0.6465 N   0  0  0  0  0  0  0  0  0  0  0  0
    0.9051   15.8959    2.9617 N   0  0  0  0  0  0  0  0  0  0  0  0
   -4.7442   16.6917    2.0759 N   0  0  0  0  0  0  0  0  0  0  0  0
   -4.2994   10.0740    0.8487 C   0  0  1  0  0  0  0  0  0  0  0  0
   -5.6759   10.6452    0.6125 C   0  0  2  0  0  0  0  0  0  0  0  0
   -5.9244   11.7215    1.3647 C   0  0  1  0  0  0  0  0  0  0  0  0
   -3.9123   10.5122    2.2945 C   0  0  1  0  0  0  0  0  0  0  0  0
   -2.4432   10.7367    2.7082 C   0  0  0  0  0  0  0  0  0  0  0  0
   -5.3083   14.8586    0.5681 C   0  0  0  0  0  0  0  0  0  0  0  0
   -6.4643   14.0364   -0.8245 C   0  0  0  0  0  0  0  0  0  0  0  0
   -5.4940   16.1992    0.0681 C   0  0  0  0  0  0  0  0  0  0  0  0
   -4.6523   17.8034    0.5655 C   0  0  0  0  0  0  0  0  0  0  0  0
   -3.3093   15.8178    2.6072 C   0  0  0  0  0  0  0  0  0  0  0  0
   -2.0798   13.0448    0.5765 C   0  0  0  0  0  0  0  0  0  0  0  0
   -3.4279   14.8056    0.3323 C   0  0  0  0  0  0  0  0  0  0  0  0
   -0.4384   12.6899    1.7671 C   0  0  0  0  0  0  0  0  0  0  0  0
   -1.1208   12.8935   -0.6315 C   0  0  0  0  0  0  0  0  0  0  0  0
   -3.0453   12.0339    0.7986 C   0  0  0  0  0  0  0  0  0  0  0  0
    0.8204   13.9658    2.6483 C   0  0  1  0  0  0  0  0  0  0  0  0
   -7.0001   16.6003    6.2708 C   0  0  0  0  0  0  0  0  0  0  0  0
   -7.1528   15.9871    4.9055 C   0  0  1  0  0  0  0  0  0  0  0  0
   -7.1583   15.5751    7.3590 C   0  0  0  0  0  0  0  0  0  0  0  0
   -6.1722   14.4312    7.3702 C   0  0  0  0  0  0  0  0  0  0  0  0
   -0.4274   17.2374    3.9229 C   0  0  0  0  0  0  0  0  0  0  0  0
   -6.1592   14.9091    4.7230 C   0  0  0  0  0  0  0  0  0  0  0  0
   -4.7766   14.9865    7.4582 C   0  0  0  0  0  0  0  0  0  0  0  0
   -2.3691   17.5624    4.0509 C   0  0  0  0  0  0  0  0  0  0  0  0
   -6.5189   14.3354    3.4934 C   0  0  0  0  0  0  0  0  0  0  0  0
   -4.7005   15.6165    8.8137 C   0  0  0  0  0  0  0  0  0  0  0  0
   -4.1961   17.2230    3.7459 C   0  0  0  0  0  0  0  0  0  0  0  0
   -9.0490   13.9423    5.7198 C   0  0  0  0  0  0  0  0  0  0  0  0
   -5.4998   14.2344    2.7805 C   0  0  0  0  0  0  0  0  0  0  0  0
   -3.3251   16.6285    0.4581 C   0  0  0  0  0  0  0  0  0  0  0  0
   -1.9464   14.7942   -0.2163 C   0  0  0  0  0  0  0  0  0  0  0  0
  -10.3813   13.3337    5.5079 C   0  0  0  0  0  0  0  0  0  0  0  0
   -5.3011   13.3813    1.4685 C   0  0  0  0  0  0  0  0  0  0  0  0
   -6.2120    9.7545    2.2346 H   0  0  0  0  0  0  0  0  0  0  0  0
   -3.1963    7.8315    2.9051 H   0  0  0  0  0  0  0  0  0  0  0  0
   -6.3366    9.1609    0.3577 H   0  0  0  0  0  0  0  0  0  0  0  0
   -2.5778   15.2221    4.8852 H   0  0  0  0  0  0  0  0  0  0  0  0
   -0.2152   16.7875    0.4712 H   0  0  0  0  0  0  0  0  0  0  0  0
    0.8182   15.2167    1.2410 H   0  0  0  0  0  0  0  0  0  0  0  0
   -5.9945   15.8778   -1.7707 H   0  0  0  0  0  0  0  0  0  0  0  0
   -4.3117   17.8210   -1.4810 H   0  0  0  0  0  0  0  0  0  0  0  0
   -2.9473   18.5819   -0.4542 H   0  0  0  0  0  0  0  0  0  0  0  0
    0.1310   15.0288    2.6682 H   0  0  0  0  0  0  0  0  0  0  0  0
   -5.4659   16.0325    2.2491 H   0  0  0  0  0  0  0  0  0  0  0  0
   -3.7204   10.3125   -0.0885 H   0  0  0  0  0  0  0  0  0  0  0  0
   -5.9753   11.0058   -0.3680 H   0  0  0  0  0  0  0  0  0  0  0  0
   -6.6715   11.9749    2.1625 H   0  0  0  0  0  0  0  0  0  0  0  0
   -4.1416    9.9227    3.1262 H   0  0  0  0  0  0  0  0  0  0  0  0
   -1.7353   10.9319    1.8871 H   0  0  0  0  0  0  0  0  0  0  0  0
   -1.8294    9.8479    2.8498 H   0  0  0  0  0  0  0  0  0  0  0  0
   -7.2797   13.4975   -1.0938 H   0  0  0  0  0  0  0  0  0  0  0  0
   -2.6182   15.3612    3.4384 H   0  0  0  0  0  0  0  0  0  0  0  0
   -3.3148   15.3762   -0.8933 H   0  0  0  0  0  0  0  0  0  0  0  0
   -4.0391   15.5199    1.0712 H   0  0  0  0  0  0  0  0  0  0  0  0
   -0.6637   11.9769   -0.3881 H   0  0  0  0  0  0  0  0  0  0  0  0
   -1.6960   13.2287   -1.4880 H   0  0  0  0  0  0  0  0  0  0  0  0
   -0.3131   13.6344   -0.5100 H   0  0  0  0  0  0  0  0  0  0  0  0
   -2.5495   11.1660    0.6732 H   0  0  0  0  0  0  0  0  0  0  0  0
   -3.6897   12.3892    1.5301 H   0  0  0  0  0  0  0  0  0  0  0  0
   -3.8355   11.7636    0.1300 H   0  0  0  0  0  0  0  0  0  0  0  0
    0.1403   13.8048    3.6708 H   0  0  0  0  0  0  0  0  0  0  0  0
   -6.0285   17.0750    6.4122 H   0  0  0  0  0  0  0  0  0  0  0  0
   -7.7359   17.3930    6.3564 H   0  0  0  0  0  0  0  0  0  0  0  0
   -6.9551   16.7561    4.1335 H   0  0  0  0  0  0  0  0  0  0  0  0
   -7.2112   16.0142    8.3373 H   0  0  0  0  0  0  0  0  0  0  0  0
   -8.1454   15.2446    7.2915 H   0  0  0  0  0  0  0  0  0  0  0  0
   -6.3962   13.6570    8.0874 H   0  0  0  0  0  0  0  0  0  0  0  0
   -6.2822   13.7375    6.5849 H   0  0  0  0  0  0  0  0  0  0  0  0
    0.0096   17.4104    4.8548 H   0  0  0  0  0  0  0  0  0  0  0  0
   -1.1351   16.4152    4.9722 H   0  0  0  0  0  0  0  0  0  0  0  0
   -5.0947   15.0913    4.9784 H   0  0  0  0  0  0  0  0  0  0  0  0
   -6.2322   13.9546    5.1294 H   0  0  0  0  0  0  0  0  0  0  0  0
   -4.0401   14.2001    7.3140 H   0  0  0  0  0  0  0  0  0  0  0  0
   -4.5574   15.7514    6.7085 H   0  0  0  0  0  0  0  0  0  0  0  0
   -2.2598   18.4085    3.4390 H   0  0  0  0  0  0  0  0  0  0  0  0
   -2.5787   17.7349    5.1183 H   0  0  0  0  0  0  0  0  0  0  0  0
   -7.2961   13.7403    3.1556 H   0  0  0  0  0  0  0  0  0  0  0  0
   -4.9231   14.8520    9.5593 H   0  0  0  0  0  0  0  0  0  0  0  0
   -3.7229   16.0469    8.9705 H   0  0  0  0  0  0  0  0  0  0  0  0
   -5.4364   16.4200    8.9149 H   0  0  0  0  0  0  0  0  0  0  0  0
   -8.2566   13.1880    5.6863 H   0  0  0  0  0  0  0  0  0  0  0  0
   -9.2020   14.2301    6.7486 H   0  0  0  0  0  0  0  0  0  0  0  0
   -4.7081   14.7028    3.3301 H   0  0  0  0  0  0  0  0  0  0  0  0
   -2.1282   17.3222    1.1981 H   0  0  0  0  0  0  0  0  0  0  0  0
   -2.5966   17.1641   -0.0806 H   0  0  0  0  0  0  0  0  0  0  0  0
   -2.1691   14.3864    1.1499 H   0  0  0  0  0  0  0  0  0  0  0  0
   -0.9943   15.1453   -0.3240 H   0  0  0  0  0  0  0  0  0  0  0  0
  -11.2423   14.0180    5.6233 H   0  0  0  0  0  0  0  0  0  0  0  0
  1 58  1  0  0  0  0
  2 61  1  0  0  0  0
  2 63  1  0  0  0  0
  3  7  1  0  0  0  0
  3 10  1  0  0  0  0
  3 11  1  0  0  0  0
  3 12  2  0  0  0  0
  4  9  1  0  0  0  0
  4 13  1  0  0  0  0
  4 14  1  0  0  0  0
  4 15  2  0  0  0  0
  5 13  1  0  0  0  0
  5 16  1  0  0  0  0
  5 17  1  0  0  0  0
  5 18  2  0  0  0  0
  6 33  1  0  0  0  0
  6 34  1  0  0  0  0
  8 64  1  0  0  0  0
  9 35  1  0  0  0  0
 10 65  1  0  0  0  0
 11 66  1  0  0  0  0
 14 67  1  0  0  0  0
 16 42  1  0  0  0  0
 17 68  1  0  0  0  0
 19 43  2  0  0  0  0
 20 69  1  0  0  0  0
 21 57  2  0  0  0  0
 22 62  2  0  0  0  0
 23 63  2  0  0  0  0
 24 36  1  0  0  0  0
 24 37  2  0  0  0  0
 25 37  1  0  0  0  0
 25 38  1  0  0  0  0
 25 70  1  0  0  0  0
 26 36  2  0  0  0  0
 26 40  1  0  0  0  0
 27 39  1  0  0  0  0
 27 40  2  0  0  0  0
 28 39  1  0  0  0  0
 28 71  1  0  0  0  0
 28 72  1  0  0  0  0
 29 51  1  0  0  0  0
 29 73  1  0  0  0  0
 30 57  1  0  0  0  0
 30 60  1  0  0  0  0
 30 74  1  0  0  0  0
 31  7  1  0  0  0  0
 31 32  1  0  0  0  0
 31 34  1  0  0  0  0
 31 75  1  6  0  0  0
 32  8  1  0  0  0  0
 32 33  1  0  0  0  0
 32 76  1  6  0  0  0
 33 24  1  0  0  0  0
 33 77  1  1  0  0  0
 34 78  1  1  0  0  0
 34 35  1  0  0  0  0
 35 79  1  0  0  0  0
 35 80  1  0  0  0  0
 36 38  1  0  0  0  0
 37 81  1  0  0  0  0
 38 39  2  0  0  0  0
 40 82  1  0  0  0  0
 41 42  1  0  0  0  0
 41 43  1  0  0  0  0
 41 44  1  0  0  0  0
 41 45  1  0  0  0  0
 42 83  1  0  0  0  0
 42 84  1  0  0  0  0
 43 46  1  0  0  0  0
 44 85  1  0  0  0  0
 44 86  1  0  0  0  0
 44 87  1  0  0  0  0
 45 88  1  0  0  0  0
 45 89  1  0  0  0  0
 45 90  1  0  0  0  0
 46 91  1  1  0  0  0
 46 29  1  0  0  0  0
 46 20  1  0  0  0  0
 47 49  1  0  0  0  0
 47 92  1  0  0  0  0
 47 93  1  0  0  0  0
 48  1  1  0  0  0  0
 48 47  1  0  0  0  0
 48 52  1  0  0  0  0
 48 94  1  6  0  0  0
 49 50  1  0  0  0  0
 49 95  1  0  0  0  0
 49 96  1  0  0  0  0
 50 53  1  0  0  0  0
 50 97  1  0  0  0  0
 50 98  1  0  0  0  0
 51 54  1  0  0  0  0
 51 99  1  0  0  0  0
 51100  1  0  0  0  0
 52 55  1  0  0  0  0
 52101  1  0  0  0  0
 52102  1  0  0  0  0
 53 56  1  0  0  0  0
 53103  1  0  0  0  0
 53104  1  0  0  0  0
 54 57  1  0  0  0  0
 54105  1  0  0  0  0
 54106  1  0  0  0  0
 55 59  2  0  0  0  0
 55107  1  0  0  0  0
 56108  1  0  0  0  0
 56109  1  0  0  0  0
 56110  1  0  0  0  0
 58 62  1  0  0  0  0
 58111  1  0  0  0  0
 58112  1  0  0  0  0
 59 63  1  0  0  0  0
 59113  1  0  0  0  0
 60 61  1  0  0  0  0
 60114  1  0  0  0  0
 60115  1  0  0  0  0
 61116  1  0  0  0  0
 61117  1  0  0  0  0
 62118  1  0  0  0  0
M  CHG  1  24   1
M  END
>  <DRUGBANK_ID>
DB03698

>  <SECONDARY_ACCESSION_NUMBERS>
EXPT02142

>  <COMMON_NAME>
5-Mercaptoethanol-2-decenoyl-coenzyme A

$$$$
