
 OpenBabel10282417143D

 45 48  0  0  0  0  0  0  0  0999 V2000
   -2.5099    0.6623    0.0009 C   0  0  0  0  0  0  0  0  0  0  0  0
   -2.5071   -0.7304    0.0026 C   0  0  0  0  0  0  0  0  0  0  0  0
   -1.3075    1.3494    0.0002 C   0  0  0  0  0  0  0  0  0  0  0  0
   -1.3084   -1.4391    0.0006 C   0  0  0  0  0  0  0  0  0  0  0  0
    4.5604    3.3853    1.1870 C   0  0  0  0  0  0  0  0  0  0  0  0
    5.8174    1.2774    1.1545 C   0  0  0  0  0  0  0  0  0  0  0  0
    3.7050    2.8919    0.0196 C   0  0  0  0  0  0  0  0  0  0  0  0
    4.9858    0.7979   -0.0325 C   0  0  0  0  0  0  0  0  0  0  0  0
    6.9586    4.6082   -0.3508 C   0  0  0  0  0  0  0  0  0  0  0  0
    7.2076    2.3515   -1.1165 C   0  0  0  0  0  0  0  0  0  0  0  0
    7.7035    5.0189   -1.4580 C   0  0  0  0  0  0  0  0  0  0  0  0
    7.7171    2.7769   -2.3285 C   0  0  0  0  0  0  0  0  0  0  0  0
    5.9758    2.7920    1.1096 C   0  0  1  0  0  0  0  0  0  0  0  0
    6.7396    3.2500   -0.1337 C   0  0  0  0  0  0  0  0  0  0  0  0
    3.5968    1.3482    0.0306 C   0  0  0  0  0  0  0  0  0  0  0  0
    8.0638    4.1044   -2.4479 C   0  0  0  0  0  0  0  0  0  0  0  0
   -0.1069    0.6312    0.0022 C   0  0  0  0  0  0  0  0  0  0  0  0
   -0.0962   -0.7599    0.0015 C   0  0  0  0  0  0  0  0  0  0  0  0
    2.4628    0.6086    0.0236 C   0  0  0  0  0  0  0  0  0  0  0  0
    1.1475    1.3902    0.0019 C   0  0  0  0  0  0  0  0  0  0  0  0
    1.1563   -1.4801   -0.0007 C   0  0  0  0  0  0  0  0  0  0  0  0
    2.3365   -0.8603    0.0046 C   0  0  0  0  0  0  0  0  0  0  0  0
    9.0332    4.5831   -3.7790 Cl  0  0  0  0  0  0  0  0  0  0  0  0
    1.0274    2.6005   -0.0256 O   0  0  0  0  0  0  0  0  0  0  0  0
    1.1184   -2.8645   -0.0040 O   0  0  0  0  0  0  0  0  0  0  0  0
    3.3836   -1.7715   -0.0093 O   0  0  0  0  0  0  0  0  0  0  0  0
    6.5414    3.1041    1.9957 H   0  0  0  0  0  0  0  0  0  0  0  0
   -3.4422    1.2163   -0.0004 H   0  0  0  0  0  0  0  0  0  0  0  0
   -3.4429   -1.2766    0.0050 H   0  0  0  0  0  0  0  0  0  0  0  0
   -1.3026    2.4387   -0.0019 H   0  0  0  0  0  0  0  0  0  0  0  0
   -1.3151   -2.5258   -0.0017 H   0  0  0  0  0  0  0  0  0  0  0  0
    4.5781    4.4802    1.1980 H   0  0  0  0  0  0  0  0  0  0  0  0
    4.0750    3.0809    2.1271 H   0  0  0  0  0  0  0  0  0  0  0  0
    5.3218    0.9661    2.0858 H   0  0  0  0  0  0  0  0  0  0  0  0
    6.7973    0.7867    1.1611 H   0  0  0  0  0  0  0  0  0  0  0  0
    2.7941    3.4685    0.0925 H   0  0  0  0  0  0  0  0  0  0  0  0
    4.1346    3.2059   -0.9414 H   0  0  0  0  0  0  0  0  0  0  0  0
    5.2428   -0.2397   -0.0871 H   0  0  0  0  0  0  0  0  0  0  0  0
    5.2809    1.0932   -1.0399 H   0  0  0  0  0  0  0  0  0  0  0  0
    6.5806    5.3487    0.3499 H   0  0  0  0  0  0  0  0  0  0  0  0
    7.1606    1.2734   -1.0011 H   0  0  0  0  0  0  0  0  0  0  0  0
    8.0028    6.0570   -1.5396 H   0  0  0  0  0  0  0  0  0  0  0  0
    7.8853    2.0537   -3.1211 H   0  0  0  0  0  0  0  0  0  0  0  0
    2.0658   -3.1257   -0.0032 H   0  0  0  0  0  0  0  0  0  0  0  0
    4.2293   -1.3530    0.0814 H   0  0  0  0  0  0  0  0  0  0  0  0
  1 28  1  0  0  0  0
  2  1  2  0  0  0  0
  2 29  1  0  0  0  0
  3  1  1  0  0  0  0
  3 30  1  0  0  0  0
  4  2  1  0  0  0  0
  4 31  1  0  0  0  0
  5 32  1  0  0  0  0
  5 33  1  0  0  0  0
  6 34  1  0  0  0  0
  6 35  1  0  0  0  0
  7  5  1  0  0  0  0
  7 36  1  0  0  0  0
  7 37  1  0  0  0  0
  8  6  1  0  0  0  0
  8 38  1  0  0  0  0
  8 39  1  0  0  0  0
  9 40  1  0  0  0  0
 10 41  1  0  0  0  0
 11  9  1  0  0  0  0
 11 42  1  0  0  0  0
 12 10  2  0  0  0  0
 12 43  1  0  0  0  0
 13  5  1  0  0  0  0
 13  6  1  0  0  0  0
 13 14  1  0  0  0  0
 13 27  1  1  0  0  0
 14  9  2  0  0  0  0
 14 10  1  0  0  0  0
 15  7  1  0  0  0  0
 15  8  1  0  0  0  0
 16 11  2  0  0  0  0
 16 12  1  0  0  0  0
 17  3  2  0  0  0  0
 18  4  2  0  0  0  0
 18 17  1  0  0  0  0
 19 15  2  0  0  0  0
 20 17  1  0  0  0  0
 20 19  1  0  0  0  0
 21 18  1  0  0  0  0
 22 19  1  0  0  0  0
 22 21  2  0  0  0  0
 23 16  1  0  0  0  0
 24 20  2  0  0  0  0
 25 21  1  0  0  0  0
 25 44  1  0  0  0  0
 26 22  1  0  0  0  0
 26 45  1  0  0  0  0
M  END
>  <DRUGBANK_ID>
DB04281

>  <SECONDARY_ACCESSION_NUMBERS>
EXPT00451

>  <COMMON_NAME>
2-[4-(4-Chlorophenyl)Cyclohexylidene]-3,4-Dihydroxy-1(2h)-Naphthalenone

$$$$
