
 OpenBabel10282417193D

117118  0  0  1  0  0  0  0  0999 V2000
   -0.5734   -6.2884    9.1531 C   0  0  0  0  0  0  0  0  0  0  0  0
    0.0887   -5.0635    8.7351 C   0  0  0  0  0  0  0  0  0  0  0  0
    1.3888   -5.6671    8.1107 C   0  0  2  0  0  0  0  0  0  0  0  0
    1.4772   -7.0749    7.6834 C   0  0  0  0  0  0  0  0  0  0  0  0
    2.6697   -5.4612    8.9089 C   0  0  1  0  0  0  0  0  0  0  0  0
    4.0823   -5.7463    8.4542 C   0  0  1  0  0  0  0  0  0  0  0  0
    4.4210   -5.0045    7.1236 C   0  0  0  0  0  0  0  0  0  0  0  0
    4.5442   -3.3765    6.9556 C   0  0  0  0  0  0  0  0  0  0  0  0
    5.5694   -3.0554    6.3346 O   0  0  0  0  0  0  0  0  0  0  0  0
    3.3648   -2.2260    7.7100 N   0  0  0  0  0  0  0  0  0  0  0  0
    1.8034   -2.4565    8.7331 C   0  0  0  0  0  0  0  0  0  0  0  0
    0.5307   -1.7558    8.4738 C   0  0  0  0  0  0  0  0  0  0  0  0
    1.0260   -0.3302    7.9776 C   0  0  0  0  0  0  0  0  0  0  0  0
    2.9299   -0.5175    7.3597 C   0  0  1  0  0  0  0  0  0  0  0  0
    4.2946   -0.3096    8.2616 C   0  0  1  0  0  0  0  0  0  0  0  0
    4.1256    0.3963   10.1772 C   0  0  1  0  0  0  0  0  0  0  0  0
    3.8200   -0.6521   11.3214 C   0  0  0  0  0  0  0  0  0  0  0  0
    5.0148    1.3812   10.5577 C   0  0  0  0  0  0  0  0  0  0  0  0
    4.6897    2.5607   10.6513 O   0  0  0  0  0  0  0  0  0  0  0  0
    6.2472    0.8670   10.6575 N   0  0  0  0  0  0  0  0  0  0  0  0
    6.8332   -0.3363    9.9480 C   0  0  0  0  0  0  0  0  0  0  0  0
    7.5949   -0.4495    8.5075 C   0  0  0  0  0  0  0  0  0  0  0  0
    8.8501    0.1948    8.7633 C   0  0  0  0  0  0  0  0  0  0  0  0
    8.8225    1.2502    9.6485 C   0  0  0  0  0  0  0  0  0  0  0  0
    9.8565    1.8611   10.2095 C   0  0  0  0  0  0  0  0  0  0  0  0
   11.0381    1.3939    9.7637 C   0  0  0  0  0  0  0  0  0  0  0  0
   11.1157    0.3267    8.8406 C   0  0  0  0  0  0  0  0  0  0  0  0
   10.0123   -0.2194    8.2302 C   0  0  0  0  0  0  0  0  0  0  0  0
    5.3858   -1.0662    7.9140 O   0  0  0  0  0  0  0  0  0  0  0  0
    5.5554   -2.1266    8.7391 C   0  0  0  0  0  0  0  0  0  0  0  0
    5.0398   -5.6388    9.5700 O   0  0  0  0  0  0  0  0  0  0  0  0
    5.3889   -4.3299    9.8243 C   0  0  0  0  0  0  0  0  0  0  0  0
    2.7878   -4.1285    8.9121 N   0  0  0  0  0  0  0  0  0  0  0  0
    2.4832   -3.5749   10.6850 C   0  0  0  0  0  0  0  0  0  0  0  0
    2.2776   -3.7318    7.0498 C   0  0  0  0  0  0  0  0  0  0  0  0
    2.3461   -4.3769    6.0910 O   0  0  0  0  0  0  0  0  0  0  0  0
    2.3989   -1.9887    6.2082 C   0  0  2  0  0  0  0  0  0  0  0  0
    1.1023   -1.1701    5.6955 C   0  0  0  0  0  0  0  0  0  0  0  0
    1.2316    0.3618    5.3230 C   0  0  0  0  0  0  0  0  0  0  0  0
    1.1960   -2.0805    4.6168 C   0  0  0  0  0  0  0  0  0  0  0  0
    4.0379   -1.2389    5.7173 N   0  0  0  0  0  0  0  0  0  0  0  0
    5.2263    0.1218    6.0940 C   0  0  0  0  0  0  0  0  0  0  0  0
    6.2940    0.0829    5.5386 O   0  0  0  0  0  0  0  0  0  0  0  0
    4.9771    1.4101    7.6864 C   0  0  2  0  0  0  0  0  0  0  0  0
    3.1839    1.4327    8.5406 C   0  0  0  0  0  0  0  0  0  0  0  0
    2.2986    2.0647    7.5708 C   0  0  0  0  0  0  0  0  0  0  0  0
    2.5725   -0.3161    9.3336 C   0  0  0  0  0  0  0  0  0  0  0  0
    5.3918    2.7291    7.6214 N   0  0  0  0  0  0  0  0  0  0  0  0
    6.8077    2.6201    7.5128 C   0  0  0  0  0  0  0  0  0  0  0  0
    4.7600    3.0877    6.4280 C   0  0  0  0  0  0  0  0  0  0  0  0
   -0.8866   -6.7847    8.2324 H   0  0  0  0  0  0  0  0  0  0  0  0
   -1.3630   -6.1202    9.8498 H   0  0  0  0  0  0  0  0  0  0  0  0
    0.2165   -6.7996    9.7056 H   0  0  0  0  0  0  0  0  0  0  0  0
   -0.5624   -4.4285    8.0931 H   0  0  0  0  0  0  0  0  0  0  0  0
    0.2366   -4.4832    9.6514 H   0  0  0  0  0  0  0  0  0  0  0  0
    1.2571   -5.3050    7.1151 H   0  0  0  0  0  0  0  0  0  0  0  0
    2.4269   -7.2422    7.1872 H   0  0  0  0  0  0  0  0  0  0  0  0
    1.4366   -7.6944    8.5657 H   0  0  0  0  0  0  0  0  0  0  0  0
    0.6715   -7.2143    6.9710 H   0  0  0  0  0  0  0  0  0  0  0  0
    2.4937   -5.7184    9.9703 H   0  0  0  0  0  0  0  0  0  0  0  0
    4.0813   -6.7971    8.2559 H   0  0  0  0  0  0  0  0  0  0  0  0
    5.3528   -5.3711    6.7002 H   0  0  0  0  0  0  0  0  0  0  0  0
    3.7757   -5.4413    6.3605 H   0  0  0  0  0  0  0  0  0  0  0  0
    2.3514   -2.2909    9.5677 H   0  0  0  0  0  0  0  0  0  0  0  0
    1.2762   -3.3474    8.9454 H   0  0  0  0  0  0  0  0  0  0  0  0
    0.0621   -2.4895    7.7802 H   0  0  0  0  0  0  0  0  0  0  0  0
    0.0078   -1.8598    9.4423 H   0  0  0  0  0  0  0  0  0  0  0  0
    0.1749    0.1360    7.3943 H   0  0  0  0  0  0  0  0  0  0  0  0
    0.8703    0.3683    8.8230 H   0  0  0  0  0  0  0  0  0  0  0  0
    2.9010   -0.1465    6.2254 H   0  0  0  0  0  0  0  0  0  0  0  0
    3.9310    0.2988    7.3262 H   0  0  0  0  0  0  0  0  0  0  0  0
    3.0279    0.9025   10.4556 H   0  0  0  0  0  0  0  0  0  0  0  0
    4.5492   -1.4288   11.2482 H   0  0  0  0  0  0  0  0  0  0  0  0
    3.2803   -0.2754   12.1622 H   0  0  0  0  0  0  0  0  0  0  0  0
    2.8867   -1.2049   11.1171 H   0  0  0  0  0  0  0  0  0  0  0  0
    6.6394    1.7639   10.5732 H   0  0  0  0  0  0  0  0  0  0  0  0
    7.0617   -1.1991   10.5790 H   0  0  0  0  0  0  0  0  0  0  0  0
    5.8700   -0.5356    9.6857 H   0  0  0  0  0  0  0  0  0  0  0  0
    7.7698   -1.4695    8.0920 H   0  0  0  0  0  0  0  0  0  0  0  0
    7.1643    0.0459    7.6464 H   0  0  0  0  0  0  0  0  0  0  0  0
    7.9520    1.7411    9.9287 H   0  0  0  0  0  0  0  0  0  0  0  0
    9.6304    2.6372   10.9233 H   0  0  0  0  0  0  0  0  0  0  0  0
   11.9084    1.8971   10.1256 H   0  0  0  0  0  0  0  0  0  0  0  0
   12.0728   -0.1077    8.6370 H   0  0  0  0  0  0  0  0  0  0  0  0
   10.0255   -0.9524    7.4304 H   0  0  0  0  0  0  0  0  0  0  0  0
    5.3615   -2.0053    9.7711 H   0  0  0  0  0  0  0  0  0  0  0  0
    4.7146   -2.7214    8.7862 H   0  0  0  0  0  0  0  0  0  0  0  0
    6.4945   -2.6035    8.5685 H   0  0  0  0  0  0  0  0  0  0  0  0
    5.6871   -4.1124    8.8205 H   0  0  0  0  0  0  0  0  0  0  0  0
    4.5660   -3.7461   10.2058 H   0  0  0  0  0  0  0  0  0  0  0  0
    6.2037   -3.8948   10.4173 H   0  0  0  0  0  0  0  0  0  0  0  0
    3.3258   -2.9975   11.1333 H   0  0  0  0  0  0  0  0  0  0  0  0
    1.6213   -2.8135   10.8755 H   0  0  0  0  0  0  0  0  0  0  0  0
    2.2454   -4.3122   11.4613 H   0  0  0  0  0  0  0  0  0  0  0  0
    1.8853   -1.6896    7.0666 H   0  0  0  0  0  0  0  0  0  0  0  0
    0.1655   -1.4053    6.2621 H   0  0  0  0  0  0  0  0  0  0  0  0
    2.1799    0.7146    4.8749 H   0  0  0  0  0  0  0  0  0  0  0  0
    0.3885    1.0219    5.1505 H   0  0  0  0  0  0  0  0  0  0  0  0
    1.3232    0.8176    6.2710 H   0  0  0  0  0  0  0  0  0  0  0  0
    1.0347   -3.0425    5.1338 H   0  0  0  0  0  0  0  0  0  0  0  0
    0.3377   -1.7131    4.1465 H   0  0  0  0  0  0  0  0  0  0  0  0
    2.2260   -1.8902    4.2515 H   0  0  0  0  0  0  0  0  0  0  0  0
    4.6058   -2.0142    5.3006 H   0  0  0  0  0  0  0  0  0  0  0  0
    5.6466    1.0052    8.4658 H   0  0  0  0  0  0  0  0  0  0  0  0
    3.0640    2.1407    9.3314 H   0  0  0  0  0  0  0  0  0  0  0  0
    2.6793    1.7638    6.5926 H   0  0  0  0  0  0  0  0  0  0  0  0
    1.2894    1.8465    7.8244 H   0  0  0  0  0  0  0  0  0  0  0  0
    2.3742    3.1243    7.6783 H   0  0  0  0  0  0  0  0  0  0  0  0
    3.4737   -1.1217    9.6360 H   0  0  0  0  0  0  0  0  0  0  0  0
    1.7217   -0.5955    9.8847 H   0  0  0  0  0  0  0  0  0  0  0  0
    2.9886   -1.1507    8.8970 H   0  0  0  0  0  0  0  0  0  0  0  0
    7.0991    1.9270    6.7291 H   0  0  0  0  0  0  0  0  0  0  0  0
    7.1933    3.6085    7.4242 H   0  0  0  0  0  0  0  0  0  0  0  0
    7.1668    2.2059    8.4321 H   0  0  0  0  0  0  0  0  0  0  0  0
    4.8880    2.3271    5.6605 H   0  0  0  0  0  0  0  0  0  0  0  0
    3.7083    3.1429    6.5176 H   0  0  0  0  0  0  0  0  0  0  0  0
    4.9512    4.1134    6.2844 H   0  0  0  0  0  0  0  0  0  0  0  0
  1  2  1  0  0  0  0
  1 51  1  0  0  0  0
  1 52  1  0  0  0  0
  1 53  1  0  0  0  0
  2 54  1  0  0  0  0
  2 55  1  0  0  0  0
  3  5  1  0  0  0  0
  3 56  1  6  0  0  0
  3  4  1  0  0  0  0
  3  2  1  0  0  0  0
  4 57  1  0  0  0  0
  4 58  1  0  0  0  0
  4 59  1  0  0  0  0
  5  6  1  0  0  0  0
  5 33  1  0  0  0  0
  5 60  1  1  0  0  0
  6  7  1  0  0  0  0
  6 31  1  0  0  0  0
  6 61  1  6  0  0  0
  7  8  1  0  0  0  0
  7 62  1  0  0  0  0
  7 63  1  0  0  0  0
  8  9  2  0  0  0  0
  8 10  1  0  0  0  0
 10 11  1  0  0  0  0
 10 14  1  0  0  0  0
 11 12  1  0  0  0  0
 11 64  1  0  0  0  0
 11 65  1  0  0  0  0
 12 13  1  0  0  0  0
 12 66  1  0  0  0  0
 12 67  1  0  0  0  0
 13 14  1  0  0  0  0
 13 68  1  0  0  0  0
 13 69  1  0  0  0  0
 14 70  1  6  0  0  0
 14 15  1  0  0  0  0
 15 16  1  0  0  0  0
 15 29  1  0  0  0  0
 15 71  1  6  0  0  0
 16 17  1  0  0  0  0
 16 18  1  0  0  0  0
 16 72  1  6  0  0  0
 17 73  1  0  0  0  0
 17 74  1  0  0  0  0
 17 75  1  0  0  0  0
 18 19  2  0  0  0  0
 18 20  1  0  0  0  0
 20 21  1  0  0  0  0
 20 76  1  0  0  0  0
 21 22  1  0  0  0  0
 21 77  1  0  0  0  0
 21 78  1  0  0  0  0
 22 23  1  0  0  0  0
 22 79  1  0  0  0  0
 22 80  1  0  0  0  0
 23 24  2  0  0  0  0
 23 28  1  0  0  0  0
 24 25  1  0  0  0  0
 24 81  1  0  0  0  0
 25 26  2  0  0  0  0
 25 82  1  0  0  0  0
 26 27  1  0  0  0  0
 26 83  1  0  0  0  0
 27 28  2  0  0  0  0
 27 84  1  0  0  0  0
 28 85  1  0  0  0  0
 29 30  1  0  0  0  0
 30 86  1  0  0  0  0
 30 87  1  0  0  0  0
 30 88  1  0  0  0  0
 31 32  1  0  0  0  0
 32 89  1  0  0  0  0
 32 90  1  0  0  0  0
 32 91  1  0  0  0  0
 33 34  1  0  0  0  0
 33 35  1  0  0  0  0
 34 92  1  0  0  0  0
 34 93  1  0  0  0  0
 34 94  1  0  0  0  0
 35 36  2  0  0  0  0
 37 41  1  0  0  0  0
 37 95  1  1  0  0  0
 37 38  1  0  0  0  0
 37 35  1  0  0  0  0
 38 39  1  0  0  0  0
 38 40  1  0  0  0  0
 38 96  1  0  0  0  0
 39 97  1  0  0  0  0
 39 98  1  0  0  0  0
 39 99  1  0  0  0  0
 40100  1  0  0  0  0
 40101  1  0  0  0  0
 40102  1  0  0  0  0
 41 42  1  0  0  0  0
 41103  1  0  0  0  0
 42 43  2  0  0  0  0
 44 48  1  0  0  0  0
 44104  1  1  0  0  0
 44 45  1  0  0  0  0
 44 42  1  0  0  0  0
 45 46  1  0  0  0  0
 45 47  1  0  0  0  0
 45105  1  0  0  0  0
 46106  1  0  0  0  0
 46107  1  0  0  0  0
 46108  1  0  0  0  0
 47109  1  0  0  0  0
 47110  1  0  0  0  0
 47111  1  0  0  0  0
 48 49  1  0  0  0  0
 48 50  1  0  0  0  0
 49112  1  0  0  0  0
 49113  1  0  0  0  0
 49114  1  0  0  0  0
 50115  1  0  0  0  0
 50116  1  0  0  0  0
 50117  1  0  0  0  0
M  END
>  <DRUGBANK_ID>
DB12677

>  <COMMON_NAME>
Soblidotin

>  <CAS_NUMBER>
149606-27-9

>  <UNII>
DQC51A0WQH

>  <SYNONYMS>
Soblidotin

$$$$
