
 OpenBabel10282417163D

 48 49  0  0  1  0  0  0  0  0999 V2000
    2.2786    3.2794   -4.5578 C   0  0  0  0  0  0  0  0  0  0  0  0
    4.4864    7.3287  -11.3067 C   0  0  0  0  0  0  0  0  0  0  0  0
    0.9937    5.5226   -2.3602 C   0  0  0  0  0  0  0  0  0  0  0  0
    0.3890    6.0613   -6.4927 C   0  0  0  0  0  0  0  0  0  0  0  0
    2.3629    5.1109   -3.4319 C   0  0  0  0  0  0  0  0  0  0  0  0
    1.2718    6.2012   -7.5148 C   0  0  0  0  0  0  0  0  0  0  0  0
   -0.3387    5.2486   -2.0615 C   0  0  0  0  0  0  0  0  0  0  0  0
   -0.7491    5.0163   -6.3733 C   0  0  0  0  0  0  0  0  0  0  0  0
    3.2666    6.9781   -8.7939 C   0  0  0  0  0  0  0  0  0  0  0  0
    5.1680    8.1904   -7.8601 C   0  0  0  0  0  0  0  0  0  0  0  0
    2.5717    4.8567   -4.9703 C   0  0  2  0  0  0  0  0  0  0  0  0
    2.6141    6.9190   -7.5521 C   0  0  0  0  0  0  0  0  0  0  0  0
    4.4999    7.6448   -8.9572 C   0  0  0  0  0  0  0  0  0  0  0  0
   -0.9179    5.2660   -3.4346 C   0  0  0  0  0  0  0  0  0  0  0  0
   -0.7500    3.6989   -5.4924 C   0  0  1  0  0  0  0  0  0  0  0  0
    4.6124    8.0728   -6.6062 C   0  0  0  0  0  0  0  0  0  0  0  0
    3.3516    7.4635   -6.4725 C   0  0  0  0  0  0  0  0  0  0  0  0
   -0.3915    3.9948   -4.0824 C   0  0  2  0  0  0  0  0  0  0  0  0
    2.8535    7.4771   -5.1191 C   0  0  0  0  0  0  0  0  0  0  0  0
   -1.4388    6.2076   -3.8978 O   0  0  0  0  0  0  0  0  0  0  0  0
   -1.9972    3.0308   -5.3484 O   0  0  0  0  0  0  0  0  0  0  0  0
    5.3478    8.5657   -5.5539 O   0  0  0  0  0  0  0  0  0  0  0  0
   -0.0131    2.8870   -3.2412 O   0  0  0  0  0  0  0  0  0  0  0  0
    2.9589    8.4439   -4.3939 O   0  0  0  0  0  0  0  0  0  0  0  0
    5.1331    7.8488  -10.1537 O   0  0  0  0  0  0  0  0  0  0  0  0
    2.3358    6.3108   -4.7214 O   0  0  0  0  0  0  0  0  0  0  0  0
    0.8978    6.6203   -2.2613 H   0  0  0  0  0  0  0  0  0  0  0  0
    0.5162    6.6650   -5.5937 H   0  0  0  0  0  0  0  0  0  0  0  0
    1.0705    5.5918   -8.3929 H   0  0  0  0  0  0  0  0  0  0  0  0
   -1.0544    4.4261   -1.8312 H   0  0  0  0  0  0  0  0  0  0  0  0
    1.9810    4.7390   -5.8859 H   0  0  0  0  0  0  0  0  0  0  0  0
   -0.1000    2.9507   -5.9705 H   0  0  0  0  0  0  0  0  0  0  0  0
    0.5162    4.4913   -4.2810 H   0  0  0  0  0  0  0  0  0  0  0  0
    2.1711    3.0835   -3.4699 H   0  0  0  0  0  0  0  0  0  0  0  0
    2.7997    2.4223   -4.9741 H   0  0  0  0  0  0  0  0  0  0  0  0
    1.3586    3.0345   -5.0261 H   0  0  0  0  0  0  0  0  0  0  0  0
    4.4311    6.2367  -11.2532 H   0  0  0  0  0  0  0  0  0  0  0  0
    3.4920    7.7690  -11.4408 H   0  0  0  0  0  0  0  0  0  0  0  0
    5.0886    7.5932  -12.1792 H   0  0  0  0  0  0  0  0  0  0  0  0
    3.0871    5.1425   -2.6113 H   0  0  0  0  0  0  0  0  0  0  0  0
    3.4006    4.7001   -3.5964 H   0  0  0  0  0  0  0  0  0  0  0  0
   -1.5869    5.6004   -6.0095 H   0  0  0  0  0  0  0  0  0  0  0  0
   -0.9780    4.6739   -7.3708 H   0  0  0  0  0  0  0  0  0  0  0  0
    2.7840    6.5198   -9.6511 H   0  0  0  0  0  0  0  0  0  0  0  0
    6.1055    8.7260   -7.9769 H   0  0  0  0  0  0  0  0  0  0  0  0
   -2.4720    3.5103   -4.6457 H   0  0  0  0  0  0  0  0  0  0  0  0
    4.8212    8.5472   -4.7240 H   0  0  0  0  0  0  0  0  0  0  0  0
   -0.7317    2.3994   -2.8193 H   0  0  0  0  0  0  0  0  0  0  0  0
  1 34  1  0  0  0  0
  1 35  1  0  0  0  0
  1 36  1  0  0  0  0
  2 37  1  0  0  0  0
  2 38  1  0  0  0  0
  2 39  1  0  0  0  0
  5  3  1  0  0  0  0
  5 40  1  0  0  0  0
  5 41  1  0  0  0  0
  6  4  2  0  0  0  0
  7  3  2  0  0  0  0
  8  4  1  0  0  0  0
  8 42  1  0  0  0  0
  8 43  1  0  0  0  0
  9 44  1  0  0  0  0
 10 45  1  0  0  0  0
 11  5  1  0  0  0  0
 11 31  1  6  0  0  0
 11  1  1  0  0  0  0
 12  6  1  0  0  0  0
 12  9  2  0  0  0  0
 13  9  1  0  0  0  0
 13 10  2  0  0  0  0
 14  7  1  0  0  0  0
 15  8  1  0  0  0  0
 15 21  1  0  0  0  0
 15 32  1  6  0  0  0
 16 10  1  0  0  0  0
 17 12  1  0  0  0  0
 17 16  2  0  0  0  0
 18 14  1  0  0  0  0
 18 15  1  0  0  0  0
 18 23  1  0  0  0  0
 18 33  1  6  0  0  0
 19 17  1  0  0  0  0
 20 14  2  0  0  0  0
 21 46  1  0  0  0  0
 22 16  1  0  0  0  0
 22 47  1  0  0  0  0
 23 48  1  0  0  0  0
 24 19  2  0  0  0  0
 25  2  1  0  0  0  0
 25 13  1  0  0  0  0
 26 11  1  0  0  0  0
 26 19  1  0  0  0  0
 27  3  1  0  0  0  0
 28  4  1  0  0  0  0
 29  6  1  0  0  0  0
 30  7  1  0  0  0  0
M  END
>  <DRUGBANK_ID>
DB07788

>  <COMMON_NAME>
(3R,5Z,8S,9S,11E)-8,9,16-TRIHYDROXY-14-METHOXY-3-METHYL-3,4,9,10-TETRAHYDRO-1H-2-BENZOXACYCLOTETRADECINE-1,7(8H)-DIONE

$$$$
