
 OpenBabel10282417233D

 37 40  0  0  1  0  0  0  0  0999 V2000
   -0.9434    0.1778   -0.1541 H   0  0  0  0  0  0  0  0  0  0  0  0
   -2.0374    0.1803   -0.0600 C   0  0  2  0  0  0  0  0  0  0  0  0
   -2.3752    0.1460    1.4474 C   0  0  0  0  0  0  0  0  0  0  0  0
   -1.7394   -1.0752    2.1146 C   0  0  0  0  0  0  0  0  0  0  0  0
   -1.7280   -2.3351    1.2792 C   0  0  0  0  0  0  0  0  0  0  0  0
   -2.0048   -2.3152   -0.1010 C   0  0  0  0  0  0  0  0  0  0  0  0
   -1.8536   -3.4764   -0.8801 C   0  0  0  0  0  0  0  0  0  0  0  0
   -1.5418   -4.6753   -0.2636 C   0  0  0  0  0  0  0  0  0  0  0  0
   -1.5938   -5.8014   -1.0290 O   0  0  0  0  0  0  0  0  0  0  0  0
   -1.3120   -4.7082    1.1019 C   0  0  0  0  0  0  0  0  0  0  0  0
   -1.1185   -5.9115    1.7180 O   0  0  0  0  0  0  0  0  0  0  0  0
   -1.3689   -3.5533    1.8770 C   0  0  0  0  0  0  0  0  0  0  0  0
   -2.5884   -1.0796   -0.7603 C   0  0  1  0  0  0  0  0  0  0  0  0
   -2.2676   -1.0658   -1.8121 H   0  0  0  0  0  0  0  0  0  0  0  0
   -4.1178   -1.0349   -0.7499 C   0  0  0  0  0  0  0  0  0  0  0  0
   -4.7639    0.2239   -0.7142 C   0  0  0  0  0  0  0  0  0  0  0  0
   -3.9815    1.5252   -0.6090 C   0  0  0  0  0  0  0  0  0  0  0  0
   -2.5318    1.3713   -0.7704 N   0  0  0  0  0  0  0  0  0  0  0  0
   -6.1654    0.2609   -0.6993 C   0  0  0  0  0  0  0  0  0  0  0  0
   -6.9135   -0.9198   -0.7246 C   0  0  0  0  0  0  0  0  0  0  0  0
   -6.2776   -2.1543   -0.7569 C   0  0  0  0  0  0  0  0  0  0  0  0
   -4.8906   -2.2102   -0.7804 C   0  0  0  0  0  0  0  0  0  0  0  0
   -3.4574    0.1108    1.6335 H   0  0  0  0  0  0  0  0  0  0  0  0
   -2.0249    1.0623    1.9365 H   0  0  0  0  0  0  0  0  0  0  0  0
   -2.2411   -1.2608    3.0729 H   0  0  0  0  0  0  0  0  0  0  0  0
   -0.6960   -0.8233    2.3335 H   0  0  0  0  0  0  0  0  0  0  0  0
   -2.0846   -3.4732   -1.9405 H   0  0  0  0  0  0  0  0  0  0  0  0
   -1.7948   -6.5362   -0.4238 H   0  0  0  0  0  0  0  0  0  0  0  0
   -2.0182   -6.2222    1.9163 H   0  0  0  0  0  0  0  0  0  0  0  0
   -1.1753   -3.6028    2.9438 H   0  0  0  0  0  0  0  0  0  0  0  0
   -4.3581    2.2274   -1.3621 H   0  0  0  0  0  0  0  0  0  0  0  0
   -4.1540    1.9943    0.3681 H   0  0  0  0  0  0  0  0  0  0  0  0
   -2.0578    2.1998   -0.4191 H   0  0  0  0  0  0  0  0  0  0  0  0
   -6.6863    1.2143   -0.6680 H   0  0  0  0  0  0  0  0  0  0  0  0
   -7.9982   -0.8788   -0.7218 H   0  0  0  0  0  0  0  0  0  0  0  0
   -6.8513   -3.0771   -0.7673 H   0  0  0  0  0  0  0  0  0  0  0  0
   -4.4276   -3.1921   -0.8050 H   0  0  0  0  0  0  0  0  0  0  0  0
  2  3  1  0  0  0  0
  2 13  1  0  0  0  0
  2 18  1  0  0  0  0
  2  1  1  1  0  0  0
  3  4  1  0  0  0  0
  3 23  1  0  0  0  0
  3 24  1  0  0  0  0
  4  5  1  0  0  0  0
  4 25  1  0  0  0  0
  4 26  1  0  0  0  0
  5  6  2  0  0  0  0
  5 12  1  0  0  0  0
  6  7  1  0  0  0  0
  7  8  2  0  0  0  0
  7 27  1  0  0  0  0
  8 10  1  0  0  0  0
  8  9  1  0  0  0  0
  9 28  1  0  0  0  0
 10 12  2  0  0  0  0
 10 11  1  0  0  0  0
 11 29  1  0  0  0  0
 12 30  1  0  0  0  0
 13  6  1  0  0  0  0
 13 15  1  0  0  0  0
 13 14  1  6  0  0  0
 15 16  2  0  0  0  0
 15 22  1  0  0  0  0
 16 17  1  0  0  0  0
 16 19  1  0  0  0  0
 17 18  1  0  0  0  0
 17 31  1  0  0  0  0
 17 32  1  0  0  0  0
 18 33  1  0  0  0  0
 19 20  2  0  0  0  0
 19 34  1  0  0  0  0
 20 21  1  0  0  0  0
 20 35  1  0  0  0  0
 21 22  2  0  0  0  0
 21 36  1  0  0  0  0
 22 37  1  0  0  0  0
M  END
>  <DRUGBANK_ID>
DB16139

>  <COMMON_NAME>
DAR-0100A

>  <CAS_NUMBER>
174691-84-0

>  <UNII>
Q3PJ4B4D0X

>  <SYNONYMS>
Dihydrexidine, (+)-

$$$$
