
 OpenBabel10282417163D

 46 49  0  0  0  0  0  0  0  0999 V2000
    1.1969   -0.2903    0.0046 C   0  0  0  0  0  0  0  0  0  0  0  0
    1.2208    1.1088   -0.0055 C   0  0  0  0  0  0  0  0  0  0  0  0
   -0.0188    1.7871    0.0169 C   0  0  0  0  0  0  0  0  0  0  0  0
   -1.2437    1.0993    0.0218 C   0  0  0  0  0  0  0  0  0  0  0  0
   -1.2211   -0.2982    0.0305 C   0  0  0  0  0  0  0  0  0  0  0  0
   -0.0119   -0.9870    0.0206 C   0  0  0  0  0  0  0  0  0  0  0  0
    2.3128   -1.0778   -0.0075 O   0  0  0  0  0  0  0  0  0  0  0  0
   -2.3554   -1.0650    0.0345 O   0  0  0  0  0  0  0  0  0  0  0  0
   -4.5386    2.5049    0.7526 N   0  0  0  0  0  0  0  0  0  0  0  0
   -3.4343    1.7771    0.9828 N   0  0  0  0  0  0  0  0  0  0  0  0
   -3.0107    2.7613   -0.9253 C   0  0  0  0  0  0  0  0  0  0  0  0
   -2.4939    1.8550   -0.0156 C   0  0  0  0  0  0  0  0  0  0  0  0
   -4.2796    3.1326   -0.4010 C   0  0  0  0  0  0  0  0  0  0  0  0
   -1.2808    6.3481   -3.6220 O   0  0  0  0  0  0  0  0  0  0  0  0
   -1.0609    6.7483   -4.9783 C   0  0  0  0  0  0  0  0  0  0  0  0
   -0.1316    5.7802   -5.6917 C   0  0  0  0  0  0  0  0  0  0  0  0
   -0.6991    4.4670   -5.7536 O   0  0  0  0  0  0  0  0  0  0  0  0
   -1.2400    4.0948   -4.5501 C   0  0  0  0  0  0  0  0  0  0  0  0
   -1.5179    5.0016   -3.5243 C   0  0  0  0  0  0  0  0  0  0  0  0
   -2.0642    4.5527   -2.3232 C   0  0  0  0  0  0  0  0  0  0  0  0
   -2.3616    3.1959   -2.1483 C   0  0  0  0  0  0  0  0  0  0  0  0
   -2.0860    2.2897   -3.1799 C   0  0  0  0  0  0  0  0  0  0  0  0
   -1.5298    2.7418   -4.3813 C   0  0  0  0  0  0  0  0  0  0  0  0
   -5.2796    4.0662   -0.9797 C   0  0  0  0  0  0  0  0  0  0  0  0
    2.4887    1.9305   -0.0536 C   0  0  0  0  0  0  0  0  0  0  0  0
    2.5748    2.7846   -1.3125 C   0  0  0  0  0  0  0  0  0  0  0  0
   -0.0298    2.8769    0.0185 H   0  0  0  0  0  0  0  0  0  0  0  0
   -0.0074   -2.0731    0.0084 H   0  0  0  0  0  0  0  0  0  0  0  0
    3.1135   -0.5368    0.0203 H   0  0  0  0  0  0  0  0  0  0  0  0
   -3.1242   -0.5010   -0.1535 H   0  0  0  0  0  0  0  0  0  0  0  0
   -3.3920    1.2231    1.8309 H   0  0  0  0  0  0  0  0  0  0  0  0
   -0.6148    7.7479   -4.9572 H   0  0  0  0  0  0  0  0  0  0  0  0
   -2.0319    6.8199   -5.4834 H   0  0  0  0  0  0  0  0  0  0  0  0
    0.0391    6.1162   -6.7196 H   0  0  0  0  0  0  0  0  0  0  0  0
    0.8407    5.7153   -5.1886 H   0  0  0  0  0  0  0  0  0  0  0  0
   -2.2765    5.2704   -1.5348 H   0  0  0  0  0  0  0  0  0  0  0  0
   -2.3135    1.2322   -3.0652 H   0  0  0  0  0  0  0  0  0  0  0  0
   -1.3231    2.0379   -5.1830 H   0  0  0  0  0  0  0  0  0  0  0  0
   -6.2282    3.5519   -1.1623 H   0  0  0  0  0  0  0  0  0  0  0  0
   -5.4600    4.9031   -0.2978 H   0  0  0  0  0  0  0  0  0  0  0  0
   -4.9422    4.4815   -1.9341 H   0  0  0  0  0  0  0  0  0  0  0  0
    2.5369    2.5649    0.8398 H   0  0  0  0  0  0  0  0  0  0  0  0
    3.3847    1.3059   -0.0178 H   0  0  0  0  0  0  0  0  0  0  0  0
    1.7721    3.5277   -1.3540 H   0  0  0  0  0  0  0  0  0  0  0  0
    3.5276    3.3222   -1.3395 H   0  0  0  0  0  0  0  0  0  0  0  0
    2.5060    2.1632   -2.2118 H   0  0  0  0  0  0  0  0  0  0  0  0
  2  1  2  0  0  0  0
  3  2  1  0  0  0  0
  3 27  1  0  0  0  0
  4  3  2  0  0  0  0
  5  4  1  0  0  0  0
  6  1  1  0  0  0  0
  6  5  2  0  0  0  0
  6 28  1  0  0  0  0
  7  1  1  0  0  0  0
  7 29  1  0  0  0  0
  8  5  1  0  0  0  0
  8 30  1  0  0  0  0
 10  9  1  0  0  0  0
 10 31  1  0  0  0  0
 12  4  1  0  0  0  0
 12 10  1  0  0  0  0
 12 11  2  0  0  0  0
 13  9  2  0  0  0  0
 13 11  1  0  0  0  0
 15 14  1  0  0  0  0
 15 32  1  0  0  0  0
 15 33  1  0  0  0  0
 16 15  1  0  0  0  0
 16 34  1  0  0  0  0
 16 35  1  0  0  0  0
 17 16  1  0  0  0  0
 18 17  1  0  0  0  0
 19 14  1  0  0  0  0
 19 18  2  0  0  0  0
 20 19  1  0  0  0  0
 20 36  1  0  0  0  0
 21 11  1  0  0  0  0
 21 20  2  0  0  0  0
 22 21  1  0  0  0  0
 22 37  1  0  0  0  0
 23 18  1  0  0  0  0
 23 22  2  0  0  0  0
 23 38  1  0  0  0  0
 24 13  1  0  0  0  0
 24 39  1  0  0  0  0
 24 40  1  0  0  0  0
 24 41  1  0  0  0  0
 25  2  1  0  0  0  0
 25 42  1  0  0  0  0
 25 43  1  0  0  0  0
 26 25  1  0  0  0  0
 26 44  1  0  0  0  0
 26 45  1  0  0  0  0
 26 46  1  0  0  0  0
M  END
>  <DRUGBANK_ID>
DB07594

>  <COMMON_NAME>
CCT-018159

>  <CAS_NUMBER>
171009-07-7

>  <UNII>
55H1ZOI1NL

$$$$
