
 OpenBabel10282417183D

120128  0  0  0  0  0  0  0  0999 V2000
   14.3869    0.3676    1.7554 C   0  0  0  0  0  0  0  0  0  0  0  0
   14.7864   -0.8438    2.3325 C   0  0  0  0  0  0  0  0  0  0  0  0
   13.9590   -2.0172    2.2953 C   0  0  0  0  0  0  0  0  0  0  0  0
   13.4181   -2.7943    3.2946 C   0  0  0  0  0  0  0  0  0  0  0  0
   12.7165   -3.8482    2.7701 N   0  0  0  0  0  0  0  0  0  0  0  0
   12.8021   -3.7075    1.4592 C   0  0  0  0  0  0  0  0  0  0  0  0
   13.6021   -2.6402    1.1374 N   0  0  0  0  0  0  0  0  0  0  0  0
   16.0062   -0.9573    2.9752 C   0  0  0  0  0  0  0  0  0  0  0  0
   16.8033    0.1731    3.0642 C   0  0  0  0  0  0  0  0  0  0  0  0
   16.3992    1.3931    2.4980 C   0  0  0  0  0  0  0  0  0  0  0  0
   15.1872    1.5155    1.8209 C   0  0  0  0  0  0  0  0  0  0  0  0
   17.3988    2.2882    2.7749 N   0  0  0  0  0  0  0  0  0  0  0  0
   18.3130    1.6731    3.5797 C   0  0  0  0  0  0  0  0  0  0  0  0
   18.0384    0.3452    3.6836 C   0  0  0  0  0  0  0  0  0  0  0  0
   19.4369    2.4157    3.9953 C   0  0  0  0  0  0  0  0  0  0  0  0
   20.5801    1.7320    4.2774 C   0  0  0  0  0  0  0  0  0  0  0  0
   21.7386    2.4493    4.2164 C   0  0  0  0  0  0  0  0  0  0  0  0
   21.8020    3.8225    3.9204 C   0  0  0  0  0  0  0  0  0  0  0  0
   20.5807    4.5116    3.9187 C   0  0  0  0  0  0  0  0  0  0  0  0
   19.4093    3.8006    3.8502 C   0  0  0  0  0  0  0  0  0  0  0  0
   18.2884    4.4505    3.3967 O   0  0  0  0  0  0  0  0  0  0  0  0
   17.6011    3.6848    2.3510 C   0  0  1  0  0  0  0  0  0  0  0  0
   22.9711    4.7010    4.0012 C   0  0  0  0  0  0  0  0  0  0  0  0
   24.3038    4.7150    3.6288 N   0  0  0  0  0  0  0  0  0  0  0  0
   25.0006    5.5206    4.5554 C   0  0  0  0  0  0  0  0  0  0  0  0
   24.1461    6.2454    5.2279 N   0  0  0  0  0  0  0  0  0  0  0  0
   22.9919    5.5786    5.0367 C   0  0  0  0  0  0  0  0  0  0  0  0
   18.3544    3.7966    1.0165 C   0  0  0  0  0  0  0  0  0  0  0  0
   19.6929    3.3740    0.8692 C   0  0  0  0  0  0  0  0  0  0  0  0
   17.7447    4.3642   -0.1059 C   0  0  0  0  0  0  0  0  0  0  0  0
   20.4452    3.6463   -0.2658 C   0  0  0  0  0  0  0  0  0  0  0  0
   18.4564    4.4949   -1.3061 C   0  0  0  0  0  0  0  0  0  0  0  0
   19.8191    4.2005   -1.3649 C   0  0  0  0  0  0  0  0  0  0  0  0
   26.4746    5.5306    4.7947 C   0  0  2  0  0  0  0  0  0  0  0  0
   26.9943    6.1084    3.4911 C   0  0  0  0  0  0  0  0  0  0  0  0
   27.2092    4.2605    4.9160 N   0  0  0  0  0  0  0  0  0  0  0  0
   28.4394    5.7179    3.4309 C   0  0  0  0  0  0  0  0  0  0  0  0
   28.5061    4.4086    4.2205 C   0  0  0  0  0  0  0  0  0  0  0  0
   27.0279    3.1619    5.7581 C   0  0  0  0  0  0  0  0  0  0  0  0
   27.7878    2.1854    5.6341 O   0  0  0  0  0  0  0  0  0  0  0  0
   25.7687    2.9945    6.7165 C   0  0  1  0  0  0  0  0  0  0  0  0
   25.6393    4.0903    7.7595 N   0  0  0  0  0  0  0  0  0  0  0  0
   24.8413    5.2083    8.0674 C   0  0  0  0  0  0  0  0  0  0  0  0
   25.2917    6.0172    8.8860 O   0  0  0  0  0  0  0  0  0  0  0  0
   23.5788    5.3508    7.5485 O   0  0  0  0  0  0  0  0  0  0  0  0
   22.7943    6.6319    7.5885 C   0  0  0  0  0  0  0  0  0  0  0  0
   24.5272    2.7734    5.9033 C   0  0  0  0  0  0  0  0  0  0  0  0
   24.6988    1.9178    4.6048 C   0  0  0  0  0  0  0  0  0  0  0  0
   23.2657    2.6189    6.7642 C   0  0  0  0  0  0  0  0  0  0  0  0
   26.7768    6.1396    5.6622 H   0  0  0  0  0  0  0  0  0  0  0  0
   12.0883   -4.5052    0.4205 C   0  0  1  0  0  0  0  0  0  0  0  0
   11.3131   -3.7575   -0.5884 N   0  0  0  0  0  0  0  0  0  0  0  0
   13.0701   -5.2708   -0.4590 C   0  0  0  0  0  0  0  0  0  0  0  0
   11.1952   -4.5492   -1.7983 C   0  0  0  0  0  0  0  0  0  0  0  0
   12.2153   -5.6761   -1.6510 C   0  0  0  0  0  0  0  0  0  0  0  0
   10.7454   -2.5321   -0.3366 C   0  0  0  0  0  0  0  0  0  0  0  0
    9.8893   -1.7707   -1.3929 C   0  0  2  0  0  0  0  0  0  0  0  0
   11.0852   -1.9478    0.6901 O   0  0  0  0  0  0  0  0  0  0  0  0
    9.1882   -0.4688   -0.8401 C   0  0  0  0  0  0  0  0  0  0  0  0
    9.5048   -0.0413    0.6013 C   0  0  0  0  0  0  0  0  0  0  0  0
    9.4660    0.7429   -1.7368 C   0  0  0  0  0  0  0  0  0  0  0  0
    8.8611   -2.6489   -1.9582 N   0  0  0  0  0  0  0  0  0  0  0  0
    8.7103   -3.0772   -3.2544 C   0  0  0  0  0  0  0  0  0  0  0  0
    7.8456   -3.8502   -3.5701 O   0  0  0  0  0  0  0  0  0  0  0  0
    9.6614   -2.5660   -4.0897 O   0  0  0  0  0  0  0  0  0  0  0  0
    9.5621   -3.0217   -5.4442 C   0  0  0  0  0  0  0  0  0  0  0  0
   11.3894   -5.1939    0.9123 H   0  0  0  0  0  0  0  0  0  0  0  0
   13.4166    0.4320    1.2702 H   0  0  0  0  0  0  0  0  0  0  0  0
   13.4943   -2.6322    4.3624 H   0  0  0  0  0  0  0  0  0  0  0  0
   13.7655   -2.2907    0.2054 H   0  0  0  0  0  0  0  0  0  0  0  0
   16.3367   -1.8882    3.4271 H   0  0  0  0  0  0  0  0  0  0  0  0
   14.8579    2.4555    1.3951 H   0  0  0  0  0  0  0  0  0  0  0  0
   18.6327   -0.4064    4.1853 H   0  0  0  0  0  0  0  0  0  0  0  0
   20.6191    0.6594    4.4454 H   0  0  0  0  0  0  0  0  0  0  0  0
   22.5165    1.8256    4.6013 H   0  0  0  0  0  0  0  0  0  0  0  0
   20.5508    5.5987    3.9300 H   0  0  0  0  0  0  0  0  0  0  0  0
   16.6100    4.1441    2.2800 H   0  0  0  0  0  0  0  0  0  0  0  0
   24.7740    3.9994    3.1045 H   0  0  0  0  0  0  0  0  0  0  0  0
   22.2378    5.3744    5.7814 H   0  0  0  0  0  0  0  0  0  0  0  0
   20.2090    2.8286    1.6463 H   0  0  0  0  0  0  0  0  0  0  0  0
   16.7136    4.7057   -0.0646 H   0  0  0  0  0  0  0  0  0  0  0  0
   21.5042    3.4023   -0.2784 H   0  0  0  0  0  0  0  0  0  0  0  0
   17.9492    4.8384   -2.2026 H   0  0  0  0  0  0  0  0  0  0  0  0
   20.3911    4.3840   -2.2686 H   0  0  0  0  0  0  0  0  0  0  0  0
   26.4847    5.6189    2.6495 H   0  0  0  0  0  0  0  0  0  0  0  0
   26.7917    7.1798    3.4195 H   0  0  0  0  0  0  0  0  0  0  0  0
   28.7486    5.5992    2.3878 H   0  0  0  0  0  0  0  0  0  0  0  0
   29.0485    6.5048    3.8842 H   0  0  0  0  0  0  0  0  0  0  0  0
   28.6946    3.5466    3.5720 H   0  0  0  0  0  0  0  0  0  0  0  0
   29.3286    4.4694    4.9465 H   0  0  0  0  0  0  0  0  0  0  0  0
   25.9219    2.0470    7.2607 H   0  0  0  0  0  0  0  0  0  0  0  0
   26.4454    4.0800    8.3669 H   0  0  0  0  0  0  0  0  0  0  0  0
   22.1360    6.6582    8.4495 H   0  0  0  0  0  0  0  0  0  0  0  0
   23.4098    7.5043    7.3499 H   0  0  0  0  0  0  0  0  0  0  0  0
   22.0172    6.7092    6.7966 H   0  0  0  0  0  0  0  0  0  0  0  0
   24.4434    3.7608    5.5774 H   0  0  0  0  0  0  0  0  0  0  0  0
   24.5224    0.8602    4.7893 H   0  0  0  0  0  0  0  0  0  0  0  0
   24.0314    2.2026    3.7834 H   0  0  0  0  0  0  0  0  0  0  0  0
   25.6429    2.0583    4.0741 H   0  0  0  0  0  0  0  0  0  0  0  0
   23.3097    3.1532    7.7109 H   0  0  0  0  0  0  0  0  0  0  0  0
   22.3981    3.1033    6.3186 H   0  0  0  0  0  0  0  0  0  0  0  0
   23.0321    1.5865    6.9858 H   0  0  0  0  0  0  0  0  0  0  0  0
   13.8795   -4.6123   -0.8049 H   0  0  0  0  0  0  0  0  0  0  0  0
   13.5281   -6.1190    0.0559 H   0  0  0  0  0  0  0  0  0  0  0  0
   11.3955   -3.9242   -2.6702 H   0  0  0  0  0  0  0  0  0  0  0  0
   10.1855   -4.9680   -1.8586 H   0  0  0  0  0  0  0  0  0  0  0  0
   12.8086   -5.8087   -2.5601 H   0  0  0  0  0  0  0  0  0  0  0  0
   11.7053   -6.6217   -1.4385 H   0  0  0  0  0  0  0  0  0  0  0  0
   10.5885   -1.4895   -2.1914 H   0  0  0  0  0  0  0  0  0  0  0  0
    8.1038   -0.6371   -0.8659 H   0  0  0  0  0  0  0  0  0  0  0  0
   10.5564    0.2604    0.7028 H   0  0  0  0  0  0  0  0  0  0  0  0
    8.9046    0.8157    0.9142 H   0  0  0  0  0  0  0  0  0  0  0  0
    9.2709   -0.8430    1.3108 H   0  0  0  0  0  0  0  0  0  0  0  0
    9.2046    0.5399   -2.7783 H   0  0  0  0  0  0  0  0  0  0  0  0
    8.8676    1.5990   -1.4018 H   0  0  0  0  0  0  0  0  0  0  0  0
   10.5198    1.0406   -1.6909 H   0  0  0  0  0  0  0  0  0  0  0  0
    8.1811   -3.0418   -1.3200 H   0  0  0  0  0  0  0  0  0  0  0  0
    9.6893   -4.1078   -5.5049 H   0  0  0  0  0  0  0  0  0  0  0  0
    8.6098   -2.7171   -5.8887 H   0  0  0  0  0  0  0  0  0  0  0  0
   10.3713   -2.5539   -6.0142 H   0  0  0  0  0  0  0  0  0  0  0  0
  1  2  1  0  0  0  0
  1 68  1  0  0  0  0
  2  3  1  0  0  0  0
  2  8  2  0  0  0  0
  4  3  2  0  0  0  0
  4  5  1  0  0  0  0
  4 69  1  0  0  0  0
  5  6  2  0  0  0  0
  6  7  1  0  0  0  0
  6 51  1  0  0  0  0
  7  3  1  0  0  0  0
  7 70  1  0  0  0  0
  8  9  1  0  0  0  0
  8 71  1  0  0  0  0
  9 10  2  0  0  0  0
  9 14  1  0  0  0  0
 10 11  1  0  0  0  0
 10 12  1  0  0  0  0
 11  1  2  0  0  0  0
 11 72  1  0  0  0  0
 12 22  1  0  0  0  0
 13 12  1  0  0  0  0
 13 15  1  0  0  0  0
 14 13  2  0  0  0  0
 14 73  1  0  0  0  0
 15 16  1  0  0  0  0
 16 74  1  0  0  0  0
 17 16  2  0  0  0  0
 17 75  1  0  0  0  0
 18 17  1  0  0  0  0
 18 23  1  0  0  0  0
 19 18  2  0  0  0  0
 19 76  1  0  0  0  0
 20 19  1  0  0  0  0
 20 15  2  0  0  0  0
 21 20  1  0  0  0  0
 22 21  1  0  0  0  0
 22 77  1  6  0  0  0
 22 28  1  0  0  0  0
 24 23  1  0  0  0  0
 24 25  1  0  0  0  0
 24 78  1  0  0  0  0
 25 26  2  0  0  0  0
 25 34  1  0  0  0  0
 26 27  1  0  0  0  0
 27 23  2  0  0  0  0
 27 79  1  0  0  0  0
 29 28  1  0  0  0  0
 29 80  1  0  0  0  0
 30 28  2  0  0  0  0
 30 81  1  0  0  0  0
 31 29  2  0  0  0  0
 31 82  1  0  0  0  0
 32 30  1  0  0  0  0
 32 83  1  0  0  0  0
 33 31  1  0  0  0  0
 33 32  2  0  0  0  0
 33 84  1  0  0  0  0
 34 50  1  1  0  0  0
 35 34  1  0  0  0  0
 35 85  1  0  0  0  0
 35 86  1  0  0  0  0
 36 34  1  0  0  0  0
 36 39  1  0  0  0  0
 37 35  1  0  0  0  0
 37 87  1  0  0  0  0
 37 88  1  0  0  0  0
 38 36  1  0  0  0  0
 38 37  1  0  0  0  0
 38 89  1  0  0  0  0
 38 90  1  0  0  0  0
 39 40  2  0  0  0  0
 39 41  1  0  0  0  0
 41 42  1  0  0  0  0
 41 47  1  0  0  0  0
 41 91  1  1  0  0  0
 42 43  1  0  0  0  0
 42 92  1  0  0  0  0
 44 43  2  0  0  0  0
 45 43  1  0  0  0  0
 46 45  1  0  0  0  0
 46 93  1  0  0  0  0
 46 94  1  0  0  0  0
 46 95  1  0  0  0  0
 47 48  1  0  0  0  0
 47 49  1  0  0  0  0
 47 96  1  0  0  0  0
 48 97  1  0  0  0  0
 48 98  1  0  0  0  0
 48 99  1  0  0  0  0
 49100  1  0  0  0  0
 49101  1  0  0  0  0
 49102  1  0  0  0  0
 51 67  1  1  0  0  0
 52 51  1  0  0  0  0
 52 56  1  0  0  0  0
 53 51  1  0  0  0  0
 53103  1  0  0  0  0
 53104  1  0  0  0  0
 54 52  1  0  0  0  0
 54105  1  0  0  0  0
 54106  1  0  0  0  0
 55 53  1  0  0  0  0
 55 54  1  0  0  0  0
 55107  1  0  0  0  0
 55108  1  0  0  0  0
 56 58  2  0  0  0  0
 57 62  1  0  0  0  0
 57109  1  6  0  0  0
 57 59  1  0  0  0  0
 57 56  1  0  0  0  0
 59 60  1  0  0  0  0
 59 61  1  0  0  0  0
 59110  1  0  0  0  0
 60111  1  0  0  0  0
 60112  1  0  0  0  0
 60113  1  0  0  0  0
 61114  1  0  0  0  0
 61115  1  0  0  0  0
 61116  1  0  0  0  0
 62 63  1  0  0  0  0
 62117  1  0  0  0  0
 64 63  2  0  0  0  0
 65 63  1  0  0  0  0
 66 65  1  0  0  0  0
 66118  1  0  0  0  0
 66119  1  0  0  0  0
 66120  1  0  0  0  0
M  END
>  <DRUGBANK_ID>
DB11574

>  <COMMON_NAME>
Elbasvir

>  <CAS_NUMBER>
1370468-36-2

>  <UNII>
632L571YDK

>  <SYNONYMS>
Elbasvir

$$$$
