
 OpenBabel10282417193D

 38 41  0  0  0  0  0  0  0  0999 V2000
    1.4005   -0.2760    0.0092 C   0  0  0  0  0  0  0  0  0  0  0  0
    0.4942   -1.3365    0.0184 C   0  0  0  0  0  0  0  0  0  0  0  0
   -0.8908   -1.1044    0.0146 C   0  0  0  0  0  0  0  0  0  0  0  0
   -1.3910    0.2023    0.0159 C   0  0  0  0  0  0  0  0  0  0  0  0
   -0.4471    1.2478    0.0036 C   0  0  0  0  0  0  0  0  0  0  0  0
    0.9259    1.0214   -0.0239 C   0  0  0  0  0  0  0  0  0  0  0  0
   -2.8920    0.4806   -0.0467 C   0  0  0  0  0  0  0  0  0  0  0  0
   -3.3871    1.2118    1.1047 N   0  0  0  0  0  0  0  0  0  0  0  0
   -3.0747    2.5482    1.2654 C   0  0  0  0  0  0  0  0  0  0  0  0
   -2.5463    3.2594    0.4189 O   0  0  0  0  0  0  0  0  0  0  0  0
   -3.4147    2.9681    2.5295 N   0  0  0  0  0  0  0  0  0  0  0  0
   -4.4327    1.8826    3.3390 S   0  0  0  0  0  0  0  0  0  0  0  0
   -4.2317    0.7065    2.0468 C   0  0  0  0  0  0  0  0  0  0  0  0
   -4.8210   -0.3782    2.0563 O   0  0  0  0  0  0  0  0  0  0  0  0
   -3.0802    4.2147    3.0569 C   0  0  0  0  0  0  0  0  0  0  0  0
   -3.3851    5.3690    2.3349 C   0  0  0  0  0  0  0  0  0  0  0  0
   -3.2013    6.5945    2.9470 C   0  0  0  0  0  0  0  0  0  0  0  0
   -2.8063    6.6274    4.3067 C   0  0  0  0  0  0  0  0  0  0  0  0
   -2.4922    5.4250    5.0682 C   0  0  0  0  0  0  0  0  0  0  0  0
   -2.4216    4.2771    4.3104 C   0  0  0  0  0  0  0  0  0  0  0  0
   -1.6139    3.2368    4.8346 C   0  0  0  0  0  0  0  0  0  0  0  0
   -0.8232    3.4502    5.9565 C   0  0  0  0  0  0  0  0  0  0  0  0
   -1.6192    3.9338    6.9344 C   0  0  0  0  0  0  0  0  0  0  0  0
   -2.2406    5.1405    6.4935 C   0  0  0  0  0  0  0  0  0  0  0  0
    2.4716   -0.4538    0.0273 H   0  0  0  0  0  0  0  0  0  0  0  0
    0.8747   -2.3541    0.0182 H   0  0  0  0  0  0  0  0  0  0  0  0
   -1.5645   -1.9584    0.0026 H   0  0  0  0  0  0  0  0  0  0  0  0
   -0.7330    2.2899    0.0018 H   0  0  0  0  0  0  0  0  0  0  0  0
    1.6028    1.8708   -0.0779 H   0  0  0  0  0  0  0  0  0  0  0  0
   -3.0838    1.0776   -0.9466 H   0  0  0  0  0  0  0  0  0  0  0  0
   -3.4535   -0.4551   -0.1567 H   0  0  0  0  0  0  0  0  0  0  0  0
   -3.7654    5.3083    1.3149 H   0  0  0  0  0  0  0  0  0  0  0  0
   -3.4258    7.4987    2.3791 H   0  0  0  0  0  0  0  0  0  0  0  0
   -2.6938    7.6143    4.7524 H   0  0  0  0  0  0  0  0  0  0  0  0
   -1.7185    2.2275    4.4607 H   0  0  0  0  0  0  0  0  0  0  0  0
   -0.0253    4.2237    5.8558 H   0  0  0  0  0  0  0  0  0  0  0  0
   -2.1318    3.0539    7.3776 H   0  0  0  0  0  0  0  0  0  0  0  0
   -2.3006    5.9632    7.1993 H   0  0  0  0  0  0  0  0  0  0  0  0
  1  2  2  0  0  0  0
  1  6  1  0  0  0  0
  1 25  1  0  0  0  0
  2  3  1  0  0  0  0
  2 26  1  0  0  0  0
  3  4  2  0  0  0  0
  3 27  1  0  0  0  0
  4  5  1  0  0  0  0
  4  7  1  0  0  0  0
  5  6  2  0  0  0  0
  5 28  1  0  0  0  0
  6 29  1  0  0  0  0
  7  8  1  0  0  0  0
  7 30  1  0  0  0  0
  7 31  1  0  0  0  0
  8  9  1  0  0  0  0
  8 13  1  0  0  0  0
  9 10  2  0  0  0  0
  9 11  1  0  0  0  0
 11 12  1  0  0  0  0
 11 15  1  0  0  0  0
 12 13  1  0  0  0  0
 13 14  2  0  0  0  0
 15 16  1  0  0  0  0
 15 20  2  0  0  0  0
 16 17  2  0  0  0  0
 16 32  1  0  0  0  0
 17 18  1  0  0  0  0
 17 33  1  0  0  0  0
 18 19  2  0  0  0  0
 18 34  1  0  0  0  0
 19 20  1  0  0  0  0
 19 24  1  0  0  0  0
 20 21  1  0  0  0  0
 21 22  2  0  0  0  0
 21 35  1  0  0  0  0
 22 23  1  0  0  0  0
 22 36  1  0  0  0  0
 23 24  2  0  0  0  0
 23 37  1  0  0  0  0
 24 38  1  0  0  0  0
M  END
>  <DRUGBANK_ID>
DB12129

>  <COMMON_NAME>
Tideglusib

>  <CAS_NUMBER>
865854-05-3

>  <UNII>
Q747Y6TT42

>  <SYNONYMS>
4-BENZYL-2-(A-NAPHTYL)-1,2,4-THIADIAZOLIDINE-3,5-DIONE; 4-Benzyl-2-(naphthalen-1-yl)-1,2,4-thiadiazolidine-3,5-dione; Tideglusib

$$$$
