
 OpenBabel10282417203D

 60 65  0  0  1  0  0  0  0  0999 V2000
   -3.2483    0.0112   -3.7638 C   0  0  0  0  0  0  0  0  0  0  0  0
   -2.1473    1.0342   -3.6572 C   0  0  0  0  0  0  0  0  0  0  0  0
   -1.1998    0.5993   -2.6022 C   0  0  0  0  0  0  0  0  0  0  0  0
   -0.5969   -0.8351   -2.9138 N   0  3  1  0  0  0  0  0  0  0  0  0
    0.5206   -2.0876   -3.7770 C   0  0  1  0  0  0  0  0  0  0  0  0
   -0.3072   -3.0418   -4.1918 C   0  0  0  0  0  0  0  0  0  0  0  0
   -0.0541   -2.7432   -2.5536 C   0  0  1  0  0  0  0  0  0  0  0  0
   -0.4065   -3.2866   -1.2838 C   0  0  1  0  0  0  0  0  0  0  0  0
   -1.1884   -1.8381   -1.3513 C   0  0  1  0  0  0  0  0  0  0  0  0
   -0.9956   -1.1951   -0.1050 O   0  0  0  0  0  0  0  0  0  0  0  0
    0.0984   -4.6883   -1.8118 C   0  0  0  0  0  0  0  0  0  0  0  0
   -0.6653   -5.7915   -1.2049 C   0  0  0  0  0  0  0  0  0  0  0  0
    0.9009   -0.9443   -1.9246 C   0  0  1  0  0  0  0  0  0  0  0  0
    1.0336   -0.2359   -3.2014 C   0  0  2  0  0  0  0  0  0  0  0  0
    2.3495   -0.9985   -3.8079 C   0  0  0  0  0  0  0  0  0  0  0  0
    2.8135   -1.5649   -2.4992 C   0  0  2  0  0  0  0  0  0  0  0  0
    2.0818   -2.8303   -2.5855 C   0  0  1  0  0  0  0  0  0  0  0  0
    3.3075   -3.9181   -2.5822 N   0  0  0  0  0  0  0  0  0  0  0  0
    4.5103   -3.0666   -2.5449 C   0  0  0  0  0  0  0  0  0  0  0  0
    4.2108   -1.7448   -2.6850 C   0  0  0  0  0  0  0  0  0  0  0  0
    5.0332   -0.7696   -3.2203 C   0  0  0  0  0  0  0  0  0  0  0  0
    6.3095   -1.1373   -3.5187 C   0  0  0  0  0  0  0  0  0  0  0  0
    6.7396   -2.4086   -3.1315 C   0  0  0  0  0  0  0  0  0  0  0  0
    5.8529   -3.3741   -2.5974 C   0  0  0  0  0  0  0  0  0  0  0  0
    3.5883   -4.9400   -1.4334 C   0  0  0  0  0  0  0  0  0  0  0  0
    2.2576   -0.8570   -1.3102 C   0  0  2  0  0  0  0  0  0  0  0  0
    1.9258   -0.8554    0.0604 O   0  0  0  0  0  0  0  0  0  0  0  0
   -2.8430   -0.9711   -4.0243 H   0  0  0  0  0  0  0  0  0  0  0  0
   -3.9557    0.3121   -4.5319 H   0  0  0  0  0  0  0  0  0  0  0  0
   -3.7692   -0.0887   -2.8037 H   0  0  0  0  0  0  0  0  0  0  0  0
   -1.5970    1.1631   -4.5898 H   0  0  0  0  0  0  0  0  0  0  0  0
   -2.5575    2.0106   -3.3671 H   0  0  0  0  0  0  0  0  0  0  0  0
   -0.4286    1.3633   -2.4286 H   0  0  0  0  0  0  0  0  0  0  0  0
   -1.7121    0.5465   -1.6240 H   0  0  0  0  0  0  0  0  0  0  0  0
    0.4792   -1.3694   -4.6592 H   0  0  0  0  0  0  0  0  0  0  0  0
   -0.3904   -4.0288   -4.7060 H   0  0  0  0  0  0  0  0  0  0  0  0
    0.3646   -2.9331   -5.0890 H   0  0  0  0  0  0  0  0  0  0  0  0
   -1.1807   -2.8996   -2.8102 H   0  0  0  0  0  0  0  0  0  0  0  0
    0.2458   -3.1425   -0.4281 H   0  0  0  0  0  0  0  0  0  0  0  0
   -2.2665   -1.9559   -1.5150 H   0  0  0  0  0  0  0  0  0  0  0  0
   -0.0909   -0.8570   -0.0350 H   0  0  0  0  0  0  0  0  0  0  0  0
    0.3171   -4.9006   -2.8815 H   0  0  0  0  0  0  0  0  0  0  0  0
    1.1040   -4.8176   -1.3923 H   0  0  0  0  0  0  0  0  0  0  0  0
   -1.5854   -5.9034   -1.7698 H   0  0  0  0  0  0  0  0  0  0  0  0
   -0.0672   -6.7073   -1.2299 H   0  0  0  0  0  0  0  0  0  0  0  0
   -0.8428   -5.4997   -0.1724 H   0  0  0  0  0  0  0  0  0  0  0  0
    0.4232   -0.1514   -1.3759 H   0  0  0  0  0  0  0  0  0  0  0  0
    0.9871    0.8135   -3.4858 H   0  0  0  0  0  0  0  0  0  0  0  0
    2.8943   -0.8487   -4.7500 H   0  0  0  0  0  0  0  0  0  0  0  0
    2.2095   -1.9589   -4.4023 H   0  0  0  0  0  0  0  0  0  0  0  0
    1.7772   -2.9900   -1.5415 H   0  0  0  0  0  0  0  0  0  0  0  0
    4.6248    0.1915   -3.5241 H   0  0  0  0  0  0  0  0  0  0  0  0
    6.9465   -0.4401   -4.0486 H   0  0  0  0  0  0  0  0  0  0  0  0
    7.7741   -2.6714   -3.3238 H   0  0  0  0  0  0  0  0  0  0  0  0
    6.2590   -4.3398   -2.3297 H   0  0  0  0  0  0  0  0  0  0  0  0
    3.6019   -4.5986   -0.3724 H   0  0  0  0  0  0  0  0  0  0  0  0
    2.9302   -5.8133   -1.4918 H   0  0  0  0  0  0  0  0  0  0  0  0
    4.5887   -5.3966   -1.5565 H   0  0  0  0  0  0  0  0  0  0  0  0
    2.9746   -0.0286   -1.2669 H   0  0  0  0  0  0  0  0  0  0  0  0
    1.5008   -1.6005    0.5029 H   0  0  0  0  0  0  0  0  0  0  0  0
  1  2  1  0  0  0  0
  1 28  1  0  0  0  0
  1 29  1  0  0  0  0
  1 30  1  0  0  0  0
  2  3  1  0  0  0  0
  2 31  1  0  0  0  0
  2 32  1  0  0  0  0
  3 33  1  0  0  0  0
  3 34  1  0  0  0  0
  4  5  1  0  0  0  0
  4  9  1  0  0  0  0
  4 14  1  0  0  0  0
  4  3  1  1  0  0  0
  5  6  1  0  0  0  0
  5 17  1  0  0  0  0
  5 35  1  1  0  0  0
  6 36  1  0  0  0  0
  6 37  1  0  0  0  0
  7  6  1  0  0  0  0
  7  8  1  0  0  0  0
  7 13  1  0  0  0  0
  7 38  1  1  0  0  0
  8  9  1  0  0  0  0
  8 11  1  0  0  0  0
  8 39  1  1  0  0  0
  9 40  1  6  0  0  0
  9 10  1  0  0  0  0
 10 41  1  0  0  0  0
 11 12  1  0  0  0  0
 11 42  1  0  0  0  0
 11 43  1  0  0  0  0
 12 44  1  0  0  0  0
 12 45  1  0  0  0  0
 12 46  1  0  0  0  0
 13 14  1  0  0  0  0
 13 26  1  0  0  0  0
 13 47  1  6  0  0  0
 14 15  1  0  0  0  0
 14 48  1  6  0  0  0
 15 49  1  0  0  0  0
 15 50  1  0  0  0  0
 16 15  1  0  0  0  0
 16 17  1  0  0  0  0
 16 20  1  6  0  0  0
 16 26  1  0  0  0  0
 17 18  1  0  0  0  0
 17 51  1  6  0  0  0
 18 19  1  0  0  0  0
 18 25  1  0  0  0  0
 19 20  2  0  0  0  0
 19 24  1  0  0  0  0
 20 21  1  0  0  0  0
 21 22  2  0  0  0  0
 21 52  1  0  0  0  0
 22 23  1  0  0  0  0
 22 53  1  0  0  0  0
 23 24  2  0  0  0  0
 23 54  1  0  0  0  0
 24 55  1  0  0  0  0
 25 56  1  0  0  0  0
 25 57  1  0  0  0  0
 25 58  1  0  0  0  0
 26 59  1  6  0  0  0
 26 27  1  0  0  0  0
 27 60  1  0  0  0  0
M  CHG  1   4   1
M  END
>  <DRUGBANK_ID>
DB13555

>  <COMMON_NAME>
Prajmaline

>  <CAS_NUMBER>
35080-11-6

>  <UNII>
75934UD4GJ

>  <SYNONYMS>
Prajmalium

$$$$
