
 OpenBabel10282417233D

 61 65  0  0  0  0  0  0  0  0999 V2000
    0.9546    0.0306   -0.0895 C   0  0  0  0  0  0  0  0  0  0  0  0
    0.4378   -1.2875    0.0649 O   0  0  0  0  0  0  0  0  0  0  0  0
    0.7610   -2.1176   -0.9725 C   0  0  0  0  0  0  0  0  0  0  0  0
    2.0615   -2.2667   -1.4572 C   0  0  0  0  0  0  0  0  0  0  0  0
    2.3168   -3.1619   -2.4939 C   0  0  0  0  0  0  0  0  0  0  0  0
    1.2770   -3.9432   -3.0190 C   0  0  0  0  0  0  0  0  0  0  0  0
    1.5783   -5.0039   -4.0408 C   0  0  0  0  0  0  0  0  0  0  0  0
    1.1716   -6.3082   -3.6297 O   0  0  0  0  0  0  0  0  0  0  0  0
    1.9012   -6.9220   -2.6496 C   0  0  0  0  0  0  0  0  0  0  0  0
    2.1269   -6.3196   -1.4029 C   0  0  0  0  0  0  0  0  0  0  0  0
    2.6448   -7.0142   -0.3169 C   0  0  0  0  0  0  0  0  0  0  0  0
    2.9357   -8.3621   -0.4488 C   0  0  0  0  0  0  0  0  0  0  0  0
    3.5161   -9.1284    0.7108 C   0  0  0  0  0  0  0  0  0  0  0  0
    2.6307  -10.1448    1.2509 N   0  0  0  0  0  0  0  0  0  0  0  0
    2.0715  -10.1659    2.5106 C   0  0  0  0  0  0  0  0  0  0  0  0
    2.3112   -9.2439    3.4445 N   0  0  0  0  0  0  0  0  0  0  0  0
    1.2837  -11.2146    2.6675 N   0  0  0  0  0  0  0  0  0  0  0  0
    1.3579  -11.9115    1.4894 C   0  0  0  0  0  0  0  0  0  0  0  0
    2.2422  -11.2991    0.6138 C   0  0  0  0  0  0  0  0  0  0  0  0
    2.5980  -11.7337   -0.6087 N   0  0  0  0  0  0  0  0  0  0  0  0
    1.9141  -12.8284   -1.0108 C   0  0  0  0  0  0  0  0  0  0  0  0
    1.0062  -13.5447   -0.2359 C   0  0  0  0  0  0  0  0  0  0  0  0
    0.7245  -13.0885    1.0590 C   0  0  0  0  0  0  0  0  0  0  0  0
    0.3885  -14.7374   -0.7624 C   0  0  0  0  0  0  0  0  0  0  0  0
    1.0854  -15.8420   -1.2040 C   0  0  0  0  0  0  0  0  0  0  0  0
    0.1453  -16.7414   -1.6165 N   0  0  0  0  0  0  0  0  0  0  0  0
    0.3852  -18.0599   -2.1514 C   0  0  0  0  0  0  0  0  0  0  0  0
   -1.1173  -16.2915   -1.4890 N   0  0  0  0  0  0  0  0  0  0  0  0
   -0.9660  -15.0702   -0.9659 C   0  0  0  0  0  0  0  0  0  0  0  0
    2.7336   -8.9540   -1.7057 C   0  0  0  0  0  0  0  0  0  0  0  0
    2.2485   -8.2569   -2.8138 C   0  0  0  0  0  0  0  0  0  0  0  0
    2.1800   -9.0252   -3.9457 O   0  0  0  0  0  0  0  0  0  0  0  0
    1.9847   -8.3524   -5.1798 C   0  0  0  0  0  0  0  0  0  0  0  0
   -0.0105   -3.8439   -2.4696 C   0  0  0  0  0  0  0  0  0  0  0  0
   -0.2698   -2.9156   -1.4661 C   0  0  0  0  0  0  0  0  0  0  0  0
    0.5803    0.6296    0.7453 H   0  0  0  0  0  0  0  0  0  0  0  0
    0.5973    0.4827   -1.0211 H   0  0  0  0  0  0  0  0  0  0  0  0
    2.0474    0.0506   -0.0429 H   0  0  0  0  0  0  0  0  0  0  0  0
    2.8950   -1.7351   -1.0103 H   0  0  0  0  0  0  0  0  0  0  0  0
    3.3427   -3.3265   -2.8191 H   0  0  0  0  0  0  0  0  0  0  0  0
    0.9899   -4.7673   -4.9358 H   0  0  0  0  0  0  0  0  0  0  0  0
    2.6290   -5.0104   -4.3560 H   0  0  0  0  0  0  0  0  0  0  0  0
    1.8576   -5.2995   -1.1894 H   0  0  0  0  0  0  0  0  0  0  0  0
    2.7785   -6.4796    0.6209 H   0  0  0  0  0  0  0  0  0  0  0  0
    4.4617   -9.5967    0.4250 H   0  0  0  0  0  0  0  0  0  0  0  0
    3.7592   -8.4206    1.5109 H   0  0  0  0  0  0  0  0  0  0  0  0
    1.8496   -9.3319    4.3440 H   0  0  0  0  0  0  0  0  0  0  0  0
    2.8902   -8.4182    3.3406 H   0  0  0  0  0  0  0  0  0  0  0  0
    2.1148  -13.1217   -2.0407 H   0  0  0  0  0  0  0  0  0  0  0  0
    0.0450  -13.6123    1.7187 H   0  0  0  0  0  0  0  0  0  0  0  0
    2.1431  -16.0638   -1.2458 H   0  0  0  0  0  0  0  0  0  0  0  0
   -0.1070  -18.7913   -1.5056 H   0  0  0  0  0  0  0  0  0  0  0  0
   -0.0229  -18.1028   -3.1642 H   0  0  0  0  0  0  0  0  0  0  0  0
    1.4611  -18.2512   -2.1761 H   0  0  0  0  0  0  0  0  0  0  0  0
   -1.8441  -14.4692   -0.7667 H   0  0  0  0  0  0  0  0  0  0  0  0
    2.9531  -10.0005   -1.8616 H   0  0  0  0  0  0  0  0  0  0  0  0
    0.9515   -8.0054   -5.2617 H   0  0  0  0  0  0  0  0  0  0  0  0
    2.7045   -7.5376   -5.3179 H   0  0  0  0  0  0  0  0  0  0  0  0
    2.1463   -9.0689   -5.9904 H   0  0  0  0  0  0  0  0  0  0  0  0
   -0.7883   -4.5469   -2.7664 H   0  0  0  0  0  0  0  0  0  0  0  0
   -1.2720   -2.8292   -1.0564 H   0  0  0  0  0  0  0  0  0  0  0  0
  1  2  1  0  0  0  0
  1 36  1  0  0  0  0
  1 37  1  0  0  0  0
  1 38  1  0  0  0  0
  2  3  1  0  0  0  0
  3  4  2  0  0  0  0
  3 35  1  0  0  0  0
  4  5  1  0  0  0  0
  4 39  1  0  0  0  0
  5  6  2  0  0  0  0
  5 40  1  0  0  0  0
  6  7  1  0  0  0  0
  6 34  1  0  0  0  0
  7  8  1  0  0  0  0
  7 41  1  0  0  0  0
  7 42  1  0  0  0  0
  8  9  1  0  0  0  0
  9 10  2  0  0  0  0
  9 31  1  0  0  0  0
 10 11  1  0  0  0  0
 10 43  1  0  0  0  0
 11 12  2  0  0  0  0
 11 44  1  0  0  0  0
 12 13  1  0  0  0  0
 12 30  1  0  0  0  0
 13 14  1  0  0  0  0
 13 45  1  0  0  0  0
 13 46  1  0  0  0  0
 14 15  1  0  0  0  0
 14 19  1  0  0  0  0
 15 16  1  0  0  0  0
 15 17  2  0  0  0  0
 16 47  1  0  0  0  0
 16 48  1  0  0  0  0
 17 18  1  0  0  0  0
 18 19  2  0  0  0  0
 18 23  1  0  0  0  0
 19 20  1  0  0  0  0
 20 21  2  0  0  0  0
 21 22  1  0  0  0  0
 21 49  1  0  0  0  0
 22 23  2  0  0  0  0
 22 24  1  0  0  0  0
 23 50  1  0  0  0  0
 24 25  2  0  0  0  0
 24 29  1  0  0  0  0
 25 26  1  0  0  0  0
 25 51  1  0  0  0  0
 26 27  1  0  0  0  0
 26 28  1  0  0  0  0
 27 52  1  0  0  0  0
 27 53  1  0  0  0  0
 27 54  1  0  0  0  0
 28 29  2  0  0  0  0
 29 55  1  0  0  0  0
 30 31  2  0  0  0  0
 30 56  1  0  0  0  0
 31 32  1  0  0  0  0
 32 33  1  0  0  0  0
 33 57  1  0  0  0  0
 33 58  1  0  0  0  0
 33 59  1  0  0  0  0
 34 35  2  0  0  0  0
 34 60  1  0  0  0  0
 35 61  1  0  0  0  0
M  END
>  <DRUGBANK_ID>
DB16056

>  <COMMON_NAME>
GZ-389988

>  <CAS_NUMBER>
1788906-96-6

>  <UNII>
XX8E5WP7FS

$$$$
