BPS
 OpenBabel10282417163D

 25 26  0  0  0  0  0  0  0  0999 V2000
    1.3453   -0.2079   -0.0480 C   0  0  0  0  0  0  0  0  0  0  0  0
    0.4846   -1.3284   -0.0630 C   0  0  0  0  0  0  0  0  0  0  0  0
   -0.9131   -1.1096   -0.0269 C   0  0  0  0  0  0  0  0  0  0  0  0
   -1.3955    0.2152   -0.0191 C   0  0  0  0  0  0  0  0  0  0  0  0
   -0.5239    1.3042   -0.0006 C   0  0  0  0  0  0  0  0  0  0  0  0
    0.8472    1.0942   -0.0239 C   0  0  0  0  0  0  0  0  0  0  0  0
    1.0904   -2.6636   -0.0924 C   0  0  0  0  0  0  0  0  0  0  0  0
    1.8778   -3.1151    0.9779 C   0  0  0  0  0  0  0  0  0  0  0  0
    2.3051   -4.4413    1.0307 C   0  0  0  0  0  0  0  0  0  0  0  0
    1.9337   -5.3309    0.0244 C   0  0  0  0  0  0  0  0  0  0  0  0
    1.1829   -4.8854   -1.0605 C   0  0  0  0  0  0  0  0  0  0  0  0
    0.8167   -3.5444   -1.1491 C   0  0  0  0  0  0  0  0  0  0  0  0
   -2.2062   -2.3944    0.1803 S   0  0  1  0  0  0  0  0  0  0  0  0
   -2.7332   -2.2531   -1.3277 O   0  0  0  0  0  0  0  0  0  0  0  0
   -1.5732   -3.7466    0.2932 O   0  0  0  0  0  0  0  0  0  0  0  0
    2.4254   -0.3536   -0.0398 H   0  0  0  0  0  0  0  0  0  0  0  0
   -2.4643    0.4084    0.0057 H   0  0  0  0  0  0  0  0  0  0  0  0
   -0.9184    2.3150    0.0587 H   0  0  0  0  0  0  0  0  0  0  0  0
    1.5326    1.9379   -0.0188 H   0  0  0  0  0  0  0  0  0  0  0  0
    2.1141   -2.4477    1.8034 H   0  0  0  0  0  0  0  0  0  0  0  0
    2.8785   -4.7907    1.8839 H   0  0  0  0  0  0  0  0  0  0  0  0
    2.2037   -6.3796    0.0978 H   0  0  0  0  0  0  0  0  0  0  0  0
    0.8190   -5.5870   -1.8053 H   0  0  0  0  0  0  0  0  0  0  0  0
    0.2074   -3.2151   -1.9886 H   0  0  0  0  0  0  0  0  0  0  0  0
   -3.5046   -1.6458   -1.3373 H   0  0  0  0  0  0  0  0  0  0  0  0
  1  2  2  0  0  0  0
  1  6  1  0  0  0  0
  1 16  1  0  0  0  0
  2  3  1  0  0  0  0
  2  7  1  0  0  0  0
  3  4  2  0  0  0  0
  3 13  1  0  0  0  0
  4  5  1  0  0  0  0
  4 17  1  0  0  0  0
  5  6  2  0  0  0  0
  5 18  1  0  0  0  0
  6 19  1  0  0  0  0
  7  8  1  0  0  0  0
  7 12  2  0  0  0  0
  8  9  2  0  0  0  0
  8 20  1  0  0  0  0
  9 10  1  0  0  0  0
  9 21  1  0  0  0  0
 10 11  2  0  0  0  0
 10 22  1  0  0  0  0
 11 12  1  0  0  0  0
 11 23  1  0  0  0  0
 12 24  1  0  0  0  0
 13 14  1  0  0  0  0
 13 15  2  6  0  0  0
 14 25  1  0  0  0  0
M  END
>  <DRUGBANK_ID>
DB07483

>  <COMMON_NAME>
1,1'-BIPHENYL-2-SULFINIC ACID

$$$$
