
 OpenBabel10282417203D

 65 69  0  0  1  0  0  0  0  0999 V2000
    2.5116   -0.2919    0.1799 C   0  0  0  0  0  0  0  0  0  0  0  0
    1.1051   -0.0265   -0.3503 C   0  0  1  0  0  0  0  0  0  0  0  0
    0.1922   -1.1969    0.1300 C   0  0  0  0  0  0  0  0  0  0  0  0
   -1.1835   -1.0156   -0.2473 O   0  0  0  0  0  0  0  0  0  0  0  0
   -1.6963    0.1944    0.3293 C   0  0  0  0  0  0  0  0  0  0  0  0
   -0.8989    1.4223   -0.1647 C   0  0  0  0  0  0  0  0  0  0  0  0
    0.5301    1.2331    0.1591 N   0  0  0  0  0  0  0  0  0  0  0  0
    1.3145    2.3325    0.5278 C   0  0  0  0  0  0  0  0  0  0  0  0
    1.1204    2.8782    1.7996 C   0  0  0  0  0  0  0  0  0  0  0  0
    0.2022    2.3603    2.7236 C   0  0  0  0  0  0  0  0  0  0  0  0
    0.1803    2.8182    4.0149 C   0  0  0  0  0  0  0  0  0  0  0  0
    0.9304    3.9410    4.3074 C   0  0  0  0  0  0  0  0  0  0  0  0
    1.8046    4.4822    3.4203 N   0  0  0  0  0  0  0  0  0  0  0  0
    1.9703    3.9090    2.2068 C   0  0  0  0  0  0  0  0  0  0  0  0
    2.9673    4.3053    1.4248 N   0  0  0  0  0  0  0  0  0  0  0  0
    3.1399    3.7331    0.2231 C   0  0  0  0  0  0  0  0  0  0  0  0
    2.3303    2.7576   -0.2486 N   0  0  0  0  0  0  0  0  0  0  0  0
    4.1030    4.3015   -0.5806 N   0  0  0  0  0  0  0  0  0  0  0  0
    5.5231    4.1457   -0.2345 C   0  0  0  0  0  0  0  0  0  0  0  0
    6.2911    5.4233   -0.6317 C   0  0  0  0  0  0  0  0  0  0  0  0
    6.1075    5.7246   -2.0267 O   0  0  0  0  0  0  0  0  0  0  0  0
    4.7126    5.9404   -2.2958 C   0  0  0  0  0  0  0  0  0  0  0  0
    3.8489    4.6840   -1.9773 C   0  0  2  0  0  0  0  0  0  0  0  0
    2.3889    5.0518   -2.2266 C   0  0  0  0  0  0  0  0  0  0  0  0
    0.6959    4.5856    5.6048 C   0  0  0  0  0  0  0  0  0  0  0  0
   -0.1148    5.7151    5.7168 C   0  0  0  0  0  0  0  0  0  0  0  0
   -0.6340    6.0892    6.9653 C   0  0  0  0  0  0  0  0  0  0  0  0
   -0.2001    5.4855    8.1611 C   0  0  0  0  0  0  0  0  0  0  0  0
    0.7130    4.4237    8.0750 C   0  0  0  0  0  0  0  0  0  0  0  0
    1.0739    3.9460    6.7921 C   0  0  0  0  0  0  0  0  0  0  0  0
    1.3816    3.7201    9.2243 C   0  0  0  0  0  0  0  0  0  0  0  0
    2.3392    4.5547    9.8626 O   0  0  0  0  0  0  0  0  0  0  0  0
   -0.7716    6.0555    9.2683 O   0  0  0  0  0  0  0  0  0  0  0  0
   -0.3021    5.7203   10.5657 C   0  0  0  0  0  0  0  0  0  0  0  0
    3.2319    0.4314   -0.2093 H   0  0  0  0  0  0  0  0  0  0  0  0
    2.5324   -0.2355    1.2747 H   0  0  0  0  0  0  0  0  0  0  0  0
    2.8623   -1.2846   -0.1168 H   0  0  0  0  0  0  0  0  0  0  0  0
    1.1026   -0.0054   -1.4470 H   0  0  0  0  0  0  0  0  0  0  0  0
    0.5252   -2.1453   -0.3045 H   0  0  0  0  0  0  0  0  0  0  0  0
    0.2378   -1.3077    1.2227 H   0  0  0  0  0  0  0  0  0  0  0  0
   -2.7513    0.2810    0.0508 H   0  0  0  0  0  0  0  0  0  0  0  0
   -1.6623    0.0970    1.4214 H   0  0  0  0  0  0  0  0  0  0  0  0
   -1.0156    1.5062   -1.2517 H   0  0  0  0  0  0  0  0  0  0  0  0
   -1.3175    2.3282    0.2880 H   0  0  0  0  0  0  0  0  0  0  0  0
   -0.4739    1.5575    2.4633 H   0  0  0  0  0  0  0  0  0  0  0  0
   -0.4371    2.3297    4.7599 H   0  0  0  0  0  0  0  0  0  0  0  0
    5.9427    3.3057   -0.8063 H   0  0  0  0  0  0  0  0  0  0  0  0
    5.6841    3.9422    0.8292 H   0  0  0  0  0  0  0  0  0  0  0  0
    7.3667    5.2970   -0.4668 H   0  0  0  0  0  0  0  0  0  0  0  0
    5.9632    6.2834   -0.0353 H   0  0  0  0  0  0  0  0  0  0  0  0
    4.6210    6.2096   -3.3536 H   0  0  0  0  0  0  0  0  0  0  0  0
    4.3786    6.8077   -1.7100 H   0  0  0  0  0  0  0  0  0  0  0  0
    4.1600    3.8674   -2.6417 H   0  0  0  0  0  0  0  0  0  0  0  0
    2.2464    5.4419   -3.2376 H   0  0  0  0  0  0  0  0  0  0  0  0
    1.7314    4.1853   -2.1260 H   0  0  0  0  0  0  0  0  0  0  0  0
    2.0566    5.8133   -1.5114 H   0  0  0  0  0  0  0  0  0  0  0  0
   -0.3995    6.2725    4.8266 H   0  0  0  0  0  0  0  0  0  0  0  0
   -1.3992    6.8650    7.0000 H   0  0  0  0  0  0  0  0  0  0  0  0
    1.6570    3.0274    6.7169 H   0  0  0  0  0  0  0  0  0  0  0  0
    0.6580    3.3273    9.9399 H   0  0  0  0  0  0  0  0  0  0  0  0
    1.9405    2.8480    8.8745 H   0  0  0  0  0  0  0  0  0  0  0  0
    2.5858    5.2582    9.2348 H   0  0  0  0  0  0  0  0  0  0  0  0
   -0.5293    4.6805   10.8089 H   0  0  0  0  0  0  0  0  0  0  0  0
    0.7535    5.9694   10.6800 H   0  0  0  0  0  0  0  0  0  0  0  0
   -0.8303    6.3255   11.3079 H   0  0  0  0  0  0  0  0  0  0  0  0
  1 35  1  0  0  0  0
  1 36  1  0  0  0  0
  1 37  1  0  0  0  0
  2  1  1  0  0  0  0
  2  3  1  0  0  0  0
  2  7  1  0  0  0  0
  2 38  1  6  0  0  0
  3  4  1  0  0  0  0
  3 39  1  0  0  0  0
  3 40  1  0  0  0  0
  4  5  1  0  0  0  0
  5  6  1  0  0  0  0
  5 41  1  0  0  0  0
  5 42  1  0  0  0  0
  6  7  1  0  0  0  0
  6 43  1  0  0  0  0
  6 44  1  0  0  0  0
  7  8  1  0  0  0  0
  8  9  1  0  0  0  0
  8 17  2  0  0  0  0
  9 10  2  0  0  0  0
  9 14  1  0  0  0  0
 10 11  1  0  0  0  0
 10 45  1  0  0  0  0
 11 12  2  0  0  0  0
 11 46  1  0  0  0  0
 12 13  1  0  0  0  0
 12 25  1  0  0  0  0
 13 14  2  0  0  0  0
 14 15  1  0  0  0  0
 15 16  2  0  0  0  0
 16 17  1  0  0  0  0
 16 18  1  0  0  0  0
 18 19  1  0  0  0  0
 18 23  1  0  0  0  0
 19 20  1  0  0  0  0
 19 47  1  0  0  0  0
 19 48  1  0  0  0  0
 20 21  1  0  0  0  0
 20 49  1  0  0  0  0
 20 50  1  0  0  0  0
 21 22  1  0  0  0  0
 22 23  1  0  0  0  0
 22 51  1  0  0  0  0
 22 52  1  0  0  0  0
 23 24  1  0  0  0  0
 23 53  1  6  0  0  0
 24 54  1  0  0  0  0
 24 55  1  0  0  0  0
 24 56  1  0  0  0  0
 25 26  2  0  0  0  0
 25 30  1  0  0  0  0
 26 27  1  0  0  0  0
 26 57  1  0  0  0  0
 27 28  2  0  0  0  0
 27 58  1  0  0  0  0
 28 29  1  0  0  0  0
 28 33  1  0  0  0  0
 29 30  2  0  0  0  0
 29 31  1  0  0  0  0
 30 59  1  0  0  0  0
 31 32  1  0  0  0  0
 31 60  1  0  0  0  0
 31 61  1  0  0  0  0
 32 62  1  0  0  0  0
 33 34  1  0  0  0  0
 34 63  1  0  0  0  0
 34 64  1  0  0  0  0
 34 65  1  0  0  0  0
M  END
>  <DRUGBANK_ID>
DB12774

>  <COMMON_NAME>
AZD-8055

>  <CAS_NUMBER>
1009298-09-2

>  <UNII>
970JJ37FPW

$$$$
