
 OpenBabel10282417203D

 33 33  0  0  0  0  0  0  0  0999 V2000
    1.1003    0.2593   -0.1135 C   0  0  0  0  0  0  0  0  0  0  0  0
    0.5925    0.0954    1.2372 N   0  0  0  0  0  0  0  0  0  0  0  0
   -0.8589   -0.1609    1.2796 C   0  0  0  0  0  0  0  0  0  0  0  0
   -1.4315   -1.3361    0.4298 C   0  0  3  0  0  0  0  0  0  0  0  0
   -1.0037   -2.7356    0.8491 C   0  0  0  0  0  0  0  0  0  0  0  0
   -1.6141   -3.8533    0.2726 C   0  0  0  0  0  0  0  0  0  0  0  0
   -1.2398   -5.1566    0.6392 C   0  0  0  0  0  0  0  0  0  0  0  0
   -0.1741   -5.3659    1.5441 C   0  0  0  0  0  0  0  0  0  0  0  0
    0.4808   -4.2689    2.0997 C   0  0  0  0  0  0  0  0  0  0  0  0
    0.0122   -2.9887    1.7827 C   0  0  0  0  0  0  0  0  0  0  0  0
    1.5551   -4.2031    2.9446 O   0  0  0  0  0  0  0  0  0  0  0  0
    2.1549   -5.3901    3.4154 C   0  0  0  0  0  0  0  0  0  0  0  0
    0.1432   -6.6577    1.8245 O   0  0  0  0  0  0  0  0  0  0  0  0
   -2.0107   -6.1304    0.0453 O   0  0  0  0  0  0  0  0  0  0  0  0
   -1.7367   -7.4796    0.4076 C   0  0  0  0  0  0  0  0  0  0  0  0
   -2.8629   -1.2402    0.4501 O   0  0  0  0  0  0  0  0  0  0  0  0
    0.7416    1.1970   -0.5399 H   0  0  0  0  0  0  0  0  0  0  0  0
    0.8402   -0.5747   -0.7708 H   0  0  0  0  0  0  0  0  0  0  0  0
    2.1932    0.2876   -0.0752 H   0  0  0  0  0  0  0  0  0  0  0  0
    1.1138   -0.6670    1.6569 H   0  0  0  0  0  0  0  0  0  0  0  0
   -1.1508   -0.3277    2.3270 H   0  0  0  0  0  0  0  0  0  0  0  0
   -1.3759    0.7666    1.0025 H   0  0  0  0  0  0  0  0  0  0  0  0
   -1.1547   -1.1865   -0.6199 H   0  0  0  0  0  0  0  0  0  0  0  0
   -2.4158   -3.7150   -0.4536 H   0  0  0  0  0  0  0  0  0  0  0  0
    0.4796   -2.1905    2.3422 H   0  0  0  0  0  0  0  0  0  0  0  0
    1.4431   -5.9318    4.0470 H   0  0  0  0  0  0  0  0  0  0  0  0
    2.5351   -5.9914    2.5818 H   0  0  0  0  0  0  0  0  0  0  0  0
    3.0093   -5.1415    4.0471 H   0  0  0  0  0  0  0  0  0  0  0  0
    0.7795   -6.7717    2.5355 H   0  0  0  0  0  0  0  0  0  0  0  0
   -0.7300   -7.7690    0.0827 H   0  0  0  0  0  0  0  0  0  0  0  0
   -1.8947   -7.6408    1.4821 H   0  0  0  0  0  0  0  0  0  0  0  0
   -2.4325   -8.1371   -0.1140 H   0  0  0  0  0  0  0  0  0  0  0  0
   -3.1615   -1.5644    1.3155 H   0  0  0  0  0  0  0  0  0  0  0  0
  1  2  1  0  0  0  0
  1 17  1  0  0  0  0
  1 18  1  0  0  0  0
  1 19  1  0  0  0  0
  2  3  1  0  0  0  0
  2 20  1  0  0  0  0
  3  4  1  0  0  0  0
  3 21  1  0  0  0  0
  3 22  1  0  0  0  0
  4  5  1  0  0  0  0
  4 16  1  0  0  0  0
  4 23  1  0  0  0  0
  5  6  2  0  0  0  0
  5 10  1  0  0  0  0
  6  7  1  0  0  0  0
  6 24  1  0  0  0  0
  7  8  2  0  0  0  0
  7 14  1  0  0  0  0
  8  9  1  0  0  0  0
  8 13  1  0  0  0  0
  9 10  2  0  0  0  0
  9 11  1  0  0  0  0
 10 25  1  0  0  0  0
 11 12  1  0  0  0  0
 12 26  1  0  0  0  0
 12 27  1  0  0  0  0
 12 28  1  0  0  0  0
 13 29  1  0  0  0  0
 14 15  1  0  0  0  0
 15 30  1  0  0  0  0
 15 31  1  0  0  0  0
 15 32  1  0  0  0  0
 16 33  1  0  0  0  0
M  END
>  <DRUGBANK_ID>
DB13494

>  <COMMON_NAME>
Dimetofrine

>  <CAS_NUMBER>
22950-29-4

>  <UNII>
BOM1J10QQM

>  <SYNONYMS>
Dimetofrine

$$$$
