1218
 OpenBabel10282417113D

 63 65  0  0  1  0  0  0  0  0999 V2000
    1.2335   -0.2342   -0.0937 Cl  0  0  0  0  0  0  0  0  0  0  0  0
    5.7732   -2.9782    0.0275 Cl  0  0  0  0  0  0  0  0  0  0  0  0
    9.6920    3.0721    1.0586 F   0  0  0  0  0  0  0  0  0  0  0  0
    9.9591    3.0862   -1.1048 F   0  0  0  0  0  0  0  0  0  0  0  0
    9.8298    4.9652   -0.0113 F   0  0  0  0  0  0  0  0  0  0  0  0
    1.6800    5.0578   -1.6511 O   0  0  0  0  0  0  0  0  0  0  0  0
    3.5564    6.2325    2.7196 N   0  0  0  0  0  0  0  0  0  0  0  0
    2.3880    5.3643    2.5681 C   0  0  0  0  0  0  0  0  0  0  0  0
    1.7208    5.4114    0.9677 C   0  0  0  0  0  0  0  0  0  0  0  0
    2.6865    4.9835   -0.6462 C   0  0  3  0  0  0  0  0  0  0  0  0
    4.4830    5.9623    3.8742 C   0  0  0  0  0  0  0  0  0  0  0  0
    4.2649    6.0755    1.4816 C   0  0  0  0  0  0  0  0  0  0  0  0
    3.7460    3.5428   -1.2430 C   0  0  0  0  0  0  0  0  0  0  0  0
    5.4876    4.7043    4.0462 C   0  0  0  0  0  0  0  0  0  0  0  0
    4.5094    4.5441    1.3177 C   0  0  0  0  0  0  0  0  0  0  0  0
    5.1389    3.5869   -1.1378 C   0  0  0  0  0  0  0  0  0  0  0  0
    5.8516    2.3139   -0.7232 C   0  0  0  0  0  0  0  0  0  0  0  0
    3.1734    2.1094   -1.2911 C   0  0  0  0  0  0  0  0  0  0  0  0
    5.1107    0.9949   -0.5147 C   0  0  0  0  0  0  0  0  0  0  0  0
    3.7909    0.9195   -0.6926 C   0  0  0  0  0  0  0  0  0  0  0  0
    6.7536    4.5499    3.0786 C   0  0  0  0  0  0  0  0  0  0  0  0
    3.8157    3.0740    1.5286 C   0  0  0  0  0  0  0  0  0  0  0  0
    5.8835    4.8233   -1.1246 C   0  0  0  0  0  0  0  0  0  0  0  0
    7.1617    2.4471   -0.3562 C   0  0  0  0  0  0  0  0  0  0  0  0
    7.8513    3.6826   -0.3394 C   0  0  0  0  0  0  0  0  0  0  0  0
    5.7251   -0.2716   -0.1072 C   0  0  0  0  0  0  0  0  0  0  0  0
    7.1865    4.8735   -0.6711 C   0  0  0  0  0  0  0  0  0  0  0  0
    2.9667   -0.2395   -0.2578 C   0  0  0  0  0  0  0  0  0  0  0  0
    7.4865    5.8359    2.7877 C   0  0  0  0  0  0  0  0  0  0  0  0
    2.4326    2.8342    0.9210 C   0  0  0  0  0  0  0  0  0  0  0  0
    4.9458   -1.4634    0.0187 C   0  0  0  0  0  0  0  0  0  0  0  0
    3.5850   -1.4607    0.0011 C   0  0  0  0  0  0  0  0  0  0  0  0
    9.3169    3.7091   -0.0815 C   0  0  0  0  0  0  0  0  0  0  0  0
    2.1682    4.8157   -2.4541 H   0  0  0  0  0  0  0  0  0  0  0  0
    1.6336    5.4804    3.3538 H   0  0  0  0  0  0  0  0  0  0  0  0
    2.6684    4.3561    2.8727 H   0  0  0  0  0  0  0  0  0  0  0  0
    1.1315    6.3261    0.8922 H   0  0  0  0  0  0  0  0  0  0  0  0
    0.8879    4.6860    1.0796 H   0  0  0  0  0  0  0  0  0  0  0  0
    3.2929    5.8690   -0.8586 H   0  0  0  0  0  0  0  0  0  0  0  0
    5.1185    6.8522    3.9130 H   0  0  0  0  0  0  0  0  0  0  0  0
    3.8530    5.9942    4.7646 H   0  0  0  0  0  0  0  0  0  0  0  0
    3.7486    6.6281    0.6990 H   0  0  0  0  0  0  0  0  0  0  0  0
    5.1902    6.6659    1.4772 H   0  0  0  0  0  0  0  0  0  0  0  0
    5.8599    4.6813    5.0686 H   0  0  0  0  0  0  0  0  0  0  0  0
    4.8746    3.7871    3.9899 H   0  0  0  0  0  0  0  0  0  0  0  0
    5.4375    4.4547    0.8348 H   0  0  0  0  0  0  0  0  0  0  0  0
    4.8687    4.4148    2.2636 H   0  0  0  0  0  0  0  0  0  0  0  0
    2.1081    1.9253   -1.3428 H   0  0  0  0  0  0  0  0  0  0  0  0
    7.2026    3.5472    3.1704 H   0  0  0  0  0  0  0  0  0  0  0  0
    6.5814    4.3481    2.0406 H   0  0  0  0  0  0  0  0  0  0  0  0
    4.6279    2.3812    1.3439 H   0  0  0  0  0  0  0  0  0  0  0  0
    3.6867    2.8381    2.5797 H   0  0  0  0  0  0  0  0  0  0  0  0
    5.3577    5.7878   -1.1180 H   0  0  0  0  0  0  0  0  0  0  0  0
    7.7355    1.5754    0.0107 H   0  0  0  0  0  0  0  0  0  0  0  0
    6.7846   -0.3561   -0.0185 H   0  0  0  0  0  0  0  0  0  0  0  0
    7.6457    5.8366   -0.4172 H   0  0  0  0  0  0  0  0  0  0  0  0
    8.1681    6.1051    3.5774 H   0  0  0  0  0  0  0  0  0  0  0  0
    8.0268    5.7760    1.8347 H   0  0  0  0  0  0  0  0  0  0  0  0
    6.7829    6.6526    2.6100 H   0  0  0  0  0  0  0  0  0  0  0  0
    2.1201    3.1150   -0.0668 H   0  0  0  0  0  0  0  0  0  0  0  0
    1.3748    2.8078    1.1762 H   0  0  0  0  0  0  0  0  0  0  0  0
    2.5156    3.8298    1.0995 H   0  0  0  0  0  0  0  0  0  0  0  0
    2.9771   -2.3720    0.0570 H   0  0  0  0  0  0  0  0  0  0  0  0
  1 28  1  0  0  0  0
  2 31  1  0  0  0  0
  3 33  1  0  0  0  0
  4 33  1  0  0  0  0
  5 33  1  0  0  0  0
  6 10  1  0  0  0  0
  6 34  1  0  0  0  0
  7  8  1  0  0  0  0
  7 11  1  0  0  0  0
  7 12  1  0  0  0  0
  8  9  1  0  0  0  0
  8 35  1  0  0  0  0
  8 36  1  0  0  0  0
  9 10  1  0  0  0  0
  9 37  1  0  0  0  0
  9 38  1  0  0  0  0
 10 13  1  0  0  0  0
 10 39  1  0  0  0  0
 11 14  1  0  0  0  0
 11 40  1  0  0  0  0
 11 41  1  0  0  0  0
 12 15  1  0  0  0  0
 12 42  1  0  0  0  0
 12 43  1  0  0  0  0
 13 16  2  0  0  0  0
 13 18  1  0  0  0  0
 14 21  1  0  0  0  0
 14 44  1  0  0  0  0
 14 45  1  0  0  0  0
 15 22  1  0  0  0  0
 15 46  1  0  0  0  0
 15 47  1  0  0  0  0
 16 17  1  0  0  0  0
 16 23  1  0  0  0  0
 17 19  2  0  0  0  0
 17 24  1  0  0  0  0
 18 20  2  0  0  0  0
 18 48  1  0  0  0  0
 19 20  1  0  0  0  0
 19 26  1  0  0  0  0
 20 28  1  0  0  0  0
 21 29  1  0  0  0  0
 21 49  1  0  0  0  0
 21 50  1  0  0  0  0
 22 30  1  0  0  0  0
 22 51  1  0  0  0  0
 22 52  1  0  0  0  0
 23 27  2  0  0  0  0
 23 53  1  0  0  0  0
 24 25  2  0  0  0  0
 24 54  1  0  0  0  0
 25 27  1  0  0  0  0
 25 33  1  0  0  0  0
 26 31  2  0  0  0  0
 26 55  1  0  0  0  0
 27 56  1  0  0  0  0
 28 32  2  0  0  0  0
 29 57  1  0  0  0  0
 29 58  1  0  0  0  0
 29 59  1  0  0  0  0
 30 60  1  0  0  0  0
 30 61  1  0  0  0  0
 30 62  1  0  0  0  0
 31 32  1  0  0  0  0
 32 63  1  0  0  0  0
M  END
>  <DRUGBANK_ID>
DB01218

>  <SECONDARY_ACCESSION_NUMBERS>
APRD00419

>  <COMMON_NAME>
Halofantrine

>  <CAS_NUMBER>
69756-53-2

>  <UNII>
Q2OS4303HZ

>  <SYNONYMS>
Halofantrina; Halofantrine; Halofantrinum

$$$$
