
 OpenBabel10282417133D

 20 20  0  0  1  0  0  0  0  0999 V2000
   -2.6238   -0.5051    0.5090 O   0  0  0  0  0  0  0  0  0  0  0  0
   -1.4180   -0.4410   -0.2512 C   0  0  2  0  0  0  0  0  0  0  0  0
   -0.6228   -1.7335   -0.0582 C   0  0  0  0  0  0  0  0  0  0  0  0
    0.6402   -1.6954   -0.7121 O   0  0  0  0  0  0  0  0  0  0  0  0
    1.4698   -0.6251   -0.2731 C   0  0  2  0  0  0  0  0  0  0  0  0
    1.8914   -0.8248    1.0719 O   0  0  0  0  0  0  0  0  0  0  0  0
    0.7968    0.7449   -0.4869 C   0  0  2  0  0  0  0  0  0  0  0  0
    1.6247    1.8122   -0.0142 O   0  0  0  0  0  0  0  0  0  0  0  0
   -0.5839    0.7760    0.1876 C   0  0  1  0  0  0  0  0  0  0  0  0
   -1.2709    1.9972   -0.1255 O   0  0  0  0  0  0  0  0  0  0  0  0
   -3.1915   -1.1926    0.1160 H   0  0  0  0  0  0  0  0  0  0  0  0
   -1.6918   -0.3171   -1.3062 H   0  0  0  0  0  0  0  0  0  0  0  0
   -0.4889   -1.9593    1.0069 H   0  0  0  0  0  0  0  0  0  0  0  0
   -1.1906   -2.5770   -0.4666 H   0  0  0  0  0  0  0  0  0  0  0  0
    2.3842   -0.6587   -0.8748 H   0  0  0  0  0  0  0  0  0  0  0  0
    1.1408   -0.6706    1.6654 H   0  0  0  0  0  0  0  0  0  0  0  0
    0.6570    0.9118   -1.5621 H   0  0  0  0  0  0  0  0  0  0  0  0
    1.8554    1.6214    0.9131 H   0  0  0  0  0  0  0  0  0  0  0  0
   -0.4758    0.7859    1.2785 H   0  0  0  0  0  0  0  0  0  0  0  0
   -1.3198    2.0877   -1.0920 H   0  0  0  0  0  0  0  0  0  0  0  0
  1 11  1  0  0  0  0
  2  1  1  0  0  0  0
  2  3  1  0  0  0  0
  2  9  1  0  0  0  0
  2 12  1  6  0  0  0
  3  4  1  0  0  0  0
  3 13  1  0  0  0  0
  3 14  1  0  0  0  0
  4  5  1  0  0  0  0
  5  6  1  0  0  0  0
  5  7  1  0  0  0  0
  5 15  1  6  0  0  0
  6 16  1  0  0  0  0
  7  8  1  0  0  0  0
  7  9  1  0  0  0  0
  7 17  1  6  0  0  0
  8 18  1  0  0  0  0
  9 10  1  0  0  0  0
  9 19  1  1  0  0  0
 10 20  1  0  0  0  0
M  END
>  <DRUGBANK_ID>
DB03389

>  <SECONDARY_ACCESSION_NUMBERS>
EXPT03270

>  <COMMON_NAME>
alpha-D-Xylopyranose

>  <UNII>
C791ZE5K1W

$$$$
