X99
 OpenBabel10282417173D

 50 53  0  0  0  0  0  0  0  0999 V2000
    0.9823    0.2067   -0.0808 C   0  0  0  0  0  0  0  0  0  0  0  0
    2.2148    0.1736   -0.1387 O   0  0  0  0  0  0  0  0  0  0  0  0
    0.2431   -1.0548    0.5299 C   0  0  0  0  0  0  0  0  0  0  0  0
   -0.5064   -0.9526    1.8773 C   0  0  0  0  0  0  0  0  0  0  0  0
   -1.5456    0.0253    2.0374 N   0  0  0  0  0  0  0  0  0  0  0  0
   -1.0111    1.8208    2.0070 C   0  0  0  0  0  0  0  0  0  0  0  0
   -3.2315   -0.2560    1.3318 C   0  0  0  0  0  0  0  0  0  0  0  0
    0.0867    2.2130    2.3768 O   0  0  0  0  0  0  0  0  0  0  0  0
   -3.7025   -1.3051    0.8947 O   0  0  0  0  0  0  0  0  0  0  0  0
   -2.5299    2.7589    1.0100 C   0  0  0  0  0  0  0  0  0  0  0  0
   -2.7615    4.0643    0.6718 C   0  0  0  0  0  0  0  0  0  0  0  0
   -4.0068    4.2219   -0.0122 C   0  0  0  0  0  0  0  0  0  0  0  0
   -4.9478    3.1426   -0.4676 C   0  0  0  0  0  0  0  0  0  0  0  0
   -4.8313    1.7521   -0.2339 C   0  0  0  0  0  0  0  0  0  0  0  0
   -3.7849    1.4844    0.5902 C   0  0  0  0  0  0  0  0  0  0  0  0
    0.2496    1.2112   -0.7362 N   0  0  0  0  0  0  0  0  0  0  0  0
    0.6353    2.0467   -1.8752 C   0  0  0  0  0  0  0  0  0  0  0  0
   -0.8399    1.9566   -0.1951 C   0  0  1  0  0  0  0  0  0  0  0  0
   -1.6740    2.3368   -1.4014 C   0  0  0  0  0  0  0  0  0  0  0  0
   -0.6413    2.8190   -2.2967 C   0  0  0  0  0  0  0  0  0  0  0  0
   -1.8909    0.9952    0.5377 C   0  0  0  0  0  0  0  0  0  0  0  0
   -1.9439   -0.0302   -0.2312 O   0  0  0  0  0  0  0  0  0  0  0  0
   -0.5558    4.1578   -2.0841 F   0  0  0  0  0  0  0  0  0  0  0  0
   -1.1158    2.5945   -3.5285 F   0  0  0  0  0  0  0  0  0  0  0  0
   -2.7738    1.3831    2.3143 N   0  0  0  0  0  0  0  0  0  0  0  0
   -3.7154    2.6339    2.8109 C   0  0  0  0  0  0  0  0  0  0  0  0
   -2.1149    1.1810    3.9270 C   0  0  0  0  0  0  0  0  0  0  0  0
   -3.3705    1.2705    4.7411 C   0  0  0  0  0  0  0  0  0  0  0  0
   -4.1739    2.4107    4.1863 C   0  0  0  0  0  0  0  0  0  0  0  0
   -0.4188    2.8625    0.2801 H   0  0  0  0  0  0  0  0  0  0  0  0
   -0.3431   -1.5292   -0.2751 H   0  0  0  0  0  0  0  0  0  0  0  0
    0.9983   -1.8380    0.7120 H   0  0  0  0  0  0  0  0  0  0  0  0
   -1.0165   -1.8952    2.0951 H   0  0  0  0  0  0  0  0  0  0  0  0
    0.2119   -0.6461    2.6324 H   0  0  0  0  0  0  0  0  0  0  0  0
   -2.0518    4.8273    0.9308 H   0  0  0  0  0  0  0  0  0  0  0  0
   -4.2920    5.2433   -0.2713 H   0  0  0  0  0  0  0  0  0  0  0  0
   -5.8370    3.4706   -1.0167 H   0  0  0  0  0  0  0  0  0  0  0  0
   -5.4840    0.9873   -0.6333 H   0  0  0  0  0  0  0  0  0  0  0  0
    1.3824    2.7734   -1.5401 H   0  0  0  0  0  0  0  0  0  0  0  0
    0.9371    1.3923   -2.6746 H   0  0  0  0  0  0  0  0  0  0  0  0
   -2.3586    3.1589   -1.2947 H   0  0  0  0  0  0  0  0  0  0  0  0
   -2.3154    1.5224   -1.7488 H   0  0  0  0  0  0  0  0  0  0  0  0
   -3.1029    3.5568    2.8691 H   0  0  0  0  0  0  0  0  0  0  0  0
   -4.5812    2.7386    2.1704 H   0  0  0  0  0  0  0  0  0  0  0  0
   -1.5337    0.2700    4.1156 H   0  0  0  0  0  0  0  0  0  0  0  0
   -1.4573    2.0388    4.1898 H   0  0  0  0  0  0  0  0  0  0  0  0
   -3.1862    1.4110    5.8037 H   0  0  0  0  0  0  0  0  0  0  0  0
   -3.9060    0.3396    4.5604 H   0  0  0  0  0  0  0  0  0  0  0  0
   -4.0326    3.3647    4.7045 H   0  0  0  0  0  0  0  0  0  0  0  0
   -5.2314    2.1863    4.0840 H   0  0  0  0  0  0  0  0  0  0  0  0
  1  3  1  0  0  0  0
  1 16  1  0  0  0  0
  2  1  2  0  0  0  0
  3 31  1  0  0  0  0
  3 32  1  0  0  0  0
  4  3  1  0  0  0  0
  4  5  1  0  0  0  0
  4 33  1  0  0  0  0
  4 34  1  0  0  0  0
  5  6  1  0  0  0  0
  5  7  1  0  0  0  0
  6 10  1  0  0  0  0
  7 15  1  0  0  0  0
  8  6  2  0  0  0  0
  9  7  2  0  0  0  0
 10 15  2  0  0  0  0
 10 11  1  0  0  0  0
 11 12  2  0  0  0  0
 11 35  1  0  0  0  0
 12 13  1  0  0  0  0
 12 36  1  0  0  0  0
 13 37  1  0  0  0  0
 14 13  2  0  0  0  0
 14 38  1  0  0  0  0
 15 14  1  0  0  0  0
 16 17  1  0  0  0  0
 17 39  1  0  0  0  0
 17 40  1  0  0  0  0
 18 16  1  0  0  0  0
 18 19  1  0  0  0  0
 18 21  1  0  0  0  0
 18 30  1  1  0  0  0
 19 20  1  0  0  0  0
 19 41  1  0  0  0  0
 19 42  1  0  0  0  0
 20 17  1  0  0  0  0
 20 23  1  0  0  0  0
 21 22  2  0  0  0  0
 21 25  1  0  0  0  0
 24 20  1  0  0  0  0
 25 26  1  0  0  0  0
 25 27  1  0  0  0  0
 26 29  1  0  0  0  0
 26 43  1  0  0  0  0
 26 44  1  0  0  0  0
 27 28  1  0  0  0  0
 27 45  1  0  0  0  0
 27 46  1  0  0  0  0
 28 29  1  0  0  0  0
 28 47  1  0  0  0  0
 28 48  1  0  0  0  0
 29 49  1  0  0  0  0
 29 50  1  0  0  0  0
M  END
>  <DRUGBANK_ID>
DB08739

>  <COMMON_NAME>
2-{3-[(2S)-4,4-difluoro-2-(pyrrolidin-1-ylcarbonyl)pyrrolidin-1-yl]-3-oxopropyl}-isoindole-1,3(2H)-dione

$$$$
