
 OpenBabel10282417123D

 34 35  0  0  1  0  0  0  0  0999 V2000
    1.0562    0.0489   -0.0568 C   0  0  0  0  0  0  0  0  0  0  0  0
    3.9591   -1.7097   -4.2271 C   0  0  0  0  0  0  0  0  0  0  0  0
    0.5928   -0.9678   -1.1654 C   0  0  2  0  0  0  0  0  0  0  0  0
    4.5579    0.3346   -4.2911 C   0  0  0  0  0  0  0  0  0  0  0  0
    1.1015   -2.4203   -1.0901 C   0  0  2  0  0  0  0  0  0  0  0  0
    2.2439   -2.5427   -2.0246 C   0  0  2  0  0  0  0  0  0  0  0  0
    5.3416    1.5408   -4.5735 C   0  0  0  0  0  0  0  0  0  0  0  0
    3.3111    0.3679   -3.6323 C   0  0  0  0  0  0  0  0  0  0  0  0
    1.7791   -1.5955   -3.0950 C   0  0  2  0  0  0  0  0  0  0  0  0
    4.7531    2.7082   -4.1631 N   0  0  0  0  0  0  0  0  0  0  0  0
    4.9452   -0.9533   -4.6325 N   0  0  0  0  0  0  0  0  0  0  0  0
    2.9430   -0.9638   -3.6783 N   0  0  0  0  0  0  0  0  0  0  0  0
    0.0696   -3.3546   -1.4580 O   0  0  0  0  0  0  0  0  0  0  0  0
    2.3687   -3.9052   -2.4636 O   0  0  0  0  0  0  0  0  0  0  0  0
    6.4357    1.5541   -5.1479 O   0  0  0  0  0  0  0  0  0  0  0  0
    2.6143    1.2180   -3.1294 O   0  5  0  0  0  0  0  0  0  0  0  0
    0.7577   -1.4956    3.1058 O   0  5  0  0  0  0  0  0  0  0  0  0
   -0.3745   -2.4170    1.1643 O   0  0  0  0  0  0  0  0  0  0  0  0
    1.6250   -3.2977    1.9837 O   0  0  0  0  0  0  0  0  0  0  0  0
    0.5322   -0.2880    1.2801 O   0  0  0  0  0  0  0  0  0  0  0  0
    0.8472   -0.6420   -2.5270 O   0  0  0  0  0  0  0  0  0  0  0  0
    1.1089   -1.8763    1.6514 P   0  0  3  0  0  0  0  0  0  0  0  0
   -0.5004   -0.9154   -1.1222 H   0  0  0  0  0  0  0  0  0  0  0  0
    1.5585   -2.7886   -0.1992 H   0  0  0  0  0  0  0  0  0  0  0  0
    3.1733   -2.2383   -1.5177 H   0  0  0  0  0  0  0  0  0  0  0  0
    1.2463   -2.1387   -3.8823 H   0  0  0  0  0  0  0  0  0  0  0  0
    0.6913    1.0597   -0.2811 H   0  0  0  0  0  0  0  0  0  0  0  0
    2.1483    0.1195    0.0051 H   0  0  0  0  0  0  0  0  0  0  0  0
    3.9239   -2.7935   -4.2697 H   0  0  0  0  0  0  0  0  0  0  0  0
    5.1799    3.6001   -4.2947 H   0  0  0  0  0  0  0  0  0  0  0  0
    3.8455    2.6039   -3.6828 H   0  0  0  0  0  0  0  0  0  0  0  0
   -0.4406   -2.9834   -2.1946 H   0  0  0  0  0  0  0  0  0  0  0  0
    1.4767   -4.2920   -2.3266 H   0  0  0  0  0  0  0  0  0  0  0  0
   -0.6725   -2.1034    0.3106 H   0  0  0  0  0  0  0  0  0  0  0  0
  1 27  1  0  0  0  0
  1 28  1  0  0  0  0
  2 29  1  0  0  0  0
  3  1  1  0  0  0  0
  3 23  1  1  0  0  0
  5  3  1  0  0  0  0
  5 13  1  0  0  0  0
  5 24  1  1  0  0  0
  6  5  1  0  0  0  0
  6 14  1  0  0  0  0
  6 25  1  1  0  0  0
  7  4  1  0  0  0  0
  8  4  2  0  0  0  0
  9  6  1  0  0  0  0
  9 26  1  6  0  0  0
  9 12  1  0  0  0  0
 10  7  1  0  0  0  0
 10 30  1  0  0  0  0
 10 31  1  0  0  0  0
 11  2  2  0  0  0  0
 11  4  1  0  0  0  0
 12  2  1  0  0  0  0
 12  8  1  0  0  0  0
 13 32  1  0  0  0  0
 14 33  1  0  0  0  0
 15  7  2  0  0  0  0
 16  8  1  0  0  0  0
 18 34  1  0  0  0  0
 20  1  1  0  0  0  0
 21  3  1  0  0  0  0
 21  9  1  0  0  0  0
 22 17  1  0  0  0  0
 22 18  1  0  0  0  0
 22 19  2  0  0  0  0
 22 20  1  0  0  0  0
M  CHG  2  16  -1  17  -1
M  END
>  <DRUGBANK_ID>
DB01945

>  <SECONDARY_ACCESSION_NUMBERS>
EXPT02272

>  <COMMON_NAME>
4-Carbamoyl-1-Beta-D-Ribofuranosyl-Imidazolium-5-Olate-5'-Phosphate

$$$$
