ZAP
 OpenBabel10282417173D

 43 44  0  0  0  0  0  0  0  0999 V2000
   -7.6295    4.2240    0.1809 C   0  0  0  0  0  0  0  0  0  0  0  0
   -6.3068    4.1442    0.8491 C   0  0  0  0  0  0  0  0  0  0  0  0
   -5.5536    2.9708    0.7789 C   0  0  0  0  0  0  0  0  0  0  0  0
   -4.2436    2.9547    1.2644 C   0  0  0  0  0  0  0  0  0  0  0  0
   -3.6614    4.1221    1.7866 C   0  0  0  0  0  0  0  0  0  0  0  0
   -4.4263    5.3032    1.8108 C   0  0  0  0  0  0  0  0  0  0  0  0
   -5.7650    5.2915    1.4278 C   0  0  0  0  0  0  0  0  0  0  0  0
   -2.3134    4.0947    2.5225 C   0  0  2  0  0  0  0  0  0  0  0  0
   -0.3468    2.3840    2.4121 C   0  0  0  0  0  0  0  0  0  0  0  0
    0.8149    1.9439    4.5071 C   0  0  0  0  0  0  0  0  0  0  0  0
    0.5381    0.4719    4.6259 C   0  0  0  0  0  0  0  0  0  0  0  0
    1.6056   -0.4141    4.7964 C   0  0  0  0  0  0  0  0  0  0  0  0
    1.3651   -1.7805    4.9076 C   0  0  0  0  0  0  0  0  0  0  0  0
    0.0570   -2.2646    4.8846 C   0  0  0  0  0  0  0  0  0  0  0  0
   -1.0155   -1.3849    4.7687 C   0  0  0  0  0  0  0  0  0  0  0  0
   -0.7741   -0.0250    4.6137 C   0  0  0  0  0  0  0  0  0  0  0  0
   -7.9885    5.2848   -0.4711 N   0  0  0  0  0  0  0  0  0  0  0  0
   -8.4816    3.1724    0.1827 N   0  0  0  0  0  0  0  0  0  0  0  0
   -1.4213    3.0658    1.8816 N   0  0  0  0  0  0  0  0  0  0  0  0
    0.3080    1.6094    1.7449 O   0  0  0  0  0  0  0  0  0  0  0  0
   -0.1835    2.6157    3.7243 O   0  0  0  0  0  0  0  0  0  0  0  0
   -1.3178    4.5880    4.6525 O   0  0  0  0  0  0  0  0  0  0  0  0
   -3.7623    4.6752    4.4786 O   0  0  0  0  0  0  0  0  0  0  0  0
   -2.6491    3.2332    5.9603 O   0  0  0  0  0  0  0  0  0  0  0  0
   -2.4860    3.6519    4.2897 P   0  0  0  0  0  0  0  0  0  0  0  0
   -1.8130    5.0604    2.3800 H   0  0  0  0  0  0  0  0  0  0  0  0
   -5.9667    2.0747    0.3249 H   0  0  0  0  0  0  0  0  0  0  0  0
   -3.6851    2.0221    1.2121 H   0  0  0  0  0  0  0  0  0  0  0  0
   -4.0059    6.2359    2.1814 H   0  0  0  0  0  0  0  0  0  0  0  0
   -6.3801    6.1754    1.5851 H   0  0  0  0  0  0  0  0  0  0  0  0
    1.8126    2.1647    4.1141 H   0  0  0  0  0  0  0  0  0  0  0  0
    0.7654    2.3667    5.5217 H   0  0  0  0  0  0  0  0  0  0  0  0
    2.6276   -0.0420    4.8218 H   0  0  0  0  0  0  0  0  0  0  0  0
    2.2005   -2.4662    5.0137 H   0  0  0  0  0  0  0  0  0  0  0  0
   -0.1271   -3.3320    4.9529 H   0  0  0  0  0  0  0  0  0  0  0  0
   -2.0361   -1.7547    4.7950 H   0  0  0  0  0  0  0  0  0  0  0  0
   -1.6152    0.6436    4.4620 H   0  0  0  0  0  0  0  0  0  0  0  0
   -7.2385    5.9844   -0.4762 H   0  0  0  0  0  0  0  0  0  0  0  0
   -8.3514    2.3480    0.7481 H   0  0  0  0  0  0  0  0  0  0  0  0
   -9.3746    3.3122   -0.2744 H   0  0  0  0  0  0  0  0  0  0  0  0
   -1.4948    2.9298    0.8831 H   0  0  0  0  0  0  0  0  0  0  0  0
   -3.4594    5.5917    4.2935 H   0  0  0  0  0  0  0  0  0  0  0  0
   -3.4382    2.6830    6.1035 H   0  0  0  0  0  0  0  0  0  0  0  0
  1  2  1  0  0  0  0
  1 17  2  0  0  0  0
  1 18  1  0  0  0  0
  2  3  2  0  0  0  0
  2  7  1  0  0  0  0
  3  4  1  0  0  0  0
  3 27  1  0  0  0  0
  4  5  2  0  0  0  0
  4 28  1  0  0  0  0
  5  6  1  0  0  0  0
  6  7  2  0  0  0  0
  6 29  1  0  0  0  0
  7 30  1  0  0  0  0
  8 25  1  0  0  0  0
  8 26  1  6  0  0  0
  8 19  1  0  0  0  0
  8  5  1  0  0  0  0
  9 19  1  0  0  0  0
  9 20  2  0  0  0  0
  9 21  1  0  0  0  0
 10 11  1  0  0  0  0
 10 21  1  0  0  0  0
 10 31  1  0  0  0  0
 10 32  1  0  0  0  0
 11 12  2  0  0  0  0
 11 16  1  0  0  0  0
 12 13  1  0  0  0  0
 12 33  1  0  0  0  0
 13 14  2  0  0  0  0
 13 34  1  0  0  0  0
 14 15  1  0  0  0  0
 14 35  1  0  0  0  0
 15 16  2  0  0  0  0
 15 36  1  0  0  0  0
 16 37  1  0  0  0  0
 17 38  1  0  0  0  0
 18 39  1  0  0  0  0
 18 40  1  0  0  0  0
 19 41  1  0  0  0  0
 22 25  2  0  0  0  0
 23 25  1  0  0  0  0
 23 42  1  0  0  0  0
 24 25  1  0  0  0  0
 24 43  1  0  0  0  0
M  END
>  <DRUGBANK_ID>
DB08763

>  <COMMON_NAME>
[N-(BENZYLOXYCARBONYL)AMINO](4-AMIDINOPHENYL)METHANE-PHOSPHONATE

$$$$
