
 OpenBabel10282417153D

 32 34  0  0  0  0  0  0  0  0999 V2000
   -2.9698    0.8803   -0.0731 O   0  0  0  0  0  0  0  0  0  0  0  0
   -4.0661   -1.4850   -0.9758 N   0  0  0  0  0  0  0  0  0  0  0  0
   -0.7450    1.4287    0.0192 N   0  0  0  0  0  0  0  0  0  0  0  0
   -1.1760   -0.8299   -0.0284 C   0  0  0  0  0  0  0  0  0  0  0  0
   -3.3108   -2.0073    0.0554 C   0  0  0  0  0  0  0  0  0  0  0  0
    0.2940   -0.6199   -0.0127 C   0  0  0  0  0  0  0  0  0  0  0  0
   -4.1986   -2.4654    1.0160 C   0  0  0  0  0  0  0  0  0  0  0  0
   -1.8837   -1.9751   -0.0037 C   0  0  0  0  0  0  0  0  0  0  0  0
    0.4728    0.7713    0.0248 C   0  0  0  0  0  0  0  0  0  0  0  0
   -5.4076   -1.5434   -0.6700 C   0  0  0  0  0  0  0  0  0  0  0  0
   -1.7998    0.5490   -0.0209 C   0  0  0  0  0  0  0  0  0  0  0  0
   -5.5142   -2.1590    0.5586 C   0  0  0  0  0  0  0  0  0  0  0  0
    1.4188   -1.4309   -0.0489 C   0  0  0  0  0  0  0  0  0  0  0  0
    1.7057    1.3943    0.0461 C   0  0  0  0  0  0  0  0  0  0  0  0
   -3.8587   -3.1017    2.3118 C   0  0  0  0  0  0  0  0  0  0  0  0
   -6.4555   -0.9815   -1.5625 C   0  0  0  0  0  0  0  0  0  0  0  0
    2.6909   -0.8189   -0.0412 C   0  0  0  0  0  0  0  0  0  0  0  0
    2.8319    0.5801    0.0156 C   0  0  0  0  0  0  0  0  0  0  0  0
   -3.6883   -1.0165   -1.7874 H   0  0  0  0  0  0  0  0  0  0  0  0
   -0.8897    2.4246    0.0184 H   0  0  0  0  0  0  0  0  0  0  0  0
   -1.3739   -2.9315    0.0837 H   0  0  0  0  0  0  0  0  0  0  0  0
   -6.4419   -2.3437    1.0867 H   0  0  0  0  0  0  0  0  0  0  0  0
    1.3490   -2.5127   -0.0927 H   0  0  0  0  0  0  0  0  0  0  0  0
    1.7928    2.4744    0.0791 H   0  0  0  0  0  0  0  0  0  0  0  0
   -4.2540   -2.5146    3.1468 H   0  0  0  0  0  0  0  0  0  0  0  0
   -4.2846   -4.1081    2.3547 H   0  0  0  0  0  0  0  0  0  0  0  0
   -2.7755   -3.1847    2.4419 H   0  0  0  0  0  0  0  0  0  0  0  0
   -7.1545   -1.7669   -1.8683 H   0  0  0  0  0  0  0  0  0  0  0  0
   -7.0284   -0.2008   -1.0495 H   0  0  0  0  0  0  0  0  0  0  0  0
   -6.0260   -0.5409   -2.4681 H   0  0  0  0  0  0  0  0  0  0  0  0
    3.5918   -1.4302   -0.0850 H   0  0  0  0  0  0  0  0  0  0  0  0
    3.8221    1.0321    0.0302 H   0  0  0  0  0  0  0  0  0  0  0  0
  1 11  2  0  0  0  0
  2  5  1  0  0  0  0
  2 10  1  0  0  0  0
  2 19  1  0  0  0  0
  3  9  1  0  0  0  0
  3 11  1  0  0  0  0
  3 20  1  0  0  0  0
  4  6  1  0  0  0  0
  4  8  2  0  0  0  0
  4 11  1  0  0  0  0
  5  7  2  0  0  0  0
  5  8  1  0  0  0  0
  6  9  1  0  0  0  0
  6 13  2  0  0  0  0
  7 12  1  0  0  0  0
  7 15  1  0  0  0  0
  8 21  1  0  0  0  0
  9 14  2  0  0  0  0
 10 12  2  0  0  0  0
 10 16  1  0  0  0  0
 12 22  1  0  0  0  0
 13 17  1  0  0  0  0
 13 23  1  0  0  0  0
 14 18  1  0  0  0  0
 14 24  1  0  0  0  0
 15 25  1  0  0  0  0
 15 26  1  0  0  0  0
 15 27  1  0  0  0  0
 16 28  1  0  0  0  0
 16 29  1  0  0  0  0
 16 30  1  0  0  0  0
 17 18  2  0  0  0  0
 17 31  1  0  0  0  0
 18 32  1  0  0  0  0
M  END
>  <DRUGBANK_ID>
DB06436

>  <COMMON_NAME>
Semaxanib

>  <CAS_NUMBER>
194413-58-6

>  <UNII>
71IA9S35AJ

>  <SYNONYMS>
Semaxanib

$$$$
