
 OpenBabel10282417153D

 86 90  0  0  0  0  0  0  0  0999 V2000
   -0.3701   -2.0135   -0.6393 C   0  0  0  0  0  0  0  0  0  0  0  0
    3.6265    1.4496    5.7142 C   0  0  0  0  0  0  0  0  0  0  0  0
    1.7320    3.7328    7.1279 C   0  0  0  0  0  0  0  0  0  0  0  0
    4.8383   -1.6091    2.6353 C   0  0  0  0  0  0  0  0  0  0  0  0
    0.7304   -0.0002    5.5926 C   0  0  0  0  0  0  0  0  0  0  0  0
    1.1534    0.7121    4.5371 C   0  0  0  0  0  0  0  0  0  0  0  0
   -7.2885   -5.4978    0.0534 C   0  0  0  0  0  0  0  0  0  0  0  0
   -7.5455   -5.0430    2.4186 C   0  0  0  0  0  0  0  0  0  0  0  0
   -6.0134   -4.9360    0.0888 C   0  0  0  0  0  0  0  0  0  0  0  0
   -6.2698   -4.4773    2.4555 C   0  0  0  0  0  0  0  0  0  0  0  0
   -2.4026   -1.7263    5.2890 C   0  0  0  0  0  0  0  0  0  0  0  0
   -2.5437   -0.3885    4.9180 C   0  0  0  0  0  0  0  0  0  0  0  0
    1.6234   -1.0093    5.7323 C   0  0  0  0  0  0  0  0  0  0  0  0
   -1.3121   -2.0932    3.2087 C   0  0  0  0  0  0  0  0  0  0  0  0
   -9.3271   -6.2207    1.2022 C   0  0  0  0  0  0  0  0  0  0  0  0
    2.4040    4.4665    4.7880 C   0  0  0  0  0  0  0  0  0  0  0  0
    3.3061    1.7855    2.1778 C   0  0  0  0  0  0  0  0  0  0  0  0
   -3.1474   -4.5995    1.9892 C   0  0  0  0  0  0  0  0  0  0  0  0
   -0.0056   -0.1767    1.2445 C   0  0  0  0  0  0  0  0  0  0  0  0
    0.6095    3.0560    2.7234 C   0  0  0  0  0  0  0  0  0  0  0  0
    1.3967    1.1554    2.1972 C   0  0  0  0  0  0  0  0  0  0  0  0
   -1.6525   -1.6028    0.1005 C   0  0  1  0  0  0  0  0  0  0  0  0
    3.3921    2.2120    4.3782 C   0  0  3  0  0  0  0  0  0  0  0  0
   -8.0505   -5.5694    1.2229 C   0  0  0  0  0  0  0  0  0  0  0  0
   -5.5042   -4.4280    1.2916 C   0  0  0  0  0  0  0  0  0  0  0  0
    2.5788    0.5243    3.5778 C   0  0  0  0  0  0  0  0  0  0  0  0
   -1.7927   -2.5836    4.4084 C   0  0  0  0  0  0  0  0  0  0  0  0
   -1.7187   -0.8593    2.6814 C   0  0  0  0  0  0  0  0  0  0  0  0
   -2.2315    0.0298    3.6185 C   0  0  0  0  0  0  0  0  0  0  0  0
   -4.1503   -3.9418    1.3075 C   0  0  0  0  0  0  0  0  0  0  0  0
    3.6427    4.4315    3.4657 C   0  0  0  0  0  0  0  0  0  0  0  0
    3.3032   -0.5356    3.9325 C   0  0  0  0  0  0  0  0  0  0  0  0
   -2.4407   -2.8009    0.5538 C   0  0  0  0  0  0  0  0  0  0  0  0
    5.2450    0.7411    3.0928 C   0  0  0  0  0  0  0  0  0  0  0  0
   -1.4282   -0.5328    1.2045 C   0  0  1  0  0  0  0  0  0  0  0  0
   -1.6569   -3.8852    4.6867 F   0  0  0  0  0  0  0  0  0  0  0  0
   -2.3314    1.3335    3.3342 F   0  0  0  0  0  0  0  0  0  0  0  0
  -10.3459   -6.7744    1.1864 N   0  0  0  0  0  0  0  0  0  0  0  0
    2.8390    4.1424    6.2496 N   0  0  0  0  0  0  0  0  0  0  0  0
    2.8015   -1.3184    4.9340 N   0  0  0  0  0  0  0  0  0  0  0  0
   -0.2309    2.3947    1.9300 N   0  0  0  0  0  0  0  0  0  0  0  0
   -3.7522   -2.8448    0.5700 N   0  0  0  0  0  0  0  0  0  0  0  0
    4.5470   -0.4422    3.3690 N   0  0  0  0  0  0  0  0  0  0  0  0
    1.7651    2.2981    3.2313 N   0  3  0  0  0  0  0  0  0  0  0  0
    0.1292    1.0958    1.9524 N   0  0  0  0  0  0  0  0  0  0  0  0
    4.7483    4.9374    3.6699 O   0  0  0  0  0  0  0  0  0  0  0  0
    6.0978    0.8467    2.2178 O   0  0  0  0  0  0  0  0  0  0  0  0
   -1.9704    0.6862    0.6813 O   0  0  0  0  0  0  0  0  0  0  0  0
    3.5988    3.4816    2.4003 O   0  0  0  0  0  0  0  0  0  0  0  0
    4.7937    1.8846    3.6868 O   0  0  0  0  0  0  0  0  0  0  0  0
   -1.7099   -4.2923    1.0923 S   0  0  0  0  0  0  0  0  0  0  0  0
   -2.2681   -1.0753   -0.6407 H   0  0  0  0  0  0  0  0  0  0  0  0
    3.7931    3.1088    4.7294 H   0  0  0  0  0  0  0  0  0  0  0  0
    0.3553   -2.4603    0.0546 H   0  0  0  0  0  0  0  0  0  0  0  0
    0.1069   -1.1571   -1.1314 H   0  0  0  0  0  0  0  0  0  0  0  0
   -0.5790   -2.7288   -1.4293 H   0  0  0  0  0  0  0  0  0  0  0  0
    4.0947    0.4690    5.6863 H   0  0  0  0  0  0  0  0  0  0  0  0
    4.4803    1.9200    6.2225 H   0  0  0  0  0  0  0  0  0  0  0  0
    2.7246    1.4581    6.2929 H   0  0  0  0  0  0  0  0  0  0  0  0
    1.0499    2.9810    6.7030 H   0  0  0  0  0  0  0  0  0  0  0  0
    2.1301    3.2559    8.0428 H   0  0  0  0  0  0  0  0  0  0  0  0
    1.2174    4.6459    7.3818 H   0  0  0  0  0  0  0  0  0  0  0  0
    4.9476   -2.3462    3.4200 H   0  0  0  0  0  0  0  0  0  0  0  0
    3.9840   -1.8227    1.9737 H   0  0  0  0  0  0  0  0  0  0  0  0
    5.7290   -1.4407    2.0452 H   0  0  0  0  0  0  0  0  0  0  0  0
   -0.1309    0.2820    6.2110 H   0  0  0  0  0  0  0  0  0  0  0  0
    0.4037    1.5472    4.4413 H   0  0  0  0  0  0  0  0  0  0  0  0
   -7.6741   -5.8910   -0.8851 H   0  0  0  0  0  0  0  0  0  0  0  0
   -8.1358   -5.0811    3.3314 H   0  0  0  0  0  0  0  0  0  0  0  0
   -5.4080   -4.9230   -0.8171 H   0  0  0  0  0  0  0  0  0  0  0  0
   -5.8779   -4.0896    3.3920 H   0  0  0  0  0  0  0  0  0  0  0  0
   -2.6956   -2.0940    6.2649 H   0  0  0  0  0  0  0  0  0  0  0  0
   -2.8921    0.3409    5.6398 H   0  0  0  0  0  0  0  0  0  0  0  0
    1.4814   -1.6188    6.6178 H   0  0  0  0  0  0  0  0  0  0  0  0
   -0.6337   -2.7328    2.6624 H   0  0  0  0  0  0  0  0  0  0  0  0
    1.9925    5.4580    4.7965 H   0  0  0  0  0  0  0  0  0  0  0  0
    1.5997    3.7518    4.6716 H   0  0  0  0  0  0  0  0  0  0  0  0
    3.4943    1.3130    1.1716 H   0  0  0  0  0  0  0  0  0  0  0  0
    2.5476    2.3236    1.4874 H   0  0  0  0  0  0  0  0  0  0  0  0
   -3.2158   -5.3654    2.7518 H   0  0  0  0  0  0  0  0  0  0  0  0
    0.5651   -1.0069    1.7695 H   0  0  0  0  0  0  0  0  0  0  0  0
    0.6112   -0.0999    0.3309 H   0  0  0  0  0  0  0  0  0  0  0  0
    0.5457    4.0935    2.9602 H   0  0  0  0  0  0  0  0  0  0  0  0
    2.0301    0.2897    1.8277 H   0  0  0  0  0  0  0  0  0  0  0  0
    3.5048    3.3993    6.4250 H   0  0  0  0  0  0  0  0  0  0  0  0
   -2.7970    0.8917    1.1336 H   0  0  0  0  0  0  0  0  0  0  0  0
  1 54  1  0  0  0  0
  1 55  1  0  0  0  0
  1 56  1  0  0  0  0
  2 57  1  0  0  0  0
  2 58  1  0  0  0  0
  2 59  1  0  0  0  0
  3 60  1  0  0  0  0
  3 61  1  0  0  0  0
  3 62  1  0  0  0  0
  4 63  1  0  0  0  0
  4 64  1  0  0  0  0
  4 65  1  0  0  0  0
  5 66  1  0  0  0  0
  6  5  2  0  0  0  0
  6 67  1  0  0  0  0
  7 68  1  0  0  0  0
  8 69  1  0  0  0  0
  9  7  1  0  0  0  0
  9 70  1  0  0  0  0
 10  8  2  0  0  0  0
 10 71  1  0  0  0  0
 11 72  1  0  0  0  0
 12 11  2  0  0  0  0
 12 73  1  0  0  0  0
 13  5  1  0  0  0  0
 13 74  1  0  0  0  0
 14 75  1  0  0  0  0
 16 76  1  0  0  0  0
 16 77  1  0  0  0  0
 17 78  1  0  0  0  0
 17 79  1  0  0  0  0
 18 80  1  0  0  0  0
 19 81  1  0  0  0  0
 19 82  1  0  0  0  0
 20 83  1  0  0  0  0
 21 84  1  0  0  0  0
 22  1  1  0  0  0  0
 22 52  1  6  0  0  0
 23  2  1  0  0  0  0
 24  7  2  0  0  0  0
 24  8  1  0  0  0  0
 24 15  1  0  0  0  0
 25  9  2  0  0  0  0
 25 10  1  0  0  0  0
 26  6  1  0  0  0  0
 26 17  1  0  0  0  0
 27 11  1  0  0  0  0
 27 14  2  0  0  0  0
 28 14  1  0  0  0  0
 29 12  1  0  0  0  0
 29 28  2  0  0  0  0
 30 18  2  0  0  0  0
 30 25  1  0  0  0  0
 31 16  1  0  0  0  0
 32 26  2  0  0  0  0
 33 22  1  0  0  0  0
 35 28  1  0  0  0  0
 35 48  1  6  0  0  0
 35 22  1  0  0  0  0
 35 19  1  0  0  0  0
 36 27  1  0  0  0  0
 37 29  1  0  0  0  0
 38 15  3  0  0  0  0
 39  3  1  0  0  0  0
 39 16  1  0  0  0  0
 39 85  1  0  0  0  0
 40 13  2  0  0  0  0
 40 32  1  0  0  0  0
 41 20  2  0  0  0  0
 42 30  1  0  0  0  0
 42 33  2  0  0  0  0
 43  4  1  0  0  0  0
 43 32  1  0  0  0  0
 43 34  1  0  0  0  0
 44 20  1  0  0  0  0
 44 21  2  0  0  0  0
 44 23  1  0  0  0  0
 45 19  1  0  0  0  0
 45 21  1  0  0  0  0
 45 41  1  0  0  0  0
 46 31  2  0  0  0  0
 47 34  2  0  0  0  0
 48 86  1  0  0  0  0
 49 17  1  0  0  0  0
 49 31  1  0  0  0  0
 50 23  1  0  0  0  0
 50 34  1  0  0  0  0
 51 18  1  0  0  0  0
 51 33  1  0  0  0  0
 53 23  1  0  0  0  0
M  CHG  1  44   1
M  END
>  <DRUGBANK_ID>
DB06636

>  <COMMON_NAME>
Isavuconazonium

>  <CAS_NUMBER>
742049-41-8

>  <UNII>
VH2L779W8Q

>  <SYNONYMS>
Isavuconazonium

$$$$
