
 OpenBabel10282417123D

 20 19  0  0  1  0  0  0  0  0999 V2000
    0.9391    0.0668    0.0429 C   0  0  0  0  0  0  0  0  0  0  0  0
    0.3291   -1.6157   -0.3394 P   0  0  1  0  0  0  0  0  0  0  0  0
    1.8345   -2.0343   -0.8499 O   0  0  0  0  0  0  0  0  0  0  0  0
    0.1717   -1.8961    1.1559 O   0  0  0  0  0  0  0  0  0  0  0  0
   -0.2809   -3.2982   -0.7217 C   0  0  0  0  0  0  0  0  0  0  0  0
   -1.5759   -3.1970   -1.4810 C   0  0  0  0  0  0  0  0  0  0  0  0
   -1.6415   -3.5673   -2.6548 O   0  0  0  0  0  0  0  0  0  0  0  0
   -2.7478   -2.5314   -0.8073 C   0  0  0  0  0  0  0  0  0  0  0  0
   -3.1948   -3.2542    0.4236 C   0  0  0  0  0  0  0  0  0  0  0  0
   -3.2241   -2.5136    1.5481 O   0  0  0  0  0  0  0  0  0  0  0  0
   -3.5238   -4.4339    0.4189 O   0  0  0  0  0  0  0  0  0  0  0  0
    0.5556    0.4334    1.0008 H   0  0  0  0  0  0  0  0  0  0  0  0
    0.5869    0.7474   -0.7378 H   0  0  0  0  0  0  0  0  0  0  0  0
    2.0320    0.1150    0.0760 H   0  0  0  0  0  0  0  0  0  0  0  0
    2.0121   -1.9027   -1.8043 H   0  0  0  0  0  0  0  0  0  0  0  0
    0.4336   -3.8483   -1.3447 H   0  0  0  0  0  0  0  0  0  0  0  0
   -0.4457   -3.9094    0.1725 H   0  0  0  0  0  0  0  0  0  0  0  0
   -2.5012   -1.4846   -0.6075 H   0  0  0  0  0  0  0  0  0  0  0  0
   -3.5933   -2.5218   -1.5068 H   0  0  0  0  0  0  0  0  0  0  0  0
   -2.8511   -1.6120    1.5173 H   0  0  0  0  0  0  0  0  0  0  0  0
  1 12  1  0  0  0  0
  1 13  1  0  0  0  0
  1 14  1  0  0  0  0
  2  1  1  0  0  0  0
  2  3  1  0  0  0  0
  2  4  2  1  0  0  0
  2  5  1  0  0  0  0
  3 15  1  0  0  0  0
  5  6  1  0  0  0  0
  5 16  1  0  0  0  0
  5 17  1  0  0  0  0
  6  7  2  0  0  0  0
  6  8  1  0  0  0  0
  8  9  1  0  0  0  0
  8 18  1  0  0  0  0
  8 19  1  0  0  0  0
  9 10  1  0  0  0  0
  9 11  2  0  0  0  0
 10 20  1  0  0  0  0
M  END
>  <DRUGBANK_ID>
DB01832

>  <SECONDARY_ACCESSION_NUMBERS>
EXPT01703

>  <COMMON_NAME>
4-[Hydroxy-[Methyl-Phosphinoyl]]-3-Oxo-Butanoic Acid

$$$$
