
 OpenBabel10282417203D

 37 38  0  0  0  0  0  0  0  0999 V2000
    1.5002   -0.1231    0.0004 C   0  0  0  0  0  0  0  0  0  0  0  0
    0.6663   -1.2018   -0.1696 C   0  0  0  0  0  0  0  0  0  0  0  0
    0.9442    1.1489   -0.0141 C   0  0  0  0  0  0  0  0  0  0  0  0
   -0.6855   -0.9762   -0.4374 C   0  0  0  0  0  0  0  0  0  0  0  0
   -0.4558    1.3264   -0.0443 C   0  0  0  0  0  0  0  0  0  0  0  0
   -4.0427    2.0968   -1.6245 C   0  0  0  0  0  0  0  0  0  0  0  0
   -3.3989    1.7314   -0.2842 C   0  0  0  0  0  0  0  0  0  0  0  0
   -1.9117   -3.8296    0.8964 C   0  0  0  0  0  0  0  0  0  0  0  0
   -1.3322    0.2498   -0.2577 C   0  0  0  0  0  0  0  0  0  0  0  0
   -2.5664   -2.6009    1.0193 C   0  0  0  0  0  0  0  0  0  0  0  0
   -2.1958   -4.6838   -0.1748 C   0  0  0  0  0  0  0  0  0  0  0  0
   -5.2814    1.3169   -1.9222 C   0  0  0  0  0  0  0  0  0  0  0  0
   -3.3814   -2.1423   -0.0327 C   0  0  0  0  0  0  0  0  0  0  0  0
   -3.6927   -3.0421   -1.1018 C   0  0  0  0  0  0  0  0  0  0  0  0
   -3.0374   -4.2935   -1.2242 C   0  0  0  0  0  0  0  0  0  0  0  0
   -3.7518   -0.7070   -0.0472 C   0  0  0  0  0  0  0  0  0  0  0  0
   -2.1388   -1.4861    2.7904 I   0  0  0  0  0  0  0  0  0  0  0  0
   -1.4656   -6.6487   -0.0459 I   0  0  0  0  0  0  0  0  0  0  0  0
   -5.3165   -2.8144   -2.5054 I   0  0  0  0  0  0  0  0  0  0  0  0
   -3.3030   -5.1541   -2.2942 N   0  0  0  0  0  0  0  0  0  0  0  0
   -2.7948    0.3684   -0.2299 N   0  0  0  0  0  0  0  0  0  0  0  0
   -6.4273    1.6347   -1.7161 O   0  0  0  0  0  0  0  0  0  0  0  0
   -4.9512    0.1126   -2.4070 O   0  0  0  0  0  0  0  0  0  0  0  0
   -4.9569   -0.5046    0.1337 O   0  0  0  0  0  0  0  0  0  0  0  0
    2.5681   -0.2784    0.1138 H   0  0  0  0  0  0  0  0  0  0  0  0
    1.0414   -2.2217   -0.1341 H   0  0  0  0  0  0  0  0  0  0  0  0
    1.5992    2.0149    0.0256 H   0  0  0  0  0  0  0  0  0  0  0  0
   -1.2044   -1.8491   -0.7789 H   0  0  0  0  0  0  0  0  0  0  0  0
   -0.7891    2.3399    0.1455 H   0  0  0  0  0  0  0  0  0  0  0  0
   -4.3452    3.1482   -1.6257 H   0  0  0  0  0  0  0  0  0  0  0  0
   -3.3342    1.9616   -2.4483 H   0  0  0  0  0  0  0  0  0  0  0  0
   -4.1157    1.8332    0.5403 H   0  0  0  0  0  0  0  0  0  0  0  0
   -2.6559    2.5080   -0.1064 H   0  0  0  0  0  0  0  0  0  0  0  0
   -1.1333   -4.0968    1.6060 H   0  0  0  0  0  0  0  0  0  0  0  0
   -2.7534   -5.9948   -2.4228 H   0  0  0  0  0  0  0  0  0  0  0  0
   -3.8037   -4.7926   -3.1022 H   0  0  0  0  0  0  0  0  0  0  0  0
   -5.6362   -0.4769   -2.0081 H   0  0  0  0  0  0  0  0  0  0  0  0
  1 25  1  0  0  0  0
  2  1  2  0  0  0  0
  2 26  1  0  0  0  0
  3  1  1  0  0  0  0
  3 27  1  0  0  0  0
  4  2  1  0  0  0  0
  4 28  1  0  0  0  0
  5  3  2  0  0  0  0
  5 29  1  0  0  0  0
  6 30  1  0  0  0  0
  6 31  1  0  0  0  0
  7  6  1  0  0  0  0
  7 32  1  0  0  0  0
  7 33  1  0  0  0  0
  8 34  1  0  0  0  0
  9  4  2  0  0  0  0
  9  5  1  0  0  0  0
 10  8  2  0  0  0  0
 11  8  1  0  0  0  0
 12  6  1  0  0  0  0
 13 10  1  0  0  0  0
 14 13  2  0  0  0  0
 15 11  2  0  0  0  0
 15 14  1  0  0  0  0
 16 13  1  0  0  0  0
 17 10  1  0  0  0  0
 18 11  1  0  0  0  0
 19 14  1  0  0  0  0
 20 15  1  0  0  0  0
 20 35  1  0  0  0  0
 20 36  1  0  0  0  0
 21  7  1  0  0  0  0
 21  9  1  0  0  0  0
 21 16  1  0  0  0  0
 22 12  2  0  0  0  0
 23 12  1  0  0  0  0
 23 37  1  0  0  0  0
 24 16  2  0  0  0  0
M  END
>  <DRUGBANK_ID>
DB13428

>  <COMMON_NAME>
Iobenzamic acid

>  <CAS_NUMBER>
3115-05-7

>  <UNII>
F72UWG2SWK

>  <SYNONYMS>
Iobenzamic acid

$$$$
