N4T
 OpenBabel10282417173D

 46 49  0  0  0  0  0  0  0  0999 V2000
  -10.0833    1.9503   -4.5986 C   0  0  0  0  0  0  0  0  0  0  0  0
   -9.0527    2.3188   -3.7295 C   0  0  0  0  0  0  0  0  0  0  0  0
   -8.7806    3.6745   -3.4840 C   0  0  0  0  0  0  0  0  0  0  0  0
   -9.5559    4.6270   -4.1627 C   0  0  0  0  0  0  0  0  0  0  0  0
  -10.5791    4.2539   -5.0412 C   0  0  0  0  0  0  0  0  0  0  0  0
  -10.8511    2.9049   -5.2548 C   0  0  0  0  0  0  0  0  0  0  0  0
   -7.6865    4.0728   -2.5877 C   0  0  0  0  0  0  0  0  0  0  0  0
   -7.8162    5.0184   -1.4304 C   0  0  0  0  0  0  0  0  0  0  0  0
   -6.4205    5.2525   -1.0141 N   0  0  0  0  0  0  0  0  0  0  0  0
   -5.4782    4.3855   -1.7893 C   0  0  1  0  0  0  0  0  0  0  0  0
   -6.4123    3.7034   -2.7558 C   0  0  0  0  0  0  0  0  0  0  0  0
   -4.3154    5.0873   -2.4797 C   0  0  0  0  0  0  0  0  0  0  0  0
   -3.2312    5.5230   -1.7227 C   0  0  0  0  0  0  0  0  0  0  0  0
   -2.2425    6.3816   -2.1674 C   0  0  0  0  0  0  0  0  0  0  0  0
   -2.1060    6.5300   -3.5215 C   0  0  0  0  0  0  0  0  0  0  0  0
   -3.0112    5.8822   -4.3622 C   0  0  0  0  0  0  0  0  0  0  0  0
   -4.1601    5.2543   -3.8513 C   0  0  0  0  0  0  0  0  0  0  0  0
   -6.2140    6.0692    0.1253 C   0  0  0  0  0  0  0  0  0  0  0  0
   -4.7569    6.2185    0.7215 C   0  0  2  0  0  0  0  0  0  0  0  0
   -4.2490    4.8742    1.2253 C   0  0  0  0  0  0  0  0  0  0  0  0
   -9.3026    5.9349   -4.0096 F   0  0  0  0  0  0  0  0  0  0  0  0
  -10.3397    0.6513   -4.8035 F   0  0  0  0  0  0  0  0  0  0  0  0
   -7.1460    6.6616    0.6548 O   0  0  0  0  0  0  0  0  0  0  0  0
   -3.7357    4.5059    2.5936 C   0  0  0  0  0  0  0  0  0  0  0  0
   -4.5975    7.3016    1.7099 N   0  0  0  0  0  0  0  0  0  0  0  0
   -2.7768    4.5146    1.4433 C   0  0  0  0  0  0  0  0  0  0  0  0
   -5.0881    3.5959   -1.1398 H   0  0  0  0  0  0  0  0  0  0  0  0
   -4.2031    6.6652   -0.0952 H   0  0  0  0  0  0  0  0  0  0  0  0
   -8.4798    1.5321   -3.2472 H   0  0  0  0  0  0  0  0  0  0  0  0
  -11.1529    5.0198   -5.5550 H   0  0  0  0  0  0  0  0  0  0  0  0
  -11.6475    2.5934   -5.9248 H   0  0  0  0  0  0  0  0  0  0  0  0
   -8.3624    4.5359   -0.6082 H   0  0  0  0  0  0  0  0  0  0  0  0
   -8.2932    5.9680   -1.6807 H   0  0  0  0  0  0  0  0  0  0  0  0
   -6.0583    3.0474   -3.5399 H   0  0  0  0  0  0  0  0  0  0  0  0
   -3.1269    5.2020   -0.7121 H   0  0  0  0  0  0  0  0  0  0  0  0
   -1.5735    6.8478   -1.4483 H   0  0  0  0  0  0  0  0  0  0  0  0
   -1.2657    7.0925   -3.9094 H   0  0  0  0  0  0  0  0  0  0  0  0
   -2.8172    5.8591   -5.4282 H   0  0  0  0  0  0  0  0  0  0  0  0
   -4.8854    4.8544   -4.5532 H   0  0  0  0  0  0  0  0  0  0  0  0
   -4.8428    4.0848    0.7841 H   0  0  0  0  0  0  0  0  0  0  0  0
   -3.5759    5.2478    3.3604 H   0  0  0  0  0  0  0  0  0  0  0  0
   -4.0691    3.5389    2.9592 H   0  0  0  0  0  0  0  0  0  0  0  0
   -4.8828    8.1746    1.2571 H   0  0  0  0  0  0  0  0  0  0  0  0
   -5.2584    7.1654    2.4670 H   0  0  0  0  0  0  0  0  0  0  0  0
   -2.4365    3.5638    1.0349 H   0  0  0  0  0  0  0  0  0  0  0  0
   -2.0017    5.2740    1.4383 H   0  0  0  0  0  0  0  0  0  0  0  0
  1  2  1  0  0  0  0
  1  6  2  0  0  0  0
  1 22  1  0  0  0  0
  2  3  2  0  0  0  0
  2 29  1  0  0  0  0
  3  4  1  0  0  0  0
  3  7  1  0  0  0  0
  4  5  2  0  0  0  0
  4 21  1  0  0  0  0
  5  6  1  0  0  0  0
  5 30  1  0  0  0  0
  6 31  1  0  0  0  0
  7  8  1  0  0  0  0
  7 11  2  0  0  0  0
  8  9  1  0  0  0  0
  8 32  1  0  0  0  0
  8 33  1  0  0  0  0
  9 10  1  0  0  0  0
  9 18  1  0  0  0  0
 10 11  1  0  0  0  0
 10 12  1  0  0  0  0
 10 27  1  1  0  0  0
 11 34  1  0  0  0  0
 12 13  1  0  0  0  0
 12 17  2  0  0  0  0
 13 14  2  0  0  0  0
 13 35  1  0  0  0  0
 14 15  1  0  0  0  0
 14 36  1  0  0  0  0
 15 16  2  0  0  0  0
 15 37  1  0  0  0  0
 16 17  1  0  0  0  0
 16 38  1  0  0  0  0
 17 39  1  0  0  0  0
 18 23  2  0  0  0  0
 19 25  1  0  0  0  0
 19 28  1  6  0  0  0
 19 20  1  0  0  0  0
 19 18  1  0  0  0  0
 20 24  1  0  0  0  0
 20 26  1  0  0  0  0
 20 40  1  0  0  0  0
 24 26  1  0  0  0  0
 24 41  1  0  0  0  0
 24 42  1  0  0  0  0
 25 43  1  0  0  0  0
 25 44  1  0  0  0  0
 26 45  1  0  0  0  0
 26 46  1  0  0  0  0
M  END
>  <DRUGBANK_ID>
DB08244

>  <COMMON_NAME>
(1S)-1-CYCLOPROPYL-2-[(2S)-4-(2,5-DIFLUOROPHENYL)-2-PHENYL-2,5-DIHYDRO-1H-PYRROL-1-YL]-2-OXOETHANAMINE

$$$$
