
 OpenBabel10282417133D

 34 33  0  0  0  0  0  0  0  0999 V2000
    0.9251    0.0526   -0.0126 C   0  0  0  0  0  0  0  0  0  0  0  0
    0.3837    1.0203    0.9391 N   0  0  0  0  0  0  0  0  0  0  0  0
   -1.0799    1.0125    1.0030 C   0  0  0  0  0  0  0  0  0  0  0  0
   -1.6444   -0.2975    1.4565 C   0  0  0  0  0  0  0  0  0  0  0  0
   -2.3834   -0.4623    2.5058 C   0  0  0  0  0  0  0  0  0  0  0  0
   -3.1221   -0.6158    3.5614 C   0  0  0  0  0  0  0  0  0  0  0  0
    0.4614    0.3226   -1.4491 C   0  0  0  0  0  0  0  0  0  0  0  0
    0.9160   -0.7655   -2.4188 C   0  0  0  0  0  0  0  0  0  0  0  0
    0.4078   -2.1569   -2.0332 C   0  0  0  0  0  0  0  0  0  0  0  0
   -1.0519   -2.2052   -1.9639 N   0  0  0  0  0  0  0  0  0  0  0  0
   -1.5564   -3.4985   -1.5156 C   0  0  0  0  0  0  0  0  0  0  0  0
   -1.1524   -3.8399   -0.1124 C   0  0  0  0  0  0  0  0  0  0  0  0
   -1.9733   -4.0353    0.8742 C   0  0  0  0  0  0  0  0  0  0  0  0
   -2.8019   -4.2304    1.8530 C   0  0  0  0  0  0  0  0  0  0  0  0
    0.6619   -0.9529    0.3261 H   0  0  0  0  0  0  0  0  0  0  0  0
    2.0206    0.0831    0.0197 H   0  0  0  0  0  0  0  0  0  0  0  0
    0.7434    0.8068    1.8698 H   0  0  0  0  0  0  0  0  0  0  0  0
   -1.3915    1.8093    1.6857 H   0  0  0  0  0  0  0  0  0  0  0  0
   -1.5209    1.2858    0.0395 H   0  0  0  0  0  0  0  0  0  0  0  0
   -1.4291   -1.1757    0.8600 H   0  0  0  0  0  0  0  0  0  0  0  0
   -4.1123   -1.0437    3.4784 H   0  0  0  0  0  0  0  0  0  0  0  0
   -2.7656   -0.2729    4.5233 H   0  0  0  0  0  0  0  0  0  0  0  0
   -0.6281    0.3844   -1.5185 H   0  0  0  0  0  0  0  0  0  0  0  0
    0.8326    1.2994   -1.7782 H   0  0  0  0  0  0  0  0  0  0  0  0
    0.5682   -0.5136   -3.4274 H   0  0  0  0  0  0  0  0  0  0  0  0
    2.0114   -0.7815   -2.4482 H   0  0  0  0  0  0  0  0  0  0  0  0
    0.7710   -2.8888   -2.7603 H   0  0  0  0  0  0  0  0  0  0  0  0
    0.8604   -2.4265   -1.0758 H   0  0  0  0  0  0  0  0  0  0  0  0
   -1.4277   -1.4844   -1.3515 H   0  0  0  0  0  0  0  0  0  0  0  0
   -2.6509   -3.4704   -1.5875 H   0  0  0  0  0  0  0  0  0  0  0  0
   -1.2196   -4.2805   -2.2029 H   0  0  0  0  0  0  0  0  0  0  0  0
   -0.0912   -3.9285    0.0979 H   0  0  0  0  0  0  0  0  0  0  0  0
   -2.6039   -3.8235    2.8375 H   0  0  0  0  0  0  0  0  0  0  0  0
   -3.7188   -4.7804    1.6851 H   0  0  0  0  0  0  0  0  0  0  0  0
  1  2  1  0  0  0  0
  1  7  1  0  0  0  0
  1 15  1  0  0  0  0
  1 16  1  0  0  0  0
  2  3  1  0  0  0  0
  2 17  1  0  0  0  0
  3  4  1  0  0  0  0
  3 18  1  0  0  0  0
  3 19  1  0  0  0  0
  4  5  2  0  0  0  0
  4 20  1  0  0  0  0
  5  6  2  0  0  0  0
  6 21  1  0  0  0  0
  6 22  1  0  0  0  0
  7  8  1  0  0  0  0
  7 23  1  0  0  0  0
  7 24  1  0  0  0  0
  8  9  1  0  0  0  0
  8 25  1  0  0  0  0
  8 26  1  0  0  0  0
  9 10  1  0  0  0  0
  9 27  1  0  0  0  0
  9 28  1  0  0  0  0
 10 11  1  0  0  0  0
 10 29  1  0  0  0  0
 11 12  1  0  0  0  0
 11 30  1  0  0  0  0
 11 31  1  0  0  0  0
 12 13  2  0  0  0  0
 12 32  1  0  0  0  0
 13 14  2  0  0  0  0
 14 33  1  0  0  0  0
 14 34  1  0  0  0  0
M  END
>  <DRUGBANK_ID>
DB04188

>  <SECONDARY_ACCESSION_NUMBERS>
EXPT02139

>  <COMMON_NAME>
MDL72527

>  <CAS_NUMBER>
99207-33-7

>  <UNII>
G28L05X0YB

$$$$
