
 OpenBabel10282417183D

 92 91  0  0  0  0  0  0  0  0999 V2000
    1.1601   -0.1434   -0.0523 C   0  0  0  0  0  0  0  0  0  0  0  0
    0.5693    0.5339   -1.2866 C   0  0  0  0  0  0  0  0  0  0  0  0
    1.0563   -0.1643   -2.5546 C   0  0  0  0  0  0  0  0  0  0  0  0
   -0.9708    0.5574   -1.2348 C   0  0  0  0  0  0  0  0  0  0  0  0
   -1.5443    1.3080   -0.0223 C   0  0  0  0  0  0  0  0  0  0  0  0
   -1.1237    2.7786    0.0492 C   0  0  0  0  0  0  0  0  0  0  0  0
   -1.5727    3.6059   -1.1683 C   0  0  3  0  0  0  0  0  0  0  0  0
   -3.0983    3.6496   -1.2861 C   0  0  0  0  0  0  0  0  0  0  0  0
   -0.9842    5.0305   -1.1276 C   0  0  0  0  0  0  0  0  0  0  0  0
    0.5526    5.0718   -1.1900 C   0  0  0  0  0  0  0  0  0  0  0  0
    1.1366    4.4258   -2.4452 C   0  0  0  0  0  0  0  0  0  0  0  0
    0.6664    5.0768   -3.7557 C   0  0  3  0  0  0  0  0  0  0  0  0
    1.1361    6.5265   -3.8524 C   0  0  0  0  0  0  0  0  0  0  0  0
    1.1476    4.2608   -4.9649 C   0  0  0  0  0  0  0  0  0  0  0  0
    0.5705    2.8384   -4.9996 C   0  0  0  0  0  0  0  0  0  0  0  0
   -0.9629    2.7727   -4.9992 C   0  0  0  0  0  0  0  0  0  0  0  0
   -1.5929    3.4441   -6.2154 C   0  0  0  0  0  0  0  0  0  0  0  0
   -1.1389    2.8090   -7.5392 C   0  0  3  0  0  0  0  0  0  0  0  0
   -1.5765    1.3452   -7.6286 C   0  0  0  0  0  0  0  0  0  0  0  0
   -1.6432    3.6242   -8.7427 C   0  0  0  0  0  0  0  0  0  0  0  0
   -1.0848    5.0580   -8.7885 C   0  0  0  0  0  0  0  0  0  0  0  0
    0.4422    5.1312   -8.8416 C   0  0  0  0  0  0  0  0  0  0  0  0
    1.0679    4.4200  -10.0526 C   0  0  3  0  0  0  0  0  0  0  0  0
    0.6175    5.0802  -11.3546 C   0  0  0  0  0  0  0  0  0  0  0  0
    2.6041    4.4009   -9.9368 C   0  0  0  0  0  0  0  0  0  0  0  0
    3.1174    3.5931   -8.7306 C   0  0  0  0  0  0  0  0  0  0  0  0
    2.6849    2.1191   -8.7360 C   0  0  0  0  0  0  0  0  0  0  0  0
    3.1493    1.3473   -9.9810 C   0  0  0  0  0  0  0  0  0  0  0  0
    4.6741    1.3214  -10.0609 C   0  0  0  0  0  0  0  0  0  0  0  0
    2.5833   -0.0712   -9.9768 C   0  0  0  0  0  0  0  0  0  0  0  0
    0.7983   -1.1717    0.0370 H   0  0  0  0  0  0  0  0  0  0  0  0
    0.8952    0.3935    0.8635 H   0  0  0  0  0  0  0  0  0  0  0  0
    2.2529   -0.1611   -0.1046 H   0  0  0  0  0  0  0  0  0  0  0  0
    0.9531    1.5558   -1.3196 H   0  0  0  0  0  0  0  0  0  0  0  0
    0.7483   -1.2123   -2.5795 H   0  0  0  0  0  0  0  0  0  0  0  0
    0.6511    0.3168   -3.4480 H   0  0  0  0  0  0  0  0  0  0  0  0
    2.1492   -0.1207   -2.6202 H   0  0  0  0  0  0  0  0  0  0  0  0
   -1.3602    0.9994   -2.1614 H   0  0  0  0  0  0  0  0  0  0  0  0
   -1.3532   -0.4689   -1.2201 H   0  0  0  0  0  0  0  0  0  0  0  0
   -2.6360    1.2297   -0.0309 H   0  0  0  0  0  0  0  0  0  0  0  0
   -1.2333    0.8128    0.9044 H   0  0  0  0  0  0  0  0  0  0  0  0
   -1.5142    3.2312    0.9651 H   0  0  0  0  0  0  0  0  0  0  0  0
   -0.0341    2.8098    0.1491 H   0  0  0  0  0  0  0  0  0  0  0  0
   -1.2111    3.1200   -2.0685 H   0  0  0  0  0  0  0  0  0  0  0  0
   -3.5503    4.1104   -0.4058 H   0  0  0  0  0  0  0  0  0  0  0  0
   -3.4037    4.2127   -2.1749 H   0  0  0  0  0  0  0  0  0  0  0  0
   -3.5164    2.6436   -1.4000 H   0  0  0  0  0  0  0  0  0  0  0  0
   -1.3959    5.6107   -1.9644 H   0  0  0  0  0  0  0  0  0  0  0  0
   -1.3150    5.5427   -0.2209 H   0  0  0  0  0  0  0  0  0  0  0  0
    0.8911    6.1098   -1.1158 H   0  0  0  0  0  0  0  0  0  0  0  0
    0.9810    4.5715   -0.3148 H   0  0  0  0  0  0  0  0  0  0  0  0
    2.2297    4.4326   -2.3966 H   0  0  0  0  0  0  0  0  0  0  0  0
    0.8585    3.3707   -2.4349 H   0  0  0  0  0  0  0  0  0  0  0  0
   -0.4226    5.1080   -3.7898 H   0  0  0  0  0  0  0  0  0  0  0  0
    2.2249    6.5938   -3.8178 H   0  0  0  0  0  0  0  0  0  0  0  0
    0.7823    6.9854   -4.7818 H   0  0  0  0  0  0  0  0  0  0  0  0
    0.7257    7.1237   -3.0317 H   0  0  0  0  0  0  0  0  0  0  0  0
    0.8629    4.7967   -5.8735 H   0  0  0  0  0  0  0  0  0  0  0  0
    2.2400    4.2039   -4.9765 H   0  0  0  0  0  0  0  0  0  0  0  0
    0.9789    2.3065   -5.8673 H   0  0  0  0  0  0  0  0  0  0  0  0
    0.9499    2.2781   -4.1461 H   0  0  0  0  0  0  0  0  0  0  0  0
   -1.2911    1.7336   -4.9171 H   0  0  0  0  0  0  0  0  0  0  0  0
   -1.3741    3.2635   -4.1136 H   0  0  0  0  0  0  0  0  0  0  0  0
   -2.6826    3.4136   -6.1376 H   0  0  0  0  0  0  0  0  0  0  0  0
   -1.3246    4.5047   -6.1814 H   0  0  0  0  0  0  0  0  0  0  0  0
   -0.0568    2.8040   -7.5781 H   0  0  0  0  0  0  0  0  0  0  0  0
   -2.6617    1.2509   -7.5839 H   0  0  0  0  0  0  0  0  0  0  0  0
   -1.2159    0.8901   -8.5575 H   0  0  0  0  0  0  0  0  0  0  0  0
   -1.1479    0.7527   -6.8116 H   0  0  0  0  0  0  0  0  0  0  0  0
   -1.3670    3.0978   -9.6664 H   0  0  0  0  0  0  0  0  0  0  0  0
   -2.7333    3.6654   -8.7330 H   0  0  0  0  0  0  0  0  0  0  0  0
   -1.5139    5.5841   -9.6473 H   0  0  0  0  0  0  0  0  0  0  0  0
   -1.4257    5.6258   -7.9156 H   0  0  0  0  0  0  0  0  0  0  0  0
    0.7640    6.1771   -8.8144 H   0  0  0  0  0  0  0  0  0  0  0  0
    0.8321    4.6901   -7.9238 H   0  0  0  0  0  0  0  0  0  0  0  0
    0.7231    3.3851  -10.0956 H   0  0  0  0  0  0  0  0  0  0  0  0
    0.9143    6.1309  -11.3888 H   0  0  0  0  0  0  0  0  0  0  0  0
    1.0436    4.5626  -12.2197 H   0  0  0  0  0  0  0  0  0  0  0  0
   -0.4708    5.0283  -11.4630 H   0  0  0  0  0  0  0  0  0  0  0  0
    3.0310    3.9871  -10.8589 H   0  0  0  0  0  0  0  0  0  0  0  0
    2.9864    5.4249   -9.8679 H   0  0  0  0  0  0  0  0  0  0  0  0
    4.2102    3.6618   -8.6981 H   0  0  0  0  0  0  0  0  0  0  0  0
    2.7903    4.0546   -7.7929 H   0  0  0  0  0  0  0  0  0  0  0  0
    3.0654    1.6349   -7.8285 H   0  0  0  0  0  0  0  0  0  0  0  0
    1.5959    2.0484   -8.6656 H   0  0  0  0  0  0  0  0  0  0  0  0
    2.7599    1.8346  -10.8814 H   0  0  0  0  0  0  0  0  0  0  0  0
    5.1028    0.8573   -9.1670 H   0  0  0  0  0  0  0  0  0  0  0  0
    5.0109    0.7651  -10.9396 H   0  0  0  0  0  0  0  0  0  0  0  0
    5.0863    2.3317  -10.1465 H   0  0  0  0  0  0  0  0  0  0  0  0
    1.4875   -0.0507   -9.9790 H   0  0  0  0  0  0  0  0  0  0  0  0
    2.9053   -0.6133  -10.8723 H   0  0  0  0  0  0  0  0  0  0  0  0
    2.9132   -0.6320   -9.0975 H   0  0  0  0  0  0  0  0  0  0  0  0
  1  2  1  0  0  0  0
  1 31  1  0  0  0  0
  1 32  1  0  0  0  0
  1 33  1  0  0  0  0
  2  3  1  0  0  0  0
  2  4  1  0  0  0  0
  2 34  1  0  0  0  0
  3 35  1  0  0  0  0
  3 36  1  0  0  0  0
  3 37  1  0  0  0  0
  4  5  1  0  0  0  0
  4 38  1  0  0  0  0
  4 39  1  0  0  0  0
  5  6  1  0  0  0  0
  5 40  1  0  0  0  0
  5 41  1  0  0  0  0
  6  7  1  0  0  0  0
  6 42  1  0  0  0  0
  6 43  1  0  0  0  0
  7  8  1  0  0  0  0
  7  9  1  0  0  0  0
  7 44  1  0  0  0  0
  8 45  1  0  0  0  0
  8 46  1  0  0  0  0
  8 47  1  0  0  0  0
  9 10  1  0  0  0  0
  9 48  1  0  0  0  0
  9 49  1  0  0  0  0
 10 11  1  0  0  0  0
 10 50  1  0  0  0  0
 10 51  1  0  0  0  0
 11 12  1  0  0  0  0
 11 52  1  0  0  0  0
 11 53  1  0  0  0  0
 12 13  1  0  0  0  0
 12 14  1  0  0  0  0
 12 54  1  0  0  0  0
 13 55  1  0  0  0  0
 13 56  1  0  0  0  0
 13 57  1  0  0  0  0
 14 15  1  0  0  0  0
 14 58  1  0  0  0  0
 14 59  1  0  0  0  0
 15 16  1  0  0  0  0
 15 60  1  0  0  0  0
 15 61  1  0  0  0  0
 16 17  1  0  0  0  0
 16 62  1  0  0  0  0
 16 63  1  0  0  0  0
 17 18  1  0  0  0  0
 17 64  1  0  0  0  0
 17 65  1  0  0  0  0
 18 19  1  0  0  0  0
 18 20  1  0  0  0  0
 18 66  1  0  0  0  0
 19 67  1  0  0  0  0
 19 68  1  0  0  0  0
 19 69  1  0  0  0  0
 20 21  1  0  0  0  0
 20 70  1  0  0  0  0
 20 71  1  0  0  0  0
 21 22  1  0  0  0  0
 21 72  1  0  0  0  0
 21 73  1  0  0  0  0
 22 23  1  0  0  0  0
 22 74  1  0  0  0  0
 22 75  1  0  0  0  0
 23 24  1  0  0  0  0
 23 25  1  0  0  0  0
 23 76  1  0  0  0  0
 24 77  1  0  0  0  0
 24 78  1  0  0  0  0
 24 79  1  0  0  0  0
 25 26  1  0  0  0  0
 25 80  1  0  0  0  0
 25 81  1  0  0  0  0
 26 27  1  0  0  0  0
 26 82  1  0  0  0  0
 26 83  1  0  0  0  0
 27 28  1  0  0  0  0
 27 84  1  0  0  0  0
 27 85  1  0  0  0  0
 28 29  1  0  0  0  0
 28 30  1  0  0  0  0
 28 86  1  0  0  0  0
 29 87  1  0  0  0  0
 29 88  1  0  0  0  0
 29 89  1  0  0  0  0
 30 90  1  0  0  0  0
 30 91  1  0  0  0  0
 30 92  1  0  0  0  0
M  END
>  <DRUGBANK_ID>
DB11420

>  <COMMON_NAME>
Squalane

>  <CAS_NUMBER>
111-01-3

>  <UNII>
GW89575KF9

>  <SYNONYMS>
Hexamethyltetracosane

$$$$
