
 OpenBabel10282417233D

 47 50  0  0  1  0  0  0  0  0999 V2000
   -0.6270    0.2456   -7.0218 C   0  0  0  0  0  0  0  0  0  0  0  0
   -1.8024    0.8150   -6.3753 N   0  0  0  0  0  0  0  0  0  0  0  0
   -1.6856    1.0657   -4.9415 C   0  0  0  0  0  0  0  0  0  0  0  0
   -2.9906    0.9041   -7.1342 C   0  0  0  0  0  0  0  0  0  0  0  0
   -3.0373    0.5418   -8.3155 O   0  0  0  0  0  0  0  0  0  0  0  0
   -4.2328    1.5138   -6.5520 C   0  0  0  0  0  0  0  0  0  0  0  0
   -4.0975    2.6252   -5.7252 C   0  0  0  0  0  0  0  0  0  0  0  0
   -5.1369    3.4097   -5.2248 C   0  0  0  0  0  0  0  0  0  0  0  0
   -4.9724    4.5606   -4.4837 O   0  0  0  0  0  0  0  0  0  0  0  0
   -3.6071    4.9937   -4.2716 C   0  0  1  0  0  0  0  0  0  0  0  0
   -2.9694    5.3943   -5.6146 C   0  0  0  0  0  0  0  0  0  0  0  0
   -1.5906    5.9296   -5.3445 C   0  0  0  0  0  0  0  0  0  0  0  0
   -1.6858    7.1940   -4.7031 O   0  0  0  0  0  0  0  0  0  0  0  0
   -2.5445    7.2127   -3.6325 C   0  0  0  0  0  0  0  0  0  0  0  0
   -2.4267    8.3345   -2.8138 C   0  0  0  0  0  0  0  0  0  0  0  0
   -3.2036    8.4234   -1.6696 C   0  0  0  0  0  0  0  0  0  0  0  0
   -3.0770    9.4903   -0.8704 F   0  0  0  0  0  0  0  0  0  0  0  0
   -4.0923    7.4129   -1.3310 C   0  0  0  0  0  0  0  0  0  0  0  0
   -4.2237    6.3095   -2.1722 C   0  0  0  0  0  0  0  0  0  0  0  0
   -5.0594    5.3277   -1.8077 F   0  0  0  0  0  0  0  0  0  0  0  0
   -3.4860    6.2003   -3.3540 C   0  0  0  0  0  0  0  0  0  0  0  0
   -6.3944    2.9695   -5.6076 C   0  0  0  0  0  0  0  0  0  0  0  0
   -7.6448    3.4648   -5.3533 N   0  0  0  0  0  0  0  0  0  0  0  0
   -8.5593    2.6450   -5.9605 C   0  0  0  0  0  0  0  0  0  0  0  0
  -10.0149    2.8845   -5.8464 C   0  0  0  0  0  0  0  0  0  0  0  0
   -7.9610    1.6707   -6.6163 N   0  0  0  0  0  0  0  0  0  0  0  0
   -6.6127    1.8553   -6.4187 C   0  0  0  0  0  0  0  0  0  0  0  0
   -5.5193    1.1132   -6.9171 C   0  0  0  0  0  0  0  0  0  0  0  0
    0.2120    0.1811   -6.3212 H   0  0  0  0  0  0  0  0  0  0  0  0
   -0.3281    0.8764   -7.8635 H   0  0  0  0  0  0  0  0  0  0  0  0
   -0.8595   -0.7599   -7.3841 H   0  0  0  0  0  0  0  0  0  0  0  0
   -1.6715    2.1395   -4.7497 H   0  0  0  0  0  0  0  0  0  0  0  0
   -2.5144    0.5889   -4.4152 H   0  0  0  0  0  0  0  0  0  0  0  0
   -0.7321    0.7152   -4.5440 H   0  0  0  0  0  0  0  0  0  0  0  0
   -3.0954    2.9356   -5.5342 H   0  0  0  0  0  0  0  0  0  0  0  0
   -3.0568    4.1902   -3.7568 H   0  0  0  0  0  0  0  0  0  0  0  0
   -3.6124    6.1313   -6.1084 H   0  0  0  0  0  0  0  0  0  0  0  0
   -2.8650    4.5938   -6.3432 H   0  0  0  0  0  0  0  0  0  0  0  0
   -0.9888    5.2417   -4.7337 H   0  0  0  0  0  0  0  0  0  0  0  0
   -1.0651    6.0551   -6.2965 H   0  0  0  0  0  0  0  0  0  0  0  0
   -1.7238    9.1262   -3.0557 H   0  0  0  0  0  0  0  0  0  0  0  0
   -4.6739    7.4831   -0.4191 H   0  0  0  0  0  0  0  0  0  0  0  0
   -7.8438    4.2881   -4.8023 H   0  0  0  0  0  0  0  0  0  0  0  0
  -10.3257    2.8498   -4.7974 H   0  0  0  0  0  0  0  0  0  0  0  0
  -10.2769    3.8653   -6.2551 H   0  0  0  0  0  0  0  0  0  0  0  0
  -10.5736    2.1215   -6.3955 H   0  0  0  0  0  0  0  0  0  0  0  0
   -5.6857    0.2665   -7.5749 H   0  0  0  0  0  0  0  0  0  0  0  0
  1  2  1  0  0  0  0
  1 29  1  0  0  0  0
  1 30  1  0  0  0  0
  1 31  1  0  0  0  0
  2  3  1  0  0  0  0
  2  4  1  0  0  0  0
  3 32  1  0  0  0  0
  3 33  1  0  0  0  0
  3 34  1  0  0  0  0
  4  5  2  0  0  0  0
  4  6  1  0  0  0  0
  6  7  2  0  0  0  0
  6 28  1  0  0  0  0
  7  8  1  0  0  0  0
  7 35  1  0  0  0  0
  8  9  1  0  0  0  0
  8 22  2  0  0  0  0
 10 11  1  0  0  0  0
 10 21  1  0  0  0  0
 10 36  1  1  0  0  0
 10  9  1  0  0  0  0
 11 12  1  0  0  0  0
 11 37  1  0  0  0  0
 11 38  1  0  0  0  0
 12 13  1  0  0  0  0
 12 39  1  0  0  0  0
 12 40  1  0  0  0  0
 13 14  1  0  0  0  0
 14 15  2  0  0  0  0
 14 21  1  0  0  0  0
 15 16  1  0  0  0  0
 15 41  1  0  0  0  0
 16 17  1  0  0  0  0
 16 18  2  0  0  0  0
 18 19  1  0  0  0  0
 18 42  1  0  0  0  0
 19 20  1  0  0  0  0
 19 21  2  0  0  0  0
 22 23  1  0  0  0  0
 22 27  1  0  0  0  0
 23 24  1  0  0  0  0
 23 43  1  0  0  0  0
 24 25  1  0  0  0  0
 24 26  2  0  0  0  0
 25 44  1  0  0  0  0
 25 45  1  0  0  0  0
 25 46  1  0  0  0  0
 26 27  1  0  0  0  0
 27 28  2  0  0  0  0
 28 47  1  0  0  0  0
M  END
>  <DRUGBANK_ID>
DB16690

>  <COMMON_NAME>
Tegoprazan

>  <CAS_NUMBER>
942195-55-3

>  <UNII>
W017G7IF4S

>  <SYNONYMS>
CJ-12420; IN-A001; K-CAB; LXI-15028; RQ-00000004; Tegoprazan

$$$$
