
 OpenBabel10282417113D

 79 84  0  0  0  0  0  0  0  0999 V2000
    0.3368   -0.5283   -0.4757 C   0  0  0  0  0  0  0  0  0  0  0  0
    1.9499   -0.9431   -0.4171 N   0  0  0  0  0  0  0  0  0  0  0  0
    0.3766    0.8278   -0.1850 C   0  0  0  0  0  0  0  0  0  0  0  0
   -1.0557   -1.2524   -0.4260 C   0  0  0  0  0  0  0  0  0  0  0  0
    2.5242    0.2556   -0.1492 C   0  0  0  0  0  0  0  0  0  0  0  0
    2.8218   -2.4752    0.1267 C   0  0  0  0  0  0  0  0  0  0  0  0
    1.6832    1.2620    0.0084 N   0  0  0  0  0  0  0  0  0  0  0  0
   -0.8769    1.4899   -0.0411 C   0  0  0  0  0  0  0  0  0  0  0  0
   -2.2032   -0.5425   -0.1408 C   0  0  0  0  0  0  0  0  0  0  0  0
   -1.4699   -2.7376   -0.4671 C   0  0  0  0  0  0  0  0  0  0  0  0
    3.8267    0.2223    0.0465 O   0  0  0  0  0  0  0  0  0  0  0  0
    2.0904   -3.7285    1.3521 C   0  0  0  0  0  0  0  0  0  0  0  0
   -2.1239    0.8152   -0.0233 C   0  0  0  0  0  0  0  0  0  0  0  0
   -0.4806   -3.5976   -0.5734 O   0  0  0  0  0  0  0  0  0  0  0  0
   -2.5759   -3.1933   -0.2753 O   0  0  0  0  0  0  0  0  0  0  0  0
    4.4788    1.4611    0.0053 C   0  0  0  0  0  0  0  0  0  0  0  0
    0.4963   -3.9158    1.6904 C   0  0  0  0  0  0  0  0  0  0  0  0
    2.8503   -4.2571    2.3322 C   0  0  0  0  0  0  0  0  0  0  0  0
    0.6964   -2.8971   -0.3750 C   0  0  3  0  0  0  0  0  0  0  0  0
    4.1596    2.1970   -1.2820 C   0  0  0  0  0  0  0  0  0  0  0  0
   -0.1746   -4.1797    2.8204 C   0  0  0  0  0  0  0  0  0  0  0  0
    2.1101   -4.8090    3.4323 C   0  0  0  0  0  0  0  0  0  0  0  0
    0.8943   -2.2842   -1.7315 O   0  0  0  0  0  0  0  0  0  0  0  0
    0.9663   -1.7721    1.3344 C   0  0  0  0  0  0  0  0  0  0  0  0
    0.6705   -4.7121    3.6958 C   0  0  0  0  0  0  0  0  0  0  0  0
    1.3620   -2.7995   -2.8641 C   0  0  0  0  0  0  0  0  0  0  0  0
    0.0080   -5.1137    4.8977 C   0  0  0  0  0  0  0  0  0  0  0  0
    1.3977   -4.1386   -2.7339 O   0  0  0  0  0  0  0  0  0  0  0  0
    1.6509   -2.1227   -3.8054 O   0  0  0  0  0  0  0  0  0  0  0  0
   -1.1653   -5.9224    4.8726 C   0  0  0  0  0  0  0  0  0  0  0  0
    0.5103   -4.5684    6.0737 C   0  0  0  0  0  0  0  0  0  0  0  0
    1.3466   -4.7674   -3.9891 C   0  0  0  0  0  0  0  0  0  0  0  0
   -1.7929   -6.3928    3.6193 C   0  0  0  0  0  0  0  0  0  0  0  0
   -1.7141   -6.2701    6.0934 C   0  0  0  0  0  0  0  0  0  0  0  0
    0.0658   -5.0780    7.2649 C   0  0  0  0  0  0  0  0  0  0  0  0
   -0.0619   -5.3213   -4.1649 C   0  0  0  0  0  0  0  0  0  0  0  0
    2.4003   -5.8533   -3.9820 C   0  0  0  0  0  0  0  0  0  0  0  0
   -1.1327   -7.0978    2.6435 N   0  0  0  0  0  0  0  0  0  0  0  0
   -2.9982   -6.1263    3.1453 N   0  0  0  0  0  0  0  0  0  0  0  0
   -1.0303   -5.9411    7.2707 C   0  0  0  0  0  0  0  0  0  0  0  0
   -0.1342   -6.0677   -5.4832 C   0  0  0  0  0  0  0  0  0  0  0  0
    2.3362   -6.6125   -5.2922 C   0  0  0  0  0  0  0  0  0  0  0  0
   -1.9178   -7.2838    1.5751 N   0  0  0  0  0  0  0  0  0  0  0  0
   -3.0537   -6.6737    1.8785 N   0  0  0  0  0  0  0  0  0  0  0  0
    0.9312   -7.1621   -5.5419 C   0  0  0  0  0  0  0  0  0  0  0  0
    3.0014   -2.9186   -0.8716 H   0  0  0  0  0  0  0  0  0  0  0  0
    3.7904   -2.0912    0.4620 H   0  0  0  0  0  0  0  0  0  0  0  0
   -0.9026    2.5640    0.0930 H   0  0  0  0  0  0  0  0  0  0  0  0
   -3.1548   -1.0676   -0.0201 H   0  0  0  0  0  0  0  0  0  0  0  0
   -3.0671    1.3405    0.0906 H   0  0  0  0  0  0  0  0  0  0  0  0
    4.2293    2.0196    0.9106 H   0  0  0  0  0  0  0  0  0  0  0  0
    5.5444    1.2147    0.0330 H   0  0  0  0  0  0  0  0  0  0  0  0
   -0.3190   -3.2625    1.3312 H   0  0  0  0  0  0  0  0  0  0  0  0
    3.9237   -4.1633    2.3179 H   0  0  0  0  0  0  0  0  0  0  0  0
    1.3568   -3.7749   -0.4848 H   0  0  0  0  0  0  0  0  0  0  0  0
    3.0955    2.4356   -1.3703 H   0  0  0  0  0  0  0  0  0  0  0  0
    4.7083    3.1328   -1.3212 H   0  0  0  0  0  0  0  0  0  0  0  0
    4.3918    1.5675   -2.1485 H   0  0  0  0  0  0  0  0  0  0  0  0
   -1.2274   -3.8694    2.9757 H   0  0  0  0  0  0  0  0  0  0  0  0
    2.6705   -5.3418    4.1873 H   0  0  0  0  0  0  0  0  0  0  0  0
    1.0830   -2.1548    2.3808 H   0  0  0  0  0  0  0  0  0  0  0  0
    1.9769   -1.2862    1.5326 H   0  0  0  0  0  0  0  0  0  0  0  0
    0.2030   -1.0485    1.6050 H   0  0  0  0  0  0  0  0  0  0  0  0
    1.2633   -3.7812    6.0329 H   0  0  0  0  0  0  0  0  0  0  0  0
    1.5593   -4.0780   -4.8153 H   0  0  0  0  0  0  0  0  0  0  0  0
   -2.6407   -6.8346    6.1321 H   0  0  0  0  0  0  0  0  0  0  0  0
    0.5809   -4.7983    8.1757 H   0  0  0  0  0  0  0  0  0  0  0  0
   -0.3196   -5.9817   -3.3259 H   0  0  0  0  0  0  0  0  0  0  0  0
   -0.7986   -4.5076   -4.1364 H   0  0  0  0  0  0  0  0  0  0  0  0
    3.3898   -5.4024   -3.8359 H   0  0  0  0  0  0  0  0  0  0  0  0
    2.2455   -6.5247   -3.1278 H   0  0  0  0  0  0  0  0  0  0  0  0
   -0.1739   -7.4155    2.6226 H   0  0  0  0  0  0  0  0  0  0  0  0
   -1.3642   -6.3539    8.2143 H   0  0  0  0  0  0  0  0  0  0  0  0
   -1.1313   -6.4976   -5.6124 H   0  0  0  0  0  0  0  0  0  0  0  0
    0.0264   -5.3561   -6.3031 H   0  0  0  0  0  0  0  0  0  0  0  0
    3.0666   -7.4252   -5.2781 H   0  0  0  0  0  0  0  0  0  0  0  0
    2.6114   -5.9336   -6.1093 H   0  0  0  0  0  0  0  0  0  0  0  0
    0.7042   -7.9238   -4.7859 H   0  0  0  0  0  0  0  0  0  0  0  0
    0.8999   -7.6485   -6.5205 H   0  0  0  0  0  0  0  0  0  0  0  0
  1  2  1  0  0  0  0
  1  3  2  0  0  0  0
  1  4  1  0  0  0  0
  2  5  1  0  0  0  0
  2  6  1  0  0  0  0
  3  7  1  0  0  0  0
  3  8  1  0  0  0  0
  4  9  2  0  0  0  0
  4 10  1  0  0  0  0
  5 11  1  0  0  0  0
  5  7  2  0  0  0  0
  6 12  1  0  0  0  0
  6 46  1  0  0  0  0
  6 47  1  0  0  0  0
  8 13  2  0  0  0  0
  8 48  1  0  0  0  0
  9 13  1  0  0  0  0
  9 49  1  0  0  0  0
 10 14  1  0  0  0  0
 10 15  2  0  0  0  0
 11 16  1  0  0  0  0
 12 17  1  0  0  0  0
 12 18  2  0  0  0  0
 13 50  1  0  0  0  0
 14 19  1  0  0  0  0
 16 20  1  0  0  0  0
 16 51  1  0  0  0  0
 16 52  1  0  0  0  0
 17 21  2  0  0  0  0
 17 53  1  0  0  0  0
 18 22  1  0  0  0  0
 18 54  1  0  0  0  0
 19 23  1  0  0  0  0
 19 24  1  0  0  0  0
 19 55  1  0  0  0  0
 20 56  1  0  0  0  0
 20 57  1  0  0  0  0
 20 58  1  0  0  0  0
 21 25  1  0  0  0  0
 21 59  1  0  0  0  0
 22 25  2  0  0  0  0
 22 60  1  0  0  0  0
 23 26  1  0  0  0  0
 24 61  1  0  0  0  0
 24 62  1  0  0  0  0
 24 63  1  0  0  0  0
 25 27  1  0  0  0  0
 26 28  1  0  0  0  0
 26 29  2  0  0  0  0
 27 30  1  0  0  0  0
 27 31  2  0  0  0  0
 28 32  1  0  0  0  0
 30 33  1  0  0  0  0
 30 34  2  0  0  0  0
 31 35  1  0  0  0  0
 31 64  1  0  0  0  0
 32 36  1  0  0  0  0
 32 37  1  0  0  0  0
 32 65  1  0  0  0  0
 33 38  1  0  0  0  0
 33 39  2  0  0  0  0
 34 40  1  0  0  0  0
 34 66  1  0  0  0  0
 35 40  2  0  0  0  0
 35 67  1  0  0  0  0
 36 41  1  0  0  0  0
 36 68  1  0  0  0  0
 36 69  1  0  0  0  0
 37 42  1  0  0  0  0
 37 70  1  0  0  0  0
 37 71  1  0  0  0  0
 38 43  1  0  0  0  0
 38 72  1  0  0  0  0
 39 44  1  0  0  0  0
 40 73  1  0  0  0  0
 41 45  1  0  0  0  0
 41 74  1  0  0  0  0
 41 75  1  0  0  0  0
 42 45  1  0  0  0  0
 42 76  1  0  0  0  0
 42 77  1  0  0  0  0
 43 44  2  0  0  0  0
 45 78  1  0  0  0  0
 45 79  1  0  0  0  0
M  END
>  <DRUGBANK_ID>
DB00796

>  <SECONDARY_ACCESSION_NUMBERS>
APRD00420

>  <COMMON_NAME>
Candesartan cilexetil

>  <CAS_NUMBER>
145040-37-5

>  <UNII>
R85M2X0D68

>  <SYNONYMS>
Candesartan cilexetil

$$$$
