
 OpenBabel10282417133D

 44 44  0  0  1  0  0  0  0  0999 V2000
    0.9263   -2.5608    0.8064 C   0  0  0  0  0  0  0  0  0  0  0  0
    0.4716   -1.4384   -0.1269 C   0  0  2  0  0  0  0  0  0  0  0  0
    1.1599   -0.0948    0.1183 C   0  0  0  0  0  0  0  0  0  0  0  0
    1.9844   -0.1670    1.3226 N   0  0  0  0  0  0  0  0  0  0  0  0
    2.8649    0.9607    1.5061 C   0  0  0  0  0  0  0  0  0  0  0  0
    2.0548    2.1902    1.7991 C   0  0  0  0  0  0  0  0  0  0  0  0
    1.6686    3.0534    0.7595 C   0  0  0  0  0  0  0  0  0  0  0  0
    2.0158    2.8517   -0.5486 O   0  0  0  0  0  0  0  0  0  0  0  0
    0.8486    4.1390    1.0434 C   0  0  0  0  0  0  0  0  0  0  0  0
    0.4228    5.0941   -0.0326 C   0  0  0  0  0  0  0  0  0  0  0  0
    0.3960    4.3937    2.2943 N   0  0  0  0  0  0  0  0  0  0  0  0
    0.7308    3.5312    3.2790 C   0  0  0  0  0  0  0  0  0  0  0  0
    1.5455    2.4167    3.0985 C   0  0  0  0  0  0  0  0  0  0  0  0
    1.9227    1.5889    4.3068 C   0  0  0  0  0  0  0  0  0  0  0  0
    2.7588    2.3346    5.1898 O   0  0  0  0  0  0  0  0  0  0  0  0
    4.1720    2.9266    4.3866 P   0  0  0  0  0  0  0  0  0  0  0  0
    3.3921    4.3646    4.3398 O   0  0  0  0  0  0  0  0  0  0  0  0
    4.7811    3.0982    5.8944 O   0  0  0  0  0  0  0  0  0  0  0  0
    5.4369    3.4565    3.6677 O   0  0  0  0  0  0  0  0  0  0  0  0
   -0.9290   -1.2525   -0.1152 O   0  0  0  0  0  0  0  0  0  0  0  0
   -1.7414   -0.9552    1.2339 P   0  0  0  0  0  0  0  0  0  0  0  0
   -2.8436    0.0368    0.6435 O   0  0  0  0  0  0  0  0  0  0  0  0
   -2.4951   -2.3568    1.3587 O   0  0  0  0  0  0  0  0  0  0  0  0
   -0.9818   -0.4666    2.4057 O   0  0  0  0  0  0  0  0  0  0  0  0
    0.7030   -2.3325    1.8549 H   0  0  0  0  0  0  0  0  0  0  0  0
    2.0077   -2.7218    0.7205 H   0  0  0  0  0  0  0  0  0  0  0  0
    0.4095   -3.4925    0.5787 H   0  0  0  0  0  0  0  0  0  0  0  0
    0.7159   -1.7437   -1.1502 H   0  0  0  0  0  0  0  0  0  0  0  0
    1.7756    0.1340   -0.7583 H   0  0  0  0  0  0  0  0  0  0  0  0
    0.4038    0.6989    0.1974 H   0  0  0  0  0  0  0  0  0  0  0  0
    1.3453   -0.2516    2.1229 H   0  0  0  0  0  0  0  0  0  0  0  0
    3.5503    0.7367    2.3292 H   0  0  0  0  0  0  0  0  0  0  0  0
    3.5400    1.0831    0.6539 H   0  0  0  0  0  0  0  0  0  0  0  0
    2.5442    2.0507   -0.6698 H   0  0  0  0  0  0  0  0  0  0  0  0
   -0.6686    5.1519   -0.0657 H   0  0  0  0  0  0  0  0  0  0  0  0
    0.8364    6.0841    0.1764 H   0  0  0  0  0  0  0  0  0  0  0  0
    0.7652    4.7942   -1.0282 H   0  0  0  0  0  0  0  0  0  0  0  0
    0.3684    3.8082    4.2681 H   0  0  0  0  0  0  0  0  0  0  0  0
    1.0255    1.2747    4.8496 H   0  0  0  0  0  0  0  0  0  0  0  0
    2.4566    0.6689    4.0582 H   0  0  0  0  0  0  0  0  0  0  0  0
    3.1157    4.5883    3.4310 H   0  0  0  0  0  0  0  0  0  0  0  0
    4.3498    2.4820    6.5085 H   0  0  0  0  0  0  0  0  0  0  0  0
   -2.4499    0.9090    0.4638 H   0  0  0  0  0  0  0  0  0  0  0  0
   -1.9573   -3.0556    0.9484 H   0  0  0  0  0  0  0  0  0  0  0  0
  1 25  1  0  0  0  0
  1 26  1  0  0  0  0
  1 27  1  0  0  0  0
  2 20  1  0  0  0  0
  2 28  1  6  0  0  0
  2  3  1  0  0  0  0
  2  1  1  0  0  0  0
  3  4  1  0  0  0  0
  3 29  1  0  0  0  0
  3 30  1  0  0  0  0
  4  5  1  0  0  0  0
  4 31  1  0  0  0  0
  5  6  1  0  0  0  0
  5 32  1  0  0  0  0
  5 33  1  0  0  0  0
  6  7  2  0  0  0  0
  6 13  1  0  0  0  0
  7  8  1  0  0  0  0
  7  9  1  0  0  0  0
  8 34  1  0  0  0  0
  9 10  1  0  0  0  0
  9 11  2  0  0  0  0
 10 35  1  0  0  0  0
 10 36  1  0  0  0  0
 10 37  1  0  0  0  0
 11 12  1  0  0  0  0
 12 13  2  0  0  0  0
 12 38  1  0  0  0  0
 13 14  1  0  0  0  0
 14 15  1  0  0  0  0
 14 39  1  0  0  0  0
 14 40  1  0  0  0  0
 15 16  1  0  0  0  0
 16 17  1  0  0  0  0
 16 18  1  0  0  0  0
 16 19  2  0  0  0  0
 17 41  1  0  0  0  0
 18 42  1  0  0  0  0
 20 21  1  0  0  0  0
 21 22  1  0  0  0  0
 21 23  1  0  0  0  0
 21 24  2  0  0  0  0
 22 43  1  0  0  0  0
 23 44  1  0  0  0  0
M  END
>  <DRUGBANK_ID>
DB03433

>  <SECONDARY_ACCESSION_NUMBERS>
EXPT00153

>  <COMMON_NAME>
{3-[(3-Hydroxy-2-Methyl-5-Phosphonooxymethyl-Pyridin-4-Ylmethyl)-Amino]-2-Methyl-Propyl}-Phosphonic Acid

$$$$
