
 OpenBabel10282417123D

 27 28  0  0  1  0  0  0  0  0999 V2000
    0.7235   -1.3406    1.0540 C   0  0  0  0  0  0  0  0  0  0  0  0
   -0.7795    0.1601   -0.2223 C   0  0  0  0  0  0  0  0  0  0  0  0
    0.5661    1.8713    1.9586 C   0  0  0  0  0  0  0  0  0  0  0  0
   -2.7343   -0.0215    2.0487 C   0  0  0  0  0  0  0  0  0  0  0  0
   -1.9208    1.2699    2.2166 C   0  0  0  0  0  0  0  0  0  0  0  0
   -1.0168   -1.1816    3.4052 C   0  0  0  0  0  0  0  0  0  0  0  0
   -1.6281   -1.0843    1.9857 C   0  0  2  0  0  0  0  0  0  0  0  0
   -0.4860   -0.3950    1.1926 C   0  0  0  0  0  0  0  0  0  0  0  0
   -0.4429    0.7617    2.2283 C   0  0  1  0  0  0  0  0  0  0  0  0
   -0.2362    0.0723    3.5264 N   0  0  0  0  0  0  0  0  0  0  0  0
   -1.9682   -2.0478    1.6003 H   0  0  0  0  0  0  0  0  0  0  0  0
    0.9915   -1.8916    1.9573 H   0  0  0  0  0  0  0  0  0  0  0  0
    1.6165   -0.8044    0.7243 H   0  0  0  0  0  0  0  0  0  0  0  0
    0.4904   -2.1071    0.3019 H   0  0  0  0  0  0  0  0  0  0  0  0
   -0.1141   -0.2800   -0.9740 H   0  0  0  0  0  0  0  0  0  0  0  0
   -1.8045   -0.0101   -0.5531 H   0  0  0  0  0  0  0  0  0  0  0  0
   -0.5807    1.2370   -0.2842 H   0  0  0  0  0  0  0  0  0  0  0  0
    0.9887    2.2840    2.8793 H   0  0  0  0  0  0  0  0  0  0  0  0
    1.3969    1.5160    1.3409 H   0  0  0  0  0  0  0  0  0  0  0  0
    0.0981    2.7086    1.4261 H   0  0  0  0  0  0  0  0  0  0  0  0
   -3.4357   -0.1815    2.8743 H   0  0  0  0  0  0  0  0  0  0  0  0
   -3.3150   -0.0043    1.1204 H   0  0  0  0  0  0  0  0  0  0  0  0
   -2.2016    1.8179    3.1226 H   0  0  0  0  0  0  0  0  0  0  0  0
   -2.1184    1.9317    1.3647 H   0  0  0  0  0  0  0  0  0  0  0  0
   -1.7590   -1.2594    4.2046 H   0  0  0  0  0  0  0  0  0  0  0  0
   -0.3509   -2.0467    3.5040 H   0  0  0  0  0  0  0  0  0  0  0  0
    0.7465   -0.1501    3.6439 H   0  0  0  0  0  0  0  0  0  0  0  0
  1 12  1  0  0  0  0
  1 13  1  0  0  0  0
  1 14  1  0  0  0  0
  2 15  1  0  0  0  0
  2 16  1  0  0  0  0
  2 17  1  0  0  0  0
  3 18  1  0  0  0  0
  3 19  1  0  0  0  0
  3 20  1  0  0  0  0
  4 21  1  0  0  0  0
  4 22  1  0  0  0  0
  5  4  1  0  0  0  0
  5 23  1  0  0  0  0
  5 24  1  0  0  0  0
  6 25  1  0  0  0  0
  6 26  1  0  0  0  0
  7  4  1  0  0  0  0
  7  6  1  0  0  0  0
  7 11  1  6  0  0  0
  8  7  1  0  0  0  0
  8  1  1  0  0  0  0
  8  2  1  0  0  0  0
  9  5  1  0  0  0  0
  9  8  1  0  0  0  0
  9  3  1  6  0  0  0
 10  6  1  0  0  0  0
 10  9  1  0  0  0  0
 10 27  1  0  0  0  0
M  END
>  <DRUGBANK_ID>
DB02409

>  <SECONDARY_ACCESSION_NUMBERS>
EXPT00106

>  <COMMON_NAME>
(1r,4s)-2-Azabornane

$$$$
