
 OpenBabel10282417223D

 29 31  0  0  0  0  0  0  0  0999 V2000
   -0.3952    0.2798    0.0205 C   0  0  0  0  0  0  0  0  0  0  0  0
    0.0652   -1.0434    0.0353 C   0  0  0  0  0  0  0  0  0  0  0  0
   -1.8546    0.5086   -0.0093 C   0  0  0  0  0  0  0  0  0  0  0  0
    0.5283    1.3329    0.0072 C   0  0  0  0  0  0  0  0  0  0  0  0
   -0.7751   -2.1349    0.0359 O   0  0  0  0  0  0  0  0  0  0  0  0
    1.4357   -1.3103    0.0348 C   0  0  0  0  0  0  0  0  0  0  0  0
   -2.6980   -0.6868   -0.0879 C   0  0  0  0  0  0  0  0  0  0  0  0
   -2.3943    1.6093    0.0117 O   0  0  0  0  0  0  0  0  0  0  0  0
    1.8984    1.0697   -0.0119 C   0  0  0  0  0  0  0  0  0  0  0  0
    0.0998    2.6292   -0.0001 O   0  0  0  0  0  0  0  0  0  0  0  0
   -2.1305   -1.8990   -0.0775 C   0  0  0  0  0  0  0  0  0  0  0  0
    2.3382   -0.2518   -0.0004 C   0  0  0  0  0  0  0  0  0  0  0  0
   -2.9957   -3.0836   -0.1219 C   0  0  0  0  0  0  0  0  0  0  0  0
    3.6686   -0.5499   -0.0321 O   0  0  0  0  0  0  0  0  0  0  0  0
   -3.0098   -3.9891    0.9447 C   0  0  0  0  0  0  0  0  0  0  0  0
   -3.9068   -3.2528   -1.1758 C   0  0  0  0  0  0  0  0  0  0  0  0
   -3.9440   -5.0270    0.9723 C   0  0  0  0  0  0  0  0  0  0  0  0
   -4.8709   -4.2586   -1.1210 C   0  0  0  0  0  0  0  0  0  0  0  0
   -4.8762   -5.1575   -0.0571 C   0  0  0  0  0  0  0  0  0  0  0  0
    1.7974   -2.3352    0.0461 H   0  0  0  0  0  0  0  0  0  0  0  0
   -3.7669   -0.5229   -0.1409 H   0  0  0  0  0  0  0  0  0  0  0  0
    2.6113    1.8862   -0.0424 H   0  0  0  0  0  0  0  0  0  0  0  0
    0.8447    3.2482   -0.0043 H   0  0  0  0  0  0  0  0  0  0  0  0
    4.1808    0.2750   -0.0757 H   0  0  0  0  0  0  0  0  0  0  0  0
   -2.3163   -3.8722    1.7743 H   0  0  0  0  0  0  0  0  0  0  0  0
   -3.8870   -2.5838   -2.0339 H   0  0  0  0  0  0  0  0  0  0  0  0
   -3.9632   -5.7171    1.8117 H   0  0  0  0  0  0  0  0  0  0  0  0
   -5.6277   -4.3270   -1.8981 H   0  0  0  0  0  0  0  0  0  0  0  0
   -5.6092   -5.9595   -0.0302 H   0  0  0  0  0  0  0  0  0  0  0  0
  1  2  1  0  0  0  0
  1  3  1  0  0  0  0
  1  4  2  0  0  0  0
  2  5  1  0  0  0  0
  2  6  2  0  0  0  0
  3  7  1  0  0  0  0
  3  8  2  0  0  0  0
  4  9  1  0  0  0  0
  4 10  1  0  0  0  0
  5 11  1  0  0  0  0
  6 12  1  0  0  0  0
  6 20  1  0  0  0  0
  7 11  2  0  0  0  0
  7 21  1  0  0  0  0
  9 12  2  0  0  0  0
  9 22  1  0  0  0  0
 10 23  1  0  0  0  0
 11 13  1  0  0  0  0
 12 14  1  0  0  0  0
 13 15  2  0  0  0  0
 13 16  1  0  0  0  0
 14 24  1  0  0  0  0
 15 17  1  0  0  0  0
 15 25  1  0  0  0  0
 16 18  2  0  0  0  0
 16 26  1  0  0  0  0
 17 19  2  0  0  0  0
 17 27  1  0  0  0  0
 18 19  1  0  0  0  0
 18 28  1  0  0  0  0
 19 29  1  0  0  0  0
M  END
>  <DRUGBANK_ID>
DB15581

>  <COMMON_NAME>
Chrysin

>  <CAS_NUMBER>
480-40-0

>  <UNII>
3CN01F5ZJ5

>  <SYNONYMS>
5,7-dihydroxyflavone; Galangin flavanone

$$$$
