
 OpenBabel10282417153D

 43 45  0  0  0  0  0  0  0  0999 V2000
   -1.1596    0.6846    0.0033 C   0  0  0  0  0  0  0  0  0  0  0  0
   -1.2455   -0.7429    0.0094 C   0  0  0  0  0  0  0  0  0  0  0  0
    0.2235    1.2393   -0.0565 C   0  0  0  0  0  0  0  0  0  0  0  0
    0.0296   -1.5710   -0.0008 C   0  0  0  0  0  0  0  0  0  0  0  0
    1.4059    0.4541    0.0272 C   0  0  0  0  0  0  0  0  0  0  0  0
    1.3507   -0.9020    0.0129 C   0  0  0  0  0  0  0  0  0  0  0  0
   -2.3284    1.5050    0.0077 C   0  0  0  0  0  0  0  0  0  0  0  0
   -2.5086   -1.3930    0.0127 C   0  0  0  0  0  0  0  0  0  0  0  0
    0.5784    2.3591   -0.2951 O   0  0  0  0  0  0  0  0  0  0  0  0
    0.0153   -2.7970   -0.0152 O   0  0  0  0  0  0  0  0  0  0  0  0
    3.8122    0.5438    0.0091 N   0  0  0  0  0  0  0  0  0  0  0  0
   -3.6419   -0.5754    0.0035 C   0  0  0  0  0  0  0  0  0  0  0  0
   -3.5559    0.8186    0.0011 C   0  0  0  0  0  0  0  0  0  0  0  0
    2.6276    1.1487    0.0213 C   0  0  0  0  0  0  0  0  0  0  0  0
   -2.4513    2.8920   -0.0331 N   0  0  0  0  0  0  0  0  0  0  0  0
   -2.6284   -2.7710   -0.0064 N   0  0  0  0  0  0  0  0  0  0  0  0
    2.5736   -1.5556    0.0025 C   0  0  0  0  0  0  0  0  0  0  0  0
   -2.8975   -5.4449   -1.2595 N   0  0  0  0  0  0  0  0  0  0  0  0
   -2.1104    5.6289   -1.3823 N   0  0  0  0  0  0  0  0  0  0  0  0
    3.7518   -0.7971    0.0026 C   0  0  0  0  0  0  0  0  0  0  0  0
   -1.4068    3.8970    0.0951 C   0  0  0  0  0  0  0  0  0  0  0  0
   -3.8633   -3.5460    0.0126 C   0  0  0  0  0  0  0  0  0  0  0  0
   -1.0908    4.5997   -1.2211 C   0  0  0  0  0  0  0  0  0  0  0  0
   -3.9556   -4.4329   -1.2373 C   0  0  0  0  0  0  0  0  0  0  0  0
   -4.6448   -0.9901   -0.0016 H   0  0  0  0  0  0  0  0  0  0  0  0
   -4.4986    1.3673   -0.0056 H   0  0  0  0  0  0  0  0  0  0  0  0
    2.6777    2.2402    0.0109 H   0  0  0  0  0  0  0  0  0  0  0  0
   -3.3847    3.2803    0.0578 H   0  0  0  0  0  0  0  0  0  0  0  0
   -1.7560   -3.3078    0.0529 H   0  0  0  0  0  0  0  0  0  0  0  0
    2.6253   -2.6342   -0.0058 H   0  0  0  0  0  0  0  0  0  0  0  0
   -2.9542   -5.9737   -2.1268 H   0  0  0  0  0  0  0  0  0  0  0  0
   -1.9976   -4.9618   -1.2774 H   0  0  0  0  0  0  0  0  0  0  0  0
   -1.9893    6.0941   -2.2747 H   0  0  0  0  0  0  0  0  0  0  0  0
   -3.0027    5.1391   -1.4004 H   0  0  0  0  0  0  0  0  0  0  0  0
    4.7304   -1.2566    0.0012 H   0  0  0  0  0  0  0  0  0  0  0  0
   -1.5252    4.5540    0.9621 H   0  0  0  0  0  0  0  0  0  0  0  0
   -0.5155    3.4914    0.4523 H   0  0  0  0  0  0  0  0  0  0  0  0
   -3.8935   -4.1598    0.9201 H   0  0  0  0  0  0  0  0  0  0  0  0
   -4.7614   -2.9279    0.0378 H   0  0  0  0  0  0  0  0  0  0  0  0
   -0.0852    5.0400   -1.1925 H   0  0  0  0  0  0  0  0  0  0  0  0
   -1.0960    3.9005   -2.0715 H   0  0  0  0  0  0  0  0  0  0  0  0
   -4.9316   -4.9290   -1.2532 H   0  0  0  0  0  0  0  0  0  0  0  0
   -3.8844   -3.8118   -2.1388 H   0  0  0  0  0  0  0  0  0  0  0  0
  2  1  2  0  0  0  0
  3  1  1  0  0  0  0
  4  2  1  0  0  0  0
  5  3  1  0  0  0  0
  6  5  2  0  0  0  0
  6  4  1  0  0  0  0
  7  1  1  0  0  0  0
  8 12  2  0  0  0  0
  8  2  1  0  0  0  0
  9  3  2  0  0  0  0
 10  4  2  0  0  0  0
 11 20  1  0  0  0  0
 11 14  2  0  0  0  0
 12 13  1  0  0  0  0
 12 25  1  0  0  0  0
 13  7  2  0  0  0  0
 13 26  1  0  0  0  0
 14  5  1  0  0  0  0
 14 27  1  0  0  0  0
 15  7  1  0  0  0  0
 15 28  1  0  0  0  0
 16  8  1  0  0  0  0
 16 29  1  0  0  0  0
 17  6  1  0  0  0  0
 17 30  1  0  0  0  0
 18 24  1  0  0  0  0
 18 31  1  0  0  0  0
 18 32  1  0  0  0  0
 19 23  1  0  0  0  0
 19 33  1  0  0  0  0
 19 34  1  0  0  0  0
 20 17  2  0  0  0  0
 20 35  1  0  0  0  0
 21 15  1  0  0  0  0
 21 36  1  0  0  0  0
 21 37  1  0  0  0  0
 22 16  1  0  0  0  0
 22 38  1  0  0  0  0
 22 39  1  0  0  0  0
 23 21  1  0  0  0  0
 23 40  1  0  0  0  0
 23 41  1  0  0  0  0
 24 22  1  0  0  0  0
 24 42  1  0  0  0  0
 24 43  1  0  0  0  0
M  END
>  <DRUGBANK_ID>
DB06193

>  <COMMON_NAME>
Pixantrone

>  <CAS_NUMBER>
144510-96-3

>  <UNII>
F5SXN2KNMR

>  <SYNONYMS>
6,9-bis((2-aminoethyl)amino)benzo(g)isoquinoline-5,10-dione; Pixantrona; Pixantrone

$$$$
