
 OpenBabel10282417123D

 36 35  0  0  1  0  0  0  0  0999 V2000
    1.1425    1.6151   -1.9573 C   0  0  0  0  0  0  0  0  0  0  0  0
    2.5965    1.2152   -2.2680 C   0  0  0  0  0  0  0  0  0  0  0  0
   -1.6380    2.5777   -1.0919 C   0  0  0  0  0  0  0  0  0  0  0  0
   -3.0519    2.1175   -1.5367 C   0  0  0  0  0  0  0  0  0  0  0  0
   -1.3740    1.3589    1.1329 C   0  0  0  0  0  0  0  0  0  0  0  0
    1.0920    0.0420    0.1159 C   0  0  0  0  0  0  0  0  0  0  0  0
   -0.9390    1.4272   -0.3776 C   0  0  2  0  0  0  0  0  0  0  0  0
    0.6113    1.3873   -0.4972 C   0  0  2  0  0  0  0  0  0  0  0  0
    3.6385    1.9589   -1.4751 C   0  0  0  0  0  0  0  0  0  0  0  0
   -2.7258    1.9088    1.5742 C   0  0  0  0  0  0  0  0  0  0  0  0
   -3.7912    1.0809   -0.8112 N   0  0  0  0  0  0  0  0  0  0  0  0
    2.3909    0.2430    0.7152 N   0  0  0  0  0  0  0  0  0  0  0  0
    4.4796    1.4102   -0.7601 O   0  0  0  0  0  0  0  0  0  0  0  0
    3.5246    3.2879   -1.4564 O   0  0  0  0  0  0  0  0  0  0  0  0
   -3.6396    1.2377    2.0081 O   0  0  0  0  0  0  0  0  0  0  0  0
   -2.9197    3.2123    1.2932 O   0  0  0  0  0  0  0  0  0  0  0  0
   -1.2540    0.5096   -0.8961 H   0  0  0  0  0  0  0  0  0  0  0  0
    0.9876    2.2252    0.1046 H   0  0  0  0  0  0  0  0  0  0  0  0
    0.4965    1.0677   -2.6576 H   0  0  0  0  0  0  0  0  0  0  0  0
    1.0320    2.6778   -2.2065 H   0  0  0  0  0  0  0  0  0  0  0  0
    2.7163    0.1406   -2.0784 H   0  0  0  0  0  0  0  0  0  0  0  0
    2.8293    1.3492   -3.3294 H   0  0  0  0  0  0  0  0  0  0  0  0
   -1.6125    3.4809   -0.4698 H   0  0  0  0  0  0  0  0  0  0  0  0
   -1.1163    2.9003   -2.0002 H   0  0  0  0  0  0  0  0  0  0  0  0
   -3.6937    2.9907   -1.6738 H   0  0  0  0  0  0  0  0  0  0  0  0
   -2.8927    1.6605   -2.5145 H   0  0  0  0  0  0  0  0  0  0  0  0
   -1.4249    0.2930    1.3889 H   0  0  0  0  0  0  0  0  0  0  0  0
   -0.6174    1.8120    1.7789 H   0  0  0  0  0  0  0  0  0  0  0  0
    0.4638   -0.3276    0.9286 H   0  0  0  0  0  0  0  0  0  0  0  0
    1.0929   -0.7489   -0.6446 H   0  0  0  0  0  0  0  0  0  0  0  0
   -4.4318    1.4409   -0.1034 H   0  0  0  0  0  0  0  0  0  0  0  0
   -3.1906    0.4332   -0.2989 H   0  0  0  0  0  0  0  0  0  0  0  0
    2.9630   -0.5961    0.6827 H   0  0  0  0  0  0  0  0  0  0  0  0
    2.9233    0.8917    0.1532 H   0  0  0  0  0  0  0  0  0  0  0  0
    4.1439    3.5612   -0.7420 H   0  0  0  0  0  0  0  0  0  0  0  0
   -3.8899    3.3157    1.1893 H   0  0  0  0  0  0  0  0  0  0  0  0
  1 19  1  0  0  0  0
  1 20  1  0  0  0  0
  2  1  1  0  0  0  0
  2 21  1  0  0  0  0
  2 22  1  0  0  0  0
  3 23  1  0  0  0  0
  3 24  1  0  0  0  0
  4  3  1  0  0  0  0
  4 25  1  0  0  0  0
  4 26  1  0  0  0  0
  5 27  1  0  0  0  0
  5 28  1  0  0  0  0
  6 29  1  0  0  0  0
  6 30  1  0  0  0  0
  7 17  1  6  0  0  0
  7  5  1  0  0  0  0
  7  3  1  0  0  0  0
  8  7  1  0  0  0  0
  8 18  1  1  0  0  0
  8  6  1  0  0  0  0
  8  1  1  0  0  0  0
  9  2  1  0  0  0  0
 10  5  1  0  0  0  0
 11  4  1  0  0  0  0
 11 31  1  0  0  0  0
 11 32  1  0  0  0  0
 12  6  1  0  0  0  0
 12 33  1  0  0  0  0
 12 34  1  0  0  0  0
 13  9  2  0  0  0  0
 14  9  1  0  0  0  0
 14 35  1  0  0  0  0
 15 10  2  0  0  0  0
 16 10  1  0  0  0  0
 16 36  1  0  0  0  0
M  END
>  <DRUGBANK_ID>
DB02878

>  <SECONDARY_ACCESSION_NUMBERS>
EXPT02503

>  <COMMON_NAME>
3-(2-Aminoethyl)-4-(Aminomethyl)Heptanedioic Acid

$$$$
