
 OpenBabel10282417203D

 30 32  0  0  0  0  0  0  0  0999 V2000
    3.4015    0.6593    0.3348 C   0  0  0  0  0  0  0  0  0  0  0  0
    3.3565   -0.6713   -0.3991 C   0  0  0  0  0  0  0  0  0  0  0  0
    2.1226   -1.4566    0.0288 C   0  0  0  0  0  0  0  0  0  0  0  0
    0.8568   -0.6397    0.0120 C   0  0  0  0  0  0  0  0  0  0  0  0
    0.8902    0.7749   -0.0042 C   0  0  0  0  0  0  0  0  0  0  0  0
   -0.3226    1.4806   -0.0202 C   0  0  0  0  0  0  0  0  0  0  0  0
   -1.4858    0.7332    0.0178 C   0  0  0  0  0  0  0  0  0  0  0  0
   -1.4205   -0.6538    0.0619 C   0  0  0  0  0  0  0  0  0  0  0  0
   -0.2900   -1.3650    0.0644 N   0  0  0  0  0  0  0  0  0  0  0  0
   -2.7912   -1.2599    0.1561 C   0  0  0  0  0  0  0  0  0  0  0  0
   -3.6659   -0.0824   -0.2888 C   0  0  0  0  0  0  0  0  0  0  0  0
   -2.9020    1.1980    0.0706 C   0  0  0  0  0  0  0  0  0  0  0  0
   -0.3761    2.8635   -0.0469 N   0  0  0  0  0  0  0  0  0  0  0  0
    2.2057    1.5133   -0.0683 C   0  0  0  0  0  0  0  0  0  0  0  0
    3.3851    0.4879    1.4189 H   0  0  0  0  0  0  0  0  0  0  0  0
    4.3294    1.1939    0.1054 H   0  0  0  0  0  0  0  0  0  0  0  0
    3.3302   -0.4943   -1.4818 H   0  0  0  0  0  0  0  0  0  0  0  0
    4.2583   -1.2544   -0.1862 H   0  0  0  0  0  0  0  0  0  0  0  0
    2.0030   -2.3247   -0.6300 H   0  0  0  0  0  0  0  0  0  0  0  0
    2.2647   -1.8352    1.0486 H   0  0  0  0  0  0  0  0  0  0  0  0
   -2.9070   -2.1252   -0.5024 H   0  0  0  0  0  0  0  0  0  0  0  0
   -3.0042   -1.5449    1.1910 H   0  0  0  0  0  0  0  0  0  0  0  0
   -3.8045   -0.1258   -1.3779 H   0  0  0  0  0  0  0  0  0  0  0  0
   -4.6611   -0.1078    0.1651 H   0  0  0  0  0  0  0  0  0  0  0  0
   -3.1042    1.9935   -0.6521 H   0  0  0  0  0  0  0  0  0  0  0  0
   -3.1445    1.5364    1.0829 H   0  0  0  0  0  0  0  0  0  0  0  0
    0.4631    3.4199   -0.1209 H   0  0  0  0  0  0  0  0  0  0  0  0
   -1.2627    3.3440   -0.0587 H   0  0  0  0  0  0  0  0  0  0  0  0
    2.1846    2.3869    0.5930 H   0  0  0  0  0  0  0  0  0  0  0  0
    2.3424    1.8732   -1.0963 H   0  0  0  0  0  0  0  0  0  0  0  0
  1  2  1  0  0  0  0
  1 14  1  0  0  0  0
  1 15  1  0  0  0  0
  1 16  1  0  0  0  0
  2  3  1  0  0  0  0
  2 17  1  0  0  0  0
  2 18  1  0  0  0  0
  3  4  1  0  0  0  0
  3 19  1  0  0  0  0
  3 20  1  0  0  0  0
  4  5  2  0  0  0  0
  4  9  1  0  0  0  0
  5  6  1  0  0  0  0
  5 14  1  0  0  0  0
  6  7  2  0  0  0  0
  6 13  1  0  0  0  0
  7  8  1  0  0  0  0
  7 12  1  0  0  0  0
  8  9  2  0  0  0  0
  8 10  1  0  0  0  0
 10 11  1  0  0  0  0
 10 21  1  0  0  0  0
 10 22  1  0  0  0  0
 11 12  1  0  0  0  0
 11 23  1  0  0  0  0
 11 24  1  0  0  0  0
 12 25  1  0  0  0  0
 12 26  1  0  0  0  0
 13 27  1  0  0  0  0
 13 28  1  0  0  0  0
 14 29  1  0  0  0  0
 14 30  1  0  0  0  0
M  END
>  <DRUGBANK_ID>
DB13668

>  <COMMON_NAME>
Ipidacrine

>  <CAS_NUMBER>
62732-44-9

>  <UNII>
CV71VTP0VN

>  <SYNONYMS>
Ipidacrine

$$$$
