1091
 OpenBabel10282417113D

 51 53  0  0  1  0  0  0  0  0999 V2000
    0.9172    0.4356   -0.0044 N   0  0  0  0  0  0  0  0  0  0  0  0
    2.0934    5.2044    3.8995 C   0  0  0  0  0  0  0  0  0  0  0  0
    1.4769    3.7965    3.5247 C   0  0  0  0  0  0  0  0  0  0  0  0
    2.5646    6.3572    2.9442 C   0  0  0  0  0  0  0  0  0  0  0  0
    0.9246    5.8078    4.6501 C   0  0  0  0  0  0  0  0  0  0  0  0
    3.3618    5.0066    4.7200 C   0  0  0  0  0  0  0  0  0  0  0  0
    0.4101    0.1944    1.3816 C   0  0  0  0  0  0  0  0  0  0  0  0
    0.6500    1.3005    2.3992 C   0  0  0  0  0  0  0  0  0  0  0  0
    2.2223    2.6016    3.7217 C   0  0  0  0  0  0  0  0  0  0  0  0
    0.2602    3.6696    2.8068 C   0  0  0  0  0  0  0  0  0  0  0  0
    0.2630    1.7522   -0.8017 C   0  0  0  0  0  0  0  0  0  0  0  0
    1.8325    1.3768    3.1560 C   0  0  0  0  0  0  0  0  0  0  0  0
   -0.1720    2.4336    2.2975 C   0  0  0  0  0  0  0  0  0  0  0  0
    0.5747    3.3822   -0.3027 C   0  0  0  0  0  0  0  0  0  0  0  0
    0.0790    5.0400   -0.2210 C   0  0  0  0  0  0  0  0  0  0  0  0
    2.3724    0.0781   -0.1456 C   0  0  0  0  0  0  0  0  0  0  0  0
    1.2374    5.2821   -0.5691 C   0  0  0  0  0  0  0  0  0  0  0  0
    1.8580    3.0352    0.2260 C   0  0  0  0  0  0  0  0  0  0  0  0
   -0.4852    6.7887   -0.1412 C   0  0  0  0  0  0  0  0  0  0  0  0
    2.1502    5.1823    0.4517 C   0  0  0  0  0  0  0  0  0  0  0  0
    2.5844    3.9655    0.8162 C   0  0  0  0  0  0  0  0  0  0  0  0
    1.4003    6.2991   -1.5220 C   0  0  0  0  0  0  0  0  0  0  0  0
    0.1573    7.8972   -0.8811 C   0  0  0  0  0  0  0  0  0  0  0  0
    1.4185    7.4973   -0.8575 C   0  0  0  0  0  0  0  0  0  0  0  0
    1.6898    6.8435    2.4978 H   0  0  0  0  0  0  0  0  0  0  0  0
    3.0387    7.2313    3.3999 H   0  0  0  0  0  0  0  0  0  0  0  0
    3.3364    6.0269    2.2300 H   0  0  0  0  0  0  0  0  0  0  0  0
    0.5911    5.1069    5.4159 H   0  0  0  0  0  0  0  0  0  0  0  0
    1.1861    6.7693    5.0811 H   0  0  0  0  0  0  0  0  0  0  0  0
    0.0855    5.9759    3.9548 H   0  0  0  0  0  0  0  0  0  0  0  0
    3.1969    4.2785    5.5103 H   0  0  0  0  0  0  0  0  0  0  0  0
    4.1820    4.6555    4.0683 H   0  0  0  0  0  0  0  0  0  0  0  0
    3.6892    5.9494    5.1604 H   0  0  0  0  0  0  0  0  0  0  0  0
   -0.6680    0.0346    1.3052 H   0  0  0  0  0  0  0  0  0  0  0  0
    0.8051   -0.7444    1.8051 H   0  0  0  0  0  0  0  0  0  0  0  0
    3.2721    2.6712    4.0137 H   0  0  0  0  0  0  0  0  0  0  0  0
   -0.1869    4.5517    2.3397 H   0  0  0  0  0  0  0  0  0  0  0  0
    0.7289    1.6021   -1.8028 H   0  0  0  0  0  0  0  0  0  0  0  0
   -0.7958    1.5211   -0.8507 H   0  0  0  0  0  0  0  0  0  0  0  0
    2.5830    0.5860    3.1072 H   0  0  0  0  0  0  0  0  0  0  0  0
   -0.9331    2.4327    1.5075 H   0  0  0  0  0  0  0  0  0  0  0  0
    2.6528   -0.8414    0.4053 H   0  0  0  0  0  0  0  0  0  0  0  0
    2.6899   -0.0678   -1.1832 H   0  0  0  0  0  0  0  0  0  0  0  0
    3.0917    0.7924    0.2694 H   0  0  0  0  0  0  0  0  0  0  0  0
    2.0200    2.0886    0.6813 H   0  0  0  0  0  0  0  0  0  0  0  0
   -0.1545    7.5482    0.8331 H   0  0  0  0  0  0  0  0  0  0  0  0
    1.6347    5.6174    1.3015 H   0  0  0  0  0  0  0  0  0  0  0  0
    2.8520    3.6754    1.8192 H   0  0  0  0  0  0  0  0  0  0  0  0
    0.5357    6.1323   -2.2365 H   0  0  0  0  0  0  0  0  0  0  0  0
   -0.2004    8.3083   -1.8162 H   0  0  0  0  0  0  0  0  0  0  0  0
    1.7918    7.4491    0.2155 H   0  0  0  0  0  0  0  0  0  0  0  0
  1  7  1  0  0  0  0
  1 11  1  0  0  0  0
  1 16  1  0  0  0  0
  2  3  1  0  0  0  0
  2  4  1  0  0  0  0
  2  5  1  0  0  0  0
  2  6  1  0  0  0  0
  3  9  2  0  0  0  0
  3 10  1  0  0  0  0
  4 25  1  0  0  0  0
  4 26  1  0  0  0  0
  4 27  1  0  0  0  0
  5 28  1  0  0  0  0
  5 29  1  0  0  0  0
  5 30  1  0  0  0  0
  6 31  1  0  0  0  0
  6 32  1  0  0  0  0
  6 33  1  0  0  0  0
  7  8  1  0  0  0  0
  7 34  1  0  0  0  0
  7 35  1  0  0  0  0
  8 12  2  0  0  0  0
  8 13  1  0  0  0  0
  9 12  1  0  0  0  0
  9 36  1  0  0  0  0
 10 13  2  0  0  0  0
 10 37  1  0  0  0  0
 11 14  1  0  0  0  0
 11 38  1  0  0  0  0
 11 39  1  0  0  0  0
 12 40  1  0  0  0  0
 13 41  1  0  0  0  0
 14 15  1  0  0  0  0
 14 18  2  0  0  0  0
 15 17  1  0  0  0  0
 15 19  2  0  0  0  0
 16 42  1  0  0  0  0
 16 43  1  0  0  0  0
 16 44  1  0  0  0  0
 17 20  1  0  0  0  0
 17 22  2  0  0  0  0
 18 21  1  0  0  0  0
 18 45  1  0  0  0  0
 19 23  1  0  0  0  0
 19 46  1  0  0  0  0
 20 21  2  0  0  0  0
 20 47  1  0  0  0  0
 21 48  1  0  0  0  0
 22 24  1  0  0  0  0
 22 49  1  0  0  0  0
 23 24  2  0  0  0  0
 23 50  1  0  0  0  0
 24 51  1  0  0  0  0
M  END
>  <DRUGBANK_ID>
DB01091

>  <SECONDARY_ACCESSION_NUMBERS>
APRD00833

>  <COMMON_NAME>
Butenafine

>  <CAS_NUMBER>
101828-21-1

>  <UNII>
91Y494NL0X

>  <SYNONYMS>
(4-tert-Butyl-benzyl)-methyl-naphthalen-1-ylmethyl-amine; (4-tert-butylphenyl)-N-methyl-N-(naphthalen-1-ylmethyl)methanamine; 4-tert-butylbenzyl(methyl)(1-naphthalenemethyl)amine; Butenafina; Butenafine; Butenafinum; N-(p-tert-butylbenzyl)-N-methyl-1-naphthalenemethylamine

$$$$
