
 OpenBabel10282417143D

 20 19  0  0  1  0  0  0  0  0999 V2000
   -1.9057   -1.9974   -2.2688 C   0  0  0  0  0  0  0  0  0  0  0  0
   -1.5987   -0.9138   -1.2300 C   0  0  0  0  0  0  0  0  0  0  0  0
   -2.8316   -0.0252   -1.0402 C   0  0  0  0  0  0  0  0  0  0  0  0
   -1.0962   -1.4862    0.1253 C   0  0  2  0  0  0  0  0  0  0  0  0
    0.3840   -1.5251    0.1519 N   0  0  0  0  0  0  0  0  0  0  0  0
   -1.6191   -2.9088    0.4324 C   0  0  0  0  0  0  0  0  0  0  0  0
   -1.1084   -3.3786    1.6753 O   0  0  0  0  0  0  0  0  0  0  0  0
   -2.7594   -2.6117   -1.9581 H   0  0  0  0  0  0  0  0  0  0  0  0
   -1.0433   -2.6542   -2.4194 H   0  0  0  0  0  0  0  0  0  0  0  0
   -2.1646   -1.5556   -3.2352 H   0  0  0  0  0  0  0  0  0  0  0  0
   -0.8203   -0.2641   -1.6538 H   0  0  0  0  0  0  0  0  0  0  0  0
   -3.6771   -0.5875   -0.6329 H   0  0  0  0  0  0  0  0  0  0  0  0
   -2.6118    0.8072   -0.3628 H   0  0  0  0  0  0  0  0  0  0  0  0
   -3.1405    0.4085   -1.9985 H   0  0  0  0  0  0  0  0  0  0  0  0
   -1.3908   -0.8230    0.9490 H   0  0  0  0  0  0  0  0  0  0  0  0
    0.7360   -0.5817   -0.0247 H   0  0  0  0  0  0  0  0  0  0  0  0
    0.7263   -2.0931   -0.6224 H   0  0  0  0  0  0  0  0  0  0  0  0
   -2.7125   -2.9236    0.4792 H   0  0  0  0  0  0  0  0  0  0  0  0
   -1.2942   -3.6268   -0.3283 H   0  0  0  0  0  0  0  0  0  0  0  0
   -0.1470   -3.1828    1.6318 H   0  0  0  0  0  0  0  0  0  0  0  0
  1  2  1  0  0  0  0
  1  8  1  0  0  0  0
  1  9  1  0  0  0  0
  1 10  1  0  0  0  0
  2  3  1  0  0  0  0
  2 11  1  0  0  0  0
  3 12  1  0  0  0  0
  3 13  1  0  0  0  0
  3 14  1  0  0  0  0
  4  6  1  0  0  0  0
  4 15  1  1  0  0  0
  4  5  1  0  0  0  0
  4  2  1  0  0  0  0
  5 16  1  0  0  0  0
  5 17  1  0  0  0  0
  6  7  1  0  0  0  0
  6 18  1  0  0  0  0
  6 19  1  0  0  0  0
  7 20  1  0  0  0  0
M  END
>  <DRUGBANK_ID>
DB04383

>  <SECONDARY_ACCESSION_NUMBERS>
EXPT03230

>  <COMMON_NAME>
L-valinol

>  <CAS_NUMBER>
2026-48-4

>  <UNII>
R54N4NJ3ZZ

>  <SYNONYMS>
(2S)-2-amino-3-methylbutan-1-ol; (S)-(+)-2-Amino-3-methyl-1-butanol

$$$$
