
 OpenBabel10282417103D

 17 17  0  0  0  0  0  0  0  0999 V2000
   -0.8408   -0.9349   -0.2246 C   0  0  1  0  0  0  0  0  0  0  0  0
    0.5789   -1.1680    0.2607 C   0  0  0  0  0  0  0  0  0  0  0  0
   -1.9772   -1.7778    0.3963 C   0  0  0  0  0  0  0  0  0  0  0  0
   -1.0577    0.5017    0.0961 N   0  0  0  0  0  0  0  0  0  0  0  0
    1.2896    0.1248   -0.1194 C   0  0  0  0  0  0  0  0  0  0  0  0
   -1.6758   -3.0375    0.7766 O   0  0  0  0  0  0  0  0  0  0  0  0
   -3.1274   -1.3620    0.5166 O   0  0  0  0  0  0  0  0  0  0  0  0
    0.2215    1.1979   -0.0187 C   0  0  0  0  0  0  0  0  0  0  0  0
   -0.8929   -1.0641   -1.3128 H   0  0  0  0  0  0  0  0  0  0  0  0
    0.6153   -1.3188    1.3457 H   0  0  0  0  0  0  0  0  0  0  0  0
    1.0518   -2.0311   -0.2193 H   0  0  0  0  0  0  0  0  0  0  0  0
   -1.4020    0.5698    1.0574 H   0  0  0  0  0  0  0  0  0  0  0  0
    2.1502    0.3332    0.5238 H   0  0  0  0  0  0  0  0  0  0  0  0
    1.6499    0.0681   -1.1543 H   0  0  0  0  0  0  0  0  0  0  0  0
   -0.7610   -3.3480    0.6669 H   0  0  0  0  0  0  0  0  0  0  0  0
    0.3847    1.8416    0.8531 H   0  0  0  0  0  0  0  0  0  0  0  0
    0.2216    1.8422   -0.9043 H   0  0  0  0  0  0  0  0  0  0  0  0
  1  2  1  0  0  0  0
  1  4  1  0  0  0  0
  1  9  1  6  0  0  0
  1  3  1  0  0  0  0
  2  5  1  0  0  0  0
  2 10  1  0  0  0  0
  2 11  1  0  0  0  0
  3  6  1  0  0  0  0
  3  7  2  0  0  0  0
  4  8  1  0  0  0  0
  4 12  1  0  0  0  0
  5  8  1  0  0  0  0
  5 13  1  0  0  0  0
  5 14  1  0  0  0  0
  6 15  1  0  0  0  0
  8 16  1  0  0  0  0
  8 17  1  0  0  0  0
M  END
>  <DRUGBANK_ID>
DB00172

>  <SECONDARY_ACCESSION_NUMBERS>
NUTR00047

>  <COMMON_NAME>
Proline

>  <CAS_NUMBER>
147-85-3

>  <UNII>
9DLQ4CIU6V

>  <SYNONYMS>
(-)-2-Pyrrolidinecarboxylic acid; (−)-(S)-proline; (−)-2-pyrrolidinecarboxylic acid; (−)-proline; (2S)-pyrrolidine-2-carboxylic acid; (S)-2-Carboxypyrrolidine; (S)-2-Pyrrolidinecarboxylic acid; (S)-pyrrolidine-2-carboxylic acid; 2-Pyrrolidinecarboxylic acid; L-(−)-proline; L-alpha-pyrrolidinecarboxylic acid; L-Prolin; L-Prolina; L-Proline; L-pyrrolidine-2-carboxylic acid; L-α-pyrrolidinecarboxylic acid; P; Prolina; Proline; Prolinum

$$$$
