L09
 OpenBabel10282417173D

 50 52  0  0  0  0  0  0  0  0999 V2000
    1.0261    0.0297   -0.0274 C   0  0  0  0  0  0  0  0  0  0  0  0
    0.4407    1.2614   -0.7717 C   0  0  0  0  0  0  0  0  0  0  0  0
    1.0405    1.2695   -2.1783 C   0  0  0  0  0  0  0  0  0  0  0  0
   -1.0877    1.1460   -0.7634 C   0  0  0  0  0  0  0  0  0  0  0  0
    0.6580    2.5689   -0.0668 C   0  0  0  0  0  0  0  0  0  0  0  0
    0.4868    3.9280   -0.5005 C   0  0  0  0  0  0  0  0  0  0  0  0
    0.7684    4.6765    0.6208 C   0  0  0  0  0  0  0  0  0  0  0  0
    1.0157    6.0282    0.7332 N   0  0  0  0  0  0  0  0  0  0  0  0
    1.6522    6.7572    1.8027 C   0  0  0  0  0  0  0  0  0  0  0  0
    1.4452    7.9432    1.8120 O   0  0  0  0  0  0  0  0  0  0  0  0
    2.4027    6.1373    2.7914 N   0  0  0  0  0  0  0  0  0  0  0  0
    2.9264    4.8393    2.8762 C   0  0  0  0  0  0  0  0  0  0  0  0
    3.4809    4.2109    1.7516 C   0  0  0  0  0  0  0  0  0  0  0  0
    3.5553    2.8087    1.6929 C   0  0  0  0  0  0  0  0  0  0  0  0
    3.1046    2.0226    2.7633 C   0  0  0  0  0  0  0  0  0  0  0  0
    3.1985    0.3053    2.6047 Cl  0  0  0  0  0  0  0  0  0  0  0  0
    2.6427    2.6458    3.9454 C   0  0  0  0  0  0  0  0  0  0  0  0
    2.4616    1.8315    5.2041 C   0  0  0  0  0  0  0  0  0  0  0  0
    3.4289    2.2054    6.2071 O   0  0  0  0  0  0  0  0  0  0  0  0
    4.7518    2.0716    5.8722 C   0  0  0  0  0  0  0  0  0  0  0  0
    5.3560    2.5502    4.7114 C   0  0  0  0  0  0  0  0  0  0  0  0
    6.6966    2.3975    4.4290 C   0  0  0  0  0  0  0  0  0  0  0  0
    7.4641    1.8539    5.4194 C   0  0  0  0  0  0  0  0  0  0  0  0
    6.9637    1.4354    6.6056 N   0  0  0  0  0  0  0  0  0  0  0  0
    5.6210    1.5451    6.8004 C   0  0  0  0  0  0  0  0  0  0  0  0
    2.5876    4.0713    4.0114 C   0  0  0  0  0  0  0  0  0  0  0  0
    0.7029    3.7755    1.6300 N   0  0  0  0  0  0  0  0  0  0  0  0
    0.7070    2.5119    1.2583 N   0  0  0  0  0  0  0  0  0  0  0  0
    0.7209   -0.9063   -0.5097 H   0  0  0  0  0  0  0  0  0  0  0  0
    0.6836   -0.0337    1.0130 H   0  0  0  0  0  0  0  0  0  0  0  0
    2.1230    0.0400   -0.0171 H   0  0  0  0  0  0  0  0  0  0  0  0
    0.7440    0.3728   -2.7317 H   0  0  0  0  0  0  0  0  0  0  0  0
    0.7223    2.1461   -2.7481 H   0  0  0  0  0  0  0  0  0  0  0  0
    2.1390    1.2893   -2.1399 H   0  0  0  0  0  0  0  0  0  0  0  0
   -1.4483    1.1419    0.2778 H   0  0  0  0  0  0  0  0  0  0  0  0
   -1.5333    2.0287   -1.2376 H   0  0  0  0  0  0  0  0  0  0  0  0
   -1.4437    0.2462   -1.2568 H   0  0  0  0  0  0  0  0  0  0  0  0
    0.2279    4.2667   -1.4932 H   0  0  0  0  0  0  0  0  0  0  0  0
    0.6241    6.6327    0.0175 H   0  0  0  0  0  0  0  0  0  0  0  0
    2.5699    6.7570    3.5801 H   0  0  0  0  0  0  0  0  0  0  0  0
    3.6761    4.7728    0.8402 H   0  0  0  0  0  0  0  0  0  0  0  0
    3.8071    2.3252    0.7509 H   0  0  0  0  0  0  0  0  0  0  0  0
    1.4526    2.0092    5.6049 H   0  0  0  0  0  0  0  0  0  0  0  0
    2.5099    0.7469    5.0545 H   0  0  0  0  0  0  0  0  0  0  0  0
    4.8536    3.1224    3.9639 H   0  0  0  0  0  0  0  0  0  0  0  0
    7.0927    2.7437    3.4809 H   0  0  0  0  0  0  0  0  0  0  0  0
    8.5349    1.7691    5.2838 H   0  0  0  0  0  0  0  0  0  0  0  0
    5.2602    1.2011    7.7636 H   0  0  0  0  0  0  0  0  0  0  0  0
    2.1850    4.5380    4.9120 H   0  0  0  0  0  0  0  0  0  0  0  0
    0.8644    3.9450    2.6031 H   0  0  0  0  0  0  0  0  0  0  0  0
  1  2  1  0  0  0  0
  1 29  1  0  0  0  0
  1 30  1  0  0  0  0
  1 31  1  0  0  0  0
  2  3  1  0  0  0  0
  2  4  1  0  0  0  0
  2  5  1  0  0  0  0
  3 32  1  0  0  0  0
  3 33  1  0  0  0  0
  3 34  1  0  0  0  0
  4 35  1  0  0  0  0
  4 36  1  0  0  0  0
  4 37  1  0  0  0  0
  5  6  1  0  0  0  0
  5 28  2  0  0  0  0
  6  7  2  0  0  0  0
  6 38  1  0  0  0  0
  7  8  1  0  0  0  0
  7 27  1  0  0  0  0
  8  9  1  0  0  0  0
  8 39  1  0  0  0  0
  9 10  2  0  0  0  0
  9 11  1  0  0  0  0
 11 12  1  0  0  0  0
 11 40  1  0  0  0  0
 12 13  2  0  0  0  0
 12 26  1  0  0  0  0
 13 14  1  0  0  0  0
 13 41  1  0  0  0  0
 14 15  2  0  0  0  0
 14 42  1  0  0  0  0
 15 16  1  0  0  0  0
 15 17  1  0  0  0  0
 17 18  1  0  0  0  0
 17 26  2  0  0  0  0
 18 19  1  0  0  0  0
 18 43  1  0  0  0  0
 18 44  1  0  0  0  0
 19 20  1  0  0  0  0
 20 21  2  0  0  0  0
 20 25  1  0  0  0  0
 21 22  1  0  0  0  0
 21 45  1  0  0  0  0
 22 23  2  0  0  0  0
 22 46  1  0  0  0  0
 23 24  1  0  0  0  0
 23 47  1  0  0  0  0
 24 25  2  0  0  0  0
 25 48  1  0  0  0  0
 26 49  1  0  0  0  0
 27 28  1  0  0  0  0
 27 50  1  0  0  0  0
M  END
>  <DRUGBANK_ID>
DB08064

>  <COMMON_NAME>
N-(3-TERT-BUTYL-1H-PYRAZOL-5-YL)-N'-{4-CHLORO-3-[(PYRIDIN-3-YLOXY)METHYL]PHENYL}UREA

$$$$
