
 OpenBabel10282417173D

 32 32  0  0  0  0  0  0  0  0999 V2000
    1.3741   -0.2868    0.0350 C   0  0  0  0  0  0  0  0  0  0  0  0
    0.9293    1.0517    0.0298 C   0  0  0  0  0  0  0  0  0  0  0  0
   -0.4215    1.3167    0.0654 C   0  0  0  0  0  0  0  0  0  0  0  0
   -1.2671    0.2312   -0.0550 C   0  0  0  0  0  0  0  0  0  0  0  0
   -0.9115   -1.1294   -0.0142 C   0  0  0  0  0  0  0  0  0  0  0  0
    0.4574   -1.3690    0.0182 C   0  0  0  0  0  0  0  0  0  0  0  0
    2.7398   -0.4298    0.0935 O   0  0  0  0  0  0  0  0  0  0  0  0
    3.2159   -1.7583    0.2744 C   0  0  0  0  0  0  0  0  0  0  0  0
   -0.8869    2.6009    0.2142 O   0  0  0  0  0  0  0  0  0  0  0  0
   -2.3009    2.7396    0.4827 C   0  0  0  0  0  0  0  0  0  0  0  0
   -1.8906   -2.1841   -0.0047 N   0  0  0  0  0  0  0  0  0  0  0  0
   -3.2557   -1.9371    0.0643 C   0  0  0  0  0  0  0  0  0  0  0  0
   -4.1954   -2.9445    0.0966 N   0  0  0  0  0  0  0  0  0  0  0  0
   -5.5779   -2.9247    0.1244 C   0  0  0  0  0  0  0  0  0  0  0  0
   -6.3037   -1.7840    0.1025 N   0  0  0  0  0  0  0  0  0  0  0  0
   -3.6558   -0.7212    0.0837 N   0  0  0  0  0  0  0  0  0  0  0  0
   -6.3411   -3.9736    0.1818 N   0  0  0  0  0  0  0  0  0  0  0  0
    1.6328    1.8779    0.0022 H   0  0  0  0  0  0  0  0  0  0  0  0
   -2.2767    0.5318   -0.2187 H   0  0  0  0  0  0  0  0  0  0  0  0
    0.8093   -2.3922    0.0180 H   0  0  0  0  0  0  0  0  0  0  0  0
    2.7927   -2.2173    1.1760 H   0  0  0  0  0  0  0  0  0  0  0  0
    3.0012   -2.3632   -0.6125 H   0  0  0  0  0  0  0  0  0  0  0  0
    4.3007   -1.7220    0.4018 H   0  0  0  0  0  0  0  0  0  0  0  0
   -2.8933    2.5037   -0.4113 H   0  0  0  0  0  0  0  0  0  0  0  0
   -2.6342    2.1249    1.3326 H   0  0  0  0  0  0  0  0  0  0  0  0
   -2.5176    3.7808    0.7382 H   0  0  0  0  0  0  0  0  0  0  0  0
   -1.5126   -3.1151    0.0843 H   0  0  0  0  0  0  0  0  0  0  0  0
   -3.8158   -3.8771    0.1339 H   0  0  0  0  0  0  0  0  0  0  0  0
   -6.0981   -0.8071    0.0185 H   0  0  0  0  0  0  0  0  0  0  0  0
   -7.3039   -1.9267    0.1118 H   0  0  0  0  0  0  0  0  0  0  0  0
   -4.6416   -0.6750    0.1011 H   0  0  0  0  0  0  0  0  0  0  0  0
   -5.8204   -4.8436    0.2057 H   0  0  0  0  0  0  0  0  0  0  0  0
  1  6  2  0  0  0  0
  1  2  1  0  0  0  0
  1  7  1  0  0  0  0
  2  3  2  0  0  0  0
  2 18  1  0  0  0  0
  3  4  1  0  0  0  0
  3  9  1  0  0  0  0
  4  5  2  0  0  0  0
  4 19  1  0  0  0  0
  5 11  1  0  0  0  0
  5  6  1  0  0  0  0
  6 20  1  0  0  0  0
  8  7  1  0  0  0  0
  8 21  1  0  0  0  0
  8 22  1  0  0  0  0
  8 23  1  0  0  0  0
 10  9  1  0  0  0  0
 10 24  1  0  0  0  0
 10 25  1  0  0  0  0
 10 26  1  0  0  0  0
 11 27  1  0  0  0  0
 12 11  1  0  0  0  0
 12 13  1  0  0  0  0
 12 16  2  0  0  0  0
 13 28  1  0  0  0  0
 14 13  1  0  0  0  0
 14 17  2  0  0  0  0
 14 15  1  0  0  0  0
 15 29  1  0  0  0  0
 15 30  1  0  0  0  0
 16 31  1  0  0  0  0
 17 32  1  0  0  0  0
M  END
>  <DRUGBANK_ID>
DB08479

>  <COMMON_NAME>
N-(3,5-dimethoxyphenyl)imidodicarbonimidic diamide

>  <CAS_NUMBER>
524055-74-1

$$$$
