
 OpenBabel10282417123D

 20 20  0  0  0  0  0  0  0  0999 V2000
    0.9105   -0.1200    0.0328 C   0  0  0  0  0  0  0  0  0  0  0  0
    0.1388   -1.2772    0.0058 C   0  0  0  0  0  0  0  0  0  0  0  0
   -1.2486   -1.1883   -0.0131 C   0  0  0  0  0  0  0  0  0  0  0  0
   -1.8593    0.0719   -0.0207 C   0  0  0  0  0  0  0  0  0  0  0  0
   -1.0785    1.2470    0.0022 C   0  0  0  0  0  0  0  0  0  0  0  0
    0.3296    1.1518    0.0346 C   0  0  0  0  0  0  0  0  0  0  0  0
    2.2565   -0.2590    0.1097 O   0  0  0  0  0  0  0  0  0  0  0  0
    1.0304    2.3391    0.1010 O   0  0  0  0  0  0  0  0  0  0  0  0
   -3.3309    0.1395   -0.0434 N   0  3  0  0  0  0  0  0  0  0  0  0
   -3.8588    1.2591   -0.0483 O   0  5  0  0  0  0  0  0  0  0  0  0
   -3.9554   -0.9324   -0.0522 O   0  0  0  0  0  0  0  0  0  0  0  0
    2.6687    2.4748    0.0221 S   0  0  0  0  0  0  0  0  0  0  0  0
    3.2225    1.7108    1.3415 O   0  0  0  0  0  0  0  0  0  0  0  0
    3.1793    1.8274   -1.1638 O   0  0  0  0  0  0  0  0  0  0  0  0
    2.9913    3.8702    0.2694 O   0  0  0  0  0  0  0  0  0  0  0  0
    0.6167   -2.2519    0.0224 H   0  0  0  0  0  0  0  0  0  0  0  0
   -1.8315   -2.1073   -0.0142 H   0  0  0  0  0  0  0  0  0  0  0  0
   -1.5630    2.2239    0.0018 H   0  0  0  0  0  0  0  0  0  0  0  0
    2.5663   -1.1534   -0.0950 H   0  0  0  0  0  0  0  0  0  0  0  0
    2.8137    2.0947    2.1378 H   0  0  0  0  0  0  0  0  0  0  0  0
  2  1  2  0  0  0  0
  2 16  1  0  0  0  0
  3  2  1  0  0  0  0
  3 17  1  0  0  0  0
  4  3  2  0  0  0  0
  5  4  1  0  0  0  0
  5 18  1  0  0  0  0
  6  1  1  0  0  0  0
  6  5  2  0  0  0  0
  7  1  1  0  0  0  0
  7 19  1  0  0  0  0
  8  6  1  0  0  0  0
  8 12  1  0  0  0  0
  9  4  1  0  0  0  0
 10  9  1  0  0  0  0
 11  9  2  0  0  0  0
 12 13  1  0  0  0  0
 13 20  1  0  0  0  0
 14 12  2  0  0  0  0
 15 12  2  0  0  0  0
M  CHG  2   9   1  10  -1
M  END
>  <DRUGBANK_ID>
DB01800

>  <SECONDARY_ACCESSION_NUMBERS>
EXPT01034

>  <COMMON_NAME>
4-Nitrocatechol sulfate

>  <CAS_NUMBER>
10485-66-2

>  <UNII>
HD9MHQ536A

>  <SYNONYMS>
2-hydroxy-5-nitrophenyl hydrogen sulfate; 2-Hydroxy-5-nitrophenyl sulfate; p-Nitrocatechol sulfate; para-Nitrocatechol sulfate

$$$$
