
 OpenBabel10282417203D

 52 56  0  0  1  0  0  0  0  0999 V2000
   -2.6222   -0.0763   -0.2202 C   0  0  0  0  0  0  0  0  0  0  0  0
   -1.2670    0.8407   -0.1510 N   0  0  0  0  0  0  0  0  0  0  0  0
   -0.0291    0.7715    0.6999 C   0  0  2  0  0  0  0  0  0  0  0  0
    0.7397    2.1335    0.4267 C   0  0  0  0  0  0  0  0  0  0  0  0
    0.6625    2.0346   -0.9598 C   0  0  0  0  0  0  0  0  0  0  0  0
   -0.0188    0.5637   -0.8428 C   0  0  1  0  0  0  0  0  0  0  0  0
    1.0687   -1.3362   -0.7772 C   0  0  0  0  0  0  0  0  0  0  0  0
    1.8161   -1.7205    0.3248 C   0  0  2  0  0  0  0  0  0  0  0  0
    0.9153   -1.0202    1.2260 C   0  0  0  0  0  0  0  0  0  0  0  0
    3.0062   -1.0529    0.1607 O   0  0  0  0  0  0  0  0  0  0  0  0
    2.4842    0.2753   -0.0605 C   0  0  0  0  0  0  0  0  0  0  0  0
    1.9744    0.7885    1.8091 C   0  0  0  0  0  0  0  0  0  0  0  0
    2.6465    1.9907    2.2839 C   0  0  0  0  0  0  0  0  0  0  0  0
    1.9532    2.8954    3.1722 C   0  0  0  0  0  0  0  0  0  0  0  0
    0.6197    2.6776    3.6718 C   0  0  0  0  0  0  0  0  0  0  0  0
   -0.1533    1.5083    3.4205 C   0  0  0  0  0  0  0  0  0  0  0  0
    0.4076    0.4402    2.6414 C   0  0  0  0  0  0  0  0  0  0  0  0
   -1.0345   -0.6217    1.6808 C   0  0  0  0  0  0  0  0  0  0  0  0
   -0.8425   -1.3509   -0.2784 C   0  0  0  0  0  0  0  0  0  0  0  0
   -0.0130   -0.7842   -2.1364 C   0  0  0  0  0  0  0  0  0  0  0  0
    1.6593    0.1437   -1.9028 C   0  0  0  0  0  0  0  0  0  0  0  0
    2.0437    1.0088   -2.9160 C   0  0  0  0  0  0  0  0  0  0  0  0
    1.0182    1.0890   -3.9144 C   0  0  0  0  0  0  0  0  0  0  0  0
   -0.2758    0.2754   -4.0554 C   0  0  0  0  0  0  0  0  0  0  0  0
   -0.8043   -0.6942   -3.1896 C   0  0  0  0  0  0  0  0  0  0  0  0
   -2.6808   -1.1787   -0.0160 H   0  0  0  0  0  0  0  0  0  0  0  0
   -3.3290    0.0763    0.6058 H   0  0  0  0  0  0  0  0  0  0  0  0
   -3.0816   -0.0576   -1.2106 H   0  0  0  0  0  0  0  0  0  0  0  0
   -0.6874    1.3319    1.3955 H   0  0  0  0  0  0  0  0  0  0  0  0
    0.3539    3.0028    0.9160 H   0  0  0  0  0  0  0  0  0  0  0  0
    1.8149    2.2349    0.4595 H   0  0  0  0  0  0  0  0  0  0  0  0
    1.7075    2.1674   -1.2158 H   0  0  0  0  0  0  0  0  0  0  0  0
    0.1612    2.8465   -1.4599 H   0  0  0  0  0  0  0  0  0  0  0  0
   -0.6529    0.8841   -1.7315 H   0  0  0  0  0  0  0  0  0  0  0  0
    0.4155   -2.3594   -1.2796 H   0  0  0  0  0  0  0  0  0  0  0  0
    1.6887   -1.7399   -1.7639 H   0  0  0  0  0  0  0  0  0  0  0  0
    1.7966   -2.8217    0.2867 H   0  0  0  0  0  0  0  0  0  0  0  0
    0.3060   -1.8800    1.6544 H   0  0  0  0  0  0  0  0  0  0  0  0
    1.5052   -1.1149    2.1845 H   0  0  0  0  0  0  0  0  0  0  0  0
    3.3658    0.9069   -0.2253 H   0  0  0  0  0  0  0  0  0  0  0  0
    3.4576    2.4433    1.6987 H   0  0  0  0  0  0  0  0  0  0  0  0
    2.4376    3.8516    3.4260 H   0  0  0  0  0  0  0  0  0  0  0  0
    0.1472    3.4472    4.2939 H   0  0  0  0  0  0  0  0  0  0  0  0
   -1.2440    1.6054    3.4973 H   0  0  0  0  0  0  0  0  0  0  0  0
   -1.3120   -1.3638    2.4365 H   0  0  0  0  0  0  0  0  0  0  0  0
   -1.8995    0.0798    1.8199 H   0  0  0  0  0  0  0  0  0  0  0  0
   -0.3497   -2.2410    0.1248 H   0  0  0  0  0  0  0  0  0  0  0  0
   -1.5015   -2.1539   -0.6187 H   0  0  0  0  0  0  0  0  0  0  0  0
    2.7546    1.8375   -2.7711 H   0  0  0  0  0  0  0  0  0  0  0  0
    1.1000    1.9333   -4.6091 H   0  0  0  0  0  0  0  0  0  0  0  0
   -0.9638    0.5546   -4.8481 H   0  0  0  0  0  0  0  0  0  0  0  0
   -1.7739   -1.1094   -3.0237 H   0  0  0  0  0  0  0  0  0  0  0  0
  1  2  1  0  0  0  0
  1 26  1  0  0  0  0
  1 27  1  0  0  0  0
  1 28  1  0  0  0  0
  3  2  1  0  0  0  0
  3  4  1  0  0  0  0
  3  9  1  0  0  0  0
  3 29  1  1  0  0  0
  4  5  1  0  0  0  0
  4 30  1  0  0  0  0
  4 31  1  0  0  0  0
  5  6  1  0  0  0  0
  5 32  1  0  0  0  0
  5 33  1  0  0  0  0
  6  2  1  0  0  0  0
  6  7  1  0  0  0  0
  6 34  1  6  0  0  0
  7  8  1  0  0  0  0
  7 35  1  0  0  0  0
  7 36  1  0  0  0  0
  8  9  1  0  0  0  0
  8 37  1  1  0  0  0
  8 10  1  0  0  0  0
  9 38  1  0  0  0  0
  9 39  1  0  0  0  0
 10 11  1  0  0  0  0
 11 12  1  0  0  0  0
 11 21  1  0  0  0  0
 11 40  1  0  0  0  0
 12 13  2  0  0  0  0
 12 17  1  0  0  0  0
 13 14  1  0  0  0  0
 13 41  1  0  0  0  0
 14 15  2  0  0  0  0
 14 42  1  0  0  0  0
 15 16  1  0  0  0  0
 15 43  1  0  0  0  0
 16 17  2  0  0  0  0
 16 44  1  0  0  0  0
 17 18  1  0  0  0  0
 18 19  1  0  0  0  0
 18 45  1  0  0  0  0
 18 46  1  0  0  0  0
 19 20  1  0  0  0  0
 19 47  1  0  0  0  0
 19 48  1  0  0  0  0
 20 21  2  0  0  0  0
 20 25  1  0  0  0  0
 21 22  1  0  0  0  0
 22 23  2  0  0  0  0
 22 49  1  0  0  0  0
 23 24  1  0  0  0  0
 23 50  1  0  0  0  0
 24 25  2  0  0  0  0
 24 51  1  0  0  0  0
 25 52  1  0  0  0  0
M  END
>  <DRUGBANK_ID>
DB13466

>  <COMMON_NAME>
Deptropine

>  <CAS_NUMBER>
604-51-3

>  <UNII>
AY31301GKG

>  <SYNONYMS>
deptropina; Deptropine

$$$$
