
 OpenBabel10282417133D

 74 76  0  0  0  0  0  0  0  0999 V2000
   -1.4187    1.2691    0.1199 O   0  0  0  0  0  0  0  0  0  0  0  0
    0.2101    2.0810   -1.5146 O   0  0  0  0  0  0  0  0  0  0  0  0
   -1.1527   -1.4477    0.9142 O   0  0  0  0  0  0  0  0  0  0  0  0
    1.4357   -1.7186   -0.1755 O   0  0  0  0  0  0  0  0  0  0  0  0
    2.2592    1.0513    0.1365 O   0  0  0  0  0  0  0  0  0  0  0  0
   -3.9952    1.0554   -1.0525 O   0  0  0  0  0  0  0  0  0  0  0  0
   -3.6377    6.6858   -1.4900 O   0  0  0  0  0  0  0  0  0  0  0  0
    0.7046    4.8534   -5.6069 O   0  5  0  0  0  0  0  0  0  0  0  0
   -0.6813    6.5339   -5.3239 O   0  0  0  0  0  0  0  0  0  0  0  0
   -3.6409    4.1951    3.7071 N   0  0  0  0  0  0  0  0  0  0  0  0
   -6.2530    5.2734    2.5511 N   0  0  0  0  0  0  0  0  0  0  0  0
   -2.7816    5.6109    0.2580 N   0  0  0  0  0  0  0  0  0  0  0  0
   -8.1230    3.3290    5.2594 N   0  0  0  0  0  0  0  0  0  0  0  0
   -0.2151    5.4279   -5.0167 N   0  3  0  0  0  0  0  0  0  0  0  0
   -0.8821   -1.0146   -0.4301 C   0  0  2  0  0  0  0  0  0  0  0  0
    0.6012   -0.6226   -0.5461 C   0  0  1  0  0  0  0  0  0  0  0  0
   -1.7502    0.1925   -0.7847 C   0  0  1  0  0  0  0  0  0  0  0  0
    0.9090    0.6182    0.3089 C   0  0  2  0  0  0  0  0  0  0  0  0
   -4.2759    3.7176    2.4857 C   0  0  0  0  0  0  0  0  0  0  0  0
   -4.6991    4.7203    4.5185 C   0  0  0  0  0  0  0  0  0  0  0  0
   -5.0665    4.8804    1.8061 C   0  0  0  0  0  0  0  0  0  0  0  0
   -5.7840    5.6681    3.9005 C   0  0  0  0  0  0  0  0  0  0  0  0
   -0.0690    1.7343   -0.1126 C   0  0  2  0  0  0  0  0  0  0  0  0
   -2.6057    5.1604    3.4382 C   0  0  0  0  0  0  0  0  0  0  0  0
   -7.2957    4.2550    2.3988 C   0  0  0  0  0  0  0  0  0  0  0  0
   -3.2458   -0.1091   -0.7007 C   0  0  0  0  0  0  0  0  0  0  0  0
   -1.7402    4.6163    2.3257 C   0  0  0  0  0  0  0  0  0  0  0  0
   -7.1324    2.8457    3.0017 C   0  0  0  0  0  0  0  0  0  0  0  0
   -2.3584    4.4239    0.9494 C   0  0  0  0  0  0  0  0  0  0  0  0
   -7.0164    2.7594    4.5222 C   0  0  0  0  0  0  0  0  0  0  0  0
   -0.4604    3.1116   -2.1057 C   0  0  0  0  0  0  0  0  0  0  0  0
   -1.5670    3.6964   -1.5662 C   0  0  0  0  0  0  0  0  0  0  0  0
   -2.1118    4.9230   -1.9528 C   0  0  0  0  0  0  0  0  0  0  0  0
   -2.9226    5.7483   -1.0698 C   0  0  0  0  0  0  0  0  0  0  0  0
   -0.1272    3.5922   -3.3478 C   0  0  0  0  0  0  0  0  0  0  0  0
   -0.7461    4.7799   -3.8347 C   0  0  0  0  0  0  0  0  0  0  0  0
   -1.7411    5.4580   -3.1446 C   0  0  0  0  0  0  0  0  0  0  0  0
   -3.5060    6.2011    0.6404 H   0  0  0  0  0  0  0  0  0  0  0  0
   -7.7423    3.5765    6.1854 H   0  0  0  0  0  0  0  0  0  0  0  0
   -8.2438    4.2669    4.8517 H   0  0  0  0  0  0  0  0  0  0  0  0
   -1.1568   -0.6668    1.4988 H   0  0  0  0  0  0  0  0  0  0  0  0
    1.2057   -1.9614    0.7402 H   0  0  0  0  0  0  0  0  0  0  0  0
    2.3848    1.2053   -0.8178 H   0  0  0  0  0  0  0  0  0  0  0  0
   -3.7896    1.7230   -0.3776 H   0  0  0  0  0  0  0  0  0  0  0  0
   -1.1031   -1.8583   -1.0904 H   0  0  0  0  0  0  0  0  0  0  0  0
    0.8363   -0.3981   -1.5922 H   0  0  0  0  0  0  0  0  0  0  0  0
   -1.5529    0.5305   -1.8079 H   0  0  0  0  0  0  0  0  0  0  0  0
    0.7916    0.3728    1.3741 H   0  0  0  0  0  0  0  0  0  0  0  0
   -3.4420    3.1129    2.1586 H   0  0  0  0  0  0  0  0  0  0  0  0
   -4.8145    2.8016    2.3422 H   0  0  0  0  0  0  0  0  0  0  0  0
   -5.0350    3.7209    4.5000 H   0  0  0  0  0  0  0  0  0  0  0  0
   -4.5383    4.8545    5.5889 H   0  0  0  0  0  0  0  0  0  0  0  0
   -4.5218    5.8181    1.8747 H   0  0  0  0  0  0  0  0  0  0  0  0
   -5.2824    4.7251    0.7441 H   0  0  0  0  0  0  0  0  0  0  0  0
   -5.3111    6.6627    3.8248 H   0  0  0  0  0  0  0  0  0  0  0  0
   -6.6461    5.8190    4.5544 H   0  0  0  0  0  0  0  0  0  0  0  0
    0.1246    2.5976    0.5395 H   0  0  0  0  0  0  0  0  0  0  0  0
   -2.0103    5.2735    4.3478 H   0  0  0  0  0  0  0  0  0  0  0  0
   -2.9955    6.1437    3.1729 H   0  0  0  0  0  0  0  0  0  0  0  0
   -8.2433    4.6751    2.7386 H   0  0  0  0  0  0  0  0  0  0  0  0
   -7.4378    4.1303    1.3107 H   0  0  0  0  0  0  0  0  0  0  0  0
   -3.5075   -0.8966   -1.4135 H   0  0  0  0  0  0  0  0  0  0  0  0
   -3.5526   -0.4124    0.3033 H   0  0  0  0  0  0  0  0  0  0  0  0
   -1.3422    3.6375    2.6477 H   0  0  0  0  0  0  0  0  0  0  0  0
   -0.8904    5.2737    2.1645 H   0  0  0  0  0  0  0  0  0  0  0  0
   -7.9437    2.2048    2.6602 H   0  0  0  0  0  0  0  0  0  0  0  0
   -6.3306    2.3046    2.5174 H   0  0  0  0  0  0  0  0  0  0  0  0
   -3.1407    3.6887    0.6602 H   0  0  0  0  0  0  0  0  0  0  0  0
   -1.5070    3.9135    0.5604 H   0  0  0  0  0  0  0  0  0  0  0  0
   -6.4545    1.8688    4.8490 H   0  0  0  0  0  0  0  0  0  0  0  0
   -6.4160    3.4947    4.9765 H   0  0  0  0  0  0  0  0  0  0  0  0
   -2.0890    3.0962   -0.8568 H   0  0  0  0  0  0  0  0  0  0  0  0
    0.5772    3.0359   -3.9547 H   0  0  0  0  0  0  0  0  0  0  0  0
   -2.2148    6.3787   -3.4817 H   0  0  0  0  0  0  0  0  0  0  0  0
  1 17  1  0  0  0  0
  1 23  1  0  0  0  0
  2 31  1  0  0  0  0
  3 41  1  0  0  0  0
  4 42  1  0  0  0  0
  5 43  1  0  0  0  0
  6 26  1  0  0  0  0
  6 44  1  0  0  0  0
  7 34  2  0  0  0  0
  8 14  1  0  0  0  0
  9 14  2  0  0  0  0
 10 19  1  0  0  0  0
 10 20  1  0  0  0  0
 10 24  1  0  0  0  0
 11 21  1  0  0  0  0
 11 22  1  0  0  0  0
 11 25  1  0  0  0  0
 12 29  1  0  0  0  0
 12 34  1  0  0  0  0
 12 38  1  0  0  0  0
 13 30  1  0  0  0  0
 13 39  1  0  0  0  0
 13 40  1  0  0  0  0
 14 36  1  0  0  0  0
 15  3  1  0  0  0  0
 15 16  1  0  0  0  0
 15 17  1  0  0  0  0
 15 45  1  6  0  0  0
 16  4  1  0  0  0  0
 16 18  1  0  0  0  0
 16 46  1  6  0  0  0
 17 26  1  0  0  0  0
 17 47  1  6  0  0  0
 18  5  1  0  0  0  0
 18 23  1  0  0  0  0
 18 48  1  1  0  0  0
 19 21  1  0  0  0  0
 19 49  1  0  0  0  0
 19 50  1  0  0  0  0
 20 22  1  0  0  0  0
 20 51  1  0  0  0  0
 20 52  1  0  0  0  0
 21 53  1  0  0  0  0
 21 54  1  0  0  0  0
 22 55  1  0  0  0  0
 22 56  1  0  0  0  0
 23 57  1  1  0  0  0
 23  2  1  0  0  0  0
 24 27  1  0  0  0  0
 24 58  1  0  0  0  0
 24 59  1  0  0  0  0
 25 28  1  0  0  0  0
 25 60  1  0  0  0  0
 25 61  1  0  0  0  0
 26 62  1  0  0  0  0
 26 63  1  0  0  0  0
 27 29  1  0  0  0  0
 27 64  1  0  0  0  0
 27 65  1  0  0  0  0
 28 30  1  0  0  0  0
 28 66  1  0  0  0  0
 28 67  1  0  0  0  0
 29 68  1  0  0  0  0
 29 69  1  0  0  0  0
 30 70  1  0  0  0  0
 30 71  1  0  0  0  0
 31 32  2  0  0  0  0
 31 35  1  0  0  0  0
 32 33  1  0  0  0  0
 32 72  1  0  0  0  0
 33 34  1  0  0  0  0
 33 37  2  0  0  0  0
 35 36  2  0  0  0  0
 35 73  1  0  0  0  0
 36 37  1  0  0  0  0
 37 74  1  0  0  0  0
M  CHG  2   8  -1  14   1
M  END
>  <DRUGBANK_ID>
DB03235

>  <SECONDARY_ACCESSION_NUMBERS>
EXPT01954

>  <COMMON_NAME>
N-{3-[4-(3-aminopropyl)piperazin-1-yl]propyl}-3-(alpha-D-galactopyranosyloxy)-5-nitrobenzamide

$$$$
