
 OpenBabel10282417223D

 59 61  0  0  0  0  0  0  0  0999 V2000
    0.3945   -0.3530    0.1734 O   0  0  0  0  0  0  0  0  0  0  0  0
    0.3482   -1.1299   -0.9804 N   0  0  0  0  0  0  0  0  0  0  0  0
    1.3538   -1.7618   -1.6366 C   0  0  0  0  0  0  0  0  0  0  0  0
    1.0349   -2.6059   -2.4800 O   0  0  0  0  0  0  0  0  0  0  0  0
    2.8416   -1.4796   -1.4058 C   0  0  0  0  0  0  0  0  0  0  0  0
    3.3034   -0.0830   -1.8258 C   0  0  0  0  0  0  0  0  0  0  0  0
    2.7113    1.0019   -0.9380 C   0  0  0  0  0  0  0  0  0  0  0  0
    3.0784    0.7823    0.5529 C   0  0  0  0  0  0  0  0  0  0  0  0
    4.5466    0.9605    0.8069 C   0  0  0  0  0  0  0  0  0  0  0  0
    4.9426    2.3418    0.3892 C   0  0  0  0  0  0  0  0  0  0  0  0
    4.2702    3.3576    1.1871 N   0  0  0  0  0  0  0  0  0  0  0  0
    4.8553    4.2380    2.0471 C   0  0  0  0  0  0  0  0  0  0  0  0
    4.1859    4.9369    2.8093 O   0  0  0  0  0  0  0  0  0  0  0  0
    6.3076    4.3154    2.0572 C   0  0  0  0  0  0  0  0  0  0  0  0
    7.0482    4.3134    0.9015 C   0  0  0  0  0  0  0  0  0  0  0  0
    8.3790    4.1986    0.8798 N   0  0  0  0  0  0  0  0  0  0  0  0
    9.0280    4.1921    2.0594 C   0  0  0  0  0  0  0  0  0  0  0  0
    8.3660    4.2553    3.2418 N   0  0  0  0  0  0  0  0  0  0  0  0
    7.0193    4.3120    3.2216 C   0  0  0  0  0  0  0  0  0  0  0  0
   10.4490    4.1122    2.0428 N   0  0  0  0  0  0  0  0  0  0  0  0
   11.1679    4.0661    0.8019 C   0  0  0  0  0  0  0  0  0  0  0  0
   11.0169    5.0814   -0.1559 C   0  0  0  0  0  0  0  0  0  0  0  0
   11.8017    5.0986   -1.3073 C   0  0  0  0  0  0  0  0  0  0  0  0
   12.7439    4.0955   -1.5201 C   0  0  0  0  0  0  0  0  0  0  0  0
   12.9020    3.0752   -0.5832 C   0  0  0  0  0  0  0  0  0  0  0  0
   12.0957    3.0413    0.5558 C   0  0  0  0  0  0  0  0  0  0  0  0
   11.1898    4.1436    3.2676 C   0  0  0  0  0  0  0  0  0  0  0  0
   10.9938    3.1264    4.2187 C   0  0  0  0  0  0  0  0  0  0  0  0
   11.7597    3.0776    5.3825 C   0  0  0  0  0  0  0  0  0  0  0  0
   12.7476    4.0329    5.6059 C   0  0  0  0  0  0  0  0  0  0  0  0
   12.9560    5.0511    4.6782 C   0  0  0  0  0  0  0  0  0  0  0  0
   12.1478    5.1403    3.5435 C   0  0  0  0  0  0  0  0  0  0  0  0
   12.2937    6.5837    2.5964 Cl  0  0  0  0  0  0  0  0  0  0  0  0
    1.3167   -0.4044    0.4241 H   0  0  0  0  0  0  0  0  0  0  0  0
   -0.5991   -1.3698   -1.2472 H   0  0  0  0  0  0  0  0  0  0  0  0
    3.1349   -1.7355   -0.3837 H   0  0  0  0  0  0  0  0  0  0  0  0
    3.4029   -2.1925   -2.0273 H   0  0  0  0  0  0  0  0  0  0  0  0
    4.4010   -0.0240   -1.7942 H   0  0  0  0  0  0  0  0  0  0  0  0
    3.0352    0.1072   -2.8712 H   0  0  0  0  0  0  0  0  0  0  0  0
    3.0128    1.9908   -1.2946 H   0  0  0  0  0  0  0  0  0  0  0  0
    1.6351    1.0498   -1.1066 H   0  0  0  0  0  0  0  0  0  0  0  0
    2.4674    1.4392    1.1819 H   0  0  0  0  0  0  0  0  0  0  0  0
    2.9059   -0.2250    0.9379 H   0  0  0  0  0  0  0  0  0  0  0  0
    4.7710    0.7803    1.8651 H   0  0  0  0  0  0  0  0  0  0  0  0
    5.1238    0.2172    0.2443 H   0  0  0  0  0  0  0  0  0  0  0  0
    6.0185    2.3372    0.4899 H   0  0  0  0  0  0  0  0  0  0  0  0
    4.7340    2.5714   -0.6565 H   0  0  0  0  0  0  0  0  0  0  0  0
    3.2533    3.3767    1.2186 H   0  0  0  0  0  0  0  0  0  0  0  0
    6.5872    4.3212   -0.0824 H   0  0  0  0  0  0  0  0  0  0  0  0
    6.5294    4.3322    4.1904 H   0  0  0  0  0  0  0  0  0  0  0  0
   10.3140    5.8916    0.0220 H   0  0  0  0  0  0  0  0  0  0  0  0
   11.6935    5.9120   -2.0187 H   0  0  0  0  0  0  0  0  0  0  0  0
   13.3571    4.1106   -2.4167 H   0  0  0  0  0  0  0  0  0  0  0  0
   13.6637    2.3149   -0.7319 H   0  0  0  0  0  0  0  0  0  0  0  0
   12.1855    2.2076    1.2479 H   0  0  0  0  0  0  0  0  0  0  0  0
   10.2370    2.3645    4.0468 H   0  0  0  0  0  0  0  0  0  0  0  0
   11.5926    2.2833    6.1044 H   0  0  0  0  0  0  0  0  0  0  0  0
   13.3442    3.9985    6.5130 H   0  0  0  0  0  0  0  0  0  0  0  0
   13.7406    5.7837    4.8471 H   0  0  0  0  0  0  0  0  0  0  0  0
  1  2  1  0  0  0  0
  1 34  1  0  0  0  0
  2  3  1  0  0  0  0
  2 35  1  0  0  0  0
  3  4  2  0  0  0  0
  3  5  1  0  0  0  0
  5  6  1  0  0  0  0
  5 36  1  0  0  0  0
  5 37  1  0  0  0  0
  6  7  1  0  0  0  0
  6 38  1  0  0  0  0
  6 39  1  0  0  0  0
  7  8  1  0  0  0  0
  7 40  1  0  0  0  0
  7 41  1  0  0  0  0
  8  9  1  0  0  0  0
  8 42  1  0  0  0  0
  8 43  1  0  0  0  0
  9 10  1  0  0  0  0
  9 44  1  0  0  0  0
  9 45  1  0  0  0  0
 10 11  1  0  0  0  0
 10 46  1  0  0  0  0
 10 47  1  0  0  0  0
 11 12  1  0  0  0  0
 11 48  1  0  0  0  0
 12 13  2  0  0  0  0
 12 14  1  0  0  0  0
 14 15  2  0  0  0  0
 14 19  1  0  0  0  0
 15 16  1  0  0  0  0
 15 49  1  0  0  0  0
 16 17  2  0  0  0  0
 17 18  1  0  0  0  0
 17 20  1  0  0  0  0
 18 19  2  0  0  0  0
 19 50  1  0  0  0  0
 20 21  1  0  0  0  0
 20 27  1  0  0  0  0
 21 22  2  0  0  0  0
 21 26  1  0  0  0  0
 22 23  1  0  0  0  0
 22 51  1  0  0  0  0
 23 24  2  0  0  0  0
 23 52  1  0  0  0  0
 24 25  1  0  0  0  0
 24 53  1  0  0  0  0
 25 26  2  0  0  0  0
 25 54  1  0  0  0  0
 26 55  1  0  0  0  0
 27 28  2  0  0  0  0
 27 32  1  0  0  0  0
 28 29  1  0  0  0  0
 28 56  1  0  0  0  0
 29 30  2  0  0  0  0
 29 57  1  0  0  0  0
 30 31  1  0  0  0  0
 30 58  1  0  0  0  0
 31 32  2  0  0  0  0
 31 59  1  0  0  0  0
 32 33  1  0  0  0  0
M  END
>  <DRUGBANK_ID>
DB15449

>  <COMMON_NAME>
Citarinostat

>  <CAS_NUMBER>
1316215-12-9

>  <UNII>
441P620G3P

>  <SYNONYMS>
(2-((2-chlorophenyl)(phenyl)amino)-N-(7-(hydroxyamino)-7-oxoheptyl)pyrimidine-5-carboxamide); Citarinostat

$$$$
