
 OpenBabel10282417243D

 55 54  0  0  0  0  0  0  0  0999 V2000
    0.9499    0.0812    0.0683 C   0  0  0  0  0  0  0  0  0  0  0  0
    0.5027    1.3517   -0.6367 C   0  0  0  0  0  0  0  0  0  0  0  0
    0.9975    1.3624   -2.0839 C   0  0  0  0  0  0  0  0  0  0  0  0
    0.4409    0.1721   -2.8717 C   0  0  0  0  0  0  0  0  0  0  0  0
   -1.0928    0.1875   -2.8667 C   0  0  0  0  0  0  0  0  0  0  0  0
   -1.6243    1.4629   -3.5321 C   0  0  0  0  0  0  0  0  0  0  0  0
   -1.1478    1.5425   -4.9796 C   0  0  0  0  0  0  0  0  0  0  0  0
   -1.5709    0.2972   -5.7405 C   0  0  0  0  0  0  0  0  0  0  0  0
   -3.0634    0.2655   -5.8184 C   0  0  0  0  0  0  0  0  0  0  0  0
   -3.7276    0.3849   -6.9639 C   0  0  0  0  0  0  0  0  0  0  0  0
   -3.0469    0.4065   -8.2943 C   0  0  0  0  0  0  0  0  0  0  0  0
   -3.4497   -0.8362   -9.0702 C   0  0  0  0  0  0  0  0  0  0  0  0
   -4.9437   -0.8047   -9.3806 C   0  0  0  0  0  0  0  0  0  0  0  0
   -5.3066    0.4749  -10.1456 C   0  0  0  0  0  0  0  0  0  0  0  0
   -4.5551    0.5479  -11.4790 C   0  0  0  0  0  0  0  0  0  0  0  0
   -4.9210   -0.6397  -12.3754 C   0  0  0  0  0  0  0  0  0  0  0  0
   -6.4299   -0.7005  -12.6564 C   0  0  3  0  0  0  0  0  0  0  0  0
   -6.8694    0.4961  -13.2866 O   0  0  0  0  0  0  0  0  0  0  0  0
   -6.7388   -1.9302  -13.5085 C   0  0  0  0  0  0  0  0  0  0  0  0
   -7.6002   -2.8066  -12.9375 O   0  0  0  0  0  0  0  0  0  0  0  0
   -6.2434   -2.1425  -14.6126 O   0  0  0  0  0  0  0  0  0  0  0  0
    0.5550   -0.8192   -0.4137 H   0  0  0  0  0  0  0  0  0  0  0  0
    0.5966    0.0657    1.0997 H   0  0  0  0  0  0  0  0  0  0  0  0
    2.0418    0.0165    0.0569 H   0  0  0  0  0  0  0  0  0  0  0  0
   -0.5898    1.4336   -0.5904 H   0  0  0  0  0  0  0  0  0  0  0  0
    0.8823    2.2322   -0.1116 H   0  0  0  0  0  0  0  0  0  0  0  0
    0.7136    2.3092   -2.5595 H   0  0  0  0  0  0  0  0  0  0  0  0
    2.0913    1.3434   -2.1128 H   0  0  0  0  0  0  0  0  0  0  0  0
    0.8436    0.1861   -3.8906 H   0  0  0  0  0  0  0  0  0  0  0  0
    0.7998   -0.7780   -2.4667 H   0  0  0  0  0  0  0  0  0  0  0  0
   -1.4667   -0.7173   -3.3561 H   0  0  0  0  0  0  0  0  0  0  0  0
   -1.5021    0.1063   -1.8571 H   0  0  0  0  0  0  0  0  0  0  0  0
   -2.7170    1.4798   -3.4749 H   0  0  0  0  0  0  0  0  0  0  0  0
   -1.3120    2.3644   -2.9984 H   0  0  0  0  0  0  0  0  0  0  0  0
   -1.5355    2.4492   -5.4600 H   0  0  0  0  0  0  0  0  0  0  0  0
   -0.0578    1.6354   -5.0397 H   0  0  0  0  0  0  0  0  0  0  0  0
   -1.0562    0.3337   -6.6959 H   0  0  0  0  0  0  0  0  0  0  0  0
   -1.2199   -0.6424   -5.3099 H   0  0  0  0  0  0  0  0  0  0  0  0
   -3.6418    0.1909   -4.8986 H   0  0  0  0  0  0  0  0  0  0  0  0
   -4.8148    0.4213   -6.9186 H   0  0  0  0  0  0  0  0  0  0  0  0
   -3.2768    1.3494   -8.7936 H   0  0  0  0  0  0  0  0  0  0  0  0
   -1.9614    0.4068   -8.2607 H   0  0  0  0  0  0  0  0  0  0  0  0
   -2.8501   -0.8866   -9.9856 H   0  0  0  0  0  0  0  0  0  0  0  0
   -3.1950   -1.7467   -8.5131 H   0  0  0  0  0  0  0  0  0  0  0  0
   -5.2159   -1.7060   -9.9363 H   0  0  0  0  0  0  0  0  0  0  0  0
   -5.5368   -0.8635   -8.4627 H   0  0  0  0  0  0  0  0  0  0  0  0
   -6.3886    0.5206  -10.2862 H   0  0  0  0  0  0  0  0  0  0  0  0
   -5.0953    1.3751   -9.5599 H   0  0  0  0  0  0  0  0  0  0  0  0
   -4.7709    1.4988  -11.9744 H   0  0  0  0  0  0  0  0  0  0  0  0
   -3.4693    0.5703  -11.3254 H   0  0  0  0  0  0  0  0  0  0  0  0
   -4.3533   -0.5582  -13.3080 H   0  0  0  0  0  0  0  0  0  0  0  0
   -4.5878   -1.5821  -11.9196 H   0  0  0  0  0  0  0  0  0  0  0  0
   -6.9950   -0.7945  -11.7239 H   0  0  0  0  0  0  0  0  0  0  0  0
   -6.5663    1.2587  -12.7671 H   0  0  0  0  0  0  0  0  0  0  0  0
   -7.9755   -2.5370  -12.0779 H   0  0  0  0  0  0  0  0  0  0  0  0
  1  2  1  0  0  0  0
  1 22  1  0  0  0  0
  1 23  1  0  0  0  0
  1 24  1  0  0  0  0
  2  3  1  0  0  0  0
  2 25  1  0  0  0  0
  2 26  1  0  0  0  0
  3  4  1  0  0  0  0
  3 27  1  0  0  0  0
  3 28  1  0  0  0  0
  4  5  1  0  0  0  0
  4 29  1  0  0  0  0
  4 30  1  0  0  0  0
  5  6  1  0  0  0  0
  5 31  1  0  0  0  0
  5 32  1  0  0  0  0
  6  7  1  0  0  0  0
  6 33  1  0  0  0  0
  6 34  1  0  0  0  0
  7  8  1  0  0  0  0
  7 35  1  0  0  0  0
  7 36  1  0  0  0  0
  8  9  1  0  0  0  0
  8 37  1  0  0  0  0
  8 38  1  0  0  0  0
  9 10  2  0  0  0  0
  9 39  1  0  0  0  0
 10 11  1  0  0  0  0
 10 40  1  0  0  0  0
 11 12  1  0  0  0  0
 11 41  1  0  0  0  0
 11 42  1  0  0  0  0
 12 13  1  0  0  0  0
 12 43  1  0  0  0  0
 12 44  1  0  0  0  0
 13 14  1  0  0  0  0
 13 45  1  0  0  0  0
 13 46  1  0  0  0  0
 14 15  1  0  0  0  0
 14 47  1  0  0  0  0
 14 48  1  0  0  0  0
 15 16  1  0  0  0  0
 15 49  1  0  0  0  0
 15 50  1  0  0  0  0
 16 17  1  0  0  0  0
 16 51  1  0  0  0  0
 16 52  1  0  0  0  0
 17 18  1  0  0  0  0
 17 19  1  0  0  0  0
 17 53  1  0  0  0  0
 18 54  1  0  0  0  0
 19 20  1  0  0  0  0
 19 21  2  0  0  0  0
 20 55  1  0  0  0  0
M  END
>  <DRUGBANK_ID>
DB18213

>  <COMMON_NAME>
Idroxioleic acid

>  <CAS_NUMBER>
56472-29-8

>  <UNII>
OSV3KVO1BT

>  <SYNONYMS>
(z)-2-hydroxyoctadec-9-enoic acid; 2-hydroxyoleic acid; 9-octadecenoic acid, 2-hydroxy-, (9z)-; Alpha-hydroxyoleic acid; Cis-2-hydroxy-9-octadecenoic acid; Minerval; Rac-(2r,9z)-2-hydroxyoctadec-9-enoic acid

$$$$
