
 OpenBabel10282417233D

 72 75  0  0  1  0  0  0  0  0999 V2000
    0.7687   -0.2973   -0.4054 C   0  0  1  0  0  0  0  0  0  0  0  0
   -0.1304    1.5409   -0.2205 C   0  0  2  0  0  0  0  0  0  0  0  0
    0.0586    3.8497   -0.4182 C   0  0  2  0  0  0  0  0  0  0  0  0
    1.3225    2.4132   -0.1668 C   0  0  2  0  0  0  0  0  0  0  0  0
    2.2547    1.0002   -0.0961 C   0  0  1  0  0  0  0  0  0  0  0  0
    2.0667   -0.4102    0.2870 C   0  0  0  0  0  0  0  0  0  0  0  0
   -1.3301   -0.0379   -0.4513 C   0  0  1  0  0  0  0  0  0  0  0  0
   -2.2747    0.9550   -0.3725 N   0  0  0  0  0  0  0  0  0  0  0  0
   -1.5076    2.5465   -0.1861 C   0  0  0  0  0  0  0  0  0  0  0  0
   -1.8658    2.5261    1.0193 O   0  0  0  0  0  0  0  0  0  0  0  0
    2.3246   -0.9543    1.4806 C   0  0  0  0  0  0  0  0  0  0  0  0
    1.1898   -1.8039   -1.4297 C   0  0  0  0  0  0  0  0  0  0  0  0
    2.3500    0.7335   -1.4811 O   0  0  0  0  0  0  0  0  0  0  0  0
    1.2301    7.8903   -1.5001 C   0  0  0  0  0  0  0  0  0  0  0  0
    1.3771    9.3759   -2.9982 C   0  0  0  0  0  0  0  0  0  0  0  0
    0.8689    2.1599   -1.7989 C   0  0  0  0  0  0  0  0  0  0  0  0
    0.7095    5.9109   -0.8195 O   0  0  0  0  0  0  0  0  0  0  0  0
    1.9135    9.2171   -1.1884 O   0  0  0  0  0  0  0  0  0  0  0  0
    1.0995    2.2579    0.9255 H   0  0  0  0  0  0  0  0  0  0  0  0
    2.3804    8.7181   -3.5082 C   0  0  0  0  0  0  0  0  0  0  0  0
    2.0249    7.8001   -4.5363 C   0  0  1  0  0  0  0  0  0  0  0  0
    0.6895    3.9818   -3.2607 C   0  0  0  0  0  0  0  0  0  0  0  0
    1.1669    3.3694   -2.0881 C   0  0  0  0  0  0  0  0  0  0  0  0
    0.7164    7.1380   -4.2420 C   0  0  0  0  0  0  0  0  0  0  0  0
    0.7650    6.4986   -2.9194 C   0  0  0  0  0  0  0  0  0  0  0  0
    2.1815    5.7157   -2.6007 C   0  0  0  0  0  0  0  0  0  0  0  0
    2.0500    4.5076   -3.5654 C   0  0  1  0  0  0  0  0  0  0  0  0
    2.7778    8.4130   -5.5179 O   0  0  0  0  0  0  0  0  0  0  0  0
    2.6758    3.1694   -3.8145 C   0  0  0  0  0  0  0  0  0  0  0  0
   -0.1324    0.8559    0.8853 H   0  0  0  0  0  0  0  0  0  0  0  0
   -1.1457   -1.7997   -1.2480 C   0  0  0  0  0  0  0  0  0  0  0  0
   -0.1908   -3.0834   -0.1551 C   0  0  0  0  0  0  0  0  0  0  0  0
   -0.8842   -4.0393    0.4357 C   0  0  0  0  0  0  0  0  0  0  0  0
   -0.0589   -5.1015    0.8121 C   0  0  0  0  0  0  0  0  0  0  0  0
    1.3366   -5.3698    0.4912 C   0  0  0  0  0  0  0  0  0  0  0  0
    2.0637   -4.7274   -0.4032 C   0  0  0  0  0  0  0  0  0  0  0  0
    1.4268   -3.6193   -0.5674 C   0  0  0  0  0  0  0  0  0  0  0  0
    0.1703   -1.1402   -0.2723 H   0  0  0  0  0  0  0  0  0  0  0  0
    3.2740    1.2417   -0.0112 H   0  0  0  0  0  0  0  0  0  0  0  0
   -1.9961   -1.2277   -0.1597 H   0  0  0  0  0  0  0  0  0  0  0  0
   -3.1449    0.4507    0.1829 H   0  0  0  0  0  0  0  0  0  0  0  0
    2.4472   -2.0341    1.6626 H   0  0  0  0  0  0  0  0  0  0  0  0
    1.6290   -0.4543    2.1333 H   0  0  0  0  0  0  0  0  0  0  0  0
    2.4853   -2.2014   -0.8340 H   0  0  0  0  0  0  0  0  0  0  0  0
    0.4031   -3.1071   -1.7683 H   0  0  0  0  0  0  0  0  0  0  0  0
    0.8544   -2.1153   -2.4575 H   0  0  0  0  0  0  0  0  0  0  0  0
    1.8557    0.0094   -1.8862 H   0  0  0  0  0  0  0  0  0  0  0  0
    1.7534   10.2286   -4.2623 H   0  0  0  0  0  0  0  0  0  0  0  0
    0.5833    1.3112   -2.4555 H   0  0  0  0  0  0  0  0  0  0  0  0
    2.9141    8.4181   -2.6730 H   0  0  0  0  0  0  0  0  0  0  0  0
    2.5335    6.9021   -4.5224 H   0  0  0  0  0  0  0  0  0  0  0  0
    0.2002    4.0765   -4.1839 H   0  0  0  0  0  0  0  0  0  0  0  0
    0.0091    3.0974   -3.2796 H   0  0  0  0  0  0  0  0  0  0  0  0
    1.7336    3.8226   -1.2484 H   0  0  0  0  0  0  0  0  0  0  0  0
    0.0522    7.6244   -4.9090 H   0  0  0  0  0  0  0  0  0  0  0  0
    0.1881    6.2155   -4.3539 H   0  0  0  0  0  0  0  0  0  0  0  0
    0.0619    7.2678   -2.4916 H   0  0  0  0  0  0  0  0  0  0  0  0
    0.1395    5.7309   -2.4785 H   0  0  0  0  0  0  0  0  0  0  0  0
    2.9711    6.4323   -2.3657 H   0  0  0  0  0  0  0  0  0  0  0  0
    2.3710    5.1968   -1.6712 H   0  0  0  0  0  0  0  0  0  0  0  0
    2.5619    4.9528   -4.3947 H   0  0  0  0  0  0  0  0  0  0  0  0
    3.6699    8.3731   -5.0671 H   0  0  0  0  0  0  0  0  0  0  0  0
    2.1750    2.2478   -3.4681 H   0  0  0  0  0  0  0  0  0  0  0  0
    2.6321    3.0107   -4.8798 H   0  0  0  0  0  0  0  0  0  0  0  0
    3.5815    3.2843   -3.2913 H   0  0  0  0  0  0  0  0  0  0  0  0
   -1.8577   -2.4532   -1.8617 H   0  0  0  0  0  0  0  0  0  0  0  0
   -0.5971   -1.3933   -2.1051 H   0  0  0  0  0  0  0  0  0  0  0  0
   -1.9093   -3.8701    0.6373 H   0  0  0  0  0  0  0  0  0  0  0  0
   -0.5230   -5.8338    1.4278 H   0  0  0  0  0  0  0  0  0  0  0  0
    1.8983   -6.1447    0.9485 H   0  0  0  0  0  0  0  0  0  0  0  0
    2.9709   -4.8267   -0.9374 H   0  0  0  0  0  0  0  0  0  0  0  0
    2.0915   -3.1808   -1.8047 H   0  0  0  0  0  0  0  0  0  0  0  0
  1  2  1  0  0  0  0
  1  6  1  0  0  0  0
  1 12  1  0  0  0  0
  1 38  1  6  0  0  0
  2  3  1  0  0  0  0
  2  7  1  0  0  0  0
  2 30  1  6  0  0  0
  3  4  1  0  0  0  0
  3  9  1  1  0  0  0
  3 17  1  0  0  0  0
  4  5  1  0  0  0  0
  4 16  1  0  0  0  0
  4 19  1  1  0  0  0
  5  6  1  0  0  0  0
  5 39  1  1  0  0  0
  5 13  1  0  0  0  0
  6 11  2  0  0  0  0
  7  8  1  0  0  0  0
  7 40  1  1  0  0  0
  7 31  1  0  0  0  0
  8  9  1  0  0  0  0
  8 41  1  0  0  0  0
  9 10  2  0  0  0  0
 11 42  1  0  0  0  0
 11 43  1  0  0  0  0
 12 44  1  0  0  0  0
 12 45  1  0  0  0  0
 12 46  1  0  0  0  0
 13 47  1  0  0  0  0
 14 15  1  0  0  0  0
 14 18  2  0  0  0  0
 15 20  2  0  0  0  0
 15 48  1  0  0  0  0
 16 23  2  0  0  0  0
 16 49  1  0  0  0  0
 17 14  1  0  0  0  0
 20 21  1  0  0  0  0
 20 50  1  0  0  0  0
 21 24  1  0  0  0  0
 21 28  1  0  0  0  0
 21 51  1  1  0  0  0
 22 23  1  0  0  0  0
 22 27  1  0  0  0  0
 22 52  1  0  0  0  0
 22 53  1  0  0  0  0
 23 54  1  0  0  0  0
 24 25  1  0  0  0  0
 24 55  1  0  0  0  0
 24 56  1  0  0  0  0
 25 26  1  0  0  0  0
 25 57  1  0  0  0  0
 25 58  1  0  0  0  0
 26 27  1  0  0  0  0
 26 59  1  0  0  0  0
 26 60  1  0  0  0  0
 27 61  1  6  0  0  0
 27 29  1  0  0  0  0
 28 62  1  0  0  0  0
 29 63  1  0  0  0  0
 29 64  1  0  0  0  0
 29 65  1  0  0  0  0
 31 32  1  0  0  0  0
 31 66  1  0  0  0  0
 31 67  1  0  0  0  0
 32 33  2  0  0  0  0
 32 37  1  0  0  0  0
 33 34  1  0  0  0  0
 33 68  1  0  0  0  0
 34 35  2  0  0  0  0
 34 69  1  0  0  0  0
 35 36  1  0  0  0  0
 35 70  1  0  0  0  0
 36 37  2  0  0  0  0
 36 71  1  0  0  0  0
 37 72  1  0  0  0  0
M  END
>  <DRUGBANK_ID>
DB16766

>  <COMMON_NAME>
Cytochalasin B

>  <CAS_NUMBER>
14930-96-2

>  <UNII>
3CHI920QS7

>  <SYNONYMS>
Cytochalasin-B; Phomin

$$$$
