TNK
 OpenBabel10282417173D

 51 53  0  0  0  0  0  0  0  0999 V2000
    1.0968   -0.2730   -0.1887 C   0  0  0  0  0  0  0  0  0  0  0  0
    0.2858   -1.3910   -0.0754 C   0  0  0  0  0  0  0  0  0  0  0  0
   -1.0963   -1.2205   -0.0185 C   0  0  0  0  0  0  0  0  0  0  0  0
   -1.6747    0.0528    0.0267 C   0  0  0  0  0  0  0  0  0  0  0  0
   -0.8819    1.1647    0.0226 C   0  0  0  0  0  0  0  0  0  0  0  0
    0.4592    0.9761   -0.1797 C   0  0  0  0  0  0  0  0  0  0  0  0
    3.5575    0.0602   -1.1025 C   0  0  0  0  0  0  0  0  0  0  0  0
    3.6819    1.4464   -1.3601 N   0  0  0  0  0  0  0  0  0  0  0  0
    4.3851    1.9392   -2.4427 C   0  0  0  0  0  0  0  0  0  0  0  0
    4.3730    3.1149   -2.8108 O   0  0  0  0  0  0  0  0  0  0  0  0
    5.1390    1.0433   -3.1177 N   0  0  0  0  0  0  0  0  0  0  0  0
    5.2541   -0.2827   -2.8365 C   0  0  0  0  0  0  0  0  0  0  0  0
    6.0124   -0.9775   -3.4754 O   0  0  0  0  0  0  0  0  0  0  0  0
    4.3793   -0.8086   -1.7384 C   0  0  0  0  0  0  0  0  0  0  0  0
    2.5837   -0.4441   -0.0415 C   0  0  0  0  0  0  0  0  0  0  0  0
    4.5172   -2.2994   -1.4504 C   0  0  0  0  0  0  0  0  0  0  0  0
    4.0316   -3.1342   -2.6279 C   0  0  0  0  0  0  0  0  0  0  0  0
    5.9281   -2.6653   -0.9838 C   0  0  0  0  0  0  0  0  0  0  0  0
    2.9844    2.4572   -0.5967 C   0  0  0  0  0  0  0  0  0  0  0  0
    3.7908    3.4376    0.0324 O   0  0  0  0  0  0  0  0  0  0  0  0
    4.6317    2.8718    1.0297 C   0  0  0  0  0  0  0  0  0  0  0  0
    3.9812    2.1137    2.1786 C   0  0  0  0  0  0  0  0  0  0  0  0
    4.2464    0.7390    2.3060 C   0  0  0  0  0  0  0  0  0  0  0  0
    3.5964   -0.0486    3.2597 C   0  0  0  0  0  0  0  0  0  0  0  0
    2.8352    0.5661    4.2394 C   0  0  0  0  0  0  0  0  0  0  0  0
    2.6590    1.9502    4.2022 C   0  0  0  0  0  0  0  0  0  0  0  0
    3.1406    2.7077    3.1233 C   0  0  0  0  0  0  0  0  0  0  0  0
    0.7217   -2.3866   -0.0183 H   0  0  0  0  0  0  0  0  0  0  0  0
   -1.7334   -2.0935    0.0046 H   0  0  0  0  0  0  0  0  0  0  0  0
   -2.7441    0.1989    0.0349 H   0  0  0  0  0  0  0  0  0  0  0  0
   -1.2449    2.1843    0.1216 H   0  0  0  0  0  0  0  0  0  0  0  0
    0.9090    1.9291   -0.3138 H   0  0  0  0  0  0  0  0  0  0  0  0
    5.7014    1.3980   -3.8719 H   0  0  0  0  0  0  0  0  0  0  0  0
    2.7676    0.0382    0.8930 H   0  0  0  0  0  0  0  0  0  0  0  0
    2.7817   -1.4798    0.2440 H   0  0  0  0  0  0  0  0  0  0  0  0
    3.8887   -2.6198   -0.6190 H   0  0  0  0  0  0  0  0  0  0  0  0
    4.6565   -3.0025   -3.5132 H   0  0  0  0  0  0  0  0  0  0  0  0
    4.0370   -4.1966   -2.3680 H   0  0  0  0  0  0  0  0  0  0  0  0
    3.0037   -2.8561   -2.8894 H   0  0  0  0  0  0  0  0  0  0  0  0
    6.2133   -2.0661   -0.1100 H   0  0  0  0  0  0  0  0  0  0  0  0
    5.9708   -3.7194   -0.6915 H   0  0  0  0  0  0  0  0  0  0  0  0
    6.6803   -2.5100   -1.7595 H   0  0  0  0  0  0  0  0  0  0  0  0
    2.2669    2.9594   -1.2602 H   0  0  0  0  0  0  0  0  0  0  0  0
    2.5165    1.9943    0.2509 H   0  0  0  0  0  0  0  0  0  0  0  0
    5.3236    2.2085    0.5035 H   0  0  0  0  0  0  0  0  0  0  0  0
    5.2169    3.6902    1.4452 H   0  0  0  0  0  0  0  0  0  0  0  0
    4.8447    0.2404    1.5443 H   0  0  0  0  0  0  0  0  0  0  0  0
    3.6658   -1.1332    3.2107 H   0  0  0  0  0  0  0  0  0  0  0  0
    2.3827   -0.0308    5.0270 H   0  0  0  0  0  0  0  0  0  0  0  0
    2.1456    2.4401    5.0254 H   0  0  0  0  0  0  0  0  0  0  0  0
    2.8715    3.7588    3.0484 H   0  0  0  0  0  0  0  0  0  0  0  0
  1  2  2  0  0  0  0
  1  6  1  0  0  0  0
  1 15  1  0  0  0  0
  2  3  1  0  0  0  0
  2 28  1  0  0  0  0
  3  4  2  0  0  0  0
  3 29  1  0  0  0  0
  4  5  1  0  0  0  0
  4 30  1  0  0  0  0
  5  6  2  0  0  0  0
  5 31  1  0  0  0  0
  6 32  1  0  0  0  0
  7  8  1  0  0  0  0
  7 14  2  0  0  0  0
  7 15  1  0  0  0  0
  8  9  1  0  0  0  0
  8 19  1  0  0  0  0
  9 10  2  0  0  0  0
  9 11  1  0  0  0  0
 11 12  1  0  0  0  0
 11 33  1  0  0  0  0
 12 13  2  0  0  0  0
 12 14  1  0  0  0  0
 14 16  1  0  0  0  0
 15 34  1  0  0  0  0
 15 35  1  0  0  0  0
 16 17  1  0  0  0  0
 16 18  1  0  0  0  0
 16 36  1  0  0  0  0
 17 37  1  0  0  0  0
 17 38  1  0  0  0  0
 17 39  1  0  0  0  0
 18 40  1  0  0  0  0
 18 41  1  0  0  0  0
 18 42  1  0  0  0  0
 19 20  1  0  0  0  0
 19 43  1  0  0  0  0
 19 44  1  0  0  0  0
 20 21  1  0  0  0  0
 21 22  1  0  0  0  0
 21 45  1  0  0  0  0
 21 46  1  0  0  0  0
 22 23  2  0  0  0  0
 22 27  1  0  0  0  0
 23 24  1  0  0  0  0
 23 47  1  0  0  0  0
 24 25  2  0  0  0  0
 24 48  1  0  0  0  0
 25 26  1  0  0  0  0
 25 49  1  0  0  0  0
 26 27  2  0  0  0  0
 26 50  1  0  0  0  0
 27 51  1  0  0  0  0
M  END
>  <DRUGBANK_ID>
DB08634

>  <COMMON_NAME>
6-BENZYL-1-BENZYLOXYMETHYL-5-ISOPROPYL URACIL

>  <UNII>
2HRU1H9M1I

$$$$
