A46
 OpenBabel10282417163D

 38 40  0  0  0  0  0  0  0  0999 V2000
   -4.3343    2.6947    3.1690 C   0  0  0  0  0  0  0  0  0  0  0  0
   -4.6255    3.4616    4.3000 N   0  0  0  0  0  0  0  0  0  0  0  0
   -5.1638    3.1333    5.5018 C   0  0  0  0  0  0  0  0  0  0  0  0
   -6.3745    2.3488    5.6350 C   0  0  0  0  0  0  0  0  0  0  0  0
   -4.6879    3.7212    6.4823 O   0  0  0  0  0  0  0  0  0  0  0  0
   -7.5413    3.0094    6.0195 N   0  0  0  0  0  0  0  0  0  0  0  0
   -6.5093    1.1201    6.2885 C   0  0  0  0  0  0  0  0  0  0  0  0
   -7.6256    2.7629    7.3822 C   0  0  0  0  0  0  0  0  0  0  0  0
   -7.0758    1.4936    7.5575 C   0  0  0  0  0  0  0  0  0  0  0  0
   -8.0059    3.5986    8.4332 C   0  0  0  0  0  0  0  0  0  0  0  0
   -7.0050    0.9650    8.8597 C   0  0  0  0  0  0  0  0  0  0  0  0
   -7.8291    3.0989    9.7239 C   0  0  0  0  0  0  0  0  0  0  0  0
   -7.3644    1.7987    9.9292 C   0  0  0  0  0  0  0  0  0  0  0  0
   -7.1576    1.2355   11.5452 Cl  0  0  0  0  0  0  0  0  0  0  0  0
   -3.5455    3.3297    2.2006 C   0  0  0  0  0  0  0  0  0  0  0  0
   -3.0661    2.6303    1.0950 C   0  0  0  0  0  0  0  0  0  0  0  0
   -3.3814    1.2778    0.9328 C   0  0  0  0  0  0  0  0  0  0  0  0
   -4.1859    0.6525    1.9004 C   0  0  0  0  0  0  0  0  0  0  0  0
   -4.6590    1.3544    3.0142 C   0  0  0  0  0  0  0  0  0  0  0  0
   -2.8311    0.4619   -0.2149 C   0  0  2  0  0  0  0  0  0  0  0  0
   -1.3191    0.1959   -0.0555 C   0  0  0  0  0  0  0  0  0  0  0  0
   -3.1226    1.1049   -1.4565 O   0  0  0  0  0  0  0  0  0  0  0  0
   -0.9435   -1.0423   -0.6632 O   0  0  0  0  0  0  0  0  0  0  0  0
   -3.3606   -0.4961   -0.2590 H   0  0  0  0  0  0  0  0  0  0  0  0
   -4.0404    4.2793    4.4204 H   0  0  0  0  0  0  0  0  0  0  0  0
   -7.7950    3.9135    5.6525 H   0  0  0  0  0  0  0  0  0  0  0  0
   -5.8460    0.2730    6.1640 H   0  0  0  0  0  0  0  0  0  0  0  0
   -8.3101    4.6261    8.2655 H   0  0  0  0  0  0  0  0  0  0  0  0
   -6.5578   -0.0067    9.0415 H   0  0  0  0  0  0  0  0  0  0  0  0
   -8.0335    3.7474   10.5728 H   0  0  0  0  0  0  0  0  0  0  0  0
   -3.2683    4.3762    2.3131 H   0  0  0  0  0  0  0  0  0  0  0  0
   -2.4329    3.1539    0.3836 H   0  0  0  0  0  0  0  0  0  0  0  0
   -4.4349   -0.4031    1.8065 H   0  0  0  0  0  0  0  0  0  0  0  0
   -5.2347    0.8111    3.7527 H   0  0  0  0  0  0  0  0  0  0  0  0
   -0.7268    0.9815   -0.5361 H   0  0  0  0  0  0  0  0  0  0  0  0
   -1.0232    0.1353    0.9975 H   0  0  0  0  0  0  0  0  0  0  0  0
   -2.6243    1.9366   -1.4924 H   0  0  0  0  0  0  0  0  0  0  0  0
   -1.4294   -1.7508   -0.2058 H   0  0  0  0  0  0  0  0  0  0  0  0
  1 15  2  0  0  0  0
  1 19  1  0  0  0  0
  2  1  1  0  0  0  0
  2 25  1  0  0  0  0
  3  5  2  0  0  0  0
  3  2  1  0  0  0  0
  4  3  1  0  0  0  0
  6  4  1  0  0  0  0
  6 26  1  0  0  0  0
  7  4  2  0  0  0  0
  7 27  1  0  0  0  0
  8  9  1  0  0  0  0
  8  6  1  0  0  0  0
  9  7  1  0  0  0  0
 10  8  2  0  0  0  0
 10 28  1  0  0  0  0
 11  9  2  0  0  0  0
 11 29  1  0  0  0  0
 12 13  2  0  0  0  0
 12 10  1  0  0  0  0
 12 30  1  0  0  0  0
 13 11  1  0  0  0  0
 14 13  1  0  0  0  0
 15 16  1  0  0  0  0
 15 31  1  0  0  0  0
 16 17  2  0  0  0  0
 16 32  1  0  0  0  0
 18 17  1  0  0  0  0
 18 33  1  0  0  0  0
 19 18  2  0  0  0  0
 19 34  1  0  0  0  0
 20 22  1  0  0  0  0
 20 24  1  1  0  0  0
 20 21  1  0  0  0  0
 20 17  1  0  0  0  0
 21 35  1  0  0  0  0
 21 36  1  0  0  0  0
 22 37  1  0  0  0  0
 23 21  1  0  0  0  0
 23 38  1  0  0  0  0
M  END
>  <DRUGBANK_ID>
DB07315

>  <COMMON_NAME>
5-chloro-N-{4-[(1R)-1,2-dihydroxyethyl]phenyl}-1H-indole-2-carboxamide

$$$$
