
 OpenBabel10282417203D

 53 56  0  0  0  0  0  0  0  0999 V2000
   -0.4854    0.9353   -0.9352 C   0  0  0  0  0  0  0  0  0  0  0  0
    0.4689    0.0043   -1.2512 C   0  0  0  0  0  0  0  0  0  0  0  0
    0.2681   -1.3924   -0.9349 C   0  0  0  0  0  0  0  0  0  0  0  0
    1.4998   -2.0151   -0.6210 C   0  0  0  0  0  0  0  0  0  0  0  0
    2.7407   -1.2808   -0.6066 C   0  0  0  0  0  0  0  0  0  0  0  0
    2.8668    0.0975   -0.8907 C   0  0  0  0  0  0  0  0  0  0  0  0
    1.6926    0.7360   -1.2132 C   0  0  0  0  0  0  0  0  0  0  0  0
    1.4579    2.0732   -0.9494 N   0  0  0  0  0  0  0  0  0  0  0  0
    0.1481    2.1477   -0.7232 C   0  0  0  0  0  0  0  0  0  0  0  0
   -1.1517   -1.9915   -0.4997 C   0  0  2  0  0  0  0  0  0  0  0  0
   -2.0672   -1.2679    0.3354 C   0  0  1  0  0  0  0  0  0  0  0  0
   -1.8280    0.4296   -0.6257 C   0  0  0  0  0  0  0  0  0  0  0  0
   -3.6627   -2.3331    0.2816 N   0  0  0  0  0  0  0  0  0  0  0  0
   -4.6046   -1.4001    0.7875 C   0  0  0  0  0  0  0  0  0  0  0  0
   -3.9171   -0.4409   -0.1607 C   0  0  1  0  0  0  0  0  0  0  0  0
   -3.6418    0.7255    1.0347 N   0  0  0  0  0  0  0  0  0  0  0  0
   -2.6971    0.5805    2.0788 C   0  0  0  0  0  0  0  0  0  0  0  0
   -1.4388    1.1758    1.7486 N   0  0  0  0  0  0  0  0  0  0  0  0
   -0.1048    0.3568    2.2118 C   0  0  0  0  0  0  0  0  0  0  0  0
    1.2979    0.3882    1.6293 C   0  0  0  0  0  0  0  0  0  0  0  0
   -1.5230    2.6442    1.2595 C   0  0  0  0  0  0  0  0  0  0  0  0
   -2.1331    3.2216   -0.3748 C   0  0  0  0  0  0  0  0  0  0  0  0
   -2.8233   -0.2791    2.9558 O   0  0  0  0  0  0  0  0  0  0  0  0
   -2.4352   -1.4887   -1.2771 C   0  0  0  0  0  0  0  0  0  0  0  0
   -4.5225   -2.4910   -1.2501 C   0  0  0  0  0  0  0  0  0  0  0  0
   -1.8025   -1.3649    1.3755 H   0  0  0  0  0  0  0  0  0  0  0  0
   -1.1004   -2.9914   -0.0159 H   0  0  0  0  0  0  0  0  0  0  0  0
    1.4932   -2.9955   -0.1389 H   0  0  0  0  0  0  0  0  0  0  0  0
    3.5867   -1.7056   -0.0713 H   0  0  0  0  0  0  0  0  0  0  0  0
    3.6297    0.7065   -0.3939 H   0  0  0  0  0  0  0  0  0  0  0  0
    2.0094    2.7611   -0.4361 H   0  0  0  0  0  0  0  0  0  0  0  0
   -0.0722    3.1033   -0.2807 H   0  0  0  0  0  0  0  0  0  0  0  0
   -2.3770    0.4794   -1.6061 H   0  0  0  0  0  0  0  0  0  0  0  0
   -2.4212    1.2087   -0.2883 H   0  0  0  0  0  0  0  0  0  0  0  0
   -5.6688   -1.5898    0.5704 H   0  0  0  0  0  0  0  0  0  0  0  0
   -4.5980   -1.2109    1.8713 H   0  0  0  0  0  0  0  0  0  0  0  0
   -4.6392    0.0534   -0.7953 H   0  0  0  0  0  0  0  0  0  0  0  0
   -3.7880    1.6867    0.7421 H   0  0  0  0  0  0  0  0  0  0  0  0
    0.1087    0.5839    3.2376 H   0  0  0  0  0  0  0  0  0  0  0  0
   -0.3085   -0.7279    2.1359 H   0  0  0  0  0  0  0  0  0  0  0  0
    1.7663    1.3486    1.4454 H   0  0  0  0  0  0  0  0  0  0  0  0
    2.0476   -0.3224    2.0228 H   0  0  0  0  0  0  0  0  0  0  0  0
    1.1629   -0.1359    0.7387 H   0  0  0  0  0  0  0  0  0  0  0  0
   -2.1977    3.1499    1.9485 H   0  0  0  0  0  0  0  0  0  0  0  0
   -0.5257    3.0118    1.5258 H   0  0  0  0  0  0  0  0  0  0  0  0
   -3.1593    2.9446   -0.6403 H   0  0  0  0  0  0  0  0  0  0  0  0
   -1.8801    4.2719   -0.5442 H   0  0  0  0  0  0  0  0  0  0  0  0
   -1.6988    2.8389   -1.3390 H   0  0  0  0  0  0  0  0  0  0  0  0
   -2.1138   -1.0708   -2.2179 H   0  0  0  0  0  0  0  0  0  0  0  0
   -2.6083   -2.4937   -1.6344 H   0  0  0  0  0  0  0  0  0  0  0  0
   -4.5262   -1.5433   -1.8604 H   0  0  0  0  0  0  0  0  0  0  0  0
   -4.0905   -3.2481   -1.9047 H   0  0  0  0  0  0  0  0  0  0  0  0
   -5.5758   -2.7255   -1.1204 H   0  0  0  0  0  0  0  0  0  0  0  0
  2  1  1  0  0  0  0
  3  2  2  0  0  0  0
  3 10  1  0  0  0  0
  4  3  1  0  0  0  0
  4 28  1  0  0  0  0
  5  4  2  0  0  0  0
  5  6  1  0  0  0  0
  5 29  1  0  0  0  0
  6  7  2  0  0  0  0
  6 30  1  0  0  0  0
  7  2  1  0  0  0  0
  7  8  1  0  0  0  0
  8  9  1  0  0  0  0
  8 31  1  0  0  0  0
  9  1  2  0  0  0  0
  9 32  1  0  0  0  0
 10 11  1  0  0  0  0
 10 27  1  6  0  0  0
 11 12  1  0  0  0  0
 11 26  1  1  0  0  0
 12  1  1  0  0  0  0
 12 33  1  0  0  0  0
 12 34  1  0  0  0  0
 13 11  1  0  0  0  0
 14 13  1  0  0  0  0
 14 15  1  0  0  0  0
 14 35  1  0  0  0  0
 14 36  1  0  0  0  0
 15 24  1  0  0  0  0
 15 37  1  6  0  0  0
 15 16  1  0  0  0  0
 16 38  1  0  0  0  0
 17 16  1  0  0  0  0
 18 17  1  0  0  0  0
 19 18  1  0  0  0  0
 19 39  1  0  0  0  0
 19 40  1  0  0  0  0
 20 19  1  0  0  0  0
 20 41  1  0  0  0  0
 20 42  1  0  0  0  0
 20 43  1  0  0  0  0
 21 18  1  0  0  0  0
 21 44  1  0  0  0  0
 21 45  1  0  0  0  0
 22 21  1  0  0  0  0
 22 46  1  0  0  0  0
 22 47  1  0  0  0  0
 22 48  1  0  0  0  0
 23 17  2  0  0  0  0
 24 10  1  0  0  0  0
 24 49  1  0  0  0  0
 24 50  1  0  0  0  0
 25 13  1  0  0  0  0
 25 51  1  0  0  0  0
 25 52  1  0  0  0  0
 25 53  1  0  0  0  0
M  END
>  <DRUGBANK_ID>
DB13399

>  <COMMON_NAME>
Terguride

>  <CAS_NUMBER>
37686-84-3

>  <UNII>
21OJT43Q88

>  <SYNONYMS>
Tergurida; Terguride; Terguridum

$$$$
