
 OpenBabel10282417123D

 28 28  0  0  0  0  0  0  0  0999 V2000
    0.7091    1.1989   -0.2139 O   0  0  0  0  0  0  0  0  0  0  0  0
   -1.4263   -2.4183   -0.2421 O   0  0  0  0  0  0  0  0  0  0  0  0
    1.4333   -2.4240    0.2367 O   0  0  0  0  0  0  0  0  0  0  0  0
   -2.7475   -0.0800    0.3416 O   0  0  0  0  0  0  0  0  0  0  0  0
   -0.6002    1.4167    1.6820 O   0  0  0  0  0  0  0  0  0  0  0  0
    3.5515    1.2062    0.1307 O   0  0  0  0  0  0  0  0  0  0  0  0
   -2.3957    2.4151   -1.1029 O   0  0  0  0  0  0  0  0  0  0  0  0
   -0.9768    3.7243    0.0220 N   0  0  0  0  0  0  0  0  0  0  0  0
   -0.7000   -1.2793    0.2369 C   0  0  1  0  0  0  0  0  0  0  0  0
    0.7430   -1.2720   -0.2468 C   0  0  1  0  0  0  0  0  0  0  0  0
   -1.4217   -0.0130   -0.1996 C   0  0  2  0  0  0  0  0  0  0  0  0
    1.4314    0.0207    0.2167 C   0  0  1  0  0  0  0  0  0  0  0  0
   -0.6490    1.2491    0.2627 C   0  0  2  0  0  0  0  0  0  0  0  0
    2.8632    0.0502   -0.3347 C   0  0  0  0  0  0  0  0  0  0  0  0
   -1.4303    2.4859   -0.3331 C   0  0  0  0  0  0  0  0  0  0  0  0
   -0.2486    3.8373    0.7131 H   0  0  0  0  0  0  0  0  0  0  0  0
   -1.5267    4.5197   -0.2746 H   0  0  0  0  0  0  0  0  0  0  0  0
   -1.4461   -2.3833   -1.2167 H   0  0  0  0  0  0  0  0  0  0  0  0
    1.2335   -2.5467    1.1820 H   0  0  0  0  0  0  0  0  0  0  0  0
   -2.9424   -1.0186    0.5270 H   0  0  0  0  0  0  0  0  0  0  0  0
   -0.4758    0.5525    2.0982 H   0  0  0  0  0  0  0  0  0  0  0  0
    3.0291    1.9710   -0.1721 H   0  0  0  0  0  0  0  0  0  0  0  0
   -0.7339   -1.3724    1.3281 H   0  0  0  0  0  0  0  0  0  0  0  0
    0.7516   -1.3312   -1.3420 H   0  0  0  0  0  0  0  0  0  0  0  0
   -1.4921   -0.0159   -1.2989 H   0  0  0  0  0  0  0  0  0  0  0  0
    1.5131    0.0425    1.3119 H   0  0  0  0  0  0  0  0  0  0  0  0
    3.4258   -0.8275    0.0014 H   0  0  0  0  0  0  0  0  0  0  0  0
    2.8668    0.0677   -1.4288 H   0  0  0  0  0  0  0  0  0  0  0  0
  1 12  1  0  0  0  0
  1 13  1  0  0  0  0
  2 18  1  0  0  0  0
  3 19  1  0  0  0  0
  4 20  1  0  0  0  0
  5 21  1  0  0  0  0
  6 14  1  0  0  0  0
  6 22  1  0  0  0  0
  7 15  2  0  0  0  0
  8 15  1  0  0  0  0
  8 16  1  0  0  0  0
  8 17  1  0  0  0  0
  9  2  1  0  0  0  0
  9 10  1  0  0  0  0
  9 11  1  0  0  0  0
  9 23  1  1  0  0  0
 10 12  1  0  0  0  0
 10 24  1  6  0  0  0
 10  3  1  0  0  0  0
 11 13  1  0  0  0  0
 11 25  1  6  0  0  0
 11  4  1  0  0  0  0
 12 14  1  0  0  0  0
 12 26  1  1  0  0  0
 13  5  1  1  0  0  0
 13 15  1  0  0  0  0
 14 27  1  0  0  0  0
 14 28  1  0  0  0  0
M  END
>  <DRUGBANK_ID>
DB02719

>  <SECONDARY_ACCESSION_NUMBERS>
EXPT00842

>  <COMMON_NAME>
C-(1-hydrogyl-beta-D-glucopyranosyl) formamide

>  <CAS_NUMBER>
361440-32-6

>  <SYNONYMS>
(2R,3R,4S,5S,6R)-2,3,4,5-Tetrahydroxy-6-(hydroxymethyl)tetrahydro-2H-pyran-2-carboxamide

$$$$
