
 OpenBabel10282417193D

 71 74  0  0  1  0  0  0  0  0999 V2000
   -0.9047    1.4770   -5.4927 C   0  0  0  0  0  0  0  0  0  0  0  0
    0.3801    0.6420   -5.6130 C   0  0  0  0  0  0  0  0  0  0  0  0
    0.4195    0.2773   -7.0536 C   0  0  0  0  0  0  0  0  0  0  0  0
    1.7705    1.2475   -5.5792 C   0  0  0  0  0  0  0  0  0  0  0  0
    0.3753   -0.3776   -4.4386 C   0  0  0  0  0  0  0  0  0  0  0  0
    0.5783    0.1696   -2.9288 C   0  0  1  0  0  0  0  0  0  0  0  0
    1.5971    1.4536   -2.6312 C   0  0  2  0  0  0  0  0  0  0  0  0
    0.4771    2.6902   -2.7038 C   0  0  2  0  0  0  0  0  0  0  0  0
   -0.9930    1.9899   -2.5428 C   0  0  1  0  0  0  0  0  0  0  0  0
   -0.7929    0.5209   -2.3775 N   0  0  0  0  0  0  0  0  0  0  0  0
   -1.9969    2.7055   -1.6145 C   0  0  0  0  0  0  0  0  0  0  0  0
   -2.9512    3.3197   -2.1222 O   0  0  0  0  0  0  0  0  0  0  0  0
   -1.9256    2.7128   -0.2540 N   0  0  0  0  0  0  0  0  0  0  0  0
   -1.1061    1.9755    0.6231 C   0  0  0  0  0  0  0  0  0  0  0  0
    0.1343    1.6693    0.2421 C   0  0  0  0  0  0  0  0  0  0  0  0
    1.0503    0.9301    0.9524 C   0  0  0  0  0  0  0  0  0  0  0  0
    0.9065    0.5974    2.2347 C   0  0  0  0  0  0  0  0  0  0  0  0
   -0.3760    0.8053    2.6765 C   0  0  0  0  0  0  0  0  0  0  0  0
   -1.4080    1.3670    1.8245 C   0  0  0  0  0  0  0  0  0  0  0  0
   -2.6743    0.9739    2.1668 O   0  0  0  0  0  0  0  0  0  0  0  0
   -3.6776    1.1875    1.1767 C   0  0  0  0  0  0  0  0  0  0  0  0
    2.0477   -0.0873    2.8998 C   0  0  0  0  0  0  0  0  0  0  0  0
    2.1483   -0.2908    4.0958 O   0  0  0  0  0  0  0  0  0  0  0  0
    3.0256   -0.4544    2.0487 O   0  0  0  0  0  0  0  0  0  0  0  0
    0.7228    3.8758   -3.6265 C   0  0  0  0  0  0  0  0  0  0  0  0
    0.6583    3.8187   -5.0076 C   0  0  0  0  0  0  0  0  0  0  0  0
    0.8814    4.7648   -5.9612 C   0  0  0  0  0  0  0  0  0  0  0  0
    1.1659    5.9925   -5.4854 C   0  0  0  0  0  0  0  0  0  0  0  0
    1.2130    6.1866   -4.0959 C   0  0  0  0  0  0  0  0  0  0  0  0
    1.0694    5.1308   -3.1781 C   0  0  0  0  0  0  0  0  0  0  0  0
    1.2632    5.3433   -1.8691 F   0  0  0  0  0  0  0  0  0  0  0  0
    1.3120    7.7944   -3.5202 Cl  0  0  0  0  0  0  0  0  0  0  0  0
    2.9478    1.6017   -3.3956 C   0  0  0  0  0  0  0  0  0  0  0  0
    4.0018    1.6587   -3.8492 N   0  0  0  0  0  0  0  0  0  0  0  0
    2.5197    1.3434   -1.4169 C   0  0  0  0  0  0  0  0  0  0  0  0
    3.2757    0.1434   -1.2465 C   0  0  0  0  0  0  0  0  0  0  0  0
    4.3099    0.1264   -0.3191 C   0  0  0  0  0  0  0  0  0  0  0  0
    4.5252    1.2432    0.5116 C   0  0  0  0  0  0  0  0  0  0  0  0
    3.7319    2.3782    0.4131 C   0  0  0  0  0  0  0  0  0  0  0  0
    2.8354    2.4785   -0.6225 C   0  0  0  0  0  0  0  0  0  0  0  0
    2.0336    3.5458   -0.5948 F   0  0  0  0  0  0  0  0  0  0  0  0
    5.5569    1.1194    1.8859 Cl  0  0  0  0  0  0  0  0  0  0  0  0
   -1.1050    2.2927   -6.1986 H   0  0  0  0  0  0  0  0  0  0  0  0
   -0.7070    2.0203   -4.6168 H   0  0  0  0  0  0  0  0  0  0  0  0
   -1.8368    0.9385   -5.3263 H   0  0  0  0  0  0  0  0  0  0  0  0
    0.5864    1.2276   -7.6029 H   0  0  0  0  0  0  0  0  0  0  0  0
    1.2745   -0.3696   -7.2445 H   0  0  0  0  0  0  0  0  0  0  0  0
   -0.5248   -0.1394   -7.3645 H   0  0  0  0  0  0  0  0  0  0  0  0
    1.6687    1.8664   -4.7410 H   0  0  0  0  0  0  0  0  0  0  0  0
    2.5436    0.4801   -5.4619 H   0  0  0  0  0  0  0  0  0  0  0  0
    2.1520    1.9877   -6.2895 H   0  0  0  0  0  0  0  0  0  0  0  0
   -0.5649   -0.9484   -4.5028 H   0  0  0  0  0  0  0  0  0  0  0  0
    1.1660   -1.1165   -4.6080 H   0  0  0  0  0  0  0  0  0  0  0  0
    0.8497   -0.7276   -2.3471 H   0  0  0  0  0  0  0  0  0  0  0  0
    0.4677    3.2708   -1.7930 H   0  0  0  0  0  0  0  0  0  0  0  0
   -1.7009    2.0074   -3.3725 H   0  0  0  0  0  0  0  0  0  0  0  0
   -0.9286    0.2218   -1.4088 H   0  0  0  0  0  0  0  0  0  0  0  0
   -2.6832    3.2690    0.1244 H   0  0  0  0  0  0  0  0  0  0  0  0
    0.4252    1.9758   -0.7005 H   0  0  0  0  0  0  0  0  0  0  0  0
    1.9353    0.5835    0.5007 H   0  0  0  0  0  0  0  0  0  0  0  0
   -0.6033    0.3786    3.6363 H   0  0  0  0  0  0  0  0  0  0  0  0
   -3.8761    2.2582    1.1167 H   0  0  0  0  0  0  0  0  0  0  0  0
   -3.4441    0.7577    0.1867 H   0  0  0  0  0  0  0  0  0  0  0  0
   -4.5946    0.7262    1.5264 H   0  0  0  0  0  0  0  0  0  0  0  0
    3.8896   -0.5073    2.5192 H   0  0  0  0  0  0  0  0  0  0  0  0
    0.5091    2.9446   -5.5543 H   0  0  0  0  0  0  0  0  0  0  0  0
    0.8061    4.4445   -6.9992 H   0  0  0  0  0  0  0  0  0  0  0  0
    1.3293    6.7674   -6.2140 H   0  0  0  0  0  0  0  0  0  0  0  0
    3.0669   -0.7468   -1.8447 H   0  0  0  0  0  0  0  0  0  0  0  0
    4.8159   -0.8189   -0.1452 H   0  0  0  0  0  0  0  0  0  0  0  0
    3.6142    3.0801    1.2354 H   0  0  0  0  0  0  0  0  0  0  0  0
  1  2  1  0  0  0  0
  1 43  1  0  0  0  0
  1 44  1  0  0  0  0
  1 45  1  0  0  0  0
  2  3  1  0  0  0  0
  2  4  1  0  0  0  0
  2  5  1  0  0  0  0
  3 46  1  0  0  0  0
  3 47  1  0  0  0  0
  3 48  1  0  0  0  0
  4 49  1  0  0  0  0
  4 50  1  0  0  0  0
  4 51  1  0  0  0  0
  5 52  1  0  0  0  0
  5 53  1  0  0  0  0
  6  7  1  0  0  0  0
  6 10  1  0  0  0  0
  6 54  1  1  0  0  0
  6  5  1  0  0  0  0
  7  8  1  0  0  0  0
  7 35  1  0  0  0  0
  7 33  1  6  0  0  0
  8  9  1  0  0  0  0
  8 55  1  1  0  0  0
  8 25  1  0  0  0  0
  9 10  1  0  0  0  0
  9 11  1  0  0  0  0
  9 56  1  6  0  0  0
 10 57  1  0  0  0  0
 11 12  2  0  0  0  0
 11 13  1  0  0  0  0
 13 14  1  0  0  0  0
 13 58  1  0  0  0  0
 14 15  2  0  0  0  0
 14 19  1  0  0  0  0
 15 16  1  0  0  0  0
 15 59  1  0  0  0  0
 16 17  2  0  0  0  0
 16 60  1  0  0  0  0
 17 18  1  0  0  0  0
 17 22  1  0  0  0  0
 18 19  2  0  0  0  0
 18 61  1  0  0  0  0
 19 20  1  0  0  0  0
 20 21  1  0  0  0  0
 21 62  1  0  0  0  0
 21 63  1  0  0  0  0
 21 64  1  0  0  0  0
 22 23  2  0  0  0  0
 22 24  1  0  0  0  0
 24 65  1  0  0  0  0
 25 26  2  0  0  0  0
 25 30  1  0  0  0  0
 26 27  1  0  0  0  0
 26 66  1  0  0  0  0
 27 28  2  0  0  0  0
 27 67  1  0  0  0  0
 28 29  1  0  0  0  0
 28 68  1  0  0  0  0
 29 30  2  0  0  0  0
 29 32  1  0  0  0  0
 30 31  1  0  0  0  0
 33 34  3  0  0  0  0
 35 36  2  0  0  0  0
 35 40  1  0  0  0  0
 36 37  1  0  0  0  0
 36 69  1  0  0  0  0
 37 38  2  0  0  0  0
 37 70  1  0  0  0  0
 38 39  1  0  0  0  0
 38 42  1  0  0  0  0
 39 40  2  0  0  0  0
 39 71  1  0  0  0  0
 40 41  1  0  0  0  0
M  END
>  <DRUGBANK_ID>
DB12325

>  <COMMON_NAME>
Idasanutlin

>  <CAS_NUMBER>
1229705-06-9

>  <UNII>
QSQ883V35U

>  <SYNONYMS>
BENZOIC ACID, 4-((((2R,3S,4R,5S)-3-(3-CHLORO-2-FLUOROPHENYL)-4-(4-CHLORO-2-FLUOROPHENYL)-4-CYANO-5-(2,2-DIMETHYLPROPYL)-2-PYRROLIDINYL)CARBONYL)AMINO)-3-METHOXY-; Idasanutlin

$$$$
