
 OpenBabel10282417223D

 53 52  0  0  0  0  0  0  0  0999 V2000
    1.9988    1.6236    1.1051 O   0  0  0  0  0  0  0  0  0  0  0  0
   -3.9471    2.6568   12.5252 O   0  0  0  0  0  0  0  0  0  0  0  0
   -1.8128    2.3526   11.9228 O   0  0  0  0  0  0  0  0  0  0  0  0
   -2.9829    3.1944    9.2231 C   0  0  0  0  0  0  0  0  0  0  0  0
   -1.4612    3.2238    9.1766 C   0  0  0  0  0  0  0  0  0  0  0  0
    1.5576    2.7956    1.7727 C   0  0  2  0  0  0  0  0  0  0  0  0
    1.7608    3.9921    0.8452 C   0  0  0  0  0  0  0  0  0  0  0  0
   -3.5227    2.1634   10.2065 C   0  0  0  0  0  0  0  0  0  0  0  0
   -0.8912    1.9201    8.6926 C   0  0  0  0  0  0  0  0  0  0  0  0
    0.4633    4.7105    0.6001 C   0  0  0  0  0  0  0  0  0  0  0  0
    2.3524    2.9412    3.0381 C   0  0  0  0  0  0  0  0  0  0  0  0
    0.2555    2.9682    6.7595 C   0  0  0  0  0  0  0  0  0  0  0  0
   -0.1234    1.8052    7.6055 C   0  0  0  0  0  0  0  0  0  0  0  0
    1.2435    6.8003    1.7065 C   0  0  0  0  0  0  0  0  0  0  0  0
    0.2374    5.9722    0.9816 C   0  0  0  0  0  0  0  0  0  0  0  0
    1.7451    2.9798    4.2250 C   0  0  0  0  0  0  0  0  0  0  0  0
    1.7363    3.1083    6.6532 C   0  0  0  0  0  0  0  0  0  0  0  0
   -2.9990    2.3961   11.6083 C   0  0  0  0  0  0  0  0  0  0  0  0
    2.4061    3.1258    5.4943 C   0  0  0  0  0  0  0  0  0  0  0  0
    1.5436    8.0576    0.9665 C   0  0  0  0  0  0  0  0  0  0  0  0
    1.4066    9.2770    1.5008 C   0  0  0  0  0  0  0  0  0  0  0  0
    0.9153    9.5283    2.8961 C   0  0  0  0  0  0  0  0  0  0  0  0
    1.9846   10.1893    3.7369 C   0  0  0  0  0  0  0  0  0  0  0  0
    1.6278    1.6745    0.2075 H   0  0  0  0  0  0  0  0  0  0  0  0
   -4.8608    2.6232   12.1916 H   0  0  0  0  0  0  0  0  0  0  0  0
   -3.3406    4.1960    9.4901 H   0  0  0  0  0  0  0  0  0  0  0  0
   -3.3714    2.9876    8.2145 H   0  0  0  0  0  0  0  0  0  0  0  0
   -1.0059    3.4727   10.1355 H   0  0  0  0  0  0  0  0  0  0  0  0
   -1.2042    4.0791    8.5546 H   0  0  0  0  0  0  0  0  0  0  0  0
    0.4924    2.6532    2.0044 H   0  0  0  0  0  0  0  0  0  0  0  0
    2.5328    4.6322    1.2720 H   0  0  0  0  0  0  0  0  0  0  0  0
    2.1684    3.7018   -0.1265 H   0  0  0  0  0  0  0  0  0  0  0  0
   -4.6162    2.1925   10.1866 H   0  0  0  0  0  0  0  0  0  0  0  0
   -3.2454    1.1476    9.9046 H   0  0  0  0  0  0  0  0  0  0  0  0
   -1.1057    1.0166    9.2606 H   0  0  0  0  0  0  0  0  0  0  0  0
   -0.3366    4.1593    0.1097 H   0  0  0  0  0  0  0  0  0  0  0  0
    3.4298    3.0380    2.9724 H   0  0  0  0  0  0  0  0  0  0  0  0
   -0.0943    3.9353    7.1137 H   0  0  0  0  0  0  0  0  0  0  0  0
   -0.2783    2.8288    5.8214 H   0  0  0  0  0  0  0  0  0  0  0  0
    0.2300    0.8218    7.2958 H   0  0  0  0  0  0  0  0  0  0  0  0
    0.8464    6.9268    2.7115 H   0  0  0  0  0  0  0  0  0  0  0  0
    2.2095    6.3290    1.8756 H   0  0  0  0  0  0  0  0  0  0  0  0
   -0.7388    6.4243    0.8065 H   0  0  0  0  0  0  0  0  0  0  0  0
    0.6653    2.8849    4.2068 H   0  0  0  0  0  0  0  0  0  0  0  0
    2.2771    3.2413    7.5908 H   0  0  0  0  0  0  0  0  0  0  0  0
    3.4841    3.2579    5.5137 H   0  0  0  0  0  0  0  0  0  0  0  0
    1.9393    7.9496   -0.0440 H   0  0  0  0  0  0  0  0  0  0  0  0
    1.6793   10.1411    0.8988 H   0  0  0  0  0  0  0  0  0  0  0  0
    0.0047   10.1299    2.8494 H   0  0  0  0  0  0  0  0  0  0  0  0
    0.6283    8.6195    3.4260 H   0  0  0  0  0  0  0  0  0  0  0  0
    2.2222   11.1823    3.3490 H   0  0  0  0  0  0  0  0  0  0  0  0
    1.6284   10.2867    4.7664 H   0  0  0  0  0  0  0  0  0  0  0  0
    2.9023    9.5893    3.7547 H   0  0  0  0  0  0  0  0  0  0  0  0
  1 24  1  0  0  0  0
  2 18  1  0  0  0  0
  2 25  1  0  0  0  0
  3 18  2  0  0  0  0
  4  5  1  0  0  0  0
  4  8  1  0  0  0  0
  4 26  1  0  0  0  0
  4 27  1  0  0  0  0
  5  9  1  0  0  0  0
  5 28  1  0  0  0  0
  5 29  1  0  0  0  0
  6 11  1  0  0  0  0
  6 30  1  1  0  0  0
  6  7  1  0  0  0  0
  6  1  1  0  0  0  0
  7 10  1  0  0  0  0
  7 31  1  0  0  0  0
  7 32  1  0  0  0  0
  8 18  1  0  0  0  0
  8 33  1  0  0  0  0
  8 34  1  0  0  0  0
  9 13  2  0  0  0  0
  9 35  1  0  0  0  0
 10 15  2  0  0  0  0
 10 36  1  0  0  0  0
 11 16  2  0  0  0  0
 11 37  1  0  0  0  0
 12 13  1  0  0  0  0
 12 17  1  0  0  0  0
 12 38  1  0  0  0  0
 12 39  1  0  0  0  0
 13 40  1  0  0  0  0
 14 15  1  0  0  0  0
 14 20  1  0  0  0  0
 14 41  1  0  0  0  0
 14 42  1  0  0  0  0
 15 43  1  0  0  0  0
 16 19  1  0  0  0  0
 16 44  1  0  0  0  0
 17 19  2  0  0  0  0
 17 45  1  0  0  0  0
 19 46  1  0  0  0  0
 20 21  2  0  0  0  0
 20 47  1  0  0  0  0
 21 22  1  0  0  0  0
 21 48  1  0  0  0  0
 22 23  1  0  0  0  0
 22 49  1  0  0  0  0
 22 50  1  0  0  0  0
 23 51  1  0  0  0  0
 23 52  1  0  0  0  0
 23 53  1  0  0  0  0
M  END
>  <DRUGBANK_ID>
DB15571

>  <COMMON_NAME>
(12R)-12-hydroxyeicosapentaenoic acid

>  <CAS_NUMBER>
109430-12-8

>  <UNII>
78P2ZC128S

$$$$
