
 OpenBabel10282417123D

 22 22  0  0  0  0  0  0  0  0999 V2000
    1.2820    1.9756   -1.4326 O   0  0  0  0  0  0  0  0  0  0  0  0
    0.6898    0.7040   -1.1769 C   0  0  1  0  0  0  0  0  0  0  0  0
    1.0627   -0.2327   -2.3343 C   0  0  0  0  0  0  0  0  0  0  0  0
    0.5516   -1.6492   -2.2055 C   0  0  0  0  0  0  0  0  0  0  0  0
   -0.6010   -1.9605   -1.4701 C   0  0  0  0  0  0  0  0  0  0  0  0
   -0.9135   -3.2839   -1.1749 C   0  0  0  0  0  0  0  0  0  0  0  0
   -0.1596   -4.3144   -1.7260 C   0  0  0  0  0  0  0  0  0  0  0  0
    0.9382   -4.0209   -2.5322 C   0  0  0  0  0  0  0  0  0  0  0  0
    1.2987   -2.6941   -2.7654 C   0  0  0  0  0  0  0  0  0  0  0  0
    1.1211    0.1015    0.1710 C   0  0  0  0  0  0  0  0  0  0  0  0
    2.0455   -0.6733    0.3837 O   0  0  0  0  0  0  0  0  0  0  0  0
    0.3333    0.4961    1.1960 O   0  0  0  0  0  0  0  0  0  0  0  0
    0.6149    2.6564   -1.2425 H   0  0  0  0  0  0  0  0  0  0  0  0
   -0.4001    0.8380   -1.1602 H   0  0  0  0  0  0  0  0  0  0  0  0
    0.7162    0.1936   -3.2843 H   0  0  0  0  0  0  0  0  0  0  0  0
    2.1599   -0.2526   -2.3989 H   0  0  0  0  0  0  0  0  0  0  0  0
   -1.2454   -1.1850   -1.0663 H   0  0  0  0  0  0  0  0  0  0  0  0
   -1.7318   -3.5045   -0.4952 H   0  0  0  0  0  0  0  0  0  0  0  0
   -0.4291   -5.3466   -1.5246 H   0  0  0  0  0  0  0  0  0  0  0  0
    1.5371   -4.8257   -2.9490 H   0  0  0  0  0  0  0  0  0  0  0  0
    2.1890   -2.4802   -3.3541 H   0  0  0  0  0  0  0  0  0  0  0  0
    0.7086    0.0150    1.9663 H   0  0  0  0  0  0  0  0  0  0  0  0
  1 13  1  0  0  0  0
  2  3  1  0  0  0  0
  2 14  1  1  0  0  0
  2 10  1  0  0  0  0
  2  1  1  0  0  0  0
  3  4  1  0  0  0  0
  3 15  1  0  0  0  0
  3 16  1  0  0  0  0
  4  9  2  0  0  0  0
  4  5  1  0  0  0  0
  5  6  2  0  0  0  0
  5 17  1  0  0  0  0
  6  7  1  0  0  0  0
  6 18  1  0  0  0  0
  7  8  2  0  0  0  0
  7 19  1  0  0  0  0
  8  9  1  0  0  0  0
  8 20  1  0  0  0  0
  9 21  1  0  0  0  0
 10 11  2  0  0  0  0
 10 12  1  0  0  0  0
 12 22  1  0  0  0  0
M  END
>  <DRUGBANK_ID>
DB02494

>  <SECONDARY_ACCESSION_NUMBERS>
EXPT01733

>  <COMMON_NAME>
(S)-3-phenyllactic acid

>  <CAS_NUMBER>
20312-36-1

>  <UNII>
KW7SNV9X8B

>  <SYNONYMS>
alpha-hydroxy-beta-phenyl-propionic acid; L-(−)-3-phenyllactic acid; L-3-phenyllactic acid; L-beta-Phenyllactic acid; L-β-phenyllactic acid

$$$$
