
 OpenBabel10282417213D

 35 36  0  0  0  0  0  0  0  0999 V2000
    1.3795   -0.2129    0.0342 C   0  0  0  0  0  0  0  0  0  0  0  0
    2.7715   -0.4030   -0.0000 N   0  0  0  0  0  0  0  0  0  0  0  0
    3.7506    0.5880    0.2200 C   0  0  0  0  0  0  0  0  0  0  0  0
    3.6559    1.5228    1.2650 C   0  0  0  0  0  0  0  0  0  0  0  0
    4.5917    2.5493    1.3929 C   0  0  0  0  0  0  0  0  0  0  0  0
    5.6667    2.6162    0.5113 C   0  0  0  0  0  0  0  0  0  0  0  0
    5.8026    1.6597   -0.4948 C   0  0  0  0  0  0  0  0  0  0  0  0
    4.8427    0.6583   -0.6457 C   0  0  0  0  0  0  0  0  0  0  0  0
    0.4803   -1.2767    0.0156 C   0  0  0  0  0  0  0  0  0  0  0  0
   -0.9106   -1.0389   -0.0295 C   0  0  0  0  0  0  0  0  0  0  0  0
   -1.4258    0.2676   -0.0594 C   0  0  0  0  0  0  0  0  0  0  0  0
   -2.7941    0.4924   -0.0957 N   0  0  0  0  0  0  0  0  0  0  0  0
   -3.3788    1.8269   -0.2266 C   0  0  0  0  0  0  0  0  0  0  0  0
   -4.0373    2.0202   -1.5862 C   0  0  0  0  0  0  0  0  0  0  0  0
   -4.3628    2.0329    0.9135 C   0  0  0  0  0  0  0  0  0  0  0  0
   -0.5100    1.3059    0.0091 C   0  0  0  0  0  0  0  0  0  0  0  0
    0.8561    1.0765   -0.0273 C   0  0  0  0  0  0  0  0  0  0  0  0
    3.0922   -1.3408    0.2141 H   0  0  0  0  0  0  0  0  0  0  0  0
    2.8215    1.4832    1.9624 H   0  0  0  0  0  0  0  0  0  0  0  0
    4.4740    3.2973    2.1729 H   0  0  0  0  0  0  0  0  0  0  0  0
    6.3956    3.4163    0.6034 H   0  0  0  0  0  0  0  0  0  0  0  0
    6.6459    1.7035   -1.1776 H   0  0  0  0  0  0  0  0  0  0  0  0
    4.9105   -0.0333   -1.4812 H   0  0  0  0  0  0  0  0  0  0  0  0
    0.8397   -2.3035    0.0229 H   0  0  0  0  0  0  0  0  0  0  0  0
   -1.5812   -1.8933   -0.0444 H   0  0  0  0  0  0  0  0  0  0  0  0
   -3.3874   -0.2972   -0.3172 H   0  0  0  0  0  0  0  0  0  0  0  0
   -2.6462    2.6288   -0.1350 H   0  0  0  0  0  0  0  0  0  0  0  0
   -4.8676    1.3257   -1.7405 H   0  0  0  0  0  0  0  0  0  0  0  0
   -4.4286    3.0418   -1.6672 H   0  0  0  0  0  0  0  0  0  0  0  0
   -3.3164    1.8800   -2.3993 H   0  0  0  0  0  0  0  0  0  0  0  0
   -3.8654    1.8772    1.8777 H   0  0  0  0  0  0  0  0  0  0  0  0
   -4.7545    3.0547    0.8976 H   0  0  0  0  0  0  0  0  0  0  0  0
   -5.2011    1.3340    0.8468 H   0  0  0  0  0  0  0  0  0  0  0  0
   -0.7974    2.3465    0.0756 H   0  0  0  0  0  0  0  0  0  0  0  0
    1.5001    1.9439   -0.1022 H   0  0  0  0  0  0  0  0  0  0  0  0
  1  2  1  0  0  0  0
  1  9  2  0  0  0  0
  1 17  1  0  0  0  0
  2  3  1  0  0  0  0
  2 18  1  0  0  0  0
  3  4  2  0  0  0  0
  3  8  1  0  0  0  0
  4  5  1  0  0  0  0
  4 19  1  0  0  0  0
  5  6  2  0  0  0  0
  5 20  1  0  0  0  0
  6  7  1  0  0  0  0
  6 21  1  0  0  0  0
  7  8  2  0  0  0  0
  7 22  1  0  0  0  0
  8 23  1  0  0  0  0
  9 10  1  0  0  0  0
  9 24  1  0  0  0  0
 10 11  2  0  0  0  0
 10 25  1  0  0  0  0
 11 12  1  0  0  0  0
 11 16  1  0  0  0  0
 12 13  1  0  0  0  0
 12 26  1  0  0  0  0
 13 14  1  0  0  0  0
 13 15  1  0  0  0  0
 13 27  1  0  0  0  0
 14 28  1  0  0  0  0
 14 29  1  0  0  0  0
 14 30  1  0  0  0  0
 15 31  1  0  0  0  0
 15 32  1  0  0  0  0
 15 33  1  0  0  0  0
 16 17  2  0  0  0  0
 16 34  1  0  0  0  0
 17 35  1  0  0  0  0
M  END
>  <DRUGBANK_ID>
DB14195

>  <COMMON_NAME>
4-(Isopropylamino)diphenylamine

>  <CAS_NUMBER>
101-72-4

>  <UNII>
0M7PSL4100

>  <SYNONYMS>
1,4-Benzenediamine, N-(1-methylethyl)-N'-phenyl-; 4-Anilino-N-isopropylaniline; Cyzone; IPPD; N-Fenyl-N'-isopropyl-p-fenylendiamin; N-Isopropyl-N'-phenyl-1,4-phenylenediamine; N-Isopropyl-N'-phenyl-p-phenylenediamine; Nonox ZA; p-Phenylenediamine, N-isopropyl-N'-phenyl

$$$$
