J07
 OpenBabel10282417173D

 51 54  0  0  0  0  0  0  0  0999 V2000
    0.9510    0.0003    0.0445 C   0  0  0  0  0  0  0  0  0  0  0  0
    0.4480    1.3442    0.5426 C   0  0  0  0  0  0  0  0  0  0  0  0
    0.8668    2.4273   -0.3546 N   0  0  0  0  0  0  0  0  0  0  0  0
   -0.0202    3.3689   -0.8273 C   0  0  0  0  0  0  0  0  0  0  0  0
   -1.2291    3.3119   -0.5843 O   0  0  0  0  0  0  0  0  0  0  0  0
    0.5448    4.4345   -1.5190 N   0  0  0  0  0  0  0  0  0  0  0  0
   -0.1128    5.7389   -1.4904 C   0  0  0  0  0  0  0  0  0  0  0  0
   -0.6942    6.1557   -2.8472 C   0  0  0  0  0  0  0  0  0  0  0  0
    0.3655    6.0692   -3.9608 C   0  0  0  0  0  0  0  0  0  0  0  0
    1.0308    4.6850   -3.9352 C   0  0  0  0  0  0  0  0  0  0  0  0
    1.5766    4.3124   -2.5463 C   0  0  0  0  0  0  0  0  0  0  0  0
   -0.2244    6.2638   -5.2925 N   0  0  0  0  0  0  0  0  0  0  0  0
    0.1748    7.3739   -6.0084 C   0  0  0  0  0  0  0  0  0  0  0  0
    1.4537    7.4183   -6.4031 N   0  0  0  0  0  0  0  0  0  0  0  0
    1.8519    8.4854   -7.1363 C   0  0  0  0  0  0  0  0  0  0  0  0
    1.0185    9.5424   -7.4480 C   0  0  0  0  0  0  0  0  0  0  0  0
   -0.2717    9.4041   -6.9956 C   0  0  0  0  0  0  0  0  0  0  0  0
   -0.7262    8.3235   -6.3092 N   0  0  0  0  0  0  0  0  0  0  0  0
    1.4835   10.9514   -8.3189 Cl  0  0  0  0  0  0  0  0  0  0  0  0
    3.2628    8.4966   -7.4843 C   0  0  0  0  0  0  0  0  0  0  0  0
    4.2582    9.4130   -7.0379 C   0  0  0  0  0  0  0  0  0  0  0  0
    4.2339   10.5093   -6.1542 C   0  0  0  0  0  0  0  0  0  0  0  0
    5.4078   11.2161   -5.9023 C   0  0  0  0  0  0  0  0  0  0  0  0
    6.5958   10.8518   -6.5294 C   0  0  0  0  0  0  0  0  0  0  0  0
    6.6440    9.7813   -7.4329 C   0  0  0  0  0  0  0  0  0  0  0  0
    5.4577    9.0710   -7.6604 C   0  0  0  0  0  0  0  0  0  0  0  0
    5.1958    7.9775   -8.4582 N   0  0  0  0  0  0  0  0  0  0  0  0
    3.8817    7.5951   -8.3272 C   0  0  0  0  0  0  0  0  0  0  0  0
    0.6075   -0.1785   -0.9787 H   0  0  0  0  0  0  0  0  0  0  0  0
    0.5858   -0.8177    0.6757 H   0  0  0  0  0  0  0  0  0  0  0  0
    2.0453   -0.0344    0.0464 H   0  0  0  0  0  0  0  0  0  0  0  0
   -0.6430    1.3137    0.6360 H   0  0  0  0  0  0  0  0  0  0  0  0
    0.8505    1.5352    1.5470 H   0  0  0  0  0  0  0  0  0  0  0  0
    1.8389    2.6983   -0.3200 H   0  0  0  0  0  0  0  0  0  0  0  0
    0.6596    6.4600   -1.1927 H   0  0  0  0  0  0  0  0  0  0  0  0
   -0.8840    5.7642   -0.7126 H   0  0  0  0  0  0  0  0  0  0  0  0
   -1.0740    7.1830   -2.7715 H   0  0  0  0  0  0  0  0  0  0  0  0
   -1.5522    5.5171   -3.0872 H   0  0  0  0  0  0  0  0  0  0  0  0
    1.1298    6.8342   -3.7577 H   0  0  0  0  0  0  0  0  0  0  0  0
    0.2976    3.9339   -4.2571 H   0  0  0  0  0  0  0  0  0  0  0  0
    1.8451    4.6688   -4.6695 H   0  0  0  0  0  0  0  0  0  0  0  0
    1.9829    3.2982   -2.5727 H   0  0  0  0  0  0  0  0  0  0  0  0
    2.3820    5.0045   -2.2755 H   0  0  0  0  0  0  0  0  0  0  0  0
   -1.1859    5.9924   -5.4382 H   0  0  0  0  0  0  0  0  0  0  0  0
   -1.0019   10.1922   -7.1690 H   0  0  0  0  0  0  0  0  0  0  0  0
    3.3083   10.7984   -5.6665 H   0  0  0  0  0  0  0  0  0  0  0  0
    5.3847   12.0511   -5.2077 H   0  0  0  0  0  0  0  0  0  0  0  0
    7.5023   11.4098   -6.3075 H   0  0  0  0  0  0  0  0  0  0  0  0
    7.5753    9.5137   -7.9213 H   0  0  0  0  0  0  0  0  0  0  0  0
    5.8802    7.5166   -9.0428 H   0  0  0  0  0  0  0  0  0  0  0  0
    3.5028    6.7315   -8.8592 H   0  0  0  0  0  0  0  0  0  0  0  0
  1 29  1  0  0  0  0
  1 30  1  0  0  0  0
  1 31  1  0  0  0  0
  2  3  1  0  0  0  0
  2  1  1  0  0  0  0
  2 32  1  0  0  0  0
  2 33  1  0  0  0  0
  3 34  1  0  0  0  0
  4  3  1  0  0  0  0
  4  6  1  0  0  0  0
  5  4  2  0  0  0  0
  6 11  1  0  0  0  0
  7  6  1  0  0  0  0
  7  8  1  0  0  0  0
  7 35  1  0  0  0  0
  7 36  1  0  0  0  0
  8  9  1  0  0  0  0
  8 37  1  0  0  0  0
  8 38  1  0  0  0  0
  9 10  1  0  0  0  0
  9 12  1  0  0  0  0
  9 39  1  0  0  0  0
 10 40  1  0  0  0  0
 10 41  1  0  0  0  0
 11 10  1  0  0  0  0
 11 42  1  0  0  0  0
 11 43  1  0  0  0  0
 12 13  1  0  0  0  0
 12 44  1  0  0  0  0
 13 18  1  0  0  0  0
 14 13  2  0  0  0  0
 14 15  1  0  0  0  0
 15 16  2  0  0  0  0
 16 17  1  0  0  0  0
 16 19  1  0  0  0  0
 17 45  1  0  0  0  0
 18 17  2  0  0  0  0
 20 28  2  0  0  0  0
 20 15  1  0  0  0  0
 21 20  1  0  0  0  0
 22 21  2  0  0  0  0
 22 46  1  0  0  0  0
 23 22  1  0  0  0  0
 23 47  1  0  0  0  0
 24 23  2  0  0  0  0
 24 25  1  0  0  0  0
 24 48  1  0  0  0  0
 25 26  2  0  0  0  0
 25 49  1  0  0  0  0
 26 21  1  0  0  0  0
 26 27  1  0  0  0  0
 27 28  1  0  0  0  0
 27 50  1  0  0  0  0
 28 51  1  0  0  0  0
M  END
>  <DRUGBANK_ID>
DB08005

>  <COMMON_NAME>
4-{[5-chloro-4-(1H-indol-3-yl)pyrimidin-2-yl]amino}-N-ethylpiperidine-1-carboxamide

$$$$
