121
 OpenBabel10282417103D

 32 33  0  0  1  0  0  0  0  0999 V2000
    1.8531    0.0071   -0.8383 S   0  0  0  0  0  0  0  0  0  0  0  0
   -2.7876    0.0341   -0.8312 O   0  0  0  0  0  0  0  0  0  0  0  0
    3.9263    6.4188    1.5559 O   0  0  0  0  0  0  0  0  0  0  0  0
    2.4308    5.7426    0.0326 O   0  0  0  0  0  0  0  0  0  0  0  0
   -1.1067    1.0349    0.3814 N   0  0  0  0  0  0  0  0  0  0  0  0
   -1.1270   -1.1785    0.2336 N   0  0  0  0  0  0  0  0  0  0  0  0
    0.1042    0.6326    1.0716 C   0  0  1  0  0  0  0  0  0  0  0  0
    0.0981   -0.9032    0.9562 C   0  0  2  0  0  0  0  0  0  0  0  0
    1.3889    1.1889    0.4401 C   0  0  2  0  0  0  0  0  0  0  0  0
    1.3537   -1.3713    0.2152 C   0  0  0  0  0  0  0  0  0  0  0  0
    1.2302    2.6131   -0.0707 C   0  0  0  0  0  0  0  0  0  0  0  0
    0.8454    3.5397    1.0929 C   0  0  0  0  0  0  0  0  0  0  0  0
   -1.7786   -0.0314   -0.1500 C   0  0  0  0  0  0  0  0  0  0  0  0
    1.9452    3.6215    2.1608 C   0  0  0  0  0  0  0  0  0  0  0  0
    3.2836    4.0989    1.5954 C   0  0  0  0  0  0  0  0  0  0  0  0
    3.1593    5.4763    0.9768 C   0  0  0  0  0  0  0  0  0  0  0  0
    0.0052    0.9633    2.1124 H   0  0  0  0  0  0  0  0  0  0  0  0
    0.0211   -1.3872    1.9351 H   0  0  0  0  0  0  0  0  0  0  0  0
    4.5054    6.1026    2.2708 H   0  0  0  0  0  0  0  0  0  0  0  0
   -1.3988    1.9794    0.1606 H   0  0  0  0  0  0  0  0  0  0  0  0
   -1.4840   -2.0840   -0.0347 H   0  0  0  0  0  0  0  0  0  0  0  0
    2.2016    1.1296    1.1733 H   0  0  0  0  0  0  0  0  0  0  0  0
    2.1634   -1.5391    0.9338 H   0  0  0  0  0  0  0  0  0  0  0  0
    1.1983   -2.2762   -0.3732 H   0  0  0  0  0  0  0  0  0  0  0  0
    2.1518    2.9494   -0.5577 H   0  0  0  0  0  0  0  0  0  0  0  0
    0.4638    2.6699   -0.8526 H   0  0  0  0  0  0  0  0  0  0  0  0
    0.5999    4.5294    0.7024 H   0  0  0  0  0  0  0  0  0  0  0  0
   -0.0834    3.2107    1.5711 H   0  0  0  0  0  0  0  0  0  0  0  0
    1.6139    4.2829    2.9680 H   0  0  0  0  0  0  0  0  0  0  0  0
    2.0823    2.6387    2.6318 H   0  0  0  0  0  0  0  0  0  0  0  0
    4.0373    4.0883    2.3884 H   0  0  0  0  0  0  0  0  0  0  0  0
    3.6664    3.4158    0.8286 H   0  0  0  0  0  0  0  0  0  0  0  0
  1  9  1  0  0  0  0
  1 10  1  0  0  0  0
  2 13  2  0  0  0  0
  3 16  1  0  0  0  0
  3 19  1  0  0  0  0
  4 16  2  0  0  0  0
  5  7  1  0  0  0  0
  5 13  1  0  0  0  0
  5 20  1  0  0  0  0
  6  8  1  0  0  0  0
  6 13  1  0  0  0  0
  6 21  1  0  0  0  0
  7  8  1  0  0  0  0
  7  9  1  0  0  0  0
  7 17  1  1  0  0  0
  8 10  1  0  0  0  0
  8 18  1  1  0  0  0
  9 11  1  0  0  0  0
  9 22  1  1  0  0  0
 10 23  1  0  0  0  0
 10 24  1  0  0  0  0
 11 12  1  0  0  0  0
 11 25  1  0  0  0  0
 11 26  1  0  0  0  0
 12 14  1  0  0  0  0
 12 27  1  0  0  0  0
 12 28  1  0  0  0  0
 14 15  1  0  0  0  0
 14 29  1  0  0  0  0
 14 30  1  0  0  0  0
 15 16  1  0  0  0  0
 15 31  1  0  0  0  0
 15 32  1  0  0  0  0
M  END
>  <DRUGBANK_ID>
DB00121

>  <SECONDARY_ACCESSION_NUMBERS>
NUTR00019

>  <COMMON_NAME>
Biotin

>  <CAS_NUMBER>
58-85-5

>  <UNII>
6SO6U10H04

>  <SYNONYMS>
(+)-cis-Hexahydro-2-oxo-1H-thieno[3,4]imidazole-4-valeric acid; (3aS,4S,6aR)-Hexahydro-2-oxo-1H-thieno[3,4-d]imidazole-4-valeric acid; 5-(2-oxohexahydro-1H-thieno[3,4-d]imidazol-4-yl)pentanoic acid; Biotin; Biotina; Biotine; Biotinum; cis-(+)-Tetrahydro-2-oxothieno[3,4]imidazoline-4-valeric acid; cis-Hexahydro-2-oxo-1H-thieno(3,4)imidazole-4-valeric acid; cis-Tetrahydro-2-oxothieno(3,4-d)imidazoline-4-valeric acid; Coenzyme R; D-(+)-biotin; D-Biotin; Vitamin B7; Vitamin H

$$$$
