
 OpenBabel10282417183D

176179  0  0  0  0  0  0  0  0999 V2000
    0.9729    0.0400   -0.0875 C   0  0  0  0  0  0  0  0  0  0  0  0
   -3.8790    5.7008   -4.8191 C   0  0  0  0  0  0  0  0  0  0  0  0
  -15.6498   13.4051   -9.1546 C   0  0  0  0  0  0  0  0  0  0  0  0
  -12.2843    7.8605  -10.0347 C   0  0  0  0  0  0  0  0  0  0  0  0
  -15.1875   13.7397   -7.9556 C   0  0  0  0  0  0  0  0  0  0  0  0
  -15.7831   12.0781   -9.5286 C   0  0  0  0  0  0  0  0  0  0  0  0
  -11.9023    9.0690   -9.6386 C   0  0  0  0  0  0  0  0  0  0  0  0
  -11.6519    6.7190   -9.5706 C   0  0  0  0  0  0  0  0  0  0  0  0
   -7.7440   10.9790   -5.0760 C   0  0  0  0  0  0  0  0  0  0  0  0
   -6.8437   10.5368   -5.9462 C   0  0  0  0  0  0  0  0  0  0  0  0
   -7.7893    3.9109   -4.8711 C   0  0  0  0  0  0  0  0  0  0  0  0
   -8.1638    5.1936   -5.5955 C   0  0  0  0  0  0  0  0  0  0  0  0
  -14.9733   12.7802   -6.9958 C   0  0  0  0  0  0  0  0  0  0  0  0
  -15.6726   11.1655   -8.4530 C   0  0  0  0  0  0  0  0  0  0  0  0
  -10.9705    9.2155   -8.6395 C   0  0  0  0  0  0  0  0  0  0  0  0
  -10.8064    6.9439   -8.4586 C   0  0  0  0  0  0  0  0  0  0  0  0
   -8.7077   10.1357   -4.5481 C   0  0  0  0  0  0  0  0  0  0  0  0
   -6.7458    9.1962   -6.2309 C   0  0  0  0  0  0  0  0  0  0  0  0
   -6.3168    3.6112   -5.0998 C   0  0  0  0  0  0  0  0  0  0  0  0
  -11.7048   11.4348   -8.3514 C   0  0  0  0  0  0  0  0  0  0  0  0
   -7.9057    5.0285   -7.0843 C   0  0  0  0  0  0  0  0  0  0  0  0
  -11.5409   11.4343   -9.8626 C   0  0  0  0  0  0  0  0  0  0  0  0
  -13.7798   12.2653  -10.1057 C   0  0  0  0  0  0  0  0  0  0  0  0
  -15.1293   12.0226  -10.7617 C   0  0  0  0  0  0  0  0  0  0  0  0
  -14.5577   10.4140   -6.3354 C   0  0  0  0  0  0  0  0  0  0  0  0
   -9.1873    8.2716   -7.1228 C   0  0  0  0  0  0  0  0  0  0  0  0
   -8.6725    6.5898   -3.3116 C   0  0  0  0  0  0  0  0  0  0  0  0
   -8.5650    6.0810   -5.5313 C   0  0  0  0  0  0  0  0  0  0  0  0
  -15.8178   10.7231   -8.8644 C   0  0  0  0  0  0  0  0  0  0  0  0
  -13.3759    9.8994  -10.0610 C   0  0  0  0  0  0  0  0  0  0  0  0
  -14.7255    9.6567  -10.7170 C   0  0  0  0  0  0  0  0  0  0  0  0
    0.4662    0.9374   -2.8096 C   0  0  0  0  0  0  0  0  0  0  0  0
  -13.0353    6.5961   -7.1868 C   0  0  0  0  0  0  0  0  0  0  0  0
  -16.1043    9.1305   -4.5906 C   0  0  0  0  0  0  0  0  0  0  0  0
    0.4662    1.4430   -0.3795 C   0  0  3  0  0  0  0  0  0  0  0  0
   -2.9290    5.6108   -3.6360 C   0  0  3  0  0  0  0  0  0  0  0  0
  -15.1423   11.4531   -7.2782 C   0  0  0  0  0  0  0  0  0  0  0  0
  -10.3480    8.1274   -8.0935 C   0  0  0  0  0  0  0  0  0  0  0  0
   -9.3019    7.8261   -3.9327 C   0  0  0  0  0  0  0  0  0  0  0  0
   -8.4588    8.7627   -4.7826 C   0  0  0  0  0  0  0  0  0  0  0  0
  -12.2527   10.0906   -7.9007 C   0  0  0  0  0  0  0  0  0  0  0  0
   -7.6282    8.2979   -5.6980 C   0  0  0  0  0  0  0  0  0  0  0  0
   -5.4769    4.7593   -4.5642 C   0  0  3  0  0  0  0  0  0  0  0  0
  -14.3735    9.1014   -7.0794 C   0  0  3  0  0  0  0  0  0  0  0  0
   -9.5736    7.6757   -5.7789 C   0  0  3  0  0  0  0  0  0  0  0  0
   -8.1233    5.6944   -4.4103 C   0  0  3  0  0  0  0  0  0  0  0  0
    0.9728    1.8917   -1.7405 C   0  0  3  0  0  0  0  0  0  0  0  0
  -11.9616    7.6693   -7.2619 C   0  0  3  0  0  0  0  0  0  0  0  0
   -1.7984    2.3528   -1.8364 C   0  0  3  0  0  0  0  0  0  0  0  0
  -16.3657    9.3788   -8.4136 C   0  0  0  0  0  0  0  0  0  0  0  0
  -13.5399    9.9000   -8.5499 C   0  0  0  0  0  0  0  0  0  0  0  0
  -13.3760    9.8994  -10.0610 C   0  0  0  0  0  0  0  0  0  0  0  0
   -3.3880    4.5041   -2.7007 C   0  0  3  0  0  0  0  0  0  0  0  0
   -5.7351    4.9243   -3.0754 C   0  0  0  0  0  0  0  0  0  0  0  0
  -13.4282    9.3114   -8.2511 C   0  0  0  0  0  0  0  0  0  0  0  0
   -9.9072    6.2032   -5.9547 C   0  0  0  0  0  0  0  0  0  0  0  0
   -7.0727    6.4532   -5.2045 C   0  0  0  0  0  0  0  0  0  0  0  0
  -11.8736    8.3922   -5.9277 C   0  0  0  0  0  0  0  0  0  0  0  0
   -0.8107    3.4839   -2.0718 C   0  0  0  0  0  0  0  0  0  0  0  0
   -3.3944    3.1800   -3.4472 C   0  0  0  0  0  0  0  0  0  0  0  0
  -11.2872    8.9885   -8.3052 C   0  0  0  0  0  0  0  0  0  0  0  0
  -12.4167   10.0911   -6.3896 C   0  0  0  0  0  0  0  0  0  0  0  0
   -8.7179    3.9182   -7.6023 N   0  0  0  0  0  0  0  0  0  0  0  0
   -7.6499    6.9642   -6.0992 N   0  0  0  0  0  0  0  0  0  0  0  0
  -15.6751    8.6338   -7.5776 N   0  0  0  0  0  0  0  0  0  0  0  0
   -5.8391    5.9998   -5.2648 N   0  0  0  0  0  0  0  0  0  0  0  0
  -10.7472    8.3840   -5.2480 N   0  0  0  0  0  0  0  0  0  0  0  0
   -9.2170    5.2903   -5.3056 N   0  0  0  0  0  0  0  0  0  0  0  0
    0.4828    3.2486   -2.0228 N   0  0  0  0  0  0  0  0  0  0  0  0
  -12.3038    8.6317   -8.3190 N   0  0  0  0  0  0  0  0  0  0  0  0
   -2.6435    2.1846   -3.0274 N   0  0  0  0  0  0  0  0  0  0  0  0
   -4.7445    4.8013   -2.2184 N   0  0  0  0  0  0  0  0  0  0  0  0
  -12.8460   11.1995  -10.4969 N   0  0  0  0  0  0  0  0  0  0  0  0
  -15.6592   10.7225  -10.3258 N   0  0  0  0  0  0  0  0  0  0  0  0
   -0.9538    0.9374   -2.8096 O   0  0  0  0  0  0  0  0  0  0  0  0
   -0.9538    1.4430   -0.3795 O   0  0  0  0  0  0  0  0  0  0  0  0
   -2.9230    6.8478   -2.9386 O   0  0  0  0  0  0  0  0  0  0  0  0
  -17.6230    8.9271   -8.8949 O   0  5  0  0  0  0  0  0  0  0  0  0
  -14.6868    9.7139   -8.0351 O   0  0  0  0  0  0  0  0  0  0  0  0
  -12.4115   10.1084   -7.7134 O   0  5  0  0  0  0  0  0  0  0  0  0
  -12.8871    9.0306   -9.2727 O   0  0  0  0  0  0  0  0  0  0  0  0
  -12.6614   11.0969  -10.3290 O   0  5  0  0  0  0  0  0  0  0  0  0
   -7.0454    5.2114   -2.6096 O   0  5  0  0  0  0  0  0  0  0  0  0
  -13.7588   10.2410   -9.2722 O   0  0  0  0  0  0  0  0  0  0  0  0
  -10.9637    5.8128   -6.8195 O   0  0  0  0  0  0  0  0  0  0  0  0
   -7.4225    7.6516   -5.8813 O   0  0  0  0  0  0  0  0  0  0  0  0
  -13.0073    9.0765   -5.4148 O   0  0  0  0  0  0  0  0  0  0  0  0
   -1.2840    4.7947   -2.3445 O   0  0  0  0  0  0  0  0  0  0  0  0
   -4.2108    3.0175   -4.5976 O   0  0  0  0  0  0  0  0  0  0  0  0
  -10.7623    8.2461   -7.4173 O   0  0  0  0  0  0  0  0  0  0  0  0
  -10.9717    8.7885   -9.6752 O   0  0  0  0  0  0  0  0  0  0  0  0
  -13.5636    9.9051   -5.8747 O   0  0  0  0  0  0  0  0  0  0  0  0
  -11.2883   10.2995   -5.5531 O   0  0  0  0  0  0  0  0  0  0  0  0
  -14.6306    7.3639   -6.8104 S   0  0  0  0  0  0  0  0  0  0  0  0
  -14.5091    8.3627   -4.9671 S   0  0  0  0  0  0  0  0  0  0  0  0
    0.9739    0.0784    0.0563 In  0  1  0  0  0  0  0  0  0  0  0  0
    0.6162   -0.6318   -0.8401 H   0  0  0  0  0  0  0  0  0  0  0  0
    0.6162   -0.2759    0.8705 H   0  0  0  0  0  0  0  0  0  0  0  0
    2.0429    0.0400   -0.0875 H   0  0  0  0  0  0  0  0  0  0  0  0
   -4.8664    5.9171   -4.4681 H   0  0  0  0  0  0  0  0  0  0  0  0
   -3.5559    6.4799   -5.4776 H   0  0  0  0  0  0  0  0  0  0  0  0
   -3.8835    4.7687   -5.3446 H   0  0  0  0  0  0  0  0  0  0  0  0
  -15.9245   14.1751   -9.8449 H   0  0  0  0  0  0  0  0  0  0  0  0
  -13.0961    7.7668  -10.7255 H   0  0  0  0  0  0  0  0  0  0  0  0
  -14.9800   14.7659   -7.7349 H   0  0  0  0  0  0  0  0  0  0  0  0
  -15.9541   11.7710  -10.5392 H   0  0  0  0  0  0  0  0  0  0  0  0
  -12.3240    9.9366  -10.1016 H   0  0  0  0  0  0  0  0  0  0  0  0
  -11.7902    5.7545  -10.0128 H   0  0  0  0  0  0  0  0  0  0  0  0
   -7.7246   12.0062   -4.7770 H   0  0  0  0  0  0  0  0  0  0  0  0
   -6.1886   11.2307   -6.4301 H   0  0  0  0  0  0  0  0  0  0  0  0
   -8.3806    3.1027   -5.2481 H   0  0  0  0  0  0  0  0  0  0  0  0
   -7.9710    4.0271   -3.8230 H   0  0  0  0  0  0  0  0  0  0  0  0
   -9.2004    5.4045   -5.4345 H   0  0  0  0  0  0  0  0  0  0  0  0
   -7.5726    6.0018   -5.2185 H   0  0  0  0  0  0  0  0  0  0  0  0
  -14.6698   13.0757   -6.0133 H   0  0  0  0  0  0  0  0  0  0  0  0
  -16.0444   10.1733   -8.6018 H   0  0  0  0  0  0  0  0  0  0  0  0
  -10.7284   10.1951   -8.2837 H   0  0  0  0  0  0  0  0  0  0  0  0
  -10.5183    6.0961   -7.8727 H   0  0  0  0  0  0  0  0  0  0  0  0
   -9.5629   10.4904   -4.0116 H   0  0  0  0  0  0  0  0  0  0  0  0
   -5.9678    8.8502   -6.8789 H   0  0  0  0  0  0  0  0  0  0  0  0
   -6.1351    3.4950   -6.1479 H   0  0  0  0  0  0  0  0  0  0  0  0
   -6.0532    2.7082   -4.5899 H   0  0  0  0  0  0  0  0  0  0  0  0
  -10.7548   11.6057   -7.8897 H   0  0  0  0  0  0  0  0  0  0  0  0
  -12.3845   12.2106   -8.0667 H   0  0  0  0  0  0  0  0  0  0  0  0
   -8.1693    5.9314   -7.5943 H   0  0  0  0  0  0  0  0  0  0  0  0
   -6.8691    4.8175   -7.2454 H   0  0  0  0  0  0  0  0  0  0  0  0
  -10.8612   10.6585  -10.1473 H   0  0  0  0  0  0  0  0  0  0  0  0
  -11.1552   12.3805  -10.1798 H   0  0  0  0  0  0  0  0  0  0  0  0
  -13.3941   13.2116  -10.4230 H   0  0  0  0  0  0  0  0  0  0  0  0
  -13.8952   12.2657   -9.0420 H   0  0  0  0  0  0  0  0  0  0  0  0
  -15.0139   12.0222  -11.8254 H   0  0  0  0  0  0  0  0  0  0  0  0
  -15.8090   12.7983  -10.4769 H   0  0  0  0  0  0  0  0  0  0  0  0
  -15.2231   10.2662   -5.5107 H   0  0  0  0  0  0  0  0  0  0  0  0
  -13.6103   10.7544   -5.9728 H   0  0  0  0  0  0  0  0  0  0  0  0
   -8.9524    9.3081   -6.9991 H   0  0  0  0  0  0  0  0  0  0  0  0
   -8.3330    7.7560   -7.5093 H   0  0  0  0  0  0  0  0  0  0  0  0
   -9.4121    6.0556   -2.7526 H   0  0  0  0  0  0  0  0  0  0  0  0
   -7.8764    6.8839   -2.6600 H   0  0  0  0  0  0  0  0  0  0  0  0
   -9.2513    6.4270   -4.7869 H   0  0  0  0  0  0  0  0  0  0  0  0
  -16.4974   11.4989   -8.5796 H   0  0  0  0  0  0  0  0  0  0  0  0
  -14.8678   10.8939   -8.4026 H   0  0  0  0  0  0  0  0  0  0  0  0
  -14.3259    9.7286  -10.5228 H   0  0  0  0  0  0  0  0  0  0  0  0
  -12.6963    9.1236  -10.3458 H   0  0  0  0  0  0  0  0  0  0  0  0
  -15.1112    8.7104  -10.3997 H   0  0  0  0  0  0  0  0  0  0  0  0
  -14.6101    9.6563  -11.7807 H   0  0  0  0  0  0  0  0  0  0  0  0
    0.8228    1.2532   -3.7677 H   0  0  0  0  0  0  0  0  0  0  0  0
    0.8228   -0.0503   -2.6041 H   0  0  0  0  0  0  0  0  0  0  0  0
  -13.0972    6.0872   -8.1260 H   0  0  0  0  0  0  0  0  0  0  0  0
  -12.7862    5.8956   -6.4173 H   0  0  0  0  0  0  0  0  0  0  0  0
  -16.8602    8.3750   -4.5378 H   0  0  0  0  0  0  0  0  0  0  0  0
  -16.0424    9.6394   -3.6514 H   0  0  0  0  0  0  0  0  0  0  0  0
    0.8228    2.1148    0.3731 H   0  0  0  0  0  0  0  0  0  0  0  0
   -1.9416    5.3945   -3.9870 H   0  0  0  0  0  0  0  0  0  0  0  0
  -13.2027    9.9197   -8.3625 H   0  0  0  0  0  0  0  0  0  0  0  0
   -4.4404    4.5483   -4.7252 H   0  0  0  0  0  0  0  0  0  0  0  0
  -13.9619    8.3699   -6.4157 H   0  0  0  0  0  0  0  0  0  0  0  0
   -8.7564    7.7772   -5.0956 H   0  0  0  0  0  0  0  0  0  0  0  0
   -7.6803    4.8241   -3.9731 H   0  0  0  0  0  0  0  0  0  0  0  0
    2.0428    1.8917   -1.7405 H   0  0  0  0  0  0  0  0  0  0  0  0
  -11.0185    7.2154   -7.4844 H   0  0  0  0  0  0  0  0  0  0  0  0
   -1.2634    1.4456   -1.6477 H   0  0  0  0  0  0  0  0  0  0  0  0
   -2.7192    4.4408   -1.8678 H   0  0  0  0  0  0  0  0  0  0  0  0
   -8.5447    3.8074   -8.6014 H   0  0  0  0  0  0  0  0  0  0  0  0
   -8.4666    3.0574   -7.1162 H   0  0  0  0  0  0  0  0  0  0  0  0
   -6.9956    6.6344   -6.8088 H   0  0  0  0  0  0  0  0  0  0  0  0
   -1.2872    0.6422   -1.9142 H   0  0  0  0  0  0  0  0  0  0  0  0
   -1.2871    0.8152   -1.0828 H   0  0  0  0  0  0  0  0  0  0  0  0
   -3.8458    7.0499   -2.6106 H   0  0  0  0  0  0  0  0  0  0  0  0
  -14.6135   10.7576   -9.2206 H   0  0  0  0  0  0  0  0  0  0  0  0
  -11.4882    6.5067   -7.3128 H   0  0  0  0  0  0  0  0  0  0  0  0
   -8.3601    7.9962   -5.8354 H   0  0  0  0  0  0  0  0  0  0  0  0
  -13.8635    9.0827   -5.9314 H   0  0  0  0  0  0  0  0  0  0  0  0
   -2.2672    4.9736   -2.3817 H   0  0  0  0  0  0  0  0  0  0  0  0
   -4.7815    3.7741   -4.9167 H   0  0  0  0  0  0  0  0  0  0  0  0
  -10.3365    8.0634   -9.9413 H   0  0  0  0  0  0  0  0  0  0  0  0
  -11.3961   10.2999   -4.5589 H   0  0  0  0  0  0  0  0  0  0  0  0
  1 97  1  0  0  0  0
  1 98  1  0  0  0  0
  1 99  1  0  0  0  0
  2100  1  0  0  0  0
  2101  1  0  0  0  0
  2102  1  0  0  0  0
  3103  1  0  0  0  0
  4104  1  0  0  0  0
  5  3  2  0  0  0  0
  5105  1  0  0  0  0
  6  3  1  0  0  0  0
  6106  1  0  0  0  0
  7  4  2  0  0  0  0
  7107  1  0  0  0  0
  8  4  1  0  0  0  0
  8108  1  0  0  0  0
  9109  1  0  0  0  0
 10  9  2  0  0  0  0
 10110  1  0  0  0  0
 11111  1  0  0  0  0
 11112  1  0  0  0  0
 12 11  1  0  0  0  0
 12113  1  0  0  0  0
 12114  1  0  0  0  0
 13  5  1  0  0  0  0
 13115  1  0  0  0  0
 14  6  2  0  0  0  0
 14116  1  0  0  0  0
 15  7  1  0  0  0  0
 15117  1  0  0  0  0
 16  8  2  0  0  0  0
 16118  1  0  0  0  0
 17  9  1  0  0  0  0
 17119  1  0  0  0  0
 18 10  1  0  0  0  0
 18120  1  0  0  0  0
 19 11  1  0  0  0  0
 19121  1  0  0  0  0
 19122  1  0  0  0  0
 20123  1  0  0  0  0
 20124  1  0  0  0  0
 21 12  1  0  0  0  0
 21125  1  0  0  0  0
 21126  1  0  0  0  0
 22 20  1  0  0  0  0
 22127  1  0  0  0  0
 22128  1  0  0  0  0
 23129  1  0  0  0  0
 23130  1  0  0  0  0
 24 23  1  0  0  0  0
 24131  1  0  0  0  0
 24132  1  0  0  0  0
 25133  1  0  0  0  0
 25134  1  0  0  0  0
 26135  1  0  0  0  0
 26136  1  0  0  0  0
 27137  1  0  0  0  0
 27138  1  0  0  0  0
 28139  1  0  0  0  0
 29140  1  0  0  0  0
 29141  1  0  0  0  0
 30142  1  0  0  0  0
 30143  1  0  0  0  0
 31144  1  0  0  0  0
 31145  1  0  0  0  0
 32146  1  0  0  0  0
 32147  1  0  0  0  0
 33148  1  0  0  0  0
 33149  1  0  0  0  0
 34150  1  0  0  0  0
 34151  1  0  0  0  0
 35  1  1  0  0  0  0
 35152  1  0  0  0  0
 36  2  1  0  0  0  0
 36153  1  0  0  0  0
 37 13  2  0  0  0  0
 37 14  1  0  0  0  0
 37 25  1  0  0  0  0
 38 15  2  0  0  0  0
 38 16  1  0  0  0  0
 38 26  1  0  0  0  0
 39 27  1  0  0  0  0
 39 28  2  0  0  0  0
 40 17  2  0  0  0  0
 40 39  1  0  0  0  0
 41 20  1  0  0  0  0
 41154  1  0  0  0  0
 42 18  2  0  0  0  0
 42 40  1  0  0  0  0
 43 19  1  0  0  0  0
 43155  1  0  0  0  0
 44 25  1  0  0  0  0
 44156  1  0  0  0  0
 45 26  1  0  0  0  0
 45157  1  0  0  0  0
 46 27  1  0  0  0  0
 46158  1  0  0  0  0
 47 32  1  0  0  0  0
 47 35  1  0  0  0  0
 47159  1  0  0  0  0
 48 33  1  0  0  0  0
 48160  1  0  0  0  0
 49 34  1  0  0  0  0
 49161  1  0  0  0  0
 50 29  1  0  0  0  0
 51 30  1  0  0  0  0
 52 31  1  0  0  0  0
 53 36  1  0  0  0  0
 53162  1  0  0  0  0
 54 43  1  0  0  0  0
 55 44  1  0  0  0  0
 56 45  1  0  0  0  0
 57 46  1  0  0  0  0
 58 48  1  0  0  0  0
 59 49  1  0  0  0  0
 60 53  1  0  0  0  0
 61 41  1  0  0  0  0
 62 41  1  0  0  0  0
 63 21  1  0  0  0  0
 63163  1  0  0  0  0
 63164  1  0  0  0  0
 64 28  1  0  0  0  0
 64 42  1  0  0  0  0
 64165  1  0  0  0  0
 65 44  1  0  0  0  0
 65 50  2  3  0  0  0
 66 43  1  0  0  0  0
 66 57  2  3  0  0  0
 67 45  1  0  0  0  0
 67 58  2  3  0  0  0
 68 46  1  0  0  0  0
 68 56  2  3  0  0  0
 69 47  1  0  0  0  0
 69 59  2  3  0  0  0
 70 48  1  0  0  0  0
 70 55  2  3  0  0  0
 71 49  1  0  0  0  0
 71 60  2  3  0  0  0
 72 53  1  0  0  0  0
 72 54  2  3  0  0  0
 73 22  1  0  0  0  0
 73 23  1  0  0  0  0
 73 30  1  0  0  0  0
 74 24  1  0  0  0  0
 74 29  1  0  0  0  0
 74 31  1  0  0  0  0
 75 32  1  0  0  0  0
 75166  1  0  0  0  0
 76 35  1  0  0  0  0
 76167  1  0  0  0  0
 77 36  1  0  0  0  0
 77168  1  0  0  0  0
 78 50  1  0  0  0  0
 79 51  2  0  0  0  0
 80 51  1  0  0  0  0
 81 52  2  0  0  0  0
 82 52  1  0  0  0  0
 83 54  1  0  0  0  0
 84 55  1  0  0  0  0
 84169  1  0  0  0  0
 85 56  1  0  0  0  0
 85170  1  0  0  0  0
 86 57  1  0  0  0  0
 86171  1  0  0  0  0
 87 58  1  0  0  0  0
 87172  1  0  0  0  0
 88 59  1  0  0  0  0
 88173  1  0  0  0  0
 89 60  1  0  0  0  0
 89174  1  0  0  0  0
 90 61  2  0  0  0  0
 91 61  1  0  0  0  0
 91175  1  0  0  0  0
 92 62  2  0  0  0  0
 93 62  1  0  0  0  0
 93176  1  0  0  0  0
 94 33  1  0  0  0  0
 95 34  1  0  0  0  0
 95 94  1  0  0  0  0
M  ISO  1  96 111
M  CHG  5  78  -1  80  -1  82  -1  83  -1  96   3
M  END
>  <DRUGBANK_ID>
DB11835

>  <SECONDARY_ACCESSION_NUMBERS>
DB09503

>  <COMMON_NAME>
Indium In-111 pentetreotide

>  <CAS_NUMBER>
139096-04-1

>  <SYNONYMS>
111In-Pentetreotide; 111Indium pentetreotide; Indium (111In) pentetreotide; Indium In 111 pentetreotide; Indium In 111 Pentreotide; Indium In-111 pentetreotide

$$$$
