
 OpenBabel10282417153D

 46 48  0  0  0  0  0  0  0  0999 V2000
    0.7660   -0.6114   -0.0129 C   0  0  0  0  0  0  0  0  0  0  0  0
    2.1703   -0.8733   -0.0272 C   0  0  0  0  0  0  0  0  0  0  0  0
    3.0794    0.2124   -0.0068 C   0  0  0  0  0  0  0  0  0  0  0  0
    2.6641    1.5349    0.0172 C   0  0  0  0  0  0  0  0  0  0  0  0
    1.3146    1.8062    0.0149 C   0  0  0  0  0  0  0  0  0  0  0  0
    0.3759    0.7622    0.0063 C   0  0  0  0  0  0  0  0  0  0  0  0
   -0.3773   -1.5881    0.0011 C   0  0  0  0  0  0  0  0  0  0  0  0
   -1.6864   -1.2588    0.0273 C   0  0  0  0  0  0  0  0  0  0  0  0
   -1.9836    0.1842   -0.0064 C   0  0  0  0  0  0  0  0  0  0  0  0
   -0.9919    1.1129    0.0159 N   0  0  0  0  0  0  0  0  0  0  0  0
   -2.6624   -2.4379    0.0515 C   0  0  0  0  0  0  0  0  0  0  0  0
   -4.0304   -2.2985    0.0154 N   0  0  0  0  0  0  0  0  0  0  0  0
   -4.8867   -3.4179    0.0717 C   0  0  0  0  0  0  0  0  0  0  0  0
   -4.7223   -1.0415    0.0325 C   0  0  0  0  0  0  0  0  0  0  0  0
   -4.6543   -4.4650    0.9636 C   0  0  0  0  0  0  0  0  0  0  0  0
   -5.6025   -5.4675    1.0971 C   0  0  0  0  0  0  0  0  0  0  0  0
   -6.7828   -5.4239    0.3417 C   0  0  0  0  0  0  0  0  0  0  0  0
   -7.0231   -4.3501   -0.5230 C   0  0  0  0  0  0  0  0  0  0  0  0
   -6.0515   -3.3871   -0.6997 C   0  0  0  0  0  0  0  0  0  0  0  0
   -7.7637   -6.5569    0.3811 C   0  0  0  0  0  0  0  0  0  0  0  0
   -9.0025   -6.1642    0.7798 F   0  0  0  0  0  0  0  0  0  0  0  0
   -7.9220   -7.1228   -0.8474 F   0  0  0  0  0  0  0  0  0  0  0  0
   -7.3930   -7.5654    1.2146 F   0  0  0  0  0  0  0  0  0  0  0  0
   -2.1939   -3.5906    0.0605 O   0  0  0  0  0  0  0  0  0  0  0  0
   -3.1277    0.6459   -0.0662 O   0  0  0  0  0  0  0  0  0  0  0  0
   -0.0187   -2.9034   -0.0226 O   0  0  0  0  0  0  0  0  0  0  0  0
    2.9132   -2.0363   -0.0552 O   0  0  0  0  0  0  0  0  0  0  0  0
    2.2675   -3.2865   -0.0844 C   0  0  0  0  0  0  0  0  0  0  0  0
   -1.4342    2.5064    0.0111 C   0  0  0  0  0  0  0  0  0  0  0  0
    4.1498    0.0108   -0.0081 H   0  0  0  0  0  0  0  0  0  0  0  0
    3.3805    2.3502    0.0377 H   0  0  0  0  0  0  0  0  0  0  0  0
    1.0097    2.8483    0.0243 H   0  0  0  0  0  0  0  0  0  0  0  0
   -4.4081   -0.5520    0.9596 H   0  0  0  0  0  0  0  0  0  0  0  0
   -4.4955   -0.5660   -0.9255 H   0  0  0  0  0  0  0  0  0  0  0  0
   -5.8054   -1.0894    0.1089 H   0  0  0  0  0  0  0  0  0  0  0  0
   -3.7616   -4.4952    1.5837 H   0  0  0  0  0  0  0  0  0  0  0  0
   -5.4162   -6.2780    1.7980 H   0  0  0  0  0  0  0  0  0  0  0  0
   -7.9556   -4.2667   -1.0749 H   0  0  0  0  0  0  0  0  0  0  0  0
   -6.1985   -2.6074   -1.4450 H   0  0  0  0  0  0  0  0  0  0  0  0
   -0.7695   -3.5313    0.0363 H   0  0  0  0  0  0  0  0  0  0  0  0
    1.7327   -3.4195    0.8651 H   0  0  0  0  0  0  0  0  0  0  0  0
    1.7004   -3.3645   -1.0212 H   0  0  0  0  0  0  0  0  0  0  0  0
    2.9476   -4.1373   -0.1194 H   0  0  0  0  0  0  0  0  0  0  0  0
   -1.0851    2.9999    0.9187 H   0  0  0  0  0  0  0  0  0  0  0  0
   -1.1019    2.9899   -0.9090 H   0  0  0  0  0  0  0  0  0  0  0  0
   -2.5263    2.6180    0.0238 H   0  0  0  0  0  0  0  0  0  0  0  0
  1  2  1  0  0  0  0
  1  7  1  0  0  0  0
  2  3  2  0  0  0  0
  2 27  1  0  0  0  0
  3  4  1  0  0  0  0
  3 30  1  0  0  0  0
  4  5  2  0  0  0  0
  4 31  1  0  0  0  0
  5  6  1  0  0  0  0
  5 32  1  0  0  0  0
  6  1  2  0  0  0  0
  7  8  2  0  0  0  0
  7 26  1  0  0  0  0
  8  9  1  0  0  0  0
  8 11  1  0  0  0  0
  9 10  1  0  0  0  0
  9 25  2  0  0  0  0
 10  6  1  0  0  0  0
 10 29  1  0  0  0  0
 11 12  1  0  0  0  0
 11 24  2  0  0  0  0
 12 13  1  0  0  0  0
 12 14  1  0  0  0  0
 13 15  1  0  0  0  0
 13 19  2  0  0  0  0
 14 33  1  0  0  0  0
 14 34  1  0  0  0  0
 14 35  1  0  0  0  0
 15 16  2  0  0  0  0
 15 36  1  0  0  0  0
 16 17  1  0  0  0  0
 16 37  1  0  0  0  0
 17 18  2  0  0  0  0
 17 20  1  0  0  0  0
 18 19  1  0  0  0  0
 18 38  1  0  0  0  0
 19 39  1  0  0  0  0
 20 21  1  0  0  0  0
 20 22  1  0  0  0  0
 20 23  1  0  0  0  0
 26 40  1  0  0  0  0
 27 28  1  0  0  0  0
 28 41  1  0  0  0  0
 28 42  1  0  0  0  0
 28 43  1  0  0  0  0
 29 44  1  0  0  0  0
 29 45  1  0  0  0  0
 29 46  1  0  0  0  0
M  END
>  <DRUGBANK_ID>
DB05861

>  <COMMON_NAME>
Tasquinimod

>  <CAS_NUMBER>
254964-60-8

>  <UNII>
756U07KN1R

>  <SYNONYMS>
TASQ; Tasquinimod

$$$$
