
 OpenBabel10282417213D

 37 40  0  0  0  0  0  0  0  0999 V2000
   -1.4343    2.6490    0.8112 C   0  0  0  0  0  0  0  0  0  0  0  0
    2.7708   -4.6976    2.7163 C   0  0  0  0  0  0  0  0  0  0  0  0
    3.0026   -4.0964    3.9515 C   0  0  0  0  0  0  0  0  0  0  0  0
    2.0977   -3.9968    1.7120 C   0  0  0  0  0  0  0  0  0  0  0  0
    2.5712   -2.7886    4.1806 C   0  0  0  0  0  0  0  0  0  0  0  0
    2.6464    1.7164   -0.5531 C   0  0  0  0  0  0  0  0  0  0  0  0
    1.2573    1.5933   -0.5104 C   0  0  0  0  0  0  0  0  0  0  0  0
    2.8631   -0.5532    0.2798 C   0  0  0  0  0  0  0  0  0  0  0  0
   -0.8326   -2.0378   -0.8028 C   0  0  0  0  0  0  0  0  0  0  0  0
   -1.7032    1.3004    0.2557 C   0  0  0  0  0  0  0  0  0  0  0  0
    3.4442    0.6463   -0.1431 C   0  0  0  0  0  0  0  0  0  0  0  0
    1.6481   -2.6861    1.9390 C   0  0  0  0  0  0  0  0  0  0  0  0
    1.4646   -0.6862    0.3227 C   0  0  0  0  0  0  0  0  0  0  0  0
    1.8922   -2.0803    3.1804 C   0  0  0  0  0  0  0  0  0  0  0  0
    0.6573    0.4100   -0.0510 C   0  0  0  0  0  0  0  0  0  0  0  0
   -1.4866   -0.7849   -0.3677 C   0  0  0  0  0  0  0  0  0  0  0  0
    0.9299   -2.0008    0.8129 C   0  0  0  0  0  0  0  0  0  0  0  0
    1.3740   -0.4762    3.5596 Cl  0  0  0  0  0  0  0  0  0  0  0  0
   -0.0782   -2.6255    0.3020 N   0  0  0  0  0  0  0  0  0  0  0  0
   -2.9068    0.7960    0.0673 N   0  0  0  0  0  0  0  0  0  0  0  0
   -2.7713   -0.5060   -0.3344 N   0  0  0  0  0  0  0  0  0  0  0  0
   -0.7565    0.3282   -0.0268 N   0  0  0  0  0  0  0  0  0  0  0  0
    4.9053    0.7739   -0.1689 N   0  0  0  0  0  0  0  0  0  0  0  0
    5.5713   -0.1987    0.2169 O   0  0  0  0  0  0  0  0  0  0  0  0
    5.3821    1.8411   -0.5716 O   0  0  0  0  0  0  0  0  0  0  0  0
   -0.8249    2.5878    1.7182 H   0  0  0  0  0  0  0  0  0  0  0  0
   -0.9355    3.2937    0.0852 H   0  0  0  0  0  0  0  0  0  0  0  0
   -2.3740    3.1465    1.0727 H   0  0  0  0  0  0  0  0  0  0  0  0
    3.1071   -5.7170    2.5379 H   0  0  0  0  0  0  0  0  0  0  0  0
    3.5124   -4.6481    4.7392 H   0  0  0  0  0  0  0  0  0  0  0  0
    1.9281   -4.4755    0.7496 H   0  0  0  0  0  0  0  0  0  0  0  0
    2.7595   -2.3317    5.1500 H   0  0  0  0  0  0  0  0  0  0  0  0
    3.0840    2.6426   -0.9214 H   0  0  0  0  0  0  0  0  0  0  0  0
    0.6686    2.4146   -0.9106 H   0  0  0  0  0  0  0  0  0  0  0  0
    3.5013   -1.3839    0.5770 H   0  0  0  0  0  0  0  0  0  0  0  0
   -1.5947   -2.7515   -1.1343 H   0  0  0  0  0  0  0  0  0  0  0  0
   -0.1855   -1.8635   -1.6727 H   0  0  0  0  0  0  0  0  0  0  0  0
  1 26  1  0  0  0  0
  1 27  1  0  0  0  0
  1 28  1  0  0  0  0
  2 29  1  0  0  0  0
  3  2  2  0  0  0  0
  3 30  1  0  0  0  0
  4  2  1  0  0  0  0
  4 31  1  0  0  0  0
  5  3  1  0  0  0  0
  5 32  1  0  0  0  0
  6 33  1  0  0  0  0
  7  6  2  0  0  0  0
  7 34  1  0  0  0  0
  8 35  1  0  0  0  0
  9 36  1  0  0  0  0
  9 37  1  0  0  0  0
 10  1  1  0  0  0  0
 11  6  1  0  0  0  0
 11  8  2  0  0  0  0
 12  4  2  0  0  0  0
 13  8  1  0  0  0  0
 14  5  2  0  0  0  0
 14 12  1  0  0  0  0
 15  7  1  0  0  0  0
 15 13  2  0  0  0  0
 16  9  1  0  0  0  0
 17 12  1  0  0  0  0
 17 13  1  0  0  0  0
 18 14  1  0  0  0  0
 19  9  1  0  0  0  0
 19 17  2  0  0  0  0
 20 10  2  0  0  0  0
 21 16  2  0  0  0  0
 21 20  1  0  0  0  0
 22 10  1  0  0  0  0
 22 15  1  0  0  0  0
 22 16  1  0  0  0  0
 23 11  1  0  0  0  0
 24 23  2  0  0  0  0
 25 23  2  0  0  0  0
M  END
>  <DRUGBANK_ID>
DB14716

>  <COMMON_NAME>
Clonazolam

>  <CAS_NUMBER>
33887-02-4

>  <UNII>
HJH52YYC1X

$$$$
