
 OpenBabel10282417153D

 63 65  0  0  0  0  0  0  0  0999 V2000
   -8.5196  -13.6463    1.7129 C   0  0  0  0  0  0  0  0  0  0  0  0
   -8.7684  -14.7863    0.9492 C   0  0  0  0  0  0  0  0  0  0  0  0
   -7.9863  -15.0624   -0.1782 C   0  0  0  0  0  0  0  0  0  0  0  0
   -7.0544  -14.1203   -0.6181 C   0  0  0  0  0  0  0  0  0  0  0  0
   -6.8286  -12.9430    0.1125 C   0  0  0  0  0  0  0  0  0  0  0  0
   -7.5583  -12.7284    1.2878 C   0  0  0  0  0  0  0  0  0  0  0  0
  -10.1669  -15.8417    1.2790 S   0  0  0  0  0  0  0  0  0  0  0  0
  -11.0201  -15.1740    2.6875 C   0  0  0  0  0  0  0  0  0  0  0  0
  -11.0544  -15.6976    0.1396 O   0  0  0  0  0  0  0  0  0  0  0  0
   -9.6342  -17.1361    1.6552 O   0  0  0  0  0  0  0  0  0  0  0  0
   -5.7824  -12.0092   -0.2969 C   0  0  0  0  0  0  0  0  0  0  0  0
   -4.6893  -11.7661    0.5513 C   0  0  0  0  0  0  0  0  0  0  0  0
   -3.6297  -10.9626    0.1388 C   0  0  0  0  0  0  0  0  0  0  0  0
   -3.6487  -10.3964   -1.1418 C   0  0  0  0  0  0  0  0  0  0  0  0
   -4.7151  -10.6818   -2.0062 C   0  0  0  0  0  0  0  0  0  0  0  0
   -5.8036  -11.4189   -1.5637 C   0  0  0  0  0  0  0  0  0  0  0  0
   -2.5783   -9.4146   -1.5877 C   0  0  2  0  0  0  0  0  0  0  0  0
   -3.2126   -8.0822   -1.8259 N   0  0  0  0  0  0  0  0  0  0  0  0
   -3.3739   -7.2863   -0.6076 C   0  0  2  0  0  0  0  0  0  0  0  0
   -4.5602   -6.3112   -0.7811 C   0  0  0  0  0  0  0  0  0  0  0  0
   -5.7641   -6.8884   -0.3677 N   0  0  0  0  0  0  0  0  0  0  0  0
   -4.4870   -5.2043   -1.3028 O   0  0  0  0  0  0  0  0  0  0  0  0
   -7.0011   -6.3412   -0.8797 C   0  0  0  0  0  0  0  0  0  0  0  0
   -8.2857   -6.5134   -0.0809 C   0  0  0  0  0  0  0  0  0  0  0  0
   -7.6788   -5.1505   -0.2304 C   0  0  0  0  0  0  0  0  0  0  0  0
   -7.0653   -6.4398   -2.3315 C   0  0  0  0  0  0  0  0  0  0  0  0
   -6.9936   -6.5923   -3.4726 N   0  0  0  0  0  0  0  0  0  0  0  0
   -1.7782   -9.9186   -2.8228 C   0  0  0  0  0  0  0  0  0  0  0  0
   -2.0657   -6.5680   -0.2891 C   0  0  0  0  0  0  0  0  0  0  0  0
   -0.4493   -9.7548   -2.6158 F   0  0  0  0  0  0  0  0  0  0  0  0
   -1.9851  -11.2272   -3.0878 F   0  0  0  0  0  0  0  0  0  0  0  0
   -2.1095   -9.2286   -3.9398 F   0  0  0  0  0  0  0  0  0  0  0  0
   -2.1845   -5.7645    1.0071 C   0  0  0  0  0  0  0  0  0  0  0  0
   -2.6132   -6.6444    2.1764 C   0  0  0  0  0  0  0  0  0  0  0  0
   -0.8743   -5.0666    1.3128 C   0  0  0  0  0  0  0  0  0  0  0  0
   -3.1270   -4.7964    0.8638 F   0  0  0  0  0  0  0  0  0  0  0  0
   -9.0470  -13.4381    2.6356 H   0  0  0  0  0  0  0  0  0  0  0  0
   -8.0925  -16.0001   -0.7204 H   0  0  0  0  0  0  0  0  0  0  0  0
   -6.4915  -14.3120   -1.5322 H   0  0  0  0  0  0  0  0  0  0  0  0
   -7.3829  -11.8274    1.8721 H   0  0  0  0  0  0  0  0  0  0  0  0
  -10.3569  -15.1814    3.5540 H   0  0  0  0  0  0  0  0  0  0  0  0
  -11.3655  -14.1614    2.4657 H   0  0  0  0  0  0  0  0  0  0  0  0
  -11.8881  -15.8052    2.8958 H   0  0  0  0  0  0  0  0  0  0  0  0
   -4.6564  -12.2265    1.5378 H   0  0  0  0  0  0  0  0  0  0  0  0
   -2.7922  -10.8081    0.8169 H   0  0  0  0  0  0  0  0  0  0  0  0
   -4.6973  -10.3305   -3.0372 H   0  0  0  0  0  0  0  0  0  0  0  0
   -6.6608  -11.5422   -2.2225 H   0  0  0  0  0  0  0  0  0  0  0  0
   -1.8492   -9.3268   -0.7703 H   0  0  0  0  0  0  0  0  0  0  0  0
   -4.1037   -8.2078   -2.3099 H   0  0  0  0  0  0  0  0  0  0  0  0
   -3.6394   -7.9665    0.2025 H   0  0  0  0  0  0  0  0  0  0  0  0
   -5.7331   -7.9022   -0.3055 H   0  0  0  0  0  0  0  0  0  0  0  0
   -9.2172   -6.7133   -0.6012 H   0  0  0  0  0  0  0  0  0  0  0  0
   -8.2641   -6.9539    0.9117 H   0  0  0  0  0  0  0  0  0  0  0  0
   -7.2619   -4.6835    0.6551 H   0  0  0  0  0  0  0  0  0  0  0  0
   -8.1479   -4.4285   -0.8928 H   0  0  0  0  0  0  0  0  0  0  0  0
   -1.2586   -7.3042   -0.1666 H   0  0  0  0  0  0  0  0  0  0  0  0
   -1.7671   -5.9188   -1.1241 H   0  0  0  0  0  0  0  0  0  0  0  0
   -1.8822   -7.4379    2.3558 H   0  0  0  0  0  0  0  0  0  0  0  0
   -2.7386   -6.0438    3.0791 H   0  0  0  0  0  0  0  0  0  0  0  0
   -3.5903   -7.1068    2.0062 H   0  0  0  0  0  0  0  0  0  0  0  0
   -0.5868   -4.4091    0.4856 H   0  0  0  0  0  0  0  0  0  0  0  0
   -0.9883   -4.4382    2.2007 H   0  0  0  0  0  0  0  0  0  0  0  0
   -0.0738   -5.7913    1.4847 H   0  0  0  0  0  0  0  0  0  0  0  0
  1  2  2  0  0  0  0
  1 37  1  0  0  0  0
  2  3  1  0  0  0  0
  2  7  1  0  0  0  0
  3  4  2  0  0  0  0
  3 38  1  0  0  0  0
  4  5  1  0  0  0  0
  4 39  1  0  0  0  0
  5  6  2  0  0  0  0
  5 11  1  0  0  0  0
  6  1  1  0  0  0  0
  6 40  1  0  0  0  0
  7  9  2  0  0  0  0
  7 10  2  0  0  0  0
  7  8  1  0  0  0  0
  8 41  1  0  0  0  0
  8 42  1  0  0  0  0
  8 43  1  0  0  0  0
 11 12  2  0  0  0  0
 12 13  1  0  0  0  0
 12 44  1  0  0  0  0
 13 14  2  0  0  0  0
 13 45  1  0  0  0  0
 14 15  1  0  0  0  0
 14 17  1  0  0  0  0
 15 16  2  0  0  0  0
 15 46  1  0  0  0  0
 16 11  1  0  0  0  0
 16 47  1  0  0  0  0
 17 48  1  1  0  0  0
 17 28  1  0  0  0  0
 17 18  1  0  0  0  0
 18 49  1  0  0  0  0
 19 29  1  0  0  0  0
 19 50  1  1  0  0  0
 19 20  1  0  0  0  0
 19 18  1  0  0  0  0
 20 21  1  0  0  0  0
 20 22  2  0  0  0  0
 21 23  1  0  0  0  0
 21 51  1  0  0  0  0
 23 25  1  0  0  0  0
 23 26  1  0  0  0  0
 24 23  1  0  0  0  0
 24 52  1  0  0  0  0
 24 53  1  0  0  0  0
 25 24  1  0  0  0  0
 25 54  1  0  0  0  0
 25 55  1  0  0  0  0
 26 27  3  0  0  0  0
 28 30  1  0  0  0  0
 28 31  1  0  0  0  0
 28 32  1  0  0  0  0
 29 33  1  0  0  0  0
 29 56  1  0  0  0  0
 29 57  1  0  0  0  0
 33 34  1  0  0  0  0
 33 35  1  0  0  0  0
 33 36  1  0  0  0  0
 34 58  1  0  0  0  0
 34 59  1  0  0  0  0
 34 60  1  0  0  0  0
 35 61  1  0  0  0  0
 35 62  1  0  0  0  0
 35 63  1  0  0  0  0
M  END
>  <DRUGBANK_ID>
DB06670

>  <COMMON_NAME>
Odanacatib

>  <CAS_NUMBER>
603139-19-1

>  <UNII>
N673F6W2VH

>  <SYNONYMS>
Odanacatib

$$$$
