1055
 OpenBabel10282417113D

 24 24  0  0  1  0  0  0  0  0999 V2000
    0.8610    0.0530   -0.0678 O   0  0  0  0  0  0  0  0  0  0  0  0
    0.2492   -3.8306   -4.3148 O   0  0  0  0  0  0  0  0  0  0  0  0
    0.9646   -1.6395    1.3867 O   0  0  0  0  0  0  0  0  0  0  0  0
   -0.7037   -6.0982   -2.9032 O   0  0  0  0  0  0  0  0  0  0  0  0
   -1.2986   -2.4500   -1.2437 N   0  0  0  0  0  0  0  0  0  0  0  0
   -1.7576    0.4423    1.2202 N   0  0  0  0  0  0  0  0  0  0  0  0
   -1.7404   -1.1313   -0.7324 C   0  0  0  0  0  0  0  0  0  0  0  0
   -1.2434   -0.8487    0.6962 C   0  0  1  0  0  0  0  0  0  0  0  0
   -0.5960   -2.5655   -2.4450 C   0  0  0  0  0  0  0  0  0  0  0  0
   -1.6503   -3.6215   -0.5867 C   0  0  0  0  0  0  0  0  0  0  0  0
    0.2792   -0.8792    0.7147 C   0  0  0  0  0  0  0  0  0  0  0  0
   -0.3538   -3.7289   -3.0781 C   0  0  0  0  0  0  0  0  0  0  0  0
   -1.3770   -4.8510   -1.0331 C   0  0  0  0  0  0  0  0  0  0  0  0
   -0.7941   -4.9857   -2.3864 C   0  0  0  0  0  0  0  0  0  0  0  0
    1.8222   -0.0745    0.0699 H   0  0  0  0  0  0  0  0  0  0  0  0
    0.3522   -2.9455   -4.6952 H   0  0  0  0  0  0  0  0  0  0  0  0
   -2.7761    0.4080    1.2566 H   0  0  0  0  0  0  0  0  0  0  0  0
   -1.4432    0.5524    2.1851 H   0  0  0  0  0  0  0  0  0  0  0  0
   -2.8391   -1.1170   -0.7412 H   0  0  0  0  0  0  0  0  0  0  0  0
   -1.4238   -0.3266   -1.4095 H   0  0  0  0  0  0  0  0  0  0  0  0
   -1.5931   -1.6293    1.3814 H   0  0  0  0  0  0  0  0  0  0  0  0
   -0.2484   -1.6198   -2.8512 H   0  0  0  0  0  0  0  0  0  0  0  0
   -2.1672   -3.4947    0.3595 H   0  0  0  0  0  0  0  0  0  0  0  0
   -1.6001   -5.7532   -0.4838 H   0  0  0  0  0  0  0  0  0  0  0  0
  1 11  1  0  0  0  0
  1 15  1  0  0  0  0
  2 12  1  0  0  0  0
  2 16  1  0  0  0  0
  3 11  2  0  0  0  0
  4 14  2  0  0  0  0
  5  7  1  0  0  0  0
  5  9  1  0  0  0  0
  5 10  1  0  0  0  0
  6 17  1  0  0  0  0
  6 18  1  0  0  0  0
  7  8  1  0  0  0  0
  7 19  1  0  0  0  0
  7 20  1  0  0  0  0
  8  6  1  0  0  0  0
  8 11  1  0  0  0  0
  8 21  1  1  0  0  0
  9 12  2  0  0  0  0
  9 22  1  0  0  0  0
 10 13  2  0  0  0  0
 10 23  1  0  0  0  0
 12 14  1  0  0  0  0
 13 14  1  0  0  0  0
 13 24  1  0  0  0  0
M  END
>  <DRUGBANK_ID>
DB01055

>  <SECONDARY_ACCESSION_NUMBERS>
APRD00647

>  <COMMON_NAME>
Mimosine

>  <CAS_NUMBER>
500-44-7

>  <UNII>
Z46B1LUI5N

>  <SYNONYMS>
(L)-Mimosine; (S)-2-amino-3-(3-hydroxy-4-oxo-4H-pyridin-1-yl)propanoate; L-Mimosine; Leucaenine; Leucaenol; Leucenine; Leucenol; Mimosin

$$$$
