1000
 OpenBabel10282417113D

 46 48  0  0  1  0  0  0  0  0999 V2000
    1.0602   -1.0793   -0.5383 S   0  0  0  0  0  0  0  0  0  0  0  0
   -2.5965    1.2058   -0.5790 O   0  0  0  0  0  0  0  0  0  0  0  0
   -0.4732    3.6282    0.9311 O   0  0  0  0  0  0  0  0  0  0  0  0
   -2.2113   -3.8667   -2.4766 O   0  0  0  0  0  0  0  0  0  0  0  0
    1.1366    2.6628    2.1264 O   0  0  0  0  0  0  0  0  0  0  0  0
   -0.7067    0.4997    0.6204 N   0  0  0  0  0  0  0  0  0  0  0  0
   -1.8640   -2.0003   -1.3065 N   0  0  0  0  0  0  0  0  0  0  0  0
   -1.2679   -5.0316    0.2102 N   0  0  0  0  0  0  0  0  0  0  0  0
   -0.3829   -0.9433    0.5233 C   0  0  1  0  0  0  0  0  0  0  0  0
   -1.7271   -1.1148   -0.1339 C   0  0  1  0  0  0  0  0  0  0  0  0
    0.3030    1.4317    0.1766 C   0  0  2  0  0  0  0  0  0  0  0  0
    1.6003    0.5986    0.0122 C   0  0  0  0  0  0  0  0  0  0  0  0
   -1.8283    0.3814   -0.1663 C   0  0  0  0  0  0  0  0  0  0  0  0
   -2.4630   -4.1964   -0.0429 C   0  0  0  0  0  0  0  0  0  0  0  0
    2.4729    1.1225   -1.1097 C   0  0  0  0  0  0  0  0  0  0  0  0
    2.3863    0.3762    1.3080 C   0  0  0  0  0  0  0  0  0  0  0  0
   -3.6747   -5.1345   -0.2556 C   0  0  0  0  0  0  0  0  0  0  0  0
   -2.8000   -3.3783    1.2035 C   0  0  0  0  0  0  0  0  0  0  0  0
   -2.1844   -3.3441   -1.3565 C   0  0  0  0  0  0  0  0  0  0  0  0
    0.3946    2.6149    1.1562 C   0  0  0  0  0  0  0  0  0  0  0  0
   -4.9851   -4.3538   -0.4419 C   0  0  0  0  0  0  0  0  0  0  0  0
   -4.0786   -2.5286    0.9482 C   0  0  0  0  0  0  0  0  0  0  0  0
   -5.2719   -3.4062    0.7217 C   0  0  0  0  0  0  0  0  0  0  0  0
   -0.2752   -1.4264    1.5008 H   0  0  0  0  0  0  0  0  0  0  0  0
   -1.1550    3.4923    0.2451 H   0  0  0  0  0  0  0  0  0  0  0  0
   -1.7464   -1.6186   -2.2416 H   0  0  0  0  0  0  0  0  0  0  0  0
   -0.4285   -4.4658    0.3130 H   0  0  0  0  0  0  0  0  0  0  0  0
   -1.3782   -5.5815    1.0597 H   0  0  0  0  0  0  0  0  0  0  0  0
   -2.4494   -1.2768    0.6332 H   0  0  0  0  0  0  0  0  0  0  0  0
   -0.0135    1.8238   -0.8009 H   0  0  0  0  0  0  0  0  0  0  0  0
    2.8273    2.1264   -0.8710 H   0  0  0  0  0  0  0  0  0  0  0  0
    3.3430    0.4750   -1.2644 H   0  0  0  0  0  0  0  0  0  0  0  0
    1.9197    1.1738   -2.0566 H   0  0  0  0  0  0  0  0  0  0  0  0
    3.1910   -0.3551    1.1905 H   0  0  0  0  0  0  0  0  0  0  0  0
    2.8728    1.3016    1.6235 H   0  0  0  0  0  0  0  0  0  0  0  0
    1.7389    0.0368    2.1287 H   0  0  0  0  0  0  0  0  0  0  0  0
   -3.5208   -5.7971   -1.1131 H   0  0  0  0  0  0  0  0  0  0  0  0
   -3.7933   -5.7781    0.6288 H   0  0  0  0  0  0  0  0  0  0  0  0
   -2.9598   -3.9978    2.0919 H   0  0  0  0  0  0  0  0  0  0  0  0
   -1.9121   -2.8158    1.4986 H   0  0  0  0  0  0  0  0  0  0  0  0
   -4.9226   -3.7796   -1.3763 H   0  0  0  0  0  0  0  0  0  0  0  0
   -5.8248   -5.0438   -0.5453 H   0  0  0  0  0  0  0  0  0  0  0  0
   -4.0410   -1.9362    0.0198 H   0  0  0  0  0  0  0  0  0  0  0  0
   -4.2285   -1.8056    1.7571 H   0  0  0  0  0  0  0  0  0  0  0  0
   -6.1328   -2.7708    0.4847 H   0  0  0  0  0  0  0  0  0  0  0  0
   -5.4810   -3.9458    1.6466 H   0  0  0  0  0  0  0  0  0  0  0  0
  1  9  1  0  0  0  0
  1 12  1  0  0  0  0
  2 13  2  0  0  0  0
  3 20  1  0  0  0  0
  3 25  1  0  0  0  0
  4 19  2  0  0  0  0
  5 20  2  0  0  0  0
  6  9  1  0  0  0  0
  6 11  1  0  0  0  0
  6 13  1  0  0  0  0
  7 19  1  0  0  0  0
  7 26  1  0  0  0  0
  8 14  1  0  0  0  0
  8 27  1  0  0  0  0
  8 28  1  0  0  0  0
  9 10  1  0  0  0  0
  9 24  1  1  0  0  0
 10 13  1  0  0  0  0
 10 29  1  1  0  0  0
 10  7  1  0  0  0  0
 11 12  1  0  0  0  0
 11 30  1  6  0  0  0
 11 20  1  0  0  0  0
 12 15  1  0  0  0  0
 12 16  1  0  0  0  0
 14 17  1  0  0  0  0
 14 18  1  0  0  0  0
 14 19  1  0  0  0  0
 15 31  1  0  0  0  0
 15 32  1  0  0  0  0
 15 33  1  0  0  0  0
 16 34  1  0  0  0  0
 16 35  1  0  0  0  0
 16 36  1  0  0  0  0
 17 21  1  0  0  0  0
 17 37  1  0  0  0  0
 17 38  1  0  0  0  0
 18 22  1  0  0  0  0
 18 39  1  0  0  0  0
 18 40  1  0  0  0  0
 21 23  1  0  0  0  0
 21 41  1  0  0  0  0
 21 42  1  0  0  0  0
 22 23  1  0  0  0  0
 22 43  1  0  0  0  0
 22 44  1  0  0  0  0
 23 45  1  0  0  0  0
 23 46  1  0  0  0  0
M  END
>  <DRUGBANK_ID>
DB01000

>  <SECONDARY_ACCESSION_NUMBERS>
APRD00892

>  <COMMON_NAME>
Cyclacillin

>  <CAS_NUMBER>
3485-14-1

>  <UNII>
72ZJ154X86

>  <SYNONYMS>
(1-aminocyclohexyl)penicillin; (2S,5R,6R)-6-{[(1-aminocyclohexyl)carbonyl]amino}-3,3-dimethyl-7-oxo-4-thia-1-azabicyclo[3.2.0]heptane-2-carboxylic acid; 6-(1-aminocyclohexanecarboxamido)penicillanic acid; 6-(1-aminocyclohexylcarboxamido)penicillanic acid; Ciclacilina; Ciclacillin; Ciclacilline; Ciclacillinum; Cyclacillin

$$$$
