
 OpenBabel10282417193D

 83 88  0  0  1  0  0  0  0  0999 V2000
    0.9991    0.7918   -1.4589 C   0  0  0  0  0  0  0  0  0  0  0  0
   -0.4660    1.0170   -0.9820 C   0  0  1  0  0  0  0  0  0  0  0  0
   -0.6178    2.3895   -0.3190 C   0  0  0  0  0  0  0  0  0  0  0  0
   -0.4337    3.4024   -1.4181 C   0  0  2  0  0  0  0  0  0  0  0  0
   -1.4654    3.2490   -2.5156 C   0  0  2  0  0  0  0  0  0  0  0  0
   -1.1459    4.6115   -3.2106 C   0  0  2  0  0  0  0  0  0  0  0  0
   -0.5056    5.6997   -2.0542 C   0  0  2  0  0  0  0  0  0  0  0  0
   -0.7808    4.6870   -1.0323 O   0  0  0  0  0  0  0  0  0  0  0  0
    0.4537    6.1623   -0.6546 C   0  0  0  0  0  0  0  0  0  0  0  0
    2.0152    6.2009   -0.4647 C   0  0  0  0  0  0  0  0  0  0  0  0
    2.9017    6.5255   -1.6578 C   0  0  1  0  0  0  0  0  0  0  0  0
    4.3669    6.5030   -1.4632 C   0  0  2  0  0  0  0  0  0  0  0  0
    4.7204    7.1251   -0.1714 C   0  0  0  0  0  0  0  0  0  0  0  0
    6.1737    7.1758   -0.2755 C   0  0  0  0  0  0  0  0  0  0  0  0
    6.7621    5.8346   -0.4076 C   0  0  2  0  0  0  0  0  0  0  0  0
    6.2967    4.9587    0.8319 C   0  0  0  0  0  0  0  0  0  0  0  0
    7.4448    4.8401    1.7371 C   0  0  1  0  0  0  0  0  0  0  0  0
    8.4266    4.2864    0.6157 C   0  0  0  0  0  0  0  0  0  0  0  0
    7.5758    3.8244   -0.9960 C   0  0  0  0  0  0  0  0  0  0  0  0
    6.4854    4.9957   -1.6178 C   0  0  2  0  0  0  0  0  0  0  0  0
    4.8853    5.0037   -1.5738 C   0  0  1  0  0  0  0  0  0  0  0  0
    4.0183    4.5081   -2.7067 C   0  0  0  0  0  0  0  0  0  0  0  0
    2.8355    5.4472   -2.6619 C   0  0  0  0  0  0  0  0  0  0  0  0
    1.7160    5.3058   -3.3525 C   0  0  0  0  0  0  0  0  0  0  0  0
    0.5924    6.2653   -3.0056 C   0  0  0  0  0  0  0  0  0  0  0  0
    1.6355    4.1356   -4.2831 C   0  0  0  0  0  0  0  0  0  0  0  0
    6.9056    5.6940   -2.9483 C   0  0  0  0  0  0  0  0  0  0  0  0
    7.6954    5.9840    2.7035 N   0  0  0  0  0  0  0  0  0  0  0  0
    8.6689    7.3618    2.7295 S   0  0  0  0  0  0  0  0  0  0  0  0
    8.4767    8.0064    3.9840 O   0  0  0  0  0  0  0  0  0  0  0  0
   10.0084    6.9565    2.2740 O   0  0  0  0  0  0  0  0  0  0  0  0
    8.0014    8.4296    1.5198 C   0  0  0  0  0  0  0  0  0  0  0  0
   -1.6556    5.2422   -4.5503 C   0  0  0  0  0  0  0  0  0  0  0  0
   -1.2490    1.9203   -3.1297 N   0  0  0  0  0  0  0  0  0  0  0  0
   -1.5313    0.8740   -2.1038 C   0  0  0  0  0  0  0  0  0  0  0  0
    1.7104    1.4352   -0.9255 H   0  0  0  0  0  0  0  0  0  0  0  0
    1.1544    0.9792   -2.5260 H   0  0  0  0  0  0  0  0  0  0  0  0
    1.3019   -0.2442   -1.2845 H   0  0  0  0  0  0  0  0  0  0  0  0
   -0.6651    0.2980   -0.1754 H   0  0  0  0  0  0  0  0  0  0  0  0
   -1.5954    2.5665    0.1468 H   0  0  0  0  0  0  0  0  0  0  0  0
    0.0964    2.4751    0.5130 H   0  0  0  0  0  0  0  0  0  0  0  0
    0.6193    3.3805   -1.7341 H   0  0  0  0  0  0  0  0  0  0  0  0
   -2.4912    3.2869   -2.1381 H   0  0  0  0  0  0  0  0  0  0  0  0
   -0.4152    4.1426   -3.8060 H   0  0  0  0  0  0  0  0  0  0  0  0
    0.1102    7.1838   -0.4405 H   0  0  0  0  0  0  0  0  0  0  0  0
    0.1835    5.6415    0.2914 H   0  0  0  0  0  0  0  0  0  0  0  0
    2.2050    6.9675    0.3071 H   0  0  0  0  0  0  0  0  0  0  0  0
    2.3532    5.2664    0.0068 H   0  0  0  0  0  0  0  0  0  0  0  0
    2.6771    7.5322   -2.0381 H   0  0  0  0  0  0  0  0  0  0  0  0
    4.8024    7.1164   -2.2717 H   0  0  0  0  0  0  0  0  0  0  0  0
    4.3577    8.1190    0.0805 H   0  0  0  0  0  0  0  0  0  0  0  0
    4.3946    6.4985    0.6596 H   0  0  0  0  0  0  0  0  0  0  0  0
    6.5976    7.8756   -1.0058 H   0  0  0  0  0  0  0  0  0  0  0  0
    6.3744    7.4608    0.7153 H   0  0  0  0  0  0  0  0  0  0  0  0
    7.8328    6.0614   -0.5090 H   0  0  0  0  0  0  0  0  0  0  0  0
    6.1649    3.8877    0.5789 H   0  0  0  0  0  0  0  0  0  0  0  0
    5.2854    5.0430    1.2126 H   0  0  0  0  0  0  0  0  0  0  0  0
    7.0850    4.0647    2.4321 H   0  0  0  0  0  0  0  0  0  0  0  0
    9.1668    5.0677    0.3973 H   0  0  0  0  0  0  0  0  0  0  0  0
    8.9857    3.4535    1.0502 H   0  0  0  0  0  0  0  0  0  0  0  0
    8.3303    3.5676   -1.7496 H   0  0  0  0  0  0  0  0  0  0  0  0
    6.9820    2.9090   -0.8458 H   0  0  0  0  0  0  0  0  0  0  0  0
    4.5372    4.4231   -0.7136 H   0  0  0  0  0  0  0  0  0  0  0  0
    4.4668    4.5216   -3.6983 H   0  0  0  0  0  0  0  0  0  0  0  0
    3.6744    3.4926   -2.4753 H   0  0  0  0  0  0  0  0  0  0  0  0
    0.2558    6.8099   -3.8893 H   0  0  0  0  0  0  0  0  0  0  0  0
    0.8902    7.2121   -2.5304 H   0  0  0  0  0  0  0  0  0  0  0  0
    1.3657    4.4477   -5.2891 H   0  0  0  0  0  0  0  0  0  0  0  0
    2.5338    3.5280   -4.3163 H   0  0  0  0  0  0  0  0  0  0  0  0
    0.9890    3.3510   -3.9118 H   0  0  0  0  0  0  0  0  0  0  0  0
    6.9899    6.7810   -2.8331 H   0  0  0  0  0  0  0  0  0  0  0  0
    7.8360    5.3252   -3.3758 H   0  0  0  0  0  0  0  0  0  0  0  0
    6.1498    5.5900   -3.7396 H   0  0  0  0  0  0  0  0  0  0  0  0
    7.8015    5.6123    3.6578 H   0  0  0  0  0  0  0  0  0  0  0  0
    8.1616    7.8310    0.6300 H   0  0  0  0  0  0  0  0  0  0  0  0
    6.9727    8.6649    1.8351 H   0  0  0  0  0  0  0  0  0  0  0  0
    8.5061    9.3621    1.3084 H   0  0  0  0  0  0  0  0  0  0  0  0
   -1.5514    4.5463   -5.4013 H   0  0  0  0  0  0  0  0  0  0  0  0
   -2.6430    5.6876   -4.5517 H   0  0  0  0  0  0  0  0  0  0  0  0
   -0.9710    6.0282   -4.8978 H   0  0  0  0  0  0  0  0  0  0  0  0
   -0.3012    1.8181   -3.4866 H   0  0  0  0  0  0  0  0  0  0  0  0
   -2.0332    0.2856   -2.8867 H   0  0  0  0  0  0  0  0  0  0  0  0
   -1.3052   -0.2154   -2.0110 H   0  0  0  0  0  0  0  0  0  0  0  0
  1 36  1  0  0  0  0
  1 37  1  0  0  0  0
  1 38  1  0  0  0  0
  2  3  1  0  0  0  0
  2 35  1  0  0  0  0
  2  1  1  0  0  0  0
  2 39  1  1  0  0  0
  3  4  1  0  0  0  0
  3 40  1  0  0  0  0
  3 41  1  0  0  0  0
  4  5  1  0  0  0  0
  4  8  1  0  0  0  0
  4 42  1  1  0  0  0
  5  6  1  0  0  0  0
  5 34  1  0  0  0  0
  5 43  1  6  0  0  0
  6  7  1  0  0  0  0
  6 33  1  0  0  0  0
  6 44  1  6  0  0  0
  7  8  1  1  0  0  0
  7  9  1  0  0  0  0
  7 25  1  0  0  0  0
  9 10  1  0  0  0  0
  9 45  1  0  0  0  0
  9 46  1  0  0  0  0
 10 11  1  0  0  0  0
 10 47  1  0  0  0  0
 10 48  1  0  0  0  0
 11 12  1  0  0  0  0
 11 23  1  0  0  0  0
 11 49  1  6  0  0  0
 12 13  1  0  0  0  0
 12 21  1  0  0  0  0
 12 50  1  1  0  0  0
 13 14  1  0  0  0  0
 13 51  1  0  0  0  0
 13 52  1  0  0  0  0
 14 53  1  0  0  0  0
 14 54  1  0  0  0  0
 15 14  1  0  0  0  0
 15 16  1  0  0  0  0
 15 20  1  0  0  0  0
 15 55  1  6  0  0  0
 16 17  1  0  0  0  0
 16 56  1  0  0  0  0
 16 57  1  0  0  0  0
 17 18  1  0  0  0  0
 17 28  1  0  0  0  0
 17 58  1  1  0  0  0
 18 19  1  0  0  0  0
 18 59  1  0  0  0  0
 18 60  1  0  0  0  0
 19 20  1  0  0  0  0
 19 61  1  0  0  0  0
 19 62  1  0  0  0  0
 20 21  1  0  0  0  0
 20 27  1  1  0  0  0
 21 22  1  0  0  0  0
 21 63  1  6  0  0  0
 22 23  1  0  0  0  0
 22 64  1  0  0  0  0
 22 65  1  0  0  0  0
 23 24  2  0  0  0  0
 24 25  1  0  0  0  0
 24 26  1  0  0  0  0
 25 66  1  0  0  0  0
 25 67  1  0  0  0  0
 26 68  1  0  0  0  0
 26 69  1  0  0  0  0
 26 70  1  0  0  0  0
 27 71  1  0  0  0  0
 27 72  1  0  0  0  0
 27 73  1  0  0  0  0
 28 29  1  0  0  0  0
 28 74  1  0  0  0  0
 29 30  2  0  0  0  0
 29 31  2  0  0  0  0
 29 32  1  0  0  0  0
 32 75  1  0  0  0  0
 32 76  1  0  0  0  0
 32 77  1  0  0  0  0
 33 78  1  0  0  0  0
 33 79  1  0  0  0  0
 33 80  1  0  0  0  0
 34 35  1  0  0  0  0
 34 81  1  0  0  0  0
 35 82  1  0  0  0  0
 35 83  1  0  0  0  0
M  END
>  <DRUGBANK_ID>
DB12655

>  <SECONDARY_ACCESSION_NUMBERS>
DB05922

>  <COMMON_NAME>
Patidegib

>  <CAS_NUMBER>
1037210-93-7

>  <UNII>
JT96FPU35X

>  <SYNONYMS>
Patidegib; Saridegib

$$$$
