AIQ
 OpenBabel10282417143D

 32 34  0  0  0  0  0  0  0  0999 V2000
    2.4006   -0.6639    0.0052 C   0  0  0  0  0  0  0  0  0  0  0  0
    1.1825   -1.3805    0.0224 C   0  0  0  0  0  0  0  0  0  0  0  0
    1.2296   -2.8866    0.1106 C   0  0  0  0  0  0  0  0  0  0  0  0
   -0.0372   -0.6804   -0.0261 C   0  0  0  0  0  0  0  0  0  0  0  0
   -1.2610   -1.3788   -0.0339 N   0  0  0  0  0  0  0  0  0  0  0  0
   -2.3716   -0.7157   -0.0160 C   0  0  0  0  0  0  0  0  0  0  0  0
   -3.5617   -1.3535   -0.0078 N   0  0  0  0  0  0  0  0  0  0  0  0
   -2.4009    0.6465   -0.0034 N   0  0  0  0  0  0  0  0  0  0  0  0
   -1.2769    1.4290   -0.0109 C   0  0  0  0  0  0  0  0  0  0  0  0
   -1.3348    2.6568    0.0037 O   0  0  0  0  0  0  0  0  0  0  0  0
    0.0071    0.7140   -0.0257 C   0  0  0  0  0  0  0  0  0  0  0  0
    1.2195    1.4168   -0.0092 C   0  0  0  0  0  0  0  0  0  0  0  0
    2.4312    0.7318   -0.0298 C   0  0  0  0  0  0  0  0  0  0  0  0
    3.6313    1.4132    0.1137 N   0  0  0  0  0  0  0  0  0  0  0  0
    0.4304   -3.5864    1.5825 S   0  0  0  0  0  0  0  0  0  0  0  0
    1.3016   -2.9449    2.9264 C   0  0  0  0  0  0  0  0  0  0  0  0
    1.9062   -3.6707    3.8373 N   0  0  0  0  0  0  0  0  0  0  0  0
    1.2572   -1.6250    3.2861 N   0  0  0  0  0  0  0  0  0  0  0  0
    2.2649   -2.7903    4.8250 C   0  0  0  0  0  0  0  0  0  0  0  0
    1.8750   -1.5110    4.5056 C   0  0  0  0  0  0  0  0  0  0  0  0
    3.3425   -1.2115    0.0270 H   0  0  0  0  0  0  0  0  0  0  0  0
    0.7412   -3.2954   -0.7837 H   0  0  0  0  0  0  0  0  0  0  0  0
    2.2645   -3.2482    0.0677 H   0  0  0  0  0  0  0  0  0  0  0  0
   -3.5569   -2.3669    0.0050 H   0  0  0  0  0  0  0  0  0  0  0  0
   -4.4559   -0.8879    0.0076 H   0  0  0  0  0  0  0  0  0  0  0  0
   -3.2799    1.1365    0.0041 H   0  0  0  0  0  0  0  0  0  0  0  0
    1.2062    2.5036    0.0132 H   0  0  0  0  0  0  0  0  0  0  0  0
    3.6488    2.4124   -0.0599 H   0  0  0  0  0  0  0  0  0  0  0  0
    4.5018    0.9229   -0.0600 H   0  0  0  0  0  0  0  0  0  0  0  0
    0.8133   -0.8818    2.7662 H   0  0  0  0  0  0  0  0  0  0  0  0
    2.7713   -3.1285    5.7199 H   0  0  0  0  0  0  0  0  0  0  0  0
    1.9662   -0.5705    5.0314 H   0  0  0  0  0  0  0  0  0  0  0  0
  1  2  2  0  0  0  0
  1 13  1  0  0  0  0
  1 21  1  0  0  0  0
  2  3  1  0  0  0  0
  2  4  1  0  0  0  0
  3 15  1  0  0  0  0
  3 22  1  0  0  0  0
  3 23  1  0  0  0  0
  4  5  1  0  0  0  0
  4 11  2  0  0  0  0
  5  6  2  0  0  0  0
  6  7  1  0  0  0  0
  6  8  1  0  0  0  0
  7 24  1  0  0  0  0
  7 25  1  0  0  0  0
  8  9  1  0  0  0  0
  8 26  1  0  0  0  0
  9 10  2  0  0  0  0
  9 11  1  0  0  0  0
 11 12  1  0  0  0  0
 12 13  2  0  0  0  0
 12 27  1  0  0  0  0
 13 14  1  0  0  0  0
 14 28  1  0  0  0  0
 14 29  1  0  0  0  0
 15 16  1  0  0  0  0
 16 17  2  0  0  0  0
 16 18  1  0  0  0  0
 17 19  1  0  0  0  0
 18 20  1  0  0  0  0
 18 30  1  0  0  0  0
 19 20  2  0  0  0  0
 19 31  1  0  0  0  0
 20 32  1  0  0  0  0
M  END
>  <DRUGBANK_ID>
DB04543

>  <SECONDARY_ACCESSION_NUMBERS>
EXPT00476

>  <COMMON_NAME>
2,6-Diamino-8-(1h-Imidazol-2-Ylsulfanylmethyl)-3h-Quinazoline-4-One

$$$$
