
 OpenBabel10282417133D

 22 22  0  0  0  0  0  0  0  0999 V2000
    1.0210    0.0965    0.1778 C   0  0  0  0  0  0  0  0  0  0  0  0
    0.4462    1.4281    0.2285 N   0  0  0  0  0  0  0  0  0  0  0  0
    1.0826    2.5585    0.7335 C   0  0  0  0  0  0  0  0  0  0  0  0
    2.1068    2.5978    1.3988 O   0  0  0  0  0  0  0  0  0  0  0  0
    0.2699    3.7660    0.3020 C   0  0  0  0  0  0  0  0  0  0  0  0
   -0.8102    3.1578   -0.5989 C   0  0  0  0  0  0  0  0  0  0  0  0
   -0.9421    1.7219   -0.0858 C   0  0  0  0  0  0  0  0  0  0  0  0
   -1.5648    0.7861   -1.1190 C   0  0  0  0  0  0  0  0  0  0  0  0
   -1.8147    1.6827    1.1828 C   0  0  0  0  0  0  0  0  0  0  0  0
    0.7598   -0.3630   -0.7812 H   0  0  0  0  0  0  0  0  0  0  0  0
    0.6266   -0.5149    0.9914 H   0  0  0  0  0  0  0  0  0  0  0  0
    2.1121    0.1432    0.2349 H   0  0  0  0  0  0  0  0  0  0  0  0
   -0.1632    4.2790    1.1648 H   0  0  0  0  0  0  0  0  0  0  0  0
    0.9022    4.4578   -0.2630 H   0  0  0  0  0  0  0  0  0  0  0  0
   -1.7466    3.7227   -0.5691 H   0  0  0  0  0  0  0  0  0  0  0  0
   -0.4503    3.1652   -1.6370 H   0  0  0  0  0  0  0  0  0  0  0  0
   -1.6241   -0.2366   -0.7260 H   0  0  0  0  0  0  0  0  0  0  0  0
   -2.5832    1.1017   -1.3653 H   0  0  0  0  0  0  0  0  0  0  0  0
   -0.9795    0.7522   -2.0430 H   0  0  0  0  0  0  0  0  0  0  0  0
   -1.4164    2.3050    1.9915 H   0  0  0  0  0  0  0  0  0  0  0  0
   -2.8280    2.0353    0.9600 H   0  0  0  0  0  0  0  0  0  0  0  0
   -1.8892    0.6610    1.5713 H   0  0  0  0  0  0  0  0  0  0  0  0
  1  2  1  0  0  0  0
  1 10  1  0  0  0  0
  1 11  1  0  0  0  0
  1 12  1  0  0  0  0
  2  3  1  0  0  0  0
  2  7  1  0  0  0  0
  3  4  2  0  0  0  0
  3  5  1  0  0  0  0
  5  6  1  0  0  0  0
  5 13  1  0  0  0  0
  5 14  1  0  0  0  0
  6  7  1  0  0  0  0
  6 15  1  0  0  0  0
  6 16  1  0  0  0  0
  7  8  1  0  0  0  0
  7  9  1  0  0  0  0
  8 17  1  0  0  0  0
  8 18  1  0  0  0  0
  8 19  1  0  0  0  0
  9 20  1  0  0  0  0
  9 21  1  0  0  0  0
  9 22  1  0  0  0  0
M  END
>  <DRUGBANK_ID>
DB03968

>  <SECONDARY_ACCESSION_NUMBERS>
EXPT01911

>  <COMMON_NAME>
1-Methyl-2-Oxy-5,5-Dimethyl Pyrrolidine

>  <UNII>
6BC49782CZ

$$$$
