
 OpenBabel10282417183D

 38 40  0  0  0  0  0  0  0  0999 V2000
   -1.1202    1.9430   -0.2605 C   0  0  1  0  0  0  0  0  0  0  0  0
   -2.0927    1.2839    0.7754 C   0  0  1  0  0  0  0  0  0  0  0  0
   -2.8805    0.0652    0.2468 C   0  0  0  0  0  0  0  0  0  0  0  0
   -2.1412   -0.8556   -0.7100 C   0  0  0  0  0  0  0  0  0  0  0  0
   -0.8027   -1.1392   -0.2947 N   0  0  0  0  0  0  0  0  0  0  0  0
    0.2324   -0.1974   -0.2428 C   0  0  0  0  0  0  0  0  0  0  0  0
    0.1836    1.1852   -0.3501 C   0  0  0  0  0  0  0  0  0  0  0  0
    1.4112    1.8621   -0.2806 C   0  0  0  0  0  0  0  0  0  0  0  0
    2.6133    1.1560   -0.0674 C   0  0  0  0  0  0  0  0  0  0  0  0
    2.6165   -0.2330    0.1344 C   0  0  0  0  0  0  0  0  0  0  0  0
    1.0826   -2.2257    0.2506 N   0  0  0  0  0  0  0  0  0  0  0  0
   -0.2977   -2.4027    0.0381 C   0  0  0  0  0  0  0  0  0  0  0  0
    1.4062   -0.8825    0.0566 C   0  0  0  0  0  0  0  0  0  0  0  0
   -0.9090   -3.4503    0.1082 O   0  0  0  0  0  0  0  0  0  0  0  0
   -1.7381    2.1385   -1.5247 O   0  0  0  0  0  0  0  0  0  0  0  0
   -1.3743    0.9252    2.0229 N   0  0  0  0  0  0  0  0  0  0  0  0
   -2.1824    0.9358    3.2313 C   0  0  0  0  0  0  0  0  0  0  0  0
   -1.3238    0.4102    4.3834 C   0  0  0  0  0  0  0  0  0  0  0  0
   -2.6439    2.3566    3.5344 C   0  0  0  0  0  0  0  0  0  0  0  0
   -0.9061    2.9525    0.1183 H   0  0  0  0  0  0  0  0  0  0  0  0
   -2.8435    2.0541    0.9668 H   0  0  0  0  0  0  0  0  0  0  0  0
   -3.2205   -0.5471    1.0909 H   0  0  0  0  0  0  0  0  0  0  0  0
   -3.7994    0.4194   -0.2362 H   0  0  0  0  0  0  0  0  0  0  0  0
   -2.7024   -1.7889   -0.8233 H   0  0  0  0  0  0  0  0  0  0  0  0
   -2.0880   -0.4507   -1.7234 H   0  0  0  0  0  0  0  0  0  0  0  0
    1.4373    2.9502   -0.3405 H   0  0  0  0  0  0  0  0  0  0  0  0
    3.5491    1.7108   -0.0324 H   0  0  0  0  0  0  0  0  0  0  0  0
    3.5409   -0.7617    0.3291 H   0  0  0  0  0  0  0  0  0  0  0  0
    1.6918   -2.9823    0.5108 H   0  0  0  0  0  0  0  0  0  0  0  0
   -1.6542    1.3162   -2.0280 H   0  0  0  0  0  0  0  0  0  0  0  0
   -0.5378    1.4951    2.1494 H   0  0  0  0  0  0  0  0  0  0  0  0
   -3.0423    0.2673    3.1212 H   0  0  0  0  0  0  0  0  0  0  0  0
   -0.4382    1.0364    4.5452 H   0  0  0  0  0  0  0  0  0  0  0  0
   -1.9036    0.4038    5.3120 H   0  0  0  0  0  0  0  0  0  0  0  0
   -0.9802   -0.6140    4.1962 H   0  0  0  0  0  0  0  0  0  0  0  0
   -3.2880    2.7600    2.7486 H   0  0  0  0  0  0  0  0  0  0  0  0
   -3.2262    2.3821    4.4566 H   0  0  0  0  0  0  0  0  0  0  0  0
   -1.7852    3.0300    3.6341 H   0  0  0  0  0  0  0  0  0  0  0  0
  1 15  1  0  0  0  0
  1  7  1  0  0  0  0
  1  2  1  0  0  0  0
  1 20  1  1  0  0  0
  2  3  1  0  0  0  0
  2 21  1  1  0  0  0
  2 16  1  0  0  0  0
  3  4  1  0  0  0  0
  3 22  1  0  0  0  0
  3 23  1  0  0  0  0
  4  5  1  0  0  0  0
  4 24  1  0  0  0  0
  4 25  1  0  0  0  0
  5  6  1  0  0  0  0
  6  7  2  0  0  0  0
  7  8  1  0  0  0  0
  8  9  2  0  0  0  0
  8 26  1  0  0  0  0
  9 10  1  0  0  0  0
  9 27  1  0  0  0  0
 10 13  2  0  0  0  0
 10 28  1  0  0  0  0
 11 12  1  0  0  0  0
 11 29  1  0  0  0  0
 12  5  1  0  0  0  0
 12 14  2  0  0  0  0
 13  6  1  0  0  0  0
 13 11  1  0  0  0  0
 15 30  1  0  0  0  0
 16 17  1  0  0  0  0
 16 31  1  0  0  0  0
 17 18  1  0  0  0  0
 17 19  1  0  0  0  0
 17 32  1  0  0  0  0
 18 33  1  0  0  0  0
 18 34  1  0  0  0  0
 18 35  1  0  0  0  0
 19 36  1  0  0  0  0
 19 37  1  0  0  0  0
 19 38  1  0  0  0  0
M  END
>  <DRUGBANK_ID>
DB11479

>  <COMMON_NAME>
Zilpaterol

>  <CAS_NUMBER>
119520-05-7

>  <UNII>
S384A1Y12J

>  <SYNONYMS>
Zilpaterol

$$$$
