
 OpenBabel10282417233D

 81 84  0  0  1  0  0  0  0  0999 V2000
    0.2255    1.1148  -12.0331 C   0  0  0  0  0  0  0  0  0  0  0  0
   -0.4873    1.5383  -10.8885 O   0  0  0  0  0  0  0  0  0  0  0  0
    0.2544    1.2012   -9.8018 C   0  0  0  0  0  0  0  0  0  0  0  0
    1.5416    1.7827   -9.6242 C   0  0  0  0  0  0  0  0  0  0  0  0
    2.3183    1.4769   -8.5236 C   0  0  0  0  0  0  0  0  0  0  0  0
    1.7512    0.6452   -7.6051 C   0  0  0  0  0  0  0  0  0  0  0  0
    0.3385    0.5902   -7.6511 C   0  0  0  0  0  0  0  0  0  0  0  0
   -0.3514    1.7433   -6.8590 C   0  0  1  0  0  0  0  0  0  0  0  0
    0.6072    3.1660   -6.9375 O   0  0  0  0  0  0  0  0  0  0  0  0
    1.2373    4.3413   -5.9259 C   0  0  2  0  0  0  0  0  0  0  0  0
    2.7657    4.0707   -5.5151 C   0  0  0  0  0  0  0  0  0  0  0  0
    3.4641    4.9567   -4.4678 C   0  0  0  0  0  0  0  0  0  0  0  0
    4.1018    4.4524   -3.5367 O   0  0  0  0  0  0  0  0  0  0  0  0
    3.6663    6.2491   -4.8461 N   0  0  0  0  0  0  0  0  0  0  0  0
    5.0169    6.7335   -4.7569 C   0  0  0  0  0  0  0  0  0  0  0  0
    5.1323    7.8114   -3.7146 C   0  0  0  0  0  0  0  0  0  0  0  0
    4.1040    8.9339   -3.9424 C   0  0  3  0  0  0  0  0  0  0  0  0
    4.1731    9.9685   -2.8121 C   0  0  0  0  0  0  0  0  0  0  0  0
    5.5434   10.5817   -2.6740 C   0  0  0  0  0  0  0  0  0  0  0  0
    5.6185   11.9008   -2.8757 O   0  0  0  0  0  0  0  0  0  0  0  0
    6.5735    9.9249   -2.3889 O   0  0  0  0  0  0  0  0  0  0  0  0
    2.6832    8.3419   -4.0574 C   0  0  0  0  0  0  0  0  0  0  0  0
    2.6316    7.2299   -5.1049 C   0  0  0  0  0  0  0  0  0  0  0  0
   -0.1146    4.3729   -5.3072 C   0  0  0  0  0  0  0  0  0  0  0  0
   -0.8195    5.4019   -5.3244 O   0  0  0  0  0  0  0  0  0  0  0  0
   -0.4329    3.1358   -4.7530 N   0  0  0  0  0  0  0  0  0  0  0  0
    0.7599    2.0974   -4.6865 C   0  0  0  0  0  0  0  0  0  0  0  0
    0.8279    0.9468   -3.7453 C   0  0  0  0  0  0  0  0  0  0  0  0
   -0.3863    0.0494   -3.8870 C   0  0  0  0  0  0  0  0  0  0  0  0
    2.0933    0.0823   -4.0427 C   0  0  0  0  0  0  0  0  0  0  0  0
    0.8973    1.7469   -2.4635 C   0  0  0  0  0  0  0  0  0  0  0  0
    2.0474    2.5937   -2.4164 O   0  0  0  0  0  0  0  0  0  0  0  0
   -1.7132    2.7564   -5.2691 C   0  0  0  0  0  0  0  0  0  0  0  0
   -1.7143    1.7587   -6.1861 C   0  0  0  0  0  0  0  0  0  0  0  0
   -2.8061    0.8871   -6.0724 C   0  0  0  0  0  0  0  0  0  0  0  0
   -4.0217    1.4486   -5.6733 C   0  0  0  0  0  0  0  0  0  0  0  0
   -5.4839    0.5495   -5.6461 Cl  0  0  0  0  0  0  0  0  0  0  0  0
   -4.0645    2.8131   -5.4294 C   0  0  0  0  0  0  0  0  0  0  0  0
   -2.8686    3.4963   -5.2987 C   0  0  0  0  0  0  0  0  0  0  0  0
   -0.3279    0.4480   -8.8182 C   0  0  0  0  0  0  0  0  0  0  0  0
   -1.5385   -0.1432   -8.6829 O   0  0  0  0  0  0  0  0  0  0  0  0
   -2.2997   -0.2611   -9.8631 C   0  0  0  0  0  0  0  0  0  0  0  0
   -0.4436    1.2380  -12.8791 H   0  0  0  0  0  0  0  0  0  0  0  0
    0.5142    0.0599  -11.9433 H   0  0  0  0  0  0  0  0  0  0  0  0
    1.1057    1.7443  -12.1815 H   0  0  0  0  0  0  0  0  0  0  0  0
    1.9246    2.5081  -10.3263 H   0  0  0  0  0  0  0  0  0  0  0  0
    3.2530    1.9802   -8.2976 H   0  0  0  0  0  0  0  0  0  0  0  0
    2.3159    0.4920   -6.6922 H   0  0  0  0  0  0  0  0  0  0  0  0
   -0.1019    1.0656   -6.0688 H   0  0  0  0  0  0  0  0  0  0  0  0
    1.2178    4.7270   -4.8516 H   0  0  0  0  0  0  0  0  0  0  0  0
    3.0639    3.1309   -5.0414 H   0  0  0  0  0  0  0  0  0  0  0  0
    3.3614    4.0493   -6.4173 H   0  0  0  0  0  0  0  0  0  0  0  0
    5.2652    7.1090   -5.7533 H   0  0  0  0  0  0  0  0  0  0  0  0
    5.7204    5.9203   -4.5367 H   0  0  0  0  0  0  0  0  0  0  0  0
    6.1548    8.1850   -3.7901 H   0  0  0  0  0  0  0  0  0  0  0  0
    4.9970    7.3841   -2.7122 H   0  0  0  0  0  0  0  0  0  0  0  0
    4.3384    9.4258   -4.8962 H   0  0  0  0  0  0  0  0  0  0  0  0
    3.4285   10.7541   -2.9874 H   0  0  0  0  0  0  0  0  0  0  0  0
    3.9130    9.5053   -1.8520 H   0  0  0  0  0  0  0  0  0  0  0  0
    4.7641   12.3419   -3.0439 H   0  0  0  0  0  0  0  0  0  0  0  0
    2.3703    7.9379   -3.0841 H   0  0  0  0  0  0  0  0  0  0  0  0
    1.9592    9.1194   -4.3281 H   0  0  0  0  0  0  0  0  0  0  0  0
    1.6362    6.7885   -5.0909 H   0  0  0  0  0  0  0  0  0  0  0  0
    2.8249    7.6184   -6.1078 H   0  0  0  0  0  0  0  0  0  0  0  0
    1.2488    1.7665   -5.5937 H   0  0  0  0  0  0  0  0  0  0  0  0
    1.6225    2.6503   -4.5107 H   0  0  0  0  0  0  0  0  0  0  0  0
   -0.4093   -0.4780   -4.8544 H   0  0  0  0  0  0  0  0  0  0  0  0
   -0.4051   -0.7142   -3.1187 H   0  0  0  0  0  0  0  0  0  0  0  0
   -1.2939    0.6415   -3.7939 H   0  0  0  0  0  0  0  0  0  0  0  0
    3.0202    0.6625   -4.1506 H   0  0  0  0  0  0  0  0  0  0  0  0
    2.2296   -0.6570   -3.2542 H   0  0  0  0  0  0  0  0  0  0  0  0
    1.9999   -0.4976   -4.9723 H   0  0  0  0  0  0  0  0  0  0  0  0
    0.0376    2.4298   -2.4349 H   0  0  0  0  0  0  0  0  0  0  0  0
    0.8696    1.1031   -1.6017 H   0  0  0  0  0  0  0  0  0  0  0  0
    2.8548    2.1157   -2.6763 H   0  0  0  0  0  0  0  0  0  0  0  0
   -2.7468   -0.1858   -6.2503 H   0  0  0  0  0  0  0  0  0  0  0  0
   -4.9920    3.3558   -5.3113 H   0  0  0  0  0  0  0  0  0  0  0  0
   -2.8659    4.5775   -5.2727 H   0  0  0  0  0  0  0  0  0  0  0  0
   -2.6732    0.7221  -10.1570 H   0  0  0  0  0  0  0  0  0  0  0  0
   -1.7034   -0.7395  -10.6425 H   0  0  0  0  0  0  0  0  0  0  0  0
   -3.1643   -0.8995   -9.6601 H   0  0  0  0  0  0  0  0  0  0  0  0
  1  2  1  0  0  0  0
  1 43  1  0  0  0  0
  1 44  1  0  0  0  0
  1 45  1  0  0  0  0
  2  3  1  0  0  0  0
  3  4  2  0  0  0  0
  3 40  1  0  0  0  0
  4  5  1  0  0  0  0
  4 46  1  0  0  0  0
  5  6  2  0  0  0  0
  5 47  1  0  0  0  0
  6  7  1  0  0  0  0
  6 48  1  0  0  0  0
  7 40  2  0  0  0  0
  8  9  1  0  0  0  0
  8 34  1  0  0  0  0
  8 49  1  1  0  0  0
  8  7  1  0  0  0  0
 10  9  1  0  0  0  0
 10 24  1  0  0  0  0
 10 50  1  6  0  0  0
 10 11  1  0  0  0  0
 11 12  1  0  0  0  0
 11 51  1  0  0  0  0
 11 52  1  0  0  0  0
 12 13  2  0  0  0  0
 12 14  1  0  0  0  0
 14 15  1  0  0  0  0
 14 23  1  0  0  0  0
 15 16  1  0  0  0  0
 15 53  1  0  0  0  0
 15 54  1  0  0  0  0
 16 17  1  0  0  0  0
 16 55  1  0  0  0  0
 16 56  1  0  0  0  0
 17 18  1  0  0  0  0
 17 22  1  0  0  0  0
 17 57  1  0  0  0  0
 18 19  1  0  0  0  0
 18 58  1  0  0  0  0
 18 59  1  0  0  0  0
 19 20  1  0  0  0  0
 19 21  2  0  0  0  0
 20 60  1  0  0  0  0
 22 23  1  0  0  0  0
 22 61  1  0  0  0  0
 22 62  1  0  0  0  0
 23 63  1  0  0  0  0
 23 64  1  0  0  0  0
 24 25  2  0  0  0  0
 24 26  1  0  0  0  0
 26 27  1  0  0  0  0
 26 33  1  0  0  0  0
 27 28  1  0  0  0  0
 27 65  1  0  0  0  0
 27 66  1  0  0  0  0
 28 29  1  0  0  0  0
 28 30  1  0  0  0  0
 28 31  1  0  0  0  0
 29 67  1  0  0  0  0
 29 68  1  0  0  0  0
 29 69  1  0  0  0  0
 30 70  1  0  0  0  0
 30 71  1  0  0  0  0
 30 72  1  0  0  0  0
 31 32  1  0  0  0  0
 31 73  1  0  0  0  0
 31 74  1  0  0  0  0
 32 75  1  0  0  0  0
 33 34  2  0  0  0  0
 33 39  1  0  0  0  0
 34 35  1  0  0  0  0
 35 36  2  0  0  0  0
 35 76  1  0  0  0  0
 36 37  1  0  0  0  0
 36 38  1  0  0  0  0
 38 39  2  0  0  0  0
 38 77  1  0  0  0  0
 39 78  1  0  0  0  0
 40 41  1  0  0  0  0
 41 42  1  0  0  0  0
 42 79  1  0  0  0  0
 42 80  1  0  0  0  0
 42 81  1  0  0  0  0
M  END
>  <DRUGBANK_ID>
DB16215

>  <COMMON_NAME>
Lapaquistat

>  <CAS_NUMBER>
189059-71-0

>  <UNII>
PEZ79BV72X

>  <SYNONYMS>
Lapaquistat

$$$$
