
 OpenBabel10282417123D

 34 36  0  0  0  0  0  0  0  0999 V2000
    0.9680    0.0559   -0.0928 C   0  0  0  0  0  0  0  0  0  0  0  0
   -2.3479    3.1315    1.5205 C   0  0  0  0  0  0  0  0  0  0  0  0
   -4.1629   -0.6205    0.1845 C   0  0  0  0  0  0  0  0  0  0  0  0
    0.4489   -0.9979    0.9083 C   0  0  2  0  0  0  0  0  0  0  0  0
   -4.2268    1.4973    0.5336 C   0  0  0  0  0  0  0  0  0  0  0  0
    0.0646   -2.3091    0.2215 C   0  0  2  0  0  0  0  0  0  0  0  0
   -1.4131   -2.1003   -0.1035 C   0  0  2  0  0  0  0  0  0  0  0  0
   -2.9637    1.0758    0.9394 C   0  0  0  0  0  0  0  0  0  0  0  0
   -4.4933    2.8688    0.6880 C   0  0  0  0  0  0  0  0  0  0  0  0
   -1.8943   -1.2250    1.0565 C   0  0  2  0  0  0  0  0  0  0  0  0
   -1.9954    1.8371    1.4560 N   0  0  0  0  0  0  0  0  0  0  0  0
   -3.5297    3.6871    1.1812 N   0  0  0  0  0  0  0  0  0  0  0  0
   -4.9587    0.4243    0.0664 N   0  0  0  0  0  0  0  0  0  0  0  0
   -2.9406   -0.2758    0.7077 N   0  0  0  0  0  0  0  0  0  0  0  0
    0.2028   -3.4290    1.1105 O   0  0  0  0  0  0  0  0  0  0  0  0
   -2.1399   -3.3288   -0.1749 O   0  0  0  0  0  0  0  0  0  0  0  0
    0.6959    1.4032    0.2606 O   0  0  0  0  0  0  0  0  0  0  0  0
   -0.7352   -0.5594    1.5966 O   0  0  0  0  0  0  0  0  0  0  0  0
   -6.0925    3.4844    0.2384 S   0  0  0  0  0  0  0  0  0  0  0  0
   -5.9528    5.2514    0.6184 C   0  0  0  0  0  0  0  0  0  0  0  0
    0.5657   -0.1079   -1.0966 H   0  0  0  0  0  0  0  0  0  0  0  0
    2.0568   -0.0363   -0.1679 H   0  0  0  0  0  0  0  0  0  0  0  0
   -1.5822    3.8023    1.8937 H   0  0  0  0  0  0  0  0  0  0  0  0
   -4.4261   -1.6356   -0.0863 H   0  0  0  0  0  0  0  0  0  0  0  0
    1.2080   -1.1508    1.6833 H   0  0  0  0  0  0  0  0  0  0  0  0
    0.6708   -2.5240   -0.6642 H   0  0  0  0  0  0  0  0  0  0  0  0
   -1.5219   -1.5845   -1.0637 H   0  0  0  0  0  0  0  0  0  0  0  0
   -2.3153   -1.8407    1.8616 H   0  0  0  0  0  0  0  0  0  0  0  0
   -0.1834   -3.2070    1.9756 H   0  0  0  0  0  0  0  0  0  0  0  0
   -1.8164   -3.9082    0.5434 H   0  0  0  0  0  0  0  0  0  0  0  0
    0.6343    1.4667    1.2304 H   0  0  0  0  0  0  0  0  0  0  0  0
   -5.7633    5.4220    1.6818 H   0  0  0  0  0  0  0  0  0  0  0  0
   -5.1737    5.7303    0.0193 H   0  0  0  0  0  0  0  0  0  0  0  0
   -6.9074    5.7266    0.3683 H   0  0  0  0  0  0  0  0  0  0  0  0
  1 21  1  0  0  0  0
  1 22  1  0  0  0  0
  2 23  1  0  0  0  0
  3 24  1  0  0  0  0
  4  1  1  0  0  0  0
  4 25  1  1  0  0  0
  6  4  1  0  0  0  0
  6 15  1  0  0  0  0
  6 26  1  6  0  0  0
  7  6  1  0  0  0  0
  7 16  1  0  0  0  0
  7 27  1  6  0  0  0
  8  5  2  0  0  0  0
  9  5  1  0  0  0  0
 10  7  1  0  0  0  0
 10 28  1  1  0  0  0
 10 14  1  0  0  0  0
 11  2  2  0  0  0  0
 11  8  1  0  0  0  0
 12  2  1  0  0  0  0
 12  9  2  0  0  0  0
 13  3  2  0  0  0  0
 13  5  1  0  0  0  0
 14  3  1  0  0  0  0
 14  8  1  0  0  0  0
 15 29  1  0  0  0  0
 16 30  1  0  0  0  0
 17  1  1  0  0  0  0
 17 31  1  0  0  0  0
 18  4  1  0  0  0  0
 18 10  1  0  0  0  0
 19  9  1  0  0  0  0
 19 20  1  0  0  0  0
 20 32  1  0  0  0  0
 20 33  1  0  0  0  0
 20 34  1  0  0  0  0
M  END
>  <DRUGBANK_ID>
DB02896

>  <SECONDARY_ACCESSION_NUMBERS>
EXPT02248

>  <COMMON_NAME>
Methylthioinosine

>  <CAS_NUMBER>
342-69-8

>  <UNII>
Y5G39SHR0V

>  <SYNONYMS>
6-(Methylthio)purine ribonucleoside; 6-methyl MP riboside; 6-methyl MP-riboside; 6-methyl-9-ribofuranosylpurine-6-thiol; 6-methylmercaptopurine ribonucleoside; 6-methylmercaptopurine riboside; 6-Methylmercaptopurine-riboside; 6-methylthioinosine; 6-methylthiopurine riboside; 6-MMPR; 6-S-methyl-6-thioinosine; Me6MPR; methylmercaptopurine riboside; MMPR

$$$$
