G1L
 OpenBabel10282417163D

 31 31  0  0  0  0  0  0  0  0999 V2000
    1.0546   -0.0125   -0.0394 F   0  0  0  0  0  0  0  0  0  0  0  0
    2.4143    0.0274    0.0402 C   0  0  0  0  0  0  0  0  0  0  0  0
    2.8330    0.7803   -1.0107 F   0  0  0  0  0  0  0  0  0  0  0  0
    2.8371   -1.2435   -0.2098 F   0  0  0  0  0  0  0  0  0  0  0  0
    2.8626    0.5594    1.3732 C   0  0  0  0  0  0  0  0  0  0  0  0
    3.1741   -0.3370    2.3895 C   0  0  0  0  0  0  0  0  0  0  0  0
    3.3419    0.1188    3.6875 C   0  0  0  0  0  0  0  0  0  0  0  0
    2.8292    1.9321    1.6661 C   0  0  0  0  0  0  0  0  0  0  0  0
    3.0804    2.3935    2.9699 C   0  0  0  0  0  0  0  0  0  0  0  0
    3.3441    1.4778    3.9981 C   0  0  0  0  0  0  0  0  0  0  0  0
    3.6452    1.9365    5.3066 N   0  0  0  0  0  0  0  0  0  0  0  0
    4.0446    1.1274    6.3617 C   0  0  0  0  0  0  0  0  0  0  0  0
    4.0846   -0.1103    6.3223 O   0  0  0  0  0  0  0  0  0  0  0  0
    4.4444    1.7827    7.6887 C   0  0  0  0  0  0  0  0  0  0  0  0
    5.8476    1.2627    8.0693 C   0  0  0  0  0  0  0  0  0  0  0  0
    3.4517    1.2480    8.7486 C   0  0  0  0  0  0  0  0  0  0  0  0
    4.4012    3.3109    7.7034 C   0  0  0  0  0  0  0  0  0  0  0  0
    5.5275    4.0698    6.5414 Cl  0  0  0  0  0  0  0  0  0  0  0  0
    3.2522   -1.4066    2.2060 H   0  0  0  0  0  0  0  0  0  0  0  0
    3.4548   -0.6496    4.4391 H   0  0  0  0  0  0  0  0  0  0  0  0
    2.5877    2.6407    0.8741 H   0  0  0  0  0  0  0  0  0  0  0  0
    3.0371    3.4655    3.1532 H   0  0  0  0  0  0  0  0  0  0  0  0
    3.7423    2.9426    5.3946 H   0  0  0  0  0  0  0  0  0  0  0  0
    6.6035    1.5550    7.3335 H   0  0  0  0  0  0  0  0  0  0  0  0
    6.1539    1.6430    9.0495 H   0  0  0  0  0  0  0  0  0  0  0  0
    5.8741    0.1667    8.1227 H   0  0  0  0  0  0  0  0  0  0  0  0
    3.4647    0.1509    8.7991 H   0  0  0  0  0  0  0  0  0  0  0  0
    3.6996    1.6190    9.7486 H   0  0  0  0  0  0  0  0  0  0  0  0
    2.4226    1.5433    8.5158 H   0  0  0  0  0  0  0  0  0  0  0  0
    3.3991    3.6773    7.4588 H   0  0  0  0  0  0  0  0  0  0  0  0
    4.6683    3.6971    8.6912 H   0  0  0  0  0  0  0  0  0  0  0  0
  1  2  1  0  0  0  0
  2  3  1  0  0  0  0
  2  5  1  0  0  0  0
  2  4  1  0  0  0  0
  5  8  2  0  0  0  0
  5  6  1  0  0  0  0
  6  7  2  0  0  0  0
  6 19  1  0  0  0  0
  7 10  1  0  0  0  0
  7 20  1  0  0  0  0
  8  9  1  0  0  0  0
  8 21  1  0  0  0  0
  9 10  2  0  0  0  0
  9 22  1  0  0  0  0
 10 11  1  0  0  0  0
 11 12  1  0  0  0  0
 11 23  1  0  0  0  0
 12 14  1  0  0  0  0
 12 13  2  0  0  0  0
 14 16  1  0  0  0  0
 14 15  1  0  0  0  0
 14 17  1  0  0  0  0
 15 24  1  0  0  0  0
 15 25  1  0  0  0  0
 15 26  1  0  0  0  0
 16 27  1  0  0  0  0
 16 28  1  0  0  0  0
 16 29  1  0  0  0  0
 17 18  1  0  0  0  0
 17 30  1  0  0  0  0
 17 31  1  0  0  0  0
M  END
>  <DRUGBANK_ID>
DB07805

>  <COMMON_NAME>
3-CHLORO-2,2-DIMETHYL-N-[4-(TRIFLUOROMETHYL)PHENYL]PROPANAMIDE

>  <UNII>
UHV4C5JZ3C

$$$$
