
 OpenBabel10282417183D

 46 49  0  0  0  0  0  0  0  0999 V2000
    1.0081   -0.1155    0.0992 C   0  0  0  0  0  0  0  0  0  0  0  0
   -3.9683   -1.7672    0.5916 C   0  0  0  0  0  0  0  0  0  0  0  0
    4.0382   -3.9371   -1.7345 C   0  0  0  0  0  0  0  0  0  0  0  0
   -3.8181   -2.9207    1.3013 N   0  0  0  0  0  0  0  0  0  0  0  0
    5.1952   -3.7227   -2.3105 N   0  0  0  0  0  0  0  0  0  0  0  0
   -3.2594   -0.5230    0.9111 C   0  0  0  0  0  0  0  0  0  0  0  0
    2.8184   -3.2755   -2.2136 C   0  0  0  0  0  0  0  0  0  0  0  0
    0.2313    0.6344    0.9428 N   0  0  0  0  0  0  0  0  0  0  0  0
    0.3636   -0.8544   -0.8733 N   0  0  0  0  0  0  0  0  0  0  0  0
   -4.7448   -1.8383   -0.4606 N   0  0  0  0  0  0  0  0  0  0  0  0
    4.0599   -4.7597   -0.6453 N   0  0  0  0  0  0  0  0  0  0  0  0
    2.2358   -0.0153    0.2149 O   0  0  0  0  0  0  0  0  0  0  0  0
    2.1329   -2.4477   -1.3303 C   0  0  0  0  0  0  0  0  0  0  0  0
   -1.8735   -0.5568    0.9764 C   0  0  0  0  0  0  0  0  0  0  0  0
    1.0359   -1.7096   -1.7700 C   0  0  0  0  0  0  0  0  0  0  0  0
   -1.1612    0.6378    1.0531 C   0  0  0  0  0  0  0  0  0  0  0  0
    6.1501   -4.5582   -1.5211 C   0  0  0  0  0  0  0  0  0  0  0  0
   -4.4385   -4.0047    0.5946 C   0  0  0  0  0  0  0  0  0  0  0  0
   -3.9436    0.6902    0.9687 C   0  0  0  0  0  0  0  0  0  0  0  0
    2.4223   -3.3809   -3.5448 C   0  0  0  0  0  0  0  0  0  0  0  0
    5.4192   -4.9610   -0.2335 C   0  0  0  0  0  0  0  0  0  0  0  0
   -5.3009   -3.2231   -0.4052 C   0  0  0  0  0  0  0  0  0  0  0  0
   -3.2270    1.8830    1.0890 C   0  0  0  0  0  0  0  0  0  0  0  0
    1.3333   -2.6309   -3.9952 C   0  0  0  0  0  0  0  0  0  0  0  0
    0.6112   -1.8269   -3.1003 C   0  0  0  0  0  0  0  0  0  0  0  0
   -1.8324    1.8573    1.1761 C   0  0  0  0  0  0  0  0  0  0  0  0
   -3.3655   -3.0119    2.1989 H   0  0  0  0  0  0  0  0  0  0  0  0
    0.7632    1.3393    1.4391 H   0  0  0  0  0  0  0  0  0  0  0  0
   -0.5723   -0.5659   -1.1294 H   0  0  0  0  0  0  0  0  0  0  0  0
    3.2555   -5.0381   -0.1041 H   0  0  0  0  0  0  0  0  0  0  0  0
    2.4743   -2.3661   -0.3037 H   0  0  0  0  0  0  0  0  0  0  0  0
   -1.3528   -1.5084    0.9194 H   0  0  0  0  0  0  0  0  0  0  0  0
    7.0728   -4.0097   -1.3086 H   0  0  0  0  0  0  0  0  0  0  0  0
    6.3949   -5.4408   -2.1211 H   0  0  0  0  0  0  0  0  0  0  0  0
   -5.0351   -4.6588    1.2351 H   0  0  0  0  0  0  0  0  0  0  0  0
   -3.6775   -4.5966    0.0746 H   0  0  0  0  0  0  0  0  0  0  0  0
   -5.0282    0.7024    0.9052 H   0  0  0  0  0  0  0  0  0  0  0  0
    2.9667   -4.0325   -4.2228 H   0  0  0  0  0  0  0  0  0  0  0  0
    5.6304   -5.9914    0.0617 H   0  0  0  0  0  0  0  0  0  0  0  0
    5.6758   -4.2848    0.5901 H   0  0  0  0  0  0  0  0  0  0  0  0
   -5.3020   -3.6909   -1.3944 H   0  0  0  0  0  0  0  0  0  0  0  0
   -6.3345   -3.1469   -0.0516 H   0  0  0  0  0  0  0  0  0  0  0  0
   -3.7548    2.8337    1.0622 H   0  0  0  0  0  0  0  0  0  0  0  0
    1.0720   -2.6493   -5.0514 H   0  0  0  0  0  0  0  0  0  0  0  0
   -0.2324   -1.2539   -3.4795 H   0  0  0  0  0  0  0  0  0  0  0  0
   -1.2885    2.7972    1.2473 H   0  0  0  0  0  0  0  0  0  0  0  0
  4  2  1  0  0  0  0
  4 27  1  0  0  0  0
  5  3  2  0  0  0  0
  6  2  1  0  0  0  0
  7  3  1  0  0  0  0
  8  1  1  0  0  0  0
  8 28  1  0  0  0  0
  9  1  1  0  0  0  0
  9 29  1  0  0  0  0
 10  2  2  0  0  0  0
 11  3  1  0  0  0  0
 11 30  1  0  0  0  0
 12  1  2  0  0  0  0
 13  7  2  0  0  0  0
 13 31  1  0  0  0  0
 14  6  2  0  0  0  0
 14 32  1  0  0  0  0
 15  9  1  0  0  0  0
 15 13  1  0  0  0  0
 16  8  1  0  0  0  0
 16 14  1  0  0  0  0
 17  5  1  0  0  0  0
 17 33  1  0  0  0  0
 17 34  1  0  0  0  0
 18  4  1  0  0  0  0
 18 35  1  0  0  0  0
 18 36  1  0  0  0  0
 19  6  1  0  0  0  0
 19 37  1  0  0  0  0
 20  7  1  0  0  0  0
 20 38  1  0  0  0  0
 21 11  1  0  0  0  0
 21 17  1  0  0  0  0
 21 39  1  0  0  0  0
 21 40  1  0  0  0  0
 22 10  1  0  0  0  0
 22 18  1  0  0  0  0
 22 41  1  0  0  0  0
 22 42  1  0  0  0  0
 23 19  2  0  0  0  0
 23 43  1  0  0  0  0
 24 20  2  0  0  0  0
 24 44  1  0  0  0  0
 25 15  2  0  0  0  0
 25 24  1  0  0  0  0
 25 45  1  0  0  0  0
 26 16  2  0  0  0  0
 26 23  1  0  0  0  0
 26 46  1  0  0  0  0
M  END
>  <DRUGBANK_ID>
DB11521

>  <COMMON_NAME>
Imidocarb

>  <CAS_NUMBER>
27885-92-3

>  <UNII>
8USS3K0VDH

>  <SYNONYMS>
1,3-Bis(3-(2-imidazolin-2-yl)phenyl)harnstoff; 1,3-bis(3-(2-imidazolin-2-yl)phenyl)urea; Imidocarb; Imidocarbe; Imidocarbo; Imidocarbum; N,N'-bis(3-(4,5-dihydro-1H-imidazol-2-yl)phenyl)urea

$$$$
