1151
 OpenBabel10282417113D

 42 44  0  0  0  0  0  0  0  0999 V2000
    0.0358   -0.8835   -0.9895 N   0  0  0  0  0  0  0  0  0  0  0  0
   -2.9179   -1.7741   -3.1741 N   0  0  0  0  0  0  0  0  0  0  0  0
    0.5050    1.9904   -0.0026 C   0  0  0  0  0  0  0  0  0  0  0  0
   -0.7614    1.8604   -0.8635 C   0  0  0  0  0  0  0  0  0  0  0  0
    1.2814   -0.4491   -0.5066 C   0  0  0  0  0  0  0  0  0  0  0  0
   -1.1525   -0.5360   -0.3291 C   0  0  0  0  0  0  0  0  0  0  0  0
    0.0016   -1.3390   -2.4027 C   0  0  0  0  0  0  0  0  0  0  0  0
    1.4922    0.8301    0.0509 C   0  0  0  0  0  0  0  0  0  0  0  0
   -1.6362    0.7705   -0.3086 C   0  0  0  0  0  0  0  0  0  0  0  0
   -0.6507   -2.7182   -2.5911 C   0  0  0  0  0  0  0  0  0  0  0  0
    2.2957   -1.4226   -0.4132 C   0  0  0  0  0  0  0  0  0  0  0  0
   -1.8079   -1.5075    0.4354 C   0  0  0  0  0  0  0  0  0  0  0  0
    2.6935    1.0623    0.7457 C   0  0  0  0  0  0  0  0  0  0  0  0
   -2.8527    1.0547    0.3408 C   0  0  0  0  0  0  0  0  0  0  0  0
   -2.1684   -2.7648   -2.3989 C   0  0  0  0  0  0  0  0  0  0  0  0
    3.4769   -1.1693    0.2694 C   0  0  0  0  0  0  0  0  0  0  0  0
   -3.0645   -1.2568    0.9882 C   0  0  0  0  0  0  0  0  0  0  0  0
    3.6703    0.0709    0.8616 C   0  0  0  0  0  0  0  0  0  0  0  0
   -3.5835    0.0261    0.9399 C   0  0  0  0  0  0  0  0  0  0  0  0
   -4.2594   -1.6305   -2.6055 C   0  0  0  0  0  0  0  0  0  0  0  0
   -2.4761   -0.8608   -3.0573 H   0  0  0  0  0  0  0  0  0  0  0  0
    0.2011    2.2118    1.0302 H   0  0  0  0  0  0  0  0  0  0  0  0
    1.0517    2.8689   -0.3707 H   0  0  0  0  0  0  0  0  0  0  0  0
   -0.5129    1.6546   -1.9119 H   0  0  0  0  0  0  0  0  0  0  0  0
   -1.3036    2.8142   -0.8604 H   0  0  0  0  0  0  0  0  0  0  0  0
   -0.4604   -0.5861   -3.0526 H   0  0  0  0  0  0  0  0  0  0  0  0
    1.0260   -1.4294   -2.7968 H   0  0  0  0  0  0  0  0  0  0  0  0
   -0.4246   -3.0883   -3.5996 H   0  0  0  0  0  0  0  0  0  0  0  0
   -0.1816   -3.4259   -1.8937 H   0  0  0  0  0  0  0  0  0  0  0  0
    2.1168   -2.4203   -0.8079 H   0  0  0  0  0  0  0  0  0  0  0  0
   -1.3821   -2.5048    0.5011 H   0  0  0  0  0  0  0  0  0  0  0  0
    2.8607    2.0228    1.2288 H   0  0  0  0  0  0  0  0  0  0  0  0
   -3.2282    2.0707    0.3917 H   0  0  0  0  0  0  0  0  0  0  0  0
   -2.5387   -3.7782   -2.5838 H   0  0  0  0  0  0  0  0  0  0  0  0
   -2.3949   -2.6197   -1.3594 H   0  0  0  0  0  0  0  0  0  0  0  0
    4.2189   -1.9553    0.3711 H   0  0  0  0  0  0  0  0  0  0  0  0
   -3.6333   -2.0795    1.4110 H   0  0  0  0  0  0  0  0  0  0  0  0
    4.5759    0.2652    1.4270 H   0  0  0  0  0  0  0  0  0  0  0  0
   -4.5551    0.2304    1.3866 H   0  0  0  0  0  0  0  0  0  0  0  0
   -4.2192   -1.1941   -1.6036 H   0  0  0  0  0  0  0  0  0  0  0  0
   -4.8491   -0.9517   -3.2255 H   0  0  0  0  0  0  0  0  0  0  0  0
   -4.7749   -2.5926   -2.5459 H   0  0  0  0  0  0  0  0  0  0  0  0
  1  5  1  0  0  0  0
  1  6  1  0  0  0  0
  1  7  1  0  0  0  0
  2 15  1  0  0  0  0
  2 20  1  0  0  0  0
  2 21  1  0  0  0  0
  3  4  1  0  0  0  0
  3  8  1  0  0  0  0
  3 22  1  0  0  0  0
  3 23  1  0  0  0  0
  4  9  1  0  0  0  0
  4 24  1  0  0  0  0
  4 25  1  0  0  0  0
  5  8  1  0  0  0  0
  5 11  2  0  0  0  0
  6  9  1  0  0  0  0
  6 12  2  0  0  0  0
  7 10  1  0  0  0  0
  7 26  1  0  0  0  0
  7 27  1  0  0  0  0
  8 13  2  0  0  0  0
  9 14  2  0  0  0  0
 10 15  1  0  0  0  0
 10 28  1  0  0  0  0
 10 29  1  0  0  0  0
 11 16  1  0  0  0  0
 11 30  1  0  0  0  0
 12 17  1  0  0  0  0
 12 31  1  0  0  0  0
 13 18  1  0  0  0  0
 13 32  1  0  0  0  0
 14 19  1  0  0  0  0
 14 33  1  0  0  0  0
 15 34  1  0  0  0  0
 15 35  1  0  0  0  0
 16 18  2  0  0  0  0
 16 36  1  0  0  0  0
 17 19  2  0  0  0  0
 17 37  1  0  0  0  0
 18 38  1  0  0  0  0
 19 39  1  0  0  0  0
 20 40  1  0  0  0  0
 20 41  1  0  0  0  0
 20 42  1  0  0  0  0
M  END
>  <DRUGBANK_ID>
DB01151

>  <SECONDARY_ACCESSION_NUMBERS>
APRD00022; DB07682

>  <COMMON_NAME>
Desipramine

>  <CAS_NUMBER>
50-47-5

>  <UNII>
TG537D343B

>  <SYNONYMS>
5-(gamma-methylaminopropyl)iminodibenzyl; 5-(γ-methylaminopropyl)iminodibenzyl; Déméthylimipramine; Desipramin; Desipramina; Desipramine; Désipramine; Desipraminum; Desmethylimipramine; DMI; Monodemethylimipramine; N-(3-methylaminopropyl)iminobibenzyl; Norimipramine

$$$$
