
 OpenBabel10282417153D

 31 31  0  0  1  0  0  0  0  0999 V2000
    0.8057   -2.0841   -4.7583 C   0  0  0  0  0  0  0  0  0  0  0  0
    2.1777   -1.7246   -5.3141 C   0  0  0  0  0  0  0  0  0  0  0  0
    2.8063   -0.7043   -4.5089 O   0  0  0  0  0  0  0  0  0  0  0  0
    2.1882    0.4984   -4.5886 C   0  0  0  0  0  0  0  0  0  0  0  0
    1.1994    0.7256   -5.2947 O   0  0  0  0  0  0  0  0  0  0  0  0
    2.8354    1.6145   -3.7585 C   0  0  2  0  0  0  0  0  0  0  0  0
    2.3452    1.5799   -2.2818 C   0  0  0  0  0  0  0  0  0  0  0  0
    2.6241    2.8274   -1.4396 C   0  0  0  0  0  0  0  0  0  0  0  0
    3.0089    2.7167   -0.0956 C   0  0  0  0  0  0  0  0  0  0  0  0
    3.2598    3.8665    0.6734 C   0  0  0  0  0  0  0  0  0  0  0  0
    3.1312    5.1294    0.1085 C   0  0  0  0  0  0  0  0  0  0  0  0
    2.7361    5.2629   -1.2057 C   0  0  0  0  0  0  0  0  0  0  0  0
    2.4485    4.1302   -1.9469 C   0  0  0  0  0  0  0  0  0  0  0  0
    2.6267    6.5097   -1.7575 O   0  0  0  0  0  0  0  0  0  0  0  0
    3.3766    6.2425    0.8566 O   0  0  0  0  0  0  0  0  0  0  0  0
    2.4225    2.8678   -4.4492 N   0  0  0  0  0  0  0  0  0  0  0  0
    0.8962   -2.4003   -3.7156 H   0  0  0  0  0  0  0  0  0  0  0  0
    0.3340   -2.8742   -5.3460 H   0  0  0  0  0  0  0  0  0  0  0  0
    0.1218   -1.2302   -4.7584 H   0  0  0  0  0  0  0  0  0  0  0  0
    2.8209   -2.6113   -5.2916 H   0  0  0  0  0  0  0  0  0  0  0  0
    2.1197   -1.4032   -6.3633 H   0  0  0  0  0  0  0  0  0  0  0  0
    3.9281    1.5486   -3.8017 H   0  0  0  0  0  0  0  0  0  0  0  0
    1.2661    1.3763   -2.2411 H   0  0  0  0  0  0  0  0  0  0  0  0
    2.8193    0.7119   -1.7965 H   0  0  0  0  0  0  0  0  0  0  0  0
    3.1143    1.7410    0.3743 H   0  0  0  0  0  0  0  0  0  0  0  0
    3.5573    3.7778    1.7127 H   0  0  0  0  0  0  0  0  0  0  0  0
    2.0780    4.3113   -2.9418 H   0  0  0  0  0  0  0  0  0  0  0  0
    2.4087    6.3969   -2.7021 H   0  0  0  0  0  0  0  0  0  0  0  0
    3.2000    6.9876    0.2468 H   0  0  0  0  0  0  0  0  0  0  0  0
    2.7011    2.8398   -5.4264 H   0  0  0  0  0  0  0  0  0  0  0  0
    1.3944    2.8443   -4.4704 H   0  0  0  0  0  0  0  0  0  0  0  0
  1  2  1  0  0  0  0
  1 17  1  0  0  0  0
  1 18  1  0  0  0  0
  1 19  1  0  0  0  0
  2  3  1  0  0  0  0
  2 20  1  0  0  0  0
  2 21  1  0  0  0  0
  3  4  1  0  0  0  0
  4  5  2  0  0  0  0
  6 16  1  0  0  0  0
  6 22  1  6  0  0  0
  6  7  1  0  0  0  0
  6  4  1  0  0  0  0
  7  8  1  0  0  0  0
  7 23  1  0  0  0  0
  7 24  1  0  0  0  0
  8  9  2  0  0  0  0
  8 13  1  0  0  0  0
  9 10  1  0  0  0  0
  9 25  1  0  0  0  0
 10 11  2  0  0  0  0
 10 26  1  0  0  0  0
 11 12  1  0  0  0  0
 11 15  1  0  0  0  0
 12 13  2  0  0  0  0
 12 14  1  0  0  0  0
 13 27  1  0  0  0  0
 14 28  1  0  0  0  0
 15 29  1  0  0  0  0
 16 30  1  0  0  0  0
 16 31  1  0  0  0  0
M  END
>  <DRUGBANK_ID>
DB06535

>  <COMMON_NAME>
Etilevodopa

>  <CAS_NUMBER>
37178-37-3

>  <UNII>
895X917GYE

>  <SYNONYMS>
Etilevodopa

$$$$
