
 OpenBabel10282417203D

 58 63  0  0  0  0  0  0  0  0999 V2000
    3.5027   -1.0741   -0.4864 C   0  0  0  0  0  0  0  0  0  0  0  0
   -3.4579   -1.0859   -0.5364 C   0  0  0  0  0  0  0  0  0  0  0  0
    3.6068    0.2867   -0.7576 C   0  0  0  0  0  0  0  0  0  0  0  0
   -3.5952    0.2835   -0.7359 C   0  0  0  0  0  0  0  0  0  0  0  0
    2.3267   -1.5753    0.0513 C   0  0  0  0  0  0  0  0  0  0  0  0
   -2.2471   -1.5987   -0.0707 C   0  0  0  0  0  0  0  0  0  0  0  0
    2.5415    1.1484   -0.4860 C   0  0  0  0  0  0  0  0  0  0  0  0
   -2.5279    1.1395   -0.4627 C   0  0  0  0  0  0  0  0  0  0  0  0
   -3.8122   -7.1690    3.2331 C   0  0  0  0  0  0  0  0  0  0  0  0
   -4.1305   -7.3401    1.8709 C   0  0  0  0  0  0  0  0  0  0  0  0
   -2.5330   -4.0644    4.7407 C   0  0  0  0  0  0  0  0  0  0  0  0
   -0.2845   -4.8731    4.4996 C   0  0  0  0  0  0  0  0  0  0  0  0
   -2.7527   -4.0152    3.2175 C   0  0  0  0  0  0  0  0  0  0  0  0
   -0.4331   -4.6843    2.9798 C   0  0  0  0  0  0  0  0  0  0  0  0
   -1.4696   -7.5012    2.7466 C   0  0  0  0  0  0  0  0  0  0  0  0
   -2.1207   -6.5052    5.0426 C   0  0  0  0  0  0  0  0  0  0  0  0
   -1.1662   -2.4050    2.6212 C   0  0  0  0  0  0  0  0  0  0  0  0
   -1.8030   -7.3004   -0.7699 C   0  0  0  0  0  0  0  0  0  0  0  0
   -2.4659   -7.1299    3.6742 C   0  0  0  0  0  0  0  0  0  0  0  0
    1.2410   -0.7196    0.2981 C   0  0  0  0  0  0  0  0  0  0  0  0
   -1.1782   -0.7427    0.2571 C   0  0  0  0  0  0  0  0  0  0  0  0
   -3.0947   -7.4082    0.9645 C   0  0  0  0  0  0  0  0  0  0  0  0
   -1.7968   -7.4687    1.3932 C   0  0  0  0  0  0  0  0  0  0  0  0
    1.3513    0.6488    0.0345 C   0  0  0  0  0  0  0  0  0  0  0  0
   -1.3217    0.6339    0.0309 C   0  0  0  0  0  0  0  0  0  0  0  0
    0.1129   -2.0939    1.9057 C   0  0  0  0  0  0  0  0  0  0  0  0
   -1.5858   -5.1127    5.1575 N   0  0  0  0  0  0  0  0  0  0  0  0
   -1.5023   -3.8061    2.4694 N   0  0  0  0  0  0  0  0  0  0  0  0
    0.0364   -1.2750    0.7934 N   0  0  0  0  0  0  0  0  0  0  0  0
    1.1868   -2.4946    2.4135 O   0  0  0  0  0  0  0  0  0  0  0  0
   -3.1960   -7.3726   -0.3920 O   0  0  0  0  0  0  0  0  0  0  0  0
   -0.9093   -7.3142    0.3642 O   0  0  0  0  0  0  0  0  0  0  0  0
    0.0079    1.7632    0.3851 S   0  0  0  0  0  0  0  0  0  0  0  0
    4.3255   -1.7507   -0.6968 H   0  0  0  0  0  0  0  0  0  0  0  0
   -4.2873   -1.7577   -0.7450 H   0  0  0  0  0  0  0  0  0  0  0  0
    4.5229    0.6810   -1.1845 H   0  0  0  0  0  0  0  0  0  0  0  0
   -4.5291    0.6868   -1.1180 H   0  0  0  0  0  0  0  0  0  0  0  0
    2.2486   -2.6437    0.2489 H   0  0  0  0  0  0  0  0  0  0  0  0
   -2.1549   -2.6782    0.0455 H   0  0  0  0  0  0  0  0  0  0  0  0
    2.6391    2.2092   -0.6938 H   0  0  0  0  0  0  0  0  0  0  0  0
   -2.6380    2.2053   -0.6441 H   0  0  0  0  0  0  0  0  0  0  0  0
   -4.6151   -6.9337    3.9292 H   0  0  0  0  0  0  0  0  0  0  0  0
   -5.1585   -7.3104    1.5307 H   0  0  0  0  0  0  0  0  0  0  0  0
   -3.4872   -4.1504    5.2654 H   0  0  0  0  0  0  0  0  0  0  0  0
   -2.1342   -3.0940    5.0748 H   0  0  0  0  0  0  0  0  0  0  0  0
    0.1935   -3.9720    4.9152 H   0  0  0  0  0  0  0  0  0  0  0  0
    0.4047   -5.6945    4.7350 H   0  0  0  0  0  0  0  0  0  0  0  0
   -3.2245   -4.9173    2.8600 H   0  0  0  0  0  0  0  0  0  0  0  0
   -3.4918   -3.2515    2.9521 H   0  0  0  0  0  0  0  0  0  0  0  0
   -0.7946   -5.5921    2.6030 H   0  0  0  0  0  0  0  0  0  0  0  0
    0.5280   -4.6890    2.4502 H   0  0  0  0  0  0  0  0  0  0  0  0
   -0.4159   -7.4952    3.0228 H   0  0  0  0  0  0  0  0  0  0  0  0
   -1.4313   -7.1765    5.5642 H   0  0  0  0  0  0  0  0  0  0  0  0
   -3.0358   -6.5087    5.6496 H   0  0  0  0  0  0  0  0  0  0  0  0
   -1.0461   -2.0880    3.6556 H   0  0  0  0  0  0  0  0  0  0  0  0
   -2.0119   -1.8294    2.2545 H   0  0  0  0  0  0  0  0  0  0  0  0
   -1.5477   -8.1655   -1.3922 H   0  0  0  0  0  0  0  0  0  0  0  0
   -1.6538   -6.3938   -1.3752 H   0  0  0  0  0  0  0  0  0  0  0  0
  1 34  1  0  0  0  0
  2 35  1  0  0  0  0
  3  1  2  0  0  0  0
  3 36  1  0  0  0  0
  4  2  2  0  0  0  0
  4 37  1  0  0  0  0
  5  1  1  0  0  0  0
  5 38  1  0  0  0  0
  6  2  1  0  0  0  0
  6 39  1  0  0  0  0
  7  3  1  0  0  0  0
  7 40  1  0  0  0  0
  8  4  1  0  0  0  0
  8 41  1  0  0  0  0
  9 42  1  0  0  0  0
 10  9  2  0  0  0  0
 10 43  1  0  0  0  0
 11 44  1  0  0  0  0
 11 45  1  0  0  0  0
 12 46  1  0  0  0  0
 12 47  1  0  0  0  0
 13 11  1  0  0  0  0
 13 48  1  0  0  0  0
 13 49  1  0  0  0  0
 14 12  1  0  0  0  0
 14 50  1  0  0  0  0
 14 51  1  0  0  0  0
 15 52  1  0  0  0  0
 16 53  1  0  0  0  0
 16 54  1  0  0  0  0
 17 55  1  0  0  0  0
 17 56  1  0  0  0  0
 18 57  1  0  0  0  0
 18 58  1  0  0  0  0
 19  9  1  0  0  0  0
 19 15  2  0  0  0  0
 19 16  1  0  0  0  0
 20  5  2  0  0  0  0
 21  6  2  0  0  0  0
 22 10  1  0  0  0  0
 23 15  1  0  0  0  0
 23 22  2  0  0  0  0
 24  7  2  0  0  0  0
 24 20  1  0  0  0  0
 25  8  2  0  0  0  0
 25 21  1  0  0  0  0
 26 17  1  0  0  0  0
 27 11  1  0  0  0  0
 27 12  1  0  0  0  0
 27 16  1  0  0  0  0
 28 13  1  0  0  0  0
 28 14  1  0  0  0  0
 28 17  1  0  0  0  0
 29 20  1  0  0  0  0
 29 21  1  0  0  0  0
 29 26  1  0  0  0  0
 30 26  2  0  0  0  0
 31 18  1  0  0  0  0
 31 22  1  0  0  0  0
 32 18  1  0  0  0  0
 32 23  1  0  0  0  0
 33 24  1  0  0  0  0
 33 25  1  0  0  0  0
M  END
>  <DRUGBANK_ID>
DB13042

>  <COMMON_NAME>
Fenoverine

>  <CAS_NUMBER>
37561-27-6

>  <UNII>
N274ZQ6PZJ

>  <SYNONYMS>
Fenoverine

$$$$
