
 OpenBabel10282417243D

 64 68  0  0  0  0  0  0  0  0999 V2000
    1.5782    0.2535   -0.2132 C   0  0  0  0  0  0  0  0  0  0  0  0
    0.9343    1.5511    0.0083 N   0  0  0  0  0  0  0  0  0  0  0  0
   -0.1600    2.0945   -0.6409 C   0  0  0  0  0  0  0  0  0  0  0  0
   -0.6376    3.1576   -0.2502 O   0  0  0  0  0  0  0  0  0  0  0  0
   -0.7783    1.4281   -1.8137 C   0  0  0  0  0  0  0  0  0  0  0  0
   -0.9680    2.2570   -2.9138 C   0  0  0  0  0  0  0  0  0  0  0  0
   -1.2908    1.8165   -4.2199 C   0  0  0  0  0  0  0  0  0  0  0  0
   -1.2857    2.6176   -5.3997 C   0  0  0  0  0  0  0  0  0  0  0  0
   -0.8850    3.9350   -5.5336 O   0  0  0  0  0  0  0  0  0  0  0  0
   -0.2283    4.5732   -4.5219 C   0  0  0  0  0  0  0  0  0  0  0  0
    0.9814    4.1497   -3.9407 C   0  0  0  0  0  0  0  0  0  0  0  0
    1.5099    4.7826   -2.7860 C   0  0  0  0  0  0  0  0  0  0  0  0
    0.8855    5.9068   -2.2692 C   0  0  0  0  0  0  0  0  0  0  0  0
    1.4576    6.6547   -1.2096 N   0  0  0  0  0  0  0  0  0  0  0  0
    1.0967    7.8968   -0.6708 C   0  0  0  0  0  0  0  0  0  0  0  0
    1.7336    8.4225    0.2132 O   0  0  0  0  0  0  0  0  0  0  0  0
   -0.2068    8.5258   -1.1232 C   0  0  0  0  0  0  0  0  0  0  0  0
   -0.1944    9.0347   -2.6103 C   0  0  0  0  0  0  0  0  0  0  0  0
   -0.2207   10.0164   -1.5082 C   0  0  0  0  0  0  0  0  0  0  0  0
   -1.3233    7.8320   -0.3143 C   0  0  0  0  0  0  0  0  0  0  0  0
   -0.9902    7.0588    0.5926 O   0  0  0  0  0  0  0  0  0  0  0  0
   -2.6820    7.9190   -0.4611 N   0  0  0  0  0  0  0  0  0  0  0  0
   -3.4147    8.6860   -1.3349 C   0  0  0  0  0  0  0  0  0  0  0  0
   -3.1897    8.5875   -2.6954 C   0  0  0  0  0  0  0  0  0  0  0  0
   -3.7269    9.5048   -3.5735 C   0  0  0  0  0  0  0  0  0  0  0  0
   -4.6765   10.3792   -3.0897 C   0  0  0  0  0  0  0  0  0  0  0  0
   -5.2322   11.2575   -3.9292 F   0  0  0  0  0  0  0  0  0  0  0  0
   -5.0792   10.3376   -1.7545 C   0  0  0  0  0  0  0  0  0  0  0  0
   -4.4129    9.5138   -0.8512 C   0  0  0  0  0  0  0  0  0  0  0  0
   -0.3283    6.2318   -2.8607 C   0  0  0  0  0  0  0  0  0  0  0  0
   -0.8917    5.6344   -3.9721 C   0  0  0  0  0  0  0  0  0  0  0  0
   -1.7159    2.0787   -6.6109 C   0  0  0  0  0  0  0  0  0  0  0  0
   -2.0812    0.7529   -6.6277 C   0  0  0  0  0  0  0  0  0  0  0  0
   -2.0289   -0.0525   -5.5408 N   0  0  0  0  0  0  0  0  0  0  0  0
   -1.6395    0.4668   -4.3552 C   0  0  0  0  0  0  0  0  0  0  0  0
   -1.6111   -0.3361   -3.2006 C   0  0  0  0  0  0  0  0  0  0  0  0
   -1.2171    0.1255   -1.9196 C   0  0  0  0  0  0  0  0  0  0  0  0
   -1.3432   -0.7833   -0.9017 O   0  0  0  0  0  0  0  0  0  0  0  0
   -1.3825   -0.3034    0.4417 C   0  0  0  0  0  0  0  0  0  0  0  0
    1.2589   -0.1886   -1.1550 H   0  0  0  0  0  0  0  0  0  0  0  0
    1.3243   -0.4418    0.5995 H   0  0  0  0  0  0  0  0  0  0  0  0
    2.6587    0.3637   -0.1807 H   0  0  0  0  0  0  0  0  0  0  0  0
    1.0292    1.9671    0.9316 H   0  0  0  0  0  0  0  0  0  0  0  0
   -0.8514    3.3055   -2.6947 H   0  0  0  0  0  0  0  0  0  0  0  0
    1.4275    3.2222   -4.2838 H   0  0  0  0  0  0  0  0  0  0  0  0
    2.3703    4.3475   -2.2858 H   0  0  0  0  0  0  0  0  0  0  0  0
    2.2328    6.2493   -0.6990 H   0  0  0  0  0  0  0  0  0  0  0  0
    0.7074    8.8587   -3.1989 H   0  0  0  0  0  0  0  0  0  0  0  0
   -1.0091    9.0732   -3.3145 H   0  0  0  0  0  0  0  0  0  0  0  0
   -1.1286   10.6055   -1.4391 H   0  0  0  0  0  0  0  0  0  0  0  0
    0.6831   10.6132   -1.4492 H   0  0  0  0  0  0  0  0  0  0  0  0
   -3.1549    7.4780    0.3230 H   0  0  0  0  0  0  0  0  0  0  0  0
   -2.5692    7.8010   -3.0856 H   0  0  0  0  0  0  0  0  0  0  0  0
   -3.4088    9.5172   -4.6094 H   0  0  0  0  0  0  0  0  0  0  0  0
   -5.8980   10.9634   -1.4248 H   0  0  0  0  0  0  0  0  0  0  0  0
   -4.6348    9.5596    0.2119 H   0  0  0  0  0  0  0  0  0  0  0  0
   -0.9652    6.9561   -2.4316 H   0  0  0  0  0  0  0  0  0  0  0  0
   -1.8735    5.9559   -4.3090 H   0  0  0  0  0  0  0  0  0  0  0  0
   -1.7603    2.6795   -7.5151 H   0  0  0  0  0  0  0  0  0  0  0  0
   -2.4344    0.2859   -7.5444 H   0  0  0  0  0  0  0  0  0  0  0  0
   -1.9268   -1.3721   -3.3069 H   0  0  0  0  0  0  0  0  0  0  0  0
   -0.4616    0.1337    0.7576 H   0  0  0  0  0  0  0  0  0  0  0  0
   -2.1321    0.4686    0.6282 H   0  0  0  0  0  0  0  0  0  0  0  0
   -1.4278   -1.1494    1.1278 H   0  0  0  0  0  0  0  0  0  0  0  0
  1  2  1  0  0  0  0
  1 40  1  0  0  0  0
  1 41  1  0  0  0  0
  1 42  1  0  0  0  0
  2  3  1  0  0  0  0
  2 43  1  0  0  0  0
  3  4  2  0  0  0  0
  3  5  1  0  0  0  0
  5  6  2  0  0  0  0
  5 37  1  0  0  0  0
  6  7  1  0  0  0  0
  6 44  1  0  0  0  0
  7  8  2  0  0  0  0
  7 35  1  0  0  0  0
  8  9  1  0  0  0  0
  8 32  1  0  0  0  0
  9 10  1  0  0  0  0
 10 11  2  0  0  0  0
 10 31  1  0  0  0  0
 11 12  1  0  0  0  0
 11 45  1  0  0  0  0
 12 13  2  0  0  0  0
 12 46  1  0  0  0  0
 13 14  1  0  0  0  0
 13 30  1  0  0  0  0
 14 15  1  0  0  0  0
 14 47  1  0  0  0  0
 15 16  2  0  0  0  0
 15 17  1  0  0  0  0
 17 18  1  0  0  0  0
 17 19  1  0  0  0  0
 17 20  1  0  0  0  0
 18 19  1  0  0  0  0
 18 48  1  0  0  0  0
 18 49  1  0  0  0  0
 19 50  1  0  0  0  0
 19 51  1  0  0  0  0
 20 21  2  0  0  0  0
 20 22  1  0  0  0  0
 22 23  1  0  0  0  0
 22 52  1  0  0  0  0
 23 24  2  0  0  0  0
 23 29  1  0  0  0  0
 24 25  1  0  0  0  0
 24 53  1  0  0  0  0
 25 26  2  0  0  0  0
 25 54  1  0  0  0  0
 26 27  1  0  0  0  0
 26 28  1  0  0  0  0
 28 29  2  0  0  0  0
 28 55  1  0  0  0  0
 29 56  1  0  0  0  0
 30 31  2  0  0  0  0
 30 57  1  0  0  0  0
 31 58  1  0  0  0  0
 32 33  2  0  0  0  0
 32 59  1  0  0  0  0
 33 34  1  0  0  0  0
 33 60  1  0  0  0  0
 34 35  2  0  0  0  0
 35 36  1  0  0  0  0
 36 37  2  0  0  0  0
 36 61  1  0  0  0  0
 37 38  1  0  0  0  0
 38 39  1  0  0  0  0
 39 62  1  0  0  0  0
 39 63  1  0  0  0  0
 39 64  1  0  0  0  0
M  END
>  <DRUGBANK_ID>
DB17525

>  <COMMON_NAME>
Zanzalintinib

>  <CAS_NUMBER>
2367004-54-2

>  <UNII>
KC2JC2ZA04

>  <SYNONYMS>
XL092

$$$$
