1265
 OpenBabel10282417113D

 31 32  0  0  1  0  0  0  0  0999 V2000
   -1.3573   -0.4573    0.2075 O   0  0  0  0  0  0  0  0  0  0  0  0
    1.6902   -0.0911    0.6741 O   0  0  0  0  0  0  0  0  0  0  0  0
    0.3248   -2.1753   -2.5968 O   0  0  0  0  0  0  0  0  0  0  0  0
   -3.4197    0.7645    1.9217 O   0  0  0  0  0  0  0  0  0  0  0  0
   -5.7401    3.5227   -0.7763 O   0  0  0  0  0  0  0  0  0  0  0  0
   -2.2703    1.7475    0.1507 N   0  0  0  0  0  0  0  0  0  0  0  0
   -4.4656    2.3420    0.6967 N   0  0  0  0  0  0  0  0  0  0  0  0
    0.8798   -0.0680   -0.4957 C   0  0  2  0  0  0  0  0  0  0  0  0
   -1.0679    0.9466    0.3905 C   0  0  2  0  0  0  0  0  0  0  0  0
    0.1141    1.2215   -0.5373 C   0  0  0  0  0  0  0  0  0  0  0  0
   -0.2439   -1.1024   -0.4558 C   0  0  2  0  0  0  0  0  0  0  0  0
   -0.7096   -1.5465   -1.8506 C   0  0  0  0  0  0  0  0  0  0  0  0
   -2.3155    2.6770   -0.8694 C   0  0  0  0  0  0  0  0  0  0  0  0
   -3.3731    1.5549    0.9839 C   0  0  0  0  0  0  0  0  0  0  0  0
   -3.4459    3.2615   -1.2710 C   0  0  0  0  0  0  0  0  0  0  0  0
   -4.6509    3.0561   -0.4501 C   0  0  0  0  0  0  0  0  0  0  0  0
   -3.5471    4.0613   -2.5240 C   0  0  0  0  0  0  0  0  0  0  0  0
    1.1162   -0.1395    1.4587 H   0  0  0  0  0  0  0  0  0  0  0  0
    1.0427   -1.5398   -2.7518 H   0  0  0  0  0  0  0  0  0  0  0  0
   -5.2760    2.2091    1.2812 H   0  0  0  0  0  0  0  0  0  0  0  0
    1.5503   -0.1663   -1.3522 H   0  0  0  0  0  0  0  0  0  0  0  0
   -0.7796    1.0799    1.4414 H   0  0  0  0  0  0  0  0  0  0  0  0
    0.6803    2.1032   -0.2285 H   0  0  0  0  0  0  0  0  0  0  0  0
   -0.2127    1.3490   -1.5757 H   0  0  0  0  0  0  0  0  0  0  0  0
    0.0600   -1.9806    0.1253 H   0  0  0  0  0  0  0  0  0  0  0  0
   -1.5297   -2.2666   -1.7515 H   0  0  0  0  0  0  0  0  0  0  0  0
   -1.1117   -0.7072   -2.4291 H   0  0  0  0  0  0  0  0  0  0  0  0
   -1.4034    2.9061   -1.4043 H   0  0  0  0  0  0  0  0  0  0  0  0
   -4.2534    3.5814   -3.2105 H   0  0  0  0  0  0  0  0  0  0  0  0
   -3.8834    5.0793   -2.3180 H   0  0  0  0  0  0  0  0  0  0  0  0
   -2.5841    4.1166   -3.0456 H   0  0  0  0  0  0  0  0  0  0  0  0
  1  9  1  0  0  0  0
  1 11  1  0  0  0  0
  2 18  1  0  0  0  0
  3 12  1  0  0  0  0
  3 19  1  0  0  0  0
  4 14  2  0  0  0  0
  5 16  2  0  0  0  0
  6 13  1  0  0  0  0
  6 14  1  0  0  0  0
  7 14  1  0  0  0  0
  7 16  1  0  0  0  0
  7 20  1  0  0  0  0
  8  2  1  0  0  0  0
  8 10  1  0  0  0  0
  8 11  1  0  0  0  0
  8 21  1  6  0  0  0
  9  6  1  0  0  0  0
  9 10  1  0  0  0  0
  9 22  1  1  0  0  0
 10 23  1  0  0  0  0
 10 24  1  0  0  0  0
 11 12  1  0  0  0  0
 11 25  1  1  0  0  0
 12 26  1  0  0  0  0
 12 27  1  0  0  0  0
 13 15  2  0  0  0  0
 13 28  1  0  0  0  0
 15 16  1  0  0  0  0
 15 17  1  0  0  0  0
 17 29  1  0  0  0  0
 17 30  1  0  0  0  0
 17 31  1  0  0  0  0
M  END
>  <DRUGBANK_ID>
DB01265

>  <COMMON_NAME>
Telbivudine

>  <CAS_NUMBER>
3424-98-4

>  <UNII>
2OC4HKD3SF

>  <SYNONYMS>
1-(2-deoxy-β-L-ribofuranosyl)-5-methyluracil; 2'-Deoxy-L-thymidine; Beta-l-thymidine; Epavudine; L-deoxythymidine; L-DT; L-thymidine; LDT; Telbivudin; Telbivudina; Telbivudine; β-L-2'-deoxythymidine

$$$$
