ZYZ
 OpenBabel10282417173D

 47 47  0  0  0  0  0  0  0  0999 V2000
    6.4225  -11.1125    1.0799 Se  0  0  3  0  0  0  0  0  0  0  0  0
    5.3616  -10.4852   -0.4441 C   0  0  0  0  0  0  0  0  0  0  0  0
    4.2894   -4.8484    2.9121 N   0  0  0  0  0  0  0  0  0  0  0  0
    4.5502   -9.2684   -0.0300 C   0  0  0  0  0  0  0  0  0  0  0  0
    3.2495   -9.3652    0.2193 C   0  0  0  0  0  0  0  0  0  0  0  0
    4.2630   -7.7526    3.3248 O   0  0  0  0  0  0  0  0  0  0  0  0
    2.5853   -8.3546    0.8714 C   0  0  0  0  0  0  0  0  0  0  0  0
    2.8390   -7.2289    5.0952 O   0  0  0  0  0  0  0  0  0  0  0  0
    3.2230   -7.1899    1.1975 C   0  0  0  0  0  0  0  0  0  0  0  0
    5.8705   -3.0835    3.0842 O   0  0  0  0  0  0  0  0  0  0  0  0
    4.5287   -7.1604    1.0018 C   0  0  0  0  0  0  0  0  0  0  0  0
    3.6547   -2.5057    3.5233 O   0  0  0  0  0  0  0  0  0  0  0  0
    5.2435   -8.0947    0.2156 C   0  0  0  0  0  0  0  0  0  0  0  0
    2.4696   -5.9934    1.7554 C   0  0  0  0  0  0  0  0  0  0  0  0
    3.0759   -5.6548    3.1074 C   0  0  1  0  0  0  0  0  0  0  0  0
    3.4329   -6.9387    3.8384 C   0  0  0  0  0  0  0  0  0  0  0  0
    4.6565   -3.4491    3.1727 C   0  0  0  0  0  0  0  0  0  0  0  0
    1.9116   -6.3195    5.6691 C   0  0  0  0  0  0  0  0  0  0  0  0
    4.0094   -1.1539    3.7750 C   0  0  0  0  0  0  0  0  0  0  0  0
    4.9910   -1.0950    4.9340 C   0  0  0  0  0  0  0  0  0  0  0  0
    4.6549   -0.5599    2.5337 C   0  0  0  0  0  0  0  0  0  0  0  0
    2.7619   -0.3599    4.1267 C   0  0  0  0  0  0  0  0  0  0  0  0
    2.3681   -5.0995    3.6868 H   0  0  0  0  0  0  0  0  0  0  0  0
    5.2864  -11.5719    2.4791 O   0  0  0  0  0  0  0  0  0  0  0  0
    7.3112  -12.4452    0.6264 O   0  0  0  0  0  0  0  0  0  0  0  0
    6.0152  -10.2210   -1.2490 H   0  0  0  0  0  0  0  0  0  0  0  0
    4.7000  -11.2635   -0.7626 H   0  0  0  0  0  0  0  0  0  0  0  0
    5.0090   -5.5261    2.6603 H   0  0  0  0  0  0  0  0  0  0  0  0
    2.7139  -10.2381   -0.0906 H   0  0  0  0  0  0  0  0  0  0  0  0
    1.5541   -8.4808    1.1277 H   0  0  0  0  0  0  0  0  0  0  0  0
    5.0847   -6.3754    1.4704 H   0  0  0  0  0  0  0  0  0  0  0  0
    6.2301   -7.9112   -0.1557 H   0  0  0  0  0  0  0  0  0  0  0  0
    2.5962   -5.1558    1.1017 H   0  0  0  0  0  0  0  0  0  0  0  0
    1.4292   -6.2314    1.8326 H   0  0  0  0  0  0  0  0  0  0  0  0
    2.3871   -5.3730    5.8202 H   0  0  0  0  0  0  0  0  0  0  0  0
    1.0770   -6.1983    5.0106 H   0  0  0  0  0  0  0  0  0  0  0  0
    1.5718   -6.7021    6.6088 H   0  0  0  0  0  0  0  0  0  0  0  0
    5.8692   -1.6540    4.6864 H   0  0  0  0  0  0  0  0  0  0  0  0
    5.2582   -0.0764    5.1237 H   0  0  0  0  0  0  0  0  0  0  0  0
    4.5366   -1.5132    5.8078 H   0  0  0  0  0  0  0  0  0  0  0  0
    3.9639   -0.6014    1.7178 H   0  0  0  0  0  0  0  0  0  0  0  0
    4.9221    0.4587    2.7233 H   0  0  0  0  0  0  0  0  0  0  0  0
    5.5330   -1.1188    2.2861 H   0  0  0  0  0  0  0  0  0  0  0  0
    2.0709   -0.4014    3.3108 H   0  0  0  0  0  0  0  0  0  0  0  0
    2.3075   -0.7781    5.0005 H   0  0  0  0  0  0  0  0  0  0  0  0
    3.0291    0.6587    4.3164 H   0  0  0  0  0  0  0  0  0  0  0  0
    4.7526  -10.7714    2.7516 H   0  0  0  0  0  0  0  0  0  0  0  0
  1 24  1  0  0  0  0
  1 25  2  0  0  0  0
  2  1  1  0  0  0  0
  2 26  1  0  0  0  0
  2 27  1  0  0  0  0
  3 28  1  0  0  0  0
  4  2  1  0  0  0  0
  5  4  1  0  0  0  0
  5 29  1  0  0  0  0
  7  5  2  0  0  0  0
  7 30  1  0  0  0  0
  8 18  1  0  0  0  0
  8 16  1  0  0  0  0
  9  7  1  0  0  0  0
  9 11  2  0  0  0  0
 10 17  2  0  0  0  0
 11 13  1  0  0  0  0
 11 31  1  0  0  0  0
 12 17  1  0  0  0  0
 13  4  2  0  0  0  0
 13 32  1  0  0  0  0
 14  9  1  0  0  0  0
 14 33  1  0  0  0  0
 14 34  1  0  0  0  0
 15 16  1  0  0  0  0
 15 23  1  1  0  0  0
 15 14  1  0  0  0  0
 15  3  1  0  0  0  0
 16  6  2  0  0  0  0
 17  3  1  0  0  0  0
 18 35  1  0  0  0  0
 18 36  1  0  0  0  0
 18 37  1  0  0  0  0
 19 12  1  0  0  0  0
 19 20  1  0  0  0  0
 20 38  1  0  0  0  0
 20 39  1  0  0  0  0
 20 40  1  0  0  0  0
 21 19  1  0  0  0  0
 21 41  1  0  0  0  0
 21 42  1  0  0  0  0
 21 43  1  0  0  0  0
 22 19  1  0  0  0  0
 22 44  1  0  0  0  0
 22 45  1  0  0  0  0
 22 46  1  0  0  0  0
 24 47  1  0  0  0  0
M  END
>  <DRUGBANK_ID>
DB08783

>  <COMMON_NAME>
(4-{(2S)-2-[(tert-butoxycarbonyl)amino]-3-methoxy-3-oxopropyl}phenyl)methaneseleninic acid

$$$$
