
 OpenBabel10282417183D

 40 40  0  0  0  0  0  0  0  0999 V2000
    0.6759   -1.0236   -0.4592 C   0  0  0  0  0  0  0  0  0  0  0  0
    1.0953   -2.4715   -0.1235 C   0  0  0  0  0  0  0  0  0  0  0  0
    1.3147    0.1488   -0.0535 C   0  0  0  0  0  0  0  0  0  0  0  0
   -0.4545   -0.7399   -1.1834 C   0  0  0  0  0  0  0  0  0  0  0  0
    0.2906   -3.5679    0.0562 O   0  0  0  0  0  0  0  0  0  0  0  0
    2.3399   -2.6433    0.0646 O   0  0  0  0  0  0  0  0  0  0  0  0
    0.6726    1.4344   -0.0008 C   0  0  0  0  0  0  0  0  0  0  0  0
    2.6489    0.1240    0.2339 O   0  0  0  0  0  0  0  0  0  0  0  0
   -1.1412    0.5577   -1.1094 C   0  0  0  0  0  0  0  0  0  0  0  0
   -1.1664   -3.8237    0.1568 C   0  0  0  0  0  0  0  0  0  0  0  0
   -0.6377    1.6101   -0.3790 C   0  0  0  0  0  0  0  0  0  0  0  0
   -1.8170   -3.2868    1.4645 C   0  0  3  0  0  0  0  0  0  0  0  0
   -1.5975   -1.8150    1.6041 C   0  0  0  0  0  0  0  0  0  0  0  0
   -3.3331   -3.3718    1.4764 C   0  0  0  0  0  0  0  0  0  0  0  0
   -2.3698   -1.1036    0.4997 C   0  0  0  0  0  0  0  0  0  0  0  0
   -3.9405   -4.7104    1.4335 C   0  0  0  0  0  0  0  0  0  0  0  0
   -3.8013   -0.7393    0.1926 C   0  0  0  0  0  0  0  0  0  0  0  0
   -4.1866    0.0360    1.3899 C   0  0  0  0  0  0  0  0  0  0  0  0
   -0.9231   -1.6590   -1.5119 H   0  0  0  0  0  0  0  0  0  0  0  0
    1.2030    2.3199    0.3224 H   0  0  0  0  0  0  0  0  0  0  0  0
    2.9469   -0.7926    0.0494 H   0  0  0  0  0  0  0  0  0  0  0  0
   -2.2232    0.6645   -1.2493 H   0  0  0  0  0  0  0  0  0  0  0  0
   -1.6372   -3.5098   -0.7785 H   0  0  0  0  0  0  0  0  0  0  0  0
   -1.3223   -4.9157    0.1476 H   0  0  0  0  0  0  0  0  0  0  0  0
   -1.2649    2.4692   -0.1030 H   0  0  0  0  0  0  0  0  0  0  0  0
   -1.3707   -3.7766    2.3342 H   0  0  0  0  0  0  0  0  0  0  0  0
   -1.8581   -1.3724    2.5658 H   0  0  0  0  0  0  0  0  0  0  0  0
   -0.5152   -1.6432    1.5798 H   0  0  0  0  0  0  0  0  0  0  0  0
   -3.7649   -2.7364    2.2666 H   0  0  0  0  0  0  0  0  0  0  0  0
   -3.6774   -3.0115    0.5220 H   0  0  0  0  0  0  0  0  0  0  0  0
   -1.9042   -0.1557    0.7059 H   0  0  0  0  0  0  0  0  0  0  0  0
   -2.2525   -1.6275   -0.4337 H   0  0  0  0  0  0  0  0  0  0  0  0
   -3.6293   -5.2623    2.3102 H   0  0  0  0  0  0  0  0  0  0  0  0
   -5.0241   -4.5636    1.3895 H   0  0  0  0  0  0  0  0  0  0  0  0
   -3.6235   -5.1840    0.5024 H   0  0  0  0  0  0  0  0  0  0  0  0
   -3.8839   -0.1361   -0.7264 H   0  0  0  0  0  0  0  0  0  0  0  0
   -4.4236   -1.5791   -0.1238 H   0  0  0  0  0  0  0  0  0  0  0  0
   -3.6749    1.0044    1.3401 H   0  0  0  0  0  0  0  0  0  0  0  0
   -5.2579    0.1354    1.4252 H   0  0  0  0  0  0  0  0  0  0  0  0
   -3.8169   -0.4688    2.2851 H   0  0  0  0  0  0  0  0  0  0  0  0
  1  2  1  0  0  0  0
  1  3  2  0  0  0  0
  1  4  1  0  0  0  0
  2  5  1  0  0  0  0
  2  6  2  0  0  0  0
  3  7  1  0  0  0  0
  3  8  1  0  0  0  0
  4  9  2  0  0  0  0
  4 19  1  0  0  0  0
  5 10  1  0  0  0  0
  7 11  2  0  0  0  0
  7 20  1  0  0  0  0
  8 21  1  0  0  0  0
  9 11  1  0  0  0  0
  9 22  1  0  0  0  0
 10 12  1  0  0  0  0
 10 23  1  0  0  0  0
 10 24  1  0  0  0  0
 11 25  1  0  0  0  0
 12 13  1  0  0  0  0
 12 14  1  0  0  0  0
 12 26  1  0  0  0  0
 13 15  1  0  0  0  0
 13 27  1  0  0  0  0
 13 28  1  0  0  0  0
 14 16  1  0  0  0  0
 14 29  1  0  0  0  0
 14 30  1  0  0  0  0
 15 17  1  0  0  0  0
 15 31  1  0  0  0  0
 15 32  1  0  0  0  0
 16 33  1  0  0  0  0
 16 34  1  0  0  0  0
 16 35  1  0  0  0  0
 17 18  1  0  0  0  0
 17 36  1  0  0  0  0
 17 37  1  0  0  0  0
 18 38  1  0  0  0  0
 18 39  1  0  0  0  0
 18 40  1  0  0  0  0
M  END
>  <DRUGBANK_ID>
DB11062

>  <COMMON_NAME>
Octisalate

>  <CAS_NUMBER>
118-60-5

>  <UNII>
4X49Y0596W

>  <SYNONYMS>
2-Ethylhexyl 2-hydroxybenzoate; 2-Ethylhexyl salicylate; Octisalate; Octyl salicylate

$$$$
