
 OpenBabel10282417243D

116121  0  0  1  0  0  0  0  0999 V2000
    5.2436   -0.2006   -1.9121 H   0  0  0  0  0  0  0  0  0  0  0  0
    6.0565    0.5120   -1.8272 C   0  0  2  0  0  0  0  0  0  0  0  0
    5.5010    1.7222   -1.2180 O   0  0  0  0  0  0  0  0  0  0  0  0
    4.4590    2.3261   -2.0183 C   0  0  2  0  0  0  0  0  0  0  0  0
    4.0657    3.7763   -1.8146 C   0  0  1  0  0  0  0  0  0  0  0  0
    5.2831    4.6713   -1.7993 C   0  0  0  0  0  0  0  0  0  0  0  0
    4.8696    5.9706   -1.3969 O   0  0  0  0  0  0  0  0  0  0  0  0
    4.2303    5.9380   -0.1227 C   0  0  2  0  0  0  0  0  0  0  0  0
    2.8261    5.6235   -0.2216 O   0  0  0  0  0  0  0  0  0  0  0  0
    2.2326    5.4518    1.0733 C   0  0  2  0  0  0  0  0  0  0  0  0
    0.7775    4.9657    0.9570 C   0  0  0  0  0  0  0  0  0  0  0  0
    0.7447    3.6250    0.4763 O   0  0  0  0  0  0  0  0  0  0  0  0
    2.2886    6.7974    1.7859 C   0  0  1  0  0  0  0  0  0  0  0  0
    1.7216    6.6870    3.0880 O   0  0  0  0  0  0  0  0  0  0  0  0
    3.7366    7.3148    1.8524 C   0  0  2  0  0  0  0  0  0  0  0  0
    3.7560    8.6349    2.3941 O   0  0  0  0  0  0  0  0  0  0  0  0
    4.4146    7.3125    0.4839 C   0  0  1  0  0  0  0  0  0  0  0  0
    5.8059    7.6429    0.6117 O   0  0  0  0  0  0  0  0  0  0  0  0
    3.2065    4.3273   -2.8808 O   0  0  0  0  0  0  0  0  0  0  0  0
    1.8575    3.8688   -2.8745 C   0  0  1  0  0  0  0  0  0  0  0  0
    1.0011    4.1087   -4.0948 O   0  0  0  0  0  0  0  0  0  0  0  0
    1.4585    4.1561   -5.4014 C   0  0  0  0  0  0  0  0  0  0  0  0
    1.6489    5.4680   -5.8859 C   0  0  0  0  0  0  0  0  0  0  0  0
    2.0277    5.7077   -7.2155 C   0  0  0  0  0  0  0  0  0  0  0  0
    2.2104    7.1303   -7.7182 C   0  0  0  0  0  0  0  0  0  0  0  0
    3.6501    7.4820   -8.1372 C   0  0  0  0  0  0  0  0  0  0  0  0
    4.1952    6.6727   -9.3218 C   0  0  0  0  0  0  0  0  0  0  0  0
    3.2832    6.7190  -10.5554 C   0  0  0  0  0  0  0  0  0  0  0  0
    3.2592    8.1094  -11.1584 C   0  0  0  0  0  0  0  0  0  0  0  0
    2.2217    4.5957   -8.0588 C   0  0  0  0  0  0  0  0  0  0  0  0
    2.0658    3.2811   -7.6291 C   0  0  0  0  0  0  0  0  0  0  0  0
    2.4467    2.3114   -8.5693 O   0  0  0  0  0  0  0  0  0  0  0  0
    2.9361    1.0692   -8.0042 C   0  0  0  0  0  0  0  0  0  0  0  0
    4.4227    1.3508   -7.6034 C   0  0  0  0  0  0  0  0  0  0  0  0
    3.1894   -0.0819   -9.0016 C   0  0  0  0  0  0  0  0  0  0  0  0
    1.7086    0.5505   -7.1457 C   0  0  2  0  0  0  0  0  0  0  0  0
    0.8461    0.4727   -7.8202 H   0  0  0  0  0  0  0  0  0  0  0  0
    1.9563   -0.8883   -6.4958 C   0  0  0  0  0  0  0  0  0  0  0  0
    3.2447   -0.7920   -5.6000 C   0  0  0  0  0  0  0  0  0  0  0  0
    3.1263    0.6230   -5.0295 C   0  0  0  0  0  0  0  0  0  0  0  0
    3.9558    1.9077   -5.1267 C   0  0  0  0  0  0  0  0  0  0  0  0
    1.9023    0.9133   -4.8906 C   0  0  0  0  0  0  0  0  0  0  0  0
    1.2366    1.5741   -6.0343 C   0  0  1  0  0  0  0  0  0  0  0  0
    0.1549    1.5225   -5.8715 H   0  0  0  0  0  0  0  0  0  0  0  0
    1.5669    3.0364   -6.3270 C   0  0  0  0  0  0  0  0  0  0  0  0
    1.8917    2.3748   -2.6239 C   0  0  2  0  0  0  0  0  0  0  0  0
    0.5926    1.8152   -2.4451 O   0  0  0  0  0  0  0  0  0  0  0  0
    3.0739    1.6053   -1.9155 C   0  0  1  0  0  0  0  0  0  0  0  0
    3.1491    0.2275   -2.3335 O   0  0  0  0  0  0  0  0  0  0  0  0
    6.9848   -0.1080   -0.9329 O   0  0  0  0  0  0  0  0  0  0  0  0
    7.3017   -1.4459   -1.3941 C   0  0  2  0  0  0  0  0  0  0  0  0
    8.1483   -2.0818   -0.3142 C   0  0  0  0  0  0  0  0  0  0  0  0
    7.3944   -2.1047    0.8945 O   0  0  0  0  0  0  0  0  0  0  0  0
    8.0622   -1.4402   -2.7279 C   0  0  1  0  0  0  0  0  0  0  0  0
    8.3727   -2.7563   -3.1717 O   0  0  0  0  0  0  0  0  0  0  0  0
    7.2109   -0.7285   -3.7438 C   0  0  2  0  0  0  0  0  0  0  0  0
    7.8650   -0.5824   -5.0148 O   0  0  0  0  0  0  0  0  0  0  0  0
    6.8268    0.6420   -3.1851 C   0  0  1  0  0  0  0  0  0  0  0  0
    6.1283    1.2129   -4.2408 O   0  0  0  0  0  0  0  0  0  0  0  0
    5.0136    2.4329   -2.9247 H   0  0  0  0  0  0  0  0  0  0  0  0
    3.5397    3.7637   -0.8620 H   0  0  0  0  0  0  0  0  0  0  0  0
    6.0671    4.3046   -1.1291 H   0  0  0  0  0  0  0  0  0  0  0  0
    5.7118    4.7573   -2.8053 H   0  0  0  0  0  0  0  0  0  0  0  0
    4.7338    5.1819    0.4994 H   0  0  0  0  0  0  0  0  0  0  0  0
    2.7908    4.6723    1.6116 H   0  0  0  0  0  0  0  0  0  0  0  0
    0.2857    4.9436    1.9331 H   0  0  0  0  0  0  0  0  0  0  0  0
    0.1936    5.5973    0.2791 H   0  0  0  0  0  0  0  0  0  0  0  0
    1.1530    3.6453   -0.3979 H   0  0  0  0  0  0  0  0  0  0  0  0
    1.6868    7.5230    1.2249 H   0  0  0  0  0  0  0  0  0  0  0  0
    2.3012    6.1299    3.6358 H   0  0  0  0  0  0  0  0  0  0  0  0
    4.3180    6.6920    2.5441 H   0  0  0  0  0  0  0  0  0  0  0  0
    3.3787    9.2291    1.7205 H   0  0  0  0  0  0  0  0  0  0  0  0
    3.9718    8.0651   -0.1789 H   0  0  0  0  0  0  0  0  0  0  0  0
    6.2658    6.9038    1.0435 H   0  0  0  0  0  0  0  0  0  0  0  0
    1.2884    4.3691   -2.0924 H   0  0  0  0  0  0  0  0  0  0  0  0
    1.4626    6.3175   -5.2270 H   0  0  0  0  0  0  0  0  0  0  0  0
    1.5045    7.3182   -8.5372 H   0  0  0  0  0  0  0  0  0  0  0  0
    1.9119    7.8467   -6.9399 H   0  0  0  0  0  0  0  0  0  0  0  0
    3.6922    8.5485   -8.3951 H   0  0  0  0  0  0  0  0  0  0  0  0
    4.3230    7.3602   -7.2800 H   0  0  0  0  0  0  0  0  0  0  0  0
    5.1921    7.0391   -9.5910 H   0  0  0  0  0  0  0  0  0  0  0  0
    4.3710    5.6386   -9.0080 H   0  0  0  0  0  0  0  0  0  0  0  0
    3.6318    5.9911  -11.2959 H   0  0  0  0  0  0  0  0  0  0  0  0
    2.2526    6.4301  -10.3226 H   0  0  0  0  0  0  0  0  0  0  0  0
    4.2692    8.4068  -11.4516 H   0  0  0  0  0  0  0  0  0  0  0  0
    2.6114    8.1342  -12.0375 H   0  0  0  0  0  0  0  0  0  0  0  0
    2.8751    8.8445  -10.4447 H   0  0  0  0  0  0  0  0  0  0  0  0
    2.5141    4.7164   -9.0931 H   0  0  0  0  0  0  0  0  0  0  0  0
    4.8749    0.6218   -6.9223 H   0  0  0  0  0  0  0  0  0  0  0  0
    5.1321    1.3313   -8.4369 H   0  0  0  0  0  0  0  0  0  0  0  0
    4.5609    2.3841   -7.2779 H   0  0  0  0  0  0  0  0  0  0  0  0
    2.2958   -0.3305   -9.5660 H   0  0  0  0  0  0  0  0  0  0  0  0
    4.0017    0.1315   -9.7002 H   0  0  0  0  0  0  0  0  0  0  0  0
    3.5226   -0.9812   -8.4565 H   0  0  0  0  0  0  0  0  0  0  0  0
    1.0848   -1.1452   -5.8632 H   0  0  0  0  0  0  0  0  0  0  0  0
    1.9732   -1.7132   -7.2108 H   0  0  0  0  0  0  0  0  0  0  0  0
    3.1925   -1.5343   -4.7901 H   0  0  0  0  0  0  0  0  0  0  0  0
    4.1302   -1.0430   -6.1773 H   0  0  0  0  0  0  0  0  0  0  0  0
    4.9419    2.0895   -5.5139 H   0  0  0  0  0  0  0  0  0  0  0  0
    3.4565    2.8167   -5.4092 H   0  0  0  0  0  0  0  0  0  0  0  0
    4.0237    2.1582   -4.1179 H   0  0  0  0  0  0  0  0  0  0  0  0
    1.2154    0.1666   -4.3729 H   0  0  0  0  0  0  0  0  0  0  0  0
    2.1538    2.2585   -3.6216 H   0  0  0  0  0  0  0  0  0  0  0  0
    0.6883    0.8572   -2.3024 H   0  0  0  0  0  0  0  0  0  0  0  0
    2.8012    1.4975   -0.8683 H   0  0  0  0  0  0  0  0  0  0  0  0
    3.7994    0.1771   -3.0563 H   0  0  0  0  0  0  0  0  0  0  0  0
    6.3606   -2.0097   -1.4868 H   0  0  0  0  0  0  0  0  0  0  0  0
    8.4285   -3.1028   -0.5814 H   0  0  0  0  0  0  0  0  0  0  0  0
    9.0460   -1.4810   -0.1439 H   0  0  0  0  0  0  0  0  0  0  0  0
    7.0829   -1.1864    1.0227 H   0  0  0  0  0  0  0  0  0  0  0  0
    9.0014   -0.8842   -2.6391 H   0  0  0  0  0  0  0  0  0  0  0  0
    7.5597   -3.1974   -3.4761 H   0  0  0  0  0  0  0  0  0  0  0  0
    6.3103   -1.3154   -3.9841 H   0  0  0  0  0  0  0  0  0  0  0  0
    8.5196    0.1380   -4.9476 H   0  0  0  0  0  0  0  0  0  0  0  0
    7.7048    1.2790   -3.0534 H   0  0  0  0  0  0  0  0  0  0  0  0
    5.8484    0.5107   -4.8652 H   0  0  0  0  0  0  0  0  0  0  0  0
  2  1  1  6  0  0  0
  2  3  1  0  0  0  0
  2 50  1  0  0  0  0
  4  3  1  0  0  0  0
  4  5  1  0  0  0  0
  4 48  1  0  0  0  0
  4 60  1  6  0  0  0
  5  6  1  0  0  0  0
  5 19  1  0  0  0  0
  5 61  1  1  0  0  0
  6  7  1  0  0  0  0
  6 62  1  0  0  0  0
  6 63  1  0  0  0  0
  8  9  1  0  0  0  0
  8 64  1  1  0  0  0
  8  7  1  0  0  0  0
 10  9  1  0  0  0  0
 10 11  1  0  0  0  0
 10 65  1  1  0  0  0
 11 12  1  0  0  0  0
 11 66  1  0  0  0  0
 11 67  1  0  0  0  0
 12 68  1  0  0  0  0
 13 10  1  0  0  0  0
 13 14  1  0  0  0  0
 13 15  1  0  0  0  0
 13 69  1  6  0  0  0
 14 70  1  0  0  0  0
 15 16  1  0  0  0  0
 15 17  1  0  0  0  0
 15 71  1  1  0  0  0
 16 72  1  0  0  0  0
 17  8  1  0  0  0  0
 17 18  1  0  0  0  0
 17 73  1  6  0  0  0
 18 74  1  0  0  0  0
 20 19  1  0  0  0  0
 20 21  1  0  0  0  0
 20 75  1  1  0  0  0
 21 22  1  0  0  0  0
 22 23  2  0  0  0  0
 22 45  1  0  0  0  0
 23 24  1  0  0  0  0
 23 76  1  0  0  0  0
 24 25  1  0  0  0  0
 24 30  2  0  0  0  0
 25 26  1  0  0  0  0
 25 77  1  0  0  0  0
 25 78  1  0  0  0  0
 26 27  1  0  0  0  0
 26 79  1  0  0  0  0
 26 80  1  0  0  0  0
 27 28  1  0  0  0  0
 27 81  1  0  0  0  0
 27 82  1  0  0  0  0
 28 29  1  0  0  0  0
 28 83  1  0  0  0  0
 28 84  1  0  0  0  0
 29 85  1  0  0  0  0
 29 86  1  0  0  0  0
 29 87  1  0  0  0  0
 30 31  1  0  0  0  0
 30 88  1  0  0  0  0
 31 32  1  0  0  0  0
 31 45  2  0  0  0  0
 32 33  1  0  0  0  0
 33 34  1  0  0  0  0
 33 35  1  0  0  0  0
 34 89  1  0  0  0  0
 34 90  1  0  0  0  0
 34 91  1  0  0  0  0
 35 92  1  0  0  0  0
 35 93  1  0  0  0  0
 35 94  1  0  0  0  0
 36 33  1  0  0  0  0
 36 37  1  1  0  0  0
 36 38  1  0  0  0  0
 36 43  1  0  0  0  0
 38 39  1  0  0  0  0
 38 95  1  0  0  0  0
 38 96  1  0  0  0  0
 39 40  1  0  0  0  0
 39 97  1  0  0  0  0
 39 98  1  0  0  0  0
 40 41  1  0  0  0  0
 40 42  2  0  0  0  0
 41 99  1  0  0  0  0
 41100  1  0  0  0  0
 41101  1  0  0  0  0
 42102  1  0  0  0  0
 43 42  1  0  0  0  0
 43 44  1  1  0  0  0
 43 45  1  0  0  0  0
 46 20  1  0  0  0  0
 46 47  1  0  0  0  0
 46103  1  6  0  0  0
 47104  1  0  0  0  0
 48 46  1  0  0  0  0
 48 49  1  0  0  0  0
 48105  1  1  0  0  0
 49106  1  0  0  0  0
 51 50  1  0  0  0  0
 51 52  1  0  0  0  0
 51107  1  6  0  0  0
 52 53  1  0  0  0  0
 52108  1  0  0  0  0
 52109  1  0  0  0  0
 53110  1  0  0  0  0
 54 51  1  0  0  0  0
 54 55  1  0  0  0  0
 54 56  1  0  0  0  0
 54111  1  1  0  0  0
 55112  1  0  0  0  0
 56 57  1  0  0  0  0
 56 58  1  0  0  0  0
 56113  1  6  0  0  0
 57114  1  0  0  0  0
 58  2  1  0  0  0  0
 58 59  1  0  0  0  0
 58115  1  1  0  0  0
 59116  1  0  0  0  0
M  END
>  <DRUGBANK_ID>
DB18540

>  <COMMON_NAME>
VB-311

>  <CAS_NUMBER>
2699021-77-5

>  <UNII>
2D48C7R49E

$$$$
