
 OpenBabel10282417143D

 22 22  0  0  0  0  0  0  0  0999 V2000
    1.0144   -0.0792   -0.0376 C   0  0  0  0  0  0  0  0  0  0  0  0
    0.5597   -1.4499    0.4021 C   0  0  0  0  0  0  0  0  0  0  0  0
    0.9325   -2.4665   -0.1788 O   0  0  0  0  0  0  0  0  0  0  0  0
   -0.2771   -1.4632    1.4866 N   0  0  0  0  0  0  0  0  0  0  0  0
   -0.7710   -2.6849    2.1228 C   0  0  0  0  0  0  0  0  0  0  0  0
   -0.2867   -2.8641    3.5716 C   0  0  0  0  0  0  0  0  0  0  0  0
   -0.6770   -1.7321    4.4663 C   0  0  0  0  0  0  0  0  0  0  0  0
   -0.9216    0.2379    5.3813 N   0  0  0  0  0  0  0  0  0  0  0  0
   -1.4283   -1.9076    5.6069 N   0  0  0  0  0  0  0  0  0  0  0  0
   -0.3298   -0.4040    4.3381 C   0  0  0  0  0  0  0  0  0  0  0  0
   -1.5341   -0.7119    6.1459 C   0  0  0  0  0  0  0  0  0  0  0  0
    0.6489    0.7179    0.6167 H   0  0  0  0  0  0  0  0  0  0  0  0
    0.6563    0.1101   -1.0532 H   0  0  0  0  0  0  0  0  0  0  0  0
    2.1085   -0.0513   -0.0291 H   0  0  0  0  0  0  0  0  0  0  0  0
   -0.6417   -0.5869    1.8335 H   0  0  0  0  0  0  0  0  0  0  0  0
   -1.8647   -2.6337    2.0941 H   0  0  0  0  0  0  0  0  0  0  0  0
   -0.4577   -3.5512    1.5314 H   0  0  0  0  0  0  0  0  0  0  0  0
   -0.6789   -3.8104    3.9677 H   0  0  0  0  0  0  0  0  0  0  0  0
    0.8070   -2.9464    3.5856 H   0  0  0  0  0  0  0  0  0  0  0  0
   -0.8769    1.2290    5.5715 H   0  0  0  0  0  0  0  0  0  0  0  0
    0.2713    0.1156    3.6088 H   0  0  0  0  0  0  0  0  0  0  0  0
   -2.0285   -0.4655    7.0761 H   0  0  0  0  0  0  0  0  0  0  0  0
  1 12  1  0  0  0  0
  1 13  1  0  0  0  0
  1 14  1  0  0  0  0
  2  1  1  0  0  0  0
  2  3  2  0  0  0  0
  4  2  1  0  0  0  0
  4  5  1  0  0  0  0
  4 15  1  0  0  0  0
  5  6  1  0  0  0  0
  5 16  1  0  0  0  0
  5 17  1  0  0  0  0
  6  7  1  0  0  0  0
  6 18  1  0  0  0  0
  6 19  1  0  0  0  0
  7 10  2  0  0  0  0
  8 20  1  0  0  0  0
  9  7  1  0  0  0  0
 10  8  1  0  0  0  0
 10 21  1  0  0  0  0
 11  9  2  0  0  0  0
 11  8  1  0  0  0  0
 11 22  1  0  0  0  0
M  END
>  <DRUGBANK_ID>
DB04622

>  <COMMON_NAME>
N-acetylhistamine

>  <CAS_NUMBER>
673-49-4

>  <UNII>
E65S46EBQ6

>  <SYNONYMS>
4-(2-acetamidoethyl)imidazole; 4-(2-acetylaminoethyl)imidazole; 4-(beta-Acetylaminoethyl)imidazole; Î±-N-acetylhistamine

$$$$
