
 OpenBabel10282417183D

 31 31  0  0  0  0  0  0  0  0999 V2000
    0.9218   -0.1854   -0.1456 C   0  0  0  0  0  0  0  0  0  0  0  0
    0.5991    0.8525    0.9181 C   0  0  0  0  0  0  0  0  0  0  0  0
    1.1110    2.2116    0.3239 C   0  0  0  0  0  0  0  0  0  0  0  0
   -0.8285    0.8313    1.4828 N   0  0  0  0  0  0  0  0  0  0  0  0
   -1.1540    2.2828    2.2423 P   0  0  3  0  0  0  0  0  0  0  0  0
    0.5070    2.5293    3.3585 S   0  0  0  0  0  0  0  0  0  0  0  0
   -1.9228    2.9078    0.9334 O   0  0  0  0  0  0  0  0  0  0  0  0
   -2.5606    2.2568   -0.1754 C   0  0  0  0  0  0  0  0  0  0  0  0
   -2.1946    3.0866    3.2423 O   0  0  0  0  0  0  0  0  0  0  0  0
   -1.7048    4.4401    3.5834 C   0  0  0  0  0  0  0  0  0  0  0  0
   -1.4879    4.7156    4.9497 C   0  0  0  0  0  0  0  0  0  0  0  0
   -0.6216    5.7644    5.3705 C   0  0  0  0  0  0  0  0  0  0  0  0
    0.0714    6.5326    4.4181 C   0  0  0  0  0  0  0  0  0  0  0  0
   -0.1211    6.2880    3.0892 C   0  0  0  0  0  0  0  0  0  0  0  0
   -1.0311    5.3099    2.6470 C   0  0  0  0  0  0  0  0  0  0  0  0
   -1.1461    5.3297    0.9263 Cl  0  0  0  0  0  0  0  0  0  0  0  0
    1.1467    7.7886    4.9023 Cl  0  0  0  0  0  0  0  0  0  0  0  0
    0.5256    0.1001   -1.1246 H   0  0  0  0  0  0  0  0  0  0  0  0
    0.5637   -1.1766    0.1277 H   0  0  0  0  0  0  0  0  0  0  0  0
    2.0169   -0.2399   -0.2414 H   0  0  0  0  0  0  0  0  0  0  0  0
    1.2307    0.5647    1.7649 H   0  0  0  0  0  0  0  0  0  0  0  0
    0.7221    2.4063   -0.6772 H   0  0  0  0  0  0  0  0  0  0  0  0
    0.8704    3.1110    0.8924 H   0  0  0  0  0  0  0  0  0  0  0  0
    2.2075    2.2031    0.2892 H   0  0  0  0  0  0  0  0  0  0  0  0
   -1.3805    0.6400    0.6616 H   0  0  0  0  0  0  0  0  0  0  0  0
   -1.7956    2.2102   -0.9532 H   0  0  0  0  0  0  0  0  0  0  0  0
   -2.9645    1.2490    0.0063 H   0  0  0  0  0  0  0  0  0  0  0  0
   -3.4027    2.8287   -0.5934 H   0  0  0  0  0  0  0  0  0  0  0  0
   -1.8741    4.0565    5.7320 H   0  0  0  0  0  0  0  0  0  0  0  0
   -0.4269    5.9494    6.4179 H   0  0  0  0  0  0  0  0  0  0  0  0
    0.4677    6.8460    2.3464 H   0  0  0  0  0  0  0  0  0  0  0  0
  1  2  1  0  0  0  0
  1 18  1  0  0  0  0
  1 19  1  0  0  0  0
  1 20  1  0  0  0  0
  2  3  1  0  0  0  0
  2  4  1  0  0  0  0
  2 21  1  0  0  0  0
  3 22  1  0  0  0  0
  3 23  1  0  0  0  0
  3 24  1  0  0  0  0
  4  5  1  0  0  0  0
  4 25  1  0  0  0  0
  5  6  2  0  0  0  0
  5  7  1  0  0  0  0
  5  9  1  0  0  0  0
  7  8  1  0  0  0  0
  8 26  1  0  0  0  0
  8 27  1  0  0  0  0
  8 28  1  0  0  0  0
  9 10  1  0  0  0  0
 10 11  2  0  0  0  0
 10 15  1  0  0  0  0
 11 12  1  0  0  0  0
 11 29  1  0  0  0  0
 12 13  2  0  0  0  0
 12 30  1  0  0  0  0
 13 14  1  0  0  0  0
 13 17  1  0  0  0  0
 14 15  2  0  0  0  0
 14 31  1  0  0  0  0
 15 16  1  0  0  0  0
M  END
>  <DRUGBANK_ID>
DB11768

>  <COMMON_NAME>
Zytron

>  <CAS_NUMBER>
299-85-4

>  <UNII>
IK51552IFH

>  <SYNONYMS>
DMPA; O-(2,4-dichlorophenyl)-O-methyl-isopropylphosphoramidothioate

$$$$
