A3M
 OpenBabel10282417123D

 30 30  0  0  0  0  0  0  0  0999 V2000
   -6.6232    2.1331   -1.5864 C   0  0  0  0  0  0  0  0  0  0  0  0
   -5.4435    3.0913   -1.6136 C   0  0  0  0  0  0  0  0  0  0  0  0
   -4.4686    2.4084   -0.7851 N   0  0  0  0  0  0  0  0  0  0  0  0
   -4.5972    0.9829   -1.0703 C   0  0  0  0  0  0  0  0  0  0  0  0
   -5.9711    0.7658   -1.6719 C   0  0  0  0  0  0  0  0  0  0  0  0
   -3.5858    3.1451    0.0008 C   0  0  0  0  0  0  0  0  0  0  0  0
   -2.5418    2.4793    0.9710 C   0  0  2  0  0  0  0  0  0  0  0  0
   -2.2853    0.9855    0.7798 C   0  0  0  0  0  0  0  0  0  0  0  0
   -0.9185    0.5344    1.2685 C   0  0  0  0  0  0  0  0  0  0  0  0
   -3.6401    4.3755   -0.0032 O   0  0  0  0  0  0  0  0  0  0  0  0
   -2.8744    2.7648    2.3902 N   0  0  0  0  0  0  0  0  0  0  0  0
   -3.3328    0.1315    1.5194 C   0  0  0  0  0  0  0  0  0  0  0  0
   -1.6017    3.0146    0.7664 H   0  0  0  0  0  0  0  0  0  0  0  0
   -7.1423    2.2261   -0.6226 H   0  0  0  0  0  0  0  0  0  0  0  0
   -7.3448    2.2877   -2.3882 H   0  0  0  0  0  0  0  0  0  0  0  0
   -5.0217    3.1498   -2.6247 H   0  0  0  0  0  0  0  0  0  0  0  0
   -5.6901    4.0956   -1.2654 H   0  0  0  0  0  0  0  0  0  0  0  0
   -4.6218    0.3590   -0.2060 H   0  0  0  0  0  0  0  0  0  0  0  0
   -3.7904    0.6515   -1.7293 H   0  0  0  0  0  0  0  0  0  0  0  0
   -6.5317    0.0231   -1.0879 H   0  0  0  0  0  0  0  0  0  0  0  0
   -5.8758    0.3851   -2.6907 H   0  0  0  0  0  0  0  0  0  0  0  0
   -2.2736    0.7957   -0.2986 H   0  0  0  0  0  0  0  0  0  0  0  0
   -0.8567    0.6023    2.3571 H   0  0  0  0  0  0  0  0  0  0  0  0
   -0.7656   -0.5109    0.9764 H   0  0  0  0  0  0  0  0  0  0  0  0
   -0.1173    1.1318    0.8265 H   0  0  0  0  0  0  0  0  0  0  0  0
   -2.9530    3.7731    2.5216 H   0  0  0  0  0  0  0  0  0  0  0  0
   -3.7989    2.3891    2.5959 H   0  0  0  0  0  0  0  0  0  0  0  0
   -4.3252    0.6006    1.5391 H   0  0  0  0  0  0  0  0  0  0  0  0
   -3.4050   -0.8551    1.0495 H   0  0  0  0  0  0  0  0  0  0  0  0
   -3.0959   -0.0000    2.5745 H   0  0  0  0  0  0  0  0  0  0  0  0
  1  2  1  0  0  0  0
  1  5  1  0  0  0  0
  1 14  1  0  0  0  0
  1 15  1  0  0  0  0
  2  3  1  0  0  0  0
  2 16  1  0  0  0  0
  2 17  1  0  0  0  0
  3  4  1  0  0  0  0
  3  6  1  0  0  0  0
  4  5  1  0  0  0  0
  4 18  1  0  0  0  0
  4 19  1  0  0  0  0
  5 20  1  0  0  0  0
  5 21  1  0  0  0  0
  6 10  2  0  0  0  0
  7 11  1  0  0  0  0
  7 13  1  6  0  0  0
  7  8  1  0  0  0  0
  7  6  1  0  0  0  0
  8  9  1  0  0  0  0
  8 12  1  0  0  0  0
  8 22  1  0  0  0  0
  9 23  1  0  0  0  0
  9 24  1  0  0  0  0
  9 25  1  0  0  0  0
 11 26  1  0  0  0  0
 11 27  1  0  0  0  0
 12 28  1  0  0  0  0
 12 29  1  0  0  0  0
 12 30  1  0  0  0  0
M  END
>  <DRUGBANK_ID>
DB01884

>  <SECONDARY_ACCESSION_NUMBERS>
EXPT00369

>  <COMMON_NAME>
2-Amino-3-Methyl-1-Pyrrolidin-1-Yl-Butan-1-One

$$$$
