
 OpenBabel10282417123D

 57 59  0  0  0  0  0  0  0  0999 V2000
   -1.7902    0.0612   -0.0027 C   0  0  0  0  0  0  0  0  0  0  0  0
   -1.0913   -1.1541    0.0264 C   0  0  0  0  0  0  0  0  0  0  0  0
    0.3072    1.2901    0.0278 C   0  0  0  0  0  0  0  0  0  0  0  0
    1.0143    0.0491    0.0078 C   0  0  0  0  0  0  0  0  0  0  0  0
    2.5209    0.1215   -0.0413 C   0  0  0  0  0  0  0  0  0  0  0  0
   -1.1018    1.2882    0.0085 C   0  0  0  0  0  0  0  0  0  0  0  0
   -2.8770    2.6859   -1.2934 O   0  0  0  0  0  0  0  0  0  0  0  0
   -2.8618    2.7547    1.2316 O   0  0  0  0  0  0  0  0  0  0  0  0
   -2.1540    2.7550   -0.0344 S   0  0  0  0  0  0  0  0  0  0  0  0
   -1.2423    4.2547   -0.0821 C   0  0  0  0  0  0  0  0  0  0  0  0
    0.3166   -1.1868    0.0535 C   0  0  0  0  0  0  0  0  0  0  0  0
    0.2440   -3.5594   -0.0652 O   0  0  0  0  0  0  0  0  0  0  0  0
    0.9553   -2.5593    0.0839 C   0  0  0  0  0  0  0  0  0  0  0  0
    2.3913   -2.7155    0.1159 C   0  0  0  0  0  0  0  0  0  0  0  0
    3.3568   -2.3754    1.0868 C   0  0  0  0  0  0  0  0  0  0  0  0
    3.1325   -3.1863   -0.9466 C   0  0  0  0  0  0  0  0  0  0  0  0
    2.7286   -3.6633   -2.1195 O   0  0  0  0  0  0  0  0  0  0  0  0
    4.6060   -2.4572    0.6217 N   0  0  0  0  0  0  0  0  0  0  0  0
    4.4614   -3.0127   -0.6098 N   0  0  0  0  0  0  0  0  0  0  0  0
    6.5291   -2.1872   -1.7319 C   0  0  0  0  0  0  0  0  0  0  0  0
    6.5005   -4.3737   -0.4993 C   0  0  0  0  0  0  0  0  0  0  0  0
    5.6656   -3.4104   -1.3634 C   0  0  0  0  0  0  0  0  0  0  0  0
    5.3055   -4.1393   -2.6698 C   0  0  0  0  0  0  0  0  0  0  0  0
    1.1119    2.5103    0.0363 C   0  0  0  0  0  0  0  0  0  0  0  0
    2.5440    4.0585   -1.1673 C   0  0  0  0  0  0  0  0  0  0  0  0
    1.8567    2.8570   -1.1056 C   0  0  0  0  0  0  0  0  0  0  0  0
    1.1506    3.3478    1.1520 C   0  0  0  0  0  0  0  0  0  0  0  0
    2.4049    4.9791   -0.1341 C   0  0  0  0  0  0  0  0  0  0  0  0
    1.6779    4.6328    1.0056 C   0  0  0  0  0  0  0  0  0  0  0  0
    2.9069    6.2487   -0.1463 O   0  0  0  0  0  0  0  0  0  0  0  0
    3.8882    6.4948   -1.1472 C   0  0  0  0  0  0  0  0  0  0  0  0
   -2.8815    0.0423   -0.0304 H   0  0  0  0  0  0  0  0  0  0  0  0
   -1.6651   -2.0841    0.0196 H   0  0  0  0  0  0  0  0  0  0  0  0
    2.8907   -0.1726    0.9313 H   0  0  0  0  0  0  0  0  0  0  0  0
    2.8993   -0.4208   -0.9104 H   0  0  0  0  0  0  0  0  0  0  0  0
    2.9915    1.0952   -0.1228 H   0  0  0  0  0  0  0  0  0  0  0  0
   -0.8533    4.4070    0.9207 H   0  0  0  0  0  0  0  0  0  0  0  0
   -0.5017    4.2151   -0.8795 H   0  0  0  0  0  0  0  0  0  0  0  0
   -1.8681    5.1251   -0.2608 H   0  0  0  0  0  0  0  0  0  0  0  0
    3.1986   -1.9273    2.0617 H   0  0  0  0  0  0  0  0  0  0  0  0
    1.7646   -3.8129   -2.0752 H   0  0  0  0  0  0  0  0  0  0  0  0
    6.8994   -1.6593   -0.8461 H   0  0  0  0  0  0  0  0  0  0  0  0
    7.4063   -2.4970   -2.3150 H   0  0  0  0  0  0  0  0  0  0  0  0
    5.9670   -1.4677   -2.3377 H   0  0  0  0  0  0  0  0  0  0  0  0
    5.9021   -5.2389   -0.1919 H   0  0  0  0  0  0  0  0  0  0  0  0
    7.3719   -4.7417   -1.0511 H   0  0  0  0  0  0  0  0  0  0  0  0
    6.8699   -3.8883    0.4119 H   0  0  0  0  0  0  0  0  0  0  0  0
    4.6974   -5.0278   -2.4605 H   0  0  0  0  0  0  0  0  0  0  0  0
    4.7459   -3.4770   -3.3421 H   0  0  0  0  0  0  0  0  0  0  0  0
    6.1891   -4.4744   -3.2175 H   0  0  0  0  0  0  0  0  0  0  0  0
    3.1257    4.2588   -2.0589 H   0  0  0  0  0  0  0  0  0  0  0  0
    1.9435    2.1575   -1.9372 H   0  0  0  0  0  0  0  0  0  0  0  0
    0.5914    3.0910    2.0529 H   0  0  0  0  0  0  0  0  0  0  0  0
    1.4200    5.3990    1.7344 H   0  0  0  0  0  0  0  0  0  0  0  0
    4.6935    5.7520   -1.1025 H   0  0  0  0  0  0  0  0  0  0  0  0
    3.4284    6.5154   -2.1411 H   0  0  0  0  0  0  0  0  0  0  0  0
    4.3277    7.4757   -0.9556 H   0  0  0  0  0  0  0  0  0  0  0  0
  1  2  1  0  0  0  0
  1 32  1  0  0  0  0
  2 11  2  0  0  0  0
  2 33  1  0  0  0  0
  3  6  1  0  0  0  0
  3 24  1  0  0  0  0
  4  3  2  0  0  0  0
  4 11  1  0  0  0  0
  4  5  1  0  0  0  0
  5 34  1  0  0  0  0
  5 35  1  0  0  0  0
  5 36  1  0  0  0  0
  6  1  2  0  0  0  0
  6  9  1  0  0  0  0
  9  7  2  0  0  0  0
  9  8  2  0  0  0  0
  9 10  1  0  0  0  0
 10 37  1  0  0  0  0
 10 38  1  0  0  0  0
 10 39  1  0  0  0  0
 11 13  1  0  0  0  0
 13 12  2  0  0  0  0
 13 14  1  0  0  0  0
 14 15  1  0  0  0  0
 15 18  2  0  0  0  0
 15 40  1  0  0  0  0
 16 14  2  0  0  0  0
 16 19  1  0  0  0  0
 16 17  1  0  0  0  0
 17 41  1  0  0  0  0
 18 19  1  0  0  0  0
 19 22  1  0  0  0  0
 20 42  1  0  0  0  0
 20 43  1  0  0  0  0
 20 44  1  0  0  0  0
 21 45  1  0  0  0  0
 21 46  1  0  0  0  0
 21 47  1  0  0  0  0
 22 20  1  0  0  0  0
 22 21  1  0  0  0  0
 22 23  1  0  0  0  0
 23 48  1  0  0  0  0
 23 49  1  0  0  0  0
 23 50  1  0  0  0  0
 24 27  1  0  0  0  0
 25 26  1  0  0  0  0
 25 51  1  0  0  0  0
 26 24  2  0  0  0  0
 26 52  1  0  0  0  0
 27 53  1  0  0  0  0
 28 25  2  0  0  0  0
 28 30  1  0  0  0  0
 29 28  1  0  0  0  0
 29 27  2  0  0  0  0
 29 54  1  0  0  0  0
 30 31  1  0  0  0  0
 31 55  1  0  0  0  0
 31 56  1  0  0  0  0
 31 57  1  0  0  0  0
M  END
>  <DRUGBANK_ID>
DB02850

>  <SECONDARY_ACCESSION_NUMBERS>
EXPT00327

>  <COMMON_NAME>
DAS869

$$$$
