B2Y
 OpenBabel10282417163D

 27 28  0  0  0  0  0  0  0  0999 V2000
    1.2165    0.2658    0.2646 N   0  0  0  0  0  0  0  0  0  0  0  0
    1.2308    2.3661   -2.8135 C   0  0  0  0  0  0  0  0  0  0  0  0
    1.4878    2.4238   -4.1845 C   0  0  0  0  0  0  0  0  0  0  0  0
    1.5914    1.2540   -4.9203 C   0  0  0  0  0  0  0  0  0  0  0  0
    1.4908    0.0276   -4.2704 C   0  0  0  0  0  0  0  0  0  0  0  0
    1.2903   -0.0550   -2.8758 C   0  0  0  0  0  0  0  0  0  0  0  0
    2.7333   -1.9605   -2.2588 C   0  0  0  0  0  0  0  0  0  0  0  0
    0.6580   -3.2182   -0.9035 C   0  0  0  0  0  0  0  0  0  0  0  0
    0.6569    1.2227   -0.6786 C   0  0  0  0  0  0  0  0  0  0  0  0
    1.1015    1.1344   -2.1312 C   0  0  0  0  0  0  0  0  0  0  0  0
    1.4507   -1.3800   -2.2643 C   0  0  0  0  0  0  0  0  0  0  0  0
    2.9735   -3.1590   -1.5908 C   0  0  0  0  0  0  0  0  0  0  0  0
    1.9341   -3.7823   -0.9100 C   0  0  0  0  0  0  0  0  0  0  0  0
    0.4042   -2.0453   -1.6201 C   0  0  0  0  0  0  0  0  0  0  0  0
    0.7336   -0.6233    0.1595 H   0  0  0  0  0  0  0  0  0  0  0  0
    2.1822    0.0684    0.0083 H   0  0  0  0  0  0  0  0  0  0  0  0
    1.1338    3.3032   -2.2673 H   0  0  0  0  0  0  0  0  0  0  0  0
    1.5916    3.3866   -4.6785 H   0  0  0  0  0  0  0  0  0  0  0  0
    1.7753    1.2859   -5.9899 H   0  0  0  0  0  0  0  0  0  0  0  0
    1.5998   -0.8862   -4.8532 H   0  0  0  0  0  0  0  0  0  0  0  0
    3.5605   -1.4566   -2.7566 H   0  0  0  0  0  0  0  0  0  0  0  0
   -0.1320   -3.6696   -0.3108 H   0  0  0  0  0  0  0  0  0  0  0  0
   -0.4386    1.1585   -0.6582 H   0  0  0  0  0  0  0  0  0  0  0  0
    0.9163    2.2089   -0.2788 H   0  0  0  0  0  0  0  0  0  0  0  0
    3.9748   -3.5797   -1.5811 H   0  0  0  0  0  0  0  0  0  0  0  0
    2.1215   -4.7079   -0.3712 H   0  0  0  0  0  0  0  0  0  0  0  0
   -0.5890   -1.6022   -1.5925 H   0  0  0  0  0  0  0  0  0  0  0  0
  1  9  1  0  0  0  0
  1 15  1  0  0  0  0
  1 16  1  0  0  0  0
  2  3  2  0  0  0  0
  2 10  1  0  0  0  0
  2 17  1  0  0  0  0
  3  4  1  0  0  0  0
  3 18  1  0  0  0  0
  4  5  2  0  0  0  0
  4 19  1  0  0  0  0
  5  6  1  0  0  0  0
  5 20  1  0  0  0  0
  6 10  2  0  0  0  0
  6 11  1  0  0  0  0
  7 11  2  0  0  0  0
  7 12  1  0  0  0  0
  7 21  1  0  0  0  0
  8 13  1  0  0  0  0
  8 14  2  0  0  0  0
  8 22  1  0  0  0  0
  9 10  1  0  0  0  0
  9 23  1  0  0  0  0
  9 24  1  0  0  0  0
 11 14  1  0  0  0  0
 12 13  2  0  0  0  0
 12 25  1  0  0  0  0
 13 26  1  0  0  0  0
 14 27  1  0  0  0  0
M  END
>  <DRUGBANK_ID>
DB07412

>  <COMMON_NAME>
1-biphenyl-2-ylmethanamine

$$$$
