
 OpenBabel10282417173D

 29 30  0  0  0  0  0  0  0  0999 V2000
    7.8190   -3.0244    5.1790 O   0  0  0  0  0  0  0  0  0  0  0  0
    7.5674    3.6318    1.7645 O   0  0  0  0  0  0  0  0  0  0  0  0
    8.4652    2.3688    0.1633 O   0  0  0  0  0  0  0  0  0  0  0  0
    8.1438   -2.8375    6.5856 O   0  0  0  0  0  0  0  0  0  0  0  0
    7.6531   -1.8232    4.4669 N   0  0  0  0  0  0  0  0  0  0  0  0
    5.5065    1.6207    0.0172 N   0  0  0  0  0  0  0  0  0  0  0  0
    7.2587   -0.4937    2.6950 C   0  0  0  0  0  0  0  0  0  0  0  0
    7.0489    0.0377    1.2856 C   0  0  0  0  0  0  0  0  0  0  0  0
    7.5013    0.2805    3.8679 C   0  0  0  0  0  0  0  0  0  0  0  0
    7.7716   -0.5398    4.9535 C   0  0  0  0  0  0  0  0  0  0  0  0
    6.4158    1.4712    1.1761 C   0  0  1  0  0  0  0  0  0  0  0  0
    7.3382   -1.8099    3.1222 C   0  0  0  0  0  0  0  0  0  0  0  0
    7.5123    1.6519    4.1109 C   0  0  0  0  0  0  0  0  0  0  0  0
    8.0740    0.0323    6.2145 C   0  0  0  0  0  0  0  0  0  0  0  0
    7.8359    2.2547    5.3010 C   0  0  0  0  0  0  0  0  0  0  0  0
    8.1156    1.4327    6.3601 C   0  0  0  0  0  0  0  0  0  0  0  0
    7.5773    2.5155    0.9835 C   0  0  0  0  0  0  0  0  0  0  0  0
    6.8727    3.7629    2.4351 H   0  0  0  0  0  0  0  0  0  0  0  0
    8.2152   -3.7794    6.8071 H   0  0  0  0  0  0  0  0  0  0  0  0
    4.5705    1.2973    0.2544 H   0  0  0  0  0  0  0  0  0  0  0  0
    5.8409    1.0266   -0.7423 H   0  0  0  0  0  0  0  0  0  0  0  0
    8.0377    0.0440    0.8078 H   0  0  0  0  0  0  0  0  0  0  0  0
    6.4562   -0.6956    0.7214 H   0  0  0  0  0  0  0  0  0  0  0  0
    5.7890    1.6867    2.0476 H   0  0  0  0  0  0  0  0  0  0  0  0
    7.2263   -2.7450    2.5874 H   0  0  0  0  0  0  0  0  0  0  0  0
    7.2101    2.2777    3.3293 H   0  0  0  0  0  0  0  0  0  0  0  0
    8.2796   -0.5783    7.0837 H   0  0  0  0  0  0  0  0  0  0  0  0
    7.8425    3.3382    5.3615 H   0  0  0  0  0  0  0  0  0  0  0  0
    8.3522    1.8873    7.3159 H   0  0  0  0  0  0  0  0  0  0  0  0
  1  4  1  0  0  0  0
  1  5  1  0  0  0  0
  2 17  1  0  0  0  0
  2 18  1  0  0  0  0
  3 17  2  0  0  0  0
  4 19  1  0  0  0  0
  5 10  1  0  0  0  0
  5 12  1  0  0  0  0
  6 20  1  0  0  0  0
  6 21  1  0  0  0  0
  7  8  1  0  0  0  0
  7  9  1  0  0  0  0
  7 12  2  0  0  0  0
  8 22  1  0  0  0  0
  8 23  1  0  0  0  0
  9 10  1  0  0  0  0
  9 13  2  0  0  0  0
 10 14  2  0  0  0  0
 11 17  1  0  0  0  0
 11 24  1  1  0  0  0
 11  8  1  0  0  0  0
 11  6  1  0  0  0  0
 12 25  1  0  0  0  0
 13 15  1  0  0  0  0
 13 26  1  0  0  0  0
 14 16  1  0  0  0  0
 14 27  1  0  0  0  0
 15 16  2  0  0  0  0
 15 28  1  0  0  0  0
 16 29  1  0  0  0  0
M  END
>  <DRUGBANK_ID>
DB08638

>  <COMMON_NAME>
1-hydroperoxy-L-tryptophan

$$$$
