NAL
 OpenBabel10282417123D

 29 30  0  0  0  0  0  0  0  0999 V2000
    3.3423   -5.4562   -0.0415 C   0  0  0  0  0  0  0  0  0  0  0  0
    2.8193   -4.8240    1.0977 C   0  0  0  0  0  0  0  0  0  0  0  0
    2.3167   -5.6272    2.1264 C   0  0  0  0  0  0  0  0  0  0  0  0
    2.3617   -7.0211    2.0302 C   0  0  0  0  0  0  0  0  0  0  0  0
    2.9044   -7.6488    0.8992 C   0  0  0  0  0  0  0  0  0  0  0  0
    2.9276   -9.0468    0.7741 C   0  0  0  0  0  0  0  0  0  0  0  0
    3.4741   -9.6538   -0.3580 C   0  0  0  0  0  0  0  0  0  0  0  0
    4.0120   -8.8718   -1.3757 C   0  0  0  0  0  0  0  0  0  0  0  0
    3.9892   -7.4806   -1.2694 C   0  0  0  0  0  0  0  0  0  0  0  0
    3.4222   -6.8556   -0.1448 C   0  0  0  0  0  0  0  0  0  0  0  0
    2.6825   -3.3205    1.1791 C   0  0  0  0  0  0  0  0  0  0  0  0
    3.9241   -2.4002    1.0952 C   0  0  1  0  0  0  0  0  0  0  0  0
    5.2900   -3.0933    1.0948 C   0  0  0  0  0  0  0  0  0  0  0  0
    3.7905   -1.4814   -0.0689 N   0  0  0  0  0  0  0  0  0  0  0  0
    6.1040   -3.0758    2.0095 O   0  0  0  0  0  0  0  0  0  0  0  0
    5.5851   -3.7248   -0.0600 O   0  0  0  0  0  0  0  0  0  0  0  0
    3.9217   -1.7507    1.9815 H   0  0  0  0  0  0  0  0  0  0  0  0
    3.6902   -4.8526   -0.8772 H   0  0  0  0  0  0  0  0  0  0  0  0
    1.8553   -5.1783    3.0037 H   0  0  0  0  0  0  0  0  0  0  0  0
    1.9585   -7.6161    2.8464 H   0  0  0  0  0  0  0  0  0  0  0  0
    2.5054   -9.6735    1.5561 H   0  0  0  0  0  0  0  0  0  0  0  0
    3.4776  -10.7371   -0.4437 H   0  0  0  0  0  0  0  0  0  0  0  0
    4.4398   -9.3433   -2.2567 H   0  0  0  0  0  0  0  0  0  0  0  0
    4.4151   -6.8856   -2.0744 H   0  0  0  0  0  0  0  0  0  0  0  0
    1.9618   -3.0413    0.3970 H   0  0  0  0  0  0  0  0  0  0  0  0
    2.1594   -3.0635    2.1111 H   0  0  0  0  0  0  0  0  0  0  0  0
    3.5628   -2.0354   -0.8941 H   0  0  0  0  0  0  0  0  0  0  0  0
    4.6968   -1.0548   -0.2628 H   0  0  0  0  0  0  0  0  0  0  0  0
    6.3668   -4.2791    0.1487 H   0  0  0  0  0  0  0  0  0  0  0  0
  1  2  1  0  0  0  0
  1 18  1  0  0  0  0
  2 11  1  0  0  0  0
  3  2  2  0  0  0  0
  3 19  1  0  0  0  0
  4  3  1  0  0  0  0
  4 20  1  0  0  0  0
  5  4  2  0  0  0  0
  5 10  1  0  0  0  0
  6  5  1  0  0  0  0
  6 21  1  0  0  0  0
  7  6  2  0  0  0  0
  7  8  1  0  0  0  0
  7 22  1  0  0  0  0
  8  9  2  0  0  0  0
  8 23  1  0  0  0  0
  9 10  1  0  0  0  0
  9 24  1  0  0  0  0
 10  1  2  0  0  0  0
 11 25  1  0  0  0  0
 11 26  1  0  0  0  0
 12 13  1  0  0  0  0
 12 17  1  1  0  0  0
 12 14  1  0  0  0  0
 12 11  1  0  0  0  0
 13 15  2  0  0  0  0
 13 16  1  0  0  0  0
 14 27  1  0  0  0  0
 14 28  1  0  0  0  0
 16 29  1  0  0  0  0
M  END
>  <DRUGBANK_ID>
DB01766

>  <SECONDARY_ACCESSION_NUMBERS>
EXPT02291

>  <COMMON_NAME>
Beta-(2-Naphthyl)-Alanine

>  <UNII>
W425Q6KV9R

$$$$
