
 OpenBabel10282417213D

 35 35  0  0  1  0  0  0  0  0999 V2000
    0.9222    0.0962    0.1399 C   0  0  0  0  0  0  0  0  0  0  0  0
    0.5344    0.6989   -1.2129 C   0  0  0  0  0  0  0  0  0  0  0  0
    1.2787   -0.1385   -2.2598 C   0  0  0  0  0  0  0  0  0  0  0  0
   -0.9302    0.7421   -1.2967 N   0  0  0  0  0  0  0  0  0  0  0  0
   -1.5041    1.3565   -2.5020 C   0  0  0  0  0  0  0  0  0  0  0  0
   -1.2408    0.6290   -3.8381 C   0  0  1  0  0  0  0  0  0  0  0  0
   -1.6457   -0.8462   -3.7570 C   0  0  0  0  0  0  0  0  0  0  0  0
   -3.0649   -0.8728   -3.6607 O   0  0  0  0  0  0  0  0  0  0  0  0
   -3.6534   -2.0990   -3.6090 C   0  0  0  0  0  0  0  0  0  0  0  0
   -3.0093   -3.3330   -3.5810 C   0  0  0  0  0  0  0  0  0  0  0  0
   -3.7597   -4.5120   -3.5868 C   0  0  0  0  0  0  0  0  0  0  0  0
   -5.1528   -4.4313   -3.6115 C   0  0  0  0  0  0  0  0  0  0  0  0
   -5.7973   -3.2067   -3.6096 C   0  0  0  0  0  0  0  0  0  0  0  0
   -5.0489   -2.0356   -3.6020 C   0  0  0  0  0  0  0  0  0  0  0  0
   -5.9261   -5.5532   -3.6415 O   0  0  0  0  0  0  0  0  0  0  0  0
   -1.8954    1.2899   -4.9265 O   0  0  0  0  0  0  0  0  0  0  0  0
    0.5693   -0.9392    0.2253 H   0  0  0  0  0  0  0  0  0  0  0  0
    0.5242    0.6726    0.9783 H   0  0  0  0  0  0  0  0  0  0  0  0
    2.0143    0.0774    0.2360 H   0  0  0  0  0  0  0  0  0  0  0  0
    0.9058    1.7290   -1.2507 H   0  0  0  0  0  0  0  0  0  0  0  0
    0.8432   -1.1369   -2.3642 H   0  0  0  0  0  0  0  0  0  0  0  0
    1.3334    0.3460   -3.2306 H   0  0  0  0  0  0  0  0  0  0  0  0
    2.3280   -0.2733   -1.9846 H   0  0  0  0  0  0  0  0  0  0  0  0
   -1.3548   -0.1650   -1.1077 H   0  0  0  0  0  0  0  0  0  0  0  0
   -2.5926    1.4268   -2.3579 H   0  0  0  0  0  0  0  0  0  0  0  0
   -1.1794    2.4009   -2.5776 H   0  0  0  0  0  0  0  0  0  0  0  0
   -0.1980    0.7087   -4.1075 H   0  0  0  0  0  0  0  0  0  0  0  0
   -1.3039   -1.3773   -4.6514 H   0  0  0  0  0  0  0  0  0  0  0  0
   -1.2195   -1.3338   -2.8737 H   0  0  0  0  0  0  0  0  0  0  0  0
   -1.9252   -3.4189   -3.5630 H   0  0  0  0  0  0  0  0  0  0  0  0
   -3.2497   -5.4671   -3.5805 H   0  0  0  0  0  0  0  0  0  0  0  0
   -6.8832   -3.1527   -3.6238 H   0  0  0  0  0  0  0  0  0  0  0  0
   -5.5427   -1.0699   -3.6037 H   0  0  0  0  0  0  0  0  0  0  0  0
   -5.3479   -6.3305   -3.6576 H   0  0  0  0  0  0  0  0  0  0  0  0
   -2.8420    1.0759   -4.8591 H   0  0  0  0  0  0  0  0  0  0  0  0
  1  2  1  0  0  0  0
  1 17  1  0  0  0  0
  1 18  1  0  0  0  0
  1 19  1  0  0  0  0
  2  3  1  0  0  0  0
  2  4  1  0  0  0  0
  2 20  1  0  0  0  0
  3 21  1  0  0  0  0
  3 22  1  0  0  0  0
  3 23  1  0  0  0  0
  4  5  1  0  0  0  0
  4 24  1  0  0  0  0
  5  6  1  0  0  0  0
  5 25  1  0  0  0  0
  5 26  1  0  0  0  0
  6  7  1  0  0  0  0
  6 16  1  0  0  0  0
  6 27  1  6  0  0  0
  7  8  1  0  0  0  0
  7 28  1  0  0  0  0
  7 29  1  0  0  0  0
  8  9  1  0  0  0  0
  9 10  2  0  0  0  0
  9 14  1  0  0  0  0
 10 11  1  0  0  0  0
 10 30  1  0  0  0  0
 11 12  2  0  0  0  0
 11 31  1  0  0  0  0
 12 13  1  0  0  0  0
 12 15  1  0  0  0  0
 13 14  2  0  0  0  0
 13 32  1  0  0  0  0
 14 33  1  0  0  0  0
 15 34  1  0  0  0  0
 16 35  1  0  0  0  0
M  END
>  <DRUGBANK_ID>
DB13777

>  <COMMON_NAME>
Prenalterol

>  <CAS_NUMBER>
57526-81-5

>  <UNII>
M4G34404CX

>  <SYNONYMS>
Prenalterol

$$$$
