1127
 OpenBabel10282417113D

 39 41  0  0  1  0  0  0  0  0999 V2000
   -2.4177    1.1723    0.0061 Cl  0  0  0  0  0  0  0  0  0  0  0  0
    2.8234    0.7822    0.0091 Cl  0  0  0  0  0  0  0  0  0  0  0  0
   -7.1124    1.6801   -2.2318 Cl  0  0  0  0  0  0  0  0  0  0  0  0
   -2.5709   -2.9819   -1.1545 O   0  0  0  0  0  0  0  0  0  0  0  0
   -2.5827   -2.2348    2.5487 N   0  0  0  0  0  0  0  0  0  0  0  0
   -2.4440   -1.7514    4.7162 N   0  0  0  0  0  0  0  0  0  0  0  0
   -2.4711   -2.1324    0.0142 C   0  0  3  0  0  0  0  0  0  0  0  0
   -2.5945   -2.9978    1.3079 C   0  0  0  0  0  0  0  0  0  0  0  0
   -1.1616   -1.3483   -0.0225 C   0  0  0  0  0  0  0  0  0  0  0  0
   -2.5579   -2.2530   -2.4002 C   0  0  0  0  0  0  0  0  0  0  0  0
   -1.0821    0.0655   -0.0375 C   0  0  0  0  0  0  0  0  0  0  0  0
    0.0424   -2.0823   -0.0240 C   0  0  0  0  0  0  0  0  0  0  0  0
   -3.7098   -1.2831   -2.5110 C   0  0  0  0  0  0  0  0  0  0  0  0
   -2.6652   -0.8853    2.6852 C   0  0  0  0  0  0  0  0  0  0  0  0
   -2.4977   -2.7202    3.8231 C   0  0  0  0  0  0  0  0  0  0  0  0
    0.1503    0.7056   -0.0331 C   0  0  0  0  0  0  0  0  0  0  0  0
    1.2725   -1.4283   -0.0111 C   0  0  0  0  0  0  0  0  0  0  0  0
    1.3171   -0.0387   -0.0146 C   0  0  0  0  0  0  0  0  0  0  0  0
   -2.5218   -0.5940    4.0002 C   0  0  0  0  0  0  0  0  0  0  0  0
   -3.4724    0.0922   -2.6326 C   0  0  0  0  0  0  0  0  0  0  0  0
   -5.0292   -1.7313   -2.3885 C   0  0  0  0  0  0  0  0  0  0  0  0
   -4.5194    1.0112   -2.5157 C   0  0  0  0  0  0  0  0  0  0  0  0
   -6.0833   -0.8159   -2.3346 C   0  0  0  0  0  0  0  0  0  0  0  0
   -5.8224    0.5523   -2.3722 C   0  0  0  0  0  0  0  0  0  0  0  0
   -3.3426   -1.4736    0.0120 H   0  0  0  0  0  0  0  0  0  0  0  0
   -3.5341   -3.5656    1.2923 H   0  0  0  0  0  0  0  0  0  0  0  0
   -1.7909   -3.7445    1.3686 H   0  0  0  0  0  0  0  0  0  0  0  0
   -1.5933   -1.7448   -2.5162 H   0  0  0  0  0  0  0  0  0  0  0  0
   -2.6147   -2.9742   -3.2222 H   0  0  0  0  0  0  0  0  0  0  0  0
    0.0290   -3.1729   -0.0277 H   0  0  0  0  0  0  0  0  0  0  0  0
   -2.8134   -0.2249    1.8625 H   0  0  0  0  0  0  0  0  0  0  0  0
   -2.4791   -3.7763    4.0554 H   0  0  0  0  0  0  0  0  0  0  0  0
    0.1864    1.7916   -0.0206 H   0  0  0  0  0  0  0  0  0  0  0  0
    2.1909   -2.0074    0.0099 H   0  0  0  0  0  0  0  0  0  0  0  0
   -2.5013    0.3981    4.4414 H   0  0  0  0  0  0  0  0  0  0  0  0
   -2.4533    0.4702   -2.7069 H   0  0  0  0  0  0  0  0  0  0  0  0
   -5.2330   -2.7958   -2.2980 H   0  0  0  0  0  0  0  0  0  0  0  0
   -4.3008    2.0767   -2.4833 H   0  0  0  0  0  0  0  0  0  0  0  0
   -7.1029   -1.1762   -2.2384 H   0  0  0  0  0  0  0  0  0  0  0  0
  1 11  1  0  0  0  0
  2 18  1  0  0  0  0
  3 24  1  0  0  0  0
  4  7  1  0  0  0  0
  4 10  1  0  0  0  0
  5  8  1  0  0  0  0
  5 14  1  0  0  0  0
  5 15  1  0  0  0  0
  6 15  2  0  0  0  0
  6 19  1  0  0  0  0
  7  8  1  0  0  0  0
  7  9  1  0  0  0  0
  7 25  1  0  0  0  0
  8 26  1  0  0  0  0
  8 27  1  0  0  0  0
  9 11  2  0  0  0  0
  9 12  1  0  0  0  0
 10 13  1  0  0  0  0
 10 28  1  0  0  0  0
 10 29  1  0  0  0  0
 11 16  1  0  0  0  0
 12 17  2  0  0  0  0
 12 30  1  0  0  0  0
 13 20  2  0  0  0  0
 13 21  1  0  0  0  0
 14 19  2  0  0  0  0
 14 31  1  0  0  0  0
 15 32  1  0  0  0  0
 16 18  2  0  0  0  0
 16 33  1  0  0  0  0
 17 18  1  0  0  0  0
 17 34  1  0  0  0  0
 19 35  1  0  0  0  0
 20 22  1  0  0  0  0
 20 36  1  0  0  0  0
 21 23  2  0  0  0  0
 21 37  1  0  0  0  0
 22 24  2  0  0  0  0
 22 38  1  0  0  0  0
 23 24  1  0  0  0  0
 23 39  1  0  0  0  0
M  END
>  <DRUGBANK_ID>
DB01127

>  <SECONDARY_ACCESSION_NUMBERS>
APRD00943

>  <COMMON_NAME>
Econazole

>  <CAS_NUMBER>
27220-47-9

>  <UNII>
6Z1Y2V4A7M

>  <SYNONYMS>
(+-)-Econazole; Econazol; Econazole

$$$$
