N3P
 OpenBabel10282417173D

 38 40  0  0  0  0  0  0  0  0999 V2000
    2.4236   -0.6776   -0.0236 C   0  0  0  0  0  0  0  0  0  0  0  0
    2.4047    0.7125   -0.0138 C   0  0  0  0  0  0  0  0  0  0  0  0
   -5.5889   -2.9121    1.7809 C   0  0  0  0  0  0  0  0  0  0  0  0
   -6.9671   -2.7363   -0.2169 C   0  0  0  0  0  0  0  0  0  0  0  0
   -5.2985   -1.4859    1.7023 C   0  0  0  0  0  0  0  0  0  0  0  0
   -6.6333   -1.3278   -0.3139 C   0  0  0  0  0  0  0  0  0  0  0  0
    1.2198   -1.3727    0.0002 C   0  0  0  0  0  0  0  0  0  0  0  0
    1.1810    1.4014    0.0133 C   0  0  0  0  0  0  0  0  0  0  0  0
   -1.2116   -1.3865    0.0387 C   0  0  0  0  0  0  0  0  0  0  0  0
   -1.3424    1.3564    0.0418 C   0  0  0  0  0  0  0  0  0  0  0  0
   -3.9320    1.2639    0.1545 C   0  0  0  0  0  0  0  0  0  0  0  0
   -6.4539   -3.5356    0.8342 C   0  0  0  0  0  0  0  0  0  0  0  0
   -5.7837   -0.6689    0.6308 C   0  0  0  0  0  0  0  0  0  0  0  0
   -2.4621   -0.7419    0.0449 C   0  0  0  0  0  0  0  0  0  0  0  0
   -2.5669    0.6284    0.0991 C   0  0  0  0  0  0  0  0  0  0  0  0
   -0.0102   -0.6858    0.0194 C   0  0  0  0  0  0  0  0  0  0  0  0
   -0.0582    0.7202    0.0186 C   0  0  0  0  0  0  0  0  0  0  0  0
   -5.2173    0.6519    0.2612 N   0  0  0  0  0  0  0  0  0  0  0  0
   -3.9111    2.5225   -0.0323 O   0  0  0  0  0  0  0  0  0  0  0  0
   -4.7708   -3.1651   -1.0885 O   0  0  0  0  0  0  0  0  0  0  0  0
   -2.6809   -3.1090   -1.3667 O   0  0  0  0  0  0  0  0  0  0  0  0
   -3.6645   -4.8566   -0.0376 O   0  0  0  0  0  0  0  0  0  0  0  0
   -3.6520   -1.3966   -0.0411 O   0  0  0  0  0  0  0  0  0  0  0  0
   -6.4141   -5.2885    0.5853 Cl  0  0  0  0  0  0  0  0  0  0  0  0
   -3.6582   -3.1266   -0.0393 P   0  0  0  0  0  0  0  0  0  0  0  0
    3.3674   -1.2178   -0.0490 H   0  0  0  0  0  0  0  0  0  0  0  0
    3.3446    1.2605   -0.0273 H   0  0  0  0  0  0  0  0  0  0  0  0
   -4.8467   -3.5440    2.3134 H   0  0  0  0  0  0  0  0  0  0  0  0
   -7.1941   -3.2646   -1.1700 H   0  0  0  0  0  0  0  0  0  0  0  0
   -4.4321   -1.1119    2.2664 H   0  0  0  0  0  0  0  0  0  0  0  0
   -6.7500   -0.8819   -1.3109 H   0  0  0  0  0  0  0  0  0  0  0  0
    1.2498   -2.4626    0.0030 H   0  0  0  0  0  0  0  0  0  0  0  0
    1.2068    2.4891    0.0412 H   0  0  0  0  0  0  0  0  0  0  0  0
   -1.1375   -2.4703    0.0148 H   0  0  0  0  0  0  0  0  0  0  0  0
   -1.3617    2.4481    0.0140 H   0  0  0  0  0  0  0  0  0  0  0  0
   -5.9060    1.2917   -0.1223 H   0  0  0  0  0  0  0  0  0  0  0  0
   -3.3508   -2.6912   -1.9887 H   0  0  0  0  0  0  0  0  0  0  0  0
   -2.8833   -5.1586   -0.5359 H   0  0  0  0  0  0  0  0  0  0  0  0
  1  2  1  0  0  0  0
  1  7  2  0  0  0  0
  1 26  1  0  0  0  0
  2  8  2  0  0  0  0
  2 27  1  0  0  0  0
  3  5  1  0  0  0  0
  3 12  2  0  0  0  0
  3 28  1  0  0  0  0
  4  6  2  0  0  0  0
  4 12  1  0  0  0  0
  4 29  1  0  0  0  0
  5 13  2  0  0  0  0
  5 30  1  0  0  0  0
  6 13  1  0  0  0  0
  6 31  1  0  0  0  0
  7 16  1  0  0  0  0
  7 32  1  0  0  0  0
  8 17  1  0  0  0  0
  8 33  1  0  0  0  0
  9 16  2  0  0  0  0
  9 14  1  0  0  0  0
  9 34  1  0  0  0  0
 10 17  2  0  0  0  0
 10 15  1  0  0  0  0
 10 35  1  0  0  0  0
 11 19  2  0  0  0  0
 11 15  1  0  0  0  0
 11 18  1  0  0  0  0
 12 24  1  0  0  0  0
 13 18  1  0  0  0  0
 14 15  2  0  0  0  0
 14 23  1  0  0  0  0
 16 17  1  0  0  0  0
 18 36  1  0  0  0  0
 20 25  2  0  0  0  0
 21 25  1  0  0  0  0
 21 37  1  0  0  0  0
 22 25  1  0  0  0  0
 22 38  1  0  0  0  0
 23 25  1  0  0  0  0
M  END
>  <DRUGBANK_ID>
DB08240

>  <COMMON_NAME>
N-(4-CHLOROPHENYL)-3-(PHOSPHONOOXY)NAPHTHALENE-2-CARBOXAMIDE

>  <UNII>
H6R6B93QFC

$$$$
