HDU
 OpenBabel10282417123D

 33 35  0  0  0  0  0  0  0  0999 V2000
    1.0792   -0.0579   -0.0382 O   0  0  0  0  0  0  0  0  0  0  0  0
    2.3077   -0.0369    0.0822 C   0  0  0  0  0  0  0  0  0  0  0  0
    3.1536   -0.7444   -0.9432 C   0  0  0  0  0  0  0  0  0  0  0  0
    2.9989    0.6507    1.0567 N   0  0  0  0  0  0  0  0  0  0  0  0
    2.2856    1.3704    2.0195 C   0  0  0  0  0  0  0  0  0  0  0  0
    1.2262    0.7846    2.5849 N   0  0  0  0  0  0  0  0  0  0  0  0
    2.7077    2.6085    2.3222 N   0  0  0  0  0  0  0  0  0  0  0  0
    1.9099    3.3194    3.1553 C   0  0  0  0  0  0  0  0  0  0  0  0
    0.7801    2.8165    3.7539 C   0  0  0  0  0  0  0  0  0  0  0  0
    0.4940    1.5142    3.4387 C   0  0  0  0  0  0  0  0  0  0  0  0
   -0.5420    0.7662    4.1208 C   0  0  0  0  0  0  0  0  0  0  0  0
   -1.8982    1.0221    4.0883 N   0  0  0  0  0  0  0  0  0  0  0  0
   -2.5011    0.0857    4.9298 C   0  0  0  0  0  0  0  0  0  0  0  0
   -1.6140   -0.7248    5.4698 N   0  0  0  0  0  0  0  0  0  0  0  0
   -0.3985   -0.3274    4.9601 C   0  0  0  0  0  0  0  0  0  0  0  0
    0.8626   -1.0055    5.3510 C   0  0  0  0  0  0  0  0  0  0  0  0
   -3.9187    0.1556    5.0737 C   0  0  0  0  0  0  0  0  0  0  0  0
   -4.6172    1.0993    4.4125 C   0  0  0  0  0  0  0  0  0  0  0  0
   -3.9579    2.0585    3.5420 C   0  0  0  0  0  0  0  0  0  0  0  0
   -2.6233    1.9989    3.3980 C   0  0  0  0  0  0  0  0  0  0  0  0
    3.7633   -0.0349   -1.5077 H   0  0  0  0  0  0  0  0  0  0  0  0
    3.7789   -1.5077   -0.4757 H   0  0  0  0  0  0  0  0  0  0  0  0
    2.4825   -1.2471   -1.6514 H   0  0  0  0  0  0  0  0  0  0  0  0
    3.9503    0.9447    0.9001 H   0  0  0  0  0  0  0  0  0  0  0  0
    2.2097    4.3480    3.3398 H   0  0  0  0  0  0  0  0  0  0  0  0
    0.1853    3.3848    4.4553 H   0  0  0  0  0  0  0  0  0  0  0  0
    1.0138   -0.9407    6.4321 H   0  0  0  0  0  0  0  0  0  0  0  0
    0.8471   -2.0563    5.0508 H   0  0  0  0  0  0  0  0  0  0  0  0
    1.7328   -0.5397    4.8766 H   0  0  0  0  0  0  0  0  0  0  0  0
   -4.4116   -0.5632    5.7185 H   0  0  0  0  0  0  0  0  0  0  0  0
   -5.6974    1.1617    4.5085 H   0  0  0  0  0  0  0  0  0  0  0  0
   -4.5604    2.7944    3.0201 H   0  0  0  0  0  0  0  0  0  0  0  0
   -2.0770    2.6763    2.7553 H   0  0  0  0  0  0  0  0  0  0  0  0
  1  2  2  0  0  0  0
  2  3  1  0  0  0  0
  2  4  1  0  0  0  0
  3 21  1  0  0  0  0
  3 22  1  0  0  0  0
  3 23  1  0  0  0  0
  4  5  1  0  0  0  0
  4 24  1  0  0  0  0
  5  6  2  0  0  0  0
  5  7  1  0  0  0  0
  6 10  1  0  0  0  0
  7  8  2  0  0  0  0
  8  9  1  0  0  0  0
  8 25  1  0  0  0  0
  9 10  2  0  0  0  0
  9 26  1  0  0  0  0
 10 11  1  0  0  0  0
 11 12  1  0  0  0  0
 11 15  2  0  0  0  0
 12 13  1  0  0  0  0
 12 20  1  0  0  0  0
 13 14  2  0  0  0  0
 13 17  1  0  0  0  0
 14 15  1  0  0  0  0
 15 16  1  0  0  0  0
 16 27  1  0  0  0  0
 16 28  1  0  0  0  0
 16 29  1  0  0  0  0
 17 18  2  0  0  0  0
 17 30  1  0  0  0  0
 18 19  1  0  0  0  0
 18 31  1  0  0  0  0
 19 20  2  0  0  0  0
 19 32  1  0  0  0  0
 20 33  1  0  0  0  0
M  END
>  <DRUGBANK_ID>
DB02538

>  <SECONDARY_ACCESSION_NUMBERS>
EXPT01718

>  <COMMON_NAME>
N-[4-(2-Methylimidazo[1,2-a]Pyridin-3-Yl)-2-Pyrimidinyl]Acetamide

$$$$
