
 OpenBabel10282417193D

 64 68  0  0  1  0  0  0  0  0999 V2000
    1.2567   -0.3724    0.3397 C   0  0  0  0  0  0  0  0  0  0  0  0
    0.9118   -1.0877   -0.9361 C   0  0  0  0  0  0  0  0  0  0  0  0
    2.0034   -2.1722   -1.3297 C   0  0  2  0  0  0  0  0  0  0  0  0
    3.5093   -1.9095   -2.2682 C   0  0  0  0  0  0  0  0  0  0  0  0
    4.4896   -0.7510   -2.6189 C   0  0  0  0  0  0  0  0  0  0  0  0
    3.8951    0.3646   -3.0357 C   0  0  0  0  0  0  0  0  0  0  0  0
    2.6025    0.0810   -3.3317 N   0  0  0  0  0  0  0  0  0  0  0  0
    2.1234   -1.1944   -3.7254 C   0  0  0  0  0  0  0  0  0  0  0  0
    0.9218   -1.3944   -3.9851 O   0  0  0  0  0  0  0  0  0  0  0  0
    3.1092   -2.3907   -3.4487 C   0  0  0  0  0  0  0  0  0  0  0  0
    2.8019   -3.8564   -3.1920 C   0  0  0  0  0  0  0  0  0  0  0  0
    1.4429   -4.0955   -3.0143 O   0  0  0  0  0  0  0  0  0  0  0  0
    0.9216   -3.2904   -2.0549 C   0  0  0  0  0  0  0  0  0  0  0  0
   -0.2802   -3.4017   -1.7980 O   0  0  0  0  0  0  0  0  0  0  0  0
    1.8735    1.1674   -2.7541 C   0  0  0  0  0  0  0  0  0  0  0  0
    2.7343    2.3595   -2.9442 C   0  0  0  0  0  0  0  0  0  0  0  0
    4.0233    1.8560   -3.2085 C   0  0  0  0  0  0  0  0  0  0  0  0
    5.0672    2.6460   -3.4671 N   0  0  0  0  0  0  0  0  0  0  0  0
    4.8188    3.9964   -3.4424 C   0  0  0  0  0  0  0  0  0  0  0  0
    5.8256    4.8906   -3.7955 C   0  0  0  0  0  0  0  0  0  0  0  0
    5.6686    6.2908   -3.7598 C   0  0  0  0  0  0  0  0  0  0  0  0
    4.4764    6.8408   -3.3557 C   0  0  0  0  0  0  0  0  0  0  0  0
    3.4484    6.0003   -3.0087 C   0  0  0  0  0  0  0  0  0  0  0  0
    3.5723    4.5855   -3.0617 C   0  0  0  0  0  0  0  0  0  0  0  0
    2.4878    3.7294   -2.7678 C   0  0  0  0  0  0  0  0  0  0  0  0
    0.8035    4.4983   -2.1668 Si  0  0  0  0  0  0  0  0  0  0  0  0
    1.0850    5.4935   -0.5888 C   0  0  0  0  0  0  0  0  0  0  0  0
    0.0795    5.5114   -3.5468 C   0  0  0  0  0  0  0  0  0  0  0  0
   -0.5000    3.1670   -1.7562 C   0  0  0  0  0  0  0  0  0  0  0  0
   -0.8328    2.3513   -3.0292 C   0  0  0  0  0  0  0  0  0  0  0  0
    0.0166    2.4239   -0.5309 C   0  0  0  0  0  0  0  0  0  0  0  0
   -1.8435    3.6987   -1.2733 C   0  0  0  0  0  0  0  0  0  0  0  0
    4.3171    8.1912   -3.3125 O   0  0  0  0  0  0  0  0  0  0  0  0
    2.4832   -2.6996   -0.0910 O   0  0  0  0  0  0  0  0  0  0  0  0
    0.8561   -0.8863    1.2132 H   0  0  0  0  0  0  0  0  0  0  0  0
    0.7920    0.5862    0.3978 H   0  0  0  0  0  0  0  0  0  0  0  0
    2.3262   -0.1899    0.3919 H   0  0  0  0  0  0  0  0  0  0  0  0
   -0.0997   -1.4998   -0.7716 H   0  0  0  0  0  0  0  0  0  0  0  0
    0.6260   -0.4287   -1.7465 H   0  0  0  0  0  0  0  0  0  0  0  0
    5.5265   -0.8817   -2.9626 H   0  0  0  0  0  0  0  0  0  0  0  0
    3.2663   -4.2118   -2.2449 H   0  0  0  0  0  0  0  0  0  0  0  0
    3.2532   -4.5326   -3.9169 H   0  0  0  0  0  0  0  0  0  0  0  0
    0.9173    1.0149   -3.1733 H   0  0  0  0  0  0  0  0  0  0  0  0
    1.8929    1.0028   -1.6768 H   0  0  0  0  0  0  0  0  0  0  0  0
    6.7789    4.4849   -4.1193 H   0  0  0  0  0  0  0  0  0  0  0  0
    6.4834    6.9460   -4.0441 H   0  0  0  0  0  0  0  0  0  0  0  0
    2.5314    6.4860   -2.7083 H   0  0  0  0  0  0  0  0  0  0  0  0
    1.7573    6.3389   -0.7382 H   0  0  0  0  0  0  0  0  0  0  0  0
    0.1323    5.8902   -0.2275 H   0  0  0  0  0  0  0  0  0  0  0  0
    1.5153    4.8681    0.2006 H   0  0  0  0  0  0  0  0  0  0  0  0
   -0.0611    4.8826   -4.4303 H   0  0  0  0  0  0  0  0  0  0  0  0
   -0.8914    5.9051   -3.2405 H   0  0  0  0  0  0  0  0  0  0  0  0
    0.7145    6.3505   -3.8263 H   0  0  0  0  0  0  0  0  0  0  0  0
   -0.0108    2.2782   -3.7420 H   0  0  0  0  0  0  0  0  0  0  0  0
   -1.2352    1.3599   -2.7910 H   0  0  0  0  0  0  0  0  0  0  0  0
   -1.5387    2.8739   -3.6768 H   0  0  0  0  0  0  0  0  0  0  0  0
   -0.0454    3.0022    0.4029 H   0  0  0  0  0  0  0  0  0  0  0  0
   -0.5912    1.5293   -0.3928 H   0  0  0  0  0  0  0  0  0  0  0  0
    1.0865    2.2296   -0.5753 H   0  0  0  0  0  0  0  0  0  0  0  0
   -1.7281    4.2973   -0.3658 H   0  0  0  0  0  0  0  0  0  0  0  0
   -2.3236    4.3034   -2.0415 H   0  0  0  0  0  0  0  0  0  0  0  0
   -2.4958    2.8485   -1.0339 H   0  0  0  0  0  0  0  0  0  0  0  0
    3.4152    8.4052   -3.0121 H   0  0  0  0  0  0  0  0  0  0  0  0
    2.9949   -3.4952   -0.2857 H   0  0  0  0  0  0  0  0  0  0  0  0
  1  2  1  0  0  0  0
  1 35  1  0  0  0  0
  1 36  1  0  0  0  0
  1 37  1  0  0  0  0
  2 38  1  0  0  0  0
  2 39  1  0  0  0  0
  3  2  1  0  0  0  0
  3  4  1  0  0  0  0
  3 13  1  0  0  0  0
  3 34  1  1  0  0  0
  4  5  1  0  0  0  0
  4 10  2  0  0  0  0
  5  6  2  0  0  0  0
  5 40  1  0  0  0  0
  6  7  1  0  0  0  0
  6 17  1  0  0  0  0
  7  8  1  0  0  0  0
  7 15  1  0  0  0  0
  8  9  2  0  0  0  0
  8 10  1  0  0  0  0
 10 11  1  0  0  0  0
 11 12  1  0  0  0  0
 11 41  1  0  0  0  0
 11 42  1  0  0  0  0
 12 13  1  0  0  0  0
 13 14  2  0  0  0  0
 15 16  1  0  0  0  0
 15 43  1  0  0  0  0
 15 44  1  0  0  0  0
 16 17  2  0  0  0  0
 16 25  1  0  0  0  0
 17 18  1  0  0  0  0
 18 19  2  0  0  0  0
 19 20  1  0  0  0  0
 19 24  1  0  0  0  0
 20 21  2  0  0  0  0
 20 45  1  0  0  0  0
 21 22  1  0  0  0  0
 21 46  1  0  0  0  0
 22 23  2  0  0  0  0
 22 33  1  0  0  0  0
 23 24  1  0  0  0  0
 23 47  1  0  0  0  0
 24 25  2  0  0  0  0
 25 26  1  0  0  0  0
 26 27  1  0  0  0  0
 26 28  1  0  0  0  0
 26 29  1  0  0  0  0
 27 48  1  0  0  0  0
 27 49  1  0  0  0  0
 27 50  1  0  0  0  0
 28 51  1  0  0  0  0
 28 52  1  0  0  0  0
 28 53  1  0  0  0  0
 29 30  1  0  0  0  0
 29 31  1  0  0  0  0
 29 32  1  0  0  0  0
 30 54  1  0  0  0  0
 30 55  1  0  0  0  0
 30 56  1  0  0  0  0
 31 57  1  0  0  0  0
 31 58  1  0  0  0  0
 31 59  1  0  0  0  0
 32 60  1  0  0  0  0
 32 61  1  0  0  0  0
 32 62  1  0  0  0  0
 33 63  1  0  0  0  0
 34 64  1  0  0  0  0
M  END
>  <DRUGBANK_ID>
DB12384

>  <COMMON_NAME>
Silatecan

>  <CAS_NUMBER>
220913-32-6

>  <UNII>
3YEA04NV6H

$$$$
