
 OpenBabel10282417123D

 57 59  0  0  0  0  0  0  0  0999 V2000
    5.3166   -1.7927   -1.1295 S   0  0  0  0  0  0  0  0  0  0  0  0
    4.1695   -1.6323    3.3725 O   0  0  0  0  0  0  0  0  0  0  0  0
    1.6525   -1.3031    1.3586 O   0  0  0  0  0  0  0  0  0  0  0  0
    1.4300    0.6919    2.9442 O   0  0  0  0  0  0  0  0  0  0  0  0
    4.3778   -2.5449   -0.3319 O   0  0  0  0  0  0  0  0  0  0  0  0
    6.0635   -2.4138   -2.1606 O   0  0  0  0  0  0  0  0  0  0  0  0
    3.6422    1.2458   -2.8367 O   0  0  0  0  0  0  0  0  0  0  0  0
    3.5446   -0.2723    5.1499 N   0  0  0  0  0  0  0  0  0  0  0  0
    6.2203   -1.6397    0.2515 N   0  0  0  0  0  0  0  0  0  0  0  0
    3.3470   -0.3887    7.3654 N   0  0  0  0  0  0  0  0  0  0  0  0
    4.6892   -0.3192   -1.5398 N   0  0  0  0  0  0  0  0  0  0  0  0
    5.4372    1.3427    5.0047 N   0  0  0  0  0  0  0  0  0  0  0  0
    3.6994   -1.8920   -4.1145 N   0  0  0  0  0  0  0  0  0  0  0  0
    6.1280    2.0075    7.2764 N   0  0  0  0  0  0  0  0  0  0  0  0
    5.0744    1.1399    9.2119 N   0  0  0  0  0  0  0  0  0  0  0  0
    4.1113   -1.6024    1.9300 C   0  0  1  0  0  0  0  0  0  0  0  0
    2.9276   -0.6564    1.5568 C   0  0  2  0  0  0  0  0  0  0  0  0
    2.7782    0.2377    2.7754 C   0  0  2  0  0  0  0  0  0  0  0  0
    3.1674   -0.7468    3.8527 C   0  0  1  0  0  0  0  0  0  0  0  0
    5.5111   -1.0424    1.4572 C   0  0  0  0  0  0  0  0  0  0  0  0
    4.5183    0.5714    5.6304 C   0  0  0  0  0  0  0  0  0  0  0  0
    2.8881   -0.8182    6.2263 C   0  0  0  0  0  0  0  0  0  0  0  0
    4.3577    0.4705    7.0112 C   0  0  0  0  0  0  0  0  0  0  0  0
    1.7040   -1.6838   -2.5399 C   0  0  2  0  0  0  0  0  0  0  0  0
    2.8228   -0.9816   -3.3776 C   0  0  1  0  0  0  0  0  0  0  0  0
    2.2743   -2.4345   -1.3725 C   0  0  0  0  0  0  0  0  0  0  0  0
    3.7342    0.0447   -2.5720 C   0  0  0  0  0  0  0  0  0  0  0  0
    5.2000    1.2162    7.8427 C   0  0  0  0  0  0  0  0  0  0  0  0
    0.8726   -2.7501   -3.2233 C   0  0  0  0  0  0  0  0  0  0  0  0
    3.0263   -3.7641   -1.7816 C   0  0  0  0  0  0  0  0  0  0  0  0
    6.1911    2.0264    5.9217 C   0  0  0  0  0  0  0  0  0  0  0  0
    6.3035   -2.6529    0.4710 H   0  0  0  0  0  0  0  0  0  0  0  0
    5.2476    0.4793   -1.2539 H   0  0  0  0  0  0  0  0  0  0  0  0
    3.1610   -2.6017   -4.6056 H   0  0  0  0  0  0  0  0  0  0  0  0
    4.2688   -1.4037   -4.8021 H   0  0  0  0  0  0  0  0  0  0  0  0
    4.3569    0.5267    9.5808 H   0  0  0  0  0  0  0  0  0  0  0  0
    5.6771    1.6797    9.8061 H   0  0  0  0  0  0  0  0  0  0  0  0
    1.5470   -2.0738    1.9395 H   0  0  0  0  0  0  0  0  0  0  0  0
    0.8348   -0.0410    2.6781 H   0  0  0  0  0  0  0  0  0  0  0  0
    3.8917   -2.6517    1.6933 H   0  0  0  0  0  0  0  0  0  0  0  0
    3.1222   -0.0768    0.6526 H   0  0  0  0  0  0  0  0  0  0  0  0
    3.4497    1.0948    2.7175 H   0  0  0  0  0  0  0  0  0  0  0  0
    2.2820   -1.3825    4.0058 H   0  0  0  0  0  0  0  0  0  0  0  0
    6.2208   -1.1651    2.2812 H   0  0  0  0  0  0  0  0  0  0  0  0
    5.4180    0.0168    1.2244 H   0  0  0  0  0  0  0  0  0  0  0  0
    2.0913   -1.5369    6.0938 H   0  0  0  0  0  0  0  0  0  0  0  0
    1.0472   -0.8954   -2.1366 H   0  0  0  0  0  0  0  0  0  0  0  0
    2.2798   -0.3925   -4.1373 H   0  0  0  0  0  0  0  0  0  0  0  0
    2.7846   -1.5946   -0.9110 H   0  0  0  0  0  0  0  0  0  0  0  0
    1.5575   -2.6885   -0.5943 H   0  0  0  0  0  0  0  0  0  0  0  0
    0.2692   -3.2613   -2.4556 H   0  0  0  0  0  0  0  0  0  0  0  0
    0.2273   -2.3542   -3.9940 H   0  0  0  0  0  0  0  0  0  0  0  0
    1.5132   -3.5177   -3.6674 H   0  0  0  0  0  0  0  0  0  0  0  0
    3.6873   -3.6422   -2.6440 H   0  0  0  0  0  0  0  0  0  0  0  0
    3.6614   -4.2371   -1.0217 H   0  0  0  0  0  0  0  0  0  0  0  0
    2.3185   -4.5551   -1.9941 H   0  0  0  0  0  0  0  0  0  0  0  0
    6.9598    2.6928    5.5295 H   0  0  0  0  0  0  0  0  0  0  0  0
  1  5  2  0  0  0  0
  1  6  2  0  0  0  0
  1  9  1  0  0  0  0
  1 11  1  0  0  0  0
  2 16  1  0  0  0  0
  2 19  1  0  0  0  0
  3 38  1  0  0  0  0
  4 39  1  0  0  0  0
  7 27  2  0  0  0  0
  8 21  1  0  0  0  0
  8 22  1  0  0  0  0
  9 20  1  0  0  0  0
  9 32  1  0  0  0  0
 10 22  2  0  0  0  0
 10 23  1  0  0  0  0
 11 27  1  0  0  0  0
 11 33  1  0  0  0  0
 12 21  2  0  0  0  0
 12 31  1  0  0  0  0
 13 34  1  0  0  0  0
 13 35  1  0  0  0  0
 14 28  1  0  0  0  0
 14 31  2  0  0  0  0
 15 28  1  0  0  0  0
 15 36  1  0  0  0  0
 15 37  1  0  0  0  0
 16 17  1  0  0  0  0
 16 20  1  0  0  0  0
 16 40  1  6  0  0  0
 17  3  1  0  0  0  0
 17 18  1  0  0  0  0
 17 41  1  6  0  0  0
 18  4  1  0  0  0  0
 18 19  1  0  0  0  0
 18 42  1  6  0  0  0
 19 43  1  1  0  0  0
 19  8  1  0  0  0  0
 20 44  1  0  0  0  0
 20 45  1  0  0  0  0
 21 23  1  0  0  0  0
 22 46  1  0  0  0  0
 23 28  2  0  0  0  0
 24 29  1  0  0  0  0
 24 47  1  1  0  0  0
 24 26  1  0  0  0  0
 24 25  1  0  0  0  0
 25 13  1  0  0  0  0
 25 27  1  0  0  0  0
 25 48  1  6  0  0  0
 26 30  1  0  0  0  0
 26 49  1  0  0  0  0
 26 50  1  0  0  0  0
 29 51  1  0  0  0  0
 29 52  1  0  0  0  0
 29 53  1  0  0  0  0
 30 54  1  0  0  0  0
 30 55  1  0  0  0  0
 30 56  1  0  0  0  0
 31 57  1  0  0  0  0
M  END
>  <DRUGBANK_ID>
DB01755

>  <SECONDARY_ACCESSION_NUMBERS>
EXPT01859

>  <COMMON_NAME>
N-[Isoleucinyl]-N'-[adenosyl]-diaminosufone

>  <SYNONYMS>
5'-Deoxy-5'-[(L-isoleucylsulfamoyl)amino]adenosine

$$$$
