
 OpenBabel10282417133D

 42 44  0  0  0  0  0  0  0  0999 V2000
   -1.1285    1.5151   -0.0456 C   0  0  0  0  0  0  0  0  0  0  0  0
   -2.1961    0.6287   -0.0309 N   0  0  0  0  0  0  0  0  0  0  0  0
   -1.0139   -1.4318   -0.0193 N   0  0  0  0  0  0  0  0  0  0  0  0
    0.0658   -0.6257    0.0204 C   0  0  0  0  0  0  0  0  0  0  0  0
    0.0747    0.7598   -0.0057 C   0  0  0  0  0  0  0  0  0  0  0  0
    1.3661    1.1829    0.1687 N   0  3  0  0  0  0  0  0  0  0  0  0
    2.0171    0.0994    0.6420 C   0  0  0  0  0  0  0  0  0  0  0  0
    1.3658   -1.0306    0.2309 N   0  0  0  0  0  0  0  0  0  0  0  0
    1.8930   -2.4538    0.1244 C   0  0  2  0  0  0  0  0  0  0  0  0
    2.7981   -2.6396    1.2330 O   0  0  0  0  0  0  0  0  0  0  0  0
    3.9610   -3.4045    0.8562 C   0  0  1  0  0  0  0  0  0  0  0  0
    3.7401   -3.9343   -0.5781 C   0  0  1  0  0  0  0  0  0  0  0  0
    3.3332   -5.2960   -0.5722 O   0  0  0  0  0  0  0  0  0  0  0  0
    2.6034   -3.0653   -1.1528 C   0  0  1  0  0  0  0  0  0  0  0  0
    1.7938   -3.6231   -2.1796 O   0  0  0  0  0  0  0  0  0  0  0  0
    5.1851   -1.1835    0.7032 O   0  0  0  0  0  0  0  0  0  0  0  0
    3.4076   -0.4718   -0.8075 O   0  0  0  0  0  0  0  0  0  0  0  0
    4.7256   -1.1117   -0.9631 P   0  0  0  0  0  0  0  0  0  0  0  0
    4.2661   -1.0398   -2.6294 O   0  0  0  0  0  0  0  0  0  0  0  0
    5.6500    0.2117   -1.1484 O   0  0  0  0  0  0  0  0  0  0  0  0
    5.2591   -2.5640    1.1025 C   0  0  0  0  0  0  0  0  0  0  0  0
   -2.1214   -0.7479   -0.0181 C   0  0  0  0  0  0  0  0  0  0  0  0
   -3.3017   -1.3921    0.0002 N   0  0  0  0  0  0  0  0  0  0  0  0
   -1.2883    2.7125   -0.0237 O   0  0  0  0  0  0  0  0  0  0  0  0
    1.9384    2.5225    0.0286 C   0  0  0  0  0  0  0  0  0  0  0  0
   -3.0937    1.0858   -0.0116 H   0  0  0  0  0  0  0  0  0  0  0  0
    3.0281    0.1957    1.0282 H   0  0  0  0  0  0  0  0  0  0  0  0
    1.0308   -3.1081    0.2676 H   0  0  0  0  0  0  0  0  0  0  0  0
    4.0297   -4.2633    1.5363 H   0  0  0  0  0  0  0  0  0  0  0  0
    4.6860   -3.9020   -1.1441 H   0  0  0  0  0  0  0  0  0  0  0  0
    2.4357   -5.3562   -0.2085 H   0  0  0  0  0  0  0  0  0  0  0  0
    3.1005   -2.3771   -1.7760 H   0  0  0  0  0  0  0  0  0  0  0  0
    1.6098   -4.5586   -2.0270 H   0  0  0  0  0  0  0  0  0  0  0  0
    3.7114   -0.2402   -2.7170 H   0  0  0  0  0  0  0  0  0  0  0  0
    6.0793    0.4764   -0.3131 H   0  0  0  0  0  0  0  0  0  0  0  0
    5.4954   -2.5539    2.1723 H   0  0  0  0  0  0  0  0  0  0  0  0
    6.1167   -3.0190    0.5918 H   0  0  0  0  0  0  0  0  0  0  0  0
   -3.3069   -2.4059    0.0096 H   0  0  0  0  0  0  0  0  0  0  0  0
   -4.1960   -0.9245    0.0074 H   0  0  0  0  0  0  0  0  0  0  0  0
    2.5890    2.7100    0.8864 H   0  0  0  0  0  0  0  0  0  0  0  0
    2.5447    2.5924   -0.8841 H   0  0  0  0  0  0  0  0  0  0  0  0
    1.1671    3.2950   -0.0047 H   0  0  0  0  0  0  0  0  0  0  0  0
  1  2  1  0  0  0  0
  1  5  1  0  0  0  0
  2 22  1  0  0  0  0
  2 26  1  0  0  0  0
  3  4  1  0  0  0  0
  4  5  2  0  0  0  0
  4  8  1  0  0  0  0
  5  6  1  0  0  0  0
  6  7  2  0  0  0  0
  6 25  1  0  0  0  0
  7  8  1  0  0  0  0
  7 27  1  0  0  0  0
  9  8  1  0  0  0  0
  9 10  1  0  0  0  0
  9 14  1  0  0  0  0
  9 28  1  1  0  0  0
 10 11  1  0  0  0  0
 11 12  1  0  0  0  0
 11 29  1  1  0  0  0
 11 21  1  0  0  0  0
 12 13  1  0  0  0  0
 12 14  1  0  0  0  0
 12 30  1  6  0  0  0
 13 31  1  0  0  0  0
 14 15  1  0  0  0  0
 14 32  1  6  0  0  0
 15 33  1  0  0  0  0
 16 18  1  0  0  0  0
 18 17  2  0  0  0  0
 18 20  1  0  0  0  0
 18 19  1  0  0  0  0
 19 34  1  0  0  0  0
 20 35  1  0  0  0  0
 21 16  1  0  0  0  0
 21 36  1  0  0  0  0
 21 37  1  0  0  0  0
 22  3  2  0  0  0  0
 22 23  1  0  0  0  0
 23 38  1  0  0  0  0
 23 39  1  0  0  0  0
 24  1  2  0  0  0  0
 25 40  1  0  0  0  0
 25 41  1  0  0  0  0
 25 42  1  0  0  0  0
M  CHG  1   6   1
M  END
>  <DRUGBANK_ID>
DB03593

>  <SECONDARY_ACCESSION_NUMBERS>
EXPT01539

>  <COMMON_NAME>
7-methyl-5'-guanylic acid

>  <UNII>
M5SL28EU5R

>  <SYNONYMS>
7-methylguanosine 5'-(dihydrogen phosphate); 7-methylguanosine 5'-phosphate

$$$$
