
 OpenBabel10282417133D

 49 50  0  0  0  0  0  0  0  0999 V2000
   -8.5950   12.9818   -2.7172 N   0  0  0  0  0  0  0  0  0  0  0  0
   -7.5451   12.8668   -1.7047 C   0  0  1  0  0  0  0  0  0  0  0  0
   -9.2524   14.1436   -3.0537 C   0  0  0  0  0  0  0  0  0  0  0  0
   -8.1275   11.9680   -3.4853 C   0  0  0  0  0  0  0  0  0  0  0  0
   -7.1952   11.5077   -2.3480 C   0  0  1  0  0  0  0  0  0  0  0  0
   -6.3775   14.2292   -1.8977 S   0  0  0  0  0  0  0  0  0  0  0  0
   -8.8605   15.3237   -2.4956 C   0  0  0  0  0  0  0  0  0  0  0  0
  -10.4602   14.0945   -3.9913 C   0  0  0  0  0  0  0  0  0  0  0  0
   -8.4439   11.6252   -4.6071 O   0  0  0  0  0  0  0  0  0  0  0  0
   -5.7700   11.1815   -2.6296 N   0  0  0  0  0  0  0  0  0  0  0  0
   -7.6870   15.4415   -1.5212 C   0  0  0  0  0  0  0  0  0  0  0  0
   -9.5269   16.6569   -2.8107 C   0  0  0  0  0  0  0  0  0  0  0  0
  -10.8334   12.8778   -4.4307 O   0  0  0  0  0  0  0  0  0  0  0  0
  -11.1688   15.0564   -4.2447 O   0  0  0  0  0  0  0  0  0  0  0  0
   -9.4874   17.0045   -4.2172 O   0  0  0  0  0  0  0  0  0  0  0  0
   -3.8069    9.7231   -2.4198 C   0  0  0  0  0  0  0  0  0  0  0  0
   -8.3924   17.1175   -4.9953 C   0  0  0  0  0  0  0  0  0  0  0  0
   -3.1394    9.2723   -1.1162 C   0  0  0  0  0  0  0  0  0  0  0  0
   -7.0588   17.1070   -4.3295 C   0  0  0  0  0  0  0  0  0  0  0  0
   -8.4778   17.2479   -6.2127 O   0  0  0  0  0  0  0  0  0  0  0  0
   -3.7614    8.0542   -0.4066 C   0  0  0  0  0  0  0  0  0  0  0  0
   -3.6922    6.7376   -1.2042 C   0  0  2  0  0  0  0  0  0  0  0  0
   -2.2110    6.3841   -1.4175 C   0  0  0  0  0  0  0  0  0  0  0  0
   -4.4990    6.7022   -2.4425 N   0  0  0  0  0  0  0  0  0  0  0  0
   -1.7044    6.6444   -2.6460 O   0  0  0  0  0  0  0  0  0  0  0  0
   -1.4839    6.0135   -0.5042 O   0  0  0  0  0  0  0  0  0  0  0  0
   -7.9215   12.7610   -0.6814 H   0  0  0  0  0  0  0  0  0  0  0  0
   -5.2898    9.9604   -2.2345 C   0  0  0  0  0  0  0  0  0  0  0  0
   -6.0380    9.1021   -1.7707 O   0  0  0  0  0  0  0  0  0  0  0  0
   -7.6824   10.6898   -1.7993 H   0  0  0  0  0  0  0  0  0  0  0  0
   -5.1521   11.8296   -3.1078 H   0  0  0  0  0  0  0  0  0  0  0  0
   -8.0349   15.3346   -0.4901 H   0  0  0  0  0  0  0  0  0  0  0  0
   -7.1927   16.4141   -1.5442 H   0  0  0  0  0  0  0  0  0  0  0  0
  -10.5809   16.6082   -2.5050 H   0  0  0  0  0  0  0  0  0  0  0  0
   -9.1126   17.4959   -2.2438 H   0  0  0  0  0  0  0  0  0  0  0  0
  -10.1810   12.1571   -4.3587 H   0  0  0  0  0  0  0  0  0  0  0  0
   -3.6789    8.9928   -3.2170 H   0  0  0  0  0  0  0  0  0  0  0  0
   -3.3045   10.6110   -2.8104 H   0  0  0  0  0  0  0  0  0  0  0  0
   -2.0828    9.0558   -1.3158 H   0  0  0  0  0  0  0  0  0  0  0  0
   -3.1425   10.1171   -0.4167 H   0  0  0  0  0  0  0  0  0  0  0  0
   -6.4835   16.2338   -4.6462 H   0  0  0  0  0  0  0  0  0  0  0  0
   -6.5323   18.0396   -4.5236 H   0  0  0  0  0  0  0  0  0  0  0  0
   -7.1560   17.0913   -3.2627 H   0  0  0  0  0  0  0  0  0  0  0  0
   -3.2331    7.9132    0.5480 H   0  0  0  0  0  0  0  0  0  0  0  0
   -4.7902    8.2637   -0.0922 H   0  0  0  0  0  0  0  0  0  0  0  0
   -4.1136    5.9406   -0.5798 H   0  0  0  0  0  0  0  0  0  0  0  0
   -5.4031    7.1538   -2.2272 H   0  0  0  0  0  0  0  0  0  0  0  0
   -4.1381    7.2725   -3.1889 H   0  0  0  0  0  0  0  0  0  0  0  0
   -2.3676    6.8850   -3.3126 H   0  0  0  0  0  0  0  0  0  0  0  0
  1  2  1  0  0  0  0
  1  3  1  0  0  0  0
  1  4  1  0  0  0  0
  2  5  1  0  0  0  0
  2  6  1  0  0  0  0
  2 27  1  1  0  0  0
  3  7  2  0  0  0  0
  3  8  1  0  0  0  0
  4  9  2  0  0  0  0
  4  5  1  0  0  0  0
  5 10  1  0  0  0  0
  5 30  1  1  0  0  0
  6 11  1  0  0  0  0
  7 12  1  0  0  0  0
  7 11  1  0  0  0  0
  8 13  1  0  0  0  0
  8 14  2  0  0  0  0
 10 31  1  0  0  0  0
 11 32  1  0  0  0  0
 11 33  1  0  0  0  0
 12 15  1  0  0  0  0
 12 34  1  0  0  0  0
 12 35  1  0  0  0  0
 13 36  1  0  0  0  0
 15 17  1  0  0  0  0
 16 18  1  0  0  0  0
 16 28  1  0  0  0  0
 16 37  1  0  0  0  0
 16 38  1  0  0  0  0
 17 19  1  0  0  0  0
 17 20  2  0  0  0  0
 18 21  1  0  0  0  0
 18 39  1  0  0  0  0
 18 40  1  0  0  0  0
 19 41  1  0  0  0  0
 19 42  1  0  0  0  0
 19 43  1  0  0  0  0
 21 44  1  0  0  0  0
 21 45  1  0  0  0  0
 22 24  1  0  0  0  0
 22 46  1  1  0  0  0
 22 23  1  0  0  0  0
 22 21  1  0  0  0  0
 23 25  1  0  0  0  0
 23 26  2  0  0  0  0
 24 47  1  0  0  0  0
 24 48  1  0  0  0  0
 25 49  1  0  0  0  0
 28 10  1  0  0  0  0
 28 29  2  0  0  0  0
M  END
>  <DRUGBANK_ID>
DB03313

>  <SECONDARY_ACCESSION_NUMBERS>
EXPT01031

>  <COMMON_NAME>
Cephalosporin C

>  <CAS_NUMBER>
61-24-5

>  <UNII>
3XIY7HJT5L

>  <SYNONYMS>
7-(5-Amino-5-carboxyvaleramido)cephalosporanic acid; Cephalosporin C

$$$$
