
 OpenBabel10282417223D

 50 54  0  0  1  0  0  0  0  0999 V2000
    0.9958   -0.0342    0.0913 O   0  0  0  0  0  0  0  0  0  0  0  0
    2.2221   -0.0301    0.1810 C   0  0  0  0  0  0  0  0  0  0  0  0
    2.8938    1.1499    0.3550 N   0  0  0  0  0  0  0  0  0  0  0  0
    4.1717    1.1100    0.2823 C   0  0  0  0  0  0  0  0  0  0  0  0
    4.9293    2.2397    0.2207 O   0  0  0  0  0  0  0  0  0  0  0  0
    4.2365    3.5110    0.0695 C   0  0  0  0  0  0  0  0  0  0  0  0
    3.3813    3.6297   -1.2185 C   0  0  2  0  0  0  0  0  0  0  0  0
    3.6451    2.4943   -2.2216 C   0  0  0  0  0  0  0  0  0  0  0  0
    2.8524    2.6115   -3.3976 O   0  0  0  0  0  0  0  0  0  0  0  0
    3.1491    3.8428   -4.0355 C   0  0  0  0  0  0  0  0  0  0  0  0
    2.8704    5.0032   -3.0830 C   0  0  0  0  0  0  0  0  0  0  0  0
    3.6565    4.8952   -1.8780 O   0  0  0  0  0  0  0  0  0  0  0  0
    5.0124   -0.0744    0.1226 C   0  0  0  0  0  0  0  0  0  0  0  0
    4.3541   -1.2452    0.0829 C   0  0  0  0  0  0  0  0  0  0  0  0
    2.9627   -1.2237    0.1014 N   0  0  0  0  0  0  0  0  0  0  0  0
    2.1580   -2.4301    0.0742 C   0  0  0  0  0  0  0  0  0  0  0  0
    2.8555   -3.7735    0.0800 C   0  0  0  0  0  0  0  0  0  0  0  0
    4.3458   -3.7549    0.0409 C   0  0  0  0  0  0  0  0  0  0  0  0
    4.9844   -5.0208    0.0274 C   0  0  0  0  0  0  0  0  0  0  0  0
    6.3660   -5.1482   -0.0022 C   0  0  0  0  0  0  0  0  0  0  0  0
    7.1069   -3.9599    0.0291 C   0  0  0  0  0  0  0  0  0  0  0  0
    6.4694   -2.6902    0.0438 C   0  0  0  0  0  0  0  0  0  0  0  0
    5.0705   -2.5578    0.0399 C   0  0  0  0  0  0  0  0  0  0  0  0
    6.9462   -6.4788   -0.0687 C   0  0  0  0  0  0  0  0  0  0  0  0
    7.4551   -7.5855   -0.0682 C   0  0  0  0  0  0  0  0  0  0  0  0
    8.3366   -8.7171    0.1162 C   0  0  0  0  0  0  0  0  0  0  0  0
    8.7372   -9.5427   -1.0976 C   0  0  0  0  0  0  0  0  0  0  0  0
    8.1050  -10.2076    0.0848 C   0  0  0  0  0  0  0  0  0  0  0  0
    3.6198    3.6689    0.9637 H   0  0  0  0  0  0  0  0  0  0  0  0
    4.9975    4.3029    0.0938 H   0  0  0  0  0  0  0  0  0  0  0  0
    2.3230    3.6652   -0.9269 H   0  0  0  0  0  0  0  0  0  0  0  0
    3.3708    1.5187   -1.8499 H   0  0  0  0  0  0  0  0  0  0  0  0
    4.7093    2.4637   -2.4853 H   0  0  0  0  0  0  0  0  0  0  0  0
    4.2002    3.8191   -4.3426 H   0  0  0  0  0  0  0  0  0  0  0  0
    2.5182    3.8967   -4.9241 H   0  0  0  0  0  0  0  0  0  0  0  0
    1.8120    5.0255   -2.7994 H   0  0  0  0  0  0  0  0  0  0  0  0
    3.1221    5.9451   -3.5765 H   0  0  0  0  0  0  0  0  0  0  0  0
    6.0807    0.0625    0.0787 H   0  0  0  0  0  0  0  0  0  0  0  0
    1.5114   -2.3934    0.9611 H   0  0  0  0  0  0  0  0  0  0  0  0
    1.4797   -2.3864   -0.7891 H   0  0  0  0  0  0  0  0  0  0  0  0
    2.5585   -4.3064    0.9916 H   0  0  0  0  0  0  0  0  0  0  0  0
    2.4957   -4.3630   -0.7727 H   0  0  0  0  0  0  0  0  0  0  0  0
    4.3690   -5.9187    0.0387 H   0  0  0  0  0  0  0  0  0  0  0  0
    8.1938   -3.9787    0.0384 H   0  0  0  0  0  0  0  0  0  0  0  0
    7.1070   -1.8088    0.0584 H   0  0  0  0  0  0  0  0  0  0  0  0
    9.0684   -8.4810    0.8825 H   0  0  0  0  0  0  0  0  0  0  0  0
    8.1520   -9.5904   -2.0109 H   0  0  0  0  0  0  0  0  0  0  0  0
    9.7987   -9.6811   -1.2801 H   0  0  0  0  0  0  0  0  0  0  0  0
    8.7782  -10.8392    0.6701 H   0  0  0  0  0  0  0  0  0  0  0  0
    7.1293  -10.6614   -0.0198 H   0  0  0  0  0  0  0  0  0  0  0  0
  1  2  2  0  0  0  0
  2  3  1  0  0  0  0
  2 15  1  0  0  0  0
  3  4  2  0  0  0  0
  4  5  1  0  0  0  0
  4 13  1  0  0  0  0
  5  6  1  0  0  0  0
  6 29  1  0  0  0  0
  6 30  1  0  0  0  0
  7  6  1  0  0  0  0
  7  8  1  0  0  0  0
  7 12  1  0  0  0  0
  7 31  1  1  0  0  0
  8  9  1  0  0  0  0
  8 32  1  0  0  0  0
  8 33  1  0  0  0  0
  9 10  1  0  0  0  0
 10 11  1  0  0  0  0
 10 34  1  0  0  0  0
 10 35  1  0  0  0  0
 11 12  1  0  0  0  0
 11 36  1  0  0  0  0
 11 37  1  0  0  0  0
 13 14  2  0  0  0  0
 13 38  1  0  0  0  0
 14 15  1  0  0  0  0
 14 23  1  0  0  0  0
 15 16  1  0  0  0  0
 16 17  1  0  0  0  0
 16 39  1  0  0  0  0
 16 40  1  0  0  0  0
 17 18  1  0  0  0  0
 17 41  1  0  0  0  0
 17 42  1  0  0  0  0
 18 19  2  0  0  0  0
 18 23  1  0  0  0  0
 19 20  1  0  0  0  0
 19 43  1  0  0  0  0
 20 21  2  0  0  0  0
 20 24  1  0  0  0  0
 21 22  1  0  0  0  0
 21 44  1  0  0  0  0
 22 23  2  0  0  0  0
 22 45  1  0  0  0  0
 24 25  3  0  0  0  0
 25 26  1  0  0  0  0
 26 27  1  0  0  0  0
 26 28  1  0  0  0  0
 26 46  1  0  0  0  0
 27 28  1  0  0  0  0
 27 47  1  0  0  0  0
 27 48  1  0  0  0  0
 28 49  1  0  0  0  0
 28 50  1  0  0  0  0
M  END
>  <DRUGBANK_ID>
DB15346

>  <COMMON_NAME>
GLPG-1205

>  <CAS_NUMBER>
1445847-37-9

>  <UNII>
K9WR6LRA5D

$$$$
