
 OpenBabel10282417153D

 54 57  0  0  0  0  0  0  0  0999 V2000
    0.2760    1.1752    0.0185 C   0  0  0  0  0  0  0  0  0  0  0  0
    1.0244   -0.0168    0.0214 C   0  0  0  0  0  0  0  0  0  0  0  0
    0.3382   -1.2402    0.0295 C   0  0  0  0  0  0  0  0  0  0  0  0
   -1.0647   -1.2468    0.0196 C   0  0  0  0  0  0  0  0  0  0  0  0
   -1.8185   -0.0565   -0.0009 C   0  0  0  0  0  0  0  0  0  0  0  0
   -1.1245    1.1564    0.0157 C   0  0  0  0  0  0  0  0  0  0  0  0
   -4.8457   -1.4089   -1.0387 N   0  0  0  0  0  0  0  0  0  0  0  0
   -4.0219   -1.2103   -0.0037 C   0  0  0  0  0  0  0  0  0  0  0  0
   -3.2276   -0.0644    0.0374 N   0  0  0  0  0  0  0  0  0  0  0  0
   -5.4556   -2.6075   -1.0744 C   0  0  0  0  0  0  0  0  0  0  0  0
   -5.3328   -3.5619   -0.0881 C   0  0  0  0  0  0  0  0  0  0  0  0
   -4.5206   -3.2578    0.9851 C   0  0  0  0  0  0  0  0  0  0  0  0
   -3.8655   -2.0872    0.9959 N   0  0  0  0  0  0  0  0  0  0  0  0
   -4.2987   -4.1437    2.0552 N   0  0  0  0  0  0  0  0  0  0  0  0
   -3.4916   -3.8648    3.1967 C   0  0  0  0  0  0  0  0  0  0  0  0
   -5.0339   -5.4022    2.1021 C   0  0  0  0  0  0  0  0  0  0  0  0
    2.5197    0.0709   -0.0108 C   0  0  0  0  0  0  0  0  0  0  0  0
    1.1671   -2.8230   -0.0463 S   0  0  0  0  0  0  0  0  0  0  0  0
   -3.7539   -2.6706    3.9564 C   0  0  0  0  0  0  0  0  0  0  0  0
   -3.0260   -2.2613    5.0917 C   0  0  0  0  0  0  0  0  0  0  0  0
   -2.0005   -3.1513    5.3857 C   0  0  0  0  0  0  0  0  0  0  0  0
   -1.6703   -4.3567    4.6716 C   0  0  0  0  0  0  0  0  0  0  0  0
   -2.4306   -4.7485    3.5475 C   0  0  0  0  0  0  0  0  0  0  0  0
   -1.1133   -3.0265    6.4251 C   0  0  0  0  0  0  0  0  0  0  0  0
   -0.2978   -4.1267    6.3076 N   0  0  0  0  0  0  0  0  0  0  0  0
   -0.6007   -4.9313    5.2582 N   0  0  0  0  0  0  0  0  0  0  0  0
    0.8106   -4.4803    7.1701 C   0  0  0  0  0  0  0  0  0  0  0  0
   -0.9677   -2.0039    7.4875 C   0  0  0  0  0  0  0  0  0  0  0  0
    0.6781   -3.6123    1.3550 N   0  0  0  0  0  0  0  0  0  0  0  0
    0.6245   -3.5662   -1.1669 O   0  0  0  0  0  0  0  0  0  0  0  0
    2.5887   -2.6706    0.1231 O   0  0  0  0  0  0  0  0  0  0  0  0
    0.7854    2.1380    0.0071 H   0  0  0  0  0  0  0  0  0  0  0  0
   -1.5717   -2.2099   -0.0002 H   0  0  0  0  0  0  0  0  0  0  0  0
   -1.6604    2.1034    0.0123 H   0  0  0  0  0  0  0  0  0  0  0  0
   -3.7097    0.7531   -0.2996 H   0  0  0  0  0  0  0  0  0  0  0  0
   -6.0631   -2.8040   -1.9543 H   0  0  0  0  0  0  0  0  0  0  0  0
   -5.8561   -4.5015   -0.1833 H   0  0  0  0  0  0  0  0  0  0  0  0
   -6.1157   -5.2176    2.0675 H   0  0  0  0  0  0  0  0  0  0  0  0
   -4.7588   -6.0389    1.2541 H   0  0  0  0  0  0  0  0  0  0  0  0
   -4.8513   -5.9761    3.0171 H   0  0  0  0  0  0  0  0  0  0  0  0
    2.9392   -0.4039    0.8810 H   0  0  0  0  0  0  0  0  0  0  0  0
    2.8997   -0.4031   -0.9216 H   0  0  0  0  0  0  0  0  0  0  0  0
    2.8698    1.1066   -0.0131 H   0  0  0  0  0  0  0  0  0  0  0  0
   -4.5737   -2.0274    3.6322 H   0  0  0  0  0  0  0  0  0  0  0  0
   -3.2569   -1.3563    5.6335 H   0  0  0  0  0  0  0  0  0  0  0  0
   -2.1924   -5.6303    2.9711 H   0  0  0  0  0  0  0  0  0  0  0  0
    0.6070   -5.4523    7.6259 H   0  0  0  0  0  0  0  0  0  0  0  0
    1.7253   -4.5135    6.5733 H   0  0  0  0  0  0  0  0  0  0  0  0
    0.9267   -3.7335    7.9596 H   0  0  0  0  0  0  0  0  0  0  0  0
   -1.0879   -2.4567    8.4767 H   0  0  0  0  0  0  0  0  0  0  0  0
    0.0164   -1.5281    7.4324 H   0  0  0  0  0  0  0  0  0  0  0  0
   -1.7207   -1.2172    7.3913 H   0  0  0  0  0  0  0  0  0  0  0  0
    1.1076   -4.5400    1.3727 H   0  0  0  0  0  0  0  0  0  0  0  0
    0.9315   -3.0962    2.1983 H   0  0  0  0  0  0  0  0  0  0  0  0
  1  2  2  0  0  0  0
  1  6  1  0  0  0  0
  1 32  1  0  0  0  0
  2  3  1  0  0  0  0
  2 17  1  0  0  0  0
  3  4  2  0  0  0  0
  3 18  1  0  0  0  0
  4  5  1  0  0  0  0
  4 33  1  0  0  0  0
  5  6  2  0  0  0  0
  5  9  1  0  0  0  0
  6 34  1  0  0  0  0
  7  8  1  0  0  0  0
  7 10  2  0  0  0  0
  8  9  1  0  0  0  0
  8 13  2  0  0  0  0
  9 35  1  0  0  0  0
 10 11  1  0  0  0  0
 10 36  1  0  0  0  0
 11 12  2  0  0  0  0
 11 37  1  0  0  0  0
 12 13  1  0  0  0  0
 12 14  1  0  0  0  0
 14 15  1  0  0  0  0
 14 16  1  0  0  0  0
 15 19  1  0  0  0  0
 15 23  2  0  0  0  0
 16 38  1  0  0  0  0
 16 39  1  0  0  0  0
 16 40  1  0  0  0  0
 17 41  1  0  0  0  0
 17 42  1  0  0  0  0
 17 43  1  0  0  0  0
 18 29  1  0  0  0  0
 19 20  2  0  0  0  0
 19 44  1  0  0  0  0
 20 21  1  0  0  0  0
 20 45  1  0  0  0  0
 21 22  1  0  0  0  0
 21 24  2  0  0  0  0
 22 23  1  0  0  0  0
 22 26  2  0  0  0  0
 23 46  1  0  0  0  0
 24 25  1  0  0  0  0
 24 28  1  0  0  0  0
 25 26  1  0  0  0  0
 25 27  1  0  0  0  0
 27 47  1  0  0  0  0
 27 48  1  0  0  0  0
 27 49  1  0  0  0  0
 28 50  1  0  0  0  0
 28 51  1  0  0  0  0
 28 52  1  0  0  0  0
 29 53  1  0  0  0  0
 29 54  1  0  0  0  0
 30 18  2  0  0  0  0
 31 18  2  0  0  0  0
M  END
>  <DRUGBANK_ID>
DB06589

>  <COMMON_NAME>
Pazopanib

>  <CAS_NUMBER>
444731-52-6

>  <UNII>
7RN5DR86CK

>  <SYNONYMS>
Pazopanib; Pazopanibum

$$$$
