
 OpenBabel10282417133D

 26 25  0  0  0  0  0  0  0  0999 V2000
    0.9899   -0.2891    0.1170 C   0  0  0  0  0  0  0  0  0  0  0  0
    1.0020   -2.8812   -1.3460 C   0  0  0  0  0  0  0  0  0  0  0  0
   -1.4925   -1.0819   -1.5048 C   0  0  0  0  0  0  0  0  0  0  0  0
    0.5379    1.1621   -3.2844 C   0  0  0  0  0  0  0  0  0  0  0  0
    1.0611   -0.2638   -3.0307 C   0  0  3  0  0  0  0  0  0  0  0  0
    1.0285    2.2106   -2.3111 C   0  0  0  0  0  0  0  0  0  0  0  0
    2.5679   -0.3273   -3.1292 C   0  0  0  0  0  0  0  0  0  0  0  0
    1.9512    2.9779   -2.4808 O   0  0  0  0  0  0  0  0  0  0  0  0
    0.3603    2.1826   -1.1467 O   0  0  0  0  0  0  0  0  0  0  0  0
    3.2027   -0.9364   -3.9732 O   0  0  0  0  0  0  0  0  0  0  0  0
    3.1912    0.3572   -2.1551 O   0  0  0  0  0  0  0  0  0  0  0  0
    0.3778   -1.1254   -1.4454 Si  0  0  0  0  0  0  0  0  0  0  0  0
    0.8027   -0.9050    0.9963 H   0  0  0  0  0  0  0  0  0  0  0  0
    0.4622    0.6366    0.3210 H   0  0  0  0  0  0  0  0  0  0  0  0
    2.0613   -0.0819    0.0523 H   0  0  0  0  0  0  0  0  0  0  0  0
    0.6569   -3.3311   -0.4106 H   0  0  0  0  0  0  0  0  0  0  0  0
    0.6455   -3.4858   -2.1820 H   0  0  0  0  0  0  0  0  0  0  0  0
    2.0958   -2.8890   -1.3424 H   0  0  0  0  0  0  0  0  0  0  0  0
   -1.8583   -0.0561   -1.6143 H   0  0  0  0  0  0  0  0  0  0  0  0
   -1.8735   -1.6684   -2.3461 H   0  0  0  0  0  0  0  0  0  0  0  0
   -1.9074   -1.4910   -0.5803 H   0  0  0  0  0  0  0  0  0  0  0  0
    0.8506    1.4994   -4.2789 H   0  0  0  0  0  0  0  0  0  0  0  0
   -0.5589    1.1791   -3.2905 H   0  0  0  0  0  0  0  0  0  0  0  0
    0.6867   -0.8856   -3.8601 H   0  0  0  0  0  0  0  0  0  0  0  0
    0.9811    2.5586   -0.4850 H   0  0  0  0  0  0  0  0  0  0  0  0
    4.1514    0.2783   -2.3325 H   0  0  0  0  0  0  0  0  0  0  0  0
  1 13  1  0  0  0  0
  1 14  1  0  0  0  0
  1 15  1  0  0  0  0
  2 16  1  0  0  0  0
  2 17  1  0  0  0  0
  2 18  1  0  0  0  0
  3 19  1  0  0  0  0
  3 20  1  0  0  0  0
  3 21  1  0  0  0  0
  4 22  1  0  0  0  0
  4 23  1  0  0  0  0
  5  4  1  0  0  0  0
  5 24  1  0  0  0  0
  6  4  1  0  0  0  0
  7  5  1  0  0  0  0
  8  6  2  0  0  0  0
  9  6  1  0  0  0  0
  9 25  1  0  0  0  0
 10  7  2  0  0  0  0
 11  7  1  0  0  0  0
 11 26  1  0  0  0  0
 12  1  1  0  0  0  0
 12  2  1  0  0  0  0
 12  3  1  0  0  0  0
 12  5  1  0  0  0  0
M  END
>  <DRUGBANK_ID>
DB03452

>  <SECONDARY_ACCESSION_NUMBERS>
EXPT02910

>  <COMMON_NAME>
3-Trimethylsilylsuccinic Acid

$$$$
