
 OpenBabel10282417193D

 33 34  0  0  0  0  0  0  0  0999 V2000
    1.2111   -0.0978    0.0183 C   0  0  0  0  0  0  0  0  0  0  0  0
    0.5032    1.2199    0.3002 C   0  0  3  0  0  0  0  0  0  0  0  0
   -0.7293    1.1910   -0.5526 C   0  0  0  0  0  0  0  0  0  0  0  0
   -0.9127    2.3742   -1.4093 C   0  0  0  0  0  0  0  0  0  0  0  0
   -1.9221    2.1915   -2.2952 O   0  0  0  0  0  0  0  0  0  0  0  0
   -0.1834    3.4335   -1.4218 N   0  0  0  0  0  0  0  0  0  0  0  0
    0.9332    3.5081   -0.5619 N   0  0  0  0  0  0  0  0  0  0  0  0
    1.2886    2.4881    0.1653 C   0  0  0  0  0  0  0  0  0  0  0  0
    2.4311    2.6089    1.1053 C   0  0  0  0  0  0  0  0  0  0  0  0
    3.5764    1.7977    1.0940 C   0  0  0  0  0  0  0  0  0  0  0  0
    4.6599    1.9942    1.9876 C   0  0  0  0  0  0  0  0  0  0  0  0
    4.6516    3.0930    2.8183 C   0  0  0  0  0  0  0  0  0  0  0  0
    5.6365    3.4887    3.7279 N   0  0  0  0  0  0  0  0  0  0  0  0
    5.5765    4.5426    4.6530 N   0  0  0  0  0  0  0  0  0  0  0  0
    4.6348    5.4069    4.9480 C   0  0  0  0  0  0  0  0  0  0  0  0
    3.2990    5.6104    4.4561 C   0  0  0  0  0  0  0  0  0  0  0  0
    2.2621    5.9396    4.0385 N   0  0  0  0  0  0  0  0  0  0  0  0
    4.9584    6.4343    5.8840 C   0  0  0  0  0  0  0  0  0  0  0  0
    4.9812    7.3757    6.5853 N   0  0  0  0  0  0  0  0  0  0  0  0
    3.6144    3.9425    2.5451 C   0  0  0  0  0  0  0  0  0  0  0  0
    2.3913    3.6348    1.9903 C   0  0  0  0  0  0  0  0  0  0  0  0
    1.0218   -0.4603   -0.9969 H   0  0  0  0  0  0  0  0  0  0  0  0
    0.8131   -0.8430    0.7096 H   0  0  0  0  0  0  0  0  0  0  0  0
    2.2853   -0.1082    0.0756 H   0  0  0  0  0  0  0  0  0  0  0  0
    0.2111    1.2477    1.3629 H   0  0  0  0  0  0  0  0  0  0  0  0
   -0.6573    0.3826   -1.2858 H   0  0  0  0  0  0  0  0  0  0  0  0
   -1.6057    0.9845    0.0634 H   0  0  0  0  0  0  0  0  0  0  0  0
   -2.3059    1.2987   -2.2324 H   0  0  0  0  0  0  0  0  0  0  0  0
    3.6789    1.0194    0.3592 H   0  0  0  0  0  0  0  0  0  0  0  0
    5.5231    1.3414    1.8972 H   0  0  0  0  0  0  0  0  0  0  0  0
    6.4155    2.8305    3.8407 H   0  0  0  0  0  0  0  0  0  0  0  0
    3.9227    4.9787    2.4670 H   0  0  0  0  0  0  0  0  0  0  0  0
    1.5430    4.3037    2.1045 H   0  0  0  0  0  0  0  0  0  0  0  0
  1  2  1  0  0  0  0
  1 22  1  0  0  0  0
  1 23  1  0  0  0  0
  1 24  1  0  0  0  0
  2  3  1  0  0  0  0
  2  8  1  0  0  0  0
  2 25  1  0  0  0  0
  3  4  1  0  0  0  0
  3 26  1  0  0  0  0
  3 27  1  0  0  0  0
  4  5  1  0  0  0  0
  4  6  2  0  0  0  0
  5 28  1  0  0  0  0
  6  7  1  0  0  0  0
  7  8  2  0  0  0  0
  8  9  1  0  0  0  0
  9 10  2  0  0  0  0
  9 21  1  0  0  0  0
 10 11  1  0  0  0  0
 10 29  1  0  0  0  0
 11 12  2  0  0  0  0
 11 30  1  0  0  0  0
 12 13  1  0  0  0  0
 12 20  1  0  0  0  0
 13 14  1  0  0  0  0
 13 31  1  0  0  0  0
 14 15  2  0  0  0  0
 15 16  1  0  0  0  0
 15 18  1  0  0  0  0
 16 17  3  0  0  0  0
 18 19  3  0  0  0  0
 20 21  2  0  0  0  0
 20 32  1  0  0  0  0
 21 33  1  0  0  0  0
M  END
>  <DRUGBANK_ID>
DB12286

>  <COMMON_NAME>
Simendan

>  <CAS_NUMBER>
131741-08-7

>  <UNII>
349552KRHK

>  <SYNONYMS>
Simendan

$$$$
