
 OpenBabel10282417133D

 24 24  0  0  1  0  0  0  0  0999 V2000
   -1.3850   -0.3986    0.0054 C   0  0  0  0  0  0  0  0  0  0  0  0
   -0.8552   -2.8234    0.0087 C   0  0  0  0  0  0  0  0  0  0  0  0
   -0.4603   -1.3737    0.0081 C   0  0  0  0  0  0  0  0  0  0  0  0
   -1.0869    1.0548   -0.0247 C   0  0  1  0  0  0  0  0  0  0  0  0
    1.0047   -1.0888   -0.0466 C   0  0  2  0  0  0  0  0  0  0  0  0
    0.3990    1.4837    0.0123 C   0  0  1  0  0  0  0  0  0  0  0  0
    1.4686    0.3799    0.0326 C   0  0  1  0  0  0  0  0  0  0  0  0
   -1.6289   -3.1048    1.1664 O   0  0  0  0  0  0  0  0  0  0  0  0
   -1.7345    1.5654   -1.1914 O   0  0  0  0  0  0  0  0  0  0  0  0
    1.4716   -1.6421   -1.2835 O   0  0  0  0  0  0  0  0  0  0  0  0
    0.7420    2.3691   -1.0773 O   0  0  0  0  0  0  0  0  0  0  0  0
    2.2549    0.5609    1.2312 O   0  0  0  0  0  0  0  0  0  0  0  0
   -1.5884    1.4929    0.8486 H   0  0  0  0  0  0  0  0  0  0  0  0
    1.4945   -1.6547    0.7563 H   0  0  0  0  0  0  0  0  0  0  0  0
    0.5226    2.0975    0.9131 H   0  0  0  0  0  0  0  0  0  0  0  0
    2.1654    0.5609   -0.7981 H   0  0  0  0  0  0  0  0  0  0  0  0
   -2.4390   -0.6722    0.0167 H   0  0  0  0  0  0  0  0  0  0  0  0
   -1.4508   -3.0570   -0.8801 H   0  0  0  0  0  0  0  0  0  0  0  0
    0.0147   -3.4882    0.0103 H   0  0  0  0  0  0  0  0  0  0  0  0
   -1.0779   -2.8708    1.9319 H   0  0  0  0  0  0  0  0  0  0  0  0
   -1.9507    2.4970   -1.0293 H   0  0  0  0  0  0  0  0  0  0  0  0
    1.0674   -1.1073   -1.9922 H   0  0  0  0  0  0  0  0  0  0  0  0
   -0.0276    2.9290   -1.2601 H   0  0  0  0  0  0  0  0  0  0  0  0
    3.1844    0.6063    0.9418 H   0  0  0  0  0  0  0  0  0  0  0  0
  1 17  1  0  0  0  0
  2 18  1  0  0  0  0
  2 19  1  0  0  0  0
  3  1  2  0  0  0  0
  3  2  1  0  0  0  0
  4  1  1  0  0  0  0
  4 13  1  1  0  0  0
  4  9  1  0  0  0  0
  5  3  1  0  0  0  0
  5 10  1  0  0  0  0
  5 14  1  1  0  0  0
  6  4  1  0  0  0  0
  6 15  1  1  0  0  0
  6 11  1  0  0  0  0
  7  5  1  0  0  0  0
  7  6  1  0  0  0  0
  7 16  1  6  0  0  0
  7 12  1  0  0  0  0
  8  2  1  0  0  0  0
  8 20  1  0  0  0  0
  9 21  1  0  0  0  0
 10 22  1  0  0  0  0
 11 23  1  0  0  0  0
 12 24  1  0  0  0  0
M  END
>  <DRUGBANK_ID>
DB03092

>  <SECONDARY_ACCESSION_NUMBERS>
EXPT01756

>  <COMMON_NAME>
5-Hydroxymethyl-Chonduritol

>  <UNII>
J5344DZ89S

$$$$
