ALH
 OpenBabel10282417163D

 37 39  0  0  0  0  0  0  0  0999 V2000
    2.3049   -0.0971    0.0763 O   0  0  0  0  0  0  0  0  0  0  0  0
    0.9668   -0.1711    0.3262 C   0  0  0  0  0  0  0  0  0  0  0  0
    0.2268   -1.3350    0.1480 C   0  0  0  0  0  0  0  0  0  0  0  0
   -1.1865   -1.2809    0.1558 C   0  0  0  0  0  0  0  0  0  0  0  0
   -1.8652   -0.0853    0.4249 C   0  0  0  0  0  0  0  0  0  0  0  0
   -1.0716    0.9891    0.8923 C   0  0  0  0  0  0  0  0  0  0  0  0
    0.3213    0.9961    0.6893 C   0  0  0  0  0  0  0  0  0  0  0  0
   -3.3337    0.0730    0.0993 C   0  0  0  0  0  0  0  0  0  0  0  0
   -4.2528   -0.4763    0.9880 N   0  0  0  0  0  0  0  0  0  0  0  0
   -5.5410   -0.2130    0.5961 C   0  0  0  0  0  0  0  0  0  0  0  0
   -6.6497   -0.5758    1.2808 N   0  0  0  0  0  0  0  0  0  0  0  0
   -5.4920    0.4758   -0.5947 C   0  0  0  0  0  0  0  0  0  0  0  0
   -6.6383    0.8690   -1.2359 N   0  0  0  0  0  0  0  0  0  0  0  0
   -7.7641    0.5298   -0.5637 C   0  0  0  0  0  0  0  0  0  0  0  0
   -7.7697   -0.1586    0.6397 C   0  0  0  0  0  0  0  0  0  0  0  0
   -4.1087    0.6610   -0.9555 C   0  0  0  0  0  0  0  0  0  0  0  0
   -3.7607    1.3491   -2.2918 C   0  0  0  0  0  0  0  0  0  0  0  0
   -2.9251    2.6378   -2.2219 C   0  0  0  0  0  0  0  0  0  0  0  0
   -1.5730    2.3255   -1.6548 C   0  0  0  0  0  0  0  0  0  0  0  0
   -0.7923    1.2316   -2.3755 C   0  0  0  0  0  0  0  0  0  0  0  0
    2.6596   -0.9894   -0.0622 H   0  0  0  0  0  0  0  0  0  0  0  0
    0.7223   -2.2687   -0.0959 H   0  0  0  0  0  0  0  0  0  0  0  0
   -1.7442   -2.1731   -0.1141 H   0  0  0  0  0  0  0  0  0  0  0  0
   -1.5276    1.9445    1.1587 H   0  0  0  0  0  0  0  0  0  0  0  0
    0.8641    1.9425    0.6505 H   0  0  0  0  0  0  0  0  0  0  0  0
   -4.0221   -0.9695    1.8206 H   0  0  0  0  0  0  0  0  0  0  0  0
   -8.6993    0.8367   -1.0273 H   0  0  0  0  0  0  0  0  0  0  0  0
   -8.7054   -0.3991    1.1370 H   0  0  0  0  0  0  0  0  0  0  0  0
   -3.2950    0.6141   -2.9556 H   0  0  0  0  0  0  0  0  0  0  0  0
   -4.6863    1.6257   -2.8166 H   0  0  0  0  0  0  0  0  0  0  0  0
   -2.7883    3.1200   -3.1926 H   0  0  0  0  0  0  0  0  0  0  0  0
   -3.4270    3.3576   -1.5589 H   0  0  0  0  0  0  0  0  0  0  0  0
   -0.9496    3.1839   -1.3971 H   0  0  0  0  0  0  0  0  0  0  0  0
   -1.9217    2.0035   -0.7071 H   0  0  0  0  0  0  0  0  0  0  0  0
   -0.4641    1.5800   -3.3510 H   0  0  0  0  0  0  0  0  0  0  0  0
    0.1066    0.9421   -1.8363 H   0  0  0  0  0  0  0  0  0  0  0  0
   -1.3554    0.3001   -2.4998 H   0  0  0  0  0  0  0  0  0  0  0  0
  1  2  1  0  0  0  0
  1 21  1  0  0  0  0
  2  3  2  0  0  0  0
  2  7  1  0  0  0  0
  3  4  1  0  0  0  0
  3 22  1  0  0  0  0
  4  5  2  0  0  0  0
  4 23  1  0  0  0  0
  5  6  1  0  0  0  0
  5  8  1  0  0  0  0
  6  7  2  0  0  0  0
  6 24  1  0  0  0  0
  7 25  1  0  0  0  0
  8  9  1  0  0  0  0
  8 16  2  0  0  0  0
  9 10  1  0  0  0  0
  9 26  1  0  0  0  0
 10 11  2  0  0  0  0
 10 12  1  0  0  0  0
 11 15  1  0  0  0  0
 12 13  2  0  0  0  0
 12 16  1  0  0  0  0
 13 14  1  0  0  0  0
 14 15  2  0  0  0  0
 14 27  1  0  0  0  0
 15 28  1  0  0  0  0
 16 17  1  0  0  0  0
 17 18  1  0  0  0  0
 17 29  1  0  0  0  0
 17 30  1  0  0  0  0
 18 19  1  0  0  0  0
 18 31  1  0  0  0  0
 18 32  1  0  0  0  0
 19 20  1  0  0  0  0
 19 33  1  0  0  0  0
 19 34  1  0  0  0  0
 20 35  1  0  0  0  0
 20 36  1  0  0  0  0
 20 37  1  0  0  0  0
M  END
>  <DRUGBANK_ID>
DB07364

>  <COMMON_NAME>
6-PHENYL[5H]PYRROLO[2,3-B]PYRAZINE

$$$$
