
 OpenBabel10282417183D

 20 20  0  0  0  0  0  0  0  0999 V2000
   -0.0991   -1.0805    0.0301 N   0  0  0  0  0  0  0  0  0  0  0  0
    0.7214    0.0297    0.0561 C   0  0  0  0  0  0  0  0  0  0  0  0
   -1.5017   -0.7416    0.0700 C   0  0  0  0  0  0  0  0  0  0  0  0
    0.3767   -2.4558    0.0339 C   0  0  0  0  0  0  0  0  0  0  0  0
   -0.1591    1.2404    0.2229 C   0  0  0  0  0  0  0  0  0  0  0  0
    1.9412    0.0349    0.0170 O   0  0  0  0  0  0  0  0  0  0  0  0
   -1.5129    0.7393   -0.2658 C   0  0  0  0  0  0  0  0  0  0  0  0
   -0.0904   -3.2253    1.2691 C   0  0  0  0  0  0  0  0  0  0  0  0
   -0.7520   -4.2574    1.2038 O   0  0  0  0  0  0  0  0  0  0  0  0
    0.3006   -2.7287    2.4796 N   0  0  0  0  0  0  0  0  0  0  0  0
   -1.8937   -0.9352    1.0735 H   0  0  0  0  0  0  0  0  0  0  0  0
   -2.0571   -1.3292   -0.6669 H   0  0  0  0  0  0  0  0  0  0  0  0
   -0.0029   -2.9490   -0.8656 H   0  0  0  0  0  0  0  0  0  0  0  0
    1.4716   -2.4743    0.0038 H   0  0  0  0  0  0  0  0  0  0  0  0
   -0.1874    1.5047    1.2849 H   0  0  0  0  0  0  0  0  0  0  0  0
    0.2036    2.0836   -0.3689 H   0  0  0  0  0  0  0  0  0  0  0  0
   -2.3546    1.2730    0.1846 H   0  0  0  0  0  0  0  0  0  0  0  0
   -1.5757    0.8710   -1.3533 H   0  0  0  0  0  0  0  0  0  0  0  0
    0.8941   -1.9147    2.5702 H   0  0  0  0  0  0  0  0  0  0  0  0
    0.0241   -3.2348    3.3110 H   0  0  0  0  0  0  0  0  0  0  0  0
  1  2  1  0  0  0  0
  1  3  1  0  0  0  0
  1  4  1  0  0  0  0
  2  5  1  0  0  0  0
  2  6  2  0  0  0  0
  3  7  1  0  0  0  0
  3 11  1  0  0  0  0
  3 12  1  0  0  0  0
  4  8  1  0  0  0  0
  4 13  1  0  0  0  0
  4 14  1  0  0  0  0
  5  7  1  0  0  0  0
  5 15  1  0  0  0  0
  5 16  1  0  0  0  0
  7 17  1  0  0  0  0
  7 18  1  0  0  0  0
  8  9  2  0  0  0  0
  8 10  1  0  0  0  0
 10 19  1  0  0  0  0
 10 20  1  0  0  0  0
M  END
>  <DRUGBANK_ID>
DB09210

>  <COMMON_NAME>
Piracetam

>  <CAS_NUMBER>
7491-74-9

>  <UNII>
ZH516LNZ10

>  <SYNONYMS>
Piracetam; Piracetamum

$$$$
