
 OpenBabel10282417193D

 47 50  0  0  1  0  0  0  0  0999 V2000
    1.0266   -0.1390   -0.1575 C   0  0  0  0  0  0  0  0  0  0  0  0
    0.5505    1.1274    0.4297 C   0  0  0  0  0  0  0  0  0  0  0  0
   -0.7659    1.4743    0.5741 C   0  0  0  0  0  0  0  0  0  0  0  0
   -0.8564    2.7911    0.8212 N   0  0  0  0  0  0  0  0  0  0  0  0
    0.3590    3.2451    1.0553 C   0  0  0  0  0  0  0  0  0  0  0  0
    1.2786    2.2531    0.8086 N   0  0  0  0  0  0  0  0  0  0  0  0
    2.6646    2.3970    0.9833 C   0  0  0  0  0  0  0  0  0  0  0  0
    3.3951    1.2565    1.3555 C   0  0  0  0  0  0  0  0  0  0  0  0
    4.7748    1.3086    1.4626 C   0  0  0  0  0  0  0  0  0  0  0  0
    5.4197    2.5214    1.2609 C   0  0  0  0  0  0  0  0  0  0  0  0
    4.6987    3.6809    0.9504 C   0  0  0  0  0  0  0  0  0  0  0  0
    3.3015    3.6408    0.8006 C   0  0  0  0  0  0  0  0  0  0  0  0
    2.6007    4.9184    0.3567 C   0  0  0  0  0  0  0  0  0  0  0  0
    1.4664    5.3711    0.7871 N   0  0  0  0  0  0  0  0  0  0  0  0
    0.7214    4.5569    1.7407 C   0  0  1  0  0  0  0  0  0  0  0  0
   -0.5373    5.3324    2.2343 C   0  0  0  0  0  0  0  0  0  0  0  0
   -1.7145    4.4305    2.6357 C   0  0  0  0  0  0  0  0  0  0  0  0
   -1.3761    3.3656    3.7072 C   0  0  0  0  0  0  0  0  0  0  0  0
   -2.1738    2.9995    4.5467 O   0  0  0  0  0  0  0  0  0  0  0  0
   -0.0965    2.8853    3.6416 O   0  0  0  0  0  0  0  0  0  0  0  0
    0.3268    1.8901    4.5829 C   0  0  0  0  0  0  0  0  0  0  0  0
    3.2807    5.6870   -0.7265 C   0  0  0  0  0  0  0  0  0  0  0  0
    3.5198    5.0409   -1.9320 C   0  0  0  0  0  0  0  0  0  0  0  0
    4.4327    5.6173   -2.8035 C   0  0  0  0  0  0  0  0  0  0  0  0
    4.9714    6.8621   -2.4957 C   0  0  0  0  0  0  0  0  0  0  0  0
    4.5521    7.4948   -1.3337 C   0  0  0  0  0  0  0  0  0  0  0  0
    3.7579    6.9137   -0.4088 N   0  0  0  0  0  0  0  0  0  0  0  0
    7.2994    2.5924    1.4255 Br  0  0  0  0  0  0  0  0  0  0  0  0
    0.5886   -0.2356   -1.1573 H   0  0  0  0  0  0  0  0  0  0  0  0
    0.6755   -0.9793    0.4493 H   0  0  0  0  0  0  0  0  0  0  0  0
    2.1035   -0.2072   -0.2850 H   0  0  0  0  0  0  0  0  0  0  0  0
   -1.6482    0.8648    0.4247 H   0  0  0  0  0  0  0  0  0  0  0  0
    2.9013    0.3180    1.5979 H   0  0  0  0  0  0  0  0  0  0  0  0
    5.3211    0.4022    1.7114 H   0  0  0  0  0  0  0  0  0  0  0  0
    5.2368    4.6172    0.8175 H   0  0  0  0  0  0  0  0  0  0  0  0
    1.3509    4.4089    2.6330 H   0  0  0  0  0  0  0  0  0  0  0  0
   -0.2875    5.9574    3.1046 H   0  0  0  0  0  0  0  0  0  0  0  0
   -0.8664    6.0393    1.4594 H   0  0  0  0  0  0  0  0  0  0  0  0
   -2.5583    5.0215    3.0004 H   0  0  0  0  0  0  0  0  0  0  0  0
   -2.1680    4.0114    1.7333 H   0  0  0  0  0  0  0  0  0  0  0  0
    0.3975    2.3375    5.5758 H   0  0  0  0  0  0  0  0  0  0  0  0
   -0.3343    1.0196    4.5753 H   0  0  0  0  0  0  0  0  0  0  0  0
    1.3322    1.5456    4.3002 H   0  0  0  0  0  0  0  0  0  0  0  0
    3.0337    4.1012   -2.1672 H   0  0  0  0  0  0  0  0  0  0  0  0
    4.7238    5.0985   -3.7118 H   0  0  0  0  0  0  0  0  0  0  0  0
    5.6875    7.3364   -3.1581 H   0  0  0  0  0  0  0  0  0  0  0  0
    4.8624    8.5125   -1.1118 H   0  0  0  0  0  0  0  0  0  0  0  0
  1  2  1  0  0  0  0
  1 29  1  0  0  0  0
  1 30  1  0  0  0  0
  1 31  1  0  0  0  0
  2  3  2  0  0  0  0
  2  6  1  0  0  0  0
  3  4  1  0  0  0  0
  3 32  1  0  0  0  0
  4  5  2  0  0  0  0
  5  6  1  0  0  0  0
  5 15  1  0  0  0  0
  6  7  1  0  0  0  0
  7  8  2  0  0  0  0
  7 12  1  0  0  0  0
  8  9  1  0  0  0  0
  8 33  1  0  0  0  0
  9 10  2  0  0  0  0
  9 34  1  0  0  0  0
 10 11  1  0  0  0  0
 10 28  1  0  0  0  0
 11 12  2  0  0  0  0
 11 35  1  0  0  0  0
 12 13  1  0  0  0  0
 13 14  2  0  0  0  0
 13 22  1  0  0  0  0
 14 15  1  0  0  0  0
 15 36  1  1  0  0  0
 15 16  1  0  0  0  0
 16 17  1  0  0  0  0
 16 37  1  0  0  0  0
 16 38  1  0  0  0  0
 17 18  1  0  0  0  0
 17 39  1  0  0  0  0
 17 40  1  0  0  0  0
 18 19  2  0  0  0  0
 18 20  1  0  0  0  0
 20 21  1  0  0  0  0
 21 41  1  0  0  0  0
 21 42  1  0  0  0  0
 21 43  1  0  0  0  0
 22 23  2  0  0  0  0
 22 27  1  0  0  0  0
 23 24  1  0  0  0  0
 23 44  1  0  0  0  0
 24 25  2  0  0  0  0
 24 45  1  0  0  0  0
 25 26  1  0  0  0  0
 25 46  1  0  0  0  0
 26 27  2  0  0  0  0
 26 47  1  0  0  0  0
M  END
>  <DRUGBANK_ID>
DB12404

>  <COMMON_NAME>
Remimazolam

>  <CAS_NUMBER>
308242-62-8

>  <UNII>
7V4A8U16MB

>  <SYNONYMS>
Remimazolam

$$$$
