
 OpenBabel10282417173D

 71 75  0  0  0  0  0  0  0  0999 V2000
   -1.6584    0.1296   -0.0975 C   0  0  0  0  0  0  0  0  0  0  0  0
   -0.9795    0.7788   -6.0833 C   0  0  0  0  0  0  0  0  0  0  0  0
   -1.8837   -0.1282   -5.5449 C   0  0  0  0  0  0  0  0  0  0  0  0
   -0.8419    1.3727    0.2528 C   0  0  0  0  0  0  0  0  0  0  0  0
   -0.9682   -1.0923    0.4674 C   0  0  0  0  0  0  0  0  0  0  0  0
    1.0409   -3.9247   -2.0249 C   0  0  0  0  0  0  0  0  0  0  0  0
    0.3862    0.5457   -5.9718 C   0  0  0  0  0  0  0  0  0  0  0  0
   -1.4167   -1.2542   -4.8659 C   0  0  0  0  0  0  0  0  0  0  0  0
    2.3436   -0.8922   -5.4865 C   0  0  0  0  0  0  0  0  0  0  0  0
    2.6827   -2.2021   -6.1813 C   0  0  0  0  0  0  0  0  0  0  0  0
    2.6111   -4.6489   -6.4822 C   0  0  0  0  0  0  0  0  0  0  0  0
    2.1891   -5.9522   -6.2166 C   0  0  0  0  0  0  0  0  0  0  0  0
    3.0235   -0.0269   -1.6571 C   0  0  0  0  0  0  0  0  0  0  0  0
    3.5305   -1.2607    0.4581 C   0  0  0  0  0  0  0  0  0  0  0  0
    2.5833   -3.7532   -2.2346 C   0  0  0  0  0  0  0  0  0  0  0  0
    0.6003    1.2989   -0.2858 C   0  0  0  0  0  0  0  0  0  0  0  0
    0.4882   -1.0133    0.0831 C   0  0  0  0  0  0  0  0  0  0  0  0
    0.0377   -3.0107   -2.8080 C   0  0  0  0  0  0  0  0  0  0  0  0
    2.6236   -1.3888   -2.1434 C   0  0  0  0  0  0  0  0  0  0  0  0
    3.2219   -2.6215   -0.1870 C   0  0  0  0  0  0  0  0  0  0  0  0
    0.5105   -5.0905   -4.7538 C   0  0  0  0  0  0  0  0  0  0  0  0
    0.8698   -0.6241   -5.3689 C   0  0  0  0  0  0  0  0  0  0  0  0
    2.0277   -3.5346   -5.8536 C   0  0  0  0  0  0  0  0  0  0  0  0
    1.1474   -6.1709   -5.3349 C   0  0  0  0  0  0  0  0  0  0  0  0
   -0.0386   -1.5250   -4.7745 C   0  0  0  0  0  0  0  0  0  0  0  0
    0.9632   -3.7686   -4.9642 C   0  0  0  0  0  0  0  0  0  0  0  0
    3.5779    1.2263    0.4256 C   0  0  0  0  0  0  0  0  0  0  0  0
    2.7953    0.0104   -0.1241 C   0  0  0  0  0  0  0  0  0  0  0  0
    0.6617   -7.7665   -4.9222 Cl  0  0  0  0  0  0  0  0  0  0  0  0
    3.1638    2.0904    1.2638 N   0  0  0  0  0  0  0  0  0  0  0  0
    3.2620   -2.5774   -1.6389 N   0  0  0  0  0  0  0  0  0  0  0  0
    1.3217    0.1634    0.3556 N   0  0  0  0  0  0  0  0  0  0  0  0
    0.3927   -2.7406   -4.2119 N   0  0  0  0  0  0  0  0  0  0  0  0
    4.8374    1.3852   -0.0048 O   0  0  0  0  0  0  0  0  0  0  0  0
   -2.6784    0.1807    0.2869 H   0  0  0  0  0  0  0  0  0  0  0  0
   -1.7288    0.0397   -1.1927 H   0  0  0  0  0  0  0  0  0  0  0  0
   -1.3305    1.6502   -6.6274 H   0  0  0  0  0  0  0  0  0  0  0  0
   -2.9507    0.0234   -5.6818 H   0  0  0  0  0  0  0  0  0  0  0  0
   -1.3339    2.2547   -0.1619 H   0  0  0  0  0  0  0  0  0  0  0  0
   -0.8100    1.4773    1.3436 H   0  0  0  0  0  0  0  0  0  0  0  0
   -1.0687   -1.1987    1.5471 H   0  0  0  0  0  0  0  0  0  0  0  0
   -1.3916   -1.9966   -0.0012 H   0  0  0  0  0  0  0  0  0  0  0  0
    0.8125   -4.9688   -2.2615 H   0  0  0  0  0  0  0  0  0  0  0  0
    0.7960   -3.8748   -0.9589 H   0  0  0  0  0  0  0  0  0  0  0  0
    1.0825    1.2523   -6.4173 H   0  0  0  0  0  0  0  0  0  0  0  0
   -2.1395   -1.9721   -4.4849 H   0  0  0  0  0  0  0  0  0  0  0  0
    2.8250   -0.0626   -6.0204 H   0  0  0  0  0  0  0  0  0  0  0  0
    2.9175   -0.7944   -4.5815 H   0  0  0  0  0  0  0  0  0  0  0  0
    3.7624   -2.3382   -6.0190 H   0  0  0  0  0  0  0  0  0  0  0  0
    2.5359   -2.0277   -7.2520 H   0  0  0  0  0  0  0  0  0  0  0  0
    3.4366   -4.4926   -7.1722 H   0  0  0  0  0  0  0  0  0  0  0  0
    2.6813   -6.7856   -6.7032 H   0  0  0  0  0  0  0  0  0  0  0  0
    2.4364    0.7470   -2.1684 H   0  0  0  0  0  0  0  0  0  0  0  0
    4.0591    0.1805   -1.9551 H   0  0  0  0  0  0  0  0  0  0  0  0
    4.6142   -1.1252    0.3297 H   0  0  0  0  0  0  0  0  0  0  0  0
    3.3573   -1.3312    1.5360 H   0  0  0  0  0  0  0  0  0  0  0  0
    2.8278   -3.7507   -3.2987 H   0  0  0  0  0  0  0  0  0  0  0  0
    3.0841   -4.6560   -1.8659 H   0  0  0  0  0  0  0  0  0  0  0  0
    0.5590    1.1897   -1.3771 H   0  0  0  0  0  0  0  0  0  0  0  0
    1.0834    2.2587   -0.0931 H   0  0  0  0  0  0  0  0  0  0  0  0
    0.9125   -1.9306    0.4413 H   0  0  0  0  0  0  0  0  0  0  0  0
    0.3466   -0.9892   -0.9752 H   0  0  0  0  0  0  0  0  0  0  0  0
   -0.9880   -3.3764   -2.6722 H   0  0  0  0  0  0  0  0  0  0  0  0
   -0.0338   -2.0422   -2.3435 H   0  0  0  0  0  0  0  0  0  0  0  0
    1.6148   -1.4562   -1.8839 H   0  0  0  0  0  0  0  0  0  0  0  0
    2.5278   -1.4846   -3.1879 H   0  0  0  0  0  0  0  0  0  0  0  0
    3.9323   -3.3777    0.1619 H   0  0  0  0  0  0  0  0  0  0  0  0
    2.2755   -3.0144    0.1659 H   0  0  0  0  0  0  0  0  0  0  0  0
   -0.3253   -5.2791   -4.0822 H   0  0  0  0  0  0  0  0  0  0  0  0
    2.1965    1.8095    1.5118 H   0  0  0  0  0  0  0  0  0  0  0  0
    5.1719    2.1830    0.4366 H   0  0  0  0  0  0  0  0  0  0  0  0
  1 35  1  0  0  0  0
  1 36  1  0  0  0  0
  2 37  1  0  0  0  0
  3  2  2  0  0  0  0
  3 38  1  0  0  0  0
  4  1  1  0  0  0  0
  4 39  1  0  0  0  0
  4 40  1  0  0  0  0
  5  1  1  0  0  0  0
  5 41  1  0  0  0  0
  5 42  1  0  0  0  0
  6 43  1  0  0  0  0
  6 44  1  0  0  0  0
  7  2  1  0  0  0  0
  7 45  1  0  0  0  0
  8  3  1  0  0  0  0
  8 46  1  0  0  0  0
  9 47  1  0  0  0  0
  9 48  1  0  0  0  0
 10  9  1  0  0  0  0
 10 49  1  0  0  0  0
 10 50  1  0  0  0  0
 11 51  1  0  0  0  0
 12 11  2  0  0  0  0
 12 52  1  0  0  0  0
 13 53  1  0  0  0  0
 13 54  1  0  0  0  0
 14 55  1  0  0  0  0
 14 56  1  0  0  0  0
 15  6  1  0  0  0  0
 15 57  1  0  0  0  0
 15 58  1  0  0  0  0
 16  4  1  0  0  0  0
 16 59  1  0  0  0  0
 16 60  1  0  0  0  0
 17  5  1  0  0  0  0
 17 61  1  0  0  0  0
 17 62  1  0  0  0  0
 18  6  1  0  0  0  0
 18 63  1  0  0  0  0
 18 64  1  0  0  0  0
 19 13  1  0  0  0  0
 19 65  1  0  0  0  0
 19 66  1  0  0  0  0
 20 14  1  0  0  0  0
 20 67  1  0  0  0  0
 20 68  1  0  0  0  0
 21 69  1  0  0  0  0
 22  7  2  0  0  0  0
 22  9  1  0  0  0  0
 23 10  1  0  0  0  0
 23 11  1  0  0  0  0
 24 12  1  0  0  0  0
 24 21  2  0  0  0  0
 25  8  2  0  0  0  0
 25 22  1  0  0  0  0
 26 21  1  0  0  0  0
 26 23  2  0  0  0  0
 28 13  1  0  0  0  0
 28 14  1  0  0  0  0
 28 27  1  0  0  0  0
 29 24  1  0  0  0  0
 30 27  2  0  0  0  0
 30 70  1  0  0  0  0
 31 15  1  0  0  0  0
 31 19  1  0  0  0  0
 31 20  1  0  0  0  0
 32 16  1  0  0  0  0
 32 17  1  0  0  0  0
 32 28  1  0  0  0  0
 33 18  1  0  0  0  0
 33 25  1  0  0  0  0
 33 26  1  0  0  0  0
 34 27  1  0  0  0  0
 34 71  1  0  0  0  0
M  END
>  <DRUGBANK_ID>
DB09003

>  <COMMON_NAME>
Clocapramine

>  <CAS_NUMBER>
47739-98-0

>  <UNII>
6EEL1GB72K

>  <SYNONYMS>
Clocapramina; Clocapramine; Clocapraminum

$$$$
