INK
 OpenBabel10282417173D

 32 32  0  0  0  0  0  0  0  0999 V2000
    1.5611    1.1531    0.7168 P   0  0  2  0  0  0  0  0  0  0  0  0
    0.7963    2.5897    2.0316 Cl  0  0  0  0  0  0  0  0  0  0  0  0
    0.6544    1.8165   -0.8250 C   0  0  0  0  0  0  0  0  0  0  0  0
    0.4334    0.1342    1.0127 O   0  0  0  0  0  0  0  0  0  0  0  0
    2.8211    2.2916    0.3863 O   0  0  0  0  0  0  0  0  0  0  0  0
    3.7677    1.1147    0.7507 C   0  0  2  0  0  0  0  0  0  0  0  0
    3.6994    0.1792   -0.5512 C   0  0  0  0  0  0  0  0  0  0  0  0
    4.6399   -0.9977   -0.4376 C   0  0  0  0  0  0  0  0  0  0  0  0
    3.3271    0.4390    2.3431 C   0  0  0  0  0  0  0  0  0  0  0  0
    3.6197   -0.9128    2.7669 O   0  0  0  0  0  0  0  0  0  0  0  0
    1.8919   -4.1757    2.4702 C   0  0  0  0  0  0  0  0  0  0  0  0
    1.7162   -4.2547    1.0841 C   0  0  0  0  0  0  0  0  0  0  0  0
    1.9609   -3.1235    0.3471 C   0  0  0  0  0  0  0  0  0  0  0  0
    2.3442   -2.0137    1.0636 C   0  0  0  0  0  0  0  0  0  0  0  0
    2.7732   -1.9270    2.3562 C   0  0  0  0  0  0  0  0  0  0  0  0
    2.4837   -3.0527    3.1105 C   0  0  0  0  0  0  0  0  0  0  0  0
    4.7811    1.5003    0.8399 H   0  0  0  0  0  0  0  0  0  0  0  0
    0.5321    0.9733   -1.5089 H   0  0  0  0  0  0  0  0  0  0  0  0
   -0.3339    2.1761   -0.5201 H   0  0  0  0  0  0  0  0  0  0  0  0
    1.2121    2.6188   -1.3091 H   0  0  0  0  0  0  0  0  0  0  0  0
    2.6883   -0.1740   -0.8349 H   0  0  0  0  0  0  0  0  0  0  0  0
    3.8481    0.7529   -1.4717 H   0  0  0  0  0  0  0  0  0  0  0  0
    4.7084   -1.3764    0.5836 H   0  0  0  0  0  0  0  0  0  0  0  0
    4.3146   -1.8359   -1.0664 H   0  0  0  0  0  0  0  0  0  0  0  0
    5.6354   -0.6758   -0.7128 H   0  0  0  0  0  0  0  0  0  0  0  0
    3.7268    1.1669    3.0654 H   0  0  0  0  0  0  0  0  0  0  0  0
    2.2727    0.5302    2.6376 H   0  0  0  0  0  0  0  0  0  0  0  0
    1.5892   -5.0356    3.0639 H   0  0  0  0  0  0  0  0  0  0  0  0
    1.3772   -5.1421    0.5676 H   0  0  0  0  0  0  0  0  0  0  0  0
    1.8735   -3.0737   -0.7323 H   0  0  0  0  0  0  0  0  0  0  0  0
    2.3517   -1.1216    0.5116 H   0  0  0  0  0  0  0  0  0  0  0  0
    2.7026   -3.0692    4.1672 H   0  0  0  0  0  0  0  0  0  0  0  0
  1  2  1  1  0  0  0
  1  3  1  0  0  0  0
  1  4  2  0  0  0  0
  1  5  1  0  0  0  0
  3 18  1  0  0  0  0
  3 19  1  0  0  0  0
  3 20  1  0  0  0  0
  6  9  1  0  0  0  0
  6 17  1  1  0  0  0
  6  7  1  0  0  0  0
  6  5  1  0  0  0  0
  7  8  1  0  0  0  0
  7 21  1  0  0  0  0
  7 22  1  0  0  0  0
  8 23  1  0  0  0  0
  8 24  1  0  0  0  0
  8 25  1  0  0  0  0
  9 10  1  0  0  0  0
  9 26  1  0  0  0  0
  9 27  1  0  0  0  0
 10 15  1  0  0  0  0
 11 12  2  0  0  0  0
 11 16  1  0  0  0  0
 11 28  1  0  0  0  0
 12 13  1  0  0  0  0
 12 29  1  0  0  0  0
 13 14  2  0  0  0  0
 13 30  1  0  0  0  0
 14 15  1  0  0  0  0
 14 31  1  0  0  0  0
 15 16  2  0  0  0  0
 16 32  1  0  0  0  0
M  END
>  <DRUGBANK_ID>
DB07990

>  <COMMON_NAME>
(RP,SP)-O-(2R)-(1-PHENOXYBUT-2-YL)-METHYLPHOSPHONIC ACID CHLORIDE

$$$$
