MI2
 OpenBabel10282417173D

 34 36  0  0  0  0  0  0  0  0999 V2000
   -0.2254   -0.7512    0.0441 C   0  0  0  0  0  0  0  0  0  0  0  0
   -0.2502    0.6401    0.0449 C   0  0  0  0  0  0  0  0  0  0  0  0
   -1.5767    1.0132    0.0716 N   0  0  0  0  0  0  0  0  0  0  0  0
   -2.3886   -0.0986    0.0092 C   0  0  0  0  0  0  0  0  0  0  0  0
   -1.5647   -1.2028    0.0360 C   0  0  0  0  0  0  0  0  0  0  0  0
   -3.8395   -0.0553   -0.1147 C   0  0  0  0  0  0  0  0  0  0  0  0
   -4.6081   -0.7106    0.8615 C   0  0  0  0  0  0  0  0  0  0  0  0
   -5.9981   -0.7526    0.7683 C   0  0  0  0  0  0  0  0  0  0  0  0
   -6.6343   -0.1538   -0.3134 C   0  0  0  0  0  0  0  0  0  0  0  0
   -5.8804    0.4828   -1.3015 C   0  0  0  0  0  0  0  0  0  0  0  0
   -4.4775    0.5390   -1.2190 C   0  0  0  0  0  0  0  0  0  0  0  0
   -3.7274    1.2079   -2.3396 C   0  0  0  0  0  0  0  0  0  0  0  0
    0.9176    1.4057    0.0110 C   0  0  0  0  0  0  0  0  0  0  0  0
    2.1386    0.7134   -0.0273 C   0  0  0  0  0  0  0  0  0  0  0  0
    2.2001   -0.6895   -0.0172 C   0  0  0  0  0  0  0  0  0  0  0  0
    1.0079   -1.4227    0.0239 C   0  0  0  0  0  0  0  0  0  0  0  0
    3.5220   -1.3975   -0.0583 C   0  0  0  0  0  0  0  0  0  0  0  0
    3.6540   -2.6912   -0.0515 N   0  0  0  0  0  0  0  0  0  0  0  0
    4.6912   -0.7162   -0.1070 N   0  0  0  0  0  0  0  0  0  0  0  0
   -1.9090    1.9675    0.0572 H   0  0  0  0  0  0  0  0  0  0  0  0
   -1.8970   -2.2314   -0.0082 H   0  0  0  0  0  0  0  0  0  0  0  0
   -4.1195   -1.2022    1.7008 H   0  0  0  0  0  0  0  0  0  0  0  0
   -6.5786   -1.2580    1.5354 H   0  0  0  0  0  0  0  0  0  0  0  0
   -7.7177   -0.1899   -0.3932 H   0  0  0  0  0  0  0  0  0  0  0  0
   -6.3947    0.9271   -2.1514 H   0  0  0  0  0  0  0  0  0  0  0  0
   -3.9743    0.7388   -3.2968 H   0  0  0  0  0  0  0  0  0  0  0  0
   -3.9844    2.2709   -2.3717 H   0  0  0  0  0  0  0  0  0  0  0  0
   -2.6425    1.1392   -2.2393 H   0  0  0  0  0  0  0  0  0  0  0  0
    0.8950    2.4911    0.0036 H   0  0  0  0  0  0  0  0  0  0  0  0
    3.0422    1.3119   -0.0672 H   0  0  0  0  0  0  0  0  0  0  0  0
    0.9811   -2.5037    0.0273 H   0  0  0  0  0  0  0  0  0  0  0  0
    2.7634   -3.1816   -0.0150 H   0  0  0  0  0  0  0  0  0  0  0  0
    4.7787    0.2857   -0.1195 H   0  0  0  0  0  0  0  0  0  0  0  0
    5.5361   -1.2725   -0.1302 H   0  0  0  0  0  0  0  0  0  0  0  0
  1  2  2  0  0  0  0
  1  5  1  0  0  0  0
  1 16  1  0  0  0  0
  2  3  1  0  0  0  0
  2 13  1  0  0  0  0
  3  4  1  0  0  0  0
  3 20  1  0  0  0  0
  4  5  2  0  0  0  0
  4  6  1  0  0  0  0
  5 21  1  0  0  0  0
  6  7  1  0  0  0  0
  6 11  2  0  0  0  0
  7  8  2  0  0  0  0
  7 22  1  0  0  0  0
  8  9  1  0  0  0  0
  8 23  1  0  0  0  0
  9 10  2  0  0  0  0
  9 24  1  0  0  0  0
 10 11  1  0  0  0  0
 10 25  1  0  0  0  0
 11 12  1  0  0  0  0
 12 26  1  0  0  0  0
 12 27  1  0  0  0  0
 12 28  1  0  0  0  0
 13 14  2  0  0  0  0
 13 29  1  0  0  0  0
 14 15  1  0  0  0  0
 14 30  1  0  0  0  0
 15 16  2  0  0  0  0
 15 17  1  0  0  0  0
 16 31  1  0  0  0  0
 17 18  2  0  0  0  0
 17 19  1  0  0  0  0
 18 32  1  0  0  0  0
 19 33  1  0  0  0  0
 19 34  1  0  0  0  0
M  END
>  <DRUGBANK_ID>
DB08184

>  <COMMON_NAME>
2-(2-METHYLPHENYL)-1H-INDOLE-5-CARBOXIMIDAMIDE

$$$$
