
 OpenBabel10282417233D

 40 43  0  0  0  0  0  0  0  0999 V2000
    0.9165    0.1560   -0.0223 O   0  0  0  0  0  0  0  0  0  0  0  0
    2.1451    0.0882   -0.0233 C   0  0  0  0  0  0  0  0  0  0  0  0
    2.9556    1.2085   -0.0109 N   0  0  0  0  0  0  0  0  0  0  0  0
    4.3509    1.1573   -0.0373 C   0  0  0  0  0  0  0  0  0  0  0  0
    5.0609    2.5137   -0.0268 C   0  0  0  0  0  0  0  0  0  0  0  0
    5.9392    2.6870    1.1921 C   0  0  0  0  0  0  0  0  0  0  0  0
    6.9799    1.8350    1.3433 N   0  0  0  0  0  0  0  0  0  0  0  0
    7.6746    1.8805    2.4996 C   0  0  0  0  0  0  0  0  0  0  0  0
    7.3286    2.6909    3.5634 C   0  0  0  0  0  0  0  0  0  0  0  0
    6.2560    3.5560    3.3980 C   0  0  0  0  0  0  0  0  0  0  0  0
    5.6326    3.6414    2.1566 C   0  0  0  0  0  0  0  0  0  0  0  0
    5.0202    0.0363   -0.0935 N   0  0  0  0  0  0  0  0  0  0  0  0
    4.2525   -1.0818   -0.0702 C   0  0  0  0  0  0  0  0  0  0  0  0
    2.8821   -1.1344   -0.0384 C   0  0  0  0  0  0  0  0  0  0  0  0
    2.5515   -2.4903   -0.0298 C   0  0  0  0  0  0  0  0  0  0  0  0
    3.6379   -3.2734   -0.0385 N   0  0  0  0  0  0  0  0  0  0  0  0
    4.6765   -2.3917   -0.0565 N   0  0  0  0  0  0  0  0  0  0  0  0
    6.0452   -2.9059   -0.0351 C   0  0  0  0  0  0  0  0  0  0  0  0
    6.7899   -2.4691    1.2283 C   0  0  0  0  0  0  0  0  0  0  0  0
    8.2611   -2.8428    1.1709 C   0  0  0  0  0  0  0  0  0  0  0  0
    8.8669   -2.3672   -0.0275 O   0  0  0  0  0  0  0  0  0  0  0  0
    8.2782   -2.9357   -1.1937 C   0  0  0  0  0  0  0  0  0  0  0  0
    6.8136   -2.5455   -1.3081 C   0  0  0  0  0  0  0  0  0  0  0  0
    2.4579    2.0857   -0.0041 H   0  0  0  0  0  0  0  0  0  0  0  0
    5.6714    2.6004   -0.9314 H   0  0  0  0  0  0  0  0  0  0  0  0
    4.3176    3.3210   -0.0643 H   0  0  0  0  0  0  0  0  0  0  0  0
    8.5325    1.2168    2.5506 H   0  0  0  0  0  0  0  0  0  0  0  0
    7.8943    2.6682    4.4874 H   0  0  0  0  0  0  0  0  0  0  0  0
    5.9014    4.1561    4.2309 H   0  0  0  0  0  0  0  0  0  0  0  0
    4.9138    4.4306    1.9659 H   0  0  0  0  0  0  0  0  0  0  0  0
    1.5666   -2.9393   -0.0151 H   0  0  0  0  0  0  0  0  0  0  0  0
    5.9614   -4.0041   -0.0052 H   0  0  0  0  0  0  0  0  0  0  0  0
    6.7203   -1.3820    1.3355 H   0  0  0  0  0  0  0  0  0  0  0  0
    6.3249   -2.9093    2.1183 H   0  0  0  0  0  0  0  0  0  0  0  0
    8.7857   -2.3794    2.0132 H   0  0  0  0  0  0  0  0  0  0  0  0
    8.4082   -3.9260    1.2483 H   0  0  0  0  0  0  0  0  0  0  0  0
    8.4075   -4.0240   -1.1733 H   0  0  0  0  0  0  0  0  0  0  0  0
    8.8272   -2.5562   -2.0618 H   0  0  0  0  0  0  0  0  0  0  0  0
    6.3637   -3.0346   -2.1803 H   0  0  0  0  0  0  0  0  0  0  0  0
    6.7553   -1.4653   -1.4784 H   0  0  0  0  0  0  0  0  0  0  0  0
  1  2  2  0  0  0  0
  2  3  1  0  0  0  0
  2 14  1  0  0  0  0
  3  4  1  0  0  0  0
  3 24  1  0  0  0  0
  4  5  1  0  0  0  0
  4 12  2  0  0  0  0
  5  6  1  0  0  0  0
  5 25  1  0  0  0  0
  5 26  1  0  0  0  0
  6  7  2  0  0  0  0
  6 11  1  0  0  0  0
  7  8  1  0  0  0  0
  8  9  2  0  0  0  0
  8 27  1  0  0  0  0
  9 10  1  0  0  0  0
  9 28  1  0  0  0  0
 10 11  2  0  0  0  0
 10 29  1  0  0  0  0
 11 30  1  0  0  0  0
 12 13  1  0  0  0  0
 13 14  2  0  0  0  0
 13 17  1  0  0  0  0
 14 15  1  0  0  0  0
 15 16  2  0  0  0  0
 15 31  1  0  0  0  0
 16 17  1  0  0  0  0
 17 18  1  0  0  0  0
 18 19  1  0  0  0  0
 18 23  1  0  0  0  0
 18 32  1  0  0  0  0
 19 20  1  0  0  0  0
 19 33  1  0  0  0  0
 19 34  1  0  0  0  0
 20 21  1  0  0  0  0
 20 35  1  0  0  0  0
 20 36  1  0  0  0  0
 21 22  1  0  0  0  0
 22 23  1  0  0  0  0
 22 37  1  0  0  0  0
 22 38  1  0  0  0  0
 23 39  1  0  0  0  0
 23 40  1  0  0  0  0
M  END
>  <DRUGBANK_ID>
DB16274

>  <COMMON_NAME>
Osoresnontrine

>  <CAS_NUMBER>
1189767-28-9

>  <UNII>
O9OC34WOAY

>  <SYNONYMS>
Osoresnontrine

$$$$
