
 OpenBabel10282417153D

 53 56  0  0  0  0  0  0  0  0999 V2000
    2.4974   -0.1087   -0.1441 C   0  0  0  0  0  0  0  0  0  0  0  0
    1.1076   -0.1175   -0.6148 N   0  0  0  0  0  0  0  0  0  0  0  0
    0.4155   -1.2563    0.0291 C   0  0  0  0  0  0  0  0  0  0  0  0
   -1.1017   -1.2255   -0.2230 C   0  0  0  0  0  0  0  0  0  0  0  0
   -1.7805    0.0023    0.2345 N   0  0  0  0  0  0  0  0  0  0  0  0
   -1.0821    1.1899   -0.2887 C   0  0  0  0  0  0  0  0  0  0  0  0
    0.4631    1.1406   -0.1895 C   0  0  0  0  0  0  0  0  0  0  0  0
   -2.0817    0.0495    1.6809 C   0  0  0  0  0  0  0  0  0  0  0  0
   -0.8734    0.1711    2.5752 C   0  0  0  0  0  0  0  0  0  0  0  0
   -0.0609    1.2812    2.7871 C   0  0  0  0  0  0  0  0  0  0  0  0
    1.1407    0.8313    3.3096 N   0  0  0  0  0  0  0  0  0  0  0  0
    0.9427   -0.4237    3.8366 C   0  0  0  0  0  0  0  0  0  0  0  0
   -0.3150   -0.8658    3.3869 C   0  0  0  0  0  0  0  0  0  0  0  0
   -0.7620   -2.1596    3.7473 C   0  0  0  0  0  0  0  0  0  0  0  0
    0.0009   -2.9425    4.6160 C   0  0  0  0  0  0  0  0  0  0  0  0
    1.2192   -2.4704    5.0661 C   0  0  0  0  0  0  0  0  0  0  0  0
    1.6825   -1.2234    4.6947 C   0  0  0  0  0  0  0  0  0  0  0  0
   -0.5452   -4.1338    5.0092 O   0  0  0  0  0  0  0  0  0  0  0  0
    0.2347   -4.8587    5.9593 C   0  0  0  0  0  0  0  0  0  0  0  0
    2.5818    1.8009    3.2695 S   0  0  0  0  0  0  0  0  0  0  0  0
    3.1399    1.7156    1.9261 O   0  0  0  0  0  0  0  0  0  0  0  0
    2.0926    3.0744    3.7320 O   0  0  0  0  0  0  0  0  0  0  0  0
    3.8289    1.1232    4.3454 C   0  0  0  0  0  0  0  0  0  0  0  0
    4.3994   -0.1421    4.0391 C   0  0  0  0  0  0  0  0  0  0  0  0
    5.1436   -0.8318    5.0120 C   0  0  0  0  0  0  0  0  0  0  0  0
    5.5022   -0.1856    6.1868 C   0  0  0  0  0  0  0  0  0  0  0  0
    5.1324    1.1427    6.3769 C   0  0  0  0  0  0  0  0  0  0  0  0
    4.2492    1.7854    5.4993 C   0  0  0  0  0  0  0  0  0  0  0  0
    3.7077    3.5092    6.0753 Br  0  0  0  0  0  0  0  0  0  0  0  0
    3.0102    0.8050   -0.4637 H   0  0  0  0  0  0  0  0  0  0  0  0
    2.5459   -0.1858    0.9472 H   0  0  0  0  0  0  0  0  0  0  0  0
    3.0523   -0.9654   -0.5261 H   0  0  0  0  0  0  0  0  0  0  0  0
    0.8365   -2.2023   -0.3253 H   0  0  0  0  0  0  0  0  0  0  0  0
    0.6037   -1.2652    1.1017 H   0  0  0  0  0  0  0  0  0  0  0  0
   -1.2497   -1.3194   -1.3079 H   0  0  0  0  0  0  0  0  0  0  0  0
   -1.5769   -2.1110    0.2147 H   0  0  0  0  0  0  0  0  0  0  0  0
   -1.3399    1.3073   -1.3485 H   0  0  0  0  0  0  0  0  0  0  0  0
   -1.4746    2.0903    0.2038 H   0  0  0  0  0  0  0  0  0  0  0  0
    0.7518    1.2366    0.8327 H   0  0  0  0  0  0  0  0  0  0  0  0
    0.9012    2.0444   -0.6266 H   0  0  0  0  0  0  0  0  0  0  0  0
   -2.7677    0.8802    1.8836 H   0  0  0  0  0  0  0  0  0  0  0  0
   -2.6484   -0.8564    1.9347 H   0  0  0  0  0  0  0  0  0  0  0  0
   -0.1276    2.2847    2.3803 H   0  0  0  0  0  0  0  0  0  0  0  0
   -1.7234   -2.5260    3.3963 H   0  0  0  0  0  0  0  0  0  0  0  0
    1.8460   -3.0194    5.7583 H   0  0  0  0  0  0  0  0  0  0  0  0
    2.5782   -0.8964    5.1798 H   0  0  0  0  0  0  0  0  0  0  0  0
    1.1987   -5.1471    5.5234 H   0  0  0  0  0  0  0  0  0  0  0  0
    0.3826   -4.2780    6.8795 H   0  0  0  0  0  0  0  0  0  0  0  0
   -0.3016   -5.7704    6.2242 H   0  0  0  0  0  0  0  0  0  0  0  0
    4.1495   -0.6767    3.1202 H   0  0  0  0  0  0  0  0  0  0  0  0
    5.3973   -1.8849    4.8848 H   0  0  0  0  0  0  0  0  0  0  0  0
    6.0701   -0.7017    6.9580 H   0  0  0  0  0  0  0  0  0  0  0  0
    5.5129    1.6752    7.2453 H   0  0  0  0  0  0  0  0  0  0  0  0
  1  2  1  0  0  0  0
  1 30  1  0  0  0  0
  1 31  1  0  0  0  0
  1 32  1  0  0  0  0
  2  3  1  0  0  0  0
  2  7  1  0  0  0  0
  3  4  1  0  0  0  0
  3 33  1  0  0  0  0
  3 34  1  0  0  0  0
  4  5  1  0  0  0  0
  4 35  1  0  0  0  0
  4 36  1  0  0  0  0
  5  6  1  0  0  0  0
  5  8  1  0  0  0  0
  6  7  1  0  0  0  0
  6 37  1  0  0  0  0
  6 38  1  0  0  0  0
  7 39  1  0  0  0  0
  7 40  1  0  0  0  0
  8  9  1  0  0  0  0
  8 41  1  0  0  0  0
  8 42  1  0  0  0  0
  9 10  2  0  0  0  0
  9 13  1  0  0  0  0
 10 11  1  0  0  0  0
 10 43  1  0  0  0  0
 11 12  1  0  0  0  0
 11 20  1  0  0  0  0
 12 13  1  0  0  0  0
 12 17  2  0  0  0  0
 13 14  2  0  0  0  0
 14 15  1  0  0  0  0
 14 44  1  0  0  0  0
 15 16  2  0  0  0  0
 15 18  1  0  0  0  0
 16 17  1  0  0  0  0
 16 45  1  0  0  0  0
 17 46  1  0  0  0  0
 18 19  1  0  0  0  0
 19 47  1  0  0  0  0
 19 48  1  0  0  0  0
 19 49  1  0  0  0  0
 20 21  2  0  0  0  0
 20 22  2  0  0  0  0
 20 23  1  0  0  0  0
 23 24  2  0  0  0  0
 23 28  1  0  0  0  0
 24 25  1  0  0  0  0
 24 50  1  0  0  0  0
 25 26  2  0  0  0  0
 25 51  1  0  0  0  0
 26 27  1  0  0  0  0
 26 52  1  0  0  0  0
 27 28  2  0  0  0  0
 27 53  1  0  0  0  0
 28 29  1  0  0  0  0
M  END
>  <DRUGBANK_ID>
DB06140

>  <COMMON_NAME>
SUVN-502

>  <CAS_NUMBER>
701205-60-9

>  <UNII>
8XZ281AO3G

$$$$
