
 OpenBabel10282417233D

 64 67  0  0  0  0  0  0  0  0999 V2000
   -0.7293   -1.6926   -4.2195 C   0  0  0  0  0  0  0  0  0  0  0  0
   -2.0237   -2.1377   -4.1946 C   0  0  0  0  0  0  0  0  0  0  0  0
   -2.9023   -1.1382   -3.4731 C   0  0  1  0  0  0  0  0  0  0  0  0
   -0.5929   -0.5944   -3.3541 N   0  0  0  0  0  0  0  0  0  0  0  0
   -1.8814   -0.3490   -2.6701 C   0  0  1  0  0  0  0  0  0  0  0  0
   -1.6551    1.1662   -2.8831 C   0  0  2  0  0  0  0  0  0  0  0  0
   -0.4034    0.7310   -3.6726 C   0  0  0  0  0  0  0  0  0  0  0  0
    0.3374    1.3096   -4.4227 O   0  0  0  0  0  0  0  0  0  0  0  0
   -2.5888   -3.6920   -4.6802 S   0  0  0  0  0  0  0  0  0  0  0  0
    0.5518   -2.2378   -4.8808 C   0  0  0  0  0  0  0  0  0  0  0  0
    1.5939   -1.6020   -4.9463 O   0  0  0  0  0  0  0  0  0  0  0  0
    0.4229   -3.4820   -5.4080 O   0  0  0  0  0  0  0  0  0  0  0  0
    1.4145   -3.9495   -6.3566 C   0  0  0  0  0  0  0  0  0  0  0  0
    1.6748   -3.0877   -7.4844 O   0  0  0  0  0  0  0  0  0  0  0  0
   -1.5608    2.0983   -1.6872 C   0  0  1  0  0  0  0  0  0  0  0  0
   -2.9646    2.4202   -1.1620 C   0  0  0  0  0  0  0  0  0  0  0  0
   -0.8116    1.5059   -0.6377 O   0  0  0  0  0  0  0  0  0  0  0  0
   -3.7158   -0.2035   -4.3644 C   0  0  0  0  0  0  0  0  0  0  0  0
   -4.3738   -3.9952   -4.5784 C   0  0  3  0  0  0  0  0  0  0  0  0
   -5.3327   -3.0921   -5.3498 C   0  0  0  0  0  0  0  0  0  0  0  0
   -6.0586   -2.9119   -4.1410 N   0  0  0  0  0  0  0  0  0  0  0  0
   -5.1369   -3.6118   -3.3057 C   0  0  0  0  0  0  0  0  0  0  0  0
   -7.3931   -2.7314   -3.8965 C   0  0  0  0  0  0  0  0  0  0  0  0
   -7.8500   -2.0199   -2.9133 N   0  0  0  0  0  0  0  0  0  0  0  0
   -9.3270   -1.9284   -2.9061 C   0  0  0  0  0  0  0  0  0  0  0  0
   -9.9149   -2.3583   -4.2376 C   0  0  0  0  0  0  0  0  0  0  0  0
   -8.6239   -3.4066   -4.9533 S   0  0  0  0  0  0  0  0  0  0  0  0
   -2.3673    1.6476   -3.5638 H   0  0  0  0  0  0  0  0  0  0  0  0
   -1.8414   -0.6877   -1.6263 H   0  0  0  0  0  0  0  0  0  0  0  0
    0.8688   -2.6858   -8.4859 C   0  0  0  0  0  0  0  0  0  0  0  0
   -0.6018   -3.1275   -8.6205 C   0  0  0  0  0  0  0  0  0  0  0  0
    1.3321   -1.9051   -9.3236 O   0  0  0  0  0  0  0  0  0  0  0  0
   -1.4777   -1.8744   -8.4295 C   0  0  0  0  0  0  0  0  0  0  0  0
   -0.8321   -3.7267  -10.0110 C   0  0  0  0  0  0  0  0  0  0  0  0
   -1.1204   -4.1911   -7.6831 C   0  0  0  0  0  0  0  0  0  0  0  0
   -3.5434   -1.5925   -2.7364 H   0  0  0  0  0  0  0  0  0  0  0  0
    2.3562   -4.1672   -5.8407 H   0  0  0  0  0  0  0  0  0  0  0  0
    1.1267   -4.9318   -6.7516 H   0  0  0  0  0  0  0  0  0  0  0  0
   -1.0816    3.0363   -1.9848 H   0  0  0  0  0  0  0  0  0  0  0  0
   -2.9153    3.0791   -0.2878 H   0  0  0  0  0  0  0  0  0  0  0  0
   -3.5695    2.9158   -1.9299 H   0  0  0  0  0  0  0  0  0  0  0  0
   -3.5002    1.5163   -0.8475 H   0  0  0  0  0  0  0  0  0  0  0  0
   -0.0817    2.1181   -0.4299 H   0  0  0  0  0  0  0  0  0  0  0  0
   -4.5395   -0.6717   -4.8734 H   0  0  0  0  0  0  0  0  0  0  0  0
   -4.2040    0.5644   -3.7570 H   0  0  0  0  0  0  0  0  0  0  0  0
   -3.1002    0.2721   -5.1363 H   0  0  0  0  0  0  0  0  0  0  0  0
   -4.5671   -5.0407   -4.8568 H   0  0  0  0  0  0  0  0  0  0  0  0
   -4.8750   -2.1806   -5.7165 H   0  0  0  0  0  0  0  0  0  0  0  0
   -5.8606   -3.5045   -6.2095 H   0  0  0  0  0  0  0  0  0  0  0  0
   -5.4942   -4.4691   -2.7297 H   0  0  0  0  0  0  0  0  0  0  0  0
   -4.6802   -2.9439   -2.5870 H   0  0  0  0  0  0  0  0  0  0  0  0
   -9.6385   -0.8965   -2.6913 H   0  0  0  0  0  0  0  0  0  0  0  0
   -9.7223   -2.5434   -2.0892 H   0  0  0  0  0  0  0  0  0  0  0  0
  -10.8784   -2.8682   -4.1041 H   0  0  0  0  0  0  0  0  0  0  0  0
  -10.0913   -1.4971   -4.8917 H   0  0  0  0  0  0  0  0  0  0  0  0
   -1.2961   -1.1264   -9.2083 H   0  0  0  0  0  0  0  0  0  0  0  0
   -2.5422   -2.1344   -8.4571 H   0  0  0  0  0  0  0  0  0  0  0  0
   -1.2790   -1.3953   -7.4629 H   0  0  0  0  0  0  0  0  0  0  0  0
   -0.1886   -4.6021  -10.1579 H   0  0  0  0  0  0  0  0  0  0  0  0
   -1.8729   -4.0621  -10.1084 H   0  0  0  0  0  0  0  0  0  0  0  0
   -0.6331   -3.0129  -10.8126 H   0  0  0  0  0  0  0  0  0  0  0  0
   -0.5388   -5.1118   -7.7228 H   0  0  0  0  0  0  0  0  0  0  0  0
   -1.1112   -3.7661   -6.7038 H   0  0  0  0  0  0  0  0  0  0  0  0
   -2.1652   -4.4642   -7.8468 H   0  0  0  0  0  0  0  0  0  0  0  0
  1 10  1  0  0  0  0
  1  2  2  0  0  0  0
  2  9  1  0  0  0  0
  2  3  1  0  0  0  0
  3 18  1  0  0  0  0
  3  5  1  0  0  0  0
  3 36  1  1  0  0  0
  4  5  1  0  0  0  0
  4  1  1  0  0  0  0
  5  6  1  0  0  0  0
  5 29  1  1  0  0  0
  6 28  1  6  0  0  0
  6  7  1  0  0  0  0
  7  8  2  0  0  0  0
  7  4  1  0  0  0  0
  9 19  1  0  0  0  0
 10 11  2  0  0  0  0
 10 12  1  0  0  0  0
 12 13  1  0  0  0  0
 13 14  1  0  0  0  0
 13 37  1  0  0  0  0
 13 38  1  0  0  0  0
 14 30  1  0  0  0  0
 15 16  1  0  0  0  0
 15 39  1  6  0  0  0
 15  6  1  0  0  0  0
 15 17  1  0  0  0  0
 16 40  1  0  0  0  0
 16 41  1  0  0  0  0
 16 42  1  0  0  0  0
 17 43  1  0  0  0  0
 18 44  1  0  0  0  0
 18 45  1  0  0  0  0
 18 46  1  0  0  0  0
 19 20  1  0  0  0  0
 19 47  1  0  0  0  0
 20 21  1  0  0  0  0
 20 48  1  0  0  0  0
 20 49  1  0  0  0  0
 21 22  1  0  0  0  0
 21 23  1  0  0  0  0
 22 19  1  0  0  0  0
 22 50  1  0  0  0  0
 22 51  1  0  0  0  0
 23 24  2  0  0  0  0
 24 25  1  0  0  0  0
 25 26  1  0  0  0  0
 25 52  1  0  0  0  0
 25 53  1  0  0  0  0
 26 27  1  0  0  0  0
 26 54  1  0  0  0  0
 26 55  1  0  0  0  0
 27 23  1  0  0  0  0
 30 31  1  0  0  0  0
 30 32  2  0  0  0  0
 31 33  1  0  0  0  0
 31 34  1  0  0  0  0
 31 35  1  0  0  0  0
 33 56  1  0  0  0  0
 33 57  1  0  0  0  0
 33 58  1  0  0  0  0
 34 59  1  0  0  0  0
 34 60  1  0  0  0  0
 34 61  1  0  0  0  0
 35 62  1  0  0  0  0
 35 63  1  0  0  0  0
 35 64  1  0  0  0  0
M  END
>  <DRUGBANK_ID>
DB16840

>  <COMMON_NAME>
Tebipenem pivoxil

>  <CAS_NUMBER>
161715-24-8

>  <UNII>
95AK1A52I8

>  <SYNONYMS>
Tebipenem pivoxil

$$$$
