
 OpenBabel10282417163D

 30 33  0  0  0  0  0  0  0  0999 V2000
    1.1208   -0.3575   -0.0586 Br  0  0  0  0  0  0  0  0  0  0  0  0
    2.6425    3.6953   -0.0540 O   0  0  0  0  0  0  0  0  0  0  0  0
    8.1345    2.6213   -0.0859 O   0  0  0  0  0  0  0  0  0  0  0  0
    5.9908    4.8065   -0.0743 N   0  0  0  0  0  0  0  0  0  0  0  0
    7.0929    0.5095   -0.0821 N   0  0  0  0  0  0  0  0  0  0  0  0
    5.6849    2.3846   -0.0741 C   0  0  0  0  0  0  0  0  0  0  0  0
    5.2205    3.6567   -0.0705 C   0  0  0  0  0  0  0  0  0  0  0  0
    4.9165    1.1511   -0.0711 C   0  0  0  0  0  0  0  0  0  0  0  0
    5.7678    0.0521   -0.0752 C   0  0  0  0  0  0  0  0  0  0  0  0
    3.8433    5.6610   -0.0612 C   0  0  0  0  0  0  0  0  0  0  0  0
    5.2026    5.9473   -0.0685 C   0  0  0  0  0  0  0  0  0  0  0  0
    3.7507    4.2091   -0.0615 C   0  0  0  0  0  0  0  0  0  0  0  0
    7.1409    1.9199   -0.0816 C   0  0  0  0  0  0  0  0  0  0  0  0
    3.5622    0.9785   -0.0668 C   0  0  0  0  0  0  0  0  0  0  0  0
    5.2424   -1.2392   -0.0723 C   0  0  0  0  0  0  0  0  0  0  0  0
    2.8407    6.6249   -0.0537 C   0  0  0  0  0  0  0  0  0  0  0  0
    5.6029    7.2591   -0.0702 C   0  0  0  0  0  0  0  0  0  0  0  0
    3.0066   -0.2752   -0.0628 C   0  0  0  0  0  0  0  0  0  0  0  0
    3.8341   -1.3909   -0.0639 C   0  0  0  0  0  0  0  0  0  0  0  0
    3.2525    7.9546   -0.0527 C   0  0  0  0  0  0  0  0  0  0  0  0
    4.6248    8.2650   -0.0623 C   0  0  0  0  0  0  0  0  0  0  0  0
    7.0000    4.7794   -0.0782 H   0  0  0  0  0  0  0  0  0  0  0  0
    7.9252   -0.0690   -0.0864 H   0  0  0  0  0  0  0  0  0  0  0  0
    2.8998    1.8055   -0.0672 H   0  0  0  0  0  0  0  0  0  0  0  0
    5.8569   -2.1336   -0.0765 H   0  0  0  0  0  0  0  0  0  0  0  0
    1.7857    6.3613   -0.0485 H   0  0  0  0  0  0  0  0  0  0  0  0
    6.6560    7.5046   -0.0771 H   0  0  0  0  0  0  0  0  0  0  0  0
    3.3663   -2.3705   -0.0587 H   0  0  0  0  0  0  0  0  0  0  0  0
    2.5177    8.7577   -0.0442 H   0  0  0  0  0  0  0  0  0  0  0  0
    4.9385    9.3057   -0.0638 H   0  0  0  0  0  0  0  0  0  0  0  0
  1 18  1  0  0  0  0
  2 12  2  0  0  0  0
  3 13  2  0  0  0  0
  4  7  1  0  0  0  0
  4 11  1  0  0  0  0
  4 22  1  0  0  0  0
  5  9  1  0  0  0  0
  5 13  1  0  0  0  0
  5 23  1  0  0  0  0
  6  7  2  0  0  0  0
  6  8  1  0  0  0  0
  6 13  1  0  0  0  0
  7 12  1  0  0  0  0
  8  9  2  0  0  0  0
  8 14  1  0  0  0  0
  9 15  1  0  0  0  0
 10 11  1  0  0  0  0
 10 12  1  0  0  0  0
 10 16  2  0  0  0  0
 11 17  2  0  0  0  0
 14 18  2  0  0  0  0
 14 24  1  0  0  0  0
 15 19  2  0  0  0  0
 15 25  1  0  0  0  0
 16 20  1  0  0  0  0
 16 26  1  0  0  0  0
 17 21  1  0  0  0  0
 17 27  1  0  0  0  0
 18 19  1  0  0  0  0
 19 28  1  0  0  0  0
 20 21  2  0  0  0  0
 20 29  1  0  0  0  0
 21 30  1  0  0  0  0
M  END
>  <DRUGBANK_ID>
DB07493

>  <COMMON_NAME>
5-Bromoindirubin

>  <CAS_NUMBER>
60874-72-8

>  <SYNONYMS>
(2Z)-5'-bromo-2,3'-biindole-2',3(1H,1'H)-dione ammoniate

$$$$
