
 OpenBabel10282417153D

 23 23  0  0  1  0  0  0  0  0999 V2000
    0.9223    0.0816   -0.0890 S   0  0  0  0  0  0  0  0  0  0  0  0
    0.3607    0.5996   -2.0031 S   0  0  0  0  0  0  0  0  0  0  0  0
   -2.1352   -0.4674   -1.8762 N   0  0  0  0  0  0  0  0  0  0  0  0
   -2.1161    1.7493   -1.8805 N   0  0  0  0  0  0  0  0  0  0  0  0
    2.7884    0.0251   -0.0995 C   0  0  3  0  0  0  0  0  0  0  0  0
    3.3166   -0.4294    1.2839 C   0  0  0  0  0  0  0  0  0  0  0  0
    3.3470   -0.8883   -1.1924 C   0  0  0  0  0  0  0  0  0  0  0  0
    2.8978   -1.8431    1.6819 C   0  0  0  0  0  0  0  0  0  0  0  0
   -1.3701    0.6701   -1.8560 C   0  0  0  0  0  0  0  0  0  0  0  0
   -3.4513   -0.0781   -1.8843 C   0  0  0  0  0  0  0  0  0  0  0  0
   -3.4145    1.2961   -1.8868 C   0  0  0  0  0  0  0  0  0  0  0  0
   -1.7837   -1.4096   -1.9102 H   0  0  0  0  0  0  0  0  0  0  0  0
    3.1496    1.0472   -0.2721 H   0  0  0  0  0  0  0  0  0  0  0  0
    4.4156   -0.3892    1.2812 H   0  0  0  0  0  0  0  0  0  0  0  0
    2.9970    0.2761    2.0613 H   0  0  0  0  0  0  0  0  0  0  0  0
    3.0753   -0.5497   -2.1943 H   0  0  0  0  0  0  0  0  0  0  0  0
    4.4436   -0.9054   -1.1475 H   0  0  0  0  0  0  0  0  0  0  0  0
    3.0010   -1.9205   -1.0814 H   0  0  0  0  0  0  0  0  0  0  0  0
    3.2804   -2.5867    0.9767 H   0  0  0  0  0  0  0  0  0  0  0  0
    3.2927   -2.1003    2.6687 H   0  0  0  0  0  0  0  0  0  0  0  0
    1.8100   -1.9408    1.7240 H   0  0  0  0  0  0  0  0  0  0  0  0
   -4.2704   -0.7856   -1.8981 H   0  0  0  0  0  0  0  0  0  0  0  0
   -4.2531    1.9822   -1.9050 H   0  0  0  0  0  0  0  0  0  0  0  0
  1  2  1  0  0  0  0
  1  5  1  0  0  0  0
  2  9  1  0  0  0  0
  3  9  1  0  0  0  0
  3 10  1  0  0  0  0
  3 12  1  0  0  0  0
  4  9  2  0  0  0  0
  4 11  1  0  0  0  0
  5  6  1  0  0  0  0
  5  7  1  0  0  0  0
  5 13  1  0  0  0  0
  6  8  1  0  0  0  0
  6 14  1  0  0  0  0
  6 15  1  0  0  0  0
  7 16  1  0  0  0  0
  7 17  1  0  0  0  0
  7 18  1  0  0  0  0
  8 19  1  0  0  0  0
  8 20  1  0  0  0  0
  8 21  1  0  0  0  0
 10 11  2  0  0  0  0
 10 22  1  0  0  0  0
 11 23  1  0  0  0  0
M  END
>  <DRUGBANK_ID>
DB05448

>  <COMMON_NAME>
PX-12

>  <CAS_NUMBER>
141400-58-0

>  <UNII>
8PQ9CZ8BTJ

>  <SYNONYMS>
1-Methylpropyl-2-imidazolyl disulfide

$$$$
