
 OpenBabel10282417243D

 53 56  0  0  0  0  0  0  0  0999 V2000
    0.9935   -0.1425   -0.0316 C   0  0  0  0  0  0  0  0  0  0  0  0
    0.4037   -1.4977   -0.3487 C   0  0  0  0  0  0  0  0  0  0  0  0
   -0.4144   -2.0340    0.3935 O   0  0  0  0  0  0  0  0  0  0  0  0
    0.7326   -1.9853   -1.6122 N   0  0  0  0  0  0  0  0  0  0  0  0
    2.1472   -1.9864   -2.0218 C   0  0  0  0  0  0  0  0  0  0  0  0
    2.5549   -2.5395   -3.3886 C   0  0  0  0  0  0  0  0  0  0  0  0
    1.4314   -3.0837   -4.1536 C   0  0  0  0  0  0  0  0  0  0  0  0
    0.1566   -3.1474   -3.6625 C   0  0  0  0  0  0  0  0  0  0  0  0
   -0.3148   -2.7214   -2.3305 C   0  0  0  0  0  0  0  0  0  0  0  0
   -0.5892   -3.6985   -4.6600 N   0  0  0  0  0  0  0  0  0  0  0  0
    0.1357   -4.0168   -5.7569 N   0  0  0  0  0  0  0  0  0  0  0  0
    1.4006   -3.6497   -5.4535 C   0  0  0  0  0  0  0  0  0  0  0  0
    2.6023   -3.9034   -6.3033 C   0  0  0  0  0  0  0  0  0  0  0  0
    3.7330   -3.6422   -5.9229 O   0  0  0  0  0  0  0  0  0  0  0  0
    2.3676   -4.5747   -7.5017 N   0  0  0  0  0  0  0  0  0  0  0  0
    3.2132   -5.6639   -7.9530 C   0  0  0  0  0  0  0  0  0  0  0  0
    4.1043   -5.3274   -9.1532 C   0  0  0  0  0  0  0  0  0  0  0  0
    3.2843   -4.7035  -10.2957 C   0  0  0  0  0  0  0  0  0  0  0  0
    2.3861   -3.6570   -9.6934 C   0  0  0  0  0  0  0  0  0  0  0  0
    1.5258   -3.9849   -8.5063 C   0  0  0  0  0  0  0  0  0  0  0  0
    4.1697   -4.0806  -11.3917 C   0  0  0  0  0  0  0  0  0  0  0  0
    5.0348   -5.0030  -12.0604 C   0  0  0  0  0  0  0  0  0  0  0  0
    5.8929   -4.6067  -13.0865 C   0  0  0  0  0  0  0  0  0  0  0  0
    5.8910   -3.2846  -13.4783 C   0  0  0  0  0  0  0  0  0  0  0  0
    6.6890   -2.8871  -14.4777 F   0  0  0  0  0  0  0  0  0  0  0  0
    5.0640   -2.3645  -12.8486 C   0  0  0  0  0  0  0  0  0  0  0  0
    5.1104   -1.0911  -13.2695 F   0  0  0  0  0  0  0  0  0  0  0  0
    4.1862   -2.7056  -11.7983 C   0  0  0  0  0  0  0  0  0  0  0  0
    3.4534   -1.4398  -11.3177 C   0  0  0  0  0  0  0  0  0  0  0  0
    4.3383   -0.5293  -10.8155 F   0  0  0  0  0  0  0  0  0  0  0  0
    2.8087   -0.8269  -12.3544 F   0  0  0  0  0  0  0  0  0  0  0  0
    2.4811   -1.4652  -10.3676 F   0  0  0  0  0  0  0  0  0  0  0  0
    0.6267    0.2017    0.9387 H   0  0  0  0  0  0  0  0  0  0  0  0
    0.6460    0.5637   -0.7947 H   0  0  0  0  0  0  0  0  0  0  0  0
    2.0841   -0.1529   -0.0052 H   0  0  0  0  0  0  0  0  0  0  0  0
    2.4822   -0.9454   -1.9894 H   0  0  0  0  0  0  0  0  0  0  0  0
    2.7157   -2.5090   -1.2401 H   0  0  0  0  0  0  0  0  0  0  0  0
    3.0066   -1.7270   -3.9677 H   0  0  0  0  0  0  0  0  0  0  0  0
    3.3218   -3.3107   -3.2538 H   0  0  0  0  0  0  0  0  0  0  0  0
   -0.6636   -3.5656   -1.7275 H   0  0  0  0  0  0  0  0  0  0  0  0
   -1.1450   -2.0113   -2.4377 H   0  0  0  0  0  0  0  0  0  0  0  0
   -1.5854   -3.8975   -4.6709 H   0  0  0  0  0  0  0  0  0  0  0  0
    2.5089   -6.4460   -8.2582 H   0  0  0  0  0  0  0  0  0  0  0  0
    3.8107   -6.0441   -7.1218 H   0  0  0  0  0  0  0  0  0  0  0  0
    4.5971   -6.2454   -9.4971 H   0  0  0  0  0  0  0  0  0  0  0  0
    4.8990   -4.6347   -8.8488 H   0  0  0  0  0  0  0  0  0  0  0  0
    2.6549   -5.4730  -10.7675 H   0  0  0  0  0  0  0  0  0  0  0  0
    3.0978   -2.9198   -9.2958 H   0  0  0  0  0  0  0  0  0  0  0  0
    1.7251   -3.2960  -10.4855 H   0  0  0  0  0  0  0  0  0  0  0  0
    1.0849   -3.0409   -8.1572 H   0  0  0  0  0  0  0  0  0  0  0  0
    0.7361   -4.6834   -8.7780 H   0  0  0  0  0  0  0  0  0  0  0  0
    5.0495   -6.0589  -11.7815 H   0  0  0  0  0  0  0  0  0  0  0  0
    6.5527   -5.3137  -13.5821 H   0  0  0  0  0  0  0  0  0  0  0  0
  1  2  1  0  0  0  0
  1 33  1  0  0  0  0
  1 34  1  0  0  0  0
  1 35  1  0  0  0  0
  2  3  2  0  0  0  0
  2  4  1  0  0  0  0
  4  5  1  0  0  0  0
  4  9  1  0  0  0  0
  5  6  1  0  0  0  0
  5 36  1  0  0  0  0
  5 37  1  0  0  0  0
  6  7  1  0  0  0  0
  6 38  1  0  0  0  0
  6 39  1  0  0  0  0
  7  8  2  0  0  0  0
  7 12  1  0  0  0  0
  8  9  1  0  0  0  0
  8 10  1  0  0  0  0
  9 40  1  0  0  0  0
  9 41  1  0  0  0  0
 10 11  1  0  0  0  0
 10 42  1  0  0  0  0
 11 12  2  0  0  0  0
 12 13  1  0  0  0  0
 13 14  2  0  0  0  0
 13 15  1  0  0  0  0
 15 16  1  0  0  0  0
 15 20  1  0  0  0  0
 16 17  1  0  0  0  0
 16 43  1  0  0  0  0
 16 44  1  0  0  0  0
 17 18  1  0  0  0  0
 17 45  1  0  0  0  0
 17 46  1  0  0  0  0
 18 19  1  0  0  0  0
 18 21  1  0  0  0  0
 18 47  1  0  0  0  0
 19 20  1  0  0  0  0
 19 48  1  0  0  0  0
 19 49  1  0  0  0  0
 20 50  1  0  0  0  0
 20 51  1  0  0  0  0
 21 22  2  0  0  0  0
 21 28  1  0  0  0  0
 22 23  1  0  0  0  0
 22 52  1  0  0  0  0
 23 24  2  0  0  0  0
 23 53  1  0  0  0  0
 24 25  1  0  0  0  0
 24 26  1  0  0  0  0
 26 27  1  0  0  0  0
 26 28  2  0  0  0  0
 28 29  1  0  0  0  0
 29 30  1  0  0  0  0
 29 31  1  0  0  0  0
 29 32  1  0  0  0  0
M  END
>  <DRUGBANK_ID>
DB17832

>  <COMMON_NAME>
Tinlarebant

>  <CAS_NUMBER>
1821327-95-0

>  <UNII>
63WI9S8P1M

>  <SYNONYMS>
1-(3-(4-(3,4-difluoro-2-(trifluoromethyl)phenyl)piperidine-1-carbonyl)-1h,4h,5h,6h,7h-pyrazolo(3,4-c)pyridin-6-yl)ethan-1-one; 1-(3-{4-[3,4-Difluoro-2-(Trifluoromethyl)Phenyl]Piperidine-1-Carbonyl}-1H,4H,5H,6H,7H-Pyrazolo[3,4-C]Pyridin-6-Yl)Ethan-1-One; Ethanone, 1-(3-((4-(3,4-difluoro-2-(trifluoromethyl)phenyl)-1-piperidinyl)carbonyl)-1,4,5,7-tetrahydro-6h-pyrazolo(3,4-c)pyridin-6-yl)

$$$$
