465
 OpenBabel10282417103D

 32 34  0  0  1  0  0  0  0  0999 V2000
    0.9069    0.0327    0.0412 O   0  0  0  0  0  0  0  0  0  0  0  0
    1.0338   -1.9597   -0.9360 O   0  0  0  0  0  0  0  0  0  0  0  0
   -4.6237   -4.3722    3.0923 O   0  0  0  0  0  0  0  0  0  0  0  0
   -2.7448   -1.9995    1.0598 N   0  0  0  0  0  0  0  0  0  0  0  0
   -1.1891   -1.0447   -0.4449 C   0  0  3  0  0  0  0  0  0  0  0  0
   -1.7845    0.0567    0.4722 C   0  0  0  0  0  0  0  0  0  0  0  0
   -2.9637   -0.5754    1.2107 C   0  0  0  0  0  0  0  0  0  0  0  0
   -1.7671   -2.2835    0.1483 C   0  0  0  0  0  0  0  0  0  0  0  0
   -3.2698   -3.1280    1.6129 C   0  0  0  0  0  0  0  0  0  0  0  0
   -1.6378   -3.6429    0.0683 C   0  0  0  0  0  0  0  0  0  0  0  0
   -2.5756   -4.1746    0.9968 C   0  0  0  0  0  0  0  0  0  0  0  0
    0.3276   -1.0756   -0.4652 C   0  0  0  0  0  0  0  0  0  0  0  0
   -4.2930   -3.2770    2.6367 C   0  0  0  0  0  0  0  0  0  0  0  0
   -5.0055   -2.1073    3.1986 C   0  0  0  0  0  0  0  0  0  0  0  0
   -5.7439   -1.2556    2.3711 C   0  0  0  0  0  0  0  0  0  0  0  0
   -5.0403   -1.9364    4.5870 C   0  0  0  0  0  0  0  0  0  0  0  0
   -6.4728   -0.2032    2.9245 C   0  0  0  0  0  0  0  0  0  0  0  0
   -5.8405   -0.9356    5.1405 C   0  0  0  0  0  0  0  0  0  0  0  0
   -6.5308   -0.0521    4.3093 C   0  0  0  0  0  0  0  0  0  0  0  0
    1.8697   -0.1386   -0.0200 H   0  0  0  0  0  0  0  0  0  0  0  0
   -1.5483   -0.9076   -1.4716 H   0  0  0  0  0  0  0  0  0  0  0  0
   -2.1064    0.9288   -0.1077 H   0  0  0  0  0  0  0  0  0  0  0  0
   -1.0690    0.4168    1.2188 H   0  0  0  0  0  0  0  0  0  0  0  0
   -2.9726   -0.3135    2.2709 H   0  0  0  0  0  0  0  0  0  0  0  0
   -3.9000   -0.3169    0.7131 H   0  0  0  0  0  0  0  0  0  0  0  0
   -0.9494   -4.1972   -0.5579 H   0  0  0  0  0  0  0  0  0  0  0  0
   -2.7334   -5.2263    1.2123 H   0  0  0  0  0  0  0  0  0  0  0  0
   -5.7571   -1.4084    1.2954 H   0  0  0  0  0  0  0  0  0  0  0  0
   -4.4693   -2.5967    5.2366 H   0  0  0  0  0  0  0  0  0  0  0  0
   -7.0247    0.4753    2.2789 H   0  0  0  0  0  0  0  0  0  0  0  0
   -5.9462   -0.8592    6.2201 H   0  0  0  0  0  0  0  0  0  0  0  0
   -7.1313    0.7438    4.7437 H   0  0  0  0  0  0  0  0  0  0  0  0
  1 12  1  0  0  0  0
  1 20  1  0  0  0  0
  2 12  2  0  0  0  0
  3 13  2  0  0  0  0
  4  7  1  0  0  0  0
  4  8  1  0  0  0  0
  4  9  1  0  0  0  0
  5  6  1  0  0  0  0
  5  8  1  0  0  0  0
  5 12  1  0  0  0  0
  5 21  1  0  0  0  0
  6  7  1  0  0  0  0
  6 22  1  0  0  0  0
  6 23  1  0  0  0  0
  7 24  1  0  0  0  0
  7 25  1  0  0  0  0
  8 10  2  0  0  0  0
  9 11  2  0  0  0  0
  9 13  1  0  0  0  0
 10 11  1  0  0  0  0
 10 26  1  0  0  0  0
 11 27  1  0  0  0  0
 13 14  1  0  0  0  0
 14 15  2  0  0  0  0
 14 16  1  0  0  0  0
 15 17  1  0  0  0  0
 15 28  1  0  0  0  0
 16 18  2  0  0  0  0
 16 29  1  0  0  0  0
 17 19  2  0  0  0  0
 17 30  1  0  0  0  0
 18 19  1  0  0  0  0
 18 31  1  0  0  0  0
 19 32  1  0  0  0  0
M  END
>  <DRUGBANK_ID>
DB00465

>  <SECONDARY_ACCESSION_NUMBERS>
APRD01060

>  <COMMON_NAME>
Ketorolac

>  <CAS_NUMBER>
74103-06-3

>  <UNII>
YZI5105V0L

>  <SYNONYMS>
Ketorolac; KÃ©torolac; Ketorolaco; Ketorolacum; rac-Ketorolac

$$$$
