
 OpenBabel10282417233D

 73 76  0  0  1  0  0  0  0  0999 V2000
    0.9623   -0.1107    0.0259 C   0  0  0  0  0  0  0  0  0  0  0  0
    0.4348    0.8736    0.9354 N   0  0  0  0  0  0  0  0  0  0  0  0
   -0.0583    2.0499    0.3700 C   0  0  0  0  0  0  0  0  0  0  0  0
   -1.0611    2.0061   -0.6358 C   0  0  0  0  0  0  0  0  0  0  0  0
   -1.7995    3.1666   -0.9387 C   0  0  0  0  0  0  0  0  0  0  0  0
   -3.1099    3.1004   -1.4535 N   0  0  0  0  0  0  0  0  0  0  0  0
   -3.9311    4.1361   -1.8360 C   0  0  0  0  0  0  0  0  0  0  0  0
   -4.4332    4.0343   -2.9597 O   0  0  0  0  0  0  0  0  0  0  0  0
   -4.2701    5.2135   -0.9926 N   0  0  0  0  0  0  0  0  0  0  0  0
   -4.2389    5.3735    0.5105 C   0  0  2  0  0  0  0  0  0  0  0  0
   -5.5685    5.8058    1.2270 N   0  0  0  0  0  0  0  0  0  0  0  0
   -5.8031    6.0865    2.5146 C   0  0  0  0  0  0  0  0  0  0  0  0
   -7.2976    6.3432    2.9736 C   0  0  0  0  0  0  0  0  0  0  0  0
   -7.5544    7.6195    3.3513 N   0  0  0  0  0  0  0  0  0  0  0  0
   -8.8028    7.9118    3.8157 C   0  0  0  0  0  0  0  0  0  0  0  0
   -9.8108    6.9860    4.0232 C   0  0  0  0  0  0  0  0  0  0  0  0
   -9.5408    5.6731    3.6726 C   0  0  0  0  0  0  0  0  0  0  0  0
   -8.2831    5.3482    3.1158 C   0  0  0  0  0  0  0  0  0  0  0  0
   -4.7873    6.1167    3.7910 C   0  0  0  0  0  0  0  0  0  0  0  0
   -5.1785    6.4968    5.0976 C   0  0  0  0  0  0  0  0  0  0  0  0
   -4.2903    6.4356    6.2072 C   0  0  0  0  0  0  0  0  0  0  0  0
   -3.0177    5.8995    6.0812 C   0  0  0  0  0  0  0  0  0  0  0  0
   -2.6431    5.4075    4.8531 C   0  0  0  0  0  0  0  0  0  0  0  0
   -3.4799    5.5842    3.7289 C   0  0  0  0  0  0  0  0  0  0  0  0
   -2.9724    5.1345    2.5072 N   0  0  0  0  0  0  0  0  0  0  0  0
   -2.5139    3.7050    2.4871 C   0  0  0  0  0  0  0  0  0  0  0  0
   -3.1445    2.4562    1.7629 C   0  0  0  0  0  0  0  0  0  0  0  0
   -2.4810    1.5375    1.3720 O   0  0  0  0  0  0  0  0  0  0  0  0
   -4.5855    2.0754    1.9861 C   0  0  0  0  0  0  0  0  0  0  0  0
   -4.4631    1.2897    3.2790 C   0  0  0  0  0  0  0  0  0  0  0  0
   -5.4161    3.2215    2.3445 C   0  0  0  0  0  0  0  0  0  0  0  0
   -5.1745    1.2974    0.7676 C   0  0  0  0  0  0  0  0  0  0  0  0
   -5.4487    2.0612   -0.4708 O   0  0  0  0  0  0  0  0  0  0  0  0
   -6.4861    2.8857   -0.7963 C   0  0  0  0  0  0  0  0  0  0  0  0
   -7.3751    3.3675    0.2741 C   0  0  0  0  0  0  0  0  0  0  0  0
   -6.6720    3.3314   -1.9221 O   0  0  0  0  0  0  0  0  0  0  0  0
   -3.2163    6.0210    1.4208 C   0  0  0  0  0  0  0  0  0  0  0  0
   -3.0649    7.2436    1.4665 O   0  0  0  0  0  0  0  0  0  0  0  0
   -1.3367    4.3882   -0.5054 C   0  0  0  0  0  0  0  0  0  0  0  0
   -0.3625    4.4451    0.4779 C   0  0  0  0  0  0  0  0  0  0  0  0
    0.2802    3.2846    0.9206 C   0  0  0  0  0  0  0  0  0  0  0  0
    0.6716    0.0831   -1.0101 H   0  0  0  0  0  0  0  0  0  0  0  0
    0.5937   -1.1020    0.3002 H   0  0  0  0  0  0  0  0  0  0  0  0
    2.0539   -0.1023    0.0704 H   0  0  0  0  0  0  0  0  0  0  0  0
    0.8033    0.8921    1.8800 H   0  0  0  0  0  0  0  0  0  0  0  0
   -1.4451    1.0195   -0.9097 H   0  0  0  0  0  0  0  0  0  0  0  0
   -3.3932    2.1981   -1.8393 H   0  0  0  0  0  0  0  0  0  0  0  0
   -4.9469    5.7989   -1.4652 H   0  0  0  0  0  0  0  0  0  0  0  0
   -4.0055    4.3408    0.6743 H   0  0  0  0  0  0  0  0  0  0  0  0
   -8.9883    8.9667    4.0011 H   0  0  0  0  0  0  0  0  0  0  0  0
  -10.7819    7.2866    4.4119 H   0  0  0  0  0  0  0  0  0  0  0  0
  -10.3194    4.9206    3.8105 H   0  0  0  0  0  0  0  0  0  0  0  0
   -8.1315    4.3224    2.8121 H   0  0  0  0  0  0  0  0  0  0  0  0
   -6.1721    6.8775    5.3168 H   0  0  0  0  0  0  0  0  0  0  0  0
   -4.5911    6.8178    7.1817 H   0  0  0  0  0  0  0  0  0  0  0  0
   -2.3090    5.8813    6.9061 H   0  0  0  0  0  0  0  0  0  0  0  0
   -1.6691    4.9294    4.7563 H   0  0  0  0  0  0  0  0  0  0  0  0
   -1.4521    3.7501    2.3502 H   0  0  0  0  0  0  0  0  0  0  0  0
   -2.5246    3.3363    3.5189 H   0  0  0  0  0  0  0  0  0  0  0  0
   -4.0853    1.9588    4.0700 H   0  0  0  0  0  0  0  0  0  0  0  0
   -5.4368    0.9275    3.5949 H   0  0  0  0  0  0  0  0  0  0  0  0
   -3.7407    0.4779    3.1876 H   0  0  0  0  0  0  0  0  0  0  0  0
   -5.4791    3.7364    1.4237 H   0  0  0  0  0  0  0  0  0  0  0  0
   -6.4049    3.0058    2.7154 H   0  0  0  0  0  0  0  0  0  0  0  0
   -4.9513    3.8264    3.0930 H   0  0  0  0  0  0  0  0  0  0  0  0
   -4.4777    0.5058    0.4589 H   0  0  0  0  0  0  0  0  0  0  0  0
   -6.1031    0.7944    1.0425 H   0  0  0  0  0  0  0  0  0  0  0  0
   -7.0612    4.3728    0.5358 H   0  0  0  0  0  0  0  0  0  0  0  0
   -8.3984    3.4681   -0.0568 H   0  0  0  0  0  0  0  0  0  0  0  0
   -7.3692    2.6672    1.0949 H   0  0  0  0  0  0  0  0  0  0  0  0
   -1.8672    5.2893   -0.7757 H   0  0  0  0  0  0  0  0  0  0  0  0
   -0.3075    5.3607    1.0663 H   0  0  0  0  0  0  0  0  0  0  0  0
    0.9171    3.3449    1.7997 H   0  0  0  0  0  0  0  0  0  0  0  0
  1  2  1  0  0  0  0
  1 42  1  0  0  0  0
  1 43  1  0  0  0  0
  1 44  1  0  0  0  0
  2  3  1  0  0  0  0
  2 45  1  0  0  0  0
  3  4  2  0  0  0  0
  3 41  1  0  0  0  0
  4  5  1  0  0  0  0
  4 46  1  0  0  0  0
  5  6  1  0  0  0  0
  5 39  2  0  0  0  0
  6  7  1  0  0  0  0
  6 47  1  0  0  0  0
  7  8  2  0  0  0  0
  7  9  1  0  0  0  0
  9 48  1  0  0  0  0
 10  9  1  0  0  0  0
 10 11  1  0  0  0  0
 10 37  1  0  0  0  0
 10 49  1  1  0  0  0
 11 12  2  0  0  0  0
 12 13  1  0  0  0  0
 12 19  1  0  0  0  0
 13 14  2  0  0  0  0
 13 18  1  0  0  0  0
 14 15  1  0  0  0  0
 15 16  2  0  0  0  0
 15 50  1  0  0  0  0
 16 17  1  0  0  0  0
 16 51  1  0  0  0  0
 17 18  2  0  0  0  0
 17 52  1  0  0  0  0
 18 53  1  0  0  0  0
 19 20  2  0  0  0  0
 19 24  1  0  0  0  0
 20 21  1  0  0  0  0
 20 54  1  0  0  0  0
 21 22  2  0  0  0  0
 21 55  1  0  0  0  0
 22 23  1  0  0  0  0
 22 56  1  0  0  0  0
 23 24  2  0  0  0  0
 23 57  1  0  0  0  0
 24 25  1  0  0  0  0
 25 26  1  0  0  0  0
 25 37  1  0  0  0  0
 26 27  1  0  0  0  0
 26 58  1  0  0  0  0
 26 59  1  0  0  0  0
 27 28  2  0  0  0  0
 27 29  1  0  0  0  0
 29 30  1  0  0  0  0
 29 31  1  0  0  0  0
 29 32  1  0  0  0  0
 30 60  1  0  0  0  0
 30 61  1  0  0  0  0
 30 62  1  0  0  0  0
 31 63  1  0  0  0  0
 31 64  1  0  0  0  0
 31 65  1  0  0  0  0
 32 33  1  0  0  0  0
 32 66  1  0  0  0  0
 32 67  1  0  0  0  0
 33 34  1  0  0  0  0
 34 35  1  0  0  0  0
 34 36  2  0  0  0  0
 35 68  1  0  0  0  0
 35 69  1  0  0  0  0
 35 70  1  0  0  0  0
 37 38  2  0  0  0  0
 39 40  1  0  0  0  0
 39 71  1  0  0  0  0
 40 41  2  0  0  0  0
 40 72  1  0  0  0  0
 41 73  1  0  0  0  0
M  END
>  <DRUGBANK_ID>
DB17270

>  <COMMON_NAME>
Ceclazepide

>  <CAS_NUMBER>
1801749-44-9

>  <UNII>
99B5ZR9276

>  <SYNONYMS>
(r)-1-(1-(4-acetoxy-3,3-dimethyl-2-oxo-butyl)-2-oxo-5-(pyridin-2-yl)-2,3-dihydro-1h-benzo(e)(1,4)diazepin-3-yl)-3-(3-methylamino-phenyl)-urea; Urea, n-((3r)-1-(4-(acetyloxy)-3,3-dimethyl-2-oxobutyl)-2,3-dihydro-2-oxo-5-(2-pyridinyl)-1h-1,4-benzodiazepin-3-yl)-n'-(3-(methylamino)phenyl)-

$$$$
