
 OpenBabel10282417143D

 33 35  0  0  1  0  0  0  0  0999 V2000
    1.7539   -1.4505    0.0191 S   0  0  0  0  0  0  0  0  0  0  0  0
    1.4919    3.2453    1.1000 O   0  0  0  0  0  0  0  0  0  0  0  0
    2.3441    2.9779   -2.4185 O   0  0  0  0  0  0  0  0  0  0  0  0
    2.8005    5.2662   -1.0408 O   0  0  0  0  0  0  0  0  0  0  0  0
   -1.1361    3.8963    0.2407 O   0  0  0  0  0  0  0  0  0  0  0  0
    3.7344    0.2890   -0.0182 O   0  0  0  0  0  0  0  0  0  0  0  0
   -1.0882   -2.6682   -0.0045 O   0  0  0  0  0  0  0  0  0  0  0  0
    1.5379    1.1189    0.0541 N   0  0  0  0  0  0  0  0  0  0  0  0
   -0.9639    1.2961   -0.0111 N   0  0  0  0  0  0  0  0  0  0  0  0
   -2.2339   -0.6860   -0.0069 N   0  0  0  0  0  0  0  0  0  0  0  0
   -3.2529    1.3649   -0.0568 N   0  0  0  0  0  0  0  0  0  0  0  0
    1.9637    2.4936   -0.0254 C   0  0  1  0  0  0  0  0  0  0  0  0
    1.5135    3.2218   -1.2916 C   0  0  1  0  0  0  0  0  0  0  0  0
    1.5142    4.6733   -0.8337 C   0  0  1  0  0  0  0  0  0  0  0  0
    1.1723    4.5868    0.6598 C   0  0  1  0  0  0  0  0  0  0  0  0
   -0.3125    4.8284    0.9478 C   0  0  0  0  0  0  0  0  0  0  0  0
    0.2357    0.6343    0.0279 C   0  0  0  0  0  0  0  0  0  0  0  0
    2.5200    0.1338    0.0209 C   0  0  0  0  0  0  0  0  0  0  0  0
    0.2110   -0.7048    0.0182 C   0  0  0  0  0  0  0  0  0  0  0  0
   -1.0750   -1.4421    0.0006 C   0  0  0  0  0  0  0  0  0  0  0  0
   -2.1385    0.6050   -0.0066 C   0  0  0  0  0  0  0  0  0  0  0  0
    3.2246    3.3575   -2.2447 H   0  0  0  0  0  0  0  0  0  0  0  0
    3.4783    4.7728   -0.5489 H   0  0  0  0  0  0  0  0  0  0  0  0
   -1.0832    4.1206   -0.7072 H   0  0  0  0  0  0  0  0  0  0  0  0
   -0.9798    2.2874    0.2122 H   0  0  0  0  0  0  0  0  0  0  0  0
   -3.2517    2.3669    0.0641 H   0  0  0  0  0  0  0  0  0  0  0  0
   -4.1419    0.8817    0.0176 H   0  0  0  0  0  0  0  0  0  0  0  0
    3.0596    2.5308    0.0254 H   0  0  0  0  0  0  0  0  0  0  0  0
    0.5022    2.9234   -1.5756 H   0  0  0  0  0  0  0  0  0  0  0  0
    0.7960    5.2869   -1.3874 H   0  0  0  0  0  0  0  0  0  0  0  0
    1.7729    5.2910    1.2488 H   0  0  0  0  0  0  0  0  0  0  0  0
   -0.5155    4.7012    2.0171 H   0  0  0  0  0  0  0  0  0  0  0  0
   -0.6142    5.8371    0.6530 H   0  0  0  0  0  0  0  0  0  0  0  0
  1 18  1  0  0  0  0
  1 19  1  0  0  0  0
  2 12  1  0  0  0  0
  2 15  1  0  0  0  0
  3 22  1  0  0  0  0
  4 23  1  0  0  0  0
  5 16  1  0  0  0  0
  5 24  1  0  0  0  0
  6 18  2  0  0  0  0
  7 20  2  0  0  0  0
  8 17  1  0  0  0  0
  8 18  1  0  0  0  0
  9 17  1  0  0  0  0
  9 21  1  0  0  0  0
  9 25  1  0  0  0  0
 10 20  1  0  0  0  0
 10 21  2  0  0  0  0
 11 21  1  0  0  0  0
 11 26  1  0  0  0  0
 11 27  1  0  0  0  0
 12  8  1  0  0  0  0
 12 13  1  0  0  0  0
 12 28  1  1  0  0  0
 13  3  1  0  0  0  0
 13 14  1  0  0  0  0
 13 29  1  6  0  0  0
 14  4  1  0  0  0  0
 14 15  1  0  0  0  0
 14 30  1  6  0  0  0
 15 31  1  1  0  0  0
 15 16  1  0  0  0  0
 16 32  1  0  0  0  0
 16 33  1  0  0  0  0
 17 19  2  0  0  0  0
 19 20  1  0  0  0  0
M  END
>  <DRUGBANK_ID>
DB04860

>  <COMMON_NAME>
Isatoribine

>  <CAS_NUMBER>
122970-40-5

>  <UNII>
2DNT962H92

>  <SYNONYMS>
7-Deaza-7-thia-8-oxoguanosine; 7-Thia-8-oxoguanosine; 7-TOG; Isatoribine

$$$$
