
 OpenBabel10282417123D

 14 13  0  0  1  0  0  0  0  0999 V2000
    3.5987    0.5178   -4.2469 C   0  0  0  0  0  0  0  0  0  0  0  0
    1.0441   -1.6788   -2.3558 C   0  0  0  0  0  0  0  0  0  0  0  0
    1.0891   -0.5565   -4.8987 C   0  0  0  0  0  0  0  0  0  0  0  0
   -1.0580   -0.3346   -3.3043 O   0  0  0  0  0  0  0  0  0  0  0  0
    2.8631   -0.9208   -5.0631 S   0  0  0  0  0  0  0  0  0  0  0  0
    0.4414   -0.2224   -3.2353 S   0  0  1  0  0  0  0  0  0  0  0  0
    4.6835    0.3764   -4.2236 H   0  0  0  0  0  0  0  0  0  0  0  0
    3.2591    0.6127   -3.2129 H   0  0  0  0  0  0  0  0  0  0  0  0
    3.3831    1.4348   -4.7997 H   0  0  0  0  0  0  0  0  0  0  0  0
    2.0668   -1.9335   -2.6307 H   0  0  0  0  0  0  0  0  0  0  0  0
    1.0412   -1.4337   -1.2897 H   0  0  0  0  0  0  0  0  0  0  0  0
    0.3864   -2.5337   -2.5257 H   0  0  0  0  0  0  0  0  0  0  0  0
    0.8612    0.3263   -5.5060 H   0  0  0  0  0  0  0  0  0  0  0  0
    0.5257   -1.3928   -5.3240 H   0  0  0  0  0  0  0  0  0  0  0  0
  1  7  1  0  0  0  0
  1  8  1  0  0  0  0
  1  9  1  0  0  0  0
  2 10  1  0  0  0  0
  2 11  1  0  0  0  0
  2 12  1  0  0  0  0
  3 13  1  0  0  0  0
  3 14  1  0  0  0  0
  5  1  1  0  0  0  0
  5  3  1  0  0  0  0
  6  4  2  6  0  0  0
  6  3  1  0  0  0  0
  6  2  1  0  0  0  0
M  END
>  <DRUGBANK_ID>
DB02311

>  <SECONDARY_ACCESSION_NUMBERS>
EXPT01278

>  <COMMON_NAME>
Methyl Methylsulfinylmethyl Sulfide

>  <CAS_NUMBER>
33577-16-1

$$$$
