1121
 OpenBabel10282417113D

 23 23  0  0  0  0  0  0  0  0999 V2000
    1.0272    0.3905    0.1461 O   0  0  0  0  0  0  0  0  0  0  0  0
    4.9189    1.4001    2.0343 O   0  0  0  0  0  0  0  0  0  0  0  0
    3.1297    0.6627    0.8865 N   0  0  0  0  0  0  0  0  0  0  0  0
    5.3507    0.2642    0.1791 N   0  0  0  0  0  0  0  0  0  0  0  0
    2.7093   -0.6489   -1.2219 C   0  0  0  0  0  0  0  0  0  0  0  0
    2.4566   -2.1292   -1.0978 C   0  0  0  0  0  0  0  0  0  0  0  0
    3.4002   -3.0534   -1.5783 C   0  0  0  0  0  0  0  0  0  0  0  0
    1.2854   -2.6087   -0.5023 C   0  0  0  0  0  0  0  0  0  0  0  0
    2.2284    0.1647   -0.0374 C   0  0  0  0  0  0  0  0  0  0  0  0
    3.1743   -4.4240   -1.4473 C   0  0  0  0  0  0  0  0  0  0  0  0
    1.0952   -3.9717   -0.3100 C   0  0  0  0  0  0  0  0  0  0  0  0
    2.0211   -4.8802   -0.8122 C   0  0  0  0  0  0  0  0  0  0  0  0
    4.4801    0.7712    1.0648 C   0  0  0  0  0  0  0  0  0  0  0  0
    2.6346    1.1534    1.6231 H   0  0  0  0  0  0  0  0  0  0  0  0
    5.1924   -0.4493   -0.5072 H   0  0  0  0  0  0  0  0  0  0  0  0
    6.3262    0.3580    0.4280 H   0  0  0  0  0  0  0  0  0  0  0  0
    2.2888   -0.2324   -2.1415 H   0  0  0  0  0  0  0  0  0  0  0  0
    3.7652   -0.5242   -1.3639 H   0  0  0  0  0  0  0  0  0  0  0  0
    4.3201   -2.7198   -2.0549 H   0  0  0  0  0  0  0  0  0  0  0  0
    0.5108   -1.9260   -0.1600 H   0  0  0  0  0  0  0  0  0  0  0  0
    3.9010   -5.1373   -1.8283 H   0  0  0  0  0  0  0  0  0  0  0  0
    0.2205   -4.3132    0.2355 H   0  0  0  0  0  0  0  0  0  0  0  0
    1.8353   -5.9451   -0.7122 H   0  0  0  0  0  0  0  0  0  0  0  0
  1  9  2  0  0  0  0
  2 13  2  0  0  0  0
  3  9  1  0  0  0  0
  3 13  1  0  0  0  0
  3 14  1  0  0  0  0
  4 13  1  0  0  0  0
  4 15  1  0  0  0  0
  4 16  1  0  0  0  0
  5  6  1  0  0  0  0
  5  9  1  0  0  0  0
  5 17  1  0  0  0  0
  5 18  1  0  0  0  0
  6  7  2  0  0  0  0
  6  8  1  0  0  0  0
  7 10  1  0  0  0  0
  7 19  1  0  0  0  0
  8 11  2  0  0  0  0
  8 20  1  0  0  0  0
 10 12  2  0  0  0  0
 10 21  1  0  0  0  0
 11 12  1  0  0  0  0
 11 22  1  0  0  0  0
 12 23  1  0  0  0  0
M  END
>  <DRUGBANK_ID>
DB01121

>  <SECONDARY_ACCESSION_NUMBERS>
APRD00089

>  <COMMON_NAME>
Phenacemide

>  <CAS_NUMBER>
63-98-9

>  <UNII>
PAI7J52V09

>  <SYNONYMS>
Phenacemide

$$$$
