
 OpenBabel10282417123D

 22 21  0  0  0  0  0  0  0  0999 V2000
    1.9868    0.8306    1.7198 O   0  0  0  0  0  0  0  0  0  0  0  0
    1.9880    2.0455    1.5525 C   0  0  0  0  0  0  0  0  0  0  0  0
    1.1290    2.8304    2.2446 O   0  0  0  0  0  0  0  0  0  0  0  0
    2.9175    2.8156    0.5725 C   0  0  1  0  0  0  0  0  0  0  0  0
    4.3297    2.6201    0.9424 N   0  0  0  0  0  0  0  0  0  0  0  0
    2.6503    2.3271   -0.8749 C   0  0  2  0  0  0  0  0  0  0  0  0
    3.1657    0.8856   -1.0686 C   0  0  0  0  0  0  0  0  0  0  0  0
    3.3162    3.2337   -1.9347 C   0  0  0  0  0  0  0  0  0  0  0  0
    2.9667    2.8013   -3.3560 C   0  0  0  0  0  0  0  0  0  0  0  0
    1.1951    3.7850    2.0700 H   0  0  0  0  0  0  0  0  0  0  0  0
    2.6942    3.8876    0.6459 H   0  0  0  0  0  0  0  0  0  0  0  0
    4.9542    3.1093    0.3071 H   0  0  0  0  0  0  0  0  0  0  0  0
    4.5230    2.9177    1.8935 H   0  0  0  0  0  0  0  0  0  0  0  0
    1.5614    2.3516   -1.0399 H   0  0  0  0  0  0  0  0  0  0  0  0
    3.4193    0.3926   -0.1286 H   0  0  0  0  0  0  0  0  0  0  0  0
    2.4312    0.2592   -1.5830 H   0  0  0  0  0  0  0  0  0  0  0  0
    4.0885    0.8821   -1.6569 H   0  0  0  0  0  0  0  0  0  0  0  0
    3.0256    4.2811   -1.7911 H   0  0  0  0  0  0  0  0  0  0  0  0
    4.4062    3.1916   -1.8222 H   0  0  0  0  0  0  0  0  0  0  0  0
    1.8936    2.9049   -3.5403 H   0  0  0  0  0  0  0  0  0  0  0  0
    3.5100    3.4105   -4.0835 H   0  0  0  0  0  0  0  0  0  0  0  0
    3.2392    1.7578   -3.5439 H   0  0  0  0  0  0  0  0  0  0  0  0
  2  1  2  0  0  0  0
  3  2  1  0  0  0  0
  3 10  1  0  0  0  0
  4  2  1  0  0  0  0
  4  5  1  0  0  0  0
  4 11  1  1  0  0  0
  5 12  1  0  0  0  0
  5 13  1  0  0  0  0
  6 14  1  6  0  0  0
  6  7  1  0  0  0  0
  6  4  1  0  0  0  0
  7 15  1  0  0  0  0
  7 16  1  0  0  0  0
  7 17  1  0  0  0  0
  8  6  1  0  0  0  0
  8 18  1  0  0  0  0
  8 19  1  0  0  0  0
  9  8  1  0  0  0  0
  9 20  1  0  0  0  0
  9 21  1  0  0  0  0
  9 22  1  0  0  0  0
M  END
>  <DRUGBANK_ID>
DB01739

>  <SECONDARY_ACCESSION_NUMBERS>
EXPT01856

>  <COMMON_NAME>
L-alloisoleucine

>  <CAS_NUMBER>
1509-34-8

>  <UNII>
6RNR8XN7S2

>  <SYNONYMS>
(2S,3R)-2-amino-3-methylpentanoic acid; allo-L-isoleucine; Alloisoleucine

$$$$
