XND
 OpenBabel10282417173D

 52 55  0  0  0  0  0  0  0  0999 V2000
    8.0086    0.6771   -0.2660 Cl  0  0  0  0  0  0  0  0  0  0  0  0
    6.4110    0.0684   -0.1184 C   0  0  0  0  0  0  0  0  0  0  0  0
    5.4104    0.3391   -1.0492 C   0  0  0  0  0  0  0  0  0  0  0  0
    4.0952   -0.1616   -0.8587 C   0  0  0  0  0  0  0  0  0  0  0  0
    2.8998    0.3096   -2.0339 Cl  0  0  0  0  0  0  0  0  0  0  0  0
    6.1711   -0.8519    0.8618 C   0  0  0  0  0  0  0  0  0  0  0  0
    5.0790   -1.6699    0.6533 C   0  0  0  0  0  0  0  0  0  0  0  0
    3.8924   -1.2462    0.0294 C   0  0  0  0  0  0  0  0  0  0  0  0
    2.6478   -2.2087   -0.0062 C   0  0  1  0  0  0  0  0  0  0  0  0
    2.7830   -3.1958   -1.1904 C   0  0  0  0  0  0  0  0  0  0  0  0
    3.6999   -2.8277   -2.3373 C   0  0  0  0  0  0  0  0  0  0  0  0
    4.7577   -2.1749   -2.2020 O   0  0  0  0  0  0  0  0  0  0  0  0
    3.5568   -3.3665   -3.6996 C   0  0  0  0  0  0  0  0  0  0  0  0
    2.0913   -2.9272    1.3349 N   0  0  0  0  0  0  0  0  0  0  0  0
    2.6071   -3.1489    2.6374 C   0  0  0  0  0  0  0  0  0  0  0  0
    3.8947   -2.5201    2.9692 C   0  0  0  0  0  0  0  0  0  0  0  0
    2.0646   -3.8296    3.5192 O   0  0  0  0  0  0  0  0  0  0  0  0
    0.7372   -3.4146    1.2053 C   0  0  0  0  0  0  0  0  0  0  0  0
   -0.2635   -2.9278    2.0649 C   0  0  0  0  0  0  0  0  0  0  0  0
   -1.5534   -3.4650    2.0373 C   0  0  0  0  0  0  0  0  0  0  0  0
   -1.8559   -4.5063    1.1661 C   0  0  0  0  0  0  0  0  0  0  0  0
   -0.8602   -5.0104    0.3442 C   0  0  0  0  0  0  0  0  0  0  0  0
   -1.1941   -6.0403   -0.4998 O   0  0  0  0  0  0  0  0  0  0  0  0
    0.4395   -4.4718    0.3410 C   0  0  0  0  0  0  0  0  0  0  0  0
    1.3981   -5.0882   -0.4675 N   0  0  0  0  0  0  0  0  0  0  0  0
    2.2451   -4.4337   -1.3212 C   0  0  0  0  0  0  0  0  0  0  0  0
    2.4084   -5.2180   -2.6141 C   0  0  0  0  0  0  0  0  0  0  0  0
    2.3909   -4.2997   -3.8442 C   0  0  0  0  0  0  0  0  0  0  0  0
    1.0770   -3.5066   -3.9809 C   0  0  0  0  0  0  0  0  0  0  0  0
    2.6572   -5.0913   -5.1223 C   0  0  0  0  0  0  0  0  0  0  0  0
    1.7941   -1.5425   -0.2266 H   0  0  0  0  0  0  0  0  0  0  0  0
    5.6898    0.8011   -1.9941 H   0  0  0  0  0  0  0  0  0  0  0  0
    6.8864   -1.0940    1.6411 H   0  0  0  0  0  0  0  0  0  0  0  0
    5.1644   -2.6754    1.0420 H   0  0  0  0  0  0  0  0  0  0  0  0
    4.4987   -3.9181   -3.8348 H   0  0  0  0  0  0  0  0  0  0  0  0
    3.5375   -2.5495   -4.4302 H   0  0  0  0  0  0  0  0  0  0  0  0
    4.0261   -1.8607    3.8203 H   0  0  0  0  0  0  0  0  0  0  0  0
    4.7107   -3.2474    2.8802 H   0  0  0  0  0  0  0  0  0  0  0  0
    3.8539   -1.7429    2.2536 H   0  0  0  0  0  0  0  0  0  0  0  0
   -0.0368   -2.1387    2.7785 H   0  0  0  0  0  0  0  0  0  0  0  0
   -2.3163   -3.0807    2.7084 H   0  0  0  0  0  0  0  0  0  0  0  0
   -2.8553   -4.9274    1.1294 H   0  0  0  0  0  0  0  0  0  0  0  0
   -0.4115   -6.2024   -1.0565 H   0  0  0  0  0  0  0  0  0  0  0  0
    1.7074   -6.0052   -0.1422 H   0  0  0  0  0  0  0  0  0  0  0  0
    1.5960   -5.9489   -2.7187 H   0  0  0  0  0  0  0  0  0  0  0  0
    3.3446   -5.7854   -2.5425 H   0  0  0  0  0  0  0  0  0  0  0  0
    1.1227   -2.8197   -4.8340 H   0  0  0  0  0  0  0  0  0  0  0  0
    0.2315   -4.1841   -4.1304 H   0  0  0  0  0  0  0  0  0  0  0  0
    0.8520   -2.8903   -3.1030 H   0  0  0  0  0  0  0  0  0  0  0  0
    3.6206   -5.6125   -5.0579 H   0  0  0  0  0  0  0  0  0  0  0  0
    1.8750   -5.8288   -5.3020 H   0  0  0  0  0  0  0  0  0  0  0  0
    2.7138   -4.4129   -5.9823 H   0  0  0  0  0  0  0  0  0  0  0  0
  1  2  1  0  0  0  0
  2  3  2  0  0  0  0
  2  6  1  0  0  0  0
  3  4  1  0  0  0  0
  3 32  1  0  0  0  0
  4  5  1  0  0  0  0
  4  8  2  0  0  0  0
  6  7  2  0  0  0  0
  6 33  1  0  0  0  0
  7  8  1  0  0  0  0
  7 34  1  0  0  0  0
  9 10  1  0  0  0  0
  9 14  1  0  0  0  0
  9 31  1  6  0  0  0
  9  8  1  0  0  0  0
 10 11  1  0  0  0  0
 10 26  2  0  0  0  0
 11 12  2  0  0  0  0
 11 13  1  0  0  0  0
 13 28  1  0  0  0  0
 13 35  1  0  0  0  0
 13 36  1  0  0  0  0
 14 15  1  0  0  0  0
 14 18  1  0  0  0  0
 15 16  1  0  0  0  0
 15 17  2  0  0  0  0
 16 37  1  0  0  0  0
 16 38  1  0  0  0  0
 16 39  1  0  0  0  0
 18 19  2  0  0  0  0
 18 24  1  0  0  0  0
 19 20  1  0  0  0  0
 19 40  1  0  0  0  0
 20 21  2  0  0  0  0
 20 41  1  0  0  0  0
 21 22  1  0  0  0  0
 21 42  1  0  0  0  0
 22 23  1  0  0  0  0
 22 24  2  0  0  0  0
 23 43  1  0  0  0  0
 24 25  1  0  0  0  0
 25 26  1  0  0  0  0
 25 44  1  0  0  0  0
 26 27  1  0  0  0  0
 27 28  1  0  0  0  0
 27 45  1  0  0  0  0
 27 46  1  0  0  0  0
 28 29  1  0  0  0  0
 28 30  1  0  0  0  0
 29 47  1  0  0  0  0
 29 48  1  0  0  0  0
 29 49  1  0  0  0  0
 30 50  1  0  0  0  0
 30 51  1  0  0  0  0
 30 52  1  0  0  0  0
M  END
>  <DRUGBANK_ID>
DB08747

>  <COMMON_NAME>
(11R)-10-acetyl-11-(2,4-dichlorophenyl)-6-hydroxy-3,3-dimethyl-2,3,4,5,10,11-hexahydro-1H-dibenzo[b,e][1,4]diazepin-1-one

$$$$
