1556
 OpenBabel10282417113D

 26 26  0  0  0  0  0  0  0  0999 V2000
   -2.1462    0.0452    0.0247 Cl  0  0  0  0  0  0  0  0  0  0  0  0
    4.0339   -2.1450    1.4361 N   0  0  0  0  0  0  0  0  0  0  0  0
    4.4161   -0.7230    1.3427 C   0  0  0  0  0  0  0  0  0  0  0  0
    3.8835   -0.0424    0.0380 C   0  0  0  0  0  0  0  0  0  0  0  0
    5.9519   -0.6884    1.3453 C   0  0  0  0  0  0  0  0  0  0  0  0
    3.8874    0.0069    2.5890 C   0  0  0  0  0  0  0  0  0  0  0  0
    2.3709    0.0013   -0.0872 C   0  0  0  0  0  0  0  0  0  0  0  0
    1.6791    1.2175   -0.0332 C   0  0  0  0  0  0  0  0  0  0  0  0
    1.6357   -1.1889   -0.2011 C   0  0  0  0  0  0  0  0  0  0  0  0
    0.2806    1.2333   -0.0242 C   0  0  0  0  0  0  0  0  0  0  0  0
    0.2448   -1.1796   -0.1270 C   0  0  0  0  0  0  0  0  0  0  0  0
   -0.4278    0.0318   -0.0434 C   0  0  0  0  0  0  0  0  0  0  0  0
    4.4488   -2.5629    2.2680 H   0  0  0  0  0  0  0  0  0  0  0  0
    3.0284   -2.2025    1.5995 H   0  0  0  0  0  0  0  0  0  0  0  0
    4.2908   -0.5407   -0.8519 H   0  0  0  0  0  0  0  0  0  0  0  0
    4.2720    0.9862    0.0002 H   0  0  0  0  0  0  0  0  0  0  0  0
    6.3256    0.3410    1.3395 H   0  0  0  0  0  0  0  0  0  0  0  0
    6.3592   -1.1801    2.2376 H   0  0  0  0  0  0  0  0  0  0  0  0
    6.3645   -1.2008    0.4681 H   0  0  0  0  0  0  0  0  0  0  0  0
    4.2168    1.0517    2.5992 H   0  0  0  0  0  0  0  0  0  0  0  0
    2.7923    0.0028    2.6316 H   0  0  0  0  0  0  0  0  0  0  0  0
    4.2466   -0.4648    3.5106 H   0  0  0  0  0  0  0  0  0  0  0  0
    2.2187    2.1615    0.0168 H   0  0  0  0  0  0  0  0  0  0  0  0
    2.1470   -2.1422   -0.3112 H   0  0  0  0  0  0  0  0  0  0  0  0
   -0.2481    2.1804    0.0146 H   0  0  0  0  0  0  0  0  0  0  0  0
   -0.2961   -2.1221   -0.1307 H   0  0  0  0  0  0  0  0  0  0  0  0
  1 12  1  0  0  0  0
  2  3  1  0  0  0  0
  2 13  1  0  0  0  0
  2 14  1  0  0  0  0
  3  4  1  0  0  0  0
  3  5  1  0  0  0  0
  3  6  1  0  0  0  0
  4  7  1  0  0  0  0
  4 15  1  0  0  0  0
  4 16  1  0  0  0  0
  5 17  1  0  0  0  0
  5 18  1  0  0  0  0
  5 19  1  0  0  0  0
  6 20  1  0  0  0  0
  6 21  1  0  0  0  0
  6 22  1  0  0  0  0
  7  8  2  0  0  0  0
  7  9  1  0  0  0  0
  8 10  1  0  0  0  0
  8 23  1  0  0  0  0
  9 11  2  0  0  0  0
  9 24  1  0  0  0  0
 10 12  2  0  0  0  0
 10 25  1  0  0  0  0
 11 12  1  0  0  0  0
 11 26  1  0  0  0  0
M  END
>  <DRUGBANK_ID>
DB01556

>  <COMMON_NAME>
Chlorphentermine

>  <CAS_NUMBER>
461-78-9

>  <UNII>
NHW07912O7

>  <SYNONYMS>
4-Chloro-a,a-dimethylbenzeneethanamine; 4-Chloro-a,a-dimethylphenethylamine; a,a-Dimethyl-p-chlorophenethylamine; Chlorphentermine; Chlorphenterminum; Clorfentermina

$$$$
