228
 OpenBabel10282417163D

 55 59  0  0  0  0  0  0  0  0999 V2000
    3.8613   -7.9381   -3.4122 C   0  0  0  0  0  0  0  0  0  0  0  0
    4.2626   -8.2660   -4.6765 C   0  0  0  0  0  0  0  0  0  0  0  0
    4.5549   -7.3739   -5.6538 O   0  0  0  0  0  0  0  0  0  0  0  0
    4.9249   -8.2704   -6.7157 C   0  0  0  0  0  0  0  0  0  0  0  0
    4.7656   -9.6666   -6.3766 O   0  0  0  0  0  0  0  0  0  0  0  0
    4.4108   -9.5719   -5.0682 C   0  0  0  0  0  0  0  0  0  0  0  0
    4.2042  -10.6225   -4.1980 C   0  0  0  0  0  0  0  0  0  0  0  0
    3.8659  -10.3171   -2.8796 C   0  0  0  0  0  0  0  0  0  0  0  0
    3.6960   -8.9755   -2.4852 C   0  0  0  0  0  0  0  0  0  0  0  0
    3.4588   -8.6355   -1.0445 C   0  0  0  0  0  0  0  0  0  0  0  0
    4.7129   -7.9556   -0.5026 C   0  0  0  0  0  0  0  0  0  0  0  0
    4.8366   -6.5439   -0.8717 N   0  0  0  0  0  0  0  0  0  0  0  0
    4.5486   -5.3478   -0.2773 C   0  0  0  0  0  0  0  0  0  0  0  0
    4.6890   -4.3550   -0.9879 O   0  0  0  0  0  0  0  0  0  0  0  0
    4.1010   -5.2153    1.2175 C   0  0  1  0  0  0  0  0  0  0  0  0
    4.2447   -6.4565    2.0776 C   0  0  0  0  0  0  0  0  0  0  0  0
    5.7767   -6.5754    2.1956 C   0  0  0  0  0  0  0  0  0  0  0  0
    6.2064   -5.1092    2.3997 C   0  0  0  0  0  0  0  0  0  0  0  0
    5.0575   -4.3483    1.9058 N   0  0  0  0  0  0  0  0  0  0  0  0
    4.8055   -3.0694    2.3104 C   0  0  0  0  0  0  0  0  0  0  0  0
    5.7276   -2.1481    2.0070 N   0  0  0  0  0  0  0  0  0  0  0  0
    3.6561   -2.7158    3.0054 C   0  0  0  0  0  0  0  0  0  0  0  0
    3.5354   -1.4039    3.4421 C   0  0  0  0  0  0  0  0  0  0  0  0
    2.3306   -0.9193    4.1957 C   0  0  0  0  0  0  0  0  0  0  0  0
    4.4900   -0.4868    3.2068 N   0  0  0  0  0  0  0  0  0  0  0  0
    5.5248   -0.8940    2.4487 C   0  0  0  0  0  0  0  0  0  0  0  0
    6.4536    0.0858    2.0499 N   0  0  0  0  0  0  0  0  0  0  0  0
    6.8346    0.3893    0.7644 C   0  0  0  0  0  0  0  0  0  0  0  0
    7.7471    1.4101    0.8900 C   0  0  0  0  0  0  0  0  0  0  0  0
    7.9514    1.7259    2.2098 N   0  0  0  0  0  0  0  0  0  0  0  0
    7.1442    0.9293    2.8795 C   0  0  0  0  0  0  0  0  0  0  0  0
    3.0730   -4.8408    1.2210 H   0  0  0  0  0  0  0  0  0  0  0  0
    3.7205   -6.8954   -3.1514 H   0  0  0  0  0  0  0  0  0  0  0  0
    4.3032   -8.0369   -7.5858 H   0  0  0  0  0  0  0  0  0  0  0  0
    5.9770   -8.0969   -6.9673 H   0  0  0  0  0  0  0  0  0  0  0  0
    4.3169  -11.6506   -4.5192 H   0  0  0  0  0  0  0  0  0  0  0  0
    3.7474  -11.1217   -2.1554 H   0  0  0  0  0  0  0  0  0  0  0  0
    2.5585   -8.0191   -0.9374 H   0  0  0  0  0  0  0  0  0  0  0  0
    3.2815   -9.5531   -0.4678 H   0  0  0  0  0  0  0  0  0  0  0  0
    4.7160   -8.1237    0.5578 H   0  0  0  0  0  0  0  0  0  0  0  0
    5.6323   -8.4480   -0.8358 H   0  0  0  0  0  0  0  0  0  0  0  0
    5.1938   -6.3722   -1.8066 H   0  0  0  0  0  0  0  0  0  0  0  0
    3.8392   -6.2914    3.0807 H   0  0  0  0  0  0  0  0  0  0  0  0
    3.6528   -7.2886    1.6997 H   0  0  0  0  0  0  0  0  0  0  0  0
    6.0849   -7.2464    3.0005 H   0  0  0  0  0  0  0  0  0  0  0  0
    6.2754   -6.9445    1.2895 H   0  0  0  0  0  0  0  0  0  0  0  0
    6.4016   -4.9427    3.4635 H   0  0  0  0  0  0  0  0  0  0  0  0
    7.1101   -4.8813    1.8229 H   0  0  0  0  0  0  0  0  0  0  0  0
    2.8955   -3.4482    3.2426 H   0  0  0  0  0  0  0  0  0  0  0  0
    2.6388   -0.4982    5.1586 H   0  0  0  0  0  0  0  0  0  0  0  0
    1.8214   -0.1334    3.6258 H   0  0  0  0  0  0  0  0  0  0  0  0
    1.6098   -1.7195    4.3879 H   0  0  0  0  0  0  0  0  0  0  0  0
    6.3863   -0.0941   -0.0928 H   0  0  0  0  0  0  0  0  0  0  0  0
    8.2594    1.9420    0.0986 H   0  0  0  0  0  0  0  0  0  0  0  0
    7.0592    0.8728    3.9565 H   0  0  0  0  0  0  0  0  0  0  0  0
  1  9  2  0  0  0  0
  1  2  1  0  0  0  0
  1 33  1  0  0  0  0
  2  3  1  0  0  0  0
  2  6  2  0  0  0  0
  3  4  1  0  0  0  0
  4  5  1  0  0  0  0
  4 34  1  0  0  0  0
  4 35  1  0  0  0  0
  5  6  1  0  0  0  0
  6  7  1  0  0  0  0
  7  8  2  0  0  0  0
  7 36  1  0  0  0  0
  8  9  1  0  0  0  0
  8 37  1  0  0  0  0
  9 10  1  0  0  0  0
 10 11  1  0  0  0  0
 10 38  1  0  0  0  0
 10 39  1  0  0  0  0
 11 12  1  0  0  0  0
 11 40  1  0  0  0  0
 11 41  1  0  0  0  0
 12 13  1  0  0  0  0
 12 42  1  0  0  0  0
 13 14  2  0  0  0  0
 15 16  1  0  0  0  0
 15 19  1  0  0  0  0
 15 32  1  1  0  0  0
 15 13  1  0  0  0  0
 16 17  1  0  0  0  0
 16 43  1  0  0  0  0
 16 44  1  0  0  0  0
 17 18  1  0  0  0  0
 17 45  1  0  0  0  0
 17 46  1  0  0  0  0
 18 19  1  0  0  0  0
 18 47  1  0  0  0  0
 18 48  1  0  0  0  0
 19 20  1  0  0  0  0
 20 22  1  0  0  0  0
 20 21  2  0  0  0  0
 21 26  1  0  0  0  0
 22 23  2  0  0  0  0
 22 49  1  0  0  0  0
 23 24  1  0  0  0  0
 23 25  1  0  0  0  0
 24 50  1  0  0  0  0
 24 51  1  0  0  0  0
 24 52  1  0  0  0  0
 25 26  2  0  0  0  0
 26 27  1  0  0  0  0
 27 28  1  0  0  0  0
 27 31  1  0  0  0  0
 28 29  2  0  0  0  0
 28 53  1  0  0  0  0
 29 30  1  0  0  0  0
 29 54  1  0  0  0  0
 30 31  2  0  0  0  0
 31 55  1  0  0  0  0
M  END
>  <DRUGBANK_ID>
DB06916

>  <COMMON_NAME>
N-[2-(1,3-BENZODIOXOL-5-YL)ETHYL]-1-[2-(1H-IMIDAZOL-1-YL)-6-METHYLPYRIMIDIN-4-YL]-D-PROLINAMIDE

$$$$
