
 OpenBabel10282417213D

 24 25  0  0  0  0  0  0  0  0999 V2000
    0.5513    0.6705   -0.1567 N   0  0  0  0  0  0  0  0  0  0  0  0
    0.6032   -0.7545   -0.4777 C   0  0  2  0  0  0  0  0  0  0  0  0
   -0.5933    1.4226   -0.0578 C   0  0  0  0  0  0  0  0  0  0  0  0
    1.8518    0.7973    0.1743 C   0  0  0  0  0  0  0  0  0  0  0  0
   -0.5951   -1.7022    0.4837 S   0  0  0  0  0  0  0  0  0  0  0  0
   -1.7913    0.7824    0.0211 C   0  0  0  0  0  0  0  0  0  0  0  0
   -0.5811    2.9475   -0.0018 C   0  0  0  0  0  0  0  0  0  0  0  0
    2.4802    1.7836    0.5053 O   0  0  0  0  0  0  0  0  0  0  0  0
   -1.9896   -0.7091    0.0204 C   0  0  0  0  0  0  0  0  0  0  0  0
   -3.1345    1.4651    0.1719 C   0  0  0  0  0  0  0  0  0  0  0  0
    0.6080    3.5653   -0.1339 O   0  0  0  0  0  0  0  0  0  0  0  0
   -1.5962    3.6281    0.0819 O   0  0  0  0  0  0  0  0  0  0  0  0
    0.5657   -0.9392   -1.5594 H   0  0  0  0  0  0  0  0  0  0  0  0
    2.0571   -0.7691    0.1137 C   0  0  1  0  0  0  0  0  0  0  0  0
    2.1051   -1.4419    1.4405 N   0  0  0  0  0  0  0  0  0  0  0  0
   -2.7362   -0.9688    0.7752 H   0  0  0  0  0  0  0  0  0  0  0  0
   -2.3493   -1.0189   -0.9636 H   0  0  0  0  0  0  0  0  0  0  0  0
   -3.1841    2.0341    1.1054 H   0  0  0  0  0  0  0  0  0  0  0  0
   -3.3588    2.0923   -0.6938 H   0  0  0  0  0  0  0  0  0  0  0  0
   -3.9458    0.7290    0.2269 H   0  0  0  0  0  0  0  0  0  0  0  0
    1.4152    3.0169   -0.0652 H   0  0  0  0  0  0  0  0  0  0  0  0
    2.8266   -1.1208   -0.5773 H   0  0  0  0  0  0  0  0  0  0  0  0
    1.1636   -1.6327    1.8093 H   0  0  0  0  0  0  0  0  0  0  0  0
    2.5820   -0.9169    2.1707 H   0  0  0  0  0  0  0  0  0  0  0  0
  1  2  1  0  0  0  0
  1  3  1  0  0  0  0
  1  4  1  0  0  0  0
  2 14  1  0  0  0  0
  2  5  1  0  0  0  0
  2 13  1  6  0  0  0
  3  6  2  0  0  0  0
  3  7  1  0  0  0  0
  4  8  2  0  0  0  0
  4 14  1  0  0  0  0
  5  9  1  0  0  0  0
  6 10  1  0  0  0  0
  6  9  1  0  0  0  0
  7 11  1  0  0  0  0
  7 12  2  0  0  0  0
  9 16  1  0  0  0  0
  9 17  1  0  0  0  0
 10 18  1  0  0  0  0
 10 19  1  0  0  0  0
 10 20  1  0  0  0  0
 11 21  1  0  0  0  0
 14 22  1  6  0  0  0
 14 15  1  0  0  0  0
 15 23  1  0  0  0  0
 15 24  1  0  0  0  0
M  END
>  <DRUGBANK_ID>
DB14107

>  <COMMON_NAME>
7-Aminodesacetoxycephalosporanic acid

>  <CAS_NUMBER>
22252-43-3

>  <UNII>
ANM3MSM8TN

>  <SYNONYMS>
3-methyl-7-amino-Δ3-cephem-4-carboxylic acid; 3-methyl-7-aminoceph-3-em-4-carboxylic acid; 7-ADCA; 7-amino-3-methyl-3-cephem-4-carboxylic acid; 7beta-aminodeacetoxycephalosporanic acid; 7β-aminodeacetoxycephalosporanic acid

$$$$
