
 OpenBabel10282417223D

  5  3  0  0  0  0  0  0  0  0999 V2000
    1.0857    0.3392    0.4567 N   0  3  0  0  0  0  0  0  0  0  0  0
    0.4413    1.2017   -0.1529 O   0  0  0  0  0  0  0  0  0  0  0  0
    0.4677   -0.6098    0.9540 O   0  5  0  0  0  0  0  0  0  0  0  0
    2.2889    0.2124    0.2185 O   0  5  0  0  0  0  0  0  0  0  0  0
    0.5777   -0.8604   -1.5637 Na  0  3  0  0  0  0  0  0  0  0  0  0
  1  2  2  0  0  0  0
  1  3  1  0  0  0  0
  1  4  1  0  0  0  0
M  CHG  4   1   1   3  -1   4  -1   5   1
M  END
>  <DRUGBANK_ID>
DB15952

>  <COMMON_NAME>
Sodium nitrate

>  <CAS_NUMBER>
7631-99-4

>  <UNII>
8M4L3H2ZVZ

>  <SYNONYMS>
Chile saltpeter; Cubic niter; Soda niter

$$$$
