
 OpenBabel10282417243D

175175  0  0  1  0  0  0  0  0999 V2000
    1.0239   -0.3110   -0.0583 C   0  0  0  0  0  0  0  0  0  0  0  0
    0.6502   -0.9119   -1.3313 C   0  0  0  0  0  0  0  0  0  0  0  0
    1.3333   -2.2645   -1.1727 C   0  0  0  0  0  0  0  0  0  0  0  0
    1.3369   -2.9050    0.1922 C   0  0  0  0  0  0  0  0  0  0  0  0
    0.1110   -3.1413   -0.3209 C   0  0  0  0  0  0  0  0  0  0  0  0
   -0.7723   -3.8043   -1.5828 C   0  0  0  0  0  0  0  0  0  0  0  0
   -0.5568   -5.3147   -1.1531 C   0  0  0  0  0  0  0  0  0  0  0  0
   -0.9436   -5.8972    0.1846 C   0  0  0  0  0  0  0  0  0  0  0  0
   -2.2780   -5.6824    0.0270 O   0  0  0  0  0  0  0  0  0  0  0  0
   -3.9974   -4.4312    0.3876 C   0  0  2  0  0  0  0  0  0  0  0  0
   -2.1328   -4.0942    0.7140 C   0  0  2  0  0  0  0  0  0  0  0  0
   -1.2843   -3.8941    1.9838 O   0  0  0  0  0  0  0  0  0  0  0  0
   -1.6458   -3.8040    3.2056 C   0  0  0  0  0  0  0  0  0  0  0  0
   -2.8522   -3.8789    3.3347 O   0  0  0  0  0  0  0  0  0  0  0  0
   -0.6082   -3.4180    4.1361 C   0  0  0  0  0  0  0  0  0  0  0  0
    0.1327   -4.5971    4.2903 C   0  0  0  0  0  0  0  0  0  0  0  0
    0.8641   -4.6804    3.0110 C   0  0  0  0  0  0  0  0  0  0  0  0
   -3.1088   -2.2555   -0.2637 C   0  0  2  0  0  0  0  0  0  0  0  0
   -1.9849   -0.8944    0.3589 O   0  0  0  0  0  0  0  0  0  0  0  0
   -1.0683   -1.0428    1.8186 P   0  0  0  0  0  0  0  0  0  0  0  0
   -1.4262    0.3137    2.2682 O   0  0  0  0  0  0  0  0  0  0  0  0
   -1.8940   -2.1096    2.7709 O   0  0  0  0  0  0  0  0  0  0  0  0
   -3.2173   -3.1172    1.6311 C   0  0  0  0  0  0  0  0  0  0  0  0
   -3.8234   -1.2608    0.7554 O   0  0  0  0  0  0  0  0  0  0  0  0
   -5.0881   -0.8389    2.6163 C   0  0  0  0  0  0  0  0  0  0  0  0
   -4.5997   -1.1509    3.5674 O   0  0  0  0  0  0  0  0  0  0  0  0
   -5.6404    0.6847    2.6807 C   0  0  0  0  0  0  0  0  0  0  0  0
   -4.4942    2.5047    2.7465 C   0  0  0  0  0  0  0  0  0  0  0  0
   -0.1517   -1.1913    3.2783 O   0  0  0  0  0  0  0  0  0  0  0  0
    0.2396    0.0835    3.8059 C   0  0  0  0  0  0  0  0  0  0  0  0
    1.0860    0.8550    2.9299 O   0  0  0  0  0  0  0  0  0  0  0  0
    2.2295    0.3033    2.4710 C   0  0  0  0  0  0  0  0  0  0  0  0
    2.6250   -0.7891    2.8580 O   0  0  0  0  0  0  0  0  0  0  0  0
    2.9958    1.1264    1.3704 C   0  0  0  0  0  0  0  0  0  0  0  0
    2.4214    1.5185    0.0043 C   0  0  0  0  0  0  0  0  0  0  0  0
   -4.6956   -2.1390    1.5055 C   0  0  1  0  0  0  0  0  0  0  0  0
   -4.5672   -0.4357    1.4081 O   0  0  0  0  0  0  0  0  0  0  0  0
   -4.6900    1.2831    1.2548 P   0  0  0  0  0  0  0  0  0  0  0  0
   -6.2530    1.4899    0.8284 O   0  0  0  0  0  0  0  0  0  0  0  0
   -3.7476    1.1262    3.1501 O   0  0  0  0  0  0  0  0  0  0  0  0
   -3.2247    0.2570    3.9071 C   0  0  0  0  0  0  0  0  0  0  0  0
   -4.4347    0.2443    4.4895 O   0  0  0  0  0  0  0  0  0  0  0  0
   -5.5459    0.3025    5.0456 C   0  0  0  0  0  0  0  0  0  0  0  0
   -5.6380    1.4239    5.4607 O   0  0  0  0  0  0  0  0  0  0  0  0
   -6.7194   -0.8582    4.6551 C   0  0  0  0  0  0  0  0  0  0  0  0
   -7.7807   -1.2161    3.0085 C   0  0  0  0  0  0  0  0  0  0  0  0
   -4.8128    3.0019    1.1016 O   0  0  0  0  0  0  0  0  0  0  0  0
   -4.1768    3.4360   -0.1086 C   0  0  0  0  0  0  0  0  0  0  0  0
   -2.7498    3.1211   -0.1758 O   0  0  0  0  0  0  0  0  0  0  0  0
   -1.9796    3.6508    0.8422 C   0  0  0  0  0  0  0  0  0  0  0  0
   -2.3994    4.3619    1.7455 O   0  0  0  0  0  0  0  0  0  0  0  0
   -0.5476    3.2435    0.8083 C   0  0  0  0  0  0  0  0  0  0  0  0
   -0.4855    1.8191    0.9490 C   0  0  0  0  0  0  0  0  0  0  0  0
   -5.5721   -3.1426    1.6407 C   0  0  2  0  0  0  0  0  0  0  0  0
   -5.7001   -2.6359    2.7854 O   0  0  0  0  0  0  0  0  0  0  0  0
   -4.6506   -2.7383    4.1569 P   0  0  0  0  0  0  0  0  0  0  0  0
   -4.8513   -1.7276    5.3432 O   0  0  0  0  0  0  0  0  0  0  0  0
   -5.6921   -3.8672    4.8456 O   0  0  0  0  0  0  0  0  0  0  0  0
   -6.9168   -4.1027    4.2148 C   0  0  0  0  0  0  0  0  0  0  0  0
   -7.8408   -3.0454    4.0509 O   0  0  0  0  0  0  0  0  0  0  0  0
   -8.4110   -2.3018    5.1181 C   0  0  0  0  0  0  0  0  0  0  0  0
   -8.1094   -2.5767    6.2743 O   0  0  0  0  0  0  0  0  0  0  0  0
   -9.0383   -0.5981    4.7296 C   0  0  0  0  0  0  0  0  0  0  0  0
   -8.0824    0.7050    4.0442 C   0  0  0  0  0  0  0  0  0  0  0  0
   -3.6011   -2.8407    5.5284 O   0  0  0  0  0  0  0  0  0  0  0  0
   -2.4474   -2.2884    5.5036 C   0  0  0  0  0  0  0  0  0  0  0  0
   -2.5598   -3.6981    5.0381 O   0  0  0  0  0  0  0  0  0  0  0  0
   -2.3685   -5.0570    4.9306 C   0  0  0  0  0  0  0  0  0  0  0  0
   -2.1092   -5.4864    6.0115 O   0  0  0  0  0  0  0  0  0  0  0  0
   -1.6311   -5.9775    3.4917 C   0  0  0  0  0  0  0  0  0  0  0  0
   -2.4324   -6.0533    2.3961 C   0  0  0  0  0  0  0  0  0  0  0  0
   -5.0298   -4.5530    1.7079 C   0  0  1  0  0  0  0  0  0  0  0  0
   -6.0595   -5.3995    1.4633 O   0  0  0  0  0  0  0  0  0  0  0  0
   -6.3849   -5.3137   -0.0988 P   0  0  0  0  0  0  0  0  0  0  0  0
   -6.3469   -3.8220   -0.1313 O   0  0  0  0  0  0  0  0  0  0  0  0
   -5.1719   -6.0918   -0.7879 O   0  0  0  0  0  0  0  0  0  0  0  0
   -4.3015   -6.8436   -0.0775 C   0  0  0  0  0  0  0  0  0  0  0  0
   -3.6655   -5.8643    0.4346 O   0  0  0  0  0  0  0  0  0  0  0  0
   -2.8594   -4.4244   -0.8579 C   0  0  0  0  0  0  0  0  0  0  0  0
   -3.0507   -4.7553   -2.0104 O   0  0  0  0  0  0  0  0  0  0  0  0
   -1.6298   -2.7181    0.0254 C   0  0  0  0  0  0  0  0  0  0  0  0
   -2.7092   -1.7758    1.4411 C   0  0  0  0  0  0  0  0  0  0  0  0
   -7.1985   -4.9498   -1.3769 O   0  0  0  0  0  0  0  0  0  0  0  0
   -6.2635   -4.6188   -2.4658 C   0  0  0  0  0  0  0  0  0  0  0  0
   -5.4231   -3.4311   -2.3853 O   0  0  0  0  0  0  0  0  0  0  0  0
   -6.1055   -2.2449   -2.3133 C   0  0  0  0  0  0  0  0  0  0  0  0
   -7.3154   -2.1477   -2.2558 O   0  0  0  0  0  0  0  0  0  0  0  0
   -5.3185   -0.9681   -2.3017 C   0  0  0  0  0  0  0  0  0  0  0  0
   -4.7809   -1.0417   -1.0344 C   0  0  0  0  0  0  0  0  0  0  0  0
    0.6690   -0.4967    0.9244 H   0  0  0  0  0  0  0  0  0  0  0  0
    0.5855    0.6405   -0.3539 H   0  0  0  0  0  0  0  0  0  0  0  0
    2.1219   -0.5258    0.1584 H   0  0  0  0  0  0  0  0  0  0  0  0
   -0.4525   -0.7897   -1.3980 H   0  0  0  0  0  0  0  0  0  0  0  0
    0.9900   -0.4194   -2.2081 H   0  0  0  0  0  0  0  0  0  0  0  0
    0.9325   -2.8598   -1.9944 H   0  0  0  0  0  0  0  0  0  0  0  0
    2.3608   -2.2400   -1.1782 H   0  0  0  0  0  0  0  0  0  0  0  0
    1.3673   -3.9597    0.4040 H   0  0  0  0  0  0  0  0  0  0  0  0
    1.0810   -2.3138    1.1257 H   0  0  0  0  0  0  0  0  0  0  0  0
   -0.1205   -3.7378    0.5724 H   0  0  0  0  0  0  0  0  0  0  0  0
   -0.1716   -1.9090   -0.0596 H   0  0  0  0  0  0  0  0  0  0  0  0
   -1.9602   -3.2477   -1.7213 H   0  0  0  0  0  0  0  0  0  0  0  0
   -0.8211   -3.1809   -2.4246 H   0  0  0  0  0  0  0  0  0  0  0  0
   -1.1830   -5.9159   -1.7617 H   0  0  0  0  0  0  0  0  0  0  0  0
    0.4448   -5.3015   -0.8733 H   0  0  0  0  0  0  0  0  0  0  0  0
   -0.8255   -6.9082    0.4666 H   0  0  0  0  0  0  0  0  0  0  0  0
   -0.6911   -5.3761    1.0476 H   0  0  0  0  0  0  0  0  0  0  0  0
   -4.4872   -4.1652   -0.6407 H   0  0  0  0  0  0  0  0  0  0  0  0
   -1.4437   -4.2332   -0.0101 H   0  0  0  0  0  0  0  0  0  0  0  0
   -0.2964   -2.4587    4.2770 H   0  0  0  0  0  0  0  0  0  0  0  0
   -0.8777   -3.3645    5.1353 H   0  0  0  0  0  0  0  0  0  0  0  0
    0.4628   -4.6063    5.2750 H   0  0  0  0  0  0  0  0  0  0  0  0
   -0.4323   -5.4536    4.6590 H   0  0  0  0  0  0  0  0  0  0  0  0
    1.4048   -3.7802    2.8466 H   0  0  0  0  0  0  0  0  0  0  0  0
    1.1695   -5.6968    2.9089 H   0  0  0  0  0  0  0  0  0  0  0  0
    0.2922   -4.6349    2.1098 H   0  0  0  0  0  0  0  0  0  0  0  0
   -2.9628   -1.5404   -1.1854 H   0  0  0  0  0  0  0  0  0  0  0  0
   -3.2309   -3.2731    0.7163 H   0  0  0  0  0  0  0  0  0  0  0  0
   -3.7408   -3.7036    2.0510 H   0  0  0  0  0  0  0  0  0  0  0  0
   -6.3304    0.0288    1.6273 H   0  0  0  0  0  0  0  0  0  0  0  0
   -6.1856    1.1175    3.3475 H   0  0  0  0  0  0  0  0  0  0  0  0
   -3.4006    2.2234    1.5897 H   0  0  0  0  0  0  0  0  0  0  0  0
   -5.5979    2.6742    2.4968 H   0  0  0  0  0  0  0  0  0  0  0  0
   -3.1416    2.2958    2.2781 H   0  0  0  0  0  0  0  0  0  0  0  0
   -0.6751    0.6529    4.0586 H   0  0  0  0  0  0  0  0  0  0  0  0
    0.7517   -0.0205    4.7443 H   0  0  0  0  0  0  0  0  0  0  0  0
    3.2425    2.0870    1.8013 H   0  0  0  0  0  0  0  0  0  0  0  0
    3.9118    0.5647    1.1709 H   0  0  0  0  0  0  0  0  0  0  0  0
    1.5534    2.1117    0.1691 H   0  0  0  0  0  0  0  0  0  0  0  0
    3.0042    2.0055   -0.7117 H   0  0  0  0  0  0  0  0  0  0  0  0
    2.2091    0.8364   -0.8357 H   0  0  0  0  0  0  0  0  0  0  0  0
   -3.6948   -1.3191    2.4405 H   0  0  0  0  0  0  0  0  0  0  0  0
   -2.9739   -0.0189    2.9795 H   0  0  0  0  0  0  0  0  0  0  0  0
   -2.5558    0.3990    4.6166 H   0  0  0  0  0  0  0  0  0  0  0  0
   -6.5272   -1.8027    5.1152 H   0  0  0  0  0  0  0  0  0  0  0  0
   -7.2831   -0.4832    5.5604 H   0  0  0  0  0  0  0  0  0  0  0  0
   -7.1300   -1.5981    2.3129 H   0  0  0  0  0  0  0  0  0  0  0  0
   -8.7155   -1.7892    3.1025 H   0  0  0  0  0  0  0  0  0  0  0  0
   -8.4074   -0.3894    2.4492 H   0  0  0  0  0  0  0  0  0  0  0  0
   -4.6958    2.9474   -0.9469 H   0  0  0  0  0  0  0  0  0  0  0  0
   -4.2942    4.5135   -0.2132 H   0  0  0  0  0  0  0  0  0  0  0  0
   -0.0463    3.5018   -0.0969 H   0  0  0  0  0  0  0  0  0  0  0  0
   -0.0062    3.6350    1.6823 H   0  0  0  0  0  0  0  0  0  0  0  0
   -1.0063    1.2100    0.2031 H   0  0  0  0  0  0  0  0  0  0  0  0
    0.4639    1.4131    1.1793 H   0  0  0  0  0  0  0  0  0  0  0  0
   -0.7570    1.7819    1.9604 H   0  0  0  0  0  0  0  0  0  0  0  0
   -5.8499   -2.5350    0.8190 H   0  0  0  0  0  0  0  0  0  0  0  0
   -6.6607   -4.5048    3.2468 H   0  0  0  0  0  0  0  0  0  0  0  0
   -7.5712   -4.8070    4.6587 H   0  0  0  0  0  0  0  0  0  0  0  0
   -9.8445   -0.7329    4.0284 H   0  0  0  0  0  0  0  0  0  0  0  0
   -9.2368   -0.1711    5.6900 H   0  0  0  0  0  0  0  0  0  0  0  0
   -7.4199    0.4217    3.2189 H   0  0  0  0  0  0  0  0  0  0  0  0
   -8.4819    1.5639    3.6345 H   0  0  0  0  0  0  0  0  0  0  0  0
   -7.3307    1.0484    4.6958 H   0  0  0  0  0  0  0  0  0  0  0  0
   -2.3181   -1.4499    4.7997 H   0  0  0  0  0  0  0  0  0  0  0  0
   -1.6923   -2.3366    6.2394 H   0  0  0  0  0  0  0  0  0  0  0  0
   -0.6682   -5.8477    2.9435 H   0  0  0  0  0  0  0  0  0  0  0  0
   -1.2523   -6.9225    3.6998 H   0  0  0  0  0  0  0  0  0  0  0  0
   -2.5084   -5.1372    1.9981 H   0  0  0  0  0  0  0  0  0  0  0  0
   -1.9201   -6.6895    1.7726 H   0  0  0  0  0  0  0  0  0  0  0  0
   -3.4012   -6.1346    2.6420 H   0  0  0  0  0  0  0  0  0  0  0  0
   -4.4056   -4.7876    2.6377 H   0  0  0  0  0  0  0  0  0  0  0  0
   -4.5546   -7.1710    0.9241 H   0  0  0  0  0  0  0  0  0  0  0  0
   -3.4164   -7.1772   -0.5611 H   0  0  0  0  0  0  0  0  0  0  0  0
   -0.9682   -2.6227    1.0092 H   0  0  0  0  0  0  0  0  0  0  0  0
   -1.4353   -2.0759   -0.8346 H   0  0  0  0  0  0  0  0  0  0  0  0
   -3.4215   -2.4000    2.8058 H   0  0  0  0  0  0  0  0  0  0  0  0
   -2.7535   -0.5818    1.6934 H   0  0  0  0  0  0  0  0  0  0  0  0
   -4.0947   -2.4999    0.4495 H   0  0  0  0  0  0  0  0  0  0  0  0
   -5.6060   -5.4926   -2.6014 H   0  0  0  0  0  0  0  0  0  0  0  0
   -6.7972   -4.5513   -3.3926 H   0  0  0  0  0  0  0  0  0  0  0  0
   -4.4109   -0.9110   -2.8804 H   0  0  0  0  0  0  0  0  0  0  0  0
   -5.8257   -0.0650   -2.0173 H   0  0  0  0  0  0  0  0  0  0  0  0
   -4.4522   -2.1798   -1.2395 H   0  0  0  0  0  0  0  0  0  0  0  0
   -3.9903   -0.1479   -0.8320 H   0  0  0  0  0  0  0  0  0  0  0  0
   -5.4830   -1.1240   -0.2157 H   0  0  0  0  0  0  0  0  0  0  0  0
  1  2  1  0  0  0  0
  1 90  1  0  0  0  0
  1 91  1  0  0  0  0
  1 92  1  0  0  0  0
  2  3  1  0  0  0  0
  2 93  1  0  0  0  0
  2 94  1  0  0  0  0
  3  4  1  0  0  0  0
  3 95  1  0  0  0  0
  3 96  1  0  0  0  0
  4  5  1  0  0  0  0
  4 97  1  0  0  0  0
  4 98  1  0  0  0  0
  5  6  1  0  0  0  0
  5 99  1  0  0  0  0
  5100  1  0  0  0  0
  6  7  1  0  0  0  0
  6101  1  0  0  0  0
  6102  1  0  0  0  0
  7  8  1  0  0  0  0
  7103  1  0  0  0  0
  7104  1  0  0  0  0
  8  9  1  0  0  0  0
  8105  1  0  0  0  0
  8106  1  0  0  0  0
 10  9  1  0  0  0  0
 10 11  1  0  0  0  0
 10 72  1  0  0  0  0
 10107  1  6  0  0  0
 11 12  1  0  0  0  0
 11 18  1  0  0  0  0
 11108  1  6  0  0  0
 12 13  1  0  0  0  0
 13 14  2  0  0  0  0
 13 15  1  0  0  0  0
 15 16  1  0  0  0  0
 15109  1  0  0  0  0
 15110  1  0  0  0  0
 16 17  1  0  0  0  0
 16111  1  0  0  0  0
 16112  1  0  0  0  0
 17113  1  0  0  0  0
 17114  1  0  0  0  0
 17115  1  0  0  0  0
 18 19  1  0  0  0  0
 18 36  1  0  0  0  0
 18116  1  6  0  0  0
 19 20  1  0  0  0  0
 20 21  2  0  0  0  0
 20 22  1  0  0  0  0
 20 29  1  0  0  0  0
 22 23  1  0  0  0  0
 23 24  1  0  0  0  0
 23117  1  0  0  0  0
 23118  1  0  0  0  0
 24 25  1  0  0  0  0
 25 26  2  0  0  0  0
 25 27  1  0  0  0  0
 27 28  1  0  0  0  0
 27119  1  0  0  0  0
 27120  1  0  0  0  0
 28121  1  0  0  0  0
 28122  1  0  0  0  0
 28123  1  0  0  0  0
 29 30  1  0  0  0  0
 30 31  1  0  0  0  0
 30124  1  0  0  0  0
 30125  1  0  0  0  0
 31 32  1  0  0  0  0
 32 33  2  0  0  0  0
 32 34  1  0  0  0  0
 34 35  1  0  0  0  0
 34126  1  0  0  0  0
 34127  1  0  0  0  0
 35128  1  0  0  0  0
 35129  1  0  0  0  0
 35130  1  0  0  0  0
 36131  1  1  0  0  0
 36 37  1  0  0  0  0
 37 38  1  0  0  0  0
 38 39  2  0  0  0  0
 38 40  1  0  0  0  0
 38 47  1  0  0  0  0
 40 41  1  0  0  0  0
 41 42  1  0  0  0  0
 41132  1  0  0  0  0
 41133  1  0  0  0  0
 42 43  1  0  0  0  0
 43 44  2  0  0  0  0
 43 45  1  0  0  0  0
 45 46  1  0  0  0  0
 45134  1  0  0  0  0
 45135  1  0  0  0  0
 46136  1  0  0  0  0
 46137  1  0  0  0  0
 46138  1  0  0  0  0
 47 48  1  0  0  0  0
 48 49  1  0  0  0  0
 48139  1  0  0  0  0
 48140  1  0  0  0  0
 49 50  1  0  0  0  0
 50 51  2  0  0  0  0
 50 52  1  0  0  0  0
 52 53  1  0  0  0  0
 52141  1  0  0  0  0
 52142  1  0  0  0  0
 53143  1  0  0  0  0
 53144  1  0  0  0  0
 53145  1  0  0  0  0
 54 36  1  0  0  0  0
 54 55  1  0  0  0  0
 54146  1  6  0  0  0
 55 56  1  0  0  0  0
 56 57  2  0  0  0  0
 56 58  1  0  0  0  0
 56 65  1  0  0  0  0
 58 59  1  0  0  0  0
 59 60  1  0  0  0  0
 59147  1  0  0  0  0
 59148  1  0  0  0  0
 60 61  1  0  0  0  0
 61 62  2  0  0  0  0
 61 63  1  0  0  0  0
 63 64  1  0  0  0  0
 63149  1  0  0  0  0
 63150  1  0  0  0  0
 64151  1  0  0  0  0
 64152  1  0  0  0  0
 64153  1  0  0  0  0
 65 66  1  0  0  0  0
 66 67  1  0  0  0  0
 66154  1  0  0  0  0
 66155  1  0  0  0  0
 67 68  1  0  0  0  0
 68 69  2  0  0  0  0
 68 70  1  0  0  0  0
 70 71  1  0  0  0  0
 70156  1  0  0  0  0
 70157  1  0  0  0  0
 71158  1  0  0  0  0
 71159  1  0  0  0  0
 71160  1  0  0  0  0
 72 54  1  0  0  0  0
 72 73  1  0  0  0  0
 72161  1  1  0  0  0
 73 74  1  0  0  0  0
 74 75  2  0  0  0  0
 74 76  1  0  0  0  0
 74 83  1  0  0  0  0
 76 77  1  0  0  0  0
 77 78  1  0  0  0  0
 77162  1  0  0  0  0
 77163  1  0  0  0  0
 78 79  1  0  0  0  0
 79 80  2  0  0  0  0
 79 81  1  0  0  0  0
 81 82  1  0  0  0  0
 81164  1  0  0  0  0
 81165  1  0  0  0  0
 82166  1  0  0  0  0
 82167  1  0  0  0  0
 82168  1  0  0  0  0
 83 84  1  0  0  0  0
 84 85  1  0  0  0  0
 84169  1  0  0  0  0
 84170  1  0  0  0  0
 85 86  1  0  0  0  0
 86 87  2  0  0  0  0
 86 88  1  0  0  0  0
 88 89  1  0  0  0  0
 88171  1  0  0  0  0
 88172  1  0  0  0  0
 89173  1  0  0  0  0
 89174  1  0  0  0  0
 89175  1  0  0  0  0
M  END
>  <DRUGBANK_ID>
DB17834

>  <COMMON_NAME>
INO-4995

>  <CAS_NUMBER>
868171-91-9

>  <UNII>
3LM5SX2N4X

>  <SYNONYMS>
2-O-butyryl-1-O-octyl-myo-Inositol 3,4,5,6-tetrakisphosphate octakis(propionoxymethyl)ester

$$$$
