
 OpenBabel10282417103D

 52 51  0  0  0  0  0  0  0  0999 V2000
    1.0740    0.0460    0.0639 C   0  0  0  0  0  0  0  0  0  0  0  0
    0.4242    0.9503   -0.6784 C   0  0  0  0  0  0  0  0  0  0  0  0
   -1.0606    0.9859   -0.7718 C   0  0  0  0  0  0  0  0  0  0  0  0
   -1.6048    2.2823   -0.2586 C   0  0  0  0  0  0  0  0  0  0  0  0
   -2.4239    3.0444   -0.9850 C   0  0  0  0  0  0  0  0  0  0  0  0
   -2.8185    2.6537   -2.3596 C   0  0  0  0  0  0  0  0  0  0  0  0
   -4.2936    2.5741   -2.5023 C   0  0  0  0  0  0  0  0  0  0  0  0
   -4.9392    3.2640   -3.4416 C   0  0  0  0  0  0  0  0  0  0  0  0
   -4.2222    4.1934   -4.3503 C   0  0  0  0  0  0  0  0  0  0  0  0
   -4.4540    3.8458   -5.7745 C   0  0  0  0  0  0  0  0  0  0  0  0
   -4.9610    4.7315   -6.6307 C   0  0  0  0  0  0  0  0  0  0  0  0
   -5.3695    6.0907   -6.1932 C   0  0  0  0  0  0  0  0  0  0  0  0
   -4.6853    7.1299   -6.9940 C   0  0  0  0  0  0  0  0  0  0  0  0
   -5.3688    8.0249   -7.7060 C   0  0  0  0  0  0  0  0  0  0  0  0
   -6.8708    8.0747   -7.7395 C   0  0  0  0  0  0  0  0  0  0  0  0
   -7.3904    9.4208   -7.2659 C   0  0  0  0  0  0  0  0  0  0  0  0
   -6.9167   10.5711   -8.1425 C   0  0  0  0  0  0  0  0  0  0  0  0
    0.3568   -0.9689    0.9078 C   0  0  0  0  0  0  0  0  0  0  0  0
   -0.4830   -0.3317    2.0168 C   0  0  0  0  0  0  0  0  0  0  0  0
   -8.1783   11.1770  -10.1311 O   0  0  0  0  0  0  0  0  0  0  0  0
   -6.8495    9.3893  -10.2236 O   0  0  0  0  0  0  0  0  0  0  0  0
   -7.3826   10.4365   -9.5691 C   0  0  0  0  0  0  0  0  0  0  0  0
    2.1600    0.0331    0.0464 H   0  0  0  0  0  0  0  0  0  0  0  0
    0.9721    1.6710   -1.2829 H   0  0  0  0  0  0  0  0  0  0  0  0
   -1.2682    0.7544   -1.8121 H   0  0  0  0  0  0  0  0  0  0  0  0
   -1.5855    0.1786   -0.2592 H   0  0  0  0  0  0  0  0  0  0  0  0
   -1.3361    2.6065    0.7447 H   0  0  0  0  0  0  0  0  0  0  0  0
   -2.7827    3.9964   -0.5980 H   0  0  0  0  0  0  0  0  0  0  0  0
   -2.2847    3.3546   -2.9959 H   0  0  0  0  0  0  0  0  0  0  0  0
   -2.4736    1.6896   -2.7210 H   0  0  0  0  0  0  0  0  0  0  0  0
   -4.8389    1.8955   -1.8519 H   0  0  0  0  0  0  0  0  0  0  0  0
   -6.0196    3.1862   -3.5289 H   0  0  0  0  0  0  0  0  0  0  0  0
   -4.5325    5.1788   -4.0139 H   0  0  0  0  0  0  0  0  0  0  0  0
   -3.1402    4.2486   -4.2674 H   0  0  0  0  0  0  0  0  0  0  0  0
   -4.1596    2.8591   -6.1221 H   0  0  0  0  0  0  0  0  0  0  0  0
   -5.1194    4.4566   -7.6704 H   0  0  0  0  0  0  0  0  0  0  0  0
   -6.4542    6.0707   -6.2344 H   0  0  0  0  0  0  0  0  0  0  0  0
   -5.1707    6.3729   -5.1627 H   0  0  0  0  0  0  0  0  0  0  0  0
   -3.5967    7.1654   -6.9651 H   0  0  0  0  0  0  0  0  0  0  0  0
   -4.7988    8.7524   -8.2790 H   0  0  0  0  0  0  0  0  0  0  0  0
   -7.2133    7.7983   -8.7362 H   0  0  0  0  0  0  0  0  0  0  0  0
   -7.3676    7.3391   -7.1111 H   0  0  0  0  0  0  0  0  0  0  0  0
   -8.4858    9.3803   -7.2442 H   0  0  0  0  0  0  0  0  0  0  0  0
   -7.0682    9.5866   -6.2268 H   0  0  0  0  0  0  0  0  0  0  0  0
   -7.3152   11.5046   -7.7340 H   0  0  0  0  0  0  0  0  0  0  0  0
   -5.8272   10.6756   -8.1266 H   0  0  0  0  0  0  0  0  0  0  0  0
   -0.2672   -1.5999    0.2596 H   0  0  0  0  0  0  0  0  0  0  0  0
    1.0967   -1.6347    1.3594 H   0  0  0  0  0  0  0  0  0  0  0  0
   -1.2661    0.3423    1.6636 H   0  0  0  0  0  0  0  0  0  0  0  0
   -1.0038   -1.1024    2.5873 H   0  0  0  0  0  0  0  0  0  0  0  0
    0.1443    0.2682    2.6801 H   0  0  0  0  0  0  0  0  0  0  0  0
   -7.3335    9.3081  -11.0706 H   0  0  0  0  0  0  0  0  0  0  0  0
  1  2  2  0  0  0  0
  1 23  1  0  0  0  0
  2  3  1  0  0  0  0
  2 24  1  0  0  0  0
  3  4  1  0  0  0  0
  3 25  1  0  0  0  0
  3 26  1  0  0  0  0
  4  5  2  0  0  0  0
  4 27  1  0  0  0  0
  5  6  1  0  0  0  0
  5 28  1  0  0  0  0
  6  7  1  0  0  0  0
  6 29  1  0  0  0  0
  6 30  1  0  0  0  0
  7  8  2  0  0  0  0
  7 31  1  0  0  0  0
  8  9  1  0  0  0  0
  8 32  1  0  0  0  0
  9 10  1  0  0  0  0
  9 33  1  0  0  0  0
  9 34  1  0  0  0  0
 10 11  2  0  0  0  0
 10 35  1  0  0  0  0
 11 12  1  0  0  0  0
 11 36  1  0  0  0  0
 12 13  1  0  0  0  0
 12 37  1  0  0  0  0
 12 38  1  0  0  0  0
 13 14  2  0  0  0  0
 13 39  1  0  0  0  0
 14 15  1  0  0  0  0
 14 40  1  0  0  0  0
 15 16  1  0  0  0  0
 15 41  1  0  0  0  0
 15 42  1  0  0  0  0
 16 17  1  0  0  0  0
 16 43  1  0  0  0  0
 16 44  1  0  0  0  0
 17 22  1  0  0  0  0
 17 45  1  0  0  0  0
 17 46  1  0  0  0  0
 18  1  1  0  0  0  0
 18 19  1  0  0  0  0
 18 47  1  0  0  0  0
 18 48  1  0  0  0  0
 19 49  1  0  0  0  0
 19 50  1  0  0  0  0
 19 51  1  0  0  0  0
 21 52  1  0  0  0  0
 22 20  2  0  0  0  0
 22 21  1  0  0  0  0
M  END
>  <DRUGBANK_ID>
DB00159

>  <SECONDARY_ACCESSION_NUMBERS>
NUTR00024

>  <COMMON_NAME>
Icosapent

>  <CAS_NUMBER>
10417-94-4

>  <UNII>
AAN7QOV9EA

>  <SYNONYMS>
(5Z,8Z,11Z,14Z,17Z)-5,8,11,14,17-eicosapentaenoic acid; (5Z,8Z,11Z,14Z,17Z)-Eicosapentaenoate; (5Z,8Z,11Z,14Z,17Z)-Eicosapentaenoic acid; (5Z,8Z,11Z,14Z,17Z)-Icosapentaenoic acid; (all-Z)-5,8,11,14,17-eicosapentaenoic acid; 5,8,11,14,17-eicosapentaenoic acid; 5,8,11,14,17-Icosapentaenoic acid; all-cis-5,8,11,14,17-eicosapentaenoic acid; all-cis-5,8,11,14,17-icosapentaenoic acid; all-cis-icosa-5,8,11,14,17-pentaenoic acid; cis-5,8,11,14,17-eicosapentaenoic acid; cis-5,8,11,14,17-EPA; cis-delta(5,8,11,14,17)-Eicosapentaenoic acid; Eicosapentaenoic acid; EPA; Icosapent; Icosapentaenoic acid; Icosapento; Icosapentum; Timnodonic acid

$$$$
