
 OpenBabel10282417133D

 18 18  0  0  1  0  0  0  0  0999 V2000
   -0.2715    0.0557    0.4956 C   0  0  0  0  0  0  0  0  0  0  0  0
    0.2829    2.4980   -0.5820 C   0  0  0  0  0  0  0  0  0  0  0  0
    0.6372    1.1655    0.0498 C   0  0  1  0  0  0  0  0  0  0  0  0
   -1.6912    0.0222   -0.0701 C   0  0  1  0  0  0  0  0  0  0  0  0
   -2.3449   -1.3399    0.2477 C   0  0  0  0  0  0  0  0  0  0  0  0
   -2.5034    1.1125    0.5139 N   0  0  0  0  0  0  0  0  0  0  0  0
   -3.3704   -1.5213    0.8931 O   0  0  0  0  0  0  0  0  0  0  0  0
   -1.6933   -2.3910   -0.2919 O   0  0  0  0  0  0  0  0  0  0  0  0
    0.5274    2.3728    0.8233 O   0  0  0  0  0  0  0  0  0  0  0  0
    1.6434    0.7942   -0.0985 H   0  0  0  0  0  0  0  0  0  0  0  0
   -1.6828    0.1380   -1.1593 H   0  0  0  0  0  0  0  0  0  0  0  0
   -0.2897   -0.0127    1.5926 H   0  0  0  0  0  0  0  0  0  0  0  0
    0.2305   -0.8653    0.1732 H   0  0  0  0  0  0  0  0  0  0  0  0
    1.0546    2.9523   -1.1978 H   0  0  0  0  0  0  0  0  0  0  0  0
   -0.7196    2.7812   -0.8708 H   0  0  0  0  0  0  0  0  0  0  0  0
   -3.4700    1.0113    0.2038 H   0  0  0  0  0  0  0  0  0  0  0  0
   -2.5376    0.9751    1.5270 H   0  0  0  0  0  0  0  0  0  0  0  0
   -2.2111   -3.1794   -0.0195 H   0  0  0  0  0  0  0  0  0  0  0  0
  1 12  1  0  0  0  0
  1 13  1  0  0  0  0
  2 14  1  0  0  0  0
  2 15  1  0  0  0  0
  3  2  1  0  0  0  0
  3 10  1  6  0  0  0
  3  1  1  0  0  0  0
  4  1  1  0  0  0  0
  4  6  1  0  0  0  0
  4 11  1  6  0  0  0
  5  4  1  0  0  0  0
  6 16  1  0  0  0  0
  6 17  1  0  0  0  0
  7  5  2  0  0  0  0
  8  5  1  0  0  0  0
  8 18  1  0  0  0  0
  9  2  1  0  0  0  0
  9  3  1  0  0  0  0
M  END
>  <DRUGBANK_ID>
DB03191

>  <SECONDARY_ACCESSION_NUMBERS>
EXPT02037

>  <COMMON_NAME>
3-Oxiran-2ylalanine

$$$$
