
 OpenBabel10282417123D

 19 18  0  0  1  0  0  0  0  0999 V2000
    1.1344   -0.0469   -0.0738 C   0  0  0  0  0  0  0  0  0  0  0  0
   -1.4357   -1.9888   -2.0839 C   0  0  0  0  0  0  0  0  0  0  0  0
   -1.4923   -1.4046    0.2529 C   0  0  0  0  0  0  0  0  0  0  0  0
    0.5937   -1.1191   -1.0282 C   0  0  1  0  0  0  0  0  0  0  0  0
    1.1786   -2.5031   -0.6786 C   0  0  0  0  0  0  0  0  0  0  0  0
   -0.9000   -1.0965   -1.0511 N   0  0  0  0  0  0  0  0  0  0  0  0
    0.5841   -3.5443   -0.4348 O   0  0  0  0  0  0  0  0  0  0  0  0
    2.5254   -2.5371   -0.6914 O   0  0  0  0  0  0  0  0  0  0  0  0
    0.9448   -0.8661   -2.0389 H   0  0  0  0  0  0  0  0  0  0  0  0
    0.8770   -0.2596    0.9688 H   0  0  0  0  0  0  0  0  0  0  0  0
    0.7410    0.9440   -0.3294 H   0  0  0  0  0  0  0  0  0  0  0  0
    2.2268    0.0079   -0.1141 H   0  0  0  0  0  0  0  0  0  0  0  0
   -1.1784   -3.0394   -1.9250 H   0  0  0  0  0  0  0  0  0  0  0  0
   -2.5288   -1.9281   -2.1194 H   0  0  0  0  0  0  0  0  0  0  0  0
   -1.0705   -1.6977   -3.0751 H   0  0  0  0  0  0  0  0  0  0  0  0
   -1.2074   -2.3898    0.6303 H   0  0  0  0  0  0  0  0  0  0  0  0
   -1.2089   -0.6607    1.0037 H   0  0  0  0  0  0  0  0  0  0  0  0
   -2.5849   -1.3710    0.2036 H   0  0  0  0  0  0  0  0  0  0  0  0
    2.7032   -3.4745   -0.4591 H   0  0  0  0  0  0  0  0  0  0  0  0
  1 10  1  0  0  0  0
  1 11  1  0  0  0  0
  1 12  1  0  0  0  0
  2 13  1  0  0  0  0
  2 14  1  0  0  0  0
  2 15  1  0  0  0  0
  3 16  1  0  0  0  0
  3 17  1  0  0  0  0
  3 18  1  0  0  0  0
  4  1  1  0  0  0  0
  4  9  1  6  0  0  0
  5  4  1  0  0  0  0
  6  2  1  0  0  0  0
  6  3  1  0  0  0  0
  6  4  1  0  0  0  0
  7  5  2  0  0  0  0
  8  5  1  0  0  0  0
  8 19  1  0  0  0  0
M  END
>  <DRUGBANK_ID>
DB02167

>  <SECONDARY_ACCESSION_NUMBERS>
EXPT02000

>  <COMMON_NAME>
N,N-Dimethyl-L-Alanine

$$$$
