
 OpenBabel10282417113D

 41 43  0  0  0  0  0  0  0  0999 V2000
   -2.8240    1.2387    0.0362 C   0  0  0  0  0  0  0  0  0  0  0  0
   -3.0398   -0.1367   -0.0421 C   0  0  0  0  0  0  0  0  0  0  0  0
   -1.9532   -0.9961   -0.0870 C   0  0  0  0  0  0  0  0  0  0  0  0
   -0.6518   -0.4803   -0.0696 C   0  0  0  0  0  0  0  0  0  0  0  0
   -0.4496    0.8828    0.0171 C   0  0  0  0  0  0  0  0  0  0  0  0
   -1.5261    1.7546    0.0665 C   0  0  0  0  0  0  0  0  0  0  0  0
    0.4972   -1.3497   -0.1284 C   0  0  0  0  0  0  0  0  0  0  0  0
    1.7457   -0.8809    0.0582 C   0  0  0  0  0  0  0  0  0  0  0  0
    1.9679    0.6005    0.0514 C   0  0  0  0  0  0  0  0  0  0  0  0
    0.8435    1.4201    0.0492 O   0  0  0  0  0  0  0  0  0  0  0  0
    2.9982   -1.7405    0.1234 C   0  0  3  0  0  0  0  0  0  0  0  0
    3.0419   -2.6023    1.4052 C   0  0  0  0  0  0  0  0  0  0  0  0
    2.0187   -3.5066    1.7475 C   0  0  0  0  0  0  0  0  0  0  0  0
    3.0939    1.0846    0.0327 O   0  0  0  0  0  0  0  0  0  0  0  0
    4.1345   -2.5312    2.2815 C   0  0  0  0  0  0  0  0  0  0  0  0
    4.2253   -3.4028    3.3834 C   0  0  0  0  0  0  0  0  0  0  0  0
    3.1844   -4.3032    3.6572 C   0  0  0  0  0  0  0  0  0  0  0  0
    2.0859   -4.3680    2.8268 C   0  0  0  0  0  0  0  0  0  0  0  0
    0.1411   -2.6513   -0.3857 O   0  0  0  0  0  0  0  0  0  0  0  0
    3.2111   -2.6030   -1.1451 C   0  0  0  0  0  0  0  0  0  0  0  0
    3.2190   -1.7723   -2.4153 C   0  0  0  0  0  0  0  0  0  0  0  0
    4.3760   -1.9360   -3.3501 C   0  0  0  0  0  0  0  0  0  0  0  0
    2.2840   -1.0303   -2.7144 O   0  0  0  0  0  0  0  0  0  0  0  0
    3.1782   -5.1172    4.8705 N   0  3  0  0  0  0  0  0  0  0  0  0
    4.1401   -5.0237    5.6326 O   0  5  0  0  0  0  0  0  0  0  0  0
    2.1830   -5.8418    5.0675 O   0  0  0  0  0  0  0  0  0  0  0  0
   -3.6738    1.9118    0.0706 H   0  0  0  0  0  0  0  0  0  0  0  0
   -4.0447   -0.5465   -0.0758 H   0  0  0  0  0  0  0  0  0  0  0  0
   -2.1235   -2.0706   -0.1404 H   0  0  0  0  0  0  0  0  0  0  0  0
   -1.3529    2.8234    0.1205 H   0  0  0  0  0  0  0  0  0  0  0  0
    3.8826   -1.0862    0.1605 H   0  0  0  0  0  0  0  0  0  0  0  0
    1.0677   -3.5772    1.2564 H   0  0  0  0  0  0  0  0  0  0  0  0
    4.9154   -1.7835    2.1377 H   0  0  0  0  0  0  0  0  0  0  0  0
    5.1041   -3.3631    4.0213 H   0  0  0  0  0  0  0  0  0  0  0  0
    1.2483   -5.0423    2.9987 H   0  0  0  0  0  0  0  0  0  0  0  0
    0.9215   -3.1982   -0.5065 H   0  0  0  0  0  0  0  0  0  0  0  0
    4.1449   -3.1669   -1.0553 H   0  0  0  0  0  0  0  0  0  0  0  0
    2.4588   -3.3764   -1.3054 H   0  0  0  0  0  0  0  0  0  0  0  0
    3.9971   -2.2709   -4.3188 H   0  0  0  0  0  0  0  0  0  0  0  0
    4.8865   -0.9760   -3.4451 H   0  0  0  0  0  0  0  0  0  0  0  0
    5.0762   -2.6819   -2.9708 H   0  0  0  0  0  0  0  0  0  0  0  0
  1  2  2  0  0  0  0
  1  6  1  0  0  0  0
  1 27  1  0  0  0  0
  2  3  1  0  0  0  0
  2 28  1  0  0  0  0
  3  4  2  0  0  0  0
  3 29  1  0  0  0  0
  4  5  1  0  0  0  0
  4  7  1  0  0  0  0
  5  6  2  0  0  0  0
  5 10  1  0  0  0  0
  6 30  1  0  0  0  0
  7  8  2  0  0  0  0
  7 19  1  0  0  0  0
  8  9  1  0  0  0  0
  8 11  1  0  0  0  0
  9 10  1  0  0  0  0
  9 14  2  0  0  0  0
 11 12  1  0  0  0  0
 11 20  1  0  0  0  0
 11 31  1  0  0  0  0
 12 13  1  0  0  0  0
 12 15  2  0  0  0  0
 13 18  2  0  0  0  0
 13 32  1  0  0  0  0
 15 16  1  0  0  0  0
 15 33  1  0  0  0  0
 16 17  2  0  0  0  0
 16 34  1  0  0  0  0
 17 18  1  0  0  0  0
 17 24  1  0  0  0  0
 18 35  1  0  0  0  0
 19 36  1  0  0  0  0
 20 21  1  0  0  0  0
 20 37  1  0  0  0  0
 20 38  1  0  0  0  0
 21 22  1  0  0  0  0
 21 23  2  0  0  0  0
 22 39  1  0  0  0  0
 22 40  1  0  0  0  0
 22 41  1  0  0  0  0
 24 25  1  0  0  0  0
 24 26  2  0  0  0  0
M  CHG  2  24   1  25  -1
M  END
>  <DRUGBANK_ID>
DB01418

>  <COMMON_NAME>
Acenocoumarol

>  <CAS_NUMBER>
152-72-7

>  <UNII>
I6WP63U32H

>  <SYNONYMS>
3-(alpha-(4'-Nitrophenyl)-beta-acetylethyl)-4-hydroxycoumarin; 3-(alpha-(p-Nitrophenol)-beta-acetylethyl)-4-hydroxycoumarin; 3-(alpha-Acetonyl-4-nitrobenzyl)-4-hydroxycoumarin; 3-(alpha-Acetonyl-p-nitrobenzyl)-4-hydroxycoumarin; 3-(alpha-p-Nitrophenyl-beta-acetylethyl)-4-hydroxycoumarin; 4-Hydroxy-3-(1-(4-nitrophenyl)-3-oxobutyl)-2H-1-benzopyran-2-one; 4-Hydroxy-3-[1-(4-nitrophenyl)-3-oxobutyl]-2H-chromen-2-one; Acenocoumarin; Ac√©nocoumarol; Acenocoumarol; Acenocoumarolum; Acenocumarol; Acenocumarolo; Acenokumarin; Nicoumalone; Nicumalon; Nitrophenylacetylethyl-4-hydroxycoumarine; Nitrovarfarian; Nitrowarfarin

$$$$
