
 OpenBabel10282417123D

137137  0  0  1  0  0  0  0  0999 V2000
    0.9621    0.0134   -0.0214 C   0  0  0  0  0  0  0  0  0  0  0  0
    0.9283   10.9245    9.9043 C   0  0  0  0  0  0  0  0  0  0  0  0
    0.5142   -1.3742    0.4087 C   0  0  0  0  0  0  0  0  0  0  0  0
    0.7465    9.5503    9.2808 C   0  0  0  0  0  0  0  0  0  0  0  0
    1.0097   -1.6824    1.8226 C   0  0  0  0  0  0  0  0  0  0  0  0
    1.0698    8.4569   10.3000 C   0  0  0  0  0  0  0  0  0  0  0  0
    0.4562   -0.6802    2.8416 C   0  0  0  0  0  0  0  0  0  0  0  0
    0.1482    8.5462   11.5215 C   0  0  0  0  0  0  0  0  0  0  0  0
   -1.0762   -0.6961    2.8473 C   0  0  0  0  0  0  0  0  0  0  0  0
   -1.3200    8.4102   11.1027 C   0  0  0  0  0  0  0  0  0  0  0  0
   -1.5971   -2.0816    3.2451 C   0  0  0  0  0  0  0  0  0  0  0  0
   -1.5526    7.0494   10.4397 C   0  0  0  0  0  0  0  0  0  0  0  0
   -1.1130   -2.4566    4.6527 C   0  0  0  0  0  0  0  0  0  0  0  0
   -1.2088    5.9294   11.4260 C   0  0  0  0  0  0  0  0  0  0  0  0
   -1.5119   -1.3999    5.6769 C   0  0  0  0  0  0  0  0  0  0  0  0
   -2.0964    6.0496   12.6684 C   0  0  0  0  0  0  0  0  0  0  0  0
   -2.9840   -1.3005    5.6713 C   0  0  0  0  0  0  0  0  0  0  0  0
   -3.6440   -1.6346    6.7657 C   0  0  0  0  0  0  0  0  0  0  0  0
   -3.5669    5.9352   12.2560 C   0  0  0  0  0  0  0  0  0  0  0  0
   -5.0899   -1.8503    6.7137 C   0  0  0  0  0  0  0  0  0  0  0  0
   -3.8018    4.5798   11.5817 C   0  0  0  0  0  0  0  0  0  0  0  0
   -5.3487   -3.3240    7.0985 C   0  0  0  0  0  0  0  0  0  0  0  0
   -3.4557    3.4563   12.5621 C   0  0  0  0  0  0  0  0  0  0  0  0
   -4.8544   -3.6711    8.5167 C   0  0  0  0  0  0  0  0  0  0  0  0
   -4.3316    3.5846   13.8109 C   0  0  0  0  0  0  0  0  0  0  0  0
   -5.3196   -2.6889    9.5470 C   0  0  0  0  0  0  0  0  0  0  0  0
   -5.8085    3.4797   13.4177 C   0  0  0  0  0  0  0  0  0  0  0  0
   -6.7861   -2.8271    9.5108 C   0  0  0  0  0  0  0  0  0  0  0  0
   -6.0949    2.1017   12.8214 C   0  0  0  0  0  0  0  0  0  0  0  0
   -7.5033   -3.9996   10.1632 C   0  0  0  0  0  0  0  0  0  0  0  0
   -5.7054    0.9950   13.8130 C   0  0  0  0  0  0  0  0  0  0  0  0
   -7.1480   -4.2885   11.6138 C   0  0  0  0  0  0  0  0  0  0  0  0
   -7.4372   -1.0643   14.8337 C   0  0  0  0  0  0  0  0  0  0  0  0
   -9.4022   -0.9253   13.2234 C   0  0  0  0  0  0  0  0  0  0  0  0
   -7.8575   -1.0869   13.4097 C   0  0  2  0  0  0  0  0  0  0  0  0
   -6.5274    1.1222   15.0953 C   0  0  0  0  0  0  0  0  0  0  0  0
   -7.6421   -3.4295   12.7890 C   0  0  0  0  0  0  0  0  0  0  0  0
   -8.2931    0.0266    5.9134 C   0  0  2  0  0  0  0  0  0  0  0  0
   -8.6940   -1.4492    6.0743 C   0  0  2  0  0  0  0  0  0  0  0  0
   -8.2489    0.7776    7.2833 C   0  0  1  0  0  0  0  0  0  0  0  0
   -9.9292   -1.7050    6.9593 C   0  0  2  0  0  0  0  0  0  0  0  0
   -9.5687    0.5617    8.0185 C   0  0  2  0  0  0  0  0  0  0  0  0
   -9.8325   -0.9368    8.2781 C   0  0  2  0  0  0  0  0  0  0  0  0
   -6.3854    2.0861   15.8572 O   0  0  0  0  0  0  0  0  0  0  0  0
   -8.4347   -3.8467   13.6668 O   0  0  0  0  0  0  0  0  0  0  0  0
   -9.2327    0.5831    4.9926 O   0  0  0  0  0  0  0  0  0  0  0  0
   -7.5948   -2.0447    6.6509 O   0  0  0  0  0  0  0  0  0  0  0  0
   -7.1506    0.3840    8.1024 O   0  0  0  0  0  0  0  0  0  0  0  0
  -10.1599   -3.0931    7.2375 O   0  0  0  0  0  0  0  0  0  0  0  0
  -10.6220    1.1322    7.2232 O   0  0  0  0  0  0  0  0  0  0  0  0
   -8.0059   -1.5051   11.1552 O   0  5  0  0  0  0  0  0  0  0  0  0
  -10.3338   -2.8238   10.2749 O   0  0  0  0  0  0  0  0  0  0  0  0
   -7.4892    0.2305   15.3934 O   0  0  0  0  0  0  0  0  0  0  0  0
   -9.9655   -1.8656   12.3514 O   0  0  0  0  0  0  0  0  0  0  0  0
   -7.0446   -2.2308   12.9216 O   0  0  0  0  0  0  0  0  0  0  0  0
   -8.8121   -1.5826    9.1015 O   0  0  0  0  0  0  0  0  0  0  0  0
   -9.3888   -1.7241   10.7265 P   0  0  3  0  0  0  0  0  0  0  0  0
   -3.5436   -1.0870    4.7634 H   0  0  0  0  0  0  0  0  0  0  0  0
   -3.1293   -1.8462    7.6942 H   0  0  0  0  0  0  0  0  0  0  0  0
   -7.5240   -0.1953   12.8554 H   0  0  0  0  0  0  0  0  0  0  0  0
   -7.2830    0.0930    5.4805 H   0  0  0  0  0  0  0  0  0  0  0  0
   -8.8033   -1.9503    5.1122 H   0  0  0  0  0  0  0  0  0  0  0  0
   -8.1089    1.8473    7.0852 H   0  0  0  0  0  0  0  0  0  0  0  0
  -10.8007   -1.3801    6.3891 H   0  0  0  0  0  0  0  0  0  0  0  0
   -9.5431    1.0996    8.9726 H   0  0  0  0  0  0  0  0  0  0  0  0
  -10.8088   -0.9987    8.7727 H   0  0  0  0  0  0  0  0  0  0  0  0
    0.5671    0.7957    0.6349 H   0  0  0  0  0  0  0  0  0  0  0  0
    0.6092    0.2398   -1.0279 H   0  0  0  0  0  0  0  0  0  0  0  0
    2.0540    0.0744    0.0028 H   0  0  0  0  0  0  0  0  0  0  0  0
    1.9593   11.0397   10.2510 H   0  0  0  0  0  0  0  0  0  0  0  0
    0.6973   11.7102    9.1848 H   0  0  0  0  0  0  0  0  0  0  0  0
    0.2661   11.0790   10.7626 H   0  0  0  0  0  0  0  0  0  0  0  0
   -0.5783   -1.4446    0.3472 H   0  0  0  0  0  0  0  0  0  0  0  0
    0.8942   -2.1281   -0.2863 H   0  0  0  0  0  0  0  0  0  0  0  0
    1.3927    9.4402    8.4059 H   0  0  0  0  0  0  0  0  0  0  0  0
   -0.2775    9.4498    8.9016 H   0  0  0  0  0  0  0  0  0  0  0  0
    0.7265   -2.7072    2.0923 H   0  0  0  0  0  0  0  0  0  0  0  0
    2.1034   -1.6700    1.8534 H   0  0  0  0  0  0  0  0  0  0  0  0
    2.1129    8.5298   10.6213 H   0  0  0  0  0  0  0  0  0  0  0  0
    0.9878    7.4746    9.8184 H   0  0  0  0  0  0  0  0  0  0  0  0
    0.8632   -0.9042    3.8335 H   0  0  0  0  0  0  0  0  0  0  0  0
    0.8122    0.3333    2.6380 H   0  0  0  0  0  0  0  0  0  0  0  0
    0.2909    9.4821   12.0668 H   0  0  0  0  0  0  0  0  0  0  0  0
    0.4335    7.7815   12.2516 H   0  0  0  0  0  0  0  0  0  0  0  0
   -1.4472    0.0862    3.5177 H   0  0  0  0  0  0  0  0  0  0  0  0
   -1.4917   -0.4129    1.8763 H   0  0  0  0  0  0  0  0  0  0  0  0
   -1.6324    9.2090   10.4255 H   0  0  0  0  0  0  0  0  0  0  0  0
   -1.9653    8.5559   11.9750 H   0  0  0  0  0  0  0  0  0  0  0  0
   -2.6900   -2.0946    3.1766 H   0  0  0  0  0  0  0  0  0  0  0  0
   -1.2862   -2.8533    2.5354 H   0  0  0  0  0  0  0  0  0  0  0  0
   -0.9667    6.9298    9.5249 H   0  0  0  0  0  0  0  0  0  0  0  0
   -2.5861    6.9839   10.0853 H   0  0  0  0  0  0  0  0  0  0  0  0
   -1.5129   -3.4414    4.9252 H   0  0  0  0  0  0  0  0  0  0  0  0
   -0.0250   -2.5687    4.6810 H   0  0  0  0  0  0  0  0  0  0  0  0
   -0.1565    5.9431   11.7203 H   0  0  0  0  0  0  0  0  0  0  0  0
   -1.3128    4.9584   10.9333 H   0  0  0  0  0  0  0  0  0  0  0  0
   -1.1332   -1.6896    6.6626 H   0  0  0  0  0  0  0  0  0  0  0  0
   -1.1032   -0.4093    5.4737 H   0  0  0  0  0  0  0  0  0  0  0  0
   -1.9354    6.9865   13.2081 H   0  0  0  0  0  0  0  0  0  0  0  0
   -1.8086    5.2922   13.4029 H   0  0  0  0  0  0  0  0  0  0  0  0
   -3.8772    6.7406   11.5853 H   0  0  0  0  0  0  0  0  0  0  0  0
   -4.2081    6.0860   13.1288 H   0  0  0  0  0  0  0  0  0  0  0  0
   -5.4874   -1.0922    7.3905 H   0  0  0  0  0  0  0  0  0  0  0  0
   -5.5052   -1.6142    5.7232 H   0  0  0  0  0  0  0  0  0  0  0  0
   -3.2191    4.4629   10.6642 H   0  0  0  0  0  0  0  0  0  0  0  0
   -4.8326    4.5177   11.2242 H   0  0  0  0  0  0  0  0  0  0  0  0
   -6.3963   -3.6345    7.0224 H   0  0  0  0  0  0  0  0  0  0  0  0
   -4.9074   -3.9893    6.3583 H   0  0  0  0  0  0  0  0  0  0  0  0
   -2.4002    3.4680   12.8506 H   0  0  0  0  0  0  0  0  0  0  0  0
   -3.5700    2.4865   12.0702 H   0  0  0  0  0  0  0  0  0  0  0  0
   -5.2626   -4.6492    8.7801 H   0  0  0  0  0  0  0  0  0  0  0  0
   -3.7761   -3.7201    8.5614 H   0  0  0  0  0  0  0  0  0  0  0  0
   -4.1606    4.5219   14.3470 H   0  0  0  0  0  0  0  0  0  0  0  0
   -4.0338    2.8329   14.5453 H   0  0  0  0  0  0  0  0  0  0  0  0
   -4.9678   -2.8135   10.5701 H   0  0  0  0  0  0  0  0  0  0  0  0
   -5.0632   -1.6404    9.3052 H   0  0  0  0  0  0  0  0  0  0  0  0
   -6.1067    4.2612   12.7127 H   0  0  0  0  0  0  0  0  0  0  0  0
   -6.4453    3.6823   14.2795 H   0  0  0  0  0  0  0  0  0  0  0  0
   -6.9399   -1.7970    9.7503 H   0  0  0  0  0  0  0  0  0  0  0  0
   -7.2093   -2.8779    8.5300 H   0  0  0  0  0  0  0  0  0  0  0  0
   -5.5429    1.9660   11.8809 H   0  0  0  0  0  0  0  0  0  0  0  0
   -7.1497    2.0476   12.5333 H   0  0  0  0  0  0  0  0  0  0  0  0
   -8.5827   -3.9634   10.0226 H   0  0  0  0  0  0  0  0  0  0  0  0
   -7.2914   -4.8675    9.5227 H   0  0  0  0  0  0  0  0  0  0  0  0
   -4.6488    1.0283   14.0907 H   0  0  0  0  0  0  0  0  0  0  0  0
   -5.7303    0.0319   13.3101 H   0  0  0  0  0  0  0  0  0  0  0  0
   -7.5708   -5.2821   11.8010 H   0  0  0  0  0  0  0  0  0  0  0  0
   -6.0654   -4.3890   11.6730 H   0  0  0  0  0  0  0  0  0  0  0  0
   -8.1073   -1.7338   15.3763 H   0  0  0  0  0  0  0  0  0  0  0  0
   -6.4266   -1.4758   14.9362 H   0  0  0  0  0  0  0  0  0  0  0  0
   -9.9355   -0.9490   14.1767 H   0  0  0  0  0  0  0  0  0  0  0  0
   -9.6567    0.0684   12.8073 H   0  0  0  0  0  0  0  0  0  0  0  0
   -9.3934    1.5101    5.2333 H   0  0  0  0  0  0  0  0  0  0  0  0
   -7.3354   -1.4938    7.4136 H   0  0  0  0  0  0  0  0  0  0  0  0
   -7.4599   -0.2540    8.7872 H   0  0  0  0  0  0  0  0  0  0  0  0
  -10.3380   -3.1661    8.2117 H   0  0  0  0  0  0  0  0  0  0  0  0
  -10.6955    0.6050    6.4007 H   0  0  0  0  0  0  0  0  0  0  0  0
  1 67  1  0  0  0  0
  1 68  1  0  0  0  0
  1 69  1  0  0  0  0
  2 70  1  0  0  0  0
  2 71  1  0  0  0  0
  2 72  1  0  0  0  0
  3  1  1  0  0  0  0
  3 73  1  0  0  0  0
  3 74  1  0  0  0  0
  4  2  1  0  0  0  0
  4 75  1  0  0  0  0
  4 76  1  0  0  0  0
  5  3  1  0  0  0  0
  5 77  1  0  0  0  0
  5 78  1  0  0  0  0
  6  4  1  0  0  0  0
  6 79  1  0  0  0  0
  6 80  1  0  0  0  0
  7  5  1  0  0  0  0
  7 81  1  0  0  0  0
  7 82  1  0  0  0  0
  8  6  1  0  0  0  0
  8 83  1  0  0  0  0
  8 84  1  0  0  0  0
  9  7  1  0  0  0  0
  9 85  1  0  0  0  0
  9 86  1  0  0  0  0
 10  8  1  0  0  0  0
 10 87  1  0  0  0  0
 10 88  1  0  0  0  0
 11  9  1  0  0  0  0
 11 89  1  0  0  0  0
 11 90  1  0  0  0  0
 12 10  1  0  0  0  0
 12 91  1  0  0  0  0
 12 92  1  0  0  0  0
 13 11  1  0  0  0  0
 13 93  1  0  0  0  0
 13 94  1  0  0  0  0
 14 12  1  0  0  0  0
 14 95  1  0  0  0  0
 14 96  1  0  0  0  0
 15 13  1  0  0  0  0
 15 97  1  0  0  0  0
 15 98  1  0  0  0  0
 16 14  1  0  0  0  0
 16 99  1  0  0  0  0
 16100  1  0  0  0  0
 17 15  1  0  0  0  0
 18 17  2  0  0  0  0
 19 16  1  0  0  0  0
 19101  1  0  0  0  0
 19102  1  0  0  0  0
 20 18  1  0  0  0  0
 20103  1  0  0  0  0
 20104  1  0  0  0  0
 21 19  1  0  0  0  0
 21105  1  0  0  0  0
 21106  1  0  0  0  0
 22 20  1  0  0  0  0
 22107  1  0  0  0  0
 22108  1  0  0  0  0
 23 21  1  0  0  0  0
 23109  1  0  0  0  0
 23110  1  0  0  0  0
 24 22  1  0  0  0  0
 24111  1  0  0  0  0
 24112  1  0  0  0  0
 25 23  1  0  0  0  0
 25113  1  0  0  0  0
 25114  1  0  0  0  0
 26 24  1  0  0  0  0
 26115  1  0  0  0  0
 26116  1  0  0  0  0
 27 25  1  0  0  0  0
 27117  1  0  0  0  0
 27118  1  0  0  0  0
 28 26  1  0  0  0  0
 28119  1  0  0  0  0
 28120  1  0  0  0  0
 29 27  1  0  0  0  0
 29121  1  0  0  0  0
 29122  1  0  0  0  0
 30 28  1  0  0  0  0
 30123  1  0  0  0  0
 30124  1  0  0  0  0
 31 29  1  0  0  0  0
 31125  1  0  0  0  0
 31126  1  0  0  0  0
 32 30  1  0  0  0  0
 32127  1  0  0  0  0
 32128  1  0  0  0  0
 33129  1  0  0  0  0
 33130  1  0  0  0  0
 34131  1  0  0  0  0
 34132  1  0  0  0  0
 35 55  1  0  0  0  0
 35 60  1  6  0  0  0
 35 34  1  0  0  0  0
 35 33  1  0  0  0  0
 36 31  1  0  0  0  0
 37 32  1  0  0  0  0
 38 61  1  6  0  0  0
 38 46  1  0  0  0  0
 39 38  1  0  0  0  0
 39 62  1  6  0  0  0
 39 47  1  0  0  0  0
 40 38  1  0  0  0  0
 40 48  1  0  0  0  0
 40 63  1  6  0  0  0
 41 39  1  0  0  0  0
 41 64  1  6  0  0  0
 41 49  1  0  0  0  0
 42 40  1  0  0  0  0
 42 50  1  0  0  0  0
 42 65  1  1  0  0  0
 43 41  1  0  0  0  0
 43 42  1  0  0  0  0
 43 56  1  0  0  0  0
 43 66  1  1  0  0  0
 44 36  2  0  0  0  0
 45 37  2  0  0  0  0
 46133  1  0  0  0  0
 47134  1  0  0  0  0
 48135  1  0  0  0  0
 49136  1  0  0  0  0
 50137  1  0  0  0  0
 53 33  1  0  0  0  0
 53 36  1  0  0  0  0
 54 34  1  0  0  0  0
 55 37  1  0  0  0  0
 57 51  1  0  0  0  0
 57 52  2  0  0  0  0
 57 54  1  0  0  0  0
 57 56  1  0  0  0  0
 58 17  1  0  0  0  0
 59 18  1  0  0  0  0
M  CHG  1  51  -1
M  END
>  <DRUGBANK_ID>
DB02144

>  <SECONDARY_ACCESSION_NUMBERS>
EXPT02597

>  <COMMON_NAME>
1,2-diacyl-sn-glycero-3-phosphoinositol

$$$$
