
 OpenBabel10282417213D

 70 73  0  0  0  0  0  0  0  0999 V2000
    1.6343    8.1742   -0.6641 C   0  0  2  0  0  0  0  0  0  0  0  0
    3.1547    8.2548   -0.9096 C   0  0  2  0  0  0  0  0  0  0  0  0
    6.1986    7.6545   -0.9264 C   0  0  1  0  0  0  0  0  0  0  0  0
    0.9607    8.7054   -1.9181 C   0  0  0  0  0  0  0  0  0  0  0  0
    5.7350    8.6459   -2.0039 C   0  0  2  0  0  0  0  0  0  0  0  0
    4.2242    9.4051   -1.4148 C   0  0  2  0  0  0  0  0  0  0  0  0
    3.5775    7.1608    0.0205 C   0  0  2  0  0  0  0  0  0  0  0  0
    7.2840    6.7275   -1.5790 C   0  0  2  0  0  0  0  0  0  0  0  0
    1.4966    6.6312   -0.9822 C   0  0  0  0  0  0  0  0  0  0  0  0
    4.7979    6.7736   -0.7572 C   0  0  0  0  0  0  0  0  0  0  0  0
    7.1375    8.8399   -2.8283 C   0  0  0  0  0  0  0  0  0  0  0  0
    8.1981    7.8141   -2.2334 C   0  0  1  0  0  0  0  0  0  0  0  0
    3.3403    9.9937   -2.5537 C   0  0  0  0  0  0  0  0  0  0  0  0
    1.7842   10.0680   -2.1790 C   0  0  2  0  0  0  0  0  0  0  0  0
    0.3064    7.6794   -2.6556 C   0  0  0  0  0  0  0  0  0  0  0  0
    4.5701    4.9473    1.2271 C   0  0  0  0  0  0  0  0  0  0  0  0
    0.4685    5.8974   -0.6335 C   0  0  0  0  0  0  0  0  0  0  0  0
    6.4306    5.4981   -2.2075 C   0  0  0  0  0  0  0  0  0  0  0  0
   -0.1848    6.2262   -1.8990 C   0  0  0  0  0  0  0  0  0  0  0  0
    5.4878    6.4952    1.7115 C   0  0  0  0  0  0  0  0  0  0  0  0
    4.8867    4.1991    0.0217 O   0  0  0  0  0  0  0  0  0  0  0  0
    3.2248    7.6508   -2.2237 F   0  0  0  0  0  0  0  0  0  0  0  0
    3.6135    4.5347    1.8948 O   0  0  0  0  0  0  0  0  0  0  0  0
    5.9640    4.2290   -1.0858 C   0  0  0  0  0  0  0  0  0  0  0  0
    5.9033    5.5957   -3.3206 O   0  0  0  0  0  0  0  0  0  0  0  0
   -0.9236    5.3265   -2.4063 O   0  0  0  0  0  0  0  0  0  0  0  0
    1.2372    8.6763    0.8365 C   0  0  0  0  0  0  0  0  0  0  0  0
    7.0810    8.5624    0.2083 C   0  0  0  0  0  0  0  0  0  0  0  0
    2.6442    6.3089    0.7779 O   0  0  0  0  0  0  0  0  0  0  0  0
    1.7829   10.7554   -0.9715 F   0  0  0  0  0  0  0  0  0  0  0  0
    9.2545    8.6904   -1.3856 C   0  0  0  0  0  0  0  0  0  0  0  0
    5.0354    8.3490    1.5938 C   0  0  0  0  0  0  0  0  0  0  0  0
    5.3848    6.6038    3.1808 C   0  0  0  0  0  0  0  0  0  0  0  0
    6.8927    5.9847    1.3297 C   0  0  0  0  0  0  0  0  0  0  0  0
    4.4741   10.1563   -0.6432 H   0  0  0  0  0  0  0  0  0  0  0  0
    5.2480    8.0852   -2.8068 H   0  0  0  0  0  0  0  0  0  0  0  0
    3.7629    7.3648    0.9900 H   0  0  0  0  0  0  0  0  0  0  0  0
    8.0006    6.1525   -0.9807 H   0  0  0  0  0  0  0  0  0  0  0  0
    2.0681    6.2494   -1.8544 H   0  0  0  0  0  0  0  0  0  0  0  0
    5.1947    5.9662   -0.3170 H   0  0  0  0  0  0  0  0  0  0  0  0
    4.3987    6.2611   -1.6526 H   0  0  0  0  0  0  0  0  0  0  0  0
    7.6679    9.7845   -3.0074 H   0  0  0  0  0  0  0  0  0  0  0  0
    6.9105    8.4965   -3.8419 H   0  0  0  0  0  0  0  0  0  0  0  0
    8.8862    7.2788   -2.8944 H   0  0  0  0  0  0  0  0  0  0  0  0
    3.7903   10.9421   -2.8590 H   0  0  0  0  0  0  0  0  0  0  0  0
    3.3870    9.3332   -3.4201 H   0  0  0  0  0  0  0  0  0  0  0  0
    1.2594   10.7299   -2.8634 H   0  0  0  0  0  0  0  0  0  0  0  0
    0.7868    7.2683   -3.5730 H   0  0  0  0  0  0  0  0  0  0  0  0
   -0.0374    6.0433    0.3010 H   0  0  0  0  0  0  0  0  0  0  0  0
    5.7798    3.3430   -1.7161 H   0  0  0  0  0  0  0  0  0  0  0  0
    6.8555    3.9745   -0.5220 H   0  0  0  0  0  0  0  0  0  0  0  0
    1.0206    9.7455    0.9743 H   0  0  0  0  0  0  0  0  0  0  0  0
    0.4254    8.0926    1.2902 H   0  0  0  0  0  0  0  0  0  0  0  0
    2.0445    8.5487    1.5761 H   0  0  0  0  0  0  0  0  0  0  0  0
    8.1133    8.2472    0.3786 H   0  0  0  0  0  0  0  0  0  0  0  0
    7.0366    9.6389   -0.0060 H   0  0  0  0  0  0  0  0  0  0  0  0
    6.9524    8.4794    1.2819 H   0  0  0  0  0  0  0  0  0  0  0  0
    2.4970    6.5416    1.7351 H   0  0  0  0  0  0  0  0  0  0  0  0
    9.9508    9.1788   -2.0680 H   0  0  0  0  0  0  0  0  0  0  0  0
    8.8373    9.5687   -0.8654 H   0  0  0  0  0  0  0  0  0  0  0  0
    9.8603    8.1334   -0.6508 H   0  0  0  0  0  0  0  0  0  0  0  0
    4.0282    8.6519    1.9478 H   0  0  0  0  0  0  0  0  0  0  0  0
    5.5803    9.2658    1.8509 H   0  0  0  0  0  0  0  0  0  0  0  0
    4.9842    8.5862    0.5439 H   0  0  0  0  0  0  0  0  0  0  0  0
    5.6113    5.6510    3.6238 H   0  0  0  0  0  0  0  0  0  0  0  0
    6.0889    7.3952    3.4557 H   0  0  0  0  0  0  0  0  0  0  0  0
    4.3630    6.9292    3.4093 H   0  0  0  0  0  0  0  0  0  0  0  0
    7.1444    4.9922    1.6985 H   0  0  0  0  0  0  0  0  0  0  0  0
    6.8293    5.7280    0.3056 H   0  0  0  0  0  0  0  0  0  0  0  0
    7.7635    6.6186    1.3330 H   0  0  0  0  0  0  0  0  0  0  0  0
  1 27  1  6  0  0  0
  2  1  1  0  0  0  0
  2 22  1  1  0  0  0
  3 10  1  0  0  0  0
  3 28  1  6  0  0  0
  4  1  1  0  0  0  0
  5  6  1  0  0  0  0
  5  3  1  0  0  0  0
  5 36  1  1  0  0  0
  6  2  1  0  0  0  0
  6 13  1  0  0  0  0
  6 35  1  6  0  0  0
  7  2  1  0  0  0  0
  7 37  1  1  0  0  0
  7 29  1  0  0  0  0
  8  3  1  0  0  0  0
  8 12  1  0  0  0  0
  8 38  1  1  0  0  0
  8 18  1  0  0  0  0
  9  1  1  0  0  0  0
  9 39  1  0  0  0  0
 10  7  1  0  0  0  0
 10 40  1  0  0  0  0
 10 41  1  0  0  0  0
 11  5  1  0  0  0  0
 11 42  1  0  0  0  0
 11 43  1  0  0  0  0
 12 11  1  0  0  0  0
 12 44  1  6  0  0  0
 12 31  1  0  0  0  0
 13 14  1  0  0  0  0
 13 45  1  0  0  0  0
 13 46  1  0  0  0  0
 14  4  1  0  0  0  0
 14 30  1  0  0  0  0
 14 47  1  6  0  0  0
 15  4  2  0  0  0  0
 15 19  1  0  0  0  0
 15 48  1  0  0  0  0
 16 21  1  0  0  0  0
 17  9  2  0  0  0  0
 17 49  1  0  0  0  0
 19 17  1  0  0  0  0
 20 16  1  0  0  0  0
 21 24  1  0  0  0  0
 23 16  2  0  0  0  0
 24 18  1  0  0  0  0
 24 50  1  0  0  0  0
 24 51  1  0  0  0  0
 25 18  2  0  0  0  0
 26 19  2  0  0  0  0
 27 52  1  0  0  0  0
 27 53  1  0  0  0  0
 27 54  1  0  0  0  0
 28 55  1  0  0  0  0
 28 56  1  0  0  0  0
 28 57  1  0  0  0  0
 29 58  1  0  0  0  0
 31 59  1  0  0  0  0
 31 60  1  0  0  0  0
 31 61  1  0  0  0  0
 32 20  1  0  0  0  0
 32 62  1  0  0  0  0
 32 63  1  0  0  0  0
 32 64  1  0  0  0  0
 33 20  1  0  0  0  0
 33 65  1  0  0  0  0
 33 66  1  0  0  0  0
 33 67  1  0  0  0  0
 34 20  1  0  0  0  0
 34 68  1  0  0  0  0
 34 69  1  0  0  0  0
 34 70  1  0  0  0  0
M  END
>  <DRUGBANK_ID>
DB14664

>  <SECONDARY_ACCESSION_NUMBERS>
DBSALT001924

>  <COMMON_NAME>
Difluocortolone pivalate

>  <CAS_NUMBER>
15845-96-2

>  <UNII>
ZR05N78276

>  <SYNONYMS>
Diflucortolone pivalate

$$$$
