
 OpenBabel10282417183D

 50 54  0  0  1  0  0  0  0  0999 V2000
    1.3139   -0.4877   -0.0134 C   0  0  0  0  0  0  0  0  0  0  0  0
    0.2401   -1.3686   -0.0066 C   0  0  0  0  0  0  0  0  0  0  0  0
   -1.0694   -0.9081   -0.0083 C   0  0  0  0  0  0  0  0  0  0  0  0
   -1.2970    0.4603   -0.0335 C   0  0  0  0  0  0  0  0  0  0  0  0
   -0.2394    1.3719   -0.0762 C   0  0  0  0  0  0  0  0  0  0  0  0
    1.0629    0.8765   -0.0419 C   0  0  0  0  0  0  0  0  0  0  0  0
    2.0982    1.7276   -0.0132 F   0  0  0  0  0  0  0  0  0  0  0  0
   -0.4898    2.8398   -0.0291 C   0  0  0  0  0  0  0  0  0  0  0  0
   -1.3200    3.3260   -1.1155 N   0  0  0  0  0  0  0  0  0  0  0  0
   -2.5503    3.9101   -1.0446 C   0  0  0  0  0  0  0  0  0  0  0  0
   -3.1359    4.1979   -2.1105 O   0  0  0  0  0  0  0  0  0  0  0  0
   -3.1554    4.2073    0.2739 C   0  0  0  0  0  0  0  0  0  0  0  0
   -2.4511    4.8281    1.2380 C   0  0  0  0  0  0  0  0  0  0  0  0
   -2.8850    5.1049    2.5254 N   0  0  0  0  0  0  0  0  0  0  0  0
   -4.2616    4.9188    2.8422 C   0  0  0  0  0  0  0  0  0  0  0  0
   -5.0955    4.2926    1.9670 C   0  0  0  0  0  0  0  0  0  0  0  0
   -4.5658    3.8957    0.6034 C   0  0  0  0  0  0  0  0  0  0  0  0
   -5.3353    3.3463   -0.1859 O   0  0  0  0  0  0  0  0  0  0  0  0
   -6.4347    4.0135    2.1749 O   0  0  0  0  0  0  0  0  0  0  0  0
   -4.7586    5.5635    4.1857 C   0  0  0  0  0  0  0  0  0  0  0  0
   -5.8333    5.2723    4.7150 O   0  0  0  0  0  0  0  0  0  0  0  0
   -3.7820    6.4450    4.7540 N   0  0  0  0  0  0  0  0  0  0  0  0
   -3.9527    7.8588    5.3798 C   0  0  1  0  0  0  0  0  0  0  0  0
   -2.7842    9.1193    5.5938 C   0  0  0  0  0  0  0  0  0  0  0  0
   -1.5779    8.3074    5.8962 C   0  0  0  0  0  0  0  0  0  0  0  0
   -2.2361    7.2461    6.7671 C   0  0  2  0  0  0  0  0  0  0  0  0
   -3.7929    7.5517    6.8342 C   0  0  0  0  0  0  0  0  0  0  0  0
   -1.8394    6.0473    6.0950 O   0  0  0  0  0  0  0  0  0  0  0  0
   -2.5739    5.6763    4.9356 C   0  0  2  0  0  0  0  0  0  0  0  0
   -1.9445    5.7170    3.5269 C   0  0  0  0  0  0  0  0  0  0  0  0
   -2.5602    0.9049    0.0170 F   0  0  0  0  0  0  0  0  0  0  0  0
    0.4734   -2.6861    0.0101 F   0  0  0  0  0  0  0  0  0  0  0  0
    2.3322   -0.8575    0.0069 H   0  0  0  0  0  0  0  0  0  0  0  0
   -1.9022   -1.6015    0.0155 H   0  0  0  0  0  0  0  0  0  0  0  0
   -0.9390    3.0226    0.9440 H   0  0  0  0  0  0  0  0  0  0  0  0
    0.4367    3.4215   -0.0731 H   0  0  0  0  0  0  0  0  0  0  0  0
   -1.0093    3.1497   -2.0656 H   0  0  0  0  0  0  0  0  0  0  0  0
   -1.4274    5.1424    1.0654 H   0  0  0  0  0  0  0  0  0  0  0  0
   -6.7459    3.5754    1.3491 H   0  0  0  0  0  0  0  0  0  0  0  0
   -4.9019    8.2740    5.0312 H   0  0  0  0  0  0  0  0  0  0  0  0
   -2.5140    9.9129    4.8900 H   0  0  0  0  0  0  0  0  0  0  0  0
   -3.0223    9.7231    6.5088 H   0  0  0  0  0  0  0  0  0  0  0  0
   -0.6749    8.7400    6.3401 H   0  0  0  0  0  0  0  0  0  0  0  0
   -1.2632    7.9808    4.9004 H   0  0  0  0  0  0  0  0  0  0  0  0
   -1.8343    7.2354    7.7808 H   0  0  0  0  0  0  0  0  0  0  0  0
   -4.3874    6.7905    7.3307 H   0  0  0  0  0  0  0  0  0  0  0  0
   -4.1333    8.4793    7.3252 H   0  0  0  0  0  0  0  0  0  0  0  0
   -2.7769    4.6066    5.1344 H   0  0  0  0  0  0  0  0  0  0  0  0
   -1.8191    6.7614    3.2240 H   0  0  0  0  0  0  0  0  0  0  0  0
   -0.9671    5.2306    3.4958 H   0  0  0  0  0  0  0  0  0  0  0  0
  1  2  2  0  0  0  0
  1  6  1  0  0  0  0
  1 33  1  0  0  0  0
  2  3  1  0  0  0  0
  2 32  1  0  0  0  0
  3  4  2  0  0  0  0
  3 34  1  0  0  0  0
  4  5  1  0  0  0  0
  4 31  1  0  0  0  0
  5  6  2  0  0  0  0
  5  8  1  0  0  0  0
  6  7  1  0  0  0  0
  8  9  1  0  0  0  0
  8 35  1  0  0  0  0
  8 36  1  0  0  0  0
  9 10  1  0  0  0  0
  9 37  1  0  0  0  0
 10 11  2  0  0  0  0
 10 12  1  0  0  0  0
 12 13  2  0  0  0  0
 12 17  1  0  0  0  0
 13 14  1  0  0  0  0
 13 38  1  0  0  0  0
 14 15  1  0  0  0  0
 14 30  1  0  0  0  0
 15 16  2  0  0  0  0
 15 20  1  0  0  0  0
 16 17  1  0  0  0  0
 16 19  1  0  0  0  0
 17 18  2  0  0  0  0
 19 39  1  0  0  0  0
 20 21  2  0  0  0  0
 20 22  1  0  0  0  0
 22 23  1  0  0  0  0
 23 24  1  0  0  0  0
 23 27  1  0  0  0  0
 23 40  1  1  0  0  0
 24 25  1  0  0  0  0
 24 41  1  0  0  0  0
 24 42  1  0  0  0  0
 25 26  1  0  0  0  0
 25 43  1  0  0  0  0
 25 44  1  0  0  0  0
 26 27  1  0  0  0  0
 26 28  1  0  0  0  0
 26 45  1  6  0  0  0
 27 46  1  0  0  0  0
 27 47  1  0  0  0  0
 28 29  1  0  0  0  0
 29 22  1  0  0  0  0
 29 30  1  0  0  0  0
 29 48  1  1  0  0  0
 30 49  1  0  0  0  0
 30 50  1  0  0  0  0
M  END
>  <DRUGBANK_ID>
DB11799

>  <COMMON_NAME>
Bictegravir

>  <CAS_NUMBER>
1611493-60-7

>  <UNII>
8GB79LOJ07

>  <SYNONYMS>
Bictegravir

$$$$
