
 OpenBabel10282417193D

 48 51  0  0  1  0  0  0  0  0999 V2000
    1.1442    0.4178    0.3191 C   0  0  0  0  0  0  0  0  0  0  0  0
    1.5506   -0.3890    1.5340 C   0  0  0  0  0  0  0  0  0  0  0  0
    2.8257   -0.1449    2.0240 C   0  0  0  0  0  0  0  0  0  0  0  0
    3.5071   -1.4549    2.2328 C   0  0  0  0  0  0  0  0  0  0  0  0
    3.7622   -1.9653    3.3066 O   0  0  0  0  0  0  0  0  0  0  0  0
    3.4576   -2.1404    0.9252 C   0  0  0  0  0  0  0  0  0  0  0  0
    2.1532   -2.3023    0.6221 C   0  0  0  0  0  0  0  0  0  0  0  0
    1.0331   -1.9330    1.7143 C   0  0  1  0  0  0  0  0  0  0  0  0
    0.3919   -3.4350    1.5112 C   0  0  1  0  0  0  0  0  0  0  0  0
   -0.7873   -3.9048    2.4860 C   0  0  0  0  0  0  0  0  0  0  0  0
   -1.1021   -5.3973    2.5310 C   0  0  0  0  0  0  0  0  0  0  0  0
   -1.5801   -5.9554    1.2387 C   0  0  1  0  0  0  0  0  0  0  0  0
   -0.3518   -5.2934    0.1208 C   0  0  2  0  0  0  0  0  0  0  0  0
    0.0149   -3.8437    0.1194 C   0  0  2  0  0  0  0  0  0  0  0  0
    1.1142   -3.7005   -0.9648 C   0  0  0  0  0  0  0  0  0  0  0  0
    1.6695   -2.3428   -0.8383 C   0  0  0  0  0  0  0  0  0  0  0  0
    0.6934   -6.3540    0.0704 C   0  0  0  0  0  0  0  0  0  0  0  0
   -0.3707   -7.3233   -0.3830 C   0  0  0  0  0  0  0  0  0  0  0  0
   -1.7707   -6.4311   -0.1016 C   0  0  0  0  0  0  0  0  0  0  0  0
   -2.7829   -5.9895   -0.6873 O   0  0  0  0  0  0  0  0  0  0  0  0
   -2.2768   -7.4228    1.5537 C   0  0  0  0  0  0  0  0  0  0  0  0
    0.9408   -2.0062    3.2755 C   0  0  0  0  0  0  0  0  0  0  0  0
    0.7158    1.3938    0.5267 H   0  0  0  0  0  0  0  0  0  0  0  0
    0.3890   -0.1253   -0.2414 H   0  0  0  0  0  0  0  0  0  0  0  0
    2.0121    0.5416   -0.3564 H   0  0  0  0  0  0  0  0  0  0  0  0
    3.5452    0.6211    1.7363 H   0  0  0  0  0  0  0  0  0  0  0  0
    4.1048   -1.8137    0.1183 H   0  0  0  0  0  0  0  0  0  0  0  0
    1.2235   -4.1240    1.7824 H   0  0  0  0  0  0  0  0  0  0  0  0
   -1.6963   -3.3500    2.2452 H   0  0  0  0  0  0  0  0  0  0  0  0
   -0.5624   -3.7398    3.5431 H   0  0  0  0  0  0  0  0  0  0  0  0
   -1.9236   -5.5437    3.2652 H   0  0  0  0  0  0  0  0  0  0  0  0
   -0.2596   -5.9322    2.9805 H   0  0  0  0  0  0  0  0  0  0  0  0
   -0.6548   -5.2223   -0.9748 H   0  0  0  0  0  0  0  0  0  0  0  0
   -0.8584   -3.2462   -0.1875 H   0  0  0  0  0  0  0  0  0  0  0  0
    1.9576   -4.3818   -0.8259 H   0  0  0  0  0  0  0  0  0  0  0  0
    0.7199   -3.8905   -1.9744 H   0  0  0  0  0  0  0  0  0  0  0  0
    2.4544   -2.1451   -1.5737 H   0  0  0  0  0  0  0  0  0  0  0  0
    0.8359   -1.6896   -1.1093 H   0  0  0  0  0  0  0  0  0  0  0  0
    1.5056   -6.2555   -0.6527 H   0  0  0  0  0  0  0  0  0  0  0  0
    1.1165   -6.4931    1.0711 H   0  0  0  0  0  0  0  0  0  0  0  0
    0.0363   -8.2383   -0.7956 H   0  0  0  0  0  0  0  0  0  0  0  0
   -0.4914   -7.9318    0.5058 H   0  0  0  0  0  0  0  0  0  0  0  0
   -3.2080   -7.2246    2.0812 H   0  0  0  0  0  0  0  0  0  0  0  0
   -2.6694   -7.9964    0.6653 H   0  0  0  0  0  0  0  0  0  0  0  0
   -1.6790   -8.1890    2.0644 H   0  0  0  0  0  0  0  0  0  0  0  0
    1.4128   -1.2562    3.9019 H   0  0  0  0  0  0  0  0  0  0  0  0
   -0.1242   -1.8797    3.5355 H   0  0  0  0  0  0  0  0  0  0  0  0
    1.3066   -2.9787    3.6386 H   0  0  0  0  0  0  0  0  0  0  0  0
  1  2  1  0  0  0  0
  1 23  1  0  0  0  0
  1 24  1  0  0  0  0
  1 25  1  0  0  0  0
  2  3  2  0  0  0  0
  2  8  1  0  0  0  0
  3  4  1  0  0  0  0
  3 26  1  0  0  0  0
  4  5  2  0  0  0  0
  4  6  1  0  0  0  0
  6  7  2  0  0  0  0
  6 27  1  0  0  0  0
  7  8  1  0  0  0  0
  7 16  1  0  0  0  0
  8  9  1  0  0  0  0
  8 22  1  6  0  0  0
  9 10  1  0  0  0  0
  9 14  1  0  0  0  0
  9 28  1  1  0  0  0
 10 11  1  0  0  0  0
 10 29  1  0  0  0  0
 10 30  1  0  0  0  0
 11 12  1  0  0  0  0
 11 31  1  0  0  0  0
 11 32  1  0  0  0  0
 12 13  1  0  0  0  0
 12 19  1  0  0  0  0
 12 21  1  6  0  0  0
 13 14  1  0  0  0  0
 13 17  1  0  0  0  0
 13 33  1  1  0  0  0
 14 15  1  0  0  0  0
 14 34  1  6  0  0  0
 15 16  1  0  0  0  0
 15 35  1  0  0  0  0
 15 36  1  0  0  0  0
 16 37  1  0  0  0  0
 16 38  1  0  0  0  0
 17 18  1  0  0  0  0
 17 39  1  0  0  0  0
 17 40  1  0  0  0  0
 18 19  1  0  0  0  0
 18 41  1  0  0  0  0
 18 42  1  0  0  0  0
 19 20  2  0  0  0  0
 21 43  1  0  0  0  0
 21 44  1  0  0  0  0
 21 45  1  0  0  0  0
 22 46  1  0  0  0  0
 22 47  1  0  0  0  0
 22 48  1  0  0  0  0
M  END
>  <DRUGBANK_ID>
DB12194

>  <COMMON_NAME>
Atamestane

>  <CAS_NUMBER>
96301-34-7

>  <UNII>
62GA3K28B6

>  <SYNONYMS>
Atamestane

$$$$
