KI2
 OpenBabel10282417173D

 43 44  0  0  0  0  0  0  0  0999 V2000
    0.8594   -0.0209    0.0482 O   0  0  0  0  0  0  0  0  0  0  0  0
    3.4330    0.6925   -4.0299 C   0  0  0  0  0  0  0  0  0  0  0  0
    3.4107   -0.6101   -3.5360 C   0  0  0  0  0  0  0  0  0  0  0  0
    3.0872   -0.8485   -2.1955 C   0  0  0  0  0  0  0  0  0  0  0  0
    2.7991    0.2171   -1.3289 C   0  0  0  0  0  0  0  0  0  0  0  0
    2.8951    1.5260   -1.8244 C   0  0  0  0  0  0  0  0  0  0  0  0
    3.1649    1.7594   -3.1758 C   0  0  0  0  0  0  0  0  0  0  0  0
    0.2480   -0.2214    1.2429 C   0  0  0  0  0  0  0  0  0  0  0  0
    0.8217   -0.4094    2.3012 O   0  0  0  0  0  0  0  0  0  0  0  0
   -1.1224   -0.1927    1.1697 N   0  0  0  0  0  0  0  0  0  0  0  0
   -1.9531    0.0273   -0.0347 C   0  0  1  0  0  0  0  0  0  0  0  0
   -2.9199   -1.1764   -0.2673 C   0  0  0  0  0  0  0  0  0  0  0  0
   -3.9107   -1.4466    0.8519 C   0  0  0  0  0  0  0  0  0  0  0  0
   -4.1103   -2.7466    1.3147 C   0  0  0  0  0  0  0  0  0  0  0  0
   -4.9054   -2.9760    2.4432 C   0  0  0  0  0  0  0  0  0  0  0  0
   -5.4446   -1.9099    3.1634 C   0  0  0  0  0  0  0  0  0  0  0  0
   -5.2728   -0.6223    2.7017 C   0  0  0  0  0  0  0  0  0  0  0  0
   -4.6485   -0.4358    1.4791 C   0  0  0  0  0  0  0  0  0  0  0  0
    2.2991   -0.0303    0.0795 C   0  0  0  0  0  0  0  0  0  0  0  0
   -2.6655    1.3993    0.0287 C   0  0  1  0  0  0  0  0  0  0  0  0
   -1.7393    2.4538    0.2607 O   0  0  0  0  0  0  0  0  0  0  0  0
   -3.5557    1.5725   -1.2093 C   0  0  0  0  0  0  0  0  0  0  0  0
   -4.7769    1.5269   -1.2349 O   0  0  0  0  0  0  0  0  0  0  0  0
   -2.8561    1.6986   -2.3532 O   0  0  0  0  0  0  0  0  0  0  0  0
   -1.2683    0.0632   -0.8901 H   0  0  0  0  0  0  0  0  0  0  0  0
   -3.2907    1.4780    0.9110 H   0  0  0  0  0  0  0  0  0  0  0  0
    3.6616    0.8766   -5.0768 H   0  0  0  0  0  0  0  0  0  0  0  0
    3.6213   -1.4425   -4.2030 H   0  0  0  0  0  0  0  0  0  0  0  0
    3.0540   -1.8747   -1.8369 H   0  0  0  0  0  0  0  0  0  0  0  0
    2.7419    2.3748   -1.1619 H   0  0  0  0  0  0  0  0  0  0  0  0
    3.1467    2.7744   -3.5647 H   0  0  0  0  0  0  0  0  0  0  0  0
   -1.5890   -0.3922    2.0483 H   0  0  0  0  0  0  0  0  0  0  0  0
   -3.4584   -1.0713   -1.2160 H   0  0  0  0  0  0  0  0  0  0  0  0
   -2.2832   -2.0670   -0.3874 H   0  0  0  0  0  0  0  0  0  0  0  0
   -3.6627   -3.5918    0.7966 H   0  0  0  0  0  0  0  0  0  0  0  0
   -5.0871   -3.9917    2.7781 H   0  0  0  0  0  0  0  0  0  0  0  0
   -6.0438   -2.0769    4.0515 H   0  0  0  0  0  0  0  0  0  0  0  0
   -5.6544    0.2377    3.2459 H   0  0  0  0  0  0  0  0  0  0  0  0
   -4.8112    0.5346    1.0367 H   0  0  0  0  0  0  0  0  0  0  0  0
    2.6661    0.7590    0.7470 H   0  0  0  0  0  0  0  0  0  0  0  0
    2.6623   -0.9984    0.4445 H   0  0  0  0  0  0  0  0  0  0  0  0
   -1.4256    2.3046    1.1733 H   0  0  0  0  0  0  0  0  0  0  0  0
   -3.5272    1.8033   -3.0586 H   0  0  0  0  0  0  0  0  0  0  0  0
  1  8  1  0  0  0  0
  1 19  1  0  0  0  0
  2  3  2  0  0  0  0
  2  7  1  0  0  0  0
  2 27  1  0  0  0  0
  3  4  1  0  0  0  0
  3 28  1  0  0  0  0
  4  5  2  0  0  0  0
  4 29  1  0  0  0  0
  5  6  1  0  0  0  0
  5 19  1  0  0  0  0
  6  7  2  0  0  0  0
  6 30  1  0  0  0  0
  7 31  1  0  0  0  0
  8  9  2  0  0  0  0
  8 10  1  0  0  0  0
 10 32  1  0  0  0  0
 11 10  1  0  0  0  0
 11 12  1  0  0  0  0
 11 20  1  0  0  0  0
 11 25  1  6  0  0  0
 12 13  1  0  0  0  0
 12 33  1  0  0  0  0
 12 34  1  0  0  0  0
 13 14  2  0  0  0  0
 13 18  1  0  0  0  0
 14 15  1  0  0  0  0
 14 35  1  0  0  0  0
 15 16  2  0  0  0  0
 15 36  1  0  0  0  0
 16 17  1  0  0  0  0
 16 37  1  0  0  0  0
 17 18  2  0  0  0  0
 17 38  1  0  0  0  0
 18 39  1  0  0  0  0
 19 40  1  0  0  0  0
 19 41  1  0  0  0  0
 20 21  1  0  0  0  0
 20 22  1  0  0  0  0
 20 26  1  1  0  0  0
 21 42  1  0  0  0  0
 22 23  2  0  0  0  0
 22 24  1  0  0  0  0
 24 43  1  0  0  0  0
M  END
>  <DRUGBANK_ID>
DB08041

>  <COMMON_NAME>
3-BENZYLOXYCARBONYLAMINO-2-HYDROXY-4-PHENYL-BUTYRIC ACID

$$$$
