
 OpenBabel10282417203D

 57 58  0  0  0  0  0  0  0  0999 V2000
    0.9985    0.0142    0.1268 C   0  0  0  0  0  0  0  0  0  0  0  0
    0.5543   -1.4496   -0.0277 C   0  0  0  0  0  0  0  0  0  0  0  0
    1.0688   -2.2067    1.2193 C   0  0  0  0  0  0  0  0  0  0  0  0
   -0.9908   -1.4778   -0.0367 C   0  0  0  0  0  0  0  0  0  0  0  0
    1.0486   -2.1198   -1.3187 C   0  0  0  0  0  0  0  0  0  0  0  0
    0.8211   -3.5046   -1.4642 C   0  0  0  0  0  0  0  0  0  0  0  0
    1.1250   -4.2071   -2.6381 C   0  0  0  0  0  0  0  0  0  0  0  0
    1.6562   -3.4656   -3.7039 C   0  0  0  0  0  0  0  0  0  0  0  0
    1.9557   -2.1186   -3.5767 C   0  0  0  0  0  0  0  0  0  0  0  0
    1.6481   -1.4518   -2.3980 C   0  0  0  0  0  0  0  0  0  0  0  0
    1.9360   -0.1208   -2.3474 O   0  0  0  0  0  0  0  0  0  0  0  0
    0.8478   -5.7236   -2.7158 C   0  0  0  0  0  0  0  0  0  0  0  0
    1.5930   -6.4799   -1.5839 C   0  0  0  0  0  0  0  0  0  0  0  0
   -0.6746   -5.9462   -2.4872 C   0  0  0  0  0  0  0  0  0  0  0  0
    1.3454   -6.3324   -4.0379 C   0  0  0  0  0  0  0  0  0  0  0  0
    2.7063   -6.2415   -4.3863 C   0  0  0  0  0  0  0  0  0  0  0  0
    3.1655   -6.7083   -5.6029 C   0  0  0  0  0  0  0  0  0  0  0  0
    2.2873   -7.3452   -6.4754 C   0  0  0  0  0  0  0  0  0  0  0  0
    0.9202   -7.4838   -6.1719 C   0  0  0  0  0  0  0  0  0  0  0  0
    0.4785   -6.9429   -4.9508 C   0  0  0  0  0  0  0  0  0  0  0  0
   -0.1262   -8.1825   -7.0559 C   0  0  0  0  0  0  0  0  0  0  0  0
   -0.7679   -9.3509   -6.2693 C   0  0  0  0  0  0  0  0  0  0  0  0
   -1.2330   -7.1808   -7.4596 C   0  0  0  0  0  0  0  0  0  0  0  0
    0.4532   -8.7709   -8.3509 C   0  0  0  0  0  0  0  0  0  0  0  0
    2.8086   -7.8285   -7.6363 O   0  0  0  0  0  0  0  0  0  0  0  0
    0.6622    0.4450    1.0736 H   0  0  0  0  0  0  0  0  0  0  0  0
    0.5739    0.6443   -0.6629 H   0  0  0  0  0  0  0  0  0  0  0  0
    2.0923    0.0932    0.0995 H   0  0  0  0  0  0  0  0  0  0  0  0
    0.7370   -1.7140    2.1400 H   0  0  0  0  0  0  0  0  0  0  0  0
    0.7051   -3.2383    1.2755 H   0  0  0  0  0  0  0  0  0  0  0  0
    2.1642   -2.2452    1.2303 H   0  0  0  0  0  0  0  0  0  0  0  0
   -1.3889   -0.9694   -0.9236 H   0  0  0  0  0  0  0  0  0  0  0  0
   -1.3875   -2.5003   -0.0463 H   0  0  0  0  0  0  0  0  0  0  0  0
   -1.4001   -0.9801    0.8488 H   0  0  0  0  0  0  0  0  0  0  0  0
    0.3582   -4.0522   -0.6463 H   0  0  0  0  0  0  0  0  0  0  0  0
    1.8679   -3.9135   -4.6702 H   0  0  0  0  0  0  0  0  0  0  0  0
    2.4164   -1.6050   -4.4143 H   0  0  0  0  0  0  0  0  0  0  0  0
    2.2679    0.1773   -3.2091 H   0  0  0  0  0  0  0  0  0  0  0  0
    1.2689   -6.1671   -0.5862 H   0  0  0  0  0  0  0  0  0  0  0  0
    1.4178   -7.5611   -1.6580 H   0  0  0  0  0  0  0  0  0  0  0  0
    2.6770   -6.3221   -1.6274 H   0  0  0  0  0  0  0  0  0  0  0  0
   -1.2745   -5.4100   -3.2336 H   0  0  0  0  0  0  0  0  0  0  0  0
   -0.9387   -7.0099   -2.5350 H   0  0  0  0  0  0  0  0  0  0  0  0
   -1.0096   -5.5971   -1.5039 H   0  0  0  0  0  0  0  0  0  0  0  0
    3.4076   -5.7246   -3.7313 H   0  0  0  0  0  0  0  0  0  0  0  0
    4.2092   -6.5591   -5.8640 H   0  0  0  0  0  0  0  0  0  0  0  0
   -0.5813   -7.0077   -4.7168 H   0  0  0  0  0  0  0  0  0  0  0  0
   -1.3185   -9.0131   -5.3835 H   0  0  0  0  0  0  0  0  0  0  0  0
   -1.4818   -9.8994   -6.8937 H   0  0  0  0  0  0  0  0  0  0  0  0
   -0.0048  -10.0596   -5.9262 H   0  0  0  0  0  0  0  0  0  0  0  0
   -0.8099   -6.3168   -7.9852 H   0  0  0  0  0  0  0  0  0  0  0  0
   -1.9647   -7.6541   -8.1243 H   0  0  0  0  0  0  0  0  0  0  0  0
   -1.7914   -6.7967   -6.5982 H   0  0  0  0  0  0  0  0  0  0  0  0
    0.8883   -7.9826   -8.9765 H   0  0  0  0  0  0  0  0  0  0  0  0
    1.2213   -9.5211   -8.1279 H   0  0  0  0  0  0  0  0  0  0  0  0
   -0.3104   -9.2676   -8.9548 H   0  0  0  0  0  0  0  0  0  0  0  0
    3.7720   -7.7005   -7.6453 H   0  0  0  0  0  0  0  0  0  0  0  0
  1  2  1  0  0  0  0
  1 26  1  0  0  0  0
  1 27  1  0  0  0  0
  1 28  1  0  0  0  0
  2  3  1  0  0  0  0
  2  4  1  0  0  0  0
  2  5  1  0  0  0  0
  3 29  1  0  0  0  0
  3 30  1  0  0  0  0
  3 31  1  0  0  0  0
  4 32  1  0  0  0  0
  4 33  1  0  0  0  0
  4 34  1  0  0  0  0
  5  6  2  0  0  0  0
  5 10  1  0  0  0  0
  6  7  1  0  0  0  0
  6 35  1  0  0  0  0
  7  8  2  0  0  0  0
  7 12  1  0  0  0  0
  8  9  1  0  0  0  0
  8 36  1  0  0  0  0
  9 10  2  0  0  0  0
  9 37  1  0  0  0  0
 10 11  1  0  0  0  0
 11 38  1  0  0  0  0
 12 13  1  0  0  0  0
 12 14  1  0  0  0  0
 12 15  1  0  0  0  0
 13 39  1  0  0  0  0
 13 40  1  0  0  0  0
 13 41  1  0  0  0  0
 14 42  1  0  0  0  0
 14 43  1  0  0  0  0
 14 44  1  0  0  0  0
 15 16  2  0  0  0  0
 15 20  1  0  0  0  0
 16 17  1  0  0  0  0
 16 45  1  0  0  0  0
 17 18  2  0  0  0  0
 17 46  1  0  0  0  0
 18 19  1  0  0  0  0
 18 25  1  0  0  0  0
 19 20  2  0  0  0  0
 19 21  1  0  0  0  0
 20 47  1  0  0  0  0
 21 22  1  0  0  0  0
 21 23  1  0  0  0  0
 21 24  1  0  0  0  0
 22 48  1  0  0  0  0
 22 49  1  0  0  0  0
 22 50  1  0  0  0  0
 23 51  1  0  0  0  0
 23 52  1  0  0  0  0
 23 53  1  0  0  0  0
 24 54  1  0  0  0  0
 24 55  1  0  0  0  0
 24 56  1  0  0  0  0
 25 57  1  0  0  0  0
M  END
>  <DRUGBANK_ID>
DB13008

>  <COMMON_NAME>
2,2-bis(4-hydroxy-3-tert-butylphenyl)propane

>  <CAS_NUMBER>
79-96-9

>  <UNII>
OKF3E6VGQB

>  <SYNONYMS>
TBD

$$$$
