
 OpenBabel10282417213D

 35 37  0  0  0  0  0  0  0  0999 V2000
    0.5871    0.1559   -0.4839 C   0  0  0  0  0  0  0  0  0  0  0  0
    0.3146   -1.3105   -0.3465 C   0  0  0  0  0  0  0  0  0  0  0  0
   -0.8866   -1.5915   -0.7165 N   0  0  0  0  0  0  0  0  0  0  0  0
   -1.2596   -2.9120   -0.8377 C   0  0  0  0  0  0  0  0  0  0  0  0
   -0.4307   -3.9607   -0.4662 C   0  0  0  0  0  0  0  0  0  0  0  0
   -0.8371   -5.2882   -0.6486 C   0  0  0  0  0  0  0  0  0  0  0  0
   -0.2128   -6.3476   -0.0011 N   0  0  0  0  0  0  0  0  0  0  0  0
   -2.0030   -5.5121   -1.3869 C   0  0  0  0  0  0  0  0  0  0  0  0
   -2.7756   -4.4495   -1.8599 C   0  0  0  0  0  0  0  0  0  0  0  0
   -2.4699   -3.1579   -1.4703 C   0  0  0  0  0  0  0  0  0  0  0  0
    0.9051   -3.6082    0.0615 C   0  0  0  0  0  0  0  0  0  0  0  0
    1.6593   -4.4979    0.4298 O   0  0  0  0  0  0  0  0  0  0  0  0
    1.2396   -2.2403    0.0911 N   0  0  0  0  0  0  0  0  0  0  0  0
    2.5835   -1.9737    0.6812 C   0  0  3  0  0  0  0  0  0  0  0  0
    2.5816   -1.2615    2.0379 C   0  0  0  0  0  0  0  0  0  0  0  0
    2.4243    0.2287    1.8879 C   0  0  0  0  0  0  0  0  0  0  0  0
    3.3552    0.8195    0.8288 C   0  0  0  0  0  0  0  0  0  0  0  0
    3.4948    2.0211    0.6931 O   0  0  0  0  0  0  0  0  0  0  0  0
    3.9017   -0.0575   -0.0943 N   0  0  0  0  0  0  0  0  0  0  0  0
    3.5322   -1.3598   -0.3355 C   0  0  0  0  0  0  0  0  0  0  0  0
    3.8686   -1.9286   -1.3737 O   0  0  0  0  0  0  0  0  0  0  0  0
    0.0925    0.6878    0.3342 H   0  0  0  0  0  0  0  0  0  0  0  0
    0.1804    0.5759   -1.4044 H   0  0  0  0  0  0  0  0  0  0  0  0
    1.6365    0.3376   -0.5563 H   0  0  0  0  0  0  0  0  0  0  0  0
    0.7156   -6.1541    0.3865 H   0  0  0  0  0  0  0  0  0  0  0  0
   -0.4469   -7.3060   -0.2088 H   0  0  0  0  0  0  0  0  0  0  0  0
   -2.3187   -6.5264   -1.6064 H   0  0  0  0  0  0  0  0  0  0  0  0
   -3.6151   -4.6226   -2.5248 H   0  0  0  0  0  0  0  0  0  0  0  0
   -3.1285   -2.3261   -1.7065 H   0  0  0  0  0  0  0  0  0  0  0  0
    3.0733   -2.9322    0.9069 H   0  0  0  0  0  0  0  0  0  0  0  0
    3.5267   -1.4469    2.5637 H   0  0  0  0  0  0  0  0  0  0  0  0
    1.7755   -1.6648    2.6618 H   0  0  0  0  0  0  0  0  0  0  0  0
    2.5315    0.7807    2.8229 H   0  0  0  0  0  0  0  0  0  0  0  0
    1.3857    0.3938    1.6422 H   0  0  0  0  0  0  0  0  0  0  0  0
    4.3916    0.3794   -0.8669 H   0  0  0  0  0  0  0  0  0  0  0  0
  1  2  1  0  0  0  0
  1 22  1  0  0  0  0
  1 23  1  0  0  0  0
  1 24  1  0  0  0  0
  2  3  2  0  0  0  0
  2 13  1  0  0  0  0
  3  4  1  0  0  0  0
  4  5  2  0  0  0  0
  4 10  1  0  0  0  0
  5  6  1  0  0  0  0
  5 11  1  0  0  0  0
  6  7  1  0  0  0  0
  6  8  2  0  0  0  0
  7 25  1  0  0  0  0
  7 26  1  0  0  0  0
  8  9  1  0  0  0  0
  8 27  1  0  0  0  0
  9 10  2  0  0  0  0
  9 28  1  0  0  0  0
 10 29  1  0  0  0  0
 11 12  2  0  0  0  0
 11 13  1  0  0  0  0
 13 14  1  0  0  0  0
 14 15  1  0  0  0  0
 14 20  1  0  0  0  0
 14 30  1  0  0  0  0
 15 16  1  0  0  0  0
 15 31  1  0  0  0  0
 15 32  1  0  0  0  0
 16 17  1  0  0  0  0
 16 33  1  0  0  0  0
 16 34  1  0  0  0  0
 17 18  2  0  0  0  0
 17 19  1  0  0  0  0
 19 20  1  0  0  0  0
 19 35  1  0  0  0  0
 20 21  2  0  0  0  0
M  END
>  <DRUGBANK_ID>
DB14857

>  <COMMON_NAME>
Avadomide

>  <CAS_NUMBER>
1015474-32-4

>  <UNII>
28DZS29F59

>  <SYNONYMS>
3-(5-Amino-2-methyl-4-oxo-4H-quinazolin-3-yl)piperidine-2,6-dione; Avadomide

$$$$
