
 OpenBabel10282417193D

 36 38  0  0  0  0  0  0  0  0999 V2000
   -2.6238   -1.2800   -1.2667 C   0  0  0  0  0  0  0  0  0  0  0  0
   -1.5159   -2.3101   -0.1044 C   0  0  0  0  0  0  0  0  0  0  0  0
   -0.2476   -1.5597    0.9222 C   0  0  0  0  0  0  0  0  0  0  0  0
   -0.2178    0.2085    0.7633 C   0  0  0  0  0  0  0  0  0  0  0  0
   -1.5032    1.0731   -0.5683 C   0  0  0  0  0  0  0  0  0  0  0  0
   -2.7236    0.4304   -1.3621 C   0  0  0  0  0  0  0  0  0  0  0  0
   -4.0614    1.1363   -0.8216 N   0  0  0  0  0  0  0  0  0  0  0  0
   -5.1894    0.5046   -0.2029 C   0  0  0  0  0  0  0  0  0  0  0  0
   -6.2078    1.1762   -0.0211 O   0  0  0  0  0  0  0  0  0  0  0  0
   -5.1926   -0.8536    0.3033 N   0  0  0  0  0  0  0  0  0  0  0  0
   -3.8596   -1.9162    0.7610 S   0  0  0  0  0  0  0  0  0  0  0  0
   -3.8525   -2.5095    2.0691 O   0  0  0  0  0  0  0  0  0  0  0  0
   -3.8995   -2.8971   -0.3553 O   0  0  0  0  0  0  0  0  0  0  0  0
   -2.0772   -0.4503    0.6020 C   0  0  0  0  0  0  0  0  0  0  0  0
   -0.6956   -0.6261   -0.9083 C   0  0  0  0  0  0  0  0  0  0  0  0
    0.5084    0.5858   -1.2506 C   0  0  0  0  0  0  0  0  0  0  0  0
    0.3455    2.0322   -0.3052 C   0  0  0  0  0  0  0  0  0  0  0  0
   -0.9312    2.3202    0.9555 C   0  0  0  0  0  0  0  0  0  0  0  0
   -2.1678    1.1041    1.4453 C   0  0  0  0  0  0  0  0  0  0  0  0
   -1.2471    3.7271    0.4984 C   0  0  0  0  0  0  0  0  0  0  0  0
    0.0515    4.0807   -0.3570 C   0  0  0  0  0  0  0  0  0  0  0  0
    1.1100    3.1178   -0.4344 O   0  0  0  0  0  0  0  0  0  0  0  0
    1.6749    0.7247    1.3586 Cl  0  0  0  0  0  0  0  0  0  0  0  0
    1.3961   -2.3416    0.6284 Cl  0  0  0  0  0  0  0  0  0  0  0  0
   -3.4613   -0.7671   -0.7232 H   0  0  0  0  0  0  0  0  0  0  0  0
   -1.4268   -3.3776   -0.1816 H   0  0  0  0  0  0  0  0  0  0  0  0
   -1.4409    2.0194   -1.1525 H   0  0  0  0  0  0  0  0  0  0  0  0
   -3.9932    2.1250   -0.5149 H   0  0  0  0  0  0  0  0  0  0  0  0
   -6.0844   -1.3565    0.1652 H   0  0  0  0  0  0  0  0  0  0  0  0
   -0.3550   -1.5612   -1.4202 H   0  0  0  0  0  0  0  0  0  0  0  0
    1.4857    0.0589   -1.2450 H   0  0  0  0  0  0  0  0  0  0  0  0
   -3.2213    1.4163    1.5416 H   0  0  0  0  0  0  0  0  0  0  0  0
   -2.1279    3.7921   -0.1767 H   0  0  0  0  0  0  0  0  0  0  0  0
   -1.4525    4.2705    1.4079 H   0  0  0  0  0  0  0  0  0  0  0  0
    0.5243    4.9434    0.0780 H   0  0  0  0  0  0  0  0  0  0  0  0
   -0.1917    4.1825   -1.4268 H   0  0  0  0  0  0  0  0  0  0  0  0
  1  2  2  0  0  0  0
  1  6  1  0  0  0  0
  1 25  1  0  0  0  0
  2  3  1  0  0  0  0
  2 26  1  0  0  0  0
  3  4  2  0  0  0  0
  3 24  1  0  0  0  0
  4  5  1  0  0  0  0
  4 23  1  0  0  0  0
  5  6  2  0  0  0  0
  5 27  1  0  0  0  0
  6  7  1  0  0  0  0
  7  8  1  0  0  0  0
  7 28  1  0  0  0  0
  8  9  2  0  0  0  0
  8 10  1  0  0  0  0
 10 11  1  0  0  0  0
 10 29  1  0  0  0  0
 11 12  2  0  0  0  0
 11 13  2  0  0  0  0
 11 14  1  0  0  0  0
 14 15  2  0  0  0  0
 14 19  1  0  0  0  0
 15 16  1  0  0  0  0
 15 30  1  0  0  0  0
 16 17  2  0  0  0  0
 16 31  1  0  0  0  0
 17 18  1  0  0  0  0
 17 22  1  0  0  0  0
 18 19  2  0  0  0  0
 18 20  1  0  0  0  0
 19 32  1  0  0  0  0
 20 21  1  0  0  0  0
 20 33  1  0  0  0  0
 20 34  1  0  0  0  0
 21 22  1  0  0  0  0
 21 35  1  0  0  0  0
 21 36  1  0  0  0  0
M  END
>  <DRUGBANK_ID>
DB12574

>  <COMMON_NAME>
LY-295501

>  <CAS_NUMBER>
150869-74-2

>  <UNII>
240Y4YO0TN

$$$$
