
 OpenBabel10282417133D

 42 44  0  0  1  0  0  0  0  0999 V2000
    0.6770   -0.1183    0.0734 C   0  0  0  0  0  0  0  0  0  0  0  0
    5.7104    1.7112    1.6735 C   0  0  0  0  0  0  0  0  0  0  0  0
    2.9906    4.9999    0.5634 C   0  0  0  0  0  0  0  0  0  0  0  0
    0.2295    1.0975    0.9984 C   0  0  2  0  0  0  0  0  0  0  0  0
    4.9477    4.1657    0.8793 C   0  0  0  0  0  0  0  0  0  0  0  0
   -0.6102    2.2334    0.3601 C   0  0  2  0  0  0  0  0  0  0  0  0
    0.3294    3.4629    0.3049 C   0  0  2  0  0  0  0  0  0  0  0  0
    4.0177    3.1886    1.2306 C   0  0  0  0  0  0  0  0  0  0  0  0
    6.3450    3.8761    0.9759 C   0  0  0  0  0  0  0  0  0  0  0  0
    1.3892    3.2232    1.3904 C   0  0  2  0  0  0  0  0  0  0  0  0
    4.3784    1.9268    1.6368 N   0  3  0  0  0  0  0  0  0  0  0  0
    6.6658    2.5967    1.3390 N   0  0  0  0  0  0  0  0  0  0  0  0
    4.2671    5.2806    0.4636 N   0  0  0  0  0  0  0  0  0  0  0  0
    2.7474    3.7418    1.0777 N   0  0  0  0  0  0  0  0  0  0  0  0
   -1.7636    2.5465    1.1265 O   0  0  0  0  0  0  0  0  0  0  0  0
   -0.2749    4.7381    0.3318 O   0  0  0  0  0  0  0  0  0  0  0  0
   -0.1425    1.3453   -2.8549 O   0  0  0  0  0  0  0  0  0  0  0  0
    2.3438    1.2637   -1.0224 O   0  0  0  0  0  0  0  0  0  0  0  0
    1.6105    3.0030   -2.4468 O   0  0  0  0  0  0  0  0  0  0  0  0
    9.3970    4.7245    2.3881 O   0  0  0  0  0  0  0  0  0  0  0  0
    9.0470    2.7291    0.8822 O   0  0  0  0  0  0  0  0  0  0  0  0
   10.9892    3.6972    1.0399 O   0  0  0  0  0  0  0  0  0  0  0  0
    0.5178    0.1152   -1.3450 O   0  0  0  0  0  0  0  0  0  0  0  0
    1.4691    1.7650    1.5190 O   0  0  0  0  0  0  0  0  0  0  0  0
    1.0944    1.6391   -1.9264 P   0  0  0  0  0  0  0  0  0  0  0  0
    9.5695    4.2744    0.8193 P   0  0  0  0  0  0  0  0  0  0  0  0
    7.6256    5.0646    0.5173 S   0  0  0  0  0  0  0  0  0  0  0  0
   -0.2799    0.6513    1.8634 H   0  0  0  0  0  0  0  0  0  0  0  0
   -1.0201    1.9333   -0.6077 H   0  0  0  0  0  0  0  0  0  0  0  0
    0.8896    3.4978   -0.6021 H   0  0  0  0  0  0  0  0  0  0  0  0
    1.0835    3.7048    2.3274 H   0  0  0  0  0  0  0  0  0  0  0  0
    0.1863   -1.0652    0.3194 H   0  0  0  0  0  0  0  0  0  0  0  0
    1.7407   -0.3585    0.2622 H   0  0  0  0  0  0  0  0  0  0  0  0
    6.0410    0.7229    1.9962 H   0  0  0  0  0  0  0  0  0  0  0  0
    2.1891    5.6788    0.2734 H   0  0  0  0  0  0  0  0  0  0  0  0
    3.7291    1.2062    1.8717 H   0  0  0  0  0  0  0  0  0  0  0  0
   -1.5248    2.9842    1.9564 H   0  0  0  0  0  0  0  0  0  0  0  0
   -1.2346    4.6630    0.4842 H   0  0  0  0  0  0  0  0  0  0  0  0
    0.0528    1.0601   -3.7600 H   0  0  0  0  0  0  0  0  0  0  0  0
    2.1610    1.6063   -0.1323 H   0  0  0  0  0  0  0  0  0  0  0  0
   10.0765    5.3956    2.5947 H   0  0  0  0  0  0  0  0  0  0  0  0
    8.1362    2.5931    0.5887 H   0  0  0  0  0  0  0  0  0  0  0  0
  1 32  1  0  0  0  0
  1 33  1  0  0  0  0
  2 34  1  0  0  0  0
  3 35  1  0  0  0  0
  4  1  1  0  0  0  0
  4 28  1  1  0  0  0
  6  4  1  0  0  0  0
  6 15  1  0  0  0  0
  6 29  1  6  0  0  0
  7  6  1  0  0  0  0
  7 16  1  0  0  0  0
  7 30  1  6  0  0  0
  8  5  2  0  0  0  0
  9  5  1  0  0  0  0
 10  7  1  0  0  0  0
 10 31  1  1  0  0  0
 10 14  1  0  0  0  0
 11  2  2  0  0  0  0
 11  8  1  0  0  0  0
 11 36  1  0  0  0  0
 12  2  1  0  0  0  0
 12  9  2  0  0  0  0
 13  3  2  0  0  0  0
 13  5  1  0  0  0  0
 14  3  1  0  0  0  0
 14  8  1  0  0  0  0
 15 37  1  0  0  0  0
 16 38  1  0  0  0  0
 17 39  1  0  0  0  0
 18 40  1  0  0  0  0
 20 41  1  0  0  0  0
 21 42  1  0  0  0  0
 23  1  1  0  0  0  0
 24  4  1  0  0  0  0
 24 10  1  0  0  0  0
 25 17  1  0  0  0  0
 25 18  1  0  0  0  0
 25 19  2  0  0  0  0
 25 23  1  0  0  0  0
 26 20  1  0  0  0  0
 26 21  1  0  0  0  0
 26 22  2  0  0  0  0
 27  9  1  0  0  0  0
 27 26  1  0  0  0  0
M  CHG  1  11   1
M  END
>  <DRUGBANK_ID>
DB03146

>  <SECONDARY_ACCESSION_NUMBERS>
EXPT02944; EXPT02575; DB02682

>  <COMMON_NAME>
2-deazo-6-thiophosphate guanosine-5'-monophosphate

$$$$
