
 OpenBabel10282417133D

 19 19  0  0  1  0  0  0  0  0999 V2000
    1.0393    0.0726   -0.0345 N   0  0  0  0  0  0  0  0  0  0  0  0
    0.5748   -0.9975    0.8551 C   0  0  0  0  0  0  0  0  0  0  0  0
    1.0460   -0.7718    2.3045 C   0  0  2  0  0  0  0  0  0  0  0  0
    0.4223   -1.7498    3.2846 C   0  0  0  0  0  0  0  0  0  0  0  0
    0.6491   -1.0676    4.6183 C   0  0  0  0  0  0  0  0  0  0  0  0
    0.6220    0.4203    4.2971 C   0  0  0  0  0  0  0  0  0  0  0  0
    0.6574    0.5549    2.8323 N   0  0  0  0  0  0  0  0  0  0  0  0
    0.7768    0.9614    0.4016 H   0  0  0  0  0  0  0  0  0  0  0  0
    2.0595    0.0922   -0.0064 H   0  0  0  0  0  0  0  0  0  0  0  0
   -0.5201   -1.0250    0.8108 H   0  0  0  0  0  0  0  0  0  0  0  0
    0.9386   -1.9628    0.4868 H   0  0  0  0  0  0  0  0  0  0  0  0
    2.1409   -0.8490    2.3449 H   0  0  0  0  0  0  0  0  0  0  0  0
   -0.6529   -1.8676    3.1022 H   0  0  0  0  0  0  0  0  0  0  0  0
    0.8875   -2.7395    3.2443 H   0  0  0  0  0  0  0  0  0  0  0  0
   -0.1083   -1.3512    5.3552 H   0  0  0  0  0  0  0  0  0  0  0  0
    1.6327   -1.3452    5.0160 H   0  0  0  0  0  0  0  0  0  0  0  0
   -0.2879    0.8881    4.6891 H   0  0  0  0  0  0  0  0  0  0  0  0
    1.4780    0.9319    4.7487 H   0  0  0  0  0  0  0  0  0  0  0  0
   -0.2877    0.7640    2.5088 H   0  0  0  0  0  0  0  0  0  0  0  0
  1  2  1  0  0  0  0
  1  8  1  0  0  0  0
  1  9  1  0  0  0  0
  2 10  1  0  0  0  0
  2 11  1  0  0  0  0
  3  2  1  0  0  0  0
  3  4  1  0  0  0  0
  3  7  1  0  0  0  0
  3 12  1  1  0  0  0
  4  5  1  0  0  0  0
  4 13  1  0  0  0  0
  4 14  1  0  0  0  0
  5  6  1  0  0  0  0
  5 15  1  0  0  0  0
  5 16  1  0  0  0  0
  6  7  1  0  0  0  0
  6 17  1  0  0  0  0
  6 18  1  0  0  0  0
  7 19  1  0  0  0  0
M  END
>  <DRUGBANK_ID>
DB03253

>  <SECONDARY_ACCESSION_NUMBERS>
EXPT02476

>  <COMMON_NAME>
(2s)-Pyrrolidin-2-Ylmethylamine

$$$$
