1CD
 OpenBabel10282417163D

 51 56  0  0  0  0  0  0  0  0999 V2000
   -0.8578   -0.2098    0.3299 C   0  0  0  0  0  0  0  0  0  0  0  0
   -1.0064    1.6746    2.4310 N   0  0  3  0  0  0  0  0  0  0  0  0
    0.3769    2.0970    1.3656 C   0  0  0  0  0  0  0  0  0  0  0  0
   -0.1840    2.9831    0.3004 C   0  0  2  0  0  0  0  0  0  0  0  0
   -1.5165    2.4499    0.7041 C   0  0  0  0  0  0  0  0  0  0  0  0
   -1.4457    0.9088    1.2828 C   0  0  1  0  0  0  0  0  0  0  0  0
   -1.8399    2.1497   -2.3892 C   0  0  0  0  0  0  0  0  0  0  0  0
   -0.5317    2.0954   -1.8669 C   0  0  0  0  0  0  0  0  0  0  0  0
   -2.1520    1.2199   -3.3889 C   0  0  0  0  0  0  0  0  0  0  0  0
   -2.8176    3.0665   -1.9265 N   0  0  0  0  0  0  0  0  0  0  0  0
    0.3187    1.0330   -2.1690 C   0  0  0  0  0  0  0  0  0  0  0  0
    0.0422    3.0475   -1.0858 O   0  0  0  0  0  0  0  0  0  0  0  0
   -1.2508    0.2308   -3.7716 C   0  0  0  0  0  0  0  0  0  0  0  0
   -3.4031    1.2472   -3.9989 N   0  0  0  0  0  0  0  0  0  0  0  0
   -3.9995    3.0528   -2.4790 C   0  0  0  0  0  0  0  0  0  0  0  0
   -0.1073    0.0283   -3.0180 C   0  0  0  0  0  0  0  0  0  0  0  0
   -4.3865    2.1073   -3.6019 C   0  0  0  0  0  0  0  0  0  0  0  0
   -5.0538    3.9503   -2.0053 C   0  0  0  0  0  0  0  0  0  0  0  0
   -5.4994    2.1204   -4.0895 O   0  0  0  0  0  0  0  0  0  0  0  0
   -5.4875    3.8131   -0.7050 C   0  0  0  0  0  0  0  0  0  0  0  0
   -5.6225    4.9050   -2.8461 C   0  0  0  0  0  0  0  0  0  0  0  0
   -6.4788    4.6435   -0.2028 C   0  0  0  0  0  0  0  0  0  0  0  0
   -5.1401    2.7856    0.1683 N   0  0  0  0  0  0  0  0  0  0  0  0
   -6.6454    5.7317   -2.3617 C   0  0  0  0  0  0  0  0  0  0  0  0
   -6.5145    4.2069    1.2295 C   0  0  0  0  0  0  0  0  0  0  0  0
   -7.0875    5.6130   -1.0232 C   0  0  0  0  0  0  0  0  0  0  0  0
   -5.4244    3.2731    1.4231 N   0  0  0  0  0  0  0  0  0  0  0  0
   -4.6800    2.3722    2.5265 C   0  0  0  0  0  0  0  0  0  0  0  0
   -7.3825    4.6974    2.0162 O   0  0  0  0  0  0  0  0  0  0  0  0
   -2.7611    2.3592    2.7905 C   0  0  0  0  0  0  0  0  0  0  0  0
    0.2072    3.9562    0.6545 H   0  0  0  0  0  0  0  0  0  0  0  0
   -1.8985    0.2315    2.0143 H   0  0  0  0  0  0  0  0  0  0  0  0
   -1.2804    0.0047   -0.6425 H   0  0  0  0  0  0  0  0  0  0  0  0
   -1.3057   -1.1834    0.5571 H   0  0  0  0  0  0  0  0  0  0  0  0
    0.2150   -0.4653    0.1945 H   0  0  0  0  0  0  0  0  0  0  0  0
    1.3568    2.4510    1.7440 H   0  0  0  0  0  0  0  0  0  0  0  0
    0.7868    1.2095    0.8257 H   0  0  0  0  0  0  0  0  0  0  0  0
   -1.6261    3.3255    1.4034 H   0  0  0  0  0  0  0  0  0  0  0  0
   -2.3962    2.5039    0.1353 H   0  0  0  0  0  0  0  0  0  0  0  0
    1.2718    0.9513   -1.6559 H   0  0  0  0  0  0  0  0  0  0  0  0
   -1.4376   -0.3988   -4.6329 H   0  0  0  0  0  0  0  0  0  0  0  0
   -3.6459    0.5923   -4.7258 H   0  0  0  0  0  0  0  0  0  0  0  0
    0.4414   -0.9053   -3.0755 H   0  0  0  0  0  0  0  0  0  0  0  0
   -5.2800    4.9845   -3.8753 H   0  0  0  0  0  0  0  0  0  0  0  0
   -4.2481    2.3316    0.0758 H   0  0  0  0  0  0  0  0  0  0  0  0
   -7.0782    6.4664   -3.0440 H   0  0  0  0  0  0  0  0  0  0  0  0
   -7.8749    6.2809   -0.6761 H   0  0  0  0  0  0  0  0  0  0  0  0
   -5.2088    2.7607    3.4295 H   0  0  0  0  0  0  0  0  0  0  0  0
   -5.1457    1.3607    2.4727 H   0  0  0  0  0  0  0  0  0  0  0  0
   -2.6734    3.4158    3.0535 H   0  0  0  0  0  0  0  0  0  0  0  0
   -2.8056    1.8433    3.7530 H   0  0  0  0  0  0  0  0  0  0  0  0
  1 33  1  0  0  0  0
  1 34  1  0  0  0  0
  1 35  1  0  0  0  0
  2  3  1  0  0  0  0
  2  6  1  0  0  0  0
  2 30  1  0  0  0  0
  3  4  1  0  0  0  0
  3 36  1  0  0  0  0
  3 37  1  0  0  0  0
  4  5  1  0  0  0  0
  4 12  1  0  0  0  0
  4 31  1  1  0  0  0
  5  6  1  0  0  0  0
  5 38  1  0  0  0  0
  5 39  1  0  0  0  0
  6 32  1  1  0  0  0
  6  1  1  0  0  0  0
  7  8  1  0  0  0  0
  7  9  2  0  0  0  0
  7 10  1  0  0  0  0
  8 11  2  0  0  0  0
  8 12  1  0  0  0  0
  9 13  1  0  0  0  0
  9 14  1  0  0  0  0
 10 15  2  0  0  0  0
 11 16  1  0  0  0  0
 11 40  1  0  0  0  0
 13 16  2  0  0  0  0
 13 41  1  0  0  0  0
 14 17  1  0  0  0  0
 14 42  1  0  0  0  0
 15 17  1  0  0  0  0
 15 18  1  0  0  0  0
 16 43  1  0  0  0  0
 17 19  2  0  0  0  0
 18 20  2  0  0  0  0
 18 21  1  0  0  0  0
 20 22  1  0  0  0  0
 20 23  1  0  0  0  0
 21 24  2  0  0  0  0
 21 44  1  0  0  0  0
 22 25  1  0  0  0  0
 22 26  2  0  0  0  0
 23 27  1  0  0  0  0
 23 45  1  0  0  0  0
 24 26  1  0  0  0  0
 24 46  1  0  0  0  0
 25 27  1  0  0  0  0
 25 29  2  0  0  0  0
 26 47  1  0  0  0  0
 27 28  1  0  0  0  0
 28 30  1  0  0  0  0
 28 48  1  0  0  0  0
 28 49  1  0  0  0  0
 30 50  1  0  0  0  0
 30 51  1  0  0  0  0
M  END
>  <DRUGBANK_ID>
DB06888

>  <COMMON_NAME>
(13R,15S)-13-METHYL-16-OXA-8,9,12,22,24-PENTAAZAHEXACYCLO[15.6.2.16,9.1,12,15.0,2,7.0,21,25]HEPTACOSA-1(24),2,4,6,17(25),18,20-HEPTAENE-23,26-DIONE

$$$$
