
 OpenBabel10282417223D

 59 60  0  0  0  0  0  0  0  0999 V2000
    0.7306    0.5927   -0.5060 C   0  0  3  0  0  0  0  0  0  0  0  0
    0.4175   -1.1002   -1.7036 C   0  0  3  0  0  0  0  0  0  0  0  0
    0.2785    0.2849    1.4078 C   0  0  0  0  0  0  0  0  0  0  0  0
    0.1948    1.8623   -0.8214 O   0  0  0  0  0  0  0  0  0  0  0  0
    2.6349    0.6552   -0.4221 C   0  0  0  0  0  0  0  0  0  0  0  0
    1.8903   -2.3400   -1.5248 C   0  0  3  0  0  0  0  0  0  0  0  0
   -0.3063   -2.6410   -0.5954 C   0  0  0  0  0  0  0  0  0  0  0  0
    0.2902   -1.1760    2.1945 C   0  0  0  0  0  0  0  0  0  0  0  0
    0.0248    1.2593    2.2793 C   0  0  0  0  0  0  0  0  0  0  0  0
   -1.1892    1.6890   -0.6367 C   0  0  0  0  0  0  0  0  0  0  0  0
    1.8997   -3.4509    0.0587 C   0  0  0  0  0  0  0  0  0  0  0  0
    1.7732   -3.4189   -2.4344 C   0  0  0  0  0  0  0  0  0  0  0  0
    0.4832   -3.8302   -0.4737 C   0  0  3  0  0  0  0  0  0  0  0  0
   -0.0347   -1.5582    3.4644 C   0  0  0  0  0  0  0  0  0  0  0  0
   -0.1718    0.8683    3.6412 C   0  0  0  0  0  0  0  0  0  0  0  0
   -1.6765    0.5114   -1.3949 C   0  0  0  0  0  0  0  0  0  0  0  0
    1.1189   -4.3226   -1.6945 C   0  0  0  0  0  0  0  0  0  0  0  0
   -0.2852   -0.4648    4.2024 C   0  0  0  0  0  0  0  0  0  0  0  0
   -1.1021   -0.8333   -0.6103 N   0  3  0  0  0  0  0  0  0  0  0  0
   -1.9611   -1.0902    0.7205 C   0  0  0  0  0  0  0  0  0  0  0  0
   -1.7608   -2.0816   -2.0463 C   0  0  0  0  0  0  0  0  0  0  0  0
    0.9154   -1.0311   -0.0854 C   0  0  0  0  0  0  0  0  0  0  0  0
   -3.3837   -1.2597    0.4958 C   0  0  0  0  0  0  0  0  0  0  0  0
   -1.1298   -2.0357   -3.4607 C   0  0  0  0  0  0  0  0  0  0  0  0
    3.4834   -0.4340    2.7144 Br  0  5  0  0  0  0  0  0  0  0  0  0
   -0.0292   -0.6393   -2.6179 H   0  0  0  0  0  0  0  0  0  0  0  0
    3.1024   -0.3821   -0.1407 H   0  0  0  0  0  0  0  0  0  0  0  0
    3.0218    0.6964   -1.4489 H   0  0  0  0  0  0  0  0  0  0  0  0
    3.0403    1.3266    0.2963 H   0  0  0  0  0  0  0  0  0  0  0  0
    2.8237   -1.7500   -1.6659 H   0  0  0  0  0  0  0  0  0  0  0  0
   -0.3302   -2.2861    0.4345 H   0  0  0  0  0  0  0  0  0  0  0  0
   -1.3781   -2.8848   -0.3152 H   0  0  0  0  0  0  0  0  0  0  0  0
    0.6063   -2.1522    1.8206 H   0  0  0  0  0  0  0  0  0  0  0  0
    0.0363    2.2546    1.9010 H   0  0  0  0  0  0  0  0  0  0  0  0
   -1.4680    1.5079    0.3947 H   0  0  0  0  0  0  0  0  0  0  0  0
   -1.6170    2.6004   -0.9909 H   0  0  0  0  0  0  0  0  0  0  0  0
    1.5599   -4.2694    0.7569 H   0  0  0  0  0  0  0  0  0  0  0  0
    2.1346   -2.8413    0.9914 H   0  0  0  0  0  0  0  0  0  0  0  0
    2.6875   -3.4439   -3.0013 H   0  0  0  0  0  0  0  0  0  0  0  0
   -0.3054   -4.4802   -0.0508 H   0  0  0  0  0  0  0  0  0  0  0  0
    0.0521   -2.6070    3.7770 H   0  0  0  0  0  0  0  0  0  0  0  0
   -0.1121    1.6650    4.3664 H   0  0  0  0  0  0  0  0  0  0  0  0
   -2.7550    0.3753   -1.4899 H   0  0  0  0  0  0  0  0  0  0  0  0
   -1.3339    0.5788   -2.4358 H   0  0  0  0  0  0  0  0  0  0  0  0
    1.6732   -5.1883   -1.3653 H   0  0  0  0  0  0  0  0  0  0  0  0
   -0.4868   -0.6275    5.2493 H   0  0  0  0  0  0  0  0  0  0  0  0
   -1.7186   -2.0124    1.2914 H   0  0  0  0  0  0  0  0  0  0  0  0
   -1.7851   -0.2454    1.3371 H   0  0  0  0  0  0  0  0  0  0  0  0
   -1.4828   -3.1709   -1.8949 H   0  0  0  0  0  0  0  0  0  0  0  0
   -2.8339   -2.1264   -1.9662 H   0  0  0  0  0  0  0  0  0  0  0  0
    1.7364   -0.5813   -1.1812 H   0  0  0  0  0  0  0  0  0  0  0  0
    1.5849   -0.6784    0.6979 H   0  0  0  0  0  0  0  0  0  0  0  0
    1.1832   -1.9483    0.1971 H   0  0  0  0  0  0  0  0  0  0  0  0
   -3.5562   -2.1230   -0.1423 H   0  0  0  0  0  0  0  0  0  0  0  0
   -3.7140   -1.4601    1.5155 H   0  0  0  0  0  0  0  0  0  0  0  0
   -3.7067   -0.3124    0.0967 H   0  0  0  0  0  0  0  0  0  0  0  0
   -0.0308   -2.1573   -3.5062 H   0  0  0  0  0  0  0  0  0  0  0  0
   -1.4164   -2.9013   -4.0569 H   0  0  0  0  0  0  0  0  0  0  0  0
   -1.4114   -1.0955   -3.9059 H   0  0  0  0  0  0  0  0  0  0  0  0
  1  2  1  0  0  0  0
  1  3  1  0  0  0  0
  1  4  1  0  0  0  0
  1  5  1  0  0  0  0
  2  6  1  0  0  0  0
  2  7  1  0  0  0  0
  2 26  1  0  0  0  0
  3  8  2  0  0  0  0
  3  9  1  0  0  0  0
  4 10  1  0  0  0  0
  5 27  1  0  0  0  0
  5 28  1  0  0  0  0
  5 29  1  0  0  0  0
  6 11  1  0  0  0  0
  6 12  1  0  0  0  0
  6 30  1  0  0  0  0
  7 13  1  0  0  0  0
  7 31  1  0  0  0  0
  7 32  1  0  0  0  0
  8 14  1  0  0  0  0
  8 33  1  0  0  0  0
  9 15  2  0  0  0  0
  9 34  1  0  0  0  0
 10 16  1  0  0  0  0
 10 35  1  0  0  0  0
 10 36  1  0  0  0  0
 11 13  1  0  0  0  0
 11 37  1  0  0  0  0
 11 38  1  0  0  0  0
 12 17  2  0  0  0  0
 12 39  1  0  0  0  0
 13 17  1  0  0  0  0
 13 40  1  0  0  0  0
 14 18  2  0  0  0  0
 14 41  1  0  0  0  0
 15 18  1  0  0  0  0
 15 42  1  0  0  0  0
 16 19  1  0  0  0  0
 16 43  1  0  0  0  0
 16 44  1  0  0  0  0
 17 45  1  0  0  0  0
 18 46  1  0  0  0  0
 19 20  1  0  0  0  0
 19 21  1  0  0  0  0
 19 22  1  0  0  0  0
 20 23  1  0  0  0  0
 20 47  1  0  0  0  0
 20 48  1  0  0  0  0
 21 24  1  0  0  0  0
 21 49  1  0  0  0  0
 21 50  1  0  0  0  0
 22 51  1  0  0  0  0
 22 52  1  0  0  0  0
 22 53  1  0  0  0  0
 23 54  1  0  0  0  0
 23 55  1  0  0  0  0
 23 56  1  0  0  0  0
 24 57  1  0  0  0  0
 24 58  1  0  0  0  0
 24 59  1  0  0  0  0
M  CHG  2  19   1  25  -1
M  END
>  <DRUGBANK_ID>
DB15827

>  <COMMON_NAME>
Ciclonium bromide

>  <CAS_NUMBER>
29546-59-6

>  <UNII>
72R7F44611

>  <SYNONYMS>
Bromure de ciclonium; Bromuro de ciclonio; Ciclonii bromidum; Ciclonium bromide; Cyclonium bromide

$$$$
