
 OpenBabel10282417173D

 37 36  0  0  0  0  0  0  0  0999 V2000
   -0.3052   -0.8883   -4.5055 C   0  0  0  0  0  0  0  0  0  0  0  0
   -0.6882   -2.1694   -5.1789 C   0  0  0  0  0  0  0  0  0  0  0  0
    0.4949   -2.8750   -5.8211 C   0  0  1  0  0  0  0  0  0  0  0  0
    1.4424   -3.5175   -4.7949 C   0  0  0  0  0  0  0  0  0  0  0  0
    0.3752   -1.0190   -3.3208 N   0  0  0  0  0  0  0  0  0  0  0  0
   -0.0312   -3.9290   -6.6989 N   0  0  0  0  0  0  0  0  0  0  0  0
    0.2430    0.0478   -1.1668 C   0  0  0  0  0  0  0  0  0  0  0  0
    0.9366    0.0728   -2.5262 C   0  0  2  0  0  0  0  0  0  0  0  0
    0.1848   -4.0985   -8.0327 C   0  0  0  0  0  0  0  0  0  0  0  0
    2.6933    2.6498   -2.1696 C   0  0  0  0  0  0  0  0  0  0  0  0
   -0.6158    0.1702   -5.0397 O   0  0  0  0  0  0  0  0  0  0  0  0
    1.5283   -4.7008   -4.5082 O   0  0  0  0  0  0  0  0  0  0  0  0
   -0.8712    0.4751   -0.9099 O   0  0  0  0  0  0  0  0  0  0  0  0
   -0.2852   -5.0753   -8.6093 O   0  0  0  0  0  0  0  0  0  0  0  0
    3.4776    3.4906   -2.5853 O   0  0  0  0  0  0  0  0  0  0  0  0
    0.7778    1.4339   -3.1971 C   0  0  0  0  0  0  0  0  0  0  0  0
    1.2167    2.6338   -2.3936 C   0  0  0  0  0  0  0  0  0  0  0  0
    2.1820   -2.6139   -4.1143 O   0  0  0  0  0  0  0  0  0  0  0  0
    0.9512   -0.5999   -0.2162 O   0  0  0  0  0  0  0  0  0  0  0  0
    3.1218    1.6101   -1.4320 O   0  0  0  0  0  0  0  0  0  0  0  0
    0.9915   -3.0533   -8.7490 C   0  0  0  0  0  0  0  0  0  0  0  0
   -1.2533   -2.7986   -4.4857 H   0  0  0  0  0  0  0  0  0  0  0  0
   -1.3898   -1.8709   -5.9728 H   0  0  0  0  0  0  0  0  0  0  0  0
    1.0862   -2.1705   -6.4131 H   0  0  0  0  0  0  0  0  0  0  0  0
    0.7628   -1.9223   -3.0839 H   0  0  0  0  0  0  0  0  0  0  0  0
   -0.5403   -4.6966   -6.2701 H   0  0  0  0  0  0  0  0  0  0  0  0
    1.9977   -0.1760   -2.3966 H   0  0  0  0  0  0  0  0  0  0  0  0
    1.3040    1.4221   -4.1627 H   0  0  0  0  0  0  0  0  0  0  0  0
   -0.2879    1.5989   -3.3886 H   0  0  0  0  0  0  0  0  0  0  0  0
    0.9410    3.5273   -2.9656 H   0  0  0  0  0  0  0  0  0  0  0  0
    0.6865    2.6908   -1.4397 H   0  0  0  0  0  0  0  0  0  0  0  0
    2.6784   -3.1042   -3.4228 H   0  0  0  0  0  0  0  0  0  0  0  0
    0.3784   -0.5370    0.5793 H   0  0  0  0  0  0  0  0  0  0  0  0
    4.0967    1.7043   -1.3936 H   0  0  0  0  0  0  0  0  0  0  0  0
    0.4985   -2.0805   -8.6688 H   0  0  0  0  0  0  0  0  0  0  0  0
    1.9976   -3.0071   -8.3233 H   0  0  0  0  0  0  0  0  0  0  0  0
    1.0760   -3.3147   -9.8067 H   0  0  0  0  0  0  0  0  0  0  0  0
  2  1  1  0  0  0  0
  2 22  1  0  0  0  0
  2 23  1  0  0  0  0
  3  2  1  0  0  0  0
  3  6  1  0  0  0  0
  3 24  1  6  0  0  0
  4  3  1  0  0  0  0
  5  1  1  0  0  0  0
  5 25  1  0  0  0  0
  6 26  1  0  0  0  0
  8 27  1  1  0  0  0
  8  5  1  0  0  0  0
  8  7  1  0  0  0  0
  9  6  1  0  0  0  0
 10 17  1  0  0  0  0
 11  1  2  0  0  0  0
 12  4  2  0  0  0  0
 13  7  2  0  0  0  0
 14  9  2  0  0  0  0
 15 10  2  0  0  0  0
 16  8  1  0  0  0  0
 16 28  1  0  0  0  0
 16 29  1  0  0  0  0
 17 16  1  0  0  0  0
 17 30  1  0  0  0  0
 17 31  1  0  0  0  0
 18  4  1  0  0  0  0
 18 32  1  0  0  0  0
 19  7  1  0  0  0  0
 19 33  1  0  0  0  0
 20 10  1  0  0  0  0
 20 34  1  0  0  0  0
 21  9  1  0  0  0  0
 21 35  1  0  0  0  0
 21 36  1  0  0  0  0
 21 37  1  0  0  0  0
M  END
>  <DRUGBANK_ID>
DB08835

>  <COMMON_NAME>
Spaglumic acid

>  <CAS_NUMBER>
4910-46-7

>  <UNII>
X81L78B3RB

>  <SYNONYMS>
N-Acetyl-L-Î²-aspartyl-L-glutamic acid; Spaglumic acid

$$$$
