
 OpenBabel10282417133D

 20 19  0  0  1  0  0  0  0  0999 V2000
    0.8414    0.3077   -0.1942 C   0  0  0  0  0  0  0  0  0  0  0  0
    0.3452   -0.2769   -1.5202 C   0  0  0  0  0  0  0  0  0  0  0  0
    0.8196   -1.7038   -1.8856 C   0  0  1  0  0  0  0  0  0  0  0  0
    0.4560   -2.7071   -0.9144 O   0  0  0  0  0  0  0  0  0  0  0  0
    1.0327   -2.3067    0.6667 P   0  0  0  0  0  0  0  0  0  0  0  0
    0.6262   -3.8464    1.0363 O   0  0  0  0  0  0  0  0  0  0  0  0
    2.5537   -2.6679    0.1717 O   0  0  0  0  0  0  0  0  0  0  0  0
    1.5488   -1.9483    2.0818 O   0  0  0  0  0  0  0  0  0  0  0  0
    0.2913   -2.0974   -3.2706 C   0  0  0  0  0  0  0  0  0  0  0  0
    1.2451   -2.3328   -4.2053 O   0  0  0  0  0  0  0  0  0  0  0  0
   -0.9009   -2.1748   -3.5486 O   0  0  0  0  0  0  0  0  0  0  0  0
    0.2986   -0.1195    0.6535 H   0  0  0  0  0  0  0  0  0  0  0  0
    0.6319    1.3746   -0.1106 H   0  0  0  0  0  0  0  0  0  0  0  0
    1.9203    0.1567   -0.0621 H   0  0  0  0  0  0  0  0  0  0  0  0
   -0.7482   -0.2628   -1.4989 H   0  0  0  0  0  0  0  0  0  0  0  0
    0.6728    0.4054   -2.3128 H   0  0  0  0  0  0  0  0  0  0  0  0
    1.9089   -1.6678   -1.9844 H   0  0  0  0  0  0  0  0  0  0  0  0
   -0.1930   -3.8839    1.5552 H   0  0  0  0  0  0  0  0  0  0  0  0
    2.7564   -2.7383   -0.7640 H   0  0  0  0  0  0  0  0  0  0  0  0
    2.1821   -2.2899   -3.9372 H   0  0  0  0  0  0  0  0  0  0  0  0
  1  2  1  0  0  0  0
  1 12  1  0  0  0  0
  1 13  1  0  0  0  0
  1 14  1  0  0  0  0
  2  3  1  0  0  0  0
  2 15  1  0  0  0  0
  2 16  1  0  0  0  0
  3  4  1  0  0  0  0
  3  9  1  0  0  0  0
  3 17  1  6  0  0  0
  4  5  1  0  0  0  0
  5  6  1  0  0  0  0
  5  7  1  0  0  0  0
  5  8  2  0  0  0  0
  6 18  1  0  0  0  0
  7 19  1  0  0  0  0
  9 10  1  0  0  0  0
  9 11  2  0  0  0  0
 10 20  1  0  0  0  0
M  END
>  <DRUGBANK_ID>
DB03248

>  <SECONDARY_ACCESSION_NUMBERS>
EXPT02552

>  <COMMON_NAME>
2-(Phosphonooxy)Butanoic Acid

$$$$
