
 OpenBabel10282417203D

  5  3  0  0  0  0  0  0  0  0999 V2000
    1.2540    0.7899    0.8818 Fe  0  2  0  0  0  0  0  0  0  0  0  0
    1.2554   -0.8017   -0.6297 O   0  0  0  0  0  0  0  0  0  0  0  0
    2.7266   -0.6410    0.8650 O   0  5  0  0  0  0  0  0  0  0  0  0
    2.3762   -0.4561   -0.3039 C   0  0  0  0  0  0  0  0  0  0  0  0
    2.7211    0.7062   -0.5374 O   0  5  0  0  0  0  0  0  0  0  0  0
  2  4  2  0  0  0  0
  3  4  1  0  0  0  0
  4  5  1  0  0  0  0
M  CHG  3   1   2   3  -1   5  -1
M  END
>  <DRUGBANK_ID>
DB13698

>  <COMMON_NAME>
Ferrous carbonate

>  <CAS_NUMBER>
563-71-3

>  <UNII>
MZ3Q72U52O

$$$$
