P4O
 OpenBabel10282417173D

 42 46  0  0  0  0  0  0  0  0999 V2000
   -1.1965   -1.4399    0.0145 C   0  0  0  0  0  0  0  0  0  0  0  0
    0.0197   -0.7389    0.0079 C   0  0  0  0  0  0  0  0  0  0  0  0
    1.2570   -1.4058    0.0085 C   0  0  0  0  0  0  0  0  0  0  0  0
    2.4480   -0.6822    0.0073 C   0  0  0  0  0  0  0  0  0  0  0  0
    2.4090    0.7074   -0.0045 C   0  0  0  0  0  0  0  0  0  0  0  0
    1.1772    1.3680   -0.0110 C   0  0  0  0  0  0  0  0  0  0  0  0
   -0.0243    0.6718   -0.0015 C   0  0  0  0  0  0  0  0  0  0  0  0
   -1.1821    1.3525   -0.0025 N   0  0  0  0  0  0  0  0  0  0  0  0
   -2.3339    0.6375    0.0137 C   0  0  0  0  0  0  0  0  0  0  0  0
   -2.4114   -0.7519    0.0129 C   0  0  0  0  0  0  0  0  0  0  0  0
   -3.6945   -1.4489   -0.0354 C   0  0  0  0  0  0  0  0  0  0  0  0
   -4.5837   -1.2374   -1.0843 C   0  0  0  0  0  0  0  0  0  0  0  0
   -3.9634   -2.2975    0.9880 N   0  0  0  0  0  0  0  0  0  0  0  0
   -5.1674   -2.9129    0.9861 C   0  0  0  0  0  0  0  0  0  0  0  0
   -6.1148   -2.7405   -0.0040 C   0  0  0  0  0  0  0  0  0  0  0  0
   -5.8086   -1.8957   -1.0673 C   0  0  0  0  0  0  0  0  0  0  0  0
   -6.8093   -1.6246   -2.0825 C   0  0  0  0  0  0  0  0  0  0  0  0
   -8.0726   -1.0937   -1.9039 C   0  0  0  0  0  0  0  0  0  0  0  0
   -8.6929   -1.0090   -3.1647 C   0  0  0  0  0  0  0  0  0  0  0  0
  -10.0062   -0.5227   -3.5184 C   0  0  0  0  0  0  0  0  0  0  0  0
  -10.8124   -0.0931   -2.6988 O   0  0  0  0  0  0  0  0  0  0  0  0
  -10.3004   -0.5703   -4.8566 N   0  0  0  0  0  0  0  0  0  0  0  0
   -9.4572   -1.1135   -5.9137 C   0  0  0  0  0  0  0  0  0  0  0  0
   -8.0498   -1.6272   -5.5386 C   0  0  0  0  0  0  0  0  0  0  0  0
   -7.7957   -1.5025   -4.0865 C   0  0  0  0  0  0  0  0  0  0  0  0
   -6.6467   -1.8644   -3.4317 N   0  0  0  0  0  0  0  0  0  0  0  0
   -1.2044   -2.5281    0.0076 H   0  0  0  0  0  0  0  0  0  0  0  0
    1.2972   -2.4925    0.0158 H   0  0  0  0  0  0  0  0  0  0  0  0
    3.4026   -1.2016    0.0188 H   0  0  0  0  0  0  0  0  0  0  0  0
    3.3316    1.2819   -0.0060 H   0  0  0  0  0  0  0  0  0  0  0  0
    1.1537    2.4552   -0.0195 H   0  0  0  0  0  0  0  0  0  0  0  0
   -3.2345    1.2480    0.0244 H   0  0  0  0  0  0  0  0  0  0  0  0
   -4.3367   -0.5454   -1.8831 H   0  0  0  0  0  0  0  0  0  0  0  0
   -5.3652   -3.5644    1.8330 H   0  0  0  0  0  0  0  0  0  0  0  0
   -7.0750   -3.2431    0.0570 H   0  0  0  0  0  0  0  0  0  0  0  0
   -8.5025   -0.7876   -0.9591 H   0  0  0  0  0  0  0  0  0  0  0  0
  -11.2290   -0.2419   -5.0837 H   0  0  0  0  0  0  0  0  0  0  0  0
  -10.0283   -1.9319   -6.3649 H   0  0  0  0  0  0  0  0  0  0  0  0
   -9.3709   -0.3292   -6.6735 H   0  0  0  0  0  0  0  0  0  0  0  0
   -7.9711   -2.6789   -5.8378 H   0  0  0  0  0  0  0  0  0  0  0  0
   -7.2975   -1.0699   -6.1082 H   0  0  0  0  0  0  0  0  0  0  0  0
   -5.8208   -2.2685   -3.8576 H   0  0  0  0  0  0  0  0  0  0  0  0
  1  2  1  0  0  0  0
  1 10  2  0  0  0  0
  1 27  1  0  0  0  0
  2  3  1  0  0  0  0
  2  7  2  0  0  0  0
  3  4  2  0  0  0  0
  3 28  1  0  0  0  0
  4  5  1  0  0  0  0
  4 29  1  0  0  0  0
  5  6  2  0  0  0  0
  5 30  1  0  0  0  0
  6  7  1  0  0  0  0
  6 31  1  0  0  0  0
  7  8  1  0  0  0  0
  8  9  2  0  0  0  0
  9 10  1  0  0  0  0
  9 32  1  0  0  0  0
 10 11  1  0  0  0  0
 11 12  1  0  0  0  0
 11 13  2  0  0  0  0
 12 16  2  0  0  0  0
 12 33  1  0  0  0  0
 13 14  1  0  0  0  0
 14 15  2  0  0  0  0
 14 34  1  0  0  0  0
 15 16  1  0  0  0  0
 15 35  1  0  0  0  0
 16 17  1  0  0  0  0
 17 18  2  0  0  0  0
 17 26  1  0  0  0  0
 18 19  1  0  0  0  0
 18 36  1  0  0  0  0
 19 20  1  0  0  0  0
 19 25  2  0  0  0  0
 20 21  2  0  0  0  0
 20 22  1  0  0  0  0
 22 23  1  0  0  0  0
 22 37  1  0  0  0  0
 23 24  1  0  0  0  0
 23 38  1  0  0  0  0
 23 39  1  0  0  0  0
 24 25  1  0  0  0  0
 24 40  1  0  0  0  0
 24 41  1  0  0  0  0
 25 26  1  0  0  0  0
 26 42  1  0  0  0  0
M  END
>  <DRUGBANK_ID>
DB08358

>  <COMMON_NAME>
2-(2-QUINOLIN-3-YLPYRIDIN-4-YL)-1,5,6,7-TETRAHYDRO-4H-PYRROLO[3,2-C]PYRIDIN-4-ONE

$$$$
