
 OpenBabel10282417133D

 25 25  0  0  1  0  0  0  0  0999 V2000
    1.0370    0.1410   -0.0942 C   0  0  0  0  0  0  0  0  0  0  0  0
    0.3472    1.3190    0.6018 C   0  0  2  0  0  0  0  0  0  0  0  0
    0.6600    2.6717   -0.0136 C   0  0  2  0  0  0  0  0  0  0  0  0
    0.6785    3.6082    1.1702 C   0  0  1  0  0  0  0  0  0  0  0  0
    1.2980    2.6949    2.2249 C   0  0  2  0  0  0  0  0  0  0  0  0
   -0.3413    2.9990   -0.9713 O   0  0  0  0  0  0  0  0  0  0  0  0
    1.3897    4.8097    0.9129 O   0  0  0  0  0  0  0  0  0  0  0  0
    2.7129    2.6128    2.1329 O   0  0  0  0  0  0  0  0  0  0  0  0
    1.1930   -0.0115   -3.8507 O   0  0  0  0  0  0  0  0  0  0  0  0
   -0.7265    1.2618   -2.8898 O   0  0  0  0  0  0  0  0  0  0  0  0
    1.7876    2.0952   -2.5716 O   0  0  0  0  0  0  0  0  0  0  0  0
    0.7603   -0.0863   -1.4564 O   0  0  0  0  0  0  0  0  0  0  0  0
    0.7540    1.3899    1.9845 O   0  0  0  0  0  0  0  0  0  0  0  0
    0.8279    0.9751   -2.6518 P   0  0  0  0  0  0  0  0  0  0  0  0
   -0.7360    1.1479    0.5765 H   0  0  0  0  0  0  0  0  0  0  0  0
    1.6552    2.6863   -0.4664 H   0  0  0  0  0  0  0  0  0  0  0  0
   -0.3514    3.8744    1.4281 H   0  0  0  0  0  0  0  0  0  0  0  0
    1.0448    3.0296    3.2344 H   0  0  0  0  0  0  0  0  0  0  0  0
    0.6861   -0.7655    0.4167 H   0  0  0  0  0  0  0  0  0  0  0  0
    2.1203    0.1504    0.0616 H   0  0  0  0  0  0  0  0  0  0  0  0
   -1.1688    3.1911   -0.4958 H   0  0  0  0  0  0  0  0  0  0  0  0
    2.2868    4.5850    0.6046 H   0  0  0  0  0  0  0  0  0  0  0  0
    2.9507    2.3181    1.2417 H   0  0  0  0  0  0  0  0  0  0  0  0
    2.1400   -0.2175   -3.7739 H   0  0  0  0  0  0  0  0  0  0  0  0
   -1.1052    1.6635   -2.0876 H   0  0  0  0  0  0  0  0  0  0  0  0
  1 19  1  0  0  0  0
  1 20  1  0  0  0  0
  2  1  1  0  0  0  0
  2 15  1  6  0  0  0
  3  2  1  0  0  0  0
  3  6  1  0  0  0  0
  3 16  1  6  0  0  0
  4  3  1  0  0  0  0
  4  7  1  0  0  0  0
  4 17  1  1  0  0  0
  5  4  1  0  0  0  0
  5  8  1  0  0  0  0
  5 18  1  1  0  0  0
  6 21  1  0  0  0  0
  7 22  1  0  0  0  0
  8 23  1  0  0  0  0
  9 24  1  0  0  0  0
 10 25  1  0  0  0  0
 12  1  1  0  0  0  0
 13  2  1  0  0  0  0
 13  5  1  0  0  0  0
 14  9  1  0  0  0  0
 14 10  1  0  0  0  0
 14 11  2  0  0  0  0
 14 12  1  0  0  0  0
M  END
>  <DRUGBANK_ID>
DB04127

>  <SECONDARY_ACCESSION_NUMBERS>
EXPT00395

>  <COMMON_NAME>
beta-D-arabinofuranose 5-phosphate

>  <SYNONYMS>
5-O-phosphono-β-D-arabinofuranose; β-D-arabinofuranose 5-phosphate

$$$$
