
 OpenBabel10282417133D

 41 42  0  0  1  0  0  0  0  0999 V2000
   -2.4316   -0.9664   -7.7753 C   0  0  0  0  0  0  0  0  0  0  0  0
   -1.0578   -3.8297   -3.4060 C   0  0  0  0  0  0  0  0  0  0  0  0
   -1.2169   -2.1440   -5.9579 C   0  0  0  0  0  0  0  0  0  0  0  0
    2.0989   -5.8154   -3.8218 C   0  0  0  0  0  0  0  0  0  0  0  0
   -1.3118   -1.7811   -7.2394 C   0  0  0  0  0  0  0  0  0  0  0  0
   -0.4332   -5.2047   -3.5225 C   0  0  1  0  0  0  0  0  0  0  0  0
    1.0090   -4.8202   -3.3268 C   0  0  2  0  0  0  0  0  0  0  0  0
   -0.0133   -2.8968   -4.0105 C   0  0  2  0  0  0  0  0  0  0  0  0
   -0.2347   -2.1985   -8.1568 C   0  0  0  0  0  0  0  0  0  0  0  0
    0.9644   -3.1320   -6.2953 C   0  0  0  0  0  0  0  0  0  0  0  0
    0.7193   -2.9994   -7.6288 N   0  0  0  0  0  0  0  0  0  0  0  0
   -0.0959   -2.7678   -5.4589 N   0  0  0  0  0  0  0  0  0  0  0  0
   -0.2014   -1.8444   -9.3367 O   0  0  0  0  0  0  0  0  0  0  0  0
    2.0710   -3.5708   -5.9940 O   0  0  0  0  0  0  0  0  0  0  0  0
    3.4088   -3.9981   -2.9126 O   0  0  0  0  0  0  0  0  0  0  0  0
    2.1134   -5.2187   -0.8674 O   0  0  0  0  0  0  0  0  0  0  0  0
    3.9800   -3.9008   -0.7722 O   0  0  0  0  0  0  0  0  0  0  0  0
   -2.9842   -5.6575   -2.5352 O   0  0  0  0  0  0  0  0  0  0  0  0
   -1.8747   -7.5212   -3.7251 O   0  0  0  0  0  0  0  0  0  0  0  0
   -3.4257   -7.8798   -1.9918 O   0  0  0  0  0  0  0  0  0  0  0  0
    2.9508   -6.3141   -2.7380 O   0  0  0  0  0  0  0  0  0  0  0  0
    1.2202   -3.4708   -3.7111 O   0  0  0  0  0  0  0  0  0  0  0  0
   -0.7313   -6.0609   -2.4157 O   0  0  0  0  0  0  0  0  0  0  0  0
    3.4939   -5.0406   -1.7006 P   0  0  0  0  0  0  0  0  0  0  0  0
   -2.1532   -7.0208   -2.1920 P   0  0  0  0  0  0  0  0  0  0  0  0
   -0.5626   -5.6745   -4.4988 H   0  0  0  0  0  0  0  0  0  0  0  0
    1.0287   -4.6917   -2.2703 H   0  0  0  0  0  0  0  0  0  0  0  0
   -0.0486   -1.8951   -3.5602 H   0  0  0  0  0  0  0  0  0  0  0  0
   -3.3616   -1.1590   -7.2320 H   0  0  0  0  0  0  0  0  0  0  0  0
   -2.6106   -1.1811   -8.8313 H   0  0  0  0  0  0  0  0  0  0  0  0
   -2.1839    0.0955   -7.6741 H   0  0  0  0  0  0  0  0  0  0  0  0
   -2.0268   -3.7824   -3.8988 H   0  0  0  0  0  0  0  0  0  0  0  0
   -1.2018   -3.5783   -2.3452 H   0  0  0  0  0  0  0  0  0  0  0  0
   -2.0026   -1.9025   -5.2454 H   0  0  0  0  0  0  0  0  0  0  0  0
    1.6759   -6.6776   -4.3384 H   0  0  0  0  0  0  0  0  0  0  0  0
    2.7803   -5.3471   -4.5438 H   0  0  0  0  0  0  0  0  0  0  0  0
    1.4900   -3.2620   -8.2216 H   0  0  0  0  0  0  0  0  0  0  0  0
    4.2691   -3.8414   -3.3396 H   0  0  0  0  0  0  0  0  0  0  0  0
    1.7045   -6.0875   -1.0120 H   0  0  0  0  0  0  0  0  0  0  0  0
   -3.3486   -5.2742   -1.7195 H   0  0  0  0  0  0  0  0  0  0  0  0
   -0.9529   -7.8088   -3.8352 H   0  0  0  0  0  0  0  0  0  0  0  0
  1 29  1  0  0  0  0
  1 30  1  0  0  0  0
  1 31  1  0  0  0  0
  2 32  1  0  0  0  0
  2 33  1  0  0  0  0
  3 34  1  0  0  0  0
  4 35  1  0  0  0  0
  4 36  1  0  0  0  0
  5  1  1  0  0  0  0
  5  3  2  0  0  0  0
  6  2  1  0  0  0  0
  6 26  1  6  0  0  0
  6 23  1  0  0  0  0
  7  6  1  0  0  0  0
  7 27  1  1  0  0  0
  7  4  1  0  0  0  0
  8  2  1  0  0  0  0
  8 28  1  1  0  0  0
  8 12  1  0  0  0  0
  9  5  1  0  0  0  0
 11  9  1  0  0  0  0
 11 10  1  0  0  0  0
 11 37  1  0  0  0  0
 12  3  1  0  0  0  0
 12 10  1  0  0  0  0
 13  9  2  0  0  0  0
 14 10  2  0  0  0  0
 15 38  1  0  0  0  0
 16 39  1  0  0  0  0
 18 40  1  0  0  0  0
 19 41  1  0  0  0  0
 21  4  1  0  0  0  0
 22  7  1  0  0  0  0
 22  8  1  0  0  0  0
 24 15  1  0  0  0  0
 24 16  1  0  0  0  0
 24 17  2  0  0  0  0
 24 21  1  0  0  0  0
 25 18  1  0  0  0  0
 25 19  1  0  0  0  0
 25 20  2  0  0  0  0
 25 23  1  0  0  0  0
M  END
>  <DRUGBANK_ID>
DB04205

>  <SECONDARY_ACCESSION_NUMBERS>
EXPT03055

>  <COMMON_NAME>
Thymidine-3',5'-Diphosphate

$$$$
