
 OpenBabel10282417103D

138141  0  0  0  0  0  0  0  0999 V2000
   -2.8206  -10.5622    0.0673 N   0  0  0  0  0  0  0  0  0  0  0  0
   -3.1632   -9.3785    0.6544 C   0  0  0  0  0  0  0  0  0  0  0  0
   -2.1109   -8.2886    0.6378 C   0  0  0  0  0  0  0  0  0  0  0  0
   -2.6020   -7.0737   -0.0193 N   0  0  0  0  0  0  0  0  0  0  0  0
   -2.9855   -5.9658    0.7253 C   0  0  0  0  0  0  0  0  0  0  0  0
   -3.0807   -4.6542   -0.0489 C   0  0  2  0  0  0  0  0  0  0  0  0
   -2.4388   -3.5191    0.6406 N   0  0  0  0  0  0  0  0  0  0  0  0
   -1.1057   -3.2118    0.8811 C   0  0  0  0  0  0  0  0  0  0  0  0
   -0.9281   -2.0181    1.1489 O   0  0  0  0  0  0  0  0  0  0  0  0
   -4.2853   -9.2195    1.1220 O   0  0  0  0  0  0  0  0  0  0  0  0
   -3.1523   -5.9868    1.9442 O   0  0  0  0  0  0  0  0  0  0  0  0
   -4.6111   -4.5253   -0.0926 C   0  0  0  0  0  0  0  0  0  0  0  0
   -5.1208   -3.3289   -0.8598 C   0  0  0  0  0  0  0  0  0  0  0  0
   -4.6160   -3.3266   -2.2925 C   0  0  0  0  0  0  0  0  0  0  0  0
   -5.1375   -4.4601   -3.0315 N   0  0  0  0  0  0  0  0  0  0  0  0
    0.0907   -4.3428    0.8129 C   0  0  2  0  0  0  0  0  0  0  0  0
   -0.3463   -5.5529    1.7254 C   0  0  0  0  0  0  0  0  0  0  0  0
    1.7607   -4.3276    1.0628 N   0  0  0  0  0  0  0  0  0  0  0  0
    0.7868   -6.5073    1.8647 C   0  0  0  0  0  0  0  0  0  0  0  0
    2.0438   -5.6302    1.8134 C   0  0  0  0  0  0  0  0  0  0  0  0
    2.6886   -2.9816    1.1608 C   0  0  0  0  0  0  0  0  0  0  0  0
    4.0965   -2.7732    2.3788 C   0  0  1  0  0  0  0  0  0  0  0  0
    5.6297   -1.9430    2.8585 N   0  0  0  0  0  0  0  0  0  0  0  0
    6.5608   -2.3363    3.9619 C   0  0  0  0  0  0  0  0  0  0  0  0
    7.1561   -1.1654    4.9940 C   0  0  1  0  0  0  0  0  0  0  0  0
    5.9920   -0.3280    5.1906 N   0  0  0  0  0  0  0  0  0  0  0  0
    2.1657   -1.9218    0.7480 O   0  0  0  0  0  0  0  0  0  0  0  0
    3.0677   -2.1250    3.3910 C   0  0  0  0  0  0  0  0  0  0  0  0
    1.1970   -3.3476    3.2240 S   0  0  0  0  0  0  0  0  0  0  0  0
   -0.7477   -3.0094    3.7597 S   0  0  0  0  0  0  0  0  0  0  0  0
    7.0460   -3.4695    4.0037 O   0  0  0  0  0  0  0  0  0  0  0  0
    7.9117   -1.6968    6.3118 C   0  0  0  0  0  0  0  0  0  0  0  0
    7.3002   -1.4916    7.6907 C   0  0  0  0  0  0  0  0  0  0  0  0
    6.9501   -2.4146    8.4215 O   0  0  0  0  0  0  0  0  0  0  0  0
    7.0500   -0.1875    8.0287 N   0  0  0  0  0  0  0  0  0  0  0  0
    5.0851   -0.6938    6.1269 C   0  0  0  0  0  0  0  0  0  0  0  0
    3.8320    0.1083    6.4345 C   0  0  2  0  0  0  0  0  0  0  0  0
    5.2218   -1.7688    6.7112 O   0  0  0  0  0  0  0  0  0  0  0  0
    3.6958    1.1603    7.4097 C   0  0  0  0  0  0  0  0  0  0  0  0
    4.7807    2.1194    7.4121 C   0  0  0  0  0  0  0  0  0  0  0  0
    4.9223    2.6803    6.0550 C   0  0  0  0  0  0  0  0  0  0  0  0
    4.8051    4.0090    6.0680 N   0  0  0  0  0  0  0  0  0  0  0  0
    5.1088    2.0540    5.0229 O   0  0  0  0  0  0  0  0  0  0  0  0
    3.2249   -0.9114    7.2990 N   0  0  0  0  0  0  0  0  0  0  0  0
   -0.7833   -1.0944    9.4065 C   0  0  0  0  0  0  0  0  0  0  0  0
    0.0612    0.0309    9.5084 C   0  0  0  0  0  0  0  0  0  0  0  0
   -0.4854   -2.2582    8.5768 C   0  0  0  0  0  0  0  0  0  0  0  0
    1.0545   -2.5724    8.9746 C   0  0  1  0  0  0  0  0  0  0  0  0
    2.5542   -1.2313    8.8047 C   0  0  0  0  0  0  0  0  0  0  0  0
   -1.7155   -0.5986   11.4520 C   0  0  0  0  0  0  0  0  0  0  0  0
   -0.7001    0.3480   11.6690 C   0  0  0  0  0  0  0  0  0  0  0  0
   -1.7415   -1.3699   10.3268 C   0  0  0  0  0  0  0  0  0  0  0  0
    0.2630    0.5949   10.7272 C   0  0  0  0  0  0  0  0  0  0  0  0
    0.6756   -5.6472    7.4474 N   0  0  0  0  0  0  0  0  0  0  0  0
    0.4771   -5.6166    6.0809 C   0  0  0  0  0  0  0  0  0  0  0  0
   -0.9041   -5.3547    5.5492 C   0  0  0  0  0  0  0  0  0  0  0  0
   -1.3140   -3.9335    5.2017 C   0  0  0  0  0  0  0  0  0  0  0  0
    1.9217   -4.8717    9.5937 C   0  0  0  0  0  0  0  0  0  0  0  0
    2.4529   -5.4196   10.5673 O   0  0  0  0  0  0  0  0  0  0  0  0
    2.0236   -5.6199    8.1123 C   0  0  2  0  0  0  0  0  0  0  0  0
    1.3427   -3.6345    9.8858 N   0  0  0  0  0  0  0  0  0  0  0  0
    2.8675   -0.5250    9.7399 O   0  0  0  0  0  0  0  0  0  0  0  0
    3.2217   -5.1683    7.1583 C   0  0  0  0  0  0  0  0  0  0  0  0
    2.4236   -2.9648    7.2914 C   0  0  0  0  0  0  0  0  0  0  0  0
    2.8351   -3.8800    6.5758 C   0  0  0  0  0  0  0  0  0  0  0  0
    1.2611   -1.6341    6.9516 C   0  0  0  0  0  0  0  0  0  0  0  0
    0.7291   -1.0254    6.0029 C   0  0  0  0  0  0  0  0  0  0  0  0
    2.2566   -3.3319    5.5416 C   0  0  0  0  0  0  0  0  0  0  0  0
    1.3004   -1.8774    5.2714 C   0  0  0  0  0  0  0  0  0  0  0  0
    1.3635   -5.8486    5.2612 O   0  0  0  0  0  0  0  0  0  0  0  0
    0.0416    0.1165    5.9372 O   0  0  0  0  0  0  0  0  0  0  0  0
   -5.9237   -4.4259   -4.1267 C   0  0  0  0  0  0  0  0  0  0  0  0
   -6.3671   -5.4718   -4.7287 N   0  0  0  0  0  0  0  0  0  0  0  0
   -6.2484   -3.2252   -4.6137 N   0  0  0  0  0  0  0  0  0  0  0  0
   -1.9159  -10.7776   -0.3283 H   0  0  0  0  0  0  0  0  0  0  0  0
   -3.5237  -11.2907    0.0753 H   0  0  0  0  0  0  0  0  0  0  0  0
   -1.8387   -8.0937    1.6825 H   0  0  0  0  0  0  0  0  0  0  0  0
   -1.2002   -8.6133    0.1190 H   0  0  0  0  0  0  0  0  0  0  0  0
   -2.7292   -7.0883   -1.0217 H   0  0  0  0  0  0  0  0  0  0  0  0
   -2.6169   -4.7256   -1.0391 H   0  0  0  0  0  0  0  0  0  0  0  0
   -2.9984   -2.6747    0.7532 H   0  0  0  0  0  0  0  0  0  0  0  0
   -5.0299   -5.4450   -0.5269 H   0  0  0  0  0  0  0  0  0  0  0  0
   -5.0087   -4.4826    0.9312 H   0  0  0  0  0  0  0  0  0  0  0  0
   -6.2175   -3.3326   -0.8298 H   0  0  0  0  0  0  0  0  0  0  0  0
   -4.8003   -2.4093   -0.3585 H   0  0  0  0  0  0  0  0  0  0  0  0
   -4.8985   -2.3680   -2.7222 H   0  0  0  0  0  0  0  0  0  0  0  0
   -3.5237   -3.3414   -2.3350 H   0  0  0  0  0  0  0  0  0  0  0  0
   -4.9088   -5.3800   -2.6786 H   0  0  0  0  0  0  0  0  0  0  0  0
   -0.0084   -4.7135   -0.2024 H   0  0  0  0  0  0  0  0  0  0  0  0
   -0.8918   -5.3692    2.6594 H   0  0  0  0  0  0  0  0  0  0  0  0
   -1.0042   -6.1760    1.1865 H   0  0  0  0  0  0  0  0  0  0  0  0
    0.6350   -7.1498    2.7534 H   0  0  0  0  0  0  0  0  0  0  0  0
    0.7482   -7.2010    1.0161 H   0  0  0  0  0  0  0  0  0  0  0  0
    2.3670   -5.5242    2.8551 H   0  0  0  0  0  0  0  0  0  0  0  0
    2.7923   -6.1382    1.2345 H   0  0  0  0  0  0  0  0  0  0  0  0
    4.3443   -3.7735    2.7155 H   0  0  0  0  0  0  0  0  0  0  0  0
    6.2838   -1.6850    2.1021 H   0  0  0  0  0  0  0  0  0  0  0  0
    7.8859   -0.4753    4.5307 H   0  0  0  0  0  0  0  0  0  0  0  0
    5.5934    0.0412    4.3271 H   0  0  0  0  0  0  0  0  0  0  0  0
    3.6286   -2.1329    4.3513 H   0  0  0  0  0  0  0  0  0  0  0  0
    2.8103   -1.0623    3.2296 H   0  0  0  0  0  0  0  0  0  0  0  0
    8.0574   -2.7744    6.2207 H   0  0  0  0  0  0  0  0  0  0  0  0
    8.9126   -1.2533    6.4406 H   0  0  0  0  0  0  0  0  0  0  0  0
    7.1544    0.4925    7.2851 H   0  0  0  0  0  0  0  0  0  0  0  0
    6.1353   -0.1542    8.4835 H   0  0  0  0  0  0  0  0  0  0  0  0
    3.3229    0.2437    5.4429 H   0  0  0  0  0  0  0  0  0  0  0  0
    2.6560    1.5125    7.3783 H   0  0  0  0  0  0  0  0  0  0  0  0
    3.8752    0.7043    8.3741 H   0  0  0  0  0  0  0  0  0  0  0  0
    4.5493    2.7912    8.2359 H   0  0  0  0  0  0  0  0  0  0  0  0
    5.7097    1.6440    7.6686 H   0  0  0  0  0  0  0  0  0  0  0  0
    4.8794    4.4647    5.1768 H   0  0  0  0  0  0  0  0  0  0  0  0
    4.6199    4.4933    6.9329 H   0  0  0  0  0  0  0  0  0  0  0  0
    3.3292   -1.6220    6.5749 H   0  0  0  0  0  0  0  0  0  0  0  0
    0.7592    0.4152    8.7741 H   0  0  0  0  0  0  0  0  0  0  0  0
   -0.7892   -1.9864    7.5489 H   0  0  0  0  0  0  0  0  0  0  0  0
   -1.0914   -3.1808    8.6669 H   0  0  0  0  0  0  0  0  0  0  0  0
    0.8809   -3.3302    8.1774 H   0  0  0  0  0  0  0  0  0  0  0  0
   -2.4701   -0.7869   12.1917 H   0  0  0  0  0  0  0  0  0  0  0  0
   -0.6779    0.9439   12.5642 H   0  0  0  0  0  0  0  0  0  0  0  0
   -2.4079   -2.2123   10.1595 H   0  0  0  0  0  0  0  0  0  0  0  0
    1.1509    1.2030   10.8907 H   0  0  0  0  0  0  0  0  0  0  0  0
   -0.0752   -6.0224    8.0126 H   0  0  0  0  0  0  0  0  0  0  0  0
   -1.6392   -5.7797    6.2382 H   0  0  0  0  0  0  0  0  0  0  0  0
   -0.9456   -5.9594    4.6433 H   0  0  0  0  0  0  0  0  0  0  0  0
   -1.3281   -3.2604    6.0520 H   0  0  0  0  0  0  0  0  0  0  0  0
   -2.3634   -4.0022    4.8914 H   0  0  0  0  0  0  0  0  0  0  0  0
    2.2607   -6.6628    8.3676 H   0  0  0  0  0  0  0  0  0  0  0  0
    1.5719   -3.2399   10.7792 H   0  0  0  0  0  0  0  0  0  0  0  0
    4.1566   -5.0767    7.7306 H   0  0  0  0  0  0  0  0  0  0  0  0
    3.4102   -5.8633    6.3387 H   0  0  0  0  0  0  0  0  0  0  0  0
    3.0093   -3.0606    8.2544 H   0  0  0  0  0  0  0  0  0  0  0  0
    1.0368   -0.9217    7.7169 H   0  0  0  0  0  0  0  0  0  0  0  0
    2.5896   -3.9891    4.7567 H   0  0  0  0  0  0  0  0  0  0  0  0
    0.9546   -1.5020    4.3140 H   0  0  0  0  0  0  0  0  0  0  0  0
    0.0247    0.5845    6.7931 H   0  0  0  0  0  0  0  0  0  0  0  0
   -6.0555   -6.3243   -4.2666 H   0  0  0  0  0  0  0  0  0  0  0  0
   -5.9748   -2.3485   -4.2123 H   0  0  0  0  0  0  0  0  0  0  0  0
   -6.8427   -3.2001   -5.4274 H   0  0  0  0  0  0  0  0  0  0  0  0
  1 75  1  0  0  0  0
  1 76  1  0  0  0  0
  2  1  1  0  0  0  0
  3  2  1  0  0  0  0
  3 77  1  0  0  0  0
  3 78  1  0  0  0  0
  4  3  1  0  0  0  0
  4 79  1  0  0  0  0
  5  4  1  0  0  0  0
  6 12  1  0  0  0  0
  6 80  1  6  0  0  0
  6  7  1  0  0  0  0
  6  5  1  0  0  0  0
  7 81  1  0  0  0  0
  8  7  1  0  0  0  0
  9  8  2  0  0  0  0
 10  2  2  0  0  0  0
 11  5  2  0  0  0  0
 12 82  1  0  0  0  0
 12 83  1  0  0  0  0
 13 12  1  0  0  0  0
 13 84  1  0  0  0  0
 13 85  1  0  0  0  0
 14 13  1  0  0  0  0
 14 86  1  0  0  0  0
 14 87  1  0  0  0  0
 15 14  1  0  0  0  0
 15 88  1  0  0  0  0
 16  8  1  0  0  0  0
 16 89  1  6  0  0  0
 17 16  1  0  0  0  0
 17 90  1  0  0  0  0
 17 91  1  0  0  0  0
 18 16  1  0  0  0  0
 19 17  1  0  0  0  0
 19 92  1  0  0  0  0
 19 93  1  0  0  0  0
 20 18  1  0  0  0  0
 20 19  1  0  0  0  0
 20 94  1  0  0  0  0
 20 95  1  0  0  0  0
 21 18  1  0  0  0  0
 22 21  1  0  0  0  0
 22 96  1  1  0  0  0
 23 22  1  0  0  0  0
 23 97  1  0  0  0  0
 24 23  1  0  0  0  0
 25 24  1  0  0  0  0
 25 98  1  6  0  0  0
 25 32  1  0  0  0  0
 26 25  1  0  0  0  0
 26 99  1  0  0  0  0
 27 21  2  0  0  0  0
 28 22  1  0  0  0  0
 28100  1  0  0  0  0
 28101  1  0  0  0  0
 29 28  1  0  0  0  0
 30 29  1  0  0  0  0
 31 24  2  0  0  0  0
 32102  1  0  0  0  0
 32103  1  0  0  0  0
 33 32  1  0  0  0  0
 34 33  2  0  0  0  0
 35 33  1  0  0  0  0
 35104  1  0  0  0  0
 35105  1  0  0  0  0
 36 26  1  0  0  0  0
 37 36  1  0  0  0  0
 37106  1  6  0  0  0
 37 39  1  0  0  0  0
 38 36  2  0  0  0  0
 39107  1  0  0  0  0
 39108  1  0  0  0  0
 40 39  1  0  0  0  0
 40109  1  0  0  0  0
 40110  1  0  0  0  0
 41 40  1  0  0  0  0
 42 41  1  0  0  0  0
 42111  1  0  0  0  0
 42112  1  0  0  0  0
 43 41  2  0  0  0  0
 44 37  1  0  0  0  0
 44113  1  0  0  0  0
 46 45  2  0  0  0  0
 46114  1  0  0  0  0
 47 45  1  0  0  0  0
 47115  1  0  0  0  0
 47116  1  0  0  0  0
 48 47  1  0  0  0  0
 48117  1  6  0  0  0
 49 44  1  0  0  0  0
 49 48  1  0  0  0  0
 50118  1  0  0  0  0
 51 50  1  0  0  0  0
 51119  1  0  0  0  0
 52 45  1  0  0  0  0
 52 50  2  0  0  0  0
 52120  1  0  0  0  0
 53 46  1  0  0  0  0
 53 51  2  0  0  0  0
 53121  1  0  0  0  0
 54122  1  0  0  0  0
 55 54  1  0  0  0  0
 56 55  1  0  0  0  0
 56123  1  0  0  0  0
 56124  1  0  0  0  0
 57 30  1  0  0  0  0
 57 56  1  0  0  0  0
 57125  1  0  0  0  0
 57126  1  0  0  0  0
 59 58  2  0  0  0  0
 60 54  1  0  0  0  0
 60 58  1  0  0  0  0
 60127  1  1  0  0  0
 60 63  1  0  0  0  0
 61 48  1  0  0  0  0
 61 58  1  0  0  0  0
 61128  1  0  0  0  0
 62 49  2  0  0  0  0
 63129  1  0  0  0  0
 63130  1  0  0  0  0
 64131  1  0  0  0  0
 65 63  1  0  0  0  0
 65 64  1  0  0  0  0
 66 64  2  0  0  0  0
 66132  1  0  0  0  0
 67 66  1  0  0  0  0
 68 65  2  0  0  0  0
 68133  1  0  0  0  0
 69 67  2  0  0  0  0
 69 68  1  0  0  0  0
 69134  1  0  0  0  0
 70 55  2  0  0  0  0
 71 67  1  0  0  0  0
 71135  1  0  0  0  0
 72 15  1  0  0  0  0
 73 72  2  0  0  0  0
 73136  1  0  0  0  0
 74 72  1  0  0  0  0
 74137  1  0  0  0  0
 74138  1  0  0  0  0
M  END
>  <DRUGBANK_ID>
DB00035

>  <SECONDARY_ACCESSION_NUMBERS>
BTD00112; BTD00061; BIOD00112; BIOD00061

>  <COMMON_NAME>
Desmopressin

>  <CAS_NUMBER>
16679-58-6

>  <UNII>
ENR1LLB0FP

>  <SYNONYMS>
1-(3-mercaptopropionic acid)-8-D-arginine-vasopressin; 1-deamino-8-D-arginine vasopressin; 1-desamino-8-D-arginine vasopressin; dDAVP; Desmopresina; Desmopressin; Desmopressine; Desmopressinum

$$$$
