
 OpenBabel10282417123D

 34 34  0  0  1  0  0  0  0  0999 V2000
    3.6663    1.1560   -1.5439 O   0  0  0  0  0  0  0  0  0  0  0  0
    3.0628    4.7334    1.2406 O   0  0  0  0  0  0  0  0  0  0  0  0
    3.7311    3.4678    1.4707 C   0  0  1  0  0  0  0  0  0  0  0  0
    2.1058    4.9941    2.2676 C   0  0  2  0  0  0  0  0  0  0  0  0
    2.6907    2.3614    1.1570 C   0  0  1  0  0  0  0  0  0  0  0  0
    1.0199    3.8917    2.3899 C   0  0  1  0  0  0  0  0  0  0  0  0
    1.6760    2.4979    2.3459 C   0  0  1  0  0  0  0  0  0  0  0  0
    4.9129    3.3474    0.5392 C   0  0  0  0  0  0  0  0  0  0  0  0
    5.7379    4.4815    0.4179 O   0  0  0  0  0  0  0  0  0  0  0  0
    1.4433    6.2348    2.0407 O   0  0  0  0  0  0  0  0  0  0  0  0
    0.6914    1.4595    2.3438 O   0  0  0  0  0  0  0  0  0  0  0  0
    2.0520    2.5425   -0.1619 O   0  0  0  0  0  0  0  0  0  0  0  0
    2.8897    2.3606   -1.5904 S   0  0  0  0  0  0  0  0  0  0  0  0
    3.4681    3.6385   -2.0033 O   0  0  0  0  0  0  0  0  0  0  0  0
    1.7695    2.2482   -2.7211 O   0  0  0  0  0  0  0  0  0  0  0  0
    0.1557    4.0836    3.5828 N   0  0  0  0  0  0  0  0  0  0  0  0
    0.6667    4.3899    4.8232 C   0  0  0  0  0  0  0  0  0  0  0  0
   -0.3221    4.5846    5.9330 C   0  0  0  0  0  0  0  0  0  0  0  0
    1.8654    4.5413    5.0412 O   0  0  0  0  0  0  0  0  0  0  0  0
    4.1122    3.4332    2.5016 H   0  0  0  0  0  0  0  0  0  0  0  0
    2.7035    5.1082    3.1705 H   0  0  0  0  0  0  0  0  0  0  0  0
    3.1104    1.3489    1.1954 H   0  0  0  0  0  0  0  0  0  0  0  0
    0.3370    3.9626    1.5324 H   0  0  0  0  0  0  0  0  0  0  0  0
    2.2302    2.3598    3.2862 H   0  0  0  0  0  0  0  0  0  0  0  0
    5.4224    2.3779    0.4976 H   0  0  0  0  0  0  0  0  0  0  0  0
    4.4422    3.4072   -0.3813 H   0  0  0  0  0  0  0  0  0  0  0  0
    5.1543    5.1418   -0.0210 H   0  0  0  0  0  0  0  0  0  0  0  0
    1.5714    6.7484    2.8585 H   0  0  0  0  0  0  0  0  0  0  0  0
    0.1236    1.5752    1.5649 H   0  0  0  0  0  0  0  0  0  0  0  0
    1.7628    3.1706   -3.0787 H   0  0  0  0  0  0  0  0  0  0  0  0
   -0.8243    3.8428    3.4939 H   0  0  0  0  0  0  0  0  0  0  0  0
   -0.0337    3.9283    6.7592 H   0  0  0  0  0  0  0  0  0  0  0  0
   -0.2668    5.6251    6.2703 H   0  0  0  0  0  0  0  0  0  0  0  0
   -1.3446    4.3582    5.6296 H   0  0  0  0  0  0  0  0  0  0  0  0
  1 13  2  0  0  0  0
  3  2  1  0  0  0  0
  3  8  1  0  0  0  0
  3 20  1  1  0  0  0
  4  2  1  0  0  0  0
  4 21  1  1  0  0  0
  4 10  1  0  0  0  0
  5  3  1  0  0  0  0
  5 22  1  1  0  0  0
  5 12  1  0  0  0  0
  6  4  1  0  0  0  0
  6 23  1  6  0  0  0
  6 16  1  0  0  0  0
  7  5  1  0  0  0  0
  7  6  1  0  0  0  0
  7 11  1  0  0  0  0
  7 24  1  1  0  0  0
  8 25  1  0  0  0  0
  8 26  1  0  0  0  0
  9  8  1  0  0  0  0
  9 27  1  0  0  0  0
 10 28  1  0  0  0  0
 11 29  1  0  0  0  0
 13 12  1  0  0  0  0
 14 13  2  0  0  0  0
 15 13  1  0  0  0  0
 15 30  1  0  0  0  0
 16 31  1  0  0  0  0
 17 16  1  0  0  0  0
 18 17  1  0  0  0  0
 18 32  1  0  0  0  0
 18 33  1  0  0  0  0
 18 34  1  0  0  0  0
 19 17  2  0  0  0  0
M  END
>  <DRUGBANK_ID>
DB01872

>  <SECONDARY_ACCESSION_NUMBERS>
EXPT02337

>  <COMMON_NAME>
2-deoxy-2-acetamido-beta-D-galactose-4-sulfate

$$$$
