
 OpenBabel10282417213D

 71 73  0  0  0  0  0  0  0  0999 V2000
    0.1239   -1.1212   -0.0301 C   0  0  0  0  0  0  0  0  0  0  0  0
    0.9067    0.0389    0.0060 C   0  0  0  0  0  0  0  0  0  0  0  0
    0.2877    1.2772    0.0157 C   0  0  0  0  0  0  0  0  0  0  0  0
   -1.0990    1.3849   -0.0884 C   0  0  0  0  0  0  0  0  0  0  0  0
   -1.9020    0.2568   -0.2605 C   0  0  0  0  0  0  0  0  0  0  0  0
   -1.3114   -1.0909   -0.1195 C   0  0  0  0  0  0  0  0  0  0  0  0
   -1.9620   -2.5408   -0.0175 C   0  0  0  0  0  0  0  0  0  0  0  0
   -3.2478   -2.8111    0.3752 C   0  0  0  0  0  0  0  0  0  0  0  0
   -1.1974   -3.7881   -0.0735 C   0  0  0  0  0  0  0  0  0  0  0  0
   -0.4958   -4.1324    1.0769 C   0  0  0  0  0  0  0  0  0  0  0  0
   -1.4200   -4.7185   -1.0765 C   0  0  0  0  0  0  0  0  0  0  0  0
   -1.0022   -6.0234   -0.8759 C   0  0  0  0  0  0  0  0  0  0  0  0
   -0.1840   -6.3840    0.2040 C   0  0  0  0  0  0  0  0  0  0  0  0
   -0.0155   -5.4180    1.2098 C   0  0  0  0  0  0  0  0  0  0  0  0
   -6.0900   -2.5892    0.9410 C   0  0  0  0  0  0  0  0  0  0  0  0
   -5.2330   -1.4477    0.9128 C   0  0  0  0  0  0  0  0  0  0  0  0
   -3.9614   -1.6662    0.6866 C   0  0  0  0  0  0  0  0  0  0  0  0
   -4.1164   -3.9615    0.1979 C   0  0  0  0  0  0  0  0  0  0  0  0
   -5.4459   -3.8573    0.4267 C   0  0  0  0  0  0  0  0  0  0  0  0
   -7.2934   -2.3991    1.3686 N   0  3  0  0  0  0  0  0  0  0  0  0
   -8.1068   -3.5795    1.7086 C   0  0  0  0  0  0  0  0  0  0  0  0
   -8.2170   -3.6319    3.2129 C   0  0  0  0  0  0  0  0  0  0  0  0
   -7.9066   -1.0071    1.6879 C   0  0  0  0  0  0  0  0  0  0  0  0
   -7.0986   -0.1986    2.7110 C   0  0  0  0  0  0  0  0  0  0  0  0
    2.2642   -0.0508    0.0329 O   0  0  0  0  0  0  0  0  0  0  0  0
    1.1747    2.8030    0.0679 S   0  0  0  0  0  0  0  0  0  0  0  0
    0.8999    3.4782   -1.1818 O   0  0  0  0  0  0  0  0  0  0  0  0
    0.8538    3.4159    1.3388 O   0  0  0  0  0  0  0  0  0  0  0  0
    2.7485    2.4767    0.0863 O   0  0  0  0  0  0  0  0  0  0  0  0
   -3.7112    0.9306   -0.6806 S   0  0  0  0  0  0  0  0  0  0  0  0
   -4.2973    1.2093    0.8314 O   0  0  0  0  0  0  0  0  0  0  0  0
   -3.6036    2.2268   -1.3254 O   0  0  0  0  0  0  0  0  0  0  0  0
   -4.5371   -0.0548   -1.3447 O   0  0  0  0  0  0  0  0  0  0  0  0
    0.4630   -7.6082    0.2617 N   0  0  0  0  0  0  0  0  0  0  0  0
    0.2957   -8.6254   -0.7866 C   0  0  0  0  0  0  0  0  0  0  0  0
    1.4514   -7.8772    1.3210 C   0  0  0  0  0  0  0  0  0  0  0  0
    1.5849   -8.8954   -1.5416 C   0  0  0  0  0  0  0  0  0  0  0  0
    2.6480   -6.9199    1.2809 C   0  0  0  0  0  0  0  0  0  0  0  0
    0.6775   -2.0621   -0.0002 H   0  0  0  0  0  0  0  0  0  0  0  0
   -1.5670    2.3698   -0.0680 H   0  0  0  0  0  0  0  0  0  0  0  0
   -0.3414   -3.4178    1.8823 H   0  0  0  0  0  0  0  0  0  0  0  0
   -2.0293   -4.4776   -1.9439 H   0  0  0  0  0  0  0  0  0  0  0  0
   -1.3703   -6.7459   -1.5925 H   0  0  0  0  0  0  0  0  0  0  0  0
    0.5078   -5.6297    2.1367 H   0  0  0  0  0  0  0  0  0  0  0  0
   -5.6983   -0.5268    0.5839 H   0  0  0  0  0  0  0  0  0  0  0  0
   -3.5583   -1.0926   -0.0673 H   0  0  0  0  0  0  0  0  0  0  0  0
   -3.7495   -4.8480   -0.2972 H   0  0  0  0  0  0  0  0  0  0  0  0
   -6.0707   -4.6845    0.1328 H   0  0  0  0  0  0  0  0  0  0  0  0
   -9.0517   -3.5125    1.1703 H   0  0  0  0  0  0  0  0  0  0  0  0
   -7.5932   -4.4829    1.3830 H   0  0  0  0  0  0  0  0  0  0  0  0
   -8.8020   -2.7944    3.6013 H   0  0  0  0  0  0  0  0  0  0  0  0
   -8.7034   -4.5623    3.5012 H   0  0  0  0  0  0  0  0  0  0  0  0
   -7.2269   -3.5923    3.6874 H   0  0  0  0  0  0  0  0  0  0  0  0
   -8.0348   -0.4645    0.7418 H   0  0  0  0  0  0  0  0  0  0  0  0
   -8.9070   -1.1782    2.0954 H   0  0  0  0  0  0  0  0  0  0  0  0
   -6.1247    0.1464    2.3640 H   0  0  0  0  0  0  0  0  0  0  0  0
   -7.6113    0.7338    2.9645 H   0  0  0  0  0  0  0  0  0  0  0  0
   -6.9038   -0.7781    3.6155 H   0  0  0  0  0  0  0  0  0  0  0  0
    2.6002   -0.9588   -0.0373 H   0  0  0  0  0  0  0  0  0  0  0  0
    3.2569    3.3092    0.0863 H   0  0  0  0  0  0  0  0  0  0  0  0
   -3.8695    0.6918    1.5542 H   0  0  0  0  0  0  0  0  0  0  0  0
   -0.0876   -9.5424   -0.3291 H   0  0  0  0  0  0  0  0  0  0  0  0
   -0.4447   -8.3646   -1.5440 H   0  0  0  0  0  0  0  0  0  0  0  0
    0.9573   -7.8492    2.2994 H   0  0  0  0  0  0  0  0  0  0  0  0
    1.8369   -8.8976    1.2231 H   0  0  0  0  0  0  0  0  0  0  0  0
    2.3557   -9.3075   -0.8869 H   0  0  0  0  0  0  0  0  0  0  0  0
    1.3994   -9.6250   -2.3362 H   0  0  0  0  0  0  0  0  0  0  0  0
    1.9747   -7.9807   -2.0000 H   0  0  0  0  0  0  0  0  0  0  0  0
    2.3876   -5.8688    1.4246 H   0  0  0  0  0  0  0  0  0  0  0  0
    3.3475   -7.1607    2.0856 H   0  0  0  0  0  0  0  0  0  0  0  0
    3.1651   -6.9675    0.3197 H   0  0  0  0  0  0  0  0  0  0  0  0
  1  2  2  0  0  0  0
  1  6  1  0  0  0  0
  1 39  1  0  0  0  0
  2  3  1  0  0  0  0
  2 25  1  0  0  0  0
  3  4  2  0  0  0  0
  3 26  1  0  0  0  0
  4  5  1  0  0  0  0
  4 40  1  0  0  0  0
  5  6  2  0  0  0  0
  5 30  1  0  0  0  0
  6  7  1  0  0  0  0
  7  8  2  0  0  0  0
  7  9  1  0  0  0  0
  8 17  1  0  0  0  0
  8 18  1  0  0  0  0
  9 10  2  0  0  0  0
  9 11  1  0  0  0  0
 10 14  1  0  0  0  0
 10 41  1  0  0  0  0
 11 12  2  0  0  0  0
 11 42  1  0  0  0  0
 12 13  1  0  0  0  0
 12 43  1  0  0  0  0
 13 14  2  0  0  0  0
 13 34  1  0  0  0  0
 14 44  1  0  0  0  0
 15 16  1  0  0  0  0
 15 19  1  0  0  0  0
 15 20  2  0  0  0  0
 16 17  2  0  0  0  0
 16 45  1  0  0  0  0
 17 46  1  0  0  0  0
 18 19  2  0  0  0  0
 18 47  1  0  0  0  0
 19 48  1  0  0  0  0
 20 21  1  0  0  0  0
 20 23  1  0  0  0  0
 21 22  1  0  0  0  0
 21 49  1  0  0  0  0
 21 50  1  0  0  0  0
 22 51  1  0  0  0  0
 22 52  1  0  0  0  0
 22 53  1  0  0  0  0
 23 24  1  0  0  0  0
 23 54  1  0  0  0  0
 23 55  1  0  0  0  0
 24 56  1  0  0  0  0
 24 57  1  0  0  0  0
 24 58  1  0  0  0  0
 25 59  1  0  0  0  0
 26 27  2  0  0  0  0
 26 28  2  0  0  0  0
 26 29  1  0  0  0  0
 29 60  1  0  0  0  0
 30 31  1  0  0  0  0
 30 32  2  0  0  0  0
 30 33  2  0  0  0  0
 31 61  1  0  0  0  0
 34 35  1  0  0  0  0
 34 36  1  0  0  0  0
 35 37  1  0  0  0  0
 35 62  1  0  0  0  0
 35 63  1  0  0  0  0
 36 38  1  0  0  0  0
 36 64  1  0  0  0  0
 36 65  1  0  0  0  0
 37 66  1  0  0  0  0
 37 67  1  0  0  0  0
 37 68  1  0  0  0  0
 38 69  1  0  0  0  0
 38 70  1  0  0  0  0
 38 71  1  0  0  0  0
M  CHG  1  20   1
M  END
>  <DRUGBANK_ID>
DB13967

>  <COMMON_NAME>
Patent Blue

>  <CAS_NUMBER>
25305-77-5

>  <UNII>
D4RJJ6R97N

>  <SYNONYMS>
patent blue violet

$$$$
