
 OpenBabel10282417183D

 63 66  0  0  0  0  0  0  0  0999 V2000
    2.4993    1.5784   -0.8500 C   0  0  0  0  0  0  0  0  0  0  0  0
    3.0452    1.6320    0.5688 C   0  0  0  0  0  0  0  0  0  0  0  0
    2.9481   -0.9326    0.6361 C   0  0  0  0  0  0  0  0  0  0  0  0
    1.4292   -2.1926   -0.9042 C   0  0  0  0  0  0  0  0  0  0  0  0
    1.5520    0.3758   -1.1101 C   0  0  2  0  0  0  0  0  0  0  0  0
   -0.4918    1.8154   -0.4142 C   0  0  0  0  0  0  0  0  0  0  0  0
   -2.9313   -1.7412    0.4442 C   0  0  0  0  0  0  0  0  0  0  0  0
   -4.1820   -1.0530    0.9843 C   0  0  0  0  0  0  0  0  0  0  0  0
    1.2137    0.3941   -2.6234 C   0  0  0  0  0  0  0  0  0  0  0  0
    0.2541    0.4689   -0.2430 C   0  0  1  0  0  0  0  0  0  0  0  0
    0.5493    0.4536    0.8153 H   0  0  0  0  0  0  0  0  0  0  0  0
   -0.6469   -0.7978   -0.4235 C   0  0  2  0  0  0  0  0  0  0  0  0
   -0.9352   -0.9505   -1.4683 H   0  0  0  0  0  0  0  0  0  0  0  0
   -1.9007   -0.6271    0.4294 C   0  0  1  0  0  0  0  0  0  0  0  0
   -2.6969    0.6002   -0.0582 C   0  0  1  0  0  0  0  0  0  0  0  0
   -2.8701    0.6547   -1.5862 C   0  0  0  0  0  0  0  0  0  0  0  0
   -1.5866   -0.4829    1.4750 H   0  0  0  0  0  0  0  0  0  0  0  0
   -3.8581    0.8984    1.7340 H   0  0  0  0  0  0  0  0  0  0  0  0
    3.7300    0.3312    0.8988 C   0  0  0  0  0  0  0  0  0  0  0  0
    4.8194    0.3041    1.4681 O   0  0  0  0  0  0  0  0  0  0  0  0
    0.1749   -2.0227   -0.0800 C   0  0  0  0  0  0  0  0  0  0  0  0
   -0.1565   -2.8459    0.7660 O   0  0  0  0  0  0  0  0  0  0  0  0
    2.3169   -0.9466   -0.7684 C   0  0  1  0  0  0  0  0  0  0  0  0
    3.1407   -1.0478   -1.4884 H   0  0  0  0  0  0  0  0  0  0  0  0
   -6.0636   -0.7143   -1.4831 C   0  0  0  0  0  0  0  0  0  0  0  0
   -5.7914    0.7750   -1.2553 C   0  0  0  0  0  0  0  0  0  0  0  0
   -7.2449   -1.3024   -0.7242 C   0  0  0  0  0  0  0  0  0  0  0  0
   -7.3114   -1.5106    0.4869 O   0  0  0  0  0  0  0  0  0  0  0  0
   -8.2690   -1.6610   -1.5115 O   0  0  0  0  0  0  0  0  0  0  0  0
   -4.0224    0.4686    0.7311 C   0  0  1  0  0  0  0  0  0  0  0  0
   -1.8195    1.7844    0.3155 C   0  0  0  0  0  0  0  0  0  0  0  0
   -2.1374    2.6531    1.1199 O   0  0  0  0  0  0  0  0  0  0  0  0
   -5.2535    1.2241    0.1396 C   0  0  2  0  0  0  0  0  0  0  0  0
   -6.4119    1.1975    1.1382 C   0  0  0  0  0  0  0  0  0  0  0  0
    1.9999    2.5265   -1.0799 H   0  0  0  0  0  0  0  0  0  0  0  0
    3.3475    1.5160   -1.5443 H   0  0  0  0  0  0  0  0  0  0  0  0
    2.2579    1.8130    1.3072 H   0  0  0  0  0  0  0  0  0  0  0  0
    3.7715    2.4469    0.6503 H   0  0  0  0  0  0  0  0  0  0  0  0
    3.6303   -1.7853    0.7291 H   0  0  0  0  0  0  0  0  0  0  0  0
    2.1971   -1.0251    1.4281 H   0  0  0  0  0  0  0  0  0  0  0  0
    1.1311   -2.3620   -1.9444 H   0  0  0  0  0  0  0  0  0  0  0  0
    1.9557   -3.0912   -0.5688 H   0  0  0  0  0  0  0  0  0  0  0  0
    0.0904    2.6513   -0.0190 H   0  0  0  0  0  0  0  0  0  0  0  0
   -0.6881    2.0534   -1.4630 H   0  0  0  0  0  0  0  0  0  0  0  0
   -3.0986   -2.1497   -0.5598 H   0  0  0  0  0  0  0  0  0  0  0  0
   -2.6571   -2.5741    1.0967 H   0  0  0  0  0  0  0  0  0  0  0  0
   -5.0431   -1.5165    0.5365 H   0  0  0  0  0  0  0  0  0  0  0  0
   -4.3297   -1.2564    2.0501 H   0  0  0  0  0  0  0  0  0  0  0  0
    0.5651   -0.4318   -2.9259 H   0  0  0  0  0  0  0  0  0  0  0  0
    0.7156    1.3222   -2.9195 H   0  0  0  0  0  0  0  0  0  0  0  0
    2.1265    0.3173   -3.2244 H   0  0  0  0  0  0  0  0  0  0  0  0
   -3.4396   -0.1966   -1.9578 H   0  0  0  0  0  0  0  0  0  0  0  0
   -3.3090    1.6174   -1.8654 H   0  0  0  0  0  0  0  0  0  0  0  0
   -1.9547    0.6336   -2.1787 H   0  0  0  0  0  0  0  0  0  0  0  0
   -6.2193   -0.8683   -2.5553 H   0  0  0  0  0  0  0  0  0  0  0  0
   -5.1728   -1.3244   -1.3253 H   0  0  0  0  0  0  0  0  0  0  0  0
   -6.6740    1.3692   -1.5155 H   0  0  0  0  0  0  0  0  0  0  0  0
   -5.1091    1.0836   -2.0474 H   0  0  0  0  0  0  0  0  0  0  0  0
   -8.0346   -1.6711   -2.4541 H   0  0  0  0  0  0  0  0  0  0  0  0
   -4.9602    2.2843    0.0487 H   0  0  0  0  0  0  0  0  0  0  0  0
   -6.2137    1.7591    2.0532 H   0  0  0  0  0  0  0  0  0  0  0  0
   -7.3336    1.5757    0.6825 H   0  0  0  0  0  0  0  0  0  0  0  0
   -6.5759    0.1847    1.4804 H   0  0  0  0  0  0  0  0  0  0  0  0
  1 35  1  0  0  0  0
  1 36  1  0  0  0  0
  2  1  1  0  0  0  0
  2 37  1  0  0  0  0
  2 38  1  0  0  0  0
  3 39  1  0  0  0  0
  3 40  1  0  0  0  0
  4 21  1  0  0  0  0
  4 41  1  0  0  0  0
  4 42  1  0  0  0  0
  5 10  1  0  0  0  0
  5  9  1  6  0  0  0
  5  1  1  0  0  0  0
  6 31  1  0  0  0  0
  6 43  1  0  0  0  0
  6 44  1  0  0  0  0
  7 45  1  0  0  0  0
  7 46  1  0  0  0  0
  8  7  1  0  0  0  0
  8 47  1  0  0  0  0
  8 48  1  0  0  0  0
  9 49  1  0  0  0  0
  9 50  1  0  0  0  0
  9 51  1  0  0  0  0
 10  6  1  0  0  0  0
 10 12  1  0  0  0  0
 10 11  1  1  0  0  0
 12 14  1  0  0  0  0
 12 21  1  0  0  0  0
 12 13  1  6  0  0  0
 14 15  1  0  0  0  0
 14  7  1  0  0  0  0
 14 17  1  1  0  0  0
 15 30  1  0  0  0  0
 15 31  1  0  0  0  0
 15 16  1  6  0  0  0
 16 52  1  0  0  0  0
 16 53  1  0  0  0  0
 16 54  1  0  0  0  0
 19  3  1  0  0  0  0
 19  2  1  0  0  0  0
 19 20  2  0  0  0  0
 21 22  2  0  0  0  0
 23  5  1  0  0  0  0
 23  3  1  0  0  0  0
 23  4  1  0  0  0  0
 23 24  1  6  0  0  0
 25 26  1  0  0  0  0
 25 27  1  0  0  0  0
 25 55  1  0  0  0  0
 25 56  1  0  0  0  0
 26 57  1  0  0  0  0
 26 58  1  0  0  0  0
 27 29  1  0  0  0  0
 27 28  2  0  0  0  0
 29 59  1  0  0  0  0
 30  8  1  0  0  0  0
 30 18  1  1  0  0  0
 30 33  1  0  0  0  0
 31 32  2  0  0  0  0
 33 26  1  0  0  0  0
 33 34  1  0  0  0  0
 33 60  1  6  0  0  0
 34 61  1  0  0  0  0
 34 62  1  0  0  0  0
 34 63  1  0  0  0  0
M  END
>  <DRUGBANK_ID>
DB11622

>  <COMMON_NAME>
Dehydrocholic acid

>  <CAS_NUMBER>
81-23-2

>  <UNII>
NH5000009I

>  <SYNONYMS>
3,7,12-Triketo-5beta-cholanoic acid; 3,7,12-triketocholanic acid; 3,7,12-trioxo-5beta-cholanic acid; 3,7,12-trioxo-5Î²-cholanic acid; 3,7,12-trioxocholanic acid; Decholin; Dehydrocholate; Dehydrocholic acid

$$$$
