
 OpenBabel10282417243D

 65 66  0  0  1  0  0  0  0  0999 V2000
    8.5565   -7.9591    0.0394 H   0  0  0  0  0  0  0  0  0  0  0  0
    7.7217   -7.2591    0.2128 C   0  0  2  0  0  0  0  0  0  0  0  0
    7.1662   -7.1017   -1.1793 O   0  0  0  0  0  0  0  0  0  0  0  0
    6.2707   -6.0284   -1.6852 C   0  0  1  0  0  0  0  0  0  0  0  0
    4.7812   -6.4418   -1.5276 C   0  0  0  0  0  0  0  0  0  0  0  0
    3.9244   -5.7993   -0.9879 O   0  0  0  0  0  0  0  0  0  0  0  0
    6.8489   -4.6772   -1.2870 C   0  0  1  0  0  0  0  0  0  0  0  0
    8.1022   -4.2876   -1.8848 O   0  0  0  0  0  0  0  0  0  0  0  0
    9.1626   -5.2670   -1.7844 C   0  0  1  0  0  0  0  0  0  0  0  0
    9.1953   -5.8173   -0.8849 H   0  0  0  0  0  0  0  0  0  0  0  0
    8.9597   -6.3073   -2.7000 O   0  0  0  0  0  0  0  0  0  0  0  0
    8.6862   -5.7424   -3.9671 C   0  0  2  0  0  0  0  0  0  0  0  0
    8.1092   -6.9128   -4.7486 C   0  0  0  0  0  0  0  0  0  0  0  0
    6.9126   -7.4345   -4.1346 O   0  0  0  0  0  0  0  0  0  0  0  0
   10.0350   -5.1301   -4.3557 C   0  0  2  0  0  0  0  0  0  0  0  0
   11.0290   -6.1750   -4.2976 O   0  0  0  0  0  0  0  0  0  0  0  0
   10.4790   -4.0214   -3.3357 C   0  0  2  0  0  0  0  0  0  0  0  0
   11.7590   -3.5003   -3.6727 O   0  0  0  0  0  0  0  0  0  0  0  0
   10.5191   -4.5967   -1.9202 C   0  0  1  0  0  0  0  0  0  0  0  0
   10.7256   -3.6372   -0.8775 O   0  0  0  0  0  0  0  0  0  0  0  0
    5.9290   -3.4365   -1.0104 C   0  0  1  0  0  0  0  0  0  0  0  0
    4.7262   -3.6474   -0.2662 O   0  0  0  0  0  0  0  0  0  0  0  0
    6.5396   -2.2481   -0.1787 C   0  0  2  0  0  0  0  0  0  0  0  0
    6.0367   -0.9942   -0.6830 O   0  0  0  0  0  0  0  0  0  0  0  0
    8.0504   -2.1350   -0.1574 C   0  0  0  0  0  0  0  0  0  0  0  0
    8.5088   -1.0242    0.5993 O   0  0  0  0  0  0  0  0  0  0  0  0
    6.7661   -7.9446    1.0501 O   0  0  0  0  0  0  0  0  0  0  0  0
    5.6770   -7.0580    1.2521 C   0  0  1  0  0  0  0  0  0  0  0  0
    4.3566   -7.7417    1.4776 C   0  0  0  0  0  0  0  0  0  0  0  0
    5.9299   -5.7690    2.0525 C   0  0  1  0  0  0  0  0  0  0  0  0
    6.0132   -6.0562    3.4215 O   0  0  0  0  0  0  0  0  0  0  0  0
    7.2244   -5.0718    1.6622 C   0  0  1  0  0  0  0  0  0  0  0  0
    7.6729   -3.9470    2.3933 O   0  0  0  0  0  0  0  0  0  0  0  0
    8.3129   -6.0891    1.2273 C   0  0  2  0  0  0  0  0  0  0  0  0
    9.6060   -5.5231    0.9805 O   0  0  0  0  0  0  0  0  0  0  0  0
    6.2939   -5.9793   -2.7687 H   0  0  0  0  0  0  0  0  0  0  0  0
    4.5657   -7.4874   -1.8375 H   0  0  0  0  0  0  0  0  0  0  0  0
    7.3122   -5.0258   -0.4352 H   0  0  0  0  0  0  0  0  0  0  0  0
    7.9035   -4.9747   -3.9082 H   0  0  0  0  0  0  0  0  0  0  0  0
    7.8335   -6.5788   -5.7439 H   0  0  0  0  0  0  0  0  0  0  0  0
    8.8024   -7.7509   -4.7608 H   0  0  0  0  0  0  0  0  0  0  0  0
    7.1794   -7.7510   -3.2428 H   0  0  0  0  0  0  0  0  0  0  0  0
    9.9951   -4.7277   -5.3646 H   0  0  0  0  0  0  0  0  0  0  0  0
   10.8707   -6.6779   -3.4693 H   0  0  0  0  0  0  0  0  0  0  0  0
    9.7788   -3.1775   -3.3501 H   0  0  0  0  0  0  0  0  0  0  0  0
   12.3841   -4.2470   -3.6128 H   0  0  0  0  0  0  0  0  0  0  0  0
   11.3341   -5.3233   -1.8004 H   0  0  0  0  0  0  0  0  0  0  0  0
   10.3001   -2.7968   -1.1172 H   0  0  0  0  0  0  0  0  0  0  0  0
    5.6211   -3.0789   -1.9949 H   0  0  0  0  0  0  0  0  0  0  0  0
    4.2251   -4.4472   -0.5071 H   0  0  0  0  0  0  0  0  0  0  0  0
    6.1742   -2.2860    0.8618 H   0  0  0  0  0  0  0  0  0  0  0  0
    5.6868   -1.1577   -1.5730 H   0  0  0  0  0  0  0  0  0  0  0  0
    8.5131   -3.0136    0.2783 H   0  0  0  0  0  0  0  0  0  0  0  0
    8.4066   -1.9897   -1.1746 H   0  0  0  0  0  0  0  0  0  0  0  0
    7.9666   -0.2697    0.3032 H   0  0  0  0  0  0  0  0  0  0  0  0
    5.5427   -6.6921    0.2858 H   0  0  0  0  0  0  0  0  0  0  0  0
    3.5508   -7.0110    1.3371 H   0  0  0  0  0  0  0  0  0  0  0  0
    4.2033   -8.5367    0.7360 H   0  0  0  0  0  0  0  0  0  0  0  0
    4.3002   -8.1622    2.4753 H   0  0  0  0  0  0  0  0  0  0  0  0
    5.0951   -5.0819    1.8439 H   0  0  0  0  0  0  0  0  0  0  0  0
    6.7687   -6.6609    3.4970 H   0  0  0  0  0  0  0  0  0  0  0  0
    6.8245   -4.4646    0.8979 H   0  0  0  0  0  0  0  0  0  0  0  0
    8.2068   -4.2018    3.1508 H   0  0  0  0  0  0  0  0  0  0  0  0
    8.5454   -6.6476    2.1367 H   0  0  0  0  0  0  0  0  0  0  0  0
    9.5733   -4.6134    0.6203 H   0  0  0  0  0  0  0  0  0  0  0  0
  2  1  1  6  0  0  0
  2  3  1  0  0  0  0
  2 27  1  0  0  0  0
  4  3  1  0  0  0  0
  4  5  1  0  0  0  0
  4 36  1  6  0  0  0
  5  6  2  0  0  0  0
  5 37  1  0  0  0  0
  7  4  1  0  0  0  0
  7  8  1  0  0  0  0
  7 21  1  0  0  0  0
  7 38  1  1  0  0  0
  9  8  1  0  0  0  0
  9 10  1  1  0  0  0
  9 11  1  0  0  0  0
 12 11  1  0  0  0  0
 12 13  1  0  0  0  0
 12 39  1  1  0  0  0
 13 14  1  0  0  0  0
 13 40  1  0  0  0  0
 13 41  1  0  0  0  0
 14 42  1  0  0  0  0
 15 12  1  0  0  0  0
 15 16  1  0  0  0  0
 15 17  1  0  0  0  0
 15 43  1  6  0  0  0
 16 44  1  0  0  0  0
 17 18  1  0  0  0  0
 17 19  1  0  0  0  0
 17 45  1  6  0  0  0
 18 46  1  0  0  0  0
 19  9  1  0  0  0  0
 19 20  1  0  0  0  0
 19 47  1  1  0  0  0
 20 48  1  0  0  0  0
 21 22  1  0  0  0  0
 21 49  1  6  0  0  0
 22 50  1  0  0  0  0
 23 25  1  0  0  0  0
 23 51  1  1  0  0  0
 23 24  1  0  0  0  0
 23 21  1  0  0  0  0
 24 52  1  0  0  0  0
 25 26  1  0  0  0  0
 25 53  1  0  0  0  0
 25 54  1  0  0  0  0
 26 55  1  0  0  0  0
 28 27  1  0  0  0  0
 28 29  1  0  0  0  0
 28 56  1  6  0  0  0
 29 57  1  0  0  0  0
 29 58  1  0  0  0  0
 29 59  1  0  0  0  0
 30 28  1  0  0  0  0
 30 31  1  0  0  0  0
 30 32  1  0  0  0  0
 30 60  1  6  0  0  0
 31 61  1  0  0  0  0
 32 33  1  0  0  0  0
 32 34  1  0  0  0  0
 32 62  1  6  0  0  0
 33 63  1  0  0  0  0
 34  2  1  0  0  0  0
 34 35  1  0  0  0  0
 34 64  1  1  0  0  0
 35 65  1  0  0  0  0
M  END
>  <DRUGBANK_ID>
DB17690

>  <COMMON_NAME>
Trisaccharide B

>  <CAS_NUMBER>
49777-14-2

>  <UNII>
2P888H42QS

>  <SYNONYMS>
.alpha.-d-gal-(1->3)-(.alpha.-l-fuc-(1->2))-d-gal; 3-o-(.alpha.-d-galactopyranosyl)-2-o-(.alpha.-l-fucopyranosyl)-d-galactose; B trisaccharide; B-trisaccharide; Blood group b trisaccharide

$$$$
