
 OpenBabel10282417133D

 72 76  0  0  0  0  0  0  0  0999 V2000
    1.7439    7.1389    3.4016 P   0  0  2  0  0  0  0  0  0  0  0  0
    2.6405    5.0445    1.6394 P   0  0  2  0  0  0  0  0  0  0  0  0
    3.5130    2.2592    1.0169 P   0  0  2  0  0  0  0  0  0  0  0  0
    2.2902    2.4833   -1.5725 P   0  0  1  0  0  0  0  0  0  0  0  0
   -1.1650    6.8781    1.9023 O   0  0  0  0  0  0  0  0  0  0  0  0
   -3.7562    5.7884    3.8472 O   0  0  0  0  0  0  0  0  0  0  0  0
   -3.7434    8.0687    2.5967 O   0  0  0  0  0  0  0  0  0  0  0  0
    1.2479    8.4674    2.6505 O   0  0  0  0  0  0  0  0  0  0  0  0
    2.8768    6.1674    2.8078 O   0  0  0  0  0  0  0  0  0  0  0  0
    0.6629    6.3447    2.6404 O   0  0  0  0  0  0  0  0  0  0  0  0
    1.4006    7.2884    4.8503 O   0  0  0  0  0  0  0  0  0  0  0  0
    3.3569    3.6242    1.9864 O   0  0  0  0  0  0  0  0  0  0  0  0
    3.7300    5.6068    0.6116 O   0  0  0  0  0  0  0  0  0  0  0  0
    1.3042    5.0195    0.9243 O   0  0  0  0  0  0  0  0  0  0  0  0
    1.0233    1.4751   -0.9630 O   0  0  0  0  0  0  0  0  0  0  0  0
    2.4779    3.1941   -0.0065 O   0  0  0  0  0  0  0  0  0  0  0  0
    2.1680    1.3960    1.3623 O   0  0  0  0  0  0  0  0  0  0  0  0
    4.4394    1.4224    1.9328 O   0  0  0  0  0  0  0  0  0  0  0  0
    3.2794    1.1836   -1.3055 O   0  0  0  0  0  0  0  0  0  0  0  0
    3.4240    3.3856   -2.1180 O   0  0  0  0  0  0  0  0  0  0  0  0
    3.1614    3.2176   -4.9682 O   0  0  0  0  0  0  0  0  0  0  0  0
   -0.5819    4.5965    3.4339 N   0  0  0  0  0  0  0  0  0  0  0  0
    0.2675    2.5311    2.9749 N   0  0  0  0  0  0  0  0  0  0  0  0
    1.3319    5.0426    5.2307 N   0  0  0  0  0  0  0  0  0  0  0  0
    3.2363    3.5977    4.8261 N   0  0  0  0  0  0  0  0  0  0  0  0
    2.9103    1.5582    3.7896 N   0  0  0  0  0  0  0  0  0  0  0  0
    0.2956   -0.5484   -5.3183 N   0  0  0  0  0  0  0  0  0  0  0  0
    1.6973    1.1961   -3.6567 N   0  0  0  0  0  0  0  0  0  0  0  0
    1.1075    0.6934   -7.2137 N   0  0  0  0  0  0  0  0  0  0  0  0
    2.5354    2.5466   -7.0559 N   0  0  0  0  0  0  0  0  0  0  0  0
    1.8201    1.7961   -9.0887 N   0  0  0  0  0  0  0  0  0  0  0  0
   -2.4673    6.4287    3.8833 C   0  0  2  0  0  0  0  0  0  0  0  0
   -2.5604    7.9133    3.4283 C   0  0  1  0  0  0  0  0  0  0  0  0
   -1.5546    5.7519    2.8946 C   0  0  1  0  0  0  0  0  0  0  0  0
   -1.3365    8.1885    2.5431 C   0  0  1  0  0  0  0  0  0  0  0  0
   -0.0629    8.8733    3.1885 C   0  0  0  0  0  0  0  0  0  0  0  0
    0.5939    4.3614    4.2996 C   0  0  0  0  0  0  0  0  0  0  0  0
   -0.6910    3.3839    2.7470 C   0  0  0  0  0  0  0  0  0  0  0  0
    1.0919    3.1434    3.8661 C   0  0  0  0  0  0  0  0  0  0  0  0
    2.3871    2.7451    4.2638 C   0  0  0  0  0  0  0  0  0  0  0  0
    2.6578    4.6652    5.3467 C   0  0  0  0  0  0  0  0  0  0  0  0
    0.1424   -0.7390   -3.8899 C   0  0  0  0  0  0  0  0  0  0  0  0
    0.9252    0.2952   -3.1209 C   0  0  0  0  0  0  0  0  0  0  0  0
    1.0392    0.4782   -5.8658 C   0  0  0  0  0  0  0  0  0  0  0  0
    1.7246    1.3051   -5.0380 C   0  0  0  0  0  0  0  0  0  0  0  0
    0.8300    0.2198   -1.6010 C   0  0  0  0  0  0  0  0  0  0  0  0
    2.5250    2.4205   -5.6953 C   0  0  0  0  0  0  0  0  0  0  0  0
    1.8380    1.6982   -7.7478 C   0  0  0  0  0  0  0  0  0  0  0  0
    3.8546    1.7721    3.4327 H   0  0  0  0  0  0  0  0  0  0  0  0
    2.3346    1.3311    2.9608 H   0  0  0  0  0  0  0  0  0  0  0  0
   -0.2469   -1.1360   -5.9363 H   0  0  0  0  0  0  0  0  0  0  0  0
    0.5832    0.0719   -7.8073 H   0  0  0  0  0  0  0  0  0  0  0  0
    1.3054    1.1923   -9.7082 H   0  0  0  0  0  0  0  0  0  0  0  0
    2.3664    2.5449   -9.5018 H   0  0  0  0  0  0  0  0  0  0  0  0
   -4.2216    6.0996    3.0437 H   0  0  0  0  0  0  0  0  0  0  0  0
   -3.5487    7.6954    1.7160 H   0  0  0  0  0  0  0  0  0  0  0  0
    0.5906    6.4780    1.6556 H   0  0  0  0  0  0  0  0  0  0  0  0
    3.9591    4.8763    0.0130 H   0  0  0  0  0  0  0  0  0  0  0  0
    1.7244    1.1180    0.5377 H   0  0  0  0  0  0  0  0  0  0  0  0
    3.3190    0.6216   -2.1062 H   0  0  0  0  0  0  0  0  0  0  0  0
   -2.0430    6.3320    4.8782 H   0  0  0  0  0  0  0  0  0  0  0  0
   -2.6777    8.5978    4.2725 H   0  0  0  0  0  0  0  0  0  0  0  0
   -2.1465    5.1633    2.1755 H   0  0  0  0  0  0  0  0  0  0  0  0
   -1.6168    8.9061    1.7560 H   0  0  0  0  0  0  0  0  0  0  0  0
   -0.1208    8.8094    4.2864 H   0  0  0  0  0  0  0  0  0  0  0  0
   -0.0899    9.9538    3.0119 H   0  0  0  0  0  0  0  0  0  0  0  0
   -1.4680    3.2025    2.0233 H   0  0  0  0  0  0  0  0  0  0  0  0
    3.3839    5.3135    5.8542 H   0  0  0  0  0  0  0  0  0  0  0  0
   -0.9033   -0.6319   -3.5917 H   0  0  0  0  0  0  0  0  0  0  0  0
    0.5160   -1.7230   -3.5892 H   0  0  0  0  0  0  0  0  0  0  0  0
    1.5704   -0.4981   -1.2238 H   0  0  0  0  0  0  0  0  0  0  0  0
   -0.1467   -0.1699   -1.3020 H   0  0  0  0  0  0  0  0  0  0  0  0
  1  8  1  0  0  0  0
  1  9  1  0  0  0  0
  1 10  1  0  0  0  0
  1 11  2  1  0  0  0
  2 13  1  0  0  0  0
  2 14  2  6  0  0  0
  2 12  1  0  0  0  0
  2  9  1  0  0  0  0
  3 17  1  0  0  0  0
  3 18  2  6  0  0  0
  3 16  1  0  0  0  0
  3 12  1  0  0  0  0
  4 19  1  0  0  0  0
  4 20  2  6  0  0  0
  4 16  1  0  0  0  0
  4 15  1  0  0  0  0
  5 34  1  0  0  0  0
  5 35  1  0  0  0  0
  6 55  1  0  0  0  0
  7 56  1  0  0  0  0
  8 36  1  0  0  0  0
 10 57  1  0  0  0  0
 13 58  1  0  0  0  0
 15 46  1  0  0  0  0
 17 59  1  0  0  0  0
 19 60  1  0  0  0  0
 21 47  2  0  0  0  0
 22 37  1  0  0  0  0
 22 38  1  0  0  0  0
 23 38  2  0  0  0  0
 23 39  1  0  0  0  0
 24 37  2  0  0  0  0
 24 41  1  0  0  0  0
 25 40  1  0  0  0  0
 25 41  2  0  0  0  0
 26 40  1  0  0  0  0
 26 49  1  0  0  0  0
 26 50  1  0  0  0  0
 27 42  1  0  0  0  0
 27 44  1  0  0  0  0
 27 51  1  0  0  0  0
 28 43  2  0  0  0  0
 28 45  1  0  0  0  0
 29 44  1  0  0  0  0
 29 48  1  0  0  0  0
 29 52  1  0  0  0  0
 30 47  1  0  0  0  0
 30 48  2  0  0  0  0
 31 48  1  0  0  0  0
 31 53  1  0  0  0  0
 31 54  1  0  0  0  0
 32  6  1  0  0  0  0
 32 33  1  0  0  0  0
 32 34  1  0  0  0  0
 32 61  1  1  0  0  0
 33  7  1  0  0  0  0
 33 35  1  0  0  0  0
 33 62  1  1  0  0  0
 34 63  1  6  0  0  0
 34 22  1  0  0  0  0
 35 36  1  0  0  0  0
 35 64  1  6  0  0  0
 36 65  1  0  0  0  0
 36 66  1  0  0  0  0
 37 39  1  0  0  0  0
 38 67  1  0  0  0  0
 39 40  2  0  0  0  0
 41 68  1  0  0  0  0
 42 43  1  0  0  0  0
 42 69  1  0  0  0  0
 42 70  1  0  0  0  0
 43 46  1  0  0  0  0
 44 45  2  0  0  0  0
 45 47  1  0  0  0  0
 46 71  1  0  0  0  0
 46 72  1  0  0  0  0
M  END
>  <DRUGBANK_ID>
DB04158

>  <SECONDARY_ACCESSION_NUMBERS>
EXPT00373

>  <COMMON_NAME>
6-(adenosine tetraphosphate-methyl)-7,8-dihydropterin

$$$$
