
 OpenBabel10282417203D

 40 40  0  0  0  0  0  0  0  0999 V2000
   -1.8329    0.0587   -0.1246 C   0  0  0  0  0  0  0  0  0  0  0  0
   -1.2017   -1.1834   -0.0290 C   0  0  0  0  0  0  0  0  0  0  0  0
   -3.3451    0.1093   -0.1226 C   0  0  3  0  0  0  0  0  0  0  0  0
   -1.0379    1.2059   -0.1843 C   0  0  0  0  0  0  0  0  0  0  0  0
    0.1917   -1.3194    0.0127 C   0  0  0  0  0  0  0  0  0  0  0  0
   -3.9085    0.7981    1.1402 C   0  0  0  0  0  0  0  0  0  0  0  0
   -3.7932    0.7729   -1.2996 O   0  0  0  0  0  0  0  0  0  0  0  0
    0.3380    1.1179   -0.0548 C   0  0  0  0  0  0  0  0  0  0  0  0
    0.9515   -0.1333    0.0130 C   0  0  0  0  0  0  0  0  0  0  0  0
    0.7879   -2.6137    0.0548 N   0  0  0  0  0  0  0  0  0  0  0  0
   -3.4570    2.2021    1.2719 N   0  0  0  0  0  0  0  0  0  0  0  0
    2.3160   -0.0711    0.0591 O   0  0  0  0  0  0  0  0  0  0  0  0
    0.1033   -3.8056    0.0690 C   0  0  0  0  0  0  0  0  0  0  0  0
   -3.9451    2.9038    2.4628 C   0  0  0  0  0  0  0  0  0  0  0  0
    0.8804   -4.9120    0.0972 N   0  0  0  0  0  0  0  0  0  0  0  0
   -1.1103   -3.9947    0.0667 O   0  0  0  0  0  0  0  0  0  0  0  0
   -3.4375    2.2029    3.7317 C   0  0  0  0  0  0  0  0  0  0  0  0
   -3.3423    4.3217    2.4126 C   0  0  0  0  0  0  0  0  0  0  0  0
   -5.4688    2.9970    2.4271 C   0  0  0  0  0  0  0  0  0  0  0  0
   -1.8576   -2.0450   -0.0052 H   0  0  0  0  0  0  0  0  0  0  0  0
   -3.7638   -0.9056   -0.1498 H   0  0  0  0  0  0  0  0  0  0  0  0
   -1.4787    2.1918   -0.3078 H   0  0  0  0  0  0  0  0  0  0  0  0
   -4.9990    0.7641    1.0676 H   0  0  0  0  0  0  0  0  0  0  0  0
   -3.5942    0.2094    2.0079 H   0  0  0  0  0  0  0  0  0  0  0  0
   -3.5761    1.7107   -1.1544 H   0  0  0  0  0  0  0  0  0  0  0  0
    0.9237    2.0332   -0.0286 H   0  0  0  0  0  0  0  0  0  0  0  0
    1.7894   -2.6820    0.0728 H   0  0  0  0  0  0  0  0  0  0  0  0
   -2.4443    2.1730    1.3895 H   0  0  0  0  0  0  0  0  0  0  0  0
    2.6851   -0.9544   -0.0440 H   0  0  0  0  0  0  0  0  0  0  0  0
    0.3576   -5.7805    0.1036 H   0  0  0  0  0  0  0  0  0  0  0  0
    1.8839   -4.9497    0.0982 H   0  0  0  0  0  0  0  0  0  0  0  0
   -2.3411    2.1361    3.7323 H   0  0  0  0  0  0  0  0  0  0  0  0
   -3.7431    2.7452    4.6296 H   0  0  0  0  0  0  0  0  0  0  0  0
   -3.8277    1.1849    3.8257 H   0  0  0  0  0  0  0  0  0  0  0  0
   -3.6487    4.8624    1.5088 H   0  0  0  0  0  0  0  0  0  0  0  0
   -3.6644    4.9101    3.2785 H   0  0  0  0  0  0  0  0  0  0  0  0
   -2.2445    4.2982    2.4226 H   0  0  0  0  0  0  0  0  0  0  0  0
   -5.8069    3.4901    1.5071 H   0  0  0  0  0  0  0  0  0  0  0  0
   -5.9395    2.0100    2.4684 H   0  0  0  0  0  0  0  0  0  0  0  0
   -5.8450    3.5662    3.2803 H   0  0  0  0  0  0  0  0  0  0  0  0
  1  2  2  0  0  0  0
  1  3  1  0  0  0  0
  1  4  1  0  0  0  0
  2  5  1  0  0  0  0
  2 20  1  0  0  0  0
  3  6  1  0  0  0  0
  3  7  1  0  0  0  0
  3 21  1  0  0  0  0
  4  8  2  0  0  0  0
  4 22  1  0  0  0  0
  5  9  2  0  0  0  0
  5 10  1  0  0  0  0
  6 11  1  0  0  0  0
  6 23  1  0  0  0  0
  6 24  1  0  0  0  0
  7 25  1  0  0  0  0
  8  9  1  0  0  0  0
  8 26  1  0  0  0  0
  9 12  1  0  0  0  0
 10 13  1  0  0  0  0
 10 27  1  0  0  0  0
 11 14  1  0  0  0  0
 11 28  1  0  0  0  0
 12 29  1  0  0  0  0
 13 15  1  0  0  0  0
 13 16  2  0  0  0  0
 14 17  1  0  0  0  0
 14 18  1  0  0  0  0
 14 19  1  0  0  0  0
 15 30  1  0  0  0  0
 15 31  1  0  0  0  0
 17 32  1  0  0  0  0
 17 33  1  0  0  0  0
 17 34  1  0  0  0  0
 18 35  1  0  0  0  0
 18 36  1  0  0  0  0
 18 37  1  0  0  0  0
 19 38  1  0  0  0  0
 19 39  1  0  0  0  0
 19 40  1  0  0  0  0
M  END
>  <DRUGBANK_ID>
DB13625

>  <COMMON_NAME>
Carbuterol

>  <CAS_NUMBER>
34866-47-2

>  <UNII>
0N12JR32MR

>  <SYNONYMS>
Carbuterol; Carbuterolum

$$$$
