BRN
 OpenBabel10282417133D

 36 37  0  0  0  0  0  0  0  0999 V2000
    1.4087   -0.1398    0.0438 C   0  0  0  0  0  0  0  0  0  0  0  0
    0.5431   -1.2465    0.0355 C   0  0  0  0  0  0  0  0  0  0  0  0
   -0.8579   -1.0826   -0.0112 C   0  0  0  0  0  0  0  0  0  0  0  0
   -1.4302    0.1975   -0.0290 C   0  0  0  0  0  0  0  0  0  0  0  0
   -0.5787    1.2912    0.0101 C   0  0  0  0  0  0  0  0  0  0  0  0
    0.8011    1.1152   -0.0341 C   0  0  0  0  0  0  0  0  0  0  0  0
   -2.9059    0.4101   -0.1599 C   0  0  0  0  0  0  0  0  0  0  0  0
   -3.4625    1.5863   -0.2383 N   0  0  0  0  0  0  0  0  0  0  0  0
   -3.7714   -0.6263   -0.2258 N   0  0  0  0  0  0  0  0  0  0  0  0
    2.8067   -0.3365    0.1285 N   0  0  0  0  0  0  0  0  0  0  0  0
    3.8125    0.5984    0.1274 N   0  0  0  0  0  0  0  0  0  0  0  0
    3.3922    1.7213    0.4449 N   0  0  0  0  0  0  0  0  0  0  0  0
    4.2697    2.8033    0.2778 C   0  0  0  0  0  0  0  0  0  0  0  0
    5.4027    2.8001   -0.5355 C   0  0  0  0  0  0  0  0  0  0  0  0
    6.2228    3.9350   -0.6230 C   0  0  0  0  0  0  0  0  0  0  0  0
    5.9102    5.1119    0.0763 C   0  0  0  0  0  0  0  0  0  0  0  0
    4.7157    5.1516    0.8009 C   0  0  0  0  0  0  0  0  0  0  0  0
    3.9257    4.0012    0.9198 C   0  0  0  0  0  0  0  0  0  0  0  0
    6.8688    6.2686    0.0755 C   0  0  0  0  0  0  0  0  0  0  0  0
    6.6728    7.3709    0.7401 N   0  0  0  0  0  0  0  0  0  0  0  0
    8.0355    6.2259   -0.6137 N   0  0  0  0  0  0  0  0  0  0  0  0
    0.9384   -2.2610    0.0465 H   0  0  0  0  0  0  0  0  0  0  0  0
   -1.4772   -1.9729   -0.0289 H   0  0  0  0  0  0  0  0  0  0  0  0
   -0.9290    2.3147    0.0604 H   0  0  0  0  0  0  0  0  0  0  0  0
    1.3651    2.0309   -0.1377 H   0  0  0  0  0  0  0  0  0  0  0  0
   -2.7949    2.3513   -0.1876 H   0  0  0  0  0  0  0  0  0  0  0  0
   -3.4913   -1.5853   -0.3563 H   0  0  0  0  0  0  0  0  0  0  0  0
   -4.7263   -0.3808   -0.4598 H   0  0  0  0  0  0  0  0  0  0  0  0
    3.1100   -1.2998    0.2244 H   0  0  0  0  0  0  0  0  0  0  0  0
    5.6621    1.9131   -1.1071 H   0  0  0  0  0  0  0  0  0  0  0  0
    7.1051    3.8665   -1.2483 H   0  0  0  0  0  0  0  0  0  0  0  0
    4.3685    6.0537    1.2939 H   0  0  0  0  0  0  0  0  0  0  0  0
    3.0252    4.0383    1.5310 H   0  0  0  0  0  0  0  0  0  0  0  0
    5.7948    7.3794    1.2520 H   0  0  0  0  0  0  0  0  0  0  0  0
    8.4152    5.3938   -1.0371 H   0  0  0  0  0  0  0  0  0  0  0  0
    8.6805    6.9876   -0.4382 H   0  0  0  0  0  0  0  0  0  0  0  0
  1  2  2  0  0  0  0
  1  6  1  0  0  0  0
  1 10  1  0  0  0  0
  2  3  1  0  0  0  0
  2 22  1  0  0  0  0
  3  4  2  0  0  0  0
  3 23  1  0  0  0  0
  4  5  1  0  0  0  0
  4  7  1  0  0  0  0
  5  6  2  0  0  0  0
  5 24  1  0  0  0  0
  6 25  1  0  0  0  0
  7  8  2  0  0  0  0
  7  9  1  0  0  0  0
  8 26  1  0  0  0  0
  9 27  1  0  0  0  0
  9 28  1  0  0  0  0
 10 11  1  0  0  0  0
 10 29  1  0  0  0  0
 11 12  2  0  0  0  0
 12 13  1  0  0  0  0
 13 14  2  0  0  0  0
 13 18  1  0  0  0  0
 14 15  1  0  0  0  0
 14 30  1  0  0  0  0
 15 16  2  0  0  0  0
 15 31  1  0  0  0  0
 16 17  1  0  0  0  0
 16 19  1  0  0  0  0
 17 18  2  0  0  0  0
 17 32  1  0  0  0  0
 18 33  1  0  0  0  0
 19 20  2  0  0  0  0
 19 21  1  0  0  0  0
 20 34  1  0  0  0  0
 21 35  1  0  0  0  0
 21 36  1  0  0  0  0
M  END
>  <DRUGBANK_ID>
DB03608

>  <SECONDARY_ACCESSION_NUMBERS>
EXPT00754

>  <COMMON_NAME>
Diminazene

>  <CAS_NUMBER>
536-71-0

>  <UNII>
Y5G36EEA5Z

>  <SYNONYMS>
4,4'-(1-triazene-1,3-diyl)bis-benzenecarboximidamide; 4,4'-(diazoamino)benzamidine; Diminazene; Diminaz√®ne; Diminazeno; Diminazenum

$$$$
