
 OpenBabel10282417103D

 54 55  0  0  0  0  0  0  0  0999 V2000
   -4.2822    2.9097    3.2499 C   0  0  0  0  0  0  0  0  0  0  0  0
   -3.4622    3.4946    2.2786 C   0  0  0  0  0  0  0  0  0  0  0  0
   -2.9754    2.7490    1.2138 C   0  0  0  0  0  0  0  0  0  0  0  0
   -3.2885    1.4004    1.1366 C   0  0  0  0  0  0  0  0  0  0  0  0
   -4.0091    0.7992    2.2073 C   0  0  0  0  0  0  0  0  0  0  0  0
   -4.5878    1.5613    3.1993 C   0  0  0  0  0  0  0  0  0  0  0  0
   -2.9268    0.5724   -0.0935 C   0  0  2  0  0  0  0  0  0  0  0  0
   -1.3630    0.1918    0.1082 C   0  0  0  0  0  0  0  0  0  0  0  0
   -0.7512   -1.0979   -0.4144 C   0  0  0  0  0  0  0  0  0  0  0  0
   -0.6083   -3.5243   -0.2946 C   0  0  0  0  0  0  0  0  0  0  0  0
    0.0795   -3.5622   -1.5097 C   0  0  0  0  0  0  0  0  0  0  0  0
    0.4018   -2.3736   -2.1597 C   0  0  0  0  0  0  0  0  0  0  0  0
    0.0414   -1.1477   -1.5838 C   0  0  0  0  0  0  0  0  0  0  0  0
   -1.0499   -2.3053    0.2318 C   0  0  0  0  0  0  0  0  0  0  0  0
   -2.9652    1.3015   -1.5205 C   0  0  1  0  0  0  0  0  0  0  0  0
   -3.8863   -0.5536    0.0931 O   0  0  0  0  0  0  0  0  0  0  0  0
   -5.1939   -0.8132   -0.2380 C   0  0  0  0  0  0  0  0  0  0  0  0
   -6.1605    0.3390   -0.3626 C   0  0  0  0  0  0  0  0  0  0  0  0
   -6.8460    0.4318   -1.7444 C   0  0  0  0  0  0  0  0  0  0  0  0
   -2.5844    0.4163   -2.7651 C   0  0  0  0  0  0  0  0  0  0  0  0
   -3.3085   -0.8491   -3.0568 N   0  0  0  0  0  0  0  0  0  0  0  0
   -2.7765   -1.4745   -4.2727 C   0  0  0  0  0  0  0  0  0  0  0  0
   -3.1047   -1.9331   -2.1110 C   0  0  0  0  0  0  0  0  0  0  0  0
   -4.2771    1.9245   -1.8844 C   0  0  0  0  0  0  0  0  0  0  0  0
   -5.5874   -1.9528   -0.3359 O   0  0  0  0  0  0  0  0  0  0  0  0
   -4.6738    3.5069    4.0638 H   0  0  0  0  0  0  0  0  0  0  0  0
   -3.2230    4.5502    2.3316 H   0  0  0  0  0  0  0  0  0  0  0  0
   -2.3740    3.2264    0.4467 H   0  0  0  0  0  0  0  0  0  0  0  0
   -4.2043   -0.2750    2.2448 H   0  0  0  0  0  0  0  0  0  0  0  0
   -5.2720    1.0933    3.9022 H   0  0  0  0  0  0  0  0  0  0  0  0
   -0.7800    1.0124   -0.3430 H   0  0  0  0  0  0  0  0  0  0  0  0
   -1.0872    0.2474    1.1686 H   0  0  0  0  0  0  0  0  0  0  0  0
   -0.8744   -4.4505    0.2060 H   0  0  0  0  0  0  0  0  0  0  0  0
    0.3064   -4.5171   -1.9765 H   0  0  0  0  0  0  0  0  0  0  0  0
    0.8540   -2.3994   -3.1500 H   0  0  0  0  0  0  0  0  0  0  0  0
    0.2805   -0.2466   -2.1445 H   0  0  0  0  0  0  0  0  0  0  0  0
   -1.7348   -2.3085    1.0780 H   0  0  0  0  0  0  0  0  0  0  0  0
   -2.2709    2.1525   -1.4961 H   0  0  0  0  0  0  0  0  0  0  0  0
   -6.9187    0.2490    0.4167 H   0  0  0  0  0  0  0  0  0  0  0  0
   -5.6475    1.2483   -0.0703 H   0  0  0  0  0  0  0  0  0  0  0  0
   -7.5952   -0.3450   -1.8675 H   0  0  0  0  0  0  0  0  0  0  0  0
   -7.2900    1.4277   -1.8567 H   0  0  0  0  0  0  0  0  0  0  0  0
   -6.2189    0.2816   -2.6373 H   0  0  0  0  0  0  0  0  0  0  0  0
   -2.7536    1.0651   -3.6411 H   0  0  0  0  0  0  0  0  0  0  0  0
   -1.5109    0.2964   -2.7743 H   0  0  0  0  0  0  0  0  0  0  0  0
   -1.7000   -1.6684   -4.1655 H   0  0  0  0  0  0  0  0  0  0  0  0
   -3.2663   -2.4494   -4.4098 H   0  0  0  0  0  0  0  0  0  0  0  0
   -2.9510   -0.8732   -5.1578 H   0  0  0  0  0  0  0  0  0  0  0  0
   -2.1336   -2.3802   -2.2182 H   0  0  0  0  0  0  0  0  0  0  0  0
   -3.0715   -1.6153   -1.1180 H   0  0  0  0  0  0  0  0  0  0  0  0
   -3.8444   -2.7345   -2.1402 H   0  0  0  0  0  0  0  0  0  0  0  0
   -4.7182    2.5736   -1.1290 H   0  0  0  0  0  0  0  0  0  0  0  0
   -4.3720    2.4058   -2.8591 H   0  0  0  0  0  0  0  0  0  0  0  0
   -4.8072    1.0210   -2.0153 H   0  0  0  0  0  0  0  0  0  0  0  0
  1  2  2  0  0  0  0
  1  6  1  0  0  0  0
  1 26  1  0  0  0  0
  2  3  1  0  0  0  0
  2 27  1  0  0  0  0
  3  4  2  0  0  0  0
  3 28  1  0  0  0  0
  4  5  1  0  0  0  0
  5  6  2  0  0  0  0
  5 29  1  0  0  0  0
  6 30  1  0  0  0  0
  7 15  1  0  0  0  0
  7 16  1  6  0  0  0
  7  8  1  0  0  0  0
  7  4  1  0  0  0  0
  8  9  1  0  0  0  0
  8 31  1  0  0  0  0
  8 32  1  0  0  0  0
  9 14  1  0  0  0  0
 10 11  1  0  0  0  0
 10 14  2  0  0  0  0
 10 33  1  0  0  0  0
 11 12  2  0  0  0  0
 11 34  1  0  0  0  0
 12 13  1  0  0  0  0
 12 35  1  0  0  0  0
 13  9  2  0  0  0  0
 13 36  1  0  0  0  0
 14 37  1  0  0  0  0
 15 20  1  0  0  0  0
 15 24  1  0  0  0  0
 15 38  1  1  0  0  0
 16 17  1  0  0  0  0
 17 18  1  0  0  0  0
 17 25  2  0  0  0  0
 18 19  1  0  0  0  0
 18 39  1  0  0  0  0
 18 40  1  0  0  0  0
 19 41  1  0  0  0  0
 19 42  1  0  0  0  0
 19 43  1  0  0  0  0
 20 21  1  0  0  0  0
 20 44  1  0  0  0  0
 20 45  1  0  0  0  0
 21 22  1  0  0  0  0
 21 23  1  0  0  0  0
 22 46  1  0  0  0  0
 22 47  1  0  0  0  0
 22 48  1  0  0  0  0
 23 49  1  0  0  0  0
 23 50  1  0  0  0  0
 23 51  1  0  0  0  0
 24 52  1  0  0  0  0
 24 53  1  0  0  0  0
 24 54  1  0  0  0  0
M  END
>  <DRUGBANK_ID>
DB00647

>  <SECONDARY_ACCESSION_NUMBERS>
APRD00548

>  <COMMON_NAME>
Dextropropoxyphene

>  <CAS_NUMBER>
469-62-5

>  <UNII>
S2F83W92TK

>  <SYNONYMS>
d-Propoxyphene; Destropropossifene; Dextropropoxifeno; Dextropropoxyphen; Dextropropoxyph√®ne; Dextropropoxyphene; Dextropropoxyphenum; Dextroproxifeno; Propoxyphene

$$$$
