TRL
 OpenBabel10282417173D

 64 64  0  0  0  0  0  0  0  0999 V2000
    6.5413    6.8547    0.7776 O   0  0  0  0  0  0  0  0  0  0  0  0
    5.4941    6.6080    0.1855 C   0  0  0  0  0  0  0  0  0  0  0  0
    5.4359    5.4750   -0.7659 C   0  0  1  0  0  0  0  0  0  0  0  0
    4.3608    4.8627   -0.0073 C   0  0  0  0  0  0  0  0  0  0  0  0
    2.9049    5.0503    0.0647 C   0  0  0  0  0  0  0  0  0  0  0  0
    5.1642    5.4788   -2.2339 C   0  0  1  0  0  0  0  0  0  0  0  0
    4.2754    4.3963   -2.7337 N   0  0  0  0  0  0  0  0  0  0  0  0
    3.4560    4.9940   -3.7938 C   0  0  0  0  0  0  0  0  0  0  0  0
    3.8054    6.5102   -3.8518 C   0  0  0  0  0  0  0  0  0  0  0  0
    4.5437    6.8380   -2.5568 C   0  0  2  0  0  0  0  0  0  0  0  0
    5.5559    7.9852   -2.7569 N   0  0  0  0  0  0  0  0  0  0  0  0
    6.7681    8.4363   -1.5887 S   0  0  0  0  0  0  0  0  0  0  0  0
    7.5902    9.4706   -2.1117 O   0  0  0  0  0  0  0  0  0  0  0  0
    5.8920    8.8233   -0.4747 O   0  0  0  0  0  0  0  0  0  0  0  0
    7.8528    6.8848   -1.4786 C   0  0  0  0  0  0  0  0  0  0  0  0
    4.0674    3.0327   -2.2810 C   0  0  0  0  0  0  0  0  0  0  0  0
    3.1013    2.3901   -2.7110 O   0  0  0  0  0  0  0  0  0  0  0  0
    4.9738    2.3668   -0.9852 C   0  0  2  0  0  0  0  0  0  0  0  0
    6.0635    1.3966   -1.3895 C   0  0  0  0  0  0  0  0  0  0  0  0
    7.4044    2.1654   -1.2405 C   0  0  0  0  0  0  0  0  0  0  0  0
    5.9998    0.2055   -0.4582 C   0  0  0  0  0  0  0  0  0  0  0  0
    4.2373    2.0547    0.4035 N   0  0  0  0  0  0  0  0  0  0  0  0
    4.2231    2.5782    1.7366 C   0  0  0  0  0  0  0  0  0  0  0  0
    3.2999    2.2908    2.4742 O   0  0  0  0  0  0  0  0  0  0  0  0
    5.2127    3.4824    2.1069 O   0  0  0  0  0  0  0  0  0  0  0  0
    5.1278    4.5109    3.2241 C   0  0  0  0  0  0  0  0  0  0  0  0
    3.7651    5.2028    3.4564 C   0  0  0  0  0  0  0  0  0  0  0  0
    5.6475    3.6884    4.3603 C   0  0  0  0  0  0  0  0  0  0  0  0
    6.1193    5.7095    3.1017 C   0  0  0  0  0  0  0  0  0  0  0  0
    6.3740    4.9102   -0.6097 H   0  0  0  0  0  0  0  0  0  0  0  0
    6.0401    5.3413   -2.8779 H   0  0  0  0  0  0  0  0  0  0  0  0
    3.7897    7.1301   -1.8116 H   0  0  0  0  0  0  0  0  0  0  0  0
    5.6307    3.1604   -0.7012 H   0  0  0  0  0  0  0  0  0  0  0  0
    4.5493    7.1568    0.3765 H   0  0  0  0  0  0  0  0  0  0  0  0
    4.1785    3.9933   -0.5007 H   0  0  0  0  0  0  0  0  0  0  0  0
    4.9660    4.6018    0.8021 H   0  0  0  0  0  0  0  0  0  0  0  0
    2.5288    5.0748   -0.9579 H   0  0  0  0  0  0  0  0  0  0  0  0
    2.4765    4.1340    0.5022 H   0  0  0  0  0  0  0  0  0  0  0  0
    2.6194    5.9155    0.6285 H   0  0  0  0  0  0  0  0  0  0  0  0
    2.3945    4.8270   -3.5896 H   0  0  0  0  0  0  0  0  0  0  0  0
    3.7138    4.5231   -4.7481 H   0  0  0  0  0  0  0  0  0  0  0  0
    2.9038    7.1262   -3.9547 H   0  0  0  0  0  0  0  0  0  0  0  0
    4.4457    6.7290   -4.7125 H   0  0  0  0  0  0  0  0  0  0  0  0
    4.9976    8.8529   -2.7671 H   0  0  0  0  0  0  0  0  0  0  0  0
    7.3545    5.9914   -1.7935 H   0  0  0  0  0  0  0  0  0  0  0  0
    8.6134    6.9503   -2.2483 H   0  0  0  0  0  0  0  0  0  0  0  0
    8.2944    6.6621   -0.5028 H   0  0  0  0  0  0  0  0  0  0  0  0
    5.9374    1.1056   -2.4384 H   0  0  0  0  0  0  0  0  0  0  0  0
    7.5256    2.5288   -0.2071 H   0  0  0  0  0  0  0  0  0  0  0  0
    8.2725    1.5637   -1.4946 H   0  0  0  0  0  0  0  0  0  0  0  0
    7.4047    3.0618   -1.8810 H   0  0  0  0  0  0  0  0  0  0  0  0
    5.0231   -0.2845   -0.5531 H   0  0  0  0  0  0  0  0  0  0  0  0
    6.7914   -0.5064   -0.6704 H   0  0  0  0  0  0  0  0  0  0  0  0
    6.1118    0.5289    0.5853 H   0  0  0  0  0  0  0  0  0  0  0  0
    3.4113    1.4811    0.2787 H   0  0  0  0  0  0  0  0  0  0  0  0
    2.9362    4.5056    3.5227 H   0  0  0  0  0  0  0  0  0  0  0  0
    3.7888    5.8128    4.3732 H   0  0  0  0  0  0  0  0  0  0  0  0
    3.5165    5.9185    2.6575 H   0  0  0  0  0  0  0  0  0  0  0  0
    6.6328    3.3105    4.0525 H   0  0  0  0  0  0  0  0  0  0  0  0
    5.7488    4.2582    5.2815 H   0  0  0  0  0  0  0  0  0  0  0  0
    4.9942    2.8289    4.4934 H   0  0  0  0  0  0  0  0  0  0  0  0
    7.0696    5.4472    2.6278 H   0  0  0  0  0  0  0  0  0  0  0  0
    5.6391    6.5402    2.5805 H   0  0  0  0  0  0  0  0  0  0  0  0
    6.3370    6.2045    4.0591 H   0  0  0  0  0  0  0  0  0  0  0  0
  1  2  2  0  0  0  0
  2  3  1  0  0  0  0
  2 34  1  0  0  0  0
  3  4  1  0  0  0  0
  3 30  1  1  0  0  0
  4  5  1  0  0  0  0
  4 35  1  0  0  0  0
  4 36  1  0  0  0  0
  5 37  1  0  0  0  0
  5 38  1  0  0  0  0
  5 39  1  0  0  0  0
  6  3  1  0  0  0  0
  6  7  1  0  0  0  0
  6 10  1  0  0  0  0
  6 31  1  6  0  0  0
  7  8  1  0  0  0  0
  7 16  1  0  0  0  0
  8  9  1  0  0  0  0
  8 40  1  0  0  0  0
  8 41  1  0  0  0  0
  9 10  1  0  0  0  0
  9 42  1  0  0  0  0
  9 43  1  0  0  0  0
 10 32  1  1  0  0  0
 10 11  1  0  0  0  0
 11 12  1  0  0  0  0
 11 44  1  0  0  0  0
 12 13  2  0  0  0  0
 12 14  2  0  0  0  0
 12 15  1  0  0  0  0
 15 45  1  0  0  0  0
 15 46  1  0  0  0  0
 15 47  1  0  0  0  0
 16 17  2  0  0  0  0
 18 22  1  0  0  0  0
 18 33  1  1  0  0  0
 18 19  1  0  0  0  0
 18 16  1  0  0  0  0
 19 20  1  0  0  0  0
 19 21  1  0  0  0  0
 19 48  1  0  0  0  0
 20 49  1  0  0  0  0
 20 50  1  0  0  0  0
 20 51  1  0  0  0  0
 21 52  1  0  0  0  0
 21 53  1  0  0  0  0
 21 54  1  0  0  0  0
 22 23  1  0  0  0  0
 22 55  1  0  0  0  0
 23 24  2  0  0  0  0
 23 25  1  0  0  0  0
 25 26  1  0  0  0  0
 26 27  1  0  0  0  0
 26 28  1  0  0  0  0
 26 29  1  0  0  0  0
 27 56  1  0  0  0  0
 27 57  1  0  0  0  0
 27 58  1  0  0  0  0
 28 59  1  0  0  0  0
 28 60  1  0  0  0  0
 28 61  1  0  0  0  0
 29 62  1  0  0  0  0
 29 63  1  0  0  0  0
 29 64  1  0  0  0  0
M  END
>  <DRUGBANK_ID>
DB08644

>  <COMMON_NAME>
{1-[2-(1-FORMYL-PROPYL)-3-METHANESULFONYLAMINO-PYRROLIDINE-1-CARBONYL]-2-METHYL-PROPYL}-CARBAMIC ACID TERT-BUTYL ESTER

$$$$
