3BA
 OpenBabel10282417163D

 48 50  0  0  0  0  0  0  0  0999 V2000
   -1.1824    1.4517    0.0016 N   0  0  0  0  0  0  0  0  0  0  0  0
   -1.4108   -1.1920   -0.0162 C   0  0  0  0  0  0  0  0  0  0  0  0
    2.2969   -0.7170   -0.0027 N   0  0  0  0  0  0  0  0  0  0  0  0
   -0.0331    0.7244    0.0032 C   0  0  0  0  0  0  0  0  0  0  0  0
    3.7438    2.3010   -1.2596 C   0  0  0  0  0  0  0  0  0  0  0  0
    3.6329    1.3998   -0.0114 C   0  0  0  0  0  0  0  0  0  0  0  0
    2.2870    0.6319   -0.0059 C   0  0  0  0  0  0  0  0  0  0  0  0
    1.1145   -1.3738    0.0065 C   0  0  0  0  0  0  0  0  0  0  0  0
   -0.1021   -0.6559    0.0036 C   0  0  0  0  0  0  0  0  0  0  0  0
    3.7572    2.3037    1.2341 C   0  0  0  0  0  0  0  0  0  0  0  0
   -3.8216   -1.3723   -0.0000 C   0  0  0  0  0  0  0  0  0  0  0  0
    0.2332   -3.8045    0.0716 C   0  0  0  0  0  0  0  0  0  0  0  0
    0.0913   -4.5374   -1.2532 C   0  0  0  0  0  0  0  0  0  0  0  0
    1.1574   -5.5439   -1.3437 C   0  0  0  0  0  0  0  0  0  0  0  0
    3.1506   -6.2804   -1.2774 C   0  0  0  0  0  0  0  0  0  0  0  0
    1.0384   -6.9119   -1.2919 C   0  0  0  0  0  0  0  0  0  0  0  0
   -2.4277    0.8721    0.0045 C   0  0  0  0  0  0  0  0  0  0  0  0
   -2.5978   -0.4859    0.0006 C   0  0  0  0  0  0  0  0  0  0  0  0
    1.1486    1.3559   -0.0014 N   0  0  0  0  0  0  0  0  0  0  0  0
   -3.4854    1.7449   -0.0043 N   0  0  0  0  0  0  0  0  0  0  0  0
    4.8488    0.4474   -0.0164 C   0  0  0  0  0  0  0  0  0  0  0  0
   -3.7241   -2.5905   -0.0008 O   0  0  0  0  0  0  0  0  0  0  0  0
   -5.0919   -0.8693    0.0020 N   0  0  0  0  0  0  0  0  0  0  0  0
    1.2303   -2.7442    0.0554 N   0  0  0  0  0  0  0  0  0  0  0  0
    2.4733   -5.1613   -1.3264 N   0  0  0  0  0  0  0  0  0  0  0  0
    2.3234   -7.3665   -1.2732 N   0  0  0  0  0  0  0  0  0  0  0  0
   -1.6017   -2.2283   -0.0856 H   0  0  0  0  0  0  0  0  0  0  0  0
    2.9445    3.0496   -1.2923 H   0  0  0  0  0  0  0  0  0  0  0  0
    4.6963    2.8494   -1.2695 H   0  0  0  0  0  0  0  0  0  0  0  0
    3.6949    1.7143   -2.1829 H   0  0  0  0  0  0  0  0  0  0  0  0
    3.7192    1.7195    2.1595 H   0  0  0  0  0  0  0  0  0  0  0  0
    4.7098    2.8523    1.2321 H   0  0  0  0  0  0  0  0  0  0  0  0
    2.9585    3.0525    1.2744 H   0  0  0  0  0  0  0  0  0  0  0  0
    0.4132   -4.4740    0.9190 H   0  0  0  0  0  0  0  0  0  0  0  0
   -0.7550   -3.5024    0.3185 H   0  0  0  0  0  0  0  0  0  0  0  0
   -0.8845   -5.0446   -1.2672 H   0  0  0  0  0  0  0  0  0  0  0  0
    0.0974   -3.8615   -2.1161 H   0  0  0  0  0  0  0  0  0  0  0  0
    4.2273   -6.3560   -1.2414 H   0  0  0  0  0  0  0  0  0  0  0  0
    0.1734   -7.5587   -1.2368 H   0  0  0  0  0  0  0  0  0  0  0  0
   -4.4321    1.4407    0.0048 H   0  0  0  0  0  0  0  0  0  0  0  0
   -3.2841    2.7311   -0.0005 H   0  0  0  0  0  0  0  0  0  0  0  0
    4.8566   -0.1946    0.8714 H   0  0  0  0  0  0  0  0  0  0  0  0
    4.8468   -0.1975   -0.9020 H   0  0  0  0  0  0  0  0  0  0  0  0
    5.7953    1.0048   -0.0224 H   0  0  0  0  0  0  0  0  0  0  0  0
   -5.3895    0.0788    0.0021 H   0  0  0  0  0  0  0  0  0  0  0  0
   -5.8270   -1.5675    0.0028 H   0  0  0  0  0  0  0  0  0  0  0  0
    2.1881   -3.0820   -0.0609 H   0  0  0  0  0  0  0  0  0  0  0  0
    2.6142   -8.3315   -1.2422 H   0  0  0  0  0  0  0  0  0  0  0  0
  1  4  2  0  0  0  0
  1 17  1  0  0  0  0
  2  9  2  0  0  0  0
  2 18  1  0  0  0  0
  2 27  1  0  0  0  0
  3  7  1  0  0  0  0
  3  8  2  0  0  0  0
  4  9  1  0  0  0  0
  4 19  1  0  0  0  0
  5  6  1  0  0  0  0
  5 28  1  0  0  0  0
  5 29  1  0  0  0  0
  5 30  1  0  0  0  0
  6  7  1  0  0  0  0
  6 10  1  0  0  0  0
  6 21  1  0  0  0  0
  7 19  2  0  0  0  0
  8  9  1  0  0  0  0
  8 24  1  0  0  0  0
 10 31  1  0  0  0  0
 10 32  1  0  0  0  0
 10 33  1  0  0  0  0
 11 18  1  0  0  0  0
 11 22  2  0  0  0  0
 11 23  1  0  0  0  0
 12 13  1  0  0  0  0
 12 24  1  0  0  0  0
 12 34  1  0  0  0  0
 12 35  1  0  0  0  0
 13 14  1  0  0  0  0
 13 36  1  0  0  0  0
 13 37  1  0  0  0  0
 14 16  2  0  0  0  0
 14 25  1  0  0  0  0
 15 25  2  0  0  0  0
 15 26  1  0  0  0  0
 15 38  1  0  0  0  0
 16 26  1  0  0  0  0
 16 39  1  0  0  0  0
 17 18  2  0  0  0  0
 17 20  1  0  0  0  0
 20 40  1  0  0  0  0
 20 41  1  0  0  0  0
 21 42  1  0  0  0  0
 21 43  1  0  0  0  0
 21 44  1  0  0  0  0
 23 45  1  0  0  0  0
 23 46  1  0  0  0  0
 24 47  1  0  0  0  0
 26 48  1  0  0  0  0
M  END
>  <DRUGBANK_ID>
DB07042

>  <COMMON_NAME>
7-amino-2-tert-butyl-4-{[2-(1H-imidazol-4-yl)ethyl]amino}pyrido[2,3-d]pyrimidine-6-carboxamide

$$$$
