
 OpenBabel10282417173D

 17 15  0  0  0  0  0  0  0  0999 V2000
    0.9998   -0.0909    0.0417 C   0  0  0  0  0  0  0  0  0  0  0  0
    0.5265    1.1951   -0.3306 O   0  0  0  0  0  0  0  0  0  0  0  0
    0.3898   -1.3350   -1.1537 P   0  0  0  0  0  0  0  0  0  0  0  0
    1.8073   -1.4399   -1.7679 O   0  0  0  0  0  0  0  0  0  0  0  0
   -0.0643   -2.3705    0.1556 O   0  0  0  0  0  0  0  0  0  0  0  0
   -0.1869   -2.5111   -2.2838 O   0  0  0  0  0  0  0  0  0  0  0  0
    0.3898   -0.5041    1.7168 P   0  0  0  0  0  0  0  0  0  0  0  0
    0.0771   -1.9460    1.2473 O   0  0  0  0  0  0  0  0  0  0  0  0
    1.9443   -0.1270    2.3759 O   0  0  0  0  0  0  0  0  0  0  0  0
   -0.1868   -0.8947    3.3004 O   0  0  0  0  0  0  0  0  0  0  0  0
    0.9587    0.0895    0.0166 Tc  0  0  0  0  0  0  0  0  0  0  0  0
    2.0698   -0.0909    0.0417 H   0  0  0  0  0  0  0  0  0  0  0  0
    0.8598    1.8749    0.3227 H   0  0  0  0  0  0  0  0  0  0  0  0
    0.1624   -1.9290    1.0238 H   0  0  0  0  0  0  0  0  0  0  0  0
   -0.4283   -3.3507   -1.7971 H   0  0  0  0  0  0  0  0  0  0  0  0
    2.5581    0.1585    1.6398 H   0  0  0  0  0  0  0  0  0  0  0  0
   -0.3498   -0.0518    3.8131 H   0  0  0  0  0  0  0  0  0  0  0  0
  1  2  1  0  0  0  0
  1  3  1  0  0  0  0
  1  7  1  0  0  0  0
  1 12  1  0  0  0  0
  2 13  1  0  0  0  0
  3  4  2  0  0  0  0
  3  5  1  0  0  0  0
  3  6  1  0  0  0  0
  5 14  1  0  0  0  0
  6 15  1  0  0  0  0
  7  8  2  0  0  0  0
  7  9  1  0  0  0  0
  7 10  1  0  0  0  0
  9 16  1  0  0  0  0
 10 17  1  0  0  0  0
M  ISO  1  11  99
M  END
>  <DRUGBANK_ID>
DB09139

>  <COMMON_NAME>
Technetium Tc-99m oxidronate

>  <CAS_NUMBER>
72945-61-0

>  <UNII>
MG4KI49HHJ

>  <SYNONYMS>
99mtc-HDP; Oxidronic acid 99mtc-complex; Technetium (99mTc) oxidronate; Technetium 99mtc oxidronate; Technetium Tc 99m oxidronate

$$$$
