
 OpenBabel10282417193D

 53 57  0  0  0  0  0  0  0  0999 V2000
    0.4467   -0.2249    0.4577 C   0  0  0  0  0  0  0  0  0  0  0  0
    2.4684    5.1216    4.9809 C   0  0  0  0  0  0  0  0  0  0  0  0
    5.1338    1.4856   -4.0143 C   0  0  0  0  0  0  0  0  0  0  0  0
    2.7453    5.6505    6.2498 C   0  0  0  0  0  0  0  0  0  0  0  0
    4.6476    0.8644   -2.8770 C   0  0  0  0  0  0  0  0  0  0  0  0
    0.1208    1.1271    7.9990 C   0  0  0  0  0  0  0  0  0  0  0  0
    1.1283    4.0769    9.7232 C   0  0  0  0  0  0  0  0  0  0  0  0
    2.0261    5.1256    9.7166 C   0  0  0  0  0  0  0  0  0  0  0  0
   -0.8274    0.1224    8.0223 C   0  0  0  0  0  0  0  0  0  0  0  0
    1.0121    3.5325    6.0089 C   0  0  0  0  0  0  0  0  0  0  0  0
    2.3546    2.7672    2.7609 C   0  0  0  0  0  0  0  0  0  0  0  0
    4.2699    3.6298   -3.2330 C   0  0  0  0  0  0  0  0  0  0  0  0
    0.0592    3.3297    3.0576 C   0  0  0  0  0  0  0  0  0  0  0  0
   -1.4995    2.5197    9.0170 C   0  0  0  0  0  0  0  0  0  0  0  0
    1.6220    4.0262    4.8436 C   0  0  0  0  0  0  0  0  0  0  0  0
   -0.2125    2.3838    8.5092 C   0  0  0  0  0  0  0  0  0  0  0  0
    1.3553    3.3900    3.5458 C   0  0  0  0  0  0  0  0  0  0  0  0
    4.9500    2.8611   -4.1721 C   0  0  0  0  0  0  0  0  0  0  0  0
    0.7421    3.5088    8.5025 C   0  0  0  0  0  0  0  0  0  0  0  0
    1.3012    4.0363    7.3034 C   0  0  0  0  0  0  0  0  0  0  0  0
    3.7908    3.0131   -2.1000 C   0  0  0  0  0  0  0  0  0  0  0  0
    2.2011    5.1174    7.4130 C   0  0  0  0  0  0  0  0  0  0  0  0
    2.0368    2.0768    1.5645 C   0  0  0  0  0  0  0  0  0  0  0  0
    4.0090    1.6558   -1.9185 C   0  0  0  0  0  0  0  0  0  0  0  0
    0.6637    1.9643    1.2873 C   0  0  0  0  0  0  0  0  0  0  0  0
    5.4261    3.4557   -5.2701 F   0  0  0  0  0  0  0  0  0  0  0  0
    3.0315    3.7143   -1.2464 F   0  0  0  0  0  0  0  0  0  0  0  0
    2.5549    5.6508    8.5936 N   0  0  0  0  0  0  0  0  0  0  0  0
   -0.2993    2.6261    1.9728 N   0  0  0  0  0  0  0  0  0  0  0  0
   -2.0622    0.3024    8.5275 N   0  0  0  0  0  0  0  0  0  0  0  0
   -2.4044    1.5158    9.0323 N   0  0  0  0  0  0  0  0  0  0  0  0
    3.1568    1.6953    0.6989 N   0  0  0  0  0  0  0  0  0  0  0  0
    3.4945   -0.4629   -0.5785 O   0  0  0  0  0  0  0  0  0  0  0  0
    1.7090    1.1080   -1.4328 O   0  0  0  0  0  0  0  0  0  0  0  0
    0.0914    1.1516    0.3660 O   0  0  0  0  0  0  0  0  0  0  0  0
    2.9687    0.8784   -0.7801 S   0  0  0  0  0  0  0  0  0  0  0  0
    0.2702   -0.6685   -0.5311 H   0  0  0  0  0  0  0  0  0  0  0  0
   -0.1391   -0.7440    1.2079 H   0  0  0  0  0  0  0  0  0  0  0  0
    1.4889   -0.4002    0.7221 H   0  0  0  0  0  0  0  0  0  0  0  0
    2.9142    5.5851    4.1042 H   0  0  0  0  0  0  0  0  0  0  0  0
    5.6094    0.9013   -4.7951 H   0  0  0  0  0  0  0  0  0  0  0  0
    3.4194    6.5014    6.3312 H   0  0  0  0  0  0  0  0  0  0  0  0
    4.6600   -0.2231   -2.7927 H   0  0  0  0  0  0  0  0  0  0  0  0
    1.0983    0.9337    7.5688 H   0  0  0  0  0  0  0  0  0  0  0  0
    0.7511    3.7009   10.6699 H   0  0  0  0  0  0  0  0  0  0  0  0
    2.3565    5.5852   10.6448 H   0  0  0  0  0  0  0  0  0  0  0  0
   -0.6226   -0.8668    7.6291 H   0  0  0  0  0  0  0  0  0  0  0  0
    0.3035    2.7128    5.9017 H   0  0  0  0  0  0  0  0  0  0  0  0
    3.3831    2.8132    3.1160 H   0  0  0  0  0  0  0  0  0  0  0  0
    4.0725    4.6815   -3.3929 H   0  0  0  0  0  0  0  0  0  0  0  0
   -0.7687    3.8227    3.5626 H   0  0  0  0  0  0  0  0  0  0  0  0
   -1.8612    3.4568    9.4277 H   0  0  0  0  0  0  0  0  0  0  0  0
    4.0120    1.4311    1.1914 H   0  0  0  0  0  0  0  0  0  0  0  0
  1 37  1  0  0  0  0
  1 38  1  0  0  0  0
  1 39  1  0  0  0  0
  2 40  1  0  0  0  0
  3 41  1  0  0  0  0
  4  2  2  0  0  0  0
  4 42  1  0  0  0  0
  5  3  2  0  0  0  0
  5 43  1  0  0  0  0
  6 44  1  0  0  0  0
  7 45  1  0  0  0  0
  8  7  2  0  0  0  0
  8 46  1  0  0  0  0
  9  6  2  0  0  0  0
  9 47  1  0  0  0  0
 10 48  1  0  0  0  0
 11 49  1  0  0  0  0
 12 50  1  0  0  0  0
 13 51  1  0  0  0  0
 14 52  1  0  0  0  0
 15  2  1  0  0  0  0
 15 10  2  0  0  0  0
 16  6  1  0  0  0  0
 16 14  2  0  0  0  0
 17 11  2  0  0  0  0
 17 13  1  0  0  0  0
 17 15  1  0  0  0  0
 18  3  1  0  0  0  0
 18 12  2  0  0  0  0
 19  7  1  0  0  0  0
 19 16  1  0  0  0  0
 20 10  1  0  0  0  0
 20 19  2  0  0  0  0
 21 12  1  0  0  0  0
 22  4  1  0  0  0  0
 22 20  1  0  0  0  0
 23 11  1  0  0  0  0
 24  5  1  0  0  0  0
 24 21  2  0  0  0  0
 25 23  2  0  0  0  0
 26 18  1  0  0  0  0
 27 21  1  0  0  0  0
 28  8  1  0  0  0  0
 28 22  2  0  0  0  0
 29 13  2  0  0  0  0
 29 25  1  0  0  0  0
 30  9  1  0  0  0  0
 31 14  1  0  0  0  0
 31 30  2  0  0  0  0
 32 23  1  0  0  0  0
 32 53  1  0  0  0  0
 35  1  1  0  0  0  0
 35 25  1  0  0  0  0
 36 24  1  0  0  0  0
 36 32  1  0  0  0  0
 36 33  2  0  0  0  0
 36 34  2  0  0  0  0
M  END
>  <DRUGBANK_ID>
DB12703

>  <COMMON_NAME>
Omipalisib

>  <CAS_NUMBER>
1086062-66-9

>  <UNII>
1X8F5A3NA0

>  <SYNONYMS>
Omipalisib

$$$$
