
 OpenBabel10282417113D

 45 48  0  0  0  0  0  0  0  0999 V2000
   -1.6095   -1.3385    0.0486 C   0  0  0  0  0  0  0  0  0  0  0  0
   -2.0050   -0.0501    0.0311 C   0  0  0  0  0  0  0  0  0  0  0  0
   -0.1475   -1.6697   -0.0399 C   0  0  0  0  0  0  0  0  0  0  0  0
   -1.0158    1.0706   -0.0492 C   0  0  0  0  0  0  0  0  0  0  0  0
    0.8349   -0.5785    0.0004 C   0  0  0  0  0  0  0  0  0  0  0  0
    0.4150    0.7423   -0.0036 C   0  0  0  0  0  0  0  0  0  0  0  0
   -2.5518   -2.5172    0.2216 C   0  0  2  0  0  0  0  0  0  0  0  0
    0.2540   -2.8229   -0.1335 O   0  0  0  0  0  0  0  0  0  0  0  0
   -1.3752    2.2375   -0.1371 O   0  0  0  0  0  0  0  0  0  0  0  0
   -4.3138   -6.4755    0.7941 C   0  0  0  0  0  0  0  0  0  0  0  0
   -3.3272    0.3590    0.1047 O   0  0  0  0  0  0  0  0  0  0  0  0
   -3.2870   -5.3760    0.5543 C   0  0  1  0  0  0  0  0  0  0  0  0
   -2.2327   -3.2689    1.5172 C   0  0  0  0  0  0  0  0  0  0  0  0
   -2.6098   -3.4609   -0.9876 C   0  0  0  0  0  0  0  0  0  0  0  0
   -3.5882   -4.6121   -0.7501 C   0  0  0  0  0  0  0  0  0  0  0  0
   -3.2153   -4.3952    1.7383 C   0  0  0  0  0  0  0  0  0  0  0  0
   -4.4906   -7.4923   -0.1565 C   0  0  0  0  0  0  0  0  0  0  0  0
   -5.1000   -6.5125    1.9594 C   0  0  0  0  0  0  0  0  0  0  0  0
   -6.1909   -8.5165    1.2212 C   0  0  0  0  0  0  0  0  0  0  0  0
   -6.0312   -7.5216    2.1742 C   0  0  0  0  0  0  0  0  0  0  0  0
   -5.4322   -8.5030    0.0530 C   0  0  0  0  0  0  0  0  0  0  0  0
   -7.3281   -9.7733    1.5006 Cl  0  0  0  0  0  0  0  0  0  0  0  0
    2.2053   -0.8783    0.0232 C   0  0  0  0  0  0  0  0  0  0  0  0
    1.3594    1.7762    0.0145 C   0  0  0  0  0  0  0  0  0  0  0  0
    3.1460    0.1519    0.0355 C   0  0  0  0  0  0  0  0  0  0  0  0
    2.7224    1.4793    0.0296 C   0  0  0  0  0  0  0  0  0  0  0  0
   -3.5780   -2.1543    0.3457 H   0  0  0  0  0  0  0  0  0  0  0  0
   -3.9439   -0.3841    0.0827 H   0  0  0  0  0  0  0  0  0  0  0  0
   -2.3025   -5.8578    0.4574 H   0  0  0  0  0  0  0  0  0  0  0  0
   -1.2261   -3.6952    1.5080 H   0  0  0  0  0  0  0  0  0  0  0  0
   -2.2844   -2.5834    2.3725 H   0  0  0  0  0  0  0  0  0  0  0  0
   -2.9213   -2.9063   -1.8813 H   0  0  0  0  0  0  0  0  0  0  0  0
   -1.6259   -3.8872   -1.2066 H   0  0  0  0  0  0  0  0  0  0  0  0
   -3.5413   -5.2840   -1.6156 H   0  0  0  0  0  0  0  0  0  0  0  0
   -4.6134   -4.2202   -0.7181 H   0  0  0  0  0  0  0  0  0  0  0  0
   -2.9266   -4.9269    2.6533 H   0  0  0  0  0  0  0  0  0  0  0  0
   -4.2029   -3.9465    1.9112 H   0  0  0  0  0  0  0  0  0  0  0  0
   -3.8996   -7.5062   -1.0706 H   0  0  0  0  0  0  0  0  0  0  0  0
   -5.0121   -5.7586    2.7364 H   0  0  0  0  0  0  0  0  0  0  0  0
   -6.6178   -7.5137    3.0878 H   0  0  0  0  0  0  0  0  0  0  0  0
   -5.5660   -9.2762   -0.6975 H   0  0  0  0  0  0  0  0  0  0  0  0
    2.5453   -1.9131    0.0222 H   0  0  0  0  0  0  0  0  0  0  0  0
    1.0336    2.8150    0.0080 H   0  0  0  0  0  0  0  0  0  0  0  0
    4.2082   -0.0818    0.0425 H   0  0  0  0  0  0  0  0  0  0  0  0
    3.4519    2.2856    0.0292 H   0  0  0  0  0  0  0  0  0  0  0  0
  2  1  2  0  0  0  0
  3  1  1  0  0  0  0
  4  2  1  0  0  0  0
  5  3  1  0  0  0  0
  6  5  1  0  0  0  0
  6  4  1  0  0  0  0
  7  1  1  0  0  0  0
  7 27  1  1  0  0  0
  8  3  2  0  0  0  0
  9  4  2  0  0  0  0
 11  2  1  0  0  0  0
 11 28  1  0  0  0  0
 12 15  1  0  0  0  0
 12 29  1  6  0  0  0
 12 10  1  0  0  0  0
 13  7  1  0  0  0  0
 13 30  1  0  0  0  0
 13 31  1  0  0  0  0
 14  7  1  0  0  0  0
 14 32  1  0  0  0  0
 14 33  1  0  0  0  0
 15 14  1  0  0  0  0
 15 34  1  0  0  0  0
 15 35  1  0  0  0  0
 16 13  1  0  0  0  0
 16 12  1  0  0  0  0
 16 36  1  0  0  0  0
 16 37  1  0  0  0  0
 17 10  2  0  0  0  0
 17 38  1  0  0  0  0
 18 10  1  0  0  0  0
 18 39  1  0  0  0  0
 19 20  1  0  0  0  0
 20 18  2  0  0  0  0
 20 40  1  0  0  0  0
 21 17  1  0  0  0  0
 21 19  2  0  0  0  0
 21 41  1  0  0  0  0
 22 19  1  0  0  0  0
 23  5  2  0  0  0  0
 23 42  1  0  0  0  0
 24  6  2  0  0  0  0
 24 43  1  0  0  0  0
 25 23  1  0  0  0  0
 25 44  1  0  0  0  0
 26 25  2  0  0  0  0
 26 24  1  0  0  0  0
 26 45  1  0  0  0  0
M  END
>  <DRUGBANK_ID>
DB01117

>  <SECONDARY_ACCESSION_NUMBERS>
APRD00805

>  <COMMON_NAME>
Atovaquone

>  <CAS_NUMBER>
95233-18-4

>  <UNII>
Y883P1Z2LT

>  <SYNONYMS>
2-(trans-4-(p-Chlorophenyl)cyclohexyl)-3-hydroxy-1,4-naphthoquinone; Atovacuona; Atovaquone

$$$$
