1471
 OpenBabel10282417113D

 55 58  0  0  1  0  0  0  0  0999 V2000
    1.3629   -2.8446    6.1885 O   0  0  0  0  0  0  0  0  0  0  0  0
   -6.0042   -8.4714    0.0296 O   0  0  0  0  0  0  0  0  0  0  0  0
   -0.8663   -4.4224    4.0532 C   0  0  2  0  0  0  0  0  0  0  0  0
    0.6338   -4.3369    4.1395 C   0  0  1  0  0  0  0  0  0  0  0  0
   -1.5023   -4.7805    2.7651 C   0  0  1  0  0  0  0  0  0  0  0  0
   -1.1842   -6.2277    2.4228 C   0  0  1  0  0  0  0  0  0  0  0  0
    0.5325   -3.9319    5.7862 C   0  0  2  0  0  0  0  0  0  0  0  0
   -2.5332   -6.9740    1.5886 C   0  0  2  0  0  0  0  0  0  0  0  0
    1.1483   -5.7487    3.5213 C   0  0  0  0  0  0  0  0  0  0  0  0
    0.4139   -6.1605    2.1506 C   0  0  0  0  0  0  0  0  0  0  0  0
   -1.3808   -3.1455    4.6900 C   0  0  0  0  0  0  0  0  0  0  0  0
   -2.9840   -4.7475    2.9199 C   0  0  1  0  0  0  0  0  0  0  0  0
   -0.9596   -3.4373    6.0926 C   0  0  0  0  0  0  0  0  0  0  0  0
   -3.4593   -4.8341    1.3146 C   0  0  0  0  0  0  0  0  0  0  0  0
   -3.2315   -6.1936    0.5401 C   0  0  0  0  0  0  0  0  0  0  0  0
    1.2412   -3.2759    3.2028 C   0  0  0  0  0  0  0  0  0  0  0  0
   -4.3478   -6.9705    2.2623 C   0  0  0  0  0  0  0  0  0  0  0  0
    0.8300   -5.2100    6.5517 C   0  0  0  0  0  0  0  0  0  0  0  0
   -1.6109   -7.8953    0.6429 C   0  0  0  0  0  0  0  0  0  0  0  0
   -3.2551   -5.7563    4.2497 C   0  0  0  0  0  0  0  0  0  0  0  0
   -5.7094   -6.5789    1.3454 C   0  0  0  0  0  0  0  0  0  0  0  0
   -3.9952   -7.1161   -0.2025 C   0  0  0  0  0  0  0  0  0  0  0  0
   -5.3989   -7.4655    0.2540 C   0  0  0  0  0  0  0  0  0  0  0  0
   -1.0653   -5.2816    4.7179 H   0  0  0  0  0  0  0  0  0  0  0  0
   -1.1673   -4.0831    1.9908 H   0  0  0  0  0  0  0  0  0  0  0  0
   -1.1095   -6.9252    3.2653 H   0  0  0  0  0  0  0  0  0  0  0  0
    0.8119   -2.1546    6.6174 H   0  0  0  0  0  0  0  0  0  0  0  0
    2.2422   -5.7360    3.3835 H   0  0  0  0  0  0  0  0  0  0  0  0
    0.9671   -6.6217    4.1584 H   0  0  0  0  0  0  0  0  0  0  0  0
    0.6956   -5.4436    1.3669 H   0  0  0  0  0  0  0  0  0  0  0  0
    0.8489   -7.1246    1.8495 H   0  0  0  0  0  0  0  0  0  0  0  0
   -2.4404   -2.9327    4.6077 H   0  0  0  0  0  0  0  0  0  0  0  0
   -0.8560   -2.2610    4.3266 H   0  0  0  0  0  0  0  0  0  0  0  0
   -3.3884   -3.7880    3.2264 H   0  0  0  0  0  0  0  0  0  0  0  0
   -1.6109   -4.2168    6.5250 H   0  0  0  0  0  0  0  0  0  0  0  0
   -1.1321   -2.5399    6.7011 H   0  0  0  0  0  0  0  0  0  0  0  0
   -2.9126   -4.0758    0.7428 H   0  0  0  0  0  0  0  0  0  0  0  0
   -4.4758   -4.4590    1.3299 H   0  0  0  0  0  0  0  0  0  0  0  0
    0.8732   -3.4174    2.1790 H   0  0  0  0  0  0  0  0  0  0  0  0
    1.0123   -2.2471    3.4740 H   0  0  0  0  0  0  0  0  0  0  0  0
    2.3296   -3.3802    3.1396 H   0  0  0  0  0  0  0  0  0  0  0  0
   -4.6228   -6.0513    2.7961 H   0  0  0  0  0  0  0  0  0  0  0  0
   -4.6043   -7.7691    2.9590 H   0  0  0  0  0  0  0  0  0  0  0  0
    1.0126   -5.9780    5.8241 H   0  0  0  0  0  0  0  0  0  0  0  0
    1.7547   -5.1891    7.1205 H   0  0  0  0  0  0  0  0  0  0  0  0
   -0.0260   -5.6472    7.0774 H   0  0  0  0  0  0  0  0  0  0  0  0
   -1.4279   -8.9008    1.0075 H   0  0  0  0  0  0  0  0  0  0  0  0
   -1.7998   -7.8845   -0.4438 H   0  0  0  0  0  0  0  0  0  0  0  0
   -0.6100   -7.4453    0.5273 H   0  0  0  0  0  0  0  0  0  0  0  0
   -2.6136   -6.6513    4.2705 H   0  0  0  0  0  0  0  0  0  0  0  0
   -3.0536   -5.2259    5.1780 H   0  0  0  0  0  0  0  0  0  0  0  0
   -4.2444   -6.1650    4.4592 H   0  0  0  0  0  0  0  0  0  0  0  0
   -5.7954   -5.5835    0.8639 H   0  0  0  0  0  0  0  0  0  0  0  0
   -6.6884   -6.7048    1.8146 H   0  0  0  0  0  0  0  0  0  0  0  0
   -3.6472   -8.1707   -0.2807 H   0  0  0  0  0  0  0  0  0  0  0  0
  1 27  1  0  0  0  0
  2 23  2  0  0  0  0
  3  4  1  0  0  0  0
  3  5  1  0  0  0  0
  3 11  1  0  0  0  0
  3 24  1  1  0  0  0
  4  7  1  0  0  0  0
  4  9  1  0  0  0  0
  4 16  1  6  0  0  0
  5  6  1  0  0  0  0
  5 12  1  0  0  0  0
  5 25  1  6  0  0  0
  6  8  1  0  0  0  0
  6 10  1  0  0  0  0
  6 26  1  1  0  0  0
  7  1  1  1  0  0  0
  7 13  1  0  0  0  0
  7 18  1  0  0  0  0
  8 15  1  0  0  0  0
  8 17  1  0  0  0  0
  8 19  1  6  0  0  0
  9 10  1  0  0  0  0
  9 28  1  0  0  0  0
  9 29  1  0  0  0  0
 10 30  1  0  0  0  0
 10 31  1  0  0  0  0
 11 13  1  0  0  0  0
 11 32  1  0  0  0  0
 11 33  1  0  0  0  0
 12 14  1  0  0  0  0
 12 34  1  1  0  0  0
 12 20  1  0  0  0  0
 13 35  1  0  0  0  0
 13 36  1  0  0  0  0
 14 15  1  0  0  0  0
 14 37  1  0  0  0  0
 14 38  1  0  0  0  0
 15 22  2  0  0  0  0
 16 39  1  0  0  0  0
 16 40  1  0  0  0  0
 16 41  1  0  0  0  0
 17 21  1  0  0  0  0
 17 42  1  0  0  0  0
 17 43  1  0  0  0  0
 18 44  1  0  0  0  0
 18 45  1  0  0  0  0
 18 46  1  0  0  0  0
 19 47  1  0  0  0  0
 19 48  1  0  0  0  0
 19 49  1  0  0  0  0
 20 50  1  0  0  0  0
 20 51  1  0  0  0  0
 20 52  1  0  0  0  0
 21 23  1  0  0  0  0
 21 53  1  0  0  0  0
 21 54  1  0  0  0  0
 22 23  1  0  0  0  0
 22 55  1  0  0  0  0
M  END
>  <DRUGBANK_ID>
DB01471

>  <COMMON_NAME>
Bolasterone

>  <CAS_NUMBER>
1605-89-6

>  <UNII>
T7ZM08F7FU

>  <SYNONYMS>
Bolasterone

$$$$
