623
 OpenBabel10282417103D

 56 59  0  0  0  0  0  0  0  0999 V2000
    0.0205    1.7355    0.3219 S   0  0  0  0  0  0  0  0  0  0  0  0
    5.1099   -2.6806    0.3150 F   0  0  0  0  0  0  0  0  0  0  0  0
    4.2903   -2.9813   -1.6749 F   0  0  0  0  0  0  0  0  0  0  0  0
    5.7712   -1.4233   -1.3344 F   0  0  0  0  0  0  0  0  0  0  0  0
   -5.0660   -5.1643    3.1266 O   0  0  0  0  0  0  0  0  0  0  0  0
   -2.7440   -2.0849    2.5658 N   0  0  0  0  0  0  0  0  0  0  0  0
   -4.1294   -2.7959    5.0508 N   0  0  0  0  0  0  0  0  0  0  0  0
    0.0858   -1.3187    0.6110 N   0  0  0  0  0  0  0  0  0  0  0  0
   -4.0335   -1.4759    2.8984 C   0  0  0  0  0  0  0  0  0  0  0  0
   -2.5689   -3.4244    3.1392 C   0  0  0  0  0  0  0  0  0  0  0  0
   -4.2310   -1.4696    4.4287 C   0  0  0  0  0  0  0  0  0  0  0  0
   -2.8891   -3.4792    4.6462 C   0  0  0  0  0  0  0  0  0  0  0  0
   -1.7713   -1.0680    2.9426 C   0  0  0  0  0  0  0  0  0  0  0  0
   -0.3646   -1.5436    3.0729 C   0  0  0  0  0  0  0  0  0  0  0  0
   -5.3901   -3.5318    4.9233 C   0  0  0  0  0  0  0  0  0  0  0  0
    0.1289   -2.2049    1.7959 C   0  0  0  0  0  0  0  0  0  0  0  0
   -5.8611   -4.0690    3.5584 C   0  0  0  0  0  0  0  0  0  0  0  0
    1.3080   -0.7261    0.3102 C   0  0  0  0  0  0  0  0  0  0  0  0
   -1.1203   -0.8108    0.0801 C   0  0  0  0  0  0  0  0  0  0  0  0
    1.4161    0.6580    0.0579 C   0  0  0  0  0  0  0  0  0  0  0  0
   -1.2847    0.5864   -0.1134 C   0  0  0  0  0  0  0  0  0  0  0  0
    2.4045   -1.5575    0.0623 C   0  0  0  0  0  0  0  0  0  0  0  0
   -2.2015   -1.6424   -0.2299 C   0  0  0  0  0  0  0  0  0  0  0  0
    3.5686   -1.0580   -0.4738 C   0  0  0  0  0  0  0  0  0  0  0  0
    2.5878    1.1692   -0.4561 C   0  0  0  0  0  0  0  0  0  0  0  0
   -2.5101    1.1155   -0.5387 C   0  0  0  0  0  0  0  0  0  0  0  0
    3.6624    0.3207   -0.7445 C   0  0  0  0  0  0  0  0  0  0  0  0
   -3.4303   -1.1081   -0.6390 C   0  0  0  0  0  0  0  0  0  0  0  0
   -3.5825    0.2679   -0.7951 C   0  0  0  0  0  0  0  0  0  0  0  0
    4.6781   -2.0168   -0.7939 C   0  0  0  0  0  0  0  0  0  0  0  0
   -4.2580   -5.1303    3.6420 H   0  0  0  0  0  0  0  0  0  0  0  0
   -4.0661   -0.4472    2.5182 H   0  0  0  0  0  0  0  0  0  0  0  0
   -4.8290   -1.9477    2.3302 H   0  0  0  0  0  0  0  0  0  0  0  0
   -3.1595   -4.1034    2.5198 H   0  0  0  0  0  0  0  0  0  0  0  0
   -1.5716   -3.8602    2.9952 H   0  0  0  0  0  0  0  0  0  0  0  0
   -3.4651   -0.8610    4.9231 H   0  0  0  0  0  0  0  0  0  0  0  0
   -5.1526   -0.9455    4.6887 H   0  0  0  0  0  0  0  0  0  0  0  0
   -2.0526   -2.9799    5.1575 H   0  0  0  0  0  0  0  0  0  0  0  0
   -2.8419   -4.5067    5.0304 H   0  0  0  0  0  0  0  0  0  0  0  0
   -2.0022   -0.5273    3.8547 H   0  0  0  0  0  0  0  0  0  0  0  0
   -1.8560   -0.2673    2.2140 H   0  0  0  0  0  0  0  0  0  0  0  0
   -0.2953   -2.2398    3.9194 H   0  0  0  0  0  0  0  0  0  0  0  0
    0.2399   -0.6766    3.3559 H   0  0  0  0  0  0  0  0  0  0  0  0
   -5.3294   -4.3756    5.6153 H   0  0  0  0  0  0  0  0  0  0  0  0
   -6.1761   -2.8721    5.3124 H   0  0  0  0  0  0  0  0  0  0  0  0
   -0.3811   -3.1402    1.5603 H   0  0  0  0  0  0  0  0  0  0  0  0
    1.1493   -2.5157    2.0566 H   0  0  0  0  0  0  0  0  0  0  0  0
   -6.8831   -4.4371    3.6338 H   0  0  0  0  0  0  0  0  0  0  0  0
   -5.9011   -3.3228    2.7725 H   0  0  0  0  0  0  0  0  0  0  0  0
    2.2915   -2.6379    0.2078 H   0  0  0  0  0  0  0  0  0  0  0  0
   -2.1281   -2.7149   -0.0654 H   0  0  0  0  0  0  0  0  0  0  0  0
    2.6627    2.2325   -0.6891 H   0  0  0  0  0  0  0  0  0  0  0  0
   -2.6374    2.1902   -0.6434 H   0  0  0  0  0  0  0  0  0  0  0  0
    4.5522    0.7280   -1.1990 H   0  0  0  0  0  0  0  0  0  0  0  0
   -4.2788   -1.7700   -0.7870 H   0  0  0  0  0  0  0  0  0  0  0  0
   -4.5405    0.6805   -1.1002 H   0  0  0  0  0  0  0  0  0  0  0  0
  1 20  1  0  0  0  0
  1 21  1  0  0  0  0
  2 30  1  0  0  0  0
  3 30  1  0  0  0  0
  4 30  1  0  0  0  0
  5 17  1  0  0  0  0
  5 31  1  0  0  0  0
  6  9  1  0  0  0  0
  6 10  1  0  0  0  0
  6 13  1  0  0  0  0
  7 11  1  0  0  0  0
  7 12  1  0  0  0  0
  7 15  1  0  0  0  0
  8 16  1  0  0  0  0
  8 18  1  0  0  0  0
  8 19  1  0  0  0  0
  9 11  1  0  0  0  0
  9 32  1  0  0  0  0
  9 33  1  0  0  0  0
 10 12  1  0  0  0  0
 10 34  1  0  0  0  0
 10 35  1  0  0  0  0
 11 36  1  0  0  0  0
 11 37  1  0  0  0  0
 12 38  1  0  0  0  0
 12 39  1  0  0  0  0
 13 14  1  0  0  0  0
 13 40  1  0  0  0  0
 13 41  1  0  0  0  0
 14 16  1  0  0  0  0
 14 42  1  0  0  0  0
 14 43  1  0  0  0  0
 15 17  1  0  0  0  0
 15 44  1  0  0  0  0
 15 45  1  0  0  0  0
 16 46  1  0  0  0  0
 16 47  1  0  0  0  0
 17 48  1  0  0  0  0
 17 49  1  0  0  0  0
 18 20  2  0  0  0  0
 18 22  1  0  0  0  0
 19 21  1  0  0  0  0
 19 23  2  0  0  0  0
 20 25  1  0  0  0  0
 21 26  2  0  0  0  0
 22 24  2  0  0  0  0
 22 50  1  0  0  0  0
 23 28  1  0  0  0  0
 23 51  1  0  0  0  0
 24 27  1  0  0  0  0
 24 30  1  0  0  0  0
 25 27  2  0  0  0  0
 25 52  1  0  0  0  0
 26 29  1  0  0  0  0
 26 53  1  0  0  0  0
 27 54  1  0  0  0  0
 28 29  2  0  0  0  0
 28 55  1  0  0  0  0
 29 56  1  0  0  0  0
M  END
>  <DRUGBANK_ID>
DB00623

>  <SECONDARY_ACCESSION_NUMBERS>
APRD00633

>  <COMMON_NAME>
Fluphenazine

>  <CAS_NUMBER>
69-23-8

>  <UNII>
S79426A41Z

>  <SYNONYMS>
1-(2-hydroxyethyl)-4-(3-(trifluoromethyl-10-phenothiazinyl)propyl)-piperazine; 10-(3-(2-hydroxyethyl)piperazinopropyl)-2-(trifluoromethyl)phenothiazine; 10-(3'-(4''-(β-hydroxyethyl)-1''-piperazinyl)-propyl)-3-trifluoromethylphenothiazine; 2-(4-(3-[2-(trifluoromethyl)-10H-phenothiazin-10-yl]propyl)-1-piperazinyl)ethanol; 2-(trifluoromethyl)-10-(3-(1-(β-hydroxyethyl)-4-piperazinyl)propyl)phenothiazine; 4-(3-(-trifluoromethyl-10-phenothiazyl)-propyl)-1-piperazineethanol; 4-(3-(2-(trifluoromethyl)-10H-phenothiazin-10-yl)propyl)-1-piperazineethanol; 4-(3-(2-trifluoromethyl-10-phenothiazyl)-propyl)-1-piperazineethanol; Flufenazina; Fluorfenazine; Fluorophenazine; Fluorphenazine; Fluphenazin; Fluphénazine; Fluphenazine; Fluphenazinum; Triflumethazine

$$$$
