
 OpenBabel10282417243D

 75 81  0  0  1  0  0  0  0  0999 V2000
   -1.5033   -0.2027   -1.1405 N   0  0  0  0  0  0  0  0  0  0  0  0
   -0.4421   -0.1445   -0.3295 C   0  0  0  0  0  0  0  0  0  0  0  0
    0.3554    0.6991   -0.9811 N   0  0  0  0  0  0  0  0  0  0  0  0
    1.6115    0.5336   -0.7386 C   0  0  0  0  0  0  0  0  0  0  0  0
    2.0661   -0.3117    0.2697 C   0  0  0  0  0  0  0  0  0  0  0  0
    1.1447   -0.9953    1.1010 C   0  0  0  0  0  0  0  0  0  0  0  0
   -0.2094   -0.9216    0.8208 C   0  0  0  0  0  0  0  0  0  0  0  0
   -1.2328   -1.6197    1.7430 C   0  0  0  0  0  0  0  0  0  0  0  0
   -0.7716   -2.4285    2.6036 O   0  0  0  0  0  0  0  0  0  0  0  0
   -2.6183   -1.4165    1.8267 N   0  0  0  0  0  0  0  0  0  0  0  0
   -3.4837   -0.5722    1.0069 C   0  0  3  0  0  0  0  0  0  0  0  0
   -4.9632   -0.3151    1.3910 C   0  0  0  0  0  0  0  0  0  0  0  0
   -5.5754    0.6622    0.3192 C   0  0  0  0  0  0  0  0  0  0  0  0
   -4.5442    1.0284   -0.7690 C   0  0  3  0  0  0  0  0  0  0  0  0
   -5.0568    1.9188   -1.7418 O   0  0  0  0  0  0  0  0  0  0  0  0
   -4.1785   -0.3134   -1.4568 C   0  0  0  0  0  0  0  0  0  0  0  0
   -3.7065   -1.3318   -0.3945 C   0  0  0  0  0  0  0  0  0  0  0  0
   -3.4207    1.7818   -0.0221 C   0  0  0  0  0  0  0  0  0  0  0  0
   -2.9126    0.9187    1.1272 C   0  0  0  0  0  0  0  0  0  0  0  0
    3.4890   -0.4579    0.3164 C   0  0  0  0  0  0  0  0  0  0  0  0
    4.0925   -1.6838    0.0841 C   0  0  0  0  0  0  0  0  0  0  0  0
    5.4822   -1.7633   -0.0407 C   0  0  0  0  0  0  0  0  0  0  0  0
    6.3325   -0.6369    0.0502 C   0  0  0  0  0  0  0  0  0  0  0  0
    5.6496    0.5961    0.2312 C   0  0  0  0  0  0  0  0  0  0  0  0
    4.2715    0.6858    0.3874 C   0  0  0  0  0  0  0  0  0  0  0  0
    7.8284   -0.8985    0.4004 C   0  0  1  0  0  0  0  0  0  0  0  0
    8.5142   -1.8496   -0.5961 C   0  0  0  0  0  0  0  0  0  0  0  0
    9.2862   -0.7180   -0.0653 C   0  0  2  0  0  0  0  0  0  0  0  0
   10.1019   -0.6335    1.1986 C   0  0  0  0  0  0  0  0  0  0  0  0
    9.1738    0.2099    1.9503 N   0  0  3  0  0  0  0  0  0  0  0  0
    7.9893   -0.6701    1.8923 C   0  0  0  0  0  0  0  0  0  0  0  0
    8.9545    1.6156    1.4143 C   0  0  0  0  0  0  0  0  0  0  0  0
    8.5537    2.0658   -0.0430 C   0  0  0  0  0  0  0  0  0  0  0  0
    9.6268    2.0952   -1.1118 C   0  0  0  0  0  0  0  0  0  0  0  0
   10.8031    2.7345   -0.6563 O   0  0  0  0  0  0  0  0  0  0  0  0
   11.2681    2.2530    0.6019 C   0  0  0  0  0  0  0  0  0  0  0  0
   10.2289    2.4079    1.7156 C   0  0  0  0  0  0  0  0  0  0  0  0
   -1.5043    0.6494   -1.6985 H   0  0  0  0  0  0  0  0  0  0  0  0
   -2.2017   -0.1223   -0.4621 H   0  0  0  0  0  0  0  0  0  0  0  0
    2.2493    1.0455   -1.4514 H   0  0  0  0  0  0  0  0  0  0  0  0
    1.5030   -1.6157    1.9216 H   0  0  0  0  0  0  0  0  0  0  0  0
   -3.0757   -2.0368    2.4904 H   0  0  0  0  0  0  0  0  0  0  0  0
   -5.0414    0.1336    2.3855 H   0  0  0  0  0  0  0  0  0  0  0  0
   -5.5416   -1.2442    1.4151 H   0  0  0  0  0  0  0  0  0  0  0  0
   -6.4478    0.2119   -0.1625 H   0  0  0  0  0  0  0  0  0  0  0  0
   -5.9174    1.5839    0.7995 H   0  0  0  0  0  0  0  0  0  0  0  0
   -5.7434    1.4553   -2.2480 H   0  0  0  0  0  0  0  0  0  0  0  0
   -5.0372   -0.7303   -1.9950 H   0  0  0  0  0  0  0  0  0  0  0  0
   -3.4603   -0.1634   -2.2769 H   0  0  0  0  0  0  0  0  0  0  0  0
   -4.4211   -2.1627   -0.3098 H   0  0  0  0  0  0  0  0  0  0  0  0
   -2.8255   -1.9073   -0.7297 H   0  0  0  0  0  0  0  0  0  0  0  0
   -2.6087    2.1050   -0.6883 H   0  0  0  0  0  0  0  0  0  0  0  0
   -3.7870    2.7371    0.3809 H   0  0  0  0  0  0  0  0  0  0  0  0
   -3.1750    1.3530    2.1056 H   0  0  0  0  0  0  0  0  0  0  0  0
   -1.8259    1.0129    1.1915 H   0  0  0  0  0  0  0  0  0  0  0  0
    3.4773   -2.5776    0.0041 H   0  0  0  0  0  0  0  0  0  0  0  0
    5.9118   -2.7571   -0.1238 H   0  0  0  0  0  0  0  0  0  0  0  0
    6.1308    1.5535    0.3727 H   0  0  0  0  0  0  0  0  0  0  0  0
    3.8030    1.6561    0.5719 H   0  0  0  0  0  0  0  0  0  0  0  0
    9.1718   -2.7059   -0.5890 H   0  0  0  0  0  0  0  0  0  0  0  0
    8.1114   -1.7226   -1.6125 H   0  0  0  0  0  0  0  0  0  0  0  0
    9.9522   -0.4945   -0.8760 H   0  0  0  0  0  0  0  0  0  0  0  0
   11.1277   -0.2795    1.1634 H   0  0  0  0  0  0  0  0  0  0  0  0
   10.2302   -1.5903    1.7269 H   0  0  0  0  0  0  0  0  0  0  0  0
    8.2001   -1.6151    2.4135 H   0  0  0  0  0  0  0  0  0  0  0  0
    7.1148   -0.2349    2.3807 H   0  0  0  0  0  0  0  0  0  0  0  0
    8.1504    2.0108    2.0572 H   0  0  0  0  0  0  0  0  0  0  0  0
    7.7454    1.5074   -0.4848 H   0  0  0  0  0  0  0  0  0  0  0  0
    8.1782    3.0986    0.0379 H   0  0  0  0  0  0  0  0  0  0  0  0
    9.8386    1.1215   -1.5384 H   0  0  0  0  0  0  0  0  0  0  0  0
    9.2550    2.6304   -1.9929 H   0  0  0  0  0  0  0  0  0  0  0  0
   11.6274    1.2436    0.4430 H   0  0  0  0  0  0  0  0  0  0  0  0
   12.1619    2.8138    0.8739 H   0  0  0  0  0  0  0  0  0  0  0  0
    9.9600    3.4693    1.7967 H   0  0  0  0  0  0  0  0  0  0  0  0
   10.6329    2.1113    2.6897 H   0  0  0  0  0  0  0  0  0  0  0  0
  1  2  1  0  0  0  0
  1 38  1  0  0  0  0
  1 39  1  0  0  0  0
  2  3  2  0  0  0  0
  2  7  1  0  0  0  0
  3  4  1  0  0  0  0
  4  5  2  0  0  0  0
  4 40  1  0  0  0  0
  5  6  1  0  0  0  0
  5 20  1  0  0  0  0
  6  7  2  0  0  0  0
  6 41  1  0  0  0  0
  7  8  1  0  0  0  0
  8  9  2  0  0  0  0
  8 10  1  0  0  0  0
 10 11  1  0  0  0  0
 10 42  1  0  0  0  0
 11 12  1  0  0  0  0
 11 17  1  0  0  0  0
 11 19  1  0  0  0  0
 12 13  1  0  0  0  0
 12 43  1  0  0  0  0
 12 44  1  0  0  0  0
 13 14  1  0  0  0  0
 13 45  1  0  0  0  0
 13 46  1  0  0  0  0
 14 15  1  0  0  0  0
 14 16  1  0  0  0  0
 14 18  1  0  0  0  0
 15 47  1  0  0  0  0
 16 17  1  0  0  0  0
 16 48  1  0  0  0  0
 16 49  1  0  0  0  0
 17 50  1  0  0  0  0
 17 51  1  0  0  0  0
 18 19  1  0  0  0  0
 18 52  1  0  0  0  0
 18 53  1  0  0  0  0
 19 54  1  0  0  0  0
 19 55  1  0  0  0  0
 20 21  2  0  0  0  0
 20 25  1  0  0  0  0
 21 22  1  0  0  0  0
 21 56  1  0  0  0  0
 22 23  2  0  0  0  0
 22 57  1  0  0  0  0
 23 24  1  0  0  0  0
 24 25  2  0  0  0  0
 24 58  1  0  0  0  0
 25 59  1  0  0  0  0
 26 27  1  0  0  0  0
 26 28  1  0  0  0  0
 26 31  1  0  0  0  0
 26 23  1  6  0  0  0
 27 60  1  0  0  0  0
 27 61  1  0  0  0  0
 28 27  1  0  0  0  0
 28 29  1  0  0  0  0
 28 62  1  6  0  0  0
 29 30  1  0  0  0  0
 29 63  1  0  0  0  0
 29 64  1  0  0  0  0
 30 31  1  0  0  0  0
 30 32  1  0  0  0  0
 31 65  1  0  0  0  0
 31 66  1  0  0  0  0
 32 33  1  0  0  0  0
 32 37  1  0  0  0  0
 32 67  1  0  0  0  0
 33 34  1  0  0  0  0
 33 68  1  0  0  0  0
 33 69  1  0  0  0  0
 34 35  1  0  0  0  0
 34 70  1  0  0  0  0
 34 71  1  0  0  0  0
 35 36  1  0  0  0  0
 36 37  1  0  0  0  0
 36 72  1  0  0  0  0
 36 73  1  0  0  0  0
 37 74  1  0  0  0  0
 37 75  1  0  0  0  0
M  END
>  <DRUGBANK_ID>
DB18152

>  <COMMON_NAME>
Zilurgisertib

>  <CAS_NUMBER>
2173389-57-4

>  <UNII>
L5Z9S25HO2

$$$$
