
 OpenBabel10282417213D

  1  0  0  0  0  0  0  0  0  0999 V2000
    1.0237   -0.0953   -0.0191 Cr  0  1  0  0  0  0  0  0  0  0  0  0
M  CHG  1   1   3
M  END
>  <DRUGBANK_ID>
DB14525

>  <COMMON_NAME>
Chromic cation

>  <CAS_NUMBER>
16065-83-1

>  <UNII>
X1N4508KF1

>  <SYNONYMS>
Chromic ion; Chromium (3+); Chromium cation (3+); Chromium cation (Cr3+); Chromium ion (3+); Chromium, ion (Cr3+); Chromium(III); Chromium(III) cation; Chromium(III) ion; Cr3+

$$$$
