
 OpenBabel10282417133D

 49 51  0  0  0  0  0  0  0  0999 V2000
    1.0331    0.1481   -0.3025 C   0  0  0  0  0  0  0  0  0  0  0  0
    0.5078    1.2262    0.5282 N   0  0  0  0  0  0  0  0  0  0  0  0
   -0.9609    1.2655    0.5075 C   0  0  0  0  0  0  0  0  0  0  0  0
   -1.6416    0.1436    1.2443 C   0  0  0  0  0  0  0  0  0  0  0  0
   -2.3801    0.3144    2.3491 C   0  0  0  0  0  0  0  0  0  0  0  0
    1.0905    1.3219    1.8874 C   0  0  0  0  0  0  0  0  0  0  0  0
    0.8372    0.1573    2.8238 C   0  0  0  0  0  0  0  0  0  0  0  0
    1.1156   -1.1504    2.4035 C   0  0  0  0  0  0  0  0  0  0  0  0
    0.6840   -2.2502    3.1096 C   0  0  0  0  0  0  0  0  0  0  0  0
    0.1578   -2.0714    4.3786 C   0  0  0  0  0  0  0  0  0  0  0  0
    0.0128   -0.7706    4.8891 C   0  0  0  0  0  0  0  0  0  0  0  0
    0.2772    0.3413    4.0925 C   0  0  0  0  0  0  0  0  0  0  0  0
   -0.1280   -3.2271    5.2040 C   0  0  0  0  0  0  0  0  0  0  0  0
    0.8648   -4.1970    5.3823 C   0  0  0  0  0  0  0  0  0  0  0  0
    0.6808   -5.2221    6.2920 C   0  0  0  0  0  0  0  0  0  0  0  0
   -0.4952   -5.2823    7.0447 C   0  0  0  0  0  0  0  0  0  0  0  0
   -1.4979   -4.3224    6.8567 C   0  0  0  0  0  0  0  0  0  0  0  0
   -1.3386   -3.3353    5.8925 C   0  0  0  0  0  0  0  0  0  0  0  0
   -0.7548   -6.3934    7.9962 C   0  0  0  0  0  0  0  0  0  0  0  0
   -1.8218   -6.4789    8.5803 O   0  0  0  0  0  0  0  0  0  0  0  0
    0.2623   -7.4410    8.2265 C   0  0  0  0  0  0  0  0  0  0  0  0
    1.5214   -7.0956    8.7280 C   0  0  0  0  0  0  0  0  0  0  0  0
    2.4607   -8.0923    8.9827 C   0  0  0  0  0  0  0  0  0  0  0  0
    2.1200   -9.4286    8.7748 C   0  0  0  0  0  0  0  0  0  0  0  0
    3.4081  -10.7759    9.0869 Br  0  0  0  0  0  0  0  0  0  0  0  0
    0.8504   -9.7782    8.3110 C   0  0  0  0  0  0  0  0  0  0  0  0
   -0.0714   -8.7782    7.9948 C   0  0  0  0  0  0  0  0  0  0  0  0
    0.8242    0.3091   -1.3624 H   0  0  0  0  0  0  0  0  0  0  0  0
    0.5709   -0.8176   -0.0775 H   0  0  0  0  0  0  0  0  0  0  0  0
    2.1208    0.0532   -0.1960 H   0  0  0  0  0  0  0  0  0  0  0  0
   -1.2865    2.2334    0.9064 H   0  0  0  0  0  0  0  0  0  0  0  0
   -1.3035    1.2474   -0.5345 H   0  0  0  0  0  0  0  0  0  0  0  0
   -1.4142   -0.8740    0.9346 H   0  0  0  0  0  0  0  0  0  0  0  0
   -2.6927   -0.5461    2.9331 H   0  0  0  0  0  0  0  0  0  0  0  0
   -2.5590    1.3022    2.7578 H   0  0  0  0  0  0  0  0  0  0  0  0
    2.1783    1.4483    1.8210 H   0  0  0  0  0  0  0  0  0  0  0  0
    0.7293    2.2541    2.3472 H   0  0  0  0  0  0  0  0  0  0  0  0
    1.6214   -1.3572    1.4747 H   0  0  0  0  0  0  0  0  0  0  0  0
    0.8021   -3.2371    2.6696 H   0  0  0  0  0  0  0  0  0  0  0  0
   -0.3037   -0.6269    5.9199 H   0  0  0  0  0  0  0  0  0  0  0  0
    0.0076    1.3290    4.4597 H   0  0  0  0  0  0  0  0  0  0  0  0
    1.8005   -4.1414    4.8277 H   0  0  0  0  0  0  0  0  0  0  0  0
    1.4866   -5.9387    6.3980 H   0  0  0  0  0  0  0  0  0  0  0  0
   -2.4038   -4.3321    7.4582 H   0  0  0  0  0  0  0  0  0  0  0  0
   -2.1479   -2.6364    5.6885 H   0  0  0  0  0  0  0  0  0  0  0  0
    1.7780   -6.0548    8.9100 H   0  0  0  0  0  0  0  0  0  0  0  0
    3.4438   -7.8171    9.3545 H   0  0  0  0  0  0  0  0  0  0  0  0
    0.5693  -10.8223    8.2007 H   0  0  0  0  0  0  0  0  0  0  0  0
   -1.0395   -9.0419    7.5738 H   0  0  0  0  0  0  0  0  0  0  0  0
  1  2  1  0  0  0  0
  1 28  1  0  0  0  0
  1 29  1  0  0  0  0
  1 30  1  0  0  0  0
  2  3  1  0  0  0  0
  2  6  1  0  0  0  0
  3  4  1  0  0  0  0
  3 31  1  0  0  0  0
  3 32  1  0  0  0  0
  4  5  2  0  0  0  0
  4 33  1  0  0  0  0
  5 34  1  0  0  0  0
  5 35  1  0  0  0  0
  6  7  1  0  0  0  0
  6 36  1  0  0  0  0
  6 37  1  0  0  0  0
  7  8  2  0  0  0  0
  7 12  1  0  0  0  0
  8  9  1  0  0  0  0
  8 38  1  0  0  0  0
  9 10  2  0  0  0  0
  9 39  1  0  0  0  0
 10 11  1  0  0  0  0
 10 13  1  0  0  0  0
 11 12  2  0  0  0  0
 11 40  1  0  0  0  0
 12 41  1  0  0  0  0
 13 14  2  0  0  0  0
 13 18  1  0  0  0  0
 14 15  1  0  0  0  0
 14 42  1  0  0  0  0
 15 16  2  0  0  0  0
 15 43  1  0  0  0  0
 16 17  1  0  0  0  0
 16 19  1  0  0  0  0
 17 18  2  0  0  0  0
 17 44  1  0  0  0  0
 18 45  1  0  0  0  0
 19 20  2  0  0  0  0
 19 21  1  0  0  0  0
 21 22  2  0  0  0  0
 21 27  1  0  0  0  0
 22 23  1  0  0  0  0
 22 46  1  0  0  0  0
 23 24  2  0  0  0  0
 23 47  1  0  0  0  0
 24 25  1  0  0  0  0
 24 26  1  0  0  0  0
 26 27  2  0  0  0  0
 26 48  1  0  0  0  0
 27 49  1  0  0  0  0
M  END
>  <DRUGBANK_ID>
DB03234

>  <SECONDARY_ACCESSION_NUMBERS>
EXPT02736

>  <COMMON_NAME>
(4'-{[Allyl(Methyl)Amino]Methyl}-1,1'-Biphenyl-4-Yl)(4-Bromophenyl)Methanone

$$$$
