
 OpenBabel10282417243D

 59 63  0  0  1  0  0  0  0  0999 V2000
    1.0107    0.0681    0.1500 N   0  0  0  0  0  0  0  0  0  0  0  0
    0.2511    1.1876   -0.1748 C   0  0  0  0  0  0  0  0  0  0  0  0
    0.6391    1.9625   -1.2094 N   0  0  0  0  0  0  0  0  0  0  0  0
   -0.0701    3.1077   -1.4575 C   0  0  0  0  0  0  0  0  0  0  0  0
   -1.1583    3.5538   -0.7159 C   0  0  0  0  0  0  0  0  0  0  0  0
   -1.5422    2.7479    0.3234 C   0  0  0  0  0  0  0  0  0  0  0  0
   -2.5862    2.8600    1.2650 N   0  0  0  0  0  0  0  0  0  0  0  0
   -3.6419    3.8330    1.4598 C   0  0  2  0  0  0  0  0  0  0  0  0
   -4.4876    4.2017    0.2300 C   0  0  0  0  0  0  0  0  0  0  0  0
   -4.2036    5.5809   -0.3461 C   0  0  0  0  0  0  0  0  0  0  0  0
   -4.1481    6.6032    0.7709 C   0  0  0  0  0  0  0  0  0  0  0  0
   -3.0550    6.2754    1.6682 N   0  0  0  0  0  0  0  0  0  0  0  0
   -3.3204    5.0281    2.3973 C   0  0  0  0  0  0  0  0  0  0  0  0
   -1.9019    6.9900    1.9328 C   0  0  0  0  0  0  0  0  0  0  0  0
   -1.0865    6.6104    2.7796 O   0  0  0  0  0  0  0  0  0  0  0  0
   -1.5437    8.2657    1.2191 C   0  0  0  0  0  0  0  0  0  0  0  0
   -2.1096    8.9745    0.2340 C   0  0  0  0  0  0  0  0  0  0  0  0
   -2.5257    1.7318    2.1327 C   0  0  0  0  0  0  0  0  0  0  0  0
   -3.2722    1.5064    3.0615 O   0  0  0  0  0  0  0  0  0  0  0  0
   -1.4429    0.9491    1.6950 N   0  0  0  0  0  0  0  0  0  0  0  0
   -1.0995   -0.2663    2.2867 C   0  0  0  0  0  0  0  0  0  0  0  0
   -2.0525   -1.2815    2.3092 C   0  0  0  0  0  0  0  0  0  0  0  0
   -1.8222   -2.4424    3.0382 C   0  0  0  0  0  0  0  0  0  0  0  0
   -0.7009   -2.5552    3.8647 C   0  0  0  0  0  0  0  0  0  0  0  0
   -0.4186   -3.6678    4.6431 O   0  0  0  0  0  0  0  0  0  0  0  0
   -1.1800   -4.8020    4.4376 C   0  0  0  0  0  0  0  0  0  0  0  0
   -1.2390   -5.4485    3.1971 C   0  0  0  0  0  0  0  0  0  0  0  0
   -2.1072   -6.5266    3.0133 C   0  0  0  0  0  0  0  0  0  0  0  0
   -2.9867   -6.8878    4.0324 C   0  0  0  0  0  0  0  0  0  0  0  0
   -2.9366   -6.2270    5.2594 C   0  0  0  0  0  0  0  0  0  0  0  0
   -1.9476   -5.2721    5.5002 C   0  0  0  0  0  0  0  0  0  0  0  0
    0.1973   -1.4837    3.9250 C   0  0  0  0  0  0  0  0  0  0  0  0
    0.0658   -0.3996    3.0446 C   0  0  0  0  0  0  0  0  0  0  0  0
   -0.8380    1.5594    0.5921 C   0  0  0  0  0  0  0  0  0  0  0  0
    0.4641   -0.7868    0.2032 H   0  0  0  0  0  0  0  0  0  0  0  0
    1.8711   -0.0197   -0.3702 H   0  0  0  0  0  0  0  0  0  0  0  0
    0.2849    3.6928   -2.3053 H   0  0  0  0  0  0  0  0  0  0  0  0
   -1.6340    4.4856   -0.9599 H   0  0  0  0  0  0  0  0  0  0  0  0
   -4.3623    3.2597    2.0580 H   0  0  0  0  0  0  0  0  0  0  0  0
   -4.4513    3.4312   -0.5459 H   0  0  0  0  0  0  0  0  0  0  0  0
   -5.5314    4.2363    0.5763 H   0  0  0  0  0  0  0  0  0  0  0  0
   -3.2672    5.5926   -0.9045 H   0  0  0  0  0  0  0  0  0  0  0  0
   -4.9893    5.8549   -1.0562 H   0  0  0  0  0  0  0  0  0  0  0  0
   -4.1131    7.5838    0.3477 H   0  0  0  0  0  0  0  0  0  0  0  0
   -5.0742    6.6140    1.3567 H   0  0  0  0  0  0  0  0  0  0  0  0
   -4.2424    5.2350    2.9632 H   0  0  0  0  0  0  0  0  0  0  0  0
   -2.5612    4.7886    3.1486 H   0  0  0  0  0  0  0  0  0  0  0  0
   -0.6027    8.6671    1.6053 H   0  0  0  0  0  0  0  0  0  0  0  0
   -1.6682    9.8970   -0.1247 H   0  0  0  0  0  0  0  0  0  0  0  0
   -3.0105    8.7340   -0.2939 H   0  0  0  0  0  0  0  0  0  0  0  0
   -2.9854   -1.1776    1.7622 H   0  0  0  0  0  0  0  0  0  0  0  0
   -2.5620   -3.2311    2.9646 H   0  0  0  0  0  0  0  0  0  0  0  0
   -0.6544   -5.0820    2.3580 H   0  0  0  0  0  0  0  0  0  0  0  0
   -2.1285   -7.0555    2.0644 H   0  0  0  0  0  0  0  0  0  0  0  0
   -3.7067   -7.6873    3.8750 H   0  0  0  0  0  0  0  0  0  0  0  0
   -3.6771   -6.4447    6.0247 H   0  0  0  0  0  0  0  0  0  0  0  0
   -1.8108   -4.8707    6.4993 H   0  0  0  0  0  0  0  0  0  0  0  0
    0.9863   -1.4627    4.6733 H   0  0  0  0  0  0  0  0  0  0  0  0
    0.8401    0.3627    3.0029 H   0  0  0  0  0  0  0  0  0  0  0  0
  1  2  1  0  0  0  0
  1 35  1  0  0  0  0
  1 36  1  0  0  0  0
  2  3  1  0  0  0  0
  2 34  2  0  0  0  0
  3  4  2  0  0  0  0
  4  5  1  0  0  0  0
  4 37  1  0  0  0  0
  5  6  2  0  0  0  0
  5 38  1  0  0  0  0
  6  7  1  0  0  0  0
  6 34  1  0  0  0  0
  7 18  1  0  0  0  0
  8  7  1  0  0  0  0
  8  9  1  0  0  0  0
  8 13  1  0  0  0  0
  8 39  1  1  0  0  0
  9 10  1  0  0  0  0
  9 40  1  0  0  0  0
  9 41  1  0  0  0  0
 10 11  1  0  0  0  0
 10 42  1  0  0  0  0
 10 43  1  0  0  0  0
 11 12  1  0  0  0  0
 11 44  1  0  0  0  0
 11 45  1  0  0  0  0
 12 13  1  0  0  0  0
 12 14  1  0  0  0  0
 13 46  1  0  0  0  0
 13 47  1  0  0  0  0
 14 15  2  0  0  0  0
 14 16  1  0  0  0  0
 16 17  2  0  0  0  0
 16 48  1  0  0  0  0
 17 49  1  0  0  0  0
 17 50  1  0  0  0  0
 18 19  2  0  0  0  0
 18 20  1  0  0  0  0
 20 21  1  0  0  0  0
 20 34  1  0  0  0  0
 21 22  2  0  0  0  0
 21 33  1  0  0  0  0
 22 23  1  0  0  0  0
 22 51  1  0  0  0  0
 23 24  2  0  0  0  0
 23 52  1  0  0  0  0
 24 25  1  0  0  0  0
 24 32  1  0  0  0  0
 25 26  1  0  0  0  0
 26 27  2  0  0  0  0
 26 31  1  0  0  0  0
 27 28  1  0  0  0  0
 27 53  1  0  0  0  0
 28 29  2  0  0  0  0
 28 54  1  0  0  0  0
 29 30  1  0  0  0  0
 29 55  1  0  0  0  0
 30 31  2  0  0  0  0
 30 56  1  0  0  0  0
 31 57  1  0  0  0  0
 32 33  2  0  0  0  0
 32 58  1  0  0  0  0
 33 59  1  0  0  0  0
M  END
>  <DRUGBANK_ID>
DB18715

>  <COMMON_NAME>
Tolebrutinib

>  <CAS_NUMBER>
1971920-73-6

>  <UNII>
8CZ82ZYY9X

>  <SYNONYMS>
2h-imidazo(4,5-c)pyridin-2-one, 4-amino-1,3-dihydro-1-((3r)-1-(1-oxo-2-propen-1-yl)-3-piperidinyl)-3-(4-phenoxyphenyl)-; 4-amino-1,3-dihydro-1-((3r)-1-(1-oxo-2-propen-1-yl)-3-piperidinyl)-3-(4-phenoxyphenyl)-2h-imidazo(4,5-c)pyridin-2-one

$$$$
