
 OpenBabel10282417123D

100106  0  0  1  0  0  0  0  0999 V2000
   -2.5115    0.8269   -1.6442 C   0  0  0  0  0  0  0  0  0  0  0  0
   -7.4340   -2.8404   -0.2854 C   0  0  0  0  0  0  0  0  0  0  0  0
   -8.2633   -2.9732   -1.5661 C   0  0  0  0  0  0  0  0  0  0  0  0
   -6.0652   -3.5027   -0.4776 C   0  0  0  0  0  0  0  0  0  0  0  0
   -8.4625   -4.4545   -1.9012 C   0  0  0  0  0  0  0  0  0  0  0  0
   -5.3136   -2.8488   -1.6376 C   0  0  0  0  0  0  0  0  0  0  0  0
   -9.2903   -5.1365   -0.8090 C   0  0  0  0  0  0  0  0  0  0  0  0
   -5.1228   -1.3604   -1.3698 C   0  0  0  0  0  0  0  0  0  0  0  0
  -10.6151   -4.4135   -0.5135 C   0  0  0  0  0  0  0  0  0  0  0  0
    1.6167   -2.2126    0.0242 C   0  0  0  0  0  0  0  0  0  0  0  0
    3.8583    1.4812    0.0645 C   0  0  0  0  0  0  0  0  0  0  0  0
    0.1542   -2.1387    0.4673 C   0  0  0  0  0  0  0  0  0  0  0  0
    2.4994    1.4989    0.3722 C   0  0  0  0  0  0  0  0  0  0  0  0
   -0.4406    1.7152    0.3924 C   0  0  0  0  0  0  0  0  0  0  0  0
   -1.9510    1.7105    0.6412 C   0  0  0  0  0  0  0  0  0  0  0  0
    3.7367   -0.9064   -0.2470 C   0  0  0  0  0  0  0  0  0  0  0  0
   -2.9140   -1.8063   -0.1991 C   0  0  0  0  0  0  0  0  0  0  0  0
  -11.7046   -4.2491   -4.0821 C   0  0  0  0  0  0  0  0  0  0  0  0
   -7.9132   -5.2576   -7.7548 C   0  0  0  0  0  0  0  0  0  0  0  0
   -8.4730   -8.8108   -5.2805 C   0  0  0  0  0  0  0  0  0  0  0  0
    2.3654   -0.9001    0.0645 C   0  0  0  0  0  0  0  0  0  0  0  0
   -4.3120   -1.1415   -0.0911 C   0  0  1  0  0  0  0  0  0  0  0  0
    4.4658    0.2769   -0.2500 C   0  0  0  0  0  0  0  0  0  0  0  0
    1.7268    0.3236    0.3509 C   0  0  0  0  0  0  0  0  0  0  0  0
    0.2420    0.3543    0.6821 C   0  0  2  0  0  0  0  0  0  0  0  0
   -0.4934   -0.8328   -0.0045 C   0  0  2  0  0  0  0  0  0  0  0  0
   -1.9757   -0.7521    0.3542 C   0  0  1  0  0  0  0  0  0  0  0  0
  -11.9964   -5.7312   -4.4325 C   0  0  2  0  0  0  0  0  0  0  0  0
  -11.5923   -4.2993   -1.6728 C   0  0  0  0  0  0  0  0  0  0  0  0
   -7.3159   -7.5671   -6.5669 C   0  0  0  0  0  0  0  0  0  0  0  0
  -11.9053   -6.7621   -3.3065 C   0  0  2  0  0  0  0  0  0  0  0  0
  -10.6634   -7.5678   -3.6034 C   0  0  2  0  0  0  0  0  0  0  0  0
   -4.0759    0.3313    0.2895 C   0  0  1  0  0  0  0  0  0  0  0  0
   -6.3611   -6.9391   -7.3803 C   0  0  0  0  0  0  0  0  0  0  0  0
   -8.5358   -6.9262   -6.4330 C   0  0  0  0  0  0  0  0  0  0  0  0
  -10.6137   -7.5278   -5.1135 C   0  0  2  0  0  0  0  0  0  0  0  0
   -2.6181    0.5713   -0.1200 C   0  0  2  0  0  0  0  0  0  0  0  0
   -5.1097   -7.4687   -7.5913 N   0  0  0  0  0  0  0  0  0  0  0  0
   -6.6839   -5.7686   -7.9762 N   0  0  0  0  0  0  0  0  0  0  0  0
   -8.8992   -5.7646   -6.9976 N   0  0  0  0  0  0  0  0  0  0  0  0
   -7.2862   -8.7403   -5.8418 N   0  0  0  0  0  0  0  0  0  0  0  0
   -9.2643   -7.7333   -5.6077 N   0  0  0  0  0  0  0  0  0  0  0  0
    5.7899    0.2189   -0.5692 O   0  0  0  0  0  0  0  0  0  0  0  0
  -12.7886   -4.4907   -1.5607 O   0  0  0  0  0  0  0  0  0  0  0  0
  -13.0534   -7.6167   -3.2619 O   0  0  0  0  0  0  0  0  0  0  0  0
  -10.7550   -8.8830   -3.0621 O   0  0  0  0  0  0  0  0  0  0  0  0
   -5.0081    1.2400   -0.2619 O   0  0  0  0  0  0  0  0  0  0  0  0
  -10.9683   -4.0619   -2.8593 O   0  0  0  0  0  0  0  0  0  0  0  0
  -11.1236   -6.2274   -5.4792 O   0  0  0  0  0  0  0  0  0  0  0  0
   -4.8400   -1.5754    0.7664 H   0  0  0  0  0  0  0  0  0  0  0  0
    0.1745    0.2012    1.7699 H   0  0  0  0  0  0  0  0  0  0  0  0
   -0.3753   -0.7752   -1.0955 H   0  0  0  0  0  0  0  0  0  0  0  0
   -2.0514   -0.8237    1.4514 H   0  0  0  0  0  0  0  0  0  0  0  0
  -12.9873   -5.7310   -4.8998 H   0  0  0  0  0  0  0  0  0  0  0  0
  -11.7856   -6.4014   -2.2995 H   0  0  0  0  0  0  0  0  0  0  0  0
   -9.7801   -7.0725   -3.1825 H   0  0  0  0  0  0  0  0  0  0  0  0
   -4.1761    0.4215    1.3800 H   0  0  0  0  0  0  0  0  0  0  0  0
  -11.2408   -8.3112   -5.5585 H   0  0  0  0  0  0  0  0  0  0  0  0
   -2.8588   -0.0165   -2.2410 H   0  0  0  0  0  0  0  0  0  0  0  0
   -3.1021    1.7022   -1.9341 H   0  0  0  0  0  0  0  0  0  0  0  0
   -1.4895    1.0061   -1.9790 H   0  0  0  0  0  0  0  0  0  0  0  0
   -7.9383   -3.2871    0.5765 H   0  0  0  0  0  0  0  0  0  0  0  0
   -7.3471   -1.7840   -0.0116 H   0  0  0  0  0  0  0  0  0  0  0  0
   -9.2115   -2.4414   -1.4454 H   0  0  0  0  0  0  0  0  0  0  0  0
   -7.7981   -2.4615   -2.4137 H   0  0  0  0  0  0  0  0  0  0  0  0
   -6.1519   -4.5760   -0.6636 H   0  0  0  0  0  0  0  0  0  0  0  0
   -5.4975   -3.4550    0.4549 H   0  0  0  0  0  0  0  0  0  0  0  0
   -8.9093   -4.5670   -2.8881 H   0  0  0  0  0  0  0  0  0  0  0  0
   -7.5121   -4.9795   -2.0340 H   0  0  0  0  0  0  0  0  0  0  0  0
   -5.8423   -2.9714   -2.5888 H   0  0  0  0  0  0  0  0  0  0  0  0
   -4.3571   -3.3550   -1.7916 H   0  0  0  0  0  0  0  0  0  0  0  0
   -9.4499   -6.1877   -1.0649 H   0  0  0  0  0  0  0  0  0  0  0  0
   -8.7036   -5.1702    0.1205 H   0  0  0  0  0  0  0  0  0  0  0  0
   -6.0874   -0.8472   -1.2911 H   0  0  0  0  0  0  0  0  0  0  0  0
   -4.6506   -0.9103   -2.2438 H   0  0  0  0  0  0  0  0  0  0  0  0
  -11.1133   -4.9702    0.2873 H   0  0  0  0  0  0  0  0  0  0  0  0
  -10.4525   -3.4061   -0.1219 H   0  0  0  0  0  0  0  0  0  0  0  0
    1.6484   -2.5856   -1.0072 H   0  0  0  0  0  0  0  0  0  0  0  0
    2.1344   -2.9458    0.6552 H   0  0  0  0  0  0  0  0  0  0  0  0
    4.4128    2.4135    0.0752 H   0  0  0  0  0  0  0  0  0  0  0  0
   -0.3805   -3.0137    0.0790 H   0  0  0  0  0  0  0  0  0  0  0  0
    0.0988   -2.2016    1.5621 H   0  0  0  0  0  0  0  0  0  0  0  0
    2.0563    2.4582    0.6224 H   0  0  0  0  0  0  0  0  0  0  0  0
   -0.0166    2.4943    1.0334 H   0  0  0  0  0  0  0  0  0  0  0  0
   -0.2311    2.0212   -0.6393 H   0  0  0  0  0  0  0  0  0  0  0  0
   -2.1256    1.5961    1.7196 H   0  0  0  0  0  0  0  0  0  0  0  0
   -2.3843    2.6744    0.3539 H   0  0  0  0  0  0  0  0  0  0  0  0
    4.2391   -1.8376   -0.4969 H   0  0  0  0  0  0  0  0  0  0  0  0
   -2.6530   -2.0468   -1.2364 H   0  0  0  0  0  0  0  0  0  0  0  0
   -2.8734   -2.7430    0.3684 H   0  0  0  0  0  0  0  0  0  0  0  0
  -12.6416   -3.6862   -4.0034 H   0  0  0  0  0  0  0  0  0  0  0  0
  -11.1236   -3.7677   -4.8827 H   0  0  0  0  0  0  0  0  0  0  0  0
   -8.1375   -4.3175   -8.2495 H   0  0  0  0  0  0  0  0  0  0  0  0
   -8.8040   -9.6044   -4.6190 H   0  0  0  0  0  0  0  0  0  0  0  0
   -4.8772   -8.3479   -7.1514 H   0  0  0  0  0  0  0  0  0  0  0  0
   -4.4755   -6.9800   -8.2003 H   0  0  0  0  0  0  0  0  0  0  0  0
    6.1529    1.1192   -0.5297 H   0  0  0  0  0  0  0  0  0  0  0  0
  -13.3063   -7.8783   -4.1611 H   0  0  0  0  0  0  0  0  0  0  0  0
  -11.7072   -9.1132   -3.0417 H   0  0  0  0  0  0  0  0  0  0  0  0
   -5.0391    1.1191   -1.2249 H   0  0  0  0  0  0  0  0  0  0  0  0
  1 59  1  0  0  0  0
  1 60  1  0  0  0  0
  1 61  1  0  0  0  0
  2 62  1  0  0  0  0
  2 63  1  0  0  0  0
  3  2  1  0  0  0  0
  3 64  1  0  0  0  0
  3 65  1  0  0  0  0
  4  2  1  0  0  0  0
  4 66  1  0  0  0  0
  4 67  1  0  0  0  0
  5  3  1  0  0  0  0
  5 68  1  0  0  0  0
  5 69  1  0  0  0  0
  6  4  1  0  0  0  0
  6 70  1  0  0  0  0
  6 71  1  0  0  0  0
  7  5  1  0  0  0  0
  7 72  1  0  0  0  0
  7 73  1  0  0  0  0
  8  6  1  0  0  0  0
  8 74  1  0  0  0  0
  8 75  1  0  0  0  0
  9  7  1  0  0  0  0
  9 76  1  0  0  0  0
  9 77  1  0  0  0  0
 10 78  1  0  0  0  0
 10 79  1  0  0  0  0
 11 80  1  0  0  0  0
 12 10  1  0  0  0  0
 12 81  1  0  0  0  0
 12 82  1  0  0  0  0
 13 11  1  0  0  0  0
 13 83  1  0  0  0  0
 14 84  1  0  0  0  0
 14 85  1  0  0  0  0
 15 14  1  0  0  0  0
 15 86  1  0  0  0  0
 15 87  1  0  0  0  0
 16 88  1  0  0  0  0
 17 89  1  0  0  0  0
 17 90  1  0  0  0  0
 18 91  1  0  0  0  0
 18 92  1  0  0  0  0
 19 93  1  0  0  0  0
 20 94  1  0  0  0  0
 21 10  1  0  0  0  0
 21 16  2  0  0  0  0
 22  8  1  0  0  0  0
 22 17  1  0  0  0  0
 22 50  1  1  0  0  0
 23 11  2  0  0  0  0
 23 16  1  0  0  0  0
 24 13  2  0  0  0  0
 24 21  1  0  0  0  0
 25 14  1  0  0  0  0
 25 24  1  0  0  0  0
 25 51  1  1  0  0  0
 26 12  1  0  0  0  0
 26 25  1  0  0  0  0
 26 52  1  6  0  0  0
 27 17  1  0  0  0  0
 27 26  1  0  0  0  0
 27 53  1  1  0  0  0
 28 18  1  0  0  0  0
 28 54  1  6  0  0  0
 29  9  1  0  0  0  0
 31 28  1  0  0  0  0
 31 45  1  0  0  0  0
 31 55  1  1  0  0  0
 32 31  1  0  0  0  0
 32 46  1  0  0  0  0
 32 56  1  1  0  0  0
 33 22  1  0  0  0  0
 33 47  1  0  0  0  0
 33 57  1  1  0  0  0
 34 30  2  0  0  0  0
 35 30  1  0  0  0  0
 36 32  1  0  0  0  0
 36 58  1  6  0  0  0
 36 42  1  0  0  0  0
 37  1  1  6  0  0  0
 37 15  1  0  0  0  0
 37 27  1  0  0  0  0
 37 33  1  0  0  0  0
 38 34  1  0  0  0  0
 38 95  1  0  0  0  0
 38 96  1  0  0  0  0
 39 19  2  0  0  0  0
 39 34  1  0  0  0  0
 40 19  1  0  0  0  0
 40 35  2  0  0  0  0
 41 20  2  0  0  0  0
 41 30  1  0  0  0  0
 42 20  1  0  0  0  0
 42 35  1  0  0  0  0
 43 23  1  0  0  0  0
 43 97  1  0  0  0  0
 44 29  2  0  0  0  0
 45 98  1  0  0  0  0
 46 99  1  0  0  0  0
 47100  1  0  0  0  0
 48 18  1  0  0  0  0
 48 29  1  0  0  0  0
 49 28  1  0  0  0  0
 49 36  1  0  0  0  0
M  END
>  <DRUGBANK_ID>
DB02323

>  <SECONDARY_ACCESSION_NUMBERS>
EXPT01802

>  <COMMON_NAME>
EM-1745

$$$$
