
 OpenBabel10282417183D

  4  3  0  0  0  0  0  0  0  0999 V2000
    0.9624    0.0987    0.1425 O   0  0  0  0  0  0  0  0  0  0  0  0
    0.5836   -0.3437   -1.1891 O   0  0  0  0  0  0  0  0  0  0  0  0
    1.9277    0.0530    0.0050 H   0  0  0  0  0  0  0  0  0  0  0  0
   -0.3818   -0.2981   -1.0516 H   0  0  0  0  0  0  0  0  0  0  0  0
  1  2  1  0  0  0  0
  1  3  1  0  0  0  0
  2  4  1  0  0  0  0
M  END
>  <DRUGBANK_ID>
DB11091

>  <COMMON_NAME>
Hydrogen peroxide

>  <CAS_NUMBER>
7722-84-1

>  <UNII>
BBX060AN9V

>  <SYNONYMS>
Hydrogen peroxide

$$$$
