
 OpenBabel10282417163D

 37 39  0  0  0  0  0  0  0  0999 V2000
    1.0543    0.1064   -0.0191 S   0  0  0  0  0  0  0  0  0  0  0  0
   11.2822    2.3618   -1.1453 S   0  0  0  0  0  0  0  0  0  0  0  0
    7.8739    0.6417    0.5852 O   0  0  0  0  0  0  0  0  0  0  0  0
    0.6567    0.6632    1.2508 O   0  0  0  0  0  0  0  0  0  0  0  0
    0.5909    0.6739   -1.2705 O   0  0  0  0  0  0  0  0  0  0  0  0
   12.7445    1.8661    2.3441 O   0  0  0  0  0  0  0  0  0  0  0  0
    0.5355   -1.5089   -0.0235 N   0  0  0  0  0  0  0  0  0  0  0  0
   13.2025    3.0025    0.4088 N   0  0  0  0  0  0  0  0  0  0  0  0
   13.1733    4.1757   -1.6038 N   0  0  0  0  0  0  0  0  0  0  0  0
    5.6463    0.1201   -0.2384 C   0  0  0  0  0  0  0  0  0  0  0  0
    2.8321    0.0725   -0.0896 C   0  0  0  0  0  0  0  0  0  0  0  0
    7.0933    0.0753   -0.3852 C   0  0  0  0  0  0  0  0  0  0  0  0
    4.9442   -1.0913   -0.2497 C   0  0  0  0  0  0  0  0  0  0  0  0
    4.9180    1.3145   -0.1923 C   0  0  0  0  0  0  0  0  0  0  0  0
    3.5499   -1.1158   -0.2158 C   0  0  0  0  0  0  0  0  0  0  0  0
    3.5188    1.2920   -0.0585 C   0  0  0  0  0  0  0  0  0  0  0  0
    9.2023    0.4177    0.2507 C   0  0  0  0  0  0  0  0  0  0  0  0
    7.8844   -0.5429   -1.3235 C   0  0  0  0  0  0  0  0  0  0  0  0
    9.2144   -0.3375   -0.9174 C   0  0  0  0  0  0  0  0  0  0  0  0
   10.3250    0.8905    0.9945 C   0  0  0  0  0  0  0  0  0  0  0  0
   11.2617    1.6816    0.4485 C   0  0  0  0  0  0  0  0  0  0  0  0
    0.8482   -2.3153    1.1617 C   0  0  0  0  0  0  0  0  0  0  0  0
   12.4640    2.1570    1.1977 C   0  0  0  0  0  0  0  0  0  0  0  0
   12.6934    3.3009   -0.8043 C   0  0  0  0  0  0  0  0  0  0  0  0
   -0.4610   -1.5116   -0.2608 H   0  0  0  0  0  0  0  0  0  0  0  0
   14.0344    3.4275    0.7822 H   0  0  0  0  0  0  0  0  0  0  0  0
   13.9867    4.6412   -1.2012 H   0  0  0  0  0  0  0  0  0  0  0  0
    5.4828   -2.0347   -0.3168 H   0  0  0  0  0  0  0  0  0  0  0  0
    5.4271    2.2699   -0.2999 H   0  0  0  0  0  0  0  0  0  0  0  0
    3.0667   -2.0807   -0.3052 H   0  0  0  0  0  0  0  0  0  0  0  0
    2.9695    2.2267    0.0421 H   0  0  0  0  0  0  0  0  0  0  0  0
    7.5307   -1.0800   -2.1911 H   0  0  0  0  0  0  0  0  0  0  0  0
   10.1035   -0.6830   -1.4258 H   0  0  0  0  0  0  0  0  0  0  0  0
   10.4147    0.5715    2.0306 H   0  0  0  0  0  0  0  0  0  0  0  0
    0.4144   -1.8797    2.0606 H   0  0  0  0  0  0  0  0  0  0  0  0
    0.4458   -3.3220    1.0186 H   0  0  0  0  0  0  0  0  0  0  0  0
    1.9209   -2.4263    1.3096 H   0  0  0  0  0  0  0  0  0  0  0  0
  1  4  2  0  0  0  0
  1  5  2  0  0  0  0
  1  7  1  0  0  0  0
  1 11  1  0  0  0  0
  2 21  1  0  0  0  0
  2 24  1  0  0  0  0
  3 12  1  0  0  0  0
  3 17  1  0  0  0  0
  6 23  2  0  0  0  0
  7 22  1  0  0  0  0
  7 25  1  0  0  0  0
  8 23  1  0  0  0  0
  8 24  1  0  0  0  0
  8 26  1  0  0  0  0
  9 24  2  0  0  0  0
  9 27  1  0  0  0  0
 10 12  1  0  0  0  0
 10 13  2  0  0  0  0
 10 14  1  0  0  0  0
 11 15  2  0  0  0  0
 11 16  1  0  0  0  0
 12 18  2  0  0  0  0
 13 15  1  0  0  0  0
 13 28  1  0  0  0  0
 14 16  2  0  0  0  0
 14 29  1  0  0  0  0
 15 30  1  0  0  0  0
 16 31  1  0  0  0  0
 17 19  2  0  0  0  0
 17 20  1  0  0  0  0
 18 19  1  0  0  0  0
 18 32  1  0  0  0  0
 19 33  1  0  0  0  0
 20 21  2  0  0  0  0
 20 34  1  0  0  0  0
 21 23  1  0  0  0  0
 22 35  1  0  0  0  0
 22 36  1  0  0  0  0
 22 37  1  0  0  0  0
M  END
>  <DRUGBANK_ID>
DB07533

>  <COMMON_NAME>
4-{5-[(Z)-(2-Imino-4-Oxo-1,3-Thiazolidin-5-Ylidene)methyl]-2-Furyl}-N-Methylbenzenesulfonamide

$$$$
