
 OpenBabel10282417193D

 79 83  0  0  0  0  0  0  0  0999 V2000
    2.6012    0.1886   -0.1283 C   0  0  0  0  0  0  0  0  0  0  0  0
    1.2319    0.2777   -0.6776 N   0  0  0  0  0  0  0  0  0  0  0  0
    0.5609   -0.9484   -0.2553 C   0  0  0  0  0  0  0  0  0  0  0  0
   -0.9552   -1.0215   -0.5122 C   0  0  0  0  0  0  0  0  0  0  0  0
   -1.7203    0.0393    0.1505 N   0  0  0  0  0  0  0  0  0  0  0  0
   -1.0624    1.3271   -0.2090 C   0  0  0  0  0  0  0  0  0  0  0  0
    0.4957    1.4141   -0.0556 C   0  0  0  0  0  0  0  0  0  0  0  0
   -2.0315   -0.1442    1.5969 C   0  0  0  0  0  0  0  0  0  0  0  0
   -0.8479   -0.2499    2.5681 C   0  0  0  0  0  0  0  0  0  0  0  0
   -0.2563   -1.6494    2.5738 C   0  0  0  0  0  0  0  0  0  0  0  0
   -1.2876   -2.5544    3.0363 N   0  0  0  0  0  0  0  0  0  0  0  0
   -2.3681   -2.7213    2.0729 C   0  0  0  0  0  0  0  0  0  0  0  0
   -3.0145   -1.3248    1.9299 C   0  0  0  0  0  0  0  0  0  0  0  0
   -0.7137   -3.5351    3.7812 C   0  0  0  0  0  0  0  0  0  0  0  0
   -0.5175   -4.8656    3.4189 C   0  0  0  0  0  0  0  0  0  0  0  0
    0.1161   -5.7244    4.3189 C   0  0  0  0  0  0  0  0  0  0  0  0
    0.6338   -5.2897    5.5689 C   0  0  0  0  0  0  0  0  0  0  0  0
    0.6258   -3.8928    5.7826 C   0  0  0  0  0  0  0  0  0  0  0  0
   -0.1350   -3.0959    4.9703 C   0  0  0  0  0  0  0  0  0  0  0  0
    1.3467   -3.0572    6.5921 O   0  0  0  0  0  0  0  0  0  0  0  0
    2.4535   -3.6071    7.2294 C   0  0  0  0  0  0  0  0  0  0  0  0
    0.9293   -6.3071    6.5083 N   0  0  0  0  0  0  0  0  0  0  0  0
    1.2157   -6.2216    7.8722 C   0  0  0  0  0  0  0  0  0  0  0  0
    0.3696   -5.5635    8.6904 N   0  0  0  0  0  0  0  0  0  0  0  0
    0.8794   -5.0532    9.8372 C   0  0  0  0  0  0  0  0  0  0  0  0
    2.2007   -5.1811   10.1971 C   0  0  0  0  0  0  0  0  0  0  0  0
    2.9967   -5.9177    9.3128 C   0  0  0  0  0  0  0  0  0  0  0  0
    2.4774   -6.5257    8.2188 N   0  0  0  0  0  0  0  0  0  0  0  0
    4.3871   -5.9816    9.4941 N   0  0  0  0  0  0  0  0  0  0  0  0
    5.3158   -6.8051    8.8267 C   0  0  0  0  0  0  0  0  0  0  0  0
    5.8910   -6.2680    7.6602 C   0  0  0  0  0  0  0  0  0  0  0  0
    6.8246   -6.9910    6.9322 C   0  0  0  0  0  0  0  0  0  0  0  0
    7.2564   -8.2233    7.4106 C   0  0  0  0  0  0  0  0  0  0  0  0
    6.7602   -8.7363    8.6174 C   0  0  0  0  0  0  0  0  0  0  0  0
    5.7723   -8.0562    9.3544 C   0  0  0  0  0  0  0  0  0  0  0  0
    4.9582   -8.9097   10.7535 P   0  0  0  0  0  0  0  0  0  0  0  0
    6.3223   -9.3119   11.3665 O   0  0  0  0  0  0  0  0  0  0  0  0
    4.4691   -7.3757   11.7462 C   0  0  0  0  0  0  0  0  0  0  0  0
    4.1441   -9.7633   12.1527 C   0  0  0  0  0  0  0  0  0  0  0  0
    2.8092   -4.3455   11.5748 Cl  0  0  0  0  0  0  0  0  0  0  0  0
    3.2059    1.0363   -0.4458 H   0  0  0  0  0  0  0  0  0  0  0  0
    2.6162    0.1421    0.9727 H   0  0  0  0  0  0  0  0  0  0  0  0
    3.0872   -0.7309   -0.4821 H   0  0  0  0  0  0  0  0  0  0  0  0
    1.0380   -1.8764   -0.5886 H   0  0  0  0  0  0  0  0  0  0  0  0
    0.7710   -0.8899    0.7967 H   0  0  0  0  0  0  0  0  0  0  0  0
   -1.1278   -0.9684   -1.5933 H   0  0  0  0  0  0  0  0  0  0  0  0
   -1.3456   -1.9985   -0.2462 H   0  0  0  0  0  0  0  0  0  0  0  0
   -1.2726    1.4900   -1.2759 H   0  0  0  0  0  0  0  0  0  0  0  0
   -1.5440    2.1640    0.3096 H   0  0  0  0  0  0  0  0  0  0  0  0
    0.7401    1.4930    1.0075 H   0  0  0  0  0  0  0  0  0  0  0  0
    0.8533    2.3493   -0.4952 H   0  0  0  0  0  0  0  0  0  0  0  0
   -2.5862    0.7630    1.8839 H   0  0  0  0  0  0  0  0  0  0  0  0
   -0.0957    0.5139    2.3974 H   0  0  0  0  0  0  0  0  0  0  0  0
   -1.2023   -0.0299    3.5859 H   0  0  0  0  0  0  0  0  0  0  0  0
    0.0137   -2.1253    1.6383 H   0  0  0  0  0  0  0  0  0  0  0  0
    0.6943   -1.6207    3.1262 H   0  0  0  0  0  0  0  0  0  0  0  0
   -3.1018   -3.4406    2.4452 H   0  0  0  0  0  0  0  0  0  0  0  0
   -2.0097   -3.1274    1.1246 H   0  0  0  0  0  0  0  0  0  0  0  0
   -3.4329   -1.0976    2.9249 H   0  0  0  0  0  0  0  0  0  0  0  0
   -3.8646   -1.3432    1.2435 H   0  0  0  0  0  0  0  0  0  0  0  0
   -0.8490   -5.2191    2.4492 H   0  0  0  0  0  0  0  0  0  0  0  0
    0.1978   -6.7761    4.0362 H   0  0  0  0  0  0  0  0  0  0  0  0
   -0.2193   -2.0297    5.2102 H   0  0  0  0  0  0  0  0  0  0  0  0
    1.9954   -4.0921    8.0439 H   0  0  0  0  0  0  0  0  0  0  0  0
    3.0531   -4.2836    6.6150 H   0  0  0  0  0  0  0  0  0  0  0  0
    3.0714   -2.8724    7.7452 H   0  0  0  0  0  0  0  0  0  0  0  0
    1.3271   -7.1456    6.1064 H   0  0  0  0  0  0  0  0  0  0  0  0
    0.2088   -4.3876   10.3757 H   0  0  0  0  0  0  0  0  0  0  0  0
    4.7889   -5.2847   10.1179 H   0  0  0  0  0  0  0  0  0  0  0  0
    5.5714   -5.2931    7.2962 H   0  0  0  0  0  0  0  0  0  0  0  0
    7.2076   -6.5913    5.9970 H   0  0  0  0  0  0  0  0  0  0  0  0
    7.9819   -8.7942    6.8371 H   0  0  0  0  0  0  0  0  0  0  0  0
    7.1451   -9.6864    8.9835 H   0  0  0  0  0  0  0  0  0  0  0  0
    3.3953   -7.2489   11.5689 H   0  0  0  0  0  0  0  0  0  0  0  0
    4.6362   -7.4468   12.8205 H   0  0  0  0  0  0  0  0  0  0  0  0
    5.1052   -6.5514   11.4710 H   0  0  0  0  0  0  0  0  0  0  0  0
    4.7904  -10.5425   12.5752 H   0  0  0  0  0  0  0  0  0  0  0  0
    3.7695   -9.1833   12.9993 H   0  0  0  0  0  0  0  0  0  0  0  0
    3.2761  -10.2878   11.7366 H   0  0  0  0  0  0  0  0  0  0  0  0
  1  2  1  0  0  0  0
  1 41  1  0  0  0  0
  1 42  1  0  0  0  0
  1 43  1  0  0  0  0
  2  3  1  0  0  0  0
  2  7  1  0  0  0  0
  3  4  1  0  0  0  0
  3 44  1  0  0  0  0
  3 45  1  0  0  0  0
  4  5  1  0  0  0  0
  4 46  1  0  0  0  0
  4 47  1  0  0  0  0
  5  6  1  0  0  0  0
  5  8  1  0  0  0  0
  6  7  1  0  0  0  0
  6 48  1  0  0  0  0
  6 49  1  0  0  0  0
  7 50  1  0  0  0  0
  7 51  1  0  0  0  0
  8  9  1  0  0  0  0
  8 13  1  0  0  0  0
  8 52  1  0  0  0  0
  9 10  1  0  0  0  0
  9 53  1  0  0  0  0
  9 54  1  0  0  0  0
 10 11  1  0  0  0  0
 10 55  1  0  0  0  0
 10 56  1  0  0  0  0
 11 12  1  0  0  0  0
 11 14  1  0  0  0  0
 12 13  1  0  0  0  0
 12 57  1  0  0  0  0
 12 58  1  0  0  0  0
 13 59  1  0  0  0  0
 13 60  1  0  0  0  0
 14 15  2  0  0  0  0
 14 19  1  0  0  0  0
 15 16  1  0  0  0  0
 15 61  1  0  0  0  0
 16 17  2  0  0  0  0
 16 62  1  0  0  0  0
 17 18  1  0  0  0  0
 17 22  1  0  0  0  0
 18 19  2  0  0  0  0
 18 20  1  0  0  0  0
 19 63  1  0  0  0  0
 20 21  1  0  0  0  0
 21 64  1  0  0  0  0
 21 65  1  0  0  0  0
 21 66  1  0  0  0  0
 22 23  1  0  0  0  0
 22 67  1  0  0  0  0
 23 24  2  0  0  0  0
 23 28  1  0  0  0  0
 24 25  1  0  0  0  0
 25 26  2  0  0  0  0
 25 68  1  0  0  0  0
 26 27  1  0  0  0  0
 26 40  1  0  0  0  0
 27 28  2  0  0  0  0
 27 29  1  0  0  0  0
 29 30  1  0  0  0  0
 29 69  1  0  0  0  0
 30 31  2  0  0  0  0
 30 35  1  0  0  0  0
 31 32  1  0  0  0  0
 31 70  1  0  0  0  0
 32 33  2  0  0  0  0
 32 71  1  0  0  0  0
 33 34  1  0  0  0  0
 33 72  1  0  0  0  0
 34 35  2  0  0  0  0
 34 73  1  0  0  0  0
 35 36  1  0  0  0  0
 36 37  2  0  0  0  0
 36 38  1  0  0  0  0
 36 39  1  0  0  0  0
 38 74  1  0  0  0  0
 38 75  1  0  0  0  0
 38 76  1  0  0  0  0
 39 77  1  0  0  0  0
 39 78  1  0  0  0  0
 39 79  1  0  0  0  0
M  END
>  <DRUGBANK_ID>
DB12267

>  <COMMON_NAME>
Brigatinib

>  <CAS_NUMBER>
1197953-54-0

>  <UNII>
HYW8DB273J

>  <SYNONYMS>
Brigatinib

$$$$
