
 OpenBabel10282417213D

 54 57  0  0  1  0  0  0  0  0999 V2000
   -2.7531   -0.6306    3.3956 C   0  0  0  0  0  0  0  0  0  0  0  0
   -1.5579   -1.3285    2.1122 C   0  0  2  0  0  0  0  0  0  0  0  0
   -2.2250   -1.1991    0.7795 C   0  0  0  0  0  0  0  0  0  0  0  0
   -3.5689   -1.7404    0.9001 C   0  0  1  0  0  0  0  0  0  0  0  0
   -3.3884   -3.0876    1.6033 C   0  0  1  0  0  0  0  0  0  0  0  0
   -2.8903   -3.1832    3.0515 C   0  0  2  0  0  0  0  0  0  0  0  0
   -1.3843   -1.9473    3.3792 C   0  0  2  0  0  0  0  0  0  0  0  0
   -0.6754   -0.0418    3.1062 C   0  0  0  0  0  0  0  0  0  0  0  0
    0.1515    0.1279    1.8019 C   0  0  2  0  0  0  0  0  0  0  0  0
    0.1697   -1.3088    1.9160 C   0  0  2  0  0  0  0  0  0  0  0  0
    0.9221   -2.1103    0.8883 C   0  0  0  0  0  0  0  0  0  0  0  0
    1.0562   -3.3343    0.9184 O   0  0  0  0  0  0  0  0  0  0  0  0
    1.8255   -1.3483   -0.0093 C   0  0  0  0  0  0  0  0  0  0  0  0
    1.1350   -0.4044   -0.7922 O   0  0  0  0  0  0  0  0  0  0  0  0
    1.0216   -1.6002    3.1224 O   0  0  0  0  0  0  0  0  0  0  0  0
    1.3638    0.8308    1.8783 O   0  0  0  0  0  0  0  0  0  0  0  0
   -3.0932   -4.9576    3.0171 C   0  0  0  0  0  0  0  0  0  0  0  0
   -4.6005   -5.5645    2.1653 C   0  0  1  0  0  0  0  0  0  0  0  0
   -5.2520   -5.2164    0.4761 C   0  0  0  0  0  0  0  0  0  0  0  0
   -5.2994   -5.2386   -1.1010 C   0  0  0  0  0  0  0  0  0  0  0  0
   -3.9907   -4.9091   -2.2418 C   0  0  0  0  0  0  0  0  0  0  0  0
   -3.2638   -5.5176   -3.0587 O   0  0  0  0  0  0  0  0  0  0  0  0
   -3.1528   -4.9213   -1.2015 C   0  0  0  0  0  0  0  0  0  0  0  0
   -3.4333   -4.4205    0.0547 C   0  0  0  0  0  0  0  0  0  0  0  0
   -4.5439   -3.9055    0.7989 C   0  0  2  0  0  0  0  0  0  0  0  0
   -5.9448   -3.1881    0.9218 C   0  0  0  0  0  0  0  0  0  0  0  0
   -4.7137   -6.8979    2.4206 F   0  0  0  0  0  0  0  0  0  0  0  0
   -1.4033   -3.8614    1.1540 Cl  0  0  0  0  0  0  0  0  0  0  0  0
   -4.8039   -0.5852    1.5452 Cl  0  0  0  0  0  0  0  0  0  0  0  0
   -3.5947   -1.2474    3.6807 H   0  0  0  0  0  0  0  0  0  0  0  0
   -3.1602    0.3208    3.0753 H   0  0  0  0  0  0  0  0  0  0  0  0
   -2.2732   -0.4583    4.4093 H   0  0  0  0  0  0  0  0  0  0  0  0
   -2.2680   -0.1842    0.3975 H   0  0  0  0  0  0  0  0  0  0  0  0
   -1.7034   -1.7639   -0.0075 H   0  0  0  0  0  0  0  0  0  0  0  0
   -3.9388   -1.8776   -0.1156 H   0  0  0  0  0  0  0  0  0  0  0  0
   -3.5812   -3.0024    3.8816 H   0  0  0  0  0  0  0  0  0  0  0  0
   -0.5920   -2.6778    3.5657 H   0  0  0  0  0  0  0  0  0  0  0  0
   -0.3962    0.8667    3.6893 H   0  0  0  0  0  0  0  0  0  0  0  0
   -1.4938    0.6502    2.8321 H   0  0  0  0  0  0  0  0  0  0  0  0
   -0.4051    0.5086    0.9330 H   0  0  0  0  0  0  0  0  0  0  0  0
    2.5650   -0.8754    0.6462 H   0  0  0  0  0  0  0  0  0  0  0  0
    2.3239   -2.0791   -0.6411 H   0  0  0  0  0  0  0  0  0  0  0  0
    0.4017   -0.8631   -1.2348 H   0  0  0  0  0  0  0  0  0  0  0  0
    1.8728   -1.1472    3.0473 H   0  0  0  0  0  0  0  0  0  0  0  0
    1.7966    0.6915    2.7275 H   0  0  0  0  0  0  0  0  0  0  0  0
   -2.3104   -5.5524    2.5207 H   0  0  0  0  0  0  0  0  0  0  0  0
   -2.9980   -5.3379    4.0462 H   0  0  0  0  0  0  0  0  0  0  0  0
   -5.3372   -5.0782    2.8330 H   0  0  0  0  0  0  0  0  0  0  0  0
   -6.0618   -4.8125   -1.8048 H   0  0  0  0  0  0  0  0  0  0  0  0
   -3.1856   -6.0133   -1.0345 H   0  0  0  0  0  0  0  0  0  0  0  0
   -2.9699   -5.2991    0.5673 H   0  0  0  0  0  0  0  0  0  0  0  0
   -6.1507   -2.8733    1.9633 H   0  0  0  0  0  0  0  0  0  0  0  0
   -6.0213   -2.3630    0.2241 H   0  0  0  0  0  0  0  0  0  0  0  0
   -6.8512   -3.7860    0.7139 H   0  0  0  0  0  0  0  0  0  0  0  0
  1 30  1  0  0  0  0
  1 31  1  0  0  0  0
  1 32  1  0  0  0  0
  2  1  1  1  0  0  0
  2  3  1  0  0  0  0
  2  7  1  0  0  0  0
  2 10  1  0  0  0  0
  3  4  1  0  0  0  0
  3 33  1  0  0  0  0
  3 34  1  0  0  0  0
  4  5  1  0  0  0  0
  4 29  1  0  0  0  0
  4 35  1  6  0  0  0
  5  6  1  0  0  0  0
  5 25  1  0  0  0  0
  5 28  1  6  0  0  0
  6  7  1  0  0  0  0
  6 17  1  0  0  0  0
  6 36  1  1  0  0  0
  7  8  1  0  0  0  0
  7 37  1  6  0  0  0
  8  9  1  0  0  0  0
  8 38  1  0  0  0  0
  8 39  1  0  0  0  0
  9 10  1  0  0  0  0
  9 16  1  0  0  0  0
  9 40  1  6  0  0  0
 10 15  1  1  0  0  0
 10 11  1  0  0  0  0
 11 12  2  0  0  0  0
 11 13  1  0  0  0  0
 13 14  1  0  0  0  0
 13 41  1  0  0  0  0
 13 42  1  0  0  0  0
 14 43  1  0  0  0  0
 15 44  1  0  0  0  0
 16 45  1  0  0  0  0
 17 18  1  0  0  0  0
 17 46  1  0  0  0  0
 17 47  1  0  0  0  0
 18 19  1  0  0  0  0
 18 27  1  0  0  0  0
 18 48  1  1  0  0  0
 19 20  2  0  0  0  0
 19 25  1  0  0  0  0
 20 21  1  0  0  0  0
 20 49  1  0  0  0  0
 21 22  2  0  0  0  0
 21 23  1  0  0  0  0
 23 24  2  0  0  0  0
 23 50  1  0  0  0  0
 24 25  1  0  0  0  0
 24 51  1  0  0  0  0
 25 26  1  6  0  0  0
 26 52  1  0  0  0  0
 26 53  1  0  0  0  0
 26 54  1  0  0  0  0
M  END
>  <DRUGBANK_ID>
DB13856

>  <COMMON_NAME>
Fluclorolone

>  <CAS_NUMBER>
3693-38-7

>  <UNII>
036B9W83KK

$$$$
