R6C
 OpenBabel10282417143D

 51 53  0  0  0  0  0  0  0  0999 V2000
    0.8080   -0.0610   -0.0448 O   0  0  0  0  0  0  0  0  0  0  0  0
    0.3633   -1.2391   -0.7487 C   0  0  0  0  0  0  0  0  0  0  0  0
    0.8912   -1.2830   -2.2055 C   0  0  1  0  0  0  0  0  0  0  0  0
    2.4283   -1.1577   -2.2495 C   0  0  0  0  0  0  0  0  0  0  0  0
    3.0887   -2.3444   -1.5664 C   0  0  0  0  0  0  0  0  0  0  0  0
    0.4148   -2.3724   -3.0872 N   0  0  0  0  0  0  0  0  0  0  0  0
   -0.3603   -2.1257   -4.2314 C   0  0  0  0  0  0  0  0  0  0  0  0
   -1.5051   -2.8105   -4.3809 N   0  0  0  0  0  0  0  0  0  0  0  0
   -2.1914   -2.4785   -5.5053 C   0  0  0  0  0  0  0  0  0  0  0  0
   -3.3698   -3.0047   -5.9802 N   0  0  0  0  0  0  0  0  0  0  0  0
   -4.1502   -4.0783   -5.3885 C   0  0  0  0  0  0  0  0  0  0  0  0
   -3.3372   -5.3667   -5.2969 C   0  0  0  0  0  0  0  0  0  0  0  0
   -4.7146   -3.6654   -4.0327 C   0  0  0  0  0  0  0  0  0  0  0  0
   -3.6838   -2.3600   -7.1499 C   0  0  0  0  0  0  0  0  0  0  0  0
   -1.8549   -1.5182   -6.4447 C   0  0  0  0  0  0  0  0  0  0  0  0
   -2.8076   -1.4294   -7.4419 N   0  0  0  0  0  0  0  0  0  0  0  0
    0.1068   -1.2594   -5.1569 N   0  0  0  0  0  0  0  0  0  0  0  0
   -0.6619   -0.8500   -6.2089 C   0  0  0  0  0  0  0  0  0  0  0  0
   -0.3242    0.2434   -6.9901 O   0  0  0  0  0  0  0  0  0  0  0  0
    0.8558    0.9972   -6.6701 C   0  0  0  0  0  0  0  0  0  0  0  0
    0.7587    1.9041   -5.4522 C   0  0  0  0  0  0  0  0  0  0  0  0
    0.8212    3.2941   -5.4500 C   0  0  0  0  0  0  0  0  0  0  0  0
    0.7765    4.0053   -4.2287 C   0  0  0  0  0  0  0  0  0  0  0  0
    0.5979    3.3716   -3.0066 C   0  0  0  0  0  0  0  0  0  0  0  0
    0.5120    2.0038   -2.9984 C   0  0  0  0  0  0  0  0  0  0  0  0
    0.6876    1.3333   -4.2007 C   0  0  0  0  0  0  0  0  0  0  0  0
    0.4561   -0.3824   -2.5703 H   0  0  0  0  0  0  0  0  0  0  0  0
    1.7781   -0.0715    0.0394 H   0  0  0  0  0  0  0  0  0  0  0  0
    0.6516   -2.1097   -0.1602 H   0  0  0  0  0  0  0  0  0  0  0  0
   -0.7278   -1.1754   -0.7534 H   0  0  0  0  0  0  0  0  0  0  0  0
    2.7858   -1.0747   -3.2825 H   0  0  0  0  0  0  0  0  0  0  0  0
    2.7650   -0.2358   -1.7535 H   0  0  0  0  0  0  0  0  0  0  0  0
    2.7849   -3.2738   -2.0547 H   0  0  0  0  0  0  0  0  0  0  0  0
    4.1776   -2.2669   -1.6051 H   0  0  0  0  0  0  0  0  0  0  0  0
    2.8038   -2.4026   -0.5114 H   0  0  0  0  0  0  0  0  0  0  0  0
    0.2281   -3.2667   -2.6660 H   0  0  0  0  0  0  0  0  0  0  0  0
   -4.9971   -4.2628   -6.0647 H   0  0  0  0  0  0  0  0  0  0  0  0
   -2.4611   -5.2450   -4.6526 H   0  0  0  0  0  0  0  0  0  0  0  0
   -3.9422   -6.1799   -4.8861 H   0  0  0  0  0  0  0  0  0  0  0  0
   -2.9789   -5.6714   -6.2867 H   0  0  0  0  0  0  0  0  0  0  0  0
   -5.3352   -2.7672   -4.1268 H   0  0  0  0  0  0  0  0  0  0  0  0
   -5.3313   -4.4637   -3.6092 H   0  0  0  0  0  0  0  0  0  0  0  0
   -3.9168   -3.4418   -3.3176 H   0  0  0  0  0  0  0  0  0  0  0  0
   -4.5538   -2.6090   -7.7499 H   0  0  0  0  0  0  0  0  0  0  0  0
    1.7253    0.3290   -6.6110 H   0  0  0  0  0  0  0  0  0  0  0  0
    1.0338    1.6323   -7.5464 H   0  0  0  0  0  0  0  0  0  0  0  0
    0.9437    3.8354   -6.3778 H   0  0  0  0  0  0  0  0  0  0  0  0
    0.8851    5.0857   -4.2243 H   0  0  0  0  0  0  0  0  0  0  0  0
    0.5581    3.8884   -2.0568 H   0  0  0  0  0  0  0  0  0  0  0  0
    0.3627    1.4903   -2.0588 H   0  0  0  0  0  0  0  0  0  0  0  0
    0.8555    0.2800   -4.1747 H   0  0  0  0  0  0  0  0  0  0  0  0
  1  2  1  0  0  0  0
  1 28  1  0  0  0  0
  2  3  1  0  0  0  0
  2 29  1  0  0  0  0
  2 30  1  0  0  0  0
  3  4  1  0  0  0  0
  3  6  1  0  0  0  0
  3 27  1  6  0  0  0
  4  5  1  0  0  0  0
  4 31  1  0  0  0  0
  4 32  1  0  0  0  0
  5 33  1  0  0  0  0
  5 34  1  0  0  0  0
  5 35  1  0  0  0  0
  6  7  1  0  0  0  0
  6 36  1  0  0  0  0
  7  8  2  0  0  0  0
  7 17  1  0  0  0  0
  8  9  1  0  0  0  0
  9 10  1  0  0  0  0
  9 15  2  0  0  0  0
 10 11  1  0  0  0  0
 10 14  1  0  0  0  0
 11 12  1  0  0  0  0
 11 13  1  0  0  0  0
 11 37  1  0  0  0  0
 12 38  1  0  0  0  0
 12 39  1  0  0  0  0
 12 40  1  0  0  0  0
 13 41  1  0  0  0  0
 13 42  1  0  0  0  0
 13 43  1  0  0  0  0
 14 16  2  0  0  0  0
 14 44  1  0  0  0  0
 15 16  1  0  0  0  0
 15 18  1  0  0  0  0
 17 18  2  0  0  0  0
 18 19  1  0  0  0  0
 19 20  1  0  0  0  0
 20 21  1  0  0  0  0
 20 45  1  0  0  0  0
 20 46  1  0  0  0  0
 21 22  1  0  0  0  0
 21 26  2  0  0  0  0
 22 23  2  0  0  0  0
 22 47  1  0  0  0  0
 23 24  1  0  0  0  0
 23 48  1  0  0  0  0
 24 25  2  0  0  0  0
 24 49  1  0  0  0  0
 25 26  1  0  0  0  0
 25 50  1  0  0  0  0
 26 51  1  0  0  0  0
M  END
>  <DRUGBANK_ID>
DB04770

>  <COMMON_NAME>
O6-(R)-ROSCOVITINE, R-2-(6-BENZYLOXY-9-ISOPROPYL-9H-PURIN-2-YLAMINO)-BUTAN-1-OL

$$$$
