B1L
 OpenBabel10282417123D

 49 51  0  0  0  0  0  0  0  0999 V2000
   -3.0896    3.8020    1.3531 O   0  0  0  0  0  0  0  0  0  0  0  0
   -3.2188    2.7042    0.5654 C   0  0  0  0  0  0  0  0  0  0  0  0
   -3.2820    1.4614    1.1508 C   0  0  0  0  0  0  0  0  0  0  0  0
   -3.3794    0.3929    0.3073 C   0  0  0  0  0  0  0  0  0  0  0  0
   -3.4149    0.5274   -1.0729 C   0  0  0  0  0  0  0  0  0  0  0  0
   -3.3793    1.7721   -1.6631 C   0  0  0  0  0  0  0  0  0  0  0  0
   -3.2728    2.8706   -0.8235 C   0  0  0  0  0  0  0  0  0  0  0  0
   -3.3369   -0.6518   -1.9069 C   0  0  0  0  0  0  0  0  0  0  0  0
   -3.5431   -0.6277   -3.1164 O   0  0  0  0  0  0  0  0  0  0  0  0
   -2.8181   -1.7714   -1.3251 N   0  0  0  0  0  0  0  0  0  0  0  0
   -3.5032   -2.6350   -0.2779 C   0  0  1  0  0  0  0  0  0  0  0  0
   -3.4430   -3.9329   -1.0820 C   0  0  1  0  0  0  0  0  0  0  0  0
   -3.8263   -5.2534   -0.5165 C   0  0  0  0  0  0  0  0  0  0  0  0
   -2.9965   -5.6371    0.6880 C   0  0  0  0  0  0  0  0  0  0  0  0
   -3.6120   -5.1071    1.9711 C   0  0  0  0  0  0  0  0  0  0  0  0
   -3.8545   -3.6711    2.0185 N   0  0  0  0  0  0  0  0  0  0  0  0
   -2.9527   -2.8293    1.2077 C   0  0  0  0  0  0  0  0  0  0  0  0
   -4.1462   -3.7286   -2.3549 O   0  0  0  0  0  0  0  0  0  0  0  0
   -5.4370   -3.3109   -2.2593 C   0  0  0  0  0  0  0  0  0  0  0  0
   -6.0994   -3.2463   -1.2193 O   0  0  0  0  0  0  0  0  0  0  0  0
   -6.0004   -2.8611   -3.5400 C   0  0  0  0  0  0  0  0  0  0  0  0
   -5.6186   -3.4493   -4.7473 C   0  0  0  0  0  0  0  0  0  0  0  0
   -6.3194   -3.1399   -5.9171 C   0  0  0  0  0  0  0  0  0  0  0  0
   -7.3750   -2.2295   -5.8706 C   0  0  0  0  0  0  0  0  0  0  0  0
   -7.7155   -1.5908   -4.6846 C   0  0  0  0  0  0  0  0  0  0  0  0
   -7.0267   -1.9037   -3.5153 C   0  0  0  0  0  0  0  0  0  0  0  0
   -8.1247   -1.9368   -6.9713 O   0  0  0  0  0  0  0  0  0  0  0  0
   -4.5034   -2.2029   -0.1592 H   0  0  0  0  0  0  0  0  0  0  0  0
   -2.3706   -4.0363   -1.3422 H   0  0  0  0  0  0  0  0  0  0  0  0
   -3.0547    3.4915    2.2737 H   0  0  0  0  0  0  0  0  0  0  0  0
   -3.2432    1.2670    2.2163 H   0  0  0  0  0  0  0  0  0  0  0  0
   -3.4094   -0.5600    0.7628 H   0  0  0  0  0  0  0  0  0  0  0  0
   -3.3845    1.8649   -2.7467 H   0  0  0  0  0  0  0  0  0  0  0  0
   -3.2097    3.8586   -1.2565 H   0  0  0  0  0  0  0  0  0  0  0  0
   -2.7997   -2.3136   -2.1954 H   0  0  0  0  0  0  0  0  0  0  0  0
   -4.8945   -5.2618   -0.3029 H   0  0  0  0  0  0  0  0  0  0  0  0
   -3.6405   -5.9690   -1.3236 H   0  0  0  0  0  0  0  0  0  0  0  0
   -2.9697   -6.7284    0.7319 H   0  0  0  0  0  0  0  0  0  0  0  0
   -1.9523   -5.3061    0.5985 H   0  0  0  0  0  0  0  0  0  0  0  0
   -4.5741   -5.6120    2.1242 H   0  0  0  0  0  0  0  0  0  0  0  0
   -2.9699   -5.3963    2.8091 H   0  0  0  0  0  0  0  0  0  0  0  0
   -3.8665   -3.3801    2.9993 H   0  0  0  0  0  0  0  0  0  0  0  0
   -1.9174   -3.1752    1.2367 H   0  0  0  0  0  0  0  0  0  0  0  0
   -2.9173   -1.9059    1.7942 H   0  0  0  0  0  0  0  0  0  0  0  0
   -4.8071   -4.1704   -4.7722 H   0  0  0  0  0  0  0  0  0  0  0  0
   -6.0409   -3.6332   -6.8422 H   0  0  0  0  0  0  0  0  0  0  0  0
   -8.5296   -0.8717   -4.6667 H   0  0  0  0  0  0  0  0  0  0  0  0
   -7.3056   -1.4155   -2.5830 H   0  0  0  0  0  0  0  0  0  0  0  0
   -7.8103   -2.4652   -7.7221 H   0  0  0  0  0  0  0  0  0  0  0  0
  1  2  1  0  0  0  0
  1 30  1  0  0  0  0
  2  3  1  0  0  0  0
  2  7  2  0  0  0  0
  3  4  2  0  0  0  0
  3 31  1  0  0  0  0
  4  5  1  0  0  0  0
  4 32  1  0  0  0  0
  5  6  2  0  0  0  0
  5  8  1  0  0  0  0
  6  7  1  0  0  0  0
  6 33  1  0  0  0  0
  7 34  1  0  0  0  0
  8  9  2  0  0  0  0
  8 10  1  0  0  0  0
 10 35  1  0  0  0  0
 11 12  1  0  0  0  0
 11 17  1  0  0  0  0
 11 28  1  1  0  0  0
 11 10  1  0  0  0  0
 12 13  1  0  0  0  0
 12 18  1  0  0  0  0
 12 29  1  6  0  0  0
 13 14  1  0  0  0  0
 13 36  1  0  0  0  0
 13 37  1  0  0  0  0
 14 15  1  0  0  0  0
 14 38  1  0  0  0  0
 14 39  1  0  0  0  0
 15 16  1  0  0  0  0
 15 40  1  0  0  0  0
 15 41  1  0  0  0  0
 16 17  1  0  0  0  0
 16 42  1  0  0  0  0
 17 43  1  0  0  0  0
 17 44  1  0  0  0  0
 18 19  1  0  0  0  0
 19 20  2  0  0  0  0
 19 21  1  0  0  0  0
 21 22  1  0  0  0  0
 21 26  2  0  0  0  0
 22 23  2  0  0  0  0
 22 45  1  0  0  0  0
 23 24  1  0  0  0  0
 23 46  1  0  0  0  0
 24 25  2  0  0  0  0
 24 27  1  0  0  0  0
 25 26  1  0  0  0  0
 25 47  1  0  0  0  0
 26 48  1  0  0  0  0
 27 49  1  0  0  0  0
M  END
>  <DRUGBANK_ID>
DB02611

>  <SECONDARY_ACCESSION_NUMBERS>
EXPT00607

>  <COMMON_NAME>
Balanol Analog 1

$$$$
