
 OpenBabel10282417113D

 31 33  0  0  0  0  0  0  0  0999 V2000
   -3.6483    0.0750    0.7711 C   0  0  0  0  0  0  0  0  0  0  0  0
   -3.2774   -1.2660    0.6924 C   0  0  0  0  0  0  0  0  0  0  0  0
   -2.0764   -1.6317    0.0726 C   0  0  0  0  0  0  0  0  0  0  0  0
   -2.8165    1.0531    0.2385 C   0  0  0  0  0  0  0  0  0  0  0  0
   -1.2336   -0.6520   -0.4717 C   0  0  0  0  0  0  0  0  0  0  0  0
   -1.6195    0.6913   -0.3922 C   0  0  0  0  0  0  0  0  0  0  0  0
   -0.7151    1.7422   -0.9457 C   0  0  0  0  0  0  0  0  0  0  0  0
   -0.0089   -1.0087   -1.1131 N   0  0  0  0  0  0  0  0  0  0  0  0
    0.4648    1.8924   -0.0399 C   0  0  0  0  0  0  0  0  0  0  0  0
    1.4262    0.7594    0.0530 C   0  0  0  0  0  0  0  0  0  0  0  0
    1.2138   -0.5347   -0.4837 C   0  0  0  0  0  0  0  0  0  0  0  0
    2.2767   -1.4548   -0.3507 C   0  0  0  0  0  0  0  0  0  0  0  0
    3.4867   -1.1167    0.2685 C   0  0  0  0  0  0  0  0  0  0  0  0
    3.6833    0.1632    0.7622 C   0  0  0  0  0  0  0  0  0  0  0  0
    2.6592    1.0948    0.6543 C   0  0  0  0  0  0  0  0  0  0  0  0
    0.0498   -1.8299   -2.2493 C   0  0  0  0  0  0  0  0  0  0  0  0
   -1.1296   -2.2481   -2.7889 N   0  0  0  0  0  0  0  0  0  0  0  0
    1.0771   -2.1471   -2.8513 O   0  0  0  0  0  0  0  0  0  0  0  0
    0.6427    2.9271    0.6077 O   0  0  0  0  0  0  0  0  0  0  0  0
   -4.5791    0.3645    1.2533 H   0  0  0  0  0  0  0  0  0  0  0  0
   -3.9225   -2.0252    1.1282 H   0  0  0  0  0  0  0  0  0  0  0  0
   -1.7938   -2.6820    0.0472 H   0  0  0  0  0  0  0  0  0  0  0  0
   -3.0964    2.1018    0.3216 H   0  0  0  0  0  0  0  0  0  0  0  0
   -0.3768    1.4916   -1.9571 H   0  0  0  0  0  0  0  0  0  0  0  0
   -1.2306    2.7050   -1.0259 H   0  0  0  0  0  0  0  0  0  0  0  0
    2.1666   -2.4798   -0.7019 H   0  0  0  0  0  0  0  0  0  0  0  0
    4.2734   -1.8609    0.3637 H   0  0  0  0  0  0  0  0  0  0  0  0
    4.6258    0.4414    1.2267 H   0  0  0  0  0  0  0  0  0  0  0  0
    2.8317    2.1039    1.0292 H   0  0  0  0  0  0  0  0  0  0  0  0
   -1.0737   -2.7526   -3.6647 H   0  0  0  0  0  0  0  0  0  0  0  0
   -2.0386   -1.9617   -2.4622 H   0  0  0  0  0  0  0  0  0  0  0  0
  1  2  2  0  0  0  0
  1 20  1  0  0  0  0
  2  3  1  0  0  0  0
  2 21  1  0  0  0  0
  3  5  2  0  0  0  0
  3 22  1  0  0  0  0
  4  1  1  0  0  0  0
  4 23  1  0  0  0  0
  5  6  1  0  0  0  0
  5  8  1  0  0  0  0
  6  7  1  0  0  0  0
  6  4  2  0  0  0  0
  7  9  1  0  0  0  0
  7 24  1  0  0  0  0
  7 25  1  0  0  0  0
  8 11  1  0  0  0  0
  8 16  1  0  0  0  0
  9 10  1  0  0  0  0
  9 19  2  0  0  0  0
 10 11  2  0  0  0  0
 11 12  1  0  0  0  0
 12 13  2  0  0  0  0
 12 26  1  0  0  0  0
 13 14  1  0  0  0  0
 13 27  1  0  0  0  0
 14 15  2  0  0  0  0
 14 28  1  0  0  0  0
 15 10  1  0  0  0  0
 15 29  1  0  0  0  0
 16 17  1  0  0  0  0
 16 18  2  0  0  0  0
 17 30  1  0  0  0  0
 17 31  1  0  0  0  0
M  END
>  <DRUGBANK_ID>
DB00776

>  <SECONDARY_ACCESSION_NUMBERS>
APRD01308

>  <COMMON_NAME>
Oxcarbazepine

>  <CAS_NUMBER>
28721-07-5

>  <UNII>
VZI5B1W380

>  <SYNONYMS>
10,11-Dihydro-10-oxo-5H-dibenz(b,f)azepine-5-carboxamide; OCBZ; Oxcarbamazepine; Oxcarbazepina; Oxcarbazepine; Oxcarbazepinum

$$$$
