MXX
 OpenBabel10282417173D

 32 33  0  0  0  0  0  0  0  0999 V2000
   -3.3496    0.0216   -0.0804 O   0  0  0  0  0  0  0  0  0  0  0  0
   -2.1392    0.1482   -0.0231 C   0  0  0  0  0  0  0  0  0  0  0  0
   -1.2069   -0.8565    0.0533 N   0  0  0  0  0  0  0  0  0  0  0  0
   -1.9051   -2.0716    0.2519 C   0  0  0  0  0  0  0  0  0  0  0  0
    0.2578   -0.6814    0.0142 C   0  0  0  0  0  0  0  0  0  0  0  0
    1.2357   -1.7605    0.0005 C   0  0  0  0  0  0  0  0  0  0  0  0
    1.2054   -3.1409   -0.0022 O   0  0  0  0  0  0  0  0  0  0  0  0
    0.0312   -3.8649   -0.2002 C   0  0  0  0  0  0  0  0  0  0  0  0
    2.6102   -1.4589   -0.0138 C   0  0  0  0  0  0  0  0  0  0  0  0
    3.0713   -0.1640   -0.0187 C   0  0  0  0  0  0  0  0  0  0  0  0
    2.1889    0.9234   -0.0131 C   0  0  0  0  0  0  0  0  0  0  0  0
    3.0201    2.0313   -0.0076 O   0  0  0  0  0  0  0  0  0  0  0  0
    2.3794    3.2582    0.0477 C   0  0  0  0  0  0  0  0  0  0  0  0
    0.7495    0.7269   -0.0061 C   0  0  0  0  0  0  0  0  0  0  0  0
   -0.3505    1.8074    0.0016 C   0  0  0  0  0  0  0  0  0  0  0  0
   -0.3050    3.3068   -0.0456 C   0  0  0  0  0  0  0  0  0  0  0  0
   -1.6367    1.4805    0.0128 C   0  0  0  0  0  0  0  0  0  0  0  0
   -1.8139   -2.6317   -0.6669 H   0  0  0  0  0  0  0  0  0  0  0  0
   -1.6112   -2.4436    1.2307 H   0  0  0  0  0  0  0  0  0  0  0  0
   -2.9947   -2.0235    0.3312 H   0  0  0  0  0  0  0  0  0  0  0  0
   -0.5427   -3.7629    0.7099 H   0  0  0  0  0  0  0  0  0  0  0  0
   -0.3894   -3.5781   -1.1646 H   0  0  0  0  0  0  0  0  0  0  0  0
    0.1298   -4.9506   -0.2475 H   0  0  0  0  0  0  0  0  0  0  0  0
    3.3514   -2.2615   -0.0253 H   0  0  0  0  0  0  0  0  0  0  0  0
    4.1497    0.0110   -0.0247 H   0  0  0  0  0  0  0  0  0  0  0  0
    1.8445    3.3211   -0.8927 H   0  0  0  0  0  0  0  0  0  0  0  0
    1.8601    3.2622    1.0032 H   0  0  0  0  0  0  0  0  0  0  0  0
    2.9993    4.1551    0.0577 H   0  0  0  0  0  0  0  0  0  0  0  0
    0.1379    3.7290    0.8523 H   0  0  0  0  0  0  0  0  0  0  0  0
    0.0865    3.6457   -1.0038 H   0  0  0  0  0  0  0  0  0  0  0  0
   -1.2847    3.8010   -0.0317 H   0  0  0  0  0  0  0  0  0  0  0  0
   -2.4452    2.2042    0.0318 H   0  0  0  0  0  0  0  0  0  0  0  0
  1  2  2  0  0  0  0
  2 17  1  0  0  0  0
  3  2  1  0  0  0  0
  3  5  1  0  0  0  0
  4  3  1  0  0  0  0
  4 18  1  0  0  0  0
  4 19  1  0  0  0  0
  4 20  1  0  0  0  0
  5 14  1  0  0  0  0
  6  5  2  0  0  0  0
  6  9  1  0  0  0  0
  7  6  1  0  0  0  0
  8  7  1  0  0  0  0
  8 21  1  0  0  0  0
  8 22  1  0  0  0  0
  8 23  1  0  0  0  0
  9 10  2  0  0  0  0
  9 24  1  0  0  0  0
 10 11  1  0  0  0  0
 10 25  1  0  0  0  0
 11 12  1  0  0  0  0
 12 13  1  0  0  0  0
 13 26  1  0  0  0  0
 13 27  1  0  0  0  0
 13 28  1  0  0  0  0
 14 11  2  0  0  0  0
 14 15  1  0  0  0  0
 15 16  1  0  0  0  0
 16 29  1  0  0  0  0
 16 30  1  0  0  0  0
 16 31  1  0  0  0  0
 17 15  2  0  0  0  0
 17 32  1  0  0  0  0
M  END
>  <DRUGBANK_ID>
DB08228

>  <COMMON_NAME>
5,8-dimethoxy-1,4-dimethylquinolin-2(1H)-one

$$$$
