GPI
 OpenBabel10282417123D

 54 55  0  0  0  0  0  0  0  0999 V2000
   -0.8117   -0.8582   -0.1720 C   0  0  1  0  0  0  0  0  0  0  0  0
   -1.0473    0.5365    0.2510 N   0  0  0  0  0  0  0  0  0  0  0  0
    0.1956    1.2750    0.0639 C   0  0  0  0  0  0  0  0  0  0  0  0
    0.6524   -1.0738    0.2104 C   0  0  0  0  0  0  0  0  0  0  0  0
    1.3028    0.2356   -0.1422 C   0  0  0  0  0  0  0  0  0  0  0  0
   -1.5361   -1.9375    0.5653 C   0  0  0  0  0  0  0  0  0  0  0  0
   -1.0218   -3.0061    0.8998 O   0  0  0  0  0  0  0  0  0  0  0  0
   -2.8022   -1.5603    0.6523 O   0  0  0  0  0  0  0  0  0  0  0  0
   -4.0734   -2.1834    0.8311 C   0  0  0  0  0  0  0  0  0  0  0  0
   -4.4569   -3.3096   -0.0568 C   0  0  0  0  0  0  0  0  0  0  0  0
   -3.3704   -4.3220    0.1037 C   0  0  0  0  0  0  0  0  0  0  0  0
   -2.7951   -6.3751    3.1947 N   0  0  0  0  0  0  0  0  0  0  0  0
   -2.8981   -5.4624    4.1954 C   0  0  0  0  0  0  0  0  0  0  0  0
   -3.0560   -4.1263    4.0033 C   0  0  0  0  0  0  0  0  0  0  0  0
   -3.0542   -3.7411    2.6890 C   0  0  0  0  0  0  0  0  0  0  0  0
   -3.1354   -4.6398    1.5832 C   0  0  0  0  0  0  0  0  0  0  0  0
   -2.9227   -5.9442    1.9197 C   0  0  0  0  0  0  0  0  0  0  0  0
   -2.2330    1.2397    0.5720 C   0  0  0  0  0  0  0  0  0  0  0  0
   -2.2055    2.3856    1.0152 O   0  0  0  0  0  0  0  0  0  0  0  0
   -3.6257    0.6506    0.2507 C   0  0  0  0  0  0  0  0  0  0  0  0
   -3.7056    0.1386   -0.8742 O   0  0  0  0  0  0  0  0  0  0  0  0
   -4.9316    0.9556    1.1179 C   0  0  0  0  0  0  0  0  0  0  0  0
   -4.7123    1.3608    2.5930 C   0  0  0  0  0  0  0  0  0  0  0  0
   -5.4363    2.1235    0.2808 C   0  0  0  0  0  0  0  0  0  0  0  0
   -6.1508   -0.0899    1.1124 C   0  0  0  0  0  0  0  0  0  0  0  0
   -6.5233   -0.6890   -0.2767 C   0  0  0  0  0  0  0  0  0  0  0  0
   -0.9650   -0.9591   -1.2556 H   0  0  0  0  0  0  0  0  0  0  0  0
    0.3774    1.9222    0.9220 H   0  0  0  0  0  0  0  0  0  0  0  0
    0.1074    1.8913   -0.8396 H   0  0  0  0  0  0  0  0  0  0  0  0
    0.7332   -1.2384    1.2962 H   0  0  0  0  0  0  0  0  0  0  0  0
    1.0998   -1.9457   -0.2809 H   0  0  0  0  0  0  0  0  0  0  0  0
    2.1760    0.4239    0.4880 H   0  0  0  0  0  0  0  0  0  0  0  0
    1.6362    0.2010   -1.1852 H   0  0  0  0  0  0  0  0  0  0  0  0
   -4.4527   -2.1933    1.8553 H   0  0  0  0  0  0  0  0  0  0  0  0
   -4.6738   -1.4181    0.4890 H   0  0  0  0  0  0  0  0  0  0  0  0
   -5.4501   -3.6821    0.2277 H   0  0  0  0  0  0  0  0  0  0  0  0
   -4.5305   -2.9647   -1.0984 H   0  0  0  0  0  0  0  0  0  0  0  0
   -3.6490   -5.1985   -0.4882 H   0  0  0  0  0  0  0  0  0  0  0  0
   -2.4897   -3.9422   -0.4209 H   0  0  0  0  0  0  0  0  0  0  0  0
   -2.7956   -5.8386    5.2016 H   0  0  0  0  0  0  0  0  0  0  0  0
   -3.1086   -3.3840    4.7934 H   0  0  0  0  0  0  0  0  0  0  0  0
   -2.9200   -2.6660    2.6380 H   0  0  0  0  0  0  0  0  0  0  0  0
   -2.8224   -6.6845    1.1351 H   0  0  0  0  0  0  0  0  0  0  0  0
   -3.9631    2.1451    2.7120 H   0  0  0  0  0  0  0  0  0  0  0  0
   -5.6440    1.7486    3.0330 H   0  0  0  0  0  0  0  0  0  0  0  0
   -4.4029    0.5161    3.2250 H   0  0  0  0  0  0  0  0  0  0  0  0
   -5.5528    1.7841   -0.7573 H   0  0  0  0  0  0  0  0  0  0  0  0
   -6.4009    2.4912    0.6234 H   0  0  0  0  0  0  0  0  0  0  0  0
   -4.6978    2.9256    0.2625 H   0  0  0  0  0  0  0  0  0  0  0  0
   -5.9853   -0.8827    1.8638 H   0  0  0  0  0  0  0  0  0  0  0  0
   -7.0640    0.3724    1.5115 H   0  0  0  0  0  0  0  0  0  0  0  0
   -5.6941   -1.0710   -0.8800 H   0  0  0  0  0  0  0  0  0  0  0  0
   -7.1950   -1.5467   -0.1670 H   0  0  0  0  0  0  0  0  0  0  0  0
   -6.9498    0.0642   -0.9301 H   0  0  0  0  0  0  0  0  0  0  0  0
  1  2  1  0  0  0  0
  1  4  1  0  0  0  0
  1 27  1  6  0  0  0
  1  6  1  0  0  0  0
  2  3  1  0  0  0  0
  2 18  1  0  0  0  0
  3  5  1  0  0  0  0
  3 28  1  0  0  0  0
  3 29  1  0  0  0  0
  4  5  1  0  0  0  0
  4 30  1  0  0  0  0
  4 31  1  0  0  0  0
  5 32  1  0  0  0  0
  5 33  1  0  0  0  0
  6  7  2  0  0  0  0
  6  8  1  0  0  0  0
  8  9  1  0  0  0  0
  9 10  1  0  0  0  0
  9 34  1  0  0  0  0
  9 35  1  0  0  0  0
 10 11  1  0  0  0  0
 10 36  1  0  0  0  0
 10 37  1  0  0  0  0
 11 16  1  0  0  0  0
 11 38  1  0  0  0  0
 11 39  1  0  0  0  0
 12 13  2  0  0  0  0
 12 17  1  0  0  0  0
 13 14  1  0  0  0  0
 13 40  1  0  0  0  0
 14 15  2  0  0  0  0
 14 41  1  0  0  0  0
 15 16  1  0  0  0  0
 15 42  1  0  0  0  0
 16 17  2  0  0  0  0
 17 43  1  0  0  0  0
 18 19  2  0  0  0  0
 18 20  1  0  0  0  0
 20 21  2  0  0  0  0
 20 22  1  0  0  0  0
 22 23  1  0  0  0  0
 22 24  1  0  0  0  0
 22 25  1  0  0  0  0
 23 44  1  0  0  0  0
 23 45  1  0  0  0  0
 23 46  1  0  0  0  0
 24 47  1  0  0  0  0
 24 48  1  0  0  0  0
 24 49  1  0  0  0  0
 25 26  1  0  0  0  0
 25 50  1  0  0  0  0
 25 51  1  0  0  0  0
 26 52  1  0  0  0  0
 26 53  1  0  0  0  0
 26 54  1  0  0  0  0
M  END
>  <DRUGBANK_ID>
DB01951

>  <SECONDARY_ACCESSION_NUMBERS>
EXPT01638

>  <COMMON_NAME>
Gpi-1046

$$$$
