
 OpenBabel10282417113D

 69 71  0  0  0  0  0  0  0  0999 V2000
   -0.8953   -3.9982    1.1282 C   0  0  2  0  0  0  0  0  0  0  0  0
    0.3621   -1.8865    3.6567 C   0  0  1  0  0  0  0  0  0  0  0  0
   -2.8211   -3.9992    2.0292 C   0  0  1  0  0  0  0  0  0  0  0  0
   -2.6978   -4.0421    3.5629 C   0  0  2  0  0  0  0  0  0  0  0  0
   -1.7807   -2.7690    3.9781 C   0  0  2  0  0  0  0  0  0  0  0  0
   -2.0845   -0.8787    1.4515 C   0  0  2  0  0  0  0  0  0  0  0  0
   -0.8574   -1.5486    1.1494 C   0  0  1  0  0  0  0  0  0  0  0  0
   -0.4951   -3.2099    2.4429 C   0  0  2  0  0  0  0  0  0  0  0  0
   -0.1796   -3.3774    3.8440 C   0  0  1  0  0  0  0  0  0  0  0  0
   -1.0038   -1.4074    4.5883 C   0  0  2  0  0  0  0  0  0  0  0  0
   -1.3466   -0.1044    3.1764 O   0  0  0  0  0  0  0  0  0  0  0  0
   -0.0344   -4.5650    4.5098 O   0  0  0  0  0  0  0  0  0  0  0  0
   -0.5637   -1.4541    5.9904 C   0  0  0  0  0  0  0  0  0  0  0  0
    0.9188   -3.9900    1.1602 N   0  0  0  0  0  0  0  0  0  0  0  0
    0.1578   -2.6551    6.2947 O   0  0  0  0  0  0  0  0  0  0  0  0
    1.6857   -3.1118    4.5303 N   0  0  0  0  0  0  0  0  0  0  0  0
   -0.2637   -5.5815    1.8748 N   0  0  0  0  0  0  0  0  0  0  0  0
   -2.0540   -5.2300    4.0075 O   0  0  0  0  0  0  0  0  0  0  0  0
   -3.6815   -2.2296    1.8200 O   0  0  0  0  0  0  0  0  0  0  0  0
   -3.1401   -1.8722    3.9738 O   0  0  0  0  0  0  0  0  0  0  0  0
   -2.7041   -1.3041    2.8984 C   0  0  1  0  0  0  0  0  0  0  0  0
   -2.2666   -2.5653    1.3372 O   0  0  0  0  0  0  0  0  0  0  0  0
   -3.1148   -2.4022   -0.3556 C   0  0  1  0  0  0  0  0  0  0  0  0
   -3.6921   -0.9082   -0.5663 C   0  0  2  0  0  0  0  0  0  0  0  0
   -2.9205    0.4762    0.0642 C   0  0  1  0  0  0  0  0  0  0  0  0
   -3.1206    0.5685    2.0461 C   0  0  1  0  0  0  0  0  0  0  0  0
   -1.5946   -2.7301   -1.6148 C   0  0  0  0  0  0  0  0  0  0  0  0
   -0.6038   -3.8217   -1.2337 N   0  0  0  0  0  0  0  0  0  0  0  0
   -4.5013    0.5700    2.1938 O   0  0  0  0  0  0  0  0  0  0  0  0
   -1.5725    0.5154   -0.4446 O   0  0  0  0  0  0  0  0  0  0  0  0
   -5.0028   -0.8068   -0.0258 O   0  0  0  0  0  0  0  0  0  0  0  0
    0.5875   -2.3504    1.6934 C   0  0  0  0  0  0  0  0  0  0  0  0
   -1.2603   -1.8535   -0.0210 O   0  0  0  0  0  0  0  0  0  0  0  0
   -1.5373   -4.4276    0.3226 H   0  0  0  0  0  0  0  0  0  0  0  0
    0.8289   -0.8958    3.9657 H   0  0  0  0  0  0  0  0  0  0  0  0
   -3.3358   -4.8373    1.5259 H   0  0  0  0  0  0  0  0  0  0  0  0
   -3.6512   -3.8214    4.0511 H   0  0  0  0  0  0  0  0  0  0  0  0
   -1.7436   -3.2006    5.0598 H   0  0  0  0  0  0  0  0  0  0  0  0
   -3.2001   -0.8298    1.2187 H   0  0  0  0  0  0  0  0  0  0  0  0
   -0.0023   -0.9608    0.6783 H   0  0  0  0  0  0  0  0  0  0  0  0
   -1.1684   -3.9680    2.6623 H   0  0  0  0  0  0  0  0  0  0  0  0
    1.0665   -3.2431    3.0610 H   0  0  0  0  0  0  0  0  0  0  0  0
   -2.1609   -1.5451    5.2170 H   0  0  0  0  0  0  0  0  0  0  0  0
   -0.8104   -4.8820    5.0096 H   0  0  0  0  0  0  0  0  0  0  0  0
   -0.0435   -0.5381    5.8903 H   0  0  0  0  0  0  0  0  0  0  0  0
   -1.4663   -1.6246    6.5853 H   0  0  0  0  0  0  0  0  0  0  0  0
    1.3630   -4.7910    1.4686 H   0  0  0  0  0  0  0  0  0  0  0  0
    1.6240   -3.3773    0.6909 H   0  0  0  0  0  0  0  0  0  0  0  0
   -0.2897   -3.5101    6.0859 H   0  0  0  0  0  0  0  0  0  0  0  0
    1.1229   -3.5554    5.2985 H   0  0  0  0  0  0  0  0  0  0  0  0
    1.4327   -4.2103    4.0387 H   0  0  0  0  0  0  0  0  0  0  0  0
   -0.9507   -6.0045    2.4629 H   0  0  0  0  0  0  0  0  0  0  0  0
    0.4522   -5.1774    2.5290 H   0  0  0  0  0  0  0  0  0  0  0  0
   -1.1326   -5.1621    3.6400 H   0  0  0  0  0  0  0  0  0  0  0  0
   -1.3768   -1.5245    2.7915 H   0  0  0  0  0  0  0  0  0  0  0  0
   -3.7652   -3.2921   -0.3419 H   0  0  0  0  0  0  0  0  0  0  0  0
   -3.6801   -0.8381   -1.6335 H   0  0  0  0  0  0  0  0  0  0  0  0
   -3.4000    1.3425   -0.3320 H   0  0  0  0  0  0  0  0  0  0  0  0
   -2.2919    1.3627    2.1569 H   0  0  0  0  0  0  0  0  0  0  0  0
   -1.7452   -2.1728   -2.5104 H   0  0  0  0  0  0  0  0  0  0  0  0
   -0.5953   -1.9184   -1.4702 H   0  0  0  0  0  0  0  0  0  0  0  0
    0.4269   -3.7732   -1.1398 H   0  0  0  0  0  0  0  0  0  0  0  0
   -0.2941   -3.4554   -0.3091 H   0  0  0  0  0  0  0  0  0  0  0  0
   -4.7178   -0.3991    2.0342 H   0  0  0  0  0  0  0  0  0  0  0  0
   -1.2029   -0.3840   -0.3666 H   0  0  0  0  0  0  0  0  0  0  0  0
   -5.0147    0.0969    0.3542 H   0  0  0  0  0  0  0  0  0  0  0  0
    1.6699   -2.1221    1.5179 H   0  0  0  0  0  0  0  0  0  0  0  0
    0.4766   -1.2581    2.1129 H   0  0  0  0  0  0  0  0  0  0  0  0
   -1.6530   -2.7503    0.2337 H   0  0  0  0  0  0  0  0  0  0  0  0
  1  3  1  0  0  0  0
  1 34  1  6  0  0  0
  1 17  1  0  0  0  0
  2 32  1  0  0  0  0
  2 16  1  0  0  0  0
  2 35  1  1  0  0  0
  3 19  1  0  0  0  0
  3  4  1  0  0  0  0
  3 36  1  6  0  0  0
  4 18  1  0  0  0  0
  4  5  1  0  0  0  0
  4 37  1  1  0  0  0
  5  2  1  0  0  0  0
  5 38  1  1  0  0  0
  5 20  1  0  0  0  0
  6 19  1  0  0  0  0
  6  7  1  0  0  0  0
  6 39  1  6  0  0  0
  7  8  1  0  0  0  0
  7 33  1  0  0  0  0
  7 40  1  6  0  0  0
  8  9  1  0  0  0  0
  8 41  1  6  0  0  0
  8 14  1  0  0  0  0
  9 10  1  0  0  0  0
  9 12  1  0  0  0  0
  9 42  1  6  0  0  0
 10 11  1  0  0  0  0
 10 43  1  1  0  0  0
 10 13  1  0  0  0  0
 11  6  1  0  0  0  0
 12 44  1  0  0  0  0
 13 15  1  0  0  0  0
 13 45  1  0  0  0  0
 13 46  1  0  0  0  0
 14 47  1  0  0  0  0
 14 48  1  0  0  0  0
 15 49  1  0  0  0  0
 16 50  1  0  0  0  0
 16 51  1  0  0  0  0
 17 52  1  0  0  0  0
 17 53  1  0  0  0  0
 18 54  1  0  0  0  0
 21 22  1  0  0  0  0
 21 55  1  1  0  0  0
 21 20  1  0  0  0  0
 22 23  1  0  0  0  0
 23 24  1  0  0  0  0
 23 27  1  0  0  0  0
 23 56  1  6  0  0  0
 24 25  1  0  0  0  0
 24 57  1  6  0  0  0
 24 31  1  0  0  0  0
 25 26  1  0  0  0  0
 25 30  1  0  0  0  0
 25 58  1  6  0  0  0
 26 21  1  0  0  0  0
 26 29  1  0  0  0  0
 26 59  1  1  0  0  0
 27 28  1  0  0  0  0
 27 60  1  0  0  0  0
 27 61  1  0  0  0  0
 28 62  1  0  0  0  0
 28 63  1  0  0  0  0
 29 64  1  0  0  0  0
 30 65  1  0  0  0  0
 31 66  1  0  0  0  0
 32  1  1  0  0  0  0
 32 67  1  0  0  0  0
 32 68  1  0  0  0  0
 33 69  1  0  0  0  0
M  END
>  <DRUGBANK_ID>
DB01172

>  <SECONDARY_ACCESSION_NUMBERS>
APRD00026

>  <COMMON_NAME>
Kanamycin

>  <CAS_NUMBER>
59-01-8

>  <UNII>
EQK9Q303C5

>  <SYNONYMS>
4,6-diamino-2-hydroxy-1,3-cyclohexane 3,6'diamino-3,6'-dideoxydi-Î±-D-glucoside; 4,6-diamino-2-hydroxy-1,3-cyclohexylene 3,6'-diamino-3,6'-dideoxydi-D-glucopyranoside; Kanamycin A

$$$$
