
 OpenBabel10282417123D

 66 70  0  0  0  0  0  0  0  0999 V2000
   -4.6938    4.9877   -1.5777 C   0  0  0  0  0  0  0  0  0  0  0  0
   -3.5870    4.9310   -0.7214 C   0  0  0  0  0  0  0  0  0  0  0  0
   -3.1364    3.7086   -0.2168 C   0  0  0  0  0  0  0  0  0  0  0  0
   -3.8171    2.5311   -0.5219 C   0  0  0  0  0  0  0  0  0  0  0  0
   -5.3369    3.7933   -1.9201 C   0  0  0  0  0  0  0  0  0  0  0  0
   -5.2539    6.3016   -2.0529 C   0  0  0  0  0  0  0  0  0  0  0  0
   -5.2205    6.4466   -3.4060 F   0  0  0  0  0  0  0  0  0  0  0  0
   -4.6038    7.3843   -1.5419 F   0  0  0  0  0  0  0  0  0  0  0  0
   -6.5616    6.4571   -1.6971 F   0  0  0  0  0  0  0  0  0  0  0  0
   -4.9447    2.5779   -1.3373 C   0  0  0  0  0  0  0  0  0  0  0  0
   -5.7198    1.3855   -1.5886 C   0  0  0  0  0  0  0  0  0  0  0  0
   -5.9699    0.9078   -2.8429 C   0  0  0  0  0  0  0  0  0  0  0  0
   -6.3934    0.6483   -0.6444 N   0  0  0  0  0  0  0  0  0  0  0  0
   -6.8109   -0.1718   -2.6601 N   0  0  0  0  0  0  0  0  0  0  0  0
   -7.0622   -0.3006   -1.2965 C   0  0  0  0  0  0  0  0  0  0  0  0
   -7.8967   -1.3487   -0.5439 C   0  0  0  0  0  0  0  0  0  0  0  0
   -7.5570   -3.3256   -2.0461 C   0  0  0  0  0  0  0  0  0  0  0  0
   -7.3268   -2.7640   -0.6605 C   0  0  0  0  0  0  0  0  0  0  0  0
   -9.3927   -1.3572   -0.8709 C   0  0  0  0  0  0  0  0  0  0  0  0
   -9.6440   -1.8888   -2.2631 C   0  0  0  0  0  0  0  0  0  0  0  0
   -8.9507   -3.1688   -2.5150 N   0  0  0  0  0  0  0  0  0  0  0  0
   -7.1721   -0.9049   -3.8438 C   0  0  0  0  0  0  0  0  0  0  0  0
   -5.5394    1.3591   -4.1489 C   0  0  0  0  0  0  0  0  0  0  0  0
   -6.4573    1.7387   -5.0941 C   0  0  0  0  0  0  0  0  0  0  0  0
   -5.9409    2.0212   -6.3183 C   0  0  0  0  0  0  0  0  0  0  0  0
   -4.6173    2.0018   -6.5751 N   0  0  0  0  0  0  0  0  0  0  0  0
   -4.2164    1.3003   -4.3605 N   0  0  0  0  0  0  0  0  0  0  0  0
   -3.7993    1.6738   -5.5656 C   0  0  0  0  0  0  0  0  0  0  0  0
   -2.4518    1.7789   -5.8152 N   0  0  0  0  0  0  0  0  0  0  0  0
   -1.4676    1.3253   -4.8562 C   0  0  1  0  0  0  0  0  0  0  0  0
   -1.1935   -0.1709   -5.0801 C   0  0  0  0  0  0  0  0  0  0  0  0
   -0.1786    2.1460   -4.9511 C   0  0  0  0  0  0  0  0  0  0  0  0
   -0.1297    3.4356   -5.5072 C   0  0  0  0  0  0  0  0  0  0  0  0
    1.0689    4.1595   -5.5257 C   0  0  0  0  0  0  0  0  0  0  0  0
    2.2243    3.6263   -4.9567 C   0  0  0  0  0  0  0  0  0  0  0  0
    2.1848    2.3745   -4.3609 C   0  0  0  0  0  0  0  0  0  0  0  0
    1.0026    1.6416   -4.3739 C   0  0  0  0  0  0  0  0  0  0  0  0
   -3.0801    5.8476   -0.4263 H   0  0  0  0  0  0  0  0  0  0  0  0
   -2.2742    3.6776    0.4431 H   0  0  0  0  0  0  0  0  0  0  0  0
   -3.4698    1.5790   -0.1285 H   0  0  0  0  0  0  0  0  0  0  0  0
   -6.1734    3.8194   -2.6174 H   0  0  0  0  0  0  0  0  0  0  0  0
   -7.8323   -1.0829    0.5240 H   0  0  0  0  0  0  0  0  0  0  0  0
   -6.7891   -2.8791   -2.6834 H   0  0  0  0  0  0  0  0  0  0  0  0
   -7.2783   -4.3811   -2.1074 H   0  0  0  0  0  0  0  0  0  0  0  0
   -6.2541   -2.7563   -0.4288 H   0  0  0  0  0  0  0  0  0  0  0  0
   -7.8050   -3.4369    0.0615 H   0  0  0  0  0  0  0  0  0  0  0  0
   -9.9308   -2.0083   -0.1680 H   0  0  0  0  0  0  0  0  0  0  0  0
   -9.8237   -0.3545   -0.7597 H   0  0  0  0  0  0  0  0  0  0  0  0
  -10.7146   -2.0260   -2.4472 H   0  0  0  0  0  0  0  0  0  0  0  0
   -9.4051   -1.0768   -2.9584 H   0  0  0  0  0  0  0  0  0  0  0  0
   -9.0066   -3.3981   -3.5086 H   0  0  0  0  0  0  0  0  0  0  0  0
   -7.7655   -0.2794   -4.5069 H   0  0  0  0  0  0  0  0  0  0  0  0
   -6.2694   -1.2981   -4.3158 H   0  0  0  0  0  0  0  0  0  0  0  0
   -7.8108   -1.7314   -3.7043 H   0  0  0  0  0  0  0  0  0  0  0  0
   -7.5226    1.7613   -4.8949 H   0  0  0  0  0  0  0  0  0  0  0  0
   -6.5916    2.2796   -7.1456 H   0  0  0  0  0  0  0  0  0  0  0  0
   -2.2128    1.9454   -6.7758 H   0  0  0  0  0  0  0  0  0  0  0  0
   -1.8283    1.4721   -3.8290 H   0  0  0  0  0  0  0  0  0  0  0  0
   -0.5372   -0.5841   -4.3065 H   0  0  0  0  0  0  0  0  0  0  0  0
   -2.1088   -0.7678   -5.0471 H   0  0  0  0  0  0  0  0  0  0  0  0
   -0.7064   -0.3382   -6.0481 H   0  0  0  0  0  0  0  0  0  0  0  0
   -1.0215    3.8984   -5.9271 H   0  0  0  0  0  0  0  0  0  0  0  0
    1.0991    5.1497   -5.9729 H   0  0  0  0  0  0  0  0  0  0  0  0
    3.1542    4.1865   -4.9674 H   0  0  0  0  0  0  0  0  0  0  0  0
    3.0631    1.9589   -3.8758 H   0  0  0  0  0  0  0  0  0  0  0  0
    1.0268    0.6615   -3.9085 H   0  0  0  0  0  0  0  0  0  0  0  0
  1  2  1  0  0  0  0
  1  5  2  0  0  0  0
  1  6  1  0  0  0  0
  2  3  2  0  0  0  0
  2 38  1  0  0  0  0
  3  4  1  0  0  0  0
  3 39  1  0  0  0  0
  4 10  2  0  0  0  0
  4 40  1  0  0  0  0
  5 10  1  0  0  0  0
  5 41  1  0  0  0  0
  6  7  1  0  0  0  0
  6  9  1  0  0  0  0
  6  8  1  0  0  0  0
 10 11  1  0  0  0  0
 11 13  1  0  0  0  0
 11 12  2  0  0  0  0
 12 14  1  0  0  0  0
 12 23  1  0  0  0  0
 13 15  2  0  0  0  0
 14 15  1  0  0  0  0
 14 22  1  0  0  0  0
 15 16  1  0  0  0  0
 16 18  1  0  0  0  0
 16 19  1  0  0  0  0
 16 42  1  0  0  0  0
 17 21  1  0  0  0  0
 17 18  1  0  0  0  0
 17 43  1  0  0  0  0
 17 44  1  0  0  0  0
 18 45  1  0  0  0  0
 18 46  1  0  0  0  0
 19 20  1  0  0  0  0
 19 47  1  0  0  0  0
 19 48  1  0  0  0  0
 20 21  1  0  0  0  0
 20 49  1  0  0  0  0
 20 50  1  0  0  0  0
 21 51  1  0  0  0  0
 22 52  1  0  0  0  0
 22 53  1  0  0  0  0
 22 54  1  0  0  0  0
 23 27  1  0  0  0  0
 23 24  2  0  0  0  0
 24 25  1  0  0  0  0
 24 55  1  0  0  0  0
 25 26  2  0  0  0  0
 25 56  1  0  0  0  0
 26 28  1  0  0  0  0
 27 28  2  0  0  0  0
 28 29  1  0  0  0  0
 29 57  1  0  0  0  0
 30 31  1  0  0  0  0
 30 58  1  1  0  0  0
 30 32  1  0  0  0  0
 30 29  1  0  0  0  0
 31 59  1  0  0  0  0
 31 60  1  0  0  0  0
 31 61  1  0  0  0  0
 32 33  1  0  0  0  0
 32 37  2  0  0  0  0
 33 34  2  0  0  0  0
 33 62  1  0  0  0  0
 34 35  1  0  0  0  0
 34 63  1  0  0  0  0
 35 36  2  0  0  0  0
 35 64  1  0  0  0  0
 36 37  1  0  0  0  0
 36 65  1  0  0  0  0
 37 66  1  0  0  0  0
M  END
>  <DRUGBANK_ID>
DB01761

>  <SECONDARY_ACCESSION_NUMBERS>
EXPT00004

>  <COMMON_NAME>
4-[5-[2-(1-phenyl-ethylamino)-pyrimidin-4-yl]-1-methyl-4-(3-trifluoromethylphenyl)-1H-imidazol-2-yl]-piperidine

$$$$
