
 OpenBabel10282417113D

 47 50  0  0  0  0  0  0  0  0999 V2000
   -0.8408    1.6679    0.0017 C   0  0  0  0  0  0  0  0  0  0  0  0
   -1.9283    0.8658    0.0133 N   0  0  0  0  0  0  0  0  0  0  0  0
   -1.4440   -0.3763    0.0014 N   0  0  0  0  0  0  0  0  0  0  0  0
    0.3541    0.8950   -0.0065 C   0  0  0  0  0  0  0  0  0  0  0  0
   -1.0367    3.1247    0.0006 C   0  0  0  0  0  0  0  0  0  0  0  0
   -0.0769   -0.4318    0.0133 C   0  0  0  0  0  0  0  0  0  0  0  0
    0.0924    3.9464    0.0207 N   0  0  0  0  0  0  0  0  0  0  0  0
   -2.1884    3.5592   -0.0204 O   0  0  0  0  0  0  0  0  0  0  0  0
   -2.3542   -1.4968   -0.0542 C   0  0  0  0  0  0  0  0  0  0  0  0
    1.7384    1.1484   -0.0289 C   0  0  0  0  0  0  0  0  0  0  0  0
    0.8087   -1.5132    0.0308 C   0  0  0  0  0  0  0  0  0  0  0  0
    2.6348    0.0844   -0.0141 C   0  0  0  0  0  0  0  0  0  0  0  0
    2.1746   -1.2250    0.0219 C   0  0  0  0  0  0  0  0  0  0  0  0
    0.0982    5.4178    0.0272 C   0  0  2  0  0  0  0  0  0  0  0  0
    0.7740    5.9817    1.2943 C   0  0  0  0  0  0  0  0  0  0  0  0
   -1.2988    5.9943   -0.1467 C   0  0  0  0  0  0  0  0  0  0  0  0
   -1.4288    7.4882    0.0834 C   0  0  1  0  0  0  0  0  0  0  0  0
    0.5410    7.5100    1.4676 C   0  0  2  0  0  0  0  0  0  0  0  0
   -2.3547    7.7419    1.2956 C   0  0  0  0  0  0  0  0  0  0  0  0
   -0.2891    7.8063    2.7348 C   0  0  0  0  0  0  0  0  0  0  0  0
   -1.7231    7.2981    2.6180 C   0  0  0  0  0  0  0  0  0  0  0  0
   -0.0859    8.0505    0.2483 N   0  0  0  0  0  0  0  0  0  0  0  0
   -0.1011    9.5041    0.1783 C   0  0  0  0  0  0  0  0  0  0  0  0
    1.0020    3.5335   -0.0293 H   0  0  0  0  0  0  0  0  0  0  0  0
   -2.1865   -2.0251   -0.9963 H   0  0  0  0  0  0  0  0  0  0  0  0
   -2.1496   -2.1536    0.7946 H   0  0  0  0  0  0  0  0  0  0  0  0
   -3.3893   -1.1456   -0.0079 H   0  0  0  0  0  0  0  0  0  0  0  0
    2.1603    2.1433   -0.0582 H   0  0  0  0  0  0  0  0  0  0  0  0
    0.4534   -2.5373    0.0534 H   0  0  0  0  0  0  0  0  0  0  0  0
    3.6997    0.2981   -0.0296 H   0  0  0  0  0  0  0  0  0  0  0  0
    2.8937   -2.0377    0.0411 H   0  0  0  0  0  0  0  0  0  0  0  0
    0.7223    5.7111   -0.8312 H   0  0  0  0  0  0  0  0  0  0  0  0
    1.8552    5.7880    1.2459 H   0  0  0  0  0  0  0  0  0  0  0  0
    0.4201    5.4295    2.1738 H   0  0  0  0  0  0  0  0  0  0  0  0
   -1.9443    5.5233    0.5941 H   0  0  0  0  0  0  0  0  0  0  0  0
   -1.6690    5.7264   -1.1435 H   0  0  0  0  0  0  0  0  0  0  0  0
   -1.9113    7.9015   -0.8114 H   0  0  0  0  0  0  0  0  0  0  0  0
    1.5261    7.9773    1.5987 H   0  0  0  0  0  0  0  0  0  0  0  0
   -2.6031    8.8059    1.3498 H   0  0  0  0  0  0  0  0  0  0  0  0
   -3.3066    7.2110    1.1590 H   0  0  0  0  0  0  0  0  0  0  0  0
   -0.3131    8.8866    2.9203 H   0  0  0  0  0  0  0  0  0  0  0  0
    0.1904    7.3593    3.6136 H   0  0  0  0  0  0  0  0  0  0  0  0
   -2.3242    7.6610    3.4580 H   0  0  0  0  0  0  0  0  0  0  0  0
   -1.7294    6.2036    2.6957 H   0  0  0  0  0  0  0  0  0  0  0  0
   -0.6536    9.9715    0.9974 H   0  0  0  0  0  0  0  0  0  0  0  0
    0.9213    9.8912    0.1807 H   0  0  0  0  0  0  0  0  0  0  0  0
   -0.5611    9.8276   -0.7627 H   0  0  0  0  0  0  0  0  0  0  0  0
  2  1  2  0  0  0  0
  3  2  1  0  0  0  0
  4  1  1  0  0  0  0
  5  1  1  0  0  0  0
  6  3  1  0  0  0  0
  6  4  2  0  0  0  0
  7  5  1  0  0  0  0
  7 24  1  0  0  0  0
  8  5  2  0  0  0  0
  9  3  1  0  0  0  0
  9 25  1  0  0  0  0
  9 26  1  0  0  0  0
  9 27  1  0  0  0  0
 10  4  1  0  0  0  0
 10 28  1  0  0  0  0
 11  6  1  0  0  0  0
 11 29  1  0  0  0  0
 12 10  2  0  0  0  0
 12 30  1  0  0  0  0
 13 11  2  0  0  0  0
 13 12  1  0  0  0  0
 13 31  1  0  0  0  0
 14  7  1  0  0  0  0
 14 32  1  6  0  0  0
 15 14  1  0  0  0  0
 15 33  1  0  0  0  0
 15 34  1  0  0  0  0
 16 14  1  0  0  0  0
 16 35  1  0  0  0  0
 16 36  1  0  0  0  0
 17 16  1  0  0  0  0
 17 22  1  0  0  0  0
 17 37  1  6  0  0  0
 18 15  1  0  0  0  0
 18 22  1  0  0  0  0
 18 38  1  1  0  0  0
 19 17  1  0  0  0  0
 19 39  1  0  0  0  0
 19 40  1  0  0  0  0
 20 18  1  0  0  0  0
 20 41  1  0  0  0  0
 20 42  1  0  0  0  0
 21 19  1  0  0  0  0
 21 20  1  0  0  0  0
 21 43  1  0  0  0  0
 21 44  1  0  0  0  0
 22 23  1  0  0  0  0
 23 45  1  0  0  0  0
 23 46  1  0  0  0  0
 23 47  1  0  0  0  0
M  END
>  <DRUGBANK_ID>
DB00889

>  <SECONDARY_ACCESSION_NUMBERS>
APRD01002

>  <COMMON_NAME>
Granisetron

>  <CAS_NUMBER>
109889-09-0

>  <UNII>
WZG3J2MCOL

>  <SYNONYMS>
Granisétron; Granisetrón; Granisetron; Granisetronum

$$$$
