
 OpenBabel10282417193D

 68 71  0  0  0  0  0  0  0  0999 V2000
    1.0002   -0.2581    0.0017 C   0  0  0  0  0  0  0  0  0  0  0  0
    0.5588   -0.2546    1.4515 C   0  0  0  0  0  0  0  0  0  0  0  0
    1.0922    0.9539    2.2379 C   0  0  0  0  0  0  0  0  0  0  0  0
    0.5595    2.2630    1.7850 N   0  0  0  0  0  0  0  0  0  0  0  0
   -0.3703    2.8864    2.8312 C   0  0  0  0  0  0  0  0  0  0  0  0
    0.1600    4.1442    3.5918 C   0  0  0  0  0  0  0  0  0  0  0  0
    0.1405    5.1265    2.5302 C   0  0  0  0  0  0  0  0  0  0  0  0
    1.0460    2.7382    0.5067 C   0  0  0  0  0  0  0  0  0  0  0  0
    2.0269    2.2073   -0.0332 O   0  0  0  0  0  0  0  0  0  0  0  0
    0.5518    3.9542   -0.2860 C   0  0  0  0  0  0  0  0  0  0  0  0
    0.0640    3.9401   -1.5333 C   0  0  0  0  0  0  0  0  0  0  0  0
   -0.3286    5.2287   -2.1780 C   0  0  0  0  0  0  0  0  0  0  0  0
   -1.5358    5.1462   -2.8933 C   0  0  0  0  0  0  0  0  0  0  0  0
   -2.0719    6.2729   -3.5124 C   0  0  0  0  0  0  0  0  0  0  0  0
   -1.4591    7.5196   -3.3715 C   0  0  0  0  0  0  0  0  0  0  0  0
   -0.3075    7.6232   -2.5948 C   0  0  0  0  0  0  0  0  0  0  0  0
    0.3261    6.5060   -2.0710 C   0  0  0  0  0  0  0  0  0  0  0  0
    1.5734    6.8607   -1.4565 N   0  0  0  0  0  0  0  0  0  0  0  0
    1.8768    6.3261   -0.3543 C   0  0  0  0  0  0  0  0  0  0  0  0
    0.9893    5.2731    0.1886 C   0  0  0  0  0  0  0  0  0  0  0  0
    2.8979    6.6907    0.5258 N   0  0  0  0  0  0  0  0  0  0  0  0
   -1.9840    8.7316   -3.9801 C   0  0  0  0  0  0  0  0  0  0  0  0
   -1.1882    9.5250   -4.8221 C   0  0  0  0  0  0  0  0  0  0  0  0
   -1.5888   10.8237   -5.1551 C   0  0  0  0  0  0  0  0  0  0  0  0
   -2.8452   11.2960   -4.7550 C   0  0  0  0  0  0  0  0  0  0  0  0
   -3.7089   10.4053   -4.1075 C   0  0  0  0  0  0  0  0  0  0  0  0
   -3.2577    9.1758   -3.6455 C   0  0  0  0  0  0  0  0  0  0  0  0
   -3.2682   12.6992   -5.0894 C   0  0  0  0  0  0  0  0  0  0  0  0
   -2.5451   13.4028   -5.7975 O   0  0  0  0  0  0  0  0  0  0  0  0
   -4.5215   13.1062   -4.6754 N   0  0  0  0  0  0  0  0  0  0  0  0
   -5.0159   13.1308   -3.3110 C   0  0  0  0  0  0  0  0  0  0  0  0
   -6.4987   12.8831   -3.5139 C   0  0  0  0  0  0  0  0  0  0  0  0
   -6.8067   13.6980   -4.7726 C   0  0  0  0  0  0  0  0  0  0  0  0
   -5.4992   13.6906   -5.5770 C   0  0  0  0  0  0  0  0  0  0  0  0
    0.5057    0.5541   -0.5368 H   0  0  0  0  0  0  0  0  0  0  0  0
    0.7189   -1.1669   -0.5273 H   0  0  0  0  0  0  0  0  0  0  0  0
    2.0894   -0.1489   -0.0580 H   0  0  0  0  0  0  0  0  0  0  0  0
   -0.5359   -0.2729    1.4947 H   0  0  0  0  0  0  0  0  0  0  0  0
    0.9166   -1.1783    1.9249 H   0  0  0  0  0  0  0  0  0  0  0  0
    0.8001    0.7908    3.2858 H   0  0  0  0  0  0  0  0  0  0  0  0
    2.1865    0.9840    2.2445 H   0  0  0  0  0  0  0  0  0  0  0  0
   -1.3099    3.0891    2.3102 H   0  0  0  0  0  0  0  0  0  0  0  0
   -0.5807    2.1687    3.6280 H   0  0  0  0  0  0  0  0  0  0  0  0
   -0.4617    4.6041    4.3515 H   0  0  0  0  0  0  0  0  0  0  0  0
    1.2078    4.0403    3.9224 H   0  0  0  0  0  0  0  0  0  0  0  0
   -0.7904    5.0993    1.9448 H   0  0  0  0  0  0  0  0  0  0  0  0
    0.5819    6.1150    2.6043 H   0  0  0  0  0  0  0  0  0  0  0  0
    0.8948    4.5346    2.0716 H   0  0  0  0  0  0  0  0  0  0  0  0
   -0.1238    3.0085   -2.0565 H   0  0  0  0  0  0  0  0  0  0  0  0
   -2.0674    4.1995   -2.9779 H   0  0  0  0  0  0  0  0  0  0  0  0
   -2.9724    6.1699   -4.1114 H   0  0  0  0  0  0  0  0  0  0  0  0
    0.1332    8.6016   -2.3934 H   0  0  0  0  0  0  0  0  0  0  0  0
    1.7538    4.9698    0.8777 H   0  0  0  0  0  0  0  0  0  0  0  0
    0.0941    5.8595    0.4495 H   0  0  0  0  0  0  0  0  0  0  0  0
    3.5613    7.4126    0.3137 H   0  0  0  0  0  0  0  0  0  0  0  0
    2.9733    6.2721    1.4527 H   0  0  0  0  0  0  0  0  0  0  0  0
   -0.2317    9.1447   -5.1827 H   0  0  0  0  0  0  0  0  0  0  0  0
   -0.9115   11.4564   -5.7251 H   0  0  0  0  0  0  0  0  0  0  0  0
   -4.7430   10.6531   -3.9203 H   0  0  0  0  0  0  0  0  0  0  0  0
   -3.8919    8.5817   -2.9923 H   0  0  0  0  0  0  0  0  0  0  0  0
   -4.8454   14.1376   -2.9105 H   0  0  0  0  0  0  0  0  0  0  0  0
   -4.5157   12.4231   -2.6492 H   0  0  0  0  0  0  0  0  0  0  0  0
   -6.6804   11.8198   -3.7140 H   0  0  0  0  0  0  0  0  0  0  0  0
   -7.1041   13.1745   -2.6527 H   0  0  0  0  0  0  0  0  0  0  0  0
   -7.6461   13.2773   -5.3364 H   0  0  0  0  0  0  0  0  0  0  0  0
   -7.0753   14.7233   -4.4955 H   0  0  0  0  0  0  0  0  0  0  0  0
   -5.5732   13.0700   -6.4764 H   0  0  0  0  0  0  0  0  0  0  0  0
   -5.2010   14.7024   -5.8689 H   0  0  0  0  0  0  0  0  0  0  0  0
  1  2  1  0  0  0  0
  1 35  1  0  0  0  0
  1 36  1  0  0  0  0
  1 37  1  0  0  0  0
  2  3  1  0  0  0  0
  2 38  1  0  0  0  0
  2 39  1  0  0  0  0
  3  4  1  0  0  0  0
  3 40  1  0  0  0  0
  3 41  1  0  0  0  0
  4  5  1  0  0  0  0
  4  8  1  0  0  0  0
  5  6  1  0  0  0  0
  5 42  1  0  0  0  0
  5 43  1  0  0  0  0
  6  7  1  0  0  0  0
  6 44  1  0  0  0  0
  6 45  1  0  0  0  0
  7 46  1  0  0  0  0
  7 47  1  0  0  0  0
  7 48  1  0  0  0  0
  8  9  2  0  0  0  0
  8 10  1  0  0  0  0
 10 11  2  0  0  0  0
 10 20  1  0  0  0  0
 11 12  1  0  0  0  0
 11 49  1  0  0  0  0
 12 13  2  0  0  0  0
 12 17  1  0  0  0  0
 13 14  1  0  0  0  0
 13 50  1  0  0  0  0
 14 15  2  0  0  0  0
 14 51  1  0  0  0  0
 15 16  1  0  0  0  0
 15 22  1  0  0  0  0
 16 17  2  0  0  0  0
 16 52  1  0  0  0  0
 17 18  1  0  0  0  0
 18 19  2  0  0  0  0
 19 20  1  0  0  0  0
 19 21  1  0  0  0  0
 20 53  1  0  0  0  0
 20 54  1  0  0  0  0
 21 55  1  0  0  0  0
 21 56  1  0  0  0  0
 22 23  2  0  0  0  0
 22 27  1  0  0  0  0
 23 24  1  0  0  0  0
 23 57  1  0  0  0  0
 24 25  2  0  0  0  0
 24 58  1  0  0  0  0
 25 26  1  0  0  0  0
 25 28  1  0  0  0  0
 26 27  2  0  0  0  0
 26 59  1  0  0  0  0
 27 60  1  0  0  0  0
 28 29  2  0  0  0  0
 28 30  1  0  0  0  0
 30 31  1  0  0  0  0
 30 34  1  0  0  0  0
 31 32  1  0  0  0  0
 31 61  1  0  0  0  0
 31 62  1  0  0  0  0
 32 33  1  0  0  0  0
 32 63  1  0  0  0  0
 32 64  1  0  0  0  0
 33 34  1  0  0  0  0
 33 65  1  0  0  0  0
 33 66  1  0  0  0  0
 34 67  1  0  0  0  0
 34 68  1  0  0  0  0
M  END
>  <DRUGBANK_ID>
DB12303

>  <COMMON_NAME>
Motolimod

>  <CAS_NUMBER>
926927-61-9

>  <UNII>
WP6PY72ZH3

>  <SYNONYMS>
{2-amino-8-[4-(pyrrolidinylcarbonyl)phenyl](3H-benzo[f]azepin-4-yl)}-N,N-dipropycarboxamide; Motolimod

$$$$
