
 OpenBabel10282417173D

107111  0  0  1  0  0  0  0  0999 V2000
    0.1564    4.1551   -0.2131 C   0  0  1  0  0  0  0  0  0  0  0  0
    0.6208    5.4366   -0.9379 C   0  0  0  0  0  0  0  0  0  0  0  0
    1.5506    3.2769    0.1249 C   0  0  0  0  0  0  0  0  0  0  0  0
   -0.7878    4.5540    0.8478 N   0  0  0  0  0  0  0  0  0  0  0  0
    1.7643    2.7176    1.5114 C   0  0  0  0  0  0  0  0  0  0  0  0
   -2.1283    4.1102    0.9910 C   0  0  0  0  0  0  0  0  0  0  0  0
    0.8951    1.4811    2.0180 C   0  0  2  0  0  0  0  0  0  0  0  0
   -3.1108    4.4351    2.2837 C   0  0  1  0  0  0  0  0  0  0  0  0
   -2.5947    3.3747    0.1156 O   0  0  0  0  0  0  0  0  0  0  0  0
   -0.2277    1.2412    0.9926 C   0  0  0  0  0  0  0  0  0  0  0  0
    0.2587    1.2503    3.4615 N   0  0  0  0  0  0  0  0  0  0  0  0
   -4.2341    5.2516    1.9723 N   0  0  0  0  0  0  0  0  0  0  0  0
   -0.1864   -0.2099    0.7886 C   0  0  0  0  0  0  0  0  0  0  0  0
    0.6315    0.7999    4.7536 C   0  0  0  0  0  0  0  0  0  0  0  0
   -5.3523    5.0852    2.7207 C   0  0  0  0  0  0  0  0  0  0  0  0
   -0.4384   -1.0403    1.8867 C   0  0  0  0  0  0  0  0  0  0  0  0
    0.2875   -0.6799   -0.4185 C   0  0  0  0  0  0  0  0  0  0  0  0
    0.0869    1.4408    5.9381 O   0  0  0  0  0  0  0  0  0  0  0  0
    1.4855   -0.0230    4.8728 O   0  0  0  0  0  0  0  0  0  0  0  0
   -6.3005    6.0190    2.5555 N   0  0  0  0  0  0  0  0  0  0  0  0
   -5.5700    4.1345    3.4719 O   0  0  0  0  0  0  0  0  0  0  0  0
   -0.1069   -2.3611    1.8192 C   0  0  0  0  0  0  0  0  0  0  0  0
    0.4605   -2.0363   -0.5289 C   0  0  0  0  0  0  0  0  0  0  0  0
   -0.8537    2.5657    6.6450 C   0  0  0  0  0  0  0  0  0  0  0  0
   -7.6174    5.5592    2.9367 C   0  0  0  0  0  0  0  0  0  0  0  0
   -6.1021    7.2496    1.8168 C   0  0  0  0  0  0  0  0  0  0  0  0
    0.3114   -2.8619    0.5958 C   0  0  0  0  0  0  0  0  0  0  0  0
   -0.2529    4.1263    7.0555 C   0  0  0  0  0  0  0  0  0  0  0  0
   -8.2076    6.5016    3.8932 C   0  0  0  0  0  0  0  0  0  0  0  0
   -1.0417    5.2704    7.3600 C   0  0  0  0  0  0  0  0  0  0  0  0
    1.3707    4.9506    6.7853 S   0  0  0  0  0  0  0  0  0  0  0  0
   -9.0339    7.4667    3.3752 N   0  0  0  0  0  0  0  0  0  0  0  0
   -8.0194    6.5345    5.2618 C   0  0  0  0  0  0  0  0  0  0  0  0
   -0.6348    6.5206    6.7757 N   0  0  0  0  0  0  0  0  0  0  0  0
    0.5489    6.3955    6.2049 C   0  0  0  0  0  0  0  0  0  0  0  0
   -9.5100    8.2034    4.3457 C   0  0  0  0  0  0  0  0  0  0  0  0
   -8.9653    7.7905    5.9270 S   0  0  0  0  0  0  0  0  0  0  0  0
  -10.4692    9.3208    4.0814 C   0  0  0  0  0  0  0  0  0  0  0  0
  -11.8200    9.0500    4.7308 C   0  0  0  0  0  0  0  0  0  0  0  0
   -9.8902   10.6585    4.5209 C   0  0  0  0  0  0  0  0  0  0  0  0
    1.3149    5.0552   -2.2150 C   0  0  0  0  0  0  0  0  0  0  0  0
    1.9537    6.0314   -2.9572 C   0  0  0  0  0  0  0  0  0  0  0  0
    2.6393    5.6486   -4.1043 C   0  0  0  0  0  0  0  0  0  0  0  0
    2.7724    4.2979   -4.4525 C   0  0  0  0  0  0  0  0  0  0  0  0
    2.2053    3.3143   -3.6756 C   0  0  0  0  0  0  0  0  0  0  0  0
    1.3907    3.7137   -2.6478 C   0  0  0  0  0  0  0  0  0  0  0  0
   -3.3375    3.2505    3.2610 C   0  0  0  0  0  0  0  0  0  0  0  0
   -2.0475    2.6107    3.6037 C   0  0  0  0  0  0  0  0  0  0  0  0
   -0.9927    3.4648    4.2271 N   0  0  0  0  0  0  0  0  0  0  0  0
   -1.4425    4.8182    4.4851 C   0  0  0  0  0  0  0  0  0  0  0  0
   -0.9138    5.8714    3.5400 C   0  0  0  0  0  0  0  0  0  0  0  0
    0.4860    5.8939    3.4208 O   0  0  0  0  0  0  0  0  0  0  0  0
    0.9359    4.5857    3.3541 C   0  0  0  0  0  0  0  0  0  0  0  0
    0.5302    3.5254    4.2715 C   0  0  0  0  0  0  0  0  0  0  0  0
   -0.4696    3.5820   -0.8938 H   0  0  0  0  0  0  0  0  0  0  0  0
   -0.2165    6.1159   -1.1443 H   0  0  0  0  0  0  0  0  0  0  0  0
    1.3091    6.0031   -0.2827 H   0  0  0  0  0  0  0  0  0  0  0  0
    1.7441    2.4430   -0.5490 H   0  0  0  0  0  0  0  0  0  0  0  0
    2.4047    3.9635   -0.0499 H   0  0  0  0  0  0  0  0  0  0  0  0
   -0.3971    5.3711    1.2986 H   0  0  0  0  0  0  0  0  0  0  0  0
    2.8031    2.6083    1.8434 H   0  0  0  0  0  0  0  0  0  0  0  0
    1.6642    3.7168    1.7970 H   0  0  0  0  0  0  0  0  0  0  0  0
    1.6657    0.7096    2.0211 H   0  0  0  0  0  0  0  0  0  0  0  0
   -2.7972    5.1957    2.9530 H   0  0  0  0  0  0  0  0  0  0  0  0
   -1.2457    1.4740    1.2605 H   0  0  0  0  0  0  0  0  0  0  0  0
   -0.1225    1.7388    0.0341 H   0  0  0  0  0  0  0  0  0  0  0  0
   -0.3889    1.9538    3.5996 H   0  0  0  0  0  0  0  0  0  0  0  0
   -3.9714    6.2256    1.8609 H   0  0  0  0  0  0  0  0  0  0  0  0
   -0.7821   -0.6460    2.8373 H   0  0  0  0  0  0  0  0  0  0  0  0
    0.5268    0.0081   -1.2275 H   0  0  0  0  0  0  0  0  0  0  0  0
   -0.1872   -2.9597    2.7189 H   0  0  0  0  0  0  0  0  0  0  0  0
    0.7262   -2.4459   -1.4922 H   0  0  0  0  0  0  0  0  0  0  0  0
   -1.8074    2.6088    6.0842 H   0  0  0  0  0  0  0  0  0  0  0  0
   -1.2318    2.1202    7.5714 H   0  0  0  0  0  0  0  0  0  0  0  0
   -8.1953    5.4335    2.0204 H   0  0  0  0  0  0  0  0  0  0  0  0
   -7.6090    4.5692    3.4137 H   0  0  0  0  0  0  0  0  0  0  0  0
   -5.4099    7.8749    2.3962 H   0  0  0  0  0  0  0  0  0  0  0  0
   -5.6266    7.0260    0.8559 H   0  0  0  0  0  0  0  0  0  0  0  0
   -7.0393    7.7708    1.6515 H   0  0  0  0  0  0  0  0  0  0  0  0
    0.5208   -3.9177    0.5182 H   0  0  0  0  0  0  0  0  0  0  0  0
   -2.0814    5.2295    7.6476 H   0  0  0  0  0  0  0  0  0  0  0  0
   -7.4027    5.8898    5.8756 H   0  0  0  0  0  0  0  0  0  0  0  0
    0.8696    7.0458    5.3654 H   0  0  0  0  0  0  0  0  0  0  0  0
  -10.6279    9.3685    2.9933 H   0  0  0  0  0  0  0  0  0  0  0  0
  -11.7328    8.9906    5.8204 H   0  0  0  0  0  0  0  0  0  0  0  0
  -12.5268    9.8496    4.4925 H   0  0  0  0  0  0  0  0  0  0  0  0
  -12.2431    8.1025    4.3772 H   0  0  0  0  0  0  0  0  0  0  0  0
   -8.9363   10.8566    4.0185 H   0  0  0  0  0  0  0  0  0  0  0  0
  -10.5796   11.4723    4.2801 H   0  0  0  0  0  0  0  0  0  0  0  0
   -9.7096   10.6780    5.6004 H   0  0  0  0  0  0  0  0  0  0  0  0
    1.9011    7.0746   -2.6558 H   0  0  0  0  0  0  0  0  0  0  0  0
    3.0864    6.4098   -4.7307 H   0  0  0  0  0  0  0  0  0  0  0  0
    3.2983    4.0033   -5.3502 H   0  0  0  0  0  0  0  0  0  0  0  0
    2.3456    2.2533   -3.8570 H   0  0  0  0  0  0  0  0  0  0  0  0
    0.8552    2.9018   -2.1682 H   0  0  0  0  0  0  0  0  0  0  0  0
   -3.7552    3.5212    4.2456 H   0  0  0  0  0  0  0  0  0  0  0  0
   -4.0134    2.5176    2.8109 H   0  0  0  0  0  0  0  0  0  0  0  0
   -2.2547    1.6835    4.1732 H   0  0  0  0  0  0  0  0  0  0  0  0
   -1.7643    2.2984    2.6279 H   0  0  0  0  0  0  0  0  0  0  0  0
   -0.8708    5.0725    5.2859 H   0  0  0  0  0  0  0  0  0  0  0  0
   -2.4529    4.9090    4.8844 H   0  0  0  0  0  0  0  0  0  0  0  0
   -1.2418    5.5655    2.6004 H   0  0  0  0  0  0  0  0  0  0  0  0
   -1.3283    6.8628    3.6288 H   0  0  0  0  0  0  0  0  0  0  0  0
    2.0221    4.5616    3.2535 H   0  0  0  0  0  0  0  0  0  0  0  0
    0.3505    4.1289    2.5585 H   0  0  0  0  0  0  0  0  0  0  0  0
    1.0208    3.4265    5.2195 H   0  0  0  0  0  0  0  0  0  0  0  0
    1.2433    2.7803    3.9173 H   0  0  0  0  0  0  0  0  0  0  0  0
  1  4  1  0  0  0  0
  1 55  1  6  0  0  0
  1  3  1  0  0  0  0
  1  2  1  0  0  0  0
  2 41  1  0  0  0  0
  2 56  1  0  0  0  0
  2 57  1  0  0  0  0
  3  5  1  0  0  0  0
  3 58  1  0  0  0  0
  3 59  1  0  0  0  0
  4  6  1  0  0  0  0
  4 60  1  0  0  0  0
  5 61  1  0  0  0  0
  5 62  1  0  0  0  0
  6  8  1  0  0  0  0
  6  9  2  0  0  0  0
  7 11  1  0  0  0  0
  7 63  1  6  0  0  0
  7 10  1  0  0  0  0
  7  5  1  0  0  0  0
  8 12  1  0  0  0  0
  8 47  1  0  0  0  0
  8 64  1  1  0  0  0
 10 13  1  0  0  0  0
 10 65  1  0  0  0  0
 10 66  1  0  0  0  0
 11 14  1  0  0  0  0
 11 67  1  0  0  0  0
 12 15  1  0  0  0  0
 12 68  1  0  0  0  0
 13 16  2  0  0  0  0
 13 17  1  0  0  0  0
 14 18  1  0  0  0  0
 14 19  2  0  0  0  0
 15 20  1  0  0  0  0
 15 21  2  0  0  0  0
 16 22  1  0  0  0  0
 16 69  1  0  0  0  0
 17 23  2  0  0  0  0
 17 70  1  0  0  0  0
 18 24  1  0  0  0  0
 20 25  1  0  0  0  0
 20 26  1  0  0  0  0
 22 27  2  0  0  0  0
 22 71  1  0  0  0  0
 23 27  1  0  0  0  0
 23 72  1  0  0  0  0
 24 28  1  0  0  0  0
 24 73  1  0  0  0  0
 24 74  1  0  0  0  0
 25 29  1  0  0  0  0
 25 75  1  0  0  0  0
 25 76  1  0  0  0  0
 26 77  1  0  0  0  0
 26 78  1  0  0  0  0
 26 79  1  0  0  0  0
 27 80  1  0  0  0  0
 28 30  2  0  0  0  0
 28 31  1  0  0  0  0
 29 32  1  0  0  0  0
 29 33  2  0  0  0  0
 30 34  1  0  0  0  0
 30 81  1  0  0  0  0
 31 35  1  0  0  0  0
 32 36  2  0  0  0  0
 33 37  1  0  0  0  0
 33 82  1  0  0  0  0
 34 35  2  0  0  0  0
 35 83  1  0  0  0  0
 36 38  1  0  0  0  0
 36 37  1  0  0  0  0
 38 39  1  0  0  0  0
 38 40  1  0  0  0  0
 38 84  1  0  0  0  0
 39 85  1  0  0  0  0
 39 86  1  0  0  0  0
 39 87  1  0  0  0  0
 40 88  1  0  0  0  0
 40 89  1  0  0  0  0
 40 90  1  0  0  0  0
 41 42  2  0  0  0  0
 41 46  1  0  0  0  0
 42 43  1  0  0  0  0
 42 91  1  0  0  0  0
 43 44  2  0  0  0  0
 43 92  1  0  0  0  0
 44 45  1  0  0  0  0
 44 93  1  0  0  0  0
 45 46  2  0  0  0  0
 45 94  1  0  0  0  0
 46 95  1  0  0  0  0
 47 48  1  0  0  0  0
 47 96  1  0  0  0  0
 47 97  1  0  0  0  0
 48 49  1  0  0  0  0
 48 98  1  0  0  0  0
 48 99  1  0  0  0  0
 49 50  1  0  0  0  0
 49 54  1  0  0  0  0
 50 51  1  0  0  0  0
 50100  1  0  0  0  0
 50101  1  0  0  0  0
 51 52  1  0  0  0  0
 51102  1  0  0  0  0
 51103  1  0  0  0  0
 52 53  1  0  0  0  0
 53 54  1  0  0  0  0
 53104  1  0  0  0  0
 53105  1  0  0  0  0
 54106  1  0  0  0  0
 54107  1  0  0  0  0
M  END
>  <DRUGBANK_ID>
DB09065

>  <COMMON_NAME>
Cobicistat

>  <CAS_NUMBER>
1004316-88-4

>  <UNII>
LW2E03M5PG

>  <SYNONYMS>
1,3-thiazol-5-ylmethyl [(2R,5R)-5-{[(2S)-2-({[(2-isopropyl-1,3-thiazol-4-yl)methyl](methyl)carbamoyl}amino)-4-(morpholin-4-yl)butanoyl]amino}-1,6-diphenylhexan-2-yl]carbamate; Cobicistat

$$$$
