
 OpenBabel10282417123D

 33 33  0  0  0  0  0  0  0  0999 V2000
    1.1874   -0.1366    0.2114 O   0  0  0  0  0  0  0  0  0  0  0  0
    2.6215   -0.0185    0.2250 S   0  0  0  0  0  0  0  0  0  0  0  0
    3.3422   -0.0485    1.4805 O   0  0  0  0  0  0  0  0  0  0  0  0
    3.1844   -1.2427   -0.6617 O   0  0  0  0  0  0  0  0  0  0  0  0
    3.2144    1.3645   -0.7686 C   0  0  0  0  0  0  0  0  0  0  0  0
    2.7058    1.4117   -2.2087 C   0  0  0  0  0  0  0  0  0  0  0  0
    1.1886    1.4790   -2.3214 C   0  0  0  0  0  0  0  0  0  0  0  0
    0.6485    2.6337   -1.6020 N   0  0  0  0  0  0  0  0  0  0  0  0
   -0.8209    2.6197   -1.5684 C   0  0  0  0  0  0  0  0  0  0  0  0
   -1.3015    3.8630   -0.8005 C   0  0  0  0  0  0  0  0  0  0  0  0
   -2.8233    3.8679   -0.6663 C   0  0  0  0  0  0  0  0  0  0  0  0
   -3.3307    2.5940    0.0034 C   0  0  0  0  0  0  0  0  0  0  0  0
   -2.8663    1.3585   -0.7480 C   0  0  0  0  0  0  0  0  0  0  0  0
   -1.3581    1.3491   -0.8894 C   0  0  0  0  0  0  0  0  0  0  0  0
    2.8588   -2.0775   -0.2592 H   0  0  0  0  0  0  0  0  0  0  0  0
    2.9374    2.2725   -0.2237 H   0  0  0  0  0  0  0  0  0  0  0  0
    4.3075    1.3166   -0.7614 H   0  0  0  0  0  0  0  0  0  0  0  0
    3.1351    2.2848   -2.7175 H   0  0  0  0  0  0  0  0  0  0  0  0
    3.0570    0.5290   -2.7562 H   0  0  0  0  0  0  0  0  0  0  0  0
    0.8879    1.5213   -3.3736 H   0  0  0  0  0  0  0  0  0  0  0  0
    0.8052    0.5316   -1.9492 H   0  0  0  0  0  0  0  0  0  0  0  0
    0.9632    2.6407   -0.6334 H   0  0  0  0  0  0  0  0  0  0  0  0
   -1.1964    2.6816   -2.5972 H   0  0  0  0  0  0  0  0  0  0  0  0
   -0.8560    3.8872    0.2042 H   0  0  0  0  0  0  0  0  0  0  0  0
   -0.9764    4.7782   -1.3109 H   0  0  0  0  0  0  0  0  0  0  0  0
   -3.1408    4.7393   -0.0846 H   0  0  0  0  0  0  0  0  0  0  0  0
   -3.2721    3.9590   -1.6628 H   0  0  0  0  0  0  0  0  0  0  0  0
   -2.9624    2.5512    1.0363 H   0  0  0  0  0  0  0  0  0  0  0  0
   -4.4238    2.6014    0.0473 H   0  0  0  0  0  0  0  0  0  0  0  0
   -3.1797    0.4522   -0.2185 H   0  0  0  0  0  0  0  0  0  0  0  0
   -3.3200    1.3278   -1.7453 H   0  0  0  0  0  0  0  0  0  0  0  0
   -1.1027    0.4536   -1.4625 H   0  0  0  0  0  0  0  0  0  0  0  0
   -0.9089    1.2482    0.1065 H   0  0  0  0  0  0  0  0  0  0  0  0
  1  2  2  0  0  0  0
  2  3  2  0  0  0  0
  2  4  1  0  0  0  0
  2  5  1  0  0  0  0
  4 15  1  0  0  0  0
  5  6  1  0  0  0  0
  5 16  1  0  0  0  0
  5 17  1  0  0  0  0
  6  7  1  0  0  0  0
  6 18  1  0  0  0  0
  6 19  1  0  0  0  0
  7  8  1  0  0  0  0
  7 20  1  0  0  0  0
  7 21  1  0  0  0  0
  8  9  1  0  0  0  0
  8 22  1  0  0  0  0
  9 10  1  0  0  0  0
  9 23  1  0  0  0  0
 10 11  1  0  0  0  0
 10 24  1  0  0  0  0
 10 25  1  0  0  0  0
 11 12  1  0  0  0  0
 11 26  1  0  0  0  0
 11 27  1  0  0  0  0
 12 13  1  0  0  0  0
 12 28  1  0  0  0  0
 12 29  1  0  0  0  0
 13 14  1  0  0  0  0
 13 30  1  0  0  0  0
 13 31  1  0  0  0  0
 14  9  1  0  0  0  0
 14 32  1  0  0  0  0
 14 33  1  0  0  0  0
M  END
>  <DRUGBANK_ID>
DB02219

>  <SECONDARY_ACCESSION_NUMBERS>
EXPT01070

>  <COMMON_NAME>
3-(cyclohexylamino)propanesulfonic acid

>  <CAS_NUMBER>
1135-40-6

>  <UNII>
4W981O1LXP

>  <SYNONYMS>
3-(Cyclohexylamino)-1-propanesulfonic acid; 3-Cyclohexylaminopropane-1-sulphonic acid; CAPS

$$$$
