
 OpenBabel10282417123D

 17 17  0  0  1  0  0  0  0  0999 V2000
   -1.6462    3.0287    0.0056 O   0  0  0  0  0  0  0  0  0  0  0  0
   -1.9520    2.7325    2.1907 O   0  0  0  0  0  0  0  0  0  0  0  0
   -1.8456    0.2490   -0.4223 N   0  0  0  0  0  0  0  0  0  0  0  0
   -1.2810    0.7832    0.8443 C   0  0  2  0  0  0  0  0  0  0  0  0
   -3.1801   -0.2792   -0.1033 C   0  0  0  0  0  0  0  0  0  0  0  0
   -1.8470   -0.1626    1.8907 C   0  0  0  0  0  0  0  0  0  0  0  0
   -3.2684   -0.3909    1.4108 C   0  0  0  0  0  0  0  0  0  0  0  0
   -1.6845    2.2422    1.1018 C   0  0  0  0  0  0  0  0  0  0  0  0
   -1.9016    3.9175    0.3238 H   0  0  0  0  0  0  0  0  0  0  0  0
   -1.2577   -0.5303   -0.7198 H   0  0  0  0  0  0  0  0  0  0  0  0
   -0.1865    0.7526    0.8237 H   0  0  0  0  0  0  0  0  0  0  0  0
   -3.3192   -1.2574   -0.5774 H   0  0  0  0  0  0  0  0  0  0  0  0
   -3.9555    0.3884   -0.4924 H   0  0  0  0  0  0  0  0  0  0  0  0
   -1.2956   -1.1116    1.8808 H   0  0  0  0  0  0  0  0  0  0  0  0
   -1.8211    0.2338    2.9098 H   0  0  0  0  0  0  0  0  0  0  0  0
   -3.6660   -1.3552    1.7410 H   0  0  0  0  0  0  0  0  0  0  0  0
   -3.9240    0.3966    1.8017 H   0  0  0  0  0  0  0  0  0  0  0  0
  1  8  1  0  0  0  0
  1  9  1  0  0  0  0
  2  8  2  0  0  0  0
  3  4  1  0  0  0  0
  3  5  1  0  0  0  0
  3 10  1  0  0  0  0
  4  6  1  0  0  0  0
  4 11  1  6  0  0  0
  4  8  1  0  0  0  0
  5  7  1  0  0  0  0
  5 12  1  0  0  0  0
  5 13  1  0  0  0  0
  6  7  1  0  0  0  0
  6 14  1  0  0  0  0
  6 15  1  0  0  0  0
  7 16  1  0  0  0  0
  7 17  1  0  0  0  0
M  END
>  <DRUGBANK_ID>
DB02853

>  <SECONDARY_ACCESSION_NUMBERS>
EXPT01259

>  <COMMON_NAME>
D-Proline

>  <CAS_NUMBER>
344-25-2

>  <UNII>
L01Q4LGZ5L

>  <SYNONYMS>
(2R)-pyrrolidine-2-carboxylic acid; (R)-2-Carboxypyrrolidine; (R)-pyrrolidine-2-carboxylic acid; D-Prolin; DPR

$$$$
