
 OpenBabel10282417183D

146150  0  0  0  0  0  0  0  0999 V2000
    4.1523    1.6333    3.3850 S   0  0  0  0  0  0  0  0  0  0  0  0
    6.1928    3.3150    4.7977 S   0  0  0  0  0  0  0  0  0  0  0  0
    6.4797   -0.9578   -0.6311 O   0  0  0  0  0  0  0  0  0  0  0  0
    4.9786    3.4624    2.6290 O   0  0  0  0  0  0  0  0  0  0  0  0
    3.1841   -2.6349    3.8813 O   0  0  0  0  0  0  0  0  0  0  0  0
    8.3567   -1.9546    3.9935 O   0  0  0  0  0  0  0  0  0  0  0  0
    7.3513    3.9061    2.4539 O   0  0  0  0  0  0  0  0  0  0  0  0
    7.5767    3.1135    7.2858 O   0  0  0  0  0  0  0  0  0  0  0  0
   11.9676    1.3551    3.1950 O   0  0  0  0  0  0  0  0  0  0  0  0
    1.6045    2.2139    2.9620 O   0  0  0  0  0  0  0  0  0  0  0  0
    9.6758    6.3349    5.6484 O   0  0  0  0  0  0  0  0  0  0  0  0
    5.5872   -1.7429    1.3475 N   0  0  0  0  0  0  0  0  0  0  0  0
    5.7883    1.8329    1.4902 N   0  0  0  0  0  0  0  0  0  0  0  0
    6.9901   -0.3698    4.5695 N   0  0  0  0  0  0  0  0  0  0  0  0
    2.6565   -0.9524    2.4457 N   0  0  0  0  0  0  0  0  0  0  0  0
    4.2581   -0.3846    7.2009 N   0  0  0  0  0  0  0  0  0  0  0  0
    8.7206    1.8089    2.8134 N   0  0  0  0  0  0  0  0  0  0  0  0
    8.1808    3.0431    4.4075 N   0  0  0  0  0  0  0  0  0  0  0  0
   11.1535    1.7708    5.3069 N   0  0  0  0  0  0  0  0  0  0  0  0
   10.1167    2.2821    1.1377 N   0  0  0  0  0  0  0  0  0  0  0  0
    9.7341   -1.3850    6.2230 N   0  0  0  0  0  0  0  0  0  0  0  0
   11.1224    4.7369    4.5841 N   0  0  0  0  0  0  0  0  0  0  0  0
   10.6641   -0.7375    8.2279 N   0  0  0  0  0  0  0  0  0  0  0  0
    2.8513    2.9143    1.0974 N   0  0  0  0  0  0  0  0  0  0  0  0
   15.1252    4.4481    5.1873 N   0  0  0  0  0  0  0  0  0  0  0  0
    7.7605    2.8371    0.8013 N   0  0  0  0  0  0  0  0  0  0  0  0
    9.3993    4.5516    1.4810 N   0  0  0  0  0  0  0  0  0  0  0  0
   13.2464    5.6575    4.4524 N   0  0  0  0  0  0  0  0  0  0  0  0
   14.7292    6.7388    5.4123 N   0  0  0  0  0  0  0  0  0  0  0  0
    6.4383    0.6123    0.9593 C   0  0  1  0  0  0  0  0  0  0  0  0
    5.0548   -1.8682    2.7537 C   0  0  1  0  0  0  0  0  0  0  0  0
    7.4866    0.0799    1.8391 C   0  0  0  0  0  0  0  0  0  0  0  0
    5.0841   -0.6229    3.4329 C   0  0  0  0  0  0  0  0  0  0  0  0
    6.3146    1.1442    4.3578 C   0  0  1  0  0  0  0  0  0  0  0  0
    6.0758   -0.7493    0.5112 C   0  0  0  0  0  0  0  0  0  0  0  0
    4.3147   -0.1571    4.9877 C   0  0  0  0  0  0  0  0  0  0  0  0
    8.8968   -0.2833    1.4305 C   0  0  0  0  0  0  0  0  0  0  0  0
    5.8817    2.4142    2.7324 C   0  0  0  0  0  0  0  0  0  0  0  0
    6.0291    1.3561    6.1561 C   0  0  0  0  0  0  0  0  0  0  0  0
    9.1205    0.3894    3.6324 C   0  0  2  0  0  0  0  0  0  0  0  0
    3.6181    1.3921    5.7137 C   0  0  0  0  0  0  0  0  0  0  0  0
    3.5587   -1.8798    2.9862 C   0  0  0  0  0  0  0  0  0  0  0  0
    3.7462    1.0536    7.1093 C   0  0  0  0  0  0  0  0  0  0  0  0
    8.1780   -0.7498    4.0950 C   0  0  0  0  0  0  0  0  0  0  0  0
    4.5127   -1.0375    6.0085 C   0  0  0  0  0  0  0  0  0  0  0  0
    9.3978    0.8554    4.8578 C   0  0  0  0  0  0  0  0  0  0  0  0
    9.6915    0.8297    0.6557 C   0  0  0  0  0  0  0  0  0  0  0  0
    6.6398    0.7009    7.2910 C   0  0  0  0  0  0  0  0  0  0  0  0
    2.8456    0.3687    1.9428 C   0  0  1  0  0  0  0  0  0  0  0  0
    3.8031    3.1644    5.4180 C   0  0  0  0  0  0  0  0  0  0  0  0
    8.9180    3.9850    3.7293 C   0  0  1  0  0  0  0  0  0  0  0  0
    9.7727    2.6297    6.2415 C   0  0  2  0  0  0  0  0  0  0  0  0
    8.2408    3.1433    2.9380 C   0  0  0  0  0  0  0  0  0  0  0  0
    4.0588    2.3595    7.9858 C   0  0  0  0  0  0  0  0  0  0  0  0
   10.2974   -0.1879    5.9928 C   0  0  0  0  0  0  0  0  0  0  0  0
   11.9378    3.4441    4.5027 C   0  0  1  0  0  0  0  0  0  0  0  0
    3.8193    0.7226    1.0657 C   0  0  0  0  0  0  0  0  0  0  0  0
   12.6287    3.3124    5.9359 C   0  0  0  0  0  0  0  0  0  0  0  0
    4.4251    4.2114    6.2831 C   0  0  0  0  0  0  0  0  0  0  0  0
    8.2250    2.8051    6.2006 C   0  0  0  0  0  0  0  0  0  0  0  0
    7.7737    0.3404    6.9043 C   0  0  0  0  0  0  0  0  0  0  0  0
    6.5813    1.0620    8.5876 C   0  0  0  0  0  0  0  0  0  0  0  0
    8.4145    3.8503    5.9158 C   0  0  0  0  0  0  0  0  0  0  0  0
    4.5113    3.7721    7.5555 C   0  0  0  0  0  0  0  0  0  0  0  0
   11.7093    2.0892    4.1271 C   0  0  0  0  0  0  0  0  0  0  0  0
   13.8326    2.4926    5.9366 C   0  0  0  0  0  0  0  0  0  0  0  0
    2.2595    1.9084    1.9632 C   0  0  0  0  0  0  0  0  0  0  0  0
    8.2591    5.3958    3.9485 C   0  0  0  0  0  0  0  0  0  0  0  0
   11.0732    0.1997    7.3134 C   0  0  0  0  0  0  0  0  0  0  0  0
    8.7379    0.8507    7.6222 C   0  0  0  0  0  0  0  0  0  0  0  0
    7.6563    1.3293    9.3742 C   0  0  0  0  0  0  0  0  0  0  0  0
   14.7413    3.0488    4.8704 C   0  0  0  0  0  0  0  0  0  0  0  0
    8.8425    1.1234    8.8931 C   0  0  0  0  0  0  0  0  0  0  0  0
    9.9467   -1.6013    7.5426 C   0  0  0  0  0  0  0  0  0  0  0  0
    9.2137    3.2351    0.9555 C   0  0  0  0  0  0  0  0  0  0  0  0
   10.6281    5.5579    5.6759 C   0  0  0  0  0  0  0  0  0  0  0  0
   11.1543    5.2963    7.0283 C   0  0  0  0  0  0  0  0  0  0  0  0
   14.4244    5.5095    5.0387 C   0  0  0  0  0  0  0  0  0  0  0  0
    4.5251   -0.8256    8.0718 H   0  0  0  0  0  0  0  0  0  0  0  0
   11.1919    0.7771    4.9079 H   0  0  0  0  0  0  0  0  0  0  0  0
    9.1064   -1.8346    5.5518 H   0  0  0  0  0  0  0  0  0  0  0  0
   10.6725    4.8029    3.6965 H   0  0  0  0  0  0  0  0  0  0  0  0
    3.5529    2.8214    0.3511 H   0  0  0  0  0  0  0  0  0  0  0  0
    2.9028    3.8664    1.4678 H   0  0  0  0  0  0  0  0  0  0  0  0
   12.4083    6.0942    4.8232 H   0  0  0  0  0  0  0  0  0  0  0  0
   12.9631    4.7490    4.5594 H   0  0  0  0  0  0  0  0  0  0  0  0
   15.6955    6.9349    5.5545 H   0  0  0  0  0  0  0  0  0  0  0  0
   14.0480    7.4778    5.3144 H   0  0  0  0  0  0  0  0  0  0  0  0
    5.4984   -2.6268    0.9057 H   0  0  0  0  0  0  0  0  0  0  0  0
    4.8284    2.0854    1.2537 H   0  0  0  0  0  0  0  0  0  0  0  0
    6.4051   -1.1403    4.8622 H   0  0  0  0  0  0  0  0  0  0  0  0
    1.7017   -1.0214    2.6898 H   0  0  0  0  0  0  0  0  0  0  0  0
    8.6329    1.6296    1.8652 H   0  0  0  0  0  0  0  0  0  0  0  0
    7.3177    3.5956    4.2442 H   0  0  0  0  0  0  0  0  0  0  0  0
    6.9722    3.3518    1.3543 H   0  0  0  0  0  0  0  0  0  0  0  0
    7.3701    2.1674    1.5297 H   0  0  0  0  0  0  0  0  0  0  0  0
   10.1395    4.8112    2.1480 H   0  0  0  0  0  0  0  0  0  0  0  0
    8.5056    4.8767    1.9066 H   0  0  0  0  0  0  0  0  0  0  0  0
    6.8650    1.1098    0.1209 H   0  0  0  0  0  0  0  0  0  0  0  0
    5.7559   -2.4121    3.3988 H   0  0  0  0  0  0  0  0  0  0  0  0
    7.3139    0.7556    2.6157 H   0  0  0  0  0  0  0  0  0  0  0  0
    7.2349   -0.7661    2.4278 H   0  0  0  0  0  0  0  0  0  0  0  0
    5.9504   -0.1054    3.2215 H   0  0  0  0  0  0  0  0  0  0  0  0
    5.2191   -0.0295    2.5729 H   0  0  0  0  0  0  0  0  0  0  0  0
    7.2536    1.4090    4.1716 H   0  0  0  0  0  0  0  0  0  0  0  0
    9.5591   -0.7315    2.1735 H   0  0  0  0  0  0  0  0  0  0  0  0
    8.6546   -1.2864    1.1213 H   0  0  0  0  0  0  0  0  0  0  0  0
    6.1449    2.3214    6.6135 H   0  0  0  0  0  0  0  0  0  0  0  0
    5.2130    1.9219    6.3197 H   0  0  0  0  0  0  0  0  0  0  0  0
   10.1278    0.0914    3.4405 H   0  0  0  0  0  0  0  0  0  0  0  0
    4.8708   -2.0524    5.8084 H   0  0  0  0  0  0  0  0  0  0  0  0
    9.7599    1.7749    4.3936 H   0  0  0  0  0  0  0  0  0  0  0  0
    8.5687    1.3982    5.0881 H   0  0  0  0  0  0  0  0  0  0  0  0
   10.6526    0.4016    0.4977 H   0  0  0  0  0  0  0  0  0  0  0  0
    8.9684    1.0911   -0.0872 H   0  0  0  0  0  0  0  0  0  0  0  0
    3.9292    0.1028    1.8500 H   0  0  0  0  0  0  0  0  0  0  0  0
    4.2808    3.8454    4.4275 H   0  0  0  0  0  0  0  0  0  0  0  0
    9.8225    3.4943    3.8365 H   0  0  0  0  0  0  0  0  0  0  0  0
   10.0238    2.6546    7.3057 H   0  0  0  0  0  0  0  0  0  0  0  0
    4.3060    2.2113    9.0376 H   0  0  0  0  0  0  0  0  0  0  0  0
   12.4960    3.5899    3.5647 H   0  0  0  0  0  0  0  0  0  0  0  0
    3.4770   -0.4937    0.4146 H   0  0  0  0  0  0  0  0  0  0  0  0
    3.3114    1.0917    0.0149 H   0  0  0  0  0  0  0  0  0  0  0  0
   12.9443    4.2492    6.3027 H   0  0  0  0  0  0  0  0  0  0  0  0
   12.0564    2.9348    6.7923 H   0  0  0  0  0  0  0  0  0  0  0  0
    5.2267    4.9969    5.8498 H   0  0  0  0  0  0  0  0  0  0  0  0
    7.8212    0.4423    5.8968 H   0  0  0  0  0  0  0  0  0  0  0  0
    5.6563    1.2700    8.9588 H   0  0  0  0  0  0  0  0  0  0  0  0
    9.8029    3.7937    6.0932 H   0  0  0  0  0  0  0  0  0  0  0  0
    9.2429    4.3017    5.3385 H   0  0  0  0  0  0  0  0  0  0  0  0
    4.9433    4.5121    8.2283 H   0  0  0  0  0  0  0  0  0  0  0  0
   14.2204    2.5980    6.9491 H   0  0  0  0  0  0  0  0  0  0  0  0
   13.4941    1.4693    5.7740 H   0  0  0  0  0  0  0  0  0  0  0  0
    8.9484    6.0591    3.4671 H   0  0  0  0  0  0  0  0  0  0  0  0
    7.2505    5.4928    3.5486 H   0  0  0  0  0  0  0  0  0  0  0  0
    7.9690    5.6064    4.9825 H   0  0  0  0  0  0  0  0  0  0  0  0
   11.1826    1.3117    7.8008 H   0  0  0  0  0  0  0  0  0  0  0  0
    9.5012    1.0944    7.0079 H   0  0  0  0  0  0  0  0  0  0  0  0
    7.5926    1.7347   10.3313 H   0  0  0  0  0  0  0  0  0  0  0  0
   15.5935    2.3734    4.8972 H   0  0  0  0  0  0  0  0  0  0  0  0
   14.3022    2.9375    3.8733 H   0  0  0  0  0  0  0  0  0  0  0  0
    9.7720    1.1479    9.3877 H   0  0  0  0  0  0  0  0  0  0  0  0
    9.5506   -2.4741    7.9601 H   0  0  0  0  0  0  0  0  0  0  0  0
   11.0588    4.2984    7.4463 H   0  0  0  0  0  0  0  0  0  0  0  0
   12.1589    5.6385    6.9343 H   0  0  0  0  0  0  0  0  0  0  0  0
   10.6274    5.8944    7.7454 H   0  0  0  0  0  0  0  0  0  0  0  0
  1  2  1  0  0  0  0
  1 57  1  0  0  0  0
  2 63  1  0  0  0  0
  3 35  2  0  0  0  0
  4 38  2  0  0  0  0
  5 42  2  0  0  0  0
  6 44  2  0  0  0  0
  7 53  2  0  0  0  0
  8 60  2  0  0  0  0
  9 65  2  0  0  0  0
 10 67  2  0  0  0  0
 11 76  2  0  0  0  0
 12 31  1  0  0  0  0
 12 35  1  0  0  0  0
 12 89  1  0  0  0  0
 13 30  1  0  0  0  0
 13 38  1  0  0  0  0
 13 90  1  0  0  0  0
 14 34  1  0  0  0  0
 14 44  1  0  0  0  0
 14 91  1  0  0  0  0
 15 42  1  0  0  0  0
 15 49  1  0  0  0  0
 15 92  1  0  0  0  0
 16 43  1  0  0  0  0
 16 45  1  0  0  0  0
 16 79  1  0  0  0  0
 17 40  1  0  0  0  0
 17 53  1  0  0  0  0
 17 93  1  0  0  0  0
 18 51  1  0  0  0  0
 18 60  1  0  0  0  0
 18 94  1  0  0  0  0
 19 65  1  0  0  0  0
 19 80  1  0  0  0  0
 20 47  1  0  0  0  0
 20 75  2  0  0  0  0
 21 55  1  0  0  0  0
 21 74  1  0  0  0  0
 21 81  1  0  0  0  0
 22 76  1  0  0  0  0
 22 82  1  0  0  0  0
 23 69  1  0  0  0  0
 23 74  2  0  0  0  0
 24 67  1  0  0  0  0
 24 83  1  0  0  0  0
 24 84  1  0  0  0  0
 25 72  1  0  0  0  0
 25 78  2  0  0  0  0
 26 75  1  0  0  0  0
 26 95  1  0  0  0  0
 26 96  1  0  0  0  0
 27 75  1  0  0  0  0
 27 97  1  0  0  0  0
 27 98  1  0  0  0  0
 28 78  1  0  0  0  0
 28 85  1  0  0  0  0
 28 86  1  0  0  0  0
 29 78  1  0  0  0  0
 29 87  1  0  0  0  0
 29 88  1  0  0  0  0
 30 32  1  0  0  0  0
 30 35  1  0  0  0  0
 30 99  1  6  0  0  0
 31 33  1  0  0  0  0
 31 42  1  0  0  0  0
 31100  1  1  0  0  0
 32 37  1  0  0  0  0
 32101  1  0  0  0  0
 32102  1  0  0  0  0
 33 36  1  0  0  0  0
 33103  1  0  0  0  0
 33104  1  0  0  0  0
 34 38  1  0  0  0  0
 34105  1  1  0  0  0
 34 39  1  0  0  0  0
 36 41  1  0  0  0  0
 36 45  2  0  0  0  0
 37 47  1  0  0  0  0
 37106  1  0  0  0  0
 37107  1  0  0  0  0
 39 48  1  0  0  0  0
 39108  1  0  0  0  0
 39109  1  0  0  0  0
 40 44  1  0  0  0  0
 40 46  1  0  0  0  0
 40110  1  6  0  0  0
 41 43  1  0  0  0  0
 41 50  2  0  0  0  0
 43 54  2  0  0  0  0
 45111  1  0  0  0  0
 46 55  1  0  0  0  0
 46112  1  0  0  0  0
 46113  1  0  0  0  0
 47114  1  0  0  0  0
 47115  1  0  0  0  0
 48 61  2  0  0  0  0
 48 62  1  0  0  0  0
 49 57  1  0  0  0  0
 49116  1  1  0  0  0
 49 67  1  0  0  0  0
 50 59  1  0  0  0  0
 50117  1  0  0  0  0
 51 53  1  0  0  0  0
 51118  1  1  0  0  0
 51 68  1  0  0  0  0
 52 19  1  0  0  0  0
 52 60  1  0  0  0  0
 52 63  1  0  0  0  0
 52119  1  1  0  0  0
 54 64  1  0  0  0  0
 54120  1  0  0  0  0
 55 69  2  0  0  0  0
 56 22  1  0  0  0  0
 56 58  1  0  0  0  0
 56 65  1  0  0  0  0
 56121  1  6  0  0  0
 57122  1  0  0  0  0
 57123  1  0  0  0  0
 58 66  1  0  0  0  0
 58124  1  0  0  0  0
 58125  1  0  0  0  0
 59 64  2  0  0  0  0
 59126  1  0  0  0  0
 61 70  1  0  0  0  0
 61127  1  0  0  0  0
 62 71  2  0  0  0  0
 62128  1  0  0  0  0
 63129  1  0  0  0  0
 63130  1  0  0  0  0
 64131  1  0  0  0  0
 66 72  1  0  0  0  0
 66132  1  0  0  0  0
 66133  1  0  0  0  0
 68134  1  0  0  0  0
 68135  1  0  0  0  0
 68136  1  0  0  0  0
 69137  1  0  0  0  0
 70 73  2  0  0  0  0
 70138  1  0  0  0  0
 71 73  1  0  0  0  0
 71139  1  0  0  0  0
 72140  1  0  0  0  0
 72141  1  0  0  0  0
 73142  1  0  0  0  0
 74143  1  0  0  0  0
 76 77  1  0  0  0  0
 77144  1  0  0  0  0
 77145  1  0  0  0  0
 77146  1  0  0  0  0
M  END
>  <DRUGBANK_ID>
DB11700

>  <COMMON_NAME>
Setmelanotide

>  <CAS_NUMBER>
920014-72-8

>  <UNII>
N7T15V1FUY

>  <SYNONYMS>
Setmelanotida; Setmelanotide; Setmélanotide; Setmelanotidum

$$$$
