
 OpenBabel10282417213D

 60 59  0  0  0  0  0  0  0  0999 V2000
   -1.1332    0.6964    4.3703 C   0  0  0  0  0  0  0  0  0  0  0  0
    0.3241    1.0221    4.1799 C   0  0  0  0  0  0  0  0  0  0  0  0
    0.5733    1.7933    2.8836 C   0  0  0  0  0  0  0  0  0  0  0  0
   -0.1126    3.1624    2.8905 C   0  0  0  0  0  0  0  0  0  0  0  0
    0.3599    3.9986    4.0863 C   0  0  0  0  0  0  0  0  0  0  0  0
    1.8571    4.2856    3.9593 C   0  0  0  0  0  0  0  0  0  0  0  0
    2.1237    5.0436    2.6549 C   0  0  0  0  0  0  0  0  0  0  0  0
    1.3465    6.3663    2.6443 C   0  0  0  0  0  0  0  0  0  0  0  0
    1.7870    7.2370    3.8170 C   0  0  0  0  0  0  0  0  0  0  0  0
    3.2888    7.4561    3.7615 C   0  0  0  0  0  0  0  0  0  0  0  0
   -1.9184    1.7739    4.5489 O   0  0  0  0  0  0  0  0  0  0  0  0
    3.6105    8.2384    2.5297 C   0  0  0  0  0  0  0  0  0  0  0  0
    4.0964    9.4746    2.5719 C   0  0  0  0  0  0  0  0  0  0  0  0
   -1.6175   -0.4285    4.3595 O   0  0  0  0  0  0  0  0  0  0  0  0
    4.5130   10.1344    3.8462 C   0  0  0  0  0  0  0  0  0  0  0  0
    6.0158   10.3541    3.8122 C   0  0  0  0  0  0  0  0  0  0  0  0
    6.3774   11.3426    2.7075 C   0  0  0  0  0  0  0  0  0  0  0  0
    5.6177   12.6602    2.9041 C   0  0  0  0  0  0  0  0  0  0  0  0
    5.9726   13.2938    4.2550 C   0  0  0  0  0  0  0  0  0  0  0  0
    7.4690   13.6149    4.3262 C   0  0  0  0  0  0  0  0  0  0  0  0
    7.8872   14.5654    3.2031 C   0  0  0  0  0  0  0  0  0  0  0  0
    7.1270   15.8777    3.3075 C   0  0  0  0  0  0  0  0  0  0  0  0
    0.6935    1.5500    5.0659 H   0  0  0  0  0  0  0  0  0  0  0  0
    0.8910    0.0868    4.1518 H   0  0  0  0  0  0  0  0  0  0  0  0
    1.6558    1.9148    2.7410 H   0  0  0  0  0  0  0  0  0  0  0  0
    0.2349    1.2182    2.0169 H   0  0  0  0  0  0  0  0  0  0  0  0
    0.0671    3.6703    1.9381 H   0  0  0  0  0  0  0  0  0  0  0  0
   -1.1988    3.0705    2.8986 H   0  0  0  0  0  0  0  0  0  0  0  0
   -0.2286    4.9192    4.1475 H   0  0  0  0  0  0  0  0  0  0  0  0
    0.1606    3.5133    5.0451 H   0  0  0  0  0  0  0  0  0  0  0  0
    2.2032    4.8397    4.8384 H   0  0  0  0  0  0  0  0  0  0  0  0
    2.4530    3.3686    3.9829 H   0  0  0  0  0  0  0  0  0  0  0  0
    3.1998    5.1876    2.5281 H   0  0  0  0  0  0  0  0  0  0  0  0
    1.8582    4.4577    1.7725 H   0  0  0  0  0  0  0  0  0  0  0  0
    1.4972    6.8747    1.6884 H   0  0  0  0  0  0  0  0  0  0  0  0
    0.2647    6.2152    2.6933 H   0  0  0  0  0  0  0  0  0  0  0  0
    1.2452    8.1902    3.8103 H   0  0  0  0  0  0  0  0  0  0  0  0
    1.5363    6.7780    4.7802 H   0  0  0  0  0  0  0  0  0  0  0  0
    3.5634    7.9267    4.7003 H   0  0  0  0  0  0  0  0  0  0  0  0
    3.8860    6.5425    3.7649 H   0  0  0  0  0  0  0  0  0  0  0  0
   -2.8439    1.4608    4.4927 H   0  0  0  0  0  0  0  0  0  0  0  0
    3.3955    7.8089    1.5523 H   0  0  0  0  0  0  0  0  0  0  0  0
    4.2371    9.9989    1.6280 H   0  0  0  0  0  0  0  0  0  0  0  0
    3.9207   11.0406    3.9843 H   0  0  0  0  0  0  0  0  0  0  0  0
    4.3082    9.5708    4.7514 H   0  0  0  0  0  0  0  0  0  0  0  0
    6.3385   10.7133    4.7956 H   0  0  0  0  0  0  0  0  0  0  0  0
    6.5502    9.4072    3.6679 H   0  0  0  0  0  0  0  0  0  0  0  0
    7.4604   11.4913    2.6955 H   0  0  0  0  0  0  0  0  0  0  0  0
    6.1504   10.9308    1.7194 H   0  0  0  0  0  0  0  0  0  0  0  0
    5.8283   13.3297    2.0670 H   0  0  0  0  0  0  0  0  0  0  0  0
    4.5336   12.5228    2.8409 H   0  0  0  0  0  0  0  0  0  0  0  0
    5.3639   14.1883    4.4123 H   0  0  0  0  0  0  0  0  0  0  0  0
    5.6966   12.6443    5.0931 H   0  0  0  0  0  0  0  0  0  0  0  0
    7.7058   14.0502    5.3018 H   0  0  0  0  0  0  0  0  0  0  0  0
    8.0661   12.6966    4.2683 H   0  0  0  0  0  0  0  0  0  0  0  0
    8.9645   14.7442    3.2546 H   0  0  0  0  0  0  0  0  0  0  0  0
    7.7134   14.1163    2.2180 H   0  0  0  0  0  0  0  0  0  0  0  0
    7.3291   16.3464    4.2749 H   0  0  0  0  0  0  0  0  0  0  0  0
    7.4176   16.5584    2.5069 H   0  0  0  0  0  0  0  0  0  0  0  0
    6.0446   15.7356    3.2228 H   0  0  0  0  0  0  0  0  0  0  0  0
  1 14  2  0  0  0  0
  1  2  1  0  0  0  0
  1 11  1  0  0  0  0
  2  3  1  0  0  0  0
  2 23  1  0  0  0  0
  2 24  1  0  0  0  0
  3  4  1  0  0  0  0
  3 25  1  0  0  0  0
  3 26  1  0  0  0  0
  4  5  1  0  0  0  0
  4 27  1  0  0  0  0
  4 28  1  0  0  0  0
  5  6  1  0  0  0  0
  5 29  1  0  0  0  0
  5 30  1  0  0  0  0
  6  7  1  0  0  0  0
  6 31  1  0  0  0  0
  6 32  1  0  0  0  0
  7  8  1  0  0  0  0
  7 33  1  0  0  0  0
  7 34  1  0  0  0  0
  8  9  1  0  0  0  0
  8 35  1  0  0  0  0
  8 36  1  0  0  0  0
  9 10  1  0  0  0  0
  9 37  1  0  0  0  0
  9 38  1  0  0  0  0
 10 39  1  0  0  0  0
 10 40  1  0  0  0  0
 11 41  1  0  0  0  0
 12 10  1  0  0  0  0
 12 42  1  0  0  0  0
 13 12  2  0  0  0  0
 13 43  1  0  0  0  0
 15 13  1  0  0  0  0
 15 44  1  0  0  0  0
 15 45  1  0  0  0  0
 16 15  1  0  0  0  0
 16 46  1  0  0  0  0
 16 47  1  0  0  0  0
 17 16  1  0  0  0  0
 17 48  1  0  0  0  0
 17 49  1  0  0  0  0
 18 17  1  0  0  0  0
 18 50  1  0  0  0  0
 18 51  1  0  0  0  0
 19 18  1  0  0  0  0
 19 52  1  0  0  0  0
 19 53  1  0  0  0  0
 20 19  1  0  0  0  0
 20 54  1  0  0  0  0
 20 55  1  0  0  0  0
 21 20  1  0  0  0  0
 21 56  1  0  0  0  0
 21 57  1  0  0  0  0
 22 21  1  0  0  0  0
 22 58  1  0  0  0  0
 22 59  1  0  0  0  0
 22 60  1  0  0  0  0
M  END
>  <DRUGBANK_ID>
DB14073

>  <COMMON_NAME>
Gondoic acid

>  <CAS_NUMBER>
5561-99-9

>  <UNII>
UDX6WPL94T

>  <SYNONYMS>
(11Z)-Eicosenoic acid; (11Z)-Icosenoic acid; (Z)-eicos-11-enoic acid; (Z)-icos-11-enoic acid; (Z)-Icosa-11-enoic acid; 11-Eicosenoic acid; 11-Icosenoic acid; cis-11-eicosenoic acid; cis-gondoic acid; cis-Î”11-eicosenoic acid; Eicosenoic acid

$$$$
