
 OpenBabel10282417233D

 34 34  0  0  0  0  0  0  0  0999 V2000
    0.9722    0.1046    0.0968 O   0  0  0  0  0  0  0  0  0  0  0  0
    2.1746    0.2216   -0.0993 C   0  0  0  0  0  0  0  0  0  0  0  0
    3.0384    0.1785    0.9572 O   0  0  0  0  0  0  0  0  0  0  0  0
    4.5114    0.1129    1.0578 C   0  0  0  0  0  0  0  0  0  0  0  0
    5.0733   -1.2694    0.5534 C   0  0  3  0  0  0  0  0  0  0  0  0
    4.8387   -1.4412   -0.9340 C   0  0  0  0  0  0  0  0  0  0  0  0
    4.9097   -2.7494   -1.5940 C   0  0  0  0  0  0  0  0  0  0  0  0
    4.8115   -3.8590   -0.8617 C   0  0  0  0  0  0  0  0  0  0  0  0
    4.7293   -3.8123    0.6403 C   0  0  0  0  0  0  0  0  0  0  0  0
    4.3796   -2.4538    1.2593 C   0  0  0  0  0  0  0  0  0  0  0  0
    4.7701   -5.1930   -1.5144 C   0  0  0  0  0  0  0  0  0  0  0  0
    5.1029    1.3790    0.4230 C   0  0  0  0  0  0  0  0  0  0  0  0
    4.9021    0.2157    2.5614 C   0  0  0  0  0  0  0  0  0  0  0  0
    2.6582    0.3667   -1.5291 C   0  0  0  0  0  0  0  0  0  0  0  0
    6.1539   -1.3186    0.7450 H   0  0  0  0  0  0  0  0  0  0  0  0
    5.3752   -0.6910   -1.5171 H   0  0  0  0  0  0  0  0  0  0  0  0
    3.7719   -1.3572   -0.9989 H   0  0  0  0  0  0  0  0  0  0  0  0
    4.8565   -2.7590   -2.6817 H   0  0  0  0  0  0  0  0  0  0  0  0
    3.9772   -4.5285    0.9883 H   0  0  0  0  0  0  0  0  0  0  0  0
    5.7044   -4.1238    1.0247 H   0  0  0  0  0  0  0  0  0  0  0  0
    4.6486   -2.4912    2.3197 H   0  0  0  0  0  0  0  0  0  0  0  0
    3.2895   -2.3176    1.2265 H   0  0  0  0  0  0  0  0  0  0  0  0
    5.6739   -5.7356   -1.2338 H   0  0  0  0  0  0  0  0  0  0  0  0
    3.8847   -5.7472   -1.1924 H   0  0  0  0  0  0  0  0  0  0  0  0
    4.7380   -5.1103   -2.6067 H   0  0  0  0  0  0  0  0  0  0  0  0
    4.7131    2.2665    0.9390 H   0  0  0  0  0  0  0  0  0  0  0  0
    6.1931    1.3819    0.4770 H   0  0  0  0  0  0  0  0  0  0  0  0
    4.8373    1.5438   -0.6152 H   0  0  0  0  0  0  0  0  0  0  0  0
    4.5381    1.1403    3.0203 H   0  0  0  0  0  0  0  0  0  0  0  0
    4.4952   -0.5953    3.1711 H   0  0  0  0  0  0  0  0  0  0  0  0
    5.9961    0.1928    2.6665 H   0  0  0  0  0  0  0  0  0  0  0  0
    2.4065   -0.5468   -2.0893 H   0  0  0  0  0  0  0  0  0  0  0  0
    2.2250    1.2212   -2.0377 H   0  0  0  0  0  0  0  0  0  0  0  0
    3.7222    0.5111   -1.6272 H   0  0  0  0  0  0  0  0  0  0  0  0
  1  2  2  0  0  0  0
  2  3  1  0  0  0  0
  2 14  1  0  0  0  0
  3  4  1  0  0  0  0
  4  5  1  0  0  0  0
  4 12  1  0  0  0  0
  4 13  1  0  0  0  0
  5  6  1  0  0  0  0
  5 15  1  0  0  0  0
  6  7  1  0  0  0  0
  6 16  1  0  0  0  0
  6 17  1  0  0  0  0
  7  8  2  0  0  0  0
  7 18  1  0  0  0  0
  8  9  1  0  0  0  0
  8 11  1  0  0  0  0
  9 10  1  0  0  0  0
  9 19  1  0  0  0  0
  9 20  1  0  0  0  0
 10  5  1  0  0  0  0
 10 21  1  0  0  0  0
 10 22  1  0  0  0  0
 11 23  1  0  0  0  0
 11 24  1  0  0  0  0
 11 25  1  0  0  0  0
 12 26  1  0  0  0  0
 12 27  1  0  0  0  0
 12 28  1  0  0  0  0
 13 29  1  0  0  0  0
 13 30  1  0  0  0  0
 13 31  1  0  0  0  0
 14 32  1  0  0  0  0
 14 33  1  0  0  0  0
 14 34  1  0  0  0  0
M  END
>  <DRUGBANK_ID>
DB15957

>  <COMMON_NAME>
Terpinyl acetate

>  <CAS_NUMBER>
8007-35-0

>  <UNII>
9RXE0I9F2J

>  <SYNONYMS>
Terpineol acetate

$$$$
