
 OpenBabel10282417203D

 15 15  0  0  0  0  0  0  0  0999 V2000
   -2.7423    0.2036   -0.0046 O   0  0  0  0  0  0  0  0  0  0  0  0
   -1.3787    0.1355   -0.0098 C   0  0  0  0  0  0  0  0  0  0  0  0
   -0.5894    1.2851   -0.0270 C   0  0  0  0  0  0  0  0  0  0  0  0
   -0.8012   -1.1298    0.0056 C   0  0  0  0  0  0  0  0  0  0  0  0
    0.5841   -1.2469    0.0022 C   0  0  0  0  0  0  0  0  0  0  0  0
    1.3933   -0.1154   -0.0072 C   0  0  0  0  0  0  0  0  0  0  0  0
    0.7981    1.1427   -0.0178 C   0  0  0  0  0  0  0  0  0  0  0  0
    1.6302    2.2254   -0.0152 O   0  0  0  0  0  0  0  0  0  0  0  0
    1.1195   -2.5012    0.0103 O   0  0  0  0  0  0  0  0  0  0  0  0
   -3.0184    1.1335    0.0028 H   0  0  0  0  0  0  0  0  0  0  0  0
   -1.0451    2.2676   -0.0481 H   0  0  0  0  0  0  0  0  0  0  0  0
   -1.4254   -2.0181    0.0201 H   0  0  0  0  0  0  0  0  0  0  0  0
    2.4755   -0.1921   -0.0039 H   0  0  0  0  0  0  0  0  0  0  0  0
    1.0995    3.0373    0.0202 H   0  0  0  0  0  0  0  0  0  0  0  0
    2.0879   -2.4235   -0.0020 H   0  0  0  0  0  0  0  0  0  0  0  0
  1  2  1  0  0  0  0
  1 10  1  0  0  0  0
  2  3  1  0  0  0  0
  2  4  2  0  0  0  0
  3  7  2  0  0  0  0
  3 11  1  0  0  0  0
  4  5  1  0  0  0  0
  4 12  1  0  0  0  0
  5  6  2  0  0  0  0
  5  9  1  0  0  0  0
  6  7  1  0  0  0  0
  6 13  1  0  0  0  0
  7  8  1  0  0  0  0
  8 14  1  0  0  0  0
  9 15  1  0  0  0  0
M  END
>  <DRUGBANK_ID>
DB12944

>  <COMMON_NAME>
Phloroglucinol

>  <CAS_NUMBER>
108-73-6

>  <UNII>
DHD7FFG6YS

>  <SYNONYMS>
Phloroglucin; Phloroglucinol

$$$$
