338
 OpenBabel10282417103D

 43 45  0  0  1  0  0  0  0  0999 V2000
    0.9450    0.0753    0.0209 S   0  0  3  0  0  0  0  0  0  0  0  0
    0.8107   -5.8793   -2.7299 O   0  0  0  0  0  0  0  0  0  0  0  0
    0.4227    0.9654   -1.0636 O   0  0  0  0  0  0  0  0  0  0  0  0
    8.3261   -1.4819    0.0148 O   0  0  0  0  0  0  0  0  0  0  0  0
    3.4577   -1.1502    0.0146 N   0  0  0  0  0  0  0  0  0  0  0  0
    3.4295    1.0613   -0.0851 N   0  0  0  0  0  0  0  0  0  0  0  0
    1.3125   -1.7734   -2.3344 N   0  0  0  0  0  0  0  0  0  0  0  0
    0.3955   -1.6161   -0.0915 C   0  0  0  0  0  0  0  0  0  0  0  0
    0.7916   -2.4438   -1.2879 C   0  0  0  0  0  0  0  0  0  0  0  0
    0.5865   -3.8380   -1.2975 C   0  0  0  0  0  0  0  0  0  0  0  0
    2.6761   -0.0171   -0.0527 C   0  0  0  0  0  0  0  0  0  0  0  0
    4.7779   -0.7675    0.0054 C   0  0  0  0  0  0  0  0  0  0  0  0
    0.9124   -4.5311   -2.4868 C   0  0  0  0  0  0  0  0  0  0  0  0
    4.7226    0.6175   -0.0322 C   0  0  0  0  0  0  0  0  0  0  0  0
    1.3896   -3.8066   -3.6024 C   0  0  0  0  0  0  0  0  0  0  0  0
    0.0193   -4.4897   -0.0639 C   0  0  0  0  0  0  0  0  0  0  0  0
    5.9823   -1.4839    0.0154 C   0  0  0  0  0  0  0  0  0  0  0  0
    1.5772   -2.4438   -3.4628 C   0  0  0  0  0  0  0  0  0  0  0  0
    5.9122    1.3513   -0.0207 C   0  0  0  0  0  0  0  0  0  0  0  0
    7.1729   -0.7359    0.0066 C   0  0  0  0  0  0  0  0  0  0  0  0
    7.1313    0.6618   -0.0069 C   0  0  0  0  0  0  0  0  0  0  0  0
    1.6649   -4.4321   -4.9399 C   0  0  0  0  0  0  0  0  0  0  0  0
    0.3792   -6.7690   -1.7146 C   0  0  0  0  0  0  0  0  0  0  0  0
    9.5509   -0.7511    0.0104 C   0  0  0  0  0  0  0  0  0  0  0  0
    3.1332   -2.0991   -0.0434 H   0  0  0  0  0  0  0  0  0  0  0  0
    0.7831   -2.0806    0.8212 H   0  0  0  0  0  0  0  0  0  0  0  0
   -0.6991   -1.6106   -0.0307 H   0  0  0  0  0  0  0  0  0  0  0  0
   -0.9423   -4.9547   -0.2863 H   0  0  0  0  0  0  0  0  0  0  0  0
    0.7383   -5.1923    0.3623 H   0  0  0  0  0  0  0  0  0  0  0  0
   -0.2067   -3.8082    0.7564 H   0  0  0  0  0  0  0  0  0  0  0  0
    6.0053   -2.5684    0.0234 H   0  0  0  0  0  0  0  0  0  0  0  0
    1.9423   -1.8231   -4.2780 H   0  0  0  0  0  0  0  0  0  0  0  0
    5.8815    2.4345   -0.0327 H   0  0  0  0  0  0  0  0  0  0  0  0
    8.0353    1.2610   -0.0161 H   0  0  0  0  0  0  0  0  0  0  0  0
    2.4251   -5.2136   -4.8593 H   0  0  0  0  0  0  0  0  0  0  0  0
    0.7434   -4.8479   -5.3595 H   0  0  0  0  0  0  0  0  0  0  0  0
    2.0367   -3.6893   -5.6576 H   0  0  0  0  0  0  0  0  0  0  0  0
    1.0628   -6.7576   -0.8617 H   0  0  0  0  0  0  0  0  0  0  0  0
   -0.6573   -6.5677   -1.4349 H   0  0  0  0  0  0  0  0  0  0  0  0
    0.3927   -7.7902   -2.1019 H   0  0  0  0  0  0  0  0  0  0  0  0
    9.6481   -0.1495   -0.9002 H   0  0  0  0  0  0  0  0  0  0  0  0
    9.6403   -0.1262    0.9061 H   0  0  0  0  0  0  0  0  0  0  0  0
   10.3785   -1.4664    0.0237 H   0  0  0  0  0  0  0  0  0  0  0  0
  1  3  2  0  0  0  0
  1  8  1  0  0  0  0
  1 11  1  0  0  0  0
  2 13  1  0  0  0  0
  2 23  1  0  0  0  0
  4 20  1  0  0  0  0
  4 24  1  0  0  0  0
  5 11  1  0  0  0  0
  5 12  1  0  0  0  0
  5 25  1  0  0  0  0
  6 11  2  0  0  0  0
  6 14  1  0  0  0  0
  7  9  2  0  0  0  0
  7 18  1  0  0  0  0
  8  9  1  0  0  0  0
  8 26  1  0  0  0  0
  8 27  1  0  0  0  0
  9 10  1  0  0  0  0
 10 13  2  0  0  0  0
 10 16  1  0  0  0  0
 12 14  2  0  0  0  0
 12 17  1  0  0  0  0
 13 15  1  0  0  0  0
 14 19  1  0  0  0  0
 15 18  2  0  0  0  0
 15 22  1  0  0  0  0
 16 28  1  0  0  0  0
 16 29  1  0  0  0  0
 16 30  1  0  0  0  0
 17 20  2  0  0  0  0
 17 31  1  0  0  0  0
 18 32  1  0  0  0  0
 19 21  2  0  0  0  0
 19 33  1  0  0  0  0
 20 21  1  0  0  0  0
 21 34  1  0  0  0  0
 22 35  1  0  0  0  0
 22 36  1  0  0  0  0
 22 37  1  0  0  0  0
 23 38  1  0  0  0  0
 23 39  1  0  0  0  0
 23 40  1  0  0  0  0
 24 41  1  0  0  0  0
 24 42  1  0  0  0  0
 24 43  1  0  0  0  0
M  END
>  <DRUGBANK_ID>
DB00338

>  <SECONDARY_ACCESSION_NUMBERS>
APRD00446

>  <COMMON_NAME>
Omeprazole

>  <CAS_NUMBER>
73590-58-6

>  <UNII>
KG60484QX9

>  <SYNONYMS>
OMEP; Omeprazol; Omeprazole; Omeprazolum

$$$$
