
 OpenBabel10282417173D

 32 34  0  0  0  0  0  0  0  0999 V2000
    1.5784   -1.0522   -0.0018 N   0  0  0  0  0  0  0  0  0  0  0  0
    0.2432   -0.7076   -0.0071 C   0  0  0  0  0  0  0  0  0  0  0  0
    2.1183   -2.4013   -0.0064 C   0  0  2  0  0  0  0  0  0  0  0  0
    2.3022    0.1069    0.0067 C   0  0  0  0  0  0  0  0  0  0  0  0
    0.2552    0.6871   -0.0107 C   0  0  0  0  0  0  0  0  0  0  0  0
   -0.9460   -1.4444   -0.0039 C   0  0  0  0  0  0  0  0  0  0  0  0
    2.9005   -2.6162    1.1841 O   0  0  0  0  0  0  0  0  0  0  0  0
    2.9962   -2.7399   -1.2107 C   0  0  1  0  0  0  0  0  0  0  0  0
    1.5288    1.1728   -0.0184 N   0  0  0  0  0  0  0  0  0  0  0  0
   -0.9524    1.3969   -0.0058 C   0  0  0  0  0  0  0  0  0  0  0  0
   -2.1496   -0.7219   -0.0006 C   0  0  0  0  0  0  0  0  0  0  0  0
    4.0963   -3.3491    0.8349 C   0  0  1  0  0  0  0  0  0  0  0  0
    3.9463   -3.7748   -0.6272 C   0  0  1  0  0  0  0  0  0  0  0  0
    2.2472   -3.2439   -2.3143 O   0  0  0  0  0  0  0  0  0  0  0  0
   -2.1531    0.6798   -0.0008 C   0  0  0  0  0  0  0  0  0  0  0  0
   -3.6139   -1.6445    0.0044 Cl  0  0  0  0  0  0  0  0  0  0  0  0
    5.3498   -2.4999    1.0993 C   0  0  0  0  0  0  0  0  0  0  0  0
    3.3532   -5.0805   -0.7292 O   0  0  0  0  0  0  0  0  0  0  0  0
   -3.6193    1.5975    0.0026 Cl  0  0  0  0  0  0  0  0  0  0  0  0
    5.2149   -1.1521    0.6745 O   0  0  0  0  0  0  0  0  0  0  0  0
    1.2728   -3.0963    0.0390 H   0  0  0  0  0  0  0  0  0  0  0  0
    3.3759    0.1451    0.0308 H   0  0  0  0  0  0  0  0  0  0  0  0
   -0.9496   -2.5293    0.0000 H   0  0  0  0  0  0  0  0  0  0  0  0
    3.5611   -1.8710   -1.5608 H   0  0  0  0  0  0  0  0  0  0  0  0
   -0.9317    2.4809   -0.0039 H   0  0  0  0  0  0  0  0  0  0  0  0
    4.1385   -4.2306    1.4854 H   0  0  0  0  0  0  0  0  0  0  0  0
    4.9025   -3.8221   -1.1576 H   0  0  0  0  0  0  0  0  0  0  0  0
    1.9895   -4.1639   -2.1101 H   0  0  0  0  0  0  0  0  0  0  0  0
    5.5537   -2.4728    2.1748 H   0  0  0  0  0  0  0  0  0  0  0  0
    6.2284   -2.9328    0.6099 H   0  0  0  0  0  0  0  0  0  0  0  0
    2.5838   -5.1434   -0.1369 H   0  0  0  0  0  0  0  0  0  0  0  0
    5.1934   -1.1144   -0.2933 H   0  0  0  0  0  0  0  0  0  0  0  0
  1  2  1  0  0  0  0
  1  4  1  0  0  0  0
  2  5  1  0  0  0  0
  2  6  2  0  0  0  0
  3  1  1  0  0  0  0
  3  7  1  0  0  0  0
  3  8  1  0  0  0  0
  3 21  1  1  0  0  0
  4  9  2  0  0  0  0
  4 22  1  0  0  0  0
  5 10  2  0  0  0  0
  5  9  1  0  0  0  0
  6 11  1  0  0  0  0
  6 23  1  0  0  0  0
  7 12  1  0  0  0  0
  8 13  1  0  0  0  0
  8 14  1  0  0  0  0
  8 24  1  6  0  0  0
 10 15  1  0  0  0  0
 10 25  1  0  0  0  0
 11 16  1  0  0  0  0
 11 15  2  0  0  0  0
 12 13  1  0  0  0  0
 12 26  1  1  0  0  0
 12 17  1  0  0  0  0
 13 18  1  0  0  0  0
 13 27  1  6  0  0  0
 14 28  1  0  0  0  0
 15 19  1  0  0  0  0
 17 20  1  0  0  0  0
 17 29  1  0  0  0  0
 17 30  1  0  0  0  0
 18 31  1  0  0  0  0
 20 32  1  0  0  0  0
M  END
>  <DRUGBANK_ID>
DB08473

>  <COMMON_NAME>
Dichlororibofuranosylbenzimidazole

>  <CAS_NUMBER>
53-85-0

>  <UNII>
8153319T3Q

>  <SYNONYMS>
5,6-dichloro-1-beta-D-ribofuranosyl-1H-benzimidazole

$$$$
