
 OpenBabel10282417133D

 28 27  0  0  1  0  0  0  0  0999 V2000
    4.6335    2.6273   -4.3201 N   0  0  0  0  0  0  0  0  0  0  0  0
    5.6695    2.0684   -3.4782 C   0  0  0  0  0  0  0  0  0  0  0  0
    5.5064    2.2782   -1.9722 C   0  0  0  0  0  0  0  0  0  0  0  0
    4.3339    1.5756   -1.3107 C   0  0  0  0  0  0  0  0  0  0  0  0
    4.5088    0.6012   -0.5757 O   0  0  0  0  0  0  0  0  0  0  0  0
    3.0677    2.0448   -1.4853 N   0  0  0  0  0  0  0  0  0  0  0  0
    2.5212    3.1177   -2.3031 C   0  0  0  0  0  0  0  0  0  0  0  0
    1.6992    2.5673   -3.5006 C   0  0  0  0  0  0  0  0  0  0  0  0
    0.4042    1.9023   -3.0464 C   0  0  2  0  0  0  0  0  0  0  0  0
    0.7078    0.9168   -1.9892 N   0  0  0  0  0  0  0  0  0  0  0  0
   -0.2461    1.1740   -4.2336 C   0  0  0  0  0  0  0  0  0  0  0  0
   -1.4793    1.6128   -4.5465 O   0  0  0  0  0  0  0  0  0  0  0  0
    0.2827    0.2329   -4.8304 O   0  0  0  0  0  0  0  0  0  0  0  0
    3.8234    2.1198   -4.0016 H   0  0  0  0  0  0  0  0  0  0  0  0
    4.4727    3.6108   -4.1157 H   0  0  0  0  0  0  0  0  0  0  0  0
    5.6888    0.9969   -3.6986 H   0  0  0  0  0  0  0  0  0  0  0  0
    6.5984    2.5200   -3.8246 H   0  0  0  0  0  0  0  0  0  0  0  0
    6.4104    1.8593   -1.5097 H   0  0  0  0  0  0  0  0  0  0  0  0
    5.4813    3.3365   -1.6968 H   0  0  0  0  0  0  0  0  0  0  0  0
    2.3546    1.4385   -1.0755 H   0  0  0  0  0  0  0  0  0  0  0  0
    1.8688    3.7276   -1.6712 H   0  0  0  0  0  0  0  0  0  0  0  0
    3.3337    3.7852   -2.5839 H   0  0  0  0  0  0  0  0  0  0  0  0
    1.5044    3.3819   -4.2116 H   0  0  0  0  0  0  0  0  0  0  0  0
    2.2032    1.7949   -4.0913 H   0  0  0  0  0  0  0  0  0  0  0  0
   -0.2529    2.6783   -2.6494 H   0  0  0  0  0  0  0  0  0  0  0  0
    1.1298    0.0906   -2.4376 H   0  0  0  0  0  0  0  0  0  0  0  0
   -0.1361    0.5956   -1.5261 H   0  0  0  0  0  0  0  0  0  0  0  0
   -1.8084    2.3351   -3.9797 H   0  0  0  0  0  0  0  0  0  0  0  0
  1  2  1  0  0  0  0
  1 14  1  0  0  0  0
  1 15  1  0  0  0  0
  2  3  1  0  0  0  0
  2 16  1  0  0  0  0
  2 17  1  0  0  0  0
  3  4  1  0  0  0  0
  3 18  1  0  0  0  0
  3 19  1  0  0  0  0
  4  5  2  0  0  0  0
  4  6  1  0  0  0  0
  6  7  1  0  0  0  0
  6 20  1  0  0  0  0
  7  8  1  0  0  0  0
  7 21  1  0  0  0  0
  7 22  1  0  0  0  0
  8 23  1  0  0  0  0
  8 24  1  0  0  0  0
  9 11  1  0  0  0  0
  9 25  1  1  0  0  0
  9 10  1  0  0  0  0
  9  8  1  0  0  0  0
 10 26  1  0  0  0  0
 10 27  1  0  0  0  0
 11 12  1  0  0  0  0
 11 13  2  0  0  0  0
 12 28  1  0  0  0  0
M  END
>  <DRUGBANK_ID>
DB03236

>  <SECONDARY_ACCESSION_NUMBERS>
EXPT00060

>  <COMMON_NAME>
(2s)-4-(Beta-Alanylamino)-2-Aminobutanoic Acid

$$$$
