
 OpenBabel10282417123D

 19 18  0  0  0  0  0  0  0  0999 V2000
    1.3292    0.0355   -0.8062 H   0  0  0  0  0  0  0  0  0  0  0  0
    2.5134   -0.1055   -0.0552 P   0  0  0  0  0  0  0  0  0  0  0  0
    3.9018   -0.1902   -0.6361 O   0  0  0  0  0  0  0  0  0  0  0  0
    2.3839    1.1494    0.9735 O   0  0  0  0  0  0  0  0  0  0  0  0
    2.3275    2.4451    0.3697 C   0  0  0  0  0  0  0  0  0  0  0  0
    2.2469   -1.4011    0.8741 O   0  0  0  0  0  0  0  0  0  0  0  0
    0.9557   -1.9790    0.8108 C   0  0  0  0  0  0  0  0  0  0  0  0
    3.5340    2.7174   -0.5149 C   0  0  0  0  0  0  0  0  0  0  0  0
    0.0967   -1.2020    1.7744 C   0  0  0  0  0  0  0  0  0  0  0  0
    1.4036    2.5242   -0.2140 H   0  0  0  0  0  0  0  0  0  0  0  0
    2.2796    3.2013    1.1617 H   0  0  0  0  0  0  0  0  0  0  0  0
    0.5627   -1.9470   -0.2129 H   0  0  0  0  0  0  0  0  0  0  0  0
    1.0257   -3.0333    1.1005 H   0  0  0  0  0  0  0  0  0  0  0  0
    3.5700    2.0200   -1.3561 H   0  0  0  0  0  0  0  0  0  0  0  0
    3.5023    3.7189   -0.9488 H   0  0  0  0  0  0  0  0  0  0  0  0
    4.4608    2.5947    0.0545 H   0  0  0  0  0  0  0  0  0  0  0  0
    0.0303   -0.1573    1.4541 H   0  0  0  0  0  0  0  0  0  0  0  0
   -0.9095   -1.6140    1.8531 H   0  0  0  0  0  0  0  0  0  0  0  0
    0.5752   -1.1986    2.7592 H   0  0  0  0  0  0  0  0  0  0  0  0
  2  6  1  0  0  0  0
  2  1  1  0  0  0  0
  2  3  2  0  0  0  0
  4  2  1  0  0  0  0
  4  5  1  0  0  0  0
  5  8  1  0  0  0  0
  5 10  1  0  0  0  0
  5 11  1  0  0  0  0
  6  7  1  0  0  0  0
  7  9  1  0  0  0  0
  7 12  1  0  0  0  0
  7 13  1  0  0  0  0
  8 14  1  0  0  0  0
  8 15  1  0  0  0  0
  8 16  1  0  0  0  0
  9 17  1  0  0  0  0
  9 18  1  0  0  0  0
  9 19  1  0  0  0  0
M  END
>  <DRUGBANK_ID>
DB02811

>  <SECONDARY_ACCESSION_NUMBERS>
EXPT01161

>  <COMMON_NAME>
Diethyl phosphonate

>  <CAS_NUMBER>
762-04-9

>  <UNII>
U9X9YBA22W

>  <SYNONYMS>
Diethyl acid phosphite; Diethyl hydrogen phosphite; Diethyl phosphite; Hydrogen diethyl phosphite; O,O-Diethyl phosphonate; Phosphonic acid diethyl ester; Phosphorous acid, diethyl ester

$$$$
