
 OpenBabel10282417223D

137144  0  0  1  0  0  0  0  0999 V2000
    0.6351    0.1641   -0.0815 C   0  0  0  0  0  0  0  0  0  0  0  0
   -0.3666    1.8514   -0.0822 C   0  0  1  0  0  0  0  0  0  0  0  0
   -1.3613    3.1724   -1.3885 C   0  0  0  0  0  0  0  0  0  0  0  0
   -2.1428    2.0558   -1.6891 C   0  0  0  0  0  0  0  0  0  0  0  0
   -0.9956    1.2661   -2.2268 C   0  0  0  0  0  0  0  0  0  0  0  0
    0.4601    1.9715   -2.0862 C   0  0  2  0  0  0  0  0  0  0  0  0
    1.5669    1.0396   -2.3759 C   0  0  0  0  0  0  0  0  0  0  0  0
    0.6355    2.6283   -0.7128 C   0  0  1  0  0  0  0  0  0  0  0  0
    1.9499    3.2189   -0.4610 C   0  0  0  0  0  0  0  0  0  0  0  0
    1.9949    3.8380    0.8000 C   0  0  0  0  0  0  0  0  0  0  0  0
    1.5918    2.7088    1.5535 C   0  0  1  0  0  0  0  0  0  0  0  0
    3.0495    1.5423    1.0041 C   0  0  0  0  0  0  0  0  0  0  0  0
    4.0938    1.7639    2.1369 C   0  0  0  0  0  0  0  0  0  0  0  0
    5.6570    1.2274    2.1699 C   0  0  0  0  0  0  0  0  0  0  0  0
    2.6896    2.7952    3.6505 C   0  0  1  0  0  0  0  0  0  0  0  0
    1.7199    3.7861    3.1049 C   0  0  0  0  0  0  0  0  0  0  0  0
    0.6791    2.0184    4.0218 C   0  0  0  0  0  0  0  0  0  0  0  0
   -0.4815    2.4555    2.6839 C   0  0  0  0  0  0  0  0  0  0  0  0
    0.2089    1.9218    1.5131 C   0  0  1  0  0  0  0  0  0  0  0  0
    4.2157    2.4768    4.9488 O   0  0  0  0  0  0  0  0  0  0  0  0
    4.5374    0.9658    6.4407 C   0  0  2  0  0  0  0  0  0  0  0  0
    3.8207    0.0078    6.0133 O   0  0  0  0  0  0  0  0  0  0  0  0
    2.9678    0.2512    4.4626 C   0  0  2  0  0  0  0  0  0  0  0  0
    2.2700    1.3678    2.8263 C   0  0  0  0  0  0  0  0  0  0  0  0
    3.3190    3.1565    2.2853 O   0  0  0  0  0  0  0  0  0  0  0  0
    2.0263   -1.5966    5.4118 C   0  0  1  0  0  0  0  0  0  0  0  0
    2.4404   -3.4685    5.5648 O   0  0  0  0  0  0  0  0  0  0  0  0
    1.7197   -0.6579    6.9745 C   0  0  2  0  0  0  0  0  0  0  0  0
    1.2296    1.0912    6.4169 O   0  0  0  0  0  0  0  0  0  0  0  0
    2.3276    2.2406    5.2638 C   0  0  2  0  0  0  0  0  0  0  0  0
    3.6586    1.5337    3.8544 O   0  0  0  0  0  0  0  0  0  0  0  0
    5.2037    0.0410    3.6870 C   0  0  2  0  0  0  0  0  0  0  0  0
    4.3593   -1.2627    4.3833 C   0  0  0  0  0  0  0  0  0  0  0  0
    2.9589   -2.6842    3.6053 O   0  0  0  0  0  0  0  0  0  0  0  0
    6.4424    1.4159    4.6703 C   0  0  1  0  0  0  0  0  0  0  0  0
    6.6192    2.6200    3.7950 O   0  0  0  0  0  0  0  0  0  0  0  0
    5.6784    2.4437    6.0017 C   0  0  2  0  0  0  0  0  0  0  0  0
    6.0116    0.9027    7.2435 O   0  0  0  0  0  0  0  0  0  0  0  0
    3.8629    3.6928    5.8982 C   0  0  1  0  0  0  0  0  0  0  0  0
    4.1215    4.5595    4.7127 O   0  0  0  0  0  0  0  0  0  0  0  0
    3.3031   -0.1476    7.4779 C   0  0  1  0  0  0  0  0  0  0  0  0
    4.2458   -1.2958    7.6155 O   0  0  0  0  0  0  0  0  0  0  0  0
    5.1648   -1.6948    6.3341 C   0  0  2  0  0  0  0  0  0  0  0  0
    5.8635   -0.3786    5.5311 O   0  0  0  0  0  0  0  0  0  0  0  0
    4.5088    0.7608    4.7628 C   0  0  2  0  0  0  0  0  0  0  0  0
    3.4538    2.0484    6.4404 C   0  0  0  0  0  0  0  0  0  0  0  0
    4.7312    2.7110    7.6243 O   0  0  0  0  0  0  0  0  0  0  0  0
    3.5557   -0.5156    3.0628 C   0  0  1  0  0  0  0  0  0  0  0  0
    4.4876   -1.1951    1.8017 O   0  0  0  0  0  0  0  0  0  0  0  0
    2.6725   -1.2083    3.8608 C   0  0  2  0  0  0  0  0  0  0  0  0
    1.5717   -0.0657    5.0808 O   0  0  0  0  0  0  0  0  0  0  0  0
    3.9335   -2.6458    5.0736 C   0  0  1  0  0  0  0  0  0  0  0  0
    4.9122   -3.2089    3.9347 O   0  0  0  0  0  0  0  0  0  0  0  0
    0.6248    3.1608   -2.9070 C   0  0  0  0  0  0  0  0  0  0  0  0
    0.6859    4.2207   -2.2612 O   0  0  0  0  0  0  0  0  0  0  0  0
    0.6760    3.0083   -4.2744 O   0  0  0  0  0  0  0  0  0  0  0  0
    0.5845    4.2113   -5.1489 C   0  0  2  0  0  0  0  0  0  0  0  0
    1.5409    4.5114   -6.2224 O   0  0  0  0  0  0  0  0  0  0  0  0
    2.8693    4.9064   -5.8373 C   0  0  2  0  0  0  0  0  0  0  0  0
    3.5963    3.6276   -5.4096 C   0  0  0  0  0  0  0  0  0  0  0  0
    3.5969    2.6543   -6.4314 O   0  0  0  0  0  0  0  0  0  0  0  0
    2.8630    6.0379   -4.7941 C   0  0  1  0  0  0  0  0  0  0  0  0
    2.2564    7.2383   -5.2747 O   0  0  0  0  0  0  0  0  0  0  0  0
    2.0151    5.5905   -3.6524 C   0  0  2  0  0  0  0  0  0  0  0  0
    2.7021    4.4365   -3.1538 O   0  0  0  0  0  0  0  0  0  0  0  0
    0.5641    5.3912   -4.2064 C   0  0  1  0  0  0  0  0  0  0  0  0
   -0.0254    6.5543   -4.6877 O   0  0  0  0  0  0  0  0  0  0  0  0
    0.4366   -0.4312   -0.9400 H   0  0  0  0  0  0  0  0  0  0  0  0
    0.4591   -0.6418    0.6979 H   0  0  0  0  0  0  0  0  0  0  0  0
    1.7852    0.0517   -0.0956 H   0  0  0  0  0  0  0  0  0  0  0  0
   -2.3464    3.8492   -1.9253 H   0  0  0  0  0  0  0  0  0  0  0  0
   -1.0676    3.8087   -2.3636 H   0  0  0  0  0  0  0  0  0  0  0  0
   -3.1682    1.9157   -1.9850 H   0  0  0  0  0  0  0  0  0  0  0  0
   -2.2881    2.4265   -0.6531 H   0  0  0  0  0  0  0  0  0  0  0  0
   -1.1100    1.0107   -3.2555 H   0  0  0  0  0  0  0  0  0  0  0  0
   -1.0820    0.4088   -1.5718 H   0  0  0  0  0  0  0  0  0  0  0  0
    1.3023   -0.0012   -2.3088 H   0  0  0  0  0  0  0  0  0  0  0  0
    1.8984    1.1937   -3.3715 H   0  0  0  0  0  0  0  0  0  0  0  0
    2.3676    1.2084   -1.6766 H   0  0  0  0  0  0  0  0  0  0  0  0
    0.0159    3.4408   -0.2604 H   0  0  0  0  0  0  0  0  0  0  0  0
    2.7708    2.5659   -0.6674 H   0  0  0  0  0  0  0  0  0  0  0  0
    2.0882    4.1304   -0.9566 H   0  0  0  0  0  0  0  0  0  0  0  0
    1.2589    4.4760    1.2034 H   0  0  0  0  0  0  0  0  0  0  0  0
    3.0350    4.1563    0.9584 H   0  0  0  0  0  0  0  0  0  0  0  0
    2.7731    0.4882    1.0673 H   0  0  0  0  0  0  0  0  0  0  0  0
    3.9800    1.9146    0.6849 H   0  0  0  0  0  0  0  0  0  0  0  0
    6.5712    0.5819    3.1435 H   0  0  0  0  0  0  0  0  0  0  0  0
    5.8124    0.2744    1.7373 H   0  0  0  0  0  0  0  0  0  0  0  0
    2.4231    4.4811    3.4773 H   0  0  0  0  0  0  0  0  0  0  0  0
    0.8930    3.7534    3.7621 H   0  0  0  0  0  0  0  0  0  0  0  0
    0.2820    2.1742    5.2355 H   0  0  0  0  0  0  0  0  0  0  0  0
    0.5915    0.7051    4.0731 H   0  0  0  0  0  0  0  0  0  0  0  0
   -0.7011    3.2656    3.3262 H   0  0  0  0  0  0  0  0  0  0  0  0
   -0.4843    3.3723    1.9454 H   0  0  0  0  0  0  0  0  0  0  0  0
    0.1268    0.8895    2.0860 H   0  0  0  0  0  0  0  0  0  0  0  0
    4.2042    1.2475    7.5749 H   0  0  0  0  0  0  0  0  0  0  0  0
    4.0552    0.6213    3.1798 H   0  0  0  0  0  0  0  0  0  0  0  0
    1.6007    0.7672    2.2775 H   0  0  0  0  0  0  0  0  0  0  0  0
    1.9664    1.2493    3.7803 H   0  0  0  0  0  0  0  0  0  0  0  0
    4.1823    3.0619    2.9547 H   0  0  0  0  0  0  0  0  0  0  0  0
    1.0591   -1.6161    4.8195 H   0  0  0  0  0  0  0  0  0  0  0  0
    3.4665   -3.6364    6.2570 H   0  0  0  0  0  0  0  0  0  0  0  0
    1.1610   -1.6098    6.6305 H   0  0  0  0  0  0  0  0  0  0  0  0
    1.6326    3.0810    5.1498 H   0  0  0  0  0  0  0  0  0  0  0  0
    5.0351   -1.0201    3.3621 H   0  0  0  0  0  0  0  0  0  0  0  0
    5.3174   -1.6590    4.5808 H   0  0  0  0  0  0  0  0  0  0  0  0
    3.6223   -1.2383    5.4747 H   0  0  0  0  0  0  0  0  0  0  0  0
    1.6537   -2.1400    3.4688 H   0  0  0  0  0  0  0  0  0  0  0  0
    7.1946    0.8795    5.1541 H   0  0  0  0  0  0  0  0  0  0  0  0
    5.6971    2.9002    3.5509 H   0  0  0  0  0  0  0  0  0  0  0  0
    6.3183    3.2257    6.2187 H   0  0  0  0  0  0  0  0  0  0  0  0
    5.1558   -0.1041    7.1810 H   0  0  0  0  0  0  0  0  0  0  0  0
    3.1190    4.0494    6.6571 H   0  0  0  0  0  0  0  0  0  0  0  0
    4.4384    3.8831    4.0875 H   0  0  0  0  0  0  0  0  0  0  0  0
    2.8047    0.6299    8.1722 H   0  0  0  0  0  0  0  0  0  0  0  0
    5.8866   -2.4640    6.4449 H   0  0  0  0  0  0  0  0  0  0  0  0
    5.1023    1.5761    3.9845 H   0  0  0  0  0  0  0  0  0  0  0  0
    2.6711    2.6145    6.8302 H   0  0  0  0  0  0  0  0  0  0  0  0
    2.7727    1.3961    6.7987 H   0  0  0  0  0  0  0  0  0  0  0  0
    5.6493    1.9969    7.6212 H   0  0  0  0  0  0  0  0  0  0  0  0
    2.8892   -0.0359    2.4478 H   0  0  0  0  0  0  0  0  0  0  0  0
    5.4678   -1.2793    2.0923 H   0  0  0  0  0  0  0  0  0  0  0  0
    2.4184   -1.3351    2.7074 H   0  0  0  0  0  0  0  0  0  0  0  0
    2.4695    0.1714    5.8736 H   0  0  0  0  0  0  0  0  0  0  0  0
    3.2185   -2.3622    6.3285 H   0  0  0  0  0  0  0  0  0  0  0  0
    5.1724   -2.5157    3.2359 H   0  0  0  0  0  0  0  0  0  0  0  0
   -0.2639    3.9656   -5.7853 H   0  0  0  0  0  0  0  0  0  0  0  0
    3.4202    5.2927   -6.7030 H   0  0  0  0  0  0  0  0  0  0  0  0
    4.5689    3.8566   -4.9820 H   0  0  0  0  0  0  0  0  0  0  0  0
    3.1192    3.0119   -4.6783 H   0  0  0  0  0  0  0  0  0  0  0  0
    2.6534    2.4907   -6.6405 H   0  0  0  0  0  0  0  0  0  0  0  0
    3.8591    6.2066   -4.3860 H   0  0  0  0  0  0  0  0  0  0  0  0
    2.7689    7.7383   -5.9241 H   0  0  0  0  0  0  0  0  0  0  0  0
    1.9903    6.3110   -2.8479 H   0  0  0  0  0  0  0  0  0  0  0  0
    2.2818    3.7344   -3.6671 H   0  0  0  0  0  0  0  0  0  0  0  0
   -0.1547    5.2005   -3.4476 H   0  0  0  0  0  0  0  0  0  0  0  0
    0.5944    6.8204   -5.3816 H   0  0  0  0  0  0  0  0  0  0  0  0
  1 68  1  0  0  0  0
  1 69  1  0  0  0  0
  1 70  1  0  0  0  0
  2  1  1  1  0  0  0
  2  3  1  0  0  0  0
  2  8  1  0  0  0  0
  2 19  1  0  0  0  0
  3  4  1  0  0  0  0
  3 71  1  0  0  0  0
  3 72  1  0  0  0  0
  4  5  1  0  0  0  0
  4 73  1  0  0  0  0
  4 74  1  0  0  0  0
  5 75  1  0  0  0  0
  5 76  1  0  0  0  0
  6  5  1  0  0  0  0
  6 54  1  6  0  0  0
  6  7  1  0  0  0  0
  7 77  1  0  0  0  0
  7 78  1  0  0  0  0
  7 79  1  0  0  0  0
  8  6  1  0  0  0  0
  8  9  1  0  0  0  0
  8 80  1  1  0  0  0
  9 10  1  0  0  0  0
  9 81  1  0  0  0  0
  9 82  1  0  0  0  0
 10 83  1  0  0  0  0
 10 84  1  0  0  0  0
 11 10  1  6  0  0  0
 11 12  1  0  0  0  0
 11 16  1  0  0  0  0
 12 13  1  0  0  0  0
 12 85  1  0  0  0  0
 12 86  1  0  0  0  0
 13 14  2  0  0  0  0
 14 87  1  0  0  0  0
 14 88  1  0  0  0  0
 15 13  1  0  0  0  0
 15 16  1  0  0  0  0
 15 17  1  0  0  0  0
 15 20  1  1  0  0  0
 16 89  1  0  0  0  0
 16 90  1  0  0  0  0
 17 18  1  0  0  0  0
 17 91  1  0  0  0  0
 17 92  1  0  0  0  0
 18 93  1  0  0  0  0
 18 94  1  0  0  0  0
 19 18  1  0  0  0  0
 19 11  1  0  0  0  0
 19 95  1  1  0  0  0
 21 20  1  0  0  0  0
 21 22  1  0  0  0  0
 21 96  1  1  0  0  0
 23 22  1  0  0  0  0
 23 24  1  0  0  0  0
 23 97  1  6  0  0  0
 24 25  1  0  0  0  0
 24 98  1  0  0  0  0
 24 99  1  0  0  0  0
 25100  1  0  0  0  0
 26 23  1  0  0  0  0
 26 28  1  0  0  0  0
 26101  1  6  0  0  0
 26 27  1  0  0  0  0
 27102  1  0  0  0  0
 28 29  1  0  0  0  0
 28 41  1  0  0  0  0
 28103  1  1  0  0  0
 30 29  1  0  0  0  0
 30 31  1  0  0  0  0
 30104  1  6  0  0  0
 32 31  1  0  0  0  0
 32 33  1  0  0  0  0
 32105  1  6  0  0  0
 33 34  1  0  0  0  0
 33106  1  0  0  0  0
 33107  1  0  0  0  0
 34108  1  0  0  0  0
 35 32  1  0  0  0  0
 35 37  1  0  0  0  0
 35109  1  1  0  0  0
 35 36  1  0  0  0  0
 36110  1  0  0  0  0
 37 38  1  0  0  0  0
 37 39  1  0  0  0  0
 37111  1  1  0  0  0
 38112  1  0  0  0  0
 39 30  1  0  0  0  0
 39 40  1  0  0  0  0
 39113  1  1  0  0  0
 40114  1  0  0  0  0
 41 21  1  0  0  0  0
 41 42  1  0  0  0  0
 41115  1  1  0  0  0
 43 42  1  0  0  0  0
 43 44  1  0  0  0  0
 43116  1  1  0  0  0
 45 44  1  0  0  0  0
 45 46  1  0  0  0  0
 45117  1  6  0  0  0
 46 47  1  0  0  0  0
 46118  1  0  0  0  0
 46119  1  0  0  0  0
 47120  1  0  0  0  0
 48 45  1  0  0  0  0
 48 50  1  0  0  0  0
 48121  1  6  0  0  0
 48 49  1  0  0  0  0
 49122  1  0  0  0  0
 50 51  1  0  0  0  0
 50 52  1  0  0  0  0
 50123  1  6  0  0  0
 51124  1  0  0  0  0
 52 43  1  0  0  0  0
 52 53  1  0  0  0  0
 52125  1  1  0  0  0
 53126  1  0  0  0  0
 54 55  2  0  0  0  0
 54 56  1  0  0  0  0
 57 56  1  0  0  0  0
 57 58  1  0  0  0  0
 57127  1  6  0  0  0
 59 58  1  0  0  0  0
 59 60  1  0  0  0  0
 59128  1  6  0  0  0
 60 61  1  0  0  0  0
 60129  1  0  0  0  0
 60130  1  0  0  0  0
 61131  1  0  0  0  0
 62 59  1  0  0  0  0
 62 64  1  0  0  0  0
 62132  1  1  0  0  0
 62 63  1  0  0  0  0
 63133  1  0  0  0  0
 64 65  1  0  0  0  0
 64 66  1  0  0  0  0
 64134  1  1  0  0  0
 65135  1  0  0  0  0
 66 57  1  0  0  0  0
 66 67  1  0  0  0  0
 66136  1  1  0  0  0
 67137  1  0  0  0  0
M  END
>  <DRUGBANK_ID>
DB15136

>  <COMMON_NAME>
Rebaudioside A

>  <CAS_NUMBER>
58543-16-1

>  <UNII>
B3FUD0528F

$$$$
