
 OpenBabel10282417113D

121123  0  0  0  0  0  0  0  0999 V2000
   -0.5326    0.1968   -0.7343 C   0  0  2  0  0  0  0  0  0  0  0  0
   -4.2543   -2.3787   -1.0933 C   0  0  2  0  0  0  0  0  0  0  0  0
   -4.2588   -4.8721   -0.8736 C   0  0  0  0  0  0  0  0  0  0  0  0
   -1.8336   -7.1334   -2.3120 C   0  0  1  0  0  0  0  0  0  0  0  0
   -4.2029   -3.5862   -0.0760 C   0  0  2  0  0  0  0  0  0  0  0  0
   -0.5143   -0.4303    0.7481 C   0  0  1  0  0  0  0  0  0  0  0  0
   -2.1708   -0.9802   -2.6648 C   0  0  1  0  0  0  0  0  0  0  0  0
   -2.8495   -2.3158   -1.9127 C   0  0  1  0  0  0  0  0  0  0  0  0
   -0.4347   -5.7591   -3.8206 C   0  0  2  0  0  0  0  0  0  0  0  0
   -3.0377   -5.5228   -0.8782 O   0  0  0  0  0  0  0  0  0  0  0  0
   -1.8299   -6.1965   -3.5739 C   0  0  1  0  0  0  0  0  0  0  0  0
   -0.2793   -4.5841   -4.6983 C   0  0  0  0  0  0  0  0  0  0  0  0
   -1.6546    0.0790   -1.7834 O   0  0  0  0  0  0  0  0  0  0  0  0
   -2.8785    1.8239   -0.8923 C   0  0  2  0  0  0  0  0  0  0  0  0
    0.7566   -0.6861    1.3927 C   0  0  2  0  0  0  0  0  0  0  0  0
   -1.0806   -1.0564   -3.7194 C   0  0  1  0  0  0  0  0  0  0  0  0
   -4.0911   -0.2514    0.6359 C   0  0  1  0  0  0  0  0  0  0  0  0
   -2.9641    0.6552    0.1392 C   0  0  0  0  0  0  0  0  0  0  0  0
    0.5558    0.8882   -1.2709 O   0  0  0  0  0  0  0  0  0  0  0  0
   -4.8312    0.7755    1.3082 O   0  0  0  0  0  0  0  0  0  0  0  0
   -3.1074   -6.8296   -1.5056 C   0  0  2  0  0  0  0  0  0  0  0  0
   -3.4365    2.7480    0.1419 C   0  0  2  0  0  0  0  0  0  0  0  0
   -4.8050   -1.1331   -0.3368 O   0  0  0  0  0  0  0  0  0  0  0  0
   -4.7654    2.0380    0.5835 C   0  0  2  0  0  0  0  0  0  0  0  0
   -0.0009   -3.3275   -4.0030 C   0  0  1  0  0  0  0  0  0  0  0  0
   -1.1971   -2.3937   -4.4039 C   0  0  0  0  0  0  0  0  0  0  0  0
    1.8112   -0.6045    0.2535 C   0  0  0  0  0  0  0  0  0  0  0  0
    0.4936   -2.0700    2.1436 N   0  0  0  0  0  0  0  0  0  0  0  0
   -5.2312   -5.2214   -1.4613 O   0  0  0  0  0  0  0  0  0  0  0  0
    1.7918    0.6447   -0.6820 C   0  0  1  0  0  0  0  0  0  0  0  0
   -0.3216   -4.6386   -5.9330 O   0  0  0  0  0  0  0  0  0  0  0  0
   -1.8917   -8.4687   -2.8448 O   0  0  0  0  0  0  0  0  0  0  0  0
   -1.4662   -0.2660    1.8334 O   0  0  0  0  0  0  0  0  0  0  0  0
   -2.3127   -6.8677   -4.7303 O   0  0  0  0  0  0  0  0  0  0  0  0
   -3.7475    1.7227   -2.0757 O   0  0  0  0  0  0  0  0  0  0  0  0
   -1.0053    0.0873   -4.5630 O   0  0  0  0  0  0  0  0  0  0  0  0
   -3.6181    3.9579   -0.5539 O   0  0  0  0  0  0  0  0  0  0  0  0
   -0.6314   -7.0643   -1.3094 C   0  0  0  0  0  0  0  0  0  0  0  0
   -5.3630   -3.4239    0.8630 C   0  0  0  0  0  0  0  0  0  0  0  0
   -2.1037   -2.2061   -0.7151 C   0  0  0  0  0  0  0  0  0  0  0  0
    0.6771   -6.6956   -4.1750 C   0  0  0  0  0  0  0  0  0  0  0  0
   -1.3945    2.6428   -1.3268 C   0  0  0  0  0  0  0  0  0  0  0  0
    0.2391   -1.0686   -3.0768 C   0  0  0  0  0  0  0  0  0  0  0  0
   -3.2882   -7.8785   -0.4076 C   0  0  0  0  0  0  0  0  0  0  0  0
   -5.5384    3.0593    1.2804 C   0  0  0  0  0  0  0  0  0  0  0  0
    0.3948   -3.6113   -2.4644 C   0  0  0  0  0  0  0  0  0  0  0  0
   -0.7769   -2.1010    2.9994 C   0  0  0  0  0  0  0  0  0  0  0  0
    0.2971   -3.2225    1.2147 C   0  0  0  0  0  0  0  0  0  0  0  0
    2.7223    0.5181   -1.9053 C   0  0  0  0  0  0  0  0  0  0  0  0
   -4.6449    0.6125   -2.1992 C   0  0  0  0  0  0  0  0  0  0  0  0
   -2.1769    0.3924   -5.2884 C   0  0  0  0  0  0  0  0  0  0  0  0
   -4.7501   -8.2163   -0.2601 C   0  0  0  0  0  0  0  0  0  0  0  0
   -3.7526   -0.9529    1.4249 H   0  0  0  0  0  0  0  0  0  0  0  0
   -0.8509    1.0428   -0.1962 H   0  0  0  0  0  0  0  0  0  0  0  0
   -4.9890   -2.6033   -1.8810 H   0  0  0  0  0  0  0  0  0  0  0  0
   -3.3380   -3.6987    0.5892 H   0  0  0  0  0  0  0  0  0  0  0  0
   -0.7366   -1.4064    0.4965 H   0  0  0  0  0  0  0  0  0  0  0  0
   -3.0196   -0.6583   -3.2663 H   0  0  0  0  0  0  0  0  0  0  0  0
   -2.5526   -3.2700   -2.3426 H   0  0  0  0  0  0  0  0  0  0  0  0
   -0.2547   -5.4656   -2.8181 H   0  0  0  0  0  0  0  0  0  0  0  0
   -2.4807   -5.3224   -3.4080 H   0  0  0  0  0  0  0  0  0  0  0  0
    0.8531    0.1639    2.0864 H   0  0  0  0  0  0  0  0  0  0  0  0
   -2.2932   -0.0823    0.0567 H   0  0  0  0  0  0  0  0  0  0  0  0
   -2.4675    1.1624    0.9559 H   0  0  0  0  0  0  0  0  0  0  0  0
   -3.9355   -6.8667   -2.2181 H   0  0  0  0  0  0  0  0  0  0  0  0
   -2.7163    2.9223    0.9761 H   0  0  0  0  0  0  0  0  0  0  0  0
   -5.2968    1.8255   -0.3184 H   0  0  0  0  0  0  0  0  0  0  0  0
    0.8934   -2.9261   -4.4875 H   0  0  0  0  0  0  0  0  0  0  0  0
   -2.1626   -2.8724   -4.1967 H   0  0  0  0  0  0  0  0  0  0  0  0
   -1.2421   -2.2369   -5.4847 H   0  0  0  0  0  0  0  0  0  0  0  0
    1.6417   -1.4643   -0.3990 H   0  0  0  0  0  0  0  0  0  0  0  0
    2.7941   -0.6647    0.6971 H   0  0  0  0  0  0  0  0  0  0  0  0
    1.9885    1.5785   -0.1596 H   0  0  0  0  0  0  0  0  0  0  0  0
   -2.6078   -8.4401   -3.5180 H   0  0  0  0  0  0  0  0  0  0  0  0
   -1.9089    0.4893    2.2413 H   0  0  0  0  0  0  0  0  0  0  0  0
   -1.5288   -7.2569   -5.1664 H   0  0  0  0  0  0  0  0  0  0  0  0
   -4.1057    3.6454   -1.3416 H   0  0  0  0  0  0  0  0  0  0  0  0
   -0.5346   -6.0782   -0.8408 H   0  0  0  0  0  0  0  0  0  0  0  0
   -0.7249   -7.8079   -0.5149 H   0  0  0  0  0  0  0  0  0  0  0  0
    0.3404   -7.3108   -1.7373 H   0  0  0  0  0  0  0  0  0  0  0  0
   -5.2830   -2.4974    1.4416 H   0  0  0  0  0  0  0  0  0  0  0  0
   -6.2684   -3.3669    0.2608 H   0  0  0  0  0  0  0  0  0  0  0  0
   -5.4006   -4.2323    1.5865 H   0  0  0  0  0  0  0  0  0  0  0  0
   -2.2836   -2.4376    0.3168 H   0  0  0  0  0  0  0  0  0  0  0  0
   -1.0930   -2.0567   -0.9618 H   0  0  0  0  0  0  0  0  0  0  0  0
   -2.6295   -1.3169   -0.6316 H   0  0  0  0  0  0  0  0  0  0  0  0
    1.6358   -6.1864   -4.0016 H   0  0  0  0  0  0  0  0  0  0  0  0
    0.6570   -7.6017   -3.5827 H   0  0  0  0  0  0  0  0  0  0  0  0
    0.6028   -6.9746   -5.2200 H   0  0  0  0  0  0  0  0  0  0  0  0
   -0.5869    2.6429   -0.5531 H   0  0  0  0  0  0  0  0  0  0  0  0
   -0.9852    2.2494   -2.2757 H   0  0  0  0  0  0  0  0  0  0  0  0
   -1.4150    3.7217   -1.4651 H   0  0  0  0  0  0  0  0  0  0  0  0
   -0.0455   -1.7313   -2.3071 H   0  0  0  0  0  0  0  0  0  0  0  0
    1.0998   -1.2368   -3.7022 H   0  0  0  0  0  0  0  0  0  0  0  0
    0.7000   -0.5698   -2.3042 H   0  0  0  0  0  0  0  0  0  0  0  0
   -2.7646   -8.8074   -0.6587 H   0  0  0  0  0  0  0  0  0  0  0  0
   -2.8785   -7.5211    0.5449 H   0  0  0  0  0  0  0  0  0  0  0  0
   -5.2096    4.0393    0.9418 H   0  0  0  0  0  0  0  0  0  0  0  0
   -6.5509    2.8791    0.9389 H   0  0  0  0  0  0  0  0  0  0  0  0
   -5.3871    2.9440    2.3467 H   0  0  0  0  0  0  0  0  0  0  0  0
   -0.5157   -3.6847   -1.8565 H   0  0  0  0  0  0  0  0  0  0  0  0
    0.9994   -4.4874   -2.2465 H   0  0  0  0  0  0  0  0  0  0  0  0
    1.0978   -2.9114   -2.0032 H   0  0  0  0  0  0  0  0  0  0  0  0
   -1.7204   -2.2147    2.4134 H   0  0  0  0  0  0  0  0  0  0  0  0
   -0.8370   -2.9638    3.6588 H   0  0  0  0  0  0  0  0  0  0  0  0
   -0.8662   -1.2126    3.6427 H   0  0  0  0  0  0  0  0  0  0  0  0
   -0.6530   -3.2872    0.6793 H   0  0  0  0  0  0  0  0  0  0  0  0
    1.0546   -3.2611    0.4381 H   0  0  0  0  0  0  0  0  0  0  0  0
    0.2645   -4.1523    1.7765 H   0  0  0  0  0  0  0  0  0  0  0  0
    2.4884    1.2778   -2.6716 H   0  0  0  0  0  0  0  0  0  0  0  0
    3.7593    0.5702   -1.6061 H   0  0  0  0  0  0  0  0  0  0  0  0
    2.6122   -0.4337   -2.4404 H   0  0  0  0  0  0  0  0  0  0  0  0
   -4.1120   -0.2456   -1.8916 H   0  0  0  0  0  0  0  0  0  0  0  0
   -5.5636    0.6449   -1.6130 H   0  0  0  0  0  0  0  0  0  0  0  0
   -4.9352    0.3305   -3.2140 H   0  0  0  0  0  0  0  0  0  0  0  0
   -2.4452   -0.4639   -5.9044 H   0  0  0  0  0  0  0  0  0  0  0  0
   -3.0114    0.6677   -4.6414 H   0  0  0  0  0  0  0  0  0  0  0  0
   -1.9736    1.2559   -5.9199 H   0  0  0  0  0  0  0  0  0  0  0  0
   -5.1452   -8.5779   -1.2158 H   0  0  0  0  0  0  0  0  0  0  0  0
   -4.8705   -9.0013    0.4865 H   0  0  0  0  0  0  0  0  0  0  0  0
   -5.3231   -7.3401    0.0475 H   0  0  0  0  0  0  0  0  0  0  0  0
  1 54  1  1  0  0  0
  2  8  1  0  0  0  0
  2 23  1  0  0  0  0
  2 55  1  6  0  0  0
  3  5  1  0  0  0  0
  4 11  1  0  0  0  0
  4 32  1  6  0  0  0
  5  2  1  0  0  0  0
  5 56  1  1  0  0  0
  5 39  1  0  0  0  0
  6  1  1  0  0  0  0
  6 33  1  0  0  0  0
  6 57  1  6  0  0  0
  7 13  1  0  0  0  0
  7 58  1  6  0  0  0
  8  7  1  0  0  0  0
  8 40  1  0  0  0  0
  8 59  1  6  0  0  0
  9 12  1  0  0  0  0
  9 41  1  0  0  0  0
  9 60  1  1  0  0  0
 10  3  1  0  0  0  0
 11  9  1  0  0  0  0
 11 61  1  1  0  0  0
 11 34  1  0  0  0  0
 12 25  1  0  0  0  0
 13  1  1  0  0  0  0
 14 18  1  0  0  0  0
 14 22  1  0  0  0  0
 14 42  1  0  0  0  0
 14 35  1  6  0  0  0
 15  6  1  0  0  0  0
 15 28  1  0  0  0  0
 15 27  1  0  0  0  0
 15 62  1  1  0  0  0
 16  7  1  0  0  0  0
 16 36  1  6  0  0  0
 17 53  1  1  0  0  0
 17 23  1  0  0  0  0
 18 17  1  0  0  0  0
 18 63  1  0  0  0  0
 18 64  1  0  0  0  0
 19  1  1  0  0  0  0
 20 17  1  0  0  0  0
 21 10  1  0  0  0  0
 21  4  1  0  0  0  0
 21 65  1  6  0  0  0
 21 44  1  0  0  0  0
 22 24  1  0  0  0  0
 22 66  1  1  0  0  0
 22 37  1  0  0  0  0
 24 20  1  0  0  0  0
 24 67  1  6  0  0  0
 24 45  1  0  0  0  0
 25 26  1  0  0  0  0
 25 68  1  6  0  0  0
 25 46  1  0  0  0  0
 26 16  1  0  0  0  0
 26 69  1  0  0  0  0
 26 70  1  0  0  0  0
 27 30  1  0  0  0  0
 27 71  1  0  0  0  0
 27 72  1  0  0  0  0
 29  3  2  0  0  0  0
 30 19  1  0  0  0  0
 30 49  1  0  0  0  0
 30 73  1  1  0  0  0
 31 12  2  0  0  0  0
 32 74  1  0  0  0  0
 33 75  1  0  0  0  0
 34 76  1  0  0  0  0
 37 77  1  0  0  0  0
 38  4  1  0  0  0  0
 38 78  1  0  0  0  0
 38 79  1  0  0  0  0
 38 80  1  0  0  0  0
 39 81  1  0  0  0  0
 39 82  1  0  0  0  0
 39 83  1  0  0  0  0
 40 84  1  0  0  0  0
 40 85  1  0  0  0  0
 40 86  1  0  0  0  0
 41 87  1  0  0  0  0
 41 88  1  0  0  0  0
 41 89  1  0  0  0  0
 42 90  1  0  0  0  0
 42 91  1  0  0  0  0
 42 92  1  0  0  0  0
 43 16  1  0  0  0  0
 43 93  1  0  0  0  0
 43 94  1  0  0  0  0
 43 95  1  0  0  0  0
 44 96  1  0  0  0  0
 44 97  1  0  0  0  0
 45 98  1  0  0  0  0
 45 99  1  0  0  0  0
 45100  1  0  0  0  0
 46101  1  0  0  0  0
 46102  1  0  0  0  0
 46103  1  0  0  0  0
 47 28  1  0  0  0  0
 47104  1  0  0  0  0
 47105  1  0  0  0  0
 47106  1  0  0  0  0
 48 28  1  0  0  0  0
 48107  1  0  0  0  0
 48108  1  0  0  0  0
 48109  1  0  0  0  0
 49110  1  0  0  0  0
 49111  1  0  0  0  0
 49112  1  0  0  0  0
 50 35  1  0  0  0  0
 50113  1  0  0  0  0
 50114  1  0  0  0  0
 50115  1  0  0  0  0
 51 36  1  0  0  0  0
 51116  1  0  0  0  0
 51117  1  0  0  0  0
 51118  1  0  0  0  0
 52 44  1  0  0  0  0
 52119  1  0  0  0  0
 52120  1  0  0  0  0
 52121  1  0  0  0  0
M  END
>  <DRUGBANK_ID>
DB01211

>  <SECONDARY_ACCESSION_NUMBERS>
APRD00181

>  <COMMON_NAME>
Clarithromycin

>  <CAS_NUMBER>
81103-11-9

>  <UNII>
H1250JIK0A

>  <SYNONYMS>
6-O-methyl erythromycin; 6-O-methylerythromycin; 6-O-methylerythromycin A; CLA; Clarithromycin; Clarithromycina; Clarithromycine; Clarithromycinum; Claritromicina

$$$$
