
 OpenBabel10282417113D

 97102  0  0  1  0  0  0  0  0999 V2000
    2.7719    0.7803   -0.0551 C   0  0  1  0  0  0  0  0  0  0  0  0
    2.1654   -0.5846   -0.5255 C   0  0  2  0  0  0  0  0  0  0  0  0
    4.1665    0.5191   -0.6452 C   0  0  2  0  0  0  0  0  0  0  0  0
    1.9847    1.9309   -0.6985 C   0  0  0  0  0  0  0  0  0  0  0  0
    2.7700    1.0763    1.4634 C   0  0  0  0  0  0  0  0  0  0  0  0
    0.8109   -0.7874    0.0327 C   0  0  1  0  0  0  0  0  0  0  0  0
    3.1356   -1.6605   -0.0788 C   0  0  0  0  0  0  0  0  0  0  0  0
    4.5004   -1.0016   -0.2724 C   0  0  2  0  0  0  0  0  0  0  0  0
    5.1631    1.4957   -0.3773 O   0  0  0  0  0  0  0  0  0  0  0  0
    0.5225    1.8476   -0.2710 C   0  0  0  0  0  0  0  0  0  0  0  0
   -0.0634    0.4009   -0.4634 C   0  0  2  0  0  0  0  0  0  0  0  0
    0.1446   -2.1840   -0.1496 C   0  0  0  0  0  0  0  0  0  0  0  0
    5.4731   -1.3133    0.9431 N   0  3  0  0  0  0  0  0  0  0  0  0
    6.3162    1.5016   -1.0930 C   0  0  0  0  0  0  0  0  0  0  0  0
   -1.4358    0.2195    0.2250 C   0  0  2  0  0  0  0  0  0  0  0  0
   -1.3096   -2.3400    0.3821 C   0  0  0  0  0  0  0  0  0  0  0  0
    4.9732   -0.7485    2.2660 C   0  0  0  0  0  0  0  0  0  0  0  0
    5.7025   -2.8414    1.0516 C   0  0  0  0  0  0  0  0  0  0  0  0
    6.8227   -0.6896    0.6746 C   0  0  0  0  0  0  0  0  0  0  0  0
    6.4888    0.5815   -2.2675 C   0  0  0  0  0  0  0  0  0  0  0  0
    7.3101    2.1214   -0.6342 O   0  0  0  0  0  0  0  0  0  0  0  0
   -2.1135   -1.1858   -0.1749 C   0  0  1  0  0  0  0  0  0  0  0  0
   -2.5027    1.4956   -0.3225 C   0  0  0  0  0  0  0  0  0  0  0  0
   -0.7441    0.0978    1.8141 C   0  0  0  0  0  0  0  0  0  0  0  0
    5.8322   -1.0968    3.4544 C   0  0  0  0  0  0  0  0  0  0  0  0
    6.5588   -3.1580    2.2797 C   0  0  0  0  0  0  0  0  0  0  0  0
   -3.6509   -1.2745   -0.0650 C   0  0  0  0  0  0  0  0  0  0  0  0
   -4.0596    1.3724   -0.1235 C   0  0  1  0  0  0  0  0  0  0  0  0
    5.9071   -2.6073    3.5411 C   0  0  0  0  0  0  0  0  0  0  0  0
   -4.4160   -0.0700   -0.6867 C   0  0  1  0  0  0  0  0  0  0  0  0
   -4.6453    1.8594    1.1962 N   0  0  0  0  0  0  0  0  0  0  0  0
   -4.3746   -0.1340   -2.2185 O   0  0  0  0  0  0  0  0  0  0  0  0
   -4.1661    3.2122    1.6196 C   0  0  0  0  0  0  0  0  0  0  0  0
   -4.4677    0.9595    2.3277 C   0  0  0  0  0  0  0  0  0  0  0  0
   -3.4603   -0.0544   -3.2124 C   0  0  0  0  0  0  0  0  0  0  0  0
   -2.6796    3.4218    1.8774 C   0  0  0  0  0  0  0  0  0  0  0  0
   -3.0161    0.9343    2.5294 C   0  0  0  0  0  0  0  0  0  0  0  0
   -2.0434    0.2179   -2.9442 C   0  0  0  0  0  0  0  0  0  0  0  0
   -3.7919   -0.2130   -4.4213 O   0  0  0  0  0  0  0  0  0  0  0  0
   -2.1968    2.2675    2.7395 C   0  0  0  0  0  0  0  0  0  0  0  0
    2.0844   -0.6072   -1.6204 H   0  0  0  0  0  0  0  0  0  0  0  0
    1.0768   -0.7457    1.0857 H   0  0  0  0  0  0  0  0  0  0  0  0
   -0.1001    0.2927   -1.5438 H   0  0  0  0  0  0  0  0  0  0  0  0
   -1.9780   -1.4301   -1.2295 H   0  0  0  0  0  0  0  0  0  0  0  0
    3.9689    0.5913   -1.7227 H   0  0  0  0  0  0  0  0  0  0  0  0
    2.0190    1.8826   -1.7900 H   0  0  0  0  0  0  0  0  0  0  0  0
    2.3950    2.9054   -0.4014 H   0  0  0  0  0  0  0  0  0  0  0  0
    2.9016    0.1813    2.0435 H   0  0  0  0  0  0  0  0  0  0  0  0
    3.4961    1.8482    1.7347 H   0  0  0  0  0  0  0  0  0  0  0  0
    1.8365    1.4272    1.8913 H   0  0  0  0  0  0  0  0  0  0  0  0
    2.9318   -1.9737    0.9493 H   0  0  0  0  0  0  0  0  0  0  0  0
    3.0078   -2.5532   -0.6999 H   0  0  0  0  0  0  0  0  0  0  0  0
    4.9660   -1.4792   -1.1405 H   0  0  0  0  0  0  0  0  0  0  0  0
   -0.0543    2.5825   -0.8405 H   0  0  0  0  0  0  0  0  0  0  0  0
    0.4414    2.2352    0.7496 H   0  0  0  0  0  0  0  0  0  0  0  0
    0.7453   -2.9528    0.3433 H   0  0  0  0  0  0  0  0  0  0  0  0
    0.1391   -2.3997   -1.2226 H   0  0  0  0  0  0  0  0  0  0  0  0
   -1.3898   -2.3841    1.4722 H   0  0  0  0  0  0  0  0  0  0  0  0
   -1.7218   -3.2928    0.0294 H   0  0  0  0  0  0  0  0  0  0  0  0
    4.0006   -1.1999    2.4624 H   0  0  0  0  0  0  0  0  0  0  0  0
    4.9467    0.3356    2.1700 H   0  0  0  0  0  0  0  0  0  0  0  0
    6.1876   -3.1662    0.1232 H   0  0  0  0  0  0  0  0  0  0  0  0
    4.7275   -3.3345    1.1259 H   0  0  0  0  0  0  0  0  0  0  0  0
    7.1407   -1.0318   -0.3036 H   0  0  0  0  0  0  0  0  0  0  0  0
    6.7047    0.3715    0.8168 H   0  0  0  0  0  0  0  0  0  0  0  0
    7.5772   -0.9704    1.3993 H   0  0  0  0  0  0  0  0  0  0  0  0
    6.8213    1.1478   -3.1322 H   0  0  0  0  0  0  0  0  0  0  0  0
    7.2398   -0.1830   -2.0468 H   0  0  0  0  0  0  0  0  0  0  0  0
    5.5917    0.0400   -2.5527 H   0  0  0  0  0  0  0  0  0  0  0  0
   -2.0390    2.4455   -0.1803 H   0  0  0  0  0  0  0  0  0  0  0  0
   -2.5225    1.6990   -1.3955 H   0  0  0  0  0  0  0  0  0  0  0  0
   -0.3379   -0.8842    2.0557 H   0  0  0  0  0  0  0  0  0  0  0  0
    0.0378    0.8350    1.9128 H   0  0  0  0  0  0  0  0  0  0  0  0
   -1.1468    0.2070    2.8070 H   0  0  0  0  0  0  0  0  0  0  0  0
    5.3686   -0.6782    4.3551 H   0  0  0  0  0  0  0  0  0  0  0  0
    6.8201   -0.6332    3.3721 H   0  0  0  0  0  0  0  0  0  0  0  0
    7.5622   -2.7326    2.1777 H   0  0  0  0  0  0  0  0  0  0  0  0
    6.7098   -4.2350    2.3659 H   0  0  0  0  0  0  0  0  0  0  0  0
   -3.9415   -1.4639    0.9706 H   0  0  0  0  0  0  0  0  0  0  0  0
   -3.9849   -2.1746   -0.6061 H   0  0  0  0  0  0  0  0  0  0  0  0
   -4.5580    2.0527   -0.8370 H   0  0  0  0  0  0  0  0  0  0  0  0
    6.4580   -2.8993    4.4353 H   0  0  0  0  0  0  0  0  0  0  0  0
    4.8908   -3.0162    3.6256 H   0  0  0  0  0  0  0  0  0  0  0  0
   -5.4875   -0.2369   -0.4892 H   0  0  0  0  0  0  0  0  0  0  0  0
   -4.5487    3.9694    0.9391 H   0  0  0  0  0  0  0  0  0  0  0  0
   -4.6022    3.4095    2.6070 H   0  0  0  0  0  0  0  0  0  0  0  0
   -4.8826    1.2117    3.3041 H   0  0  0  0  0  0  0  0  0  0  0  0
   -4.8297   -0.0494    2.0978 H   0  0  0  0  0  0  0  0  0  0  0  0
   -2.0828    3.5897    0.9791 H   0  0  0  0  0  0  0  0  0  0  0  0
   -2.4507    4.3723    2.3657 H   0  0  0  0  0  0  0  0  0  0  0  0
   -2.7742    0.6381    1.5547 H   0  0  0  0  0  0  0  0  0  0  0  0
   -2.7940   -0.0022    3.0534 H   0  0  0  0  0  0  0  0  0  0  0  0
   -1.3218   -0.5569   -3.2032 H   0  0  0  0  0  0  0  0  0  0  0  0
   -1.6835    1.2300   -3.1536 H   0  0  0  0  0  0  0  0  0  0  0  0
   -2.0350    0.1468   -1.9041 H   0  0  0  0  0  0  0  0  0  0  0  0
   -1.1212    2.2457    2.5143 H   0  0  0  0  0  0  0  0  0  0  0  0
   -2.2284    2.5094    3.7956 H   0  0  0  0  0  0  0  0  0  0  0  0
  1  2  1  0  0  0  0
  1  3  1  0  0  0  0
  1  4  1  0  0  0  0
  1  5  1  1  0  0  0
  2  6  1  0  0  0  0
  2  7  1  0  0  0  0
  2 41  1  6  0  0  0
  3  8  1  0  0  0  0
  3 45  1  6  0  0  0
  3  9  1  0  0  0  0
  4 10  1  0  0  0  0
  4 46  1  0  0  0  0
  4 47  1  0  0  0  0
  5 48  1  0  0  0  0
  5 49  1  0  0  0  0
  5 50  1  0  0  0  0
  6 11  1  0  0  0  0
  6 12  1  0  0  0  0
  6 42  1  1  0  0  0
  7  8  1  0  0  0  0
  7 51  1  0  0  0  0
  7 52  1  0  0  0  0
  8 13  1  0  0  0  0
  8 53  1  6  0  0  0
  9 14  1  0  0  0  0
 10 11  1  0  0  0  0
 10 54  1  0  0  0  0
 10 55  1  0  0  0  0
 11 15  1  0  0  0  0
 11 43  1  6  0  0  0
 12 16  1  0  0  0  0
 12 56  1  0  0  0  0
 12 57  1  0  0  0  0
 13 17  1  0  0  0  0
 13 18  1  0  0  0  0
 13 19  1  0  0  0  0
 14 20  1  0  0  0  0
 14 21  2  0  0  0  0
 15 22  1  0  0  0  0
 15 23  1  0  0  0  0
 15 24  1  1  0  0  0
 16 22  1  0  0  0  0
 16 58  1  0  0  0  0
 16 59  1  0  0  0  0
 17 25  1  0  0  0  0
 17 60  1  0  0  0  0
 17 61  1  0  0  0  0
 18 26  1  0  0  0  0
 18 62  1  0  0  0  0
 18 63  1  0  0  0  0
 19 64  1  0  0  0  0
 19 65  1  0  0  0  0
 19 66  1  0  0  0  0
 20 67  1  0  0  0  0
 20 68  1  0  0  0  0
 20 69  1  0  0  0  0
 22 27  1  0  0  0  0
 22 44  1  6  0  0  0
 23 28  1  0  0  0  0
 23 70  1  0  0  0  0
 23 71  1  0  0  0  0
 24 72  1  0  0  0  0
 24 73  1  0  0  0  0
 24 74  1  0  0  0  0
 25 29  1  0  0  0  0
 25 75  1  0  0  0  0
 25 76  1  0  0  0  0
 26 29  1  0  0  0  0
 26 77  1  0  0  0  0
 26 78  1  0  0  0  0
 27 30  1  0  0  0  0
 27 79  1  0  0  0  0
 27 80  1  0  0  0  0
 28 31  1  0  0  0  0
 28 30  1  0  0  0  0
 28 81  1  6  0  0  0
 29 82  1  0  0  0  0
 29 83  1  0  0  0  0
 30 84  1  1  0  0  0
 30 32  1  0  0  0  0
 31 33  1  0  0  0  0
 31 34  1  0  0  0  0
 32 35  1  0  0  0  0
 33 36  1  0  0  0  0
 33 85  1  0  0  0  0
 33 86  1  0  0  0  0
 34 37  1  0  0  0  0
 34 87  1  0  0  0  0
 34 88  1  0  0  0  0
 35 38  1  0  0  0  0
 35 39  2  0  0  0  0
 36 40  1  0  0  0  0
 36 89  1  0  0  0  0
 36 90  1  0  0  0  0
 37 40  1  0  0  0  0
 37 91  1  0  0  0  0
 37 92  1  0  0  0  0
 38 93  1  0  0  0  0
 38 94  1  0  0  0  0
 38 95  1  0  0  0  0
 40 96  1  0  0  0  0
 40 97  1  0  0  0  0
M  CHG  1  13   1
M  END
>  <DRUGBANK_ID>
DB01339

>  <COMMON_NAME>
Vecuronium

>  <CAS_NUMBER>
86029-43-8

>  <UNII>
5438723848

>  <SYNONYMS>
Vecuronio; Vecuronium cation

$$$$
