
 OpenBabel10282417193D

145147  0  0  1  0  0  0  0  0999 V2000
   -3.2228   -4.5091    1.4911 C   0  0  0  0  0  0  0  0  0  0  0  0
   -1.2432   -4.5208    1.4279 C   0  0  0  0  0  0  0  0  0  0  0  0
   -2.5411   -6.1591    1.8179 C   0  0  2  0  0  0  0  0  0  0  0  0
   -1.8078   -5.1107   -0.0984 C   0  0  0  0  0  0  0  0  0  0  0  0
   -3.5646   -7.7777    3.5131 C   0  0  1  0  0  0  0  0  0  0  0  0
   -4.9884   -9.4032    5.0161 C   0  0  0  0  0  0  0  0  0  0  0  0
   -5.9051  -10.2031    6.1847 O   0  0  0  0  0  0  0  0  0  0  0  0
   -6.2846  -10.9485    6.3548 N   0  0  0  0  0  0  0  0  0  0  0  0
   -7.5450  -11.8139    8.1671 C   0  0  2  0  0  0  0  0  0  0  0  0
   -6.6891  -12.7417    9.0811 C   0  0  0  0  0  0  0  0  0  0  0  0
   -6.3249  -13.5270    9.9111 O   0  0  0  0  0  0  0  0  0  0  0  0
   -5.9492  -11.8204    8.4297 N   0  0  0  0  0  0  0  0  0  0  0  0
   -4.5768  -11.8550    8.2344 C   0  0  2  0  0  0  0  0  0  0  0  0
   -4.1315  -12.2342    6.8006 C   0  0  0  0  0  0  0  0  0  0  0  0
   -4.4252  -13.3392    6.3271 O   0  0  0  0  0  0  0  0  0  0  0  0
   -3.2914  -11.3548    6.1183 N   0  0  0  0  0  0  0  0  0  0  0  0
   -2.7935  -11.6826    4.7517 C   0  0  1  0  0  0  0  0  0  0  0  0
   -3.3406  -10.7709    3.7136 C   0  0  0  0  0  0  0  0  0  0  0  0
   -2.6262   -9.4265    4.3399 S   0  0  0  0  0  0  0  0  0  0  0  0
   -3.3494   -8.4598    6.1769 S   0  0  0  0  0  0  0  0  0  0  0  0
   -2.7750   -6.8204    6.4828 C   0  0  0  0  0  0  0  0  0  0  0  0
   -1.2688   -6.7983    6.4967 C   0  0  1  0  0  0  0  0  0  0  0  0
   -0.7036   -7.1542    5.1602 C   0  0  0  0  0  0  0  0  0  0  0  0
   -0.8942   -8.2446    4.7137 O   0  0  0  0  0  0  0  0  0  0  0  0
    0.1728   -6.3199    4.4859 N   0  0  0  0  0  0  0  0  0  0  0  0
    0.5815   -6.7051    3.1817 C   0  0  2  0  0  0  0  0  0  0  0  0
   -0.6324   -5.6651    3.1357 C   0  0  0  0  0  0  0  0  0  0  0  0
   -1.7683   -5.4982    3.7945 O   0  0  0  0  0  0  0  0  0  0  0  0
   -1.6353   -6.8116    2.7498 N   0  0  0  0  0  0  0  0  0  0  0  0
    0.1247   -8.0677    2.6408 C   0  0  0  0  0  0  0  0  0  0  0  0
    0.5507   -8.4097    1.2902 C   0  0  0  0  0  0  0  0  0  0  0  0
    1.1106   -7.4652    0.4683 C   0  0  0  0  0  0  0  0  0  0  0  0
    1.6273   -7.8067   -0.7523 C   0  0  0  0  0  0  0  0  0  0  0  0
    1.5435   -9.0911   -1.2017 C   0  0  0  0  0  0  0  0  0  0  0  0
    1.0476  -10.0342   -0.3373 C   0  0  0  0  0  0  0  0  0  0  0  0
    0.3980   -9.6936    0.8343 C   0  0  0  0  0  0  0  0  0  0  0  0
   -0.7778   -5.4671    6.8587 N   0  0  0  0  0  0  0  0  0  0  0  0
   -1.2229  -11.6929    4.7329 C   0  0  0  0  0  0  0  0  0  0  0  0
   -0.5811  -10.6444    4.6668 O   0  0  0  0  0  0  0  0  0  0  0  0
   -0.5566  -12.9195    4.8682 N   0  0  0  0  0  0  0  0  0  0  0  0
   -0.8694  -14.1516    4.1538 C   0  0  0  0  0  0  0  0  0  0  0  0
   -0.5378  -15.2134    5.1764 C   0  0  0  0  0  0  0  0  0  0  0  0
    0.7612  -14.7052    5.8033 C   0  0  0  0  0  0  0  0  0  0  0  0
    0.6367  -13.1676    5.7239 C   0  0  1  0  0  0  0  0  0  0  0  0
    1.9329  -12.5592    5.1609 C   0  0  0  0  0  0  0  0  0  0  0  0
    2.2916  -12.7962    4.0053 O   0  0  0  0  0  0  0  0  0  0  0  0
    2.7279  -11.8334    6.0543 N   0  0  0  0  0  0  0  0  0  0  0  0
    2.3364  -11.5048    7.4405 C   0  0  1  0  0  0  0  0  0  0  0  0
    3.2963  -12.1320    8.4397 C   0  0  0  0  0  0  0  0  0  0  0  0
    4.6908  -11.6084    8.3446 C   0  0  0  0  0  0  0  0  0  0  0  0
    4.7344  -10.1677    8.8461 C   0  0  0  0  0  0  0  0  0  0  0  0
    4.1189   -9.7120    9.9628 N   0  0  0  0  0  0  0  0  0  0  0  0
    4.0833   -8.2689   10.0334 C   0  0  0  0  0  0  0  0  0  0  0  0
    3.0766   -7.6171    9.1756 C   0  0  0  0  0  0  0  0  0  0  0  0
    3.6348   -7.9794   11.4194 C   0  0  0  0  0  0  0  0  0  0  0  0
    2.1548   -9.9822    7.5843 C   0  0  0  0  0  0  0  0  0  0  0  0
    1.1169   -9.4808    7.9860 O   0  0  0  0  0  0  0  0  0  0  0  0
    3.1638   -9.1926    7.0145 N   0  0  0  0  0  0  0  0  0  0  0  0
    4.7105   -9.7403    6.7021 C   0  0  0  0  0  0  0  0  0  0  0  0
    5.2743   -9.1656    5.6290 C   0  0  0  0  0  0  0  0  0  0  0  0
    6.3570   -8.6376    5.7418 O   0  0  0  0  0  0  0  0  0  0  0  0
    4.4386   -9.3653    4.6016 N   0  0  0  0  0  0  0  0  0  0  0  0
   -4.0709  -12.8514    9.2114 C   0  0  0  0  0  0  0  0  0  0  0  0
   -2.5762  -12.8564    9.2283 C   0  0  0  0  0  0  0  0  0  0  0  0
   -1.9782  -12.5728   10.2654 O   0  0  0  0  0  0  0  0  0  0  0  0
   -1.9023  -13.1873    8.0469 N   0  0  0  0  0  0  0  0  0  0  0  0
   -8.6109  -12.2364   10.1409 C   0  0  0  0  0  0  0  0  0  0  0  0
   -8.3667  -10.9546   10.8625 C   0  0  0  0  0  0  0  0  0  0  0  0
   -8.8985   -9.9702    9.8615 C   0  0  0  0  0  0  0  0  0  0  0  0
  -10.4319   -9.9653    9.8440 C   0  0  0  0  0  0  0  0  0  0  0  0
  -11.0304   -8.9284   10.1196 O   0  0  0  0  0  0  0  0  0  0  0  0
  -11.1172  -11.1450    9.5085 N   0  0  0  0  0  0  0  0  0  0  0  0
   -3.4729   -3.5456    1.2846 H   0  0  0  0  0  0  0  0  0  0  0  0
   -3.5026   -4.8713    2.4461 H   0  0  0  0  0  0  0  0  0  0  0  0
   -3.4236   -5.1882    0.6171 H   0  0  0  0  0  0  0  0  0  0  0  0
   -1.1676   -3.7746    2.3117 H   0  0  0  0  0  0  0  0  0  0  0  0
   -0.1079   -4.7939    0.3682 H   0  0  0  0  0  0  0  0  0  0  0  0
   -1.8438   -4.6920    1.1342 H   0  0  0  0  0  0  0  0  0  0  0  0
   -2.2843   -4.2709   -1.3339 H   0  0  0  0  0  0  0  0  0  0  0  0
   -0.7642   -4.9635   -1.3328 H   0  0  0  0  0  0  0  0  0  0  0  0
   -1.9839   -5.8705   -0.6259 H   0  0  0  0  0  0  0  0  0  0  0  0
   -2.4789   -6.7987    2.8441 H   0  0  0  0  0  0  0  0  0  0  0  0
   -7.0729  -12.2698    6.8472 H   0  0  0  0  0  0  0  0  0  0  0  0
   -8.7566  -12.0167    8.2750 H   0  0  0  0  0  0  0  0  0  0  0  0
   -6.4161  -11.0897    7.7560 H   0  0  0  0  0  0  0  0  0  0  0  0
   -4.2713  -10.8522    8.4715 H   0  0  0  0  0  0  0  0  0  0  0  0
   -3.0456  -10.4099    6.4814 H   0  0  0  0  0  0  0  0  0  0  0  0
   -3.1612  -12.6468    4.4805 H   0  0  0  0  0  0  0  0  0  0  0  0
   -4.3931  -10.6685    3.6876 H   0  0  0  0  0  0  0  0  0  0  0  0
   -2.9474  -10.9190    2.7283 H   0  0  0  0  0  0  0  0  0  0  0  0
   -3.1613   -6.5517    7.4771 H   0  0  0  0  0  0  0  0  0  0  0  0
   -3.1706   -6.1027    5.7760 H   0  0  0  0  0  0  0  0  0  0  0  0
   -0.9111   -7.5338    7.2224 H   0  0  0  0  0  0  0  0  0  0  0  0
    0.3157   -5.3652    4.8043 H   0  0  0  0  0  0  0  0  0  0  0  0
    1.6456   -6.5861    3.0363 H   0  0  0  0  0  0  0  0  0  0  0  0
   -0.3899   -6.0819    2.0516 H   0  0  0  0  0  0  0  0  0  0  0  0
    0.4495   -8.7588    3.3730 H   0  0  0  0  0  0  0  0  0  0  0  0
   -0.9508   -8.2096    2.6349 H   0  0  0  0  0  0  0  0  0  0  0  0
    1.1365   -6.4441    0.7700 H   0  0  0  0  0  0  0  0  0  0  0  0
    2.1141   -7.0619   -1.3448 H   0  0  0  0  0  0  0  0  0  0  0  0
    1.8455   -9.3673   -2.1984 H   0  0  0  0  0  0  0  0  0  0  0  0
    1.2007  -11.0589   -0.5961 H   0  0  0  0  0  0  0  0  0  0  0  0
   -0.2042  -10.4122    1.3849 H   0  0  0  0  0  0  0  0  0  0  0  0
   -1.0471   -5.2868    7.8209 H   0  0  0  0  0  0  0  0  0  0  0  0
   -1.2640   -4.8075    6.2480 H   0  0  0  0  0  0  0  0  0  0  0  0
   -0.2705  -14.2759    3.2378 H   0  0  0  0  0  0  0  0  0  0  0  0
   -1.8924  -14.1947    3.8279 H   0  0  0  0  0  0  0  0  0  0  0  0
   -1.3490  -15.3176    5.9036 H   0  0  0  0  0  0  0  0  0  0  0  0
   -0.4280  -16.1894    4.7235 H   0  0  0  0  0  0  0  0  0  0  0  0
    0.9273  -15.0831    6.8155 H   0  0  0  0  0  0  0  0  0  0  0  0
    1.6257  -15.0513    5.2339 H   0  0  0  0  0  0  0  0  0  0  0  0
    0.4659  -12.7869    6.7071 H   0  0  0  0  0  0  0  0  0  0  0  0
    3.6308  -11.4920    5.7258 H   0  0  0  0  0  0  0  0  0  0  0  0
    1.3665  -11.9177    7.6447 H   0  0  0  0  0  0  0  0  0  0  0  0
    2.9623  -11.9301    9.4482 H   0  0  0  0  0  0  0  0  0  0  0  0
    3.3495  -13.1989    8.2894 H   0  0  0  0  0  0  0  0  0  0  0  0
    5.4132  -11.9902    8.9641 H   0  0  0  0  0  0  0  0  0  0  0  0
    5.0991  -11.9123    7.3122 H   0  0  0  0  0  0  0  0  0  0  0  0
    5.6838   -9.5671    8.7731 H   0  0  0  0  0  0  0  0  0  0  0  0
    4.0263   -9.8085    8.2428 H   0  0  0  0  0  0  0  0  0  0  0  0
    3.2097  -10.1219    9.9739 H   0  0  0  0  0  0  0  0  0  0  0  0
    5.0691   -7.8349    9.8485 H   0  0  0  0  0  0  0  0  0  0  0  0
    2.1147   -8.0828    9.1812 H   0  0  0  0  0  0  0  0  0  0  0  0
    3.0351   -6.5636    9.1973 H   0  0  0  0  0  0  0  0  0  0  0  0
    3.5286   -7.5303    8.2756 H   0  0  0  0  0  0  0  0  0  0  0  0
    4.3305   -8.4060   12.1291 H   0  0  0  0  0  0  0  0  0  0  0  0
    3.5774   -6.9067   11.5740 H   0  0  0  0  0  0  0  0  0  0  0  0
    2.6479   -8.4091   11.5846 H   0  0  0  0  0  0  0  0  0  0  0  0
    3.3520   -8.2783    7.2503 H   0  0  0  0  0  0  0  0  0  0  0  0
    5.5360   -9.5805    7.3585 H   0  0  0  0  0  0  0  0  0  0  0  0
    4.5181  -10.7206    6.7742 H   0  0  0  0  0  0  0  0  0  0  0  0
    3.5232   -9.8368    4.6452 H   0  0  0  0  0  0  0  0  0  0  0  0
    4.7444   -8.9873    3.7302 H   0  0  0  0  0  0  0  0  0  0  0  0
   -4.4628  -12.5834   10.2155 H   0  0  0  0  0  0  0  0  0  0  0  0
   -4.4638  -13.8475    8.9691 H   0  0  0  0  0  0  0  0  0  0  0  0
   -2.3781  -13.4279    7.1675 H   0  0  0  0  0  0  0  0  0  0  0  0
   -0.8838  -13.1888    8.0171 H   0  0  0  0  0  0  0  0  0  0  0  0
   -9.8747  -12.3928   10.4986 H   0  0  0  0  0  0  0  0  0  0  0  0
   -8.4776  -13.0705   11.1633 H   0  0  0  0  0  0  0  0  0  0  0  0
   -8.7322  -10.7166   11.8588 H   0  0  0  0  0  0  0  0  0  0  0  0
   -7.2857  -10.9625   10.8802 H   0  0  0  0  0  0  0  0  0  0  0  0
   -8.5168   -8.9812   10.1059 H   0  0  0  0  0  0  0  0  0  0  0  0
   -8.5291  -10.1929    8.8669 H   0  0  0  0  0  0  0  0  0  0  0  0
  -10.6630  -12.0258    9.2580 H   0  0  0  0  0  0  0  0  0  0  0  0
  -12.1370  -11.1905    9.5252 H   0  0  0  0  0  0  0  0  0  0  0  0
  1  2  1  0  0  0  0
  1 73  1  0  0  0  0
  1 74  1  0  0  0  0
  1 75  1  0  0  0  0
  2 76  1  0  0  0  0
  2 77  1  0  0  0  0
  3 78  1  6  0  0  0
  3  4  1  0  0  0  0
  3  2  1  0  0  0  0
  4 79  1  0  0  0  0
  4 80  1  0  0  0  0
  4 81  1  0  0  0  0
  5  6  1  0  0  0  0
  5 29  1  0  0  0  0
  5 82  1  1  0  0  0
  5  3  1  0  0  0  0
  6  7  2  0  0  0  0
  6  8  1  0  0  0  0
  8  9  1  0  0  0  0
  8 83  1  0  0  0  0
  9 10  1  0  0  0  0
  9 67  1  0  0  0  0
  9 84  1  1  0  0  0
 10 11  2  0  0  0  0
 10 12  1  0  0  0  0
 12 13  1  0  0  0  0
 12 85  1  0  0  0  0
 13 14  1  0  0  0  0
 13 63  1  0  0  0  0
 13 86  1  1  0  0  0
 14 15  2  0  0  0  0
 14 16  1  0  0  0  0
 16 17  1  0  0  0  0
 16 87  1  0  0  0  0
 17 18  1  0  0  0  0
 17 88  1  6  0  0  0
 17 38  1  0  0  0  0
 18 19  1  0  0  0  0
 18 89  1  0  0  0  0
 18 90  1  0  0  0  0
 19 20  1  0  0  0  0
 20 21  1  0  0  0  0
 21 22  1  0  0  0  0
 21 91  1  0  0  0  0
 21 92  1  0  0  0  0
 22 23  1  0  0  0  0
 22 93  1  1  0  0  0
 22 37  1  0  0  0  0
 23 24  2  0  0  0  0
 23 25  1  0  0  0  0
 25 26  1  0  0  0  0
 25 94  1  0  0  0  0
 26 27  1  0  0  0  0
 26 30  1  0  0  0  0
 26 95  1  6  0  0  0
 27 28  2  0  0  0  0
 27 29  1  0  0  0  0
 29 96  1  0  0  0  0
 30 31  1  0  0  0  0
 30 97  1  0  0  0  0
 30 98  1  0  0  0  0
 31 32  2  0  0  0  0
 31 36  1  0  0  0  0
 32 33  1  0  0  0  0
 32 99  1  0  0  0  0
 33 34  2  0  0  0  0
 33100  1  0  0  0  0
 34 35  1  0  0  0  0
 34101  1  0  0  0  0
 35 36  2  0  0  0  0
 35102  1  0  0  0  0
 36103  1  0  0  0  0
 37104  1  0  0  0  0
 37105  1  0  0  0  0
 38 39  2  0  0  0  0
 38 40  1  0  0  0  0
 40 41  1  0  0  0  0
 40 44  1  0  0  0  0
 41 42  1  0  0  0  0
 41106  1  0  0  0  0
 41107  1  0  0  0  0
 42 43  1  0  0  0  0
 42108  1  0  0  0  0
 42109  1  0  0  0  0
 43 44  1  0  0  0  0
 43110  1  0  0  0  0
 43111  1  0  0  0  0
 44112  1  1  0  0  0
 44 45  1  0  0  0  0
 45 46  2  0  0  0  0
 45 47  1  0  0  0  0
 47113  1  0  0  0  0
 48 47  1  0  0  0  0
 48 49  1  0  0  0  0
 48 56  1  0  0  0  0
 48114  1  1  0  0  0
 49 50  1  0  0  0  0
 49115  1  0  0  0  0
 49116  1  0  0  0  0
 50 51  1  0  0  0  0
 50117  1  0  0  0  0
 50118  1  0  0  0  0
 51 52  1  0  0  0  0
 51119  1  0  0  0  0
 51120  1  0  0  0  0
 52 53  1  0  0  0  0
 52121  1  0  0  0  0
 53 54  1  0  0  0  0
 53 55  1  0  0  0  0
 53122  1  0  0  0  0
 54123  1  0  0  0  0
 54124  1  0  0  0  0
 54125  1  0  0  0  0
 55126  1  0  0  0  0
 55127  1  0  0  0  0
 55128  1  0  0  0  0
 56 57  2  0  0  0  0
 56 58  1  0  0  0  0
 58 59  1  0  0  0  0
 58129  1  0  0  0  0
 59 60  1  0  0  0  0
 59130  1  0  0  0  0
 59131  1  0  0  0  0
 60 61  2  0  0  0  0
 60 62  1  0  0  0  0
 62132  1  0  0  0  0
 62133  1  0  0  0  0
 63 64  1  0  0  0  0
 63134  1  0  0  0  0
 63135  1  0  0  0  0
 64 65  2  0  0  0  0
 64 66  1  0  0  0  0
 66136  1  0  0  0  0
 66137  1  0  0  0  0
 67 68  1  0  0  0  0
 67138  1  0  0  0  0
 67139  1  0  0  0  0
 68 69  1  0  0  0  0
 68140  1  0  0  0  0
 68141  1  0  0  0  0
 69 70  1  0  0  0  0
 69142  1  0  0  0  0
 69143  1  0  0  0  0
 70 71  2  0  0  0  0
 70 72  1  0  0  0  0
 72144  1  0  0  0  0
 72145  1  0  0  0  0
M  END
>  <DRUGBANK_ID>
DB12495

>  <COMMON_NAME>
Selepressin

>  <CAS_NUMBER>
876296-47-8

>  <UNII>
8P2T76M0SJ

>  <SYNONYMS>
Selepressin

$$$$
