
 OpenBabel10282417133D

 14 13  0  0  0  0  0  0  0  0999 V2000
    1.0500   -0.0796   -0.0299 O   0  0  0  0  0  0  0  0  0  0  0  0
    2.2845   -0.0462   -0.0599 C   0  0  0  0  0  0  0  0  0  0  0  0
    3.0965   -0.2144    1.2062 C   0  0  0  0  0  0  0  0  0  0  0  0
    3.0052    0.1702   -1.3670 C   0  0  0  0  0  0  0  0  0  0  0  0
    3.9395   -1.4778    1.1998 C   0  0  0  0  0  0  0  0  0  0  0  0
    4.9753   -1.4161    0.2291 O   0  0  0  0  0  0  0  0  0  0  0  0
    3.7093    0.6823    1.3420 H   0  0  0  0  0  0  0  0  0  0  0  0
    2.3932   -0.2660    2.0472 H   0  0  0  0  0  0  0  0  0  0  0  0
    2.8286   -0.6940   -2.0144 H   0  0  0  0  0  0  0  0  0  0  0  0
    2.6432    1.0824   -1.8443 H   0  0  0  0  0  0  0  0  0  0  0  0
    4.0796    0.2942   -1.2200 H   0  0  0  0  0  0  0  0  0  0  0  0
    4.4321   -1.5889    2.1711 H   0  0  0  0  0  0  0  0  0  0  0  0
    3.3359   -2.3732    1.0214 H   0  0  0  0  0  0  0  0  0  0  0  0
    4.5933   -1.6563   -0.6328 H   0  0  0  0  0  0  0  0  0  0  0  0
  2  1  2  0  0  0  0
  2  3  1  0  0  0  0
  2  4  1  0  0  0  0
  3  5  1  0  0  0  0
  3  7  1  0  0  0  0
  3  8  1  0  0  0  0
  4  9  1  0  0  0  0
  4 10  1  0  0  0  0
  4 11  1  0  0  0  0
  5  6  1  0  0  0  0
  5 12  1  0  0  0  0
  5 13  1  0  0  0  0
  6 14  1  0  0  0  0
M  END
>  <DRUGBANK_ID>
DB04094

>  <SECONDARY_ACCESSION_NUMBERS>
EXPT00777

>  <COMMON_NAME>
4-hydroxybutan-2-one

>  <CAS_NUMBER>
590-90-9

>  <UNII>
TCM0BJ44MF

>  <SYNONYMS>
3-Oxo-1-butanol; 3-Oxobutanol; 4-Hydroxy-2-butanone; Methylolacetone; Monomethylolacetone

$$$$
