CYK
 OpenBabel10282417163D

 34 33  0  0  0  0  0  0  0  0999 V2000
    0.8461    0.0793   -0.2127 C   0  0  0  0  0  0  0  0  0  0  0  0
   -1.8658   -0.2998    2.1846 C   0  0  0  0  0  0  0  0  0  0  0  0
    0.8235    2.1902    1.4064 C   0  0  0  0  0  0  0  0  0  0  0  0
   -3.1021   -0.3117    2.1807 O   0  0  0  0  0  0  0  0  0  0  0  0
   -1.2760    0.5638    1.2651 N   0  0  0  0  0  0  0  0  0  0  0  0
    0.1492    0.8400    1.0459 C   0  0  1  0  0  0  0  0  0  0  0  0
   -0.0650    3.1078    1.8643 O   0  0  0  0  0  0  0  0  0  0  0  0
    2.0177    2.3605    1.4439 O   0  0  0  0  0  0  0  0  0  0  0  0
    0.3986   -1.3802   -0.7651 C   0  0  0  0  0  0  0  0  0  0  0  0
    0.9794   -3.1780   -0.4886 S   0  0  0  0  0  0  0  0  0  0  0  0
   -1.1100   -1.1889    3.2466 C   0  0  0  0  0  0  0  0  0  0  0  0
   -0.1642   -2.2906    2.7470 C   0  0  0  0  0  0  0  0  0  0  0  0
    1.0431   -1.6271    2.1655 C   0  0  0  0  0  0  0  0  0  0  0  0
    1.9317   -0.6924    2.9552 C   0  0  0  0  0  0  0  0  0  0  0  0
    2.7541   -1.5949    3.8038 C   0  0  0  0  0  0  0  0  0  0  0  0
    0.4538    0.4725    1.9936 H   0  0  0  0  0  0  0  0  0  0  0  0
    0.6295    0.7477   -1.0539 H   0  0  0  0  0  0  0  0  0  0  0  0
    1.9386    0.0981   -0.0948 H   0  0  0  0  0  0  0  0  0  0  0  0
   -1.9497    1.0106    0.6524 H   0  0  0  0  0  0  0  0  0  0  0  0
   -0.9685    2.7428    1.8966 H   0  0  0  0  0  0  0  0  0  0  0  0
   -0.6856   -1.4581   -0.6570 H   0  0  0  0  0  0  0  0  0  0  0  0
    0.6464   -1.3572   -1.8248 H   0  0  0  0  0  0  0  0  0  0  0  0
    2.1348   -3.0848    0.2038 H   0  0  0  0  0  0  0  0  0  0  0  0
   -0.5982   -0.5421    3.9642 H   0  0  0  0  0  0  0  0  0  0  0  0
   -1.8799   -1.7146    3.8273 H   0  0  0  0  0  0  0  0  0  0  0  0
    0.1520   -3.0216    3.4925 H   0  0  0  0  0  0  0  0  0  0  0  0
   -0.6992   -2.8558    1.9672 H   0  0  0  0  0  0  0  0  0  0  0  0
    1.7603   -2.1933    1.6114 H   0  0  0  0  0  0  0  0  0  0  0  0
    0.4943   -1.1772    1.3908 H   0  0  0  0  0  0  0  0  0  0  0  0
    2.5772   -0.1367    2.2555 H   0  0  0  0  0  0  0  0  0  0  0  0
    1.4167    0.0497    3.5736 H   0  0  0  0  0  0  0  0  0  0  0  0
    3.3164   -2.2754    3.1555 H   0  0  0  0  0  0  0  0  0  0  0  0
    3.4270   -0.9996    4.4090 H   0  0  0  0  0  0  0  0  0  0  0  0
    2.0771   -2.1776    4.4310 H   0  0  0  0  0  0  0  0  0  0  0  0
  1  9  1  0  0  0  0
  1 17  1  0  0  0  0
  1 18  1  0  0  0  0
  2  5  1  0  0  0  0
  3  6  1  0  0  0  0
  3  7  1  0  0  0  0
  4  2  2  0  0  0  0
  5 19  1  0  0  0  0
  6  5  1  0  0  0  0
  6  1  1  0  0  0  0
  6 16  1  1  0  0  0
  7 20  1  0  0  0  0
  8  3  2  0  0  0  0
  9 10  1  0  0  0  0
  9 21  1  0  0  0  0
  9 22  1  0  0  0  0
 10 23  1  0  0  0  0
 11  2  1  0  0  0  0
 11 24  1  0  0  0  0
 11 25  1  0  0  0  0
 12 11  1  0  0  0  0
 12 13  1  0  0  0  0
 12 26  1  0  0  0  0
 12 27  1  0  0  0  0
 13 28  1  0  0  0  0
 13 29  1  0  0  0  0
 14 13  1  0  0  0  0
 14 30  1  0  0  0  0
 14 31  1  0  0  0  0
 15 14  1  0  0  0  0
 15 32  1  0  0  0  0
 15 33  1  0  0  0  0
 15 34  1  0  0  0  0
M  END
>  <DRUGBANK_ID>
DB07603

>  <COMMON_NAME>
N-hexanoyl-L-homocysteine

$$$$
