
 OpenBabel10282417233D

 41 43  0  0  0  0  0  0  0  0999 V2000
    0.9371   -0.0620    0.0791 C   0  0  0  0  0  0  0  0  0  0  0  0
    0.5285   -0.5469   -1.3076 C   0  0  0  0  0  0  0  0  0  0  0  0
    0.9980   -1.8813   -1.6073 O   0  0  0  0  0  0  0  0  0  0  0  0
    2.3578   -2.0459   -1.6704 C   0  0  0  0  0  0  0  0  0  0  0  0
    3.1612   -1.1339   -1.5103 O   0  0  0  0  0  0  0  0  0  0  0  0
    2.7878   -3.4376   -1.8639 C   0  0  0  0  0  0  0  0  0  0  0  0
    2.3573   -4.3321   -2.8359 C   0  0  0  0  0  0  0  0  0  0  0  0
    1.3751   -4.1657   -3.9430 C   0  0  0  0  0  0  0  0  0  0  0  0
    3.0864   -5.4982   -2.6884 N   0  0  0  0  0  0  0  0  0  0  0  0
    4.0025   -5.3802   -1.6646 C   0  0  0  0  0  0  0  0  0  0  0  0
    4.8982   -6.4521   -1.3399 C   0  0  0  0  0  0  0  0  0  0  0  0
    5.8498   -6.9242   -2.1696 C   0  0  0  0  0  0  0  0  0  0  0  0
    6.0671   -6.4252   -3.5792 C   0  0  0  0  0  0  0  0  0  0  0  0
    5.4116   -5.6301   -4.2292 O   0  0  0  0  0  0  0  0  0  0  0  0
    7.1713   -7.1015   -4.0451 N   0  0  0  0  0  0  0  0  0  0  0  0
    7.6701   -7.9853   -3.1023 C   0  0  0  0  0  0  0  0  0  0  0  0
    6.9065   -7.9448   -1.9255 C   0  0  0  0  0  0  0  0  0  0  0  0
    7.2539   -8.7966   -0.8859 C   0  0  0  0  0  0  0  0  0  0  0  0
    8.3581   -9.6611   -1.0578 C   0  0  0  0  0  0  0  0  0  0  0  0
    9.1107   -9.6621   -2.2464 C   0  0  0  0  0  0  0  0  0  0  0  0
    8.7628   -8.8131   -3.2913 C   0  0  0  0  0  0  0  0  0  0  0  0
    3.8297   -4.1136   -1.1259 C   0  0  0  0  0  0  0  0  0  0  0  0
    4.5994   -3.5275    0.0019 C   0  0  0  0  0  0  0  0  0  0  0  0
    0.5832   -0.7527    0.8500 H   0  0  0  0  0  0  0  0  0  0  0  0
    0.5332    0.9351    0.2817 H   0  0  0  0  0  0  0  0  0  0  0  0
    2.0224    0.0026    0.1874 H   0  0  0  0  0  0  0  0  0  0  0  0
   -0.5679   -0.5757   -1.3485 H   0  0  0  0  0  0  0  0  0  0  0  0
    0.8548    0.1505   -2.0879 H   0  0  0  0  0  0  0  0  0  0  0  0
    0.3825   -3.9411   -3.5415 H   0  0  0  0  0  0  0  0  0  0  0  0
    1.6705   -3.3444   -4.6059 H   0  0  0  0  0  0  0  0  0  0  0  0
    1.2935   -5.0709   -4.5545 H   0  0  0  0  0  0  0  0  0  0  0  0
    3.0269   -6.2899   -3.3149 H   0  0  0  0  0  0  0  0  0  0  0  0
    4.8625   -6.8080   -0.3126 H   0  0  0  0  0  0  0  0  0  0  0  0
    7.5256   -6.9620   -4.9770 H   0  0  0  0  0  0  0  0  0  0  0  0
    6.7007   -8.8237    0.0469 H   0  0  0  0  0  0  0  0  0  0  0  0
    8.6424  -10.3508   -0.2631 H   0  0  0  0  0  0  0  0  0  0  0  0
    9.9645  -10.3295   -2.3552 H   0  0  0  0  0  0  0  0  0  0  0  0
    9.3258   -8.8070   -4.2182 H   0  0  0  0  0  0  0  0  0  0  0  0
    5.1307   -2.6262   -0.3177 H   0  0  0  0  0  0  0  0  0  0  0  0
    3.9175   -3.2705    0.8176 H   0  0  0  0  0  0  0  0  0  0  0  0
    5.3397   -4.2338    0.3883 H   0  0  0  0  0  0  0  0  0  0  0  0
  1  2  1  0  0  0  0
  1 24  1  0  0  0  0
  1 25  1  0  0  0  0
  1 26  1  0  0  0  0
  2  3  1  0  0  0  0
  2 27  1  0  0  0  0
  2 28  1  0  0  0  0
  3  4  1  0  0  0  0
  4  5  2  0  0  0  0
  4  6  1  0  0  0  0
  6  7  2  0  0  0  0
  6 22  1  0  0  0  0
  7  8  1  0  0  0  0
  7  9  1  0  0  0  0
  8 29  1  0  0  0  0
  8 30  1  0  0  0  0
  8 31  1  0  0  0  0
  9 10  1  0  0  0  0
  9 32  1  0  0  0  0
 10 11  1  0  0  0  0
 10 22  2  0  0  0  0
 11 12  2  0  0  0  0
 11 33  1  0  0  0  0
 12 13  1  0  0  0  0
 12 17  1  0  0  0  0
 13 14  2  0  0  0  0
 13 15  1  0  0  0  0
 15 16  1  0  0  0  0
 15 34  1  0  0  0  0
 16 17  2  0  0  0  0
 16 21  1  0  0  0  0
 17 18  1  0  0  0  0
 18 19  2  0  0  0  0
 18 35  1  0  0  0  0
 19 20  1  0  0  0  0
 19 36  1  0  0  0  0
 20 21  2  0  0  0  0
 20 37  1  0  0  0  0
 21 38  1  0  0  0  0
 22 23  1  0  0  0  0
 23 39  1  0  0  0  0
 23 40  1  0  0  0  0
 23 41  1  0  0  0  0
M  END
>  <DRUGBANK_ID>
DB17061

>  <COMMON_NAME>
VEGFR 2 Kinase inhibitor I

>  <CAS_NUMBER>
15966-93-5

>  <UNII>
U07H877HUF

>  <SYNONYMS>
3-(2,4-dimethyl-3-ethoxycarbonylpyrrol-5-methylidenyl)-2-indolinone; Ethyl 2,4-dimethyl-5-(((3z)-2-oxo-2,3-dihydro-1h-indol-3-ylidene)methyl)-1h-pyrrole-3-carboxylate; Vegf receptor 2 kinase inhibitor i; Vegfr-2 inhi

$$$$
