I5S
 OpenBabel10282417173D

 50 52  0  0  0  0  0  0  0  0999 V2000
   -2.1405   -0.0134    0.0139 Cl  0  0  0  0  0  0  0  0  0  0  0  0
   -0.4234   -0.0377   -0.0296 C   0  0  0  0  0  0  0  0  0  0  0  0
    0.2818    1.1577   -0.0678 C   0  0  0  0  0  0  0  0  0  0  0  0
    1.6746    1.1249   -0.1461 C   0  0  0  0  0  0  0  0  0  0  0  0
    2.3724   -0.0987   -0.1349 C   0  0  0  0  0  0  0  0  0  0  0  0
    3.8732   -0.2351   -0.0788 C   0  0  0  0  0  0  0  0  0  0  0  0
    4.3537   -0.6700    1.1989 O   0  0  0  0  0  0  0  0  0  0  0  0
    3.8284    0.0019    2.3563 C   0  0  0  0  0  0  0  0  0  0  0  0
    4.3331    1.4351    2.4927 C   0  0  0  0  0  0  0  0  0  0  0  0
    3.8803    2.3255    1.4250 N   0  0  0  0  0  0  0  0  0  0  0  0
    4.4915    3.6327    1.4290 C   0  0  0  0  0  0  0  0  0  0  0  0
    6.0207    3.4929    1.4990 C   0  0  0  0  0  0  0  0  0  0  0  0
    6.5572    2.8364    0.2632 N   0  0  0  0  0  0  0  0  0  0  0  0
    8.2421    2.8633    0.0951 S   0  0  0  0  0  0  0  0  0  0  0  0
    8.7458    2.3218    1.3506 O   0  0  0  0  0  0  0  0  0  0  0  0
    8.5495    2.2379   -1.1602 O   0  0  0  0  0  0  0  0  0  0  0  0
    8.7486    4.5766   -0.0192 C   0  0  0  0  0  0  0  0  0  0  0  0
   10.1292    4.7945    0.1143 C   0  0  0  0  0  0  0  0  0  0  0  0
   10.6248    6.0945    0.1568 C   0  0  0  0  0  0  0  0  0  0  0  0
    9.7461    7.1777    0.1325 C   0  0  0  0  0  0  0  0  0  0  0  0
    8.3606    6.9810    0.0177 C   0  0  0  0  0  0  0  0  0  0  0  0
    7.4527    8.0522    0.0422 C   0  0  0  0  0  0  0  0  0  0  0  0
    6.1053    7.9354    0.0123 N   0  0  0  0  0  0  0  0  0  0  0  0
    5.6369    6.7072   -0.2075 C   0  0  0  0  0  0  0  0  0  0  0  0
    6.4653    5.6204   -0.4117 C   0  0  0  0  0  0  0  0  0  0  0  0
    7.8478    5.6814   -0.1412 C   0  0  0  0  0  0  0  0  0  0  0  0
    1.6407   -1.2845   -0.0665 C   0  0  0  0  0  0  0  0  0  0  0  0
    0.2511   -1.2565   -0.0349 C   0  0  0  0  0  0  0  0  0  0  0  0
   -0.2354    2.1141   -0.0361 H   0  0  0  0  0  0  0  0  0  0  0  0
    2.1776    2.0868   -0.1739 H   0  0  0  0  0  0  0  0  0  0  0  0
    4.1944   -0.9750   -0.8193 H   0  0  0  0  0  0  0  0  0  0  0  0
    4.4233    0.6362   -0.4297 H   0  0  0  0  0  0  0  0  0  0  0  0
    2.7387   -0.0545    2.4091 H   0  0  0  0  0  0  0  0  0  0  0  0
    4.2053   -0.5492    3.2277 H   0  0  0  0  0  0  0  0  0  0  0  0
    4.0176    1.8654    3.4460 H   0  0  0  0  0  0  0  0  0  0  0  0
    5.4181    1.3250    2.4909 H   0  0  0  0  0  0  0  0  0  0  0  0
    4.1899    1.9568    0.5413 H   0  0  0  0  0  0  0  0  0  0  0  0
    4.1687    4.1091    0.4884 H   0  0  0  0  0  0  0  0  0  0  0  0
    4.0780    4.2384    2.2360 H   0  0  0  0  0  0  0  0  0  0  0  0
    6.4194    4.4873    1.6533 H   0  0  0  0  0  0  0  0  0  0  0  0
    6.3551    2.9420    2.3725 H   0  0  0  0  0  0  0  0  0  0  0  0
    6.2444    1.8801    0.0755 H   0  0  0  0  0  0  0  0  0  0  0  0
   10.8225    3.9547    0.1689 H   0  0  0  0  0  0  0  0  0  0  0  0
   11.6964    6.2688    0.2214 H   0  0  0  0  0  0  0  0  0  0  0  0
   10.1494    8.1868    0.1935 H   0  0  0  0  0  0  0  0  0  0  0  0
    7.7949    9.0815    0.0930 H   0  0  0  0  0  0  0  0  0  0  0  0
    4.5574    6.5812   -0.2064 H   0  0  0  0  0  0  0  0  0  0  0  0
    5.9859    4.7037   -0.7157 H   0  0  0  0  0  0  0  0  0  0  0  0
    2.1739   -2.2316   -0.0145 H   0  0  0  0  0  0  0  0  0  0  0  0
   -0.2920   -2.1937   -0.0064 H   0  0  0  0  0  0  0  0  0  0  0  0
  1  2  1  0  0  0  0
  2  3  2  0  0  0  0
  2 28  1  0  0  0  0
  3  4  1  0  0  0  0
  3 29  1  0  0  0  0
  4  5  2  0  0  0  0
  4 30  1  0  0  0  0
  5  6  1  0  0  0  0
  5 27  1  0  0  0  0
  6  7  1  0  0  0  0
  6 31  1  0  0  0  0
  6 32  1  0  0  0  0
  7  8  1  0  0  0  0
  8  9  1  0  0  0  0
  8 33  1  0  0  0  0
  8 34  1  0  0  0  0
  9 10  1  0  0  0  0
  9 35  1  0  0  0  0
  9 36  1  0  0  0  0
 10 11  1  0  0  0  0
 10 37  1  0  0  0  0
 11 12  1  0  0  0  0
 11 38  1  0  0  0  0
 11 39  1  0  0  0  0
 12 13  1  0  0  0  0
 12 40  1  0  0  0  0
 12 41  1  0  0  0  0
 13 14  1  0  0  0  0
 13 42  1  0  0  0  0
 14 15  2  0  0  0  0
 14 16  2  0  0  0  0
 14 17  1  0  0  0  0
 17 18  2  0  0  0  0
 17 26  1  0  0  0  0
 18 19  1  0  0  0  0
 18 43  1  0  0  0  0
 19 20  2  0  0  0  0
 19 44  1  0  0  0  0
 20 21  1  0  0  0  0
 20 45  1  0  0  0  0
 21 22  2  0  0  0  0
 21 26  1  0  0  0  0
 22 23  1  0  0  0  0
 22 46  1  0  0  0  0
 23 24  2  0  0  0  0
 24 25  1  0  0  0  0
 24 47  1  0  0  0  0
 25 26  2  0  0  0  0
 25 48  1  0  0  0  0
 27 28  2  0  0  0  0
 27 49  1  0  0  0  0
 28 50  1  0  0  0  0
M  END
>  <DRUGBANK_ID>
DB07947

>  <COMMON_NAME>
ISOQUINOLINE-5-SULFONIC ACID (2-(2-(4-CHLOROBENZYLOXY)ETHYLAMINO)ETHYL)AMIDE

$$$$
