
 OpenBabel10282417133D

 50 52  0  0  0  0  0  0  0  0999 V2000
    0.5218    0.2652   -1.0419 C   0  0  2  0  0  0  0  0  0  0  0  0
    2.2969   -0.2721    2.3725 C   0  0  0  0  0  0  0  0  0  0  0  0
    1.4806    0.9656   -3.4037 N   0  0  0  0  0  0  0  0  0  0  0  0
    1.6748    0.1457   -0.0121 C   0  0  0  0  0  0  0  0  0  0  0  0
    1.0510    0.6238   -2.3898 C   0  0  0  0  0  0  0  0  0  0  0  0
   -3.1889   -0.2752   -0.6080 C   0  0  0  0  0  0  0  0  0  0  0  0
    1.3938   -0.1158    1.3305 C   0  0  0  0  0  0  0  0  0  0  0  0
    1.8918   -0.4531    3.6682 O   0  0  0  0  0  0  0  0  0  0  0  0
    3.6404   -0.2057    2.0399 C   0  0  0  0  0  0  0  0  0  0  0  0
   -2.0672   -0.2659    0.3766 C   0  0  1  0  0  0  0  0  0  0  0  0
   -0.4808    1.4166   -0.7010 C   0  0  0  0  0  0  0  0  0  0  0  0
   -0.2259   -1.1039   -1.1406 C   0  0  0  0  0  0  0  0  0  0  0  0
   -3.1072    0.0204   -1.7856 O   0  0  0  0  0  0  0  0  0  0  0  0
    3.0249    0.2609   -0.3064 C   0  0  0  0  0  0  0  0  0  0  0  0
    3.9870    0.1310    0.7144 C   0  0  0  0  0  0  0  0  0  0  0  0
   -1.1139   -1.4203    0.0609 C   0  0  0  0  0  0  0  0  0  0  0  0
   -1.4359    1.1209    0.4320 C   0  0  0  0  0  0  0  0  0  0  0  0
   -4.3464   -0.6763   -0.0577 O   0  0  0  0  0  0  0  0  0  0  0  0
    0.5263   -0.4672    4.0881 C   0  0  0  0  0  0  0  0  0  0  0  0
    4.6967   -0.4569    2.8775 O   0  0  0  0  0  0  0  0  0  0  0  0
    4.3700   -0.9741    4.1681 C   0  0  0  0  0  0  0  0  0  0  0  0
   -0.2466   -1.6841    3.5878 C   0  0  0  0  0  0  0  0  0  0  0  0
   -0.2822    0.7757    3.7337 C   0  0  0  0  0  0  0  0  0  0  0  0
   -1.7271    0.2882    3.6875 C   0  0  0  0  0  0  0  0  0  0  0  0
   -1.7017   -1.2484    3.5508 C   0  0  0  0  0  0  0  0  0  0  0  0
    0.3727   -0.2166    1.5995 H   0  0  0  0  0  0  0  0  0  0  0  0
   -2.5568   -0.4289    1.3286 H   0  0  0  0  0  0  0  0  0  0  0  0
    0.0674    2.3399   -0.4641 H   0  0  0  0  0  0  0  0  0  0  0  0
   -1.1055    1.6536   -1.5704 H   0  0  0  0  0  0  0  0  0  0  0  0
   -0.8705   -1.1262   -2.0248 H   0  0  0  0  0  0  0  0  0  0  0  0
    0.4962   -1.9206   -1.2677 H   0  0  0  0  0  0  0  0  0  0  0  0
    3.3668    0.4392   -1.3233 H   0  0  0  0  0  0  0  0  0  0  0  0
    5.0280    0.3056    0.4556 H   0  0  0  0  0  0  0  0  0  0  0  0
   -0.4578   -1.6606    0.8825 H   0  0  0  0  0  0  0  0  0  0  0  0
   -1.6475   -2.3714   -0.0416 H   0  0  0  0  0  0  0  0  0  0  0  0
   -0.8467    1.2358    1.3170 H   0  0  0  0  0  0  0  0  0  0  0  0
   -2.1898    1.9052    0.5654 H   0  0  0  0  0  0  0  0  0  0  0  0
   -4.9832   -0.6443   -0.7993 H   0  0  0  0  0  0  0  0  0  0  0  0
    0.5299   -0.5245    5.1819 H   0  0  0  0  0  0  0  0  0  0  0  0
    3.8787   -0.2032    4.7717 H   0  0  0  0  0  0  0  0  0  0  0  0
    3.7658   -1.8905    4.1084 H   0  0  0  0  0  0  0  0  0  0  0  0
    5.2946   -1.2348    4.6855 H   0  0  0  0  0  0  0  0  0  0  0  0
    0.1174   -2.0307    2.6226 H   0  0  0  0  0  0  0  0  0  0  0  0
   -0.1092   -2.5679    4.2144 H   0  0  0  0  0  0  0  0  0  0  0  0
   -0.1428    1.6232    4.4078 H   0  0  0  0  0  0  0  0  0  0  0  0
    0.0747    1.2292    2.8197 H   0  0  0  0  0  0  0  0  0  0  0  0
   -2.3194    0.8018    2.9235 H   0  0  0  0  0  0  0  0  0  0  0  0
   -2.2180    0.5499    4.6268 H   0  0  0  0  0  0  0  0  0  0  0  0
   -2.1846   -1.6617    2.6617 H   0  0  0  0  0  0  0  0  0  0  0  0
   -2.2665   -1.6923    4.3729 H   0  0  0  0  0  0  0  0  0  0  0  0
  1  5  1  6  0  0  0
  1  4  1  0  0  0  0
  2  7  1  0  0  0  0
  3  5  3  0  0  0  0
  7  4  2  0  0  0  0
  7 26  1  0  0  0  0
  8  2  1  0  0  0  0
  9 15  1  0  0  0  0
  9  2  2  0  0  0  0
 10 17  1  0  0  0  0
 10 27  1  1  0  0  0
 10  6  1  0  0  0  0
 11  1  1  0  0  0  0
 11 28  1  0  0  0  0
 11 29  1  0  0  0  0
 12  1  1  0  0  0  0
 12 30  1  0  0  0  0
 12 31  1  0  0  0  0
 13  6  2  0  0  0  0
 14  4  1  0  0  0  0
 14 32  1  0  0  0  0
 15 14  2  0  0  0  0
 15 33  1  0  0  0  0
 16 12  1  0  0  0  0
 16 10  1  0  0  0  0
 16 34  1  0  0  0  0
 16 35  1  0  0  0  0
 17 11  1  0  0  0  0
 17 36  1  0  0  0  0
 17 37  1  0  0  0  0
 18  6  1  0  0  0  0
 18 38  1  0  0  0  0
 19  8  1  0  0  0  0
 19 39  1  0  0  0  0
 20  9  1  0  0  0  0
 21 20  1  0  0  0  0
 21 40  1  0  0  0  0
 21 41  1  0  0  0  0
 21 42  1  0  0  0  0
 22 19  1  0  0  0  0
 22 43  1  0  0  0  0
 22 44  1  0  0  0  0
 23 19  1  0  0  0  0
 23 45  1  0  0  0  0
 23 46  1  0  0  0  0
 24 23  1  0  0  0  0
 24 25  1  0  0  0  0
 24 47  1  0  0  0  0
 24 48  1  0  0  0  0
 25 22  1  0  0  0  0
 25 49  1  0  0  0  0
 25 50  1  0  0  0  0
M  END
>  <DRUGBANK_ID>
DB03849

>  <SECONDARY_ACCESSION_NUMBERS>
EXPT00920

>  <COMMON_NAME>
Cilomilast

>  <CAS_NUMBER>
153259-65-5

>  <UNII>
8ATB1C1R6X

>  <SYNONYMS>
Ariflo; Cilomilast; cis-4-cyano-4-(3-(cyclopentyloxy)-4-methoxyphenyl)cyclohexanecarboxylic acid

$$$$
