
 OpenBabel10282417173D

 51 53  0  0  0  0  0  0  0  0999 V2000
    0.9095    0.0468   -0.0379 C   0  0  0  0  0  0  0  0  0  0  0  0
    0.1737   -0.3912    1.2266 C   0  0  0  0  0  0  0  0  0  0  0  0
   -0.6778    0.6744    1.8805 C   0  0  0  0  0  0  0  0  0  0  0  0
    2.1382   -0.0117   -0.0016 O   0  0  0  0  0  0  0  0  0  0  0  0
    0.1900    0.5052   -1.1661 N   0  0  0  0  0  0  0  0  0  0  0  0
    2.6995    0.5973   -3.9848 C   0  0  0  0  0  0  0  0  0  0  0  0
    2.2907    1.7295   -4.6841 C   0  0  0  0  0  0  0  0  0  0  0  0
    1.3032    2.5427   -4.1445 C   0  0  0  0  0  0  0  0  0  0  0  0
    0.6981    2.1963   -2.9311 C   0  0  0  0  0  0  0  0  0  0  0  0
    0.9907    0.9891   -2.2801 C   0  0  0  0  0  0  0  0  0  0  0  0
    2.0466    0.2219   -2.8013 C   0  0  0  0  0  0  0  0  0  0  0  0
   -2.1359   -1.1328   -3.5828 N   0  0  0  0  0  0  0  0  0  0  0  0
   -1.6370   -1.7411   -2.3480 C   0  0  0  0  0  0  0  0  0  0  0  0
   -1.6685    0.2397   -3.7595 C   0  0  0  0  0  0  0  0  0  0  0  0
   -1.9551   -0.9168   -1.1210 C   0  0  0  0  0  0  0  0  0  0  0  0
   -2.0058    1.0703   -2.5400 C   0  0  0  0  0  0  0  0  0  0  0  0
   -1.3324    0.4953   -1.2795 C   0  0  3  0  0  0  0  0  0  0  0  0
   -1.7421   -1.9313   -4.7607 C   0  0  0  0  0  0  0  0  0  0  0  0
   -0.2141   -2.0922   -5.0366 C   0  0  3  0  0  0  0  0  0  0  0  0
    0.4446   -2.8258   -4.0013 O   0  0  0  0  0  0  0  0  0  0  0  0
    0.3461   -2.2613   -7.7614 S   0  0  0  0  0  0  0  0  0  0  0  0
    0.2976   -3.8064   -8.4952 C   0  0  0  0  0  0  0  0  0  0  0  0
   -0.0259   -2.9342   -6.2420 C   0  0  0  0  0  0  0  0  0  0  0  0
   -0.1429   -4.3056   -6.2847 C   0  0  0  0  0  0  0  0  0  0  0  0
    0.0288   -4.8097   -7.5908 C   0  0  0  0  0  0  0  0  0  0  0  0
   -0.3574   -1.3275    1.0727 H   0  0  0  0  0  0  0  0  0  0  0  0
    0.9475   -0.6732    1.9542 H   0  0  0  0  0  0  0  0  0  0  0  0
   -1.5181    1.0057    1.2826 H   0  0  0  0  0  0  0  0  0  0  0  0
   -1.1268    0.2923    2.7994 H   0  0  0  0  0  0  0  0  0  0  0  0
   -0.0753    1.5584    2.1036 H   0  0  0  0  0  0  0  0  0  0  0  0
    3.5216   -0.0043   -4.3657 H   0  0  0  0  0  0  0  0  0  0  0  0
    2.7557    1.9909   -5.6315 H   0  0  0  0  0  0  0  0  0  0  0  0
    0.9977    3.4503   -4.6596 H   0  0  0  0  0  0  0  0  0  0  0  0
   -0.0242    2.8912   -2.5208 H   0  0  0  0  0  0  0  0  0  0  0  0
    2.3586   -0.7024   -2.3201 H   0  0  0  0  0  0  0  0  0  0  0  0
   -0.5557   -1.7991   -2.3198 H   0  0  0  0  0  0  0  0  0  0  0  0
   -2.0142   -2.7640   -2.2372 H   0  0  0  0  0  0  0  0  0  0  0  0
   -2.1016    0.7044   -4.6511 H   0  0  0  0  0  0  0  0  0  0  0  0
   -0.5980    0.2273   -3.9304 H   0  0  0  0  0  0  0  0  0  0  0  0
   -1.5785   -1.4794   -0.2758 H   0  0  0  0  0  0  0  0  0  0  0  0
   -3.0391   -0.8575   -0.9685 H   0  0  0  0  0  0  0  0  0  0  0  0
   -3.0958    1.0613   -2.3997 H   0  0  0  0  0  0  0  0  0  0  0  0
   -1.7851    2.1248   -2.6871 H   0  0  0  0  0  0  0  0  0  0  0  0
   -1.6934    1.1431   -0.4916 H   0  0  0  0  0  0  0  0  0  0  0  0
   -2.2099   -2.9183   -4.6539 H   0  0  0  0  0  0  0  0  0  0  0  0
   -2.2204   -1.4786   -5.6419 H   0  0  0  0  0  0  0  0  0  0  0  0
    0.2917   -1.1289   -5.1575 H   0  0  0  0  0  0  0  0  0  0  0  0
    0.8188   -2.1703   -3.3937 H   0  0  0  0  0  0  0  0  0  0  0  0
    0.4698   -3.9038   -9.5556 H   0  0  0  0  0  0  0  0  0  0  0  0
   -0.3558   -4.8898   -5.3958 H   0  0  0  0  0  0  0  0  0  0  0  0
   -0.0446   -5.8571   -7.8438 H   0  0  0  0  0  0  0  0  0  0  0  0
  1  2  1  0  0  0  0
  1  5  1  0  0  0  0
  1  4  2  0  0  0  0
  2  3  1  0  0  0  0
  2 26  1  0  0  0  0
  2 27  1  0  0  0  0
  3 28  1  0  0  0  0
  3 29  1  0  0  0  0
  3 30  1  0  0  0  0
  5 10  1  0  0  0  0
  5 17  1  0  0  0  0
  6 11  2  0  0  0  0
  6  7  1  0  0  0  0
  6 31  1  0  0  0  0
  7  8  2  0  0  0  0
  7 32  1  0  0  0  0
  8  9  1  0  0  0  0
  8 33  1  0  0  0  0
  9 10  2  0  0  0  0
  9 34  1  0  0  0  0
 10 11  1  0  0  0  0
 11 35  1  0  0  0  0
 12 13  1  0  0  0  0
 12 14  1  0  0  0  0
 12 18  1  0  0  0  0
 13 15  1  0  0  0  0
 13 36  1  0  0  0  0
 13 37  1  0  0  0  0
 14 16  1  0  0  0  0
 14 38  1  0  0  0  0
 14 39  1  0  0  0  0
 15 17  1  0  0  0  0
 15 40  1  0  0  0  0
 15 41  1  0  0  0  0
 16 17  1  0  0  0  0
 16 42  1  0  0  0  0
 16 43  1  0  0  0  0
 17 44  1  0  0  0  0
 18 19  1  0  0  0  0
 18 45  1  0  0  0  0
 18 46  1  0  0  0  0
 19 20  1  0  0  0  0
 19 23  1  0  0  0  0
 19 47  1  0  0  0  0
 20 48  1  0  0  0  0
 21 22  1  0  0  0  0
 21 23  1  0  0  0  0
 22 25  2  0  0  0  0
 22 49  1  0  0  0  0
 23 24  2  0  0  0  0
 24 25  1  0  0  0  0
 24 50  1  0  0  0  0
 25 51  1  0  0  0  0
M  END
>  <DRUGBANK_ID>
DB09170

>  <COMMON_NAME>
Î²-Hydroxythiofentanyl

>  <CAS_NUMBER>
1474-34-6

>  <UNII>
MG6JW60TUG

>  <SYNONYMS>
beta-Hydroxythiofentanyl

$$$$
