
 OpenBabel10282417213D

106109  0  0  0  0  0  0  0  0999 V2000
    1.1117   -0.0587    0.0332 C   0  0  0  0  0  0  0  0  0  0  0  0
   -2.7092   10.2531    2.9319 C   0  0  0  0  0  0  0  0  0  0  0  0
   -1.4661    4.2223    5.8125 C   0  0  0  0  0  0  0  0  0  0  0  0
   -3.8676    3.9430    6.2710 C   0  0  0  0  0  0  0  0  0  0  0  0
    0.6516    0.8685    1.1452 C   0  0  0  0  0  0  0  0  0  0  0  0
    1.1195    2.2988    0.8886 C   0  0  0  0  0  0  0  0  0  0  0  0
    0.5739    2.8494   -0.4398 C   0  0  0  0  0  0  0  0  0  0  0  0
   -0.9729    2.8271   -0.5035 C   0  0  0  0  0  0  0  0  0  0  0  0
   -2.3900    8.4451    4.7069 C   0  0  0  0  0  0  0  0  0  0  0  0
   -3.7176    7.2292    4.7633 C   0  0  0  0  0  0  0  0  0  0  0  0
   -2.5915    7.6564    2.7244 C   0  0  0  0  0  0  0  0  0  0  0  0
   -1.0698    5.0227    0.4653 C   0  0  0  0  0  0  0  0  0  0  0  0
   -2.1601    3.2086    1.7567 C   0  0  0  0  0  0  0  0  0  0  0  0
   -2.3939    8.8765    3.3119 C   0  0  0  0  0  0  0  0  0  0  0  0
   -1.5031    3.7064    0.5856 C   0  0  0  0  0  0  0  0  0  0  0  0
   -2.0399    6.3214    3.6971 C   0  0  2  0  0  0  0  0  0  0  0  0
   -2.8993    6.0107    4.9904 C   0  0  2  0  0  0  0  0  0  0  0  0
   -1.1174    5.7657    1.5786 C   0  0  0  0  0  0  0  0  0  0  0  0
   -2.3692    4.0465    2.8401 C   0  0  0  0  0  0  0  0  0  0  0  0
   -1.8415    5.3033    2.6896 C   0  0  0  0  0  0  0  0  0  0  0  0
   -2.8875    4.4694    5.1869 C   0  0  0  0  0  0  0  0  0  0  0  0
   -0.4360    6.9540    1.6053 O   0  0  0  0  0  0  0  0  0  0  0  0
   -3.0222    3.6492    3.9811 O   0  0  0  0  0  0  0  0  0  0  0  0
    3.9952  -11.6321    2.4913 C   0  0  0  0  0  0  0  0  0  0  0  0
   -5.8373   -5.5549    1.2607 C   0  0  0  0  0  0  0  0  0  0  0  0
   -3.8769   -4.1265    0.9564 C   0  0  0  0  0  0  0  0  0  0  0  0
   -4.7270   -9.8001    4.2616 C   0  0  0  0  0  0  0  0  0  0  0  0
    2.7839  -10.9012    1.9620 C   0  0  0  0  0  0  0  0  0  0  0  0
    1.5280  -11.4838    2.5867 C   0  0  0  0  0  0  0  0  0  0  0  0
    1.4694  -11.2935    4.1283 C   0  0  0  0  0  0  0  0  0  0  0  0
    1.5426   -9.8197    4.5781 C   0  0  0  0  0  0  0  0  0  0  0  0
   -5.0273   -8.8464    1.9284 C   0  0  0  0  0  0  0  0  0  0  0  0
   -4.4414   -7.9958    0.7911 C   0  0  0  0  0  0  0  0  0  0  0  0
   -3.6937   -7.6343    3.6531 C   0  0  0  0  0  0  0  0  0  0  0  0
   -0.6304   -9.6071    3.3383 C   0  0  0  0  0  0  0  0  0  0  0  0
    0.4387   -7.5964    4.1100 C   0  0  0  0  0  0  0  0  0  0  0  0
   -4.4997   -5.4899    1.1323 C   0  0  0  0  0  0  0  0  0  0  0  0
   -4.5009   -8.6531    3.3207 C   0  0  0  0  0  0  0  0  0  0  0  0
    0.4138   -8.9893    4.0282 C   0  0  0  0  0  0  0  0  0  0  0  0
   -3.6049   -6.7549    1.1984 C   0  0  1  0  0  0  0  0  0  0  0  0
   -2.9296   -6.8487    2.5924 C   0  0  2  0  0  0  0  0  0  0  0  0
   -1.4610   -8.8876    2.5211 C   0  0  0  0  0  0  0  0  0  0  0  0
   -0.5705   -6.8678    3.4864 C   0  0  0  0  0  0  0  0  0  0  0  0
   -1.5429   -7.5027    2.6851 C   0  0  0  0  0  0  0  0  0  0  0  0
   -2.2891   -9.5928    1.7018 O   0  0  0  0  0  0  0  0  0  0  0  0
   -0.6960   -5.5265    3.7286 O   0  0  0  0  0  0  0  0  0  0  0  0
   -1.0164    6.4311    4.0796 H   0  0  0  0  0  0  0  0  0  0  0  0
   -2.5931    6.3386    5.9962 H   0  0  0  0  0  0  0  0  0  0  0  0
   -2.8156   -6.6524    0.4347 H   0  0  0  0  0  0  0  0  0  0  0  0
   -2.8203   -5.8191    2.9449 H   0  0  0  0  0  0  0  0  0  0  0  0
    0.7185    0.2451   -0.9422 H   0  0  0  0  0  0  0  0  0  0  0  0
    0.7612   -1.0759    0.2124 H   0  0  0  0  0  0  0  0  0  0  0  0
    2.2038   -0.0576   -0.0277 H   0  0  0  0  0  0  0  0  0  0  0  0
   -2.8254   10.8655    3.8362 H   0  0  0  0  0  0  0  0  0  0  0  0
   -1.8886   10.7011    2.3556 H   0  0  0  0  0  0  0  0  0  0  0  0
   -3.6325   10.3116    2.3550 H   0  0  0  0  0  0  0  0  0  0  0  0
   -1.3320    4.8465    6.7097 H   0  0  0  0  0  0  0  0  0  0  0  0
   -1.2877    3.1838    6.0971 H   0  0  0  0  0  0  0  0  0  0  0  0
   -0.6668    4.4964    5.1189 H   0  0  0  0  0  0  0  0  0  0  0  0
   -4.9104    3.9450    5.9452 H   0  0  0  0  0  0  0  0  0  0  0  0
   -3.6360    2.8996    6.5456 H   0  0  0  0  0  0  0  0  0  0  0  0
   -3.7926    4.5212    7.2019 H   0  0  0  0  0  0  0  0  0  0  0  0
   -0.4392    0.8236    1.2272 H   0  0  0  0  0  0  0  0  0  0  0  0
    1.0366    0.5237    2.1095 H   0  0  0  0  0  0  0  0  0  0  0  0
    0.8161    2.9374    1.7293 H   0  0  0  0  0  0  0  0  0  0  0  0
    2.2151    2.3388    0.8755 H   0  0  0  0  0  0  0  0  0  0  0  0
    0.9773    3.8632   -0.5732 H   0  0  0  0  0  0  0  0  0  0  0  0
    0.9705    2.2916   -1.2907 H   0  0  0  0  0  0  0  0  0  0  0  0
   -1.3127    3.2308   -1.4636 H   0  0  0  0  0  0  0  0  0  0  0  0
   -1.3842    1.8224   -0.4120 H   0  0  0  0  0  0  0  0  0  0  0  0
   -1.3432    8.0491    4.7950 H   0  0  0  0  0  0  0  0  0  0  0  0
   -2.3151    9.1940    5.4869 H   0  0  0  0  0  0  0  0  0  0  0  0
   -4.6454    7.6692    5.1145 H   0  0  0  0  0  0  0  0  0  0  0  0
   -4.1906    6.8637    3.8172 H   0  0  0  0  0  0  0  0  0  0  0  0
   -3.3658    7.5641    1.9692 H   0  0  0  0  0  0  0  0  0  0  0  0
   -0.5445    5.4086   -0.3980 H   0  0  0  0  0  0  0  0  0  0  0  0
   -2.4406    2.1627    1.8269 H   0  0  0  0  0  0  0  0  0  0  0  0
   -0.5520    7.4115    0.7559 H   0  0  0  0  0  0  0  0  0  0  0  0
    4.0881  -11.5182    3.5752 H   0  0  0  0  0  0  0  0  0  0  0  0
    4.9055  -11.2412    2.0393 H   0  0  0  0  0  0  0  0  0  0  0  0
    3.9042  -12.6997    2.2690 H   0  0  0  0  0  0  0  0  0  0  0  0
   -6.4721   -4.6874    1.1495 H   0  0  0  0  0  0  0  0  0  0  0  0
   -6.3491   -6.4795    1.4935 H   0  0  0  0  0  0  0  0  0  0  0  0
   -3.2771   -3.8491    1.8288 H   0  0  0  0  0  0  0  0  0  0  0  0
   -3.2631   -4.0495    0.0552 H   0  0  0  0  0  0  0  0  0  0  0  0
   -4.6622   -3.3631    0.8728 H   0  0  0  0  0  0  0  0  0  0  0  0
   -5.7758   -9.8474    4.5508 H   0  0  0  0  0  0  0  0  0  0  0  0
   -4.4537  -10.7417    3.7653 H   0  0  0  0  0  0  0  0  0  0  0  0
   -4.1004   -9.7401    5.1588 H   0  0  0  0  0  0  0  0  0  0  0  0
    2.8593   -9.8258    2.1607 H   0  0  0  0  0  0  0  0  0  0  0  0
    2.7217  -10.9981    0.8724 H   0  0  0  0  0  0  0  0  0  0  0  0
    0.7015  -11.0179    2.0459 H   0  0  0  0  0  0  0  0  0  0  0  0
    1.4212  -12.5486    2.3544 H   0  0  0  0  0  0  0  0  0  0  0  0
    0.5553  -11.7535    4.5270 H   0  0  0  0  0  0  0  0  0  0  0  0
    2.2792  -11.8522    4.6048 H   0  0  0  0  0  0  0  0  0  0  0  0
    1.5510   -9.7544    5.6709 H   0  0  0  0  0  0  0  0  0  0  0  0
    2.4867   -9.3812    4.2308 H   0  0  0  0  0  0  0  0  0  0  0  0
   -6.1060   -8.6741    1.9941 H   0  0  0  0  0  0  0  0  0  0  0  0
   -4.9058   -9.8950    1.6323 H   0  0  0  0  0  0  0  0  0  0  0  0
   -5.2819   -7.7064    0.1464 H   0  0  0  0  0  0  0  0  0  0  0  0
   -3.8645   -8.6240    0.1008 H   0  0  0  0  0  0  0  0  0  0  0  0
   -3.2468   -7.6079    4.6501 H   0  0  0  0  0  0  0  0  0  0  0  0
   -0.7736  -10.6822    3.3546 H   0  0  0  0  0  0  0  0  0  0  0  0
    1.2031   -7.1022    4.7009 H   0  0  0  0  0  0  0  0  0  0  0  0
   -2.4761  -10.4589    2.1043 H   0  0  0  0  0  0  0  0  0  0  0  0
    0.0113   -5.2272    4.3198 H   0  0  0  0  0  0  0  0  0  0  0  0
  1 51  1  0  0  0  0
  1 52  1  0  0  0  0
  1 53  1  0  0  0  0
  2 54  1  0  0  0  0
  2 55  1  0  0  0  0
  2 56  1  0  0  0  0
  3 57  1  0  0  0  0
  3 58  1  0  0  0  0
  3 59  1  0  0  0  0
  4 60  1  0  0  0  0
  4 61  1  0  0  0  0
  4 62  1  0  0  0  0
  5  1  1  0  0  0  0
  5 63  1  0  0  0  0
  5 64  1  0  0  0  0
  6  5  1  0  0  0  0
  6 65  1  0  0  0  0
  6 66  1  0  0  0  0
  7  6  1  0  0  0  0
  7 67  1  0  0  0  0
  7 68  1  0  0  0  0
  8  7  1  0  0  0  0
  8 69  1  0  0  0  0
  8 70  1  0  0  0  0
  9 71  1  0  0  0  0
  9 72  1  0  0  0  0
 10  9  1  0  0  0  0
 10 73  1  0  0  0  0
 10 74  1  0  0  0  0
 11 75  1  0  0  0  0
 12 76  1  0  0  0  0
 13 77  1  0  0  0  0
 14  2  1  0  0  0  0
 14  9  1  0  0  0  0
 14 11  2  0  0  0  0
 15  8  1  0  0  0  0
 15 12  2  0  0  0  0
 15 13  1  0  0  0  0
 16 11  1  0  0  0  0
 16 17  1  0  0  0  0
 16 20  1  0  0  0  0
 16 47  1  6  0  0  0
 17 10  1  0  0  0  0
 17 21  1  0  0  0  0
 17 48  1  1  0  0  0
 18 12  1  0  0  0  0
 19 13  2  0  0  0  0
 20 18  2  0  0  0  0
 20 19  1  0  0  0  0
 21  3  1  0  0  0  0
 21  4  1  0  0  0  0
 22 18  1  0  0  0  0
 22 78  1  0  0  0  0
 23 19  1  0  0  0  0
 23 21  1  0  0  0  0
 24 79  1  0  0  0  0
 24 80  1  0  0  0  0
 24 81  1  0  0  0  0
 25 82  1  0  0  0  0
 25 83  1  0  0  0  0
 26 84  1  0  0  0  0
 26 85  1  0  0  0  0
 26 86  1  0  0  0  0
 27 87  1  0  0  0  0
 27 88  1  0  0  0  0
 27 89  1  0  0  0  0
 28 24  1  0  0  0  0
 28 90  1  0  0  0  0
 28 91  1  0  0  0  0
 29 28  1  0  0  0  0
 29 92  1  0  0  0  0
 29 93  1  0  0  0  0
 30 29  1  0  0  0  0
 30 94  1  0  0  0  0
 30 95  1  0  0  0  0
 31 30  1  0  0  0  0
 31 96  1  0  0  0  0
 31 97  1  0  0  0  0
 32 98  1  0  0  0  0
 32 99  1  0  0  0  0
 33 32  1  0  0  0  0
 33100  1  0  0  0  0
 33101  1  0  0  0  0
 34102  1  0  0  0  0
 35103  1  0  0  0  0
 36104  1  0  0  0  0
 37 25  2  0  0  0  0
 37 26  1  0  0  0  0
 38 27  1  0  0  0  0
 38 32  1  0  0  0  0
 38 34  2  0  0  0  0
 39 31  1  0  0  0  0
 39 35  2  0  0  0  0
 39 36  1  0  0  0  0
 40 33  1  0  0  0  0
 40 41  1  0  0  0  0
 40 49  1  6  0  0  0
 40 37  1  0  0  0  0
 41 34  1  0  0  0  0
 41 50  1  1  0  0  0
 41 44  1  0  0  0  0
 42 35  1  0  0  0  0
 43 36  2  0  0  0  0
 44 42  2  0  0  0  0
 44 43  1  0  0  0  0
 45 42  1  0  0  0  0
 45105  1  0  0  0  0
 46 43  1  0  0  0  0
 46106  1  0  0  0  0
M  END
>  <DRUGBANK_ID>
DB14011

>  <COMMON_NAME>
Nabiximols

>  <CAS_NUMBER>
56575-23-6

>  <UNII>
K4H93P747O

>  <SYNONYMS>
Nabiximols

$$$$
