
 OpenBabel10282417243D

 25 20  0  0  0  0  0  0  0  0999 V2000
    1.0839    0.0497    0.0222 O   0  6  0  0  0  0  0  0  0  0  0  0
    0.9869    0.0943   -0.0306 O   0  6  0  0  0  0  0  0  0  0  0  0
    0.9438   -0.0468    0.0682 O   0  6  0  0  0  0  0  0  0  0  0  0
    1.0828    0.0026    0.0560 O   0  0  0  0  0  0  0  0  0  0  0  0
    0.3728    1.1625   -0.3525 C   0  0  0  0  0  0  0  0  0  0  0  0
    1.0082    2.2006   -0.7182 O   0  0  0  0  0  0  0  0  0  0  0  0
   -1.1472    1.1625   -0.3525 C   0  0  0  0  0  0  0  0  0  0  0  0
   -1.6539    0.0743   -1.2851 C   0  0  0  0  0  0  0  0  0  0  0  0
   -1.0006   -1.6686   -0.6711 Ge  0  1  0  0  0  0  0  0  0  0  0  0
    0.9744   -0.0599   -0.0759 O   0  0  0  0  0  0  0  0  0  0  0  0
    0.2644   -0.8428    0.8725 C   0  0  0  0  0  0  0  0  0  0  0  0
    0.8998   -1.5436    1.7212 O   0  0  0  0  0  0  0  0  0  0  0  0
   -1.2556   -0.8428    0.8725 C   0  0  0  0  0  0  0  0  0  0  0  0
   -1.7623    0.5704    1.1101 C   0  0  0  0  0  0  0  0  0  0  0  0
   -1.1090    1.7469   -0.3150 Ge  0  1  0  0  0  0  0  0  0  0  0  0
    2.0828    0.0026    0.0560 H   0  0  0  0  0  0  0  0  0  0  0  0
   -1.5039    0.9770    0.6391 H   0  0  0  0  0  0  0  0  0  0  0  0
   -1.5039    2.1140   -0.6877 H   0  0  0  0  0  0  0  0  0  0  0  0
   -2.7239    0.0743   -1.2851 H   0  0  0  0  0  0  0  0  0  0  0  0
   -1.2972    0.2598   -2.2767 H   0  0  0  0  0  0  0  0  0  0  0  0
    1.9744   -0.0599   -0.0759 H   0  0  0  0  0  0  0  0  0  0  0  0
   -1.6123   -1.1954   -0.0727 H   0  0  0  0  0  0  0  0  0  0  0  0
   -1.6123   -1.4851    1.6504 H   0  0  0  0  0  0  0  0  0  0  0  0
   -2.8323    0.5704    1.1101 H   0  0  0  0  0  0  0  0  0  0  0  0
   -1.4056    0.9230    2.0552 H   0  0  0  0  0  0  0  0  0  0  0  0
  4  5  1  0  0  0  0
  4 16  1  0  0  0  0
  5  6  2  0  0  0  0
  5  7  1  0  0  0  0
  7  8  1  0  0  0  0
  7 17  1  0  0  0  0
  7 18  1  0  0  0  0
  8  9  1  0  0  0  0
  8 19  1  0  0  0  0
  8 20  1  0  0  0  0
 10 11  1  0  0  0  0
 10 21  1  0  0  0  0
 11 12  2  0  0  0  0
 11 13  1  0  0  0  0
 13 14  1  0  0  0  0
 13 22  1  0  0  0  0
 13 23  1  0  0  0  0
 14 15  1  0  0  0  0
 14 24  1  0  0  0  0
 14 25  1  0  0  0  0
M  CHG  5   1  -2   2  -2   3  -2   9   3  15   3
M  END
>  <DRUGBANK_ID>
DB17608

>  <COMMON_NAME>
Propagermanium

>  <CAS_NUMBER>
12758-40-6

>  <UNII>
1Q2P9TO9Q7

>  <SYNONYMS>
3-[[2-carboxyethyl(oxo)germyl]oxy-oxogermyl]propanoic acid; Arlamol geo; beta-carboxyethylgermanium sesquioxide; Bis (2-carboxyethylgermanium)sesquioxide; Bis(carboxyethyl)germanium sesquioxide; Carboxyethylgermanium sesquioxide; Organic germanium; Propagermanium; Propanoic acid, 3,3'-(1,3-dioxo-1,3-digermoxanediyl)bis-; Proxigermanium; Rapagermanium; Repagermanium; Serocion; SK 818; SK-818

$$$$
