
 OpenBabel10282417213D

 79 79  0  0  0  0  0  0  0  0999 V2000
    1.7019   -0.3622    0.0618 C   0  0  0  0  0  0  0  0  0  0  0  0
    0.8125   -1.4613    0.1232 C   0  0  0  0  0  0  0  0  0  0  0  0
    1.2532    0.9714    0.0884 C   0  0  0  0  0  0  0  0  0  0  0  0
   -0.5288   -1.2581    0.1415 C   0  0  0  0  0  0  0  0  0  0  0  0
   -0.8962    0.0560    0.0299 C   0  0  0  0  0  0  0  0  0  0  0  0
   -0.0907    1.2300    0.1764 C   0  0  0  0  0  0  0  0  0  0  0  0
    0.3870   -3.7202   -0.0945 O   0  5  0  0  0  0  0  0  0  0  0  0
    1.2555   -2.8358   -0.0186 N   0  3  0  0  0  0  0  0  0  0  0  0
    2.4729   -3.0293   -0.0759 O   0  0  0  0  0  0  0  0  0  0  0  0
   -0.0622    3.1765    1.6365 O   0  0  0  0  0  0  0  0  0  0  0  0
   -0.5342    2.7012    0.3730 C   0  0  1  0  0  0  0  0  0  0  0  0
   -1.3131    3.1114   -2.0354 C   0  0  0  0  0  0  0  0  0  0  0  0
   -0.4967    3.6651   -0.8325 C   0  0  1  0  0  0  0  0  0  0  0  0
   -1.0466    4.9984   -0.4956 N   0  0  0  0  0  0  0  0  0  0  0  0
   -0.8397    7.4114    0.0271 C   0  0  0  0  0  0  0  0  0  0  0  0
   -0.1908    6.0658   -0.2972 C   0  0  0  0  0  0  0  0  0  0  0  0
    1.0252    5.9198   -0.4237 O   0  0  0  0  0  0  0  0  0  0  0  0
   -0.4556    8.5421   -1.2890 Cl  0  0  0  0  0  0  0  0  0  0  0  0
   -0.2048    7.9932    1.5770 Cl  0  0  0  0  0  0  0  0  0  0  0  0
   -3.1747    1.6058   -0.1860 C   0  0  0  0  0  0  0  0  0  0  0  0
   -3.1477    1.8485    1.3391 C   0  0  0  0  0  0  0  0  0  0  0  0
   -4.4885    1.4485    1.8192 C   0  0  0  0  0  0  0  0  0  0  0  0
   -4.9265    2.6098   -1.3315 O   0  0  0  0  0  0  0  0  0  0  0  0
   -3.7341    2.5462   -1.1685 C   0  0  0  0  0  0  0  0  0  0  0  0
   -2.8082    3.2287   -1.9230 O   0  0  0  0  0  0  0  0  0  0  0  0
   -6.8602   -4.3024    6.6020 C   0  0  0  0  0  0  0  0  0  0  0  0
   -6.0143   -5.1674    7.5427 C   0  0  0  0  0  0  0  0  0  0  0  0
   -6.2497   -4.7851    9.0044 C   0  0  0  0  0  0  0  0  0  0  0  0
   -4.6289   -0.0632    1.6335 C   0  0  0  0  0  0  0  0  0  0  0  0
   -3.6309   -0.8222    2.5197 C   0  0  0  0  0  0  0  0  0  0  0  0
   -5.0473   -2.5759    6.4580 C   0  0  0  0  0  0  0  0  0  0  0  0
   -6.5230   -2.8190    6.7871 C   0  0  0  0  0  0  0  0  0  0  0  0
   -3.8685   -0.4134    3.9691 C   0  0  0  0  0  0  0  0  0  0  0  0
   -5.3446   -0.6593    4.2973 C   0  0  0  0  0  0  0  0  0  0  0  0
   -5.6614   -2.1435    4.0801 C   0  0  0  0  0  0  0  0  0  0  0  0
   -4.7749   -2.9784    5.0064 C   0  0  0  0  0  0  0  0  0  0  0  0
   -7.7116   -4.9816    9.3713 C   0  0  0  0  0  0  0  0  0  0  0  0
    2.7671   -0.5270   -0.0169 H   0  0  0  0  0  0  0  0  0  0  0  0
    1.9381    1.8110   -0.0098 H   0  0  0  0  0  0  0  0  0  0  0  0
   -1.2908   -2.0342    0.0311 H   0  0  0  0  0  0  0  0  0  0  0  0
   -1.8141   -0.0148   -0.5301 H   0  0  0  0  0  0  0  0  0  0  0  0
   -0.4795    2.6004    2.3120 H   0  0  0  0  0  0  0  0  0  0  0  0
   -1.5587    2.8620    0.5614 H   0  0  0  0  0  0  0  0  0  0  0  0
   -1.0756    3.7372   -2.9014 H   0  0  0  0  0  0  0  0  0  0  0  0
   -1.0095    2.0914   -2.3090 H   0  0  0  0  0  0  0  0  0  0  0  0
    0.5559    3.7671   -1.1037 H   0  0  0  0  0  0  0  0  0  0  0  0
   -2.0477    5.0935   -0.3423 H   0  0  0  0  0  0  0  0  0  0  0  0
   -1.9281    7.3376    0.1049 H   0  0  0  0  0  0  0  0  0  0  0  0
   -3.5240    0.6123   -0.4528 H   0  0  0  0  0  0  0  0  0  0  0  0
   -2.2052    1.6119   -0.5994 H   0  0  0  0  0  0  0  0  0  0  0  0
   -2.3557    1.2726    1.8598 H   0  0  0  0  0  0  0  0  0  0  0  0
   -2.9717    2.8765    1.6780 H   0  0  0  0  0  0  0  0  0  0  0  0
   -4.6056    1.7887    2.8516 H   0  0  0  0  0  0  0  0  0  0  0  0
   -5.2099    2.0145    1.2337 H   0  0  0  0  0  0  0  0  0  0  0  0
   -7.9295   -4.4601    6.7593 H   0  0  0  0  0  0  0  0  0  0  0  0
   -6.7065   -4.6278    5.5677 H   0  0  0  0  0  0  0  0  0  0  0  0
   -6.2480   -6.2235    7.3801 H   0  0  0  0  0  0  0  0  0  0  0  0
   -4.9465   -5.0731    7.3089 H   0  0  0  0  0  0  0  0  0  0  0  0
   -5.6088   -5.3900    9.6510 H   0  0  0  0  0  0  0  0  0  0  0  0
   -5.9581   -3.7454    9.1957 H   0  0  0  0  0  0  0  0  0  0  0  0
   -5.6719   -0.3113    1.8204 H   0  0  0  0  0  0  0  0  0  0  0  0
   -4.5050   -0.4286    0.6160 H   0  0  0  0  0  0  0  0  0  0  0  0
   -3.7502   -1.8978    2.3532 H   0  0  0  0  0  0  0  0  0  0  0  0
   -2.5817   -0.6587    2.2626 H   0  0  0  0  0  0  0  0  0  0  0  0
   -4.3758   -3.1203    7.1255 H   0  0  0  0  0  0  0  0  0  0  0  0
   -4.7938   -1.5291    6.6526 H   0  0  0  0  0  0  0  0  0  0  0  0
   -6.7382   -2.4669    7.7987 H   0  0  0  0  0  0  0  0  0  0  0  0
   -7.1892   -2.2110    6.1663 H   0  0  0  0  0  0  0  0  0  0  0  0
   -3.1866   -0.9551    4.6293 H   0  0  0  0  0  0  0  0  0  0  0  0
   -3.6074    0.6328    4.1490 H   0  0  0  0  0  0  0  0  0  0  0  0
   -5.5642   -0.3132    5.3079 H   0  0  0  0  0  0  0  0  0  0  0  0
   -6.0226   -0.0481    3.6957 H   0  0  0  0  0  0  0  0  0  0  0  0
   -6.7279   -2.3208    4.2371 H   0  0  0  0  0  0  0  0  0  0  0  0
   -5.5172   -2.4660    3.0443 H   0  0  0  0  0  0  0  0  0  0  0  0
   -4.9469   -4.0418    4.8255 H   0  0  0  0  0  0  0  0  0  0  0  0
   -3.7104   -2.8617    4.7828 H   0  0  0  0  0  0  0  0  0  0  0  0
   -7.9942   -6.0266    9.2144 H   0  0  0  0  0  0  0  0  0  0  0  0
   -7.8902   -4.7085   10.4113 H   0  0  0  0  0  0  0  0  0  0  0  0
   -8.3769   -4.3591    8.7640 H   0  0  0  0  0  0  0  0  0  0  0  0
  1  2  1  0  0  0  0
  1 38  1  0  0  0  0
  2  8  1  0  0  0  0
  2  4  2  0  0  0  0
  3  1  2  0  0  0  0
  3 39  1  0  0  0  0
  4  5  1  0  0  0  0
  4 40  1  0  0  0  0
  5 41  1  0  0  0  0
  6  3  1  0  0  0  0
  6  5  2  0  0  0  0
  6 11  1  0  0  0  0
  8  7  1  0  0  0  0
  8  9  2  0  0  0  0
 10 42  1  0  0  0  0
 11 10  1  0  0  0  0
 11 13  1  0  0  0  0
 11 43  1  1  0  0  0
 12 25  1  0  0  0  0
 12 44  1  0  0  0  0
 12 45  1  0  0  0  0
 13 12  1  0  0  0  0
 13 14  1  0  0  0  0
 13 46  1  6  0  0  0
 14 16  1  0  0  0  0
 14 47  1  0  0  0  0
 15 19  1  0  0  0  0
 15 18  1  0  0  0  0
 15 48  1  0  0  0  0
 16 15  1  0  0  0  0
 16 17  2  0  0  0  0
 20 49  1  0  0  0  0
 20 50  1  0  0  0  0
 21 20  1  0  0  0  0
 21 22  1  0  0  0  0
 21 51  1  0  0  0  0
 21 52  1  0  0  0  0
 22 53  1  0  0  0  0
 22 54  1  0  0  0  0
 23 24  2  0  0  0  0
 24 20  1  0  0  0  0
 24 25  1  0  0  0  0
 26 27  1  0  0  0  0
 26 55  1  0  0  0  0
 26 56  1  0  0  0  0
 27 28  1  0  0  0  0
 27 57  1  0  0  0  0
 27 58  1  0  0  0  0
 28 37  1  0  0  0  0
 28 59  1  0  0  0  0
 28 60  1  0  0  0  0
 29 22  1  0  0  0  0
 29 30  1  0  0  0  0
 29 61  1  0  0  0  0
 29 62  1  0  0  0  0
 30 63  1  0  0  0  0
 30 64  1  0  0  0  0
 31 32  1  0  0  0  0
 31 65  1  0  0  0  0
 31 66  1  0  0  0  0
 32 26  1  0  0  0  0
 32 67  1  0  0  0  0
 32 68  1  0  0  0  0
 33 30  1  0  0  0  0
 33 34  1  0  0  0  0
 33 69  1  0  0  0  0
 33 70  1  0  0  0  0
 34 35  1  0  0  0  0
 34 71  1  0  0  0  0
 34 72  1  0  0  0  0
 35 36  1  0  0  0  0
 35 73  1  0  0  0  0
 35 74  1  0  0  0  0
 36 31  1  0  0  0  0
 36 75  1  0  0  0  0
 36 76  1  0  0  0  0
 37 77  1  0  0  0  0
 37 78  1  0  0  0  0
 37 79  1  0  0  0  0
M  CHG  2   7  -1   8   1
M  END
>  <DRUGBANK_ID>
DB14658

>  <SECONDARY_ACCESSION_NUMBERS>
DBSALT001468

>  <COMMON_NAME>
Chloramphenicol palmitate

>  <CAS_NUMBER>
530-43-8

>  <UNII>
43VU4207NW

>  <SYNONYMS>
CAP-palmitate; Chloramphenicol monopalmitate; Chloramphenicol palmitate; Detreopal

$$$$
