
 OpenBabel10282417143D

 41 42  0  0  0  0  0  0  0  0999 V2000
   -0.0177    2.3073    1.1371 O   0  0  0  0  0  0  0  0  0  0  0  0
    0.1625   -2.3666    0.8513 O   0  0  0  0  0  0  0  0  0  0  0  0
   -2.6008   -0.9870    0.4451 O   0  0  0  0  0  0  0  0  0  0  0  0
    2.5536   -0.6628   -0.0517 O   0  0  0  0  0  0  0  0  0  0  0  0
   -2.7584    3.7508    0.3379 O   0  0  0  0  0  0  0  0  0  0  0  0
    4.3006    3.5900   -0.2655 O   0  0  0  0  0  0  0  0  0  0  0  0
    2.2796    2.1724   -4.1063 O   0  0  0  0  0  0  0  0  0  0  0  0
    2.5825    2.4087    0.6241 N   0  0  0  0  0  0  0  0  0  0  0  0
    2.9368    2.6679   -1.8595 N   0  0  0  0  0  0  0  0  0  0  0  0
    0.0888   -0.9932    0.4420 C   0  0  1  0  0  0  0  0  0  0  0  0
   -1.4458   -0.2070    0.9254 C   0  0  1  0  0  0  0  0  0  0  0  0
    1.4576   -0.1519    0.7983 C   0  0  2  0  0  0  0  0  0  0  0  0
   -1.5410    1.6369    0.8092 C   0  0  1  0  0  0  0  0  0  0  0  0
    1.4178    1.5103    0.7226 C   0  0  1  0  0  0  0  0  0  0  0  0
   -2.8888    2.4086    0.8856 C   0  0  0  0  0  0  0  0  0  0  0  0
    3.2803    2.8896   -0.4785 C   0  0  0  0  0  0  0  0  0  0  0  0
    2.0760    2.0936   -2.8484 C   0  0  0  0  0  0  0  0  0  0  0  0
    0.8341    1.4757   -2.5885 C   0  0  0  0  0  0  0  0  0  0  0  0
    0.1240    2.1814   -1.7062 C   0  0  0  0  0  0  0  0  0  0  0  0
    0.4271    0.1170   -2.9639 C   0  0  0  0  0  0  0  0  0  0  0  0
   -0.4000    1.1313   -1.1409 C   0  0  0  0  0  0  0  0  0  0  0  0
   -0.8194   -0.3540   -2.5302 C   0  0  0  0  0  0  0  0  0  0  0  0
   -1.4175    0.5226   -1.7492 C   0  0  0  0  0  0  0  0  0  0  0  0
    3.0040    2.6443    1.5131 H   0  0  0  0  0  0  0  0  0  0  0  0
    3.6328    3.1623   -2.4133 H   0  0  0  0  0  0  0  0  0  0  0  0
    0.1022   -2.3831    1.8111 H   0  0  0  0  0  0  0  0  0  0  0  0
   -2.6676   -1.1567   -0.5203 H   0  0  0  0  0  0  0  0  0  0  0  0
    2.3603   -0.5869   -1.0093 H   0  0  0  0  0  0  0  0  0  0  0  0
   -1.8066    3.9751    0.3191 H   0  0  0  0  0  0  0  0  0  0  0  0
    0.1495   -1.2336   -0.6322 H   0  0  0  0  0  0  0  0  0  0  0  0
   -1.4858   -0.3612    1.9973 H   0  0  0  0  0  0  0  0  0  0  0  0
    1.7294   -0.4153    1.8094 H   0  0  0  0  0  0  0  0  0  0  0  0
   -1.7040    2.0523   -0.2276 H   0  0  0  0  0  0  0  0  0  0  0  0
    1.5561    1.4518   -0.3340 H   0  0  0  0  0  0  0  0  0  0  0  0
   -3.6640    1.9216    0.2397 H   0  0  0  0  0  0  0  0  0  0  0  0
   -3.1630    2.4423    1.9168 H   0  0  0  0  0  0  0  0  0  0  0  0
    0.5157    3.0389   -1.1382 H   0  0  0  0  0  0  0  0  0  0  0  0
    1.1689   -0.6054   -3.2344 H   0  0  0  0  0  0  0  0  0  0  0  0
   -0.1733    0.8899   -0.1480 H   0  0  0  0  0  0  0  0  0  0  0  0
   -1.2014   -1.3697   -2.4758 H   0  0  0  0  0  0  0  0  0  0  0  0
   -2.3334    0.3989   -1.2019 H   0  0  0  0  0  0  0  0  0  0  0  0
  1 13  1  0  0  0  0
  1 14  1  0  0  0  0
  2 26  1  0  0  0  0
  3 27  1  0  0  0  0
  4 28  1  0  0  0  0
  5 15  1  0  0  0  0
  5 29  1  0  0  0  0
  6 16  2  0  0  0  0
  7 17  2  0  0  0  0
  8 16  1  0  0  0  0
  8 24  1  0  0  0  0
  9 16  1  0  0  0  0
  9 17  1  0  0  0  0
  9 25  1  0  0  0  0
 10  2  1  0  0  0  0
 10 11  1  0  0  0  0
 10 12  1  0  0  0  0
 10 30  1  6  0  0  0
 11  3  1  0  0  0  0
 11 13  1  0  0  0  0
 11 31  1  1  0  0  0
 12  4  1  0  0  0  0
 12 14  1  0  0  0  0
 12 32  1  1  0  0  0
 13 15  1  0  0  0  0
 13 33  1  6  0  0  0
 14  8  1  0  0  0  0
 14 34  1  6  0  0  0
 15 35  1  0  0  0  0
 15 36  1  0  0  0  0
 17 18  1  0  0  0  0
 18 19  2  0  0  0  0
 18 20  1  0  0  0  0
 19 21  1  0  0  0  0
 19 37  1  0  0  0  0
 20 22  2  0  0  0  0
 20 38  1  0  0  0  0
 21 23  2  0  0  0  0
 21 39  1  0  0  0  0
 22 23  1  0  0  0  0
 22 40  1  0  0  0  0
 23 41  1  0  0  0  0
M  END
>  <DRUGBANK_ID>
DB04295

>  <SECONDARY_ACCESSION_NUMBERS>
EXPT00789

>  <COMMON_NAME>
N-(Benzoylcarbamoyl)-beta-D-glucopyranosylamine

>  <SYNONYMS>
N-benzoyl-N'-beta-D-glucopyranosyl urea

$$$$
