
 OpenBabel10282417233D

 59 63  0  0  1  0  0  0  0  0999 V2000
    0.8086    0.0491    0.0014 C   0  0  0  0  0  0  0  0  0  0  0  0
    0.3534    0.3895   -1.4072 C   0  0  0  0  0  0  0  0  0  0  0  0
   -0.4752   -0.3385   -1.9712 O   0  0  0  0  0  0  0  0  0  0  0  0
    0.7665    1.5823   -1.9668 N   0  0  0  0  0  0  0  0  0  0  0  0
   -0.0571    2.3586   -2.9196 C   0  0  0  0  0  0  0  0  0  0  0  0
    0.8335    3.5055   -3.4691 C   0  0  0  0  0  0  0  0  0  0  0  0
    0.8350    3.4589   -4.8280 F   0  0  0  0  0  0  0  0  0  0  0  0
    0.2835    4.7029   -3.1239 F   0  0  0  0  0  0  0  0  0  0  0  0
    2.1725    3.2445   -2.8190 C   0  0  0  0  0  0  0  0  0  0  0  0
    3.4140    3.9012   -2.9719 C   0  0  0  0  0  0  0  0  0  0  0  0
    3.6687    5.2791   -4.0909 S   0  0  0  0  0  0  0  0  0  0  0  0
    5.3841    5.8461   -3.8630 C   0  0  0  0  0  0  0  0  0  0  0  0
    6.3900    5.0259   -4.2566 N   0  0  0  0  0  0  0  0  0  0  0  0
    7.6472    5.5483   -4.1374 C   0  0  0  0  0  0  0  0  0  0  0  0
    7.9509    6.8274   -3.6525 C   0  0  0  0  0  0  0  0  0  0  0  0
    6.9319    7.6231   -3.2450 N   0  0  0  0  0  0  0  0  0  0  0  0
    5.6562    7.1477   -3.3774 C   0  0  0  0  0  0  0  0  0  0  0  0
    4.6373    7.9854   -2.9483 N   0  0  0  0  0  0  0  0  0  0  0  0
    9.2614    7.2589   -3.5602 N   0  0  0  0  0  0  0  0  0  0  0  0
   10.1388    7.3533   -4.7197 C   0  0  0  0  0  0  0  0  0  0  0  0
   11.4247    6.5675   -4.4410 C   0  0  0  0  0  0  0  0  0  0  0  0
   12.1195    7.0351   -3.1369 C   0  0  0  0  0  0  0  0  0  0  0  0
   12.6937    8.4564   -3.2878 C   0  0  0  0  0  0  0  0  0  0  0  0
   13.9882    8.4487   -2.6795 O   0  0  0  0  0  0  0  0  0  0  0  0
   14.5402    7.1552   -2.9197 C   0  0  0  0  0  0  0  0  0  0  0  0
   13.3724    6.1684   -2.8482 C   0  0  1  0  0  0  0  0  0  0  0  0
   13.3270    5.5050   -1.5366 N   0  0  0  0  0  0  0  0  0  0  0  0
   11.0687    6.9900   -1.9892 C   0  0  0  0  0  0  0  0  0  0  0  0
    9.7851    7.7688   -2.3050 C   0  0  0  0  0  0  0  0  0  0  0  0
    4.4935    3.4104   -2.2170 C   0  0  0  0  0  0  0  0  0  0  0  0
    4.3769    2.2874   -1.4068 C   0  0  0  0  0  0  0  0  0  0  0  0
    3.1694    1.6273   -1.3161 C   0  0  0  0  0  0  0  0  0  0  0  0
    2.0615    2.1294   -1.9672 C   0  0  0  0  0  0  0  0  0  0  0  0
    0.3338   -0.8828    0.3221 H   0  0  0  0  0  0  0  0  0  0  0  0
    0.5070    0.8483    0.6842 H   0  0  0  0  0  0  0  0  0  0  0  0
    1.8672   -0.1473    0.1168 H   0  0  0  0  0  0  0  0  0  0  0  0
   -0.4583    1.7021   -3.7013 H   0  0  0  0  0  0  0  0  0  0  0  0
   -0.9131    2.7586   -2.3571 H   0  0  0  0  0  0  0  0  0  0  0  0
    8.4503    4.8721   -4.4167 H   0  0  0  0  0  0  0  0  0  0  0  0
    4.8877    8.9354   -2.7192 H   0  0  0  0  0  0  0  0  0  0  0  0
    3.6789    7.7337   -3.1505 H   0  0  0  0  0  0  0  0  0  0  0  0
    9.6675    6.9916   -5.6393 H   0  0  0  0  0  0  0  0  0  0  0  0
   10.3940    8.4075   -4.8934 H   0  0  0  0  0  0  0  0  0  0  0  0
   11.1784    5.5006   -4.3545 H   0  0  0  0  0  0  0  0  0  0  0  0
   12.1107    6.6606   -5.2933 H   0  0  0  0  0  0  0  0  0  0  0  0
   12.8196    8.7488   -4.3373 H   0  0  0  0  0  0  0  0  0  0  0  0
   12.1002    9.2338   -2.8009 H   0  0  0  0  0  0  0  0  0  0  0  0
   15.0017    7.1485   -3.9137 H   0  0  0  0  0  0  0  0  0  0  0  0
   15.3227    6.9540   -2.1813 H   0  0  0  0  0  0  0  0  0  0  0  0
   13.5154    5.3835   -3.6002 H   0  0  0  0  0  0  0  0  0  0  0  0
   14.1980    5.0066   -1.3633 H   0  0  0  0  0  0  0  0  0  0  0  0
   13.2848    6.2253   -0.8122 H   0  0  0  0  0  0  0  0  0  0  0  0
   10.7910    5.9411   -1.8094 H   0  0  0  0  0  0  0  0  0  0  0  0
   11.4988    7.3806   -1.0597 H   0  0  0  0  0  0  0  0  0  0  0  0
   10.0049    8.8384   -2.3887 H   0  0  0  0  0  0  0  0  0  0  0  0
    9.0885    7.6456   -1.4686 H   0  0  0  0  0  0  0  0  0  0  0  0
    5.4789    3.8607   -2.2566 H   0  0  0  0  0  0  0  0  0  0  0  0
    5.2342    1.9025   -0.8623 H   0  0  0  0  0  0  0  0  0  0  0  0
    3.1773    0.7169   -0.7500 H   0  0  0  0  0  0  0  0  0  0  0  0
  1  2  1  0  0  0  0
  1 34  1  0  0  0  0
  1 35  1  0  0  0  0
  1 36  1  0  0  0  0
  2  3  2  0  0  0  0
  2  4  1  0  0  0  0
  4  5  1  0  0  0  0
  4 33  1  0  0  0  0
  5  6  1  0  0  0  0
  5 37  1  0  0  0  0
  5 38  1  0  0  0  0
  6  7  1  0  0  0  0
  6  8  1  0  0  0  0
  6  9  1  0  0  0  0
  9 10  2  0  0  0  0
  9 33  1  0  0  0  0
 10 11  1  0  0  0  0
 10 30  1  0  0  0  0
 11 12  1  0  0  0  0
 12 13  2  0  0  0  0
 12 17  1  0  0  0  0
 13 14  1  0  0  0  0
 14 15  2  0  0  0  0
 14 39  1  0  0  0  0
 15 16  1  0  0  0  0
 15 19  1  0  0  0  0
 16 17  2  0  0  0  0
 17 18  1  0  0  0  0
 18 40  1  0  0  0  0
 18 41  1  0  0  0  0
 19 20  1  0  0  0  0
 19 29  1  0  0  0  0
 20 21  1  0  0  0  0
 20 42  1  0  0  0  0
 20 43  1  0  0  0  0
 21 22  1  0  0  0  0
 21 44  1  0  0  0  0
 21 45  1  0  0  0  0
 22 23  1  0  0  0  0
 22 28  1  0  0  0  0
 23 24  1  0  0  0  0
 23 46  1  0  0  0  0
 23 47  1  0  0  0  0
 24 25  1  0  0  0  0
 25 48  1  0  0  0  0
 25 49  1  0  0  0  0
 26 22  1  0  0  0  0
 26 25  1  0  0  0  0
 26 27  1  0  0  0  0
 26 50  1  6  0  0  0
 27 51  1  0  0  0  0
 27 52  1  0  0  0  0
 28 29  1  0  0  0  0
 28 53  1  0  0  0  0
 28 54  1  0  0  0  0
 29 55  1  0  0  0  0
 29 56  1  0  0  0  0
 30 31  2  0  0  0  0
 30 57  1  0  0  0  0
 31 32  1  0  0  0  0
 31 58  1  0  0  0  0
 32 33  2  0  0  0  0
 32 59  1  0  0  0  0
M  END
>  <DRUGBANK_ID>
DB17131

>  <COMMON_NAME>
JAB-3068

>  <UNII>
V6Q7413SA8

>  <SYNONYMS>
JAB3068

$$$$
