
 OpenBabel10282417163D

 55 60  0  0  1  0  0  0  0  0999 V2000
   -1.2093   -0.0984    0.6658 C   0  0  0  0  0  0  0  0  0  0  0  0
   -2.1897   -0.9842    1.1000 O   0  0  0  0  0  0  0  0  0  0  0  0
   -1.6330   -2.3374    1.4594 C   0  0  2  0  0  0  0  0  0  0  0  0
   -0.1863   -2.1196    1.3071 C   0  0  2  0  0  0  0  0  0  0  0  0
    0.0981   -0.6001    1.1624 C   0  0  2  0  0  0  0  0  0  0  0  0
   -0.1810   -3.8692    3.7175 C   0  0  2  0  0  0  0  0  0  0  0  0
    0.3971   -3.0274    2.5429 C   0  0  1  0  0  0  0  0  0  0  0  0
    1.3258   -3.8850    5.0075 C   0  0  2  0  0  0  0  0  0  0  0  0
    1.1202   -2.3882    4.8172 C   0  0  2  0  0  0  0  0  0  0  0  0
    1.1352   -2.1601    3.3994 O   0  0  0  0  0  0  0  0  0  0  0  0
    1.9315   -1.5404    5.6190 O   0  0  0  0  0  0  0  0  0  0  0  0
    2.5671   -2.4117    6.4796 C   0  0  0  0  0  0  0  0  0  0  0  0
    3.0673   -3.4229    5.5284 C   0  0  2  0  0  0  0  0  0  0  0  0
   -1.3547    0.8673   -0.0738 O   0  0  0  0  0  0  0  0  0  0  0  0
   -1.7792   -2.9795    3.0339 C   0  0  1  0  0  0  0  0  0  0  0  0
   -0.1893   -5.5668    3.4228 C   0  0  1  0  0  0  0  0  0  0  0  0
    2.2403   -5.3473    4.4795 C   0  0  1  0  0  0  0  0  0  0  0  0
    0.9806   -6.2265    4.4439 C   0  0  1  0  0  0  0  0  0  0  0  0
    2.4848   -2.4754    7.6485 O   0  0  0  0  0  0  0  0  0  0  0  0
    0.1065   -2.5675   -0.0386 O   0  0  0  0  0  0  0  0  0  0  0  0
   -2.6294   -1.8718    3.4321 O   0  0  0  0  0  0  0  0  0  0  0  0
    0.6137   -0.0345    2.4336 C   0  0  0  0  0  0  0  0  0  0  0  0
    0.4151   -4.3348    1.6437 C   0  0  0  0  0  0  0  0  0  0  0  0
   -0.4536   -5.2867    2.0475 O   0  0  0  0  0  0  0  0  0  0  0  0
    1.1833   -4.5381    0.6959 O   0  0  0  0  0  0  0  0  0  0  0  0
    4.0312   -2.4330    4.9193 O   0  0  0  0  0  0  0  0  0  0  0  0
    3.2519   -5.1751    3.1602 C   0  0  0  0  0  0  0  0  0  0  0  0
    2.8185   -3.8402    2.7852 C   0  0  0  0  0  0  0  0  0  0  0  0
    4.7466   -4.8521    3.1566 C   0  0  0  0  0  0  0  0  0  0  0  0
    2.9845   -6.0882    1.9819 C   0  0  0  0  0  0  0  0  0  0  0  0
    0.3286   -6.1941    5.7285 O   0  0  0  0  0  0  0  0  0  0  0  0
   -2.1358   -2.9747    0.7173 H   0  0  0  0  0  0  0  0  0  0  0  0
    0.8184   -0.2931    0.3847 H   0  0  0  0  0  0  0  0  0  0  0  0
    0.1399   -2.1425    5.2356 H   0  0  0  0  0  0  0  0  0  0  0  0
    3.7113   -4.1741    6.0298 H   0  0  0  0  0  0  0  0  0  0  0  0
   -2.5324   -3.7829    3.0428 H   0  0  0  0  0  0  0  0  0  0  0  0
    0.3522   -6.3665    2.8761 H   0  0  0  0  0  0  0  0  0  0  0  0
    2.9192   -5.8315    5.2309 H   0  0  0  0  0  0  0  0  0  0  0  0
    1.3061   -7.2996    4.4060 H   0  0  0  0  0  0  0  0  0  0  0  0
   -0.6099   -2.3366   -0.6586 H   0  0  0  0  0  0  0  0  0  0  0  0
   -3.2083   -1.6517    2.6163 H   0  0  0  0  0  0  0  0  0  0  0  0
   -0.0303   -0.3930    3.2428 H   0  0  0  0  0  0  0  0  0  0  0  0
    1.6426   -0.4268    2.4492 H   0  0  0  0  0  0  0  0  0  0  0  0
    0.7118    1.0339    2.5583 H   0  0  0  0  0  0  0  0  0  0  0  0
    4.7445   -2.7847    4.3557 H   0  0  0  0  0  0  0  0  0  0  0  0
    2.9802   -3.1345    3.5334 H   0  0  0  0  0  0  0  0  0  0  0  0
    2.9306   -3.2258    1.9121 H   0  0  0  0  0  0  0  0  0  0  0  0
    1.8434   -4.1381    2.9292 H   0  0  0  0  0  0  0  0  0  0  0  0
    5.3599   -5.6854    2.8369 H   0  0  0  0  0  0  0  0  0  0  0  0
    4.9228   -4.0582    2.3941 H   0  0  0  0  0  0  0  0  0  0  0  0
    5.1449   -4.4924    4.0965 H   0  0  0  0  0  0  0  0  0  0  0  0
    3.5705   -6.9981    2.0194 H   0  0  0  0  0  0  0  0  0  0  0  0
    1.9507   -6.3871    1.8838 H   0  0  0  0  0  0  0  0  0  0  0  0
    3.2313   -5.5327    1.0666 H   0  0  0  0  0  0  0  0  0  0  0  0
   -0.3384   -5.4914    5.6764 H   0  0  0  0  0  0  0  0  0  0  0  0
  1  2  1  0  0  0  0
  1 14  2  0  0  0  0
  3  2  1  0  0  0  0
  3  4  1  0  0  0  0
  3 15  1  0  0  0  0
  3 32  1  1  0  0  0
  4  5  1  0  0  0  0
  4 20  1  1  0  0  0
  5  1  1  0  0  0  0
  5 22  1  0  0  0  0
  5 33  1  6  0  0  0
  6  7  1  0  0  0  0
  6  8  1  0  0  0  0
  6 16  1  0  0  0  0
  7  4  1  0  0  0  0
  7 23  1  0  0  0  0
  8  9  1  0  0  0  0
  8 17  1  0  0  0  0
  9 10  1  0  0  0  0
  9 11  1  0  0  0  0
  9 34  1  0  0  0  0
 10  7  1  0  0  0  0
 11 12  1  0  0  0  0
 12 13  1  0  0  0  0
 12 19  2  0  0  0  0
 13  8  1  0  0  0  0
 13 35  1  0  0  0  0
 13 26  1  0  0  0  0
 15  6  1  0  0  0  0
 15 36  1  0  0  0  0
 15 21  1  0  0  0  0
 16 24  1  0  0  0  0
 16 37  1  0  0  0  0
 17 18  1  0  0  0  0
 17 38  1  0  0  0  0
 17 27  1  0  0  0  0
 18 16  1  0  0  0  0
 18 39  1  0  0  0  0
 18 31  1  0  0  0  0
 20 40  1  0  0  0  0
 21 41  1  0  0  0  0
 22 42  1  0  0  0  0
 22 43  1  0  0  0  0
 22 44  1  0  0  0  0
 23 24  1  0  0  0  0
 23 25  2  0  0  0  0
 26 45  1  0  0  0  0
 27 28  1  0  0  0  0
 27 29  1  0  0  0  0
 27 30  1  0  0  0  0
 28 46  1  0  0  0  0
 28 47  1  0  0  0  0
 28 48  1  0  0  0  0
 29 49  1  0  0  0  0
 29 50  1  0  0  0  0
 29 51  1  0  0  0  0
 30 52  1  0  0  0  0
 30 53  1  0  0  0  0
 30 54  1  0  0  0  0
 31 55  1  0  0  0  0
M  END
>  <DRUGBANK_ID>
DB06745

>  <COMMON_NAME>
ginkgolide-C

>  <CAS_NUMBER>
15291-76-6

>  <UNII>
32ZQ957R4A

$$$$
