
 OpenBabel10282417123D

 23 23  0  0  1  0  0  0  0  0999 V2000
    1.4476   -0.2921    0.5276 C   0  0  0  0  0  0  0  0  0  0  0  0
    0.2600   -1.2485    0.2944 C   0  0  2  0  0  0  0  0  0  0  0  0
   -0.8388   -0.9074   -2.4172 C   0  0  2  0  0  0  0  0  0  0  0  0
    0.3642   -2.3861   -0.7569 C   0  0  1  0  0  0  0  0  0  0  0  0
    0.3348   -1.8720   -2.2077 C   0  0  2  0  0  0  0  0  0  0  0  0
   -0.8744    0.1647   -1.3292 C   0  0  2  0  0  0  0  0  0  0  0  0
   -2.0063   -1.6081   -2.3798 F   0  0  0  0  0  0  0  0  0  0  0  0
    1.1346    0.7232    1.5003 O   0  0  0  0  0  0  0  0  0  0  0  0
    1.4490   -3.2767   -0.5012 O   0  0  0  0  0  0  0  0  0  0  0  0
    1.5699   -1.2476   -2.5935 O   0  0  0  0  0  0  0  0  0  0  0  0
    0.1208    1.1620   -1.5517 O   0  0  0  0  0  0  0  0  0  0  0  0
   -0.8734   -0.4243   -0.0159 O   0  0  0  0  0  0  0  0  0  0  0  0
    0.0625   -1.7440    1.2571 H   0  0  0  0  0  0  0  0  0  0  0  0
   -0.7623   -0.4275   -3.3992 H   0  0  0  0  0  0  0  0  0  0  0  0
   -0.5448   -2.9988   -0.6494 H   0  0  0  0  0  0  0  0  0  0  0  0
    0.2053   -2.7249   -2.8863 H   0  0  0  0  0  0  0  0  0  0  0  0
   -1.8181    0.7083   -1.3807 H   0  0  0  0  0  0  0  0  0  0  0  0
    1.6697    0.2561   -0.3725 H   0  0  0  0  0  0  0  0  0  0  0  0
    2.3893   -0.7624    0.8049 H   0  0  0  0  0  0  0  0  0  0  0  0
    0.6890    0.3410    2.2475 H   0  0  0  0  0  0  0  0  0  0  0  0
    2.2532   -2.9893   -0.9634 H   0  0  0  0  0  0  0  0  0  0  0  0
    2.1392   -1.1036   -1.8204 H   0  0  0  0  0  0  0  0  0  0  0  0
    0.8479    0.7848   -2.0815 H   0  0  0  0  0  0  0  0  0  0  0  0
  1 18  1  0  0  0  0
  1 19  1  0  0  0  0
  2  1  1  0  0  0  0
  2 13  1  1  0  0  0
  3 14  1  6  0  0  0
  3  7  1  0  0  0  0
  4  2  1  0  0  0  0
  4  9  1  0  0  0  0
  4 15  1  1  0  0  0
  5  3  1  0  0  0  0
  5  4  1  0  0  0  0
  5 10  1  0  0  0  0
  5 16  1  6  0  0  0
  6  3  1  0  0  0  0
  6 11  1  0  0  0  0
  6 17  1  6  0  0  0
  8  1  1  0  0  0  0
  8 20  1  0  0  0  0
  9 21  1  0  0  0  0
 10 22  1  0  0  0  0
 11 23  1  0  0  0  0
 12  2  1  0  0  0  0
 12  6  1  0  0  0  0
M  END
>  <DRUGBANK_ID>
DB02228

>  <SECONDARY_ACCESSION_NUMBERS>
EXPT00116

>  <COMMON_NAME>
2-deoxy-2-fluoro-Î²-D-galactose

>  <UNII>
HT1OC0UBM2

>  <SYNONYMS>
2-deoxy-2-fluoro-beta-D-galactose; 2-FLUORO-2-DEOXY-BETA-D-GALACTOPYRANOSE

$$$$
