
 OpenBabel10282417203D

 62 65  0  0  1  0  0  0  0  0999 V2000
    0.9877   -2.3605   -1.5053 C   0  0  0  0  0  0  0  0  0  0  0  0
    0.3558   -0.9748   -1.5522 C   0  0  2  0  0  0  0  0  0  0  0  0
    1.0863    0.0464   -0.7024 C   0  0  0  0  0  0  0  0  0  0  0  0
    0.5931    1.8107   -0.7484 C   0  0  0  0  0  0  0  0  0  0  0  0
    0.5828    2.8278    0.7899 C   0  0  0  0  0  0  0  0  0  0  0  0
    1.0996    1.9185    2.2987 C   0  0  0  0  0  0  0  0  0  0  0  0
    1.5360   -0.0299    2.0701 C   0  0  0  0  0  0  0  0  0  0  0  0
    1.6366   -0.8111    0.6774 C   0  0  0  0  0  0  0  0  0  0  0  0
    2.6298   -2.3032    0.8898 Cl  0  0  0  0  0  0  0  0  0  0  0  0
    2.3527   -0.8528    2.8804 F   0  0  0  0  0  0  0  0  0  0  0  0
   -0.6978    2.1611   -1.8924 Cl  0  0  0  0  0  0  0  0  0  0  0  0
   -1.0669   -0.9981   -1.3241 O   0  0  0  0  0  0  0  0  0  0  0  0
   -1.6649   -1.6306   -0.2516 C   0  0  0  0  0  0  0  0  0  0  0  0
   -1.2929   -1.5350    1.0852 C   0  0  0  0  0  0  0  0  0  0  0  0
   -1.9793   -1.9089    2.2223 C   0  0  0  0  0  0  0  0  0  0  0  0
   -3.0522   -2.6559    1.9525 N   0  0  0  0  0  0  0  0  0  0  0  0
   -3.4157   -2.9447    0.5785 N   0  0  0  0  0  0  0  0  0  0  0  0
   -2.7674   -2.4022   -0.4801 C   0  0  0  0  0  0  0  0  0  0  0  0
   -3.0695   -2.7277   -1.7885 N   0  0  0  0  0  0  0  0  0  0  0  0
   -1.5866   -1.5495    3.7231 C   0  0  0  0  0  0  0  0  0  0  0  0
   -2.2540   -2.1083    4.6024 O   0  0  0  0  0  0  0  0  0  0  0  0
   -0.5117   -0.6869    4.2491 N   0  0  0  0  0  0  0  0  0  0  0  0
    0.1605    0.4443    3.7016 C   0  0  0  0  0  0  0  0  0  0  0  0
   -0.6756    0.7010    2.4008 C   0  0  0  0  0  0  0  0  0  0  0  0
    0.1879    0.9049    1.0441 C   0  0  0  0  0  0  0  0  0  0  0  0
    2.1401    1.3366    0.8826 C   0  0  0  0  0  0  0  0  0  0  0  0
    3.0526    1.2405    2.4702 C   0  0  0  0  0  0  0  0  0  0  0  0
    1.9606    0.7962    3.9241 C   0  0  0  0  0  0  0  0  0  0  0  0
    2.9379    2.2052   -0.1616 C   0  0  0  0  0  0  0  0  0  0  0  0
    3.4974    1.6464   -1.0988 O   0  0  0  0  0  0  0  0  0  0  0  0
    2.7337    3.6041   -0.0958 N   0  0  0  0  0  0  0  0  0  0  0  0
    2.8875    4.3186    1.1705 C   0  0  0  0  0  0  0  0  0  0  0  0
    2.4475    5.7849    1.1514 C   0  0  0  0  0  0  0  0  0  0  0  0
    3.0493    6.5298    0.0401 N   0  0  0  0  0  0  0  0  0  0  0  0
    2.7635    5.8358   -1.2377 C   0  0  0  0  0  0  0  0  0  0  0  0
    3.1360    4.3438   -1.2629 C   0  0  0  0  0  0  0  0  0  0  0  0
    4.4964    6.5941    0.2528 C   0  0  0  0  0  0  0  0  0  0  0  0
    2.0016   -2.2274   -1.1800 H   0  0  0  0  0  0  0  0  0  0  0  0
    1.2264   -2.7386   -2.4881 H   0  0  0  0  0  0  0  0  0  0  0  0
    0.5117   -3.1237   -0.8655 H   0  0  0  0  0  0  0  0  0  0  0  0
    0.5781   -0.5597   -2.5293 H   0  0  0  0  0  0  0  0  0  0  0  0
   -0.0129    3.7089    1.0004 H   0  0  0  0  0  0  0  0  0  0  0  0
    1.3966    2.5912    3.1438 H   0  0  0  0  0  0  0  0  0  0  0  0
   -0.3652   -1.1278    1.2795 H   0  0  0  0  0  0  0  0  0  0  0  0
   -3.8545   -3.3289   -1.9595 H   0  0  0  0  0  0  0  0  0  0  0  0
   -2.6308   -2.1817   -2.5218 H   0  0  0  0  0  0  0  0  0  0  0  0
   -0.4192   -0.7018    5.2478 H   0  0  0  0  0  0  0  0  0  0  0  0
   -1.7564    0.6992    2.2335 H   0  0  0  0  0  0  0  0  0  0  0  0
   -0.7426    1.3184    0.4962 H   0  0  0  0  0  0  0  0  0  0  0  0
    3.9583    0.6156    2.2080 H   0  0  0  0  0  0  0  0  0  0  0  0
    2.3978    0.1251    4.6824 H   0  0  0  0  0  0  0  0  0  0  0  0
    2.3674    3.8801    2.0069 H   0  0  0  0  0  0  0  0  0  0  0  0
    3.9387    4.1838    1.4049 H   0  0  0  0  0  0  0  0  0  0  0  0
    1.3512    5.8784    1.1145 H   0  0  0  0  0  0  0  0  0  0  0  0
    2.7416    6.2261    2.1134 H   0  0  0  0  0  0  0  0  0  0  0  0
    1.6999    5.9702   -1.4814 H   0  0  0  0  0  0  0  0  0  0  0  0
    3.3262    6.3201   -2.0430 H   0  0  0  0  0  0  0  0  0  0  0  0
    4.2165    4.2191   -1.2541 H   0  0  0  0  0  0  0  0  0  0  0  0
    2.7347    3.8685   -2.1666 H   0  0  0  0  0  0  0  0  0  0  0  0
    4.9762    5.6099    0.2616 H   0  0  0  0  0  0  0  0  0  0  0  0
    4.9611    7.1816   -0.5386 H   0  0  0  0  0  0  0  0  0  0  0  0
    4.7138    7.0703    1.2131 H   0  0  0  0  0  0  0  0  0  0  0  0
  1 38  1  0  0  0  0
  1 39  1  0  0  0  0
  1 40  1  0  0  0  0
  2 12  1  0  0  0  0
  2 41  1  6  0  0  0
  2  3  1  0  0  0  0
  2  1  1  0  0  0  0
  3  4  2  0  0  0  0
  3  8  1  0  0  0  0
  4  5  1  0  0  0  0
  4 11  1  0  0  0  0
  5  6  2  0  0  0  0
  5 42  1  0  0  0  0
  6  7  1  0  0  0  0
  6 43  1  0  0  0  0
  7  8  2  0  0  0  0
  7 10  1  0  0  0  0
  8  9  1  0  0  0  0
 12 13  1  0  0  0  0
 13 14  2  0  0  0  0
 13 18  1  0  0  0  0
 14 15  1  0  0  0  0
 14 44  1  0  0  0  0
 15 16  2  0  0  0  0
 15 20  1  0  0  0  0
 16 17  1  0  0  0  0
 17 18  2  0  0  0  0
 18 19  1  0  0  0  0
 19 45  1  0  0  0  0
 19 46  1  0  0  0  0
 20 21  2  0  0  0  0
 20 22  1  0  0  0  0
 22 23  1  0  0  0  0
 22 47  1  0  0  0  0
 23 24  2  0  0  0  0
 23 28  1  0  0  0  0
 24 25  1  0  0  0  0
 24 48  1  0  0  0  0
 25 26  2  0  0  0  0
 25 49  1  0  0  0  0
 26 27  1  0  0  0  0
 26 29  1  0  0  0  0
 27 28  2  0  0  0  0
 27 50  1  0  0  0  0
 28 51  1  0  0  0  0
 29 30  2  0  0  0  0
 29 31  1  0  0  0  0
 31 32  1  0  0  0  0
 31 36  1  0  0  0  0
 32 33  1  0  0  0  0
 32 52  1  0  0  0  0
 32 53  1  0  0  0  0
 33 34  1  0  0  0  0
 33 54  1  0  0  0  0
 33 55  1  0  0  0  0
 34 35  1  0  0  0  0
 34 37  1  0  0  0  0
 35 36  1  0  0  0  0
 35 56  1  0  0  0  0
 35 57  1  0  0  0  0
 36 58  1  0  0  0  0
 36 59  1  0  0  0  0
 37 60  1  0  0  0  0
 37 61  1  0  0  0  0
 37 62  1  0  0  0  0
M  END
>  <DRUGBANK_ID>
DB13104

>  <COMMON_NAME>
X-396

>  <CAS_NUMBER>
1365267-27-1

>  <UNII>
7DR7JMB8BH

$$$$
