
 OpenBabel10282417133D

 34 34  0  0  1  0  0  0  0  0999 V2000
    1.8898    1.3582    4.8575 P   0  0  0  0  0  0  0  0  0  0  0  0
    1.6974   -3.8550    1.2230 P   0  0  0  0  0  0  0  0  0  0  0  0
    1.8004    1.8555    3.2937 O   0  0  0  0  0  0  0  0  0  0  0  0
    2.4887   -2.4612    1.8742 O   0  0  0  0  0  0  0  0  0  0  0  0
    3.5089   -0.4083    2.7196 O   0  0  0  0  0  0  0  0  0  0  0  0
   -1.1009    1.6773    2.7025 O   0  0  0  0  0  0  0  0  0  0  0  0
   -0.4473   -2.7568    1.2037 O   0  0  0  0  0  0  0  0  0  0  0  0
   -2.1034   -0.9345    2.3093 O   0  0  0  0  0  0  0  0  0  0  0  0
    3.4951    1.1905    5.0233 O   0  0  0  0  0  0  0  0  0  0  0  0
    1.9028   -0.2476    4.2141 O   0  0  0  0  0  0  0  0  0  0  0  0
    2.3007   -3.3750   -0.2281 O   0  0  0  0  0  0  0  0  0  0  0  0
    3.0230   -4.6644    1.7304 O   0  0  0  0  0  0  0  0  0  0  0  0
    1.8782    2.7955    5.4334 O   0  0  0  0  0  0  0  0  0  0  0  0
    0.9891   -5.1025    0.6403 O   0  0  0  0  0  0  0  0  0  0  0  0
    1.2383    0.9705    2.3369 C   0  0  1  0  0  0  0  0  0  0  0  0
    1.6272   -1.3762    1.4954 C   0  0  2  0  0  0  0  0  0  0  0  0
    2.3202   -0.1048    1.9259 C   0  0  2  0  0  0  0  0  0  0  0  0
   -0.2304    0.5411    2.7612 C   0  0  2  0  0  0  0  0  0  0  0  0
    0.1706   -1.7098    1.9790 C   0  0  1  0  0  0  0  0  0  0  0  0
   -0.7819   -0.5568    1.8815 C   0  0  1  0  0  0  0  0  0  0  0  0
    3.2367   -0.4853    3.6701 H   0  0  0  0  0  0  0  0  0  0  0  0
   -1.7710    1.5206    2.0092 H   0  0  0  0  0  0  0  0  0  0  0  0
   -0.7005   -2.4420    0.3136 H   0  0  0  0  0  0  0  0  0  0  0  0
   -2.1148   -1.8725    2.5910 H   0  0  0  0  0  0  0  0  0  0  0  0
    3.8527    2.1024    5.0608 H   0  0  0  0  0  0  0  0  0  0  0  0
    1.3263   -0.7957    4.7868 H   0  0  0  0  0  0  0  0  0  0  0  0
    1.5773   -3.2647   -0.8675 H   0  0  0  0  0  0  0  0  0  0  0  0
    3.5105   -4.1078    2.3632 H   0  0  0  0  0  0  0  0  0  0  0  0
    1.0718    1.5387    1.4183 H   0  0  0  0  0  0  0  0  0  0  0  0
    1.5756   -1.2999    0.4036 H   0  0  0  0  0  0  0  0  0  0  0  0
    2.8628    0.3320    1.0891 H   0  0  0  0  0  0  0  0  0  0  0  0
   -0.3216    0.2017    3.8025 H   0  0  0  0  0  0  0  0  0  0  0  0
    0.1991   -2.1254    2.9966 H   0  0  0  0  0  0  0  0  0  0  0  0
   -0.8961   -0.2333    0.8426 H   0  0  0  0  0  0  0  0  0  0  0  0
  1  3  1  0  0  0  0
  1  9  1  0  0  0  0
  1 10  1  0  0  0  0
  1 13  2  0  0  0  0
  2  4  1  0  0  0  0
  2 11  1  0  0  0  0
  2 12  1  0  0  0  0
  2 14  2  0  0  0  0
  5 21  1  0  0  0  0
  6 22  1  0  0  0  0
  7 23  1  0  0  0  0
  8 24  1  0  0  0  0
  9 25  1  0  0  0  0
 10 26  1  0  0  0  0
 11 27  1  0  0  0  0
 12 28  1  0  0  0  0
 15 17  1  0  0  0  0
 15 18  1  0  0  0  0
 15 29  1  6  0  0  0
 15  3  1  0  0  0  0
 16 17  1  0  0  0  0
 16 19  1  0  0  0  0
 16 30  1  6  0  0  0
 16  4  1  0  0  0  0
 17 31  1  6  0  0  0
 17  5  1  0  0  0  0
 18 20  1  0  0  0  0
 18 32  1  1  0  0  0
 18  6  1  0  0  0  0
 19  7  1  0  0  0  0
 19 20  1  0  0  0  0
 19 33  1  1  0  0  0
 20 34  1  6  0  0  0
 20  8  1  0  0  0  0
M  END
>  <DRUGBANK_ID>
DB02942

>  <SECONDARY_ACCESSION_NUMBERS>
EXPT01941

>  <COMMON_NAME>
Inositol 1,3-Bisphosphate

$$$$
