
 OpenBabel10282417193D

108113  0  0  0  0  0  0  0  0999 V2000
   -4.2629    0.9811   -2.4544 C   0  0  1  0  0  0  0  0  0  0  0  0
   -3.8580    2.2852   -1.6588 C   0  0  0  0  0  0  0  0  0  0  0  0
   -3.5547    0.9333   -1.0809 C   0  0  1  0  0  0  0  0  0  0  0  0
   -3.8140    0.3668    0.2767 C   0  0  0  0  0  0  0  0  0  0  0  0
   -3.8559   -1.0898    0.3675 C   0  0  0  0  0  0  0  0  0  0  0  0
   -5.6884    0.5304   -2.8140 C   0  0  0  0  0  0  0  0  0  0  0  0
   -5.8408   -0.0650   -4.1626 N   0  0  0  0  0  0  0  0  0  0  0  0
   -7.3453   -0.7127   -4.7104 S   0  0  0  0  0  0  0  0  0  0  0  0
   -7.8058    0.2672   -6.1778 C   0  0  0  0  0  0  0  0  0  0  0  0
   -8.4008   -0.1456   -7.5354 C   0  0  0  0  0  0  0  0  0  0  0  0
   -6.9562    0.3533   -7.4591 C   0  0  0  0  0  0  0  0  0  0  0  0
   -7.1970   -2.0933   -5.0895 O   0  0  0  0  0  0  0  0  0  0  0  0
   -8.3428   -0.3759   -3.7133 O   0  0  0  0  0  0  0  0  0  0  0  0
   -6.6177    0.6683   -2.0475 O   0  0  0  0  0  0  0  0  0  0  0  0
   -3.5162    0.6530   -3.6299 N   0  0  0  0  0  0  0  0  0  0  0  0
   -2.3113    0.0442   -3.7232 C   0  0  0  0  0  0  0  0  0  0  0  0
   -1.8573   -0.2551   -4.8297 O   0  0  0  0  0  0  0  0  0  0  0  0
   -1.4369   -0.1832   -2.4761 C   0  0  1  0  0  0  0  0  0  0  0  0
   -0.9614   -1.4106   -1.3444 N   0  0  0  0  0  0  0  0  0  0  0  0
   -2.1380   -2.0649   -1.0370 C   0  0  0  0  0  0  0  0  0  0  0  0
   -1.7341   -2.6123   -2.2397 C   0  0  1  0  0  0  0  0  0  0  0  0
   -0.8668   -1.4253   -2.9355 C   0  0  0  0  0  0  0  0  0  0  0  0
   -1.1446   -3.7680   -1.6075 O   0  0  0  0  0  0  0  0  0  0  0  0
   -0.2703   -3.8663   -0.3990 C   0  0  0  0  0  0  0  0  0  0  0  0
    0.4654   -2.6168    0.4706 N   0  0  0  0  0  0  0  0  0  0  0  0
   -0.2817   -1.3832    0.9154 C   0  0  0  0  0  0  0  0  0  0  0  0
    0.5172   -0.1570    1.0307 C   0  0  0  0  0  0  0  0  0  0  0  0
    1.7960   -0.3451    0.6005 C   0  0  0  0  0  0  0  0  0  0  0  0
    2.6565    0.6958    0.8937 C   0  0  0  0  0  0  0  0  0  0  0  0
    4.1053    0.5414    0.6838 C   0  0  0  0  0  0  0  0  0  0  0  0
    4.5502   -0.5979    1.5376 C   0  0  0  0  0  0  0  0  0  0  0  0
    4.0467   -1.8739    1.0938 C   0  0  0  0  0  0  0  0  0  0  0  0
    4.2818   -2.0981   -0.4756 C   0  0  0  0  0  0  0  0  0  0  0  0
    5.6927   -2.3500   -0.7598 C   0  0  0  0  0  0  0  0  0  0  0  0
    6.1362   -3.5577    0.0465 C   0  0  0  0  0  0  0  0  0  0  0  0
    5.4069   -4.7728   -0.3723 O   0  0  0  0  0  0  0  0  0  0  0  0
    4.0807   -4.8768    0.0468 C   0  0  0  0  0  0  0  0  0  0  0  0
    3.4387   -4.0528    0.6493 O   0  0  0  0  0  0  0  0  0  0  0  0
    2.9362   -5.4221   -0.5569 N   0  0  0  0  0  0  0  0  0  0  0  0
    1.9310   -4.4305   -1.6438 C   0  0  2  0  0  0  0  0  0  0  0  0
    0.6088   -2.4394   -1.6079 C   0  0  0  0  0  0  0  0  0  0  0  0
    0.3521   -1.0285   -1.0935 O   0  0  0  0  0  0  0  0  0  0  0  0
    2.7651   -6.2660   -2.3756 C   0  0  0  0  0  0  0  0  0  0  0  0
    3.7262   -5.9920   -3.4897 C   0  0  0  0  0  0  0  0  0  0  0  0
    4.0331   -7.9203   -2.8569 C   0  0  0  0  0  0  0  0  0  0  0  0
    1.9793   -7.5944   -2.5174 C   0  0  0  0  0  0  0  0  0  0  0  0
    5.8608   -2.5784   -2.2268 C   0  0  0  0  0  0  0  0  0  0  0  0
    6.4430   -1.1115   -0.4387 C   0  0  0  0  0  0  0  0  0  0  0  0
    2.1611    1.8749    1.4837 C   0  0  0  0  0  0  0  0  0  0  0  0
    0.8070    2.0372    1.7366 C   0  0  0  0  0  0  0  0  0  0  0  0
   -0.0453    1.0239    1.4508 C   0  0  0  0  0  0  0  0  0  0  0  0
    1.8793   -1.8048   -0.0062 C   0  0  0  0  0  0  0  0  0  0  0  0
    0.2711   -4.9703   -0.3216 O   0  0  0  0  0  0  0  0  0  0  0  0
   -0.9281    0.8237   -2.3864 H   0  0  0  0  0  0  0  0  0  0  0  0
   -3.1161    3.0433   -1.9798 H   0  0  0  0  0  0  0  0  0  0  0  0
   -4.5248    2.9332   -1.1343 H   0  0  0  0  0  0  0  0  0  0  0  0
   -2.5173    0.7748   -1.1242 H   0  0  0  0  0  0  0  0  0  0  0  0
   -3.0138    0.6519    0.9853 H   0  0  0  0  0  0  0  0  0  0  0  0
   -4.7767    0.5274    0.6439 H   0  0  0  0  0  0  0  0  0  0  0  0
   -2.8081   -1.1047    0.3606 H   0  0  0  0  0  0  0  0  0  0  0  0
   -3.7776   -1.7674    1.2033 H   0  0  0  0  0  0  0  0  0  0  0  0
   -4.4700   -1.5123   -0.4521 H   0  0  0  0  0  0  0  0  0  0  0  0
   -5.0642   -0.2686   -4.8002 H   0  0  0  0  0  0  0  0  0  0  0  0
   -8.2376    1.0323   -5.5805 H   0  0  0  0  0  0  0  0  0  0  0  0
   -8.7574   -1.1133   -7.9015 H   0  0  0  0  0  0  0  0  0  0  0  0
   -9.1744    0.4596   -8.0204 H   0  0  0  0  0  0  0  0  0  0  0  0
   -6.5429    1.2399   -7.9703 H   0  0  0  0  0  0  0  0  0  0  0  0
   -6.1272   -0.3110   -7.6470 H   0  0  0  0  0  0  0  0  0  0  0  0
   -4.0519    0.8018   -4.4823 H   0  0  0  0  0  0  0  0  0  0  0  0
   -1.8731   -2.3583   -0.0336 H   0  0  0  0  0  0  0  0  0  0  0  0
   -3.2073   -2.2098   -1.0584 H   0  0  0  0  0  0  0  0  0  0  0  0
   -2.6346   -2.7199   -2.7879 H   0  0  0  0  0  0  0  0  0  0  0  0
   -0.5381   -1.6981   -3.8435 H   0  0  0  0  0  0  0  0  0  0  0  0
    0.1989   -1.2240   -2.7301 H   0  0  0  0  0  0  0  0  0  0  0  0
   -0.8200   -1.6976    1.7156 H   0  0  0  0  0  0  0  0  0  0  0  0
   -1.1465   -0.8716    0.4964 H   0  0  0  0  0  0  0  0  0  0  0  0
    4.2725    0.3954   -0.3823 H   0  0  0  0  0  0  0  0  0  0  0  0
    4.6566    1.4236    0.9753 H   0  0  0  0  0  0  0  0  0  0  0  0
    5.5658   -0.7088    1.6156 H   0  0  0  0  0  0  0  0  0  0  0  0
    4.4165   -0.4850    2.5826 H   0  0  0  0  0  0  0  0  0  0  0  0
    4.3282   -2.7422    1.6625 H   0  0  0  0  0  0  0  0  0  0  0  0
    3.0375   -1.7584    1.5081 H   0  0  0  0  0  0  0  0  0  0  0  0
    3.7263   -2.9281   -0.9429 H   0  0  0  0  0  0  0  0  0  0  0  0
    3.8934   -1.2741   -1.0632 H   0  0  0  0  0  0  0  0  0  0  0  0
    7.2083   -3.6748   -0.1242 H   0  0  0  0  0  0  0  0  0  0  0  0
    6.0119   -3.3887    1.1202 H   0  0  0  0  0  0  0  0  0  0  0  0
    2.2804   -6.1337   -0.3031 H   0  0  0  0  0  0  0  0  0  0  0  0
    3.1058   -4.7849   -1.5591 H   0  0  0  0  0  0  0  0  0  0  0  0
    4.8346   -5.9079   -3.4567 H   0  0  0  0  0  0  0  0  0  0  0  0
    3.4083   -6.3546   -4.4641 H   0  0  0  0  0  0  0  0  0  0  0  0
    3.2965   -5.0955   -3.2565 H   0  0  0  0  0  0  0  0  0  0  0  0
    4.0846   -9.2088   -2.4908 H   0  0  0  0  0  0  0  0  0  0  0  0
    3.8993   -8.5557   -4.0616 H   0  0  0  0  0  0  0  0  0  0  0  0
    5.2828   -8.1191   -3.1284 H   0  0  0  0  0  0  0  0  0  0  0  0
    1.9856   -8.5595   -1.9163 H   0  0  0  0  0  0  0  0  0  0  0  0
    1.2860   -6.9669   -2.1062 H   0  0  0  0  0  0  0  0  0  0  0  0
    1.7490   -7.8985   -3.5537 H   0  0  0  0  0  0  0  0  0  0  0  0
    5.4846   -1.7230   -2.7914 H   0  0  0  0  0  0  0  0  0  0  0  0
    6.9225   -2.6965   -2.4214 H   0  0  0  0  0  0  0  0  0  0  0  0
    5.3301   -3.4711   -2.5437 H   0  0  0  0  0  0  0  0  0  0  0  0
    6.0231   -0.2161   -0.8845 H   0  0  0  0  0  0  0  0  0  0  0  0
    6.5436   -0.9654    0.5862 H   0  0  0  0  0  0  0  0  0  0  0  0
    7.4892   -1.2043   -0.5503 H   0  0  0  0  0  0  0  0  0  0  0  0
    2.8354    2.6826    1.7350 H   0  0  0  0  0  0  0  0  0  0  0  0
    0.3985    2.9270    2.1789 H   0  0  0  0  0  0  0  0  0  0  0  0
   -1.1060    1.1131    1.6191 H   0  0  0  0  0  0  0  0  0  0  0  0
    2.4532   -2.5942    0.3222 H   0  0  0  0  0  0  0  0  0  0  0  0
    2.2859   -1.7841   -1.0945 H   0  0  0  0  0  0  0  0  0  0  0  0
  1  2  1  0  0  0  0
  1  3  1  0  0  0  0
  1  6  1  6  0  0  0
  1 15  1  0  0  0  0
  2 55  1  0  0  0  0
  2 56  1  0  0  0  0
  3  2  1  0  0  0  0
  3  4  1  0  0  0  0
  3 57  1  6  0  0  0
  4  5  1  0  0  0  0
  4 58  1  0  0  0  0
  4 59  1  0  0  0  0
  5 60  1  0  0  0  0
  5 61  1  0  0  0  0
  5 62  1  0  0  0  0
  6  7  1  0  0  0  0
  6 14  2  0  0  0  0
  7  8  1  0  0  0  0
  7 63  1  0  0  0  0
  8  9  1  0  0  0  0
  8 12  2  0  0  0  0
  8 13  2  0  0  0  0
  9 11  1  0  0  0  0
  9 64  1  0  0  0  0
 10  9  1  0  0  0  0
 10 65  1  0  0  0  0
 10 66  1  0  0  0  0
 11 10  1  0  0  0  0
 11 67  1  0  0  0  0
 11 68  1  0  0  0  0
 15 69  1  0  0  0  0
 16 15  1  0  0  0  0
 16 17  2  0  0  0  0
 18 22  1  0  0  0  0
 18 54  1  6  0  0  0
 18 16  1  0  0  0  0
 19 18  1  0  0  0  0
 20 19  1  0  0  0  0
 20 70  1  0  0  0  0
 20 71  1  0  0  0  0
 21 20  1  0  0  0  0
 21 23  1  0  0  0  0
 21 72  1  6  0  0  0
 22 21  1  0  0  0  0
 22 73  1  0  0  0  0
 22 74  1  0  0  0  0
 24 23  1  0  0  0  0
 24 53  2  0  0  0  0
 25 24  1  0  0  0  0
 25 26  1  0  0  0  0
 26 27  1  0  0  0  0
 26 75  1  0  0  0  0
 26 76  1  0  0  0  0
 27 28  1  0  0  0  0
 27 51  2  0  0  0  0
 28 52  1  0  0  0  0
 29 28  2  0  0  0  0
 29 30  1  0  0  0  0
 30 31  1  0  0  0  0
 30 77  1  0  0  0  0
 30 78  1  0  0  0  0
 31 32  1  0  0  0  0
 31 79  1  0  0  0  0
 31 80  1  0  0  0  0
 32 33  1  0  0  0  0
 32 81  1  0  0  0  0
 32 82  1  0  0  0  0
 33 34  1  0  0  0  0
 33 83  1  0  0  0  0
 33 84  1  0  0  0  0
 34 35  1  0  0  0  0
 34 47  1  0  0  0  0
 34 48  1  0  0  0  0
 35 36  1  0  0  0  0
 35 85  1  0  0  0  0
 35 86  1  0  0  0  0
 36 37  1  0  0  0  0
 37 38  2  0  0  0  0
 37 39  1  0  0  0  0
 39 40  1  0  0  0  0
 39 87  1  0  0  0  0
 40 41  1  0  0  0  0
 40 43  1  0  0  0  0
 40 88  1  6  0  0  0
 41 19  1  0  0  0  0
 41 42  2  0  0  0  0
 43 44  1  0  0  0  0
 43 45  1  0  0  0  0
 43 46  1  0  0  0  0
 44 89  1  0  0  0  0
 44 90  1  0  0  0  0
 44 91  1  0  0  0  0
 45 92  1  0  0  0  0
 45 93  1  0  0  0  0
 45 94  1  0  0  0  0
 46 95  1  0  0  0  0
 46 96  1  0  0  0  0
 46 97  1  0  0  0  0
 47 98  1  0  0  0  0
 47 99  1  0  0  0  0
 47100  1  0  0  0  0
 48101  1  0  0  0  0
 48102  1  0  0  0  0
 48103  1  0  0  0  0
 49 29  1  0  0  0  0
 49104  1  0  0  0  0
 50 49  2  0  0  0  0
 50105  1  0  0  0  0
 51 50  1  0  0  0  0
 51106  1  0  0  0  0
 52 25  1  0  0  0  0
 52107  1  0  0  0  0
 52108  1  0  0  0  0
M  END
>  <DRUGBANK_ID>
DB11929

>  <COMMON_NAME>
Vaniprevir

>  <CAS_NUMBER>
923590-37-8

>  <UNII>
CV3X74AO1H

>  <SYNONYMS>
Vaniprevir; Vaniprévir; Vaniprevirum

$$$$
