
 OpenBabel10282417133D

 96 98  0  0  1  0  0  0  0  0999 V2000
   -7.7199   -2.3199   -5.3995 C   0  0  0  0  0  0  0  0  0  0  0  0
   -9.1847   -2.0695   -5.7112 C   0  0  0  0  0  0  0  0  0  0  0  0
  -10.2085   -0.7981   -5.0115 S   0  0  0  0  0  0  0  0  0  0  0  0
   -9.3756    0.0408   -3.6183 C   0  0  0  0  0  0  0  0  0  0  0  0
   -9.0528   -0.8599   -2.3262 C   0  0  0  0  0  0  0  0  0  0  0  0
   -8.4020   -2.2514   -2.4968 N   0  0  0  0  0  0  0  0  0  0  0  0
   -7.1546   -2.6553   -1.9650 C   0  0  0  0  0  0  0  0  0  0  0  0
   -6.3176   -3.8756   -2.6693 C   0  0  0  0  0  0  0  0  0  0  0  0
   -4.9226   -3.5505   -3.3147 C   0  0  0  0  0  0  0  0  0  0  0  0
   -4.1625   -2.6415   -2.4215 N   0  0  0  0  0  0  0  0  0  0  0  0
   -3.2968   -3.1647   -1.5553 C   0  0  0  0  0  0  0  0  0  0  0  0
   -2.2433   -2.2033   -0.7788 C   0  0  1  0  0  0  0  0  0  0  0  0
   -1.5869   -3.1706    0.2779 C   0  0  0  0  0  0  0  0  0  0  0  0
   -0.7076   -4.4156   -0.2094 C   0  0  0  0  0  0  0  0  0  0  0  0
    0.4538   -4.1319   -1.0490 O   0  0  0  0  0  0  0  0  0  0  0  0
   -9.7730   -2.9045   -6.4521 O   0  0  0  0  0  0  0  0  0  0  0  0
   -6.6217   -1.9782   -1.0801 O   0  0  0  0  0  0  0  0  0  0  0  0
   -3.2015   -4.4190   -1.5663 O   0  0  0  0  0  0  0  0  0  0  0  0
   -1.2463   -1.4054   -1.4179 O   0  0  0  0  0  0  0  0  0  0  0  0
   -0.6499   -2.4027    1.2150 C   0  0  0  0  0  0  0  0  0  0  0  0
   -2.8452   -3.6396    1.0496 C   0  0  0  0  0  0  0  0  0  0  0  0
    0.1854   -3.1177   -2.4246 P   0  0  3  0  0  0  0  0  0  0  0  0
    1.2155   -3.9607   -3.1612 O   0  0  0  0  0  0  0  0  0  0  0  0
   -1.2486   -3.7664   -2.5637 O   0  0  0  0  0  0  0  0  0  0  0  0
   -2.1221   -3.3419   -8.7483 C   0  0  2  0  0  0  0  0  0  0  0  0
   -1.2497   -2.6749   -7.7285 C   0  0  1  0  0  0  0  0  0  0  0  0
    0.0450   -3.5185   -7.6511 C   0  0  2  0  0  0  0  0  0  0  0  0
   -0.2632   -4.7887   -8.2540 O   0  0  0  0  0  0  0  0  0  0  0  0
   -1.6616   -4.8106   -8.6545 C   0  0  1  0  0  0  0  0  0  0  0  0
    0.7989   -3.6985   -6.2892 C   0  0  0  0  0  0  0  0  0  0  0  0
   -1.8649   -2.7075   -9.9893 O   0  0  0  0  0  0  0  0  0  0  0  0
   -1.2364   -1.3641   -7.2559 O   0  0  0  0  0  0  0  0  0  0  0  0
   -0.5984   -0.7492   -8.7418 P   0  0  0  0  0  0  0  0  0  0  0  0
   -1.2271    0.6725   -8.2406 O   0  0  0  0  0  0  0  0  0  0  0  0
    0.8369   -0.6044   -7.9687 O   0  0  0  0  0  0  0  0  0  0  0  0
   -0.0275   -0.1988  -10.0716 O   0  0  0  0  0  0  0  0  0  0  0  0
   -3.9506   -6.8359   -6.7311 C   0  0  0  0  0  0  0  0  0  0  0  0
   -3.7292   -6.0054   -7.8217 C   0  0  0  0  0  0  0  0  0  0  0  0
   -2.3941   -5.6943   -7.7601 N   0  0  0  0  0  0  0  0  0  0  0  0
   -1.8765   -6.3826   -6.6854 C   0  0  0  0  0  0  0  0  0  0  0  0
   -2.7886   -7.0735   -6.0374 N   0  0  0  0  0  0  0  0  0  0  0  0
   -5.2644   -7.2795   -6.5127 C   0  0  0  0  0  0  0  0  0  0  0  0
   -6.2213   -6.9078   -7.3903 N   0  0  0  0  0  0  0  0  0  0  0  0
   -5.8625   -6.1114   -8.4245 C   0  0  0  0  0  0  0  0  0  0  0  0
   -4.6445   -5.5950   -8.7176 N   0  0  0  0  0  0  0  0  0  0  0  0
   -5.6089   -8.0556   -5.4256 N   0  0  0  0  0  0  0  0  0  0  0  0
   -0.0630   -4.0929   -5.1862 O   0  0  0  0  0  0  0  0  0  0  0  0
   -1.1182   -2.9164   -4.9228 P   0  0  3  0  0  0  0  0  0  0  0  0
   -2.3763   -2.5963   -4.0601 O   0  0  0  0  0  0  0  0  0  0  0  0
   -2.0449   -3.6440   -5.9275 O   0  0  0  0  0  0  0  0  0  0  0  0
   -0.0829   -2.1035   -3.8002 O   0  0  0  0  0  0  0  0  0  0  0  0
   -7.0505   -1.0885   -4.8401 C   0  0  3  0  0  0  0  0  0  0  0  0
   -5.7759   -0.9721   -4.1016 C   0  0  0  0  0  0  0  0  0  0  0  0
   -7.0886   -0.0238   -5.7394 O   0  0  0  0  0  0  0  0  0  0  0  0
   -7.1887   -2.6478   -6.2948 H   0  0  0  0  0  0  0  0  0  0  0  0
   -7.7413   -3.2017   -4.7512 H   0  0  0  0  0  0  0  0  0  0  0  0
   -8.5122    0.6368   -3.9646 H   0  0  0  0  0  0  0  0  0  0  0  0
  -10.0144    0.8859   -3.3251 H   0  0  0  0  0  0  0  0  0  0  0  0
   -8.3879   -0.2563   -1.6949 H   0  0  0  0  0  0  0  0  0  0  0  0
  -10.0054   -0.9941   -1.8082 H   0  0  0  0  0  0  0  0  0  0  0  0
   -8.9035   -2.9009   -3.0868 H   0  0  0  0  0  0  0  0  0  0  0  0
   -6.0783   -4.5899   -1.8768 H   0  0  0  0  0  0  0  0  0  0  0  0
   -6.9063   -4.4109   -3.4159 H   0  0  0  0  0  0  0  0  0  0  0  0
   -4.3326   -4.4586   -3.5282 H   0  0  0  0  0  0  0  0  0  0  0  0
   -4.9651   -3.1456   -4.3416 H   0  0  0  0  0  0  0  0  0  0  0  0
   -4.3164   -1.6354   -2.3859 H   0  0  0  0  0  0  0  0  0  0  0  0
   -2.8638   -1.4224   -0.3255 H   0  0  0  0  0  0  0  0  0  0  0  0
   -0.3270   -4.9469    0.6719 H   0  0  0  0  0  0  0  0  0  0  0  0
   -1.2826   -5.2160   -0.6882 H   0  0  0  0  0  0  0  0  0  0  0  0
   -0.4493   -1.3470   -0.8534 H   0  0  0  0  0  0  0  0  0  0  0  0
   -1.0925   -1.4560    1.5288 H   0  0  0  0  0  0  0  0  0  0  0  0
   -0.4356   -3.0137    2.0956 H   0  0  0  0  0  0  0  0  0  0  0  0
    0.3192   -2.1888    0.7457 H   0  0  0  0  0  0  0  0  0  0  0  0
   -3.4484   -2.7618    1.3184 H   0  0  0  0  0  0  0  0  0  0  0  0
   -3.5271   -4.2578    0.4594 H   0  0  0  0  0  0  0  0  0  0  0  0
   -2.6152   -4.2461    1.9115 H   0  0  0  0  0  0  0  0  0  0  0  0
   -1.4901   -4.7090   -2.4572 H   0  0  0  0  0  0  0  0  0  0  0  0
   -3.1850   -3.1987   -8.4920 H   0  0  0  0  0  0  0  0  0  0  0  0
   -2.1185   -2.6024   -7.1618 H   0  0  0  0  0  0  0  0  0  0  0  0
    0.7990   -3.0906   -8.3371 H   0  0  0  0  0  0  0  0  0  0  0  0
   -1.7007   -5.2589   -9.6476 H   0  0  0  0  0  0  0  0  0  0  0  0
    1.3005   -2.7560   -6.0158 H   0  0  0  0  0  0  0  0  0  0  0  0
    1.5990   -4.4410   -6.3936 H   0  0  0  0  0  0  0  0  0  0  0  0
   -0.9588   -2.9327  -10.2714 H   0  0  0  0  0  0  0  0  0  0  0  0
   -2.0349    0.8777   -8.7421 H   0  0  0  0  0  0  0  0  0  0  0  0
    0.9137   -1.0522   -7.1195 H   0  0  0  0  0  0  0  0  0  0  0  0
   -0.8379   -6.3054   -6.3905 H   0  0  0  0  0  0  0  0  0  0  0  0
   -6.6673   -5.8508   -9.1077 H   0  0  0  0  0  0  0  0  0  0  0  0
   -4.8585   -8.3944   -4.8368 H   0  0  0  0  0  0  0  0  0  0  0  0
   -6.5349   -8.4484   -5.3864 H   0  0  0  0  0  0  0  0  0  0  0  0
   -2.1412   -2.8487   -3.1667 H   0  0  0  0  0  0  0  0  0  0  0  0
   -7.6360   -0.9002   -3.9934 H   0  0  0  0  0  0  0  0  0  0  0  0
   -4.8839   -1.0780   -4.7043 H   0  0  0  0  0  0  0  0  0  0  0  0
   -5.7045   -0.1146   -3.4207 H   0  0  0  0  0  0  0  0  0  0  0  0
   -5.8799   -1.7365   -3.3941 H   0  0  0  0  0  0  0  0  0  0  0  0
   -6.2326   -0.0645   -6.1943 H   0  0  0  0  0  0  0  0  0  0  0  0
  1  2  1  0  0  0  0
  1 52  1  0  0  0  0
  1 55  1  0  0  0  0
  1 56  1  0  0  0  0
  2  3  1  0  0  0  0
  2 16  2  0  0  0  0
  3  4  1  0  0  0  0
  4  5  1  0  0  0  0
  4 57  1  0  0  0  0
  4 58  1  0  0  0  0
  5  6  1  0  0  0  0
  5 59  1  0  0  0  0
  5 60  1  0  0  0  0
  6  7  1  0  0  0  0
  6 61  1  0  0  0  0
  7  8  1  0  0  0  0
  7 17  2  0  0  0  0
  8  9  1  0  0  0  0
  8 62  1  0  0  0  0
  8 63  1  0  0  0  0
  9 10  1  0  0  0  0
  9 64  1  0  0  0  0
  9 65  1  0  0  0  0
 10 11  1  0  0  0  0
 10 66  1  0  0  0  0
 11 12  1  0  0  0  0
 11 18  2  0  0  0  0
 12 13  1  0  0  0  0
 12 19  1  0  0  0  0
 12 67  1  1  0  0  0
 13 14  1  0  0  0  0
 13 20  1  0  0  0  0
 13 21  1  0  0  0  0
 14 15  1  0  0  0  0
 14 68  1  0  0  0  0
 14 69  1  0  0  0  0
 15 22  1  0  0  0  0
 19 70  1  0  0  0  0
 20 71  1  0  0  0  0
 20 72  1  0  0  0  0
 20 73  1  0  0  0  0
 21 74  1  0  0  0  0
 21 75  1  0  0  0  0
 21 76  1  0  0  0  0
 22 23  2  0  0  0  0
 22 24  1  0  0  0  0
 22 51  1  0  0  0  0
 24 77  1  0  0  0  0
 25 26  1  0  0  0  0
 25 29  1  0  0  0  0
 25 31  1  0  0  0  0
 25 78  1  1  0  0  0
 26 27  1  0  0  0  0
 26 32  1  0  0  0  0
 26 79  1  1  0  0  0
 27 28  1  0  0  0  0
 27 80  1  6  0  0  0
 27 30  1  0  0  0  0
 28 29  1  0  0  0  0
 29 39  1  0  0  0  0
 29 81  1  6  0  0  0
 30 47  1  0  0  0  0
 30 82  1  0  0  0  0
 30 83  1  0  0  0  0
 31 84  1  0  0  0  0
 32 33  1  0  0  0  0
 33 34  1  0  0  0  0
 33 35  1  0  0  0  0
 33 36  2  0  0  0  0
 34 85  1  0  0  0  0
 35 86  1  0  0  0  0
 37 38  2  0  0  0  0
 37 41  1  0  0  0  0
 37 42  1  0  0  0  0
 38 39  1  0  0  0  0
 38 45  1  0  0  0  0
 39 40  1  0  0  0  0
 40 41  2  0  0  0  0
 40 87  1  0  0  0  0
 42 43  2  0  0  0  0
 42 46  1  0  0  0  0
 43 44  1  0  0  0  0
 44 45  2  0  0  0  0
 44 88  1  0  0  0  0
 46 89  1  0  0  0  0
 46 90  1  0  0  0  0
 47 48  1  0  0  0  0
 48 49  1  0  0  0  0
 48 50  2  0  0  0  0
 48 51  1  0  0  0  0
 49 91  1  0  0  0  0
 52 53  1  0  0  0  0
 52 54  1  0  0  0  0
 52 92  1  0  0  0  0
 53 93  1  0  0  0  0
 53 94  1  0  0  0  0
 53 95  1  0  0  0  0
 54 96  1  0  0  0  0
M  END
>  <DRUGBANK_ID>
DB03612

>  <SECONDARY_ACCESSION_NUMBERS>
EXPT00172

>  <COMMON_NAME>
3-Hydroxybutyryl-Coenzyme A

$$$$
