
 OpenBabel10282417203D

 57 61  0  0  0  0  0  0  0  0999 V2000
   -4.3273   10.6591    0.6722 N   0  0  0  0  0  0  0  0  0  0  0  0
   -3.1422   10.1164    0.2645 C   0  0  0  0  0  0  0  0  0  0  0  0
   -3.7997    8.7187    0.2782 C   0  0  2  0  0  0  0  0  0  0  0  0
   -4.8850    9.4081    1.1491 C   0  0  1  0  0  0  0  0  0  0  0  0
   -5.1964   12.0333    2.4059 C   0  0  0  0  0  0  0  0  0  0  0  0
   -4.6432   11.9002    1.1655 C   0  0  0  0  0  0  0  0  0  0  0  0
   -2.0550    3.9484   -0.1454 C   0  0  0  0  0  0  0  0  0  0  0  0
   -4.1427   14.0793    3.5167 N   0  3  0  0  0  0  0  0  0  0  0  0
   -2.1830    5.1730    0.6767 C   0  0  0  0  0  0  0  0  0  0  0  0
   -1.7444    3.9997   -1.5106 N   0  0  0  0  0  0  0  0  0  0  0  0
   -3.0609    7.5498    0.8202 N   0  0  0  0  0  0  0  0  0  0  0  0
   -2.9417    6.3823    0.0767 C   0  0  0  0  0  0  0  0  0  0  0  0
   -4.7306    9.3352    2.9620 S   0  0  0  0  0  0  0  0  0  0  0  0
   -1.6681    2.7981   -2.0294 C   0  0  0  0  0  0  0  0  0  0  0  0
   -5.4159   13.3846    3.0888 C   0  0  0  0  0  0  0  0  0  0  0  0
   -4.3459   13.1737    0.2087 C   0  0  0  0  0  0  0  0  0  0  0  0
   -2.2264    2.6571    0.3251 C   0  0  0  0  0  0  0  0  0  0  0  0
   -1.9744    1.5158   -0.9317 S   0  0  0  0  0  0  0  0  0  0  0  0
   -3.9758   14.6694    4.7239 C   0  0  0  0  0  0  0  0  0  0  0  0
   -5.7071   10.8508    3.2070 C   0  0  0  0  0  0  0  0  0  0  0  0
   -1.6662    5.1303    1.8842 N   0  0  0  0  0  0  0  0  0  0  0  0
   -2.0140   10.5358    0.0794 O   0  0  0  0  0  0  0  0  0  0  0  0
   -3.4932    6.2653   -1.0127 O   0  0  0  0  0  0  0  0  0  0  0  0
   -3.3483   13.0714   -0.5448 O   0  5  0  0  0  0  0  0  0  0  0  0
   -4.9989   14.2104    0.5355 O   0  0  0  0  0  0  0  0  0  0  0  0
   -2.8284   15.4479    4.9337 C   0  0  0  0  0  0  0  0  0  0  0  0
   -1.3643    2.5565   -3.3110 N   0  0  0  0  0  0  0  0  0  0  0  0
   -3.1308   14.2488    2.6211 C   0  0  0  0  0  0  0  0  0  0  0  0
   -1.8070    6.3414    2.5747 O   0  0  0  0  0  0  0  0  0  0  0  0
   -4.7924   14.5887    5.9922 C   0  0  0  0  0  0  0  0  0  0  0  0
   -2.0846   15.1298    2.7473 C   0  0  0  0  0  0  0  0  0  0  0  0
   -3.9364   15.3956    7.0112 C   0  0  0  0  0  0  0  0  0  0  0  0
   -1.9003   15.7277    3.9524 C   0  0  0  0  0  0  0  0  0  0  0  0
   -2.6753   15.9089    6.3259 C   0  0  0  0  0  0  0  0  0  0  0  0
   -1.1668    6.2982    3.8418 C   0  0  0  0  0  0  0  0  0  0  0  0
   -5.9019    9.2410    0.7814 H   0  0  0  0  0  0  0  0  0  0  0  0
   -4.1811    8.4921   -0.7251 H   0  0  0  0  0  0  0  0  0  0  0  0
   -2.6113    7.5740    1.7317 H   0  0  0  0  0  0  0  0  0  0  0  0
   -6.0140   14.0726    2.4835 H   0  0  0  0  0  0  0  0  0  0  0  0
   -6.0274   13.2555    3.9917 H   0  0  0  0  0  0  0  0  0  0  0  0
   -2.4918    2.3291    1.3186 H   0  0  0  0  0  0  0  0  0  0  0  0
   -6.7522   10.6647    2.9236 H   0  0  0  0  0  0  0  0  0  0  0  0
   -5.7052   11.0588    4.2825 H   0  0  0  0  0  0  0  0  0  0  0  0
   -1.3025    1.6216   -3.6906 H   0  0  0  0  0  0  0  0  0  0  0  0
   -1.2155    3.3299   -3.9471 H   0  0  0  0  0  0  0  0  0  0  0  0
   -3.0344   13.6031    1.7787 H   0  0  0  0  0  0  0  0  0  0  0  0
   -4.9275   13.5588    6.3427 H   0  0  0  0  0  0  0  0  0  0  0  0
   -5.7796   15.0519    5.8862 H   0  0  0  0  0  0  0  0  0  0  0  0
   -1.3979   15.2569    1.9140 H   0  0  0  0  0  0  0  0  0  0  0  0
   -3.6518   14.7905    7.8814 H   0  0  0  0  0  0  0  0  0  0  0  0
   -4.4934   16.2504    7.4127 H   0  0  0  0  0  0  0  0  0  0  0  0
   -1.0215   16.3325    4.1356 H   0  0  0  0  0  0  0  0  0  0  0  0
   -1.7681   15.4551    6.7369 H   0  0  0  0  0  0  0  0  0  0  0  0
   -2.6058   16.9985    6.3272 H   0  0  0  0  0  0  0  0  0  0  0  0
   -1.6237    5.5364    4.4778 H   0  0  0  0  0  0  0  0  0  0  0  0
   -0.0913    6.1326    3.7360 H   0  0  0  0  0  0  0  0  0  0  0  0
   -1.3189    7.2761    4.3112 H   0  0  0  0  0  0  0  0  0  0  0  0
  2  1  1  0  0  0  0
  2  3  1  0  0  0  0
  3  4  1  0  0  0  0
  3 11  1  0  0  0  0
  3 37  1  6  0  0  0
  4  1  1  0  0  0  0
  4 13  1  0  0  0  0
  4 36  1  6  0  0  0
  5  6  2  0  0  0  0
  6  1  1  0  0  0  0
  7  9  1  0  0  0  0
  8 15  1  0  0  0  0
  9 12  1  0  0  0  0
 10  7  1  0  0  0  0
 11 38  1  0  0  0  0
 12 11  1  0  0  0  0
 14 10  2  0  0  0  0
 15  5  1  0  0  0  0
 15 39  1  0  0  0  0
 15 40  1  0  0  0  0
 16  6  1  0  0  0  0
 17  7  2  0  0  0  0
 17 41  1  0  0  0  0
 18 17  1  0  0  0  0
 18 14  1  0  0  0  0
 19  8  2  0  0  0  0
 20 13  1  0  0  0  0
 20  5  1  0  0  0  0
 20 42  1  0  0  0  0
 20 43  1  0  0  0  0
 21  9  2  0  0  0  0
 22  2  2  0  0  0  0
 23 12  2  0  0  0  0
 24 16  1  0  0  0  0
 25 16  2  0  0  0  0
 26 19  1  0  0  0  0
 26 33  2  0  0  0  0
 27 14  1  0  0  0  0
 27 44  1  0  0  0  0
 27 45  1  0  0  0  0
 28  8  1  0  0  0  0
 28 46  1  0  0  0  0
 29 21  1  0  0  0  0
 30 19  1  0  0  0  0
 30 47  1  0  0  0  0
 30 48  1  0  0  0  0
 31 28  2  0  0  0  0
 31 49  1  0  0  0  0
 32 30  1  0  0  0  0
 32 50  1  0  0  0  0
 32 51  1  0  0  0  0
 33 31  1  0  0  0  0
 33 52  1  0  0  0  0
 34 26  1  0  0  0  0
 34 32  1  0  0  0  0
 34 53  1  0  0  0  0
 34 54  1  0  0  0  0
 35 29  1  0  0  0  0
 35 55  1  0  0  0  0
 35 56  1  0  0  0  0
 35 57  1  0  0  0  0
M  CHG  2   8   1  24  -1
M  END
>  <DRUGBANK_ID>
DB13682

>  <COMMON_NAME>
Cefpirome

>  <CAS_NUMBER>
84957-29-9

>  <UNII>
S72Q2F09HY

>  <SYNONYMS>
cefpiroma; Cefpirome; cefpiromum

$$$$
