
 OpenBabel10282417133D

 15 14  0  0  0  0  0  0  0  0999 V2000
    1.0909   -0.0252    0.0047 C   0  0  0  0  0  0  0  0  0  0  0  0
    0.6066   -0.5099    1.3701 C   0  0  0  0  0  0  0  0  0  0  0  0
    1.0868   -1.9360    1.6296 C   0  0  0  0  0  0  0  0  0  0  0  0
    1.0909    0.4247    2.4773 C   0  0  0  0  0  0  0  0  0  0  0  0
   -0.8207   -0.5248    1.3728 O   0  0  0  0  0  0  0  0  0  0  0  0
    0.7189    0.9834   -0.2080 H   0  0  0  0  0  0  0  0  0  0  0  0
    0.7133   -0.6715   -0.7957 H   0  0  0  0  0  0  0  0  0  0  0  0
    2.1844   -0.0090   -0.0484 H   0  0  0  0  0  0  0  0  0  0  0  0
    0.7100   -2.6215    0.8620 H   0  0  0  0  0  0  0  0  0  0  0  0
    2.1801   -1.9943    1.6402 H   0  0  0  0  0  0  0  0  0  0  0  0
    0.7100   -2.3072    2.5894 H   0  0  0  0  0  0  0  0  0  0  0  0
    0.7189    1.4435    2.3212 H   0  0  0  0  0  0  0  0  0  0  0  0
    0.7133    0.1017    3.4541 H   0  0  0  0  0  0  0  0  0  0  0  0
    2.1843    0.4585    2.5213 H   0  0  0  0  0  0  0  0  0  0  0  0
   -1.1320    0.3823    1.2078 H   0  0  0  0  0  0  0  0  0  0  0  0
  1  6  1  0  0  0  0
  1  7  1  0  0  0  0
  1  8  1  0  0  0  0
  2  4  1  0  0  0  0
  2  5  1  0  0  0  0
  2  1  1  0  0  0  0
  2  3  1  0  0  0  0
  3  9  1  0  0  0  0
  3 10  1  0  0  0  0
  3 11  1  0  0  0  0
  4 12  1  0  0  0  0
  4 13  1  0  0  0  0
  4 14  1  0  0  0  0
  5 15  1  0  0  0  0
M  END
>  <DRUGBANK_ID>
DB03900

>  <SECONDARY_ACCESSION_NUMBERS>
EXPT03021

>  <COMMON_NAME>
tert-butanol

>  <CAS_NUMBER>
75-65-0

>  <UNII>
MD83SFE959

>  <SYNONYMS>
1,1-dimethylethanol; t-butanol; t-butyl alchohol; t-Butyl alcohol; t-Butylalkohol; tert-butanol; tert-butyl alcohol; tertiary-butyl alcohol; trimethylcarbinol; trimethylmethanol

$$$$
