
 OpenBabel10282417223D

 43 45  0  0  0  0  0  0  0  0999 V2000
    2.2323    1.1793   -0.2256 C   0  0  0  0  0  0  0  0  0  0  0  0
    1.7197    0.5967    1.0763 C   0  0  0  0  0  0  0  0  0  0  0  0
    0.3066    1.1037    1.3523 C   0  0  0  0  0  0  0  0  0  0  0  0
   -1.1964    0.6657    0.4263 S   0  0  0  0  0  0  0  0  0  0  0  0
   -1.8168   -0.3964    1.1852 O   0  0  0  0  0  0  0  0  0  0  0  0
   -2.0219    1.8655    0.2930 O   0  0  0  0  0  0  0  0  0  0  0  0
   -0.8702    0.1645   -1.2121 N   0  0  0  0  0  0  0  0  0  0  0  0
    0.3974   -0.3304   -2.0156 C   0  0  1  0  0  0  0  0  0  0  0  0
    1.3911   -1.2600   -1.2291 C   0  0  0  0  0  0  0  0  0  0  0  0
    0.7730   -2.4540   -1.8862 C   0  0  2  0  0  0  0  0  0  0  0  0
    0.4373   -1.4954   -3.0507 C   0  0  0  0  0  0  0  0  0  0  0  0
   -0.4093   -2.9249   -1.2622 N   0  0  0  0  0  0  0  0  0  0  0  0
   -1.0323   -2.4056   -0.0885 C   0  0  0  0  0  0  0  0  0  0  0  0
   -0.8787   -4.1960   -1.4292 C   0  0  0  0  0  0  0  0  0  0  0  0
   -2.1873   -4.3754   -1.8471 C   0  0  0  0  0  0  0  0  0  0  0  0
   -3.3168   -3.5433   -2.1080 C   0  0  0  0  0  0  0  0  0  0  0  0
   -4.2848   -4.3593   -2.6393 C   0  0  0  0  0  0  0  0  0  0  0  0
   -3.7711   -5.6333   -2.6916 N   0  0  0  0  0  0  0  0  0  0  0  0
   -2.5156   -5.6700   -2.1538 C   0  0  0  0  0  0  0  0  0  0  0  0
   -1.7349   -6.7526   -1.9952 N   0  0  0  0  0  0  0  0  0  0  0  0
   -0.5361   -6.4356   -1.4669 C   0  0  0  0  0  0  0  0  0  0  0  0
   -0.0590   -5.2239   -1.1972 N   0  0  0  0  0  0  0  0  0  0  0  0
    1.4215    1.1458   -0.9176 H   0  0  0  0  0  0  0  0  0  0  0  0
    3.0960    0.6614   -0.6572 H   0  0  0  0  0  0  0  0  0  0  0  0
    2.4104    2.2495   -0.2094 H   0  0  0  0  0  0  0  0  0  0  0  0
    1.7900   -0.4884    1.2094 H   0  0  0  0  0  0  0  0  0  0  0  0
    2.4196    0.9200    1.8529 H   0  0  0  0  0  0  0  0  0  0  0  0
    0.0751    0.7696    2.3730 H   0  0  0  0  0  0  0  0  0  0  0  0
    0.3297    2.1906    1.3340 H   0  0  0  0  0  0  0  0  0  0  0  0
   -1.6857    0.3387   -1.8122 H   0  0  0  0  0  0  0  0  0  0  0  0
    0.8065    0.5414   -2.5550 H   0  0  0  0  0  0  0  0  0  0  0  0
    2.4675   -1.1913   -1.4072 H   0  0  0  0  0  0  0  0  0  0  0  0
    1.2626   -1.3345   -0.1736 H   0  0  0  0  0  0  0  0  0  0  0  0
    1.5312   -3.2333   -2.0123 H   0  0  0  0  0  0  0  0  0  0  0  0
   -0.4438   -1.6777   -3.6611 H   0  0  0  0  0  0  0  0  0  0  0  0
    1.3039   -1.3993   -3.7334 H   0  0  0  0  0  0  0  0  0  0  0  0
   -2.0459   -2.0592   -0.3232 H   0  0  0  0  0  0  0  0  0  0  0  0
   -1.0373   -3.0366    0.8011 H   0  0  0  0  0  0  0  0  0  0  0  0
   -0.4366   -1.5895    0.2380 H   0  0  0  0  0  0  0  0  0  0  0  0
   -3.4123   -2.4736   -1.9442 H   0  0  0  0  0  0  0  0  0  0  0  0
   -5.2793   -4.1311   -2.9949 H   0  0  0  0  0  0  0  0  0  0  0  0
   -4.2250   -6.4427   -3.0768 H   0  0  0  0  0  0  0  0  0  0  0  0
    0.1481   -7.2440   -1.2397 H   0  0  0  0  0  0  0  0  0  0  0  0
  1  2  1  0  0  0  0
  1 23  1  0  0  0  0
  1 24  1  0  0  0  0
  1 25  1  0  0  0  0
  2  3  1  0  0  0  0
  2 26  1  0  0  0  0
  2 27  1  0  0  0  0
  3  4  1  0  0  0  0
  3 28  1  0  0  0  0
  3 29  1  0  0  0  0
  4  5  2  0  0  0  0
  4  6  2  0  0  0  0
  4  7  1  0  0  0  0
  7 30  1  0  0  0  0
  8  9  1  0  0  0  0
  8 11  1  0  0  0  0
  8 31  1  6  0  0  0
  8  7  1  0  0  0  0
  9 32  1  0  0  0  0
  9 33  1  0  0  0  0
 10  9  1  0  0  0  0
 10 11  1  0  0  0  0
 10 34  1  6  0  0  0
 10 12  1  0  0  0  0
 11 35  1  0  0  0  0
 11 36  1  0  0  0  0
 12 13  1  0  0  0  0
 12 14  1  0  0  0  0
 13 37  1  0  0  0  0
 13 38  1  0  0  0  0
 13 39  1  0  0  0  0
 14 15  2  0  0  0  0
 14 22  1  0  0  0  0
 15 16  1  0  0  0  0
 15 19  1  0  0  0  0
 16 17  2  0  0  0  0
 16 40  1  0  0  0  0
 17 18  1  0  0  0  0
 17 41  1  0  0  0  0
 18 19  1  0  0  0  0
 18 42  1  0  0  0  0
 19 20  2  0  0  0  0
 20 21  1  0  0  0  0
 21 22  2  0  0  0  0
 21 43  1  0  0  0  0
M  END
>  <DRUGBANK_ID>
DB14973

>  <COMMON_NAME>
Abrocitinib

>  <CAS_NUMBER>
1622902-68-4

>  <UNII>
73SM5SF3OR

>  <SYNONYMS>
Abrocitinib; PF-04965842

$$$$
