1171
 OpenBabel10282417113D

 35 36  0  0  0  0  0  0  0  0999 V2000
   -2.3596   -0.2650    0.0037 Cl  0  0  0  0  0  0  0  0  0  0  0  0
    6.6785    1.2902   -0.0675 O   0  0  0  0  0  0  0  0  0  0  0  0
    4.2536   -0.9222   -0.0178 O   0  0  0  0  0  0  0  0  0  0  0  0
    5.7994    3.6250    1.3579 N   0  0  0  0  0  0  0  0  0  0  0  0
    4.0522    1.2881   -0.2367 N   0  0  0  0  0  0  0  0  0  0  0  0
    6.3929    3.7711    0.0125 C   0  0  0  0  0  0  0  0  0  0  0  0
    6.4635    2.5215    2.0736 C   0  0  0  0  0  0  0  0  0  0  0  0
    4.3522    3.3933    1.3187 C   0  0  0  0  0  0  0  0  0  0  0  0
    6.4259    2.5002   -0.8384 C   0  0  0  0  0  0  0  0  0  0  0  0
    6.2747    1.2169    1.3367 C   0  0  0  0  0  0  0  0  0  0  0  0
    3.7308    2.7177    0.0849 C   0  0  0  0  0  0  0  0  0  0  0  0
    3.5271    0.0489   -0.0571 C   0  0  0  0  0  0  0  0  0  0  0  0
    2.0855   -0.0660    0.0114 C   0  0  0  0  0  0  0  0  0  0  0  0
    1.2812    1.0567   -0.1026 C   0  0  0  0  0  0  0  0  0  0  0  0
    1.5157   -1.3211    0.0499 C   0  0  0  0  0  0  0  0  0  0  0  0
   -0.0725    1.0213    0.0004 C   0  0  0  0  0  0  0  0  0  0  0  0
    0.1259   -1.3863    0.0251 C   0  0  0  0  0  0  0  0  0  0  0  0
   -0.6539   -0.2175    0.0339 C   0  0  0  0  0  0  0  0  0  0  0  0
    7.5298    2.7188    2.1841 H   0  0  0  0  0  0  0  0  0  0  0  0
    5.0214    1.0324   -0.4220 H   0  0  0  0  0  0  0  0  0  0  0  0
    7.4311    4.0860    0.1275 H   0  0  0  0  0  0  0  0  0  0  0  0
    5.8855    4.5837   -0.5279 H   0  0  0  0  0  0  0  0  0  0  0  0
    6.0419    2.4412    3.0867 H   0  0  0  0  0  0  0  0  0  0  0  0
    3.8731    4.3831    1.3719 H   0  0  0  0  0  0  0  0  0  0  0  0
    3.9872    2.8836    2.2245 H   0  0  0  0  0  0  0  0  0  0  0  0
    5.5165    2.4098   -1.4495 H   0  0  0  0  0  0  0  0  0  0  0  0
    7.1257    2.5562   -1.6763 H   0  0  0  0  0  0  0  0  0  0  0  0
    6.7680    0.3552    1.7914 H   0  0  0  0  0  0  0  0  0  0  0  0
    5.2275    0.9466    1.5153 H   0  0  0  0  0  0  0  0  0  0  0  0
    3.8882    3.3069   -0.8242 H   0  0  0  0  0  0  0  0  0  0  0  0
    2.7135    2.8974    0.3581 H   0  0  0  0  0  0  0  0  0  0  0  0
    1.6163    2.0171   -0.4062 H   0  0  0  0  0  0  0  0  0  0  0  0
    2.1417   -2.2135    0.0309 H   0  0  0  0  0  0  0  0  0  0  0  0
   -0.5971    1.9686   -0.0407 H   0  0  0  0  0  0  0  0  0  0  0  0
   -0.3461   -2.3571   -0.0171 H   0  0  0  0  0  0  0  0  0  0  0  0
  1 18  1  0  0  0  0
  2  9  1  0  0  0  0
  2 10  1  0  0  0  0
  3 12  2  0  0  0  0
  4  6  1  0  0  0  0
  4  7  1  0  0  0  0
  4  8  1  0  0  0  0
  5 11  1  0  0  0  0
  5 12  1  0  0  0  0
  5 20  1  0  0  0  0
  6  9  1  0  0  0  0
  6 21  1  0  0  0  0
  6 22  1  0  0  0  0
  7 10  1  0  0  0  0
  7 19  1  0  0  0  0
  7 23  1  0  0  0  0
  8 11  1  0  0  0  0
  8 24  1  0  0  0  0
  8 25  1  0  0  0  0
  9 26  1  0  0  0  0
  9 27  1  0  0  0  0
 10 28  1  0  0  0  0
 10 29  1  0  0  0  0
 11 30  1  0  0  0  0
 11 31  1  0  0  0  0
 12 13  1  0  0  0  0
 13 14  2  0  0  0  0
 13 15  1  0  0  0  0
 14 16  1  0  0  0  0
 14 32  1  0  0  0  0
 15 17  2  0  0  0  0
 15 33  1  0  0  0  0
 16 18  2  0  0  0  0
 16 34  1  0  0  0  0
 17 18  1  0  0  0  0
 17 35  1  0  0  0  0
M  END
>  <DRUGBANK_ID>
DB01171

>  <SECONDARY_ACCESSION_NUMBERS>
APRD00603

>  <COMMON_NAME>
Moclobemide

>  <CAS_NUMBER>
71320-77-9

>  <UNII>
PJ0Y7AZB63

>  <SYNONYMS>
4-Chlor-N-(2-morpholinoethyl)benzamid; Moclobemid; Moclobemida; Moclobemide; Moclobemidum; p-Chloro-N-(2-morpholinoethyl)benzamide

$$$$
