
 OpenBabel10282417203D

 56 59  0  0  0  0  0  0  0  0999 V2000
    3.7069   -0.0051   -0.8051 C   0  0  0  0  0  0  0  0  0  0  0  0
   -3.5578    0.2471   -1.1019 C   0  0  0  0  0  0  0  0  0  0  0  0
    3.3369   -1.3124   -0.4936 C   0  0  0  0  0  0  0  0  0  0  0  0
   -3.0263   -1.0246   -1.2172 C   0  0  0  0  0  0  0  0  0  0  0  0
   -0.6004   -0.2545    3.4620 C   0  0  0  0  0  0  0  0  0  0  0  0
    2.8771    1.0763   -0.4773 C   0  0  0  0  0  0  0  0  0  0  0  0
   -2.7173    1.2597   -0.6497 C   0  0  0  0  0  0  0  0  0  0  0  0
    2.1410   -1.5385    0.1619 C   0  0  0  0  0  0  0  0  0  0  0  0
   -1.7233   -1.3012   -0.7300 C   0  0  0  0  0  0  0  0  0  0  0  0
    0.7482    2.0247    0.4087 C   0  0  0  0  0  0  0  0  0  0  0  0
   -0.5795    2.0687    0.3426 C   0  0  0  0  0  0  0  0  0  0  0  0
   -2.0928   -0.0681    3.3636 C   0  0  0  0  0  0  0  0  0  0  0  0
   -0.0046   -1.1777    2.3720 C   0  0  0  0  0  0  0  0  0  0  0  0
   -2.9826   -2.5008    3.9960 C   0  0  0  0  0  0  0  0  0  0  0  0
   -3.3177   -1.4231    1.8613 C   0  0  0  0  0  0  0  0  0  0  0  0
   -2.8325   -3.8788    3.2291 C   0  0  0  0  0  0  0  0  0  0  0  0
   -2.9629   -2.7824    1.2132 C   0  0  0  0  0  0  0  0  0  0  0  0
   -4.8770   -4.1345    1.6902 C   0  0  0  0  0  0  0  0  0  0  0  0
   -5.8634   -3.0533    2.1667 C   0  0  0  0  0  0  0  0  0  0  0  0
    1.6442    0.8657    0.1272 C   0  0  0  0  0  0  0  0  0  0  0  0
   -1.4502    0.9639   -0.0934 C   0  0  0  0  0  0  0  0  0  0  0  0
    1.2951   -0.4563    0.4587 C   0  0  0  0  0  0  0  0  0  0  0  0
   -1.0448   -0.3679    0.0728 C   0  0  0  0  0  0  0  0  0  0  0  0
   -2.7641   -1.3278    3.1660 N   0  0  0  0  0  0  0  0  0  0  0  0
   -3.4327   -3.9582    1.8927 N   0  0  0  0  0  0  0  0  0  0  0  0
    0.0054   -0.7435    0.9214 N   0  0  0  0  0  0  0  0  0  0  0  0
   -6.0056   -1.9949    1.2148 O   0  0  0  0  0  0  0  0  0  0  0  0
    4.6388    0.1756   -1.3292 H   0  0  0  0  0  0  0  0  0  0  0  0
   -4.6036    0.4344   -1.3357 H   0  0  0  0  0  0  0  0  0  0  0  0
    3.9574   -2.1536   -0.7878 H   0  0  0  0  0  0  0  0  0  0  0  0
   -3.6971   -1.8399   -1.4984 H   0  0  0  0  0  0  0  0  0  0  0  0
   -0.4135   -0.6847    4.4573 H   0  0  0  0  0  0  0  0  0  0  0  0
   -0.1056    0.7225    3.4465 H   0  0  0  0  0  0  0  0  0  0  0  0
    3.1829    2.0834   -0.7438 H   0  0  0  0  0  0  0  0  0  0  0  0
   -3.0824    2.2818   -0.6887 H   0  0  0  0  0  0  0  0  0  0  0  0
    1.8118   -2.5546    0.3729 H   0  0  0  0  0  0  0  0  0  0  0  0
   -1.3464   -2.3231   -0.7728 H   0  0  0  0  0  0  0  0  0  0  0  0
    1.2741    2.9441    0.6715 H   0  0  0  0  0  0  0  0  0  0  0  0
   -1.1066    3.0026    0.5486 H   0  0  0  0  0  0  0  0  0  0  0  0
   -2.5489    0.5459    4.1459 H   0  0  0  0  0  0  0  0  0  0  0  0
   -2.2041    0.5953    2.4933 H   0  0  0  0  0  0  0  0  0  0  0  0
   -0.4264   -2.1814    2.4629 H   0  0  0  0  0  0  0  0  0  0  0  0
    1.0323   -1.3337    2.7124 H   0  0  0  0  0  0  0  0  0  0  0  0
   -2.3501   -2.5129    4.8838 H   0  0  0  0  0  0  0  0  0  0  0  0
   -4.0141   -2.4791    4.3506 H   0  0  0  0  0  0  0  0  0  0  0  0
   -4.3295   -1.0699    1.9789 H   0  0  0  0  0  0  0  0  0  0  0  0
   -2.9588   -0.6272    1.2487 H   0  0  0  0  0  0  0  0  0  0  0  0
   -1.7476   -4.0282    3.0734 H   0  0  0  0  0  0  0  0  0  0  0  0
   -3.1439   -4.7440    3.8152 H   0  0  0  0  0  0  0  0  0  0  0  0
   -1.8705   -2.8795    1.1846 H   0  0  0  0  0  0  0  0  0  0  0  0
   -3.2812   -2.9121    0.1867 H   0  0  0  0  0  0  0  0  0  0  0  0
   -5.0314   -4.2200    0.6000 H   0  0  0  0  0  0  0  0  0  0  0  0
   -5.1594   -5.1051    2.0979 H   0  0  0  0  0  0  0  0  0  0  0  0
   -6.8690   -3.4571    2.2538 H   0  0  0  0  0  0  0  0  0  0  0  0
   -5.5987   -2.6645    3.1505 H   0  0  0  0  0  0  0  0  0  0  0  0
   -5.2060   -1.9813    0.6620 H   0  0  0  0  0  0  0  0  0  0  0  0
  1 28  1  0  0  0  0
  2 29  1  0  0  0  0
  3  1  2  0  0  0  0
  3 30  1  0  0  0  0
  4  2  2  0  0  0  0
  4 31  1  0  0  0  0
  5 32  1  0  0  0  0
  5 33  1  0  0  0  0
  6  1  1  0  0  0  0
  6 34  1  0  0  0  0
  7  2  1  0  0  0  0
  7 35  1  0  0  0  0
  8  3  1  0  0  0  0
  8 36  1  0  0  0  0
  9  4  1  0  0  0  0
  9 37  1  0  0  0  0
 10 38  1  0  0  0  0
 11 10  2  0  0  0  0
 11 39  1  0  0  0  0
 12  5  1  0  0  0  0
 12 40  1  0  0  0  0
 12 41  1  0  0  0  0
 13  5  1  0  0  0  0
 13 42  1  0  0  0  0
 13 43  1  0  0  0  0
 14 44  1  0  0  0  0
 14 45  1  0  0  0  0
 15 46  1  0  0  0  0
 15 47  1  0  0  0  0
 16 14  1  0  0  0  0
 16 48  1  0  0  0  0
 16 49  1  0  0  0  0
 17 15  1  0  0  0  0
 17 50  1  0  0  0  0
 17 51  1  0  0  0  0
 18 52  1  0  0  0  0
 18 53  1  0  0  0  0
 19 18  1  0  0  0  0
 19 54  1  0  0  0  0
 19 55  1  0  0  0  0
 20  6  2  0  0  0  0
 20 10  1  0  0  0  0
 21  7  2  0  0  0  0
 21 11  1  0  0  0  0
 22  8  2  0  0  0  0
 22 20  1  0  0  0  0
 23  9  2  0  0  0  0
 23 21  1  0  0  0  0
 24 12  1  0  0  0  0
 24 14  1  0  0  0  0
 24 15  1  0  0  0  0
 25 16  1  0  0  0  0
 25 17  1  0  0  0  0
 25 18  1  0  0  0  0
 26 13  1  0  0  0  0
 26 22  1  0  0  0  0
 26 23  1  0  0  0  0
 27 19  1  0  0  0  0
 27 56  1  0  0  0  0
M  END
>  <DRUGBANK_ID>
DB12930

>  <COMMON_NAME>
Opipramol

>  <CAS_NUMBER>
315-72-0

>  <UNII>
D23ZXO613C

>  <SYNONYMS>
Opipramol

$$$$
