
 OpenBabel10282417193D

 45 47  0  0  0  0  0  0  0  0999 V2000
    0.8278    0.1627   -0.0355 C   0  0  0  0  0  0  0  0  0  0  0  0
    0.5266    0.1868   -1.5279 C   0  0  0  0  0  0  0  0  0  0  0  0
    0.9881   -0.9336   -2.2998 O   0  0  0  0  0  0  0  0  0  0  0  0
    2.3349   -1.1330   -2.4099 C   0  0  0  0  0  0  0  0  0  0  0  0
    3.1872   -1.1770   -1.3104 C   0  0  0  0  0  0  0  0  0  0  0  0
    4.5394   -1.4348   -1.4420 C   0  0  0  0  0  0  0  0  0  0  0  0
    5.0460   -1.7819   -2.6812 C   0  0  0  0  0  0  0  0  0  0  0  0
    4.1828   -1.8771   -3.7797 C   0  0  0  0  0  0  0  0  0  0  0  0
    2.8416   -1.4942   -3.6583 C   0  0  0  0  0  0  0  0  0  0  0  0
    6.4745   -2.0041   -2.7950 C   0  0  0  0  0  0  0  0  0  0  0  0
    7.2661   -2.9073   -2.1046 C   0  0  0  0  0  0  0  0  0  0  0  0
    8.5952   -2.7790   -2.5758 C   0  0  0  0  0  0  0  0  0  0  0  0
    8.5733   -1.7951   -3.5430 C   0  0  0  0  0  0  0  0  0  0  0  0
    7.2946   -1.2980   -3.6552 N   0  0  0  0  0  0  0  0  0  0  0  0
    6.9143   -0.2716   -4.5509 C   0  0  0  0  0  0  0  0  0  0  0  0
    6.3294    0.9128   -4.0838 C   0  0  0  0  0  0  0  0  0  0  0  0
    5.9499    1.9020   -5.0002 C   0  0  0  0  0  0  0  0  0  0  0  0
    6.1453    1.6854   -6.3691 C   0  0  0  0  0  0  0  0  0  0  0  0
    6.7642    0.5129   -6.8233 C   0  0  0  0  0  0  0  0  0  0  0  0
    7.1231   -0.4809   -5.9152 C   0  0  0  0  0  0  0  0  0  0  0  0
    5.5686    2.8234   -7.6009 S   0  0  0  0  0  0  0  0  0  0  0  0
    6.7127    3.4030   -8.2531 O   0  0  0  0  0  0  0  0  0  0  0  0
    4.5045    2.1709   -8.3380 O   0  0  0  0  0  0  0  0  0  0  0  0
    4.8445    4.0868   -6.7516 N   0  0  0  0  0  0  0  0  0  0  0  0
    9.7784   -3.5490   -2.1293 C   0  0  0  0  0  0  0  0  0  0  0  0
    0.6377   -0.8293    0.3897 H   0  0  0  0  0  0  0  0  0  0  0  0
    0.2523    0.9120    0.5097 H   0  0  0  0  0  0  0  0  0  0  0  0
    1.8658    0.4436    0.1573 H   0  0  0  0  0  0  0  0  0  0  0  0
   -0.5661    0.1707   -1.6253 H   0  0  0  0  0  0  0  0  0  0  0  0
    0.8683    1.1224   -1.9832 H   0  0  0  0  0  0  0  0  0  0  0  0
    2.8458   -1.0802   -0.2962 H   0  0  0  0  0  0  0  0  0  0  0  0
    5.1751   -1.3884   -0.5624 H   0  0  0  0  0  0  0  0  0  0  0  0
    4.5536   -2.2478   -4.7326 H   0  0  0  0  0  0  0  0  0  0  0  0
    2.2029   -1.5032   -4.5382 H   0  0  0  0  0  0  0  0  0  0  0  0
    6.9102   -3.6025   -1.3521 H   0  0  0  0  0  0  0  0  0  0  0  0
    9.3764   -1.3703   -4.1293 H   0  0  0  0  0  0  0  0  0  0  0  0
    6.1763    1.0792   -3.0192 H   0  0  0  0  0  0  0  0  0  0  0  0
    5.4974    2.8172   -4.6301 H   0  0  0  0  0  0  0  0  0  0  0  0
    6.9496    0.3591   -7.8839 H   0  0  0  0  0  0  0  0  0  0  0  0
    7.4972   -1.4367   -6.2760 H   0  0  0  0  0  0  0  0  0  0  0  0
    5.5372    4.6302   -6.2390 H   0  0  0  0  0  0  0  0  0  0  0  0
    4.3506    4.6781   -7.4263 H   0  0  0  0  0  0  0  0  0  0  0  0
   10.2206   -4.0792   -2.9781 H   0  0  0  0  0  0  0  0  0  0  0  0
   10.5304   -2.8763   -1.7056 H   0  0  0  0  0  0  0  0  0  0  0  0
    9.5082   -4.2863   -1.3670 H   0  0  0  0  0  0  0  0  0  0  0  0
  1  2  1  0  0  0  0
  1 26  1  0  0  0  0
  1 27  1  0  0  0  0
  1 28  1  0  0  0  0
  2  3  1  0  0  0  0
  2 29  1  0  0  0  0
  2 30  1  0  0  0  0
  3  4  1  0  0  0  0
  4  5  2  0  0  0  0
  4  9  1  0  0  0  0
  5  6  1  0  0  0  0
  5 31  1  0  0  0  0
  6  7  2  0  0  0  0
  6 32  1  0  0  0  0
  7  8  1  0  0  0  0
  7 10  1  0  0  0  0
  8  9  2  0  0  0  0
  8 33  1  0  0  0  0
  9 34  1  0  0  0  0
 10 11  2  0  0  0  0
 10 14  1  0  0  0  0
 11 12  1  0  0  0  0
 11 35  1  0  0  0  0
 12 13  2  0  0  0  0
 12 25  1  0  0  0  0
 13 14  1  0  0  0  0
 13 36  1  0  0  0  0
 14 15  1  0  0  0  0
 15 16  2  0  0  0  0
 15 20  1  0  0  0  0
 16 17  1  0  0  0  0
 16 37  1  0  0  0  0
 17 18  2  0  0  0  0
 17 38  1  0  0  0  0
 18 19  1  0  0  0  0
 18 21  1  0  0  0  0
 19 20  2  0  0  0  0
 19 39  1  0  0  0  0
 20 40  1  0  0  0  0
 21 22  2  0  0  0  0
 21 23  2  0  0  0  0
 21 24  1  0  0  0  0
 24 41  1  0  0  0  0
 24 42  1  0  0  0  0
 25 43  1  0  0  0  0
 25 44  1  0  0  0  0
 25 45  1  0  0  0  0
M  END
>  <DRUGBANK_ID>
DB12378

>  <COMMON_NAME>
Apricoxib

>  <CAS_NUMBER>
197904-84-0

>  <UNII>
5X5HB3VZ3Z

>  <SYNONYMS>
Apricoxib

$$$$
