
 OpenBabel10282417183D

 31 29  0  0  0  0  0  0  0  0999 V2000
    0.9526   -0.0728    0.0495 Sr  0  2  0  0  0  0  0  0  0  0  0  0
    0.9328   -0.0273    0.0688 Sr  0  2  0  0  0  0  0  0  0  0  0  0
    0.9794   -0.0316   -0.0926 O   0  0  0  0  0  0  0  0  0  0  0  0
    2.2503   -0.0316   -0.0926 C   0  0  0  0  0  0  0  0  0  0  0  0
    2.9603    0.9051    0.7042 O   0  5  0  0  0  0  0  0  0  0  0  0
    3.0103   -1.0343   -0.9455 C   0  0  0  0  0  0  0  0  0  0  0  0
    2.6551   -2.3991   -0.5308 N   0  0  0  0  0  0  0  0  0  0  0  0
    2.0426   -3.3244   -1.4950 C   0  0  0  0  0  0  0  0  0  0  0  0
    2.9312   -4.5466   -1.6590 C   0  0  0  0  0  0  0  0  0  0  0  0
    2.4812   -5.7017   -1.3787 O   0  0  0  0  0  0  0  0  0  0  0  0
    4.2642   -4.3979   -2.1254 O   0  5  0  0  0  0  0  0  0  0  0  0
    2.9125   -2.8387    0.8481 C   0  0  0  0  0  0  0  0  0  0  0  0
    2.6238   -2.0919    1.9636 C   0  0  0  0  0  0  0  0  0  0  0  0
    1.9579   -0.8267    1.9680 C   0  0  0  0  0  0  0  0  0  0  0  0
    1.4384    0.1824    2.0041 N   0  0  0  0  0  0  0  0  0  0  0  0
    3.0670   -2.6922    3.1821 C   0  0  0  0  0  0  0  0  0  0  0  0
    2.8467   -2.0826    4.5570 C   0  0  0  0  0  0  0  0  0  0  0  0
    2.0312   -3.0398    5.4109 C   0  0  0  0  0  0  0  0  0  0  0  0
    2.5137   -3.4917    6.4963 O   0  0  0  0  0  0  0  0  0  0  0  0
    0.7302   -3.4291    4.9958 O   0  5  0  0  0  0  0  0  0  0  0  0
    3.7049   -3.8650    2.9706 C   0  0  0  0  0  0  0  0  0  0  0  0
    4.3060   -4.7202    4.0741 C   0  0  0  0  0  0  0  0  0  0  0  0
    4.2248   -4.3439    5.2853 O   0  0  0  0  0  0  0  0  0  0  0  0
    4.9582   -5.9397    3.7517 O   0  5  0  0  0  0  0  0  0  0  0  0
    3.7530   -4.2684    1.3115 S   0  0  0  0  0  0  0  0  0  0  0  0
    2.7518   -0.8956   -1.9745 H   0  0  0  0  0  0  0  0  0  0  0  0
    4.0623   -0.8853   -0.8188 H   0  0  0  0  0  0  0  0  0  0  0  0
    1.0812   -3.6279   -1.1367 H   0  0  0  0  0  0  0  0  0  0  0  0
    1.9328   -2.8339   -2.4396 H   0  0  0  0  0  0  0  0  0  0  0  0
    3.7928   -1.9054    5.0244 H   0  0  0  0  0  0  0  0  0  0  0  0
    2.3197   -1.1569    4.4564 H   0  0  0  0  0  0  0  0  0  0  0  0
  3  4  2  0  0  0  0
  4  5  1  0  0  0  0
  4  6  1  0  0  0  0
  6  7  1  0  0  0  0
  6 26  1  0  0  0  0
  6 27  1  0  0  0  0
  7  8  1  0  0  0  0
  7 12  1  0  0  0  0
  8  9  1  0  0  0  0
  8 28  1  0  0  0  0
  8 29  1  0  0  0  0
  9 10  2  0  0  0  0
  9 11  1  0  0  0  0
 12 13  2  0  0  0  0
 12 25  1  0  0  0  0
 13 14  1  0  0  0  0
 13 16  1  0  0  0  0
 14 15  3  0  0  0  0
 16 17  1  0  0  0  0
 16 21  2  0  0  0  0
 17 18  1  0  0  0  0
 17 30  1  0  0  0  0
 17 31  1  0  0  0  0
 18 19  2  0  0  0  0
 18 20  1  0  0  0  0
 21 22  1  0  0  0  0
 21 25  1  0  0  0  0
 22 23  2  0  0  0  0
 22 24  1  0  0  0  0
M  CHG  6   1   2   2   2   5  -1  11  -1  20  -1  24  -1
M  END
>  <DRUGBANK_ID>
DB09267

>  <COMMON_NAME>
Strontium ranelate

>  <CAS_NUMBER>
135459-87-9

>  <UNII>
04NQ160FRU

$$$$
