1AE
 OpenBabel10282417163D

 24 23  0  0  0  0  0  0  0  0999 V2000
    1.0527    0.0750    0.1485 C   0  0  0  0  0  0  0  0  0  0  0  0
    0.5527    1.2938   -0.6041 C   0  0  0  0  0  0  0  0  0  0  0  0
    1.0795    1.3436   -2.0317 C   0  0  0  0  0  0  0  0  0  0  0  0
    0.6221    0.1724   -2.8899 C   0  0  0  0  0  0  0  0  0  0  0  0
    0.8737   -1.0083   -2.6015 O   0  0  0  0  0  0  0  0  0  0  0  0
   -0.1325    0.5019   -4.1347 C   0  0  0  0  0  0  0  0  0  0  0  0
   -0.1563    1.8264   -4.5073 O   0  0  0  0  0  0  0  0  0  0  0  0
   -0.7338   -0.4857   -4.8194 C   0  0  0  0  0  0  0  0  0  0  0  0
   -1.4947   -0.3868   -5.9723 O   0  0  0  0  0  0  0  0  0  0  0  0
   -2.4271    0.8032   -6.5666 P   0  0  0  0  0  0  0  0  0  0  0  0
   -0.9339    1.0654   -7.2243 O   0  0  0  0  0  0  0  0  0  0  0  0
   -2.7202    1.3990   -5.2020 O   0  0  0  0  0  0  0  0  0  0  0  0
   -2.4743    2.3116   -7.1161 O   0  0  0  0  0  0  0  0  0  0  0  0
    0.6675   -0.8492   -0.2880 H   0  0  0  0  0  0  0  0  0  0  0  0
    0.7160    0.0969    1.1868 H   0  0  0  0  0  0  0  0  0  0  0  0
    2.1462    0.0367    0.1286 H   0  0  0  0  0  0  0  0  0  0  0  0
   -0.5438    1.3104   -0.6030 H   0  0  0  0  0  0  0  0  0  0  0  0
    0.8851    2.1978   -0.0778 H   0  0  0  0  0  0  0  0  0  0  0  0
    0.7415    2.2919   -2.4631 H   0  0  0  0  0  0  0  0  0  0  0  0
    2.1737    1.3708   -2.0581 H   0  0  0  0  0  0  0  0  0  0  0  0
   -0.8507    1.9190   -5.1801 H   0  0  0  0  0  0  0  0  0  0  0  0
   -0.6632   -1.5302   -4.5278 H   0  0  0  0  0  0  0  0  0  0  0  0
   -0.5471    0.2151   -7.5211 H   0  0  0  0  0  0  0  0  0  0  0  0
   -2.5809    2.8807   -6.3201 H   0  0  0  0  0  0  0  0  0  0  0  0
  1  2  1  0  0  0  0
  1 14  1  0  0  0  0
  1 15  1  0  0  0  0
  1 16  1  0  0  0  0
  2  3  1  0  0  0  0
  2 17  1  0  0  0  0
  2 18  1  0  0  0  0
  3  4  1  0  0  0  0
  3 19  1  0  0  0  0
  3 20  1  0  0  0  0
  4  6  1  0  0  0  0
  4  5  2  0  0  0  0
  6  8  2  0  0  0  0
  6  7  1  0  0  0  0
  7 21  1  0  0  0  0
  8  9  1  0  0  0  0
  8 22  1  0  0  0  0
  9 10  1  0  0  0  0
 10 12  2  0  0  0  0
 10 11  1  0  0  0  0
 10 13  1  0  0  0  0
 11 23  1  0  0  0  0
 13 24  1  0  0  0  0
M  END
>  <DRUGBANK_ID>
DB06881

>  <COMMON_NAME>
(1Z)-2-HYDROXY-3-OXOHEX-1-EN-1-YL DIHYDROGEN PHOSPHATE

$$$$
