Untitled Document-2
 OpenBabel10282417203D

 46 49  0  0  0  0  0  0  0  0999 V2000
    3.8272   -1.3726    4.3229 C   0  0  0  0  0  0  0  0  0  0  0  0
    3.1782   -1.6595    2.9461 C   0  0  0  0  0  0  0  0  0  0  0  0
    3.0178   -0.4673    2.0377 C   0  0  0  0  0  0  0  0  0  0  0  0
    2.1931    0.2708    2.8074 C   0  0  0  0  0  0  0  0  0  0  0  0
    2.6953    0.8163    4.1167 C   0  0  2  0  0  0  0  0  0  0  0  0
    4.0940    0.1460    4.3666 C   0  0  0  0  0  0  0  0  0  0  0  0
    0.7154    0.3096    2.5759 C   0  0  0  0  0  0  0  0  0  0  0  0
   -0.2259    0.1028    3.8596 C   0  0  0  0  0  0  0  0  0  0  0  0
    0.1692    1.0897    5.0639 C   0  0  2  0  0  0  0  0  0  0  0  0
    1.7067    0.6018    5.3207 C   0  0  2  0  0  0  0  0  0  0  0  0
   -0.9622    1.5965    6.4912 C   0  0  1  0  0  0  0  0  0  0  0  0
    0.1569    1.4252    7.3794 C   0  0  2  0  0  0  0  0  0  0  0  0
    1.5029    0.9091    7.6651 C   0  0  0  0  0  0  0  0  0  0  0  0
    2.3788    1.2225    6.5221 C   0  0  0  0  0  0  0  0  0  0  0  0
   -1.1061    2.6182    8.2092 C   0  0  0  0  0  0  0  0  0  0  0  0
   -0.8521    1.7246    9.4514 C   0  0  0  0  0  0  0  0  0  0  0  0
   -0.9245    0.6847    8.4598 C   0  0  2  0  0  0  0  0  0  0  0  0
    2.6460   -2.6904    2.6190 O   0  0  0  0  0  0  0  0  0  0  0  0
    2.8282    1.8940    3.9594 H   0  0  0  0  0  0  0  0  0  0  0  0
    0.2078    2.0009    4.4690 H   0  0  0  0  0  0  0  0  0  0  0  0
    0.3937    3.1395    6.6202 C   0  0  0  0  0  0  0  0  0  0  0  0
   -0.6542   -0.6084    8.9154 O   0  0  0  0  0  0  0  0  0  0  0  0
    1.6150   -0.4746    5.5329 H   0  0  0  0  0  0  0  0  0  0  0  0
   -1.8050    0.9072    6.4085 H   0  0  0  0  0  0  0  0  0  0  0  0
    3.1375   -1.6125    5.1373 H   0  0  0  0  0  0  0  0  0  0  0  0
    4.6903   -2.0206    4.4718 H   0  0  0  0  0  0  0  0  0  0  0  0
    2.8452   -0.7527    1.0057 H   0  0  0  0  0  0  0  0  0  0  0  0
    4.5602    0.5183    5.2798 H   0  0  0  0  0  0  0  0  0  0  0  0
    4.8246    0.4092    3.5833 H   0  0  0  0  0  0  0  0  0  0  0  0
    0.5291    1.2873    2.1335 H   0  0  0  0  0  0  0  0  0  0  0  0
    0.4742   -0.4558    1.8201 H   0  0  0  0  0  0  0  0  0  0  0  0
   -1.2408    0.2828    3.5077 H   0  0  0  0  0  0  0  0  0  0  0  0
   -0.1505   -0.9591    4.1538 H   0  0  0  0  0  0  0  0  0  0  0  0
    1.9008    1.4079    8.5567 H   0  0  0  0  0  0  0  0  0  0  0  0
    1.4959   -0.1655    7.8777 H   0  0  0  0  0  0  0  0  0  0  0  0
    2.5215    2.2921    6.3607 H   0  0  0  0  0  0  0  0  0  0  0  0
    3.3668    0.8421    6.7665 H   0  0  0  0  0  0  0  0  0  0  0  0
   -1.8435    3.4024    8.4043 H   0  0  0  0  0  0  0  0  0  0  0  0
   -0.2309    3.2671    8.4632 H   0  0  0  0  0  0  0  0  0  0  0  0
   -1.5875    1.7059   10.2561 H   0  0  0  0  0  0  0  0  0  0  0  0
    0.1571    1.7318    9.9051 H   0  0  0  0  0  0  0  0  0  0  0  0
   -2.0141    0.6620    8.1985 H   0  0  0  0  0  0  0  0  0  0  0  0
    0.8794    3.1624    5.6452 H   0  0  0  0  0  0  0  0  0  0  0  0
   -0.5890    3.6401    6.3584 H   0  0  0  0  0  0  0  0  0  0  0  0
    0.9555    3.8392    7.2329 H   0  0  0  0  0  0  0  0  0  0  0  0
   -1.1678   -0.7070    9.7389 H   0  0  0  0  0  0  0  0  0  0  0  0
  1  2  1  0  0  0  0
  1 25  1  0  0  0  0
  1 26  1  0  0  0  0
  2  3  1  0  0  0  0
  2 18  2  0  0  0  0
  3  4  2  0  0  0  0
  3 27  1  0  0  0  0
  4  5  1  0  0  0  0
  4  7  1  0  0  0  0
  5  6  1  0  0  0  0
  5 19  1  6  0  0  0
  6  1  1  0  0  0  0
  6 28  1  0  0  0  0
  6 29  1  0  0  0  0
  7  8  1  0  0  0  0
  7 30  1  0  0  0  0
  7 31  1  0  0  0  0
  8  9  1  0  0  0  0
  8 32  1  0  0  0  0
  8 33  1  0  0  0  0
  9 10  1  0  0  0  0
  9 11  1  0  0  0  0
  9 20  1  6  0  0  0
 10  5  1  0  0  0  0
 10 23  1  1  0  0  0
 11 12  1  0  0  0  0
 11 15  1  0  0  0  0
 11 24  1  1  0  0  0
 12 13  1  0  0  0  0
 12 21  1  1  0  0  0
 13 14  1  0  0  0  0
 13 34  1  0  0  0  0
 13 35  1  0  0  0  0
 14 10  1  0  0  0  0
 14 36  1  0  0  0  0
 14 37  1  0  0  0  0
 15 16  1  0  0  0  0
 15 38  1  0  0  0  0
 15 39  1  0  0  0  0
 16 17  1  0  0  0  0
 16 40  1  0  0  0  0
 16 41  1  0  0  0  0
 17 12  1  0  0  0  0
 17 42  1  6  0  0  0
 17 22  1  0  0  0  0
 21 43  1  0  0  0  0
 21 44  1  0  0  0  0
 21 45  1  0  0  0  0
 22 46  1  0  0  0  0
M  END
>  <DRUGBANK_ID>
DB13169

>  <COMMON_NAME>
Nandrolone

>  <CAS_NUMBER>
434-22-0

>  <UNII>
6PG9VR430D

>  <SYNONYMS>
(17Î²)-17-hydroxyestr-4-en-3-one; 19-norandrostenolone; 19-nortestosterone; Nandrolona; Nandrolone; Nandrolonum

$$$$
