NOQ
 OpenBabel10282417173D

 50 51  0  0  0  0  0  0  0  0999 V2000
   -1.3075    6.6924    3.1827 C   0  0  0  0  0  0  0  0  0  0  0  0
   -1.3192    8.0244    2.7871 C   0  0  0  0  0  0  0  0  0  0  0  0
   -1.1387    8.3405    1.4342 C   0  0  0  0  0  0  0  0  0  0  0  0
   -0.8786    7.3435    0.4938 C   0  0  0  0  0  0  0  0  0  0  0  0
   -1.1445    5.6927    2.2333 C   0  0  0  0  0  0  0  0  0  0  0  0
   -0.8102    6.0266    0.9191 C   0  0  0  0  0  0  0  0  0  0  0  0
   -1.5191    9.0808    3.6313 O   0  0  0  0  0  0  0  0  0  0  0  0
    0.5591    0.6748   -1.5532 C   0  0  0  0  0  0  0  0  0  0  0  0
    1.0872    1.4616   -0.4520 N   0  0  0  0  0  0  0  0  0  0  0  0
    0.9790    1.1158    0.8749 C   0  0  0  0  0  0  0  0  0  0  0  0
    0.4216    0.0733    1.2149 O   0  0  0  0  0  0  0  0  0  0  0  0
    1.6456    2.0604    1.9221 C   0  0  2  0  0  0  0  0  0  0  0  0
    1.3539    1.4931    3.3432 C   0  0  0  0  0  0  0  0  0  0  0  0
    1.8769    2.3729    4.4796 C   0  0  0  0  0  0  0  0  0  0  0  0
    1.3179    3.7812    4.3986 C   0  0  0  0  0  0  0  0  0  0  0  0
    1.6586    4.3720    3.0488 C   0  0  0  0  0  0  0  0  0  0  0  0
    1.1268    3.5098    1.8876 C   0  0  1  0  0  0  0  0  0  0  0  0
    1.3947    4.2972    0.6096 C   0  0  0  0  0  0  0  0  0  0  0  0
   -0.1453    4.7991   -0.1688 S   0  0  0  0  0  0  0  0  0  0  0  0
   -1.0776    3.6985   -0.1764 O   0  0  0  0  0  0  0  0  0  0  0  0
    0.2321    5.4400   -1.4197 O   0  0  0  0  0  0  0  0  0  0  0  0
   -1.7578    8.7489    4.9979 C   0  0  0  0  0  0  0  0  0  0  0  0
   -0.4849    1.4521   -2.3724 C   0  0  0  0  0  0  0  0  0  0  0  0
    0.0708    2.6651   -2.9934 N   0  0  0  0  0  0  0  0  0  0  0  0
    2.7277    2.0489    1.7525 H   0  0  0  0  0  0  0  0  0  0  0  0
    0.0529    3.3708    2.0161 H   0  0  0  0  0  0  0  0  0  0  0  0
   -1.3984    6.3911    4.2217 H   0  0  0  0  0  0  0  0  0  0  0  0
   -1.1735    9.3757    1.1079 H   0  0  0  0  0  0  0  0  0  0  0  0
   -0.7210    7.5957   -0.5520 H   0  0  0  0  0  0  0  0  0  0  0  0
   -1.2219    4.6688    2.5786 H   0  0  0  0  0  0  0  0  0  0  0  0
    1.4200    0.4445   -2.1915 H   0  0  0  0  0  0  0  0  0  0  0  0
    0.1402   -0.2641   -1.1856 H   0  0  0  0  0  0  0  0  0  0  0  0
    1.5850    2.2581   -0.7875 H   0  0  0  0  0  0  0  0  0  0  0  0
    0.2672    1.3760    3.4753 H   0  0  0  0  0  0  0  0  0  0  0  0
    1.7856    0.4914    3.4409 H   0  0  0  0  0  0  0  0  0  0  0  0
    1.6089    1.9360    5.4472 H   0  0  0  0  0  0  0  0  0  0  0  0
    2.9707    2.4158    4.4301 H   0  0  0  0  0  0  0  0  0  0  0  0
    0.2302    3.7711    4.5466 H   0  0  0  0  0  0  0  0  0  0  0  0
    1.7399    4.4114    5.1894 H   0  0  0  0  0  0  0  0  0  0  0  0
    1.2569    5.3886    3.0024 H   0  0  0  0  0  0  0  0  0  0  0  0
    2.7441    4.4889    2.9524 H   0  0  0  0  0  0  0  0  0  0  0  0
    2.0114    3.7541   -0.0988 H   0  0  0  0  0  0  0  0  0  0  0  0
    1.9872    5.2039    0.7738 H   0  0  0  0  0  0  0  0  0  0  0  0
   -2.6233    8.0840    5.1074 H   0  0  0  0  0  0  0  0  0  0  0  0
   -0.8644    8.3022    5.4491 H   0  0  0  0  0  0  0  0  0  0  0  0
   -1.9820    9.6716    5.5381 H   0  0  0  0  0  0  0  0  0  0  0  0
   -0.8591    0.8075   -3.1728 H   0  0  0  0  0  0  0  0  0  0  0  0
   -1.3381    1.7193   -1.7407 H   0  0  0  0  0  0  0  0  0  0  0  0
   -0.6875    3.1461   -3.4836 H   0  0  0  0  0  0  0  0  0  0  0  0
    0.3172    3.3375   -2.2696 H   0  0  0  0  0  0  0  0  0  0  0  0
  1  2  2  0  0  0  0
  1  5  1  0  0  0  0
  1 27  1  0  0  0  0
  2  3  1  0  0  0  0
  2  7  1  0  0  0  0
  3  4  2  0  0  0  0
  3 28  1  0  0  0  0
  4  6  1  0  0  0  0
  4 29  1  0  0  0  0
  5  6  2  0  0  0  0
  5 30  1  0  0  0  0
  6 19  1  0  0  0  0
  7 22  1  0  0  0  0
  8  9  1  0  0  0  0
  8 23  1  0  0  0  0
  8 31  1  0  0  0  0
  8 32  1  0  0  0  0
  9 10  1  0  0  0  0
  9 33  1  0  0  0  0
 10 11  2  0  0  0  0
 12 13  1  0  0  0  0
 12 17  1  0  0  0  0
 12 25  1  6  0  0  0
 12 10  1  0  0  0  0
 13 14  1  0  0  0  0
 13 34  1  0  0  0  0
 13 35  1  0  0  0  0
 14 15  1  0  0  0  0
 14 36  1  0  0  0  0
 14 37  1  0  0  0  0
 15 16  1  0  0  0  0
 15 38  1  0  0  0  0
 15 39  1  0  0  0  0
 16 17  1  0  0  0  0
 16 40  1  0  0  0  0
 16 41  1  0  0  0  0
 17 26  1  1  0  0  0
 17 18  1  0  0  0  0
 18 19  1  0  0  0  0
 18 42  1  0  0  0  0
 18 43  1  0  0  0  0
 19 20  2  0  0  0  0
 19 21  2  0  0  0  0
 22 44  1  0  0  0  0
 22 45  1  0  0  0  0
 22 46  1  0  0  0  0
 23 24  1  0  0  0  0
 23 47  1  0  0  0  0
 23 48  1  0  0  0  0
 24 49  1  0  0  0  0
 24 50  1  0  0  0  0
M  END
>  <DRUGBANK_ID>
DB08287

>  <COMMON_NAME>
(1R,2R)-N-(2-Aminoethyl)-2-{[(4-methoxyphenyl)sulfonyl]methyl}cyclohexanecarboxamide

$$$$
