1054
 OpenBabel10282417113D

 46 47  0  0  1  0  0  0  0  0999 V2000
    1.0022    0.1652   -0.1733 O   0  0  0  0  0  0  0  0  0  0  0  0
   -5.4520    3.4535    2.0548 O   0  0  0  0  0  0  0  0  0  0  0  0
    1.0749    1.3593    1.7862 O   0  0  0  0  0  0  0  0  0  0  0  0
   -3.8349    4.3704    0.8987 O   0  0  0  0  0  0  0  0  0  0  0  0
    2.7177    6.0706    1.8639 O   0  5  0  0  0  0  0  0  0  0  0  0
    2.6898    4.3447    0.5094 O   0  0  0  0  0  0  0  0  0  0  0  0
   -3.0141   -0.3194    0.7231 N   0  0  0  0  0  0  0  0  0  0  0  0
    2.1573    5.0981    1.3400 N   0  3  0  0  0  0  0  0  0  0  0  0
   -1.8883    2.2488    0.7751 C   0  0  3  0  0  0  0  0  0  0  0  0
   -1.0399    0.9158    0.7493 C   0  0  0  0  0  0  0  0  0  0  0  0
   -3.4446    2.0165    1.1358 C   0  0  0  0  0  0  0  0  0  0  0  0
   -1.1738    3.3698    1.5489 C   0  0  0  0  0  0  0  0  0  0  0  0
   -1.6601   -0.2801    0.7553 C   0  0  0  0  0  0  0  0  0  0  0  0
   -3.8265    0.7059    1.0995 C   0  0  0  0  0  0  0  0  0  0  0  0
    0.0781    3.8052    1.0792 C   0  0  0  0  0  0  0  0  0  0  0  0
    0.4336    0.8556    0.8502 C   0  0  0  0  0  0  0  0  0  0  0  0
   -1.7226    4.0612    2.6362 C   0  0  0  0  0  0  0  0  0  0  0  0
   -1.0675   -1.6520    0.8806 C   0  0  0  0  0  0  0  0  0  0  0  0
   -5.1298    0.1201    1.4312 C   0  0  0  0  0  0  0  0  0  0  0  0
   -4.2923    3.3087    1.3341 C   0  0  0  0  0  0  0  0  0  0  0  0
    0.7735    4.8238    1.7271 C   0  0  0  0  0  0  0  0  0  0  0  0
   -1.1439    5.2418    3.0994 C   0  0  0  0  0  0  0  0  0  0  0  0
    0.1429    5.5864    2.7065 C   0  0  0  0  0  0  0  0  0  0  0  0
    2.4369    0.0764   -0.0865 C   0  0  0  0  0  0  0  0  0  0  0  0
   -6.4910    2.5051    2.3104 C   0  0  0  0  0  0  0  0  0  0  0  0
    2.9567   -1.0151   -1.0051 C   0  0  0  0  0  0  0  0  0  0  0  0
   -3.4326   -1.2483    0.7436 H   0  0  0  0  0  0  0  0  0  0  0  0
   -1.9182    2.6052   -0.2704 H   0  0  0  0  0  0  0  0  0  0  0  0
    0.5468    3.2998    0.2372 H   0  0  0  0  0  0  0  0  0  0  0  0
   -2.6690    3.7757    3.0838 H   0  0  0  0  0  0  0  0  0  0  0  0
   -1.4125   -2.0923    1.8252 H   0  0  0  0  0  0  0  0  0  0  0  0
   -1.4392   -2.2781    0.0618 H   0  0  0  0  0  0  0  0  0  0  0  0
    0.0169   -1.6866    0.8833 H   0  0  0  0  0  0  0  0  0  0  0  0
   -5.6984   -0.3741    0.6460 H   0  0  0  0  0  0  0  0  0  0  0  0
   -5.1804   -0.3722    2.4070 H   0  0  0  0  0  0  0  0  0  0  0  0
   -5.6366    0.9994    1.4987 H   0  0  0  0  0  0  0  0  0  0  0  0
   -1.7196    5.8936    3.7517 H   0  0  0  0  0  0  0  0  0  0  0  0
    0.6258    6.4448    3.1605 H   0  0  0  0  0  0  0  0  0  0  0  0
    2.8501    1.0415   -0.3941 H   0  0  0  0  0  0  0  0  0  0  0  0
    2.7603   -0.1486    0.9381 H   0  0  0  0  0  0  0  0  0  0  0  0
   -6.8254    2.1238    1.3317 H   0  0  0  0  0  0  0  0  0  0  0  0
   -6.0913    1.8034    3.0556 H   0  0  0  0  0  0  0  0  0  0  0  0
   -7.4254    2.8674    2.7355 H   0  0  0  0  0  0  0  0  0  0  0  0
    2.6111   -0.8586   -2.0307 H   0  0  0  0  0  0  0  0  0  0  0  0
    4.0522   -1.0327   -1.0009 H   0  0  0  0  0  0  0  0  0  0  0  0
    2.5968   -1.9993   -0.6866 H   0  0  0  0  0  0  0  0  0  0  0  0
  1 16  1  0  0  0  0
  1 24  1  0  0  0  0
  2 20  1  0  0  0  0
  2 25  1  0  0  0  0
  3 16  2  0  0  0  0
  4 20  2  0  0  0  0
  5  8  1  0  0  0  0
  6  8  2  0  0  0  0
  7 13  1  0  0  0  0
  7 14  1  0  0  0  0
  7 27  1  0  0  0  0
  8 21  1  0  0  0  0
  9 10  1  0  0  0  0
  9 11  1  0  0  0  0
  9 12  1  0  0  0  0
  9 28  1  0  0  0  0
 10 13  2  0  0  0  0
 10 16  1  0  0  0  0
 11 14  2  0  0  0  0
 11 20  1  0  0  0  0
 12 15  2  0  0  0  0
 12 17  1  0  0  0  0
 13 18  1  0  0  0  0
 14 19  1  0  0  0  0
 15 21  1  0  0  0  0
 15 29  1  0  0  0  0
 17 22  2  0  0  0  0
 17 30  1  0  0  0  0
 18 31  1  0  0  0  0
 18 32  1  0  0  0  0
 18 33  1  0  0  0  0
 19 34  1  0  0  0  0
 19 35  1  0  0  0  0
 19 36  1  0  0  0  0
 21 23  2  0  0  0  0
 22 23  1  0  0  0  0
 22 37  1  0  0  0  0
 23 38  1  0  0  0  0
 24 26  1  0  0  0  0
 24 39  1  0  0  0  0
 24 40  1  0  0  0  0
 25 41  1  0  0  0  0
 25 42  1  0  0  0  0
 25 43  1  0  0  0  0
 26 44  1  0  0  0  0
 26 45  1  0  0  0  0
 26 46  1  0  0  0  0
M  CHG  2   5  -1   8   1
M  END
>  <DRUGBANK_ID>
DB01054

>  <SECONDARY_ACCESSION_NUMBERS>
APRD00421

>  <COMMON_NAME>
Nitrendipine

>  <CAS_NUMBER>
39562-70-4

>  <UNII>
9B627AW319

>  <SYNONYMS>
1,4-dihydro-2,6-dimethyl-4-(3-nitrophenyl)-3,5-pyridinedicarboxylic acid ethyl methyl ester; Nitrendipine; Nitrendipino; Nitrendipinum

$$$$
