
 OpenBabel10282417103D

 49 50  0  0  0  0  0  0  0  0999 V2000
   -1.5677   -0.0144   -0.1134 C   0  0  0  0  0  0  0  0  0  0  0  0
   -0.8416    1.2173    0.4098 C   0  0  0  0  0  0  0  0  0  0  0  0
    0.5908    1.1750   -0.0698 C   0  0  0  0  0  0  0  0  0  0  0  0
    1.3419   -0.0408    0.2162 N   0  0  0  0  0  0  0  0  0  0  0  0
    0.6459   -1.2648   -0.2524 C   0  0  3  0  0  0  0  0  0  0  0  0
   -0.8027   -1.2856    0.2596 C   0  0  0  0  0  0  0  0  0  0  0  0
    1.4255   -2.4782    0.3219 C   0  0  0  0  0  0  0  0  0  0  0  0
    1.8791   -3.4160   -0.6140 N   0  0  0  0  0  0  0  0  0  0  0  0
    2.6161   -4.5691   -0.2086 C   0  0  0  0  0  0  0  0  0  0  0  0
    3.8188   -4.9218   -0.8743 C   0  0  0  0  0  0  0  0  0  0  0  0
    4.5269   -6.0698   -0.4618 C   0  0  0  0  0  0  0  0  0  0  0  0
    4.0496   -6.8752    0.5651 C   0  0  0  0  0  0  0  0  0  0  0  0
    2.8591   -6.5449    1.1986 C   0  0  0  0  0  0  0  0  0  0  0  0
    2.1288   -5.4040    0.8258 C   0  0  0  0  0  0  0  0  0  0  0  0
    0.8045   -5.1859    1.5121 C   0  0  0  0  0  0  0  0  0  0  0  0
    4.4409   -4.0868   -1.9615 C   0  0  0  0  0  0  0  0  0  0  0  0
    1.7108   -2.5070    1.5114 O   0  0  0  0  0  0  0  0  0  0  0  0
    2.7393   -0.0074   -0.2547 C   0  0  0  0  0  0  0  0  0  0  0  0
    2.9214    0.0096   -1.7880 C   0  0  0  0  0  0  0  0  0  0  0  0
    2.4155    1.2598   -2.5106 C   0  0  0  0  0  0  0  0  0  0  0  0
    2.9603    2.5310   -1.8774 C   0  0  0  0  0  0  0  0  0  0  0  0
   -2.5848   -0.0349    0.2856 H   0  0  0  0  0  0  0  0  0  0  0  0
   -1.6536    0.0472   -1.2081 H   0  0  0  0  0  0  0  0  0  0  0  0
   -1.3071    2.1178   -0.0158 H   0  0  0  0  0  0  0  0  0  0  0  0
   -0.8879    1.2996    1.4980 H   0  0  0  0  0  0  0  0  0  0  0  0
    0.4336    1.2507   -1.1301 H   0  0  0  0  0  0  0  0  0  0  0  0
    1.1190    2.0671    0.2756 H   0  0  0  0  0  0  0  0  0  0  0  0
    0.6170   -1.3038   -1.3471 H   0  0  0  0  0  0  0  0  0  0  0  0
   -0.8147   -1.3953    1.3500 H   0  0  0  0  0  0  0  0  0  0  0  0
   -1.3209   -2.1553   -0.1583 H   0  0  0  0  0  0  0  0  0  0  0  0
    2.0217   -3.0909   -1.5597 H   0  0  0  0  0  0  0  0  0  0  0  0
    5.4706   -6.3417   -0.9327 H   0  0  0  0  0  0  0  0  0  0  0  0
    4.5992   -7.7613    0.8717 H   0  0  0  0  0  0  0  0  0  0  0  0
    2.4849   -7.1947    1.9862 H   0  0  0  0  0  0  0  0  0  0  0  0
    0.8038   -4.3098    2.1564 H   0  0  0  0  0  0  0  0  0  0  0  0
    0.0054   -5.1043    0.7694 H   0  0  0  0  0  0  0  0  0  0  0  0
    0.5594   -6.0104    2.1861 H   0  0  0  0  0  0  0  0  0  0  0  0
    3.7686   -4.0066   -2.8196 H   0  0  0  0  0  0  0  0  0  0  0  0
    4.6903   -3.0908   -1.5833 H   0  0  0  0  0  0  0  0  0  0  0  0
    5.3752   -4.5347   -2.3258 H   0  0  0  0  0  0  0  0  0  0  0  0
    3.2741    0.8197    0.2255 H   0  0  0  0  0  0  0  0  0  0  0  0
    3.2844   -0.8799    0.1346 H   0  0  0  0  0  0  0  0  0  0  0  0
    3.9894   -0.0963   -2.0044 H   0  0  0  0  0  0  0  0  0  0  0  0
    2.4541   -0.8752   -2.2349 H   0  0  0  0  0  0  0  0  0  0  0  0
    2.6898    1.2136   -3.5663 H   0  0  0  0  0  0  0  0  0  0  0  0
    1.3294    1.2870   -2.5882 H   0  0  0  0  0  0  0  0  0  0  0  0
    4.0227    2.6160   -2.1102 H   0  0  0  0  0  0  0  0  0  0  0  0
    2.4256    3.4088   -2.2447 H   0  0  0  0  0  0  0  0  0  0  0  0
    2.8779    2.5611   -0.7878 H   0  0  0  0  0  0  0  0  0  0  0  0
  1  2  1  0  0  0  0
  1  6  1  0  0  0  0
  1 22  1  0  0  0  0
  1 23  1  0  0  0  0
  2  3  1  0  0  0  0
  2 24  1  0  0  0  0
  2 25  1  0  0  0  0
  3  4  1  0  0  0  0
  3 26  1  0  0  0  0
  3 27  1  0  0  0  0
  4  5  1  0  0  0  0
  4 18  1  0  0  0  0
  5  6  1  0  0  0  0
  5  7  1  0  0  0  0
  5 28  1  0  0  0  0
  6 29  1  0  0  0  0
  6 30  1  0  0  0  0
  7  8  1  0  0  0  0
  7 17  2  0  0  0  0
  8  9  1  0  0  0  0
  8 31  1  0  0  0  0
  9 10  2  0  0  0  0
 10 11  1  0  0  0  0
 10 16  1  0  0  0  0
 11 12  2  0  0  0  0
 11 32  1  0  0  0  0
 12 13  1  0  0  0  0
 12 33  1  0  0  0  0
 13 14  2  0  0  0  0
 13 34  1  0  0  0  0
 14  9  1  0  0  0  0
 14 15  1  0  0  0  0
 15 35  1  0  0  0  0
 15 36  1  0  0  0  0
 15 37  1  0  0  0  0
 16 38  1  0  0  0  0
 16 39  1  0  0  0  0
 16 40  1  0  0  0  0
 18 19  1  0  0  0  0
 18 41  1  0  0  0  0
 18 42  1  0  0  0  0
 19 20  1  0  0  0  0
 19 43  1  0  0  0  0
 19 44  1  0  0  0  0
 20 21  1  0  0  0  0
 20 45  1  0  0  0  0
 20 46  1  0  0  0  0
 21 47  1  0  0  0  0
 21 48  1  0  0  0  0
 21 49  1  0  0  0  0
M  END
>  <DRUGBANK_ID>
DB00297

>  <SECONDARY_ACCESSION_NUMBERS>
APRD00247

>  <COMMON_NAME>
Bupivacaine

>  <CAS_NUMBER>
38396-39-3

>  <UNII>
Y8335394RO

>  <SYNONYMS>
(Â±)-bupivacaine; (RS)-bupivacaine; 1-Butyl-2',6'-pipecoloxylidide; 1-Butyl-N-(2,6-dimethylphenyl)-2-piperidinecarboxamide; Bupivacaina; Bupivacaine; Bupivacainum; dl-1-Butyl-2',6'-pipecoloxylidide; DL-Bupivacaine; Racemic bupivacaine

$$$$
