
 OpenBabel10282417233D

 49 52  0  0  0  0  0  0  0  0999 V2000
    0.9496    0.0242    0.0102 C   0  0  0  0  0  0  0  0  0  0  0  0
    0.2797    0.8934   -1.0343 C   0  0  0  0  0  0  0  0  0  0  0  0
   -0.6272    0.4155   -1.9449 C   0  0  0  0  0  0  0  0  0  0  0  0
   -0.6590    0.9851   -3.2692 N   0  0  0  0  0  0  0  0  0  0  0  0
   -1.1680    0.2672   -4.4600 C   0  0  0  0  0  0  0  0  0  0  0  0
   -0.1232   -0.5949   -5.1100 C   0  0  0  0  0  0  0  0  0  0  0  0
    1.2693   -0.8259   -4.0639 S   0  0  0  0  0  0  0  0  0  0  0  0
    2.1330   -1.6364   -4.9352 O   0  0  0  0  0  0  0  0  0  0  0  0
    1.0005   -1.3825   -2.7742 O   0  0  0  0  0  0  0  0  0  0  0  0
    1.6305    0.8458   -3.9440 N   0  0  0  0  0  0  0  0  0  0  0  0
    0.6124    1.5591   -3.4583 C   0  0  0  0  0  0  0  0  0  0  0  0
    0.8408    2.6622   -2.3617 C   0  0  0  0  0  0  0  0  0  0  0  0
    0.7648    2.1948   -1.1378 N   0  0  0  0  0  0  0  0  0  0  0  0
    0.9539    4.1547   -2.4959 C   0  0  0  0  0  0  0  0  0  0  0  0
   -0.1514    5.0163   -2.5730 C   0  0  0  0  0  0  0  0  0  0  0  0
    0.0199    6.4095   -2.4205 C   0  0  0  0  0  0  0  0  0  0  0  0
    1.2646    6.9873   -2.1555 C   0  0  0  0  0  0  0  0  0  0  0  0
    1.5463    8.3282   -2.0907 O   0  0  0  0  0  0  0  0  0  0  0  0
    0.5424    9.2934   -2.4637 C   0  0  0  0  0  0  0  0  0  0  0  0
   -0.5549    9.3812   -1.3922 C   0  0  0  0  0  0  0  0  0  0  0  0
   -1.7207   10.2582   -1.8139 C   0  0  0  0  0  0  0  0  0  0  0  0
   -2.2409    9.8843   -3.1984 C   0  0  0  0  0  0  0  0  0  0  0  0
   -1.1450    9.9898   -4.2545 C   0  0  0  0  0  0  0  0  0  0  0  0
    0.0523    9.1178   -3.9152 C   0  0  0  0  0  0  0  0  0  0  0  0
    2.3357    6.1236   -1.9545 C   0  0  0  0  0  0  0  0  0  0  0  0
    2.1806    4.7325   -2.1421 C   0  0  0  0  0  0  0  0  0  0  0  0
    0.6593   -1.0286   -0.0746 H   0  0  0  0  0  0  0  0  0  0  0  0
    0.7026    0.3732    1.0132 H   0  0  0  0  0  0  0  0  0  0  0  0
    2.0486    0.0398   -0.0886 H   0  0  0  0  0  0  0  0  0  0  0  0
   -0.9644   -0.6188   -1.8928 H   0  0  0  0  0  0  0  0  0  0  0  0
   -2.0788   -0.3083   -4.2658 H   0  0  0  0  0  0  0  0  0  0  0  0
   -1.4420    1.0157   -5.2234 H   0  0  0  0  0  0  0  0  0  0  0  0
   -0.4856   -1.4680   -5.6554 H   0  0  0  0  0  0  0  0  0  0  0  0
    0.3850   -0.0237   -5.9040 H   0  0  0  0  0  0  0  0  0  0  0  0
   -1.1743    4.6727   -2.7099 H   0  0  0  0  0  0  0  0  0  0  0  0
   -0.8726    7.0169   -2.5267 H   0  0  0  0  0  0  0  0  0  0  0  0
    1.0507   10.2722   -2.4453 H   0  0  0  0  0  0  0  0  0  0  0  0
   -0.9548    8.4004   -1.1330 H   0  0  0  0  0  0  0  0  0  0  0  0
   -0.1206    9.7313   -0.4475 H   0  0  0  0  0  0  0  0  0  0  0  0
   -2.5270   10.1513   -1.0795 H   0  0  0  0  0  0  0  0  0  0  0  0
   -1.4079   11.3076   -1.8076 H   0  0  0  0  0  0  0  0  0  0  0  0
   -2.6444    8.8631   -3.1810 H   0  0  0  0  0  0  0  0  0  0  0  0
   -3.0695   10.5478   -3.4675 H   0  0  0  0  0  0  0  0  0  0  0  0
   -1.5463    9.6763   -5.2259 H   0  0  0  0  0  0  0  0  0  0  0  0
   -0.8231   11.0311   -4.3555 H   0  0  0  0  0  0  0  0  0  0  0  0
    0.8799    9.2958   -4.6129 H   0  0  0  0  0  0  0  0  0  0  0  0
   -0.2404    8.0915   -4.1335 H   0  0  0  0  0  0  0  0  0  0  0  0
    3.3014    6.5203   -1.6449 H   0  0  0  0  0  0  0  0  0  0  0  0
    3.0327    4.0822   -1.9782 H   0  0  0  0  0  0  0  0  0  0  0  0
  1  2  1  0  0  0  0
  1 27  1  0  0  0  0
  1 28  1  0  0  0  0
  1 29  1  0  0  0  0
  2  3  2  0  0  0  0
  2 13  1  0  0  0  0
  3  4  1  0  0  0  0
  3 30  1  0  0  0  0
  4  5  1  0  0  0  0
  4 11  1  0  0  0  0
  5  6  1  0  0  0  0
  5 31  1  0  0  0  0
  5 32  1  0  0  0  0
  6  7  1  0  0  0  0
  6 33  1  0  0  0  0
  6 34  1  0  0  0  0
  7  8  2  0  0  0  0
  7  9  2  0  0  0  0
  7 10  1  0  0  0  0
 10 11  2  0  0  0  0
 11 12  1  0  0  0  0
 12 13  2  0  0  0  0
 12 14  1  0  0  0  0
 14 15  2  0  0  0  0
 14 26  1  0  0  0  0
 15 16  1  0  0  0  0
 15 35  1  0  0  0  0
 16 17  2  0  0  0  0
 16 36  1  0  0  0  0
 17 18  1  0  0  0  0
 17 25  1  0  0  0  0
 18 19  1  0  0  0  0
 19 20  1  0  0  0  0
 19 24  1  0  0  0  0
 19 37  1  0  0  0  0
 20 21  1  0  0  0  0
 20 38  1  0  0  0  0
 20 39  1  0  0  0  0
 21 22  1  0  0  0  0
 21 40  1  0  0  0  0
 21 41  1  0  0  0  0
 22 23  1  0  0  0  0
 22 42  1  0  0  0  0
 22 43  1  0  0  0  0
 23 24  1  0  0  0  0
 23 44  1  0  0  0  0
 23 45  1  0  0  0  0
 24 46  1  0  0  0  0
 24 47  1  0  0  0  0
 25 26  2  0  0  0  0
 25 48  1  0  0  0  0
 26 49  1  0  0  0  0
M  END
>  <DRUGBANK_ID>
DB16304

>  <COMMON_NAME>
TAK-653

>  <CAS_NUMBER>
1358751-06-0

>  <UNII>
9E3TOE5RIZ

$$$$
