
 OpenBabel10282417123D

 53 55  0  0  0  0  0  0  0  0999 V2000
    1.3691   -0.1788   -0.0027 C   0  0  0  0  0  0  0  0  0  0  0  0
   -0.4847    1.3401    0.0322 C   0  0  0  0  0  0  0  0  0  0  0  0
    0.4780   -1.2669    0.0215 C   0  0  0  0  0  0  0  0  0  0  0  0
   -1.3582    0.2534    0.0068 C   0  0  0  0  0  0  0  0  0  0  0  0
    1.7316    5.5024   -1.8327 C   0  0  0  0  0  0  0  0  0  0  0  0
    0.2789    6.0012   -1.8520 C   0  0  0  0  0  0  0  0  0  0  0  0
   -3.2190   -2.0600    0.0857 C   0  0  0  0  0  0  0  0  0  0  0  0
   -4.4396   -1.8497   -2.1695 C   0  0  0  0  0  0  0  0  0  0  0  0
    0.8886    1.1381   -0.0403 C   0  0  0  0  0  0  0  0  0  0  0  0
   -0.9079   -1.0683    0.0150 C   0  0  0  0  0  0  0  0  0  0  0  0
   -3.7747   -2.7610   -1.1373 C   0  0  0  0  0  0  0  0  0  0  0  0
    2.1962    4.7003   -0.5961 C   0  0  1  0  0  0  0  0  0  0  0  0
   -0.0263    7.1617   -0.9382 C   0  0  0  0  0  0  0  0  0  0  0  0
   -4.0957   -4.6132   -2.4212 C   0  0  0  0  0  0  0  0  0  0  0  0
   -4.7112   -3.9473   -3.4299 C   0  0  0  0  0  0  0  0  0  0  0  0
    1.8448    2.2673   -0.2537 C   0  0  0  0  0  0  0  0  0  0  0  0
   -3.9410   -6.0740   -2.7091 C   0  0  0  0  0  0  0  0  0  0  0  0
    2.3863    5.5475    0.6698 C   0  0  0  0  0  0  0  0  0  0  0  0
   -4.9116   -5.9686   -4.7074 C   0  0  0  0  0  0  0  0  0  0  0  0
   -5.3105   -6.5547   -5.7834 N   0  0  0  0  0  0  0  0  0  0  0  0
   -1.7663   -2.1436    0.0674 N   0  0  0  0  0  0  0  0  0  0  0  0
   -4.9379   -2.5972   -3.3051 N   0  0  0  0  0  0  0  0  0  0  0  0
   -3.6295   -4.0525   -1.2492 N   0  0  0  0  0  0  0  0  0  0  0  0
    1.3243    3.5430   -0.3911 N   0  0  0  0  0  0  0  0  0  0  0  0
   -5.0951   -4.6347   -4.5443 N   0  0  0  0  0  0  0  0  0  0  0  0
   -4.3059   -6.7436   -3.7534 N   0  0  0  0  0  0  0  0  0  0  0  0
    0.1160    8.3337   -1.1851 O   0  0  0  0  0  0  0  0  0  0  0  0
   -0.4493    6.7681    0.2758 O   0  0  0  0  0  0  0  0  0  0  0  0
    3.0439    2.0338   -0.3613 O   0  0  0  0  0  0  0  0  0  0  0  0
   -3.3286   -6.7162   -1.6922 O   0  0  0  0  0  0  0  0  0  0  0  0
    3.3246    6.2916    0.9042 O   0  0  0  0  0  0  0  0  0  0  0  0
    1.3112    5.5845    1.4815 O   0  0  0  0  0  0  0  0  0  0  0  0
    3.2039    4.3284   -0.8132 H   0  0  0  0  0  0  0  0  0  0  0  0
    2.4413   -0.3710    0.0032 H   0  0  0  0  0  0  0  0  0  0  0  0
   -0.9297    2.3231    0.1063 H   0  0  0  0  0  0  0  0  0  0  0  0
    0.8879   -2.2760    0.0303 H   0  0  0  0  0  0  0  0  0  0  0  0
   -2.4119    0.4971   -0.0235 H   0  0  0  0  0  0  0  0  0  0  0  0
    2.4187    6.3354   -2.0245 H   0  0  0  0  0  0  0  0  0  0  0  0
    1.8300    4.8274   -2.6976 H   0  0  0  0  0  0  0  0  0  0  0  0
    0.0446    6.3631   -2.8610 H   0  0  0  0  0  0  0  0  0  0  0  0
   -0.4277    5.1863   -1.6674 H   0  0  0  0  0  0  0  0  0  0  0  0
   -3.6105   -2.5295    0.9921 H   0  0  0  0  0  0  0  0  0  0  0  0
   -3.6016   -1.0383    0.0785 H   0  0  0  0  0  0  0  0  0  0  0  0
   -3.7026   -1.1110   -2.4981 H   0  0  0  0  0  0  0  0  0  0  0  0
   -5.2733   -1.3312   -1.6850 H   0  0  0  0  0  0  0  0  0  0  0  0
   -5.0720   -7.5452   -5.6844 H   0  0  0  0  0  0  0  0  0  0  0  0
   -1.3865   -3.0878    0.0368 H   0  0  0  0  0  0  0  0  0  0  0  0
   -5.3279   -2.0950   -4.0917 H   0  0  0  0  0  0  0  0  0  0  0  0
    0.3541    3.7374   -0.1994 H   0  0  0  0  0  0  0  0  0  0  0  0
   -5.5462   -4.1438   -5.2981 H   0  0  0  0  0  0  0  0  0  0  0  0
   -0.3251    7.5584    0.8420 H   0  0  0  0  0  0  0  0  0  0  0  0
   -3.2439   -7.6566   -1.9045 H   0  0  0  0  0  0  0  0  0  0  0  0
    1.4507    6.4049    2.0007 H   0  0  0  0  0  0  0  0  0  0  0  0
  1 34  1  0  0  0  0
  2 35  1  0  0  0  0
  3  1  1  0  0  0  0
  3 36  1  0  0  0  0
  4  2  2  0  0  0  0
  4 37  1  0  0  0  0
  5 38  1  0  0  0  0
  5 39  1  0  0  0  0
  6  5  1  0  0  0  0
  6 40  1  0  0  0  0
  6 41  1  0  0  0  0
  7 42  1  0  0  0  0
  7 43  1  0  0  0  0
  8 44  1  0  0  0  0
  8 45  1  0  0  0  0
  9  1  2  0  0  0  0
  9  2  1  0  0  0  0
 10  3  2  0  0  0  0
 10  4  1  0  0  0  0
 11  7  1  0  0  0  0
 11  8  1  0  0  0  0
 12  5  1  0  0  0  0
 12 18  1  0  0  0  0
 12 24  1  0  0  0  0
 12 33  1  6  0  0  0
 13  6  1  0  0  0  0
 15 14  2  0  0  0  0
 16  9  1  0  0  0  0
 17 14  1  0  0  0  0
 20 19  2  0  0  0  0
 20 46  1  0  0  0  0
 21  7  1  0  0  0  0
 21 10  1  0  0  0  0
 21 47  1  0  0  0  0
 22  8  1  0  0  0  0
 22 15  1  0  0  0  0
 22 48  1  0  0  0  0
 23 11  2  0  0  0  0
 23 14  1  0  0  0  0
 24 16  1  0  0  0  0
 24 49  1  0  0  0  0
 25 15  1  0  0  0  0
 25 19  1  0  0  0  0
 25 50  1  0  0  0  0
 26 17  2  0  0  0  0
 26 19  1  0  0  0  0
 27 13  2  0  0  0  0
 28 13  1  0  0  0  0
 28 51  1  0  0  0  0
 29 16  2  0  0  0  0
 30 17  1  0  0  0  0
 30 52  1  0  0  0  0
 31 18  2  0  0  0  0
 32 18  1  0  0  0  0
 32 53  1  0  0  0  0
M  END
>  <DRUGBANK_ID>
DB02015

>  <SECONDARY_ACCESSION_NUMBERS>
EXPT01190

>  <COMMON_NAME>
Dihydrofolic Acid

>  <CAS_NUMBER>
4033-27-6

>  <UNII>
KXP0KNM559

$$$$
