
 OpenBabel10282417203D

 57 60  0  0  0  0  0  0  0  0999 V2000
   -3.6930    0.0589    0.0075 C   0  0  0  0  0  0  0  0  0  0  0  0
    5.1377   -0.7030   -0.2081 C   0  0  0  0  0  0  0  0  0  0  0  0
    3.8615    2.9123   -0.2725 C   0  0  0  0  0  0  0  0  0  0  0  0
    3.1710    2.3450    2.4556 C   0  0  0  0  0  0  0  0  0  0  0  0
    3.7018    1.0460    2.4475 C   0  0  0  0  0  0  0  0  0  0  0  0
    1.8752    2.6340    2.0608 C   0  0  0  0  0  0  0  0  0  0  0  0
    2.8906   -0.0172    2.1661 C   0  0  0  0  0  0  0  0  0  0  0  0
    1.0353    1.5836    1.9864 C   0  0  0  0  0  0  0  0  0  0  0  0
   -1.9550   -2.6940   -0.0012 C   0  0  0  0  0  0  0  0  0  0  0  0
   -1.2332   -3.3959   -1.1715 C   0  0  0  0  0  0  0  0  0  0  0  0
    0.6913   -3.5907    0.4022 C   0  0  0  0  0  0  0  0  0  0  0  0
    0.8232   -2.2873   -2.0725 C   0  0  0  0  0  0  0  0  0  0  0  0
    0.5707   -2.0930    1.5051 C   0  0  0  0  0  0  0  0  0  0  0  0
    0.8117   -0.4948   -1.4305 C   0  0  0  0  0  0  0  0  0  0  0  0
    1.5856   -1.6688   -0.2997 C   0  0  0  0  0  0  0  0  0  0  0  0
    1.2422    1.5506   -0.6384 C   0  0  0  0  0  0  0  0  0  0  0  0
   -2.2600   -0.0385    0.0071 C   0  0  0  0  0  0  0  0  0  0  0  0
    1.5987    0.3278    1.7930 C   0  0  0  0  0  0  0  0  0  0  0  0
   -1.6157   -1.2758    0.0174 C   0  0  0  0  0  0  0  0  0  0  0  0
   -0.3064   -1.0347   -0.1459 C   0  0  0  0  0  0  0  0  0  0  0  0
   -0.2789    0.7683   -0.3503 C   0  0  0  0  0  0  0  0  0  0  0  0
    2.8593   -0.6767   -0.5656 C   0  0  0  0  0  0  0  0  0  0  0  0
    2.6887    0.8257   -0.6676 C   0  0  0  0  0  0  0  0  0  0  0  0
   -1.5269    1.1267   -0.0813 N   0  0  0  0  0  0  0  0  0  0  0  0
    0.2400   -3.4873   -1.1527 N   0  0  0  0  0  0  0  0  0  0  0  0
    1.0491   -0.3680    0.7476 N   0  0  0  0  0  0  0  0  0  0  0  0
    3.9662   -1.4472   -0.3149 O   0  0  0  0  0  0  0  0  0  0  0  0
    3.8434    1.5172   -0.3622 O   0  0  0  0  0  0  0  0  0  0  0  0
   -3.9711    0.5415    0.9365 H   0  0  0  0  0  0  0  0  0  0  0  0
   -3.9836    0.5821   -0.9003 H   0  0  0  0  0  0  0  0  0  0  0  0
   -4.0584   -0.9649   -0.0223 H   0  0  0  0  0  0  0  0  0  0  0  0
    5.2035   -0.0636   -1.0807 H   0  0  0  0  0  0  0  0  0  0  0  0
    5.1977   -0.1352    0.7187 H   0  0  0  0  0  0  0  0  0  0  0  0
    5.9552   -1.4090   -0.1925 H   0  0  0  0  0  0  0  0  0  0  0  0
    3.3148    3.3258   -1.0978 H   0  0  0  0  0  0  0  0  0  0  0  0
    3.4231    3.3984    0.5821 H   0  0  0  0  0  0  0  0  0  0  0  0
    4.9025    3.2106   -0.1499 H   0  0  0  0  0  0  0  0  0  0  0  0
    3.8492    3.1706    2.5446 H   0  0  0  0  0  0  0  0  0  0  0  0
    4.7752    0.9074    2.4252 H   0  0  0  0  0  0  0  0  0  0  0  0
    1.5784    3.5527    1.5297 H   0  0  0  0  0  0  0  0  0  0  0  0
    3.3102   -0.9830    1.8639 H   0  0  0  0  0  0  0  0  0  0  0  0
    0.0763    1.7892    1.5436 H   0  0  0  0  0  0  0  0  0  0  0  0
   -1.6549   -3.2279    0.9043 H   0  0  0  0  0  0  0  0  0  0  0  0
   -3.0187   -2.7832   -0.0306 H   0  0  0  0  0  0  0  0  0  0  0  0
   -1.5476   -4.4318   -1.1489 H   0  0  0  0  0  0  0  0  0  0  0  0
   -1.5547   -2.9423   -2.1123 H   0  0  0  0  0  0  0  0  0  0  0  0
    0.2444   -4.4584    0.8714 H   0  0  0  0  0  0  0  0  0  0  0  0
    1.7631   -3.9333    0.4301 H   0  0  0  0  0  0  0  0  0  0  0  0
    1.9042   -2.4317   -2.2221 H   0  0  0  0  0  0  0  0  0  0  0  0
    0.3591   -2.2202   -3.0445 H   0  0  0  0  0  0  0  0  0  0  0  0
   -0.4961   -2.0610    1.7281 H   0  0  0  0  0  0  0  0  0  0  0  0
    0.9939   -2.2624    2.4766 H   0  0  0  0  0  0  0  0  0  0  0  0
   -0.3929   -0.6291   -1.8850 H   0  0  0  0  0  0  0  0  0  0  0  0
    1.0847    0.2392   -2.1597 H   0  0  0  0  0  0  0  0  0  0  0  0
    2.0932   -2.5474   -0.1552 H   0  0  0  0  0  0  0  0  0  0  0  0
    1.2499    2.6113   -0.4433 H   0  0  0  0  0  0  0  0  0  0  0  0
   -1.7625    2.1155   -0.0396 H   0  0  0  0  0  0  0  0  0  0  0  0
  1 29  1  0  0  0  0
  1 30  1  0  0  0  0
  1 31  1  0  0  0  0
  2 32  1  0  0  0  0
  2 33  1  0  0  0  0
  2 34  1  0  0  0  0
  3 35  1  0  0  0  0
  3 36  1  0  0  0  0
  3 37  1  0  0  0  0
  4 38  1  0  0  0  0
  5  4  2  0  0  0  0
  5 39  1  0  0  0  0
  6  4  1  0  0  0  0
  6 40  1  0  0  0  0
  7  5  1  0  0  0  0
  7 41  1  0  0  0  0
  8  6  2  0  0  0  0
  8 42  1  0  0  0  0
  9 43  1  0  0  0  0
  9 44  1  0  0  0  0
 10  9  1  0  0  0  0
 10 45  1  0  0  0  0
 10 46  1  0  0  0  0
 11 47  1  0  0  0  0
 11 48  1  0  0  0  0
 12 49  1  0  0  0  0
 12 50  1  0  0  0  0
 13 11  1  0  0  0  0
 13 51  1  0  0  0  0
 13 52  1  0  0  0  0
 14 12  1  0  0  0  0
 14 53  1  0  0  0  0
 14 54  1  0  0  0  0
 15 55  1  0  0  0  0
 16 56  1  0  0  0  0
 17  1  1  0  0  0  0
 18  7  2  0  0  0  0
 18  8  1  0  0  0  0
 19  9  1  0  0  0  0
 19 17  2  0  0  0  0
 20 15  2  0  0  0  0
 20 19  1  0  0  0  0
 21 16  2  0  0  0  0
 21 20  1  0  0  0  0
 22 15  1  0  0  0  0
 23 16  1  0  0  0  0
 23 22  2  0  0  0  0
 24 17  1  0  0  0  0
 24 21  1  0  0  0  0
 24 57  1  0  0  0  0
 25 10  1  0  0  0  0
 25 11  1  0  0  0  0
 25 12  1  0  0  0  0
 26 13  1  0  0  0  0
 26 14  1  0  0  0  0
 26 18  1  0  0  0  0
 27  2  1  0  0  0  0
 27 22  1  0  0  0  0
 28  3  1  0  0  0  0
 28 23  1  0  0  0  0
M  END
>  <DRUGBANK_ID>
DB13403

>  <COMMON_NAME>
Oxypertine

>  <CAS_NUMBER>
153-87-7

>  <UNII>
5JGL4G25R7

>  <SYNONYMS>
Oxypertine

$$$$
