
 OpenBabel10282417233D

 38 40  0  0  0  0  0  0  0  0999 V2000
    1.1477    0.0536    0.1370 Cl  0  0  0  0  0  0  0  0  0  0  0  0
    2.8764    0.0853   -0.0376 C   0  0  0  0  0  0  0  0  0  0  0  0
    3.6721   -0.9981    0.0659 C   0  0  0  0  0  0  0  0  0  0  0  0
    3.2273   -2.2030    0.5224 N   0  0  0  0  0  0  0  0  0  0  0  0
    3.6958   -3.5683    0.2649 C   0  0  0  0  0  0  0  0  0  0  0  0
    2.9910   -4.5305    1.2477 C   0  0  0  0  0  0  0  0  0  0  0  0
    1.5202   -4.7310    1.1376 N   0  0  0  0  0  0  0  0  0  0  0  0
    1.1007   -5.7672    0.1771 C   0  0  0  0  0  0  0  0  0  0  0  0
    1.3158   -5.3964   -1.2937 C   0  0  0  0  0  0  0  0  0  0  0  0
    0.5511   -4.2252   -1.6168 O   0  0  0  0  0  0  0  0  0  0  0  0
    0.9211   -3.1444   -0.7647 C   0  0  0  0  0  0  0  0  0  0  0  0
    0.7764   -3.5130    0.7728 C   0  0  0  0  0  0  0  0  0  0  0  0
    5.1396   -0.9340   -0.1072 C   0  0  0  0  0  0  0  0  0  0  0  0
    5.8482   -1.9151   -0.1902 O   0  0  0  0  0  0  0  0  0  0  0  0
    5.7062    0.3980   -0.1005 C   0  0  0  0  0  0  0  0  0  0  0  0
    4.8986    1.5143   -0.0987 C   0  0  0  0  0  0  0  0  0  0  0  0
    5.5081    2.7482   -0.0616 C   0  0  0  0  0  0  0  0  0  0  0  0
    6.8957    2.7966   -0.0453 C   0  0  0  0  0  0  0  0  0  0  0  0
    7.6227    1.6173   -0.0499 C   0  0  0  0  0  0  0  0  0  0  0  0
    7.0539    0.4131   -0.0717 N   0  0  0  0  0  0  0  0  0  0  0  0
    3.4403    1.4406   -0.1213 C   0  0  0  0  0  0  0  0  0  0  0  0
    2.7632    2.4482   -0.1210 O   0  0  0  0  0  0  0  0  0  0  0  0
    2.2512   -2.0711    0.6822 H   0  0  0  0  0  0  0  0  0  0  0  0
    3.5306   -3.8677   -0.7724 H   0  0  0  0  0  0  0  0  0  0  0  0
    4.7685   -3.6870    0.3956 H   0  0  0  0  0  0  0  0  0  0  0  0
    3.5102   -5.4978    1.2378 H   0  0  0  0  0  0  0  0  0  0  0  0
    3.1926   -4.1156    2.2477 H   0  0  0  0  0  0  0  0  0  0  0  0
    0.0167   -5.8846    0.3147 H   0  0  0  0  0  0  0  0  0  0  0  0
    1.5554   -6.7300    0.4170 H   0  0  0  0  0  0  0  0  0  0  0  0
    2.3794   -5.2772   -1.5267 H   0  0  0  0  0  0  0  0  0  0  0  0
    0.9569   -6.1863   -1.9535 H   0  0  0  0  0  0  0  0  0  0  0  0
    0.3457   -2.2517   -1.0064 H   0  0  0  0  0  0  0  0  0  0  0  0
    1.9098   -2.8800   -1.1370 H   0  0  0  0  0  0  0  0  0  0  0  0
   -0.2877   -3.6355    0.9858 H   0  0  0  0  0  0  0  0  0  0  0  0
    1.0344   -2.7515    1.5253 H   0  0  0  0  0  0  0  0  0  0  0  0
    4.9040    3.6499   -0.0492 H   0  0  0  0  0  0  0  0  0  0  0  0
    7.4018    3.7492   -0.0350 H   0  0  0  0  0  0  0  0  0  0  0  0
    8.7046    1.5955   -0.0405 H   0  0  0  0  0  0  0  0  0  0  0  0
  1  2  1  0  0  0  0
  2  3  2  0  0  0  0
  2 21  1  0  0  0  0
  3  4  1  0  0  0  0
  3 13  1  0  0  0  0
  4  5  1  0  0  0  0
  4 23  1  0  0  0  0
  5  6  1  0  0  0  0
  5 24  1  0  0  0  0
  5 25  1  0  0  0  0
  6  7  1  0  0  0  0
  6 26  1  0  0  0  0
  6 27  1  0  0  0  0
  7  8  1  0  0  0  0
  7 12  1  0  0  0  0
  8  9  1  0  0  0  0
  8 28  1  0  0  0  0
  8 29  1  0  0  0  0
  9 10  1  0  0  0  0
  9 30  1  0  0  0  0
  9 31  1  0  0  0  0
 10 11  1  0  0  0  0
 11 12  1  0  0  0  0
 11 32  1  0  0  0  0
 11 33  1  0  0  0  0
 12 34  1  0  0  0  0
 12 35  1  0  0  0  0
 13 14  2  0  0  0  0
 13 15  1  0  0  0  0
 15 16  2  0  0  0  0
 15 20  1  0  0  0  0
 16 17  1  0  0  0  0
 16 21  1  0  0  0  0
 17 18  2  0  0  0  0
 17 36  1  0  0  0  0
 18 19  1  0  0  0  0
 18 37  1  0  0  0  0
 19 20  2  0  0  0  0
 19 38  1  0  0  0  0
 21 22  2  0  0  0  0
M  END
>  <DRUGBANK_ID>
DB17038

>  <COMMON_NAME>
NSC-663284

>  <CAS_NUMBER>
383907-43-5

>  <UNII>
CY8W2F69MW

>  <SYNONYMS>
5,8-quinolinedione, 6-chloro-7-((2-(4-morpholinyl)ethyl)amino)-; 6-chloro-7-((2-morpholinoethyl)amino)quinoline-5,8-dione

$$$$
