
 OpenBabel10282417213D

 25 25  0  0  0  0  0  0  0  0999 V2000
    0.5153   -0.7010    0.0037 C   0  0  0  0  0  0  0  0  0  0  0  0
    0.5465    0.6941   -0.0036 C   0  0  0  0  0  0  0  0  0  0  0  0
   -0.6216    1.4223   -0.0746 C   0  0  0  0  0  0  0  0  0  0  0  0
   -1.8317    0.7447   -0.1756 C   0  0  0  0  0  0  0  0  0  0  0  0
   -1.9010   -0.6592   -0.0756 C   0  0  0  0  0  0  0  0  0  0  0  0
   -0.7023   -1.3844   -0.0119 C   0  0  0  0  0  0  0  0  0  0  0  0
    1.7144   -1.3578    0.0283 O   0  0  0  0  0  0  0  0  0  0  0  0
    1.7328    1.3678    0.0276 O   0  0  0  0  0  0  0  0  0  0  0  0
   -3.2527   -1.3511   -0.0409 C   0  0  0  0  0  0  0  0  0  0  0  0
   -4.1129   -1.0308    1.2092 C   0  0  0  0  0  0  0  0  0  0  0  0
   -4.4467    0.3955    1.3110 N   0  0  0  0  0  0  0  0  0  0  0  0
   -5.2339    0.7165    2.4868 C   0  0  0  0  0  0  0  0  0  0  0  0
   -0.5996    2.5081   -0.0690 H   0  0  0  0  0  0  0  0  0  0  0  0
   -2.7336    1.3351   -0.3174 H   0  0  0  0  0  0  0  0  0  0  0  0
   -0.7263   -2.4706    0.0153 H   0  0  0  0  0  0  0  0  0  0  0  0
    1.5349   -2.3137    0.0010 H   0  0  0  0  0  0  0  0  0  0  0  0
    2.4151    0.6713   -0.0050 H   0  0  0  0  0  0  0  0  0  0  0  0
   -3.8040   -1.0948   -0.9546 H   0  0  0  0  0  0  0  0  0  0  0  0
   -3.1057   -2.4396   -0.0754 H   0  0  0  0  0  0  0  0  0  0  0  0
   -5.0390   -1.6158    1.1481 H   0  0  0  0  0  0  0  0  0  0  0  0
   -3.5724   -1.3510    2.1081 H   0  0  0  0  0  0  0  0  0  0  0  0
   -3.5709    0.9046    1.4248 H   0  0  0  0  0  0  0  0  0  0  0  0
   -4.6898    0.4628    3.4012 H   0  0  0  0  0  0  0  0  0  0  0  0
   -5.4102    1.7979    2.4953 H   0  0  0  0  0  0  0  0  0  0  0  0
   -6.2039    0.2161    2.4730 H   0  0  0  0  0  0  0  0  0  0  0  0
  1  7  1  0  0  0  0
  1  2  2  0  0  0  0
  2  3  1  0  0  0  0
  2  8  1  0  0  0  0
  3  4  2  0  0  0  0
  3 13  1  0  0  0  0
  4  5  1  0  0  0  0
  4 14  1  0  0  0  0
  5  9  1  0  0  0  0
  5  6  2  0  0  0  0
  6  1  1  0  0  0  0
  6 15  1  0  0  0  0
  7 16  1  0  0  0  0
  8 17  1  0  0  0  0
  9 10  1  0  0  0  0
  9 18  1  0  0  0  0
  9 19  1  0  0  0  0
 10 11  1  0  0  0  0
 10 20  1  0  0  0  0
 10 21  1  0  0  0  0
 11 12  1  0  0  0  0
 11 22  1  0  0  0  0
 12 23  1  0  0  0  0
 12 24  1  0  0  0  0
 12 25  1  0  0  0  0
M  END
>  <DRUGBANK_ID>
DB13917

>  <COMMON_NAME>
Deoxyepinephrine

>  <CAS_NUMBER>
501-15-5

>  <UNII>
R7339QLN1C

>  <SYNONYMS>
1-(3,4-dihydroxyphenyl)-2-methylaminoethane; 3,4-dihydroxy-N-methylphenethylamine; 4-(2-methylamino-ethyl)-benzene-1,2-diol; 4-(2-methylaminoethyl)pyrocatechol; Deoxyephinephrine; Desoxyepinephrine; Epinin; Epinine; Epyamine; N-methyl-3,4-dihydroxyphenethylamine; N-methyldopamine

$$$$
