OHM
 OpenBabel10282417173D

 49 49  0  0  0  0  0  0  0  0999 V2000
    0.9974    0.0808   -0.0356 C   0  0  0  0  0  0  0  0  0  0  0  0
    0.5478   -1.3197    0.3476 C   0  0  0  0  0  0  0  0  0  0  0  0
    1.0453   -1.6728    1.7499 C   0  0  0  0  0  0  0  0  0  0  0  0
    0.4962   -0.6972    2.7982 C   0  0  0  0  0  0  0  0  0  0  0  0
   -1.0366   -0.7173    2.8161 C   0  0  0  0  0  0  0  0  0  0  0  0
   -1.5424   -2.1166    3.1747 C   0  0  0  0  0  0  0  0  0  0  0  0
   -1.0142   -2.5328    4.5556 C   0  0  0  0  0  0  0  0  0  0  0  0
   -1.5271   -1.6004    5.6564 C   0  0  0  0  0  0  0  0  0  0  0  0
   -3.0398   -1.5829    5.6949 C   0  0  0  0  0  0  0  0  0  0  0  0
   -3.6002   -2.9818    5.9392 C   0  0  0  0  0  0  0  0  0  0  0  0
   -3.4293   -3.9014    5.1361 O   0  0  0  0  0  0  0  0  0  0  0  0
   -4.4793   -3.1988    7.1234 C   0  0  0  0  0  0  0  0  0  0  0  0
   -5.8541   -3.6874    6.7060 C   0  0  0  0  0  0  0  0  0  0  0  0
   -6.2893   -4.7702    7.1004 O   0  0  0  0  0  0  0  0  0  0  0  0
   -6.6521   -2.9090    5.8953 N   0  0  0  0  0  0  0  0  0  0  0  0
   -6.2860   -1.6314    5.3269 C   0  0  1  0  0  0  0  0  0  0  0  0
   -7.2505   -0.9518    4.3574 C   0  0  0  0  0  0  0  0  0  0  0  0
   -6.8666    0.5272    4.4683 C   0  0  0  0  0  0  0  0  0  0  0  0
   -6.3518    0.6697    5.7920 N   0  0  0  0  0  0  0  0  0  0  0  0
   -6.1595   -0.5405    6.3946 C   0  0  0  0  0  0  0  0  0  0  0  0
   -5.8819   -0.6544    7.5805 O   0  0  0  0  0  0  0  0  0  0  0  0
   -5.3621   -1.7684    4.7733 H   0  0  0  0  0  0  0  0  0  0  0  0
    0.6037    0.8411    0.6469 H   0  0  0  0  0  0  0  0  0  0  0  0
    0.6441    0.3421   -1.0332 H   0  0  0  0  0  0  0  0  0  0  0  0
    2.0894    0.1391   -0.0089 H   0  0  0  0  0  0  0  0  0  0  0  0
   -0.5449   -1.3865    0.2861 H   0  0  0  0  0  0  0  0  0  0  0  0
    0.9258   -2.0510   -0.3723 H   0  0  0  0  0  0  0  0  0  0  0  0
    0.7613   -2.7055    1.9874 H   0  0  0  0  0  0  0  0  0  0  0  0
    2.1392   -1.6651    1.7794 H   0  0  0  0  0  0  0  0  0  0  0  0
    0.9121   -0.9434    3.7801 H   0  0  0  0  0  0  0  0  0  0  0  0
    0.8499    0.3215    2.6230 H   0  0  0  0  0  0  0  0  0  0  0  0
   -1.4080    0.0353    3.5190 H   0  0  0  0  0  0  0  0  0  0  0  0
   -1.4586   -0.4061    1.8554 H   0  0  0  0  0  0  0  0  0  0  0  0
   -2.6358   -2.1360    3.1196 H   0  0  0  0  0  0  0  0  0  0  0  0
   -1.2399   -2.8590    2.4294 H   0  0  0  0  0  0  0  0  0  0  0  0
   -1.2795   -3.5721    4.7541 H   0  0  0  0  0  0  0  0  0  0  0  0
    0.0772   -2.5575    4.5847 H   0  0  0  0  0  0  0  0  0  0  0  0
   -1.1324   -1.9059    6.6278 H   0  0  0  0  0  0  0  0  0  0  0  0
   -1.1664   -0.5766    5.4948 H   0  0  0  0  0  0  0  0  0  0  0  0
   -3.3869   -0.8731    6.4485 H   0  0  0  0  0  0  0  0  0  0  0  0
   -3.4420   -1.2018    4.7488 H   0  0  0  0  0  0  0  0  0  0  0  0
   -3.9947   -3.9488    7.7570 H   0  0  0  0  0  0  0  0  0  0  0  0
   -4.5205   -2.3097    7.7433 H   0  0  0  0  0  0  0  0  0  0  0  0
   -7.5105   -3.3665    5.6114 H   0  0  0  0  0  0  0  0  0  0  0  0
   -7.1433   -1.3112    3.3278 H   0  0  0  0  0  0  0  0  0  0  0  0
   -8.2876   -1.1085    4.6680 H   0  0  0  0  0  0  0  0  0  0  0  0
   -6.0737    0.8167    3.7718 H   0  0  0  0  0  0  0  0  0  0  0  0
   -7.7263    1.1894    4.3523 H   0  0  0  0  0  0  0  0  0  0  0  0
   -6.2913    1.5187    6.3427 H   0  0  0  0  0  0  0  0  0  0  0  0
  1  2  1  0  0  0  0
  1 23  1  0  0  0  0
  1 24  1  0  0  0  0
  1 25  1  0  0  0  0
  2  3  1  0  0  0  0
  2 26  1  0  0  0  0
  2 27  1  0  0  0  0
  3  4  1  0  0  0  0
  3 28  1  0  0  0  0
  3 29  1  0  0  0  0
  4  5  1  0  0  0  0
  4 30  1  0  0  0  0
  4 31  1  0  0  0  0
  5  6  1  0  0  0  0
  5 32  1  0  0  0  0
  5 33  1  0  0  0  0
  6  7  1  0  0  0  0
  6 34  1  0  0  0  0
  6 35  1  0  0  0  0
  7  8  1  0  0  0  0
  7 36  1  0  0  0  0
  7 37  1  0  0  0  0
  8  9  1  0  0  0  0
  8 38  1  0  0  0  0
  8 39  1  0  0  0  0
  9 10  1  0  0  0  0
  9 40  1  0  0  0  0
  9 41  1  0  0  0  0
 10 12  1  0  0  0  0
 10 11  2  0  0  0  0
 12 13  1  0  0  0  0
 12 42  1  0  0  0  0
 12 43  1  0  0  0  0
 13 14  2  0  0  0  0
 13 15  1  0  0  0  0
 15 44  1  0  0  0  0
 16 15  1  0  0  0  0
 16 20  1  0  0  0  0
 16 17  1  0  0  0  0
 16 22  1  6  0  0  0
 17 18  1  0  0  0  0
 17 45  1  0  0  0  0
 17 46  1  0  0  0  0
 18 19  1  0  0  0  0
 18 47  1  0  0  0  0
 18 48  1  0  0  0  0
 19 20  1  0  0  0  0
 19 49  1  0  0  0  0
 20 21  2  0  0  0  0
M  END
>  <DRUGBANK_ID>
DB08323

>  <COMMON_NAME>
3-OXO-N-[(3S)-2-OXOPYRROLIDIN-3-YL]DODECANAMIDE

$$$$
