IGP
 OpenBabel10282417133D

 33 34  0  0  0  0  0  0  0  0999 V2000
    0.9375   -0.0506    0.0663 C   0  0  0  0  0  0  0  0  0  0  0  0
    1.0183   -0.1843   -2.5694 P   0  0  0  0  0  0  0  0  0  0  0  0
   -0.4285   -0.6846   -3.1503 O   0  0  0  0  0  0  0  0  0  0  0  0
    0.4645    1.2976   -2.1262 O   0  0  0  0  0  0  0  0  0  0  0  0
    1.5344    0.3501   -3.9278 O   0  0  0  0  0  0  0  0  0  0  0  0
    0.4416   -0.7814   -1.0515 O   0  0  0  0  0  0  0  0  0  0  0  0
    0.4116   -0.5668    1.3867 C   0  0  1  0  0  0  0  0  0  0  0  0
    0.9274    0.3135    2.4027 O   0  0  0  0  0  0  0  0  0  0  0  0
   -1.1439   -0.5584    1.3783 C   0  0  1  0  0  0  0  0  0  0  0  0
   -1.6865   -1.3651    0.3281 O   0  0  0  0  0  0  0  0  0  0  0  0
   -1.6378   -1.0517    2.6952 C   0  0  0  0  0  0  0  0  0  0  0  0
   -2.1475   -0.2556    3.7623 C   0  0  0  0  0  0  0  0  0  0  0  0
   -2.3801   -1.1158    4.8368 C   0  0  0  0  0  0  0  0  0  0  0  0
   -2.4135    1.1199    3.9219 C   0  0  0  0  0  0  0  0  0  0  0  0
   -1.6134   -2.3642    3.1319 C   0  0  0  0  0  0  0  0  0  0  0  0
   -2.0297   -2.3793    4.4274 N   0  0  0  0  0  0  0  0  0  0  0  0
   -2.8758   -0.6655    6.0621 C   0  0  0  0  0  0  0  0  0  0  0  0
   -2.9366    1.5809    5.1325 C   0  0  0  0  0  0  0  0  0  0  0  0
   -3.1648    0.6970    6.1849 C   0  0  0  0  0  0  0  0  0  0  0  0
    0.7865   -1.5810    1.5683 H   0  0  0  0  0  0  0  0  0  0  0  0
   -1.5006    0.4669    1.2161 H   0  0  0  0  0  0  0  0  0  0  0  0
    0.6033    0.9912    0.0216 H   0  0  0  0  0  0  0  0  0  0  0  0
    2.0321   -0.0330    0.0458 H   0  0  0  0  0  0  0  0  0  0  0  0
   -0.3633   -1.4634   -3.7238 H   0  0  0  0  0  0  0  0  0  0  0  0
    1.1623    1.8808   -1.7844 H   0  0  0  0  0  0  0  0  0  0  0  0
    1.8914    0.2044    2.4462 H   0  0  0  0  0  0  0  0  0  0  0  0
   -1.3075   -1.0301   -0.5098 H   0  0  0  0  0  0  0  0  0  0  0  0
   -2.2269    1.8180    3.1105 H   0  0  0  0  0  0  0  0  0  0  0  0
   -1.3039   -3.2642    2.6191 H   0  0  0  0  0  0  0  0  0  0  0  0
   -2.0749   -3.2073    5.0108 H   0  0  0  0  0  0  0  0  0  0  0  0
   -3.0427   -1.3489    6.8877 H   0  0  0  0  0  0  0  0  0  0  0  0
   -3.1669    2.6365    5.2485 H   0  0  0  0  0  0  0  0  0  0  0  0
   -3.5758    1.0727    7.1179 H   0  0  0  0  0  0  0  0  0  0  0  0
  1  6  1  0  0  0  0
  1  7  1  0  0  0  0
  1 22  1  0  0  0  0
  1 23  1  0  0  0  0
  2  3  1  0  0  0  0
  2  4  1  0  0  0  0
  2  5  2  0  0  0  0
  2  6  1  0  0  0  0
  3 24  1  0  0  0  0
  4 25  1  0  0  0  0
  7  8  1  0  0  0  0
  7  9  1  0  0  0  0
  7 20  1  1  0  0  0
  8 26  1  0  0  0  0
  9 10  1  0  0  0  0
  9 11  1  0  0  0  0
  9 21  1  6  0  0  0
 10 27  1  0  0  0  0
 11 12  1  0  0  0  0
 11 15  2  0  0  0  0
 12 13  2  0  0  0  0
 12 14  1  0  0  0  0
 13 16  1  0  0  0  0
 13 17  1  0  0  0  0
 14 18  2  0  0  0  0
 14 28  1  0  0  0  0
 15 16  1  0  0  0  0
 15 29  1  0  0  0  0
 16 30  1  0  0  0  0
 17 19  2  0  0  0  0
 17 31  1  0  0  0  0
 18 19  1  0  0  0  0
 18 32  1  0  0  0  0
 19 33  1  0  0  0  0
M  END
>  <DRUGBANK_ID>
DB04143

>  <SECONDARY_ACCESSION_NUMBERS>
EXPT01850

>  <COMMON_NAME>
Indole-3-Glycerol Phosphate

$$$$
