
 OpenBabel10282417243D

 35 36  0  0  0  0  0  0  0  0999 V2000
    1.1486   -0.0041   -0.0077 O   0  0  0  0  0  0  0  0  0  0  0  0
    0.6263    0.7805   -0.9705 C   0  0  0  0  0  0  0  0  0  0  0  0
    1.3238    1.4761   -1.6754 O   0  0  0  0  0  0  0  0  0  0  0  0
   -0.8685    0.6172   -1.1059 C   0  0  0  0  0  0  0  0  0  0  0  0
   -1.5026   -0.6535   -1.2832 O   0  0  0  0  0  0  0  0  0  0  0  0
   -1.2780   -1.2826   -2.4812 C   0  0  0  0  0  0  0  0  0  0  0  0
    0.0152   -1.3520   -2.9946 C   0  0  0  0  0  0  0  0  0  0  0  0
    0.2883   -2.0242   -4.1762 C   0  0  0  0  0  0  0  0  0  0  0  0
   -0.7279   -2.6859   -4.8491 C   0  0  0  0  0  0  0  0  0  0  0  0
   -2.0212   -2.6822   -4.3344 C   0  0  0  0  0  0  0  0  0  0  0  0
   -2.3059   -1.9664   -3.1676 C   0  0  0  0  0  0  0  0  0  0  0  0
   -3.7069   -1.9518   -2.7018 C   0  0  0  0  0  0  0  0  0  0  0  0
   -4.7321   -2.0746   -3.4912 N   0  0  0  0  0  0  0  0  0  0  0  0
   -6.0122   -1.8870   -3.0008 N   0  0  0  0  0  0  0  0  0  0  0  0
   -6.4937   -1.0887   -1.9698 C   0  0  0  0  0  0  0  0  0  0  0  0
   -7.6965   -1.0115   -1.7244 O   0  0  0  0  0  0  0  0  0  0  0  0
   -5.5833   -0.3010   -1.1306 C   0  0  0  0  0  0  0  0  0  0  0  0
   -4.6752    0.5596   -1.7242 C   0  0  0  0  0  0  0  0  0  0  0  0
   -3.7683    1.1546   -0.8890 C   0  0  0  0  0  0  0  0  0  0  0  0
   -3.6474    0.9035    0.4349 N   0  0  0  0  0  0  0  0  0  0  0  0
   -4.5570    0.0769    0.9828 C   0  0  0  0  0  0  0  0  0  0  0  0
   -5.5752   -0.5049    0.2528 C   0  0  0  0  0  0  0  0  0  0  0  0
    2.1149    0.0975   -0.1112 H   0  0  0  0  0  0  0  0  0  0  0  0
   -1.2444    1.0553   -0.1722 H   0  0  0  0  0  0  0  0  0  0  0  0
   -1.1685    1.2853   -1.9236 H   0  0  0  0  0  0  0  0  0  0  0  0
    0.8651   -0.9274   -2.4842 H   0  0  0  0  0  0  0  0  0  0  0  0
    1.3113   -2.0453   -4.5385 H   0  0  0  0  0  0  0  0  0  0  0  0
   -0.5063   -3.2193   -5.7667 H   0  0  0  0  0  0  0  0  0  0  0  0
   -2.7991   -3.2590   -4.8290 H   0  0  0  0  0  0  0  0  0  0  0  0
   -3.8073   -1.7916   -1.6265 H   0  0  0  0  0  0  0  0  0  0  0  0
   -6.7513   -2.2691   -3.5891 H   0  0  0  0  0  0  0  0  0  0  0  0
   -4.5842    0.6723   -2.7995 H   0  0  0  0  0  0  0  0  0  0  0  0
   -3.0269    1.8152   -1.3150 H   0  0  0  0  0  0  0  0  0  0  0  0
   -4.4381   -0.1035    2.0481 H   0  0  0  0  0  0  0  0  0  0  0  0
   -6.3124   -1.1332    0.7367 H   0  0  0  0  0  0  0  0  0  0  0  0
  1  2  1  0  0  0  0
  1 23  1  0  0  0  0
  2  3  2  0  0  0  0
  2  4  1  0  0  0  0
  4  5  1  0  0  0  0
  4 24  1  0  0  0  0
  4 25  1  0  0  0  0
  5  6  1  0  0  0  0
  6  7  2  0  0  0  0
  6 11  1  0  0  0  0
  7  8  1  0  0  0  0
  7 26  1  0  0  0  0
  8  9  2  0  0  0  0
  8 27  1  0  0  0  0
  9 10  1  0  0  0  0
  9 28  1  0  0  0  0
 10 11  2  0  0  0  0
 10 29  1  0  0  0  0
 11 12  1  0  0  0  0
 12 13  2  0  0  0  0
 12 30  1  0  0  0  0
 13 14  1  0  0  0  0
 14 15  1  0  0  0  0
 14 31  1  0  0  0  0
 15 16  2  0  0  0  0
 15 17  1  0  0  0  0
 17 18  2  0  0  0  0
 17 22  1  0  0  0  0
 18 19  1  0  0  0  0
 18 32  1  0  0  0  0
 19 20  2  0  0  0  0
 19 33  1  0  0  0  0
 20 21  1  0  0  0  0
 21 22  2  0  0  0  0
 21 34  1  0  0  0  0
 22 35  1  0  0  0  0
M  END
>  <DRUGBANK_ID>
DB17731

>  <COMMON_NAME>
Aconiazide

>  <CAS_NUMBER>
13410-86-1

>  <UNII>
8OKQ9NS8MO

>  <SYNONYMS>
Aconiazide; Isonicophen; Isonicotinic acid (2-(carboxymethoxy)benzylidene)hydrazide; Isonicotinic acid (o-(carboxymethoxy)benzylidene)hydrazide; Phenoxalid

$$$$
