
 OpenBabel10282417203D

 50 51  0  0  1  0  0  0  0  0999 V2000
    0.2143    0.1791   -0.1554 C   0  0  0  0  0  0  0  0  0  0  0  0
    0.2201   -1.3125   -0.5447 C   0  0  0  0  0  0  0  0  0  0  0  0
    0.8913   -2.4545    0.3033 C   0  0  0  0  0  0  0  0  0  0  0  0
    0.0720   -3.2770    0.8080 O   0  0  0  0  0  0  0  0  0  0  0  0
    2.5202   -2.7032    0.4926 C   0  0  0  0  0  0  0  0  0  0  0  0
    3.2075   -2.8950   -0.9200 C   0  0  0  0  0  0  0  0  0  0  0  0
    3.2093   -1.7169   -1.9430 C   0  0  1  0  0  0  0  0  0  0  0  0
    3.9972   -0.4495   -1.5801 C   0  0  0  0  0  0  0  0  0  0  0  0
    3.6661   -2.1167   -3.3014 N   0  0  0  0  0  0  0  0  0  0  0  0
    3.3517   -1.0330   -4.2574 C   0  0  0  0  0  0  0  0  0  0  0  0
    5.1032   -2.4108   -3.2914 C   0  0  0  0  0  0  0  0  0  0  0  0
    3.1710   -1.5594    1.3166 C   0  0  0  0  0  0  0  0  0  0  0  0
    2.7368   -0.3133    0.9706 C   0  0  0  0  0  0  0  0  0  0  0  0
    3.1291    0.9117    1.4707 C   0  0  0  0  0  0  0  0  0  0  0  0
    3.9541    0.8867    2.5531 C   0  0  0  0  0  0  0  0  0  0  0  0
    4.4004   -0.3542    3.0198 C   0  0  0  0  0  0  0  0  0  0  0  0
    4.1008   -1.5615    2.3472 C   0  0  0  0  0  0  0  0  0  0  0  0
    2.6492   -4.0010    1.3503 C   0  0  0  0  0  0  0  0  0  0  0  0
    2.2950   -3.9065    2.7174 C   0  0  0  0  0  0  0  0  0  0  0  0
    2.3421   -4.9966    3.5645 C   0  0  0  0  0  0  0  0  0  0  0  0
    2.6479   -6.2402    3.0372 C   0  0  0  0  0  0  0  0  0  0  0  0
    2.9618   -6.3748    1.6833 C   0  0  0  0  0  0  0  0  0  0  0  0
    3.0228   -5.2548    0.8524 C   0  0  0  0  0  0  0  0  0  0  0  0
    0.0054    0.2932    0.9128 H   0  0  0  0  0  0  0  0  0  0  0  0
   -0.4859    0.7421   -0.7684 H   0  0  0  0  0  0  0  0  0  0  0  0
    1.1058    0.7737   -0.3840 H   0  0  0  0  0  0  0  0  0  0  0  0
   -0.8490   -1.5634   -0.5082 H   0  0  0  0  0  0  0  0  0  0  0  0
    0.4337   -1.4430   -1.6028 H   0  0  0  0  0  0  0  0  0  0  0  0
    4.2436   -3.2144   -0.7547 H   0  0  0  0  0  0  0  0  0  0  0  0
    2.7042   -3.7410   -1.4230 H   0  0  0  0  0  0  0  0  0  0  0  0
    2.1666   -1.4773   -2.1032 H   0  0  0  0  0  0  0  0  0  0  0  0
    5.0668   -0.6007   -1.5957 H   0  0  0  0  0  0  0  0  0  0  0  0
    3.6478    0.3995   -2.1694 H   0  0  0  0  0  0  0  0  0  0  0  0
    3.9714   -0.0250   -0.6133 H   0  0  0  0  0  0  0  0  0  0  0  0
    3.8207   -0.0759   -4.0060 H   0  0  0  0  0  0  0  0  0  0  0  0
    3.6884   -1.2665   -5.2671 H   0  0  0  0  0  0  0  0  0  0  0  0
    2.2675   -0.8575   -4.2934 H   0  0  0  0  0  0  0  0  0  0  0  0
    5.7233   -1.5683   -2.9784 H   0  0  0  0  0  0  0  0  0  0  0  0
    5.3144   -3.2426   -2.6127 H   0  0  0  0  0  0  0  0  0  0  0  0
    5.4682   -2.6822   -4.2794 H   0  0  0  0  0  0  0  0  0  0  0  0
    2.2632   -0.3552    0.0217 H   0  0  0  0  0  0  0  0  0  0  0  0
    2.8295    1.8170    0.9516 H   0  0  0  0  0  0  0  0  0  0  0  0
    4.2586    1.8251    2.9977 H   0  0  0  0  0  0  0  0  0  0  0  0
    4.9800   -0.3823    3.9347 H   0  0  0  0  0  0  0  0  0  0  0  0
    4.5601   -2.4825    2.6975 H   0  0  0  0  0  0  0  0  0  0  0  0
    1.9883   -2.9491    3.1378 H   0  0  0  0  0  0  0  0  0  0  0  0
    2.1003   -4.8598    4.6129 H   0  0  0  0  0  0  0  0  0  0  0  0
    2.6244   -7.1105    3.6824 H   0  0  0  0  0  0  0  0  0  0  0  0
    3.1396   -7.3616    1.2658 H   0  0  0  0  0  0  0  0  0  0  0  0
    3.3351   -5.4056   -0.1774 H   0  0  0  0  0  0  0  0  0  0  0  0
  1  2  1  0  0  0  0
  1 24  1  0  0  0  0
  1 25  1  0  0  0  0
  1 26  1  0  0  0  0
  2  3  1  0  0  0  0
  2 27  1  0  0  0  0
  2 28  1  0  0  0  0
  3  4  2  0  0  0  0
  3  5  1  0  0  0  0
  5  6  1  0  0  0  0
  5 12  1  0  0  0  0
  5 18  1  0  0  0  0
  6  7  1  0  0  0  0
  6 29  1  0  0  0  0
  6 30  1  0  0  0  0
  7  8  1  0  0  0  0
  7  9  1  0  0  0  0
  7 31  1  6  0  0  0
  8 32  1  0  0  0  0
  8 33  1  0  0  0  0
  8 34  1  0  0  0  0
  9 10  1  0  0  0  0
  9 11  1  0  0  0  0
 10 35  1  0  0  0  0
 10 36  1  0  0  0  0
 10 37  1  0  0  0  0
 11 38  1  0  0  0  0
 11 39  1  0  0  0  0
 11 40  1  0  0  0  0
 12 13  2  0  0  0  0
 12 17  1  0  0  0  0
 13 14  1  0  0  0  0
 13 41  1  0  0  0  0
 14 15  2  0  0  0  0
 14 42  1  0  0  0  0
 15 16  1  0  0  0  0
 15 43  1  0  0  0  0
 16 17  2  0  0  0  0
 16 44  1  0  0  0  0
 17 45  1  0  0  0  0
 18 19  2  0  0  0  0
 18 23  1  0  0  0  0
 19 20  1  0  0  0  0
 19 46  1  0  0  0  0
 20 21  2  0  0  0  0
 20 47  1  0  0  0  0
 21 22  1  0  0  0  0
 21 48  1  0  0  0  0
 22 23  2  0  0  0  0
 22 49  1  0  0  0  0
 23 50  1  0  0  0  0
M  END
>  <DRUGBANK_ID>
DB13515

>  <COMMON_NAME>
Levomethadone

>  <CAS_NUMBER>
125-58-6

>  <UNII>
6Y75Z4E8NS

>  <SYNONYMS>
Levomethadone

$$$$
