
 OpenBabel10282417173D

 35 35  0  0  0  0  0  0  0  0999 V2000
    1.3940   -0.2081   -0.0286 C   0  0  0  0  0  0  0  0  0  0  0  0
    0.5019   -1.2764   -0.1096 C   0  0  0  0  0  0  0  0  0  0  0  0
   -0.8682   -1.0085   -0.2372 C   0  0  0  0  0  0  0  0  0  0  0  0
   -1.3627    0.2757   -0.0905 C   0  0  0  0  0  0  0  0  0  0  0  0
   -0.4724    1.3317    0.0749 C   0  0  0  0  0  0  0  0  0  0  0  0
    0.9088    1.0927    0.0023 C   0  0  0  0  0  0  0  0  0  0  0  0
    1.0056   -2.6941   -0.0635 C   0  0  0  0  0  0  0  0  0  0  0  0
    0.5418   -3.4914    1.1772 C   0  0  0  0  0  0  0  0  0  0  0  0
   -0.9789   -3.6232    1.2923 C   0  0  0  0  0  0  0  0  0  0  0  0
    1.1327   -4.8982    1.1162 C   0  0  0  0  0  0  0  0  0  0  0  0
   -1.0027    2.7097    0.3890 C   0  0  3  0  0  0  0  0  0  0  0  0
   -0.4651    3.1805    1.7506 C   0  0  0  0  0  0  0  0  0  0  0  0
    0.2883    4.3230    1.7435 N   0  0  0  0  0  0  0  0  0  0  0  0
   -0.6651    2.5635    2.8051 O   0  0  0  0  0  0  0  0  0  0  0  0
   -0.7048    3.6299   -0.7892 C   0  0  0  0  0  0  0  0  0  0  0  0
    0.8363    4.7536    2.9687 O   0  0  0  0  0  0  0  0  0  0  0  0
    2.4663   -0.3763    0.0339 H   0  0  0  0  0  0  0  0  0  0  0  0
   -1.5866   -1.8087   -0.3822 H   0  0  0  0  0  0  0  0  0  0  0  0
   -2.4392    0.4288   -0.0771 H   0  0  0  0  0  0  0  0  0  0  0  0
    1.6191    1.9148    0.0198 H   0  0  0  0  0  0  0  0  0  0  0  0
    0.7008   -3.1941   -0.9899 H   0  0  0  0  0  0  0  0  0  0  0  0
    2.1053   -2.6828   -0.0757 H   0  0  0  0  0  0  0  0  0  0  0  0
    0.9106   -2.9923    2.0836 H   0  0  0  0  0  0  0  0  0  0  0  0
   -1.4037   -3.9983    0.3538 H   0  0  0  0  0  0  0  0  0  0  0  0
   -1.2711   -4.3010    2.0973 H   0  0  0  0  0  0  0  0  0  0  0  0
   -1.4445   -2.6670    1.5431 H   0  0  0  0  0  0  0  0  0  0  0  0
    2.2259   -4.8678    1.1119 H   0  0  0  0  0  0  0  0  0  0  0  0
    0.8106   -5.4874    1.9807 H   0  0  0  0  0  0  0  0  0  0  0  0
    0.7991   -5.4167    0.2102 H   0  0  0  0  0  0  0  0  0  0  0  0
   -2.0949    2.6637    0.5078 H   0  0  0  0  0  0  0  0  0  0  0  0
    0.5140    4.8754    0.9264 H   0  0  0  0  0  0  0  0  0  0  0  0
   -1.1367    3.2364   -1.7157 H   0  0  0  0  0  0  0  0  0  0  0  0
   -1.1167    4.6270   -0.6131 H   0  0  0  0  0  0  0  0  0  0  0  0
    0.3743    3.7329   -0.9524 H   0  0  0  0  0  0  0  0  0  0  0  0
    0.5358    4.0550    3.5903 H   0  0  0  0  0  0  0  0  0  0  0  0
  1  2  2  0  0  0  0
  1  6  1  0  0  0  0
  1 17  1  0  0  0  0
  2  3  1  0  0  0  0
  2  7  1  0  0  0  0
  3  4  2  0  0  0  0
  3 18  1  0  0  0  0
  4  5  1  0  0  0  0
  4 19  1  0  0  0  0
  5  6  2  0  0  0  0
  5 11  1  0  0  0  0
  6 20  1  0  0  0  0
  7  8  1  0  0  0  0
  7 21  1  0  0  0  0
  7 22  1  0  0  0  0
  8  9  1  0  0  0  0
  8 10  1  0  0  0  0
  8 23  1  0  0  0  0
  9 24  1  0  0  0  0
  9 25  1  0  0  0  0
  9 26  1  0  0  0  0
 10 27  1  0  0  0  0
 10 28  1  0  0  0  0
 10 29  1  0  0  0  0
 11 12  1  0  0  0  0
 11 15  1  0  0  0  0
 11 30  1  0  0  0  0
 12 13  1  0  0  0  0
 12 14  2  0  0  0  0
 13 16  1  0  0  0  0
 13 31  1  0  0  0  0
 15 32  1  0  0  0  0
 15 33  1  0  0  0  0
 15 34  1  0  0  0  0
 16 35  1  0  0  0  0
M  END
>  <DRUGBANK_ID>
DB08955

>  <COMMON_NAME>
Ibuproxam

>  <CAS_NUMBER>
53648-05-8

>  <UNII>
O3LD16O96Z

>  <SYNONYMS>
Ibuproxam; Ibuproxamum; p-Isobutylhydratropohydroxamic acid

$$$$
