
 OpenBabel10282417183D

 49 48  0  0  0  0  0  0  0  0999 V2000
    0.8485   -0.1592   -0.3895 S   0  0  0  0  0  0  0  0  0  0  0  0
    0.1580   -1.3311    0.5007 O   0  0  0  0  0  0  0  0  0  0  0  0
    0.3055    1.2917    0.1960 O   0  0  0  0  0  0  0  0  0  0  0  0
    0.2717   -0.3475   -1.7128 O   0  0  0  0  0  0  0  0  0  0  0  0
    2.2599   -0.3082   -0.1949 O   0  0  0  0  0  0  0  0  0  0  0  0
    0.8468    2.1133    1.2648 C   0  0  3  0  0  0  0  0  0  0  0  0
    0.4127    1.6209    2.6619 C   0  0  0  0  0  0  0  0  0  0  0  0
    2.3516    2.3773    1.2199 C   0  0  0  0  0  0  0  0  0  0  0  0
    2.8281    3.1344    0.0282 C   0  0  0  0  0  0  0  0  0  0  0  0
    0.9381    0.2175    2.8813 C   0  0  0  0  0  0  0  0  0  0  0  0
    2.4137    4.5883    0.0918 C   0  0  3  0  0  0  0  0  0  0  0  0
    2.9276    5.2736    1.3659 C   0  0  0  0  0  0  0  0  0  0  0  0
    2.9064    5.2645   -1.1873 C   0  0  0  0  0  0  0  0  0  0  0  0
    0.8097    4.5697   -2.4529 C   0  0  0  0  0  0  0  0  0  0  0  0
    2.3383    4.6003   -2.4478 C   0  0  0  0  0  0  0  0  0  0  0  0
    2.4348   -0.0680    2.8747 C   0  0  0  0  0  0  0  0  0  0  0  0
    0.2756   -0.6201    3.9333 C   0  0  0  0  0  0  0  0  0  0  0  0
    4.4442    5.2428    1.4579 C   0  0  0  0  0  0  0  0  0  0  0  0
    0.2534    5.9816   -2.3795 C   0  0  0  0  0  0  0  0  0  0  0  0
    0.8445   -1.7563    1.0660 H   0  0  0  0  0  0  0  0  0  0  0  0
    0.3374    3.0859    1.1651 H   0  0  0  0  0  0  0  0  0  0  0  0
    0.7041    2.2975    3.4736 H   0  0  0  0  0  0  0  0  0  0  0  0
   -0.6894    1.5941    2.6551 H   0  0  0  0  0  0  0  0  0  0  0  0
    2.7223    2.7788    2.1703 H   0  0  0  0  0  0  0  0  0  0  0  0
    2.9135    1.4917    1.0325 H   0  0  0  0  0  0  0  0  0  0  0  0
    3.9210    3.0425   -0.0393 H   0  0  0  0  0  0  0  0  0  0  0  0
    2.4481    2.6043   -0.8480 H   0  0  0  0  0  0  0  0  0  0  0  0
    0.5177   -0.2136    2.0221 H   0  0  0  0  0  0  0  0  0  0  0  0
    1.3222    4.6505    0.1376 H   0  0  0  0  0  0  0  0  0  0  0  0
    2.5581    6.3027    1.3949 H   0  0  0  0  0  0  0  0  0  0  0  0
    2.5012    4.7970    2.2582 H   0  0  0  0  0  0  0  0  0  0  0  0
    2.6414    6.3247   -1.1481 H   0  0  0  0  0  0  0  0  0  0  0  0
    3.9978    5.2220   -1.2511 H   0  0  0  0  0  0  0  0  0  0  0  0
    0.4601    4.0704   -3.3613 H   0  0  0  0  0  0  0  0  0  0  0  0
    0.4168    3.9731   -1.6203 H   0  0  0  0  0  0  0  0  0  0  0  0
    2.7126    5.1359   -3.3243 H   0  0  0  0  0  0  0  0  0  0  0  0
    2.7238    3.5792   -2.5562 H   0  0  0  0  0  0  0  0  0  0  0  0
    2.9500    0.4930    3.6516 H   0  0  0  0  0  0  0  0  0  0  0  0
    2.6264   -1.1402    2.9412 H   0  0  0  0  0  0  0  0  0  0  0  0
    2.9577    0.1242    1.9550 H   0  0  0  0  0  0  0  0  0  0  0  0
   -0.8095   -0.6160    3.8023 H   0  0  0  0  0  0  0  0  0  0  0  0
    0.6070   -1.6585    3.7930 H   0  0  0  0  0  0  0  0  0  0  0  0
    0.5595   -0.2711    4.9205 H   0  0  0  0  0  0  0  0  0  0  0  0
    4.8894    5.7705    0.6117 H   0  0  0  0  0  0  0  0  0  0  0  0
    4.7834    5.7200    2.3765 H   0  0  0  0  0  0  0  0  0  0  0  0
    4.8326    4.2190    1.4579 H   0  0  0  0  0  0  0  0  0  0  0  0
    0.6234    6.5694   -3.2247 H   0  0  0  0  0  0  0  0  0  0  0  0
   -0.8369    5.9700   -2.3969 H   0  0  0  0  0  0  0  0  0  0  0  0
    0.5523    6.4924   -1.4581 H   0  0  0  0  0  0  0  0  0  0  0  0
  2  1  1  0  0  0  0
  2 20  1  0  0  0  0
  3  1  1  0  0  0  0
  4  1  2  0  0  0  0
  5  1  2  0  0  0  0
  6  3  1  0  0  0  0
  6 21  1  0  0  0  0
  7  6  1  0  0  0  0
  7 22  1  0  0  0  0
  7 23  1  0  0  0  0
  8  6  1  0  0  0  0
  8 24  1  0  0  0  0
  8 25  1  0  0  0  0
  9  8  1  0  0  0  0
  9 26  1  0  0  0  0
  9 27  1  0  0  0  0
 10  7  1  0  0  0  0
 10 28  1  0  0  0  0
 11  9  1  0  0  0  0
 11 29  1  0  0  0  0
 12 11  1  0  0  0  0
 12 30  1  0  0  0  0
 12 31  1  0  0  0  0
 13 11  1  0  0  0  0
 13 32  1  0  0  0  0
 13 33  1  0  0  0  0
 14 15  1  0  0  0  0
 14 34  1  0  0  0  0
 14 35  1  0  0  0  0
 15 13  1  0  0  0  0
 15 36  1  0  0  0  0
 15 37  1  0  0  0  0
 16 10  1  0  0  0  0
 16 38  1  0  0  0  0
 16 39  1  0  0  0  0
 16 40  1  0  0  0  0
 17 10  1  0  0  0  0
 17 41  1  0  0  0  0
 17 42  1  0  0  0  0
 17 43  1  0  0  0  0
 18 12  1  0  0  0  0
 18 44  1  0  0  0  0
 18 45  1  0  0  0  0
 18 46  1  0  0  0  0
 19 14  1  0  0  0  0
 19 47  1  0  0  0  0
 19 48  1  0  0  0  0
 19 49  1  0  0  0  0
M  END
>  <DRUGBANK_ID>
DB11328

>  <COMMON_NAME>
Tetradecyl hydrogen sulfate (ester)

>  <CAS_NUMBER>
300-52-7

>  <UNII>
6326W0DRHY

>  <SYNONYMS>
7-Ethyl-2-methyl-4-undecanol sulfate; Tetradecyl hydrogen sulfate

$$$$
