
 OpenBabel10282417143D

107111  0  0  1  0  0  0  0  0999 V2000
    1.1306   -0.8857    0.4464 C   0  0  0  0  0  0  0  0  0  0  0  0
    5.5502    1.3234   -5.1469 C   0  0  0  0  0  0  0  0  0  0  0  0
    2.0561    3.0153   -4.0188 C   0  0  0  0  0  0  0  0  0  0  0  0
    3.4608    5.6347   -3.2973 C   0  0  0  0  0  0  0  0  0  0  0  0
   -1.4896   -0.7057   -1.8593 C   0  0  0  0  0  0  0  0  0  0  0  0
   -1.1303    5.9248   -4.1415 C   0  0  0  0  0  0  0  0  0  0  0  0
    0.9176   -0.4643   -0.9492 C   0  0  2  0  0  0  0  0  0  0  0  0
    4.2540    1.3005   -4.5157 C   0  0  2  0  0  0  0  0  0  0  0  0
    2.4618    4.4003   -4.2482 C   0  0  0  0  0  0  0  0  0  0  0  0
    0.3567    1.8313   -4.4736 C   0  0  1  0  0  0  0  0  0  0  0  0
   -1.1369    0.4947   -2.7904 C   0  0  2  0  0  0  0  0  0  0  0  0
   -1.5155    4.8914   -3.1266 C   0  0  2  0  0  0  0  0  0  0  0  0
    2.2141   -0.0435   -2.5001 C   0  0  2  0  0  0  0  0  0  0  0  0
    3.4258    0.2066   -5.1180 C   0  0  2  0  0  0  0  0  0  0  0  0
   -0.5601    2.1088   -5.5667 C   0  0  1  0  0  0  0  0  0  0  0  0
    3.4115    1.4151   -1.6452 C   0  0  1  0  0  0  0  0  0  0  0  0
    2.8099    0.5591   -6.4476 C   0  0  1  0  0  0  0  0  0  0  0  0
    0.1496    3.5377   -6.1120 C   0  0  2  0  0  0  0  0  0  0  0  0
    0.9602    1.3354   -1.3786 C   0  0  2  0  0  0  0  0  0  0  0  0
    0.7855    5.4532   -1.3921 C   0  0  2  0  0  0  0  0  0  0  0  0
   -0.4300    2.8463   -1.1292 C   0  0  2  0  0  0  0  0  0  0  0  0
    2.7041    3.0039   -0.5085 C   0  0  2  0  0  0  0  0  0  0  0  0
    2.5914    2.0065   -6.7213 C   0  0  2  0  0  0  0  0  0  0  0  0
    1.4801    4.0265   -2.2317 C   0  0  2  0  0  0  0  0  0  0  0  0
    1.7014    4.6426   -5.5643 C   0  0  2  0  0  0  0  0  0  0  0  0
    0.4595    0.7542   -2.6244 C   0  0  2  0  0  0  0  0  0  0  0  0
   -0.7535    5.3553   -1.2626 C   0  0  2  0  0  0  0  0  0  0  0  0
   -1.7930    2.4674   -1.3092 C   0  0  1  0  0  0  0  0  0  0  0  0
    0.7612    2.7011    0.3266 C   0  0  2  0  0  0  0  0  0  0  0  0
    3.4167    3.0369   -6.0277 C   0  0  2  0  0  0  0  0  0  0  0  0
    0.4929    3.2894   -3.5682 C   0  0  2  0  0  0  0  0  0  0  0  0
    1.1165   -0.0231   -4.3137 N   0  0  0  0  0  0  0  0  0  0  0  0
    2.9988    6.2857   -1.7692 O   0  0  0  0  0  0  0  0  0  0  0  0
   -2.1374   -1.5955   -2.6513 O   0  0  0  0  0  0  0  0  0  0  0  0
   -0.4148    5.7000   -5.2864 O   0  0  0  0  0  0  0  0  0  0  0  0
    3.0203   -0.8273   -4.2735 O   0  0  0  0  0  0  0  0  0  0  0  0
   -0.3939    0.9200   -6.2875 O   0  0  0  0  0  0  0  0  0  0  0  0
    3.8722    0.8498   -0.4670 O   0  0  0  0  0  0  0  0  0  0  0  0
    3.7968    0.4098   -7.4062 O   0  0  0  0  0  0  0  0  0  0  0  0
   -1.1284    4.0010   -6.3874 O   0  0  0  0  0  0  0  0  0  0  0  0
    1.6007    1.0376   -0.0555 O   0  0  0  0  0  0  0  0  0  0  0  0
    0.9637    6.2621   -2.5463 O   0  0  0  0  0  0  0  0  0  0  0  0
   -0.4827    3.7794   -2.1123 O   0  0  0  0  0  0  0  0  0  0  0  0
    3.2445    4.3057   -1.7756 O   0  0  0  0  0  0  0  0  0  0  0  0
    1.4567    2.0124   -6.1295 O   0  0  0  0  0  0  0  0  0  0  0  0
    1.2188    2.9433   -1.7200 O   0  0  0  0  0  0  0  0  0  0  0  0
   -2.4995    3.6754   -1.0963 O   0  0  0  0  0  0  0  0  0  0  0  0
   -0.2623    1.0336   -0.2626 O   0  0  0  0  0  0  0  0  0  0  0  0
    3.9757    2.6737   -4.7248 O   0  0  0  0  0  0  0  0  0  0  0  0
   -1.9921    1.6969   -2.5051 O   0  0  0  0  0  0  0  0  0  0  0  0
   -0.9652    3.6487   -3.8967 O   0  0  0  0  0  0  0  0  0  0  0  0
    2.8676    4.3774   -6.2789 O   0  0  0  0  0  0  0  0  0  0  0  0
   -0.5708    4.1987    0.3019 O   0  0  0  0  0  0  0  0  0  0  0  0
    1.5269    1.5674   -3.7016 O   0  0  0  0  0  0  0  0  0  0  0  0
    0.2163   -0.7042   -1.5664 H   0  0  0  0  0  0  0  0  0  0  0  0
    4.5600    0.9934   -3.5233 H   0  0  0  0  0  0  0  0  0  0  0  0
   -0.4078    1.9132   -3.5385 H   0  0  0  0  0  0  0  0  0  0  0  0
   -1.2756    0.2375   -3.8805 H   0  0  0  0  0  0  0  0  0  0  0  0
   -2.5074    4.4449   -3.1174 H   0  0  0  0  0  0  0  0  0  0  0  0
    2.5672   -1.1082   -2.4224 H   0  0  0  0  0  0  0  0  0  0  0  0
    4.0200   -0.6528   -5.2883 H   0  0  0  0  0  0  0  0  0  0  0  0
   -1.5586    2.1793   -5.1225 H   0  0  0  0  0  0  0  0  0  0  0  0
    3.8693    1.9488   -2.4821 H   0  0  0  0  0  0  0  0  0  0  0  0
    1.9333   -0.0770   -6.6367 H   0  0  0  0  0  0  0  0  0  0  0  0
    0.6233    3.4381   -7.0463 H   0  0  0  0  0  0  0  0  0  0  0  0
    1.9251    1.5161   -1.2768 H   0  0  0  0  0  0  0  0  0  0  0  0
    1.3595    5.4735   -0.3951 H   0  0  0  0  0  0  0  0  0  0  0  0
    0.5122    3.8699   -0.6327 H   0  0  0  0  0  0  0  0  0  0  0  0
    3.2636    3.9480   -0.2984 H   0  0  0  0  0  0  0  0  0  0  0  0
    2.1052    2.3322   -7.6234 H   0  0  0  0  0  0  0  0  0  0  0  0
    2.5433    3.1137   -2.0626 H   0  0  0  0  0  0  0  0  0  0  0  0
    1.4694    5.6737   -5.2413 H   0  0  0  0  0  0  0  0  0  0  0  0
    0.5931   -0.3494   -2.8448 H   0  0  0  0  0  0  0  0  0  0  0  0
   -1.6657    5.9580   -1.2554 H   0  0  0  0  0  0  0  0  0  0  0  0
   -1.8365    1.9849   -0.3920 H   0  0  0  0  0  0  0  0  0  0  0  0
    1.3189    2.4514    1.2073 H   0  0  0  0  0  0  0  0  0  0  0  0
    4.2661    3.0766   -6.5921 H   0  0  0  0  0  0  0  0  0  0  0  0
    0.6800    3.9868   -4.2911 H   0  0  0  0  0  0  0  0  0  0  0  0
    0.4464   -1.6759    0.3830 H   0  0  0  0  0  0  0  0  0  0  0  0
    0.6838   -0.0979    1.2564 H   0  0  0  0  0  0  0  0  0  0  0  0
    2.2082   -0.7800    0.3144 H   0  0  0  0  0  0  0  0  0  0  0  0
    5.4465    1.5558   -6.1755 H   0  0  0  0  0  0  0  0  0  0  0  0
    6.0855    2.1785   -4.7583 H   0  0  0  0  0  0  0  0  0  0  0  0
    5.9154    0.3320   -4.9963 H   0  0  0  0  0  0  0  0  0  0  0  0
    2.2911    2.3890   -2.9892 H   0  0  0  0  0  0  0  0  0  0  0  0
    4.3679    5.0496   -2.8948 H   0  0  0  0  0  0  0  0  0  0  0  0
    3.0351    6.4246   -3.8302 H   0  0  0  0  0  0  0  0  0  0  0  0
   -0.8266   -1.5794   -1.4675 H   0  0  0  0  0  0  0  0  0  0  0  0
   -1.8314   -0.1462   -0.9932 H   0  0  0  0  0  0  0  0  0  0  0  0
   -1.9967    6.2571   -4.5832 H   0  0  0  0  0  0  0  0  0  0  0  0
   -0.4256    6.5478   -3.7135 H   0  0  0  0  0  0  0  0  0  0  0  0
    0.2266   -0.5520   -4.4129 H   0  0  0  0  0  0  0  0  0  0  0  0
    2.0675    6.5368   -1.8657 H   0  0  0  0  0  0  0  0  0  0  0  0
   -2.7693   -0.9794   -3.0085 H   0  0  0  0  0  0  0  0  0  0  0  0
   -0.3115    4.7985   -5.0162 H   0  0  0  0  0  0  0  0  0  0  0  0
    2.0349   -0.9059   -4.3378 H   0  0  0  0  0  0  0  0  0  0  0  0
    0.5643    1.0488   -6.4745 H   0  0  0  0  0  0  0  0  0  0  0  0
    3.0252    0.9859    0.0646 H   0  0  0  0  0  0  0  0  0  0  0  0
    4.3091    1.2083   -7.2130 H   0  0  0  0  0  0  0  0  0  0  0  0
   -0.8586    4.1373   -7.2841 H   0  0  0  0  0  0  0  0  0  0  0  0
    0.6681    0.8596    0.2206 H   0  0  0  0  0  0  0  0  0  0  0  0
    1.1968    5.7906   -3.3896 H   0  0  0  0  0  0  0  0  0  0  0  0
    0.1244    4.6315   -2.6755 H   0  0  0  0  0  0  0  0  0  0  0  0
    3.4259    3.8366   -2.7823 H   0  0  0  0  0  0  0  0  0  0  0  0
    1.6319    2.4953   -5.3576 H   0  0  0  0  0  0  0  0  0  0  0  0
    0.4912    2.4810   -2.2635 H   0  0  0  0  0  0  0  0  0  0  0  0
   -1.8153    4.1596   -0.5610 H   0  0  0  0  0  0  0  0  0  0  0  0
  1 79  1  0  0  0  0
  1 80  1  0  0  0  0
  1 81  1  0  0  0  0
  2 82  1  0  0  0  0
  2 83  1  0  0  0  0
  2 84  1  0  0  0  0
  3 85  1  0  0  0  0
  4 86  1  0  0  0  0
  4 87  1  0  0  0  0
  5 88  1  0  0  0  0
  5 89  1  0  0  0  0
  6 90  1  0  0  0  0
  6 91  1  0  0  0  0
  7  1  1  0  0  0  0
  7 55  1  6  0  0  0
  8 56  1  1  0  0  0
  8  2  1  0  0  0  0
  9  3  2  0  0  0  0
  9  4  1  0  0  0  0
 10  3  1  0  0  0  0
 10 32  1  0  0  0  0
 10 57  1  1  0  0  0
 11 58  1  6  0  0  0
 11  5  1  0  0  0  0
 12 59  1  1  0  0  0
 12  6  1  0  0  0  0
 13  7  1  0  0  0  0
 13 60  1  6  0  0  0
 13 32  1  0  0  0  0
 14  8  1  0  0  0  0
 14 61  1  6  0  0  0
 14 36  1  0  0  0  0
 15 10  1  0  0  0  0
 15 62  1  1  0  0  0
 15 37  1  0  0  0  0
 16 13  1  0  0  0  0
 16 38  1  0  0  0  0
 16 63  1  6  0  0  0
 17 14  1  0  0  0  0
 17 39  1  0  0  0  0
 17 64  1  6  0  0  0
 18 15  1  0  0  0  0
 18 65  1  6  0  0  0
 18 40  1  0  0  0  0
 19 41  1  0  0  0  0
 19 66  1  6  0  0  0
 20 42  1  0  0  0  0
 20 67  1  1  0  0  0
 21 19  1  0  0  0  0
 21 68  1  1  0  0  0
 21 43  1  0  0  0  0
 22 16  1  0  0  0  0
 22 69  1  1  0  0  0
 22 44  1  0  0  0  0
 23 17  1  0  0  0  0
 23 70  1  6  0  0  0
 23 45  1  0  0  0  0
 24 20  1  0  0  0  0
 24 71  1  6  0  0  0
 24 46  1  0  0  0  0
 25  9  1  0  0  0  0
 25 18  1  0  0  0  0
 25 52  1  0  0  0  0
 25 72  1  6  0  0  0
 26 11  1  0  0  0  0
 26 19  1  0  0  0  0
 26 54  1  0  0  0  0
 26 73  1  1  0  0  0
 27 12  1  0  0  0  0
 27 20  1  0  0  0  0
 27 53  1  0  0  0  0
 27 74  1  1  0  0  0
 28 21  1  0  0  0  0
 28 75  1  1  0  0  0
 28 47  1  0  0  0  0
 29 22  1  0  0  0  0
 29 76  1  1  0  0  0
 29 53  1  0  0  0  0
 30 23  1  0  0  0  0
 30 52  1  0  0  0  0
 30 77  1  6  0  0  0
 31 24  1  0  0  0  0
 31 78  1  6  0  0  0
 31 54  1  0  0  0  0
 32 92  1  0  0  0  0
 33  4  1  0  0  0  0
 33 93  1  0  0  0  0
 34  5  1  0  0  0  0
 34 94  1  0  0  0  0
 35  6  1  0  0  0  0
 35 95  1  0  0  0  0
 36 96  1  0  0  0  0
 37 97  1  0  0  0  0
 38 98  1  0  0  0  0
 39 99  1  0  0  0  0
 40100  1  0  0  0  0
 41101  1  0  0  0  0
 42102  1  0  0  0  0
 43103  1  0  0  0  0
 44104  1  0  0  0  0
 45105  1  0  0  0  0
 46106  1  0  0  0  0
 47107  1  0  0  0  0
 48  7  1  0  0  0  0
 48 29  1  0  0  0  0
 49  8  1  0  0  0  0
 49 30  1  0  0  0  0
 50 11  1  0  0  0  0
 50 28  1  0  0  0  0
 51 12  1  0  0  0  0
 51 31  1  0  0  0  0
M  END
>  <DRUGBANK_ID>
DB04439

>  <SECONDARY_ACCESSION_NUMBERS>
EXPT00411

>  <COMMON_NAME>
Modified Acarbose Pentasaccharide

$$$$
