
 OpenBabel10282417113D

 38 39  0  0  0  0  0  0  0  0999 V2000
    0.8948    0.7633    2.5435 C   0  0  0  0  0  0  0  0  0  0  0  0
   -0.4336    1.2131   -3.2597 C   0  0  0  0  0  0  0  0  0  0  0  0
    0.4742    1.0285    1.1185 C   0  0  0  0  0  0  0  0  0  0  0  0
   -0.2179    1.2474   -1.7686 C   0  0  0  0  0  0  0  0  0  0  0  0
    0.1673    3.7091    2.4630 C   0  0  0  0  0  0  0  0  0  0  0  0
   -2.1168    3.3492    1.7765 C   0  0  0  0  0  0  0  0  0  0  0  0
   -1.1617    4.6086   -1.0106 C   0  0  0  0  0  0  0  0  0  0  0  0
   -2.6145    3.0796   -2.1703 C   0  0  0  0  0  0  0  0  0  0  0  0
   -0.2623    4.5462    3.4934 C   0  0  0  0  0  0  0  0  0  0  0  0
   -2.5414    4.2582    2.7484 C   0  0  0  0  0  0  0  0  0  0  0  0
   -1.9365    5.6836   -1.4499 C   0  0  0  0  0  0  0  0  0  0  0  0
   -3.3281    4.1578   -2.6963 C   0  0  0  0  0  0  0  0  0  0  0  0
   -0.7567    3.0456    1.6305 C   0  0  0  0  0  0  0  0  0  0  0  0
   -1.4861    3.2874   -1.3558 C   0  0  0  0  0  0  0  0  0  0  0  0
   -1.6165    4.8215    3.6189 C   0  0  0  0  0  0  0  0  0  0  0  0
   -2.9926    5.4493   -2.3202 C   0  0  0  0  0  0  0  0  0  0  0  0
   -0.2864    2.0341    0.6234 C   0  0  0  0  0  0  0  0  0  0  0  0
   -0.6508    2.1456   -0.8478 C   0  0  0  0  0  0  0  0  0  0  0  0
   -2.0846    5.6494    4.5949 O   0  0  0  0  0  0  0  0  0  0  0  0
   -3.7325    6.4717   -2.8330 O   0  0  0  0  0  0  0  0  0  0  0  0
    0.8737    0.2614    0.4607 H   0  0  0  0  0  0  0  0  0  0  0  0
    0.3915    0.4011   -1.4650 H   0  0  0  0  0  0  0  0  0  0  0  0
    0.4548    1.4315    3.2845 H   0  0  0  0  0  0  0  0  0  0  0  0
    1.9835    0.8486    2.6245 H   0  0  0  0  0  0  0  0  0  0  0  0
    0.5964   -0.2441    2.8411 H   0  0  0  0  0  0  0  0  0  0  0  0
    0.5288    1.1745   -3.7761 H   0  0  0  0  0  0  0  0  0  0  0  0
   -1.0070    0.3182   -3.5245 H   0  0  0  0  0  0  0  0  0  0  0  0
   -0.9561    2.0773   -3.6688 H   0  0  0  0  0  0  0  0  0  0  0  0
    1.2327    3.5140    2.3565 H   0  0  0  0  0  0  0  0  0  0  0  0
   -2.8575    2.9030    1.1164 H   0  0  0  0  0  0  0  0  0  0  0  0
   -0.3180    4.8124   -0.3557 H   0  0  0  0  0  0  0  0  0  0  0  0
   -2.9182    2.0734   -2.4509 H   0  0  0  0  0  0  0  0  0  0  0  0
    0.4701    4.9502    4.1845 H   0  0  0  0  0  0  0  0  0  0  0  0
   -3.5934    4.5114    2.8329 H   0  0  0  0  0  0  0  0  0  0  0  0
   -1.6915    6.6816   -1.1036 H   0  0  0  0  0  0  0  0  0  0  0  0
   -4.1398    3.9866   -3.3969 H   0  0  0  0  0  0  0  0  0  0  0  0
   -1.3336    5.9485    5.1327 H   0  0  0  0  0  0  0  0  0  0  0  0
   -3.3907    7.3063   -2.4736 H   0  0  0  0  0  0  0  0  0  0  0  0
  1 23  1  0  0  0  0
  1 24  1  0  0  0  0
  1 25  1  0  0  0  0
  2 26  1  0  0  0  0
  2 27  1  0  0  0  0
  2 28  1  0  0  0  0
  3  1  1  0  0  0  0
  4  2  1  0  0  0  0
  5 29  1  0  0  0  0
  6 30  1  0  0  0  0
  7 31  1  0  0  0  0
  8 32  1  0  0  0  0
  9  5  1  0  0  0  0
  9 33  1  0  0  0  0
 10  6  2  0  0  0  0
 10 34  1  0  0  0  0
 11  7  1  0  0  0  0
 11 35  1  0  0  0  0
 12  8  2  0  0  0  0
 12 36  1  0  0  0  0
 13  5  2  0  0  0  0
 13  6  1  0  0  0  0
 14  7  2  0  0  0  0
 14  8  1  0  0  0  0
 15  9  2  0  0  0  0
 15 10  1  0  0  0  0
 16 11  2  0  0  0  0
 16 12  1  0  0  0  0
 17  3  2  0  0  0  0
 17 13  1  0  0  0  0
 18  4  2  0  0  0  0
 18 14  1  0  0  0  0
 18 17  1  0  0  0  0
 19 15  1  0  0  0  0
 19 37  1  0  0  0  0
 20 16  1  0  0  0  0
 20 38  1  0  0  0  0
 21  3  1  0  0  0  0
 22  4  1  0  0  0  0
M  END
>  <DRUGBANK_ID>
DB00890

>  <SECONDARY_ACCESSION_NUMBERS>
APRD00917

>  <COMMON_NAME>
Dienestrol

>  <CAS_NUMBER>
13029-44-2

>  <UNII>
RRW32X4U1F

>  <SYNONYMS>
4,4'-Hydroxy-γ,δ-diphenyl-β,δ-hexadiene; alpha-dienestrol diacetate; Cycladiene; Dehydrostilbestrol; Dienestrol; Diènestrol; Dienestrolum; p,p'-(Diethylideneethylene)diphenol

$$$$
