
 OpenBabel10282417233D

 27 26  0  0  1  0  0  0  0  0999 V2000
   -0.5623    4.1619    0.6485 C   0  0  0  0  0  0  0  0  0  0  0  0
   -1.2654    2.3712    2.8672 C   0  0  0  0  0  0  0  0  0  0  0  0
    1.1033    1.2760   -1.9888 C   0  0  0  0  0  0  0  0  0  0  0  0
   -0.2149    1.3038    2.5295 C   0  0  2  0  0  0  0  0  0  0  0  0
    0.6142    2.4536   -1.1971 C   0  0  1  0  0  0  0  0  0  0  0  0
    0.2560    1.1371    1.0493 C   0  0  2  0  0  0  0  0  0  0  0  0
    0.9591    2.3455    0.3111 C   0  0  2  0  0  0  0  0  0  0  0  0
   -2.5023    2.2341    2.1582 O   0  0  0  0  0  0  0  0  0  0  0  0
    0.4842    0.8348   -2.9728 O   0  0  0  0  0  0  0  0  0  0  0  0
   -0.8047    0.0563    2.9396 O   0  0  0  0  0  0  0  0  0  0  0  0
    1.1179    3.6638   -1.7693 O   0  0  0  0  0  0  0  0  0  0  0  0
   -0.8085    0.5528    0.2774 O   0  0  0  0  0  0  0  0  0  0  0  0
    0.7330    3.6335    0.9273 O   0  0  0  0  0  0  0  0  0  0  0  0
    0.6646    1.4723    3.1613 H   0  0  0  0  0  0  0  0  0  0  0  0
   -0.4716    2.5047   -1.3276 H   0  0  0  0  0  0  0  0  0  0  0  0
    0.9980    0.3225    1.0651 H   0  0  0  0  0  0  0  0  0  0  0  0
    2.0439    2.1884    0.4184 H   0  0  0  0  0  0  0  0  0  0  0  0
   -1.2421    3.3327    0.6732 H   0  0  0  0  0  0  0  0  0  0  0  0
   -0.7081    4.5713   -0.3481 H   0  0  0  0  0  0  0  0  0  0  0  0
   -0.8465    4.8906    1.4105 H   0  0  0  0  0  0  0  0  0  0  0  0
   -1.5612    2.3419    3.9158 H   0  0  0  0  0  0  0  0  0  0  0  0
   -0.8275    3.3605    2.7713 H   0  0  0  0  0  0  0  0  0  0  0  0
    2.0804    0.8690   -1.7098 H   0  0  0  0  0  0  0  0  0  0  0  0
   -2.3824    2.0894    1.2096 H   0  0  0  0  0  0  0  0  0  0  0  0
   -1.6388   -0.0049    2.4301 H   0  0  0  0  0  0  0  0  0  0  0  0
    2.0297    3.8043   -1.4675 H   0  0  0  0  0  0  0  0  0  0  0  0
   -1.3690    1.2224   -0.1360 H   0  0  0  0  0  0  0  0  0  0  0  0
  1 18  1  0  0  0  0
  1 19  1  0  0  0  0
  1 20  1  0  0  0  0
  2 21  1  0  0  0  0
  2 22  1  0  0  0  0
  3 23  1  0  0  0  0
  4  2  1  0  0  0  0
  4 10  1  0  0  0  0
  4 14  1  1  0  0  0
  5 11  1  0  0  0  0
  5 15  1  6  0  0  0
  5  7  1  0  0  0  0
  5  3  1  0  0  0  0
  6  4  1  0  0  0  0
  6 12  1  0  0  0  0
  6 16  1  1  0  0  0
  7 17  1  1  0  0  0
  7 13  1  0  0  0  0
  7  6  1  0  0  0  0
  8  2  1  0  0  0  0
  8 24  1  0  0  0  0
  9  3  2  0  0  0  0
 10 25  1  0  0  0  0
 11 26  1  0  0  0  0
 12 27  1  0  0  0  0
 13  1  1  0  0  0  0
M  END
>  <DRUGBANK_ID>
DB16765

>  <COMMON_NAME>
3-O-Methyl-d-glucose

>  <CAS_NUMBER>
146-72-5

>  <UNII>
48DU64I6O5

>  <SYNONYMS>
3-Methyl-D-glucose; 3-Methylglucose; 3-O-Methylglucose; Methylglucose; O(3)-methyl-D-glucose

$$$$
