
 OpenBabel10282417153D

 83 87  0  0  0  0  0  0  0  0999 V2000
    0.8888    0.6168   -0.3507 O   0  0  0  0  0  0  0  0  0  0  0  0
   10.2943   -4.6387    1.7055 O   0  0  0  0  0  0  0  0  0  0  0  0
    2.2620   -1.6466    1.2796 O   0  0  0  0  0  0  0  0  0  0  0  0
    5.8288   -5.9277   -4.2388 O   0  0  0  0  0  0  0  0  0  0  0  0
    2.6452   -3.5384   -0.4890 N   0  0  0  0  0  0  0  0  0  0  0  0
    7.2345   -1.0252    0.1896 N   0  0  0  0  0  0  0  0  0  0  0  0
    8.4511   -3.6142    0.8277 N   0  0  0  0  0  0  0  0  0  0  0  0
    7.2619    1.3287    0.0742 N   0  0  0  0  0  0  0  0  0  0  0  0
    9.3418   -5.7163    0.0111 N   0  0  0  0  0  0  0  0  0  0  0  0
    5.2000    2.6408    0.0111 N   0  0  0  0  0  0  0  0  0  0  0  0
    2.1694   -4.9058   -0.4551 C   0  0  0  0  0  0  0  0  0  0  0  0
    3.8882   -3.4761    0.3009 C   0  0  0  0  0  0  0  0  0  0  0  0
    2.2773   -5.5465    0.9848 C   0  0  0  0  0  0  0  0  0  0  0  0
    4.0240   -4.0399    1.7225 C   0  0  0  0  0  0  0  0  0  0  0  0
    3.6558   -5.4632    1.6340 C   0  0  0  0  0  0  0  0  0  0  0  0
    2.1358   -2.5396   -1.5461 C   0  0  0  0  0  0  0  0  0  0  0  0
    0.6144   -1.7593   -1.5202 C   0  0  0  0  0  0  0  0  0  0  0  0
    7.2888   -2.1229   -0.8053 C   0  0  0  0  0  0  0  0  0  0  0  0
    8.4336   -1.0991    1.0872 C   0  0  0  0  0  0  0  0  0  0  0  0
    7.2566   -3.4658    0.0013 C   0  0  0  0  0  0  0  0  0  0  0  0
    8.4810   -2.4996    1.8043 C   0  0  0  0  0  0  0  0  0  0  0  0
    0.1101   -0.5730   -0.4433 C   0  0  0  0  0  0  0  0  0  0  0  0
    6.5636    0.2046   -0.0028 C   0  0  0  0  0  0  0  0  0  0  0  0
    5.1185    0.3181   -0.0375 C   0  0  0  0  0  0  0  0  0  0  0  0
    9.3947   -4.6316    0.8631 C   0  0  0  0  0  0  0  0  0  0  0  0
    4.4613    1.5552   -0.0305 C   0  0  0  0  0  0  0  0  0  0  0  0
    2.1848    0.4583    0.0376 C   0  0  0  0  0  0  0  0  0  0  0  0
    4.2414   -0.7110    0.0934 C   0  0  0  0  0  0  0  0  0  0  0  0
    3.0305    1.5740   -0.0700 C   0  0  0  0  0  0  0  0  0  0  0  0
    2.8076   -0.6926    0.4160 C   0  0  0  0  0  0  0  0  0  0  0  0
    6.5435    2.4816    0.0746 C   0  0  0  0  0  0  0  0  0  0  0  0
    8.6813   -5.8923   -1.2096 C   0  0  0  0  0  0  0  0  0  0  0  0
    8.6027   -4.8191   -2.0672 C   0  0  0  0  0  0  0  0  0  0  0  0
    8.0025   -7.0725   -1.5298 C   0  0  0  0  0  0  0  0  0  0  0  0
    1.0471   -2.4381    1.2822 C   0  0  0  0  0  0  0  0  0  0  0  0
    7.5862   -4.7843   -3.0004 C   0  0  0  0  0  0  0  0  0  0  0  0
    7.1217   -7.0907   -2.6316 C   0  0  0  0  0  0  0  0  0  0  0  0
    6.8378   -5.9077   -3.3174 C   0  0  0  0  0  0  0  0  0  0  0  0
    5.4304   -4.7003   -4.8873 C   0  0  0  0  0  0  0  0  0  0  0  0
    4.7463   -3.7236   -3.9233 C   0  0  0  0  0  0  0  0  0  0  0  0
    6.5349   -4.0833   -5.7564 C   0  0  0  0  0  0  0  0  0  0  0  0
   10.0148   -6.4381    0.2471 H   0  0  0  0  0  0  0  0  0  0  0  0
    2.7757   -5.4937   -1.1487 H   0  0  0  0  0  0  0  0  0  0  0  0
    1.1283   -4.9287   -0.7804 H   0  0  0  0  0  0  0  0  0  0  0  0
    4.0323   -2.5623    0.7910 H   0  0  0  0  0  0  0  0  0  0  0  0
    4.7392   -3.7049   -0.3323 H   0  0  0  0  0  0  0  0  0  0  0  0
    1.9751   -6.5854    0.9329 H   0  0  0  0  0  0  0  0  0  0  0  0
    1.5836   -5.0857    1.6999 H   0  0  0  0  0  0  0  0  0  0  0  0
    3.4041   -3.4912    2.4587 H   0  0  0  0  0  0  0  0  0  0  0  0
    5.0421   -3.8777    2.1129 H   0  0  0  0  0  0  0  0  0  0  0  0
    3.6759   -5.8779    2.6448 H   0  0  0  0  0  0  0  0  0  0  0  0
    4.4098   -5.9518    1.0171 H   0  0  0  0  0  0  0  0  0  0  0  0
    2.1656   -3.0680   -2.5090 H   0  0  0  0  0  0  0  0  0  0  0  0
    2.8449   -1.7271   -1.7436 H   0  0  0  0  0  0  0  0  0  0  0  0
   -0.1334   -2.5735   -1.5193 H   0  0  0  0  0  0  0  0  0  0  0  0
    0.4809   -1.2832   -2.5047 H   0  0  0  0  0  0  0  0  0  0  0  0
    6.4835   -2.0892   -1.5410 H   0  0  0  0  0  0  0  0  0  0  0  0
    8.2320   -2.0454   -1.3704 H   0  0  0  0  0  0  0  0  0  0  0  0
    9.3581   -0.9934    0.5021 H   0  0  0  0  0  0  0  0  0  0  0  0
    8.4005   -0.3170    1.8480 H   0  0  0  0  0  0  0  0  0  0  0  0
    6.4466   -3.4041    0.7166 H   0  0  0  0  0  0  0  0  0  0  0  0
    6.9844   -4.3481   -0.5574 H   0  0  0  0  0  0  0  0  0  0  0  0
    7.5625   -2.6001    2.4048 H   0  0  0  0  0  0  0  0  0  0  0  0
    9.3212   -2.5806    2.4968 H   0  0  0  0  0  0  0  0  0  0  0  0
   -0.0858   -0.7920    0.6155 H   0  0  0  0  0  0  0  0  0  0  0  0
   -0.9459   -0.3437   -0.6715 H   0  0  0  0  0  0  0  0  0  0  0  0
    4.8395   -1.5850   -0.1430 H   0  0  0  0  0  0  0  0  0  0  0  0
    2.5456    2.5470   -0.1319 H   0  0  0  0  0  0  0  0  0  0  0  0
    7.1078    3.3985    0.1377 H   0  0  0  0  0  0  0  0  0  0  0  0
    9.1676   -3.9169   -1.8667 H   0  0  0  0  0  0  0  0  0  0  0  0
    8.0606   -7.9469   -0.8867 H   0  0  0  0  0  0  0  0  0  0  0  0
    0.4666   -2.3336    2.1893 H   0  0  0  0  0  0  0  0  0  0  0  0
    0.4098   -2.3848    0.4342 H   0  0  0  0  0  0  0  0  0  0  0  0
    1.1183   -3.4989    1.1160 H   0  0  0  0  0  0  0  0  0  0  0  0
    7.3662   -3.7968   -3.3733 H   0  0  0  0  0  0  0  0  0  0  0  0
    6.6108   -8.0113   -2.9069 H   0  0  0  0  0  0  0  0  0  0  0  0
    4.6447   -5.0005   -5.5946 H   0  0  0  0  0  0  0  0  0  0  0  0
    5.3749   -3.4112   -3.0895 H   0  0  0  0  0  0  0  0  0  0  0  0
    4.4172   -2.8156   -4.4371 H   0  0  0  0  0  0  0  0  0  0  0  0
    3.8815   -4.2084   -3.4608 H   0  0  0  0  0  0  0  0  0  0  0  0
    6.8874   -4.8149   -6.4883 H   0  0  0  0  0  0  0  0  0  0  0  0
    6.1852   -3.1810   -6.2621 H   0  0  0  0  0  0  0  0  0  0  0  0
    7.4355   -3.7878   -5.2216 H   0  0  0  0  0  0  0  0  0  0  0  0
  1 22  1  0  0  0  0
  1 27  1  0  0  0  0
  2 25  2  0  0  0  0
  3 30  1  0  0  0  0
  3 35  1  0  0  0  0
  4 38  1  0  0  0  0
  4 39  1  0  0  0  0
  5 11  1  0  0  0  0
  5 12  1  0  0  0  0
  5 16  1  0  0  0  0
  6 18  1  0  0  0  0
  6 19  1  0  0  0  0
  6 23  1  0  0  0  0
  7 20  1  0  0  0  0
  7 21  1  0  0  0  0
  7 25  1  0  0  0  0
  8 23  2  0  0  0  0
  8 31  1  0  0  0  0
  9 25  1  0  0  0  0
  9 32  1  0  0  0  0
  9 42  1  0  0  0  0
 10 26  1  0  0  0  0
 10 31  2  0  0  0  0
 11 13  1  0  0  0  0
 11 43  1  0  0  0  0
 11 44  1  0  0  0  0
 12 14  1  0  0  0  0
 12 45  1  0  0  0  0
 12 46  1  0  0  0  0
 13 15  1  0  0  0  0
 13 47  1  0  0  0  0
 13 48  1  0  0  0  0
 14 15  1  0  0  0  0
 14 49  1  0  0  0  0
 14 50  1  0  0  0  0
 15 51  1  0  0  0  0
 15 52  1  0  0  0  0
 16 17  1  0  0  0  0
 16 53  1  0  0  0  0
 16 54  1  0  0  0  0
 17 22  1  0  0  0  0
 17 55  1  0  0  0  0
 17 56  1  0  0  0  0
 18 20  1  0  0  0  0
 18 57  1  0  0  0  0
 18 58  1  0  0  0  0
 19 21  1  0  0  0  0
 19 59  1  0  0  0  0
 19 60  1  0  0  0  0
 20 61  1  0  0  0  0
 20 62  1  0  0  0  0
 21 63  1  0  0  0  0
 21 64  1  0  0  0  0
 22 65  1  0  0  0  0
 22 66  1  0  0  0  0
 23 24  1  0  0  0  0
 24 26  1  0  0  0  0
 24 28  2  0  0  0  0
 26 29  2  0  0  0  0
 27 29  1  0  0  0  0
 27 30  2  0  0  0  0
 28 30  1  0  0  0  0
 28 67  1  0  0  0  0
 29 68  1  0  0  0  0
 31 69  1  0  0  0  0
 32 33  2  0  0  0  0
 32 34  1  0  0  0  0
 33 36  1  0  0  0  0
 33 70  1  0  0  0  0
 34 37  2  0  0  0  0
 34 71  1  0  0  0  0
 35 72  1  0  0  0  0
 35 73  1  0  0  0  0
 35 74  1  0  0  0  0
 36 38  2  0  0  0  0
 36 75  1  0  0  0  0
 37 38  1  0  0  0  0
 37 76  1  0  0  0  0
 39 40  1  0  0  0  0
 39 41  1  0  0  0  0
 39 77  1  0  0  0  0
 40 78  1  0  0  0  0
 40 79  1  0  0  0  0
 40 80  1  0  0  0  0
 41 81  1  0  0  0  0
 41 82  1  0  0  0  0
 41 83  1  0  0  0  0
M  END
>  <DRUGBANK_ID>
DB05465

>  <COMMON_NAME>
Tandutinib

>  <CAS_NUMBER>
387867-13-2

>  <UNII>
E1IO3ICJ9A

>  <SYNONYMS>
Tandutinib

$$$$
