
 OpenBabel10282417133D

 40 42  0  0  0  0  0  0  0  0999 V2000
   -3.1461   -1.2676   -0.0030 N   0  0  0  0  0  0  0  0  0  0  0  0
   -1.9169   -0.7152   -0.0008 C   0  0  0  0  0  0  0  0  0  0  0  0
   -0.8651   -1.4672    0.0049 N   0  0  0  0  0  0  0  0  0  0  0  0
    0.3862   -0.8386    0.0052 C   0  0  0  0  0  0  0  0  0  0  0  0
    1.4502   -1.6748    0.0089 N   0  0  0  0  0  0  0  0  0  0  0  0
    2.6688   -1.0784   -0.0044 C   0  0  0  0  0  0  0  0  0  0  0  0
    2.8462    0.3044   -0.0243 C   0  0  0  0  0  0  0  0  0  0  0  0
    4.2404    0.8956   -0.0424 C   0  0  0  0  0  0  0  0  0  0  0  0
    4.4486    1.7298   -1.2159 N   0  0  0  0  0  0  0  0  0  0  0  0
    4.8220    3.0559   -1.1252 C   0  0  0  0  0  0  0  0  0  0  0  0
    5.7926    3.4889   -0.2102 C   0  0  0  0  0  0  0  0  0  0  0  0
    6.2036    4.8284   -0.1271 C   0  0  0  0  0  0  0  0  0  0  0  0
    5.6131    5.7749   -0.9488 C   0  0  0  0  0  0  0  0  0  0  0  0
    4.6392    5.3491   -1.8822 C   0  0  0  0  0  0  0  0  0  0  0  0
    4.2145    4.0158   -1.9329 C   0  0  0  0  0  0  0  0  0  0  0  0
    5.8751    7.2321   -0.8328 C   0  0  0  0  0  0  0  0  0  0  0  0
    5.1713    7.9445   -1.5418 O   0  0  0  0  0  0  0  0  0  0  0  0
    6.8312    7.6540    0.0823 O   0  0  0  0  0  0  0  0  0  0  0  0
    7.2125    9.3340    0.2414 P   0  0  0  0  0  0  0  0  0  0  0  0
    6.9144    9.5326   -1.3437 O   0  0  0  0  0  0  0  0  0  0  0  0
    5.7153    9.4777    0.8859 O   0  0  0  0  0  0  0  0  0  0  0  0
    7.5537   10.8375    0.3838 O   0  0  0  0  0  0  0  0  0  0  0  0
    1.7782    1.1468   -0.0075 N   0  0  0  0  0  0  0  0  0  0  0  0
    0.5617    0.5385    0.0008 C   0  0  0  0  0  0  0  0  0  0  0  0
   -0.6668    1.3611   -0.0008 C   0  0  0  0  0  0  0  0  0  0  0  0
   -0.6673    2.5803    0.0015 O   0  0  0  0  0  0  0  0  0  0  0  0
   -1.8482    0.6463   -0.0045 N   0  0  0  0  0  0  0  0  0  0  0  0
   -4.0074   -0.7440    0.0072 H   0  0  0  0  0  0  0  0  0  0  0  0
   -3.2014   -2.2795    0.0092 H   0  0  0  0  0  0  0  0  0  0  0  0
    3.5118   -1.7629   -0.0020 H   0  0  0  0  0  0  0  0  0  0  0  0
    4.3759    1.4454    0.8960 H   0  0  0  0  0  0  0  0  0  0  0  0
    4.9913    0.0977   -0.0598 H   0  0  0  0  0  0  0  0  0  0  0  0
    4.1353    1.3790   -2.1133 H   0  0  0  0  0  0  0  0  0  0  0  0
    6.2696    2.7622    0.4396 H   0  0  0  0  0  0  0  0  0  0  0  0
    6.9761    5.1050    0.5793 H   0  0  0  0  0  0  0  0  0  0  0  0
    4.1808    6.0610   -2.5716 H   0  0  0  0  0  0  0  0  0  0  0  0
    3.3808    3.7493   -2.5824 H   0  0  0  0  0  0  0  0  0  0  0  0
    7.6999    9.5456   -1.9067 H   0  0  0  0  0  0  0  0  0  0  0  0
    5.4897    8.7256    1.4587 H   0  0  0  0  0  0  0  0  0  0  0  0
   -2.6885    1.2027   -0.0087 H   0  0  0  0  0  0  0  0  0  0  0  0
  1  2  1  0  0  0  0
  1 28  1  0  0  0  0
  1 29  1  0  0  0  0
  2  3  2  0  0  0  0
  2 27  1  0  0  0  0
  3  4  1  0  0  0  0
  4  5  2  0  0  0  0
  4 24  1  0  0  0  0
  5  6  1  0  0  0  0
  6  7  2  0  0  0  0
  6 30  1  0  0  0  0
  7  8  1  0  0  0  0
  7 23  1  0  0  0  0
  8  9  1  0  0  0  0
  8 31  1  0  0  0  0
  8 32  1  0  0  0  0
  9 10  1  0  0  0  0
  9 33  1  0  0  0  0
 10 11  2  0  0  0  0
 10 15  1  0  0  0  0
 11 12  1  0  0  0  0
 11 34  1  0  0  0  0
 12 13  2  0  0  0  0
 12 35  1  0  0  0  0
 13 14  1  0  0  0  0
 13 16  1  0  0  0  0
 14 15  2  0  0  0  0
 14 36  1  0  0  0  0
 15 37  1  0  0  0  0
 16 17  2  0  0  0  0
 16 18  1  0  0  0  0
 18 19  1  0  0  0  0
 19 20  1  0  0  0  0
 19 21  1  0  0  0  0
 19 22  2  0  0  0  0
 20 38  1  0  0  0  0
 21 39  1  0  0  0  0
 23 24  2  0  0  0  0
 24 25  1  0  0  0  0
 25 26  2  0  0  0  0
 25 27  1  0  0  0  0
 27 40  1  0  0  0  0
M  END
>  <DRUGBANK_ID>
DB03830

>  <SECONDARY_ACCESSION_NUMBERS>
EXPT02528

>  <COMMON_NAME>
Phosphorylated Dihydropteroate

$$$$
