
 OpenBabel10282417133D

 70 74  0  0  1  0  0  0  0  0999 V2000
    1.0346    2.7180    1.9629 C   0  0  0  0  0  0  0  0  0  0  0  0
   -3.4548   -3.0636   -1.6139 C   0  0  0  0  0  0  0  0  0  0  0  0
    0.2372   -0.7232    1.9812 C   0  0  0  0  0  0  0  0  0  0  0  0
    1.9293   -1.0367    0.2040 C   0  0  0  0  0  0  0  0  0  0  0  0
    1.5800    2.2128    0.6726 C   0  0  0  0  0  0  0  0  0  0  0  0
    3.5439    2.0090  -10.1225 C   0  0  0  0  0  0  0  0  0  0  0  0
    3.8323    1.9301   -8.7635 C   0  0  0  0  0  0  0  0  0  0  0  0
    2.2204    2.1128  -10.5544 C   0  0  0  0  0  0  0  0  0  0  0  0
    2.3278    1.9117   -4.0955 C   0  0  0  0  0  0  0  0  0  0  0  0
    0.0456   -0.8981   -1.8037 C   0  0  0  0  0  0  0  0  0  0  0  0
    1.7604    2.1424   -1.7325 C   0  0  0  0  0  0  0  0  0  0  0  0
   -0.6280    2.8056   -1.1162 C   0  0  0  0  0  0  0  0  0  0  0  0
   -2.5557   -1.8645   -1.4732 C   0  0  1  0  0  0  0  0  0  0  0  0
    1.3144    2.0510   -3.1483 C   0  0  0  0  0  0  0  0  0  0  0  0
    2.7852    1.9536   -7.8388 C   0  0  0  0  0  0  0  0  0  0  0  0
    2.0115    1.9265   -5.4396 C   0  0  0  0  0  0  0  0  0  0  0  0
   -0.4892   -1.1329   -0.3435 C   0  0  1  0  0  0  0  0  0  0  0  0
    1.1815    2.1400   -9.6267 C   0  0  0  0  0  0  0  0  0  0  0  0
   -1.1020    2.0653   -2.4798 C   0  0  1  0  0  0  0  0  0  0  0  0
   -1.0706   -0.4757   -2.7297 C   0  0  1  0  0  0  0  0  0  0  0  0
   -0.0263    2.1058   -3.5285 C   0  0  0  0  0  0  0  0  0  0  0  0
    1.4580    2.0601   -8.2611 C   0  0  0  0  0  0  0  0  0  0  0  0
    0.6873    2.0391   -5.8403 C   0  0  0  0  0  0  0  0  0  0  0  0
   -1.5629   -2.1817   -0.3291 C   0  0  2  0  0  0  0  0  0  0  0  0
    3.1196    1.8705   -6.4059 C   0  0  0  0  0  0  0  0  0  0  0  0
   -0.3361    2.1098   -4.8866 C   0  0  0  0  0  0  0  0  0  0  0  0
    0.3577    2.0954   -7.2687 C   0  0  0  0  0  0  0  0  0  0  0  0
    0.7164    2.2426   -0.6153 C   0  0  2  0  0  0  0  0  0  0  0  0
    0.5801   -1.3621    0.6944 N   0  0  0  0  0  0  0  0  0  0  0  0
   -0.1065    2.2472  -10.0602 O   0  0  0  0  0  0  0  0  0  0  0  0
   -0.9472   -3.4562   -0.4476 O   0  0  0  0  0  0  0  0  0  0  0  0
    4.2668    1.7799   -6.0308 O   0  0  0  0  0  0  0  0  0  0  0  0
   -1.6613    2.1804   -5.2265 O   0  0  0  0  0  0  0  0  0  0  0  0
   -0.8157    2.1827   -7.5703 O   0  0  0  0  0  0  0  0  0  0  0  0
    0.0754    1.0771   -0.2872 O   0  0  0  0  0  0  0  0  0  0  0  0
   -1.9517   -1.6129   -2.7498 O   0  0  0  0  0  0  0  0  0  0  0  0
   -1.7366    0.7479   -2.3274 O   0  0  0  0  0  0  0  0  0  0  0  0
   -3.1569   -0.9762   -1.2374 H   0  0  0  0  0  0  0  0  0  0  0  0
   -1.1808   -0.3300   -0.0502 H   0  0  0  0  0  0  0  0  0  0  0  0
   -1.9288    2.7051   -2.8158 H   0  0  0  0  0  0  0  0  0  0  0  0
   -0.6833   -0.3953   -3.7536 H   0  0  0  0  0  0  0  0  0  0  0  0
   -2.1032   -2.1365    0.6300 H   0  0  0  0  0  0  0  0  0  0  0  0
    0.9718    3.7925    1.9090 H   0  0  0  0  0  0  0  0  0  0  0  0
    1.7244    2.3754    2.7476 H   0  0  0  0  0  0  0  0  0  0  0  0
    0.0569    2.2985    2.2118 H   0  0  0  0  0  0  0  0  0  0  0  0
   -4.0119   -3.2084   -0.6844 H   0  0  0  0  0  0  0  0  0  0  0  0
   -4.1346   -2.9362   -2.4545 H   0  0  0  0  0  0  0  0  0  0  0  0
   -2.8538   -3.9573   -1.8115 H   0  0  0  0  0  0  0  0  0  0  0  0
    1.0522   -0.7647    2.7119 H   0  0  0  0  0  0  0  0  0  0  0  0
   -0.0175    0.3284    1.9274 H   0  0  0  0  0  0  0  0  0  0  0  0
   -0.6621   -1.1559    2.4299 H   0  0  0  0  0  0  0  0  0  0  0  0
    2.6895   -0.9825    0.9871 H   0  0  0  0  0  0  0  0  0  0  0  0
    2.2656   -1.7265   -0.5743 H   0  0  0  0  0  0  0  0  0  0  0  0
    2.0088   -0.0909   -0.3103 H   0  0  0  0  0  0  0  0  0  0  0  0
    2.6291    2.4680    0.4912 H   0  0  0  0  0  0  0  0  0  0  0  0
    1.7399    1.1722    0.9812 H   0  0  0  0  0  0  0  0  0  0  0  0
    4.3546    1.9884  -10.8458 H   0  0  0  0  0  0  0  0  0  0  0  0
    4.8659    1.8513   -8.4286 H   0  0  0  0  0  0  0  0  0  0  0  0
    2.0127    2.1723  -11.6177 H   0  0  0  0  0  0  0  0  0  0  0  0
    3.3623    1.8073   -3.7678 H   0  0  0  0  0  0  0  0  0  0  0  0
    0.7912   -0.1239   -1.8918 H   0  0  0  0  0  0  0  0  0  0  0  0
    0.5657   -1.7882   -2.1651 H   0  0  0  0  0  0  0  0  0  0  0  0
    2.3592    3.0559   -1.6637 H   0  0  0  0  0  0  0  0  0  0  0  0
    2.4491    1.3017   -1.5848 H   0  0  0  0  0  0  0  0  0  0  0  0
   -1.4639    2.6155   -0.4155 H   0  0  0  0  0  0  0  0  0  0  0  0
   -0.5506    3.8795   -1.2517 H   0  0  0  0  0  0  0  0  0  0  0  0
   -0.1581    2.2847  -11.0259 H   0  0  0  0  0  0  0  0  0  0  0  0
   -0.2011   -3.3187   -1.0545 H   0  0  0  0  0  0  0  0  0  0  0  0
   -1.7346    2.1768   -6.2099 H   0  0  0  0  0  0  0  0  0  0  0  0
   -0.5126    1.2467    0.4717 H   0  0  0  0  0  0  0  0  0  0  0  0
  1 43  1  0  0  0  0
  1 44  1  0  0  0  0
  1 45  1  0  0  0  0
  2 46  1  0  0  0  0
  2 47  1  0  0  0  0
  2 48  1  0  0  0  0
  3 49  1  0  0  0  0
  3 50  1  0  0  0  0
  3 51  1  0  0  0  0
  4 52  1  0  0  0  0
  4 53  1  0  0  0  0
  4 54  1  0  0  0  0
  5  1  1  0  0  0  0
  5 55  1  0  0  0  0
  5 56  1  0  0  0  0
  6 57  1  0  0  0  0
  7  6  2  0  0  0  0
  7 58  1  0  0  0  0
  8  6  1  0  0  0  0
  8 59  1  0  0  0  0
  9 60  1  0  0  0  0
 10 61  1  0  0  0  0
 10 62  1  0  0  0  0
 11 63  1  0  0  0  0
 11 64  1  0  0  0  0
 12 65  1  0  0  0  0
 12 66  1  0  0  0  0
 13  2  1  0  0  0  0
 13 38  1  1  0  0  0
 14  9  2  0  0  0  0
 14 11  1  0  0  0  0
 15  7  1  0  0  0  0
 16  9  1  0  0  0  0
 17 10  1  0  0  0  0
 17 39  1  1  0  0  0
 17 29  1  0  0  0  0
 18  8  2  0  0  0  0
 19 12  1  0  0  0  0
 19 37  1  0  0  0  0
 19 40  1  6  0  0  0
 20 10  1  0  0  0  0
 20 41  1  6  0  0  0
 20 37  1  0  0  0  0
 21 14  1  0  0  0  0
 21 19  1  0  0  0  0
 22 15  2  0  0  0  0
 22 18  1  0  0  0  0
 23 16  2  0  0  0  0
 24 13  1  0  0  0  0
 24 17  1  0  0  0  0
 24 31  1  0  0  0  0
 24 42  1  1  0  0  0
 25 15  1  0  0  0  0
 25 16  1  0  0  0  0
 26 21  2  0  0  0  0
 26 23  1  0  0  0  0
 27 22  1  0  0  0  0
 27 23  1  0  0  0  0
 28 11  1  0  0  0  0
 28 12  1  0  0  0  0
 28 35  1  1  0  0  0
 28  5  1  0  0  0  0
 29  3  1  0  0  0  0
 29  4  1  0  0  0  0
 30 18  1  0  0  0  0
 30 67  1  0  0  0  0
 31 68  1  0  0  0  0
 32 25  2  0  0  0  0
 33 26  1  0  0  0  0
 33 69  1  0  0  0  0
 34 27  2  0  0  0  0
 35 70  1  0  0  0  0
 36 13  1  0  0  0  0
 36 20  1  0  0  0  0
M  END
>  <DRUGBANK_ID>
DB04131

>  <SECONDARY_ACCESSION_NUMBERS>
EXPT00485

>  <COMMON_NAME>
10-(4-Dimethylamino-5-Hydroxy-6-Methyl-Tetrahydro-Pyran-2-Yloxy)-8-Ethyl-1,8,11-Trihydroxy-7,8,9,10-Tetrahydro-Naphthacene-5,12-Dione

$$$$
