
 OpenBabel10282417203D

 82 86  0  0  1  0  0  0  0  0999 V2000
    1.2510    1.2310   -4.0315 C   0  0  0  0  0  0  0  0  0  0  0  0
    1.2997   -0.2197   -3.4759 C   0  0  1  0  0  0  0  0  0  0  0  0
    0.1622   -1.0302   -3.8481 C   0  0  1  0  0  0  0  0  0  0  0  0
    0.2746   -2.4452   -3.2466 C   0  0  2  0  0  0  0  0  0  0  0  0
    1.6647   -3.1484   -3.2789 C   0  0  2  0  0  0  0  0  0  0  0  0
    2.6914   -2.2711   -2.6180 C   0  0  1  0  0  0  0  0  0  0  0  0
    2.4451   -1.0452   -3.3743 O   0  0  0  0  0  0  0  0  0  0  0  0
    2.8459   -2.2543   -1.1987 O   0  0  0  0  0  0  0  0  0  0  0  0
    2.0632   -1.3017   -0.5540 C   0  0  0  0  0  0  0  0  0  0  0  0
    2.3913    0.1554   -1.0411 C   0  0  2  0  0  0  0  0  0  0  0  0
    3.6784    0.5563   -2.2995 C   0  0  2  0  0  0  0  0  0  0  0  0
    3.7516    2.0101   -2.7471 C   0  0  1  0  0  0  0  0  0  0  0  0
    3.2500    2.8703   -1.6467 C   0  0  2  0  0  0  0  0  0  0  0  0
    2.0936    2.4474   -0.6930 C   0  0  1  0  0  0  0  0  0  0  0  0
    2.3951    1.1754   -0.0582 O   0  0  0  0  0  0  0  0  0  0  0  0
    1.9019    3.4465    0.3401 O   0  0  0  0  0  0  0  0  0  0  0  0
    2.9176    3.3333    1.2502 C   0  0  0  0  0  0  0  0  0  0  0  0
    2.6493    2.8650    2.5140 C   0  0  0  0  0  0  0  0  0  0  0  0
    3.7234    2.6378    3.3751 C   0  0  0  0  0  0  0  0  0  0  0  0
    5.0694    2.7353    2.9503 C   0  0  0  0  0  0  0  0  0  0  0  0
    6.0786    2.4581    4.0029 C   0  0  0  0  0  0  0  0  0  0  0  0
    7.2940    2.1535    3.8518 O   0  0  0  0  0  0  0  0  0  0  0  0
    5.6818    2.5777    5.3735 C   0  0  0  0  0  0  0  0  0  0  0  0
    4.3629    2.5296    5.6269 C   0  0  0  0  0  0  0  0  0  0  0  0
    3.3798    2.3898    4.6835 O   0  0  0  0  0  0  0  0  0  0  0  0
    3.9915    2.3620    7.0097 C   0  0  0  0  0  0  0  0  0  0  0  0
    4.3077    3.3012    7.9880 C   0  0  0  0  0  0  0  0  0  0  0  0
    4.0248    3.0160    9.3231 C   0  0  0  0  0  0  0  0  0  0  0  0
    3.4291    1.7936    9.6990 C   0  0  0  0  0  0  0  0  0  0  0  0
    3.1378    0.8596    8.6954 C   0  0  0  0  0  0  0  0  0  0  0  0
    3.4284    1.1439    7.3695 C   0  0  0  0  0  0  0  0  0  0  0  0
    2.5845   -0.3812    8.8079 O   0  0  0  0  0  0  0  0  0  0  0  0
    3.2278    1.7017   11.0498 O   0  0  0  0  0  0  0  0  0  0  0  0
    2.6354    0.5239   11.5627 C   0  0  0  0  0  0  0  0  0  0  0  0
    5.3154    3.2791    1.6837 C   0  0  0  0  0  0  0  0  0  0  0  0
    4.2265    3.6418    0.9035 C   0  0  0  0  0  0  0  0  0  0  0  0
    6.4574    3.7111    1.0710 O   0  0  0  0  0  0  0  0  0  0  0  0
    7.6286    3.8110    1.8508 C   0  0  0  0  0  0  0  0  0  0  0  0
    7.5508    4.9261    2.9279 C   0  0  0  0  0  0  0  0  0  0  0  0
    6.3706    5.0643    3.7276 O   0  0  0  0  0  0  0  0  0  0  0  0
    3.0665    4.1961   -2.1249 O   0  0  0  0  0  0  0  0  0  0  0  0
    5.1080    2.3608   -3.1367 O   0  0  0  0  0  0  0  0  0  0  0  0
    4.1331    0.0317   -3.6314 O   0  0  0  0  0  0  0  0  0  0  0  0
    2.0680   -3.2453   -4.6773 O   0  0  0  0  0  0  0  0  0  0  0  0
   -0.6194   -3.2033   -4.0452 O   0  0  0  0  0  0  0  0  0  0  0  0
   -0.9913   -0.3209   -3.3791 O   0  0  0  0  0  0  0  0  0  0  0  0
    1.7180    1.3842   -4.9989 H   0  0  0  0  0  0  0  0  0  0  0  0
    0.2434    1.6497   -3.9443 H   0  0  0  0  0  0  0  0  0  0  0  0
    1.6519    1.9643   -3.3374 H   0  0  0  0  0  0  0  0  0  0  0  0
    1.0231    0.1488   -2.5577 H   0  0  0  0  0  0  0  0  0  0  0  0
    0.1977   -1.0132   -4.9367 H   0  0  0  0  0  0  0  0  0  0  0  0
   -0.1004   -2.4347   -2.2207 H   0  0  0  0  0  0  0  0  0  0  0  0
    1.6455   -4.1584   -2.8628 H   0  0  0  0  0  0  0  0  0  0  0  0
    3.7016   -2.6343   -2.8930 H   0  0  0  0  0  0  0  0  0  0  0  0
    1.0365   -1.6006   -0.8213 H   0  0  0  0  0  0  0  0  0  0  0  0
    2.0054   -1.4125    0.5415 H   0  0  0  0  0  0  0  0  0  0  0  0
    1.3156    0.3383   -1.1357 H   0  0  0  0  0  0  0  0  0  0  0  0
    4.5464    0.2222   -1.7469 H   0  0  0  0  0  0  0  0  0  0  0  0
    3.3051    2.2634   -3.7132 H   0  0  0  0  0  0  0  0  0  0  0  0
    4.1554    2.7535   -1.0756 H   0  0  0  0  0  0  0  0  0  0  0  0
    1.1203    2.4255   -1.2269 H   0  0  0  0  0  0  0  0  0  0  0  0
    1.6252    2.6945    2.8282 H   0  0  0  0  0  0  0  0  0  0  0  0
    6.4547    2.6002    6.1240 H   0  0  0  0  0  0  0  0  0  0  0  0
    4.7945    4.2365    7.7141 H   0  0  0  0  0  0  0  0  0  0  0  0
    4.2824    3.7604   10.0751 H   0  0  0  0  0  0  0  0  0  0  0  0
    3.2405    0.3833    6.6140 H   0  0  0  0  0  0  0  0  0  0  0  0
    2.2898   -0.5733    9.6986 H   0  0  0  0  0  0  0  0  0  0  0  0
    1.6177    0.4093   11.1725 H   0  0  0  0  0  0  0  0  0  0  0  0
    3.2686   -0.3461   11.3539 H   0  0  0  0  0  0  0  0  0  0  0  0
    2.5474    0.5990   12.6483 H   0  0  0  0  0  0  0  0  0  0  0  0
    4.4422    4.1674   -0.0272 H   0  0  0  0  0  0  0  0  0  0  0  0
    7.9252    2.7988    2.1150 H   0  0  0  0  0  0  0  0  0  0  0  0
    8.4614    4.0757    1.1899 H   0  0  0  0  0  0  0  0  0  0  0  0
    8.3796    4.8083    3.6283 H   0  0  0  0  0  0  0  0  0  0  0  0
    7.6410    5.8858    2.4204 H   0  0  0  0  0  0  0  0  0  0  0  0
    5.5978    5.1059    3.1387 H   0  0  0  0  0  0  0  0  0  0  0  0
    2.2829    4.2037   -2.7005 H   0  0  0  0  0  0  0  0  0  0  0  0
    5.6841    1.6224   -2.8762 H   0  0  0  0  0  0  0  0  0  0  0  0
    3.3728   -0.2538   -4.1863 H   0  0  0  0  0  0  0  0  0  0  0  0
    2.3915   -2.3590   -4.9441 H   0  0  0  0  0  0  0  0  0  0  0  0
   -0.2919   -3.0572   -4.9555 H   0  0  0  0  0  0  0  0  0  0  0  0
   -0.8867   -0.1222   -2.4264 H   0  0  0  0  0  0  0  0  0  0  0  0
  1 47  1  0  0  0  0
  1 48  1  0  0  0  0
  1 49  1  0  0  0  0
  2  1  1  0  0  0  0
  2  3  1  0  0  0  0
  2  7  1  0  0  0  0
  2 50  1  1  0  0  0
  3  4  1  0  0  0  0
  3 46  1  0  0  0  0
  3 51  1  6  0  0  0
  4  5  1  0  0  0  0
  4 45  1  0  0  0  0
  4 52  1  1  0  0  0
  5  6  1  0  0  0  0
  5 44  1  0  0  0  0
  5 53  1  1  0  0  0
  6  7  1  0  0  0  0
  6  8  1  0  0  0  0
  6 54  1  6  0  0  0
  8  9  1  0  0  0  0
  9 55  1  0  0  0  0
  9 56  1  0  0  0  0
 10 11  1  0  0  0  0
 10 15  1  0  0  0  0
 10 57  1  6  0  0  0
 10  9  1  0  0  0  0
 11 12  1  0  0  0  0
 11 43  1  0  0  0  0
 11 58  1  1  0  0  0
 12 13  1  0  0  0  0
 12 42  1  0  0  0  0
 12 59  1  6  0  0  0
 13 14  1  0  0  0  0
 13 41  1  0  0  0  0
 13 60  1  1  0  0  0
 14 15  1  0  0  0  0
 14 16  1  0  0  0  0
 14 61  1  6  0  0  0
 16 17  1  0  0  0  0
 17 18  1  0  0  0  0
 17 36  2  0  0  0  0
 18 19  2  0  0  0  0
 18 62  1  0  0  0  0
 19 20  1  0  0  0  0
 19 25  1  0  0  0  0
 20 21  1  0  0  0  0
 20 35  2  0  0  0  0
 21 22  2  0  0  0  0
 21 23  1  0  0  0  0
 23 24  2  0  0  0  0
 23 63  1  0  0  0  0
 24 25  1  0  0  0  0
 24 26  1  0  0  0  0
 26 27  2  0  0  0  0
 26 31  1  0  0  0  0
 27 28  1  0  0  0  0
 27 64  1  0  0  0  0
 28 29  2  0  0  0  0
 28 65  1  0  0  0  0
 29 30  1  0  0  0  0
 29 33  1  0  0  0  0
 30 31  2  0  0  0  0
 30 32  1  0  0  0  0
 31 66  1  0  0  0  0
 32 67  1  0  0  0  0
 33 34  1  0  0  0  0
 34 68  1  0  0  0  0
 34 69  1  0  0  0  0
 34 70  1  0  0  0  0
 35 36  1  0  0  0  0
 35 37  1  0  0  0  0
 36 71  1  0  0  0  0
 37 38  1  0  0  0  0
 38 39  1  0  0  0  0
 38 72  1  0  0  0  0
 38 73  1  0  0  0  0
 39 40  1  0  0  0  0
 39 74  1  0  0  0  0
 39 75  1  0  0  0  0
 40 76  1  0  0  0  0
 41 77  1  0  0  0  0
 42 78  1  0  0  0  0
 43 79  1  0  0  0  0
 44 80  1  0  0  0  0
 45 81  1  0  0  0  0
 46 82  1  0  0  0  0
M  END
>  <DRUGBANK_ID>
DB13490

>  <COMMON_NAME>
Hidrosmin

>  <CAS_NUMBER>
115960-14-0

>  <UNII>
4I5K8199OQ

>  <SYNONYMS>
Hidrosmina

$$$$
