216235
 OpenBabel10282417153D

 44 47  0  0  0  0  0  0  0  0999 V2000
    2.5321    0.9104    1.6723 Cl  0  0  0  0  0  0  0  0  0  0  0  0
    2.1273   -3.5874   -0.4117 S   0  0  0  0  0  0  0  0  0  0  0  0
   -0.6703    0.0646   -0.7019 S   0  0  0  0  0  0  0  0  0  0  0  0
    3.7319   -3.6059    4.8018 O   0  0  0  0  0  0  0  0  0  0  0  0
    2.9351   -5.4292    3.6567 O   0  0  0  0  0  0  0  0  0  0  0  0
    2.0827    0.7161   -1.6558 O   0  0  0  0  0  0  0  0  0  0  0  0
    1.9762   -4.2127   -1.7061 O   0  0  0  0  0  0  0  0  0  0  0  0
    1.7536   -4.3672    0.7486 O   0  0  0  0  0  0  0  0  0  0  0  0
    5.9141   -0.3558   -0.2132 O   0  0  0  0  0  0  0  0  0  0  0  0
    4.2287   -2.7527   -0.3335 N   0  0  0  0  0  0  0  0  0  0  0  0
    5.6863    1.0380   -0.3558 N   0  0  0  0  0  0  0  0  0  0  0  0
    3.0541   -1.9506    1.3835 C   0  0  0  0  0  0  0  0  0  0  0  0
    2.8357   -1.1941   -0.4495 C   0  0  0  0  0  0  0  0  0  0  0  0
    2.0410   -2.0722    2.2215 C   0  0  0  0  0  0  0  0  0  0  0  0
    0.5317   -2.3084   -0.5409 C   0  0  0  0  0  0  0  0  0  0  0  0
    0.6469   -0.9671   -0.8773 C   0  0  0  0  0  0  0  0  0  0  0  0
    4.3057   -2.6857    2.2004 C   0  0  0  0  0  0  0  0  0  0  0  0
    1.8338   -0.3499   -1.0032 C   0  0  0  0  0  0  0  0  0  0  0  0
    4.2151   -3.6788    3.2657 C   0  0  0  0  0  0  0  0  0  0  0  0
    3.0427   -4.2194    2.9929 C   0  0  0  0  0  0  0  0  0  0  0  0
    2.0615   -3.1642    3.0679 C   0  0  0  0  0  0  0  0  0  0  0  0
    0.8857   -1.2246    2.2261 C   0  0  0  0  0  0  0  0  0  0  0  0
   -0.8734   -2.4751   -0.1970 C   0  0  0  0  0  0  0  0  0  0  0  0
    2.7537   -4.8007    4.8835 C   0  0  0  0  0  0  0  0  0  0  0  0
   -1.5780   -1.2579   -0.1709 C   0  0  0  0  0  0  0  0  0  0  0  0
    4.8308   -1.0388    0.3616 C   0  0  0  0  0  0  0  0  0  0  0  0
    4.0631    0.2928    0.9443 C   0  0  0  0  0  0  0  0  0  0  0  0
    4.5099    1.3848    0.1707 C   0  0  0  0  0  0  0  0  0  0  0  0
    3.6694    2.7088   -0.1085 C   0  0  0  0  0  0  0  0  0  0  0  0
    4.7382   -3.5847   -0.0076 H   0  0  0  0  0  0  0  0  0  0  0  0
    2.9164   -1.8886   -1.3520 H   0  0  0  0  0  0  0  0  0  0  0  0
    3.6493   -0.6397   -0.9775 H   0  0  0  0  0  0  0  0  0  0  0  0
    5.2961   -2.8380    1.7000 H   0  0  0  0  0  0  0  0  0  0  0  0
    1.4545   -2.9878    3.9543 H   0  0  0  0  0  0  0  0  0  0  0  0
    0.0169   -1.8385    2.1185 H   0  0  0  0  0  0  0  0  0  0  0  0
    0.8820   -0.4850    3.0176 H   0  0  0  0  0  0  0  0  0  0  0  0
    1.0317   -0.7388    1.2954 H   0  0  0  0  0  0  0  0  0  0  0  0
   -1.3592   -3.3947    0.0797 H   0  0  0  0  0  0  0  0  0  0  0  0
    1.6508   -4.5942    4.8548 H   0  0  0  0  0  0  0  0  0  0  0  0
    2.8345   -5.4512    5.7616 H   0  0  0  0  0  0  0  0  0  0  0  0
   -2.5866   -0.9876    0.1005 H   0  0  0  0  0  0  0  0  0  0  0  0
    2.9499    2.6308   -0.9446 H   0  0  0  0  0  0  0  0  0  0  0  0
    2.9889    3.0256    0.7099 H   0  0  0  0  0  0  0  0  0  0  0  0
    4.2903    3.5828   -0.2473 H   0  0  0  0  0  0  0  0  0  0  0  0
  1 27  1  0  0  0  0
  2  7  2  0  0  0  0
  2  8  2  0  0  0  0
  2 10  1  0  0  0  0
  2 15  1  0  0  0  0
  3 16  1  0  0  0  0
  3 25  1  0  0  0  0
  4 19  1  0  0  0  0
  4 24  1  0  0  0  0
  5 20  1  0  0  0  0
  5 24  1  0  0  0  0
  6 18  2  0  0  0  0
  9 11  1  0  0  0  0
  9 26  1  0  0  0  0
 10 26  1  0  0  0  0
 10 30  1  0  0  0  0
 11 28  2  0  0  0  0
 12 13  1  0  0  0  0
 12 14  1  0  0  0  0
 12 17  2  0  0  0  0
 13 18  1  0  0  0  0
 13 31  1  0  0  0  0
 13 32  1  0  0  0  0
 14 21  2  0  0  0  0
 14 22  1  0  0  0  0
 15 16  2  0  0  0  0
 15 23  1  0  0  0  0
 16 18  1  0  0  0  0
 17 19  1  0  0  0  0
 17 33  1  0  0  0  0
 19 20  2  0  0  0  0
 20 21  1  0  0  0  0
 21 34  1  0  0  0  0
 22 35  1  0  0  0  0
 22 36  1  0  0  0  0
 22 37  1  0  0  0  0
 23 25  2  0  0  0  0
 23 38  1  0  0  0  0
 24 39  1  0  0  0  0
 24 40  1  0  0  0  0
 25 41  1  0  0  0  0
 26 27  2  0  0  0  0
 27 28  1  0  0  0  0
 28 29  1  0  0  0  0
 29 42  1  0  0  0  0
 29 43  1  0  0  0  0
 29 44  1  0  0  0  0
M  END
>  <DRUGBANK_ID>
DB06268

>  <COMMON_NAME>
Sitaxentan

>  <CAS_NUMBER>
184036-34-8

>  <UNII>
J9QH779MEM

>  <SYNONYMS>
Sitaxentan; Sitaxsentan

$$$$
