
 OpenBabel10282417143D

 39 40  0  0  0  0  0  0  0  0999 V2000
    1.1427    0.0425    0.0370 C   0  0  0  0  0  0  0  0  0  0  0  0
    0.5224    1.2483    0.6604 N   0  0  0  0  0  0  0  0  0  0  0  0
   -0.9565    1.0959    0.4246 C   0  0  0  0  0  0  0  0  0  0  0  0
    1.1867    1.5383    2.2680 S   0  0  0  0  0  0  0  0  0  0  0  0
    0.5943    0.5131    3.1108 O   0  0  0  0  0  0  0  0  0  0  0  0
    2.6142    1.6596    2.1454 O   0  0  0  0  0  0  0  0  0  0  0  0
    0.5662    3.0422    2.7774 N   0  0  0  0  0  0  0  0  0  0  0  0
   -0.4439    3.5865    1.8761 C   0  0  0  0  0  0  0  0  0  0  0  0
    0.2783    4.0868    0.5951 C   0  0  0  0  0  0  0  0  0  0  0  0
    1.0695    5.2388    1.0153 N   0  0  0  0  0  0  0  0  0  0  0  0
    2.1061    4.9389    2.0171 C   0  0  0  0  0  0  0  0  0  0  0  0
    1.4307    4.2042    3.2156 C   0  0  0  0  0  0  0  0  0  0  0  0
    0.9166    6.4399    0.3774 C   0  0  0  0  0  0  0  0  0  0  0  0
   -0.3316    7.0378    0.3618 C   0  0  0  0  0  0  0  0  0  0  0  0
   -0.4590    8.2231   -0.3176 C   0  0  0  0  0  0  0  0  0  0  0  0
    0.5552    8.8028   -0.9714 N   0  0  0  0  0  0  0  0  0  0  0  0
    1.7382    8.1575   -0.9173 C   0  0  0  0  0  0  0  0  0  0  0  0
    2.8973    8.7879   -1.6620 C   0  0  0  0  0  0  0  0  0  0  0  0
    3.9837    9.1511   -0.8073 O   0  0  0  0  0  0  0  0  0  0  0  0
    1.9612    7.0070   -0.2412 N   0  0  0  0  0  0  0  0  0  0  0  0
    0.8009   -0.0432   -1.0034 H   0  0  0  0  0  0  0  0  0  0  0  0
    0.8057   -0.8517    0.5715 H   0  0  0  0  0  0  0  0  0  0  0  0
    2.2295    0.0983    0.0141 H   0  0  0  0  0  0  0  0  0  0  0  0
   -1.3911    0.3664    1.1064 H   0  0  0  0  0  0  0  0  0  0  0  0
   -1.5487    2.0099    0.4159 H   0  0  0  0  0  0  0  0  0  0  0  0
   -1.1338    0.7961   -0.6146 H   0  0  0  0  0  0  0  0  0  0  0  0
   -1.1818    2.8045    1.8671 H   0  0  0  0  0  0  0  0  0  0  0  0
   -1.0247    4.3959    2.3213 H   0  0  0  0  0  0  0  0  0  0  0  0
    1.0188    3.3945    0.1733 H   0  0  0  0  0  0  0  0  0  0  0  0
   -0.4264    4.2882   -0.2152 H   0  0  0  0  0  0  0  0  0  0  0  0
    2.8743    4.2864    1.5930 H   0  0  0  0  0  0  0  0  0  0  0  0
    2.5849    5.8574    2.3760 H   0  0  0  0  0  0  0  0  0  0  0  0
    0.7252    4.9288    3.6664 H   0  0  0  0  0  0  0  0  0  0  0  0
    2.1166    3.9431    4.0236 H   0  0  0  0  0  0  0  0  0  0  0  0
   -1.1713    6.6107    0.8924 H   0  0  0  0  0  0  0  0  0  0  0  0
   -1.4073    8.7503   -0.3528 H   0  0  0  0  0  0  0  0  0  0  0  0
    3.2621    8.0999   -2.4302 H   0  0  0  0  0  0  0  0  0  0  0  0
    2.5647    9.7051   -2.1605 H   0  0  0  0  0  0  0  0  0  0  0  0
    3.5849    9.5988   -0.0417 H   0  0  0  0  0  0  0  0  0  0  0  0
  1  2  1  0  0  0  0
  1 21  1  0  0  0  0
  1 22  1  0  0  0  0
  1 23  1  0  0  0  0
  2  3  1  0  0  0  0
  2  4  1  0  0  0  0
  3 24  1  0  0  0  0
  3 25  1  0  0  0  0
  3 26  1  0  0  0  0
  4  5  2  0  0  0  0
  4  6  2  0  0  0  0
  4  7  1  0  0  0  0
  7  8  1  0  0  0  0
  7 12  1  0  0  0  0
  8  9  1  0  0  0  0
  8 27  1  0  0  0  0
  8 28  1  0  0  0  0
  9 10  1  0  0  0  0
  9 29  1  0  0  0  0
  9 30  1  0  0  0  0
 10 11  1  0  0  0  0
 10 13  1  0  0  0  0
 11 12  1  0  0  0  0
 11 31  1  0  0  0  0
 11 32  1  0  0  0  0
 12 33  1  0  0  0  0
 12 34  1  0  0  0  0
 13 14  2  0  0  0  0
 13 20  1  0  0  0  0
 14 15  1  0  0  0  0
 14 35  1  0  0  0  0
 15 16  2  0  0  0  0
 15 36  1  0  0  0  0
 16 17  1  0  0  0  0
 17 18  1  0  0  0  0
 17 20  2  0  0  0  0
 18 19  1  0  0  0  0
 18 37  1  0  0  0  0
 18 38  1  0  0  0  0
 19 39  1  0  0  0  0
M  END
>  <DRUGBANK_ID>
DB04478

>  <SECONDARY_ACCESSION_NUMBERS>
EXPT00235

>  <COMMON_NAME>
Cp-166572, 2-Hydroxymethyl-4-(4-N,N-Dimethylaminosulfonyl-1-Piperazino)-Pyrimidine

>  <UNII>
ZI4EMQ9WYE

$$$$
