
 OpenBabel10282417193D

 33 34  0  0  0  0  0  0  0  0999 V2000
    0.2685    1.2129   -0.0538 C   0  0  0  0  0  0  0  0  0  0  0  0
   -1.1189    1.2444   -0.0822 C   0  0  0  0  0  0  0  0  0  0  0  0
   -1.8257    0.0456   -0.1319 C   0  0  0  0  0  0  0  0  0  0  0  0
   -1.1703   -1.1801   -0.2675 C   0  0  0  0  0  0  0  0  0  0  0  0
    0.2237   -1.2114   -0.1952 C   0  0  0  0  0  0  0  0  0  0  0  0
    0.9283   -0.0119   -0.0881 C   0  0  0  0  0  0  0  0  0  0  0  0
    2.2869    0.0129    0.0177 O   0  0  0  0  0  0  0  0  0  0  0  0
   -3.1750    0.1512   -0.0045 O   0  0  0  0  0  0  0  0  0  0  0  0
   -3.8394   -0.5024    1.0069 C   0  0  0  0  0  0  0  0  0  0  0  0
   -3.3401   -1.0761    2.1978 C   0  0  0  0  0  0  0  0  0  0  0  0
   -4.2153   -1.7095    3.0945 C   0  0  0  0  0  0  0  0  0  0  0  0
   -5.5841   -1.7515    2.8659 C   0  0  0  0  0  0  0  0  0  0  0  0
   -6.0711   -1.2437    1.6661 C   0  0  0  0  0  0  0  0  0  0  0  0
   -5.2305   -0.5608    0.7896 C   0  0  0  0  0  0  0  0  0  0  0  0
   -6.2046    0.4913   -0.7729 I   0  0  0  0  0  0  0  0  0  0  0  0
   -6.5158   -2.2538    3.9368 C   0  0  0  0  0  0  0  0  0  0  0  0
   -7.3591   -1.1561    4.5992 C   0  0  0  0  0  0  0  0  0  0  0  0
   -8.3545   -0.4898    3.6857 C   0  0  0  0  0  0  0  0  0  0  0  0
   -9.5286   -0.8087    3.5506 O   0  0  0  0  0  0  0  0  0  0  0  0
   -7.8160    0.4773    2.9208 O   0  0  0  0  0  0  0  0  0  0  0  0
   -1.3886   -1.0243    3.0476 I   0  0  0  0  0  0  0  0  0  0  0  0
    0.8298    2.1362    0.0408 H   0  0  0  0  0  0  0  0  0  0  0  0
   -1.6532    2.1872   -0.0032 H   0  0  0  0  0  0  0  0  0  0  0  0
   -1.7388   -2.1067   -0.2869 H   0  0  0  0  0  0  0  0  0  0  0  0
    0.7268   -2.1715   -0.1407 H   0  0  0  0  0  0  0  0  0  0  0  0
    2.6207   -0.8969   -0.0307 H   0  0  0  0  0  0  0  0  0  0  0  0
   -3.8242   -2.1548    4.0078 H   0  0  0  0  0  0  0  0  0  0  0  0
   -7.1330   -1.3141    1.4509 H   0  0  0  0  0  0  0  0  0  0  0  0
   -7.1415   -3.0446    3.5117 H   0  0  0  0  0  0  0  0  0  0  0  0
   -5.9161   -2.7298    4.7260 H   0  0  0  0  0  0  0  0  0  0  0  0
   -7.9375   -1.6127    5.4111 H   0  0  0  0  0  0  0  0  0  0  0  0
   -6.7311   -0.3863    5.0627 H   0  0  0  0  0  0  0  0  0  0  0  0
   -8.4312    0.6088    2.1678 H   0  0  0  0  0  0  0  0  0  0  0  0
  1  2  2  0  0  0  0
  1  6  1  0  0  0  0
  1 22  1  0  0  0  0
  2  3  1  0  0  0  0
  2 23  1  0  0  0  0
  3  4  2  0  0  0  0
  3  8  1  0  0  0  0
  4  5  1  0  0  0  0
  4 24  1  0  0  0  0
  5  6  2  0  0  0  0
  5 25  1  0  0  0  0
  6  7  1  0  0  0  0
  7 26  1  0  0  0  0
  8  9  1  0  0  0  0
  9 10  2  0  0  0  0
  9 14  1  0  0  0  0
 10 11  1  0  0  0  0
 10 21  1  0  0  0  0
 11 12  2  0  0  0  0
 11 27  1  0  0  0  0
 12 13  1  0  0  0  0
 12 16  1  0  0  0  0
 13 14  2  0  0  0  0
 13 28  1  0  0  0  0
 14 15  1  0  0  0  0
 16 17  1  0  0  0  0
 16 29  1  0  0  0  0
 16 30  1  0  0  0  0
 17 18  1  0  0  0  0
 17 31  1  0  0  0  0
 17 32  1  0  0  0  0
 18 19  2  0  0  0  0
 18 20  1  0  0  0  0
 20 33  1  0  0  0  0
M  END
>  <DRUGBANK_ID>
DB12629

>  <COMMON_NAME>
3,5-diiodothyropropionic acid

>  <CAS_NUMBER>
1158-10-7

>  <UNII>
1HTO2X0SJ9

>  <SYNONYMS>
DITPA

$$$$
