
 OpenBabel10282417193D

 72 76  0  0  1  0  0  0  0  0999 V2000
   -3.8864    3.6279   -1.7012 C   0  0  0  0  0  0  0  0  0  0  0  0
   -5.2249    2.8166   -2.1344 C   0  0  2  0  0  0  0  0  0  0  0  0
   -6.1583    2.2149   -1.0685 C   0  0  0  0  0  0  0  0  0  0  0  0
   -7.9061    2.0492   -0.9487 C   0  0  0  0  0  0  0  0  0  0  0  0
   -8.8819    1.8916    0.8924 C   0  0  0  0  0  0  0  0  0  0  0  0
   -7.8394    1.8190    2.3456 C   0  0  0  0  0  0  0  0  0  0  0  0
   -6.2134    1.8342    2.0270 C   0  0  0  0  0  0  0  0  0  0  0  0
   -5.5185    2.1837    0.2906 C   0  0  0  0  0  0  0  0  0  0  0  0
   -4.6343    1.6380   -3.0065 C   0  0  0  0  0  0  0  0  0  0  0  0
   -4.9968    1.4665   -4.1705 O   0  0  0  0  0  0  0  0  0  0  0  0
   -3.6873    0.7531   -2.4496 O   0  0  0  0  0  0  0  0  0  0  0  0
   -2.9373    0.4708   -1.0968 C   0  0  1  0  0  0  0  0  0  0  0  0
   -3.0190    1.5407   -0.0512 C   0  0  0  0  0  0  0  0  0  0  0  0
   -3.9146    1.3380    1.2352 N   0  3  3  0  0  0  0  0  0  0  0  0
   -3.2449    0.4971    2.1394 C   0  0  0  0  0  0  0  0  0  0  0  0
   -2.8991   -0.7185    1.1933 C   0  0  0  0  0  0  0  0  0  0  0  0
   -3.3806   -0.8047   -0.3789 C   0  0  3  0  0  0  0  0  0  0  0  0
   -4.8364   -1.0152   -0.4126 C   0  0  0  0  0  0  0  0  0  0  0  0
   -5.0481   -0.0528    0.6673 C   0  0  0  0  0  0  0  0  0  0  0  0
   -4.4482    3.1271    2.0263 C   0  0  0  0  0  0  0  0  0  0  0  0
   -5.9918    3.9390    1.2742 C   0  0  0  0  0  0  0  0  0  0  0  0
   -7.3852    3.0495    0.6638 C   0  0  0  0  0  0  0  0  0  0  0  0
   -7.3505    1.0100    0.4592 C   0  0  0  0  0  0  0  0  0  0  0  0
   -8.4581    0.0275   -0.2707 C   0  0  0  0  0  0  0  0  0  0  0  0
   -9.7732    0.9145   -0.8743 C   0  0  0  0  0  0  0  0  0  0  0  0
   -9.9504    2.7125   -0.7551 C   0  0  0  0  0  0  0  0  0  0  0  0
   -8.8011    3.8052    0.0273 C   0  0  0  0  0  0  0  0  0  0  0  0
  -10.8178    0.1974   -1.2415 F   0  0  0  0  0  0  0  0  0  0  0  0
   -6.1415    3.7864   -2.7951 N   0  0  0  0  0  0  0  0  0  0  0  0
   -5.5021    4.8567   -3.4807 C   0  0  0  0  0  0  0  0  0  0  0  0
   -4.8646    5.9325   -2.5384 C   0  0  0  0  0  0  0  0  0  0  0  0
   -5.7729    6.5505   -1.4879 C   0  0  0  0  0  0  0  0  0  0  0  0
   -6.5161    5.4865   -0.8570 C   0  0  0  0  0  0  0  0  0  0  0  0
   -7.0343    4.5482   -1.9233 C   0  0  0  0  0  0  0  0  0  0  0  0
   -2.9226    3.1968   -1.4676 H   0  0  0  0  0  0  0  0  0  0  0  0
   -3.9817    4.2824   -0.8135 H   0  0  0  0  0  0  0  0  0  0  0  0
   -3.4549    4.0587   -2.5938 H   0  0  0  0  0  0  0  0  0  0  0  0
   -8.1276    1.6537   -1.9659 H   0  0  0  0  0  0  0  0  0  0  0  0
   -9.8173    1.4429    1.1652 H   0  0  0  0  0  0  0  0  0  0  0  0
   -8.1279    2.1120    3.3366 H   0  0  0  0  0  0  0  0  0  0  0  0
   -5.5675    1.5863    2.8885 H   0  0  0  0  0  0  0  0  0  0  0  0
   -4.5730    2.7752    0.2077 H   0  0  0  0  0  0  0  0  0  0  0  0
   -1.8848    0.4907   -1.3457 H   0  0  0  0  0  0  0  0  0  0  0  0
   -2.3509    2.3805    0.1098 H   0  0  0  0  0  0  0  0  0  0  0  0
   -3.7138    1.8877   -0.7436 H   0  0  0  0  0  0  0  0  0  0  0  0
   -2.4818    1.1891    2.4625 H   0  0  0  0  0  0  0  0  0  0  0  0
   -4.0075    0.2705    2.8964 H   0  0  0  0  0  0  0  0  0  0  0  0
   -1.8341   -0.6926    1.1366 H   0  0  0  0  0  0  0  0  0  0  0  0
   -3.3745   -1.5709    1.6762 H   0  0  0  0  0  0  0  0  0  0  0  0
   -3.0342   -1.6600   -0.9163 H   0  0  0  0  0  0  0  0  0  0  0  0
   -5.3683   -0.8227   -1.4135 H   0  0  0  0  0  0  0  0  0  0  0  0
   -5.4114   -1.8521   -0.0111 H   0  0  0  0  0  0  0  0  0  0  0  0
   -5.7610   -0.3619    1.4826 H   0  0  0  0  0  0  0  0  0  0  0  0
   -5.4181    0.3736   -0.2860 H   0  0  0  0  0  0  0  0  0  0  0  0
   -4.9372    3.1856    3.0292 H   0  0  0  0  0  0  0  0  0  0  0  0
   -3.5791    3.7707    1.9418 H   0  0  0  0  0  0  0  0  0  0  0  0
   -6.2894    4.8802    1.6774 H   0  0  0  0  0  0  0  0  0  0  0  0
   -5.5333    4.0667    0.3344 H   0  0  0  0  0  0  0  0  0  0  0  0
   -6.5107    0.7013    0.6022 H   0  0  0  0  0  0  0  0  0  0  0  0
   -8.1914   -1.0233   -0.3301 H   0  0  0  0  0  0  0  0  0  0  0  0
  -10.9399    3.1018   -0.7065 H   0  0  0  0  0  0  0  0  0  0  0  0
   -8.8587    4.8611   -0.1459 H   0  0  0  0  0  0  0  0  0  0  0  0
   -4.8374    4.3691   -4.1883 H   0  0  0  0  0  0  0  0  0  0  0  0
   -6.3318    5.3241   -4.0106 H   0  0  0  0  0  0  0  0  0  0  0  0
   -3.9932    5.6500   -1.9524 H   0  0  0  0  0  0  0  0  0  0  0  0
   -4.3948    6.6682   -3.1450 H   0  0  0  0  0  0  0  0  0  0  0  0
   -5.1652    6.9731   -0.6595 H   0  0  0  0  0  0  0  0  0  0  0  0
   -6.5739    7.1447   -1.8570 H   0  0  0  0  0  0  0  0  0  0  0  0
   -5.6191    5.3104   -0.3278 H   0  0  0  0  0  0  0  0  0  0  0  0
   -7.1867    5.7192   -0.0203 H   0  0  0  0  0  0  0  0  0  0  0  0
   -7.9591    4.9302   -2.3559 H   0  0  0  0  0  0  0  0  0  0  0  0
   -7.5042    3.7659   -1.4980 H   0  0  0  0  0  0  0  0  0  0  0  0
  1 35  1  0  0  0  0
  1 36  1  0  0  0  0
  1 37  1  0  0  0  0
  2  9  1  6  0  0  0
  2 29  1  0  0  0  0
  2  3  1  0  0  0  0
  2  1  1  0  0  0  0
  3  4  2  0  0  0  0
  3  8  1  0  0  0  0
  4  5  1  0  0  0  0
  4 38  1  0  0  0  0
  5  6  2  0  0  0  0
  5 39  1  0  0  0  0
  6  7  1  0  0  0  0
  6 40  1  0  0  0  0
  7  8  2  0  0  0  0
  7 41  1  0  0  0  0
  8 42  1  0  0  0  0
  9 10  2  0  0  0  0
  9 11  1  0  0  0  0
 12 13  1  0  0  0  0
 12 17  1  0  0  0  0
 12 43  1  6  0  0  0
 12 11  1  0  0  0  0
 13 14  1  0  0  0  0
 13 44  1  0  0  0  0
 13 45  1  0  0  0  0
 14 15  1  0  0  0  0
 14 19  1  0  0  0  0
 14 20  1  0  0  0  0
 15 16  1  0  0  0  0
 15 46  1  0  0  0  0
 15 47  1  0  0  0  0
 16 17  1  0  0  0  0
 16 48  1  0  0  0  0
 16 49  1  0  0  0  0
 17 18  1  0  0  0  0
 17 50  1  0  0  0  0
 18 19  1  0  0  0  0
 18 51  1  0  0  0  0
 18 52  1  0  0  0  0
 19 53  1  0  0  0  0
 19 54  1  0  0  0  0
 20 21  1  0  0  0  0
 20 55  1  0  0  0  0
 20 56  1  0  0  0  0
 21 22  1  0  0  0  0
 21 57  1  0  0  0  0
 21 58  1  0  0  0  0
 22 23  2  0  0  0  0
 22 27  1  0  0  0  0
 23 24  1  0  0  0  0
 23 59  1  0  0  0  0
 24 25  2  0  0  0  0
 24 60  1  0  0  0  0
 25 26  1  0  0  0  0
 25 28  1  0  0  0  0
 26 27  2  0  0  0  0
 26 61  1  0  0  0  0
 27 62  1  0  0  0  0
 29 30  1  0  0  0  0
 29 34  1  0  0  0  0
 30 31  1  0  0  0  0
 30 63  1  0  0  0  0
 30 64  1  0  0  0  0
 31 32  1  0  0  0  0
 31 65  1  0  0  0  0
 31 66  1  0  0  0  0
 32 33  1  0  0  0  0
 32 67  1  0  0  0  0
 32 68  1  0  0  0  0
 33 34  1  0  0  0  0
 33 69  1  0  0  0  0
 33 70  1  0  0  0  0
 34 71  1  0  0  0  0
 34 72  1  0  0  0  0
M  CHG  1  14   1
M  END
>  <DRUGBANK_ID>
DB12115

>  <COMMON_NAME>
AZD-9164

>  <CAS_NUMBER>
1034978-04-5

>  <UNII>
977LWC4O5D

$$$$
