
 OpenBabel10282417223D

 49 49  0  0  0  0  0  0  0  0999 V2000
    1.2528   -0.0126    0.2687 C   0  0  2  0  0  0  0  0  0  0  0  0
    0.0182   -0.8054   -0.2025 C   0  0  2  0  0  0  0  0  0  0  0  0
   -1.2880   -0.1192    0.2384 C   0  0  1  0  0  0  0  0  0  0  0  0
   -1.2954    1.3431   -0.2059 C   0  0  2  0  0  0  0  0  0  0  0  0
   -0.1745    2.0212    0.3356 O   0  0  0  0  0  0  0  0  0  0  0  0
    1.0715    1.4858   -0.0616 C   0  0  1  0  0  0  0  0  0  0  0  0
    2.3158    2.5883    0.6226 S   0  0  0  0  0  0  0  0  0  0  0  0
    2.3531    2.2365    2.3564 C   0  0  0  0  0  0  0  0  0  0  0  0
    1.3840    1.5670    2.8951 N   0  0  0  0  0  0  0  0  0  0  0  0
    1.5151    1.4465    4.3013 O   0  0  0  0  0  0  0  0  0  0  0  0
    0.2858    0.6025    5.0061 S   0  0  0  0  0  0  0  0  0  0  0  0
   -0.9710    1.2995    4.7928 O   0  0  0  0  0  0  0  0  0  0  0  0
    0.4153   -0.7972    4.6773 O   0  0  0  0  0  0  0  0  0  0  0  0
    0.5842    0.7199    6.5889 O   0  0  0  0  0  0  0  0  0  0  0  0
    3.5336    2.8530    3.0999 C   0  0  0  0  0  0  0  0  0  0  0  0
    4.8982    2.2731    2.6974 C   0  0  0  0  0  0  0  0  0  0  0  0
    5.3719    2.6447    1.2791 C   0  0  0  0  0  0  0  0  0  0  0  0
    5.3490    4.1601    0.9915 C   0  0  0  0  0  0  0  0  0  0  0  0
    6.6574    4.9572    1.9920 S   0  3  3  0  0  0  0  0  0  0  0  0
    6.4121    6.6726    1.5223 C   0  0  0  0  0  0  0  0  0  0  0  0
    6.2438    4.8706    3.5048 O   0  5  0  0  0  0  0  0  0  0  0  0
   -2.5249    2.0767    0.3279 C   0  0  0  0  0  0  0  0  0  0  0  0
   -2.4816    3.4477   -0.0759 O   0  0  0  0  0  0  0  0  0  0  0  0
   -2.4303   -0.7960   -0.2833 O   0  0  0  0  0  0  0  0  0  0  0  0
    0.0718   -2.1432    0.3122 O   0  0  0  0  0  0  0  0  0  0  0  0
    2.4563   -0.5424   -0.3122 O   0  0  0  0  0  0  0  0  0  0  0  0
    1.3467   -0.1852    1.3412 H   0  0  0  0  0  0  0  0  0  0  0  0
    0.0329   -0.9190   -1.2931 H   0  0  0  0  0  0  0  0  0  0  0  0
   -1.3499   -0.1732    1.3325 H   0  0  0  0  0  0  0  0  0  0  0  0
   -1.2698    1.4371   -1.3003 H   0  0  0  0  0  0  0  0  0  0  0  0
    1.1609    1.5914   -1.1531 H   0  0  0  0  0  0  0  0  0  0  0  0
   -0.1274    0.2397    7.0602 H   0  0  0  0  0  0  0  0  0  0  0  0
    3.4935    3.9387    2.9613 H   0  0  0  0  0  0  0  0  0  0  0  0
    3.4201    2.7144    4.1796 H   0  0  0  0  0  0  0  0  0  0  0  0
    5.6498    2.6178    3.4146 H   0  0  0  0  0  0  0  0  0  0  0  0
    4.8939    1.1839    2.8151 H   0  0  0  0  0  0  0  0  0  0  0  0
    6.3782    2.2468    1.1085 H   0  0  0  0  0  0  0  0  0  0  0  0
    4.7745    2.0960    0.5468 H   0  0  0  0  0  0  0  0  0  0  0  0
    5.5388    4.3342   -0.0732 H   0  0  0  0  0  0  0  0  0  0  0  0
    4.3834    4.6258    1.2146 H   0  0  0  0  0  0  0  0  0  0  0  0
    5.4191    7.0215    1.8150 H   0  0  0  0  0  0  0  0  0  0  0  0
    7.1589    7.2424    2.0842 H   0  0  0  0  0  0  0  0  0  0  0  0
    6.5825    6.8136    0.4556 H   0  0  0  0  0  0  0  0  0  0  0  0
   -3.4460    1.6353   -0.0564 H   0  0  0  0  0  0  0  0  0  0  0  0
   -2.5409    2.0574    1.4231 H   0  0  0  0  0  0  0  0  0  0  0  0
   -1.6549    3.8047    0.3036 H   0  0  0  0  0  0  0  0  0  0  0  0
   -2.3654   -0.8211   -1.2533 H   0  0  0  0  0  0  0  0  0  0  0  0
    0.1093   -2.0920    1.2864 H   0  0  0  0  0  0  0  0  0  0  0  0
    2.3461   -0.6116   -1.2757 H   0  0  0  0  0  0  0  0  0  0  0  0
  1  2  1  0  0  0  0
  1  6  1  0  0  0  0
  1 26  1  0  0  0  0
  1 27  1  1  0  0  0
  2  3  1  0  0  0  0
  2 25  1  0  0  0  0
  2 28  1  6  0  0  0
  3  4  1  0  0  0  0
  3 24  1  0  0  0  0
  3 29  1  1  0  0  0
  4  5  1  0  0  0  0
  4 22  1  0  0  0  0
  4 30  1  6  0  0  0
  5  6  1  0  0  0  0
  6  7  1  0  0  0  0
  6 31  1  6  0  0  0
  7  8  1  0  0  0  0
  8  9  2  0  0  0  0
  8 15  1  0  0  0  0
  9 10  1  0  0  0  0
 10 11  1  0  0  0  0
 11 12  2  0  0  0  0
 11 13  2  0  0  0  0
 11 14  1  0  0  0  0
 14 32  1  0  0  0  0
 15 16  1  0  0  0  0
 15 33  1  0  0  0  0
 15 34  1  0  0  0  0
 16 17  1  0  0  0  0
 16 35  1  0  0  0  0
 16 36  1  0  0  0  0
 17 18  1  0  0  0  0
 17 37  1  0  0  0  0
 17 38  1  0  0  0  0
 18 19  1  0  0  0  0
 18 39  1  0  0  0  0
 18 40  1  0  0  0  0
 19 20  1  0  0  0  0
 19 21  1  0  0  0  0
 20 41  1  0  0  0  0
 20 42  1  0  0  0  0
 20 43  1  0  0  0  0
 22 23  1  0  0  0  0
 22 44  1  0  0  0  0
 22 45  1  0  0  0  0
 23 46  1  0  0  0  0
 24 47  1  0  0  0  0
 25 48  1  0  0  0  0
 26 49  1  0  0  0  0
M  CHG  2  19   1  21  -1
M  END
>  <DRUGBANK_ID>
DB15436

>  <COMMON_NAME>
Glucoraphanin

>  <CAS_NUMBER>
1432982-77-8

>  <UNII>
Q86A197713

>  <SYNONYMS>
4-methylsulfinylbutyl glucosinolate; Glucorafanin; Sulforaphane glucosinolate

$$$$
