
 OpenBabel10282417153D

 22 21  0  0  0  0  0  0  0  0999 V2000
    0.9418   -0.0684   -0.0096 C   0  0  0  0  0  0  0  0  0  0  0  0
    0.4653   -0.6969   -1.3224 C   0  0  0  0  0  0  0  0  0  0  0  0
    0.9842   -2.3906   -1.4477 Cl  0  0  0  0  0  0  0  0  0  0  0  0
    0.4122   -0.7250    1.1966 N   0  0  0  0  0  0  0  0  0  0  0  0
   -1.3678   -0.7250    1.1966 P   0  0  0  0  0  0  0  0  0  0  0  0
   -1.3490   -1.9631    2.0769 O   0  0  0  0  0  0  0  0  0  0  0  0
   -1.3709    0.7098    2.0516 N   0  0  0  0  0  0  0  0  0  0  0  0
   -1.9595    0.7719    3.4007 C   0  0  0  0  0  0  0  0  0  0  0  0
   -1.2681   -0.1142    4.4321 C   0  0  0  0  0  0  0  0  0  0  0  0
    0.4168    0.4001    4.6760 Cl  0  0  0  0  0  0  0  0  0  0  0  0
   -3.0978   -0.7250    1.1966 O   0  0  0  0  0  0  0  0  0  0  0  0
    0.6306    0.9838    0.0052 H   0  0  0  0  0  0  0  0  0  0  0  0
    2.0356   -0.0646    0.0379 H   0  0  0  0  0  0  0  0  0  0  0  0
   -0.6270   -0.6788   -1.3991 H   0  0  0  0  0  0  0  0  0  0  0  0
    0.8658   -0.1484   -2.1791 H   0  0  0  0  0  0  0  0  0  0  0  0
    0.6623   -1.7145    1.1967 H   0  0  0  0  0  0  0  0  0  0  0  0
   -0.3940    0.9614    2.1605 H   0  0  0  0  0  0  0  0  0  0  0  0
   -1.9223    1.8201    3.7243 H   0  0  0  0  0  0  0  0  0  0  0  0
   -3.0244    0.5255    3.3795 H   0  0  0  0  0  0  0  0  0  0  0  0
   -1.7917   -0.0448    5.3884 H   0  0  0  0  0  0  0  0  0  0  0  0
   -1.2692   -1.1663    4.1534 H   0  0  0  0  0  0  0  0  0  0  0  0
   -3.4166    0.1080    1.5762 H   0  0  0  0  0  0  0  0  0  0  0  0
  1  2  1  0  0  0  0
  1  4  1  0  0  0  0
  1 12  1  0  0  0  0
  1 13  1  0  0  0  0
  2  3  1  0  0  0  0
  2 14  1  0  0  0  0
  2 15  1  0  0  0  0
  4  5  1  0  0  0  0
  4 16  1  0  0  0  0
  5  6  2  0  0  0  0
  5  7  1  0  0  0  0
  5 11  1  0  0  0  0
  7  8  1  0  0  0  0
  7 17  1  0  0  0  0
  8  9  1  0  0  0  0
  8 18  1  0  0  0  0
  8 19  1  0  0  0  0
  9 10  1  0  0  0  0
  9 20  1  0  0  0  0
  9 21  1  0  0  0  0
 11 22  1  0  0  0  0
M  END
>  <DRUGBANK_ID>
DB05668

>  <COMMON_NAME>
Palifosfamide

>  <CAS_NUMBER>
31645-39-3

>  <UNII>
6A4U6NN813

>  <SYNONYMS>
Ifosfamide mustard; Ifosforamide mustard; Isophosphamide mustard; Isophosphoramide mustard; Palifosfamide

$$$$
