
 OpenBabel10282417143D

 49 50  0  0  0  0  0  0  0  0999 V2000
    1.0810   -0.0587    0.0014 P   0  0  0  0  0  0  0  0  0  0  0  0
    0.3064   -4.2371    0.1479 O   0  0  0  0  0  0  0  0  0  0  0  0
   -2.9674   -4.5552    1.6367 O   0  0  0  0  0  0  0  0  0  0  0  0
   -2.4753   -2.2178    0.5391 O   0  0  0  0  0  0  0  0  0  0  0  0
    0.9632   -0.9395    1.3805 O   0  0  0  0  0  0  0  0  0  0  0  0
   -2.3489   -7.6849   -0.4521 O   0  0  0  0  0  0  0  0  0  0  0  0
    0.9876    1.4599    0.5708 O   0  0  0  0  0  0  0  0  0  0  0  0
   -0.6490   -0.0587    0.0014 O   0  0  0  0  0  0  0  0  0  0  0  0
   -0.1442  -10.4282    1.3924 O   0  0  0  0  0  0  0  0  0  0  0  0
    2.6293   -0.0587    0.0014 O   0  0  0  0  0  0  0  0  0  0  0  0
   -0.4233   -6.5909    0.6996 N   0  0  0  0  0  0  0  0  0  0  0  0
   -0.5820   -8.8345   -0.1471 N   0  0  0  0  0  0  0  0  0  0  0  0
   -1.5587   -4.2700    1.7174 C   0  0  2  0  0  0  0  0  0  0  0  0
   -1.3550   -2.8070    1.2277 C   0  0  1  0  0  0  0  0  0  0  0  0
   -0.6846   -5.0740    0.7704 C   0  0  1  0  0  0  0  0  0  0  0  0
   -0.0772   -2.8579    0.3641 C   0  0  1  0  0  0  0  0  0  0  0  0
    1.1225   -2.3163    1.1057 C   0  0  0  0  0  0  0  0  0  0  0  0
   -3.4375   -5.4281    0.5854 C   0  0  0  0  0  0  0  0  0  0  0  0
    0.7513   -6.9757    1.2740 C   0  0  0  0  0  0  0  0  0  0  0  0
   -1.2272   -7.6622    0.0544 C   0  0  0  0  0  0  0  0  0  0  0  0
   -3.3387   -4.9942   -1.0125 C   0  0  0  0  0  0  0  0  0  0  0  0
    0.8975   -8.2721    1.5647 C   0  0  0  0  0  0  0  0  0  0  0  0
   -1.9934   -4.5937   -1.8751 C   0  0  0  0  0  0  0  0  0  0  0  0
    0.0230   -9.2747    0.9425 C   0  0  0  0  0  0  0  0  0  0  0  0
    1.7476   -8.7033    2.6663 C   0  0  0  0  0  0  0  0  0  0  0  0
   -0.9658   -5.7044   -1.9929 C   0  0  0  0  0  0  0  0  0  0  0  0
   -2.6783   -2.6599   -0.2981 H   0  0  0  0  0  0  0  0  0  0  0  0
    1.8715    1.8487    0.3993 H   0  0  0  0  0  0  0  0  0  0  0  0
   -0.9555   -0.0205    0.9285 H   0  0  0  0  0  0  0  0  0  0  0  0
   -1.2355   -9.4880   -0.5745 H   0  0  0  0  0  0  0  0  0  0  0  0
   -1.1633   -4.3889    2.7322 H   0  0  0  0  0  0  0  0  0  0  0  0
   -1.2368   -2.1304    2.0772 H   0  0  0  0  0  0  0  0  0  0  0  0
   -1.4272   -5.0060    0.0682 H   0  0  0  0  0  0  0  0  0  0  0  0
   -0.2109   -2.3221   -0.5963 H   0  0  0  0  0  0  0  0  0  0  0  0
    2.0249   -2.4975    0.5044 H   0  0  0  0  0  0  0  0  0  0  0  0
    1.2403   -2.8886    2.0277 H   0  0  0  0  0  0  0  0  0  0  0  0
   -3.0303   -6.3934    0.8602 H   0  0  0  0  0  0  0  0  0  0  0  0
   -4.4974   -5.6112    0.7970 H   0  0  0  0  0  0  0  0  0  0  0  0
    1.4113   -6.1973    1.6435 H   0  0  0  0  0  0  0  0  0  0  0  0
   -3.8004   -5.8153   -1.5747 H   0  0  0  0  0  0  0  0  0  0  0  0
   -3.9884   -4.1214   -1.0835 H   0  0  0  0  0  0  0  0  0  0  0  0
   -2.1328   -4.2401   -2.8893 H   0  0  0  0  0  0  0  0  0  0  0  0
   -1.5620   -3.7340   -1.3747 H   0  0  0  0  0  0  0  0  0  0  0  0
    1.0836   -9.0889    3.4477 H   0  0  0  0  0  0  0  0  0  0  0  0
    2.4226   -9.4699    2.2995 H   0  0  0  0  0  0  0  0  0  0  0  0
    2.2976   -7.8541    3.0752 H   0  0  0  0  0  0  0  0  0  0  0  0
   -1.0810   -6.5755   -2.6278 H   0  0  0  0  0  0  0  0  0  0  0  0
    0.0823   -5.5504   -1.6933 H   0  0  0  0  0  0  0  0  0  0  0  0
   -1.3680   -6.1594   -1.1594 H   0  0  0  0  0  0  0  0  0  0  0  0
  1  5  1  0  0  0  0
  1  7  1  0  0  0  0
  1  8  1  0  0  0  0
  1 10  2  0  0  0  0
  2 15  1  0  0  0  0
  2 16  1  0  0  0  0
  3 18  1  0  0  0  0
  4 27  1  0  0  0  0
  5 17  1  0  0  0  0
  6 20  2  0  0  0  0
  7 28  1  0  0  0  0
  8 29  1  0  0  0  0
  9 24  2  0  0  0  0
 11 19  1  0  0  0  0
 11 20  1  0  0  0  0
 12 20  1  0  0  0  0
 12 24  1  0  0  0  0
 12 30  1  0  0  0  0
 13 14  1  0  0  0  0
 13 15  1  0  0  0  0
 13 31  1  1  0  0  0
 13  3  1  0  0  0  0
 14  4  1  0  0  0  0
 14 16  1  0  0  0  0
 14 32  1  1  0  0  0
 15 33  1  6  0  0  0
 15 11  1  0  0  0  0
 16 17  1  0  0  0  0
 16 34  1  6  0  0  0
 17 35  1  0  0  0  0
 17 36  1  0  0  0  0
 18 21  1  0  0  0  0
 18 37  1  0  0  0  0
 18 38  1  0  0  0  0
 19 22  2  0  0  0  0
 19 39  1  0  0  0  0
 21 23  1  0  0  0  0
 21 40  1  0  0  0  0
 21 41  1  0  0  0  0
 22 24  1  0  0  0  0
 22 25  1  0  0  0  0
 23 26  1  0  0  0  0
 23 42  1  0  0  0  0
 23 43  1  0  0  0  0
 25 44  1  0  0  0  0
 25 45  1  0  0  0  0
 25 46  1  0  0  0  0
 26 47  1  0  0  0  0
 26 48  1  0  0  0  0
 26 49  1  0  0  0  0
M  END
>  <DRUGBANK_ID>
DB04587

>  <COMMON_NAME>
2'-O-butyl-5-methyluridine

$$$$
