1712095
 OpenBabel10282417163D

 60 62  0  0  0  0  0  0  0  0999 V2000
    1.1082    0.1454   -0.1422 O   0  0  0  0  0  0  0  0  0  0  0  0
   -1.2102    0.8851    1.4580 O   0  0  0  0  0  0  0  0  0  0  0  0
   -4.7417    8.0542   -4.3671 O   0  0  0  0  0  0  0  0  0  0  0  0
   -5.6649    9.8196   -2.5911 O   0  0  0  0  0  0  0  0  0  0  0  0
   -1.1965    5.5672   -2.2620 N   0  0  0  0  0  0  0  0  0  0  0  0
    0.3475    3.9220   -3.0628 C   0  0  0  0  0  0  0  0  0  0  0  0
   -0.0799    3.1348   -1.8438 C   0  0  0  0  0  0  0  0  0  0  0  0
   -1.1678    3.5336   -1.0205 C   0  0  0  0  0  0  0  0  0  0  0  0
   -0.7133    4.9187   -3.4689 C   0  0  0  0  0  0  0  0  0  0  0  0
   -1.9046    4.8004   -1.3442 C   0  0  0  0  0  0  0  0  0  0  0  0
    0.6950    2.0214   -1.5207 C   0  0  0  0  0  0  0  0  0  0  0  0
   -1.4704    2.7445    0.0950 C   0  0  0  0  0  0  0  0  0  0  0  0
    0.4127    1.2857   -0.3843 C   0  0  0  0  0  0  0  0  0  0  0  0
   -0.7105    1.6039    0.3981 C   0  0  0  0  0  0  0  0  0  0  0  0
   -3.1067    5.1092   -0.8298 C   0  0  0  0  0  0  0  0  0  0  0  0
   -3.9072    6.2797   -1.2296 C   0  0  0  0  0  0  0  0  0  0  0  0
   -4.2280    6.4750   -2.5744 C   0  0  0  0  0  0  0  0  0  0  0  0
   -4.3272    7.2158   -0.2991 C   0  0  0  0  0  0  0  0  0  0  0  0
   -4.7075    7.7035   -3.0374 C   0  0  0  0  0  0  0  0  0  0  0  0
    2.5225    0.1639   -0.1196 C   0  0  0  0  0  0  0  0  0  0  0  0
   -0.5538   -0.3309    1.8162 C   0  0  0  0  0  0  0  0  0  0  0  0
   -5.1122    8.6640   -2.0976 C   0  0  0  0  0  0  0  0  0  0  0  0
   -4.9486    8.3874   -0.7319 C   0  0  0  0  0  0  0  0  0  0  0  0
    2.9321   -1.2299    0.3405 C   0  0  0  0  0  0  0  0  0  0  0  0
   -0.7860   -1.4564    0.8034 C   0  0  0  0  0  0  0  0  0  0  0  0
   -4.1920    7.1479   -5.3312 C   0  0  0  0  0  0  0  0  0  0  0  0
   -6.1404   10.7922   -1.6601 C   0  0  0  0  0  0  0  0  0  0  0  0
   -2.6918    6.9331   -5.1940 C   0  0  0  0  0  0  0  0  0  0  0  0
   -7.4184   10.3396   -0.9638 C   0  0  0  0  0  0  0  0  0  0  0  0
   -1.3797    6.5643   -2.2780 H   0  0  0  0  0  0  0  0  0  0  0  0
    0.5541    3.2479   -3.9025 H   0  0  0  0  0  0  0  0  0  0  0  0
    1.2713    4.4573   -2.8149 H   0  0  0  0  0  0  0  0  0  0  0  0
   -1.5432    4.3911   -3.9644 H   0  0  0  0  0  0  0  0  0  0  0  0
   -0.3111    5.6399   -4.1867 H   0  0  0  0  0  0  0  0  0  0  0  0
    1.4895    1.7124   -2.1907 H   0  0  0  0  0  0  0  0  0  0  0  0
   -2.2968    2.9994    0.7521 H   0  0  0  0  0  0  0  0  0  0  0  0
   -3.6211    4.4652   -0.1207 H   0  0  0  0  0  0  0  0  0  0  0  0
   -4.0148    5.6602   -3.2563 H   0  0  0  0  0  0  0  0  0  0  0  0
   -4.1680    7.0613    0.7643 H   0  0  0  0  0  0  0  0  0  0  0  0
    2.9217    0.3491   -1.1193 H   0  0  0  0  0  0  0  0  0  0  0  0
    2.8845    0.9155    0.5887 H   0  0  0  0  0  0  0  0  0  0  0  0
    0.5004   -0.1364    2.0516 H   0  0  0  0  0  0  0  0  0  0  0  0
   -0.9861   -0.6544    2.7687 H   0  0  0  0  0  0  0  0  0  0  0  0
   -5.2719    9.0751    0.0399 H   0  0  0  0  0  0  0  0  0  0  0  0
    2.5216   -1.9947   -0.3307 H   0  0  0  0  0  0  0  0  0  0  0  0
    4.0178   -1.3321    0.3747 H   0  0  0  0  0  0  0  0  0  0  0  0
    2.5241   -1.4521    1.3343 H   0  0  0  0  0  0  0  0  0  0  0  0
   -0.5586   -1.2008   -0.2357 H   0  0  0  0  0  0  0  0  0  0  0  0
   -0.1776   -2.3270    1.0616 H   0  0  0  0  0  0  0  0  0  0  0  0
   -1.8418   -1.7254    0.7698 H   0  0  0  0  0  0  0  0  0  0  0  0
   -4.7483    6.2037   -5.3119 H   0  0  0  0  0  0  0  0  0  0  0  0
   -4.3637    7.5883   -6.3191 H   0  0  0  0  0  0  0  0  0  0  0  0
   -5.3484   11.0842   -0.9594 H   0  0  0  0  0  0  0  0  0  0  0  0
   -6.3734   11.6937   -2.2397 H   0  0  0  0  0  0  0  0  0  0  0  0
   -2.4432    6.5549   -4.2132 H   0  0  0  0  0  0  0  0  0  0  0  0
   -2.3242    6.2010   -5.9182 H   0  0  0  0  0  0  0  0  0  0  0  0
   -2.1288    7.8645   -5.2768 H   0  0  0  0  0  0  0  0  0  0  0  0
   -7.2916    9.4195   -0.3880 H   0  0  0  0  0  0  0  0  0  0  0  0
   -7.7746   11.1080   -0.2740 H   0  0  0  0  0  0  0  0  0  0  0  0
   -8.1924   10.1155   -1.7026 H   0  0  0  0  0  0  0  0  0  0  0  0
  1 13  1  0  0  0  0
  1 20  1  0  0  0  0
  2 14  1  0  0  0  0
  2 21  1  0  0  0  0
  3 19  1  0  0  0  0
  3 26  1  0  0  0  0
  4 22  1  0  0  0  0
  4 27  1  0  0  0  0
  5  9  1  0  0  0  0
  5 10  1  0  0  0  0
  5 30  1  0  0  0  0
  6  7  1  0  0  0  0
  6  9  1  0  0  0  0
  6 31  1  0  0  0  0
  6 32  1  0  0  0  0
  7  8  1  0  0  0  0
  7 11  2  0  0  0  0
  8 10  1  0  0  0  0
  8 12  2  0  0  0  0
  9 33  1  0  0  0  0
  9 34  1  0  0  0  0
 10 15  2  0  0  0  0
 11 13  1  0  0  0  0
 11 35  1  0  0  0  0
 12 14  1  0  0  0  0
 12 36  1  0  0  0  0
 13 14  2  0  0  0  0
 15 16  1  0  0  0  0
 15 37  1  0  0  0  0
 16 17  2  0  0  0  0
 16 18  1  0  0  0  0
 17 19  1  0  0  0  0
 17 38  1  0  0  0  0
 18 23  2  0  0  0  0
 18 39  1  0  0  0  0
 19 22  2  0  0  0  0
 20 24  1  0  0  0  0
 20 40  1  0  0  0  0
 20 41  1  0  0  0  0
 21 25  1  0  0  0  0
 21 42  1  0  0  0  0
 21 43  1  0  0  0  0
 22 23  1  0  0  0  0
 23 44  1  0  0  0  0
 24 45  1  0  0  0  0
 24 46  1  0  0  0  0
 24 47  1  0  0  0  0
 25 48  1  0  0  0  0
 25 49  1  0  0  0  0
 25 50  1  0  0  0  0
 26 28  1  0  0  0  0
 26 51  1  0  0  0  0
 26 52  1  0  0  0  0
 27 29  1  0  0  0  0
 27 53  1  0  0  0  0
 27 54  1  0  0  0  0
 28 55  1  0  0  0  0
 28 56  1  0  0  0  0
 28 57  1  0  0  0  0
 29 58  1  0  0  0  0
 29 59  1  0  0  0  0
 29 60  1  0  0  0  0
M  END
>  <DRUGBANK_ID>
DB06751

>  <COMMON_NAME>
Drotaverine

>  <CAS_NUMBER>
14009-24-6

>  <UNII>
98QS4N58TW

>  <SYNONYMS>
Drotaverin; Drotaverina; Drotaverine; Drotaverinum

$$$$
