
 OpenBabel10282417183D

 45 47  0  0  0  0  0  0  0  0999 V2000
    0.6890   -0.0876   -0.1519 O   0  0  0  0  0  0  0  0  0  0  0  0
    1.8859    0.0263    0.0548 C   0  0  0  0  0  0  0  0  0  0  0  0
    2.4352    1.2468   -0.2052 N   0  0  0  0  0  0  0  0  0  0  0  0
    2.8383   -1.0392    0.7624 C   0  0  0  0  0  0  0  0  0  0  0  0
    2.5875   -0.8684    2.2858 C   0  0  0  0  0  0  0  0  0  0  0  0
    2.3956   -1.9683    3.1363 C   0  0  0  0  0  0  0  0  0  0  0  0
    2.2305   -1.8064    4.5055 C   0  0  0  0  0  0  0  0  0  0  0  0
    2.2456   -0.5337    5.0582 C   0  0  0  0  0  0  0  0  0  0  0  0
    2.4270    0.5772    4.2430 C   0  0  0  0  0  0  0  0  0  0  0  0
    2.5660    0.4147    2.8677 C   0  0  0  0  0  0  0  0  0  0  0  0
    2.5697   -2.4950    0.2934 C   0  0  0  0  0  0  0  0  0  0  0  0
    3.4813   -3.5306    0.6280 C   0  0  0  0  0  0  0  0  0  0  0  0
    3.2044   -4.8626    0.3576 C   0  0  0  0  0  0  0  0  0  0  0  0
    2.0002   -5.1962   -0.2414 C   0  0  0  0  0  0  0  0  0  0  0  0
    1.0891   -4.2023   -0.5796 C   0  0  0  0  0  0  0  0  0  0  0  0
    1.3915   -2.8641   -0.3590 C   0  0  0  0  0  0  0  0  0  0  0  0
    4.3780   -0.7827    0.5124 C   0  0  0  0  0  0  0  0  0  0  0  0
    4.8815   -1.0165   -0.9391 C   0  0  0  0  0  0  0  0  0  0  0  0
    4.3927   -0.0727   -1.9254 N   0  0  0  0  0  0  0  0  0  0  0  0
    3.3745   -0.3118   -2.8144 C   0  0  0  0  0  0  0  0  0  0  0  0
    3.0644    0.9179   -3.3434 C   0  0  0  0  0  0  0  0  0  0  0  0
    3.8726    1.8891   -2.8036 N   0  0  0  0  0  0  0  0  0  0  0  0
    4.6902    1.2787   -1.9643 C   0  0  0  0  0  0  0  0  0  0  0  0
    5.5285    1.9770   -0.9354 C   0  0  0  0  0  0  0  0  0  0  0  0
    3.4235    1.3294   -0.1249 H   0  0  0  0  0  0  0  0  0  0  0  0
    2.0835    1.6956   -1.0475 H   0  0  0  0  0  0  0  0  0  0  0  0
    2.3503   -2.9849    2.7612 H   0  0  0  0  0  0  0  0  0  0  0  0
    2.0905   -2.6853    5.1269 H   0  0  0  0  0  0  0  0  0  0  0  0
    2.0982   -0.4085    6.1247 H   0  0  0  0  0  0  0  0  0  0  0  0
    2.4566    1.5745    4.6717 H   0  0  0  0  0  0  0  0  0  0  0  0
    2.6306    1.3178    2.2646 H   0  0  0  0  0  0  0  0  0  0  0  0
    4.3977   -3.3304    1.1793 H   0  0  0  0  0  0  0  0  0  0  0  0
    3.9097   -5.6296    0.6630 H   0  0  0  0  0  0  0  0  0  0  0  0
    1.7606   -6.2348   -0.4347 H   0  0  0  0  0  0  0  0  0  0  0  0
    0.1176   -4.4562   -0.9923 H   0  0  0  0  0  0  0  0  0  0  0  0
    0.6498   -2.1421   -0.6808 H   0  0  0  0  0  0  0  0  0  0  0  0
    4.6623    0.2029    0.8921 H   0  0  0  0  0  0  0  0  0  0  0  0
    4.9843   -1.4322    1.1605 H   0  0  0  0  0  0  0  0  0  0  0  0
    5.9756   -0.9459   -0.9655 H   0  0  0  0  0  0  0  0  0  0  0  0
    4.6436   -2.0222   -1.3000 H   0  0  0  0  0  0  0  0  0  0  0  0
    2.8977   -1.2781   -2.9302 H   0  0  0  0  0  0  0  0  0  0  0  0
    2.2543    1.1668   -4.0200 H   0  0  0  0  0  0  0  0  0  0  0  0
    6.3121    2.5814   -1.3837 H   0  0  0  0  0  0  0  0  0  0  0  0
    4.8928    2.6418   -0.3330 H   0  0  0  0  0  0  0  0  0  0  0  0
    5.9995    1.2857   -0.2332 H   0  0  0  0  0  0  0  0  0  0  0  0
  1  2  2  0  0  0  0
  2  3  1  0  0  0  0
  2  4  1  0  0  0  0
  3 25  1  0  0  0  0
  3 26  1  0  0  0  0
  4  5  1  0  0  0  0
  4 11  1  0  0  0  0
  4 17  1  0  0  0  0
  5  6  2  0  0  0  0
  5 10  1  0  0  0  0
  6  7  1  0  0  0  0
  6 27  1  0  0  0  0
  7  8  2  0  0  0  0
  7 28  1  0  0  0  0
  8  9  1  0  0  0  0
  8 29  1  0  0  0  0
  9 10  2  0  0  0  0
  9 30  1  0  0  0  0
 10 31  1  0  0  0  0
 11 12  2  0  0  0  0
 11 16  1  0  0  0  0
 12 13  1  0  0  0  0
 12 32  1  0  0  0  0
 13 14  2  0  0  0  0
 13 33  1  0  0  0  0
 14 15  1  0  0  0  0
 14 34  1  0  0  0  0
 15 16  2  0  0  0  0
 15 35  1  0  0  0  0
 16 36  1  0  0  0  0
 17 18  1  0  0  0  0
 17 37  1  0  0  0  0
 17 38  1  0  0  0  0
 18 19  1  0  0  0  0
 18 39  1  0  0  0  0
 18 40  1  0  0  0  0
 19 20  1  0  0  0  0
 19 23  1  0  0  0  0
 20 21  2  0  0  0  0
 20 41  1  0  0  0  0
 21 22  1  0  0  0  0
 21 42  1  0  0  0  0
 22 23  2  0  0  0  0
 23 24  1  0  0  0  0
 24 43  1  0  0  0  0
 24 44  1  0  0  0  0
 24 45  1  0  0  0  0
M  END
>  <DRUGBANK_ID>
DB09262

>  <COMMON_NAME>
Imidafenacin

>  <CAS_NUMBER>
170105-16-5

>  <UNII>
XJR8Y07LJO

>  <SYNONYMS>
Imidafenacin

$$$$
