
 OpenBabel10282417123D

 24 23  0  0  1  0  0  0  0  0999 V2000
   -2.7687    5.6460    3.2354 C   0  0  0  0  0  0  0  0  0  0  0  0
   -1.2862    5.3383    3.2111 C   0  0  0  0  0  0  0  0  0  0  0  0
   -0.8440    3.9016    3.5671 C   0  0  0  0  0  0  0  0  0  0  0  0
   -1.3301    2.6624    2.7542 C   0  0  0  0  0  0  0  0  0  0  0  0
   -0.9290    2.5764    1.2343 C   0  0  2  0  0  0  0  0  0  0  0  0
    0.5697    2.4814    1.1390 N   0  0  0  0  0  0  0  0  0  0  0  0
   -1.5390    4.0065    0.2692 P   0  0  0  0  0  0  0  0  0  0  0  0
   -2.8438    3.9523    1.1969 O   0  0  0  0  0  0  0  0  0  0  0  0
   -0.2158    4.8006    0.7741 O   0  0  0  0  0  0  0  0  0  0  0  0
   -2.0552    5.2166   -0.5473 O   0  0  0  0  0  0  0  0  0  0  0  0
   -3.4049    4.7806    3.0542 H   0  0  0  0  0  0  0  0  0  0  0  0
   -2.9924    6.3894    2.4543 H   0  0  0  0  0  0  0  0  0  0  0  0
   -3.0592    6.0458    4.2005 H   0  0  0  0  0  0  0  0  0  0  0  0
   -0.9613    5.6763    2.2463 H   0  0  0  0  0  0  0  0  0  0  0  0
   -0.7379    6.0491    3.8358 H   0  0  0  0  0  0  0  0  0  0  0  0
    0.2520    3.8841    3.5862 H   0  0  0  0  0  0  0  0  0  0  0  0
   -1.1546    3.7418    4.6053 H   0  0  0  0  0  0  0  0  0  0  0  0
   -0.9592    1.7567    3.2537 H   0  0  0  0  0  0  0  0  0  0  0  0
   -2.4193    2.5840    2.8613 H   0  0  0  0  0  0  0  0  0  0  0  0
   -1.3599    1.6703    0.7942 H   0  0  0  0  0  0  0  0  0  0  0  0
    0.8145    1.4913    1.2303 H   0  0  0  0  0  0  0  0  0  0  0  0
    0.9734    2.8633    2.0057 H   0  0  0  0  0  0  0  0  0  0  0  0
   -3.6570    3.9888    0.6391 H   0  0  0  0  0  0  0  0  0  0  0  0
    0.5684    4.1884    0.7701 H   0  0  0  0  0  0  0  0  0  0  0  0
  1  2  1  0  0  0  0
  1 11  1  0  0  0  0
  1 12  1  0  0  0  0
  1 13  1  0  0  0  0
  2  3  1  0  0  0  0
  2 14  1  0  0  0  0
  2 15  1  0  0  0  0
  3  4  1  0  0  0  0
  3 16  1  0  0  0  0
  3 17  1  0  0  0  0
  4 18  1  0  0  0  0
  4 19  1  0  0  0  0
  5  7  1  0  0  0  0
  5 20  1  6  0  0  0
  5  6  1  0  0  0  0
  5  4  1  0  0  0  0
  6 21  1  0  0  0  0
  6 22  1  0  0  0  0
  7  8  1  0  0  0  0
  7  9  1  0  0  0  0
  7 10  2  0  0  0  0
  8 23  1  0  0  0  0
  9 24  1  0  0  0  0
M  END
>  <DRUGBANK_ID>
DB02088

>  <SECONDARY_ACCESSION_NUMBERS>
EXPT02357

>  <COMMON_NAME>
Norleucine Phosphonate

$$$$
