
 OpenBabel10282417233D

 52 54  0  0  0  0  0  0  0  0999 V2000
    0.4100    0.2378    0.0552 C   0  0  0  0  0  0  0  0  0  0  0  0
    0.2313   -0.4632    1.2665 O   0  0  0  0  0  0  0  0  0  0  0  0
    0.9988   -1.6379    1.3918 N   0  0  0  0  0  0  0  0  0  0  0  0
    1.7892   -2.3588    0.5215 C   0  0  0  0  0  0  0  0  0  0  0  0
    2.0885   -3.5093    0.7983 O   0  0  0  0  0  0  0  0  0  0  0  0
    2.3100   -1.7867   -0.7546 C   0  0  0  0  0  0  0  0  0  0  0  0
    3.0502   -0.5889   -0.6987 C   0  0  0  0  0  0  0  0  0  0  0  0
    3.1897    0.2073   -1.8416 C   0  0  0  0  0  0  0  0  0  0  0  0
    2.8652   -0.3122   -3.0786 C   0  0  0  0  0  0  0  0  0  0  0  0
    2.3533   -1.6008   -3.1543 C   0  0  0  0  0  0  0  0  0  0  0  0
    1.9924   -2.3470   -2.0074 C   0  0  0  0  0  0  0  0  0  0  0  0
    1.2067   -3.5165   -2.1847 N   0  0  0  0  0  0  0  0  0  0  0  0
    1.1046   -4.2775   -3.3831 C   0  0  0  0  0  0  0  0  0  0  0  0
   -0.1803   -4.6332   -3.8452 C   0  0  0  0  0  0  0  0  0  0  0  0
   -0.3260   -5.2785   -5.0765 C   0  0  0  0  0  0  0  0  0  0  0  0
   -1.6021   -5.6000   -5.5807 N   0  0  0  0  0  0  0  0  0  0  0  0
   -1.7550   -6.3112   -6.7287 C   0  0  0  0  0  0  0  0  0  0  0  0
   -1.2798   -7.5614   -7.0501 C   0  0  0  0  0  0  0  0  0  0  0  0
   -1.6102   -7.7649   -8.4026 C   0  0  0  0  0  0  0  0  0  0  0  0
   -1.2756   -8.9508   -9.2266 C   0  0  0  0  0  0  0  0  0  0  0  0
   -2.2851   -6.7253   -8.9086 N   0  0  0  0  0  0  0  0  0  0  0  0
   -2.3615   -5.8451   -7.8745 N   0  0  0  0  0  0  0  0  0  0  0  0
   -2.9944   -4.5467   -8.0897 C   0  0  0  0  0  0  0  0  0  0  0  0
   -2.2462   -3.7041   -9.1239 C   0  0  0  0  0  0  0  0  0  0  0  0
   -4.4595   -4.7122   -8.4915 C   0  0  0  0  0  0  0  0  0  0  0  0
    0.7539   -5.5918   -5.8254 N   0  0  0  0  0  0  0  0  0  0  0  0
    1.9805   -5.2935   -5.3593 C   0  0  0  0  0  0  0  0  0  0  0  0
    2.2149   -4.6696   -4.1517 C   0  0  0  0  0  0  0  0  0  0  0  0
    3.8628   -4.4175   -3.6994 Cl  0  0  0  0  0  0  0  0  0  0  0  0
   -0.2091    1.1309   -0.0250 H   0  0  0  0  0  0  0  0  0  0  0  0
    0.1859   -0.4081   -0.7975 H   0  0  0  0  0  0  0  0  0  0  0  0
    1.4048    0.6581    0.0826 H   0  0  0  0  0  0  0  0  0  0  0  0
    0.7459   -2.1577    2.2295 H   0  0  0  0  0  0  0  0  0  0  0  0
    3.3308   -0.1655    0.2652 H   0  0  0  0  0  0  0  0  0  0  0  0
    3.4860    1.2506   -1.7588 H   0  0  0  0  0  0  0  0  0  0  0  0
    2.9907    0.2688   -3.9882 H   0  0  0  0  0  0  0  0  0  0  0  0
    2.1958   -2.0001   -4.1516 H   0  0  0  0  0  0  0  0  0  0  0  0
    1.0195   -4.0485   -1.3343 H   0  0  0  0  0  0  0  0  0  0  0  0
   -1.0570   -4.3497   -3.2714 H   0  0  0  0  0  0  0  0  0  0  0  0
   -2.3946   -5.2200   -5.0808 H   0  0  0  0  0  0  0  0  0  0  0  0
   -0.7318   -8.2216   -6.3954 H   0  0  0  0  0  0  0  0  0  0  0  0
   -2.1811   -9.4230   -9.6185 H   0  0  0  0  0  0  0  0  0  0  0  0
   -0.6261   -8.6792  -10.0646 H   0  0  0  0  0  0  0  0  0  0  0  0
   -0.7444   -9.6966   -8.6240 H   0  0  0  0  0  0  0  0  0  0  0  0
   -2.9646   -4.0112   -7.1337 H   0  0  0  0  0  0  0  0  0  0  0  0
   -2.2542   -4.1792  -10.1111 H   0  0  0  0  0  0  0  0  0  0  0  0
   -2.7112   -2.7169   -9.2263 H   0  0  0  0  0  0  0  0  0  0  0  0
   -1.2015   -3.5563   -8.8311 H   0  0  0  0  0  0  0  0  0  0  0  0
   -5.0042   -5.2983   -7.7440 H   0  0  0  0  0  0  0  0  0  0  0  0
   -4.9497   -3.7375   -8.5845 H   0  0  0  0  0  0  0  0  0  0  0  0
   -4.5534   -5.2277   -9.4540 H   0  0  0  0  0  0  0  0  0  0  0  0
    2.7957   -5.5771   -6.0177 H   0  0  0  0  0  0  0  0  0  0  0  0
  1  2  1  0  0  0  0
  1 30  1  0  0  0  0
  1 31  1  0  0  0  0
  1 32  1  0  0  0  0
  2  3  1  0  0  0  0
  3  4  1  0  0  0  0
  3 33  1  0  0  0  0
  4  5  2  0  0  0  0
  4  6  1  0  0  0  0
  6  7  2  0  0  0  0
  6 11  1  0  0  0  0
  7  8  1  0  0  0  0
  7 34  1  0  0  0  0
  8  9  2  0  0  0  0
  8 35  1  0  0  0  0
  9 10  1  0  0  0  0
  9 36  1  0  0  0  0
 10 11  2  0  0  0  0
 10 37  1  0  0  0  0
 11 12  1  0  0  0  0
 12 13  1  0  0  0  0
 12 38  1  0  0  0  0
 13 14  2  0  0  0  0
 13 28  1  0  0  0  0
 14 15  1  0  0  0  0
 14 39  1  0  0  0  0
 15 16  1  0  0  0  0
 15 26  2  0  0  0  0
 16 17  1  0  0  0  0
 16 40  1  0  0  0  0
 17 18  2  0  0  0  0
 17 22  1  0  0  0  0
 18 19  1  0  0  0  0
 18 41  1  0  0  0  0
 19 20  1  0  0  0  0
 19 21  2  0  0  0  0
 20 42  1  0  0  0  0
 20 43  1  0  0  0  0
 20 44  1  0  0  0  0
 21 22  1  0  0  0  0
 22 23  1  0  0  0  0
 23 24  1  0  0  0  0
 23 25  1  0  0  0  0
 23 45  1  0  0  0  0
 24 46  1  0  0  0  0
 24 47  1  0  0  0  0
 24 48  1  0  0  0  0
 25 49  1  0  0  0  0
 25 50  1  0  0  0  0
 25 51  1  0  0  0  0
 26 27  1  0  0  0  0
 27 28  2  0  0  0  0
 27 52  1  0  0  0  0
 28 29  1  0  0  0  0
M  END
>  <DRUGBANK_ID>
DB16106

>  <COMMON_NAME>
GSK2256098

>  <CAS_NUMBER>
1224887-10-8

>  <UNII>
R7O0O4110G

$$$$
