
 OpenBabel10282417123D

 56 58  0  0  0  0  0  0  0  0999 V2000
   -0.2183    1.1959    0.1566 C   0  0  0  0  0  0  0  0  0  0  0  0
    1.1087    1.2892    0.0365 C   0  0  0  0  0  0  0  0  0  0  0  0
    1.1341   -1.1724    0.2015 N   0  0  0  0  0  0  0  0  0  0  0  0
   -0.7587   -0.0227    0.0747 N   0  0  0  0  0  0  0  0  0  0  0  0
    1.8003    0.0015   -0.0048 C   0  0  0  0  0  0  0  0  0  0  0  0
    3.0158    0.0269   -0.2335 O   0  0  0  0  0  0  0  0  0  0  0  0
   -0.2120   -1.2729    0.0601 C   0  0  0  0  0  0  0  0  0  0  0  0
   -0.7895   -2.3157   -0.0947 O   0  0  0  0  0  0  0  0  0  0  0  0
   -2.0526    0.0175   -0.2932 C   0  0  1  0  0  0  0  0  0  0  0  0
   -2.7449    0.6270    0.8964 C   0  0  2  0  0  0  0  0  0  0  0  0
   -2.9971   -0.2812    1.9818 O   0  0  0  0  0  0  0  0  0  0  0  0
   -3.7746    0.8793   -0.1256 C   0  0  2  0  0  0  0  0  0  0  0  0
   -4.2719   -0.5814   -0.1213 O   0  0  0  0  0  0  0  0  0  0  0  0
   -3.2841    1.6330   -1.3083 C   0  0  1  0  0  0  0  0  0  0  0  0
   -3.4760    3.1975   -1.1107 C   0  0  0  0  0  0  0  0  0  0  0  0
   -3.4255    3.6879    0.2183 O   0  0  0  0  0  0  0  0  0  0  0  0
   -4.5477    1.9014    1.8896 O   0  0  0  0  0  0  0  0  0  0  0  0
   -3.6743    4.2569    2.6559 O   0  0  0  0  0  0  0  0  0  0  0  0
   -4.3046    3.4688    1.5519 P   0  0  3  0  0  0  0  0  0  0  0  0
   -5.7874    4.0660    1.4211 O   0  0  0  0  0  0  0  0  0  0  0  0
   -5.6449   -0.1006    2.3655 O   0  0  0  0  0  0  0  0  0  0  0  0
   -6.8069    1.7908    1.1266 O   0  0  0  0  0  0  0  0  0  0  0  0
   -5.5648    0.7457    1.1005 P   0  0  3  0  0  0  0  0  0  0  0  0
   -6.5819   -0.4101    0.3113 O   0  0  0  0  0  0  0  0  0  0  0  0
   -2.0851    0.9467   -1.4287 O   0  0  0  0  0  0  0  0  0  0  0  0
   -6.4092   -0.8855   -1.1145 C   0  0  2  0  0  0  0  0  0  0  0  0
   -8.3277    0.0601   -2.0613 C   0  0  0  0  0  0  0  0  0  0  0  0
   -5.6278   -0.0234   -2.1583 C   0  0  2  0  0  0  0  0  0  0  0  0
   -4.2765   -0.4344   -2.2602 O   0  0  0  0  0  0  0  0  0  0  0  0
   -7.5655    1.1970   -2.7567 C   0  0  1  0  0  0  0  0  0  0  0  0
   -8.3483    2.3804   -2.7857 O   0  0  0  0  0  0  0  0  0  0  0  0
   -6.2363    1.4193   -2.0735 C   0  0  2  0  0  0  0  0  0  0  0  0
   -5.6198    2.5107   -2.7401 O   0  0  0  0  0  0  0  0  0  0  0  0
   -7.6259   -1.1470   -1.7986 O   0  0  0  0  0  0  0  0  0  0  0  0
   -0.8502    2.0824    0.1443 H   0  0  0  0  0  0  0  0  0  0  0  0
    1.5111    2.2649   -0.0849 H   0  0  0  0  0  0  0  0  0  0  0  0
    1.5895   -2.0607    0.1570 H   0  0  0  0  0  0  0  0  0  0  0  0
   -2.4010   -0.9905   -0.5664 H   0  0  0  0  0  0  0  0  0  0  0  0
   -2.3330    1.5177    1.3766 H   0  0  0  0  0  0  0  0  0  0  0  0
   -3.7609   -0.8740    1.8807 H   0  0  0  0  0  0  0  0  0  0  0  0
   -4.5517    1.6408   -0.1325 H   0  0  0  0  0  0  0  0  0  0  0  0
   -4.8428   -1.0481    0.5690 H   0  0  0  0  0  0  0  0  0  0  0  0
   -3.7841    1.4893   -2.2463 H   0  0  0  0  0  0  0  0  0  0  0  0
   -2.7223    3.6592   -1.7528 H   0  0  0  0  0  0  0  0  0  0  0  0
   -4.4178    3.6167   -1.4910 H   0  0  0  0  0  0  0  0  0  0  0  0
   -5.9427    4.6347    2.2147 H   0  0  0  0  0  0  0  0  0  0  0  0
   -6.8438    2.3311    1.9411 H   0  0  0  0  0  0  0  0  0  0  0  0
   -5.9189   -1.8689   -1.0252 H   0  0  0  0  0  0  0  0  0  0  0  0
   -9.1706   -0.1952   -2.6957 H   0  0  0  0  0  0  0  0  0  0  0  0
   -8.6803    0.4028   -1.0892 H   0  0  0  0  0  0  0  0  0  0  0  0
   -5.8019   -0.2889   -3.1943 H   0  0  0  0  0  0  0  0  0  0  0  0
   -4.0782   -0.9060   -1.4183 H   0  0  0  0  0  0  0  0  0  0  0  0
   -7.2934    0.9580   -3.7931 H   0  0  0  0  0  0  0  0  0  0  0  0
   -8.3835    2.7434   -1.8838 H   0  0  0  0  0  0  0  0  0  0  0  0
   -6.4347    1.8036   -1.0715 H   0  0  0  0  0  0  0  0  0  0  0  0
   -5.1344    2.2267   -3.5287 H   0  0  0  0  0  0  0  0  0  0  0  0
  1  2  2  0  0  0  0
  1 35  1  0  0  0  0
  2 36  1  0  0  0  0
  3  7  1  0  0  0  0
  3 37  1  0  0  0  0
  4  1  1  0  0  0  0
  5  3  1  0  0  0  0
  5  2  1  0  0  0  0
  5  6  2  0  0  0  0
  7  4  1  0  0  0  0
  7  8  2  0  0  0  0
  9  4  1  0  0  0  0
  9 38  1  6  0  0  0
 10  9  1  0  0  0  0
 10 11  1  0  0  0  0
 10 39  1  1  0  0  0
 11 40  1  0  0  0  0
 12 10  1  0  0  0  0
 12 13  1  0  0  0  0
 12 41  1  1  0  0  0
 13 42  1  0  0  0  0
 14 12  1  0  0  0  0
 14 43  1  6  0  0  0
 14 15  1  0  0  0  0
 15 16  1  0  0  0  0
 15 44  1  0  0  0  0
 15 45  1  0  0  0  0
 16 19  1  0  0  0  0
 17 23  1  0  0  0  0
 19 17  1  0  0  0  0
 19 18  2  0  0  0  0
 19 20  1  0  0  0  0
 20 46  1  0  0  0  0
 22 47  1  0  0  0  0
 23 21  2  0  0  0  0
 23 22  1  0  0  0  0
 23 24  1  0  0  0  0
 25 14  1  0  0  0  0
 25  9  1  0  0  0  0
 26 24  1  0  0  0  0
 26 48  1  1  0  0  0
 27 30  1  0  0  0  0
 27 49  1  0  0  0  0
 27 50  1  0  0  0  0
 28 26  1  0  0  0  0
 28 29  1  0  0  0  0
 28 51  1  6  0  0  0
 29 52  1  0  0  0  0
 30 32  1  0  0  0  0
 30 31  1  0  0  0  0
 30 53  1  6  0  0  0
 31 54  1  0  0  0  0
 32 28  1  0  0  0  0
 32 33  1  0  0  0  0
 32 55  1  1  0  0  0
 33 56  1  0  0  0  0
 34 26  1  0  0  0  0
 34 27  1  0  0  0  0
M  END
>  <DRUGBANK_ID>
DB01713

>  <SECONDARY_ACCESSION_NUMBERS>
EXPT03173

>  <COMMON_NAME>
UDP-alpha-D-xylose

>  <CAS_NUMBER>
3616-06-6

>  <UNII>
I839TB018F

>  <SYNONYMS>
UDP-xylose; Uridine-5'-diphosphate-xylopyranose

$$$$
