
 OpenBabel10282417173D

 46 48  0  0  0  0  0  0  0  0999 V2000
    1.4023   -0.7283   -0.8362 C   0  0  0  0  0  0  0  0  0  0  0  0
    1.4199    0.7984   -0.9512 C   0  0  0  0  0  0  0  0  0  0  0  0
   -0.8760    1.4477   -0.3089 C   0  0  0  0  0  0  0  0  0  0  0  0
    0.7304    0.2656    1.1804 N   0  0  0  0  0  0  0  0  0  0  0  0
   -1.4978   -0.0369   -0.7192 C   0  0  1  0  0  0  0  0  0  0  0  0
   -0.7112   -1.4181    0.4246 C   0  0  2  0  0  0  0  0  0  0  0  0
   -1.8271   -3.2324    2.3982 O   0  0  0  0  0  0  0  0  0  0  0  0
   -1.2208   -2.2165    2.1946 C   0  0  0  0  0  0  0  0  0  0  0  0
   -1.3125   -1.3729    3.3335 O   0  0  0  0  0  0  0  0  0  0  0  0
   -2.5612   -1.0517    4.0963 C   0  0  0  0  0  0  0  0  0  0  0  0
    0.7410   -1.0326    0.5136 C   0  0  1  0  0  0  0  0  0  0  0  0
    1.2571   -1.8668    1.0135 H   0  0  0  0  0  0  0  0  0  0  0  0
    0.5628    1.2963    0.1788 C   0  0  1  0  0  0  0  0  0  0  0  0
    0.9165    2.2352    0.6227 H   0  0  0  0  0  0  0  0  0  0  0  0
   -0.3239    0.3556    2.1849 C   0  0  0  0  0  0  0  0  0  0  0  0
   -2.0435    0.1500    1.7519 C   0  0  0  0  0  0  0  0  0  0  0  0
   -2.9374   -1.2421    1.1417 C   0  0  0  0  0  0  0  0  0  0  0  0
   -2.6498   -2.5228    0.7375 F   0  0  0  0  0  0  0  0  0  0  0  0
   -6.0268    0.3944   -0.4138 C   0  0  0  0  0  0  0  0  0  0  0  0
   -5.4997   -0.8663   -0.3736 C   0  0  0  0  0  0  0  0  0  0  0  0
   -4.2419   -1.0634   -0.9889 C   0  0  0  0  0  0  0  0  0  0  0  0
   -3.2712    0.0482   -1.2058 C   0  0  0  0  0  0  0  0  0  0  0  0
   -3.8891    1.2817   -1.3553 C   0  0  0  0  0  0  0  0  0  0  0  0
   -5.2676    1.4244   -0.9990 C   0  0  0  0  0  0  0  0  0  0  0  0
   -7.9819    0.6526    0.2339 I   0  0  0  0  0  0  0  0  0  0  0  0
    0.8759   -1.1842   -1.6834 H   0  0  0  0  0  0  0  0  0  0  0  0
    2.4301   -1.1037   -0.8611 H   0  0  0  0  0  0  0  0  0  0  0  0
    1.0129    1.1451   -1.9050 H   0  0  0  0  0  0  0  0  0  0  0  0
    2.4356    1.1796   -0.8338 H   0  0  0  0  0  0  0  0  0  0  0  0
   -0.9745    2.1747   -1.1210 H   0  0  0  0  0  0  0  0  0  0  0  0
   -1.3519    2.0366    0.4908 H   0  0  0  0  0  0  0  0  0  0  0  0
   -1.0751   -0.2025   -1.7216 H   0  0  0  0  0  0  0  0  0  0  0  0
   -0.7443   -2.2779   -0.2598 H   0  0  0  0  0  0  0  0  0  0  0  0
   -3.4815   -0.9993    3.4903 H   0  0  0  0  0  0  0  0  0  0  0  0
   -2.6980   -1.7527    4.9009 H   0  0  0  0  0  0  0  0  0  0  0  0
   -2.4416   -0.0253    4.5083 H   0  0  0  0  0  0  0  0  0  0  0  0
    0.1476   -0.3622    2.8748 H   0  0  0  0  0  0  0  0  0  0  0  0
   -0.2450    1.2428    2.8204 H   0  0  0  0  0  0  0  0  0  0  0  0
   -2.5950    0.5006    2.6017 H   0  0  0  0  0  0  0  0  0  0  0  0
   -2.4436    0.9675    1.1671 H   0  0  0  0  0  0  0  0  0  0  0  0
   -3.9471   -1.2345    1.4426 H   0  0  0  0  0  0  0  0  0  0  0  0
   -2.6974   -1.1039    0.1594 H   0  0  0  0  0  0  0  0  0  0  0  0
   -5.9690   -1.6833    0.1969 H   0  0  0  0  0  0  0  0  0  0  0  0
   -3.9402   -2.1136   -0.8613 H   0  0  0  0  0  0  0  0  0  0  0  0
   -3.3466    2.1207   -1.7743 H   0  0  0  0  0  0  0  0  0  0  0  0
   -5.7579    2.3756   -1.1740 H   0  0  0  0  0  0  0  0  0  0  0  0
  1  2  1  0  0  0  0
  1 26  1  0  0  0  0
  1 27  1  0  0  0  0
  2 13  1  0  0  0  0
  2 28  1  0  0  0  0
  2 29  1  0  0  0  0
  3  5  1  0  0  0  0
  3 30  1  0  0  0  0
  3 31  1  0  0  0  0
  4 15  1  0  0  0  0
  5  6  1  0  0  0  0
  5 22  1  0  0  0  0
  5 32  1  6  0  0  0
  6 11  1  0  0  0  0
  6  8  1  0  0  0  0
  6 33  1  6  0  0  0
  8  7  2  0  0  0  0
  8  9  1  0  0  0  0
  9 10  1  0  0  0  0
 10 34  1  0  0  0  0
 10 35  1  0  0  0  0
 10 36  1  0  0  0  0
 11  1  1  0  0  0  0
 11  4  1  0  0  0  0
 11 12  1  1  0  0  0
 13  3  1  0  0  0  0
 13  4  1  0  0  0  0
 13 14  1  1  0  0  0
 15 16  1  0  0  0  0
 15 37  1  0  0  0  0
 15 38  1  0  0  0  0
 16 17  1  0  0  0  0
 16 39  1  0  0  0  0
 16 40  1  0  0  0  0
 17 18  1  0  0  0  0
 17 41  1  0  0  0  0
 17 42  1  0  0  0  0
 19 20  2  0  0  0  0
 19 24  1  0  0  0  0
 19 25  1  0  0  0  0
 20 21  1  0  0  0  0
 20 43  1  0  0  0  0
 21 22  2  0  0  0  0
 21 44  1  0  0  0  0
 22 23  1  0  0  0  0
 23 24  2  0  0  0  0
 23 45  1  0  0  0  0
 24 46  1  0  0  0  0
M  ISO  1  25 123
M  END
>  <DRUGBANK_ID>
DB08824

>  <SECONDARY_ACCESSION_NUMBERS>
DB09548

>  <COMMON_NAME>
Ioflupane I-123

>  <CAS_NUMBER>
155798-07-5

>  <UNII>
3MM99T8R5Q

>  <SYNONYMS>
123I-FP-CIT; 123I-Ioflupane; Iodine ioflupane (123I); Ioflupane ((123)I); Ioflupane (123I); Ioflupane I 123; Ioflupane I(123); Ioflupano (123I); Ioflupanum (123I)

$$$$
