
 OpenBabel10282417133D

 35 36  0  0  0  0  0  0  0  0999 V2000
    1.1357    0.0425   -0.1878 S   0  0  0  0  0  0  0  0  0  0  0  0
    6.5035    2.6721    1.1426 F   0  0  0  0  0  0  0  0  0  0  0  0
    6.4943    2.6674   -1.0401 F   0  0  0  0  0  0  0  0  0  0  0  0
    4.8771    3.6430    0.0523 F   0  0  0  0  0  0  0  0  0  0  0  0
    1.6043    3.4566    1.2916 O   0  0  0  0  0  0  0  0  0  0  0  0
    5.4460   -2.2053    0.0749 O   0  0  0  0  0  0  0  0  0  0  0  0
    0.4942    1.9567    2.6299 N   0  0  0  0  0  0  0  0  0  0  0  0
    3.5471    1.2668    0.0475 N   0  0  0  0  0  0  0  0  0  0  0  0
    3.4466   -1.0746    0.0181 N   0  0  0  0  0  0  0  0  0  0  0  0
    1.3847    1.3473    5.3340 C   0  0  0  0  0  0  0  0  0  0  0  0
    1.2404    2.7910    4.8518 C   0  0  0  0  0  0  0  0  0  0  0  0
    1.6424    0.4077    4.1607 C   0  0  0  0  0  0  0  0  0  0  0  0
    0.2266    2.9017    3.7147 C   0  0  0  0  0  0  0  0  0  0  0  0
    0.5726    0.5709    3.0787 C   0  0  0  0  0  0  0  0  0  0  0  0
    0.9657    2.4045    1.4048 C   0  0  0  0  0  0  0  0  0  0  0  0
    0.5251    1.6934    0.1281 C   0  0  0  0  0  0  0  0  0  0  0  0
    2.8716    0.0863   -0.0058 C   0  0  0  0  0  0  0  0  0  0  0  0
    4.9322    1.2784    0.0598 C   0  0  0  0  0  0  0  0  0  0  0  0
    5.5919    0.1115    0.0560 C   0  0  0  0  0  0  0  0  0  0  0  0
    5.7019    2.5685    0.0553 C   0  0  0  0  0  0  0  0  0  0  0  0
    4.8181   -1.1485    0.0598 C   0  0  0  0  0  0  0  0  0  0  0  0
    3.0787    2.1711    0.0551 H   0  0  0  0  0  0  0  0  0  0  0  0
    2.2030    1.2747    6.0594 H   0  0  0  0  0  0  0  0  0  0  0  0
    0.4694    1.0355    5.8527 H   0  0  0  0  0  0  0  0  0  0  0  0
    0.9265    3.4229    5.6909 H   0  0  0  0  0  0  0  0  0  0  0  0
    2.2151    3.1573    4.5107 H   0  0  0  0  0  0  0  0  0  0  0  0
    2.6349    0.6208    3.7423 H   0  0  0  0  0  0  0  0  0  0  0  0
    1.6530   -0.6301    4.5101 H   0  0  0  0  0  0  0  0  0  0  0  0
   -0.7687    2.6414    4.0988 H   0  0  0  0  0  0  0  0  0  0  0  0
    0.1676    3.9288    3.3402 H   0  0  0  0  0  0  0  0  0  0  0  0
    0.8180   -0.1128    2.2795 H   0  0  0  0  0  0  0  0  0  0  0  0
   -0.4148    0.2967    3.4607 H   0  0  0  0  0  0  0  0  0  0  0  0
    0.8214    2.3126   -0.7284 H   0  0  0  0  0  0  0  0  0  0  0  0
   -0.5718    1.6874    0.1159 H   0  0  0  0  0  0  0  0  0  0  0  0
    6.6721    0.0323    0.0475 H   0  0  0  0  0  0  0  0  0  0  0  0
  1 16  1  0  0  0  0
  1 17  1  0  0  0  0
  2 20  1  0  0  0  0
  3 20  1  0  0  0  0
  4 20  1  0  0  0  0
  5 15  2  0  0  0  0
  6 21  2  0  0  0  0
  7 13  1  0  0  0  0
  7 14  1  0  0  0  0
  7 15  1  0  0  0  0
  8 17  1  0  0  0  0
  8 18  1  0  0  0  0
  8 22  1  0  0  0  0
  9 17  2  0  0  0  0
  9 21  1  0  0  0  0
 10 11  1  0  0  0  0
 10 12  1  0  0  0  0
 10 23  1  0  0  0  0
 10 24  1  0  0  0  0
 11 13  1  0  0  0  0
 11 25  1  0  0  0  0
 11 26  1  0  0  0  0
 12 14  1  0  0  0  0
 12 27  1  0  0  0  0
 12 28  1  0  0  0  0
 13 29  1  0  0  0  0
 13 30  1  0  0  0  0
 14 31  1  0  0  0  0
 14 32  1  0  0  0  0
 15 16  1  0  0  0  0
 16 33  1  0  0  0  0
 16 34  1  0  0  0  0
 18 19  2  0  0  0  0
 18 20  1  0  0  0  0
 19 21  1  0  0  0  0
 19 35  1  0  0  0  0
M  END
>  <DRUGBANK_ID>
DB03009

>  <SECONDARY_ACCESSION_NUMBERS>
EXPT00609

>  <COMMON_NAME>
2-{[2-Oxo-2-(1-piperidinyl)ethyl]sulfanyl}-6-(trifluoromethyl)-4(1H)-pyrimidinone

$$$$
