
 OpenBabel10282417143D

 29 29  0  0  1  0  0  0  0  0999 V2000
    0.9287    0.1328    0.1145 N   0  0  0  0  0  0  0  0  0  0  0  0
    0.2517    1.0044    0.8849 C   0  0  0  0  0  0  0  0  0  0  0  0
   -1.0824    0.8717    0.7666 N   0  0  0  0  0  0  0  0  0  0  0  0
    0.8793    1.8319    1.6515 N   0  0  0  0  0  0  0  0  0  0  0  0
    0.1880    2.6698    2.5454 C   0  0  0  0  0  0  0  0  0  0  0  0
   -0.8112    2.2203    3.4119 C   0  0  0  0  0  0  0  0  0  0  0  0
   -1.3612    3.0617    4.3786 C   0  0  0  0  0  0  0  0  0  0  0  0
   -0.8026    4.3165    4.6014 C   0  0  0  0  0  0  0  0  0  0  0  0
    0.2659    4.7473    3.8079 C   0  0  0  0  0  0  0  0  0  0  0  0
    0.6308    3.9763    2.6930 C   0  0  0  0  0  0  0  0  0  0  0  0
    1.1350    5.9207    4.2338 C   0  0  1  0  0  0  0  0  0  0  0  0
    2.5575    5.4611    4.6696 C   0  0  0  0  0  0  0  0  0  0  0  0
    3.7300    4.7500    3.4491 S   0  0  0  0  0  0  0  0  0  0  0  0
    1.1800    7.0249    3.1916 C   0  0  0  0  0  0  0  0  0  0  0  0
    0.6441    8.2054    3.5801 O   0  0  0  0  0  0  0  0  0  0  0  0
    1.6385    6.8947    2.0603 O   0  0  0  0  0  0  0  0  0  0  0  0
    0.4848   -0.4802   -0.5467 H   0  0  0  0  0  0  0  0  0  0  0  0
    1.9394    0.1886    0.1134 H   0  0  0  0  0  0  0  0  0  0  0  0
   -1.6614    1.5792    1.1969 H   0  0  0  0  0  0  0  0  0  0  0  0
   -1.5233    0.2387    0.1256 H   0  0  0  0  0  0  0  0  0  0  0  0
   -1.1732    1.2000    3.3345 H   0  0  0  0  0  0  0  0  0  0  0  0
   -2.1762    2.7015    4.9989 H   0  0  0  0  0  0  0  0  0  0  0  0
   -1.1812    4.9234    5.4201 H   0  0  0  0  0  0  0  0  0  0  0  0
    1.3620    4.3480    1.9772 H   0  0  0  0  0  0  0  0  0  0  0  0
    0.6826    6.3445    5.1449 H   0  0  0  0  0  0  0  0  0  0  0  0
    3.0900    6.3170    5.0949 H   0  0  0  0  0  0  0  0  0  0  0  0
    2.4691    4.7112    5.4666 H   0  0  0  0  0  0  0  0  0  0  0  0
    2.9811    3.7054    3.0475 H   0  0  0  0  0  0  0  0  0  0  0  0
    0.2505    8.2450    4.4704 H   0  0  0  0  0  0  0  0  0  0  0  0
  1  2  1  0  0  0  0
  1 17  1  0  0  0  0
  1 18  1  0  0  0  0
  2  3  1  0  0  0  0
  2  4  2  0  0  0  0
  3 19  1  0  0  0  0
  3 20  1  0  0  0  0
  4  5  1  0  0  0  0
  5  6  2  0  0  0  0
  5 10  1  0  0  0  0
  6  7  1  0  0  0  0
  6 21  1  0  0  0  0
  7  8  2  0  0  0  0
  7 22  1  0  0  0  0
  8  9  1  0  0  0  0
  8 23  1  0  0  0  0
  9 10  2  0  0  0  0
  9 11  1  0  0  0  0
 10 24  1  0  0  0  0
 11 12  1  0  0  0  0
 11 14  1  0  0  0  0
 11 25  1  1  0  0  0
 12 13  1  0  0  0  0
 12 26  1  0  0  0  0
 12 27  1  0  0  0  0
 13 28  1  0  0  0  0
 14 15  1  0  0  0  0
 14 16  2  0  0  0  0
 15 29  1  0  0  0  0
M  END
>  <DRUGBANK_ID>
DB04723

>  <COMMON_NAME>
2-(3-GUANIDINOPHENYL)-3-MERCAPTOPROPANOIC ACID

$$$$
