
 OpenBabel10282417123D

 74 78  0  0  0  0  0  0  0  0999 V2000
   -1.4188    0.7704    0.2257 C   0  0  1  0  0  0  0  0  0  0  0  0
   -0.1521    1.2962   -0.4161 N   0  0  0  0  0  0  0  0  0  0  0  0
   -1.6247   -0.7735   -0.0594 C   0  0  1  0  0  0  0  0  0  0  0  0
    0.9874    1.0547    0.3485 C   0  0  0  0  0  0  0  0  0  0  0  0
   -0.4037   -1.5968    0.3876 C   0  0  2  0  0  0  0  0  0  0  0  0
    0.8515   -1.2612   -0.4779 C   0  0  2  0  0  0  0  0  0  0  0  0
    1.5273   -0.2277    0.3379 N   0  0  0  0  0  0  0  0  0  0  0  0
   -0.2267    2.0745   -1.8069 C   0  0  0  0  0  0  0  0  0  0  0  0
    2.9807   -0.2746    0.6980 C   0  0  0  0  0  0  0  0  0  0  0  0
    0.3271    3.4978   -2.0848 C   0  0  0  0  0  0  0  0  0  0  0  0
    3.6455   -1.3660    1.3906 C   0  0  0  0  0  0  0  0  0  0  0  0
    1.6778    3.7960   -1.7751 C   0  0  0  0  0  0  0  0  0  0  0  0
    2.2070    5.1118   -1.7012 C   0  0  0  0  0  0  0  0  0  0  0  0
   -0.5086    4.6216   -2.3767 C   0  0  0  0  0  0  0  0  0  0  0  0
    1.3361    6.1997   -1.8719 C   0  0  0  0  0  0  0  0  0  0  0  0
   -0.0079    5.9643   -2.2530 C   0  0  0  0  0  0  0  0  0  0  0  0
    5.2760   -3.3111    2.3342 C   0  0  0  0  0  0  0  0  0  0  0  0
    4.2581   -3.6614    1.4584 C   0  0  0  0  0  0  0  0  0  0  0  0
    3.5006   -2.6656    0.9235 C   0  0  0  0  0  0  0  0  0  0  0  0
    5.5841   -1.9758    2.6135 C   0  0  0  0  0  0  0  0  0  0  0  0
    4.7452   -0.9896    2.1638 C   0  0  0  0  0  0  0  0  0  0  0  0
   -1.4671    1.0182    1.8075 C   0  0  0  0  0  0  0  0  0  0  0  0
    0.5597   -0.9591   -2.0422 C   0  0  0  0  0  0  0  0  0  0  0  0
   -1.6702    2.3225    2.4128 O   0  0  0  0  0  0  0  0  0  0  0  0
    1.5554   -0.6240   -3.1000 O   0  0  0  0  0  0  0  0  0  0  0  0
   -0.7588    3.2785    2.1200 C   0  0  0  0  0  0  0  0  0  0  0  0
    2.4237    0.4394   -3.0265 C   0  0  0  0  0  0  0  0  0  0  0  0
   -0.7006    3.6931    0.8515 C   0  0  0  0  0  0  0  0  0  0  0  0
   -0.0241    4.0572    3.0303 C   0  0  0  0  0  0  0  0  0  0  0  0
    0.3085    4.5704    0.5626 C   0  0  0  0  0  0  0  0  0  0  0  0
    0.9307    5.0383    2.6301 C   0  0  0  0  0  0  0  0  0  0  0  0
    1.2652    5.1360    1.3370 C   0  0  0  0  0  0  0  0  0  0  0  0
    3.9984    1.6147   -1.4254 C   0  0  0  0  0  0  0  0  0  0  0  0
    4.5333    2.3646   -2.4057 C   0  0  0  0  0  0  0  0  0  0  0  0
    3.0015    0.7267   -1.8468 C   0  0  0  0  0  0  0  0  0  0  0  0
    4.0066    2.1603   -3.6909 C   0  0  0  0  0  0  0  0  0  0  0  0
    2.9377    1.2349   -3.9976 C   0  0  0  0  0  0  0  0  0  0  0  0
   -2.8394   -1.2685    0.5123 O   0  0  0  0  0  0  0  0  0  0  0  0
   -0.6372   -3.0013    0.4528 O   0  0  0  0  0  0  0  0  0  0  0  0
    1.4820    1.8781    1.1595 O   0  0  0  0  0  0  0  0  0  0  0  0
   -2.2721    1.2850   -0.2308 H   0  0  0  0  0  0  0  0  0  0  0  0
   -1.7864   -0.9409   -1.1269 H   0  0  0  0  0  0  0  0  0  0  0  0
   -0.1959   -1.3533    1.4408 H   0  0  0  0  0  0  0  0  0  0  0  0
    1.4355   -2.1634   -0.5173 H   0  0  0  0  0  0  0  0  0  0  0  0
    0.3043    1.4955   -2.5513 H   0  0  0  0  0  0  0  0  0  0  0  0
   -1.2753    2.0218   -2.1260 H   0  0  0  0  0  0  0  0  0  0  0  0
    3.6299   -0.4549   -0.1713 H   0  0  0  0  0  0  0  0  0  0  0  0
    3.3035    0.7005    1.0738 H   0  0  0  0  0  0  0  0  0  0  0  0
    2.1830    3.0705   -1.1423 H   0  0  0  0  0  0  0  0  0  0  0  0
    3.1370    5.2491   -1.1339 H   0  0  0  0  0  0  0  0  0  0  0  0
   -1.5955    4.5002   -2.3429 H   0  0  0  0  0  0  0  0  0  0  0  0
    1.5878    7.1462   -1.3743 H   0  0  0  0  0  0  0  0  0  0  0  0
   -0.7168    6.7924   -2.1433 H   0  0  0  0  0  0  0  0  0  0  0  0
    5.8562   -4.0986    2.7856 H   0  0  0  0  0  0  0  0  0  0  0  0
    4.0493   -4.6763    1.1455 H   0  0  0  0  0  0  0  0  0  0  0  0
    2.8842   -2.9196    0.0784 H   0  0  0  0  0  0  0  0  0  0  0  0
    6.4665   -1.6985    3.1754 H   0  0  0  0  0  0  0  0  0  0  0  0
    4.9739    0.0681    2.3256 H   0  0  0  0  0  0  0  0  0  0  0  0
   -2.3313    0.4611    2.1816 H   0  0  0  0  0  0  0  0  0  0  0  0
   -0.6009    0.5578    2.2925 H   0  0  0  0  0  0  0  0  0  0  0  0
    0.0658   -1.8755   -2.3974 H   0  0  0  0  0  0  0  0  0  0  0  0
   -0.2468   -0.2522   -2.1682 H   0  0  0  0  0  0  0  0  0  0  0  0
   -1.3282    3.3101    0.0627 H   0  0  0  0  0  0  0  0  0  0  0  0
   -0.1925    3.9438    4.0824 H   0  0  0  0  0  0  0  0  0  0  0  0
    0.3058    4.9091   -0.4057 H   0  0  0  0  0  0  0  0  0  0  0  0
    1.3740    5.7937    3.2585 H   0  0  0  0  0  0  0  0  0  0  0  0
    2.0329    5.7707    0.9084 H   0  0  0  0  0  0  0  0  0  0  0  0
    4.3157    1.7286   -0.3890 H   0  0  0  0  0  0  0  0  0  0  0  0
    5.2993    3.0845   -2.1380 H   0  0  0  0  0  0  0  0  0  0  0  0
    2.5297    0.0492   -1.2443 H   0  0  0  0  0  0  0  0  0  0  0  0
    4.4547    2.7332   -4.4868 H   0  0  0  0  0  0  0  0  0  0  0  0
    2.5217    1.1747   -4.9886 H   0  0  0  0  0  0  0  0  0  0  0  0
   -2.7092   -1.4064    1.4663 H   0  0  0  0  0  0  0  0  0  0  0  0
   -0.8663   -3.3223   -0.4302 H   0  0  0  0  0  0  0  0  0  0  0  0
  1  2  1  0  0  0  0
  1  3  1  0  0  0  0
  1 22  1  0  0  0  0
  1 41  1  6  0  0  0
  2  4  1  0  0  0  0
  2  8  1  0  0  0  0
  3  5  1  0  0  0  0
  3 38  1  0  0  0  0
  3 42  1  6  0  0  0
  4  7  1  0  0  0  0
  4 40  2  0  0  0  0
  5  6  1  0  0  0  0
  5 39  1  0  0  0  0
  5 43  1  1  0  0  0
  6  7  1  0  0  0  0
  6 23  1  0  0  0  0
  6 44  1  1  0  0  0
  7  9  1  0  0  0  0
  8 10  1  0  0  0  0
  8 45  1  0  0  0  0
  8 46  1  0  0  0  0
  9 11  1  0  0  0  0
  9 47  1  0  0  0  0
  9 48  1  0  0  0  0
 10 12  1  0  0  0  0
 10 14  2  0  0  0  0
 11 19  1  0  0  0  0
 11 21  2  0  0  0  0
 12 13  2  0  0  0  0
 12 49  1  0  0  0  0
 13 15  1  0  0  0  0
 13 50  1  0  0  0  0
 14 16  1  0  0  0  0
 14 51  1  0  0  0  0
 15 16  2  0  0  0  0
 15 52  1  0  0  0  0
 16 53  1  0  0  0  0
 17 18  1  0  0  0  0
 17 20  2  0  0  0  0
 17 54  1  0  0  0  0
 18 19  2  0  0  0  0
 18 55  1  0  0  0  0
 19 56  1  0  0  0  0
 20 21  1  0  0  0  0
 20 57  1  0  0  0  0
 21 58  1  0  0  0  0
 22 24  1  0  0  0  0
 22 59  1  0  0  0  0
 22 60  1  0  0  0  0
 23 25  1  0  0  0  0
 23 61  1  0  0  0  0
 23 62  1  0  0  0  0
 24 26  1  0  0  0  0
 25 27  1  0  0  0  0
 26 28  1  0  0  0  0
 26 29  2  0  0  0  0
 27 35  1  0  0  0  0
 27 37  2  0  0  0  0
 28 30  2  0  0  0  0
 28 63  1  0  0  0  0
 29 31  1  0  0  0  0
 29 64  1  0  0  0  0
 30 32  1  0  0  0  0
 30 65  1  0  0  0  0
 31 32  2  0  0  0  0
 31 66  1  0  0  0  0
 32 67  1  0  0  0  0
 33 34  1  0  0  0  0
 33 35  2  0  0  0  0
 33 68  1  0  0  0  0
 34 36  2  0  0  0  0
 34 69  1  0  0  0  0
 35 70  1  0  0  0  0
 36 37  1  0  0  0  0
 36 71  1  0  0  0  0
 37 72  1  0  0  0  0
 38 73  1  0  0  0  0
 39 74  1  0  0  0  0
M  END
>  <DRUGBANK_ID>
DB01732

>  <SECONDARY_ACCESSION_NUMBERS>
EXPT00460

>  <COMMON_NAME>
(4R,5S,6S,7R)-1,3-dibenzyl-4,7-bis(phenoxymethyl)-5,6-dihydroxy-1,3 diazepan-2-one

$$$$
