
 OpenBabel10282417233D

238242  0  0  1  0  0  0  0  0999 V2000
    9.0482    7.6472    0.9491 H   0  0  0  0  0  0  0  0  0  0  0  0
    8.9098    8.4958    1.5268 C   0  0  2  0  0  0  0  0  0  0  0  0
    8.0917    7.4978    1.7178 O   0  0  0  0  0  0  0  0  0  0  0  0
    7.6882    5.9900    3.2242 C   0  0  1  0  0  0  0  0  0  0  0  0
    9.9454    5.9793    4.1867 C   0  0  1  0  0  0  0  0  0  0  0  0
   10.9825    6.7803    2.7349 O   0  0  0  0  0  0  0  0  0  0  0  0
   10.0272    7.3313    6.2935 C   0  0  1  0  0  0  0  0  0  0  0  0
    9.5640    9.7241    6.3963 C   0  0  0  0  0  0  0  0  0  0  0  0
    9.9923   10.6024    4.5516 O   0  0  0  0  0  0  0  0  0  0  0  0
    8.4048    7.5598    7.6180 O   0  0  0  0  0  0  0  0  0  0  0  0
    6.5409    7.9325    6.6051 C   0  0  1  0  0  0  0  0  0  0  0  0
    5.8939    7.8711    7.5703 H   0  0  0  0  0  0  0  0  0  0  0  0
    6.1137    9.9361    6.0910 O   0  0  0  0  0  0  0  0  0  0  0  0
    6.9071   10.0316    4.4657 C   0  0  1  0  0  0  0  0  0  0  0  0
    8.1488    9.0768    5.8230 C   0  0  1  0  0  0  0  0  0  0  0  0
    8.4845    9.7736    7.8279 C   0  0  0  0  0  0  0  0  0  0  0  0
   10.0937    9.1741    8.3593 O   0  0  0  0  0  0  0  0  0  0  0  0
    8.2876    7.8667    5.6816 O   0  0  0  0  0  0  0  0  0  0  0  0
    8.5504    6.1397    4.5834 C   0  0  1  0  0  0  0  0  0  0  0  0
    9.4371    6.2207    3.0651 H   0  0  0  0  0  0  0  0  0  0  0  0
    9.4554    4.1080    4.9554 O   0  0  0  0  0  0  0  0  0  0  0  0
    8.5641    3.8695    5.9512 C   0  0  2  0  0  0  0  0  0  0  0  0
    7.4017    3.8935    4.6493 C   0  0  1  0  0  0  0  0  0  0  0  0
    7.1374    2.9133    2.9807 C   0  0  0  0  0  0  0  0  0  0  0  0
    5.9402    3.9665    1.9541 O   0  0  0  0  0  0  0  0  0  0  0  0
    6.6737    4.0577    6.5843 O   0  0  0  0  0  0  0  0  0  0  0  0
    5.4659    4.8195    7.3026 C   0  0  1  0  0  0  0  0  0  0  0  0
    4.3548    4.3354    7.8615 O   0  0  0  0  0  0  0  0  0  0  0  0
    4.6356    3.0783    8.1833 C   0  0  0  0  0  0  0  0  0  0  0  0
    4.7995    2.1601    7.2086 C   0  0  2  0  0  0  0  0  0  0  0  0
    3.2144    1.9966    6.5381 N   0  0  0  0  0  0  0  0  0  0  0  0
    2.4936    2.4213    5.3033 C   0  0  0  0  0  0  0  0  0  0  0  0
    1.4435    1.8821    5.0485 O   0  0  0  0  0  0  0  0  0  0  0  0
    2.6239    3.4712    4.2159 C   0  0  0  0  0  0  0  0  0  0  0  0
    2.8269    4.9778    5.0194 C   0  0  0  0  0  0  0  0  0  0  0  0
    3.8047    4.3323    5.9480 C   0  0  0  0  0  0  0  0  0  0  0  0
    5.6943    3.4346    5.3551 C   0  0  0  0  0  0  0  0  0  0  0  0
    5.9348    4.8771    4.2940 C   0  0  0  0  0  0  0  0  0  0  0  0
    6.8284    7.0090    5.3654 C   0  0  0  0  0  0  0  0  0  0  0  0
    7.6095    6.2465    6.1513 C   0  0  0  0  0  0  0  0  0  0  0  0
    9.8053    5.4599    5.6682 C   0  0  0  0  0  0  0  0  0  0  0  0
   11.0000    7.0410    4.6819 C   0  0  0  0  0  0  0  0  0  0  0  0
   10.9340    8.1833    5.4906 C   0  0  0  0  0  0  0  0  0  0  0  0
   11.8586    7.8699    6.5273 C   0  0  0  0  0  0  0  0  0  0  0  0
   12.6813    7.3239    5.5908 C   0  0  0  0  0  0  0  0  0  0  0  0
   12.9029    8.5410    4.7716 C   0  0  0  0  0  0  0  0  0  0  0  0
   13.0352    9.8763    5.3496 C   0  0  0  0  0  0  0  0  0  0  0  0
   14.0395    9.5771    6.3385 C   0  0  0  0  0  0  0  0  0  0  0  0
   15.2447    9.0974    5.5889 C   0  0  0  0  0  0  0  0  0  0  0  0
   15.6762   10.1570    4.6098 C   0  0  0  0  0  0  0  0  0  0  0  0
    5.9454    1.2101    7.1905 C   0  0  2  0  0  0  0  0  0  0  0  0
    5.7126    0.8108    8.4643 O   0  0  0  0  0  0  0  0  0  0  0  0
    7.4115    1.5668    7.0727 C   0  0  0  0  0  0  0  0  0  0  0  0
    8.1737    1.1475    6.0221 C   0  0  0  0  0  0  0  0  0  0  0  0
    9.6097    1.6308    5.8105 C   0  0  0  0  0  0  0  0  0  0  0  0
   10.5018    0.5109    6.0760 C   0  0  0  0  0  0  0  0  0  0  0  0
   10.2039   -0.5704    5.0709 C   0  0  0  0  0  0  0  0  0  0  0  0
   10.4420   -0.0571    3.6614 C   0  0  0  0  0  0  0  0  0  0  0  0
   11.8868    0.3822    3.5173 C   0  0  0  0  0  0  0  0  0  0  0  0
   12.8041   -0.7951    3.7894 C   0  0  0  0  0  0  0  0  0  0  0  0
   12.5148   -1.9047    2.7961 C   0  0  0  0  0  0  0  0  0  0  0  0
   12.7534   -1.3989    1.3859 C   0  0  0  0  0  0  0  0  0  0  0  0
   14.1987   -0.9611    1.2409 C   0  0  0  0  0  0  0  0  0  0  0  0
   15.1179   -2.1385    1.5119 C   0  0  0  0  0  0  0  0  0  0  0  0
   14.8400   -3.2511    0.5163 C   0  0  0  0  0  0  0  0  0  0  0  0
   15.0742   -2.7540   -0.8968 C   0  0  0  0  0  0  0  0  0  0  0  0
   16.5073   -2.3055   -1.0504 C   0  0  0  0  0  0  0  0  0  0  0  0
    7.2280    5.0438    8.0460 C   0  0  2  0  0  0  0  0  0  0  0  0
    7.2666    6.4242    9.1878 O   0  0  0  0  0  0  0  0  0  0  0  0
    8.5626    4.5843    7.6487 C   0  0  1  0  0  0  0  0  0  0  0  0
    9.7784    4.6752    8.2458 O   0  0  0  0  0  0  0  0  0  0  0  0
    7.1208    7.5493    3.5861 C   0  0  2  0  0  0  0  0  0  0  0  0
    6.9100    6.3598    1.7503 O   0  0  0  0  0  0  0  0  0  0  0  0
    6.7673    8.9712    3.3544 C   0  0  1  0  0  0  0  0  0  0  0  0
    5.6980    8.8106    2.5999 O   0  0  0  0  0  0  0  0  0  0  0  0
    4.8974    8.0533    3.3977 C   0  0  2  0  0  0  0  0  0  0  0  0
    4.5088    8.7117    4.8697 C   0  0  0  0  0  0  0  0  0  0  0  0
    4.9708    8.3917    6.3107 C   0  0  2  0  0  0  0  0  0  0  0  0
    6.6152    8.7466    5.2916 O   0  0  0  0  0  0  0  0  0  0  0  0
    5.9593    6.4206    6.6302 C   0  0  1  0  0  0  0  0  0  0  0  0
    5.3525    6.3972    8.2228 N   0  0  0  0  0  0  0  0  0  0  0  0
    5.9109    5.0688    9.3765 C   0  0  0  0  0  0  0  0  0  0  0  0
    4.6215    4.8466    9.7761 C   0  0  0  0  0  0  0  0  0  0  0  0
    7.0176    4.2940    9.6830 O   0  0  0  0  0  0  0  0  0  0  0  0
    7.0809    5.8489    4.5295 C   0  0  1  0  0  0  0  0  0  0  0  0
    7.3187    5.2006    5.1702 H   0  0  0  0  0  0  0  0  0  0  0  0
    5.5357    6.3959    3.1015 O   0  0  0  0  0  0  0  0  0  0  0  0
    8.5113    7.1704    3.1998 C   0  0  2  0  0  0  0  0  0  0  0  0
    8.9751    5.3230    2.2428 O   0  0  0  0  0  0  0  0  0  0  0  0
    9.1004    7.6773    4.4665 C   0  0  2  0  0  0  0  0  0  0  0  0
    8.9572    6.4776    6.2686 O   0  0  0  0  0  0  0  0  0  0  0  0
    9.3929    9.1017    4.1465 C   0  0  0  0  0  0  0  0  0  0  0  0
   10.8349    9.8021    5.5226 O   0  0  0  0  0  0  0  0  0  0  0  0
    3.6254    7.9977    2.8810 C   0  0  0  0  0  0  0  0  0  0  0  0
    3.7039    8.6030    1.6945 O   0  0  0  0  0  0  0  0  0  0  0  0
    2.6937    7.6368    3.5675 O   0  0  0  0  0  0  0  0  0  0  0  0
    5.6484    6.3993    4.7404 C   0  0  2  0  0  0  0  0  0  0  0  0
    5.2363    5.1389    5.5836 N   0  0  0  0  0  0  0  0  0  0  0  0
    4.4608    3.8623    4.3457 C   0  0  0  0  0  0  0  0  0  0  0  0
    4.9474    1.8662    4.7958 C   0  0  0  0  0  0  0  0  0  0  0  0
    4.0301    4.6247    3.4863 O   0  0  0  0  0  0  0  0  0  0  0  0
    9.9772    8.6215    2.3007 O   0  0  0  0  0  0  0  0  0  0  0  0
   11.2378    8.6137    1.6253 C   0  0  2  0  0  0  0  0  0  0  0  0
   12.5383    8.2301    2.4252 C   0  0  0  0  0  0  0  0  0  0  0  0
   12.9074    6.8595    3.0185 O   0  0  0  0  0  0  0  0  0  0  0  0
   10.9381   10.0229    1.5600 C   0  0  2  0  0  0  0  0  0  0  0  0
   11.0333   10.8049    2.7095 O   0  0  0  0  0  0  0  0  0  0  0  0
    9.6038   10.1940    0.8304 C   0  0  2  0  0  0  0  0  0  0  0  0
    9.3796   11.4843    0.4981 O   0  0  0  0  0  0  0  0  0  0  0  0
    8.3916    9.8577    1.5491 C   0  0  1  0  0  0  0  0  0  0  0  0
    7.1542    9.8101    0.9435 O   0  0  0  0  0  0  0  0  0  0  0  0
    7.4778    5.0705    2.4073 H   0  0  0  0  0  0  0  0  0  0  0  0
   10.2524    4.9517    3.8723 H   0  0  0  0  0  0  0  0  0  0  0  0
   10.7658    8.0407    2.9705 H   0  0  0  0  0  0  0  0  0  0  0  0
   10.4421    6.5485    6.9986 H   0  0  0  0  0  0  0  0  0  0  0  0
    7.9348   10.1962    6.5082 H   0  0  0  0  0  0  0  0  0  0  0  0
   10.1808   10.3649    7.0355 H   0  0  0  0  0  0  0  0  0  0  0  0
   10.6825    9.5790    3.8731 H   0  0  0  0  0  0  0  0  0  0  0  0
    7.1751   10.9338    4.4405 H   0  0  0  0  0  0  0  0  0  0  0  0
    8.9857    8.9623    5.4384 H   0  0  0  0  0  0  0  0  0  0  0  0
    8.6602   10.9913    7.1524 H   0  0  0  0  0  0  0  0  0  0  0  0
    7.8838    9.0023    7.9830 H   0  0  0  0  0  0  0  0  0  0  0  0
   10.2193    8.2045    8.1815 H   0  0  0  0  0  0  0  0  0  0  0  0
    8.3882    2.9717    6.0716 H   0  0  0  0  0  0  0  0  0  0  0  0
    6.8422    5.0911    3.4370 H   0  0  0  0  0  0  0  0  0  0  0  0
    8.0934    3.3309    2.9154 H   0  0  0  0  0  0  0  0  0  0  0  0
    6.4400    2.3107    3.3676 H   0  0  0  0  0  0  0  0  0  0  0  0
    5.0095    4.3820    2.3515 H   0  0  0  0  0  0  0  0  0  0  0  0
    4.6229    6.0605    6.5573 H   0  0  0  0  0  0  0  0  0  0  0  0
    5.5961    3.0120    8.6217 H   0  0  0  0  0  0  0  0  0  0  0  0
    3.7304    2.8530    8.6131 H   0  0  0  0  0  0  0  0  0  0  0  0
    5.2210    2.9024    6.7332 H   0  0  0  0  0  0  0  0  0  0  0  0
    3.1141    1.1546    6.9707 H   0  0  0  0  0  0  0  0  0  0  0  0
    3.5889    2.9957    3.3318 H   0  0  0  0  0  0  0  0  0  0  0  0
    2.1790    3.8245    3.3387 H   0  0  0  0  0  0  0  0  0  0  0  0
    3.3149    5.9249    4.4499 H   0  0  0  0  0  0  0  0  0  0  0  0
    2.1768    5.3827    5.7247 H   0  0  0  0  0  0  0  0  0  0  0  0
    3.6611    5.2744    6.4644 H   0  0  0  0  0  0  0  0  0  0  0  0
    3.6289    3.6390    6.5265 H   0  0  0  0  0  0  0  0  0  0  0  0
    6.7875    2.8407    5.8830 H   0  0  0  0  0  0  0  0  0  0  0  0
    5.9007    3.0643    4.4197 H   0  0  0  0  0  0  0  0  0  0  0  0
    6.4722    4.1102    3.4353 H   0  0  0  0  0  0  0  0  0  0  0  0
    5.4642    4.9934    3.4209 H   0  0  0  0  0  0  0  0  0  0  0  0
    5.9836    7.7524    4.7606 H   0  0  0  0  0  0  0  0  0  0  0  0
    5.6298    7.3965    5.5923 H   0  0  0  0  0  0  0  0  0  0  0  0
    7.6647    7.1157    6.6304 H   0  0  0  0  0  0  0  0  0  0  0  0
    7.3430    5.4737    6.5358 H   0  0  0  0  0  0  0  0  0  0  0  0
   10.3888    5.0588    6.4542 H   0  0  0  0  0  0  0  0  0  0  0  0
    8.6367    4.8533    4.5027 H   0  0  0  0  0  0  0  0  0  0  0  0
   11.5455    5.9242    4.1847 H   0  0  0  0  0  0  0  0  0  0  0  0
   10.0884    7.3907    3.5703 H   0  0  0  0  0  0  0  0  0  0  0  0
   11.0860    8.6624    4.7333 H   0  0  0  0  0  0  0  0  0  0  0  0
    9.6187    8.4276    6.6708 H   0  0  0  0  0  0  0  0  0  0  0  0
   11.9264    8.7949    6.9540 H   0  0  0  0  0  0  0  0  0  0  0  0
   11.5318    7.3106    7.3755 H   0  0  0  0  0  0  0  0  0  0  0  0
   13.2163    7.0966    6.3612 H   0  0  0  0  0  0  0  0  0  0  0  0
   12.2603    6.3555    5.3393 H   0  0  0  0  0  0  0  0  0  0  0  0
   13.6435    8.1999    4.1636 H   0  0  0  0  0  0  0  0  0  0  0  0
   12.1467    8.8112    4.0658 H   0  0  0  0  0  0  0  0  0  0  0  0
   13.1741   10.6069    4.5845 H   0  0  0  0  0  0  0  0  0  0  0  0
   12.2494   10.3333    5.8832 H   0  0  0  0  0  0  0  0  0  0  0  0
   14.1834   10.4747    6.8855 H   0  0  0  0  0  0  0  0  0  0  0  0
   13.6914    8.8096    7.0330 H   0  0  0  0  0  0  0  0  0  0  0  0
   16.0097    8.8781    6.3058 H   0  0  0  0  0  0  0  0  0  0  0  0
   15.0608    8.1623    5.0477 H   0  0  0  0  0  0  0  0  0  0  0  0
   15.8774   11.0798    5.1522 H   0  0  0  0  0  0  0  0  0  0  0  0
   16.5637    9.8341    4.0817 H   0  0  0  0  0  0  0  0  0  0  0  0
   14.9050   10.3598    3.8615 H   0  0  0  0  0  0  0  0  0  0  0  0
    5.6794    0.5243    6.3942 H   0  0  0  0  0  0  0  0  0  0  0  0
    5.4091   -0.0749    8.3154 H   0  0  0  0  0  0  0  0  0  0  0  0
    7.7393    2.4847    7.6026 H   0  0  0  0  0  0  0  0  0  0  0  0
    7.7447    0.4836    5.2948 H   0  0  0  0  0  0  0  0  0  0  0  0
    9.7479    2.0600    4.8035 H   0  0  0  0  0  0  0  0  0  0  0  0
    9.8817    2.4243    6.5340 H   0  0  0  0  0  0  0  0  0  0  0  0
   11.5282    0.8584    6.0045 H   0  0  0  0  0  0  0  0  0  0  0  0
   10.3341    0.1687    7.0904 H   0  0  0  0  0  0  0  0  0  0  0  0
   10.8314   -1.4266    5.2856 H   0  0  0  0  0  0  0  0  0  0  0  0
    9.1760   -0.9126    5.1672 H   0  0  0  0  0  0  0  0  0  0  0  0
   10.1989   -0.8360    2.9436 H   0  0  0  0  0  0  0  0  0  0  0  0
    9.7794    0.7732    3.4282 H   0  0  0  0  0  0  0  0  0  0  0  0
   12.0532    0.7814    2.5199 H   0  0  0  0  0  0  0  0  0  0  0  0
   12.1161    1.1947    4.2022 H   0  0  0  0  0  0  0  0  0  0  0  0
   13.8416   -0.4771    3.7248 H   0  0  0  0  0  0  0  0  0  0  0  0
   12.6718   -1.1641    4.8034 H   0  0  0  0  0  0  0  0  0  0  0  0
   13.1430   -2.7654    3.0111 H   0  0  0  0  0  0  0  0  0  0  0  0
   11.4905   -2.2559    2.8937 H   0  0  0  0  0  0  0  0  0  0  0  0
   12.5106   -2.1785    0.6683 H   0  0  0  0  0  0  0  0  0  0  0  0
   12.0910   -0.5683    1.1543 H   0  0  0  0  0  0  0  0  0  0  0  0
   14.3647   -0.5614    0.2437 H   0  0  0  0  0  0  0  0  0  0  0  0
   14.4279   -0.1480    1.9260 H   0  0  0  0  0  0  0  0  0  0  0  0
   16.1545   -1.8196    1.4482 H   0  0  0  0  0  0  0  0  0  0  0  0
   14.9834   -2.5067    2.5268 H   0  0  0  0  0  0  0  0  0  0  0  0
   15.4845   -4.1028    0.7238 H   0  0  0  0  0  0  0  0  0  0  0  0
   13.8102   -3.5991    0.6173 H   0  0  0  0  0  0  0  0  0  0  0  0
   14.8507   -3.5432   -1.6098 H   0  0  0  0  0  0  0  0  0  0  0  0
   14.4057   -1.9199   -1.1221 H   0  0  0  0  0  0  0  0  0  0  0  0
   17.1780   -3.1406   -0.8434 H   0  0  0  0  0  0  0  0  0  0  0  0
   16.6854   -1.9356   -2.0551 H   0  0  0  0  0  0  0  0  0  0  0  0
   16.7411   -1.4964   -0.3563 H   0  0  0  0  0  0  0  0  0  0  0  0
    6.8434    3.9627    8.1394 H   0  0  0  0  0  0  0  0  0  0  0  0
    6.7593    7.1440    8.7233 H   0  0  0  0  0  0  0  0  0  0  0  0
    8.6102    5.6544    7.7791 H   0  0  0  0  0  0  0  0  0  0  0  0
   10.0473    5.6157    8.1246 H   0  0  0  0  0  0  0  0  0  0  0  0
    6.4504    7.1539    3.7141 H   0  0  0  0  0  0  0  0  0  0  0  0
    7.9743    6.4027    1.4619 H   0  0  0  0  0  0  0  0  0  0  0  0
    7.6536    8.9842    2.9398 H   0  0  0  0  0  0  0  0  0  0  0  0
    3.9306    8.1219    5.5252 H   0  0  0  0  0  0  0  0  0  0  0  0
    4.7357    9.7276    4.7885 H   0  0  0  0  0  0  0  0  0  0  0  0
    5.7380    9.2062    7.3078 H   0  0  0  0  0  0  0  0  0  0  0  0
    7.3784    8.3309    4.8529 H   0  0  0  0  0  0  0  0  0  0  0  0
    6.7830    6.5380    7.4722 H   0  0  0  0  0  0  0  0  0  0  0  0
    4.4398    6.7148    7.7112 H   0  0  0  0  0  0  0  0  0  0  0  0
    4.6665    3.8139    9.7332 H   0  0  0  0  0  0  0  0  0  0  0  0
    5.2724    5.0889   10.4973 H   0  0  0  0  0  0  0  0  0  0  0  0
    3.8789    5.4082    9.1569 H   0  0  0  0  0  0  0  0  0  0  0  0
    6.9374    7.5169    2.3460 H   0  0  0  0  0  0  0  0  0  0  0  0
    9.4313    5.8379    1.6328 H   0  0  0  0  0  0  0  0  0  0  0  0
    9.5841    7.0485    5.0387 H   0  0  0  0  0  0  0  0  0  0  0  0
    8.6500    5.4519    6.3002 H   0  0  0  0  0  0  0  0  0  0  0  0
    8.6690    9.7410    3.6989 H   0  0  0  0  0  0  0  0  0  0  0  0
    8.5626   10.1738    4.6882 H   0  0  0  0  0  0  0  0  0  0  0  0
   10.7393    9.0852    6.6822 H   0  0  0  0  0  0  0  0  0  0  0  0
    4.6474    8.8459    1.4101 H   0  0  0  0  0  0  0  0  0  0  0  0
    4.7399    6.7694    4.5352 H   0  0  0  0  0  0  0  0  0  0  0  0
    6.4085    4.6467    5.8189 H   0  0  0  0  0  0  0  0  0  0  0  0
    4.4465    2.1604    5.5404 H   0  0  0  0  0  0  0  0  0  0  0  0
    4.6337    1.7174    3.9097 H   0  0  0  0  0  0  0  0  0  0  0  0
    6.0933    1.7054    5.2158 H   0  0  0  0  0  0  0  0  0  0  0  0
   10.9922    7.7178    1.1184 H   0  0  0  0  0  0  0  0  0  0  0  0
   13.4023    8.3432    1.9569 H   0  0  0  0  0  0  0  0  0  0  0  0
   12.8363    9.1690    2.9371 H   0  0  0  0  0  0  0  0  0  0  0  0
   12.1610    6.9360    3.5797 H   0  0  0  0  0  0  0  0  0  0  0  0
   11.7647   10.1972    0.9814 H   0  0  0  0  0  0  0  0  0  0  0  0
   10.2749   10.7145    3.3258 H   0  0  0  0  0  0  0  0  0  0  0  0
    9.5834    9.4501    0.0251 H   0  0  0  0  0  0  0  0  0  0  0  0
    9.3584   11.9820    1.3370 H   0  0  0  0  0  0  0  0  0  0  0  0
    8.2904   10.4869    2.4700 H   0  0  0  0  0  0  0  0  0  0  0  0
    7.2468    9.0702    0.3194 H   0  0  0  0  0  0  0  0  0  0  0  0
  2  1  1  6  0  0  0
  2  3  1  0  0  0  0
  2102  1  0  0  0  0
  4  5  1  0  0  0  0
  4 97  1  0  0  0  0
  4112  1  6  0  0  0
  4  3  1  0  0  0  0
  5  6  1  0  0  0  0
  5  7  1  0  0  0  0
  5113  1  1  0  0  0
  6114  1  0  0  0  0
  7 10  1  0  0  0  0
  7115  1  1  0  0  0
  7  8  1  0  0  0  0
  8  9  1  0  0  0  0
  8116  1  0  0  0  0
  8117  1  0  0  0  0
  9118  1  0  0  0  0
 11 10  1  0  0  0  0
 11 13  1  0  0  0  0
 11 12  1  1  0  0  0
 14 13  1  0  0  0  0
 14 15  1  0  0  0  0
 14 74  1  0  0  0  0
 14119  1  6  0  0  0
 15 16  1  0  0  0  0
 15 18  1  0  0  0  0
 15120  1  6  0  0  0
 16 17  1  0  0  0  0
 16121  1  0  0  0  0
 16122  1  0  0  0  0
 17123  1  0  0  0  0
 19 18  1  0  0  0  0
 19 21  1  0  0  0  0
 19 20  1  6  0  0  0
 22 23  1  0  0  0  0
 22 70  1  0  0  0  0
 22124  1  1  0  0  0
 22 21  1  0  0  0  0
 23 26  1  0  0  0  0
 23125  1  6  0  0  0
 23 24  1  0  0  0  0
 24 25  1  0  0  0  0
 24126  1  0  0  0  0
 24127  1  0  0  0  0
 25128  1  0  0  0  0
 27 26  1  0  0  0  0
 27 28  1  0  0  0  0
 27129  1  6  0  0  0
 28 29  1  0  0  0  0
 29130  1  0  0  0  0
 29131  1  0  0  0  0
 30132  1  6  0  0  0
 30 31  1  0  0  0  0
 30 29  1  0  0  0  0
 31 32  1  0  0  0  0
 31133  1  0  0  0  0
 32 33  2  0  0  0  0
 32 34  1  0  0  0  0
 34 35  1  0  0  0  0
 34134  1  0  0  0  0
 34135  1  0  0  0  0
 35 36  1  0  0  0  0
 35136  1  0  0  0  0
 35137  1  0  0  0  0
 36 37  1  0  0  0  0
 36138  1  0  0  0  0
 36139  1  0  0  0  0
 37 38  1  0  0  0  0
 37140  1  0  0  0  0
 37141  1  0  0  0  0
 38 39  1  0  0  0  0
 38142  1  0  0  0  0
 38143  1  0  0  0  0
 39 40  1  0  0  0  0
 39144  1  0  0  0  0
 39145  1  0  0  0  0
 40 41  1  0  0  0  0
 40146  1  0  0  0  0
 40147  1  0  0  0  0
 41 42  1  0  0  0  0
 41148  1  0  0  0  0
 41149  1  0  0  0  0
 42 43  1  0  0  0  0
 42150  1  0  0  0  0
 42151  1  0  0  0  0
 43 44  1  0  0  0  0
 43152  1  0  0  0  0
 43153  1  0  0  0  0
 44 45  1  0  0  0  0
 44154  1  0  0  0  0
 44155  1  0  0  0  0
 45 46  1  0  0  0  0
 45156  1  0  0  0  0
 45157  1  0  0  0  0
 46 47  1  0  0  0  0
 46158  1  0  0  0  0
 46159  1  0  0  0  0
 47 48  1  0  0  0  0
 47160  1  0  0  0  0
 47161  1  0  0  0  0
 48 49  1  0  0  0  0
 48162  1  0  0  0  0
 48163  1  0  0  0  0
 49 50  1  0  0  0  0
 49164  1  0  0  0  0
 49165  1  0  0  0  0
 50166  1  0  0  0  0
 50167  1  0  0  0  0
 50168  1  0  0  0  0
 51 53  1  0  0  0  0
 51169  1  6  0  0  0
 51 52  1  0  0  0  0
 51 30  1  0  0  0  0
 52170  1  0  0  0  0
 53 54  2  0  0  0  0
 53171  1  0  0  0  0
 54 55  1  0  0  0  0
 54172  1  0  0  0  0
 55 56  1  0  0  0  0
 55173  1  0  0  0  0
 55174  1  0  0  0  0
 56 57  1  0  0  0  0
 56175  1  0  0  0  0
 56176  1  0  0  0  0
 57 58  1  0  0  0  0
 57177  1  0  0  0  0
 57178  1  0  0  0  0
 58 59  1  0  0  0  0
 58179  1  0  0  0  0
 58180  1  0  0  0  0
 59 60  1  0  0  0  0
 59181  1  0  0  0  0
 59182  1  0  0  0  0
 60 61  1  0  0  0  0
 60183  1  0  0  0  0
 60184  1  0  0  0  0
 61 62  1  0  0  0  0
 61185  1  0  0  0  0
 61186  1  0  0  0  0
 62 63  1  0  0  0  0
 62187  1  0  0  0  0
 62188  1  0  0  0  0
 63 64  1  0  0  0  0
 63189  1  0  0  0  0
 63190  1  0  0  0  0
 64 65  1  0  0  0  0
 64191  1  0  0  0  0
 64192  1  0  0  0  0
 65 66  1  0  0  0  0
 65193  1  0  0  0  0
 65194  1  0  0  0  0
 66 67  1  0  0  0  0
 66195  1  0  0  0  0
 66196  1  0  0  0  0
 67197  1  0  0  0  0
 67198  1  0  0  0  0
 67199  1  0  0  0  0
 68 27  1  0  0  0  0
 68 69  1  0  0  0  0
 68200  1  1  0  0  0
 69201  1  0  0  0  0
 70 68  1  0  0  0  0
 70202  1  6  0  0  0
 70 71  1  0  0  0  0
 71203  1  0  0  0  0
 72 19  1  0  0  0  0
 72 73  1  0  0  0  0
 72204  1  1  0  0  0
 73205  1  0  0  0  0
 74 72  1  0  0  0  0
 74 75  1  0  0  0  0
 74206  1  6  0  0  0
 76 75  1  6  0  0  0
 76 77  1  0  0  0  0
 76 87  1  0  0  0  0
 76 94  1  0  0  0  0
 77207  1  0  0  0  0
 77208  1  0  0  0  0
 78 77  1  0  0  0  0
 78 79  1  0  0  0  0
 78209  1  1  0  0  0
 79210  1  0  0  0  0
 80 78  1  0  0  0  0
 80 85  1  0  0  0  0
 80211  1  1  0  0  0
 80 81  1  0  0  0  0
 81 82  1  0  0  0  0
 81212  1  0  0  0  0
 82 83  1  0  0  0  0
 82 84  2  0  0  0  0
 83213  1  0  0  0  0
 83214  1  0  0  0  0
 83215  1  0  0  0  0
 85 86  1  6  0  0  0
 85 87  1  0  0  0  0
 88216  1  6  0  0  0
 88 89  1  0  0  0  0
 88 85  1  0  0  0  0
 89217  1  0  0  0  0
 90 92  1  0  0  0  0
 90218  1  6  0  0  0
 90 91  1  0  0  0  0
 90 88  1  0  0  0  0
 91219  1  0  0  0  0
 92 93  1  0  0  0  0
 92220  1  0  0  0  0
 92221  1  0  0  0  0
 93222  1  0  0  0  0
 94 95  1  0  0  0  0
 94 96  2  0  0  0  0
 95223  1  0  0  0  0
 97 11  1  0  0  0  0
 97224  1  6  0  0  0
 97 98  1  0  0  0  0
 98 99  1  0  0  0  0
 98225  1  0  0  0  0
 99100  1  0  0  0  0
 99101  2  0  0  0  0
100226  1  0  0  0  0
100227  1  0  0  0  0
100228  1  0  0  0  0
103102  1  0  0  0  0
103104  1  0  0  0  0
103229  1  6  0  0  0
104105  1  0  0  0  0
104230  1  0  0  0  0
104231  1  0  0  0  0
105232  1  0  0  0  0
106103  1  0  0  0  0
106107  1  0  0  0  0
106108  1  0  0  0  0
106233  1  6  0  0  0
107234  1  0  0  0  0
108109  1  0  0  0  0
108110  1  0  0  0  0
108235  1  6  0  0  0
109236  1  0  0  0  0
110  2  1  0  0  0  0
110111  1  0  0  0  0
110237  1  1  0  0  0
111238  1  0  0  0  0
M  END
>  <DRUGBANK_ID>
DB16948

>  <COMMON_NAME>
Ganglioside GM1

>  <CAS_NUMBER>
116950-37-9

>  <UNII>
562413257Z

>  <SYNONYMS>
Ganglioside gm1 (d18:1/18:0); Monosialotetrahexosyl ganglioside (GM1); Monosialotetrahexosylganglioside; Monosialotetrahexosylganglioside (d18:1/18:0); Porcine GM1 ganglioside

$$$$
