
 OpenBabel10282417133D

  8  8  0  0  0  0  0  0  0  0999 V2000
    0.7243   -0.8964    0.0040 C   0  0  0  0  0  0  0  0  0  0  0  0
    0.0157    1.0746    0.0022 C   0  0  0  0  0  0  0  0  0  0  0  0
    1.1666    0.3391    0.0052 N   0  0  0  0  0  0  0  0  0  0  0  0
   -0.6346   -0.8923   -0.0015 N   0  0  0  0  0  0  0  0  0  0  0  0
   -1.1140    0.3621   -0.0020 N   0  0  0  0  0  0  0  0  0  0  0  0
    1.3179   -1.7991    0.0071 H   0  0  0  0  0  0  0  0  0  0  0  0
    0.0017    2.1572    0.0034 H   0  0  0  0  0  0  0  0  0  0  0  0
   -1.2800   -1.6739   -0.0046 H   0  0  0  0  0  0  0  0  0  0  0  0
  1  6  1  0  0  0  0
  2  7  1  0  0  0  0
  3  1  2  0  0  0  0
  3  2  1  0  0  0  0
  4  1  1  0  0  0  0
  4  8  1  0  0  0  0
  5  2  2  0  0  0  0
  5  4  1  0  0  0  0
M  END
>  <DRUGBANK_ID>
DB03594

>  <SECONDARY_ACCESSION_NUMBERS>
EXPT03109

>  <COMMON_NAME>
1,2,4-Triazole

>  <CAS_NUMBER>
63598-71-0

>  <UNII>
10MS0Y1RDI

$$$$
