
 OpenBabel10282417143D

132137  0  0  0  0  0  0  0  0999 V2000
   10.8623  -13.1448   37.8289 O   0  0  0  0  0  0  0  0  0  0  0  0
    7.4870   -5.3822   39.4116 O   0  0  0  0  0  0  0  0  0  0  0  0
    8.6990   -2.5119   39.0691 O   0  0  0  0  0  0  0  0  0  0  0  0
   11.8970  -12.5884   36.4893 O   0  0  0  0  0  0  0  0  0  0  0  0
   12.1925  -12.5843   33.6105 O   0  0  0  0  0  0  0  0  0  0  0  0
   10.3729   -7.8455   35.3251 O   0  0  0  0  0  0  0  0  0  0  0  0
   11.2022  -11.0553   38.8419 O   0  0  0  0  0  0  0  0  0  0  0  0
    9.0776   -6.7998   36.6004 O   0  0  0  0  0  0  0  0  0  0  0  0
   13.8642  -11.6941   34.8563 O   0  0  0  0  0  0  0  0  0  0  0  0
    6.8513   -8.0699   34.5162 O   0  0  0  0  0  0  0  0  0  0  0  0
    3.9980   -6.8988   29.6298 O   0  0  0  0  0  0  0  0  0  0  0  0
    6.9617   -2.8287   37.0876 O   0  0  0  0  0  0  0  0  0  0  0  0
    4.7918   -6.8201   34.2240 O   0  0  0  0  0  0  0  0  0  0  0  0
    5.6833   -2.4031   34.9592 O   0  0  0  0  0  0  0  0  0  0  0  0
    1.8285   -1.5127   33.6895 O   0  0  0  0  0  0  0  0  0  0  0  0
    8.0350  -13.6828   36.9154 N   0  0  0  0  0  0  0  0  0  0  0  0
    4.2488   -5.1914   31.8980 N   0  0  0  0  0  0  0  0  0  0  0  0
    3.5860   -2.7793   33.1438 N   0  0  0  0  0  0  0  0  0  0  0  0
    8.7771   -9.9379   37.7486 C   0  0  2  0  0  0  0  0  0  0  0  0
    8.3153   -7.2561   38.7654 C   0  0  1  0  0  0  0  0  0  0  0  0
    9.6905  -11.9685   37.1672 C   0  0  1  0  0  0  0  0  0  0  0  0
    8.1384   -5.0119   39.7302 C   0  0  1  0  0  0  0  0  0  0  0  0
   10.4454  -12.4885   36.0041 C   0  0  1  0  0  0  0  0  0  0  0  0
    7.4555   -2.8233   39.1958 C   0  0  2  0  0  0  0  0  0  0  0  0
    8.8742  -12.1868   36.7916 C   0  0  0  0  0  0  0  0  0  0  0  0
   10.4096  -11.2076   36.7739 C   0  0  2  0  0  0  0  0  0  0  0  0
    5.9445   -2.4141   39.3606 C   0  0  1  0  0  0  0  0  0  0  0  0
    9.1187   -3.3087   40.6998 C   0  0  0  0  0  0  0  0  0  0  0  0
    9.2188  -12.5170   33.9122 C   0  0  0  0  0  0  0  0  0  0  0  0
   10.2450  -13.5504   34.5288 C   0  0  3  0  0  0  0  0  0  0  0  0
    4.6482   -1.7342   39.6379 C   0  0  0  0  0  0  0  0  0  0  0  0
   10.1976   -9.7785   36.3197 C   0  0  0  0  0  0  0  0  0  0  0  0
   10.6844  -14.9287   34.5641 C   0  0  0  0  0  0  0  0  0  0  0  0
    5.2369   -2.7594   38.0927 C   0  0  0  0  0  0  0  0  0  0  0  0
    8.4827  -12.3493   35.2810 C   0  0  0  0  0  0  0  0  0  0  0  0
    9.6224  -15.7233   35.8809 C   0  0  0  0  0  0  0  0  0  0  0  0
    9.4322  -14.8726   37.1053 C   0  0  0  0  0  0  0  0  0  0  0  0
   11.6274  -11.7271   37.8539 C   0  0  0  0  0  0  0  0  0  0  0  0
   10.9842  -12.6005   33.1906 C   0  0  0  0  0  0  0  0  0  0  0  0
   11.5574  -11.2040   35.6095 C   0  0  0  0  0  0  0  0  0  0  0  0
   10.9170   -8.8622   35.8437 C   0  0  0  0  0  0  0  0  0  0  0  0
    4.7133   -1.7920   37.2702 C   0  0  0  0  0  0  0  0  0  0  0  0
   13.0736  -11.8034   36.4232 C   0  0  0  0  0  0  0  0  0  0  0  0
    8.6697  -12.8087   38.4775 C   0  0  0  0  0  0  0  0  0  0  0  0
    9.0472   -7.7112   35.5355 C   0  0  1  0  0  0  0  0  0  0  0  0
   12.4322  -12.1092   34.6853 C   0  0  0  0  0  0  0  0  0  0  0  0
    7.3872   -6.1773   35.2890 C   0  0  0  0  0  0  0  0  0  0  0  0
    7.8291   -7.3610   34.8018 C   0  0  0  0  0  0  0  0  0  0  0  0
    8.1288   -5.9057   36.3430 C   0  0  0  0  0  0  0  0  0  0  0  0
    6.3428   -5.4762   34.9164 C   0  0  0  0  0  0  0  0  0  0  0  0
    3.9659   -1.9384   36.1222 C   0  0  0  0  0  0  0  0  0  0  0  0
    6.0674   -4.4074   35.6173 C   0  0  0  0  0  0  0  0  0  0  0  0
    8.3432   -8.9918   35.2930 C   0  0  0  0  0  0  0  0  0  0  0  0
    7.8690   -4.8145   36.9876 C   0  0  0  0  0  0  0  0  0  0  0  0
    4.7336   -4.8671   33.1300 C   0  0  0  0  0  0  0  0  0  0  0  0
    5.4674   -5.8548   33.8949 C   0  0  0  0  0  0  0  0  0  0  0  0
    6.9413   -3.9847   36.5289 C   0  0  0  0  0  0  0  0  0  0  0  0
    4.3602   -3.7788   33.7534 C   0  0  0  0  0  0  0  0  0  0  0  0
    5.2355   -3.6005   34.8925 C   0  0  0  0  0  0  0  0  0  0  0  0
    3.5046   -1.1637   35.1726 C   0  0  0  0  0  0  0  0  0  0  0  0
    3.3827   -6.3902   31.9200 C   0  0  0  0  0  0  0  0  0  0  0  0
    5.3379   -5.3593   30.9288 C   0  0  0  0  0  0  0  0  0  0  0  0
    8.7940   -4.4904   37.9401 C   0  0  0  0  0  0  0  0  0  0  0  0
    3.0499   -1.6649   33.8164 C   0  0  0  0  0  0  0  0  0  0  0  0
    4.7913   -5.7138   29.5744 C   0  0  0  0  0  0  0  0  0  0  0  0
    2.9022   -6.6949   30.5276 C   0  0  0  0  0  0  0  0  0  0  0  0
    3.1004    0.0629   35.8102 C   0  0  0  0  0  0  0  0  0  0  0  0
    7.3184   -3.9312   40.0250 H   0  0  0  0  0  0  0  0  0  0  0  0
    9.3451   -3.2421   38.9234 H   0  0  0  0  0  0  0  0  0  0  0  0
    7.0268   -1.8936   36.9758 H   0  0  0  0  0  0  0  0  0  0  0  0
    3.2393   -3.0142   32.1865 H   0  0  0  0  0  0  0  0  0  0  0  0
    8.7000  -11.4128   37.2458 H   0  0  0  0  0  0  0  0  0  0  0  0
    7.8808   -5.8836   39.4505 H   0  0  0  0  0  0  0  0  0  0  0  0
   10.4336  -13.3983   36.5418 H   0  0  0  0  0  0  0  0  0  0  0  0
    8.0205   -3.5937   40.9229 H   0  0  0  0  0  0  0  0  0  0  0  0
    9.8024  -11.3639   36.1107 H   0  0  0  0  0  0  0  0  0  0  0  0
    7.7824   -2.0671   38.3224 H   0  0  0  0  0  0  0  0  0  0  0  0
    8.8480  -13.6375   35.5643 H   0  0  0  0  0  0  0  0  0  0  0  0
    9.3290  -13.7000   35.7800 H   0  0  0  0  0  0  0  0  0  0  0  0
    9.1018  -13.7664   35.7872 H   0  0  0  0  0  0  0  0  0  0  0  0
   10.4089  -10.6176   37.5825 H   0  0  0  0  0  0  0  0  0  0  0  0
    6.0310   -2.7676   40.3718 H   0  0  0  0  0  0  0  0  0  0  0  0
    9.9161   -3.3949   41.3603 H   0  0  0  0  0  0  0  0  0  0  0  0
    9.1064   -4.2949   40.4835 H   0  0  0  0  0  0  0  0  0  0  0  0
    9.9561   -2.4641   39.9130 H   0  0  0  0  0  0  0  0  0  0  0  0
    9.6930  -13.9534   33.2546 H   0  0  0  0  0  0  0  0  0  0  0  0
    7.8110  -13.2103   34.4186 H   0  0  0  0  0  0  0  0  0  0  0  0
    9.1855  -11.6164   33.6031 H   0  0  0  0  0  0  0  0  0  0  0  0
    8.7298  -13.8486   33.8753 H   0  0  0  0  0  0  0  0  0  0  0  0
    4.7236   -0.6715   39.6064 H   0  0  0  0  0  0  0  0  0  0  0  0
    3.8356   -2.0255   38.9064 H   0  0  0  0  0  0  0  0  0  0  0  0
    4.1845   -2.1199   40.5094 H   0  0  0  0  0  0  0  0  0  0  0  0
    9.2723  -10.1396   36.0592 H   0  0  0  0  0  0  0  0  0  0  0  0
   10.4815  -15.2609   33.5035 H   0  0  0  0  0  0  0  0  0  0  0  0
   11.6634  -14.7357   34.9019 H   0  0  0  0  0  0  0  0  0  0  0  0
    5.4924   -3.7064   37.6959 H   0  0  0  0  0  0  0  0  0  0  0  0
    8.9202  -11.2912   35.1006 H   0  0  0  0  0  0  0  0  0  0  0  0
   10.0553  -12.3824   34.8575 H   0  0  0  0  0  0  0  0  0  0  0  0
    8.4407  -15.7631   35.3581 H   0  0  0  0  0  0  0  0  0  0  0  0
   10.1858  -16.5921   35.8151 H   0  0  0  0  0  0  0  0  0  0  0  0
   10.4961  -14.8549   37.3628 H   0  0  0  0  0  0  0  0  0  0  0  0
    8.8685  -15.4358   37.6552 H   0  0  0  0  0  0  0  0  0  0  0  0
   10.5179  -11.5885   33.0369 H   0  0  0  0  0  0  0  0  0  0  0  0
   10.8327  -13.1888   32.3527 H   0  0  0  0  0  0  0  0  0  0  0  0
   10.5664  -11.0656   34.9679 H   0  0  0  0  0  0  0  0  0  0  0  0
   11.6990  -10.3715   35.9629 H   0  0  0  0  0  0  0  0  0  0  0  0
   12.0060   -9.1077   35.7247 H   0  0  0  0  0  0  0  0  0  0  0  0
    4.4924   -0.8519   37.7013 H   0  0  0  0  0  0  0  0  0  0  0  0
   12.8476  -10.7156   35.1320 H   0  0  0  0  0  0  0  0  0  0  0  0
   13.1249  -10.8763   36.8003 H   0  0  0  0  0  0  0  0  0  0  0  0
   13.6127  -12.7623   36.0893 H   0  0  0  0  0  0  0  0  0  0  0  0
    8.2260  -13.4707   38.8905 H   0  0  0  0  0  0  0  0  0  0  0  0
    9.7361  -12.6558   38.7047 H   0  0  0  0  0  0  0  0  0  0  0  0
    8.2542  -11.7916   38.3497 H   0  0  0  0  0  0  0  0  0  0  0  0
    4.0719   -2.7936   35.6762 H   0  0  0  0  0  0  0  0  0  0  0  0
    8.3022   -9.2784   36.2409 H   0  0  0  0  0  0  0  0  0  0  0  0
    7.3490   -9.2876   35.6230 H   0  0  0  0  0  0  0  0  0  0  0  0
    8.7160   -9.5855   34.4747 H   0  0  0  0  0  0  0  0  0  0  0  0
    3.9516   -7.2365   32.3010 H   0  0  0  0  0  0  0  0  0  0  0  0
    2.5363   -6.2246   32.5862 H   0  0  0  0  0  0  0  0  0  0  0  0
    5.9957   -6.1528   31.2815 H   0  0  0  0  0  0  0  0  0  0  0  0
    5.9122   -4.4348   30.8691 H   0  0  0  0  0  0  0  0  0  0  0  0
    9.2139   -5.1689   38.6968 H   0  0  0  0  0  0  0  0  0  0  0  0
    9.6588   -3.9664   37.7818 H   0  0  0  0  0  0  0  0  0  0  0  0
    7.9768   -3.9356   38.3291 H   0  0  0  0  0  0  0  0  0  0  0  0
    4.1766   -4.8924   29.2173 H   0  0  0  0  0  0  0  0  0  0  0  0
    5.6175   -5.8779   28.8886 H   0  0  0  0  0  0  0  0  0  0  0  0
    2.3061   -7.6001   30.5502 H   0  0  0  0  0  0  0  0  0  0  0  0
    2.2979   -5.8639   30.1700 H   0  0  0  0  0  0  0  0  0  0  0  0
    2.2458    0.4585   35.3108 H   0  0  0  0  0  0  0  0  0  0  0  0
    2.8239   -0.1361   36.8586 H   0  0  0  0  0  0  0  0  0  0  0  0
    3.9227    0.7640   35.8065 H   0  0  0  0  0  0  0  0  0  0  0  0
  1 38  1  0  0  0  0
  2 68  1  0  0  0  0
  3 69  1  0  0  0  0
  4 43  1  0  0  0  0
  5 39  1  0  0  0  0
  5 46  1  0  0  0  0
  6 41  1  0  0  0  0
  6 45  1  0  0  0  0
  7 38  2  0  0  0  0
  8 45  1  0  0  0  0
  8 49  1  0  0  0  0
  9 46  2  0  0  0  0
 10 48  2  0  0  0  0
 11 65  1  0  0  0  0
 11 66  1  0  0  0  0
 12 70  1  0  0  0  0
 12 57  1  0  0  0  0
 13 56  2  0  0  0  0
 14 59  2  0  0  0  0
 15 64  2  0  0  0  0
 16 35  1  0  0  0  0
 16 37  1  0  0  0  0
 16 44  1  0  0  0  0
 17 61  1  0  0  0  0
 17 62  1  0  0  0  0
 17 55  1  0  0  0  0
 18 58  1  0  0  0  0
 18 64  1  0  0  0  0
 18 71  1  0  0  0  0
 19 20  1  0  0  0  0
 19 21  1  0  0  0  0
 19 25  1  0  0  0  0
 19 72  1  1  0  0  0
 20 22  1  0  0  0  0
 20  2  1  0  0  0  0
 20 73  1  1  0  0  0
 21 23  1  0  0  0  0
 21 74  1  6  0  0  0
 21  1  1  0  0  0  0
 22 24  1  0  0  0  0
 22 28  1  0  0  0  0
 22 75  1  6  0  0  0
 23 26  1  0  0  0  0
 23 29  1  0  0  0  0
 23 76  1  6  0  0  0
 24 27  1  0  0  0  0
 24 77  1  1  0  0  0
 24  3  1  0  0  0  0
 25 78  1  0  0  0  0
 25 79  1  0  0  0  0
 25 80  1  0  0  0  0
 26 32  1  0  0  0  0
 26  4  1  0  0  0  0
 26 81  1  1  0  0  0
 27 34  1  0  0  0  0
 27 31  1  0  0  0  0
 27 82  1  1  0  0  0
 28 83  1  0  0  0  0
 28 84  1  0  0  0  0
 28 85  1  0  0  0  0
 29 86  1  0  0  0  0
 29 87  1  0  0  0  0
 29 88  1  0  0  0  0
 30 33  1  0  0  0  0
 30 35  1  0  0  0  0
 30 39  1  0  0  0  0
 30 89  1  0  0  0  0
 31 90  1  0  0  0  0
 31 91  1  0  0  0  0
 31 92  1  0  0  0  0
 32 41  2  0  0  0  0
 32 93  1  0  0  0  0
 33 36  1  0  0  0  0
 33 94  1  0  0  0  0
 33 95  1  0  0  0  0
 34 42  2  0  0  0  0
 34 96  1  0  0  0  0
 35 97  1  0  0  0  0
 35 98  1  0  0  0  0
 36 37  1  0  0  0  0
 36 99  1  0  0  0  0
 36100  1  0  0  0  0
 37101  1  0  0  0  0
 37102  1  0  0  0  0
 38 40  1  0  0  0  0
 39103  1  0  0  0  0
 39104  1  0  0  0  0
 40 46  1  0  0  0  0
 40105  1  0  0  0  0
 40106  1  0  0  0  0
 41107  1  0  0  0  0
 42 51  1  0  0  0  0
 42108  1  0  0  0  0
 43109  1  0  0  0  0
 43110  1  0  0  0  0
 43111  1  0  0  0  0
 44112  1  0  0  0  0
 44113  1  0  0  0  0
 44114  1  0  0  0  0
 45 48  1  0  0  0  0
 45 53  1  1  0  0  0
 47 48  1  0  0  0  0
 47 49  2  0  0  0  0
 47 50  1  0  0  0  0
 49 54  1  0  0  0  0
 50 52  2  0  0  0  0
 50 56  1  0  0  0  0
 51 60  2  0  0  0  0
 51115  1  0  0  0  0
 52 57  1  0  0  0  0
 52 59  1  0  0  0  0
 53116  1  0  0  0  0
 53117  1  0  0  0  0
 53118  1  0  0  0  0
 54 57  2  0  0  0  0
 54 63  1  0  0  0  0
 55 56  1  0  0  0  0
 55 58  2  0  0  0  0
 58 59  1  0  0  0  0
 60 64  1  0  0  0  0
 60 67  1  0  0  0  0
 61 66  1  0  0  0  0
 61119  1  0  0  0  0
 61120  1  0  0  0  0
 62 65  1  0  0  0  0
 62121  1  0  0  0  0
 62122  1  0  0  0  0
 63123  1  0  0  0  0
 63124  1  0  0  0  0
 63125  1  0  0  0  0
 65126  1  0  0  0  0
 65127  1  0  0  0  0
 66128  1  0  0  0  0
 66129  1  0  0  0  0
 67130  1  0  0  0  0
 67131  1  0  0  0  0
 67132  1  0  0  0  0
M  END
>  <DRUGBANK_ID>
DB04220

>  <SECONDARY_ACCESSION_NUMBERS>
EXPT02784

>  <COMMON_NAME>
CGP 4832

>  <CAS_NUMBER>
113303-81-4

>  <UNII>
XUF8PWG90O

$$$$
