
 OpenBabel10282417213D

 54 57  0  0  0  0  0  0  0  0999 V2000
    1.0796    0.0155    0.1134 O   0  5  0  0  0  0  0  0  0  0  0  0
    2.3132   -0.0321    0.0212 N   0  3  0  0  0  0  0  0  0  0  0  0
    2.9516    0.0256   -1.0371 O   0  0  0  0  0  0  0  0  0  0  0  0
    3.0736   -0.2254    1.2587 C   0  0  0  0  0  0  0  0  0  0  0  0
    4.1298    0.6214    1.6141 C   0  0  0  0  0  0  0  0  0  0  0  0
    4.1951    2.2470    1.0148 S   0  0  0  0  0  0  0  0  0  0  0  0
    5.8344    2.7024    1.4320 C   0  0  0  0  0  0  0  0  0  0  0  0
    6.6016    2.0829    2.2631 N   0  0  0  0  0  0  0  0  0  0  0  0
    6.0901    1.1807    3.1092 C   0  0  0  0  0  0  0  0  0  0  0  0
    6.6154    1.0045    4.2201 O   0  0  0  0  0  0  0  0  0  0  0  0
    4.9079    0.3708    2.7451 C   0  0  0  0  0  0  0  0  0  0  0  0
    4.5078   -0.6064    3.6284 C   0  0  0  0  0  0  0  0  0  0  0  0
    3.3878   -1.3870    3.3398 C   0  0  0  0  0  0  0  0  0  0  0  0
    2.6809   -1.2240    2.1350 C   0  0  0  0  0  0  0  0  0  0  0  0
    2.9593   -2.4195    4.3312 C   0  0  0  0  0  0  0  0  0  0  0  0
    1.6900   -2.2090    4.7575 F   0  0  0  0  0  0  0  0  0  0  0  0
    2.9990   -3.6591    3.7852 F   0  0  0  0  0  0  0  0  0  0  0  0
    3.7431   -2.4539    5.4391 F   0  0  0  0  0  0  0  0  0  0  0  0
    6.3197    3.8388    0.8753 N   0  0  0  0  0  0  0  0  0  0  0  0
    7.5192    3.7133    0.0408 C   0  0  0  0  0  0  0  0  0  0  0  0
    8.1764    5.0776   -0.2167 C   0  0  0  0  0  0  0  0  0  0  0  0
    7.2494    6.0768   -0.8087 N   0  0  0  0  0  0  0  0  0  0  0  0
    7.0656    5.9985   -2.2840 C   0  0  0  0  0  0  0  0  0  0  0  0
    6.3856    4.7850   -3.0003 C   0  0  0  0  0  0  0  0  0  0  0  0
    4.8594    4.7571   -2.6849 C   0  0  0  0  0  0  0  0  0  0  0  0
    4.2412    3.3592   -2.6037 C   0  0  0  0  0  0  0  0  0  0  0  0
    5.1818    2.2003   -2.2442 C   0  0  0  0  0  0  0  0  0  0  0  0
    6.5211    2.1657   -2.9521 C   0  0  0  0  0  0  0  0  0  0  0  0
    7.2779    3.4927   -2.9939 C   0  0  0  0  0  0  0  0  0  0  0  0
    6.0079    6.0891   -0.0018 C   0  0  0  0  0  0  0  0  0  0  0  0
    5.3878    4.7168    0.1989 C   0  0  0  0  0  0  0  0  0  0  0  0
    5.0515   -0.7192    4.5680 H   0  0  0  0  0  0  0  0  0  0  0  0
    1.8085   -1.8389    1.9189 H   0  0  0  0  0  0  0  0  0  0  0  0
    8.2048    2.8754    0.2110 H   0  0  0  0  0  0  0  0  0  0  0  0
    7.0610    3.4114   -0.8675 H   0  0  0  0  0  0  0  0  0  0  0  0
    8.5076    5.4454    0.7613 H   0  0  0  0  0  0  0  0  0  0  0  0
    9.0728    4.9937   -0.8408 H   0  0  0  0  0  0  0  0  0  0  0  0
    6.4949    6.8923   -2.5805 H   0  0  0  0  0  0  0  0  0  0  0  0
    8.0457    6.1501   -2.7580 H   0  0  0  0  0  0  0  0  0  0  0  0
    6.3622    5.0079   -4.0736 H   0  0  0  0  0  0  0  0  0  0  0  0
    4.5994    5.3458   -1.8017 H   0  0  0  0  0  0  0  0  0  0  0  0
    4.2783    5.4188   -3.3423 H   0  0  0  0  0  0  0  0  0  0  0  0
    3.4065    3.3732   -1.8812 H   0  0  0  0  0  0  0  0  0  0  0  0
    3.7984    3.1524   -3.5761 H   0  0  0  0  0  0  0  0  0  0  0  0
    5.4253    2.1743   -1.1897 H   0  0  0  0  0  0  0  0  0  0  0  0
    4.6569    1.2523   -2.3911 H   0  0  0  0  0  0  0  0  0  0  0  0
    7.1361    1.4165   -2.4224 H   0  0  0  0  0  0  0  0  0  0  0  0
    6.3734    1.7992   -3.9654 H   0  0  0  0  0  0  0  0  0  0  0  0
    7.9761    3.5117   -3.8390 H   0  0  0  0  0  0  0  0  0  0  0  0
    8.0786    3.4701   -2.2431 H   0  0  0  0  0  0  0  0  0  0  0  0
    6.2408    6.4283    1.0131 H   0  0  0  0  0  0  0  0  0  0  0  0
    5.2849    6.8035   -0.4053 H   0  0  0  0  0  0  0  0  0  0  0  0
    5.2775    4.1733   -0.7083 H   0  0  0  0  0  0  0  0  0  0  0  0
    4.3580    4.7711    0.5656 H   0  0  0  0  0  0  0  0  0  0  0  0
  1  2  1  0  0  0  0
  2  3  2  0  0  0  0
  2  4  1  0  0  0  0
  4  5  2  0  0  0  0
  4 14  1  0  0  0  0
  5  6  1  0  0  0  0
  5 11  1  0  0  0  0
  6  7  1  0  0  0  0
  7  8  2  0  0  0  0
  7 19  1  0  0  0  0
  8  9  1  0  0  0  0
  9 10  2  0  0  0  0
  9 11  1  0  0  0  0
 11 12  2  0  0  0  0
 12 13  1  0  0  0  0
 12 32  1  0  0  0  0
 13 14  2  0  0  0  0
 13 15  1  0  0  0  0
 14 33  1  0  0  0  0
 15 16  1  0  0  0  0
 15 17  1  0  0  0  0
 15 18  1  0  0  0  0
 19 20  1  0  0  0  0
 19 31  1  0  0  0  0
 20 21  1  0  0  0  0
 20 34  1  0  0  0  0
 20 35  1  0  0  0  0
 21 22  1  0  0  0  0
 21 36  1  0  0  0  0
 21 37  1  0  0  0  0
 22 23  1  0  0  0  0
 22 30  1  0  0  0  0
 23 24  1  0  0  0  0
 23 38  1  0  0  0  0
 23 39  1  0  0  0  0
 24 25  1  0  0  0  0
 24 29  1  0  0  0  0
 24 40  1  0  0  0  0
 25 26  1  0  0  0  0
 25 41  1  0  0  0  0
 25 42  1  0  0  0  0
 26 27  1  0  0  0  0
 26 43  1  0  0  0  0
 26 44  1  0  0  0  0
 27 28  1  0  0  0  0
 27 45  1  0  0  0  0
 27 46  1  0  0  0  0
 28 29  1  0  0  0  0
 28 47  1  0  0  0  0
 28 48  1  0  0  0  0
 29 49  1  0  0  0  0
 29 50  1  0  0  0  0
 30 31  1  0  0  0  0
 30 51  1  0  0  0  0
 30 52  1  0  0  0  0
 31 53  1  0  0  0  0
 31 54  1  0  0  0  0
M  CHG  2   1  -1   2   1
M  END
>  <DRUGBANK_ID>
DB14821

>  <COMMON_NAME>
Macozinone

>  <CAS_NUMBER>
1377239-83-2

>  <UNII>
A3M1353L40

>  <SYNONYMS>
Macozinone

$$$$
