
 OpenBabel10282417103D

181183  0  0  0  0  0  0  0  0999 V2000
    7.2464   -1.3636   -0.5202 O   0  0  0  0  0  0  0  0  0  0  0  0
    6.2261    1.2779    0.0760 O   0  0  0  0  0  0  0  0  0  0  0  0
    5.7217    1.1951   -4.8305 O   0  0  0  0  0  0  0  0  0  0  0  0
    4.9483    3.2254   -3.1678 O   0  0  0  0  0  0  0  0  0  0  0  0
    8.8022    0.5462    1.8524 O   0  0  0  0  0  0  0  0  0  0  0  0
    8.3348    2.2456    4.2289 O   0  0  0  0  0  0  0  0  0  0  0  0
   10.1495    1.6609   -3.4104 O   0  0  0  0  0  0  0  0  0  0  0  0
    8.7837    4.9846   -3.9473 O   0  0  0  0  0  0  0  0  0  0  0  0
    7.4813    4.4435    0.4820 O   0  0  0  0  0  0  0  0  0  0  0  0
   12.0457    2.0578    2.1279 O   0  0  0  0  0  0  0  0  0  0  0  0
    8.8295    7.2001    1.6047 O   0  0  0  0  0  0  0  0  0  0  0  0
   13.6190    3.8333    0.0409 O   0  0  0  0  0  0  0  0  0  0  0  0
   13.3611    6.5044    0.4475 O   0  0  0  0  0  0  0  0  0  0  0  0
    9.1493   -3.1519   -1.2647 O   0  0  0  0  0  0  0  0  0  0  0  0
    9.1798   -1.1095    0.4170 O   0  0  0  0  0  0  0  0  0  0  0  0
    4.1185   -3.8191   -1.2814 N   0  0  0  0  0  0  0  0  0  0  0  0
    4.8998   -1.9088   -0.6666 N   0  0  0  0  0  0  0  0  0  0  0  0
    6.2848   -0.4084   -3.1906 N   0  0  0  0  0  0  0  0  0  0  0  0
    5.4754    1.4968   -1.8216 N   0  0  0  0  0  0  0  0  0  0  0  0
    4.0314   -4.3497   -3.5639 N   0  0  0  0  0  0  0  0  0  0  0  0
    4.8980   -1.8920   -3.6409 N   0  0  0  0  0  0  0  0  0  0  0  0
    5.5857   -0.8692    0.9358 N   0  0  0  0  0  0  0  0  0  0  0  0
    4.3203    1.0613    1.6846 N   0  0  0  0  0  0  0  0  0  0  0  0
    5.6457   -5.3217   -2.1691 N   0  0  0  0  0  0  0  0  0  0  0  0
    6.6681   -3.0350   -2.2452 N   0  0  0  0  0  0  0  0  0  0  0  0
    8.2839    2.0747   -4.2858 N   0  0  0  0  0  0  0  0  0  0  0  0
    8.0731    2.6806    1.6472 N   0  0  0  0  0  0  0  0  0  0  0  0
    7.1515    4.2024   -2.9167 N   0  0  0  0  0  0  0  0  0  0  0  0
    7.9633    4.4984    3.5812 N   0  0  0  0  0  0  0  0  0  0  0  0
    5.9275    2.7217    1.4099 N   0  0  0  0  0  0  0  0  0  0  0  0
    9.4405    3.3297   -0.5401 N   0  0  0  0  0  0  0  0  0  0  0  0
    4.8632    3.8902    2.9392 N   0  0  0  0  0  0  0  0  0  0  0  0
    9.4154    5.5411    0.2702 N   0  0  0  0  0  0  0  0  0  0  0  0
   11.5576    4.8086   -0.8767 N   0  0  0  0  0  0  0  0  0  0  0  0
   11.2408    7.0912   -0.0341 N   0  0  0  0  0  0  0  0  0  0  0  0
   11.6807    2.5966   -4.2681 N   0  0  0  0  0  0  0  0  0  0  0  0
   11.3037    4.1768   -2.9530 N   0  0  0  0  0  0  0  0  0  0  0  0
    8.6201   -1.4340   -2.6975 N   0  0  0  0  0  0  0  0  0  0  0  0
    8.2402    0.6647   -0.9322 N   0  0  0  0  0  0  0  0  0  0  0  0
   14.6274    0.2700   -5.6018 N   0  0  0  0  0  0  0  0  0  0  0  0
   13.7119    1.4868   -3.7502 N   0  0  0  0  0  0  0  0  0  0  0  0
   10.7836   -1.6948   -1.7067 N   0  0  0  0  0  0  0  0  0  0  0  0
   10.4950    0.3137   -0.3536 N   0  0  0  0  0  0  0  0  0  0  0  0
    3.5055   -2.2509   -1.7577 C   0  0  1  0  0  0  0  0  0  0  0  0
    3.7265   -0.2414   -0.7172 C   0  0  1  0  0  0  0  0  0  0  0  0
    5.0825   -0.6501   -2.0451 C   0  0  1  0  0  0  0  0  0  0  0  0
    4.3598    1.2592   -0.8511 C   0  0  1  0  0  0  0  0  0  0  0  0
    2.5832   -2.4977   -2.6662 C   0  0  0  0  0  0  0  0  0  0  0  0
    2.8596    0.2068   -2.2941 C   0  0  0  0  0  0  0  0  0  0  0  0
    3.0806   -3.2305   -3.8873 C   0  0  0  0  0  0  0  0  0  0  0  0
    3.5219   -0.5698   -3.8790 C   0  0  0  0  0  0  0  0  0  0  0  0
    6.2051   -0.7210   -0.4358 C   0  0  0  0  0  0  0  0  0  0  0  0
    5.0059    1.2340    0.3765 C   0  0  0  0  0  0  0  0  0  0  0  0
    4.4920   -4.5639   -2.3714 C   0  0  0  0  0  0  0  0  0  0  0  0
    5.4858   -2.4419   -2.3710 C   0  0  0  0  0  0  0  0  0  0  0  0
    6.4301   -0.5545    1.9822 C   0  0  0  0  0  0  0  0  0  0  0  0
    4.9357    1.2022    3.3535 C   0  0  0  0  0  0  0  0  0  0  0  0
    6.4831    0.4139   -4.2783 C   0  0  0  0  0  0  0  0  0  0  0  0
    5.7006    2.5589   -2.5002 C   0  0  0  0  0  0  0  0  0  0  0  0
    6.7012    1.1737    2.0588 C   0  0  1  0  0  0  0  0  0  0  0  0
    5.6795    2.7943    3.7680 C   0  0  1  0  0  0  0  0  0  0  0  0
    7.9709    0.6382   -4.1606 C   0  0  0  0  0  0  0  0  0  0  0  0
    7.0830    2.8133   -2.2588 C   0  0  0  0  0  0  0  0  0  0  0  0
    9.3737    3.7456   -1.9530 C   0  0  1  0  0  0  0  0  0  0  0  0
    7.9833    1.3863    1.7292 C   0  0  0  0  0  0  0  0  0  0  0  0
    8.5778    6.0862   -1.1348 C   0  0  1  0  0  0  0  0  0  0  0  0
    7.4975    3.1445    4.0212 C   0  0  0  0  0  0  0  0  0  0  0  0
    9.3173    3.0157    1.5390 C   0  0  2  0  0  0  0  0  0  0  0  0
    9.4650    5.1415    2.9041 C   0  0  2  0  0  0  0  0  0  0  0  0
   10.1801    5.3139   -2.0261 C   0  0  0  0  0  0  0  0  0  0  0  0
    9.9761    7.3267   -0.9724 C   0  0  0  0  0  0  0  0  0  0  0  0
    9.2865    2.5489   -3.4674 C   0  0  0  0  0  0  0  0  0  0  0  0
    8.0864    5.2560   -2.9127 C   0  0  0  0  0  0  0  0  0  0  0  0
   12.8548    3.3778   -3.8162 C   0  0  1  0  0  0  0  0  0  0  0  0
   12.0510    5.6747   -3.1514 C   0  0  1  0  0  0  0  0  0  0  0  0
    8.4517    3.6505    0.4280 C   0  0  0  0  0  0  0  0  0  0  0  0
    9.2381    6.0459    1.5525 C   0  0  0  0  0  0  0  0  0  0  0  0
   13.2916    3.0993   -5.5600 C   0  0  0  0  0  0  0  0  0  0  0  0
   13.8246    4.3832   -2.3636 C   0  0  0  0  0  0  0  0  0  0  0  0
   12.5630    5.4956   -4.5494 C   0  0  0  0  0  0  0  0  0  0  0  0
   12.8361    6.7634   -1.9596 C   0  0  0  0  0  0  0  0  0  0  0  0
    8.7734   -0.2564   -3.4307 C   0  0  0  0  0  0  0  0  0  0  0  0
    8.0212    1.8497   -1.6224 C   0  0  0  0  0  0  0  0  0  0  0  0
   10.7466    1.9834    1.4273 C   0  0  0  0  0  0  0  0  0  0  0  0
   10.7843    4.2020    2.7549 C   0  0  0  0  0  0  0  0  0  0  0  0
   14.8930    2.7346   -5.8226 C   0  0  0  0  0  0  0  0  0  0  0  0
   13.0330    4.2724   -0.9464 C   0  0  0  0  0  0  0  0  0  0  0  0
   14.2936    4.8009   -4.5372 C   0  0  0  0  0  0  0  0  0  0  0  0
   12.5464    6.8686   -0.4178 C   0  0  0  0  0  0  0  0  0  0  0  0
   15.4936    1.3480   -5.1088 C   0  0  0  0  0  0  0  0  0  0  0  0
   14.7618    3.0155   -3.6312 C   0  0  0  0  0  0  0  0  0  0  0  0
    9.5149   -2.1648   -1.9084 C   0  0  0  0  0  0  0  0  0  0  0  0
    9.2378   -0.0779   -0.2661 C   0  0  0  0  0  0  0  0  0  0  0  0
    2.9932   -2.0750   -0.7251 H   0  0  0  0  0  0  0  0  0  0  0  0
    3.0411   -0.3272    0.1122 H   0  0  0  0  0  0  0  0  0  0  0  0
    4.6329    0.1251   -2.5287 H   0  0  0  0  0  0  0  0  0  0  0  0
    3.8115    2.1808   -0.9282 H   0  0  0  0  0  0  0  0  0  0  0  0
   12.4088    2.9256    2.3758 H   0  0  0  0  0  0  0  0  0  0  0  0
    4.9367   -3.5779   -0.6961 H   0  0  0  0  0  0  0  0  0  0  0  0
    5.3448   -2.1928    0.2079 H   0  0  0  0  0  0  0  0  0  0  0  0
    6.5407   -1.3022   -3.6162 H   0  0  0  0  0  0  0  0  0  0  0  0
    6.2573    0.8295   -2.0596 H   0  0  0  0  0  0  0  0  0  0  0  0
    4.6243   -0.6032    1.1844 H   0  0  0  0  0  0  0  0  0  0  0  0
    3.3688    1.3540    1.5748 H   0  0  0  0  0  0  0  0  0  0  0  0
    6.3838   -5.0352   -1.5118 H   0  0  0  0  0  0  0  0  0  0  0  0
    6.1055   -5.5326   -3.0542 H   0  0  0  0  0  0  0  0  0  0  0  0
    6.8943   -3.2984   -1.2794 H   0  0  0  0  0  0  0  0  0  0  0  0
    6.6897   -3.8126   -2.8852 H   0  0  0  0  0  0  0  0  0  0  0  0
    7.4998    2.6885   -4.5087 H   0  0  0  0  0  0  0  0  0  0  0  0
    7.5649    3.4418    2.1718 H   0  0  0  0  0  0  0  0  0  0  0  0
    6.5830    4.2671   -3.7751 H   0  0  0  0  0  0  0  0  0  0  0  0
    7.2004    5.1664    3.6072 H   0  0  0  0  0  0  0  0  0  0  0  0
    6.3962    3.5941    1.4921 H   0  0  0  0  0  0  0  0  0  0  0  0
    6.2746    2.6775    0.4090 H   0  0  0  0  0  0  0  0  0  0  0  0
    9.5579    2.3442   -0.3131 H   0  0  0  0  0  0  0  0  0  0  0  0
    5.4689    4.6000    2.5120 H   0  0  0  0  0  0  0  0  0  0  0  0
    4.7154    3.3984    1.9806 H   0  0  0  0  0  0  0  0  0  0  0  0
    9.8936    4.6433    0.1054 H   0  0  0  0  0  0  0  0  0  0  0  0
   11.3347    4.9045    0.0852 H   0  0  0  0  0  0  0  0  0  0  0  0
   11.1481    6.4840    0.7754 H   0  0  0  0  0  0  0  0  0  0  0  0
   10.9064    3.0134   -4.7798 H   0  0  0  0  0  0  0  0  0  0  0  0
   11.2474    2.5277   -3.3174 H   0  0  0  0  0  0  0  0  0  0  0  0
   10.5977    4.0905   -3.6557 H   0  0  0  0  0  0  0  0  0  0  0  0
   11.2322    3.8239   -1.9298 H   0  0  0  0  0  0  0  0  0  0  0  0
    7.7126   -1.5659   -2.2358 H   0  0  0  0  0  0  0  0  0  0  0  0
    7.5765    0.0064   -1.1976 H   0  0  0  0  0  0  0  0  0  0  0  0
   14.4994   -0.4038   -4.8398 H   0  0  0  0  0  0  0  0  0  0  0  0
   13.6717    0.6929   -5.4952 H   0  0  0  0  0  0  0  0  0  0  0  0
   13.8915    0.5688   -3.4223 H   0  0  0  0  0  0  0  0  0  0  0  0
   12.7214    1.5520   -4.1772 H   0  0  0  0  0  0  0  0  0  0  0  0
   10.8789   -0.6855   -1.6830 H   0  0  0  0  0  0  0  0  0  0  0  0
   11.0710   -1.9803   -0.7618 H   0  0  0  0  0  0  0  0  0  0  0  0
   10.8676    1.0086   -0.9576 H   0  0  0  0  0  0  0  0  0  0  0  0
   11.0610   -0.2733    0.2737 H   0  0  0  0  0  0  0  0  0  0  0  0
    1.6364   -2.0148   -2.4372 H   0  0  0  0  0  0  0  0  0  0  0  0
    3.0599   -1.6054   -2.6535 H   0  0  0  0  0  0  0  0  0  0  0  0
    1.8162    0.0550   -2.0032 H   0  0  0  0  0  0  0  0  0  0  0  0
    2.9662    1.2838   -2.5556 H   0  0  0  0  0  0  0  0  0  0  0  0
    2.1216   -3.4653   -4.2699 H   0  0  0  0  0  0  0  0  0  0  0  0
    3.4971   -2.6432   -4.7825 H   0  0  0  0  0  0  0  0  0  0  0  0
    2.5295   -0.9870   -4.2461 H   0  0  0  0  0  0  0  0  0  0  0  0
    3.8136    0.0738   -4.6980 H   0  0  0  0  0  0  0  0  0  0  0  0
    5.8095   -1.0346    2.7667 H   0  0  0  0  0  0  0  0  0  0  0  0
    7.3016   -1.1735    1.8517 H   0  0  0  0  0  0  0  0  0  0  0  0
    4.3565    0.5658    4.0268 H   0  0  0  0  0  0  0  0  0  0  0  0
    5.7423    0.4692    3.6402 H   0  0  0  0  0  0  0  0  0  0  0  0
    7.0012    1.2796    3.0730 H   0  0  0  0  0  0  0  0  0  0  0  0
    5.4762    2.8469    4.8127 H   0  0  0  0  0  0  0  0  0  0  0  0
    8.4341    4.0166   -1.5861 H   0  0  0  0  0  0  0  0  0  0  0  0
    7.5504    6.2171   -0.8700 H   0  0  0  0  0  0  0  0  0  0  0  0
    9.1492    3.2342    2.5471 H   0  0  0  0  0  0  0  0  0  0  0  0
    9.8521    5.8273    3.6375 H   0  0  0  0  0  0  0  0  0  0  0  0
   10.3294    5.6717   -3.2076 H   0  0  0  0  0  0  0  0  0  0  0  0
    9.7132    6.3249   -2.5116 H   0  0  0  0  0  0  0  0  0  0  0  0
   10.5791    7.4984   -1.8695 H   0  0  0  0  0  0  0  0  0  0  0  0
    9.4253    8.1797   -0.7106 H   0  0  0  0  0  0  0  0  0  0  0  0
   12.7666    2.7226   -2.8587 H   0  0  0  0  0  0  0  0  0  0  0  0
   12.3091    4.8971   -2.5844 H   0  0  0  0  0  0  0  0  0  0  0  0
   12.5719    2.4122   -6.0556 H   0  0  0  0  0  0  0  0  0  0  0  0
   12.9681    3.9769   -6.1830 H   0  0  0  0  0  0  0  0  0  0  0  0
   13.9272    5.3802   -2.7838 H   0  0  0  0  0  0  0  0  0  0  0  0
   14.9337    4.4849   -2.2239 H   0  0  0  0  0  0  0  0  0  0  0  0
   11.7699    4.8599   -5.0755 H   0  0  0  0  0  0  0  0  0  0  0  0
   12.3813    6.3837   -5.1304 H   0  0  0  0  0  0  0  0  0  0  0  0
   12.6603    7.6632   -2.4838 H   0  0  0  0  0  0  0  0  0  0  0  0
   13.9448    6.6637   -1.8461 H   0  0  0  0  0  0  0  0  0  0  0  0
    9.6641    0.0620   -2.9543 H   0  0  0  0  0  0  0  0  0  0  0  0
    9.0849    1.8320   -1.7331 H   0  0  0  0  0  0  0  0  0  0  0  0
   10.5342    1.0008    1.8020 H   0  0  0  0  0  0  0  0  0  0  0  0
   11.1127    2.1398    0.4303 H   0  0  0  0  0  0  0  0  0  0  0  0
   11.2851    3.8688    3.6452 H   0  0  0  0  0  0  0  0  0  0  0  0
   10.5641    3.1386    3.0025 H   0  0  0  0  0  0  0  0  0  0  0  0
   11.1559    4.0890    1.6787 H   0  0  0  0  0  0  0  0  0  0  0  0
   15.0287    2.9290   -6.8731 H   0  0  0  0  0  0  0  0  0  0  0  0
   15.6084    3.5190   -5.4546 H   0  0  0  0  0  0  0  0  0  0  0  0
   14.4926    4.9479   -5.6216 H   0  0  0  0  0  0  0  0  0  0  0  0
   14.9622    5.5882   -4.1765 H   0  0  0  0  0  0  0  0  0  0  0  0
   16.5745    1.4277   -5.0067 H   0  0  0  0  0  0  0  0  0  0  0  0
   15.5351    1.1837   -3.9437 H   0  0  0  0  0  0  0  0  0  0  0  0
   15.8462    2.9996   -3.5817 H   0  0  0  0  0  0  0  0  0  0  0  0
   14.6636    2.8041   -2.5327 H   0  0  0  0  0  0  0  0  0  0  0  0
  1 52  2  0  0  0  0
  2 53  2  0  0  0  0
  3 58  2  0  0  0  0
  4 59  2  0  0  0  0
  5 65  2  0  0  0  0
  6 67  2  0  0  0  0
  7 72  2  0  0  0  0
  8 73  2  0  0  0  0
  9 76  2  0  0  0  0
 10 84  1  0  0  0  0
 10 98  1  0  0  0  0
 11 77  2  0  0  0  0
 12 87  2  0  0  0  0
 13 89  2  0  0  0  0
 14 92  2  0  0  0  0
 15 93  2  0  0  0  0
 16 44  1  0  0  0  0
 16 54  1  0  0  0  0
 16 99  1  0  0  0  0
 17 45  1  0  0  0  0
 17 55  1  0  0  0  0
 17100  1  0  0  0  0
 18 46  1  0  0  0  0
 18 58  1  0  0  0  0
 18101  1  0  0  0  0
 19 47  1  0  0  0  0
 19 59  1  0  0  0  0
 19102  1  0  0  0  0
 20 50  1  0  0  0  0
 20 54  2  0  0  0  0
 21 51  1  0  0  0  0
 21 55  2  0  0  0  0
 22 52  1  0  0  0  0
 22 56  1  0  0  0  0
 22103  1  0  0  0  0
 23 53  1  0  0  0  0
 23 57  1  0  0  0  0
 23104  1  0  0  0  0
 24 54  1  0  0  0  0
 24105  1  0  0  0  0
 24106  1  0  0  0  0
 25 55  1  0  0  0  0
 25107  1  0  0  0  0
 25108  1  0  0  0  0
 26 62  1  0  0  0  0
 26 72  1  0  0  0  0
 26109  1  0  0  0  0
 27 65  1  0  0  0  0
 27 68  1  0  0  0  0
 27110  1  0  0  0  0
 28 63  1  0  0  0  0
 28 73  1  0  0  0  0
 28111  1  0  0  0  0
 29 67  1  0  0  0  0
 29 69  1  0  0  0  0
 29112  1  0  0  0  0
 30113  1  0  0  0  0
 30114  1  0  0  0  0
 31 64  1  0  0  0  0
 31 76  1  0  0  0  0
 31115  1  0  0  0  0
 32116  1  0  0  0  0
 32117  1  0  0  0  0
 33 66  1  0  0  0  0
 33 77  1  0  0  0  0
 33118  1  0  0  0  0
 34 70  1  0  0  0  0
 34 87  1  0  0  0  0
 34119  1  0  0  0  0
 35 71  1  0  0  0  0
 35 89  1  0  0  0  0
 35120  1  0  0  0  0
 36121  1  0  0  0  0
 36122  1  0  0  0  0
 37123  1  0  0  0  0
 37124  1  0  0  0  0
 38 82  1  0  0  0  0
 38 92  1  0  0  0  0
 38125  1  0  0  0  0
 39 83  1  0  0  0  0
 39 93  1  0  0  0  0
 39126  1  0  0  0  0
 40 90  1  0  0  0  0
 40127  1  0  0  0  0
 40128  1  0  0  0  0
 41 91  1  0  0  0  0
 41129  1  0  0  0  0
 41130  1  0  0  0  0
 42 92  1  0  0  0  0
 42131  1  0  0  0  0
 42132  1  0  0  0  0
 43 93  1  0  0  0  0
 43133  1  0  0  0  0
 43134  1  0  0  0  0
 44 48  1  0  0  0  0
 44 94  1  1  0  0  0
 45 49  1  0  0  0  0
 45 95  1  1  0  0  0
 46 52  1  0  0  0  0
 46 44  1  0  0  0  0
 46 96  1  1  0  0  0
 47 53  1  0  0  0  0
 47 45  1  0  0  0  0
 47 97  1  6  0  0  0
 48 50  1  0  0  0  0
 48135  1  0  0  0  0
 48136  1  0  0  0  0
 49 51  1  0  0  0  0
 49137  1  0  0  0  0
 49138  1  0  0  0  0
 50139  1  0  0  0  0
 50140  1  0  0  0  0
 51141  1  0  0  0  0
 51142  1  0  0  0  0
 56 60  1  0  0  0  0
 56143  1  0  0  0  0
 56144  1  0  0  0  0
 57 61  1  0  0  0  0
 57145  1  0  0  0  0
 57146  1  0  0  0  0
 58 62  1  0  0  0  0
 59 63  1  0  0  0  0
 60 30  1  0  0  0  0
 60 65  1  0  0  0  0
 60147  1  1  0  0  0
 61 32  1  0  0  0  0
 61 67  1  0  0  0  0
 61148  1  1  0  0  0
 62 82  2  0  0  0  0
 63 83  2  0  0  0  0
 64 72  1  0  0  0  0
 64149  1  6  0  0  0
 64 70  1  0  0  0  0
 66 73  1  0  0  0  0
 66150  1  1  0  0  0
 66 71  1  0  0  0  0
 68 76  1  0  0  0  0
 68151  1  1  0  0  0
 68 84  1  0  0  0  0
 69 77  1  0  0  0  0
 69152  1  1  0  0  0
 69 85  1  0  0  0  0
 70153  1  0  0  0  0
 70154  1  0  0  0  0
 71155  1  0  0  0  0
 71156  1  0  0  0  0
 74 36  1  0  0  0  0
 74 78  1  0  0  0  0
 74 79  1  0  0  0  0
 74157  1  1  0  0  0
 75 37  1  0  0  0  0
 75 80  1  0  0  0  0
 75 81  1  0  0  0  0
 75158  1  1  0  0  0
 78 86  1  0  0  0  0
 78159  1  0  0  0  0
 78160  1  0  0  0  0
 79 87  1  0  0  0  0
 79161  1  0  0  0  0
 79162  1  0  0  0  0
 80 88  1  0  0  0  0
 80163  1  0  0  0  0
 80164  1  0  0  0  0
 81 89  1  0  0  0  0
 81165  1  0  0  0  0
 81166  1  0  0  0  0
 82167  1  0  0  0  0
 83168  1  0  0  0  0
 84169  1  0  0  0  0
 84170  1  0  0  0  0
 85171  1  0  0  0  0
 85172  1  0  0  0  0
 85173  1  0  0  0  0
 86 90  1  0  0  0  0
 86174  1  0  0  0  0
 86175  1  0  0  0  0
 88 91  1  0  0  0  0
 88176  1  0  0  0  0
 88177  1  0  0  0  0
 90178  1  0  0  0  0
 90179  1  0  0  0  0
 91180  1  0  0  0  0
 91181  1  0  0  0  0
M  END
>  <DRUGBANK_ID>
DB00314

>  <SECONDARY_ACCESSION_NUMBERS>
APRD00844

>  <COMMON_NAME>
Capreomycin

>  <CAS_NUMBER>
11003-38-6

>  <UNII>
232HYX66HC

>  <SYNONYMS>
Capreomicina; Capreomycin

$$$$
