
 OpenBabel10282417233D

143145  0  0  1  0  0  0  0  0999 V2000
    1.0417   -0.0908   -0.0039 Lu  0  1  0  0  0  0  0  0  0  0  0  0
   -1.9069    4.3383   -0.5388 O   0  0  0  0  0  0  0  0  0  0  0  0
   -2.5375    5.5707   -0.2225 C   0  0  0  0  0  0  0  0  0  0  0  0
   -1.8612    6.6467   -0.2139 O   0  0  0  0  0  0  0  0  0  0  0  0
   -4.0212    5.6030    0.1060 C   0  0  0  0  0  0  0  0  0  0  0  0
   -4.8142    5.0786   -1.0801 C   0  0  0  0  0  0  0  0  0  0  0  0
   -4.0484    3.8217   -1.4598 C   0  0  2  0  0  0  0  0  0  0  0  0
   -2.8981    3.6579   -0.5594 N   0  0  0  0  0  0  0  0  0  0  0  0
   -1.5893    3.2145   -1.0609 C   0  0  0  0  0  0  0  0  0  0  0  0
   -0.6531    2.9473   -0.2441 O   0  0  0  0  0  0  0  0  0  0  0  0
   -1.3635    3.0803   -2.5073 N   0  0  0  0  0  0  0  0  0  0  0  0
   -2.4464    3.3895   -3.4521 C   0  0  1  0  0  0  0  0  0  0  0  0
   -2.0072    4.5137   -4.3760 C   0  0  0  0  0  0  0  0  0  0  0  0
   -0.7702    4.0821   -5.1467 C   0  0  0  0  0  0  0  0  0  0  0  0
   -1.0921    2.8459   -5.9704 C   0  0  0  0  0  0  0  0  0  0  0  0
   -2.2119    3.1655   -6.9474 C   0  0  0  0  0  0  0  0  0  0  0  0
   -1.7871    4.2528   -7.8409 N   0  0  0  0  0  0  0  0  0  0  0  0
   -1.7307    4.0312   -9.2930 C   0  0  0  0  0  0  0  0  0  0  0  0
   -1.3634    4.9711  -10.0655 O   0  0  0  0  0  0  0  0  0  0  0  0
   -2.0753    2.6696   -9.8741 C   0  0  2  0  0  0  0  0  0  0  0  0
   -3.3331    2.1375   -9.2068 C   0  0  0  0  0  0  0  0  0  0  0  0
   -3.2725    2.4301   -7.7165 C   0  0  0  0  0  0  0  0  0  0  0  0
   -3.5916    1.3935   -6.8107 C   0  0  0  0  0  0  0  0  0  0  0  0
   -3.6550    1.6605   -5.4715 C   0  0  0  0  0  0  0  0  0  0  0  0
   -3.3384    2.9418   -4.9521 C   0  0  0  0  0  0  0  0  0  0  0  0
   -3.3152    3.2077   -3.5782 C   0  0  0  0  0  0  0  0  0  0  0  0
   -3.0267    4.4671   -3.0795 C   0  0  0  0  0  0  0  0  0  0  0  0
   -2.7241    5.4901   -3.9924 C   0  0  0  0  0  0  0  0  0  0  0  0
   -2.7334    5.2822   -5.3339 C   0  0  0  0  0  0  0  0  0  0  0  0
   -3.0297    3.9955   -5.8729 C   0  0  0  0  0  0  0  0  0  0  0  0
   -3.0209    3.6986   -7.2574 C   0  0  0  0  0  0  0  0  0  0  0  0
   -0.9628    1.7389   -9.6350 N   0  0  0  0  0  0  0  0  0  0  0  0
   -0.2765    1.1066  -10.7708 C   0  0  0  0  0  0  0  0  0  0  0  0
    0.6853    0.3020  -10.5642 O   0  0  0  0  0  0  0  0  0  0  0  0
   -0.7174    1.4149  -12.1925 C   0  0  2  0  0  0  0  0  0  0  0  0
   -0.0766    0.3971  -13.1323 C   0  0  0  0  0  0  0  0  0  0  0  0
   -0.4561    0.6722  -14.5801 C   0  0  0  0  0  0  0  0  0  0  0  0
   -0.0602    2.0808  -15.0043 C   0  0  1  0  0  0  0  0  0  0  0  0
   -0.5292    2.3278  -16.4288 C   0  0  0  0  0  0  0  0  0  0  0  0
    0.3376    3.3566  -17.0214 N   0  0  0  0  0  0  0  0  0  0  0  0
    1.1488    3.0409  -18.2059 C   0  0  0  0  0  0  0  0  0  0  0  0
    1.8983    3.9304  -18.7183 O   0  0  0  0  0  0  0  0  0  0  0  0
    1.0914    1.6508  -18.8180 C   0  0  0  0  0  0  0  0  0  0  0  0
    1.5176    0.6584  -17.8209 N   0  0  0  0  0  0  0  0  0  0  0  0
    2.7126    1.1502  -17.1201 C   0  0  0  0  0  0  0  0  0  0  0  0
    2.4433    2.1084  -15.9839 C   0  0  0  0  0  0  0  0  0  0  0  0
    2.1308    1.4457  -14.7235 N   0  0  0  0  0  0  0  0  0  0  0  0
    2.2626    2.4233  -13.6336 C   0  0  0  0  0  0  0  0  0  0  0  0
    1.2451    3.5361  -13.8254 C   0  0  0  0  0  0  0  0  0  0  0  0
    0.3686    3.7568  -12.9319 O   0  0  0  0  0  0  0  0  0  0  0  0
    1.2737    4.3292  -15.0030 O   0  5  0  0  0  0  0  0  0  0  0  0
    0.7711    0.8902  -14.6938 C   0  0  0  0  0  0  0  0  0  0  0  0
    0.6753   -0.3007  -13.7593 C   0  0  0  0  0  0  0  0  0  0  0  0
    0.9735   -1.5657  -14.4396 N   0  0  0  0  0  0  0  0  0  0  0  0
    1.3994   -2.5627  -13.4468 C   0  0  0  0  0  0  0  0  0  0  0  0
    0.2794   -2.7902  -12.4447 C   0  0  0  0  0  0  0  0  0  0  0  0
   -0.2262   -3.9483  -12.3089 O   0  0  0  0  0  0  0  0  0  0  0  0
   -0.2020   -1.7089  -11.6603 O   0  5  0  0  0  0  0  0  0  0  0  0
   -0.2214   -2.0576  -15.1405 C   0  0  0  0  0  0  0  0  0  0  0  0
    0.0478   -3.0157  -16.2767 C   0  0  0  0  0  0  0  0  0  0  0  0
    0.3595   -2.3526  -17.5373 N   0  0  0  0  0  0  0  0  0  0  0  0
   -0.5994   -1.2573  -17.7417 C   0  0  0  0  0  0  0  0  0  0  0  0
   -0.4367   -0.2284  -16.6347 C   0  0  0  0  0  0  0  0  0  0  0  0
   -0.1265    0.9702  -16.9218 O   0  0  0  0  0  0  0  0  0  0  0  0
   -0.6314   -0.6063  -15.2799 O   0  5  0  0  0  0  0  0  0  0  0  0
    1.7200   -1.7976  -17.5667 C   0  0  0  0  0  0  0  0  0  0  0  0
    1.8159   -0.6067  -18.5012 C   0  0  0  0  0  0  0  0  0  0  0  0
   -0.7011    3.1030  -14.0789 C   0  0  0  0  0  0  0  0  0  0  0  0
   -0.3361    2.8369  -12.6232 C   0  0  0  0  0  0  0  0  0  0  0  0
   -2.7684    2.1533   -4.2758 C   0  0  0  0  0  0  0  0  0  0  0  0
   -3.9354    1.6515   -4.2392 O   0  0  0  0  0  0  0  0  0  0  0  0
   -1.7652    1.5591   -5.0863 O   0  0  0  0  0  0  0  0  0  0  0  0
   -3.5569    3.9415   -2.8932 C   0  0  0  0  0  0  0  0  0  0  0  0
   -3.9285    3.0950   -3.7653 O   0  0  0  0  0  0  0  0  0  0  0  0
   -2.6824    4.9993   -3.2578 O   0  0  0  0  0  0  0  0  0  0  0  0
   -0.9308    4.3171   -0.7548 H   0  0  0  0  0  0  0  0  0  0  0  0
   -4.2106    4.9887    0.9613 H   0  0  0  0  0  0  0  0  0  0  0  0
   -4.3181    6.6091    0.3167 H   0  0  0  0  0  0  0  0  0  0  0  0
   -5.8586    5.1013   -0.8489 H   0  0  0  0  0  0  0  0  0  0  0  0
   -4.6247    5.6929   -1.9354 H   0  0  0  0  0  0  0  0  0  0  0  0
   -4.6927    2.9718   -1.3736 H   0  0  0  0  0  0  0  0  0  0  0  0
   -3.0548    3.7510    0.4442 H   0  0  0  0  0  0  0  0  0  0  0  0
   -0.4554    2.7727   -2.8553 H   0  0  0  0  0  0  0  0  0  0  0  0
   -3.3172    3.6933   -2.9095 H   0  0  0  0  0  0  0  0  0  0  0  0
   -2.7954    4.7387   -5.0637 H   0  0  0  0  0  0  0  0  0  0  0  0
   -1.7805    5.3839   -3.7961 H   0  0  0  0  0  0  0  0  0  0  0  0
   -0.4610    4.8735   -5.7970 H   0  0  0  0  0  0  0  0  0  0  0  0
    0.0181    3.8571   -4.4589 H   0  0  0  0  0  0  0  0  0  0  0  0
   -0.2214    2.5421   -6.5129 H   0  0  0  0  0  0  0  0  0  0  0  0
   -1.4013    2.0545   -5.3200 H   0  0  0  0  0  0  0  0  0  0  0  0
   -2.4385    2.2953   -7.5272 H   0  0  0  0  0  0  0  0  0  0  0  0
   -3.0826    3.4694   -6.4048 H   0  0  0  0  0  0  0  0  0  0  0  0
   -1.5315    5.1610   -7.4533 H   0  0  0  0  0  0  0  0  0  0  0  0
   -2.2423    2.7629  -10.9268 H   0  0  0  0  0  0  0  0  0  0  0  0
   -4.1952    2.6109   -9.6284 H   0  0  0  0  0  0  0  0  0  0  0  0
   -3.3957    1.0805   -9.3605 H   0  0  0  0  0  0  0  0  0  0  0  0
   -3.7826    0.4044   -7.1714 H   0  0  0  0  0  0  0  0  0  0  0  0
   -3.9510    0.8833   -4.7982 H   0  0  0  0  0  0  0  0  0  0  0  0
   -3.5268    2.4140   -2.8925 H   0  0  0  0  0  0  0  0  0  0  0  0
   -3.0342    4.6556   -2.0263 H   0  0  0  0  0  0  0  0  0  0  0  0
   -2.4787    6.4626   -3.6197 H   0  0  0  0  0  0  0  0  0  0  0  0
   -2.5156    6.0944   -5.9956 H   0  0  0  0  0  0  0  0  0  0  0  0
   -2.8139    4.4789   -7.9597 H   0  0  0  0  0  0  0  0  0  0  0  0
   -0.6670    1.5320   -8.6810 H   0  0  0  0  0  0  0  0  0  0  0  0
   -1.7846    1.3510  -12.2356 H   0  0  0  0  0  0  0  0  0  0  0  0
    0.9868    0.4722  -13.0400 H   0  0  0  0  0  0  0  0  0  0  0  0
   -0.4094   -0.5838  -12.8643 H   0  0  0  0  0  0  0  0  0  0  0  0
    0.0663   -0.0245  -15.2018 H   0  0  0  0  0  0  0  0  0  0  0  0
   -1.5148    0.5612  -14.6889 H   0  0  0  0  0  0  0  0  0  0  0  0
    1.0041    2.1773  -14.9503 H   0  0  0  0  0  0  0  0  0  0  0  0
   -0.4402    1.4205  -16.9889 H   0  0  0  0  0  0  0  0  0  0  0  0
   -1.5455    2.6620  -16.4504 H   0  0  0  0  0  0  0  0  0  0  0  0
    0.3762    4.2894  -16.6106 H   0  0  0  0  0  0  0  0  0  0  0  0
    0.0892    1.4383  -19.1270 H   0  0  0  0  0  0  0  0  0  0  0  0
    1.7427    1.6072  -19.6658 H   0  0  0  0  0  0  0  0  0  0  0  0
    3.1737    0.2905  -16.6804 H   0  0  0  0  0  0  0  0  0  0  0  0
    3.3331    1.6499  -17.8344 H   0  0  0  0  0  0  0  0  0  0  0  0
    3.3400    2.6712  -15.8287 H   0  0  0  0  0  0  0  0  0  0  0  0
    1.6149    2.7293  -16.2541 H   0  0  0  0  0  0  0  0  0  0  0  0
    2.0879    1.9380  -12.6961 H   0  0  0  0  0  0  0  0  0  0  0  0
    3.2494    2.8369  -13.6428 H   0  0  0  0  0  0  0  0  0  0  0  0
    0.1068    1.6497  -14.3377 H   0  0  0  0  0  0  0  0  0  0  0  0
    0.5013    0.5793  -15.6815 H   0  0  0  0  0  0  0  0  0  0  0  0
    1.3992   -0.1673  -12.9828 H   0  0  0  0  0  0  0  0  0  0  0  0
   -0.3175   -0.3484  -13.3631 H   0  0  0  0  0  0  0  0  0  0  0  0
    1.6279   -3.4835  -13.9414 H   0  0  0  0  0  0  0  0  0  0  0  0
    2.2692   -2.2073  -12.9349 H   0  0  0  0  0  0  0  0  0  0  0  0
   -0.7853   -2.6072  -14.4160 H   0  0  0  0  0  0  0  0  0  0  0  0
   -0.7438   -1.2122  -15.5372 H   0  0  0  0  0  0  0  0  0  0  0  0
    0.9071   -3.5923  -16.0043 H   0  0  0  0  0  0  0  0  0  0  0  0
   -0.8210   -3.6236  -16.4198 H   0  0  0  0  0  0  0  0  0  0  0  0
   -0.4156   -0.7944  -18.6887 H   0  0  0  0  0  0  0  0  0  0  0  0
   -1.5956   -1.6472  -17.7226 H   0  0  0  0  0  0  0  0  0  0  0  0
    1.9697   -1.4697  -16.5792 H   0  0  0  0  0  0  0  0  0  0  0  0
    2.3975   -2.5559  -17.8997 H   0  0  0  0  0  0  0  0  0  0  0  0
    1.0920   -0.7401  -19.2778 H   0  0  0  0  0  0  0  0  0  0  0  0
    2.8086   -0.5589  -18.8974 H   0  0  0  0  0  0  0  0  0  0  0  0
   -0.3397    4.0741  -14.3459 H   0  0  0  0  0  0  0  0  0  0  0  0
   -1.7645    3.0525  -14.1866 H   0  0  0  0  0  0  0  0  0  0  0  0
   -0.8792    3.5270  -12.0120 H   0  0  0  0  0  0  0  0  0  0  0  0
    0.7193    2.9646  -12.5016 H   0  0  0  0  0  0  0  0  0  0  0  0
   -1.9770    0.7458   -5.6283 H   0  0  0  0  0  0  0  0  0  0  0  0
   -2.3590    5.0781   -4.2007 H   0  0  0  0  0  0  0  0  0  0  0  0
  2  3  1  0  0  0  0
  2 76  1  0  0  0  0
  3  4  2  0  0  0  0
  3  5  1  0  0  0  0
  5  6  1  0  0  0  0
  5 77  1  0  0  0  0
  5 78  1  0  0  0  0
  6 79  1  0  0  0  0
  6 80  1  0  0  0  0
  7 73  1  0  0  0  0
  7 81  1  1  0  0  0
  7  8  1  0  0  0  0
  7  6  1  0  0  0  0
  8  9  1  0  0  0  0
  8 82  1  0  0  0  0
  9 10  2  0  0  0  0
  9 11  1  0  0  0  0
 11 83  1  0  0  0  0
 12 11  1  0  0  0  0
 12 13  1  0  0  0  0
 12 70  1  0  0  0  0
 12 84  1  1  0  0  0
 13 14  1  0  0  0  0
 13 85  1  0  0  0  0
 13 86  1  0  0  0  0
 14 15  1  0  0  0  0
 14 87  1  0  0  0  0
 14 88  1  0  0  0  0
 15 16  1  0  0  0  0
 15 89  1  0  0  0  0
 15 90  1  0  0  0  0
 16 17  1  0  0  0  0
 16 91  1  0  0  0  0
 16 92  1  0  0  0  0
 17 18  1  0  0  0  0
 17 93  1  0  0  0  0
 18 19  2  0  0  0  0
 20 32  1  0  0  0  0
 20 94  1  6  0  0  0
 20 21  1  0  0  0  0
 20 18  1  0  0  0  0
 21 22  1  0  0  0  0
 21 95  1  0  0  0  0
 21 96  1  0  0  0  0
 22 23  1  0  0  0  0
 22 31  2  0  0  0  0
 23 24  2  0  0  0  0
 23 97  1  0  0  0  0
 24 25  1  0  0  0  0
 24 98  1  0  0  0  0
 25 26  2  0  0  0  0
 25 30  1  0  0  0  0
 26 27  1  0  0  0  0
 26 99  1  0  0  0  0
 27 28  2  0  0  0  0
 27100  1  0  0  0  0
 28 29  1  0  0  0  0
 28101  1  0  0  0  0
 29 30  2  0  0  0  0
 29102  1  0  0  0  0
 30 31  1  0  0  0  0
 31103  1  0  0  0  0
 32 33  1  0  0  0  0
 32104  1  0  0  0  0
 33 34  2  0  0  0  0
 35 33  1  0  0  0  0
 35 36  1  0  0  0  0
 35 69  1  0  0  0  0
 35105  1  6  0  0  0
 36 37  1  0  0  0  0
 36106  1  0  0  0  0
 36107  1  0  0  0  0
 37108  1  0  0  0  0
 37109  1  0  0  0  0
 38 37  1  0  0  0  0
 38 68  1  0  0  0  0
 38110  1  1  0  0  0
 38 39  1  0  0  0  0
 39 40  1  0  0  0  0
 39111  1  0  0  0  0
 39112  1  0  0  0  0
 40 41  1  0  0  0  0
 40113  1  0  0  0  0
 41 42  2  0  0  0  0
 41 43  1  0  0  0  0
 43 44  1  0  0  0  0
 43114  1  0  0  0  0
 43115  1  0  0  0  0
 44 45  1  0  0  0  0
 44 67  1  0  0  0  0
 45 46  1  0  0  0  0
 45116  1  0  0  0  0
 45117  1  0  0  0  0
 46 47  1  0  0  0  0
 46118  1  0  0  0  0
 46119  1  0  0  0  0
 47 48  1  0  0  0  0
 47 52  1  0  0  0  0
 48 49  1  0  0  0  0
 48120  1  0  0  0  0
 48121  1  0  0  0  0
 49 50  2  0  0  0  0
 49 51  1  0  0  0  0
 52 53  1  0  0  0  0
 52122  1  0  0  0  0
 52123  1  0  0  0  0
 53 54  1  0  0  0  0
 53124  1  0  0  0  0
 53125  1  0  0  0  0
 54 55  1  0  0  0  0
 54 59  1  0  0  0  0
 55 56  1  0  0  0  0
 55126  1  0  0  0  0
 55127  1  0  0  0  0
 56 57  2  0  0  0  0
 56 58  1  0  0  0  0
 59 60  1  0  0  0  0
 59128  1  0  0  0  0
 59129  1  0  0  0  0
 60 61  1  0  0  0  0
 60130  1  0  0  0  0
 60131  1  0  0  0  0
 61 62  1  0  0  0  0
 61 66  1  0  0  0  0
 62 63  1  0  0  0  0
 62132  1  0  0  0  0
 62133  1  0  0  0  0
 63 64  2  0  0  0  0
 63 65  1  0  0  0  0
 66 67  1  0  0  0  0
 66134  1  0  0  0  0
 66135  1  0  0  0  0
 67136  1  0  0  0  0
 67137  1  0  0  0  0
 68 69  1  0  0  0  0
 68138  1  0  0  0  0
 68139  1  0  0  0  0
 69140  1  0  0  0  0
 69141  1  0  0  0  0
 70 71  2  0  0  0  0
 70 72  1  0  0  0  0
 72142  1  0  0  0  0
 73 74  2  0  0  0  0
 73 75  1  0  0  0  0
 75143  1  0  0  0  0
M  ISO  1   1 177
M  CHG  4   1   3  51  -1  58  -1  65  -1
M  END
>  <DRUGBANK_ID>
DB16778

>  <COMMON_NAME>
Lutetium Lu-177 vipivotide tetraxetan

>  <CAS_NUMBER>
1703749-62-5

>  <UNII>
G6UF363ECX

>  <SYNONYMS>
177Lu-PSMA-617

$$$$
