
 OpenBabel10282417223D

529536  0  0  0  0  0  0  0  0999 V2000
    7.8027  -18.2983    1.7290 C   0  0  0  0  0  0  0  0  0  0  0  0
    6.2719  -18.8608    2.9459 C   0  0  2  0  0  0  0  0  0  0  0  0
    6.8287  -19.9704    3.1416 N   0  0  0  0  0  0  0  0  0  0  0  0
    8.2776  -21.0266    3.4833 C   0  0  0  0  0  0  0  0  0  0  0  0
    9.4486  -21.3963    3.4506 C   0  0  2  0  0  0  0  0  0  0  0  0
   10.2409  -21.9975    2.1277 C   0  0  0  0  0  0  0  0  0  0  0  0
    9.0867  -22.7558    1.5057 C   0  0  0  0  0  0  0  0  0  0  0  0
    9.3483  -23.1905    0.2459 C   0  0  0  0  0  0  0  0  0  0  0  0
    8.3181  -23.8608   -0.3990 C   0  0  0  0  0  0  0  0  0  0  0  0
    7.1498  -24.1159    0.3145 C   0  0  0  0  0  0  0  0  0  0  0  0
    6.9338  -23.5961    1.5777 C   0  0  0  0  0  0  0  0  0  0  0  0
    7.8908  -22.8885    2.1426 C   0  0  0  0  0  0  0  0  0  0  0  0
    6.1661  -24.8956   -0.1995 O   0  0  0  0  0  0  0  0  0  0  0  0
    9.5462  -22.4731    3.9181 N   0  0  0  0  0  0  0  0  0  0  0  0
   10.9127  -22.3739    5.1451 C   0  0  0  0  0  0  0  0  0  0  0  0
   10.4568  -23.9156    6.2583 C   0  0  1  0  0  0  0  0  0  0  0  0
   11.3344  -24.6283    6.6907 N   0  0  0  0  0  0  0  0  0  0  0  0
   12.3540  -24.1880    7.7378 C   0  0  0  0  0  0  0  0  0  0  0  0
   13.4203  -24.6034    8.3419 C   0  0  1  0  0  0  0  0  0  0  0  0
   13.5003  -23.3249    8.5559 N   0  0  0  0  0  0  0  0  0  0  0  0
   11.6077  -22.6342    7.3602 C   0  0  0  0  0  0  0  0  0  0  0  0
   12.9739  -22.7878    8.8149 O   0  0  0  0  0  0  0  0  0  0  0  0
    9.2116  -22.3121    5.3265 C   0  0  1  0  0  0  0  0  0  0  0  0
    7.1340  -21.3706    2.8673 N   0  0  0  0  0  0  0  0  0  0  0  0
    5.1938  -20.2207    0.5011 C   0  0  0  0  0  0  0  0  0  0  0  0
    4.2025  -18.8911   -0.8832 O   0  0  0  0  0  0  0  0  0  0  0  0
    3.3420  -19.3920   -1.8646 C   0  0  2  0  0  0  0  0  0  0  0  0
    1.1707  -18.3268   -1.9062 C   0  0  0  0  0  0  0  0  0  0  0  0
    0.0749  -17.4778   -1.9916 C   0  0  0  0  0  0  0  0  0  0  0  0
   -0.3408  -16.9325   -0.8327 C   0  0  0  0  0  0  0  0  0  0  0  0
   -1.3128  -15.9690   -0.8549 C   0  0  0  0  0  0  0  0  0  0  0  0
   -1.9260  -15.6072   -2.0169 C   0  0  0  0  0  0  0  0  0  0  0  0
   -1.4202  -16.1308   -3.1549 C   0  0  0  0  0  0  0  0  0  0  0  0
   -0.5382  -17.2065   -3.1765 C   0  0  0  0  0  0  0  0  0  0  0  0
    2.9594  -19.9429   -3.7938 N   0  0  0  0  0  0  0  0  0  0  0  0
    3.4931  -20.3212   -2.1496 C   0  0  0  0  0  0  0  0  0  0  0  0
    3.2289  -20.4012   -0.8226 O   0  0  0  0  0  0  0  0  0  0  0  0
    4.6645  -21.4559   -2.2294 C   0  0  2  0  0  0  0  0  0  0  0  0
    4.1278  -22.4384   -1.2503 C   0  0  0  0  0  0  0  0  0  0  0  0
    2.6530  -22.5590   -0.9708 C   0  0  0  0  0  0  0  0  0  0  0  0
    1.9213  -22.8383   -2.1129 C   0  0  0  0  0  0  0  0  0  0  0  0
    2.3513  -23.7635   -3.1119 N   0  0  0  0  0  0  0  0  0  0  0  0
    1.4224  -24.7572   -3.5302 C   0  0  0  0  0  0  0  0  0  0  0  0
    1.8259  -25.7809   -4.2360 N   0  0  0  0  0  0  0  0  0  0  0  0
    0.0263  -24.6504   -3.1549 N   0  0  0  0  0  0  0  0  0  0  0  0
    5.9740  -20.9023   -1.9357 N   0  0  0  0  0  0  0  0  0  0  0  0
    6.3734  -21.4502   -0.5881 C   0  0  0  0  0  0  0  0  0  0  0  0
    5.9278  -22.1369    0.2060 O   0  0  0  0  0  0  0  0  0  0  0  0
    7.8823  -20.5014    0.0175 C   0  0  2  0  0  0  0  0  0  0  0  0
    8.7813  -21.3382   -0.1493 C   0  0  0  0  0  0  0  0  0  0  0  0
    9.3136  -20.7416   -1.3549 C   0  0  0  0  0  0  0  0  0  0  0  0
   10.0550  -19.4142   -1.0509 C   0  0  0  0  0  0  0  0  0  0  0  0
   11.3900  -19.3024   -1.3742 O   0  0  0  0  0  0  0  0  0  0  0  0
    9.4976  -18.4981   -0.4617 O   0  0  0  0  0  0  0  0  0  0  0  0
    7.5263  -19.8948    0.9390 N   0  0  0  0  0  0  0  0  0  0  0  0
    8.0962  -20.3425    1.9296 C   0  0  0  0  0  0  0  0  0  0  0  0
    7.8672  -19.7238    4.3161 C   0  0  1  0  0  0  0  0  0  0  0  0
    7.6371  -20.9702    4.9875 N   0  0  0  0  0  0  0  0  0  0  0  0
    8.4145  -21.0416    5.9193 C   0  0  0  0  0  0  0  0  0  0  0  0
    8.2185  -22.4657    6.5028 C   0  0  2  0  0  0  0  0  0  0  0  0
    8.9099  -23.4834    6.6318 C   0  0  0  0  0  0  0  0  0  0  0  0
   10.2835  -22.0277    6.8790 C   0  0  0  0  0  0  0  0  0  0  0  0
   10.2856  -22.5245    9.1197 C   0  0  0  0  0  0  0  0  0  0  0  0
   10.0980  -23.3812    9.9952 C   0  0  0  0  0  0  0  0  0  0  0  0
   10.9052  -24.6841    9.9156 N   0  0  0  0  0  0  0  0  0  0  0  0
   11.8432  -24.3583   10.2687 C   0  0  0  0  0  0  0  0  0  0  0  0
   10.8056  -23.7102    7.8816 C   0  0  0  0  0  0  0  0  0  0  0  0
   11.6974  -24.1458   11.8624 O   0  0  0  0  0  0  0  0  0  0  0  0
    6.9831  -23.0983    6.1246 N   0  0  0  0  0  0  0  0  0  0  0  0
    5.8632  -23.2096    7.2039 C   0  0  0  0  0  0  0  0  0  0  0  0
    4.6724  -23.9084    6.7269 C   0  0  0  0  0  0  0  0  0  0  0  0
    5.9134  -22.7234    8.3706 O   0  0  0  0  0  0  0  0  0  0  0  0
    9.2403  -20.5218    6.6575 O   0  0  0  0  0  0  0  0  0  0  0  0
    9.3770  -19.4643    4.7650 C   0  0  0  0  0  0  0  0  0  0  0  0
   10.2117  -20.2417    4.9270 C   0  0  0  0  0  0  0  0  0  0  0  0
   10.3082  -17.9716    2.9092 C   0  0  0  0  0  0  0  0  0  0  0  0
    8.9250  -21.1228    1.9349 O   0  0  0  0  0  0  0  0  0  0  0  0
   14.5257  -22.3025    8.2463 C   0  0  0  0  0  0  0  0  0  0  0  0
   13.2308  -25.8422    8.8129 C   0  0  0  0  0  0  0  0  0  0  0  0
   12.2943  -26.9139    8.7766 C   0  0  0  0  0  0  0  0  0  0  0  0
   12.8175  -28.1569    8.5908 O   0  0  0  0  0  0  0  0  0  0  0  0
   11.0940  -26.6363    8.5149 O   0  0  0  0  0  0  0  0  0  0  0  0
   11.6917  -23.3938    9.1420 O   0  0  0  0  0  0  0  0  0  0  0  0
    9.2606  -22.9756    8.0470 C   0  0  0  0  0  0  0  0  0  0  0  0
    7.7976  -22.7692    8.0954 C   0  0  0  0  0  0  0  0  0  0  0  0
    9.2359  -24.5378    8.7022 C   0  0  0  0  0  0  0  0  0  0  0  0
   10.5176  -21.2676    8.3474 C   0  0  0  0  0  0  0  0  0  0  0  0
   11.1375  -21.2812    5.7620 O   0  0  0  0  0  0  0  0  0  0  0  0
    8.6853  -20.0250    3.1756 O   0  0  0  0  0  0  0  0  0  0  0  0
    6.1178  -19.0962    0.9463 C   0  0  0  0  0  0  0  0  0  0  0  0
    5.0879  -18.5009    0.3792 N   0  0  0  0  0  0  0  0  0  0  0  0
    4.9586  -19.7160   -1.3510 C   0  0  2  0  0  0  0  0  0  0  0  0
    5.0570  -18.5820   -2.5838 C   0  0  0  0  0  0  0  0  0  0  0  0
    5.3867  -18.8900   -3.8258 N   0  0  0  0  0  0  0  0  0  0  0  0
    5.8090  -17.7390   -4.5844 C   0  0  2  0  0  0  0  0  0  0  0  0
    5.6678  -16.4537   -3.7583 C   0  0  0  0  0  0  0  0  0  0  0  0
    4.7481  -15.6565   -4.0711 O   0  0  0  0  0  0  0  0  0  0  0  0
    6.5534  -16.1890   -2.6370 N   0  0  0  0  0  0  0  0  0  0  0  0
    8.0053  -16.3469   -2.5842 C   0  0  2  0  0  0  0  0  0  0  0  0
    8.5273  -17.3377   -3.6035 C   0  0  0  0  0  0  0  0  0  0  0  0
    7.8579  -18.6179   -3.7617 N   0  0  0  0  0  0  0  0  0  0  0  0
    8.4364  -19.5123   -4.7722 C   0  0  2  0  0  0  0  0  0  0  0  0
    9.9464  -19.5631   -4.4986 C   0  0  0  0  0  0  0  0  0  0  0  0
   10.8618  -19.6319   -5.6056 N   0  0  0  0  0  0  0  0  0  0  0  0
   12.3160  -19.6659   -5.3651 C   0  0  1  0  0  0  0  0  0  0  0  0
   12.8936  -20.9462   -5.9458 C   0  0  0  0  0  0  0  0  0  0  0  0
   12.6525  -20.9881   -7.4426 C   0  0  0  0  0  0  0  0  0  0  0  0
   13.3521  -19.8661   -8.1332 C   0  0  0  0  0  0  0  0  0  0  0  0
   14.8136  -19.8385   -7.8386 C   0  0  0  0  0  0  0  0  0  0  0  0
   15.3863  -21.0780   -8.3953 N   0  0  0  0  0  0  0  0  0  0  0  0
   16.4090  -21.0082   -9.3620 C   0  0  0  0  0  0  0  0  0  0  0  0
   17.0222  -22.2758   -9.9583 C   0  0  0  0  0  0  0  0  0  0  0  0
   17.5343  -22.3393  -11.3604 C   0  0  0  0  0  0  0  0  0  0  0  0
   17.4258  -21.1569  -12.1353 O   0  0  0  0  0  0  0  0  0  0  0  0
   16.8558  -20.0022  -11.6336 C   0  0  0  0  0  0  0  0  0  0  0  0
   15.4480  -19.9247  -11.0627 C   0  0  0  0  0  0  0  0  0  0  0  0
   14.6400  -21.0712  -11.1395 O   0  0  0  0  0  0  0  0  0  0  0  0
   14.4847  -22.2550  -11.8356 C   0  0  0  0  0  0  0  0  0  0  0  0
   15.7805  -22.3363  -13.1851 C   0  0  0  0  0  0  0  0  0  0  0  0
   15.7167  -21.1882  -13.9545 O   0  0  0  0  0  0  0  0  0  0  0  0
   15.0289  -20.0023  -14.1113 C   0  0  0  0  0  0  0  0  0  0  0  0
   13.6618  -19.9168  -12.8255 C   0  0  0  0  0  0  0  0  0  0  0  0
   12.8820  -21.0614  -12.9076 O   0  0  0  0  0  0  0  0  0  0  0  0
   12.7339  -22.2454  -13.6145 C   0  0  0  0  0  0  0  0  0  0  0  0
   14.0347  -22.3302  -14.9511 C   0  0  0  0  0  0  0  0  0  0  0  0
   13.9677  -21.1825  -15.7263 O   0  0  0  0  0  0  0  0  0  0  0  0
   13.2697  -19.9933  -15.8771 C   0  0  0  0  0  0  0  0  0  0  0  0
   11.9179  -19.9079  -14.5917 C   0  0  0  0  0  0  0  0  0  0  0  0
   11.1373  -21.0520  -14.6736 O   0  0  0  0  0  0  0  0  0  0  0  0
   10.9889  -22.2362  -15.3802 C   0  0  0  0  0  0  0  0  0  0  0  0
   12.2901  -22.3213  -16.7168 C   0  0  0  0  0  0  0  0  0  0  0  0
   12.2231  -21.1733  -17.4920 O   0  0  0  0  0  0  0  0  0  0  0  0
   11.5249  -19.9843  -17.6429 C   0  0  0  0  0  0  0  0  0  0  0  0
   10.1732  -19.8988  -16.3573 C   0  0  0  0  0  0  0  0  0  0  0  0
    9.3928  -21.0429  -16.4393 O   0  0  0  0  0  0  0  0  0  0  0  0
    9.2443  -22.2271  -17.1458 C   0  0  0  0  0  0  0  0  0  0  0  0
   10.5455  -22.3123  -18.4824 C   0  0  0  0  0  0  0  0  0  0  0  0
   10.4786  -21.1642  -19.2576 O   0  0  0  0  0  0  0  0  0  0  0  0
    9.7803  -19.9752  -19.4085 C   0  0  0  0  0  0  0  0  0  0  0  0
    8.4286  -19.8898  -18.1229 C   0  0  0  0  0  0  0  0  0  0  0  0
    7.6483  -21.0337  -18.2049 O   0  0  0  0  0  0  0  0  0  0  0  0
    7.4996  -22.2180  -18.9113 C   0  0  0  0  0  0  0  0  0  0  0  0
    8.8009  -22.3032  -20.2480 C   0  0  0  0  0  0  0  0  0  0  0  0
    8.7340  -21.1550  -21.0232 O   0  0  0  0  0  0  0  0  0  0  0  0
    8.0357  -19.9661  -21.1741 C   0  0  0  0  0  0  0  0  0  0  0  0
    6.6840  -19.8807  -19.8886 C   0  0  0  0  0  0  0  0  0  0  0  0
    5.9037  -21.0246  -19.9705 O   0  0  0  0  0  0  0  0  0  0  0  0
    5.7550  -22.2089  -20.6769 C   0  0  0  0  0  0  0  0  0  0  0  0
    7.0563  -22.2941  -22.0136 C   0  0  0  0  0  0  0  0  0  0  0  0
    6.9895  -21.1459  -22.7888 O   0  0  0  0  0  0  0  0  0  0  0  0
    6.2911  -19.9570  -22.9397 C   0  0  0  0  0  0  0  0  0  0  0  0
    4.9394  -19.8716  -21.6541 C   0  0  0  0  0  0  0  0  0  0  0  0
    4.1591  -21.0156  -21.7361 O   0  0  0  0  0  0  0  0  0  0  0  0
    4.0107  -22.1999  -22.4436 C   0  0  0  0  0  0  0  0  0  0  0  0
    5.3125  -22.2850  -23.7739 C   0  0  0  0  0  0  0  0  0  0  0  0
    5.2450  -21.1370  -24.5547 O   0  0  0  0  0  0  0  0  0  0  0  0
    4.5464  -19.9477  -24.7053 C   0  0  0  0  0  0  0  0  0  0  0  0
    3.1979  -19.8618  -23.4202 C   0  0  0  0  0  0  0  0  0  0  0  0
    2.4277  -21.0087  -23.5074 O   0  0  0  0  0  0  0  0  0  0  0  0
    2.2825  -22.1913  -24.2447 C   0  0  0  0  0  0  0  0  0  0  0  0
    3.4692  -22.2577  -25.4621 C   0  0  0  0  0  0  0  0  0  0  0  0
    3.4957  -21.1350  -26.3137 O   0  0  0  0  0  0  0  0  0  0  0  0
    2.8029  -19.9327  -26.4701 C   0  0  0  0  0  0  0  0  0  0  0  0
    1.5155  -19.8009  -25.2138 C   0  0  0  0  0  0  0  0  0  0  0  0
    0.9077  -20.9236  -25.4246 O   0  0  0  0  0  0  0  0  0  0  0  0
    1.1516  -22.2795  -26.3965 C   0  0  0  0  0  0  0  0  0  0  0  0
    1.6758  -22.2511  -27.4602 C   0  0  0  0  0  0  0  0  0  0  0  0
    1.7808  -21.1105  -28.0641 O   0  0  0  0  0  0  0  0  0  0  0  0
    1.0608  -19.9087  -28.2473 C   0  0  0  0  0  0  0  0  0  0  0  0
   -0.2582  -19.7594  -26.9630 C   0  0  0  0  0  0  0  0  0  0  0  0
   -1.0347  -20.7701  -26.8747 O   0  0  0  0  0  0  0  0  0  0  0  0
   -0.6981  -22.6165  -27.0941 C   0  0  0  0  0  0  0  0  0  0  0  0
    0.0405  -22.2215  -29.2823 C   0  0  0  0  0  0  0  0  0  0  0  0
    0.0302  -21.0796  -29.8823 O   0  0  0  0  0  0  0  0  0  0  0  0
   -0.6855  -19.9123  -30.0078 C   0  0  0  0  0  0  0  0  0  0  0  0
   -2.0622  -19.7891  -28.7187 C   0  0  0  0  0  0  0  0  0  0  0  0
   -2.8832  -20.8272  -28.8089 O   0  0  0  0  0  0  0  0  0  0  0  0
   -2.5919  -21.9639  -28.8880 C   0  0  0  0  0  0  0  0  0  0  0  0
   -1.6653  -22.0795  -31.0066 C   0  0  0  0  0  0  0  0  0  0  0  0
   -1.7246  -21.0182  -31.6603 O   0  0  0  0  0  0  0  0  0  0  0  0
   -2.4795  -19.9006  -31.7705 C   0  0  0  0  0  0  0  0  0  0  0  0
   -3.8927  -19.8522  -31.2450 C   0  0  0  0  0  0  0  0  0  0  0  0
   -4.5295  -20.9251  -30.6306 O   0  0  0  0  0  0  0  0  0  0  0  0
   -4.7094  -22.1073  -31.3547 C   0  0  0  0  0  0  0  0  0  0  0  0
   -4.2994  -22.1205  -32.7368 C   0  0  0  0  0  0  0  0  0  0  0  0
   -3.5378  -21.0759  -33.3806 N   0  0  0  0  0  0  0  0  0  0  0  0
   -2.5076  -21.2336  -34.3476 C   0  0  0  0  0  0  0  0  0  0  0  0
   -1.9569  -20.2545  -34.8826 O   0  0  0  0  0  0  0  0  0  0  0  0
   -2.1003  -22.6515  -34.7434 C   0  0  0  0  0  0  0  0  0  0  0  0
   -1.5645  -23.4045  -33.5479 C   0  0  0  0  0  0  0  0  0  0  0  0
   -2.6045  -23.5912  -32.5295 C   0  0  1  0  0  0  0  0  0  0  0  0
   -3.8627  -24.3787  -33.0385 C   0  0  0  0  0  0  0  0  0  0  0  0
   -4.2835  -25.3002  -32.4541 O   0  0  0  0  0  0  0  0  0  0  0  0
   -4.5551  -23.7506  -34.1948 O   0  0  0  0  0  0  0  0  0  0  0  0
   -2.1565  -24.3691  -31.2747 N   0  0  0  0  0  0  0  0  0  0  0  0
   -2.1086  -23.7775  -30.0272 C   0  0  0  0  0  0  0  0  0  0  0  0
   -1.5380  -24.3292  -28.7863 C   0  0  0  0  0  0  0  0  0  0  0  0
   -0.2977  -23.7713  -28.3352 C   0  0  0  0  0  0  0  0  0  0  0  0
   -0.9864  -21.6797  -28.1021 C   0  0  0  0  0  0  0  0  0  0  0  0
   -2.2428  -22.0944  -26.5209 C   0  0  0  0  0  0  0  0  0  0  0  0
   -1.3361  -22.9500  -25.4237 C   0  0  0  0  0  0  0  0  0  0  0  0
   -0.2996  -22.2272  -24.7763 C   0  0  0  0  0  0  0  0  0  0  0  0
   -0.5831  -20.7832  -24.4963 C   0  0  0  0  0  0  0  0  0  0  0  0
   -1.5622  -20.8593  -23.4997 C   0  0  0  0  0  0  0  0  0  0  0  0
   -1.0178  -21.6002  -22.2990 C   0  0  0  0  0  0  0  0  0  0  0  0
    0.1862  -20.8679  -21.7450 C   0  0  0  0  0  0  0  0  0  0  0  0
   -0.2130  -19.4650  -21.3392 C   0  0  0  0  0  0  0  0  0  0  0  0
   -1.2878  -19.5331  -20.2732 C   0  0  0  0  0  0  0  0  0  0  0  0
   -0.7569  -20.2700  -19.0603 C   0  0  0  0  0  0  0  0  0  0  0  0
    0.4478  -19.5388  -18.5054 C   0  0  0  0  0  0  0  0  0  0  0  0
    0.0531  -18.1371  -18.1017 C   0  0  0  0  0  0  0  0  0  0  0  0
   -2.9486  -22.8779  -30.0861 O   0  0  0  0  0  0  0  0  0  0  0  0
   16.7754  -19.8272   -9.4649 O   0  0  0  0  0  0  0  0  0  0  0  0
   12.9914  -18.4409   -5.9765 C   0  0  0  0  0  0  0  0  0  0  0  0
   13.6976  -17.5516   -5.2140 O   0  0  0  0  0  0  0  0  0  0  0  0
   12.8860  -17.9950   -7.0825 O   0  0  0  0  0  0  0  0  0  0  0  0
   10.3590  -19.5475   -3.3341 O   0  0  0  0  0  0  0  0  0  0  0  0
    8.1797  -19.0313   -6.1868 C   0  0  0  0  0  0  0  0  0  0  0  0
    7.9285  -17.5398   -6.2092 C   0  0  0  0  0  0  0  0  0  0  0  0
    7.5727  -17.0497   -7.5587 C   0  0  0  0  0  0  0  0  0  0  0  0
    6.4398  -17.8718   -8.1456 C   0  0  0  0  0  0  0  0  0  0  0  0
    6.6300  -19.2761   -8.1623 C   0  0  0  0  0  0  0  0  0  0  0  0
    6.9990  -19.7867   -6.7871 C   0  0  0  0  0  0  0  0  0  0  0  0
    9.5557  -17.0759   -4.2578 O   0  0  0  0  0  0  0  0  0  0  0  0
    8.2146  -16.8167   -1.1795 C   0  0  0  0  0  0  0  0  0  0  0  0
    7.2631  -15.9511   -0.3414 C   0  0  0  0  0  0  0  0  0  0  0  0
    6.0890  -15.7065   -1.2819 C   0  0  0  0  0  0  0  0  0  0  0  0
    5.0476  -17.6123   -5.8666 C   0  0  0  0  0  0  0  0  0  0  0  0
    5.5034  -16.3556   -6.6467 C   0  0  0  0  0  0  0  0  0  0  0  0
    6.1068  -15.3329   -6.0231 C   0  0  0  0  0  0  0  0  0  0  0  0
    6.5972  -14.2431   -6.7141 C   0  0  0  0  0  0  0  0  0  0  0  0
    6.5224  -14.2505   -8.1125 C   0  0  0  0  0  0  0  0  0  0  0  0
    5.9319  -15.2875   -8.7952 C   0  0  0  0  0  0  0  0  0  0  0  0
    5.3542  -16.2361   -8.0802 C   0  0  0  0  0  0  0  0  0  0  0  0
    7.0025  -13.2364   -8.8702 O   0  0  0  0  0  0  0  0  0  0  0  0
    4.8882  -17.4524   -2.0473 O   0  0  0  0  0  0  0  0  0  0  0  0
    2.6107  -18.9915   -0.7882 C   0  0  0  0  0  0  0  0  0  0  0  0
    1.8413  -19.9484   -2.4274 C   0  0  0  0  0  0  0  0  0  0  0  0
    2.2391  -21.0732   -3.0068 C   0  0  0  0  0  0  0  0  0  0  0  0
    1.0404  -21.8763   -3.4843 O   0  0  0  0  0  0  0  0  0  0  0  0
    3.3332  -21.6545   -3.2243 O   0  0  0  0  0  0  0  0  0  0  0  0
    6.4204  -19.8482   -0.4514 O   0  0  0  0  0  0  0  0  0  0  0  0
    9.0512  -18.9181    1.8461 C   0  0  0  0  0  0  0  0  0  0  0  0
    9.7360  -19.0814    3.4704 C   0  0  0  0  0  0  0  0  0  0  0  0
   11.1348  -19.8591    3.4499 C   0  0  0  0  0  0  0  0  0  0  0  0
   11.1541  -20.4205    2.4000 N   0  0  0  0  0  0  0  0  0  0  0  0
    9.9003  -19.8017    1.2486 C   0  0  0  0  0  0  0  0  0  0  0  0
   11.8232  -20.5162    4.5601 N   0  0  0  0  0  0  0  0  0  0  0  0
   11.0266  -19.5717    6.2495 C   0  0  0  0  0  0  0  0  0  0  0  0
    9.9002  -18.8285    6.1477 C   0  0  0  0  0  0  0  0  0  0  0  0
    8.7744  -18.1753    4.3951 C   0  0  0  0  0  0  0  0  0  0  0  0
    7.8457  -17.4205    2.0420 H   0  0  0  0  0  0  0  0  0  0  0  0
    8.1398  -18.1971    0.5322 H   0  0  0  0  0  0  0  0  0  0  0  0
    5.8798  -18.5149    2.2275 H   0  0  0  0  0  0  0  0  0  0  0  0
    6.0971  -21.2246    2.5377 H   0  0  0  0  0  0  0  0  0  0  0  0
    9.7982  -20.6227    3.6766 H   0  0  0  0  0  0  0  0  0  0  0  0
   10.5230  -21.1781    1.3409 H   0  0  0  0  0  0  0  0  0  0  0  0
   11.0328  -22.3389    2.4082 H   0  0  0  0  0  0  0  0  0  0  0  0
   10.1991  -22.7825   -0.3002 H   0  0  0  0  0  0  0  0  0  0  0  0
    8.4684  -24.1792   -1.3979 H   0  0  0  0  0  0  0  0  0  0  0  0
    6.0182  -23.7781    2.0954 H   0  0  0  0  0  0  0  0  0  0  0  0
    7.7302  -22.4895    3.1363 H   0  0  0  0  0  0  0  0  0  0  0  0
    6.2903  -25.2837   -1.0942 H   0  0  0  0  0  0  0  0  0  0  0  0
    8.8523  -23.1392    4.1133 H   0  0  0  0  0  0  0  0  0  0  0  0
    9.4455  -24.6567    6.1636 H   0  0  0  0  0  0  0  0  0  0  0  0
   11.9288  -24.4287    6.0481 H   0  0  0  0  0  0  0  0  0  0  0  0
   13.7576  -24.9571    7.5253 H   0  0  0  0  0  0  0  0  0  0  0  0
   10.4894  -23.0753    7.0562 H   0  0  0  0  0  0  0  0  0  0  0  0
    5.8475  -20.6406    1.4298 H   0  0  0  0  0  0  0  0  0  0  0  0
    1.4467  -19.2640   -3.3162 H   0  0  0  0  0  0  0  0  0  0  0  0
    0.9602  -19.2062   -1.2104 H   0  0  0  0  0  0  0  0  0  0  0  0
    1.9484  -17.7377   -1.8945 H   0  0  0  0  0  0  0  0  0  0  0  0
    0.0834  -17.2557    0.0951 H   0  0  0  0  0  0  0  0  0  0  0  0
   -1.5917  -15.4875    0.0589 H   0  0  0  0  0  0  0  0  0  0  0  0
   -2.7676  -14.9451   -2.0391 H   0  0  0  0  0  0  0  0  0  0  0  0
   -1.7180  -15.6765   -4.0717 H   0  0  0  0  0  0  0  0  0  0  0  0
   -0.3503  -17.7818   -4.0752 H   0  0  0  0  0  0  0  0  0  0  0  0
    2.9021  -20.4633   -4.4401 H   0  0  0  0  0  0  0  0  0  0  0  0
    4.7796  -21.6064   -3.1997 H   0  0  0  0  0  0  0  0  0  0  0  0
    4.4771  -23.2547   -1.8193 H   0  0  0  0  0  0  0  0  0  0  0  0
    4.5822  -22.4051   -0.3263 H   0  0  0  0  0  0  0  0  0  0  0  0
    2.4502  -23.4484   -0.4488 H   0  0  0  0  0  0  0  0  0  0  0  0
    2.2920  -21.7140   -0.4082 H   0  0  0  0  0  0  0  0  0  0  0  0
    0.8448  -22.7015   -2.0765 H   0  0  0  0  0  0  0  0  0  0  0  0
    2.0959  -22.2353   -2.6015 H   0  0  0  0  0  0  0  0  0  0  0  0
    3.3453  -23.7892   -3.3792 H   0  0  0  0  0  0  0  0  0  0  0  0
    2.8168  -25.8497   -4.4974 H   0  0  0  0  0  0  0  0  0  0  0  0
   -0.3221  -23.8640   -2.6064 H   0  0  0  0  0  0  0  0  0  0  0  0
   -0.6517  -25.3727   -3.4392 H   0  0  0  0  0  0  0  0  0  0  0  0
    6.1149  -19.7950   -2.2172 H   0  0  0  0  0  0  0  0  0  0  0  0
    8.1980  -19.5617   -0.6538 H   0  0  0  0  0  0  0  0  0  0  0  0
    9.6166  -21.5414    0.4923 H   0  0  0  0  0  0  0  0  0  0  0  0
    8.2077  -22.1704   -0.2983 H   0  0  0  0  0  0  0  0  0  0  0  0
    9.9599  -21.4166   -1.8272 H   0  0  0  0  0  0  0  0  0  0  0  0
    8.4607  -20.5267   -1.9823 H   0  0  0  0  0  0  0  0  0  0  0  0
   11.8560  -20.0384   -1.8452 H   0  0  0  0  0  0  0  0  0  0  0  0
    7.1770  -19.4045   -0.4821 H   0  0  0  0  0  0  0  0  0  0  0  0
    7.3223  -19.0194    4.0302 H   0  0  0  0  0  0  0  0  0  0  0  0
    6.9395  -21.5687    4.5769 H   0  0  0  0  0  0  0  0  0  0  0  0
    8.4950  -21.6235    7.9336 H   0  0  0  0  0  0  0  0  0  0  0  0
    9.5014  -23.7126    5.4180 H   0  0  0  0  0  0  0  0  0  0  0  0
    9.1918  -24.3053    7.3065 H   0  0  0  0  0  0  0  0  0  0  0  0
   11.0747  -21.8770    6.7364 H   0  0  0  0  0  0  0  0  0  0  0  0
   11.8649  -23.1966    6.4098 H   0  0  0  0  0  0  0  0  0  0  0  0
    9.2295  -21.4808    8.8262 H   0  0  0  0  0  0  0  0  0  0  0  0
   11.4632  -21.4330    9.3816 H   0  0  0  0  0  0  0  0  0  0  0  0
    9.4785  -23.4867    9.4755 H   0  0  0  0  0  0  0  0  0  0  0  0
   10.0611  -23.0094   10.7305 H   0  0  0  0  0  0  0  0  0  0  0  0
   11.4456  -25.1540    8.7121 H   0  0  0  0  0  0  0  0  0  0  0  0
   12.1935  -24.7647    9.2502 H   0  0  0  0  0  0  0  0  0  0  0  0
   12.0688  -24.7063    9.4584 H   0  0  0  0  0  0  0  0  0  0  0  0
    7.0626  -23.5566    5.3546 H   0  0  0  0  0  0  0  0  0  0  0  0
    4.4441  -24.7374    7.3763 H   0  0  0  0  0  0  0  0  0  0  0  0
    3.8506  -23.2118    6.7410 H   0  0  0  0  0  0  0  0  0  0  0  0
    4.8192  -24.2678    5.7269 H   0  0  0  0  0  0  0  0  0  0  0  0
    9.4162  -17.9091    5.4300 H   0  0  0  0  0  0  0  0  0  0  0  0
   10.5288  -21.1754    4.3957 H   0  0  0  0  0  0  0  0  0  0  0  0
   11.2851  -19.3858    4.9568 H   0  0  0  0  0  0  0  0  0  0  0  0
    9.8810  -20.7186    5.4638 H   0  0  0  0  0  0  0  0  0  0  0  0
    9.3374  -17.7000    2.6840 H   0  0  0  0  0  0  0  0  0  0  0  0
   11.0482  -18.0758    3.3692 H   0  0  0  0  0  0  0  0  0  0  0  0
   10.4184  -19.1415    2.3243 H   0  0  0  0  0  0  0  0  0  0  0  0
   14.9225  -22.5823    7.3759 H   0  0  0  0  0  0  0  0  0  0  0  0
   13.5570  -21.7736    8.1107 H   0  0  0  0  0  0  0  0  0  0  0  0
   15.1007  -21.7174    8.9108 H   0  0  0  0  0  0  0  0  0  0  0  0
   14.2185  -26.2080    9.5633 H   0  0  0  0  0  0  0  0  0  0  0  0
   11.8867  -26.0169    9.6276 H   0  0  0  0  0  0  0  0  0  0  0  0
   13.7605  -28.3769    8.8100 H   0  0  0  0  0  0  0  0  0  0  0  0
    7.4121  -23.2883    7.4832 H   0  0  0  0  0  0  0  0  0  0  0  0
    7.5656  -22.0819    8.7359 H   0  0  0  0  0  0  0  0  0  0  0  0
    7.8517  -21.3567    7.1406 H   0  0  0  0  0  0  0  0  0  0  0  0
   10.0970  -24.7267    8.9607 H   0  0  0  0  0  0  0  0  0  0  0  0
    8.5816  -23.9543   10.0280 H   0  0  0  0  0  0  0  0  0  0  0  0
    8.5893  -25.0077    8.4671 H   0  0  0  0  0  0  0  0  0  0  0  0
   11.5473  -22.1905    8.6157 H   0  0  0  0  0  0  0  0  0  0  0  0
   10.4203  -20.8109    7.7192 H   0  0  0  0  0  0  0  0  0  0  0  0
    9.9886  -21.3724    9.7250 H   0  0  0  0  0  0  0  0  0  0  0  0
    4.1679  -18.4430    0.6127 H   0  0  0  0  0  0  0  0  0  0  0  0
    4.5156  -20.4477   -1.2703 H   0  0  0  0  0  0  0  0  0  0  0  0
    5.4002  -19.8360   -4.2077 H   0  0  0  0  0  0  0  0  0  0  0  0
    6.8108  -17.9425   -4.7257 H   0  0  0  0  0  0  0  0  0  0  0  0
    8.5381  -15.4214   -2.7899 H   0  0  0  0  0  0  0  0  0  0  0  0
    6.9688  -18.8015   -3.2725 H   0  0  0  0  0  0  0  0  0  0  0  0
    8.0174  -20.5004   -4.6440 H   0  0  0  0  0  0  0  0  0  0  0  0
   10.5333  -19.6424   -6.5767 H   0  0  0  0  0  0  0  0  0  0  0  0
   12.4952  -19.6448   -4.3045 H   0  0  0  0  0  0  0  0  0  0  0  0
   13.9542  -20.9855   -5.7523 H   0  0  0  0  0  0  0  0  0  0  0  0
   12.4270  -21.7997   -5.4827 H   0  0  0  0  0  0  0  0  0  0  0  0
   13.0559  -21.8934   -7.8532 H   0  0  0  0  0  0  0  0  0  0  0  0
   11.5921  -20.9565   -7.6352 H   0  0  0  0  0  0  0  0  0  0  0  0
   13.1412  -19.8152   -9.1631 H   0  0  0  0  0  0  0  0  0  0  0  0
   12.8790  -19.1119   -7.8812 H   0  0  0  0  0  0  0  0  0  0  0  0
   15.2823  -18.9804   -8.2898 H   0  0  0  0  0  0  0  0  0  0  0  0
   14.9945  -19.8049   -6.7732 H   0  0  0  0  0  0  0  0  0  0  0  0
   15.0404  -21.9724   -8.0662 H   0  0  0  0  0  0  0  0  0  0  0  0
   18.0583  -22.3116   -9.7904 H   0  0  0  0  0  0  0  0  0  0  0  0
   16.5280  -23.1321   -9.5423 H   0  0  0  0  0  0  0  0  0  0  0  0
   17.2118  -23.2682  -11.9245 H   0  0  0  0  0  0  0  0  0  0  0  0
   15.5966  -22.2663  -11.6675 H   0  0  0  0  0  0  0  0  0  0  0  0
   17.1392  -20.0064  -10.7852 H   0  0  0  0  0  0  0  0  0  0  0  0
   17.3017  -19.1449  -12.0355 H   0  0  0  0  0  0  0  0  0  0  0  0
   14.9103  -19.0015  -11.3752 H   0  0  0  0  0  0  0  0  0  0  0  0
   15.1726  -19.9938  -12.9980 H   0  0  0  0  0  0  0  0  0  0  0  0
   16.4187  -22.3048  -11.5447 H   0  0  0  0  0  0  0  0  0  0  0  0
   14.7290  -23.1644  -11.2817 H   0  0  0  0  0  0  0  0  0  0  0  0
   15.4683  -23.2638  -13.6953 H   0  0  0  0  0  0  0  0  0  0  0  0
   13.8405  -22.2594  -13.4035 H   0  0  0  0  0  0  0  0  0  0  0  0
   15.3011  -19.9720  -12.1769 H   0  0  0  0  0  0  0  0  0  0  0  0
   15.5831  -19.0965  -13.8495 H   0  0  0  0  0  0  0  0  0  0  0  0
   13.1610  -18.9884  -13.1385 H   0  0  0  0  0  0  0  0  0  0  0  0
   13.4668  -19.9851  -14.7680 H   0  0  0  0  0  0  0  0  0  0  0  0
   14.6743  -22.2908  -13.3964 H   0  0  0  0  0  0  0  0  0  0  0  0
   12.9802  -23.1576  -13.0503 H   0  0  0  0  0  0  0  0  0  0  0  0
   13.7235  -23.2550  -15.4610 H   0  0  0  0  0  0  0  0  0  0  0  0
   12.0954  -22.2512  -15.1692 H   0  0  0  0  0  0  0  0  0  0  0  0
   13.4651  -19.9608  -13.9340 H   0  0  0  0  0  0  0  0  0  0  0  0
   13.8353  -19.0854  -15.6191 H   0  0  0  0  0  0  0  0  0  0  0  0
   11.4164  -18.9793  -14.9041 H   0  0  0  0  0  0  0  0  0  0  0  0
   11.7226  -19.9761  -16.5338 H   0  0  0  0  0  0  0  0  0  0  0  0
   12.9294  -22.2805  -15.1631 H   0  0  0  0  0  0  0  0  0  0  0  0
   11.2355  -23.1486  -14.8160 H   0  0  0  0  0  0  0  0  0  0  0  0
   11.9789  -23.2459  -17.2266 H   0  0  0  0  0  0  0  0  0  0  0  0
   10.3508  -22.2422  -16.9348 H   0  0  0  0  0  0  0  0  0  0  0  0
   11.7188  -19.9515  -15.6997 H   0  0  0  0  0  0  0  0  0  0  0  0
   12.0907  -19.0762  -17.3848 H   0  0  0  0  0  0  0  0  0  0  0  0
    9.6718  -18.9702  -16.6697 H   0  0  0  0  0  0  0  0  0  0  0  0
    9.9779  -19.9670  -18.2994 H   0  0  0  0  0  0  0  0  0  0  0  0
   11.1847  -22.2713  -16.9287 H   0  0  0  0  0  0  0  0  0  0  0  0
    9.4909  -23.1395  -16.5816 H   0  0  0  0  0  0  0  0  0  0  0  0
   10.2343  -23.2368  -18.9923 H   0  0  0  0  0  0  0  0  0  0  0  0
    8.6062  -22.2331  -18.7004 H   0  0  0  0  0  0  0  0  0  0  0  0
    9.9743  -19.9423  -17.4653 H   0  0  0  0  0  0  0  0  0  0  0  0
   10.3461  -19.0671  -19.1504 H   0  0  0  0  0  0  0  0  0  0  0  0
    7.9272  -18.9611  -18.4353 H   0  0  0  0  0  0  0  0  0  0  0  0
    8.2333  -19.9579  -20.0651 H   0  0  0  0  0  0  0  0  0  0  0  0
    9.4401  -22.2622  -18.6943 H   0  0  0  0  0  0  0  0  0  0  0  0
    7.7463  -23.1304  -18.3472 H   0  0  0  0  0  0  0  0  0  0  0  0
    8.4898  -23.2277  -20.7579 H   0  0  0  0  0  0  0  0  0  0  0  0
    6.8616  -22.2240  -20.4661 H   0  0  0  0  0  0  0  0  0  0  0  0
    8.2297  -19.9332  -19.2310 H   0  0  0  0  0  0  0  0  0  0  0  0
    8.6015  -19.0580  -20.9160 H   0  0  0  0  0  0  0  0  0  0  0  0
    6.1826  -18.9520  -20.2009 H   0  0  0  0  0  0  0  0  0  0  0  0
    6.4887  -19.9489  -21.8307 H   0  0  0  0  0  0  0  0  0  0  0  0
    7.6955  -22.2531  -20.4599 H   0  0  0  0  0  0  0  0  0  0  0  0
    6.0017  -23.1213  -20.1128 H   0  0  0  0  0  0  0  0  0  0  0  0
    6.7452  -23.2186  -22.5235 H   0  0  0  0  0  0  0  0  0  0  0  0
    5.1169  -22.2149  -22.2312 H   0  0  0  0  0  0  0  0  0  0  0  0
    6.4851  -19.9241  -20.9966 H   0  0  0  0  0  0  0  0  0  0  0  0
    6.8569  -19.0489  -22.6816 H   0  0  0  0  0  0  0  0  0  0  0  0
    4.4380  -18.9429  -21.9665 H   0  0  0  0  0  0  0  0  0  0  0  0
    4.7446  -19.9399  -23.5963 H   0  0  0  0  0  0  0  0  0  0  0  0
    5.9509  -22.2440  -22.2256 H   0  0  0  0  0  0  0  0  0  0  0  0
    4.2570  -23.1122  -21.8784 H   0  0  0  0  0  0  0  0  0  0  0  0
    5.0010  -23.2098  -24.2892 H   0  0  0  0  0  0  0  0  0  0  0  0
    3.3742  -22.2059  -23.9482 H   0  0  0  0  0  0  0  0  0  0  0  0
    4.7404  -19.9149  -22.7622 H   0  0  0  0  0  0  0  0  0  0  0  0
    5.1124  -19.0398  -24.4472 H   0  0  0  0  0  0  0  0  0  0  0  0
    2.6936  -18.9336  -23.7317 H   0  0  0  0  0  0  0  0  0  0  0  0
    3.0173  -19.9348  -25.3624 H   0  0  0  0  0  0  0  0  0  0  0  0
    4.2098  -22.2350  -24.0168 H   0  0  0  0  0  0  0  0  0  0  0  0
    2.5120  -23.1031  -23.6446 H   0  0  0  0  0  0  0  0  0  0  0  0
    3.2587  -23.1977  -26.0433 H   0  0  0  0  0  0  0  0  0  0  0  0
    1.7850  -22.1496  -25.1805 H   0  0  0  0  0  0  0  0  0  0  0  0
    2.9890  -19.9035  -24.5278 H   0  0  0  0  0  0  0  0  0  0  0  0
    3.3685  -19.0303  -26.2134 H   0  0  0  0  0  0  0  0  0  0  0  0
    0.9522  -18.9191  -25.4994 H   0  0  0  0  0  0  0  0  0  0  0  0
    1.2769  -19.9267  -27.1392 H   0  0  0  0  0  0  0  0  0  0  0  0
    2.3239  -22.2664  -26.1370 H   0  0  0  0  0  0  0  0  0  0  0  0
    0.8975  -23.1980  -25.4965 H   0  0  0  0  0  0  0  0  0  0  0  0
    1.5101  -23.1664  -27.8078 H   0  0  0  0  0  0  0  0  0  0  0  0
    1.0717  -21.9432  -28.0262 H   0  0  0  0  0  0  0  0  0  0  0  0
    1.2314  -19.8696  -26.3066 H   0  0  0  0  0  0  0  0  0  0  0  0
    1.6250  -19.0190  -27.9796 H   0  0  0  0  0  0  0  0  0  0  0  0
   -0.7954  -18.9082  -27.2653 H   0  0  0  0  0  0  0  0  0  0  0  0
   -0.4792  -19.8803  -28.8975 H   0  0  0  0  0  0  0  0  0  0  0  0
    0.1124  -22.5760  -27.4022 H   0  0  0  0  0  0  0  0  0  0  0  0
   -0.9914  -23.3749  -27.0935 H   0  0  0  0  0  0  0  0  0  0  0  0
   -0.2793  -23.1191  -29.7547 H   0  0  0  0  0  0  0  0  0  0  0  0
   -1.6620  -22.1330  -29.8080 H   0  0  0  0  0  0  0  0  0  0  0  0
   -0.4997  -19.8978  -28.0614 H   0  0  0  0  0  0  0  0  0  0  0  0
   -0.1204  -19.0100  -29.7463 H   0  0  0  0  0  0  0  0  0  0  0  0
   -2.5433  -18.9041  -29.0341 H   0  0  0  0  0  0  0  0  0  0  0  0
   -2.3362  -19.8883  -30.6520 H   0  0  0  0  0  0  0  0  0  0  0  0
   -1.1865  -22.5321  -29.0551 H   0  0  0  0  0  0  0  0  0  0  0  0
   -2.7514  -23.0173  -28.7417 H   0  0  0  0  0  0  0  0  0  0  0  0
   -1.8711  -22.9505  -31.3626 H   0  0  0  0  0  0  0  0  0  0  0  0
   -3.5899  -22.2559  -31.0160 H   0  0  0  0  0  0  0  0  0  0  0  0
   -2.1877  -19.8898  -29.8336 H   0  0  0  0  0  0  0  0  0  0  0  0
   -1.8724  -19.0060  -31.5080 H   0  0  0  0  0  0  0  0  0  0  0  0
   -4.2642  -18.9453  -30.8463 H   0  0  0  0  0  0  0  0  0  0  0  0
   -4.1194  -19.8068  -32.1682 H   0  0  0  0  0  0  0  0  0  0  0  0
   -2.8097  -21.9249  -31.2301 H   0  0  0  0  0  0  0  0  0  0  0  0
   -4.4846  -23.0637  -30.7164 H   0  0  0  0  0  0  0  0  0  0  0  0
   -3.8397  -22.9000  -33.1342 H   0  0  0  0  0  0  0  0  0  0  0  0
   -5.2649  -22.1684  -32.9011 H   0  0  0  0  0  0  0  0  0  0  0  0
   -3.7687  -20.1438  -33.2274 H   0  0  0  0  0  0  0  0  0  0  0  0
   -2.9509  -23.1717  -35.1484 H   0  0  0  0  0  0  0  0  0  0  0  0
   -1.3385  -22.6060  -35.5052 H   0  0  0  0  0  0  0  0  0  0  0  0
   -1.2798  -24.3964  -33.8260 H   0  0  0  0  0  0  0  0  0  0  0  0
   -0.7096  -22.8821  -33.1480 H   0  0  0  0  0  0  0  0  0  0  0  0
   -2.8571  -22.5401  -32.2793 H   0  0  0  0  0  0  0  0  0  0  0  0
   -5.3354  -24.1893  -34.5225 H   0  0  0  0  0  0  0  0  0  0  0  0
   -1.8000  -25.1919  -31.3941 H   0  0  0  0  0  0  0  0  0  0  0  0
   -2.3036  -24.3309  -28.0201 H   0  0  0  0  0  0  0  0  0  0  0  0
   -1.2562  -25.2697  -29.0635 H   0  0  0  0  0  0  0  0  0  0  0  0
    0.0864  -24.1204  -27.3751 H   0  0  0  0  0  0  0  0  0  0  0  0
    0.5466  -23.6203  -28.9151 H   0  0  0  0  0  0  0  0  0  0  0  0
    0.0757  -21.3441  -27.4835 H   0  0  0  0  0  0  0  0  0  0  0  0
   -1.1946  -21.2545  -28.7186 H   0  0  0  0  0  0  0  0  0  0  0  0
   -2.2372  -21.1616  -26.3875 H   0  0  0  0  0  0  0  0  0  0  0  0
   -2.7179  -22.7209  -27.1256 H   0  0  0  0  0  0  0  0  0  0  0  0
   -2.0565  -22.9962  -24.7673 H   0  0  0  0  0  0  0  0  0  0  0  0
   -1.0038  -23.9454  -25.7926 H   0  0  0  0  0  0  0  0  0  0  0  0
    0.2997  -22.7310  -24.1035 H   0  0  0  0  0  0  0  0  0  0  0  0
    0.1506  -22.1042  -25.4970 H   0  0  0  0  0  0  0  0  0  0  0  0
    0.3291  -20.2554  -24.1212 H   0  0  0  0  0  0  0  0  0  0  0  0
   -0.8699  -20.2528  -25.3876 H   0  0  0  0  0  0  0  0  0  0  0  0
   -1.8435  -19.8655  -23.2279 H   0  0  0  0  0  0  0  0  0  0  0  0
   -2.4132  -21.3752  -23.8982 H   0  0  0  0  0  0  0  0  0  0  0  0
   -1.7832  -21.6593  -21.5465 H   0  0  0  0  0  0  0  0  0  0  0  0
   -0.7361  -22.6013  -22.5795 H   0  0  0  0  0  0  0  0  0  0  0  0
    0.5735  -21.3975  -20.8927 H   0  0  0  0  0  0  0  0  0  0  0  0
    0.9485  -20.8196  -22.4886 H   0  0  0  0  0  0  0  0  0  0  0  0
    0.6448  -18.9397  -20.9559 H   0  0  0  0  0  0  0  0  0  0  0  0
   -0.5859  -18.9310  -22.1964 H   0  0  0  0  0  0  0  0  0  0  0  0
   -1.5815  -18.5369  -19.9903 H   0  0  0  0  0  0  0  0  0  0  0  0
   -2.1507  -20.0468  -20.6614 H   0  0  0  0  0  0  0  0  0  0  0  0
   -1.5227  -20.3261  -18.3056 H   0  0  0  0  0  0  0  0  0  0  0  0
   -0.4750  -21.2721  -19.3422 H   0  0  0  0  0  0  0  0  0  0  0  0
    0.8314  -20.0671  -17.6499 H   0  0  0  0  0  0  0  0  0  0  0  0
    1.2201  -19.4922  -19.2578 H   0  0  0  0  0  0  0  0  0  0  0  0
   -0.7147  -18.1807  -17.3471 H   0  0  0  0  0  0  0  0  0  0  0  0
    0.9058  -17.6121  -17.7114 H   0  0  0  0  0  0  0  0  0  0  0  0
   -0.3255  -17.6023  -18.9572 H   0  0  0  0  0  0  0  0  0  0  0  0
   13.7629  -17.6700   -4.2403 H   0  0  0  0  0  0  0  0  0  0  0  0
    9.0438  -19.2133   -6.7955 H   0  0  0  0  0  0  0  0  0  0  0  0
    7.1303  -17.2418   -5.6645 H   0  0  0  0  0  0  0  0  0  0  0  0
    8.7632  -17.0079   -5.8357 H   0  0  0  0  0  0  0  0  0  0  0  0
    7.3259  -16.0055   -7.4828 H   0  0  0  0  0  0  0  0  0  0  0  0
    8.3872  -17.1617   -8.2093 H   0  0  0  0  0  0  0  0  0  0  0  0
    5.5236  -17.7398   -7.5323 H   0  0  0  0  0  0  0  0  0  0  0  0
    6.2037  -17.4588   -9.1627 H   0  0  0  0  0  0  0  0  0  0  0  0
    5.7341  -19.7711   -8.4964 H   0  0  0  0  0  0  0  0  0  0  0  0
    7.4386  -19.4541   -8.8403 H   0  0  0  0  0  0  0  0  0  0  0  0
    7.2608  -20.8242   -6.8759 H   0  0  0  0  0  0  0  0  0  0  0  0
    6.1537  -19.6869   -6.1282 H   0  0  0  0  0  0  0  0  0  0  0  0
    8.0020  -17.8708   -1.0917 H   0  0  0  0  0  0  0  0  0  0  0  0
    9.2426  -16.6951   -0.8685 H   0  0  0  0  0  0  0  0  0  0  0  0
    6.9709  -16.4008    0.5944 H   0  0  0  0  0  0  0  0  0  0  0  0
    7.7344  -15.0185   -0.0677 H   0  0  0  0  0  0  0  0  0  0  0  0
    5.2034  -16.2147   -0.9354 H   0  0  0  0  0  0  0  0  0  0  0  0
    5.8329  -14.6657   -1.3166 H   0  0  0  0  0  0  0  0  0  0  0  0
    5.1671  -18.5254   -6.4485 H   0  0  0  0  0  0  0  0  0  0  0  0
    4.0175  -17.4962   -5.6627 H   0  0  0  0  0  0  0  0  0  0  0  0
    6.1943  -15.3597   -4.9803 H   0  0  0  0  0  0  0  0  0  0  0  0
    7.0249  -13.4158   -6.1838 H   0  0  0  0  0  0  0  0  0  0  0  0
    5.8570  -15.3004   -9.8512 H   0  0  0  0  0  0  0  0  0  0  0  0
    4.9303  -17.1792   -8.6226 H   0  0  0  0  0  0  0  0  0  0  0  0
    7.4249  -12.4694   -8.4209 H   0  0  0  0  0  0  0  0  0  0  0  0
    2.0248  -19.7085   -0.4653 H   0  0  0  0  0  0  0  0  0  0  0  0
    2.6736  -18.1053   -0.9570 H   0  0  0  0  0  0  0  0  0  0  0  0
    0.9331  -19.6979   -2.5114 H   0  0  0  0  0  0  0  0  0  0  0  0
    2.6643  -18.7589   -3.6354 H   0  0  0  0  0  0  0  0  0  0  0  0
    0.3031  -21.6073   -3.1016 H   0  0  0  0  0  0  0  0  0  0  0  0
   11.6615  -21.2123    2.1010 H   0  0  0  0  0  0  0  0  0  0  0  0
    9.8655  -20.2536    0.4388 H   0  0  0  0  0  0  0  0  0  0  0  0
   11.5168  -19.9975    6.8242 H   0  0  0  0  0  0  0  0  0  0  0  0
    9.4675  -18.4818    6.8742 H   0  0  0  0  0  0  0  0  0  0  0  0
    8.0889  -17.8149    4.7770 H   0  0  0  0  0  0  0  0  0  0  0  0
  1243  1  0  0  0  0
  1252  1  0  0  0  0
  1253  1  0  0  0  0
  2 90  1  0  0  0  0
  2254  1  1  0  0  0
  2  3  1  0  0  0  0
  2  1  1  0  0  0  0
  3  4  1  0  0  0  0
  3255  1  0  0  0  0
  4 89  2  0  0  0  0
  5 14  1  0  0  0  0
  5256  1  1  0  0  0
  5  6  1  0  0  0  0
  5  4  1  0  0  0  0
  6  7  1  0  0  0  0
  6257  1  0  0  0  0
  6258  1  0  0  0  0
  7  8  2  0  0  0  0
  7 12  1  0  0  0  0
  8  9  1  0  0  0  0
  8259  1  0  0  0  0
  9 10  2  0  0  0  0
  9260  1  0  0  0  0
 10 13  1  0  0  0  0
 11 10  1  0  0  0  0
 11261  1  0  0  0  0
 12 11  2  0  0  0  0
 12262  1  0  0  0  0
 13263  1  0  0  0  0
 14 15  1  0  0  0  0
 14264  1  0  0  0  0
 15 16  1  0  0  0  0
 15 88  2  0  0  0  0
 16 17  1  0  0  0  0
 16 84  1  0  0  0  0
 16265  1  6  0  0  0
 17 18  1  0  0  0  0
 17266  1  0  0  0  0
 18 19  1  0  0  0  0
 18 83  2  0  0  0  0
 19 20  1  0  0  0  0
 19 79  1  0  0  0  0
 19267  1  6  0  0  0
 20 21  1  0  0  0  0
 20 78  1  0  0  0  0
 21 22  2  0  0  0  0
 23 24  1  0  0  0  0
 23 67  1  0  0  0  0
 23268  1  1  0  0  0
 23 21  1  0  0  0  0
 24 25  1  0  0  0  0
 24269  1  0  0  0  0
 25 26  2  0  0  0  0
 25 27  1  0  0  0  0
 27 35  1  0  0  0  0
 27270  1  6  0  0  0
 27 28  1  0  0  0  0
 28 29  1  0  0  0  0
 28271  1  0  0  0  0
 28272  1  0  0  0  0
 29 30  2  0  0  0  0
 29 34  1  0  0  0  0
 30 31  1  0  0  0  0
 30273  1  0  0  0  0
 31 32  2  0  0  0  0
 31274  1  0  0  0  0
 32275  1  0  0  0  0
 33 32  1  0  0  0  0
 33276  1  0  0  0  0
 34 33  2  0  0  0  0
 34277  1  0  0  0  0
 35 36  1  0  0  0  0
 35278  1  0  0  0  0
 36 37  2  0  0  0  0
 36 38  1  0  0  0  0
 38 46  1  0  0  0  0
 38279  1  6  0  0  0
 38 39  1  0  0  0  0
 39 40  1  0  0  0  0
 39280  1  0  0  0  0
 39281  1  0  0  0  0
 40 41  1  0  0  0  0
 40282  1  0  0  0  0
 40283  1  0  0  0  0
 41 42  1  0  0  0  0
 41284  1  0  0  0  0
 41285  1  0  0  0  0
 42 43  1  0  0  0  0
 42286  1  0  0  0  0
 43 44  2  0  0  0  0
 43 45  1  0  0  0  0
 44287  1  0  0  0  0
 45288  1  0  0  0  0
 45289  1  0  0  0  0
 46 47  1  0  0  0  0
 46290  1  0  0  0  0
 47 48  2  0  0  0  0
 47 49  1  0  0  0  0
 49 55  1  0  0  0  0
 49291  1  6  0  0  0
 49 50  1  0  0  0  0
 50 51  1  0  0  0  0
 50292  1  0  0  0  0
 50293  1  0  0  0  0
 51 52  1  0  0  0  0
 51294  1  0  0  0  0
 51295  1  0  0  0  0
 52 53  1  0  0  0  0
 52 54  2  0  0  0  0
 53296  1  0  0  0  0
 55 56  1  0  0  0  0
 55297  1  0  0  0  0
 56 57  1  0  0  0  0
 56 77  2  0  0  0  0
 57298  1  1  0  0  0
 57 74  1  0  0  0  0
 58 57  1  0  0  0  0
 58299  1  0  0  0  0
 59 58  1  0  0  0  0
 59 73  2  0  0  0  0
 60 59  1  0  0  0  0
 60 69  1  0  0  0  0
 60300  1  1  0  0  0
 61 60  1  0  0  0  0
 61301  1  0  0  0  0
 61302  1  0  0  0  0
 62 61  1  0  0  0  0
 62303  1  0  0  0  0
 62304  1  0  0  0  0
 63 62  1  0  0  0  0
 63305  1  0  0  0  0
 63306  1  0  0  0  0
 64 63  1  0  0  0  0
 64307  1  0  0  0  0
 64308  1  0  0  0  0
 65 64  1  0  0  0  0
 65309  1  0  0  0  0
 66 65  1  0  0  0  0
 66 68  2  0  0  0  0
 67 66  1  0  0  0  0
 67310  1  0  0  0  0
 67311  1  0  0  0  0
 69 70  1  0  0  0  0
 69312  1  0  0  0  0
 70 71  1  0  0  0  0
 70 72  2  0  0  0  0
 71313  1  0  0  0  0
 71314  1  0  0  0  0
 71315  1  0  0  0  0
 74 75  1  0  0  0  0
 74 76  1  0  0  0  0
 74316  1  0  0  0  0
 75317  1  0  0  0  0
 75318  1  0  0  0  0
 75319  1  0  0  0  0
 76320  1  0  0  0  0
 76321  1  0  0  0  0
 76322  1  0  0  0  0
 78323  1  0  0  0  0
 78324  1  0  0  0  0
 78325  1  0  0  0  0
 79 80  1  0  0  0  0
 79326  1  0  0  0  0
 79327  1  0  0  0  0
 80 81  1  0  0  0  0
 80 82  2  0  0  0  0
 81328  1  0  0  0  0
 84 85  1  0  0  0  0
 84 86  1  0  0  0  0
 84 87  1  0  0  0  0
 85329  1  0  0  0  0
 85330  1  0  0  0  0
 85331  1  0  0  0  0
 86332  1  0  0  0  0
 86333  1  0  0  0  0
 86334  1  0  0  0  0
 87335  1  0  0  0  0
 87336  1  0  0  0  0
 87337  1  0  0  0  0
 90 91  1  0  0  0  0
 90242  2  0  0  0  0
 91338  1  0  0  0  0
 92237  1  0  0  0  0
 92339  1  6  0  0  0
 92 93  1  0  0  0  0
 92 91  1  0  0  0  0
 93 94  1  0  0  0  0
 93236  2  0  0  0  0
 94340  1  0  0  0  0
 95228  1  0  0  0  0
 95341  1  6  0  0  0
 95 96  1  0  0  0  0
 95 94  1  0  0  0  0
 96 97  2  0  0  0  0
 96 98  1  0  0  0  0
 98 99  1  0  0  0  0
 98227  1  0  0  0  0
 99225  1  0  0  0  0
 99342  1  6  0  0  0
 99100  1  0  0  0  0
100101  1  0  0  0  0
100224  2  0  0  0  0
101343  1  0  0  0  0
102218  1  0  0  0  0
102344  1  1  0  0  0
102103  1  0  0  0  0
102101  1  0  0  0  0
103104  1  0  0  0  0
103217  2  0  0  0  0
104105  1  0  0  0  0
104345  1  0  0  0  0
105106  1  0  0  0  0
105214  1  0  0  0  0
105346  1  1  0  0  0
106107  1  0  0  0  0
106347  1  0  0  0  0
106348  1  0  0  0  0
107108  1  0  0  0  0
107349  1  0  0  0  0
107350  1  0  0  0  0
108109  1  0  0  0  0
108351  1  0  0  0  0
108352  1  0  0  0  0
109110  1  0  0  0  0
109353  1  0  0  0  0
109354  1  0  0  0  0
110111  1  0  0  0  0
110355  1  0  0  0  0
111112  1  0  0  0  0
111213  2  0  0  0  0
112113  1  0  0  0  0
112356  1  0  0  0  0
112357  1  0  0  0  0
113114  1  0  0  0  0
113358  1  0  0  0  0
113359  1  0  0  0  0
114115  1  0  0  0  0
115116  1  0  0  0  0
115360  1  0  0  0  0
115361  1  0  0  0  0
116117  1  0  0  0  0
116362  1  0  0  0  0
116363  1  0  0  0  0
118117  1  0  0  0  0
118364  1  0  0  0  0
118365  1  0  0  0  0
119118  1  0  0  0  0
119366  1  0  0  0  0
119367  1  0  0  0  0
120119  1  0  0  0  0
121120  1  0  0  0  0
121368  1  0  0  0  0
121369  1  0  0  0  0
122121  1  0  0  0  0
122370  1  0  0  0  0
122371  1  0  0  0  0
123122  1  0  0  0  0
124123  1  0  0  0  0
124372  1  0  0  0  0
124373  1  0  0  0  0
125124  1  0  0  0  0
125374  1  0  0  0  0
125375  1  0  0  0  0
126125  1  0  0  0  0
127126  1  0  0  0  0
127376  1  0  0  0  0
127377  1  0  0  0  0
128127  1  0  0  0  0
128378  1  0  0  0  0
128379  1  0  0  0  0
129128  1  0  0  0  0
130129  1  0  0  0  0
130380  1  0  0  0  0
130381  1  0  0  0  0
131130  1  0  0  0  0
131382  1  0  0  0  0
131383  1  0  0  0  0
132131  1  0  0  0  0
133132  1  0  0  0  0
133384  1  0  0  0  0
133385  1  0  0  0  0
134133  1  0  0  0  0
134386  1  0  0  0  0
134387  1  0  0  0  0
135134  1  0  0  0  0
136135  1  0  0  0  0
136388  1  0  0  0  0
136389  1  0  0  0  0
137136  1  0  0  0  0
137390  1  0  0  0  0
137391  1  0  0  0  0
138137  1  0  0  0  0
139138  1  0  0  0  0
139392  1  0  0  0  0
139393  1  0  0  0  0
140139  1  0  0  0  0
140394  1  0  0  0  0
140395  1  0  0  0  0
141140  1  0  0  0  0
142141  1  0  0  0  0
142396  1  0  0  0  0
142397  1  0  0  0  0
143142  1  0  0  0  0
143398  1  0  0  0  0
143399  1  0  0  0  0
144143  1  0  0  0  0
145144  1  0  0  0  0
145400  1  0  0  0  0
145401  1  0  0  0  0
146145  1  0  0  0  0
146402  1  0  0  0  0
146403  1  0  0  0  0
147146  1  0  0  0  0
148147  1  0  0  0  0
148404  1  0  0  0  0
148405  1  0  0  0  0
149148  1  0  0  0  0
149406  1  0  0  0  0
149407  1  0  0  0  0
150149  1  0  0  0  0
151150  1  0  0  0  0
151408  1  0  0  0  0
151409  1  0  0  0  0
152151  1  0  0  0  0
152410  1  0  0  0  0
152411  1  0  0  0  0
153152  1  0  0  0  0
154153  1  0  0  0  0
154412  1  0  0  0  0
154413  1  0  0  0  0
155154  1  0  0  0  0
155414  1  0  0  0  0
155415  1  0  0  0  0
156155  1  0  0  0  0
157156  1  0  0  0  0
157416  1  0  0  0  0
157417  1  0  0  0  0
158157  1  0  0  0  0
158418  1  0  0  0  0
158419  1  0  0  0  0
159158  1  0  0  0  0
160159  1  0  0  0  0
160420  1  0  0  0  0
160421  1  0  0  0  0
161160  1  0  0  0  0
161422  1  0  0  0  0
161423  1  0  0  0  0
162161  1  0  0  0  0
163162  1  0  0  0  0
163424  1  0  0  0  0
163425  1  0  0  0  0
164163  1  0  0  0  0
164426  1  0  0  0  0
164427  1  0  0  0  0
165164  1  0  0  0  0
166165  1  0  0  0  0
166428  1  0  0  0  0
166429  1  0  0  0  0
167166  1  0  0  0  0
167430  1  0  0  0  0
167431  1  0  0  0  0
168167  1  0  0  0  0
169168  1  0  0  0  0
169432  1  0  0  0  0
169433  1  0  0  0  0
170169  1  0  0  0  0
170434  1  0  0  0  0
170435  1  0  0  0  0
171170  1  0  0  0  0
172171  1  0  0  0  0
172436  1  0  0  0  0
172437  1  0  0  0  0
173172  1  0  0  0  0
173438  1  0  0  0  0
173439  1  0  0  0  0
174173  1  0  0  0  0
175174  1  0  0  0  0
175440  1  0  0  0  0
175441  1  0  0  0  0
176175  1  0  0  0  0
176442  1  0  0  0  0
176443  1  0  0  0  0
177176  1  0  0  0  0
178177  1  0  0  0  0
178444  1  0  0  0  0
178445  1  0  0  0  0
179178  1  0  0  0  0
179446  1  0  0  0  0
179447  1  0  0  0  0
180179  1  0  0  0  0
181180  1  0  0  0  0
181448  1  0  0  0  0
181449  1  0  0  0  0
182181  1  0  0  0  0
182450  1  0  0  0  0
182451  1  0  0  0  0
183182  1  0  0  0  0
183184  1  0  0  0  0
184185  1  0  0  0  0
184452  1  0  0  0  0
184453  1  0  0  0  0
185186  1  0  0  0  0
185454  1  0  0  0  0
185455  1  0  0  0  0
186187  1  0  0  0  0
186456  1  0  0  0  0
187188  2  0  0  0  0
187189  1  0  0  0  0
189190  1  0  0  0  0
189457  1  0  0  0  0
189458  1  0  0  0  0
190191  1  0  0  0  0
190459  1  0  0  0  0
190460  1  0  0  0  0
191192  1  0  0  0  0
191195  1  0  0  0  0
191461  1  1  0  0  0
192193  2  0  0  0  0
192194  1  0  0  0  0
194462  1  0  0  0  0
195196  1  0  0  0  0
195463  1  0  0  0  0
196197  1  0  0  0  0
196212  2  0  0  0  0
197198  1  0  0  0  0
197464  1  0  0  0  0
197465  1  0  0  0  0
198199  1  0  0  0  0
198466  1  0  0  0  0
198467  1  0  0  0  0
199200  1  0  0  0  0
199468  1  0  0  0  0
199469  1  0  0  0  0
200201  1  0  0  0  0
200470  1  0  0  0  0
200471  1  0  0  0  0
201202  1  0  0  0  0
201472  1  0  0  0  0
201473  1  0  0  0  0
202203  1  0  0  0  0
202474  1  0  0  0  0
202475  1  0  0  0  0
203204  1  0  0  0  0
203476  1  0  0  0  0
203477  1  0  0  0  0
204205  1  0  0  0  0
204478  1  0  0  0  0
204479  1  0  0  0  0
205206  1  0  0  0  0
205480  1  0  0  0  0
205481  1  0  0  0  0
206207  1  0  0  0  0
206482  1  0  0  0  0
206483  1  0  0  0  0
207208  1  0  0  0  0
207484  1  0  0  0  0
207485  1  0  0  0  0
208209  1  0  0  0  0
208486  1  0  0  0  0
208487  1  0  0  0  0
209210  1  0  0  0  0
209488  1  0  0  0  0
209489  1  0  0  0  0
210211  1  0  0  0  0
210490  1  0  0  0  0
210491  1  0  0  0  0
211492  1  0  0  0  0
211493  1  0  0  0  0
211494  1  0  0  0  0
214215  1  0  0  0  0
214216  2  0  0  0  0
215495  1  0  0  0  0
218219  1  0  0  0  0
218223  1  0  0  0  0
218496  1  0  0  0  0
219220  1  0  0  0  0
219497  1  0  0  0  0
219498  1  0  0  0  0
220221  1  0  0  0  0
220499  1  0  0  0  0
220500  1  0  0  0  0
221501  1  0  0  0  0
221502  1  0  0  0  0
222221  1  0  0  0  0
222503  1  0  0  0  0
222504  1  0  0  0  0
223222  1  0  0  0  0
223505  1  0  0  0  0
223506  1  0  0  0  0
225226  1  0  0  0  0
225507  1  0  0  0  0
225508  1  0  0  0  0
226509  1  0  0  0  0
226510  1  0  0  0  0
227226  1  0  0  0  0
227511  1  0  0  0  0
227512  1  0  0  0  0
228229  1  0  0  0  0
228513  1  0  0  0  0
228514  1  0  0  0  0
229230  2  0  0  0  0
229234  1  0  0  0  0
230231  1  0  0  0  0
230515  1  0  0  0  0
231232  2  0  0  0  0
231516  1  0  0  0  0
232235  1  0  0  0  0
233232  1  0  0  0  0
233517  1  0  0  0  0
234233  2  0  0  0  0
234518  1  0  0  0  0
235519  1  0  0  0  0
237238  1  0  0  0  0
237520  1  0  0  0  0
237521  1  0  0  0  0
238239  1  0  0  0  0
238522  1  0  0  0  0
238523  1  0  0  0  0
239240  1  0  0  0  0
239241  2  0  0  0  0
240524  1  0  0  0  0
243244  1  0  0  0  0
243247  2  0  0  0  0
244245  1  0  0  0  0
244251  2  0  0  0  0
245246  1  0  0  0  0
245248  2  0  0  0  0
246525  1  0  0  0  0
247246  1  0  0  0  0
247526  1  0  0  0  0
248249  1  0  0  0  0
249527  1  0  0  0  0
250249  2  0  0  0  0
250528  1  0  0  0  0
251250  1  0  0  0  0
251529  1  0  0  0  0
M  END
>  <DRUGBANK_ID>
DB15636

>  <COMMON_NAME>
Zilucoplan

>  <CAS_NUMBER>
1841136-73-9

>  <UNII>
YG391PK0CC

>  <SYNONYMS>
N2-ACETYL-L-LYSYL-L-VALYL-L-.ALPHA.-GLUTAMYL-L-ARGINYL-L-PHENYLALANYL-L-.ALPHA.-ASPARTYL-N-METHYL-L-.ALPHA.-ASPARTYL-3-METHYL-L-VALYL-L-TYROSYL-3-(1H-PYRROLO(2,3-B)PYRIDIN-3-YL)-L-ALANYL-L-.ALPHA.-GLUTAMYL-L-TYROSYL-L-PROLYL-(2S)-2-CYCLOHEXYLGLYCYL-N6-(3; POLY(OXY-1,2-ETHANEDIYL), .ALPHA.-(2-(((4S)-4-CARBOXY-1-OXO-4-(1-OXOHEXADECYL)BUTYL)AMINO)ETHYL)-.OMEGA.-HYDROXY-, 15-ETHER WITH N-ACETYL-L-LYSYL-L-VALYL-L-.ALPHA.-GLUTAMYL-L-ARGINYL-L-PHENYLALANYL-L-.ALPHA.-ASPARTYL-N-METHYL-L-.ALPHA.-ASPARTYL-3-METHYL-; Zilucoplan

$$$$
