
 OpenBabel10282417123D

 22 21  0  0  1  0  0  0  0  0999 V2000
    0.9683   -2.0048   -1.2548 C   0  0  0  0  0  0  0  0  0  0  0  0
    2.0878   -1.2274   -0.5741 C   0  0  0  0  0  0  0  0  0  0  0  0
    1.5792    0.1070   -0.0476 C   0  0  0  0  0  0  0  0  0  0  0  0
    0.6039   -0.1106    0.9583 O   0  0  0  0  0  0  0  0  0  0  0  0
    1.1752   -0.8707    2.2841 P   0  0  2  0  0  0  0  0  0  0  0  0
    0.5985   -2.3709    1.6440 O   0  0  0  0  0  0  0  0  0  0  0  0
    0.1134   -0.9875    3.3721 O   0  0  0  0  0  0  0  0  0  0  0  0
    1.7519    0.6295    2.9242 O   0  0  0  0  0  0  0  0  0  0  0  0
    0.7515    1.8228    3.2639 P   0  0  0  0  0  0  0  0  0  0  0  0
    0.9762    1.9768    4.8409 O   0  0  0  0  0  0  0  0  0  0  0  0
    1.6226    3.0267    2.6639 O   0  0  0  0  0  0  0  0  0  0  0  0
   -0.6548    1.7853    2.8152 O   0  0  0  0  0  0  0  0  0  0  0  0
    0.0745   -2.1068   -0.6306 H   0  0  0  0  0  0  0  0  0  0  0  0
    1.3087   -3.0119   -1.5070 H   0  0  0  0  0  0  0  0  0  0  0  0
    0.6541   -1.4897   -2.1647 H   0  0  0  0  0  0  0  0  0  0  0  0
    2.4952   -1.8292    0.2479 H   0  0  0  0  0  0  0  0  0  0  0  0
    2.9164   -1.0660   -1.2661 H   0  0  0  0  0  0  0  0  0  0  0  0
    2.3985    0.6921    0.3839 H   0  0  0  0  0  0  0  0  0  0  0  0
    1.1243    0.7055   -0.8415 H   0  0  0  0  0  0  0  0  0  0  0  0
   -0.3763   -2.2956    1.6967 H   0  0  0  0  0  0  0  0  0  0  0  0
    0.4353    1.3085    5.3015 H   0  0  0  0  0  0  0  0  0  0  0  0
    1.9614    2.7681    1.7912 H   0  0  0  0  0  0  0  0  0  0  0  0
  1  2  1  0  0  0  0
  1 13  1  0  0  0  0
  1 14  1  0  0  0  0
  1 15  1  0  0  0  0
  2  3  1  0  0  0  0
  2 16  1  0  0  0  0
  2 17  1  0  0  0  0
  3  4  1  0  0  0  0
  3 18  1  0  0  0  0
  3 19  1  0  0  0  0
  5  7  2  1  0  0  0
  5  8  1  0  0  0  0
  5  6  1  0  0  0  0
  5  4  1  0  0  0  0
  6 20  1  0  0  0  0
  8  9  1  0  0  0  0
  9 10  1  0  0  0  0
  9 11  1  0  0  0  0
  9 12  2  0  0  0  0
 10 21  1  0  0  0  0
 11 22  1  0  0  0  0
M  END
>  <DRUGBANK_ID>
DB01679

>  <SECONDARY_ACCESSION_NUMBERS>
EXPT02471

>  <COMMON_NAME>
Propyl Trihydrogen Diphosphate

$$$$
