SCL
 OpenBabel10282417133D

 23 23  0  0  0  0  0  0  0  0999 V2000
    0.0456   -1.1430    0.0081 C   0  0  0  0  0  0  0  0  0  0  0  0
    0.7661    0.0977    0.0031 C   0  0  0  0  0  0  0  0  0  0  0  0
    0.1174    1.3066    0.0090 C   0  0  0  0  0  0  0  0  0  0  0  0
   -1.2647    1.3048   -0.0009 C   0  0  0  0  0  0  0  0  0  0  0  0
   -1.9878    0.1017   -0.0132 C   0  0  0  0  0  0  0  0  0  0  0  0
   -1.3414   -1.1339   -0.0034 C   0  0  0  0  0  0  0  0  0  0  0  0
    0.8325   -2.3734    0.0315 C   0  0  0  0  0  0  0  0  0  0  0  0
    2.2577   -5.3132    0.1147 C   0  0  0  0  0  0  0  0  0  0  0  0
    3.3415   -4.3183    0.1093 C   0  0  0  0  0  0  0  0  0  0  0  0
    0.3139   -3.6393    0.0598 N   0  0  0  0  0  0  0  0  0  0  0  0
    2.1411    0.2409   -0.0090 O   0  0  0  0  0  0  0  0  0  0  0  0
    2.0154   -2.0134    0.0219 O   0  0  0  0  0  0  0  0  0  0  0  0
    0.9285   -4.9331    0.0909 O   0  0  0  0  0  0  0  0  0  0  0  0
    2.5630   -6.5071    0.1415 O   0  0  0  0  0  0  0  0  0  0  0  0
    0.7081    2.2179    0.0205 H   0  0  0  0  0  0  0  0  0  0  0  0
   -1.7786    2.2580   -0.0010 H   0  0  0  0  0  0  0  0  0  0  0  0
   -3.0725    0.1353   -0.0278 H   0  0  0  0  0  0  0  0  0  0  0  0
   -1.9309   -2.0431   -0.0060 H   0  0  0  0  0  0  0  0  0  0  0  0
    3.8637   -4.1075    1.0419 H   0  0  0  0  0  0  0  0  0  0  0  0
    3.8764   -4.1363   -0.8225 H   0  0  0  0  0  0  0  0  0  0  0  0
    2.7183   -3.5222    0.1035 H   0  0  0  0  0  0  0  0  0  0  0  0
   -0.6971   -3.7549    0.0562 H   0  0  0  0  0  0  0  0  0  0  0  0
    2.5283   -0.6653   -0.0111 H   0  0  0  0  0  0  0  0  0  0  0  0
  1  2  2  0  0  0  0
  1  6  1  0  0  0  0
  1  7  1  0  0  0  0
  2  3  1  0  0  0  0
  2 11  1  0  0  0  0
  3  4  2  0  0  0  0
  3 15  1  0  0  0  0
  4  5  1  0  0  0  0
  4 16  1  0  0  0  0
  5  6  2  0  0  0  0
  5 17  1  0  0  0  0
  6 18  1  0  0  0  0
  7 10  1  0  0  0  0
  7 12  2  0  0  0  0
  8  9  1  0  0  0  0
  8 13  1  0  0  0  0
  8 14  2  0  0  0  0
  9 19  1  0  0  0  0
  9 20  1  0  0  0  0
  9 21  1  0  0  0  0
 10 13  1  0  0  0  0
 10 22  1  0  0  0  0
 11 23  1  0  0  0  0
M  END
>  <DRUGBANK_ID>
DB03667

>  <SECONDARY_ACCESSION_NUMBERS>
EXPT02867

>  <COMMON_NAME>
Acetic Acid Salicyloyl-Amino-Ester

$$$$
