1582
 OpenBabel10282417113D

 33 34  0  0  0  0  0  0  0  0999 V2000
    0.9926    0.1574    0.0385 S   0  0  0  0  0  0  0  0  0  0  0  0
    0.6106   -0.4810   -1.1987 O   0  0  0  0  0  0  0  0  0  0  0  0
    0.4912   -0.3919    1.2947 O   0  0  0  0  0  0  0  0  0  0  0  0
    0.3868    1.7165   -0.0631 N   0  0  0  0  0  0  0  0  0  0  0  0
    2.0872    2.9341   -1.0942 N   0  0  0  0  0  0  0  0  0  0  0  0
    0.9745    3.7869    0.8270 N   0  0  0  0  0  0  0  0  0  0  0  0
    6.9800   -0.0495    0.1305 N   0  0  0  0  0  0  0  0  0  0  0  0
    2.7704    0.0327    0.1670 C   0  0  0  0  0  0  0  0  0  0  0  0
    3.5563    1.1381    0.4105 C   0  0  0  0  0  0  0  0  0  0  0  0
    3.4271   -1.1941    0.0271 C   0  0  0  0  0  0  0  0  0  0  0  0
    1.1498    2.8796   -0.1476 C   0  0  0  0  0  0  0  0  0  0  0  0
    5.6014   -0.0634    0.0727 C   0  0  0  0  0  0  0  0  0  0  0  0
    4.9320    1.1288    0.2396 C   0  0  0  0  0  0  0  0  0  0  0  0
    4.8416   -1.2360    0.0352 C   0  0  0  0  0  0  0  0  0  0  0  0
    3.0297    3.8990   -0.9632 C   0  0  0  0  0  0  0  0  0  0  0  0
    1.8630    4.8170    0.8574 C   0  0  0  0  0  0  0  0  0  0  0  0
    2.9543    4.8793    0.0072 C   0  0  0  0  0  0  0  0  0  0  0  0
    4.2677    3.7469   -1.8003 C   0  0  0  0  0  0  0  0  0  0  0  0
    1.6309    5.9424    1.8303 C   0  0  0  0  0  0  0  0  0  0  0  0
   -0.5414    1.8434    0.3194 H   0  0  0  0  0  0  0  0  0  0  0  0
    7.5127   -0.8981    0.0211 H   0  0  0  0  0  0  0  0  0  0  0  0
    7.4696    0.8341    0.0488 H   0  0  0  0  0  0  0  0  0  0  0  0
    3.1298    2.0555    0.7590 H   0  0  0  0  0  0  0  0  0  0  0  0
    2.8644   -2.1242   -0.0325 H   0  0  0  0  0  0  0  0  0  0  0  0
    5.4710    2.0678    0.2955 H   0  0  0  0  0  0  0  0  0  0  0  0
    5.3478   -2.1970    0.0152 H   0  0  0  0  0  0  0  0  0  0  0  0
    3.7186    5.6420    0.1091 H   0  0  0  0  0  0  0  0  0  0  0  0
    4.3421    4.5454   -2.5375 H   0  0  0  0  0  0  0  0  0  0  0  0
    5.1659    3.7661   -1.1706 H   0  0  0  0  0  0  0  0  0  0  0  0
    4.2609    2.7791   -2.3151 H   0  0  0  0  0  0  0  0  0  0  0  0
    2.4740    6.0616    2.5200 H   0  0  0  0  0  0  0  0  0  0  0  0
    1.5035    6.8790    1.2744 H   0  0  0  0  0  0  0  0  0  0  0  0
    0.7234    5.7762    2.4173 H   0  0  0  0  0  0  0  0  0  0  0  0
  1  2  2  0  0  0  0
  1  3  2  0  0  0  0
  1  4  1  0  0  0  0
  1  8  1  0  0  0  0
  4 11  1  0  0  0  0
  4 20  1  0  0  0  0
  5 11  1  0  0  0  0
  5 15  2  0  0  0  0
  6 11  2  0  0  0  0
  6 16  1  0  0  0  0
  7 12  1  0  0  0  0
  7 21  1  0  0  0  0
  7 22  1  0  0  0  0
  8  9  2  0  0  0  0
  8 10  1  0  0  0  0
  9 13  1  0  0  0  0
  9 23  1  0  0  0  0
 10 14  2  0  0  0  0
 10 24  1  0  0  0  0
 12 13  2  0  0  0  0
 12 14  1  0  0  0  0
 13 25  1  0  0  0  0
 14 26  1  0  0  0  0
 15 17  1  0  0  0  0
 15 18  1  0  0  0  0
 16 17  2  0  0  0  0
 16 19  1  0  0  0  0
 17 27  1  0  0  0  0
 18 28  1  0  0  0  0
 18 29  1  0  0  0  0
 18 30  1  0  0  0  0
 19 31  1  0  0  0  0
 19 32  1  0  0  0  0
 19 33  1  0  0  0  0
M  END
>  <DRUGBANK_ID>
DB01582

>  <COMMON_NAME>
Sulfamethazine

>  <CAS_NUMBER>
57-68-1

>  <UNII>
48U51W007F

>  <SYNONYMS>
(p-Aminobenzolsulfonyl)-2-amino-4,6-dimethylpyrimidin; 2-(4-Aminobenzenesulfonamido)-4,6-dimethylpyrimidine; 2-(p-Aminobenzenesulfonamido)-4,6-dimethylpyrimidine; 2-Sulfanilamido-4,6-dimethylpyrimidine; 4-Amino-N-(2,6-dimethyl-4-pyrimidinyl)benzenesulfonamide; 4-Amino-N-(4,6-dimethyl-pyrimidin-2-yl)-benzenesulfonamide; 4-amino-N-(4,6-dimethylpyrimidin-2-yl)benzenesulfonamide; 4,6-Dimethyl-2-sulfanilamidopyrimidine; 6-(4'-Aminobenzol-sulfonamido)-2,4-dimethylpyrimidin; N-(4,6-Dimethyl-2-pyrimidyl)sulfanilamide; N(1)-(4,6-Dimethyl-2-pyrimidinyl)sulfanilamide; N(1)-(4,6-Dimethyl-2-pyrimidyl)sulfanilamide; SMZ; Sulfadimethyldiazine; Sulfadimethylpyrimidine; Sulfadimidina; Sulfadimidine; Sulfadimidinum; Sulfametazina; Sulfametazyny; Sulfamethazine; Sulfamezathine; Sulphadimethylpyrimidine; Sulphamethazine

$$$$
