
 OpenBabel10282417153D

 54 56  0  0  1  0  0  0  0  0999 V2000
    3.7013   -1.7713    5.7491 C   0  0  0  0  0  0  0  0  0  0  0  0
    4.5156   -2.5844    4.7995 C   0  0  0  0  0  0  0  0  0  0  0  0
    5.5522   -1.3278    3.9926 C   0  0  0  0  0  0  0  0  0  0  0  0
    5.6133   -3.5203    5.3666 C   0  0  0  0  0  0  0  0  0  0  0  0
    5.0699   -4.5096    6.3230 C   0  0  0  0  0  0  0  0  0  0  0  0
    5.0147   -4.1275    7.6515 C   0  0  0  0  0  0  0  0  0  0  0  0
    4.3183   -4.9178    8.5364 C   0  0  0  0  0  0  0  0  0  0  0  0
    3.6485   -6.0661    8.0883 C   0  0  0  0  0  0  0  0  0  0  0  0
    2.9157   -6.8410    8.9801 C   0  0  0  0  0  0  0  0  0  0  0  0
    2.2536   -7.9876    8.5435 C   0  0  0  0  0  0  0  0  0  0  0  0
    2.2898   -8.3582    7.2006 C   0  0  0  0  0  0  0  0  0  0  0  0
    3.0080   -7.5915    6.2890 C   0  0  0  0  0  0  0  0  0  0  0  0
    3.7060   -6.4582    6.7328 C   0  0  0  0  0  0  0  0  0  0  0  0
    4.4593   -5.6876    5.8619 C   0  0  0  0  0  0  0  0  0  0  0  0
    3.2155   -3.5220    4.2055 N   0  0  0  0  0  0  0  0  0  0  0  0
    2.2622   -2.8351    3.1543 C   0  0  0  0  0  0  0  0  0  0  0  0
    2.6144   -1.7299    1.7357 C   0  0  2  0  0  0  0  0  0  0  0  0
    2.3322   -2.5038    0.4673 C   0  0  0  0  0  0  0  0  0  0  0  0
    2.7518   -3.9259    0.4634 O   0  0  0  0  0  0  0  0  0  0  0  0
    4.0322   -4.4469    0.4835 C   0  0  0  0  0  0  0  0  0  0  0  0
    4.3907   -5.4119   -0.3845 C   0  0  0  0  0  0  0  0  0  0  0  0
    5.6675   -6.0451   -0.2594 C   0  0  0  0  0  0  0  0  0  0  0  0
    6.6452   -5.7298    0.6969 C   0  0  0  0  0  0  0  0  0  0  0  0
    6.3586   -4.7714    1.5605 C   0  0  0  0  0  0  0  0  0  0  0  0
    5.0687   -4.3178    1.4017 C   0  0  0  0  0  0  0  0  0  0  0  0
    4.8302   -3.4560    2.3570 C   0  0  0  0  0  0  0  0  0  0  0  0
    4.4776   -2.4540    2.5820 N   0  0  0  0  0  0  0  0  0  0  0  0
    7.5791   -4.1795    2.6490 Cl  0  0  0  0  0  0  0  0  0  0  0  0
    3.9131   -1.0821    1.1525 O   0  0  0  0  0  0  0  0  0  0  0  0
    4.3492   -1.0571    6.2411 H   0  0  0  0  0  0  0  0  0  0  0  0
    3.1677   -2.4072    6.4572 H   0  0  0  0  0  0  0  0  0  0  0  0
    2.9627   -1.2236    5.1555 H   0  0  0  0  0  0  0  0  0  0  0  0
    6.2006   -0.7295    4.6129 H   0  0  0  0  0  0  0  0  0  0  0  0
    6.2527   -1.7502    3.2145 H   0  0  0  0  0  0  0  0  0  0  0  0
    4.9133   -0.6047    3.4468 H   0  0  0  0  0  0  0  0  0  0  0  0
    6.0841   -4.1180    4.5925 H   0  0  0  0  0  0  0  0  0  0  0  0
    6.4235   -2.9156    5.7977 H   0  0  0  0  0  0  0  0  0  0  0  0
    5.4502   -3.1799    7.9586 H   0  0  0  0  0  0  0  0  0  0  0  0
    4.2881   -4.6083    9.5735 H   0  0  0  0  0  0  0  0  0  0  0  0
    2.8656   -6.5527   10.0251 H   0  0  0  0  0  0  0  0  0  0  0  0
    1.7084   -8.5911    9.2611 H   0  0  0  0  0  0  0  0  0  0  0  0
    1.7649   -9.2476    6.8658 H   0  0  0  0  0  0  0  0  0  0  0  0
    3.0257   -7.8879    5.2422 H   0  0  0  0  0  0  0  0  0  0  0  0
    4.4908   -5.9452    4.8059 H   0  0  0  0  0  0  0  0  0  0  0  0
    3.5543   -4.4048    3.7952 H   0  0  0  0  0  0  0  0  0  0  0  0
    1.6032   -3.6479    2.7429 H   0  0  0  0  0  0  0  0  0  0  0  0
    1.5810   -2.2833    3.8075 H   0  0  0  0  0  0  0  0  0  0  0  0
    2.1900   -0.7781    2.0526 H   0  0  0  0  0  0  0  0  0  0  0  0
    1.2490   -2.4267    0.3409 H   0  0  0  0  0  0  0  0  0  0  0  0
    2.8026   -2.0022   -0.3939 H   0  0  0  0  0  0  0  0  0  0  0  0
    3.6845   -5.6876   -1.1481 H   0  0  0  0  0  0  0  0  0  0  0  0
    5.9248   -6.8248   -0.9465 H   0  0  0  0  0  0  0  0  0  0  0  0
    7.6136   -6.1799    0.8034 H   0  0  0  0  0  0  0  0  0  0  0  0
    4.5553   -1.8201    1.0119 H   0  0  0  0  0  0  0  0  0  0  0  0
  1  2  1  0  0  0  0
  1 30  1  0  0  0  0
  1 31  1  0  0  0  0
  1 32  1  0  0  0  0
  2  3  1  0  0  0  0
  2  4  1  0  0  0  0
  2 15  1  0  0  0  0
  3 33  1  0  0  0  0
  3 34  1  0  0  0  0
  3 35  1  0  0  0  0
  4  5  1  0  0  0  0
  4 36  1  0  0  0  0
  4 37  1  0  0  0  0
  5  6  2  0  0  0  0
  5 14  1  0  0  0  0
  6  7  1  0  0  0  0
  6 38  1  0  0  0  0
  7  8  2  0  0  0  0
  7 39  1  0  0  0  0
  8  9  1  0  0  0  0
  8 13  1  0  0  0  0
  9 10  2  0  0  0  0
  9 40  1  0  0  0  0
 10 11  1  0  0  0  0
 10 41  1  0  0  0  0
 11 12  2  0  0  0  0
 11 42  1  0  0  0  0
 12 13  1  0  0  0  0
 12 43  1  0  0  0  0
 13 14  2  0  0  0  0
 14 44  1  0  0  0  0
 15 16  1  0  0  0  0
 15 45  1  0  0  0  0
 16 46  1  0  0  0  0
 16 47  1  0  0  0  0
 17 29  1  0  0  0  0
 17 48  1  1  0  0  0
 17 18  1  0  0  0  0
 17 16  1  0  0  0  0
 18 19  1  0  0  0  0
 18 49  1  0  0  0  0
 18 50  1  0  0  0  0
 19 20  1  0  0  0  0
 20 21  2  0  0  0  0
 20 25  1  0  0  0  0
 21 22  1  0  0  0  0
 21 51  1  0  0  0  0
 22 23  2  0  0  0  0
 22 52  1  0  0  0  0
 23 24  1  0  0  0  0
 23 53  1  0  0  0  0
 24 25  2  0  0  0  0
 24 28  1  0  0  0  0
 25 26  1  0  0  0  0
 26 27  3  0  0  0  0
 29 54  1  0  0  0  0
M  END
>  <DRUGBANK_ID>
DB05695

>  <COMMON_NAME>
NPS-2143

>  <CAS_NUMBER>
284035-33-2

>  <UNII>
Z25PJ77W7V

$$$$
