
 OpenBabel10282417203D

 42 45  0  0  0  0  0  0  0  0999 V2000
    1.8329    0.0866   -0.0205 C   0  0  0  0  0  0  0  0  0  0  0  0
    1.0001   -0.9819    0.0584 C   0  0  0  0  0  0  0  0  0  0  0  0
   -0.3569   -0.6858    0.1010 C   0  0  0  0  0  0  0  0  0  0  0  0
   -0.9671    0.6292   -0.0801 C   0  0  0  0  0  0  0  0  0  0  0  0
   -0.0839    1.6603   -0.0504 C   0  0  0  0  0  0  0  0  0  0  0  0
    1.2937    1.3896   -0.0388 C   0  0  0  0  0  0  0  0  0  0  0  0
   -2.4896    1.0312   -0.1758 C   0  0  0  0  0  0  0  0  0  0  0  0
   -3.2222    0.2990    0.8159 N   0  0  0  0  0  0  0  0  0  0  0  0
   -3.1710   -1.0529    0.3672 C   0  0  0  0  0  0  0  0  0  0  0  0
   -2.7352   -1.5687   -0.9660 C   0  0  0  0  0  0  0  0  0  0  0  0
   -2.4677   -2.9117   -1.1234 C   0  0  0  0  0  0  0  0  0  0  0  0
   -2.7470   -3.6765   -0.0291 C   0  0  0  0  0  0  0  0  0  0  0  0
   -2.9488   -3.1530    1.3029 C   0  0  0  0  0  0  0  0  0  0  0  0
   -3.0881   -1.7484    1.5089 C   0  0  0  0  0  0  0  0  0  0  0  0
   -3.1237   -0.9216    2.6556 N   0  0  0  0  0  0  0  0  0  0  0  0
   -3.3140    0.3329    2.2375 C   0  0  0  0  0  0  0  0  0  0  0  0
   -3.5373    1.4776    3.0467 N   0  0  0  0  0  0  0  0  0  0  0  0
   -4.9243    2.0458    3.2289 C   0  0  0  0  0  0  0  0  0  0  0  0
   -4.8091    3.5609    3.6354 C   0  0  0  0  0  0  0  0  0  0  0  0
   -4.0514    3.8134    4.8844 N   0  0  0  0  0  0  0  0  0  0  0  0
   -2.7614    3.0878    4.8004 C   0  0  0  0  0  0  0  0  0  0  0  0
   -2.9038    1.5705    4.4195 C   0  0  0  0  0  0  0  0  0  0  0  0
    2.9033   -0.0868   -0.0066 H   0  0  0  0  0  0  0  0  0  0  0  0
    1.3409   -2.0202    0.1302 H   0  0  0  0  0  0  0  0  0  0  0  0
   -0.8682   -1.6040    0.3482 H   0  0  0  0  0  0  0  0  0  0  0  0
   -0.4775    2.6690    0.0255 H   0  0  0  0  0  0  0  0  0  0  0  0
    1.9675    2.2281   -0.0357 H   0  0  0  0  0  0  0  0  0  0  0  0
   -2.7706    2.0533   -0.4658 H   0  0  0  0  0  0  0  0  0  0  0  0
   -2.9891    0.6504   -1.0997 H   0  0  0  0  0  0  0  0  0  0  0  0
   -2.2521   -0.9410   -1.7295 H   0  0  0  0  0  0  0  0  0  0  0  0
   -2.0201   -3.2657   -2.0581 H   0  0  0  0  0  0  0  0  0  0  0  0
   -2.8187   -4.7478   -0.2013 H   0  0  0  0  0  0  0  0  0  0  0  0
   -3.0229   -3.8079    2.1401 H   0  0  0  0  0  0  0  0  0  0  0  0
   -5.5407    1.9479    2.3338 H   0  0  0  0  0  0  0  0  0  0  0  0
   -5.4643    1.5432    4.0539 H   0  0  0  0  0  0  0  0  0  0  0  0
   -4.3063    4.1012    2.8260 H   0  0  0  0  0  0  0  0  0  0  0  0
   -5.8013    4.0179    3.7488 H   0  0  0  0  0  0  0  0  0  0  0  0
   -4.5813    3.4607    5.6823 H   0  0  0  0  0  0  0  0  0  0  0  0
   -2.1456    3.5858    4.0429 H   0  0  0  0  0  0  0  0  0  0  0  0
   -2.2397    3.2108    5.7589 H   0  0  0  0  0  0  0  0  0  0  0  0
   -3.5304    1.1020    5.2018 H   0  0  0  0  0  0  0  0  0  0  0  0
   -1.9208    1.0983    4.4590 H   0  0  0  0  0  0  0  0  0  0  0  0
  1  2  2  0  0  0  0
  1  6  1  0  0  0  0
  1 23  1  0  0  0  0
  2  3  1  0  0  0  0
  2 24  1  0  0  0  0
  3  4  2  0  0  0  0
  3 25  1  0  0  0  0
  4  5  1  0  0  0  0
  4  7  1  0  0  0  0
  5  6  2  0  0  0  0
  5 26  1  0  0  0  0
  6 27  1  0  0  0  0
  7  8  1  0  0  0  0
  7 28  1  0  0  0  0
  7 29  1  0  0  0  0
  8  9  1  0  0  0  0
  8 16  1  0  0  0  0
  9 10  2  0  0  0  0
  9 14  1  0  0  0  0
 10 11  1  0  0  0  0
 10 30  1  0  0  0  0
 11 12  2  0  0  0  0
 11 31  1  0  0  0  0
 12 13  1  0  0  0  0
 12 32  1  0  0  0  0
 13 14  2  0  0  0  0
 13 33  1  0  0  0  0
 14 15  1  0  0  0  0
 15 16  2  0  0  0  0
 16 17  1  0  0  0  0
 17 18  1  0  0  0  0
 17 22  1  0  0  0  0
 18 19  1  0  0  0  0
 18 34  1  0  0  0  0
 18 35  1  0  0  0  0
 19 20  1  0  0  0  0
 19 36  1  0  0  0  0
 19 37  1  0  0  0  0
 20 21  1  0  0  0  0
 20 38  1  0  0  0  0
 21 22  1  0  0  0  0
 21 39  1  0  0  0  0
 21 40  1  0  0  0  0
 22 41  1  0  0  0  0
 22 42  1  0  0  0  0
M  END
>  <DRUGBANK_ID>
DB12964

>  <COMMON_NAME>
Lerisetron

>  <CAS_NUMBER>
143257-98-1

>  <UNII>
Q36R82SXRG

>  <SYNONYMS>
Lerisetron

$$$$
