AAF
 OpenBabel10282417163D

 58 60  0  0  0  0  0  0  0  0999 V2000
    1.1412    0.0782   -0.0011 C   0  0  0  0  0  0  0  0  0  0  0  0
    0.3110    1.3509    0.1693 C   0  0  2  0  0  0  0  0  0  0  0  0
    0.4680    2.4080   -0.8932 C   0  0  0  0  0  0  0  0  0  0  0  0
   -0.1667    3.6270   -0.2590 C   0  0  0  0  0  0  0  0  0  0  0  0
    0.0571    3.4369    1.2184 C   0  0  2  0  0  0  0  0  0  0  0  0
    1.1105    4.3923    1.7079 C   0  0  0  0  0  0  0  0  0  0  0  0
    0.4874   -0.9591   -0.1661 O   0  0  0  0  0  0  0  0  0  0  0  0
    0.5109    2.0408    1.4452 N   0  0  0  0  0  0  0  0  0  0  0  0
    2.5319    0.0751    0.0228 N   0  0  0  0  0  0  0  0  0  0  0  0
    3.3259   -1.1801   -0.0917 C   0  0  1  0  0  0  0  0  0  0  0  0
    4.5413   -0.8415    0.7586 C   0  0  0  0  0  0  0  0  0  0  0  0
    4.8120    0.6304    0.4825 C   0  0  0  0  0  0  0  0  0  0  0  0
    3.4372    1.2112    0.1707 C   0  0  0  0  0  0  0  0  0  0  0  0
    2.5652   -2.4461    0.3727 C   0  0  0  0  0  0  0  0  0  0  0  0
    0.8093    5.7935    1.8393 N   0  0  0  0  0  0  0  0  0  0  0  0
    0.7848    6.5525    2.9669 C   0  0  0  0  0  0  0  0  0  0  0  0
    0.3738    7.7110    2.8733 O   0  0  0  0  0  0  0  0  0  0  0  0
    3.2358   -3.7331    0.5601 N   0  0  0  0  0  0  0  0  0  0  0  0
    1.1189    6.0463    4.1949 N   0  0  0  0  0  0  0  0  0  0  0  0
    1.8075    4.8658    4.5613 C   0  0  0  0  0  0  0  0  0  0  0  0
    2.9173    4.4198    3.8228 C   0  0  0  0  0  0  0  0  0  0  0  0
    3.3221    3.0741    3.8753 C   0  0  0  0  0  0  0  0  0  0  0  0
    2.7727    2.2150    4.8273 C   0  0  0  0  0  0  0  0  0  0  0  0
    1.7941    2.7251    5.7014 C   0  0  0  0  0  0  0  0  0  0  0  0
    1.2679    4.0225    5.5351 C   0  0  0  0  0  0  0  0  0  0  0  0
    3.1736    0.7744    4.9600 C   0  0  0  0  0  0  0  0  0  0  0  0
    2.7565    0.0608    5.8470 O   0  0  0  0  0  0  0  0  0  0  0  0
    4.0589    0.3876    3.9949 O   0  0  0  0  0  0  0  0  0  0  0  0
    4.5149   -0.9681    4.1583 C   0  0  0  0  0  0  0  0  0  0  0  0
   -0.7384    1.0247    0.1887 H   0  0  0  0  0  0  0  0  0  0  0  0
   -0.8545    3.5887    1.8058 H   0  0  0  0  0  0  0  0  0  0  0  0
    3.6453   -1.2808   -1.1365 H   0  0  0  0  0  0  0  0  0  0  0  0
    1.5163    2.6071   -1.1244 H   0  0  0  0  0  0  0  0  0  0  0  0
   -0.0418    2.1399   -1.8199 H   0  0  0  0  0  0  0  0  0  0  0  0
    0.2759    4.5492   -0.6470 H   0  0  0  0  0  0  0  0  0  0  0  0
   -1.2449    3.6546   -0.4351 H   0  0  0  0  0  0  0  0  0  0  0  0
    1.1584    3.9914    2.6904 H   0  0  0  0  0  0  0  0  0  0  0  0
    2.0707    4.2915    1.1866 H   0  0  0  0  0  0  0  0  0  0  0  0
    1.4810    1.9943    1.7398 H   0  0  0  0  0  0  0  0  0  0  0  0
    4.2256   -0.9481    1.7876 H   0  0  0  0  0  0  0  0  0  0  0  0
    5.4206   -1.4709    0.5977 H   0  0  0  0  0  0  0  0  0  0  0  0
    5.2774    1.1357    1.3383 H   0  0  0  0  0  0  0  0  0  0  0  0
    5.4824    0.7542   -0.3737 H   0  0  0  0  0  0  0  0  0  0  0  0
    3.1325    1.8864    0.9641 H   0  0  0  0  0  0  0  0  0  0  0  0
    3.4677    1.7688   -0.7684 H   0  0  0  0  0  0  0  0  0  0  0  0
    2.0655   -2.2152    1.3207 H   0  0  0  0  0  0  0  0  0  0  0  0
    1.8100   -2.6513   -0.3888 H   0  0  0  0  0  0  0  0  0  0  0  0
    0.5599    6.3120    1.0044 H   0  0  0  0  0  0  0  0  0  0  0  0
    2.4788   -4.3842    0.8074 H   0  0  0  0  0  0  0  0  0  0  0  0
    3.5621   -4.0815   -0.3401 H   0  0  0  0  0  0  0  0  0  0  0  0
    0.7838    6.6334    4.9496 H   0  0  0  0  0  0  0  0  0  0  0  0
    3.3153    5.0612    3.0376 H   0  0  0  0  0  0  0  0  0  0  0  0
    4.0137    2.7083    3.1216 H   0  0  0  0  0  0  0  0  0  0  0  0
    1.3988    2.0896    6.4928 H   0  0  0  0  0  0  0  0  0  0  0  0
    0.3712    4.2969    6.0890 H   0  0  0  0  0  0  0  0  0  0  0  0
    4.9949   -1.1066    5.1282 H   0  0  0  0  0  0  0  0  0  0  0  0
    3.6882   -1.6746    4.0145 H   0  0  0  0  0  0  0  0  0  0  0  0
    5.2857   -1.1813    3.4099 H   0  0  0  0  0  0  0  0  0  0  0  0
  1  7  2  0  0  0  0
  1  9  1  0  0  0  0
  2  1  1  0  0  0  0
  2  3  1  0  0  0  0
  2  8  1  0  0  0  0
  2 30  1  6  0  0  0
  3  4  1  0  0  0  0
  3 33  1  0  0  0  0
  3 34  1  0  0  0  0
  4  5  1  0  0  0  0
  4 35  1  0  0  0  0
  4 36  1  0  0  0  0
  5  6  1  0  0  0  0
  5  8  1  0  0  0  0
  5 31  1  1  0  0  0
  6 15  1  0  0  0  0
  6 37  1  0  0  0  0
  6 38  1  0  0  0  0
  8 39  1  0  0  0  0
  9 10  1  0  0  0  0
  9 13  1  0  0  0  0
 10 11  1  0  0  0  0
 10 32  1  6  0  0  0
 10 14  1  0  0  0  0
 11 12  1  0  0  0  0
 11 40  1  0  0  0  0
 11 41  1  0  0  0  0
 12 13  1  0  0  0  0
 12 42  1  0  0  0  0
 12 43  1  0  0  0  0
 13 44  1  0  0  0  0
 13 45  1  0  0  0  0
 14 18  1  0  0  0  0
 14 46  1  0  0  0  0
 14 47  1  0  0  0  0
 15 16  1  0  0  0  0
 15 48  1  0  0  0  0
 16 17  2  0  0  0  0
 16 19  1  0  0  0  0
 18 49  1  0  0  0  0
 18 50  1  0  0  0  0
 19 20  1  0  0  0  0
 19 51  1  0  0  0  0
 20 21  1  0  0  0  0
 20 25  2  0  0  0  0
 21 22  2  0  0  0  0
 21 52  1  0  0  0  0
 22 23  1  0  0  0  0
 22 53  1  0  0  0  0
 23 24  2  0  0  0  0
 23 26  1  0  0  0  0
 24 25  1  0  0  0  0
 24 54  1  0  0  0  0
 25 55  1  0  0  0  0
 26 27  2  0  0  0  0
 26 28  1  0  0  0  0
 28 29  1  0  0  0  0
 29 56  1  0  0  0  0
 29 57  1  0  0  0  0
 29 58  1  0  0  0  0
M  END
>  <DRUGBANK_ID>
DB07328

>  <COMMON_NAME>
METHYL 4-{[({[(2R,5S)-5-{[(2S)-2-(AMINOMETHYL)PYRROLIDIN-1-YL]CARBONYL}PYRROLIDIN-2-YL]METHYL}AMINO)CARBONYL]AMINO}BENZOATE

$$$$
