LPM
 OpenBabel10282417173D

 29 28  0  0  0  0  0  0  0  0999 V2000
    0.9531   -0.1217   -0.0229 C   0  0  0  0  0  0  0  0  0  0  0  0
    0.2320    0.8011   -0.3957 O   0  0  0  0  0  0  0  0  0  0  0  0
    0.3876   -1.2642    0.4382 N   0  0  0  0  0  0  0  0  0  0  0  0
    2.4650   -0.0860   -0.0187 C   0  0  0  0  0  0  0  0  0  0  0  0
    2.9924    1.2993   -0.4098 C   0  0  0  0  0  0  0  0  0  0  0  0
    2.5690    2.4051    0.5733 C   0  0  0  0  0  0  0  0  0  0  0  0
    3.1102    2.1732    1.9803 C   0  0  0  0  0  0  0  0  0  0  0  0
    4.6443    2.1430    2.0443 C   0  0  1  0  0  0  0  0  0  0  0  0
    5.3574    3.7773    1.6139 S   0  0  0  0  0  0  0  0  0  0  0  0
    5.1406    1.7087    3.4246 C   0  0  0  0  0  0  0  0  0  0  0  0
    4.6710    0.3110    3.8482 C   0  0  0  0  0  0  0  0  0  0  0  0
    5.2902   -1.0395    2.7881 S   0  0  0  0  0  0  0  0  0  0  0  0
    5.0501    1.4494    1.3067 H   0  0  0  0  0  0  0  0  0  0  0  0
    0.9026   -2.0960    0.6871 H   0  0  0  0  0  0  0  0  0  0  0  0
   -0.6241   -1.2912    0.4305 H   0  0  0  0  0  0  0  0  0  0  0  0
    2.8163   -0.3806    0.9741 H   0  0  0  0  0  0  0  0  0  0  0  0
    2.8456   -0.8361   -0.7205 H   0  0  0  0  0  0  0  0  0  0  0  0
    4.0849    1.2595   -0.4928 H   0  0  0  0  0  0  0  0  0  0  0  0
    2.6374    1.5607   -1.4120 H   0  0  0  0  0  0  0  0  0  0  0  0
    2.8792    3.3802    0.1907 H   0  0  0  0  0  0  0  0  0  0  0  0
    1.4801    2.4741    0.6430 H   0  0  0  0  0  0  0  0  0  0  0  0
    2.7077    2.9226    2.6728 H   0  0  0  0  0  0  0  0  0  0  0  0
    2.6890    1.2267    2.3330 H   0  0  0  0  0  0  0  0  0  0  0  0
    4.8494    3.8631    0.3717 H   0  0  0  0  0  0  0  0  0  0  0  0
    6.2372    1.7373    3.4514 H   0  0  0  0  0  0  0  0  0  0  0  0
    4.7870    2.4302    4.1730 H   0  0  0  0  0  0  0  0  0  0  0  0
    5.0260    0.1102    4.8619 H   0  0  0  0  0  0  0  0  0  0  0  0
    3.5794    0.2514    3.8925 H   0  0  0  0  0  0  0  0  0  0  0  0
    4.8068   -0.6092    1.6137 H   0  0  0  0  0  0  0  0  0  0  0  0
  1  2  2  0  0  0  0
  1  3  1  0  0  0  0
  1  4  1  0  0  0  0
  3 14  1  0  0  0  0
  3 15  1  0  0  0  0
  4  5  1  0  0  0  0
  4 16  1  0  0  0  0
  4 17  1  0  0  0  0
  5  6  1  0  0  0  0
  5 18  1  0  0  0  0
  5 19  1  0  0  0  0
  6  7  1  0  0  0  0
  6 20  1  0  0  0  0
  6 21  1  0  0  0  0
  7  8  1  0  0  0  0
  7 22  1  0  0  0  0
  7 23  1  0  0  0  0
  8  9  1  0  0  0  0
  8 10  1  0  0  0  0
  8 13  1  6  0  0  0
  9 24  1  0  0  0  0
 10 11  1  0  0  0  0
 10 25  1  0  0  0  0
 10 26  1  0  0  0  0
 11 12  1  0  0  0  0
 11 27  1  0  0  0  0
 11 28  1  0  0  0  0
 12 29  1  0  0  0  0
M  END
>  <DRUGBANK_ID>
DB08120

>  <COMMON_NAME>
6,8-DIMERCAPTO-OCTANOIC ACID AMIDE

$$$$
