
 OpenBabel10282417123D

 47 49  0  0  1  0  0  0  0  0999 V2000
    0.9686   -0.2057   -0.0018 C   0  0  0  0  0  0  0  0  0  0  0  0
    3.1014   -1.5038    4.6166 C   0  0  0  0  0  0  0  0  0  0  0  0
    3.6968    2.7524    3.8717 C   0  0  0  0  0  0  0  0  0  0  0  0
    0.4798    0.9045    0.8942 C   0  0  2  0  0  0  0  0  0  0  0  0
    4.2006    0.9384    4.8788 C   0  0  0  0  0  0  0  0  0  0  0  0
    0.8987    2.2827    0.4561 C   0  0  2  0  0  0  0  0  0  0  0  0
    2.0974    2.8305    1.2447 C   0  0  2  0  0  0  0  0  0  0  0  0
    4.7243   -0.1278    5.5713 C   0  0  0  0  0  0  0  0  0  0  0  0
    3.1800    0.6075    4.0234 C   0  0  0  0  0  0  0  0  0  0  0  0
    1.8382    1.8631    2.5061 C   0  0  2  0  0  0  0  0  0  0  0  0
    5.8394    0.0479    6.3469 N   0  0  0  0  0  0  0  0  0  0  0  0
    4.1684   -1.3623    5.4306 N   0  0  0  0  0  0  0  0  0  0  0  0
    2.5539   -0.5647    3.8660 N   0  0  0  0  0  0  0  0  0  0  0  0
    4.4987    2.2901    4.8014 N   0  0  0  0  0  0  0  0  0  0  0  0
    2.9873    1.7166    3.3327 N   0  0  0  0  0  0  0  0  0  0  0  0
   -0.1921    3.1273    0.1474 O   0  0  0  0  0  0  0  0  0  0  0  0
    1.4282    5.0341    3.3672 O   0  0  0  0  0  0  0  0  0  0  0  0
   -0.2232    4.9931    1.6294 O   0  0  0  0  0  0  0  0  0  0  0  0
   -0.3508    3.4813    3.3971 O   0  0  0  0  0  0  0  0  0  0  0  0
    2.8768    4.6730   -3.0644 O   0  0  0  0  0  0  0  0  0  0  0  0
    0.9936    4.5474   -1.5784 O   0  0  0  0  0  0  0  0  0  0  0  0
    3.1711    4.7035   -0.7292 O   0  0  0  0  0  0  0  0  0  0  0  0
    1.3228    0.4884   -3.4432 O   0  0  0  0  0  0  0  0  0  0  0  0
   -0.3753    1.8901   -2.1917 O   0  0  0  0  0  0  0  0  0  0  0  0
    0.4763   -0.0602   -1.2997 O   0  0  0  0  0  0  0  0  0  0  0  0
    1.1899    0.6689    2.0853 O   0  0  0  0  0  0  0  0  0  0  0  0
    1.9696    4.4026    1.2724 O   0  0  0  0  0  0  0  0  0  0  0  0
    1.6296    2.7852   -2.8951 O   0  0  0  0  0  0  0  0  0  0  0  0
    0.7451    3.9164    2.3936 P   0  0  0  0  0  0  0  0  0  0  0  0
    2.4431    3.7975   -1.7521 P   0  0  0  0  0  0  0  0  0  0  0  0
    1.0529    1.3625   -2.0974 P   0  0  3  0  0  0  0  0  0  0  0  0
   -0.6164    0.8500    0.9960 H   0  0  0  0  0  0  0  0  0  0  0  0
    1.4636    2.2626   -0.4147 H   0  0  0  0  0  0  0  0  0  0  0  0
    3.0675    2.5833    0.8040 H   0  0  0  0  0  0  0  0  0  0  0  0
    1.1494    2.1022    3.3138 H   0  0  0  0  0  0  0  0  0  0  0  0
    0.6484   -1.1684    0.4064 H   0  0  0  0  0  0  0  0  0  0  0  0
    2.0646   -0.2114   -0.0205 H   0  0  0  0  0  0  0  0  0  0  0  0
    2.6459   -2.4838    4.5242 H   0  0  0  0  0  0  0  0  0  0  0  0
    3.6006    3.7932    3.5760 H   0  0  0  0  0  0  0  0  0  0  0  0
    6.2108    0.9865    6.4200 H   0  0  0  0  0  0  0  0  0  0  0  0
    6.2288   -0.7495    6.8074 H   0  0  0  0  0  0  0  0  0  0  0  0
   -0.9478    3.0764    0.7840 H   0  0  0  0  0  0  0  0  0  0  0  0
    1.6227    4.7676    4.2793 H   0  0  0  0  0  0  0  0  0  0  0  0
   -0.0290    4.9986    0.6651 H   0  0  0  0  0  0  0  0  0  0  0  0
    3.8108    4.6213   -3.3125 H   0  0  0  0  0  0  0  0  0  0  0  0
    0.2135    3.9480   -1.5225 H   0  0  0  0  0  0  0  0  0  0  0  0
    2.1866    0.0567   -3.5334 H   0  0  0  0  0  0  0  0  0  0  0  0
  1 36  1  0  0  0  0
  1 37  1  0  0  0  0
  2 38  1  0  0  0  0
  3 39  1  0  0  0  0
  4  1  1  0  0  0  0
  4 32  1  1  0  0  0
  6  4  1  0  0  0  0
  6 16  1  0  0  0  0
  6 33  1  6  0  0  0
  7  6  1  0  0  0  0
  7 34  1  6  0  0  0
  7 27  1  0  0  0  0
  8  5  2  0  0  0  0
  9  5  1  0  0  0  0
 10  7  1  0  0  0  0
 10 35  1  1  0  0  0
 10 15  1  0  0  0  0
 11  8  1  0  0  0  0
 11 40  1  0  0  0  0
 11 41  1  0  0  0  0
 12  2  2  0  0  0  0
 12  8  1  0  0  0  0
 13  2  1  0  0  0  0
 13  9  2  0  0  0  0
 14  3  2  0  0  0  0
 14  5  1  0  0  0  0
 15  3  1  0  0  0  0
 15  9  1  0  0  0  0
 16 42  1  0  0  0  0
 17 43  1  0  0  0  0
 18 44  1  0  0  0  0
 20 45  1  0  0  0  0
 21 46  1  0  0  0  0
 23 47  1  0  0  0  0
 25  1  1  0  0  0  0
 26  4  1  0  0  0  0
 26 10  1  0  0  0  0
 29 17  1  0  0  0  0
 29 18  1  0  0  0  0
 29 19  2  0  0  0  0
 29 27  1  0  0  0  0
 30 20  1  0  0  0  0
 30 21  1  0  0  0  0
 30 22  2  0  0  0  0
 30 28  1  0  0  0  0
 31 23  1  0  0  0  0
 31 24  2  0  0  0  0
 31 25  1  0  0  0  0
 31 28  1  0  0  0  0
M  END
>  <DRUGBANK_ID>
DB02363

>  <SECONDARY_ACCESSION_NUMBERS>
EXPT00588

>  <COMMON_NAME>
2'-Monophosphoadenosine-5'-Diphosphate

$$$$
