OWL
 OpenBabel10282417173D

 42 45  0  0  0  0  0  0  0  0999 V2000
    1.4224   -0.1878    0.0533 C   0  0  0  0  0  0  0  0  0  0  0  0
   -1.4043    0.2598   -0.0460 C   0  0  0  0  0  0  0  0  0  0  0  0
    0.5166   -1.2603    0.0137 C   0  0  0  0  0  0  0  0  0  0  0  0
    0.8848    1.0968    0.0242 C   0  0  0  0  0  0  0  0  0  0  0  0
   -0.4880    1.3103    0.0442 C   0  0  0  0  0  0  0  0  0  0  0  0
   -0.8812   -1.0390   -0.0418 C   0  0  0  0  0  0  0  0  0  0  0  0
   -2.9108    2.7541   -1.2412 C   0  0  0  0  0  0  0  0  0  0  0  0
   -4.5936    3.5897    0.7740 C   0  0  0  0  0  0  0  0  0  0  0  0
   -3.3671    1.8056   -0.3122 C   0  0  0  0  0  0  0  0  0  0  0  0
   -3.2703    4.1066   -1.1544 C   0  0  0  0  0  0  0  0  0  0  0  0
   -4.1090    4.5518   -0.1278 C   0  0  0  0  0  0  0  0  0  0  0  0
   -4.2515    2.2332    0.6751 C   0  0  0  0  0  0  0  0  0  0  0  0
   -2.7808    0.5185   -0.2643 N   0  0  0  0  0  0  0  0  0  0  0  0
   -5.2419    6.4234    0.9359 C   0  0  0  0  0  0  0  0  0  0  0  0
   -6.4649    7.0070    0.7073 N   0  0  0  0  0  0  0  0  0  0  0  0
   -4.9848    6.3704    2.2166 N   0  0  0  0  0  0  0  0  0  0  0  0
    3.7139    0.6029    0.2287 C   0  0  0  0  0  0  0  0  0  0  0  0
    4.7777    0.7760   -0.6203 N   0  0  0  0  0  0  0  0  0  0  0  0
    3.6917    1.5579    1.1314 N   0  0  0  0  0  0  0  0  0  0  0  0
    2.8248   -0.3916   -0.0367 N   0  0  0  0  0  0  0  0  0  0  0  0
   -4.5812    5.8872   -0.1216 N   0  0  0  0  0  0  0  0  0  0  0  0
   -7.0383    7.2586    1.9259 C   0  0  0  0  0  0  0  0  0  0  0  0
   -6.0934    6.8810    2.8464 C   0  0  0  0  0  0  0  0  0  0  0  0
    5.4069    1.9437   -0.2816 C   0  0  0  0  0  0  0  0  0  0  0  0
    4.7289    2.4018    0.8207 C   0  0  0  0  0  0  0  0  0  0  0  0
    0.8811   -2.2847    0.0064 H   0  0  0  0  0  0  0  0  0  0  0  0
    1.5250    1.9734   -0.0125 H   0  0  0  0  0  0  0  0  0  0  0  0
   -0.8174    2.3405    0.1219 H   0  0  0  0  0  0  0  0  0  0  0  0
   -1.5457   -1.8986   -0.0835 H   0  0  0  0  0  0  0  0  0  0  0  0
   -2.2309    2.4319   -2.0277 H   0  0  0  0  0  0  0  0  0  0  0  0
   -5.2367    3.8959    1.5965 H   0  0  0  0  0  0  0  0  0  0  0  0
   -2.8608    4.7960   -1.8868 H   0  0  0  0  0  0  0  0  0  0  0  0
   -4.6500    1.5441    1.4131 H   0  0  0  0  0  0  0  0  0  0  0  0
   -3.4123   -0.2400   -0.0396 H   0  0  0  0  0  0  0  0  0  0  0  0
   -6.8947    7.0982   -0.1947 H   0  0  0  0  0  0  0  0  0  0  0  0
    4.9653    0.1965   -1.4208 H   0  0  0  0  0  0  0  0  0  0  0  0
    3.0851   -1.3141    0.2955 H   0  0  0  0  0  0  0  0  0  0  0  0
   -4.0219    6.5154   -0.6857 H   0  0  0  0  0  0  0  0  0  0  0  0
   -8.0399    7.6538    2.0245 H   0  0  0  0  0  0  0  0  0  0  0  0
   -6.1602    6.9195    3.9260 H   0  0  0  0  0  0  0  0  0  0  0  0
    6.2404    2.3394   -0.8440 H   0  0  0  0  0  0  0  0  0  0  0  0
    4.9146    3.3036    1.3913 H   0  0  0  0  0  0  0  0  0  0  0  0
  1  3  1  0  0  0  0
  2 13  1  0  0  0  0
  3  6  2  0  0  0  0
  3 26  1  0  0  0  0
  4  1  2  0  0  0  0
  4  5  1  0  0  0  0
  4 27  1  0  0  0  0
  5  2  2  0  0  0  0
  5 28  1  0  0  0  0
  6  2  1  0  0  0  0
  6 29  1  0  0  0  0
  7 10  1  0  0  0  0
  7 30  1  0  0  0  0
  8 11  1  0  0  0  0
  8 31  1  0  0  0  0
  9  7  2  0  0  0  0
  9 12  1  0  0  0  0
 10 11  2  0  0  0  0
 10 32  1  0  0  0  0
 11 21  1  0  0  0  0
 12  8  2  0  0  0  0
 12 33  1  0  0  0  0
 13  9  1  0  0  0  0
 13 34  1  0  0  0  0
 14 16  2  0  0  0  0
 15 14  1  0  0  0  0
 15 22  1  0  0  0  0
 15 35  1  0  0  0  0
 16 23  1  0  0  0  0
 17 18  1  0  0  0  0
 18 36  1  0  0  0  0
 19 17  2  0  0  0  0
 19 25  1  0  0  0  0
 20  1  1  0  0  0  0
 20 17  1  0  0  0  0
 20 37  1  0  0  0  0
 21 14  1  0  0  0  0
 21 38  1  0  0  0  0
 22 23  2  0  0  0  0
 22 39  1  0  0  0  0
 23 40  1  0  0  0  0
 24 18  1  0  0  0  0
 24 41  1  0  0  0  0
 25 24  2  0  0  0  0
 25 42  1  0  0  0  0
M  END
>  <DRUGBANK_ID>
DB08331

>  <COMMON_NAME>
N-1H-imidazol-2-yl-N'-[4-(1H-imidazol-2-ylamino)phenyl]benzene-1,4-diamine

$$$$
