
 OpenBabel10282417113D

 57 57  0  0  1  0  0  0  0  0999 V2000
   -0.4891    0.4107    1.5929 O   0  0  0  0  0  0  0  0  0  0  0  0
    1.1562   -3.8628    0.3935 O   0  0  0  0  0  0  0  0  0  0  0  0
    6.0657   -0.6550    2.9691 O   0  0  0  0  0  0  0  0  0  0  0  0
    1.4366   -9.7249    4.0677 O   0  0  0  0  0  0  0  0  0  0  0  0
    0.7504   -8.0145    2.8065 O   0  0  0  0  0  0  0  0  0  0  0  0
    1.6033   -0.7266    2.1195 C   0  0  2  0  0  0  0  0  0  0  0  0
    2.1393   -2.1286    1.7247 C   0  0  2  0  0  0  0  0  0  0  0  0
    0.4843   -0.4992    1.0977 C   0  0  1  0  0  0  0  0  0  0  0  0
   -0.1437   -1.8844    0.8728 C   0  0  0  0  0  0  0  0  0  0  0  0
    1.0487   -2.7701    0.9401 C   0  0  0  0  0  0  0  0  0  0  0  0
    2.6176   -2.8263    2.9917 C   0  0  0  0  0  0  0  0  0  0  0  0
    2.7501    0.2775    2.1765 C   0  0  0  0  0  0  0  0  0  0  0  0
    3.9785   -0.2527    2.1475 C   0  0  0  0  0  0  0  0  0  0  0  0
    1.4769   -3.5018    3.6444 C   0  0  0  0  0  0  0  0  0  0  0  0
    5.3776    0.1238    1.9927 C   0  0  2  0  0  0  0  0  0  0  0  0
    5.7537   -0.3626    0.5725 C   0  0  0  0  0  0  0  0  0  0  0  0
    4.9576    0.3759   -0.5222 C   0  0  0  0  0  0  0  0  0  0  0  0
    1.3930   -4.8288    3.6756 C   0  0  0  0  0  0  0  0  0  0  0  0
    5.0782    1.8921   -0.3459 C   0  0  0  0  0  0  0  0  0  0  0  0
    2.4975   -5.7484    3.2349 C   0  0  0  0  0  0  0  0  0  0  0  0
    6.5421    2.3355   -0.3472 C   0  0  0  0  0  0  0  0  0  0  0  0
    2.9453   -6.6083    4.4060 C   0  0  0  0  0  0  0  0  0  0  0  0
    1.8282   -7.5075    4.9193 C   0  0  0  0  0  0  0  0  0  0  0  0
    7.1981    2.0034   -1.6764 C   0  0  0  0  0  0  0  0  0  0  0  0
    1.2866   -8.4067    3.8203 C   0  0  0  0  0  0  0  0  0  0  0  0
   -0.5519    0.3222    2.5599 H   0  0  0  0  0  0  0  0  0  0  0  0
    5.5395   -0.5911    3.7887 H   0  0  0  0  0  0  0  0  0  0  0  0
    1.8328   -9.9397    4.9281 H   0  0  0  0  0  0  0  0  0  0  0  0
    1.1711   -0.7342    3.1302 H   0  0  0  0  0  0  0  0  0  0  0  0
    2.9241   -2.0865    0.9514 H   0  0  0  0  0  0  0  0  0  0  0  0
    0.8897   -0.0992    0.1617 H   0  0  0  0  0  0  0  0  0  0  0  0
   -0.6306   -1.9709   -0.0982 H   0  0  0  0  0  0  0  0  0  0  0  0
   -0.8198   -2.1760    1.6808 H   0  0  0  0  0  0  0  0  0  0  0  0
    3.4594   -3.4556    2.7053 H   0  0  0  0  0  0  0  0  0  0  0  0
    3.0564   -2.1538    3.7416 H   0  0  0  0  0  0  0  0  0  0  0  0
    2.5738    1.3505    2.1915 H   0  0  0  0  0  0  0  0  0  0  0  0
    4.0887   -1.3222    2.1561 H   0  0  0  0  0  0  0  0  0  0  0  0
    0.6413   -2.8933    3.9814 H   0  0  0  0  0  0  0  0  0  0  0  0
    5.5554    1.1744    2.1983 H   0  0  0  0  0  0  0  0  0  0  0  0
    6.8321   -0.2482    0.4345 H   0  0  0  0  0  0  0  0  0  0  0  0
    5.5916   -1.4462    0.4437 H   0  0  0  0  0  0  0  0  0  0  0  0
    5.3111    0.0643   -1.5114 H   0  0  0  0  0  0  0  0  0  0  0  0
    3.8982    0.0875   -0.5143 H   0  0  0  0  0  0  0  0  0  0  0  0
    0.4543   -5.2592    4.0134 H   0  0  0  0  0  0  0  0  0  0  0  0
    4.5193    2.4066   -1.1334 H   0  0  0  0  0  0  0  0  0  0  0  0
    4.6051    2.2044    0.5927 H   0  0  0  0  0  0  0  0  0  0  0  0
    2.1726   -6.3188    2.3649 H   0  0  0  0  0  0  0  0  0  0  0  0
    3.3974   -5.2508    2.8771 H   0  0  0  0  0  0  0  0  0  0  0  0
    6.5995    3.4090   -0.1494 H   0  0  0  0  0  0  0  0  0  0  0  0
    7.1039    1.8581    0.4648 H   0  0  0  0  0  0  0  0  0  0  0  0
    3.8095   -7.2050    4.0944 H   0  0  0  0  0  0  0  0  0  0  0  0
    3.2986   -5.9521    5.2169 H   0  0  0  0  0  0  0  0  0  0  0  0
    2.1996   -8.0885    5.7667 H   0  0  0  0  0  0  0  0  0  0  0  0
    0.9917   -6.9180    5.3108 H   0  0  0  0  0  0  0  0  0  0  0  0
    6.6662    2.5079   -2.4878 H   0  0  0  0  0  0  0  0  0  0  0  0
    8.2431    2.3155   -1.6788 H   0  0  0  0  0  0  0  0  0  0  0  0
    7.1871    0.9282   -1.8835 H   0  0  0  0  0  0  0  0  0  0  0  0
  1 26  1  0  0  0  0
  2 10  2  0  0  0  0
  3 27  1  0  0  0  0
  4 25  1  0  0  0  0
  4 28  1  0  0  0  0
  5 25  2  0  0  0  0
  6  7  1  0  0  0  0
  6  8  1  0  0  0  0
  6 29  1  1  0  0  0
  6 12  1  0  0  0  0
  7 10  1  0  0  0  0
  7 30  1  6  0  0  0
  7 11  1  0  0  0  0
  8  9  1  0  0  0  0
  8 31  1  6  0  0  0
  8  1  1  0  0  0  0
  9 10  1  0  0  0  0
  9 32  1  0  0  0  0
  9 33  1  0  0  0  0
 11 14  1  0  0  0  0
 11 34  1  0  0  0  0
 11 35  1  0  0  0  0
 12 13  2  0  0  0  0
 12 36  1  0  0  0  0
 13 15  1  0  0  0  0
 13 37  1  0  0  0  0
 14 18  2  0  0  0  0
 14 38  1  0  0  0  0
 15  3  1  0  0  0  0
 15 16  1  0  0  0  0
 15 39  1  1  0  0  0
 16 17  1  0  0  0  0
 16 40  1  0  0  0  0
 16 41  1  0  0  0  0
 17 19  1  0  0  0  0
 17 42  1  0  0  0  0
 17 43  1  0  0  0  0
 18 20  1  0  0  0  0
 18 44  1  0  0  0  0
 19 21  1  0  0  0  0
 19 45  1  0  0  0  0
 19 46  1  0  0  0  0
 20 22  1  0  0  0  0
 20 47  1  0  0  0  0
 20 48  1  0  0  0  0
 21 24  1  0  0  0  0
 21 49  1  0  0  0  0
 21 50  1  0  0  0  0
 22 23  1  0  0  0  0
 22 51  1  0  0  0  0
 22 52  1  0  0  0  0
 23 25  1  0  0  0  0
 23 53  1  0  0  0  0
 23 54  1  0  0  0  0
 24 55  1  0  0  0  0
 24 56  1  0  0  0  0
 24 57  1  0  0  0  0
M  END
>  <DRUGBANK_ID>
DB00917

>  <SECONDARY_ACCESSION_NUMBERS>
APRD00927

>  <COMMON_NAME>
Dinoprostone

>  <CAS_NUMBER>
363-24-6

>  <UNII>
K7Q1JQR04M

>  <SYNONYMS>
(15S)-prostaglandin E2; (5Z,11Î±,13E,15S)-11,15-dihydroxy-9-oxoprosta-5,13-dien-1-oic acid; (5Z,13E)-(15S)-11alpha,15-Dihydroxy-9-oxoprost-13-enoate; (5Z,13E)-(15S)-11alpha,15-Dihydroxy-9-oxoprosta-5,13-dienoate; (E,Z)-(1R,2R,3R)-7-(3-Hydroxy-2-((3S)-(3-hydroxy-1-octenyl))-5-oxocyclopentyl)-5-heptenoic acid; (Z)-7-((1R,2R,3R)-3-hydroxy-2-((S,E)-3-hydroxyoct-1-enyl)-5-oxocyclopentyl)hept-5-enoic acid; Dinoproston; Dinoprostona; Dinoprostone; Dinoprostone Prostaglandin E2; Dinoprostonum; PGE2; Prostaglandin E2

$$$$
