
 OpenBabel10282417163D

 45 48  0  0  0  0  0  0  0  0999 V2000
    9.0565    3.7664   -5.0675 C   0  0  1  0  0  0  0  0  0  0  0  0
    9.3117    2.5223   -5.9173 C   0  0  2  0  0  0  0  0  0  0  0  0
    7.0699    1.5822   -3.9406 C   0  0  1  0  0  0  0  0  0  0  0  0
    8.6705    1.3815   -4.6128 C   0  0  1  0  0  0  0  0  0  0  0  0
    6.2414    0.2528   -2.9202 C   0  0  1  0  0  0  0  0  0  0  0  0
    9.0340    4.7373   -6.2426 C   0  0  0  0  0  0  0  0  0  0  0  0
    7.6939    3.9901   -4.4339 C   0  0  0  0  0  0  0  0  0  0  0  0
    7.2961    3.0267   -3.3120 C   0  0  0  0  0  0  0  0  0  0  0  0
   10.5409    3.4888   -6.9812 C   0  0  0  0  0  0  0  0  0  0  0  0
   10.4210    5.0124   -6.6152 C   0  0  0  0  0  0  0  0  0  0  0  0
    8.6415   -0.1047   -4.7920 C   0  0  0  0  0  0  0  0  0  0  0  0
    7.3917   -0.5347   -2.3891 C   0  0  0  0  0  0  0  0  0  0  0  0
    8.4803   -0.8085   -3.4200 C   0  0  0  0  0  0  0  0  0  0  0  0
    5.5292    1.0995   -1.8009 C   0  0  0  0  0  0  0  0  0  0  0  0
    5.1577   -1.1359   -3.2362 C   0  0  0  0  0  0  0  0  0  0  0  0
    7.2373   -1.6343   -1.6004 C   0  0  0  0  0  0  0  0  0  0  0  0
    4.8316   -2.0140   -2.2134 C   0  0  0  0  0  0  0  0  0  0  0  0
    6.1632   -2.6113   -1.9228 C   0  0  0  0  0  0  0  0  0  0  0  0
   10.1919    1.8451   -5.8843 H   0  0  0  0  0  0  0  0  0  0  0  0
    9.3773    1.5447   -3.7820 H   0  0  0  0  0  0  0  0  0  0  0  0
    6.3489    1.6907   -4.7543 H   0  0  0  0  0  0  0  0  0  0  0  0
    6.4998   -3.7496   -2.2945 O   0  0  0  0  0  0  0  0  0  0  0  0
    8.1569    4.8533   -7.0415 O   0  0  0  0  0  0  0  0  0  0  0  0
   10.2434    3.9122   -4.0810 C   0  0  0  0  0  0  0  0  0  0  0  0
    7.6982    5.0270   -4.0726 H   0  0  0  0  0  0  0  0  0  0  0  0
    6.9041    3.9503   -5.1958 H   0  0  0  0  0  0  0  0  0  0  0  0
    8.0841    3.0415   -2.5420 H   0  0  0  0  0  0  0  0  0  0  0  0
    6.4152    3.4770   -2.8438 H   0  0  0  0  0  0  0  0  0  0  0  0
   11.6064    3.8484   -6.9521 H   0  0  0  0  0  0  0  0  0  0  0  0
   11.1529    2.7228   -7.4834 H   0  0  0  0  0  0  0  0  0  0  0  0
   10.4207    5.8728   -7.2876 H   0  0  0  0  0  0  0  0  0  0  0  0
   11.0567    5.3078   -5.7604 H   0  0  0  0  0  0  0  0  0  0  0  0
    9.5632   -0.4891   -5.2246 H   0  0  0  0  0  0  0  0  0  0  0  0
    7.7996   -0.3609   -5.4422 H   0  0  0  0  0  0  0  0  0  0  0  0
    9.4106   -0.7501   -2.8494 H   0  0  0  0  0  0  0  0  0  0  0  0
    8.3172   -1.8464   -3.7344 H   0  0  0  0  0  0  0  0  0  0  0  0
    4.5525    1.4798   -2.1306 H   0  0  0  0  0  0  0  0  0  0  0  0
    5.4283    0.6377   -0.8103 H   0  0  0  0  0  0  0  0  0  0  0  0
    6.1272    1.9786   -1.5696 H   0  0  0  0  0  0  0  0  0  0  0  0
    5.4157   -1.8629   -4.0579 H   0  0  0  0  0  0  0  0  0  0  0  0
    8.0970   -2.2801   -1.6867 H   0  0  0  0  0  0  0  0  0  0  0  0
    4.1336   -2.8743   -2.3147 H   0  0  0  0  0  0  0  0  0  0  0  0
   10.1162    3.3424   -3.1632 H   0  0  0  0  0  0  0  0  0  0  0  0
   11.1834    3.5237   -4.5118 H   0  0  0  0  0  0  0  0  0  0  0  0
   10.4089    4.9550   -3.8080 H   0  0  0  0  0  0  0  0  0  0  0  0
  1 24  1  1  0  0  0
  2  1  1  0  0  0  0
  2 19  1  6  0  0  0
  3 21  1  6  0  0  0
  4  2  1  0  0  0  0
  4  3  1  0  0  0  0
  4 20  1  1  0  0  0
  5  3  1  0  0  0  0
  5 14  1  1  0  0  0
  6  1  1  0  0  0  0
  7  1  1  0  0  0  0
  7 25  1  0  0  0  0
  7 26  1  0  0  0  0
  8  3  1  0  0  0  0
  8  7  1  0  0  0  0
  8 27  1  0  0  0  0
  8 28  1  0  0  0  0
  9  2  1  0  0  0  0
  9 29  1  0  0  0  0
  9 30  1  0  0  0  0
 10  6  1  0  0  0  0
 10  9  1  0  0  0  0
 10 31  1  0  0  0  0
 10 32  1  0  0  0  0
 11  4  1  0  0  0  0
 11 33  1  0  0  0  0
 11 34  1  0  0  0  0
 12  5  1  0  0  0  0
 13 11  1  0  0  0  0
 13 12  1  0  0  0  0
 13 35  1  0  0  0  0
 13 36  1  0  0  0  0
 14 37  1  0  0  0  0
 14 38  1  0  0  0  0
 14 39  1  0  0  0  0
 15  5  1  0  0  0  0
 15 40  1  0  0  0  0
 16 12  2  0  0  0  0
 16 41  1  0  0  0  0
 17 15  2  0  0  0  0
 17 42  1  0  0  0  0
 18 16  1  0  0  0  0
 18 17  1  0  0  0  0
 22 18  2  0  0  0  0
 23  6  2  0  0  0  0
 24 43  1  0  0  0  0
 24 44  1  0  0  0  0
 24 45  1  0  0  0  0
M  END
>  <DRUGBANK_ID>
DB07373

>  <COMMON_NAME>
Boldione

>  <CAS_NUMBER>
897-06-3

>  <UNII>
2166Q8568W

>  <SYNONYMS>
1-Dehydroandrostenedione; 1,4-Androstadiene-3,17-dione; Androsta-1,4-diene-3,17-dione; Androstadienedione

$$$$
