G27
 OpenBabel10282417163D

 42 43  0  0  0  0  0  0  0  0999 V2000
    1.3873   -0.3918    0.0630 C   0  0  0  0  0  0  0  0  0  0  0  0
    0.4948   -1.4619    0.0267 C   0  0  0  0  0  0  0  0  0  0  0  0
   -0.8818   -1.2232    0.0233 C   0  0  0  0  0  0  0  0  0  0  0  0
   -1.3729    0.0572    0.1853 C   0  0  0  0  0  0  0  0  0  0  0  0
   -0.4752    1.1009    0.3868 C   0  0  0  0  0  0  0  0  0  0  0  0
    0.8975    0.8958    0.1718 C   0  0  0  0  0  0  0  0  0  0  0  0
    1.8146    2.0486   -0.1246 C   0  0  0  0  0  0  0  0  0  0  0  0
    1.4332    2.6711   -1.4635 C   0  0  0  0  0  0  0  0  0  0  0  0
    0.0630    3.3529   -1.4451 C   0  0  0  0  0  0  0  0  0  0  0  0
   -0.0677    4.4631   -0.5038 N   0  0  0  0  0  0  0  0  0  0  0  0
   -1.2426    5.3101   -0.7524 C   0  0  0  0  0  0  0  0  0  0  0  0
    1.1262    5.3092   -0.3133 C   0  0  0  0  0  0  0  0  0  0  0  0
    1.4377    6.2281   -1.5092 C   0  0  1  0  0  0  0  0  0  0  0  0
    1.8825    5.5462   -2.6783 O   0  0  0  0  0  0  0  0  0  0  0  0
    0.2020    7.0748   -1.8306 C   0  0  2  0  0  0  0  0  0  0  0  0
    0.0338    7.9842   -0.7328 O   0  0  0  0  0  0  0  0  0  0  0  0
   -1.0894    6.2332   -1.9855 C   0  0  1  0  0  0  0  0  0  0  0  0
   -1.2162    5.5299   -3.3545 C   0  0  0  0  0  0  0  0  0  0  0  0
   -2.3990    4.7367   -3.4216 O   0  0  0  0  0  0  0  0  0  0  0  0
    2.2773    6.8661   -1.2166 H   0  0  0  0  0  0  0  0  0  0  0  0
    0.3869    7.6584   -2.7372 H   0  0  0  0  0  0  0  0  0  0  0  0
   -1.9433    6.9205   -1.9380 H   0  0  0  0  0  0  0  0  0  0  0  0
    2.4567   -0.5649   -0.0231 H   0  0  0  0  0  0  0  0  0  0  0  0
    0.8799   -2.4681   -0.0415 H   0  0  0  0  0  0  0  0  0  0  0  0
   -1.5757   -2.0535   -0.0878 H   0  0  0  0  0  0  0  0  0  0  0  0
   -2.4387    0.2685    0.1410 H   0  0  0  0  0  0  0  0  0  0  0  0
   -0.8729    2.0898    0.5915 H   0  0  0  0  0  0  0  0  0  0  0  0
    1.7898    2.7642    0.6996 H   0  0  0  0  0  0  0  0  0  0  0  0
    2.8570    1.7177   -0.2151 H   0  0  0  0  0  0  0  0  0  0  0  0
    2.2236    3.3773   -1.7360 H   0  0  0  0  0  0  0  0  0  0  0  0
    1.4404    1.9397   -2.2821 H   0  0  0  0  0  0  0  0  0  0  0  0
   -0.1446    3.6060   -2.4674 H   0  0  0  0  0  0  0  0  0  0  0  0
   -0.7588    2.6520   -1.2996 H   0  0  0  0  0  0  0  0  0  0  0  0
   -2.1557    4.7042   -0.7987 H   0  0  0  0  0  0  0  0  0  0  0  0
   -1.4018    5.9410    0.1364 H   0  0  0  0  0  0  0  0  0  0  0  0
    0.9618    5.9220    0.5856 H   0  0  0  0  0  0  0  0  0  0  0  0
    2.0091    4.7198   -0.0560 H   0  0  0  0  0  0  0  0  0  0  0  0
    1.3159    4.7751   -2.8009 H   0  0  0  0  0  0  0  0  0  0  0  0
   -0.2626    8.8359   -1.0914 H   0  0  0  0  0  0  0  0  0  0  0  0
   -1.2643    6.2668   -4.1580 H   0  0  0  0  0  0  0  0  0  0  0  0
   -0.3801    4.9061   -3.6635 H   0  0  0  0  0  0  0  0  0  0  0  0
   -2.3543    4.0360   -2.7465 H   0  0  0  0  0  0  0  0  0  0  0  0
  1  2  1  0  0  0  0
  1  6  2  0  0  0  0
  1 23  1  0  0  0  0
  2  3  2  0  0  0  0
  2 24  1  0  0  0  0
  3  4  1  0  0  0  0
  3 25  1  0  0  0  0
  4  5  2  0  0  0  0
  4 26  1  0  0  0  0
  5  6  1  0  0  0  0
  5 27  1  0  0  0  0
  6  7  1  0  0  0  0
  7  8  1  0  0  0  0
  7 28  1  0  0  0  0
  7 29  1  0  0  0  0
  8  9  1  0  0  0  0
  8 30  1  0  0  0  0
  8 31  1  0  0  0  0
  9 10  1  0  0  0  0
  9 32  1  0  0  0  0
  9 33  1  0  0  0  0
 10 11  1  0  0  0  0
 10 12  1  0  0  0  0
 11 17  1  0  0  0  0
 11 34  1  0  0  0  0
 11 35  1  0  0  0  0
 12 13  1  0  0  0  0
 12 36  1  0  0  0  0
 12 37  1  0  0  0  0
 13 14  1  0  0  0  0
 13 15  1  0  0  0  0
 13 20  1  1  0  0  0
 14 38  1  0  0  0  0
 15 17  1  0  0  0  0
 15 21  1  6  0  0  0
 15 16  1  0  0  0  0
 16 39  1  0  0  0  0
 17 18  1  0  0  0  0
 17 22  1  1  0  0  0
 18 19  1  0  0  0  0
 18 40  1  0  0  0  0
 18 41  1  0  0  0  0
 19 42  1  0  0  0  0
M  END
>  <DRUGBANK_ID>
DB07807

>  <COMMON_NAME>
(3R,4R,5R)-5-(HYDROXYMETHYL)-1-(3-PHENYLPROPYL)PIPERIDINE-3,4-DIOL

$$$$
