65028
 OpenBabel10282417103D

 50 50  0  0  1  0  0  0  0  0999 V2000
   -0.8081    0.1191   -1.7438 O   0  0  0  0  0  0  0  0  0  0  0  0
    3.6793    1.2702   -4.0382 O   0  0  0  0  0  0  0  0  0  0  0  0
    3.6956   -0.7174   -5.0359 O   0  0  0  0  0  0  0  0  0  0  0  0
   -0.0809   -2.4493    2.2536 O   0  0  0  0  0  0  0  0  0  0  0  0
    0.4710   -2.3978    0.0736 N   0  0  0  0  0  0  0  0  0  0  0  0
   -0.0041   -3.5596   -3.0711 N   0  0  0  0  0  0  0  0  0  0  0  0
    0.2426   -1.9623   -1.3142 C   0  0  2  0  0  0  0  0  0  0  0  0
    1.0244   -2.8065   -2.3224 C   0  0  2  0  0  0  0  0  0  0  0  0
    0.4497   -0.4782   -1.4335 C   0  0  1  0  0  0  0  0  0  0  0  0
    1.9891   -2.1103   -3.3277 C   0  0  0  0  0  0  0  0  0  0  0  0
    1.5863    0.0016   -2.2267 C   0  0  0  0  0  0  0  0  0  0  0  0
    2.2405   -0.6349   -3.1895 C   0  0  0  0  0  0  0  0  0  0  0  0
   -1.1680    1.4198   -1.2723 C   0  0  0  0  0  0  0  0  0  0  0  0
   -0.8832    1.7553    0.2126 C   0  0  0  0  0  0  0  0  0  0  0  0
   -0.6128    2.4747   -2.1999 C   0  0  0  0  0  0  0  0  0  0  0  0
    3.2438   -0.0237   -4.1414 C   0  0  0  0  0  0  0  0  0  0  0  0
   -0.4249   -2.2425    1.1058 C   0  0  0  0  0  0  0  0  0  0  0  0
    0.5048    1.5101    0.8035 C   0  0  0  0  0  0  0  0  0  0  0  0
   -1.0871    2.2614   -3.6633 C   0  0  0  0  0  0  0  0  0  0  0  0
   -1.8195   -1.7906    0.7409 C   0  0  0  0  0  0  0  0  0  0  0  0
    2.9964    2.3780   -3.4435 C   0  0  0  0  0  0  0  0  0  0  0  0
    1.6370    2.4609   -4.0327 C   0  0  0  0  0  0  0  0  0  0  0  0
    1.4270   -2.5217    0.3935 H   0  0  0  0  0  0  0  0  0  0  0  0
   -0.5981   -2.8705   -3.5457 H   0  0  0  0  0  0  0  0  0  0  0  0
   -0.6304   -3.9987   -2.3891 H   0  0  0  0  0  0  0  0  0  0  0  0
   -0.8278   -2.1275   -1.4736 H   0  0  0  0  0  0  0  0  0  0  0  0
    1.6221   -3.5334   -1.7574 H   0  0  0  0  0  0  0  0  0  0  0  0
    0.7761   -0.2117   -0.4662 H   0  0  0  0  0  0  0  0  0  0  0  0
    2.9681   -2.5821   -3.1658 H   0  0  0  0  0  0  0  0  0  0  0  0
    1.6941   -2.3424   -4.3561 H   0  0  0  0  0  0  0  0  0  0  0  0
    1.8840    0.9706   -1.8898 H   0  0  0  0  0  0  0  0  0  0  0  0
   -2.2557    1.4931   -1.4164 H   0  0  0  0  0  0  0  0  0  0  0  0
   -1.1053    2.8167    0.3595 H   0  0  0  0  0  0  0  0  0  0  0  0
   -1.6026    1.2072    0.8244 H   0  0  0  0  0  0  0  0  0  0  0  0
   -0.8371    3.4984   -1.8924 H   0  0  0  0  0  0  0  0  0  0  0  0
    0.4597    2.4069   -2.0310 H   0  0  0  0  0  0  0  0  0  0  0  0
    1.3045    1.8422    0.1320 H   0  0  0  0  0  0  0  0  0  0  0  0
    0.6371    2.0054    1.7623 H   0  0  0  0  0  0  0  0  0  0  0  0
    0.6451    0.4628    1.0868 H   0  0  0  0  0  0  0  0  0  0  0  0
   -2.1593    2.3850   -3.7860 H   0  0  0  0  0  0  0  0  0  0  0  0
   -0.6507    3.0009   -4.3456 H   0  0  0  0  0  0  0  0  0  0  0  0
   -0.8310    1.2649   -4.0555 H   0  0  0  0  0  0  0  0  0  0  0  0
   -1.7874   -0.7744    0.3617 H   0  0  0  0  0  0  0  0  0  0  0  0
   -2.2557   -2.4366   -0.0222 H   0  0  0  0  0  0  0  0  0  0  0  0
   -2.4630   -1.7959    1.6200 H   0  0  0  0  0  0  0  0  0  0  0  0
    3.0464    2.3105   -2.3514 H   0  0  0  0  0  0  0  0  0  0  0  0
    3.4607    3.3387   -3.6768 H   0  0  0  0  0  0  0  0  0  0  0  0
    1.0959    1.5648   -3.7622 H   0  0  0  0  0  0  0  0  0  0  0  0
    1.1685    3.3608   -3.6322 H   0  0  0  0  0  0  0  0  0  0  0  0
    1.5564    2.4303   -5.1155 H   0  0  0  0  0  0  0  0  0  0  0  0
  1 13  1  0  0  0  0
  2 16  1  0  0  0  0
  2 21  1  0  0  0  0
  3 16  2  0  0  0  0
  4 17  2  0  0  0  0
  5 17  1  0  0  0  0
  5 23  1  0  0  0  0
  6 24  1  0  0  0  0
  6 25  1  0  0  0  0
  7  8  1  0  0  0  0
  7  9  1  0  0  0  0
  7 26  1  6  0  0  0
  7  5  1  0  0  0  0
  8 10  1  0  0  0  0
  8 27  1  1  0  0  0
  8  6  1  0  0  0  0
  9 11  1  0  0  0  0
  9 28  1  1  0  0  0
  9  1  1  0  0  0  0
 10 12  1  0  0  0  0
 10 29  1  0  0  0  0
 10 30  1  0  0  0  0
 11 12  2  0  0  0  0
 11 31  1  0  0  0  0
 12 16  1  0  0  0  0
 13 14  1  0  0  0  0
 13 15  1  0  0  0  0
 13 32  1  0  0  0  0
 14 18  1  0  0  0  0
 14 33  1  0  0  0  0
 14 34  1  0  0  0  0
 15 19  1  0  0  0  0
 15 35  1  0  0  0  0
 15 36  1  0  0  0  0
 17 20  1  0  0  0  0
 18 37  1  0  0  0  0
 18 38  1  0  0  0  0
 18 39  1  0  0  0  0
 19 40  1  0  0  0  0
 19 41  1  0  0  0  0
 19 42  1  0  0  0  0
 20 43  1  0  0  0  0
 20 44  1  0  0  0  0
 20 45  1  0  0  0  0
 21 22  1  0  0  0  0
 21 46  1  0  0  0  0
 21 47  1  0  0  0  0
 22 48  1  0  0  0  0
 22 49  1  0  0  0  0
 22 50  1  0  0  0  0
M  END
>  <DRUGBANK_ID>
DB00198

>  <SECONDARY_ACCESSION_NUMBERS>
APRD01148

>  <COMMON_NAME>
Oseltamivir

>  <CAS_NUMBER>
196618-13-0

>  <UNII>
20O93L6F9H

>  <SYNONYMS>
(−)-oseltamivir; 1-Cyclohexene-1-carboxylic acid, 4-(acetylamino)-5-amino-3-(1-ethylpropoxy)-, ethyl ester, (3R-(3alpha,4beta,5alpha))-; Ethyl (3R,4R,5S)-4-acetamido-5-amino-3-(1-ethylpropoxy)-1-cyclohexene-1-carboxylate; Oseltamivir; Oséltamivir; Oseltamivirum

$$$$
