
 OpenBabel10282417133D

 65 69  0  0  0  0  0  0  0  0999 V2000
    0.9596   -0.0161   -0.0900 P   0  0  1  0  0  0  0  0  0  0  0  0
    3.9892    0.1178   -3.4198 O   0  0  0  0  0  0  0  0  0  0  0  0
   -1.3487    1.1760    3.1348 O   0  0  0  0  0  0  0  0  0  0  0  0
    0.6874   -1.1293    1.0839 O   0  0  0  0  0  0  0  0  0  0  0  0
    0.9207   -0.8517   -1.5188 O   0  0  0  0  0  0  0  0  0  0  0  0
    2.4733    2.8215   -2.1091 O   0  0  0  0  0  0  0  0  0  0  0  0
    2.3542    3.0296   -4.7253 O   0  0  0  0  0  0  0  0  0  0  0  0
   -2.5268   -0.7126    0.5950 O   0  0  0  0  0  0  0  0  0  0  0  0
   -4.0266   -1.3922    3.0688 O   0  0  0  0  0  0  0  0  0  0  0  0
   -0.7704   -0.0161   -0.0900 O   0  0  0  0  0  0  0  0  0  0  0  0
    2.5079   -0.0161   -0.0900 O   0  0  0  0  0  0  0  0  0  0  0  0
    2.2946    2.2517    2.8533 O   0  0  0  0  0  0  0  0  0  0  0  0
    6.6779   -2.5997   -7.9025 O   0  0  0  0  0  0  0  0  0  0  0  0
    3.8951    0.1727   -5.8184 N   0  0  0  0  0  0  0  0  0  0  0  0
    0.8225    0.8463    3.9034 N   0  0  0  0  0  0  0  0  0  0  0  0
    2.9648   -2.3153   -6.3189 N   0  0  0  0  0  0  0  0  0  0  0  0
    5.4838   -0.0304   -7.4167 N   0  0  0  0  0  0  0  0  0  0  0  0
    2.7732    1.6833    5.0039 N   0  0  0  0  0  0  0  0  0  0  0  0
    4.6667   -3.6028   -7.4936 N   0  0  0  0  0  0  0  0  0  0  0  0
    2.8168   -4.6770   -6.9190 N   0  0  0  0  0  0  0  0  0  0  0  0
    3.3493    0.8941    7.0859 N   0  0  0  0  0  0  0  0  0  0  0  0
   -0.2188   -0.6990    2.1294 C   0  0  2  0  0  0  0  0  0  0  0  0
    3.0294    0.4010   -2.3886 C   0  0  1  0  0  0  0  0  0  0  0  0
    2.1470    1.5875   -2.7792 C   0  0  2  0  0  0  0  0  0  0  0  0
    2.3511    1.6664   -4.2854 C   0  0  2  0  0  0  0  0  0  0  0  0
    3.6710    0.9183   -4.5457 C   0  0  1  0  0  0  0  0  0  0  0  0
   -1.7694   -0.8355    1.8384 C   0  0  1  0  0  0  0  0  0  0  0  0
   -0.0430    0.7471    2.7146 C   0  0  1  0  0  0  0  0  0  0  0  0
   -2.3592    0.3211    2.6053 C   0  0  1  0  0  0  0  0  0  0  0  0
    2.2120   -0.9339   -2.2088 C   0  0  0  0  0  0  0  0  0  0  0  0
   -3.2734   -0.3083    3.6236 C   0  0  0  0  0  0  0  0  0  0  0  0
    3.7605   -1.1493   -6.3870 C   0  0  0  0  0  0  0  0  0  0  0  0
    4.9008    0.7801   -6.5874 C   0  0  0  0  0  0  0  0  0  0  0  0
    0.5442    0.0632    5.0007 C   0  0  0  0  0  0  0  0  0  0  0  0
    4.9169   -1.2385   -7.1594 C   0  0  0  0  0  0  0  0  0  0  0  0
    1.9851    1.6295    3.8693 C   0  0  0  0  0  0  0  0  0  0  0  0
    1.4500   -0.1210    5.9547 C   0  0  0  0  0  0  0  0  0  0  0  0
    5.4824   -2.5102   -7.5654 C   0  0  0  0  0  0  0  0  0  0  0  0
    3.4894   -3.4882   -6.9410 C   0  0  0  0  0  0  0  0  0  0  0  0
    2.5545    0.8532    5.9764 C   0  0  0  0  0  0  0  0  0  0  0  0
    1.9540   -2.2639   -6.4586 H   0  0  0  0  0  0  0  0  0  0  0  0
    3.3478   -5.4698   -7.2974 H   0  0  0  0  0  0  0  0  0  0  0  0
    1.8291   -4.8584   -6.8397 H   0  0  0  0  0  0  0  0  0  0  0  0
    3.1402    0.3545    7.9156 H   0  0  0  0  0  0  0  0  0  0  0  0
    3.9801    1.6794    7.1929 H   0  0  0  0  0  0  0  0  0  0  0  0
    3.4353    2.9473   -2.0281 H   0  0  0  0  0  0  0  0  0  0  0  0
    2.6500    3.6007   -3.9830 H   0  0  0  0  0  0  0  0  0  0  0  0
   -2.2350    0.1674    0.2243 H   0  0  0  0  0  0  0  0  0  0  0  0
   -4.2982   -1.1572    2.1566 H   0  0  0  0  0  0  0  0  0  0  0  0
   -0.9924   -0.9545   -0.3336 H   0  0  0  0  0  0  0  0  0  0  0  0
   -0.0198   -1.4026    2.9448 H   0  0  0  0  0  0  0  0  0  0  0  0
    3.6577    0.7144   -1.5423 H   0  0  0  0  0  0  0  0  0  0  0  0
    1.0942    1.4314   -2.5245 H   0  0  0  0  0  0  0  0  0  0  0  0
    1.5497    1.1317   -4.7887 H   0  0  0  0  0  0  0  0  0  0  0  0
    4.4435    1.7135   -4.5055 H   0  0  0  0  0  0  0  0  0  0  0  0
   -2.0071   -1.8715    2.0706 H   0  0  0  0  0  0  0  0  0  0  0  0
    0.3272    1.4344    1.9457 H   0  0  0  0  0  0  0  0  0  0  0  0
   -2.9704    0.9765    1.9631 H   0  0  0  0  0  0  0  0  0  0  0  0
    2.8420   -1.6575   -1.6684 H   0  0  0  0  0  0  0  0  0  0  0  0
    2.0525   -1.3781   -3.1935 H   0  0  0  0  0  0  0  0  0  0  0  0
   -2.6588   -0.6974    4.4360 H   0  0  0  0  0  0  0  0  0  0  0  0
   -3.9750    0.4319    3.9954 H   0  0  0  0  0  0  0  0  0  0  0  0
    5.2649    1.7858   -6.3994 H   0  0  0  0  0  0  0  0  0  0  0  0
   -0.3962   -0.4726    5.0116 H   0  0  0  0  0  0  0  0  0  0  0  0
    1.3641   -0.8724    6.7230 H   0  0  0  0  0  0  0  0  0  0  0  0
  1 10  1  0  0  0  0
  1 11  2  1  0  0  0
  1  5  1  0  0  0  0
  1  4  1  0  0  0  0
  2 23  1  0  0  0  0
  2 26  1  0  0  0  0
  3 28  1  0  0  0  0
  3 29  1  0  0  0  0
  5 30  1  0  0  0  0
  6 46  1  0  0  0  0
  7 47  1  0  0  0  0
  8 48  1  0  0  0  0
  9 31  1  0  0  0  0
  9 49  1  0  0  0  0
 10 50  1  0  0  0  0
 12 36  2  0  0  0  0
 13 38  2  0  0  0  0
 14 32  1  0  0  0  0
 14 33  1  0  0  0  0
 15 34  1  0  0  0  0
 15 36  1  0  0  0  0
 16 32  1  0  0  0  0
 16 39  1  0  0  0  0
 16 41  1  0  0  0  0
 17 33  2  0  0  0  0
 17 35  1  0  0  0  0
 18 36  1  0  0  0  0
 18 40  2  0  0  0  0
 19 38  1  0  0  0  0
 19 39  2  0  0  0  0
 20 39  1  0  0  0  0
 20 42  1  0  0  0  0
 20 43  1  0  0  0  0
 21 40  1  0  0  0  0
 21 44  1  0  0  0  0
 21 45  1  0  0  0  0
 22  4  1  0  0  0  0
 22 27  1  0  0  0  0
 22 28  1  0  0  0  0
 22 51  1  1  0  0  0
 23 24  1  0  0  0  0
 23 30  1  0  0  0  0
 23 52  1  1  0  0  0
 24  6  1  0  0  0  0
 24 25  1  0  0  0  0
 24 53  1  1  0  0  0
 25  7  1  0  0  0  0
 25 26  1  0  0  0  0
 25 54  1  6  0  0  0
 26 55  1  6  0  0  0
 26 14  1  0  0  0  0
 27  8  1  0  0  0  0
 27 29  1  0  0  0  0
 27 56  1  1  0  0  0
 28 57  1  6  0  0  0
 28 15  1  0  0  0  0
 29 58  1  6  0  0  0
 29 31  1  0  0  0  0
 30 59  1  0  0  0  0
 30 60  1  0  0  0  0
 31 61  1  0  0  0  0
 31 62  1  0  0  0  0
 32 35  2  0  0  0  0
 33 63  1  0  0  0  0
 34 37  2  0  0  0  0
 34 64  1  0  0  0  0
 35 38  1  0  0  0  0
 37 40  1  0  0  0  0
 37 65  1  0  0  0  0
M  END
>  <DRUGBANK_ID>
DB03638

>  <SECONDARY_ACCESSION_NUMBERS>
EXPT00898

>  <COMMON_NAME>
Cytidyl-2'-5'-phospho-guanosine

$$$$
