
 OpenBabel10282417143D

 28 27  0  0  0  0  0  0  0  0999 V2000
    0.9877    0.2311    0.0994 S   0  0  0  0  0  0  0  0  0  0  0  0
    0.0443    0.2466   -3.5223 O   0  0  0  0  0  0  0  0  0  0  0  0
    3.0656    3.4470   -2.1191 O   0  0  0  0  0  0  0  0  0  0  0  0
    2.2076    0.5010   -2.9988 O   0  0  0  0  0  0  0  0  0  0  0  0
    3.1645    2.7249   -0.0187 O   0  0  0  0  0  0  0  0  0  0  0  0
    2.7552   -2.4476    0.9020 N   0  0  0  0  0  0  0  0  0  0  0  0
    0.5324   -1.9640    1.6325 N   0  0  0  0  0  0  0  0  0  0  0  0
    1.0452   -3.9047    0.7096 N   0  0  0  0  0  0  0  0  0  0  0  0
    0.5872    1.2060   -1.3549 C   0  0  1  0  0  0  0  0  0  0  0  0
    1.0135    2.6448   -1.1221 C   0  0  0  0  0  0  0  0  0  0  0  0
    2.8172   -0.1208    0.0762 C   0  0  0  0  0  0  0  0  0  0  0  0
    3.2395   -1.1029    1.1819 C   0  0  0  0  0  0  0  0  0  0  0  0
    1.0365    0.6049   -2.6690 C   0  0  0  0  0  0  0  0  0  0  0  0
    2.4990    2.8981   -1.0387 C   0  0  0  0  0  0  0  0  0  0  0  0
    1.5226   -2.7224    1.1041 C   0  0  0  0  0  0  0  0  0  0  0  0
   -0.2906   -1.9523    1.0421 H   0  0  0  0  0  0  0  0  0  0  0  0
    0.8307   -0.9857    1.6453 H   0  0  0  0  0  0  0  0  0  0  0  0
    1.7296   -4.6111    0.4862 H   0  0  0  0  0  0  0  0  0  0  0  0
    0.0702   -4.1335    0.7706 H   0  0  0  0  0  0  0  0  0  0  0  0
   -0.8837    0.3101   -3.2265 H   0  0  0  0  0  0  0  0  0  0  0  0
    2.4555    3.7723   -2.8014 H   0  0  0  0  0  0  0  0  0  0  0  0
   -0.5159    1.1878   -1.3614 H   0  0  0  0  0  0  0  0  0  0  0  0
    0.5700    3.2972   -1.8771 H   0  0  0  0  0  0  0  0  0  0  0  0
    0.5945    2.9862   -0.1624 H   0  0  0  0  0  0  0  0  0  0  0  0
    3.1636   -0.4566   -0.9039 H   0  0  0  0  0  0  0  0  0  0  0  0
    3.3694    0.7565    0.3702 H   0  0  0  0  0  0  0  0  0  0  0  0
    4.3388   -1.1260    1.2001 H   0  0  0  0  0  0  0  0  0  0  0  0
    2.9465   -0.7342    2.1740 H   0  0  0  0  0  0  0  0  0  0  0  0
  1  9  1  0  0  0  0
  1 11  1  0  0  0  0
  2 13  1  0  0  0  0
  2 20  1  0  0  0  0
  3 14  1  0  0  0  0
  3 21  1  0  0  0  0
  4 13  2  0  0  0  0
  5 14  2  0  0  0  0
  6 12  1  0  0  0  0
  6 15  2  0  0  0  0
  7 15  1  0  0  0  0
  7 16  1  0  0  0  0
  7 17  1  0  0  0  0
  8 15  1  0  0  0  0
  8 18  1  0  0  0  0
  8 19  1  0  0  0  0
  9 10  1  0  0  0  0
  9 13  1  0  0  0  0
  9 22  1  6  0  0  0
 10 14  1  0  0  0  0
 10 23  1  0  0  0  0
 10 24  1  0  0  0  0
 11 12  1  0  0  0  0
 11 25  1  0  0  0  0
 11 26  1  0  0  0  0
 12 27  1  0  0  0  0
 12 28  1  0  0  0  0
M  END
>  <DRUGBANK_ID>
DB04489

>  <SECONDARY_ACCESSION_NUMBERS>
EXPT01581

>  <COMMON_NAME>
Guanidinoethylmercaptosuccinic acid

>  <CAS_NUMBER>
77482-44-1

>  <SYNONYMS>
GEMSA

$$$$
