
 OpenBabel10282417123D

 37 39  0  0  0  0  0  0  0  0999 V2000
    0.9085   -0.0315    0.0251 N   0  0  0  0  0  0  0  0  0  0  0  0
    0.1735   -1.2293   -0.4060 C   0  0  0  0  0  0  0  0  0  0  0  0
    0.5922   -2.4250    0.0626 N   0  0  0  0  0  0  0  0  0  0  0  0
    0.0010   -3.5866   -0.3222 C   0  0  0  0  0  0  0  0  0  0  0  0
   -1.0416   -3.6016   -1.1823 N   0  0  0  0  0  0  0  0  0  0  0  0
   -1.5259   -2.4008   -1.7048 C   0  0  0  0  0  0  0  0  0  0  0  0
   -0.9076   -1.1810   -1.3109 C   0  0  0  0  0  0  0  0  0  0  0  0
   -1.5584   -0.2097   -1.9495 N   0  0  0  0  0  0  0  0  0  0  0  0
   -2.5129   -0.7546   -2.6895 C   0  0  0  0  0  0  0  0  0  0  0  0
   -2.5080   -2.0653   -2.5568 N   0  0  0  0  0  0  0  0  0  0  0  0
   -3.4221   -3.0011   -3.2273 C   0  0  2  0  0  0  0  0  0  0  0  0
   -4.1887   -3.7649   -2.2566 O   0  0  0  0  0  0  0  0  0  0  0  0
   -4.0238   -5.1511   -2.4783 C   0  0  1  0  0  0  0  0  0  0  0  0
   -5.2449   -5.9574   -2.0670 C   0  0  0  0  0  0  0  0  0  0  0  0
   -5.0207   -7.3315   -2.3461 O   0  0  0  0  0  0  0  0  0  0  0  0
   -4.6477   -7.6026   -4.5790 W   0  0  0  0  0  0  0  0  0  0  0  0
   -6.4664   -6.8768   -5.7469 O   0  0  0  0  0  0  0  0  0  0  0  0
   -2.8161   -6.3932   -5.1959 O   0  0  0  0  0  0  0  0  0  0  0  0
   -4.3256   -9.5773   -4.9799 O   0  0  0  0  0  0  0  0  0  0  0  0
   -3.7283   -5.2558   -3.9706 C   0  0  2  0  0  0  0  0  0  0  0  0
   -3.1921   -6.4976   -4.3865 O   0  0  0  0  0  0  0  0  0  0  0  0
   -2.8033   -4.0541   -4.1689 C   0  0  1  0  0  0  0  0  0  0  0  0
   -2.6926   -3.6073   -5.5131 O   0  0  0  0  0  0  0  0  0  0  0  0
    0.3985    0.7997    0.3242 H   0  0  0  0  0  0  0  0  0  0  0  0
    1.9285   -0.0315    0.0251 H   0  0  0  0  0  0  0  0  0  0  0  0
   -4.0022   -2.3322   -3.8281 H   0  0  0  0  0  0  0  0  0  0  0  0
   -3.2077   -5.5336   -1.9017 H   0  0  0  0  0  0  0  0  0  0  0  0
   -4.6036   -5.2301   -4.5855 H   0  0  0  0  0  0  0  0  0  0  0  0
   -1.7836   -4.2866   -3.9428 H   0  0  0  0  0  0  0  0  0  0  0  0
    0.3703   -4.5130    0.0657 H   0  0  0  0  0  0  0  0  0  0  0  0
   -3.1925   -0.2067   -3.3083 H   0  0  0  0  0  0  0  0  0  0  0  0
   -5.4199   -5.8301   -1.0192 H   0  0  0  0  0  0  0  0  0  0  0  0
   -6.0984   -5.6167   -2.6152 H   0  0  0  0  0  0  0  0  0  0  0  0
   -7.2698   -7.4073   -5.4763 H   0  0  0  0  0  0  0  0  0  0  0  0
   -2.9739   -5.4255   -4.9994 H   0  0  0  0  0  0  0  0  0  0  0  0
   -2.3429   -6.6770   -3.8898 H   0  0  0  0  0  0  0  0  0  0  0  0
   -3.5970   -3.3523   -5.8551 H   0  0  0  0  0  0  0  0  0  0  0  0
  1  2  1  0  0  0  0
  1 24  1  0  0  0  0
  1 25  1  0  0  0  0
  2  3  2  0  0  0  0
  2  7  1  0  0  0  0
  3  4  1  0  0  0  0
  4  5  2  0  0  0  0
  4 30  1  0  0  0  0
  5  6  1  0  0  0  0
  6  7  2  0  0  0  0
  6 10  1  0  0  0  0
  7  8  1  0  0  0  0
  8  9  2  0  0  0  0
  9 10  1  0  0  0  0
  9 31  1  0  0  0  0
 11 10  1  0  0  0  0
 11 12  1  0  0  0  0
 11 22  1  0  0  0  0
 11 26  1  6  0  0  0
 12 13  1  0  0  0  0
 13 14  1  0  0  0  0
 13 20  1  0  0  0  0
 13 27  1  1  0  0  0
 14 15  1  0  0  0  0
 14 32  1  0  0  0  0
 14 33  1  0  0  0  0
 15 16  1  0  0  0  0
 16 17  1  0  0  0  0
 16 18  1  0  0  0  0
 16 19  2  0  0  0  0
 17 34  1  0  0  0  0
 18 35  1  0  0  0  0
 20 21  1  0  0  0  0
 20 22  1  0  0  0  0
 20 28  1  6  0  0  0
 21 36  1  0  0  0  0
 22 23  1  0  0  0  0
 22 29  1  1  0  0  0
 23 37  1  0  0  0  0
M  END
>  <DRUGBANK_ID>
DB02373

>  <SECONDARY_ACCESSION_NUMBERS>
EXPT00516

>  <COMMON_NAME>
Adenosine monotungstate

$$$$
