
 OpenBabel10282417213D

 70 74  0  0  1  0  0  0  0  0999 V2000
   -1.0932    2.1260   -0.5613 C   0  0  0  0  0  0  0  0  0  0  0  0
   -1.9495    0.9354   -0.2049 C   0  0  0  0  0  0  0  0  0  0  0  0
    0.3252    2.0215   -0.0277 C   0  0  0  0  0  0  0  0  0  0  0  0
   -1.3358   -0.4566   -0.4327 C   0  0  1  0  0  0  0  0  0  0  0  0
    0.0954   -0.4815    0.2258 C   0  0  2  0  0  0  0  0  0  0  0  0
    0.9639    0.6629   -0.3747 C   0  0  2  0  0  0  0  0  0  0  0  0
   -2.2373   -1.5443    0.2120 C   0  0  0  0  0  0  0  0  0  0  0  0
   -3.7163   -1.3381   -0.0942 C   0  0  0  0  0  0  0  0  0  0  0  0
   -3.1963    1.1401    0.2515 C   0  0  0  0  0  0  0  0  0  0  0  0
    0.8024   -1.8680    0.1854 C   0  0  0  0  0  0  0  0  0  0  0  0
    2.2895   -1.8544    0.6099 C   0  0  0  0  0  0  0  0  0  0  0  0
    3.3481    1.6628   -0.2899 C   0  0  0  0  0  0  0  0  0  0  0  0
    4.7497    1.0703   -0.1073 C   0  0  0  0  0  0  0  0  0  0  0  0
   -0.0418   -0.2568    1.2995 H   0  0  0  0  0  0  0  0  0  0  0  0
    1.0289    0.5752   -1.4594 H   0  0  0  0  0  0  0  0  0  0  0  0
    2.3829    0.5785    0.1485 C   0  0  2  0  0  0  0  0  0  0  0  0
    3.1069   -0.7746   -0.1622 C   0  0  2  0  0  0  0  0  0  0  0  0
    2.2157    0.7427    1.2176 H   0  0  0  0  0  0  0  0  0  0  0  0
   -1.2413   -0.7198   -1.9537 C   0  0  0  0  0  0  0  0  0  0  0  0
    3.2018   -1.1223   -1.6351 C   0  0  0  0  0  0  0  0  0  0  0  0
    4.5960   -0.4599    0.2124 C   0  0  1  0  0  0  0  0  0  0  0  0
    5.7490   -1.3408    0.0657 O   0  0  0  0  0  0  0  0  0  0  0  0
   -4.1589    0.0203    0.3946 C   0  0  0  0  0  0  0  0  0  0  0  0
   -5.2884    0.2416    0.7929 O   0  0  0  0  0  0  0  0  0  0  0  0
    6.5398   -1.9021    1.0634 C   0  0  0  0  0  0  0  0  0  0  0  0
    7.3908   -2.7472    0.6967 O   0  0  0  0  0  0  0  0  0  0  0  0
    6.4459   -1.6884    2.6228 C   0  0  0  0  0  0  0  0  0  0  0  0
    6.4981   -0.2840    3.2795 C   0  0  0  0  0  0  0  0  0  0  0  0
    3.3492   -0.0368    4.2641 C   0  0  0  0  0  0  0  0  0  0  0  0
    3.4103    1.4702    4.0867 C   0  0  0  0  0  0  0  0  0  0  0  0
    4.7809    1.7965    3.4504 C   0  0  0  0  0  0  0  0  0  0  0  0
    5.2654    0.4729    2.8890 C   0  0  0  0  0  0  0  0  0  0  0  0
    4.0066   -0.3975    3.0123 C   0  0  0  0  0  0  0  0  0  0  0  0
   -1.0541    2.2074   -1.6539 H   0  0  0  0  0  0  0  0  0  0  0  0
   -1.5383    3.0602   -0.1979 H   0  0  0  0  0  0  0  0  0  0  0  0
    0.9154    2.8382   -0.4581 H   0  0  0  0  0  0  0  0  0  0  0  0
    0.3187    2.1804    1.0600 H   0  0  0  0  0  0  0  0  0  0  0  0
   -2.1081   -1.5333    1.3033 H   0  0  0  0  0  0  0  0  0  0  0  0
   -1.9407   -2.5425   -0.1312 H   0  0  0  0  0  0  0  0  0  0  0  0
   -4.3091   -2.1029    0.4163 H   0  0  0  0  0  0  0  0  0  0  0  0
   -3.9256   -1.4055   -1.1667 H   0  0  0  0  0  0  0  0  0  0  0  0
   -3.6017    2.1274    0.4455 H   0  0  0  0  0  0  0  0  0  0  0  0
    0.2653   -2.5542    0.8555 H   0  0  0  0  0  0  0  0  0  0  0  0
    0.7405   -2.3057   -0.8105 H   0  0  0  0  0  0  0  0  0  0  0  0
    2.2573   -1.6855    1.6920 H   0  0  0  0  0  0  0  0  0  0  0  0
    2.7315   -2.8487    0.4903 H   0  0  0  0  0  0  0  0  0  0  0  0
    3.1947    1.9733   -1.3221 H   0  0  0  0  0  0  0  0  0  0  0  0
    3.2109    2.5492    0.3509 H   0  0  0  0  0  0  0  0  0  0  0  0
    5.4431    1.2649   -0.9242 H   0  0  0  0  0  0  0  0  0  0  0  0
    5.1512    1.7139    0.6737 H   0  0  0  0  0  0  0  0  0  0  0  0
   -0.6396    0.0293   -2.4758 H   0  0  0  0  0  0  0  0  0  0  0  0
   -0.7934   -1.6953   -2.1638 H   0  0  0  0  0  0  0  0  0  0  0  0
   -2.2233   -0.7000   -2.4325 H   0  0  0  0  0  0  0  0  0  0  0  0
    3.6830   -0.3067   -2.1825 H   0  0  0  0  0  0  0  0  0  0  0  0
    3.8296   -2.0123   -1.7434 H   0  0  0  0  0  0  0  0  0  0  0  0
    2.2340   -1.3118   -2.0918 H   0  0  0  0  0  0  0  0  0  0  0  0
    4.5499   -0.6498    1.2090 H   0  0  0  0  0  0  0  0  0  0  0  0
    5.6395   -2.3044    3.0361 H   0  0  0  0  0  0  0  0  0  0  0  0
    7.3123   -2.2069    3.0615 H   0  0  0  0  0  0  0  0  0  0  0  0
    6.5487   -0.3017    4.3700 H   0  0  0  0  0  0  0  0  0  0  0  0
    7.4025    0.2253    2.9154 H   0  0  0  0  0  0  0  0  0  0  0  0
    3.9467   -0.4558    5.0695 H   0  0  0  0  0  0  0  0  0  0  0  0
    2.3436   -0.4689    4.2351 H   0  0  0  0  0  0  0  0  0  0  0  0
    2.6166    1.7695    3.3780 H   0  0  0  0  0  0  0  0  0  0  0  0
    3.2481    1.9866    5.0218 H   0  0  0  0  0  0  0  0  0  0  0  0
    4.6037    2.5319    2.6439 H   0  0  0  0  0  0  0  0  0  0  0  0
    5.4988    2.2341    4.1356 H   0  0  0  0  0  0  0  0  0  0  0  0
    5.6577    0.7140    1.9178 H   0  0  0  0  0  0  0  0  0  0  0  0
    4.0515   -1.4739    2.8514 H   0  0  0  0  0  0  0  0  0  0  0  0
    3.2989   -0.0531    2.2855 H   0  0  0  0  0  0  0  0  0  0  0  0
  1  3  1  0  0  0  0
  1 34  1  0  0  0  0
  1 35  1  0  0  0  0
  2  1  1  0  0  0  0
  2  9  2  0  0  0  0
  3 36  1  0  0  0  0
  3 37  1  0  0  0  0
  4  2  1  0  0  0  0
  4  7  1  0  0  0  0
  4 19  1  6  0  0  0
  5  4  1  0  0  0  0
  5 10  1  0  0  0  0
  5 14  1  1  0  0  0
  6  5  1  0  0  0  0
  6  3  1  0  0  0  0
  6 15  1  6  0  0  0
  7 38  1  0  0  0  0
  7 39  1  0  0  0  0
  8  7  1  0  0  0  0
  8 40  1  0  0  0  0
  8 41  1  0  0  0  0
  9 42  1  0  0  0  0
 10 11  1  0  0  0  0
 10 43  1  0  0  0  0
 10 44  1  0  0  0  0
 11 45  1  0  0  0  0
 11 46  1  0  0  0  0
 12 47  1  0  0  0  0
 12 48  1  0  0  0  0
 13 12  1  0  0  0  0
 13 21  1  0  0  0  0
 13 49  1  0  0  0  0
 13 50  1  0  0  0  0
 16  6  1  0  0  0  0
 16 12  1  0  0  0  0
 16 17  1  0  0  0  0
 16 18  1  1  0  0  0
 17 11  1  0  0  0  0
 17 21  1  0  0  0  0
 17 20  1  6  0  0  0
 19 51  1  0  0  0  0
 19 52  1  0  0  0  0
 19 53  1  0  0  0  0
 20 54  1  0  0  0  0
 20 55  1  0  0  0  0
 20 56  1  0  0  0  0
 21 57  1  1  0  0  0
 21 22  1  0  0  0  0
 22 25  1  0  0  0  0
 23  8  1  0  0  0  0
 23  9  1  0  0  0  0
 23 24  2  0  0  0  0
 25 26  2  0  0  0  0
 25 27  1  0  0  0  0
 27 28  1  0  0  0  0
 27 58  1  0  0  0  0
 27 59  1  0  0  0  0
 28 32  1  0  0  0  0
 28 60  1  0  0  0  0
 28 61  1  0  0  0  0
 29 30  1  0  0  0  0
 29 33  1  0  0  0  0
 29 62  1  0  0  0  0
 29 63  1  0  0  0  0
 30 31  1  0  0  0  0
 30 64  1  0  0  0  0
 30 65  1  0  0  0  0
 31 32  1  0  0  0  0
 31 66  1  0  0  0  0
 31 67  1  0  0  0  0
 32 33  1  0  0  0  0
 32 68  1  0  0  0  0
 33 69  1  0  0  0  0
 33 70  1  0  0  0  0
M  END
>  <DRUGBANK_ID>
DB13943

>  <SECONDARY_ACCESSION_NUMBERS>
DBSALT001298

>  <COMMON_NAME>
Testosterone cypionate

>  <CAS_NUMBER>
58-20-8

>  <UNII>
M0XW1UBI14

>  <SYNONYMS>
testosterone 17β-cyclopentanepropionate; testosterone 17β-cyclopentylpropionate; testosterone 17β-cypionate; Testosterone cipionate; Testosterone cyclopentanepropionate; Testosterone cyclopentylpropionate; Testosterone cypionate

$$$$
