HDT
 OpenBabel10282417123D

 40 43  0  0  0  0  0  0  0  0999 V2000
    1.3535   -0.2260   -0.0171 C   0  0  0  0  0  0  0  0  0  0  0  0
   -0.4541   -8.0318    1.8413 N   0  0  0  0  0  0  0  0  0  0  0  0
   -0.1966   -8.8503    0.7344 C   0  0  0  0  0  0  0  0  0  0  0  0
   -0.5552   -8.5382    3.1385 C   0  0  0  0  0  0  0  0  0  0  0  0
   -0.3546   -9.9374    3.3181 C   0  0  0  0  0  0  0  0  0  0  0  0
   -0.0919  -10.7211    2.2553 C   0  0  0  0  0  0  0  0  0  0  0  0
   -0.0198  -10.1717    0.9114 C   0  0  0  0  0  0  0  0  0  0  0  0
   -1.6049   -5.8596   -0.1891 C   0  0  0  0  0  0  0  0  0  0  0  0
   -0.6685   -5.7266    0.8124 C   0  0  0  0  0  0  0  0  0  0  0  0
   -0.6491   -6.6600    1.9306 C   0  0  0  0  0  0  0  0  0  0  0  0
   -0.8759   -6.4341    3.2776 C   0  0  0  0  0  0  0  0  0  0  0  0
   -1.5646   -4.9024   -1.1629 C   0  0  0  0  0  0  0  0  0  0  0  0
    0.4749   -1.3180   -0.0185 C   0  0  0  0  0  0  0  0  0  0  0  0
    0.1603   -3.7958   -0.1125 C   0  0  0  0  0  0  0  0  0  0  0  0
    0.2340   -4.7191    0.8629 N   0  0  0  0  0  0  0  0  0  0  0  0
   -0.9038   -1.0458   -0.0339 C   0  0  0  0  0  0  0  0  0  0  0  0
   -1.4061    0.2515   -0.0189 C   0  0  0  0  0  0  0  0  0  0  0  0
   -0.5209    1.3179    0.0498 C   0  0  0  0  0  0  0  0  0  0  0  0
   -0.6589    3.2820    1.7459 O   0  0  0  0  0  0  0  0  0  0  0  0
   -1.1149    2.9436    0.4208 S   0  0  0  0  0  0  0  0  0  0  0  0
   -0.8824    3.7937   -0.7254 O   0  0  0  0  0  0  0  0  0  0  0  0
   -2.7921    2.7726    0.5712 N   0  0  0  0  0  0  0  0  0  0  0  0
    0.8598    1.0906   -0.0043 C   0  0  0  0  0  0  0  0  0  0  0  0
    0.9454   -2.6423   -0.0347 N   0  0  0  0  0  0  0  0  0  0  0  0
   -0.7065   -3.8758   -1.1389 N   0  0  0  0  0  0  0  0  0  0  0  0
   -0.8302   -7.5931    4.0093 N   0  0  0  0  0  0  0  0  0  0  0  0
    2.4300   -0.3821    0.0083 H   0  0  0  0  0  0  0  0  0  0  0  0
   -0.1417   -8.3875   -0.2418 H   0  0  0  0  0  0  0  0  0  0  0  0
   -0.4079  -10.3429    4.3223 H   0  0  0  0  0  0  0  0  0  0  0  0
    0.0792  -11.7865    2.3814 H   0  0  0  0  0  0  0  0  0  0  0  0
    0.1858  -10.8429    0.0839 H   0  0  0  0  0  0  0  0  0  0  0  0
   -2.3360   -6.6547   -0.2094 H   0  0  0  0  0  0  0  0  0  0  0  0
   -1.0953   -5.4883    3.7577 H   0  0  0  0  0  0  0  0  0  0  0  0
   -2.2473   -4.9140   -2.0061 H   0  0  0  0  0  0  0  0  0  0  0  0
   -1.6246   -1.8583   -0.0228 H   0  0  0  0  0  0  0  0  0  0  0  0
   -2.4813    0.3911   -0.0394 H   0  0  0  0  0  0  0  0  0  0  0  0
   -3.0302    2.1909    1.3757 H   0  0  0  0  0  0  0  0  0  0  0  0
   -3.2029    3.7034    0.6738 H   0  0  0  0  0  0  0  0  0  0  0  0
    1.5531    1.9298   -0.0178 H   0  0  0  0  0  0  0  0  0  0  0  0
    1.9181   -2.8220    0.1489 H   0  0  0  0  0  0  0  0  0  0  0  0
  1 13  2  0  0  0  0
  1 23  1  0  0  0  0
  1 27  1  0  0  0  0
  2  3  1  0  0  0  0
  2  4  1  0  0  0  0
  2 10  1  0  0  0  0
  3  7  2  0  0  0  0
  3 28  1  0  0  0  0
  4  5  1  0  0  0  0
  4 26  2  0  0  0  0
  5  6  2  0  0  0  0
  5 29  1  0  0  0  0
  6  7  1  0  0  0  0
  6 30  1  0  0  0  0
  7 31  1  0  0  0  0
  8  9  2  0  0  0  0
  8 12  1  0  0  0  0
  8 32  1  0  0  0  0
  9 10  1  0  0  0  0
  9 15  1  0  0  0  0
 10 11  2  0  0  0  0
 11 26  1  0  0  0  0
 11 33  1  0  0  0  0
 12 25  2  0  0  0  0
 12 34  1  0  0  0  0
 13 16  1  0  0  0  0
 13 24  1  0  0  0  0
 14 15  2  0  0  0  0
 14 24  1  0  0  0  0
 14 25  1  0  0  0  0
 16 17  2  0  0  0  0
 16 35  1  0  0  0  0
 17 18  1  0  0  0  0
 17 36  1  0  0  0  0
 18 20  1  0  0  0  0
 18 23  2  0  0  0  0
 19 20  2  0  0  0  0
 20 21  2  0  0  0  0
 20 22  1  0  0  0  0
 22 37  1  0  0  0  0
 22 38  1  0  0  0  0
 23 39  1  0  0  0  0
 24 40  1  0  0  0  0
M  END
>  <DRUGBANK_ID>
DB02197

>  <SECONDARY_ACCESSION_NUMBERS>
EXPT01717

>  <COMMON_NAME>
4-[(4-Imidazo[1,2-a]Pyridin-3-Ylpyrimidin-2-Yl)Amino]Benzenesulfonamide

>  <UNII>
K0O97QF441

$$$$
