
 OpenBabel10282417163D

 28 29  0  0  0  0  0  0  0  0999 V2000
    1.0986   -0.0086    0.1063 C   0  0  0  0  0  0  0  0  0  0  0  0
    0.3081    1.0275   -0.3333 N   0  0  0  0  0  0  0  0  0  0  0  0
   -3.2053    0.6123    0.7368 C   0  0  0  0  0  0  0  0  0  0  0  0
    0.4592   -1.1827    0.4353 N   0  0  0  0  0  0  0  0  0  0  0  0
   -1.0901    1.1123   -0.3217 C   0  0  0  0  0  0  0  0  0  0  0  0
   -3.8760    1.0797   -0.3895 C   0  0  0  0  0  0  0  0  0  0  0  0
    1.0850   -2.3427    0.9310 C   0  0  0  0  0  0  0  0  0  0  0  0
   -1.7596    1.6383   -1.4286 C   0  0  0  0  0  0  0  0  0  0  0  0
    2.1907   -4.6649    2.0420 C   0  0  0  0  0  0  0  0  0  0  0  0
    0.5474   -3.5984    0.6222 C   0  0  0  0  0  0  0  0  0  0  0  0
    2.7281   -3.4167    2.3481 C   0  0  0  0  0  0  0  0  0  0  0  0
   -1.8165    0.6426    0.7734 C   0  0  0  0  0  0  0  0  0  0  0  0
    2.3253    0.1415    0.0764 O   0  0  0  0  0  0  0  0  0  0  0  0
    2.1799   -2.2608    1.7905 C   0  0  0  0  0  0  0  0  0  0  0  0
    1.0922   -4.7563    1.1888 C   0  0  0  0  0  0  0  0  0  0  0  0
   -3.1552    1.5718   -1.4796 C   0  0  0  0  0  0  0  0  0  0  0  0
    0.8329    1.7438   -0.8204 H   0  0  0  0  0  0  0  0  0  0  0  0
   -3.7537    0.2102    1.5835 H   0  0  0  0  0  0  0  0  0  0  0  0
   -0.4968   -1.2869    0.1249 H   0  0  0  0  0  0  0  0  0  0  0  0
   -4.9623    1.0659   -0.4130 H   0  0  0  0  0  0  0  0  0  0  0  0
   -1.2175    2.0303   -2.2859 H   0  0  0  0  0  0  0  0  0  0  0  0
    2.6313   -5.5633    2.4665 H   0  0  0  0  0  0  0  0  0  0  0  0
   -0.2634   -3.6998   -0.0951 H   0  0  0  0  0  0  0  0  0  0  0  0
    3.5659   -3.3340    3.0345 H   0  0  0  0  0  0  0  0  0  0  0  0
   -1.3013    0.3113    1.6720 H   0  0  0  0  0  0  0  0  0  0  0  0
    2.5902   -1.2949    2.0707 H   0  0  0  0  0  0  0  0  0  0  0  0
    0.6620   -5.7303    0.9681 H   0  0  0  0  0  0  0  0  0  0  0  0
   -3.6843    1.8782   -2.3792 H   0  0  0  0  0  0  0  0  0  0  0  0
  2  1  1  0  0  0  0
  2 17  1  0  0  0  0
  3 18  1  0  0  0  0
  4  1  1  0  0  0  0
  4 19  1  0  0  0  0
  5  2  1  0  0  0  0
  5 12  2  0  0  0  0
  6  3  2  0  0  0  0
  6 20  1  0  0  0  0
  7  4  1  0  0  0  0
  8  5  1  0  0  0  0
  8 16  2  0  0  0  0
  8 21  1  0  0  0  0
  9 22  1  0  0  0  0
 10  7  1  0  0  0  0
 10 23  1  0  0  0  0
 11  9  2  0  0  0  0
 11 14  1  0  0  0  0
 11 24  1  0  0  0  0
 12  3  1  0  0  0  0
 12 25  1  0  0  0  0
 13  1  2  0  0  0  0
 14  7  2  0  0  0  0
 14 26  1  0  0  0  0
 15  9  1  0  0  0  0
 15 10  2  0  0  0  0
 15 27  1  0  0  0  0
 16  6  1  0  0  0  0
 16 28  1  0  0  0  0
M  END
>  <DRUGBANK_ID>
DB07496

>  <COMMON_NAME>
1,3-diphenylurea

>  <CAS_NUMBER>
102-07-8

>  <UNII>
94YD8RMX5B

>  <SYNONYMS>
Carbanilide; Diphenylcarbamide; Diphenylurea; N-phenyl-N'-phenylurea; N,N'-diphenylurea; s-diphenylurea; sym-diphenylurea

$$$$
