
 OpenBabel10282417193D

 53 54  0  0  1  0  0  0  0  0999 V2000
   10.4486    3.2467   -0.4253 C   0  0  0  0  0  0  0  0  0  0  0  0
    9.1927    2.9954    0.3798 C   0  0  1  0  0  0  0  0  0  0  0  0
    8.7226    4.1838    1.2976 C   0  0  0  0  0  0  0  0  0  0  0  0
    7.5742    4.6344    1.2309 O   0  0  0  0  0  0  0  0  0  0  0  0
    9.5308    4.7032    2.2826 N   0  0  0  0  0  0  0  0  0  0  0  0
   10.9052    4.3646    2.6987 C   0  0  1  0  0  0  0  0  0  0  0  0
   11.1083    2.8917    3.0299 C   0  0  0  0  0  0  0  0  0  0  0  0
   10.0281    2.0204    3.1414 C   0  0  0  0  0  0  0  0  0  0  0  0
   10.2222    0.6400    3.1173 C   0  0  0  0  0  0  0  0  0  0  0  0
   11.4714    0.0854    3.0921 C   0  0  0  0  0  0  0  0  0  0  0  0
   12.5307    0.9249    3.3311 C   0  0  0  0  0  0  0  0  0  0  0  0
   12.3560    2.3264    3.3147 C   0  0  0  0  0  0  0  0  0  0  0  0
   13.5110    3.2122    3.6724 C   0  0  0  0  0  0  0  0  0  0  0  0
   14.0194    3.9699    2.4569 C   0  0  0  0  0  0  0  0  0  0  0  0
   13.2105    5.1482    2.1475 N   0  0  0  0  0  0  0  0  0  0  0  0
   11.8982    5.0638    1.7190 C   0  0  0  0  0  0  0  0  0  0  0  0
   11.5264    5.7110    0.7344 O   0  0  0  0  0  0  0  0  0  0  0  0
   13.7881    6.4755    2.1385 C   0  0  0  0  0  0  0  0  0  0  0  0
    8.1410    2.3371   -0.4138 N   0  0  0  0  0  0  0  0  0  0  0  0
    7.6862    1.0212   -0.3152 C   0  0  0  0  0  0  0  0  0  0  0  0
    6.7674    0.6283   -1.0026 O   0  0  0  0  0  0  0  0  0  0  0  0
    8.3357    0.1242    0.7614 C   0  0  2  0  0  0  0  0  0  0  0  0
    8.3114   -1.4187    0.6119 C   0  0  0  0  0  0  0  0  0  0  0  0
    9.7038   -2.0828    0.7891 C   0  0  0  0  0  0  0  0  0  0  0  0
    7.3770   -2.0899    1.6173 C   0  0  0  0  0  0  0  0  0  0  0  0
    7.7011    0.5742    1.9743 O   0  0  0  0  0  0  0  0  0  0  0  0
   10.3557    4.1265   -1.0620 H   0  0  0  0  0  0  0  0  0  0  0  0
   10.7369    2.3735   -1.0147 H   0  0  0  0  0  0  0  0  0  0  0  0
   11.2945    3.3782    0.2452 H   0  0  0  0  0  0  0  0  0  0  0  0
    9.5135    2.2250    1.0364 H   0  0  0  0  0  0  0  0  0  0  0  0
    9.1138    5.4924    2.7632 H   0  0  0  0  0  0  0  0  0  0  0  0
   11.0518    4.9071    3.6439 H   0  0  0  0  0  0  0  0  0  0  0  0
    8.9997    2.3788    3.0689 H   0  0  0  0  0  0  0  0  0  0  0  0
    9.3871   -0.0388    3.0449 H   0  0  0  0  0  0  0  0  0  0  0  0
   11.5739   -0.9873    2.9836 H   0  0  0  0  0  0  0  0  0  0  0  0
   13.4809    0.4579    3.5630 H   0  0  0  0  0  0  0  0  0  0  0  0
   14.3018    2.5914    4.1062 H   0  0  0  0  0  0  0  0  0  0  0  0
   13.1857    3.8963    4.4666 H   0  0  0  0  0  0  0  0  0  0  0  0
   14.0176    3.3178    1.5726 H   0  0  0  0  0  0  0  0  0  0  0  0
   15.0523    4.2850    2.6306 H   0  0  0  0  0  0  0  0  0  0  0  0
   13.7085    6.9332    1.1480 H   0  0  0  0  0  0  0  0  0  0  0  0
   13.1799    7.0759    2.8272 H   0  0  0  0  0  0  0  0  0  0  0  0
   14.8209    6.4731    2.4857 H   0  0  0  0  0  0  0  0  0  0  0  0
    7.6010    2.9228   -1.0366 H   0  0  0  0  0  0  0  0  0  0  0  0
    9.3947    0.3806    0.7513 H   0  0  0  0  0  0  0  0  0  0  0  0
    8.0012   -1.6541   -0.4090 H   0  0  0  0  0  0  0  0  0  0  0  0
   10.0430   -2.0688    1.8298 H   0  0  0  0  0  0  0  0  0  0  0  0
    9.6547   -3.1436    0.5132 H   0  0  0  0  0  0  0  0  0  0  0  0
   10.4785   -1.6194    0.1692 H   0  0  0  0  0  0  0  0  0  0  0  0
    6.3742   -1.6622    1.5581 H   0  0  0  0  0  0  0  0  0  0  0  0
    7.2954   -3.1613    1.4215 H   0  0  0  0  0  0  0  0  0  0  0  0
    7.7496   -1.9675    2.6441 H   0  0  0  0  0  0  0  0  0  0  0  0
    6.8090    0.1990    2.0535 H   0  0  0  0  0  0  0  0  0  0  0  0
  1 27  1  0  0  0  0
  1 28  1  0  0  0  0
  1 29  1  0  0  0  0
  2  1  1  0  0  0  0
  2  3  1  0  0  0  0
  2 19  1  0  0  0  0
  2 30  1  1  0  0  0
  3  4  2  0  0  0  0
  3  5  1  0  0  0  0
  5 31  1  0  0  0  0
  6  7  1  0  0  0  0
  6 16  1  0  0  0  0
  6 32  1  1  0  0  0
  6  5  1  0  0  0  0
  7  8  2  0  0  0  0
  7 12  1  0  0  0  0
  8  9  1  0  0  0  0
  8 33  1  0  0  0  0
  9 10  2  0  0  0  0
  9 34  1  0  0  0  0
 10 11  1  0  0  0  0
 10 35  1  0  0  0  0
 11 12  2  0  0  0  0
 11 36  1  0  0  0  0
 12 13  1  0  0  0  0
 13 14  1  0  0  0  0
 13 37  1  0  0  0  0
 13 38  1  0  0  0  0
 14 15  1  0  0  0  0
 14 39  1  0  0  0  0
 14 40  1  0  0  0  0
 15 16  1  0  0  0  0
 15 18  1  0  0  0  0
 16 17  2  0  0  0  0
 18 41  1  0  0  0  0
 18 42  1  0  0  0  0
 18 43  1  0  0  0  0
 19 20  1  0  0  0  0
 19 44  1  0  0  0  0
 20 21  2  0  0  0  0
 22 26  1  0  0  0  0
 22 45  1  1  0  0  0
 22 23  1  0  0  0  0
 22 20  1  0  0  0  0
 23 24  1  0  0  0  0
 23 25  1  0  0  0  0
 23 46  1  0  0  0  0
 24 47  1  0  0  0  0
 24 48  1  0  0  0  0
 24 49  1  0  0  0  0
 25 50  1  0  0  0  0
 25 51  1  0  0  0  0
 25 52  1  0  0  0  0
 26 53  1  0  0  0  0
M  END
>  <DRUGBANK_ID>
DB12463

>  <COMMON_NAME>
Semagacestat

>  <CAS_NUMBER>
425386-60-3

>  <UNII>
3YN0602W4W

>  <SYNONYMS>
Semagacestat

$$$$
