
 OpenBabel10282417223D

 69 74  0  0  1  0  0  0  0  0999 V2000
    1.4180   -0.0217    2.4119 C   0  0  0  0  0  0  0  0  0  0  0  0
    0.4356   -0.3717    1.3011 C   0  0  1  0  0  0  0  0  0  0  0  0
    0.2755   -1.9169    1.2346 C   0  0  0  0  0  0  0  0  0  0  0  0
   -0.7070   -2.3166    0.2136 N   0  0  0  0  0  0  0  0  0  0  0  0
   -0.9352   -3.7769    0.2161 C   0  0  0  0  0  0  0  0  0  0  0  0
   -1.4944   -4.3711    1.4917 C   0  0  0  0  0  0  0  0  0  0  0  0
   -2.7679   -4.0095    1.9149 C   0  0  0  0  0  0  0  0  0  0  0  0
   -3.3232   -4.3709    3.1372 C   0  0  0  0  0  0  0  0  0  0  0  0
   -2.6511   -5.3807    3.8379 C   0  0  0  0  0  0  0  0  0  0  0  0
   -1.4679   -5.9609    3.3307 C   0  0  0  0  0  0  0  0  0  0  0  0
   -0.9751   -7.1549    3.9226 N   0  0  0  0  0  0  0  0  0  0  0  0
    0.1825   -7.8374    3.4831 C   0  0  0  0  0  0  0  0  0  0  0  0
    1.2513   -7.0587    3.4483 N   0  0  0  0  0  0  0  0  0  0  0  0
    2.3002   -7.4850    2.7374 C   0  0  0  0  0  0  0  0  0  0  0  0
    2.2989   -8.6611    2.0644 C   0  0  0  0  0  0  0  0  0  0  0  0
    3.6810   -8.8658    1.0462 Cl  0  0  0  0  0  0  0  0  0  0  0  0
    1.3059   -9.5688    2.4559 C   0  0  0  0  0  0  0  0  0  0  0  0
    0.1873   -9.1441    3.1411 N   0  0  0  0  0  0  0  0  0  0  0  0
    1.5986  -11.0709    2.4881 C   0  0  0  0  0  0  0  0  0  0  0  0
    2.3761  -11.5856    3.6076 C   0  0  0  0  0  0  0  0  0  0  0  0
    3.6224  -11.1293    3.1069 N   0  0  0  0  0  0  0  0  0  0  0  0
    3.5770  -11.8496    1.9098 C   0  0  0  0  0  0  0  0  0  0  0  0
    2.2975  -11.7033    1.3759 C   0  0  0  0  0  0  0  0  0  0  0  0
    2.1206  -11.9872   -0.0063 C   0  0  0  0  0  0  0  0  0  0  0  0
    3.1965  -12.6059   -0.6875 C   0  0  0  0  0  0  0  0  0  0  0  0
    4.3823  -12.9191   -0.0092 C   0  0  0  0  0  0  0  0  0  0  0  0
    5.6217  -13.4273   -0.6688 C   0  0  0  0  0  0  0  0  0  0  0  0
    4.5610  -12.6212    1.3350 C   0  0  0  0  0  0  0  0  0  0  0  0
   -0.8300   -5.3244    2.2462 C   0  0  0  0  0  0  0  0  0  0  0  0
   -4.6332   -3.7458    3.5759 C   0  0  0  0  0  0  0  0  0  0  0  0
   -5.7971   -3.8261    2.6111 C   0  0  0  0  0  0  0  0  0  0  0  0
   -5.1857   -2.4896    2.9145 C   0  0  0  0  0  0  0  0  0  0  0  0
   -1.9456   -1.5586    0.4417 C   0  0  0  0  0  0  0  0  0  0  0  0
   -1.8040   -0.0351    0.4731 C   0  0  1  0  0  0  0  0  0  0  0  0
   -3.1927    0.5392    0.7816 C   0  0  0  0  0  0  0  0  0  0  0  0
   -0.8455    0.3343    1.5310 N   0  0  0  0  0  0  0  0  0  0  0  0
    1.5810    1.0586    2.4633 H   0  0  0  0  0  0  0  0  0  0  0  0
    2.3856   -0.5000    2.2239 H   0  0  0  0  0  0  0  0  0  0  0  0
    1.0595   -0.3646    3.3892 H   0  0  0  0  0  0  0  0  0  0  0  0
    0.8509   -0.0229    0.3474 H   0  0  0  0  0  0  0  0  0  0  0  0
    1.2445   -2.3737    0.9981 H   0  0  0  0  0  0  0  0  0  0  0  0
   -0.0204   -2.2813    2.2277 H   0  0  0  0  0  0  0  0  0  0  0  0
   -1.6314   -4.0295   -0.5958 H   0  0  0  0  0  0  0  0  0  0  0  0
    0.0018   -4.2802   -0.0535 H   0  0  0  0  0  0  0  0  0  0  0  0
   -3.3619   -3.3828    1.2637 H   0  0  0  0  0  0  0  0  0  0  0  0
   -3.0904   -5.7619    4.7527 H   0  0  0  0  0  0  0  0  0  0  0  0
   -1.6548   -7.7497    4.3456 H   0  0  0  0  0  0  0  0  0  0  0  0
    3.1594   -6.8319    2.7702 H   0  0  0  0  0  0  0  0  0  0  0  0
    2.6678  -12.5876    3.9686 H   0  0  0  0  0  0  0  0  0  0  0  0
    3.7133  -10.1190    3.1038 H   0  0  0  0  0  0  0  0  0  0  0  0
    1.2145  -11.7453   -0.5618 H   0  0  0  0  0  0  0  0  0  0  0  0
    3.1080  -12.8292   -1.7517 H   0  0  0  0  0  0  0  0  0  0  0  0
    6.4018  -12.6725   -0.5016 H   0  0  0  0  0  0  0  0  0  0  0  0
    5.9370  -14.3623   -0.1967 H   0  0  0  0  0  0  0  0  0  0  0  0
    5.4987  -13.5623   -1.7413 H   0  0  0  0  0  0  0  0  0  0  0  0
    5.4373  -12.8768    1.8994 H   0  0  0  0  0  0  0  0  0  0  0  0
    0.1595   -5.6198    1.9102 H   0  0  0  0  0  0  0  0  0  0  0  0
   -4.8604   -3.8220    4.6365 H   0  0  0  0  0  0  0  0  0  0  0  0
   -5.6231   -4.2619    1.6312 H   0  0  0  0  0  0  0  0  0  0  0  0
   -6.7720   -4.0561    3.0177 H   0  0  0  0  0  0  0  0  0  0  0  0
   -5.7598   -1.7888    3.5096 H   0  0  0  0  0  0  0  0  0  0  0  0
   -4.6276   -1.9790    2.1379 H   0  0  0  0  0  0  0  0  0  0  0  0
   -2.7021   -1.8491   -0.2976 H   0  0  0  0  0  0  0  0  0  0  0  0
   -2.3218   -1.7654    1.4450 H   0  0  0  0  0  0  0  0  0  0  0  0
   -1.4624    0.3256   -0.5034 H   0  0  0  0  0  0  0  0  0  0  0  0
   -3.9754   -0.0194    0.2506 H   0  0  0  0  0  0  0  0  0  0  0  0
   -3.4321    0.4682    1.8501 H   0  0  0  0  0  0  0  0  0  0  0  0
   -3.2648    1.5857    0.4795 H   0  0  0  0  0  0  0  0  0  0  0  0
   -0.7086    1.3403    1.5547 H   0  0  0  0  0  0  0  0  0  0  0  0
  1 37  1  0  0  0  0
  1 38  1  0  0  0  0
  1 39  1  0  0  0  0
  2  3  1  0  0  0  0
  2 36  1  0  0  0  0
  2 40  1  6  0  0  0
  2  1  1  0  0  0  0
  3  4  1  0  0  0  0
  3 41  1  0  0  0  0
  3 42  1  0  0  0  0
  4  5  1  0  0  0  0
  4 33  1  0  0  0  0
  5  6  1  0  0  0  0
  5 43  1  0  0  0  0
  5 44  1  0  0  0  0
  6  7  2  0  0  0  0
  6 29  1  0  0  0  0
  7  8  1  0  0  0  0
  7 45  1  0  0  0  0
  8  9  2  0  0  0  0
  8 30  1  0  0  0  0
  9 10  1  0  0  0  0
  9 46  1  0  0  0  0
 10 11  1  0  0  0  0
 10 29  2  0  0  0  0
 11 12  1  0  0  0  0
 11 47  1  0  0  0  0
 12 13  2  0  0  0  0
 12 18  1  0  0  0  0
 13 14  1  0  0  0  0
 14 15  2  0  0  0  0
 14 48  1  0  0  0  0
 15 16  1  0  0  0  0
 15 17  1  0  0  0  0
 17 18  2  0  0  0  0
 17 19  1  0  0  0  0
 19 20  2  0  0  0  0
 19 23  1  0  0  0  0
 20 21  1  0  0  0  0
 20 49  1  0  0  0  0
 21 22  1  0  0  0  0
 21 50  1  0  0  0  0
 22 23  2  0  0  0  0
 22 28  1  0  0  0  0
 23 24  1  0  0  0  0
 24 25  2  0  0  0  0
 24 51  1  0  0  0  0
 25 26  1  0  0  0  0
 25 52  1  0  0  0  0
 26 27  1  0  0  0  0
 26 28  2  0  0  0  0
 27 53  1  0  0  0  0
 27 54  1  0  0  0  0
 27 55  1  0  0  0  0
 28 56  1  0  0  0  0
 29 57  1  0  0  0  0
 30 31  1  0  0  0  0
 30 32  1  0  0  0  0
 30 58  1  0  0  0  0
 31 32  1  0  0  0  0
 31 59  1  0  0  0  0
 31 60  1  0  0  0  0
 32 61  1  0  0  0  0
 32 62  1  0  0  0  0
 33 63  1  0  0  0  0
 33 64  1  0  0  0  0
 34 33  1  0  0  0  0
 34 36  1  0  0  0  0
 34 65  1  6  0  0  0
 34 35  1  0  0  0  0
 35 66  1  0  0  0  0
 35 67  1  0  0  0  0
 35 68  1  0  0  0  0
 36 69  1  0  0  0  0
M  END
>  <DRUGBANK_ID>
DB15343

>  <COMMON_NAME>
Tuspetinib

>  <UNII>
C0WUS7XXE9

>  <SYNONYMS>
2-Pyrimidinamine, 5-chloro-N-(3-cyclopropyl-5-(((3R,5S)-3,5-dimethyl-1-piperazinyl)methyl)phenyl)-4-(6-methyl-1H-indol-3-yl)-, rel-; 5-Chloro-N-(3-cyclopropyl-5-(((3R,5S)-3,5-dimethylpiperazine-1-yl) methyl) phenyl)-4-(6-methyl-1hindol-3-yl) pyrimidin-2-amine

$$$$
