
 OpenBabel10282417133D

 71 75  0  0  0  0  0  0  0  0999 V2000
   -8.4295   -3.2852   14.3337 C   0  0  0  0  0  0  0  0  0  0  0  0
   -7.3478   -4.2500   14.1868 N   0  0  0  0  0  0  0  0  0  0  0  0
   -6.0698   -3.9741   14.8197 C   0  0  0  0  0  0  0  0  0  0  0  0
   -7.5316   -5.3308   13.3233 C   0  0  0  0  0  0  0  0  0  0  0  0
   -8.1176   -5.0877   12.0626 C   0  0  0  0  0  0  0  0  0  0  0  0
   -8.4785   -6.1245   11.2414 C   0  0  0  0  0  0  0  0  0  0  0  0
   -8.3271   -7.4093   11.7239 C   0  0  0  0  0  0  0  0  0  0  0  0
   -7.5066   -7.7563   12.8182 C   0  0  0  0  0  0  0  0  0  0  0  0
   -7.1719   -6.6858   13.6742 C   0  0  0  0  0  0  0  0  0  0  0  0
   -6.5652   -7.0499   14.8959 C   0  0  0  0  0  0  0  0  0  0  0  0
   -6.1167   -8.3284   15.2030 C   0  0  0  0  0  0  0  0  0  0  0  0
   -6.3320   -9.3497   14.3055 C   0  0  0  0  0  0  0  0  0  0  0  0
   -7.0397   -9.0838   13.1255 C   0  0  0  0  0  0  0  0  0  0  0  0
   -7.2043  -10.5017   12.0468 S   0  0  0  0  0  0  0  0  0  0  0  0
   -5.8893  -11.0648   11.8250 O   0  0  0  0  0  0  0  0  0  0  0  0
   -8.2534  -11.3390   12.5840 O   0  0  0  0  0  0  0  0  0  0  0  0
   -7.7570   -9.9312   10.5574 N   0  0  0  0  0  0  0  0  0  0  0  0
   -6.9645   -8.9177    9.8261 C   0  0  0  0  0  0  0  0  0  0  0  0
   -5.6573   -9.4757    9.3868 C   0  0  0  0  0  0  0  0  0  0  0  0
   -5.9309  -10.6712    8.5125 C   0  0  0  0  0  0  0  0  0  0  0  0
   -6.7568  -10.2625    7.3256 C   0  0  0  0  0  0  0  0  0  0  0  0
   -5.9476   -9.5557    6.4365 N   0  0  0  0  0  0  0  0  0  0  0  0
   -5.4454  -10.1277    5.3147 C   0  0  0  0  0  0  0  0  0  0  0  0
   -4.6811   -9.3131    4.7562 O   0  0  0  0  0  0  0  0  0  0  0  0
   -6.1037  -11.5168    4.4490 C   0  0  2  0  0  0  0  0  0  0  0  0
   -7.4149  -10.7418    4.1076 C   0  0  0  0  0  0  0  0  0  0  0  0
   -8.0350  -11.9412    3.5697 C   0  0  1  0  0  0  0  0  0  0  0  0
   -7.8848  -12.6584    5.1189 C   0  0  0  0  0  0  0  0  0  0  0  0
   -5.9530  -12.9196    5.4904 C   0  0  2  0  0  0  0  0  0  0  0  0
   -4.8409  -13.3754    3.9840 C   0  0  0  0  0  0  0  0  0  0  0  0
   -5.4631  -12.5735    2.6326 C   0  0  2  0  0  0  0  0  0  0  0  0
   -7.0598  -12.3735    2.3301 C   0  0  0  0  0  0  0  0  0  0  0  0
   -5.1117  -11.3148    3.2666 C   0  0  0  0  0  0  0  0  0  0  0  0
   -6.6382  -13.5400    4.4688 C   0  0  0  0  0  0  0  0  0  0  0  0
   -8.1627   -2.5014   15.0482 H   0  0  0  0  0  0  0  0  0  0  0  0
   -9.3269   -3.7826   14.7186 H   0  0  0  0  0  0  0  0  0  0  0  0
   -8.6808   -2.7812   13.3946 H   0  0  0  0  0  0  0  0  0  0  0  0
   -5.7716   -4.7131   15.5562 H   0  0  0  0  0  0  0  0  0  0  0  0
   -5.2667   -3.9031   14.0830 H   0  0  0  0  0  0  0  0  0  0  0  0
   -6.1117   -3.0534   15.4061 H   0  0  0  0  0  0  0  0  0  0  0  0
   -8.3372   -4.0842   11.7130 H   0  0  0  0  0  0  0  0  0  0  0  0
   -8.8972   -5.9687   10.2504 H   0  0  0  0  0  0  0  0  0  0  0  0
   -8.8071   -8.1643   11.1209 H   0  0  0  0  0  0  0  0  0  0  0  0
   -6.4776   -6.3400   15.7010 H   0  0  0  0  0  0  0  0  0  0  0  0
   -5.6273   -8.4972   16.1576 H   0  0  0  0  0  0  0  0  0  0  0  0
   -5.9958  -10.3534   14.5557 H   0  0  0  0  0  0  0  0  0  0  0  0
   -8.2132  -10.6681   10.0142 H   0  0  0  0  0  0  0  0  0  0  0  0
   -7.5874   -8.4912    9.0268 H   0  0  0  0  0  0  0  0  0  0  0  0
   -6.6713   -8.0560   10.4087 H   0  0  0  0  0  0  0  0  0  0  0  0
   -5.0839   -8.6816    8.8993 H   0  0  0  0  0  0  0  0  0  0  0  0
   -5.0617   -9.7432   10.2577 H   0  0  0  0  0  0  0  0  0  0  0  0
   -4.9736  -11.1068    8.2218 H   0  0  0  0  0  0  0  0  0  0  0  0
   -6.4975  -11.4473    9.0329 H   0  0  0  0  0  0  0  0  0  0  0  0
   -7.0490  -11.1482    6.8180 H   0  0  0  0  0  0  0  0  0  0  0  0
   -7.6653   -9.6808    7.4979 H   0  0  0  0  0  0  0  0  0  0  0  0
   -5.5818   -8.6316    6.6945 H   0  0  0  0  0  0  0  0  0  0  0  0
   -8.0504  -10.3890    4.9369 H   0  0  0  0  0  0  0  0  0  0  0  0
   -7.2131   -9.8405    3.5345 H   0  0  0  0  0  0  0  0  0  0  0  0
   -9.0709  -11.8141    3.2633 H   0  0  0  0  0  0  0  0  0  0  0  0
   -8.5765  -13.5630    5.0800 H   0  0  0  0  0  0  0  0  0  0  0  0
   -8.3638  -12.0743    5.8945 H   0  0  0  0  0  0  0  0  0  0  0  0
   -5.7515  -13.4536    6.4063 H   0  0  0  0  0  0  0  0  0  0  0  0
   -4.7339  -14.4507    3.6748 H   0  0  0  0  0  0  0  0  0  0  0  0
   -3.8032  -13.1156    4.1636 H   0  0  0  0  0  0  0  0  0  0  0  0
   -4.8991  -12.7502    1.7194 H   0  0  0  0  0  0  0  0  0  0  0  0
   -7.4844  -13.2283    1.8097 H   0  0  0  0  0  0  0  0  0  0  0  0
   -7.0886  -11.5185    1.6245 H   0  0  0  0  0  0  0  0  0  0  0  0
   -4.0353  -11.3252    3.5144 H   0  0  0  0  0  0  0  0  0  0  0  0
   -5.2572  -10.3582    2.7675 H   0  0  0  0  0  0  0  0  0  0  0  0
   -7.0845  -14.2585    5.2916 H   0  0  0  0  0  0  0  0  0  0  0  0
   -6.1844  -14.5572    4.3180 H   0  0  0  0  0  0  0  0  0  0  0  0
  1  2  1  0  0  0  0
  1 35  1  0  0  0  0
  1 36  1  0  0  0  0
  1 37  1  0  0  0  0
  2  3  1  0  0  0  0
  2  4  1  0  0  0  0
  3 38  1  0  0  0  0
  3 39  1  0  0  0  0
  3 40  1  0  0  0  0
  4  5  2  0  0  0  0
  4  9  1  0  0  0  0
  5  6  1  0  0  0  0
  5 41  1  0  0  0  0
  6  7  2  0  0  0  0
  6 42  1  0  0  0  0
  7  8  1  0  0  0  0
  7 43  1  0  0  0  0
  8  9  2  0  0  0  0
  8 13  1  0  0  0  0
  9 10  1  0  0  0  0
 10 11  2  0  0  0  0
 10 44  1  0  0  0  0
 11 12  1  0  0  0  0
 11 45  1  0  0  0  0
 12 13  2  0  0  0  0
 12 46  1  0  0  0  0
 13 14  1  0  0  0  0
 14 15  2  0  0  0  0
 14 16  2  0  0  0  0
 14 17  1  0  0  0  0
 17 18  1  0  0  0  0
 17 47  1  0  0  0  0
 18 19  1  0  0  0  0
 18 48  1  0  0  0  0
 18 49  1  0  0  0  0
 19 20  1  0  0  0  0
 19 50  1  0  0  0  0
 19 51  1  0  0  0  0
 20 21  1  0  0  0  0
 20 52  1  0  0  0  0
 20 53  1  0  0  0  0
 21 22  1  0  0  0  0
 21 54  1  0  0  0  0
 21 55  1  0  0  0  0
 22 23  1  0  0  0  0
 22 56  1  0  0  0  0
 23 24  2  0  0  0  0
 25 26  1  0  0  0  0
 25 34  1  0  0  0  0
 25 33  1  0  0  0  0
 25 23  1  6  0  0  0
 26 57  1  0  0  0  0
 26 58  1  0  0  0  0
 27 26  1  0  0  0  0
 27 28  1  0  0  0  0
 27 32  1  0  0  0  0
 27 59  1  1  0  0  0
 28 60  1  0  0  0  0
 28 61  1  0  0  0  0
 29 28  1  0  0  0  0
 29 34  1  0  0  0  0
 29 30  1  0  0  0  0
 29 62  1  1  0  0  0
 30 63  1  0  0  0  0
 30 64  1  0  0  0  0
 31 30  1  0  0  0  0
 31 32  1  0  0  0  0
 31 33  1  0  0  0  0
 31 65  1  1  0  0  0
 32 66  1  0  0  0  0
 32 67  1  0  0  0  0
 33 68  1  0  0  0  0
 33 69  1  0  0  0  0
 34 70  1  0  0  0  0
 34 71  1  0  0  0  0
M  END
>  <DRUGBANK_ID>
DB04032

>  <SECONDARY_ACCESSION_NUMBERS>
EXPT01125

>  <COMMON_NAME>
Adamantane-1-Carboxylic Acid-5-Dimethylamino-Naphthalene-1-Sulfonylamino-Butyl-Amide

$$$$
