
 OpenBabel10282417183D

 46 48  0  0  1  0  0  0  0  0999 V2000
   -0.7939   -4.6691    1.4282 C   0  0  0  0  0  0  0  0  0  0  0  0
    0.5616   -4.0643    1.5444 C   0  0  0  0  0  0  0  0  0  0  0  0
    1.4456   -4.5274    0.4650 C   0  0  0  0  0  0  0  0  0  0  0  0
    0.5793   -2.3168    1.4227 S   0  0  0  0  0  0  0  0  0  0  0  0
   -0.2754   -2.1452    2.5559 O   0  0  0  0  0  0  0  0  0  0  0  0
    1.9694   -1.9015    1.4453 O   0  0  0  0  0  0  0  0  0  0  0  0
   -0.0648   -1.6500   -0.0255 N   0  0  0  0  0  0  0  0  0  0  0  0
   -1.4851   -1.6019   -0.5159 C   0  0  1  0  0  0  0  0  0  0  0  0
   -1.7496   -2.9367   -1.2186 C   0  0  0  0  0  0  0  0  0  0  0  0
   -2.6437   -3.6359   -0.3321 O   0  0  0  0  0  0  0  0  0  0  0  0
   -2.8630   -2.8383    0.8786 C   0  0  0  0  0  0  0  0  0  0  0  0
   -2.5830   -1.4012    0.5441 C   0  0  1  0  0  0  0  0  0  0  0  0
   -2.4929   -0.4541    1.6779 O   0  0  0  0  0  0  0  0  0  0  0  0
   -1.3928   -0.0180    2.4092 C   0  0  0  0  0  0  0  0  0  0  0  0
   -0.2261    0.5089    1.8429 C   0  0  0  0  0  0  0  0  0  0  0  0
    1.0206    0.5069    2.5413 C   0  0  0  0  0  0  0  0  0  0  0  0
    1.1298    0.1044    3.8802 C   0  0  0  0  0  0  0  0  0  0  0  0
   -0.0677   -0.2028    4.5327 C   0  0  0  0  0  0  0  0  0  0  0  0
   -1.3098   -0.3011    3.8033 C   0  0  0  0  0  0  0  0  0  0  0  0
    2.4674    0.0544    4.5075 C   0  0  0  0  0  0  0  0  0  0  0  0
    3.4036    1.0638    4.4159 C   0  0  0  0  0  0  0  0  0  0  0  0
    4.5626    0.8382    5.1990 C   0  0  0  0  0  0  0  0  0  0  0  0
    4.5451   -0.4004    5.8001 C   0  0  0  0  0  0  0  0  0  0  0  0
    3.1015   -1.2613    5.4178 S   0  0  0  0  0  0  0  0  0  0  0  0
    5.6086   -0.8873    6.6540 C   0  0  0  0  0  0  0  0  0  0  0  0
    6.4734   -1.2143    7.3229 N   0  0  0  0  0  0  0  0  0  0  0  0
   -1.0379   -4.0859    0.5879 H   0  0  0  0  0  0  0  0  0  0  0  0
   -1.4899   -4.5023    2.2650 H   0  0  0  0  0  0  0  0  0  0  0  0
   -0.9535   -5.6694    1.0484 H   0  0  0  0  0  0  0  0  0  0  0  0
    0.8774   -4.2643    2.5776 H   0  0  0  0  0  0  0  0  0  0  0  0
    1.1394   -4.0536   -0.4748 H   0  0  0  0  0  0  0  0  0  0  0  0
    2.4519   -4.1912    0.7044 H   0  0  0  0  0  0  0  0  0  0  0  0
    1.3551   -5.6008    0.4009 H   0  0  0  0  0  0  0  0  0  0  0  0
    0.4094   -0.7961   -0.3508 H   0  0  0  0  0  0  0  0  0  0  0  0
   -1.6076   -0.8263   -1.2874 H   0  0  0  0  0  0  0  0  0  0  0  0
   -2.2308   -2.9013   -2.2007 H   0  0  0  0  0  0  0  0  0  0  0  0
   -0.7968   -3.4716   -1.4237 H   0  0  0  0  0  0  0  0  0  0  0  0
   -2.1645   -2.9556    1.6879 H   0  0  0  0  0  0  0  0  0  0  0  0
   -3.7725   -3.2126    1.3397 H   0  0  0  0  0  0  0  0  0  0  0  0
   -3.5207   -1.1499    0.0301 H   0  0  0  0  0  0  0  0  0  0  0  0
   -0.1563    0.6526    0.7781 H   0  0  0  0  0  0  0  0  0  0  0  0
    1.9411    0.5805    1.9488 H   0  0  0  0  0  0  0  0  0  0  0  0
   -0.0270   -0.4957    5.5791 H   0  0  0  0  0  0  0  0  0  0  0  0
   -2.0933   -0.8968    4.2754 H   0  0  0  0  0  0  0  0  0  0  0  0
    3.2045    1.9622    3.8492 H   0  0  0  0  0  0  0  0  0  0  0  0
    5.3571    1.5666    5.3112 H   0  0  0  0  0  0  0  0  0  0  0  0
  1  2  1  0  0  0  0
  1 27  1  0  0  0  0
  1 28  1  0  0  0  0
  1 29  1  0  0  0  0
  2  3  1  0  0  0  0
  2  4  1  0  0  0  0
  2 30  1  0  0  0  0
  3 31  1  0  0  0  0
  3 32  1  0  0  0  0
  3 33  1  0  0  0  0
  4  5  2  0  0  0  0
  4  6  2  0  0  0  0
  4  7  1  0  0  0  0
  7 34  1  0  0  0  0
  8  9  1  0  0  0  0
  8 12  1  0  0  0  0
  8 35  1  6  0  0  0
  8  7  1  0  0  0  0
  9 10  1  0  0  0  0
  9 36  1  0  0  0  0
  9 37  1  0  0  0  0
 10 11  1  0  0  0  0
 11 12  1  0  0  0  0
 11 38  1  0  0  0  0
 11 39  1  0  0  0  0
 12 13  1  0  0  0  0
 12 40  1  6  0  0  0
 13 14  1  0  0  0  0
 14 15  2  0  0  0  0
 14 19  1  0  0  0  0
 15 16  1  0  0  0  0
 15 41  1  0  0  0  0
 16 17  2  0  0  0  0
 16 42  1  0  0  0  0
 17 18  1  0  0  0  0
 17 20  1  0  0  0  0
 18 19  2  0  0  0  0
 18 43  1  0  0  0  0
 19 44  1  0  0  0  0
 20 21  2  0  0  0  0
 20 24  1  0  0  0  0
 21 22  1  0  0  0  0
 21 45  1  0  0  0  0
 22 23  2  0  0  0  0
 22 46  1  0  0  0  0
 23 24  1  0  0  0  0
 23 25  1  0  0  0  0
 25 26  3  0  0  0  0
M  END
>  <DRUGBANK_ID>
DB11843

>  <COMMON_NAME>
PF-04958242

>  <CAS_NUMBER>
1258963-59-5

>  <UNII>
9G1A824CC2

$$$$
