
 OpenBabel10282417113D

 61 64  0  0  0  0  0  0  0  0999 V2000
    0.0681   -1.3283    0.6445 N   0  0  0  0  0  0  0  0  0  0  0  0
    1.2959   -0.7400    0.3335 C   0  0  0  0  0  0  0  0  0  0  0  0
    0.0053    1.7257    0.3661 S   0  0  0  0  0  0  0  0  0  0  0  0
    1.3872    0.6400    0.0921 C   0  0  0  0  0  0  0  0  0  0  0  0
   -1.1262   -0.8163    0.0959 C   0  0  0  0  0  0  0  0  0  0  0  0
   -1.2928    0.5824   -0.0919 C   0  0  0  0  0  0  0  0  0  0  0  0
    2.3784   -1.5849    0.0818 C   0  0  0  0  0  0  0  0  0  0  0  0
    3.5475   -1.0582   -0.4307 C   0  0  0  0  0  0  0  0  0  0  0  0
   -2.7552   -2.1385    2.5339 N   0  0  0  0  0  0  0  0  0  0  0  0
   -4.0908   -2.7915    5.0457 N   0  0  0  0  0  0  0  0  0  0  0  0
    4.6333   -2.0224   -0.7764 C   0  0  0  0  0  0  0  0  0  0  0  0
    2.5600    1.1674   -0.4077 C   0  0  0  0  0  0  0  0  0  0  0  0
    3.6382    0.3220   -0.6431 C   0  0  0  0  0  0  0  0  0  0  0  0
    4.5102   -3.2016   -0.5289 O   0  0  0  0  0  0  0  0  0  0  0  0
    0.1190   -2.2095    1.8316 C   0  0  0  0  0  0  0  0  0  0  0  0
   -2.8541   -3.4905    4.6361 C   0  0  0  0  0  0  0  0  0  0  0  0
   -4.0284   -1.5055    2.8796 C   0  0  0  0  0  0  0  0  0  0  0  0
   -2.5515   -3.4698    3.1167 C   0  0  0  0  0  0  0  0  0  0  0  0
   -4.1830   -1.4699    4.4165 C   0  0  0  0  0  0  0  0  0  0  0  0
   -0.4089   -1.5559    3.0942 C   0  0  0  0  0  0  0  0  0  0  0  0
   -1.8053   -1.1038    2.8995 C   0  0  0  0  0  0  0  0  0  0  0  0
   -2.2093   -1.6451   -0.2151 C   0  0  0  0  0  0  0  0  0  0  0  0
   -5.3674   -3.5025    4.9111 C   0  0  0  0  0  0  0  0  0  0  0  0
   -2.5116    1.1162   -0.5251 C   0  0  0  0  0  0  0  0  0  0  0  0
   -5.0073   -5.1017    3.1221 O   0  0  0  0  0  0  0  0  0  0  0  0
    5.8928   -1.4697   -1.4117 C   0  0  0  0  0  0  0  0  0  0  0  0
   -5.8280   -4.0283    3.5379 C   0  0  0  0  0  0  0  0  0  0  0  0
    5.6494   -0.8820   -2.7920 C   0  0  0  0  0  0  0  0  0  0  0  0
   -3.4356   -1.1059   -0.6214 C   0  0  0  0  0  0  0  0  0  0  0  0
   -3.5842    0.2695   -0.7845 C   0  0  0  0  0  0  0  0  0  0  0  0
    2.2645   -2.6604    0.2147 H   0  0  0  0  0  0  0  0  0  0  0  0
    2.6300    2.2232   -0.6478 H   0  0  0  0  0  0  0  0  0  0  0  0
    4.5384    0.7873   -1.0194 H   0  0  0  0  0  0  0  0  0  0  0  0
   -0.3765   -3.1503    1.5894 H   0  0  0  0  0  0  0  0  0  0  0  0
    1.1386   -2.5023    2.1155 H   0  0  0  0  0  0  0  0  0  0  0  0
   -2.0082   -2.9866    5.1294 H   0  0  0  0  0  0  0  0  0  0  0  0
   -2.8044   -4.5053    5.0534 H   0  0  0  0  0  0  0  0  0  0  0  0
   -4.0452   -0.4815    2.4857 H   0  0  0  0  0  0  0  0  0  0  0  0
   -4.8463   -1.9359    2.3150 H   0  0  0  0  0  0  0  0  0  0  0  0
   -3.1288   -4.1439    2.4791 H   0  0  0  0  0  0  0  0  0  0  0  0
   -1.5653   -3.9378    2.9667 H   0  0  0  0  0  0  0  0  0  0  0  0
   -3.3961   -0.8795    4.9014 H   0  0  0  0  0  0  0  0  0  0  0  0
   -5.0796   -0.9120    4.6899 H   0  0  0  0  0  0  0  0  0  0  0  0
   -0.3607   -2.2483    3.9441 H   0  0  0  0  0  0  0  0  0  0  0  0
    0.1558   -0.6723    3.4021 H   0  0  0  0  0  0  0  0  0  0  0  0
   -2.0590   -0.5149    3.7710 H   0  0  0  0  0  0  0  0  0  0  0  0
   -1.8979   -0.3280    2.1509 H   0  0  0  0  0  0  0  0  0  0  0  0
   -2.1402   -2.7142   -0.0329 H   0  0  0  0  0  0  0  0  0  0  0  0
   -5.3107   -4.3530    5.5944 H   0  0  0  0  0  0  0  0  0  0  0  0
   -6.1437   -2.8338    5.3017 H   0  0  0  0  0  0  0  0  0  0  0  0
   -2.6332    2.1906   -0.6375 H   0  0  0  0  0  0  0  0  0  0  0  0
   -4.1959   -4.9900    3.6360 H   0  0  0  0  0  0  0  0  0  0  0  0
    6.3378   -0.7455   -0.7217 H   0  0  0  0  0  0  0  0  0  0  0  0
    6.6021   -2.2998   -1.4983 H   0  0  0  0  0  0  0  0  0  0  0  0
   -6.8429   -4.4168    3.5716 H   0  0  0  0  0  0  0  0  0  0  0  0
   -5.8634   -3.2801    2.7565 H   0  0  0  0  0  0  0  0  0  0  0  0
    4.9489   -0.0448   -2.7996 H   0  0  0  0  0  0  0  0  0  0  0  0
    6.5863   -0.5053   -3.2073 H   0  0  0  0  0  0  0  0  0  0  0  0
    5.2234   -1.6316   -3.4637 H   0  0  0  0  0  0  0  0  0  0  0  0
   -4.2869   -1.7669   -0.7601 H   0  0  0  0  0  0  0  0  0  0  0  0
   -4.5380    0.6823   -1.0996 H   0  0  0  0  0  0  0  0  0  0  0  0
  2  1  1  0  0  0  0
  3  6  1  0  0  0  0
  4  2  1  0  0  0  0
  4  3  1  0  0  0  0
  5  1  1  0  0  0  0
  6  5  2  0  0  0  0
  7  2  2  0  0  0  0
  7 31  1  0  0  0  0
  8  7  1  0  0  0  0
  9 21  1  0  0  0  0
 10 19  1  0  0  0  0
 11  8  1  0  0  0  0
 12  4  2  0  0  0  0
 12 13  1  0  0  0  0
 12 32  1  0  0  0  0
 13  8  2  0  0  0  0
 13 33  1  0  0  0  0
 14 11  2  0  0  0  0
 15  1  1  0  0  0  0
 15 34  1  0  0  0  0
 15 35  1  0  0  0  0
 16 18  1  0  0  0  0
 16 10  1  0  0  0  0
 16 36  1  0  0  0  0
 16 37  1  0  0  0  0
 17  9  1  0  0  0  0
 17 38  1  0  0  0  0
 17 39  1  0  0  0  0
 18  9  1  0  0  0  0
 18 40  1  0  0  0  0
 18 41  1  0  0  0  0
 19 17  1  0  0  0  0
 19 42  1  0  0  0  0
 19 43  1  0  0  0  0
 20 15  1  0  0  0  0
 20 44  1  0  0  0  0
 20 45  1  0  0  0  0
 21 20  1  0  0  0  0
 21 46  1  0  0  0  0
 21 47  1  0  0  0  0
 22  5  1  0  0  0  0
 22 48  1  0  0  0  0
 23 10  1  0  0  0  0
 23 49  1  0  0  0  0
 23 50  1  0  0  0  0
 24  6  1  0  0  0  0
 24 51  1  0  0  0  0
 25 27  1  0  0  0  0
 25 52  1  0  0  0  0
 26 11  1  0  0  0  0
 26 53  1  0  0  0  0
 26 54  1  0  0  0  0
 27 23  1  0  0  0  0
 27 55  1  0  0  0  0
 27 56  1  0  0  0  0
 28 26  1  0  0  0  0
 28 57  1  0  0  0  0
 28 58  1  0  0  0  0
 28 59  1  0  0  0  0
 29 22  2  0  0  0  0
 29 30  1  0  0  0  0
 29 60  1  0  0  0  0
 30 24  2  0  0  0  0
 30 61  1  0  0  0  0
M  END
>  <DRUGBANK_ID>
DB01038

>  <SECONDARY_ACCESSION_NUMBERS>
APRD00848

>  <COMMON_NAME>
Carphenazine

>  <CAS_NUMBER>
2622-30-2

>  <UNII>
CLY16Y8Z7E

>  <SYNONYMS>
Carfenazina; CarfÃ©nazine; Carfenazine; Carfenazinum; Carphenazine

$$$$
