
 OpenBabel10282417193D

 40 43  0  0  1  0  0  0  0  0999 V2000
   -3.3185   -8.9099    1.0107 C   0  0  0  0  0  0  0  0  0  0  0  0
   -4.0337   -9.8863    0.2205 N   0  0  0  0  0  0  0  0  0  0  0  0
   -4.4074   -9.8240   -1.0958 C   0  0  0  0  0  0  0  0  0  0  0  0
   -5.1406  -10.6955   -1.5690 O   0  0  0  0  0  0  0  0  0  0  0  0
   -3.9470   -8.7121   -1.9584 C   0  0  0  0  0  0  0  0  0  0  0  0
   -2.6291   -8.2424   -1.9169 C   0  0  0  0  0  0  0  0  0  0  0  0
   -2.2153   -7.2066   -2.7508 C   0  0  0  0  0  0  0  0  0  0  0  0
   -3.0832   -6.7012   -3.7171 C   0  0  0  0  0  0  0  0  0  0  0  0
   -2.6400   -5.7488   -4.6473 C   0  0  0  0  0  0  0  0  0  0  0  0
   -3.4908   -5.2872   -5.6586 C   0  0  0  0  0  0  0  0  0  0  0  0
   -4.8044   -5.7938   -5.6860 C   0  0  0  0  0  0  0  0  0  0  0  0
   -5.2716   -6.7060   -4.7489 C   0  0  0  0  0  0  0  0  0  0  0  0
   -4.4122   -7.1891   -3.7732 C   0  0  0  0  0  0  0  0  0  0  0  0
   -4.8443   -8.1734   -2.8797 C   0  0  0  0  0  0  0  0  0  0  0  0
   -3.0062   -4.2412   -6.6500 C   0  0  1  0  0  0  0  0  0  0  0  0
   -1.8243   -4.6907   -7.5719 C   0  0  0  0  0  0  0  0  0  0  0  0
   -2.3144   -4.5659   -9.0327 C   0  0  0  0  0  0  0  0  0  0  0  0
   -3.6575   -4.0609   -8.9006 N   0  0  0  0  0  0  0  0  0  0  0  0
   -4.0356   -3.8274   -7.6213 C   0  0  0  0  0  0  0  0  0  0  0  0
   -5.3333   -3.3973   -7.7029 C   0  0  0  0  0  0  0  0  0  0  0  0
   -5.7464   -3.4312   -9.0179 N   0  0  0  0  0  0  0  0  0  0  0  0
   -4.6990   -3.8314   -9.7181 C   0  0  0  0  0  0  0  0  0  0  0  0
   -2.6093   -3.0659   -5.9583 O   0  0  0  0  0  0  0  0  0  0  0  0
   -3.0916   -8.0020    0.4569 H   0  0  0  0  0  0  0  0  0  0  0  0
   -2.3925   -9.3762    1.3553 H   0  0  0  0  0  0  0  0  0  0  0  0
   -3.9359   -8.6242    1.8627 H   0  0  0  0  0  0  0  0  0  0  0  0
   -4.4062  -10.6989    0.6994 H   0  0  0  0  0  0  0  0  0  0  0  0
   -1.9042   -8.6783   -1.2375 H   0  0  0  0  0  0  0  0  0  0  0  0
   -1.2004   -6.8282   -2.6619 H   0  0  0  0  0  0  0  0  0  0  0  0
   -1.6163   -5.3787   -4.5981 H   0  0  0  0  0  0  0  0  0  0  0  0
   -5.5183   -5.5015   -6.4484 H   0  0  0  0  0  0  0  0  0  0  0  0
   -6.3028   -7.0439   -4.8228 H   0  0  0  0  0  0  0  0  0  0  0  0
   -5.8658   -8.5495   -2.9220 H   0  0  0  0  0  0  0  0  0  0  0  0
   -0.9418   -4.0508   -7.4336 H   0  0  0  0  0  0  0  0  0  0  0  0
   -1.4951   -5.7185   -7.3776 H   0  0  0  0  0  0  0  0  0  0  0  0
   -1.7331   -3.8332   -9.5990 H   0  0  0  0  0  0  0  0  0  0  0  0
   -2.3358   -5.5317   -9.5436 H   0  0  0  0  0  0  0  0  0  0  0  0
   -6.0198   -3.1728   -6.8957 H   0  0  0  0  0  0  0  0  0  0  0  0
   -4.6781   -3.9630  -10.7906 H   0  0  0  0  0  0  0  0  0  0  0  0
   -3.2640   -2.9309   -5.2529 H   0  0  0  0  0  0  0  0  0  0  0  0
  1  2  1  0  0  0  0
  1 24  1  0  0  0  0
  1 25  1  0  0  0  0
  1 26  1  0  0  0  0
  2  3  1  0  0  0  0
  2 27  1  0  0  0  0
  3  4  2  0  0  0  0
  3  5  1  0  0  0  0
  5  6  2  0  0  0  0
  5 14  1  0  0  0  0
  6  7  1  0  0  0  0
  6 28  1  0  0  0  0
  7  8  2  0  0  0  0
  7 29  1  0  0  0  0
  8  9  1  0  0  0  0
  8 13  1  0  0  0  0
  9 10  2  0  0  0  0
  9 30  1  0  0  0  0
 10 11  1  0  0  0  0
 11 12  2  0  0  0  0
 11 31  1  0  0  0  0
 12 13  1  0  0  0  0
 12 32  1  0  0  0  0
 13 14  2  0  0  0  0
 14 33  1  0  0  0  0
 15 16  1  0  0  0  0
 15 19  1  0  0  0  0
 15 23  1  1  0  0  0
 15 10  1  0  0  0  0
 16 17  1  0  0  0  0
 16 34  1  0  0  0  0
 16 35  1  0  0  0  0
 17 18  1  0  0  0  0
 17 36  1  0  0  0  0
 17 37  1  0  0  0  0
 18 19  1  0  0  0  0
 18 22  1  0  0  0  0
 19 20  2  0  0  0  0
 20 21  1  0  0  0  0
 20 38  1  0  0  0  0
 21 22  2  0  0  0  0
 22 39  1  0  0  0  0
 23 40  1  0  0  0  0
M  END
>  <DRUGBANK_ID>
DB12066

>  <COMMON_NAME>
Orteronel

>  <CAS_NUMBER>
566939-85-3

>  <UNII>
UE5K2FNS92

>  <SYNONYMS>
Orteronel

$$$$
