
 OpenBabel10282417153D

 72 73  0  0  1  0  0  0  0  0999 V2000
   -1.1554    4.0723    3.2929 S   0  0  0  0  0  0  0  0  0  0  0  0
    2.6434    0.5176    4.4724 O   0  0  0  0  0  0  0  0  0  0  0  0
   -2.3319   -1.5759    1.3296 O   0  0  0  0  0  0  0  0  0  0  0  0
   -2.2482   -3.7047    5.8069 O   0  0  0  0  0  0  0  0  0  0  0  0
    0.2696    2.0439    6.4151 O   0  0  0  0  0  0  0  0  0  0  0  0
   -1.7258   -2.7644    7.8967 O   0  0  0  0  0  0  0  0  0  0  0  0
    0.6734    0.4014    7.4116 O   0  0  0  0  0  0  0  0  0  0  0  0
   -0.6060   -0.1293    1.9314 N   0  0  0  0  0  0  0  0  0  0  0  0
    0.7355   -0.9296    5.9172 N   0  0  0  0  0  0  0  0  0  0  0  0
    1.4224   -1.5009    4.0605 N   0  0  0  0  0  0  0  0  0  0  0  0
    0.2015    0.8303    2.9305 C   0  0  1  0  0  0  0  0  0  0  0  0
   -0.4941   -1.9258    4.1809 C   0  0  0  0  0  0  0  0  0  0  0  0
   -1.8550   -1.3469    3.5665 C   0  0  0  0  0  0  0  0  0  0  0  0
   -1.2097    1.9079    3.3252 C   0  0  0  0  0  0  0  0  0  0  0  0
    1.3853    0.3396    4.6325 C   0  0  0  0  0  0  0  0  0  0  0  0
   -1.2429   -1.3146    6.1776 C   0  0  2  0  0  0  0  0  0  0  0  0
   -0.1416   -0.5060    4.6089 C   0  0  1  0  0  0  0  0  0  0  0  0
   -1.6550   -1.0106    2.1687 C   0  0  0  0  0  0  0  0  0  0  0  0
   -2.5731   -0.0447    5.9885 C   0  0  0  0  0  0  0  0  0  0  0  0
   -1.8126   -2.6507    6.6847 C   0  0  0  0  0  0  0  0  0  0  0  0
    0.1713    0.7217    6.2695 C   0  0  0  0  0  0  0  0  0  0  0  0
    0.7292    4.5720    4.3556 C   0  0  0  0  0  0  0  0  0  0  0  0
   -2.2773    0.7347    7.0391 C   0  0  0  0  0  0  0  0  0  0  0  0
   -3.5765    0.5179    4.9139 C   0  0  0  0  0  0  0  0  0  0  0  0
    0.8481    5.9321    4.3258 C   0  0  0  0  0  0  0  0  0  0  0  0
   -2.6465    2.0568    6.9713 C   0  0  0  0  0  0  0  0  0  0  0  0
   -3.8470    1.8917    4.8306 C   0  0  0  0  0  0  0  0  0  0  0  0
   -3.4186    2.6275    5.9156 C   0  0  0  0  0  0  0  0  0  0  0  0
    0.0079    6.5290    5.2149 C   0  0  0  0  0  0  0  0  0  0  0  0
    1.8665    6.3311    3.4875 C   0  0  0  0  0  0  0  0  0  0  0  0
   -2.4380   -3.9728    4.2718 C   0  0  0  0  0  0  0  0  0  0  0  0
   -0.1713    2.6990    5.3750 C   0  0  0  0  0  0  0  0  0  0  0  0
    0.1322    7.8473    5.1432 C   0  0  0  0  0  0  0  0  0  0  0  0
    2.0535    7.6374    3.5544 C   0  0  0  0  0  0  0  0  0  0  0  0
    1.1231    8.3862    4.2936 C   0  0  0  0  0  0  0  0  0  0  0  0
   -3.6371   -3.2883    3.5933 C   0  0  0  0  0  0  0  0  0  0  0  0
    0.9602    2.5444    4.2164 C   0  0  0  0  0  0  0  0  0  0  0  0
   -0.6095    0.1656    0.9610 H   0  0  0  0  0  0  0  0  0  0  0  0
    1.2809   -1.8065    6.0224 H   0  0  0  0  0  0  0  0  0  0  0  0
    2.1451   -1.2317    4.8664 H   0  0  0  0  0  0  0  0  0  0  0  0
    2.0123   -1.0615    3.3400 H   0  0  0  0  0  0  0  0  0  0  0  0
    0.6101    1.4602    2.1135 H   0  0  0  0  0  0  0  0  0  0  0  0
   -0.2163   -2.5527    5.1953 H   0  0  0  0  0  0  0  0  0  0  0  0
    0.0074   -2.8076    3.7592 H   0  0  0  0  0  0  0  0  0  0  0  0
   -2.1278   -0.3007    3.7717 H   0  0  0  0  0  0  0  0  0  0  0  0
   -2.7646   -1.4502    4.1824 H   0  0  0  0  0  0  0  0  0  0  0  0
   -1.4277    1.5107    4.3205 H   0  0  0  0  0  0  0  0  0  0  0  0
   -2.1955    1.6152    2.9555 H   0  0  0  0  0  0  0  0  0  0  0  0
   -1.7461   -1.8707    5.3855 H   0  0  0  0  0  0  0  0  0  0  0  0
   -0.7340    0.0995    4.0468 H   0  0  0  0  0  0  0  0  0  0  0  0
    1.0387    4.2998    5.4329 H   0  0  0  0  0  0  0  0  0  0  0  0
    1.6070    4.2702    3.7674 H   0  0  0  0  0  0  0  0  0  0  0  0
   -1.5011    0.3380    7.6896 H   0  0  0  0  0  0  0  0  0  0  0  0
   -3.9029    0.0744    3.9385 H   0  0  0  0  0  0  0  0  0  0  0  0
   -2.0701    2.6986    7.6322 H   0  0  0  0  0  0  0  0  0  0  0  0
   -4.0647    2.4019    3.8613 H   0  0  0  0  0  0  0  0  0  0  0  0
   -3.5213    3.7041    5.8781 H   0  0  0  0  0  0  0  0  0  0  0  0
   -0.6950    5.9454    5.8134 H   0  0  0  0  0  0  0  0  0  0  0  0
    2.4435    5.6223    2.8765 H   0  0  0  0  0  0  0  0  0  0  0  0
   -1.5035   -3.8917    3.7013 H   0  0  0  0  0  0  0  0  0  0  0  0
   -2.6618   -5.0420    4.1856 H   0  0  0  0  0  0  0  0  0  0  0  0
   -1.2346    2.6555    5.2852 H   0  0  0  0  0  0  0  0  0  0  0  0
   -0.4473    3.6769    5.7927 H   0  0  0  0  0  0  0  0  0  0  0  0
   -0.5431    8.4191    5.7452 H   0  0  0  0  0  0  0  0  0  0  0  0
    2.8912    8.0363    3.0211 H   0  0  0  0  0  0  0  0  0  0  0  0
    1.1635    9.4469    4.1853 H   0  0  0  0  0  0  0  0  0  0  0  0
   -3.6352   -2.2730    3.2429 H   0  0  0  0  0  0  0  0  0  0  0  0
   -3.7600   -3.5990    2.5578 H   0  0  0  0  0  0  0  0  0  0  0  0
   -4.4563   -3.1863    4.2936 H   0  0  0  0  0  0  0  0  0  0  0  0
    1.5023    1.9047    3.5663 H   0  0  0  0  0  0  0  0  0  0  0  0
    0.7191    2.9829    3.2109 H   0  0  0  0  0  0  0  0  0  0  0  0
    1.9227    2.7307    4.6755 H   0  0  0  0  0  0  0  0  0  0  0  0
  1 14  1  0  0  0  0
  1 22  1  0  0  0  0
  2 15  2  0  0  0  0
  3 18  2  0  0  0  0
  4 20  1  0  0  0  0
  4 31  1  0  0  0  0
  5 21  1  0  0  0  0
  5 32  1  0  0  0  0
  6 20  2  0  0  0  0
  7 21  2  0  0  0  0
  8 18  1  0  0  0  0
  8 38  1  0  0  0  0
  9 15  1  0  0  0  0
  9 39  1  0  0  0  0
 10 40  1  0  0  0  0
 10 41  1  0  0  0  0
 11 15  1  0  0  0  0
 11 42  1  6  0  0  0
 11 14  1  0  0  0  0
 11  8  1  0  0  0  0
 12 13  1  0  0  0  0
 12 43  1  0  0  0  0
 12 44  1  0  0  0  0
 13 18  1  0  0  0  0
 13 45  1  0  0  0  0
 13 46  1  0  0  0  0
 14 47  1  0  0  0  0
 14 48  1  0  0  0  0
 16 20  1  0  0  0  0
 16 49  1  6  0  0  0
 16 19  1  0  0  0  0
 16  9  1  0  0  0  0
 17 21  1  0  0  0  0
 17 50  1  6  0  0  0
 17 12  1  0  0  0  0
 17 10  1  0  0  0  0
 19 23  2  0  0  0  0
 19 24  1  0  0  0  0
 22 25  1  0  0  0  0
 22 51  1  0  0  0  0
 22 52  1  0  0  0  0
 23 26  1  0  0  0  0
 23 53  1  0  0  0  0
 24 27  2  0  0  0  0
 24 54  1  0  0  0  0
 25 29  2  0  0  0  0
 25 30  1  0  0  0  0
 26 28  2  0  0  0  0
 26 55  1  0  0  0  0
 27 28  1  0  0  0  0
 27 56  1  0  0  0  0
 28 57  1  0  0  0  0
 29 33  1  0  0  0  0
 29 58  1  0  0  0  0
 30 34  2  0  0  0  0
 30 59  1  0  0  0  0
 31 36  1  0  0  0  0
 31 60  1  0  0  0  0
 31 61  1  0  0  0  0
 32 37  1  0  0  0  0
 32 62  1  0  0  0  0
 32 63  1  0  0  0  0
 33 35  2  0  0  0  0
 33 64  1  0  0  0  0
 34 35  1  0  0  0  0
 34 65  1  0  0  0  0
 35 66  1  0  0  0  0
 36 67  1  0  0  0  0
 36 68  1  0  0  0  0
 36 69  1  0  0  0  0
 37 70  1  0  0  0  0
 37 71  1  0  0  0  0
 37 72  1  0  0  0  0
M  END
>  <DRUGBANK_ID>
DB05460

>  <SECONDARY_ACCESSION_NUMBERS>
DB12215

>  <COMMON_NAME>
Ezatiostat

>  <CAS_NUMBER>
168682-53-9

>  <UNII>
057D10I8S8

>  <SYNONYMS>
Ezatiostat; gamma-Glutamyl-S-(benzyl)-cysteinyl-R(-)-phenylglycine diethyl ester

$$$$
