
 OpenBabel10282417113D

 40 41  0  0  0  0  0  0  0  0999 V2000
    1.1328    0.0897    0.1416 C   0  0  0  0  0  0  0  0  0  0  0  0
    0.2669    0.5724    1.2288 N   0  0  0  0  0  0  0  0  0  0  0  0
   -1.2919    0.5810    1.5779 C   0  0  0  0  0  0  0  0  0  0  0  0
   -0.5631   -1.3299   -0.8360 N   0  0  0  0  0  0  0  0  0  0  0  0
    0.6811   -0.7151   -1.1905 C   0  0  3  0  0  0  0  0  0  0  0  0
    2.3946    0.3200    0.2423 O   0  0  0  0  0  0  0  0  0  0  0  0
   -2.3181   -0.4999    1.4825 C   0  0  0  0  0  0  0  0  0  0  0  0
   -1.9093    1.8778    1.5778 C   0  0  0  0  0  0  0  0  0  0  0  0
   -1.4895   -0.1401   -0.9861 C   0  0  0  0  0  0  0  0  0  0  0  0
   -0.0388   -2.2278    0.4176 C   0  0  0  0  0  0  0  0  0  0  0  0
   -4.2120    0.9351    1.2302 C   0  0  0  0  0  0  0  0  0  0  0  0
    1.3727   -1.9772   -1.7838 C   0  0  0  0  0  0  0  0  0  0  0  0
   -3.3373    2.0000    1.3705 C   0  0  0  0  0  0  0  0  0  0  0  0
   -3.7049   -0.3018    1.3419 C   0  0  0  0  0  0  0  0  0  0  0  0
   -2.2911   -1.9680    1.2253 C   0  0  0  0  0  0  0  0  0  0  0  0
   -1.1615    3.1926    1.5039 C   0  0  0  0  0  0  0  0  0  0  0  0
    0.4539   -3.5434   -0.1123 C   0  0  0  0  0  0  0  0  0  0  0  0
    1.6957   -3.0985   -0.7846 C   0  0  0  0  0  0  0  0  0  0  0  0
    0.8003    1.2518    1.7696 H   0  0  0  0  0  0  0  0  0  0  0  0
    0.5618   -0.0004   -2.0254 H   0  0  0  0  0  0  0  0  0  0  0  0
   -2.5541   -0.3163   -0.8342 H   0  0  0  0  0  0  0  0  0  0  0  0
   -1.1165    0.6878   -0.4205 H   0  0  0  0  0  0  0  0  0  0  0  0
   -1.4954    0.5131   -1.8808 H   0  0  0  0  0  0  0  0  0  0  0  0
    0.6296   -1.7479    1.1536 H   0  0  0  0  0  0  0  0  0  0  0  0
   -0.5952   -2.8324    1.1147 H   0  0  0  0  0  0  0  0  0  0  0  0
   -5.2475    0.9969    0.9233 H   0  0  0  0  0  0  0  0  0  0  0  0
    0.6645   -2.4198   -2.5198 H   0  0  0  0  0  0  0  0  0  0  0  0
    2.2666   -1.7068   -2.3267 H   0  0  0  0  0  0  0  0  0  0  0  0
   -3.7951    2.9694    1.2014 H   0  0  0  0  0  0  0  0  0  0  0  0
   -4.3432   -1.1451    1.0513 H   0  0  0  0  0  0  0  0  0  0  0  0
   -2.0829   -2.2328    0.1776 H   0  0  0  0  0  0  0  0  0  0  0  0
   -1.7544   -2.2990    2.1019 H   0  0  0  0  0  0  0  0  0  0  0  0
   -3.1644   -2.6172    1.1761 H   0  0  0  0  0  0  0  0  0  0  0  0
   -0.4629    3.2817    2.3359 H   0  0  0  0  0  0  0  0  0  0  0  0
   -0.6329    3.3169    0.5514 H   0  0  0  0  0  0  0  0  0  0  0  0
   -1.8597    4.0404    1.5799 H   0  0  0  0  0  0  0  0  0  0  0  0
   -0.3416   -3.9973   -0.7233 H   0  0  0  0  0  0  0  0  0  0  0  0
    0.6326   -4.2718    0.7058 H   0  0  0  0  0  0  0  0  0  0  0  0
    2.1551   -3.9723   -1.2322 H   0  0  0  0  0  0  0  0  0  0  0  0
    2.3461   -2.6913   -0.0022 H   0  0  0  0  0  0  0  0  0  0  0  0
  2  1  1  0  0  0  0
  2 19  1  0  0  0  0
  3  2  1  0  0  0  0
  4  5  1  0  0  0  0
  5  1  1  0  0  0  0
  5 20  1  0  0  0  0
  6  1  2  0  0  0  0
  7  3  2  0  0  0  0
  8  3  1  0  0  0  0
  9  4  1  0  0  0  0
  9 21  1  0  0  0  0
  9 22  1  0  0  0  0
  9 23  1  0  0  0  0
 10  4  1  0  0  0  0
 10 24  1  0  0  0  0
 10 25  1  0  0  0  0
 11 13  1  0  0  0  0
 11 26  1  0  0  0  0
 12  5  1  0  0  0  0
 12 27  1  0  0  0  0
 12 28  1  0  0  0  0
 13  8  2  0  0  0  0
 13 29  1  0  0  0  0
 14  7  1  0  0  0  0
 14 11  2  0  0  0  0
 14 30  1  0  0  0  0
 15  7  1  0  0  0  0
 15 31  1  0  0  0  0
 15 32  1  0  0  0  0
 15 33  1  0  0  0  0
 16  8  1  0  0  0  0
 16 34  1  0  0  0  0
 16 35  1  0  0  0  0
 16 36  1  0  0  0  0
 17 18  1  0  0  0  0
 17 10  1  0  0  0  0
 17 37  1  0  0  0  0
 17 38  1  0  0  0  0
 18 12  1  0  0  0  0
 18 39  1  0  0  0  0
 18 40  1  0  0  0  0
M  END
>  <DRUGBANK_ID>
DB00961

>  <SECONDARY_ACCESSION_NUMBERS>
APRD01094

>  <COMMON_NAME>
Mepivacaine

>  <CAS_NUMBER>
96-88-8

>  <UNII>
B6E06QE59J

>  <SYNONYMS>
(+-)-1-Methyl-2',6'-pipecoloxylidide; 1-methyl-2',6'-pipecoloxylidide; DL-Mepivacaine; Mepivacaina; Mepivacaine; Mepivacainum; N-(2,6-Dimethylphenyl)-1-methyl-2-piperidinecarboxamide; N-(2,6-Dimethylphenyl)-1-methylpiperidine-2-carboxamide

$$$$
