
 OpenBabel10282417123D

 29 30  0  0  1  0  0  0  0  0999 V2000
    1.0673   -0.0587   -0.0000 O   0  0  0  0  0  0  0  0  0  0  0  0
    0.5588   -1.3185    0.4470 C   0  0  0  0  0  0  0  0  0  0  0  0
    1.1113   -2.4435   -0.4344 C   0  0  1  0  0  0  0  0  0  0  0  0
    2.4621   -2.6976    0.0276 O   0  0  0  0  0  0  0  0  0  0  0  0
    2.5305   -4.0313    0.5682 C   0  0  2  0  0  0  0  0  0  0  0  0
    1.0998   -4.5663    0.6994 C   0  0  2  0  0  0  0  0  0  0  0  0
    1.0253   -5.9784    0.5242 O   0  0  0  0  0  0  0  0  0  0  0  0
    0.3542   -3.7737   -0.3593 C   0  0  2  0  0  0  0  0  0  0  0  0
    0.4214   -4.4732   -1.6127 O   0  0  0  0  0  0  0  0  0  0  0  0
    3.2599   -4.0154    1.8348 N   0  0  0  0  0  0  0  0  0  0  0  0
    2.8020   -3.2722    2.9101 C   0  0  0  0  0  0  0  0  0  0  0  0
    3.5157   -3.1371    4.0266 C   0  0  0  0  0  0  0  0  0  0  0  0
    3.1224   -2.3462    5.0404 F   0  0  0  0  0  0  0  0  0  0  0  0
    4.7796   -3.8741    4.1693 C   0  0  0  0  0  0  0  0  0  0  0  0
    5.5352   -3.7167    5.1253 O   0  0  0  0  0  0  0  0  0  0  0  0
    5.0455   -4.7543    3.1548 N   0  0  0  0  0  0  0  0  0  0  0  0
    4.4286   -4.7674    1.9254 C   0  0  0  0  0  0  0  0  0  0  0  0
    4.9168   -5.4055    0.9978 O   0  0  0  0  0  0  0  0  0  0  0  0
    2.0402   -0.1279   -0.0244 H   0  0  0  0  0  0  0  0  0  0  0  0
    0.8757   -1.4217    1.4865 H   0  0  0  0  0  0  0  0  0  0  0  0
   -0.5310   -1.2644    0.4121 H   0  0  0  0  0  0  0  0  0  0  0  0
    1.1814   -2.0934   -1.4713 H   0  0  0  0  0  0  0  0  0  0  0  0
    3.0771   -4.6268   -0.1719 H   0  0  0  0  0  0  0  0  0  0  0  0
    0.6728   -4.3420    1.6807 H   0  0  0  0  0  0  0  0  0  0  0  0
    1.2529   -6.1824   -0.4023 H   0  0  0  0  0  0  0  0  0  0  0  0
   -0.7070   -3.6472   -0.1234 H   0  0  0  0  0  0  0  0  0  0  0  0
    1.3468   -4.5338   -1.9057 H   0  0  0  0  0  0  0  0  0  0  0  0
    1.8448   -2.7764    2.8290 H   0  0  0  0  0  0  0  0  0  0  0  0
    5.8957   -5.2907    3.2325 H   0  0  0  0  0  0  0  0  0  0  0  0
  1  2  1  0  0  0  0
  1 19  1  0  0  0  0
  2 20  1  0  0  0  0
  2 21  1  0  0  0  0
  3  2  1  0  0  0  0
  3  4  1  0  0  0  0
  3  8  1  0  0  0  0
  3 22  1  6  0  0  0
  4  5  1  0  0  0  0
  5  6  1  0  0  0  0
  5 23  1  6  0  0  0
  5 10  1  0  0  0  0
  6  7  1  0  0  0  0
  6  8  1  0  0  0  0
  6 24  1  1  0  0  0
  7 25  1  0  0  0  0
  8  9  1  0  0  0  0
  8 26  1  1  0  0  0
  9 27  1  0  0  0  0
 10 11  1  0  0  0  0
 10 17  1  0  0  0  0
 11 12  2  0  0  0  0
 11 28  1  0  0  0  0
 12 13  1  0  0  0  0
 12 14  1  0  0  0  0
 14 15  2  0  0  0  0
 14 16  1  0  0  0  0
 16 17  1  0  0  0  0
 16 29  1  0  0  0  0
 17 18  2  0  0  0  0
M  END
>  <DRUGBANK_ID>
DB01629

>  <SECONDARY_ACCESSION_NUMBERS>
EXPT00263

>  <COMMON_NAME>
5-fluorouridine

>  <CAS_NUMBER>
316-46-1

>  <UNII>
4K0M952561

>  <SYNONYMS>
5-Fluoro-uridine; 5-Fluorouracil 1beta-D-ribofuranoside; 5-Fur

$$$$
