
 OpenBabel10282417193D

 30 32  0  0  0  0  0  0  0  0999 V2000
    1.0715   -0.0342    0.0364 C   0  0  0  0  0  0  0  0  0  0  0  0
    3.0822  -10.7138   -0.2730 C   0  0  0  0  0  0  0  0  0  0  0  0
    3.7363  -11.4737    0.6963 C   0  0  0  0  0  0  0  0  0  0  0  0
    3.3315   -9.3432   -0.3706 C   0  0  0  0  0  0  0  0  0  0  0  0
    0.7659   -6.0591    1.4354 C   0  0  0  0  0  0  0  0  0  0  0  0
    3.3674   -5.1677    0.7935 C   0  0  0  0  0  0  0  0  0  0  0  0
    4.6503  -10.8677    1.5657 C   0  0  0  0  0  0  0  0  0  0  0  0
    1.8123   -6.9802    1.2849 C   0  0  0  0  0  0  0  0  0  0  0  0
    1.0683   -4.7098    1.3158 C   0  0  0  0  0  0  0  0  0  0  0  0
    2.3334   -4.2315    1.0093 C   0  0  0  0  0  0  0  0  0  0  0  0
    4.1365   -8.7126    0.5889 C   0  0  0  0  0  0  0  0  0  0  0  0
    3.1054   -6.5620    0.9062 C   0  0  0  0  0  0  0  0  0  0  0  0
    4.8482   -9.4794    1.5261 C   0  0  0  0  0  0  0  0  0  0  0  0
    1.0905   -2.5055    1.2548 C   0  0  0  0  0  0  0  0  0  0  0  0
    5.4789  -11.8960    2.6837 Cl  0  0  0  0  0  0  0  0  0  0  0  0
    1.3158   -8.5830    1.7209 Cl  0  0  0  0  0  0  0  0  0  0  0  0
    5.9127   -8.6917    2.6447 Cl  0  0  0  0  0  0  0  0  0  0  0  0
    0.2975   -3.5915    1.4874 N   0  0  0  0  0  0  0  0  0  0  0  0
    2.3233   -2.8473    0.9654 N   0  0  0  0  0  0  0  0  0  0  0  0
    4.2266   -7.3386    0.6309 O   0  0  0  0  0  0  0  0  0  0  0  0
    0.4003   -0.9362    1.4472 S   0  0  0  0  0  0  0  0  0  0  0  0
    0.7141    1.0003    0.0819 H   0  0  0  0  0  0  0  0  0  0  0  0
    0.7205   -0.4668   -0.9048 H   0  0  0  0  0  0  0  0  0  0  0  0
    2.1636   -0.0176    0.0500 H   0  0  0  0  0  0  0  0  0  0  0  0
    2.3352  -11.1778   -0.9136 H   0  0  0  0  0  0  0  0  0  0  0  0
    3.5221  -12.5375    0.7775 H   0  0  0  0  0  0  0  0  0  0  0  0
    2.7913   -8.7523   -1.1062 H   0  0  0  0  0  0  0  0  0  0  0  0
   -0.2361   -6.3936    1.6813 H   0  0  0  0  0  0  0  0  0  0  0  0
    4.3646   -4.8023    0.5611 H   0  0  0  0  0  0  0  0  0  0  0  0
   -0.6716   -3.5641    1.7551 H   0  0  0  0  0  0  0  0  0  0  0  0
  1 22  1  0  0  0  0
  1 23  1  0  0  0  0
  1 24  1  0  0  0  0
  2 25  1  0  0  0  0
  3  2  2  0  0  0  0
  3 26  1  0  0  0  0
  4  2  1  0  0  0  0
  4 27  1  0  0  0  0
  5 28  1  0  0  0  0
  6 29  1  0  0  0  0
  7  3  1  0  0  0  0
  8  5  2  0  0  0  0
  9  5  1  0  0  0  0
 10  6  1  0  0  0  0
 10  9  2  0  0  0  0
 11  4  2  0  0  0  0
 12  6  2  0  0  0  0
 12  8  1  0  0  0  0
 13  7  2  0  0  0  0
 13 11  1  0  0  0  0
 15  7  1  0  0  0  0
 16  8  1  0  0  0  0
 17 13  1  0  0  0  0
 18  9  1  0  0  0  0
 18 14  1  0  0  0  0
 18 30  1  0  0  0  0
 19 10  1  0  0  0  0
 19 14  2  0  0  0  0
 20 11  1  0  0  0  0
 20 12  1  0  0  0  0
 21  1  1  0  0  0  0
 21 14  1  0  0  0  0
M  END
>  <DRUGBANK_ID>
DB12245

>  <COMMON_NAME>
Triclabendazole

>  <CAS_NUMBER>
68786-66-3

>  <UNII>
4784C8E03O

>  <SYNONYMS>
Triclabendazole

$$$$
