ABO
 OpenBabel10282417163D

 43 47  0  0  0  0  0  0  0  0999 V2000
    0.9365    0.0019    0.0791 C   0  0  0  0  0  0  0  0  0  0  0  0
    0.4203    0.2159   -1.2322 O   0  0  0  0  0  0  0  0  0  0  0  0
    0.1078   -0.8817   -1.9899 C   0  0  0  0  0  0  0  0  0  0  0  0
    0.1381   -2.2103   -1.5619 C   0  0  0  0  0  0  0  0  0  0  0  0
   -0.3018   -0.6146   -3.3025 C   0  0  0  0  0  0  0  0  0  0  0  0
   -0.3596    0.6681   -3.7772 O   0  0  0  0  0  0  0  0  0  0  0  0
   -0.6665   -1.6352   -4.1717 C   0  0  0  0  0  0  0  0  0  0  0  0
   -0.6379   -2.9557   -3.7275 C   0  0  0  0  0  0  0  0  0  0  0  0
   -0.2466   -3.2610   -2.4155 C   0  0  0  0  0  0  0  0  0  0  0  0
   -0.2494   -4.6502   -1.9356 C   0  0  0  0  0  0  0  0  0  0  0  0
    0.5511   -5.6168   -2.5710 C   0  0  0  0  0  0  0  0  0  0  0  0
   -1.0467   -5.0243   -0.8396 C   0  0  0  0  0  0  0  0  0  0  0  0
   -1.0825   -6.3446   -0.3711 C   0  0  0  0  0  0  0  0  0  0  0  0
   -0.2949   -7.3130   -1.0175 C   0  0  0  0  0  0  0  0  0  0  0  0
    0.5071   -6.9271   -2.0840 C   0  0  0  0  0  0  0  0  0  0  0  0
    1.1798   -8.0594   -2.4586 N   0  0  0  0  0  0  0  0  0  0  0  0
    0.9088   -9.1367   -1.7038 N   0  0  0  0  0  0  0  0  0  0  0  0
   -0.0020   -8.6906   -0.8305 C   0  0  0  0  0  0  0  0  0  0  0  0
   -0.5780   -9.5360    0.2534 C   0  0  0  0  0  0  0  0  0  0  0  0
   -1.9197   -9.7392    0.4410 N   0  0  0  0  0  0  0  0  0  0  0  0
   -2.0962  -10.4412    1.6039 C   0  0  0  0  0  0  0  0  0  0  0  0
   -3.2306  -10.9090    2.2701 C   0  0  0  0  0  0  0  0  0  0  0  0
   -3.0148  -11.5852    3.4776 C   0  0  0  0  0  0  0  0  0  0  0  0
   -1.7269  -11.7719    3.9875 C   0  0  0  0  0  0  0  0  0  0  0  0
   -0.6069  -11.2958    3.2961 C   0  0  0  0  0  0  0  0  0  0  0  0
   -0.8010  -10.6346    2.0760 C   0  0  0  0  0  0  0  0  0  0  0  0
    0.1243  -10.1092    1.2129 N   0  0  0  0  0  0  0  0  0  0  0  0
    0.5299   -0.8731    0.5911 H   0  0  0  0  0  0  0  0  0  0  0  0
    0.6549    0.8633    0.6916 H   0  0  0  0  0  0  0  0  0  0  0  0
    2.0289   -0.0529    0.0415 H   0  0  0  0  0  0  0  0  0  0  0  0
    0.4558   -2.4801   -0.5613 H   0  0  0  0  0  0  0  0  0  0  0  0
   -0.0809    1.2355   -3.0340 H   0  0  0  0  0  0  0  0  0  0  0  0
   -0.9807   -1.4037   -5.1849 H   0  0  0  0  0  0  0  0  0  0  0  0
   -0.9386   -3.7499   -4.4072 H   0  0  0  0  0  0  0  0  0  0  0  0
    1.2011   -5.3465   -3.3985 H   0  0  0  0  0  0  0  0  0  0  0  0
   -1.6580   -4.2789   -0.3321 H   0  0  0  0  0  0  0  0  0  0  0  0
   -1.6853   -6.5999    0.4960 H   0  0  0  0  0  0  0  0  0  0  0  0
    1.8533   -8.1563   -3.2097 H   0  0  0  0  0  0  0  0  0  0  0  0
   -2.6482   -9.4494   -0.1999 H   0  0  0  0  0  0  0  0  0  0  0  0
   -4.2322  -10.7624    1.8800 H   0  0  0  0  0  0  0  0  0  0  0  0
   -3.8669  -11.9727    4.0328 H   0  0  0  0  0  0  0  0  0  0  0  0
   -1.5875  -12.2981    4.9286 H   0  0  0  0  0  0  0  0  0  0  0  0
    0.3963  -11.4303    3.6843 H   0  0  0  0  0  0  0  0  0  0  0  0
  1  2  1  0  0  0  0
  1 28  1  0  0  0  0
  1 29  1  0  0  0  0
  1 30  1  0  0  0  0
  2  3  1  0  0  0  0
  3  4  2  0  0  0  0
  3  5  1  0  0  0  0
  4  9  1  0  0  0  0
  4 31  1  0  0  0  0
  5  6  1  0  0  0  0
  5  7  2  0  0  0  0
  6 32  1  0  0  0  0
  7  8  1  0  0  0  0
  7 33  1  0  0  0  0
  8  9  2  0  0  0  0
  8 34  1  0  0  0  0
  9 10  1  0  0  0  0
 10 11  2  0  0  0  0
 10 12  1  0  0  0  0
 11 15  1  0  0  0  0
 11 35  1  0  0  0  0
 12 13  2  0  0  0  0
 12 36  1  0  0  0  0
 13 14  1  0  0  0  0
 13 37  1  0  0  0  0
 14 15  2  0  0  0  0
 14 18  1  0  0  0  0
 15 16  1  0  0  0  0
 16 17  1  0  0  0  0
 16 38  1  0  0  0  0
 17 18  2  0  0  0  0
 18 19  1  0  0  0  0
 19 20  1  0  0  0  0
 19 27  2  0  0  0  0
 20 21  1  0  0  0  0
 20 39  1  0  0  0  0
 21 22  2  0  0  0  0
 21 26  1  0  0  0  0
 22 23  1  0  0  0  0
 22 40  1  0  0  0  0
 23 24  2  0  0  0  0
 23 41  1  0  0  0  0
 24 25  1  0  0  0  0
 24 42  1  0  0  0  0
 25 26  2  0  0  0  0
 25 43  1  0  0  0  0
 26 27  1  0  0  0  0
M  END
>  <DRUGBANK_ID>
DB07336

>  <COMMON_NAME>
4-[3-(1H-BENZIMIDAZOL-2-YL)-1H-INDAZOL-6-YL]-2-METHOXYPHENOL

$$$$
