
 OpenBabel10282417173D

 51 52  0  0  0  0  0  0  0  0999 V2000
    3.2461    2.7505   -1.9416 C   0  0  0  0  0  0  0  0  0  0  0  0
    4.1315    2.9470   -0.8655 N   0  0  0  0  0  0  0  0  0  0  0  0
    2.8478    3.7264   -2.6002 O   0  0  0  0  0  0  0  0  0  0  0  0
    4.8636    4.1814   -0.8664 N   0  0  0  0  0  0  0  0  0  0  0  0
    4.9009    1.8915   -0.2259 C   0  0  0  0  0  0  0  0  0  0  0  0
    4.1465    1.0858    0.9134 C   0  0  0  0  0  0  0  0  0  0  0  0
    4.1585   -0.2781    1.0444 O   0  0  0  0  0  0  0  0  0  0  0  0
    3.4283    1.6736    1.7456 O   0  0  0  0  0  0  0  0  0  0  0  0
    2.7284    1.3844   -2.3914 C   0  0  0  0  0  0  0  0  0  0  0  0
    3.1611    0.0908   -1.7552 C   0  0  2  0  0  0  0  0  0  0  0  0
    2.3050    0.1447   -0.6034 O   0  0  0  0  0  0  0  0  0  0  0  0
    4.7384   -0.4390   -1.6764 C   0  0  0  0  0  0  0  0  0  0  0  0
    5.3379   -1.3228   -2.4988 N   0  0  0  0  0  0  0  0  0  0  0  0
    5.4730   -0.2870   -0.6889 O   0  0  0  0  0  0  0  0  0  0  0  0
    6.8636   -1.3944   -2.2949 C   0  0  0  0  0  0  0  0  0  0  0  0
    4.5067   -2.4983   -2.7843 C   0  0  0  0  0  0  0  0  0  0  0  0
    3.7805   -3.1730   -1.5974 C   0  0  0  0  0  0  0  0  0  0  0  0
    3.8967   -4.5274   -1.3603 C   0  0  0  0  0  0  0  0  0  0  0  0
    3.2757   -5.1280   -0.2435 C   0  0  0  0  0  0  0  0  0  0  0  0
    2.6157   -4.3745    0.7289 C   0  0  0  0  0  0  0  0  0  0  0  0
    2.4688   -3.0364    0.5151 C   0  0  0  0  0  0  0  0  0  0  0  0
    2.8566   -2.5714   -0.7370 C   0  0  0  0  0  0  0  0  0  0  0  0
    7.3393   -2.4654   -1.3346 C   0  0  0  0  0  0  0  0  0  0  0  0
    7.7493   -2.2370   -0.0040 C   0  0  0  0  0  0  0  0  0  0  0  0
    7.9668   -3.3214    0.8566 C   0  0  0  0  0  0  0  0  0  0  0  0
    7.7389   -4.6201    0.4037 C   0  0  0  0  0  0  0  0  0  0  0  0
    7.3532   -4.8397   -0.9127 C   0  0  0  0  0  0  0  0  0  0  0  0
    7.2570   -3.7756   -1.7925 C   0  0  0  0  0  0  0  0  0  0  0  0
    5.7890    3.9921   -1.2636 H   0  0  0  0  0  0  0  0  0  0  0  0
    4.3975    4.8106   -1.5257 H   0  0  0  0  0  0  0  0  0  0  0  0
    2.7059   -0.6413   -2.4256 H   0  0  0  0  0  0  0  0  0  0  0  0
    5.2971    1.5208   -1.1725 H   0  0  0  0  0  0  0  0  0  0  0  0
    5.8333    2.2351    0.2312 H   0  0  0  0  0  0  0  0  0  0  0  0
    4.7341   -0.8143    0.4344 H   0  0  0  0  0  0  0  0  0  0  0  0
    1.6329    1.4618   -2.2090 H   0  0  0  0  0  0  0  0  0  0  0  0
    2.8064    1.2800   -3.4773 H   0  0  0  0  0  0  0  0  0  0  0  0
    2.6481   -0.3504    0.1688 H   0  0  0  0  0  0  0  0  0  0  0  0
    7.3262   -1.4872   -3.2798 H   0  0  0  0  0  0  0  0  0  0  0  0
    7.2598   -0.4281   -1.9186 H   0  0  0  0  0  0  0  0  0  0  0  0
    3.7822   -2.1572   -3.5245 H   0  0  0  0  0  0  0  0  0  0  0  0
    5.1536   -3.2146   -3.2831 H   0  0  0  0  0  0  0  0  0  0  0  0
    4.4272   -5.1431   -2.0757 H   0  0  0  0  0  0  0  0  0  0  0  0
    3.3182   -6.2029   -0.1281 H   0  0  0  0  0  0  0  0  0  0  0  0
    2.1400   -4.8211    1.5952 H   0  0  0  0  0  0  0  0  0  0  0  0
    1.9484   -2.3857    1.2190 H   0  0  0  0  0  0  0  0  0  0  0  0
    2.1770   -1.8224   -1.0963 H   0  0  0  0  0  0  0  0  0  0  0  0
    7.8792   -1.2304    0.3945 H   0  0  0  0  0  0  0  0  0  0  0  0
    8.2657   -3.1615    1.8916 H   0  0  0  0  0  0  0  0  0  0  0  0
    7.8603   -5.4685    1.0698 H   0  0  0  0  0  0  0  0  0  0  0  0
    7.0838   -5.8315   -1.2582 H   0  0  0  0  0  0  0  0  0  0  0  0
    7.0279   -3.9572   -2.8362 H   0  0  0  0  0  0  0  0  0  0  0  0
  1  2  1  0  0  0  0
  1  3  2  0  0  0  0
  1  9  1  0  0  0  0
  2  4  1  0  0  0  0
  5  2  1  0  0  0  0
  5  6  1  0  0  0  0
  5 32  1  0  0  0  0
  5 33  1  0  0  0  0
  6  7  1  0  0  0  0
  6  8  2  0  0  0  0
  7 34  1  0  0  0  0
  9 35  1  0  0  0  0
  9 36  1  0  0  0  0
 10 12  1  0  0  0  0
 10 31  1  6  0  0  0
 10 11  1  0  0  0  0
 10  9  1  0  0  0  0
 11 37  1  0  0  0  0
 12 13  1  0  0  0  0
 12 14  2  0  0  0  0
 15 13  1  0  0  0  0
 15 23  1  0  0  0  0
 15 38  1  0  0  0  0
 15 39  1  0  0  0  0
 16 13  1  0  0  0  0
 16 17  1  0  0  0  0
 16 40  1  0  0  0  0
 16 41  1  0  0  0  0
 17 18  2  0  0  0  0
 17 22  1  0  0  0  0
 18 19  1  0  0  0  0
 18 42  1  0  0  0  0
 19 20  2  0  0  0  0
 19 43  1  0  0  0  0
 20 21  1  0  0  0  0
 20 44  1  0  0  0  0
 21 22  2  0  0  0  0
 21 45  1  0  0  0  0
 22 46  1  0  0  0  0
 23 24  2  0  0  0  0
 23 28  1  0  0  0  0
 24 25  1  0  0  0  0
 24 47  1  0  0  0  0
 25 26  2  0  0  0  0
 25 48  1  0  0  0  0
 26 27  1  0  0  0  0
 26 49  1  0  0  0  0
 27 28  2  0  0  0  0
 27 50  1  0  0  0  0
 28 51  1  0  0  0  0
 29  4  1  0  0  0  0
 30  4  1  0  0  0  0
M  END
>  <DRUGBANK_ID>
DB08229

>  <COMMON_NAME>
[N-(3-dibenzylcarbamoyl-oxiranecarbonyl)-hydrazino]-acetic acid

$$$$
