HBY
 OpenBabel10282417163D

 42 43  0  0  0  0  0  0  0  0999 V2000
   -2.4242    0.7077   -0.3295 C   0  0  2  0  0  0  0  0  0  0  0  0
   -2.3027   -0.5858    0.4661 C   0  0  0  0  0  0  0  0  0  0  0  0
    0.0157   -0.6511   -0.0356 C   0  0  0  0  0  0  0  0  0  0  0  0
    0.0342    0.7641    0.0326 C   0  0  0  0  0  0  0  0  0  0  0  0
    1.2863    1.3891    0.0569 C   0  0  0  0  0  0  0  0  0  0  0  0
    2.4769    0.6546    0.0200 C   0  0  0  0  0  0  0  0  0  0  0  0
    2.4267   -0.7345   -0.0567 C   0  0  0  0  0  0  0  0  0  0  0  0
    1.1967   -1.3916   -0.0948 C   0  0  0  0  0  0  0  0  0  0  0  0
   -1.2857    2.8267    0.5066 C   0  0  0  0  0  0  0  0  0  0  0  0
   -2.6110    4.8139    0.9174 C   0  0  0  0  0  0  0  0  0  0  0  0
   -2.2258    5.0051    2.3895 C   0  0  0  0  0  0  0  0  0  0  0  0
   -1.8241    5.7702    0.0146 C   0  0  0  0  0  0  0  0  0  0  0  0
   -2.4160    0.3747   -1.8559 C   0  0  0  0  0  0  0  0  0  0  0  0
   -3.7707   -2.1800   -1.6946 C   0  0  0  0  0  0  0  0  0  0  0  0
    4.8524    0.7099    0.0187 C   0  0  0  0  0  0  0  0  0  0  0  0
   -1.2243    1.5002    0.0624 N   0  0  0  0  0  0  0  0  0  0  0  0
   -1.2110   -1.3421    0.0780 N   0  0  0  0  0  0  0  0  0  0  0  0
   -0.3064    3.4488    0.9227 O   0  0  0  0  0  0  0  0  0  0  0  0
   -2.5205    3.4198    0.4701 O   0  0  0  0  0  0  0  0  0  0  0  0
    3.6166    1.4118    0.0550 O   0  0  0  0  0  0  0  0  0  0  0  0
   -3.3265   -1.0413    1.7070 S   0  0  0  0  0  0  0  0  0  0  0  0
   -3.8640   -0.5630   -2.5310 S   0  0  0  0  0  0  0  0  0  0  0  0
   -3.3455    1.2443   -0.0832 H   0  0  0  0  0  0  0  0  0  0  0  0
    1.3869    2.4687    0.0825 H   0  0  0  0  0  0  0  0  0  0  0  0
    3.3307   -1.3328   -0.0757 H   0  0  0  0  0  0  0  0  0  0  0  0
    1.1835   -2.4769   -0.1316 H   0  0  0  0  0  0  0  0  0  0  0  0
   -3.6709    5.0887    0.8282 H   0  0  0  0  0  0  0  0  0  0  0  0
   -1.1859    4.7341    2.5870 H   0  0  0  0  0  0  0  0  0  0  0  0
   -2.3393    6.0508    2.6979 H   0  0  0  0  0  0  0  0  0  0  0  0
   -2.8451    4.3786    3.0372 H   0  0  0  0  0  0  0  0  0  0  0  0
   -2.1618    5.6881   -1.0223 H   0  0  0  0  0  0  0  0  0  0  0  0
   -1.9380    6.8105    0.3401 H   0  0  0  0  0  0  0  0  0  0  0  0
   -0.7531    5.5523    0.0176 H   0  0  0  0  0  0  0  0  0  0  0  0
   -2.3798    1.3202   -2.4109 H   0  0  0  0  0  0  0  0  0  0  0  0
   -1.5118   -0.1600   -2.1739 H   0  0  0  0  0  0  0  0  0  0  0  0
   -2.8153   -2.6907   -1.8464 H   0  0  0  0  0  0  0  0  0  0  0  0
   -3.9755   -2.0863   -0.6362 H   0  0  0  0  0  0  0  0  0  0  0  0
   -4.5739   -2.8269   -2.0565 H   0  0  0  0  0  0  0  0  0  0  0  0
    4.9598    0.0593    0.8930 H   0  0  0  0  0  0  0  0  0  0  0  0
    4.9525    0.1418   -0.9120 H   0  0  0  0  0  0  0  0  0  0  0  0
    5.6622    1.4448    0.0486 H   0  0  0  0  0  0  0  0  0  0  0  0
   -1.2081   -2.3494    0.1867 H   0  0  0  0  0  0  0  0  0  0  0  0
  1  2  1  0  0  0  0
  1 13  1  0  0  0  0
  1 16  1  0  0  0  0
  1 23  1  1  0  0  0
  2 17  1  0  0  0  0
  2 21  2  0  0  0  0
  3  4  2  0  0  0  0
  3  8  1  0  0  0  0
  3 17  1  0  0  0  0
  4  5  1  0  0  0  0
  4 16  1  0  0  0  0
  5  6  2  0  0  0  0
  5 24  1  0  0  0  0
  6  7  1  0  0  0  0
  6 20  1  0  0  0  0
  7  8  2  0  0  0  0
  7 25  1  0  0  0  0
  8 26  1  0  0  0  0
  9 16  1  0  0  0  0
  9 18  2  0  0  0  0
  9 19  1  0  0  0  0
 10 11  1  0  0  0  0
 10 12  1  0  0  0  0
 10 19  1  0  0  0  0
 10 27  1  0  0  0  0
 11 28  1  0  0  0  0
 11 29  1  0  0  0  0
 11 30  1  0  0  0  0
 12 31  1  0  0  0  0
 12 32  1  0  0  0  0
 12 33  1  0  0  0  0
 13 22  1  0  0  0  0
 13 34  1  0  0  0  0
 13 35  1  0  0  0  0
 14 22  1  0  0  0  0
 14 36  1  0  0  0  0
 14 37  1  0  0  0  0
 14 38  1  0  0  0  0
 15 20  1  0  0  0  0
 15 39  1  0  0  0  0
 15 40  1  0  0  0  0
 15 41  1  0  0  0  0
 17 42  1  0  0  0  0
M  END
>  <DRUGBANK_ID>
DB07885

>  <SECONDARY_ACCESSION_NUMBERS>
DB13079

>  <COMMON_NAME>
Talviraline

>  <CAS_NUMBER>
163451-80-7

>  <UNII>
XZ4KT6MO4X

>  <SYNONYMS>
Isopropyl (2S)-3,4-dihydro-7-methoxy-2-((methylthio)methyl)-3-thioxo-1(2H)-quinoxalinecarboxylate; Talviraline

$$$$
