DYY
 OpenBabel10282417163D

 48 51  0  0  0  0  0  0  0  0999 V2000
   -1.1411    0.7745    0.2864 C   0  0  0  0  0  0  0  0  0  0  0  0
   -0.0063    0.0765    0.0366 C   0  0  0  0  0  0  0  0  0  0  0  0
    1.1252    0.8012   -0.1313 O   0  0  0  0  0  0  0  0  0  0  0  0
    2.1975   -0.0250   -0.5460 C   0  0  0  0  0  0  0  0  0  0  0  0
    2.1776   -1.2424    0.3124 C   0  0  0  0  0  0  0  0  0  0  0  0
    1.0275   -2.0378   -0.0074 O   0  0  0  0  0  0  0  0  0  0  0  0
   -0.1070   -1.2684   -0.0170 C   0  0  0  0  0  0  0  0  0  0  0  0
   -1.3944   -1.8376   -0.0628 C   0  0  0  0  0  0  0  0  0  0  0  0
   -2.6167   -1.0855   -0.0335 C   0  0  0  0  0  0  0  0  0  0  0  0
   -2.5123    0.2685    0.1468 C   0  0  0  0  0  0  0  0  0  0  0  0
   -4.3033    1.5244    0.0229 S   0  0  0  0  0  0  0  0  0  0  0  0
   -5.0161    1.1313    1.2361 O   0  0  0  0  0  0  0  0  0  0  0  0
   -4.7960    1.3237   -1.3054 O   0  0  0  0  0  0  0  0  0  0  0  0
   -3.7417    3.2475    0.2505 N   0  0  0  0  0  0  0  0  0  0  0  0
   -3.6837    4.7269   -0.1776 C   0  0  0  0  0  0  0  0  0  0  0  0
   -2.7854    5.1252   -1.4526 C   0  0  0  0  0  0  0  0  0  0  0  0
   -2.3757    3.0471    0.0668 C   0  0  0  0  0  0  0  0  0  0  0  0
   -1.8658    3.0020   -1.3807 C   0  0  0  0  0  0  0  0  0  0  0  0
   -1.4363    4.3709   -1.5743 N   0  0  0  0  0  0  0  0  0  0  0  0
   -0.1227    4.9065   -0.4972 S   0  0  0  0  0  0  0  0  0  0  0  0
   -0.5549    4.7514    0.8875 O   0  0  0  0  0  0  0  0  0  0  0  0
    0.2682    6.2167   -0.9133 O   0  0  0  0  0  0  0  0  0  0  0  0
    1.2789    3.8485   -0.6643 C   0  0  0  0  0  0  0  0  0  0  0  0
    1.8900    3.6946   -1.8985 C   0  0  0  0  0  0  0  0  0  0  0  0
    1.3386    4.2048   -3.0026 F   0  0  0  0  0  0  0  0  0  0  0  0
    3.0768    2.9659   -2.0301 C   0  0  0  0  0  0  0  0  0  0  0  0
    3.7182    2.4688   -0.8985 C   0  0  0  0  0  0  0  0  0  0  0  0
    3.1136    2.6212    0.3600 C   0  0  0  0  0  0  0  0  0  0  0  0
    1.8770    3.2685    0.4599 C   0  0  0  0  0  0  0  0  0  0  0  0
    1.1934    3.0671    1.5994 F   0  0  0  0  0  0  0  0  0  0  0  0
   -0.7869    1.7787    0.5217 H   0  0  0  0  0  0  0  0  0  0  0  0
    3.1559    0.3916   -0.2741 H   0  0  0  0  0  0  0  0  0  0  0  0
    2.1764   -0.1075   -1.6366 H   0  0  0  0  0  0  0  0  0  0  0  0
    3.1060   -1.7828    0.1323 H   0  0  0  0  0  0  0  0  0  0  0  0
    2.1626   -0.9120    1.3684 H   0  0  0  0  0  0  0  0  0  0  0  0
   -1.4245   -2.9144   -0.1401 H   0  0  0  0  0  0  0  0  0  0  0  0
   -3.5824   -1.5607   -0.1095 H   0  0  0  0  0  0  0  0  0  0  0  0
   -4.5923    5.3141   -0.0765 H   0  0  0  0  0  0  0  0  0  0  0  0
   -3.0668    5.1681    0.6467 H   0  0  0  0  0  0  0  0  0  0  0  0
   -3.3836    4.8595   -2.3328 H   0  0  0  0  0  0  0  0  0  0  0  0
   -2.5539    6.1906   -1.4999 H   0  0  0  0  0  0  0  0  0  0  0  0
   -1.8653    3.3682    0.9523 H   0  0  0  0  0  0  0  0  0  0  0  0
   -2.4140    2.1230    0.4275 H   0  0  0  0  0  0  0  0  0  0  0  0
   -2.6495    2.7234   -2.1157 H   0  0  0  0  0  0  0  0  0  0  0  0
   -1.0568    2.3105   -1.6181 H   0  0  0  0  0  0  0  0  0  0  0  0
    3.4712    2.7422   -3.0187 H   0  0  0  0  0  0  0  0  0  0  0  0
    4.5486    1.7690   -1.0318 H   0  0  0  0  0  0  0  0  0  0  0  0
    3.4329    2.0051    1.2075 H   0  0  0  0  0  0  0  0  0  0  0  0
  1 10  1  0  0  0  0
  1 31  1  0  0  0  0
  2  1  2  0  0  0  0
  2  7  1  0  0  0  0
  3  2  1  0  0  0  0
  4  3  1  0  0  0  0
  4 32  1  0  0  0  0
  4 33  1  0  0  0  0
  5  4  1  0  0  0  0
  5  6  1  0  0  0  0
  5 34  1  0  0  0  0
  5 35  1  0  0  0  0
  6  7  1  0  0  0  0
  7  8  2  0  0  0  0
  8  9  1  0  0  0  0
  8 36  1  0  0  0  0
  9 37  1  0  0  0  0
 10  9  2  0  0  0  0
 10 11  1  0  0  0  0
 11 13  2  0  0  0  0
 12 11  2  0  0  0  0
 14 11  1  0  0  0  0
 14 15  1  0  0  0  0
 15 38  1  0  0  0  0
 15 39  1  0  0  0  0
 16 15  1  0  0  0  0
 16 40  1  0  0  0  0
 16 41  1  0  0  0  0
 17 14  1  0  0  0  0
 17 42  1  0  0  0  0
 17 43  1  0  0  0  0
 18 17  1  0  0  0  0
 18 19  1  0  0  0  0
 18 44  1  0  0  0  0
 18 45  1  0  0  0  0
 19 16  1  0  0  0  0
 20 19  1  0  0  0  0
 20 21  2  0  0  0  0
 20 23  1  0  0  0  0
 22 20  2  0  0  0  0
 23 29  1  0  0  0  0
 24 23  2  0  0  0  0
 24 26  1  0  0  0  0
 25 24  1  0  0  0  0
 26 27  2  0  0  0  0
 26 46  1  0  0  0  0
 27 28  1  0  0  0  0
 27 47  1  0  0  0  0
 28 48  1  0  0  0  0
 29 28  2  0  0  0  0
 29 30  1  0  0  0  0
M  END
>  <DRUGBANK_ID>
DB07692

>  <COMMON_NAME>
1-[(2,6-difluorophenyl)sulfonyl]-4-(2,3-dihydro-1,4-benzodioxin-6-ylsulfonyl)piperazine

$$$$
