XMJ
 OpenBabel10282417173D

 59 62  0  0  0  0  0  0  0  0999 V2000
    1.0415    0.0527    0.0082 C   0  0  0  0  0  0  0  0  0  0  0  0
    0.4205    0.9508   -0.7865 C   0  0  0  0  0  0  0  0  0  0  0  0
    0.6529   -1.3813    2.0622 C   0  0  0  0  0  0  0  0  0  0  0  0
    1.3095    2.0949   -1.7894 S   0  0  0  0  0  0  0  0  0  0  0  0
    0.3052   -0.9883    0.7584 C   0  0  0  0  0  0  0  0  0  0  0  0
   -1.7772   -4.5054    2.7302 Cl  0  0  0  0  0  0  0  0  0  0  0  0
    0.7086    2.1306   -3.1139 O   0  0  0  0  0  0  0  0  0  0  0  0
    3.2121    4.8940   -0.5989 C   0  0  0  0  0  0  0  0  0  0  0  0
    4.0455    5.7508   -0.9010 O   0  0  0  0  0  0  0  0  0  0  0  0
    1.9322    4.7194   -1.4537 C   0  0  0  0  0  0  0  0  0  0  0  0
    0.9666    3.6189   -1.0858 N   0  0  0  0  0  0  0  0  0  0  0  0
   -0.7089   -1.6990    0.0997 C   0  0  0  0  0  0  0  0  0  0  0  0
    2.3427    3.1160    0.8532 C   0  0  0  0  0  0  0  0  0  0  0  0
    0.9127    3.5419    0.3715 C   0  0  0  0  0  0  0  0  0  0  0  0
   -0.0038   -2.4609    2.6812 C   0  0  0  0  0  0  0  0  0  0  0  0
    3.2855    4.1903    0.6094 N   0  0  0  0  0  0  0  0  0  0  0  0
   -1.3607   -2.7717    0.7122 C   0  0  0  0  0  0  0  0  0  0  0  0
   -0.9998   -3.1565    1.9977 C   0  0  0  0  0  0  0  0  0  0  0  0
    2.7260    1.8792   -1.6640 O   0  0  0  0  0  0  0  0  0  0  0  0
    4.2827    4.5238    1.6331 C   0  0  0  0  0  0  0  0  0  0  0  0
   -2.7301    6.2641    2.8816 C   0  0  0  0  0  0  0  0  0  0  0  0
    0.8979    5.6350    3.0443 N   0  0  0  0  0  0  0  0  0  0  0  0
   -0.4445    5.7828    3.3029 C   0  0  0  0  0  0  0  0  0  0  0  0
   -1.4342    6.1387    2.3959 C   0  0  0  0  0  0  0  0  0  0  0  0
    1.3713    4.3017    3.3485 C   0  0  0  0  0  0  0  0  0  0  0  0
   -0.8106    5.5273    4.6249 C   0  0  0  0  0  0  0  0  0  0  0  0
    1.6770    6.4388    2.1088 C   0  0  0  0  0  0  0  0  0  0  0  0
    3.7366    5.1688    2.9467 C   0  0  0  0  0  0  0  0  0  0  0  0
    2.8156    4.2638    3.7924 C   0  0  0  0  0  0  0  0  0  0  0  0
   -3.0862    6.0656    4.1735 N   0  0  0  0  0  0  0  0  0  0  0  0
   -2.1089    5.7010    5.0191 C   0  0  0  0  0  0  0  0  0  0  0  0
    3.0750    6.5466    2.7123 C   0  0  0  0  0  0  0  0  0  0  0  0
    2.1263   -0.0066    0.0708 H   0  0  0  0  0  0  0  0  0  0  0  0
   -0.6564    1.0498   -0.8080 H   0  0  0  0  0  0  0  0  0  0  0  0
    1.4360   -0.8700    2.6182 H   0  0  0  0  0  0  0  0  0  0  0  0
    1.3871    5.6738   -1.3438 H   0  0  0  0  0  0  0  0  0  0  0  0
    2.2132    4.6362   -2.5034 H   0  0  0  0  0  0  0  0  0  0  0  0
   -0.9851   -1.4419   -0.9203 H   0  0  0  0  0  0  0  0  0  0  0  0
    2.4246    2.7547    1.8761 H   0  0  0  0  0  0  0  0  0  0  0  0
    2.7111    2.2077    0.4053 H   0  0  0  0  0  0  0  0  0  0  0  0
    0.5665    4.5360    0.6810 H   0  0  0  0  0  0  0  0  0  0  0  0
    0.1064    2.9002    0.7423 H   0  0  0  0  0  0  0  0  0  0  0  0
    0.2702   -2.7662    3.6896 H   0  0  0  0  0  0  0  0  0  0  0  0
   -2.1345   -3.3068    0.1687 H   0  0  0  0  0  0  0  0  0  0  0  0
    4.8440    3.6096    1.8623 H   0  0  0  0  0  0  0  0  0  0  0  0
    5.0090    5.2270    1.2060 H   0  0  0  0  0  0  0  0  0  0  0  0
   -3.5523    6.5417    2.2281 H   0  0  0  0  0  0  0  0  0  0  0  0
   -1.2417    6.2874    1.3388 H   0  0  0  0  0  0  0  0  0  0  0  0
    1.2491    3.8744    2.4081 H   0  0  0  0  0  0  0  0  0  0  0  0
    0.7245    3.5884    3.8798 H   0  0  0  0  0  0  0  0  0  0  0  0
   -0.0507    5.2246    5.3387 H   0  0  0  0  0  0  0  0  0  0  0  0
    1.2340    7.4244    1.9436 H   0  0  0  0  0  0  0  0  0  0  0  0
    1.7507    6.0093    1.1149 H   0  0  0  0  0  0  0  0  0  0  0  0
    4.6245    5.3434    3.5711 H   0  0  0  0  0  0  0  0  0  0  0  0
    3.2025    3.2358    3.7946 H   0  0  0  0  0  0  0  0  0  0  0  0
    2.8245    4.5915    4.8366 H   0  0  0  0  0  0  0  0  0  0  0  0
   -2.3721    5.5583    6.0593 H   0  0  0  0  0  0  0  0  0  0  0  0
    2.9644    7.0413    3.6858 H   0  0  0  0  0  0  0  0  0  0  0  0
    3.7191    7.1773    2.0937 H   0  0  0  0  0  0  0  0  0  0  0  0
  1  2  2  0  0  0  0
  1  5  1  0  0  0  0
  1 33  1  0  0  0  0
  2  4  1  0  0  0  0
  2 34  1  0  0  0  0
  3  5  2  0  0  0  0
  3 15  1  0  0  0  0
  3 35  1  0  0  0  0
  4  7  2  0  0  0  0
  4 11  1  0  0  0  0
  4 19  2  0  0  0  0
  5 12  1  0  0  0  0
  6 18  1  0  0  0  0
  8  9  2  0  0  0  0
  8 10  1  0  0  0  0
  8 16  1  0  0  0  0
 10 11  1  0  0  0  0
 10 36  1  0  0  0  0
 10 37  1  0  0  0  0
 11 14  1  0  0  0  0
 12 17  2  0  0  0  0
 12 38  1  0  0  0  0
 13 14  1  0  0  0  0
 13 16  1  0  0  0  0
 13 39  1  0  0  0  0
 13 40  1  0  0  0  0
 14 41  1  0  0  0  0
 14 42  1  0  0  0  0
 15 18  2  0  0  0  0
 15 43  1  0  0  0  0
 16 20  1  0  0  0  0
 17 18  1  0  0  0  0
 17 44  1  0  0  0  0
 20 28  1  0  0  0  0
 20 45  1  0  0  0  0
 20 46  1  0  0  0  0
 21 24  2  0  0  0  0
 21 30  1  0  0  0  0
 21 47  1  0  0  0  0
 22 23  1  0  0  0  0
 22 25  1  0  0  0  0
 22 27  1  0  0  0  0
 23 24  1  0  0  0  0
 23 26  2  0  0  0  0
 24 48  1  0  0  0  0
 25 29  1  0  0  0  0
 25 49  1  0  0  0  0
 25 50  1  0  0  0  0
 26 31  1  0  0  0  0
 26 51  1  0  0  0  0
 27 32  1  0  0  0  0
 27 52  1  0  0  0  0
 27 53  1  0  0  0  0
 28 29  1  0  0  0  0
 28 32  1  0  0  0  0
 28 54  1  0  0  0  0
 29 55  1  0  0  0  0
 29 56  1  0  0  0  0
 30 31  2  0  0  0  0
 31 57  1  0  0  0  0
 32 58  1  0  0  0  0
 32 59  1  0  0  0  0
M  END
>  <DRUGBANK_ID>
DB08745

>  <COMMON_NAME>
4-[[(1E)-2-(4-CHLOROPHENYL)ETHENYL]SULFONYL]-1-[[1-(4-PYRIDINYL)-4-PIPERIDINYL]METHYL]PIPERAZINONE

$$$$
