E04
 OpenBabel10282417163D

 62 66  0  0  0  0  0  0  0  0999 V2000
    1.0484   -0.0049    0.1420 O   0  0  0  0  0  0  0  0  0  0  0  0
    2.2797    0.0174    0.1484 C   0  0  0  0  0  0  0  0  0  0  0  0
    3.1162    1.2827    0.1530 C   0  0  0  0  0  0  0  0  0  0  0  0
    2.2239    2.5059   -0.0164 C   0  0  0  0  0  0  0  0  0  0  0  0
    3.8829    1.4445    1.4655 C   0  0  0  0  0  0  0  0  0  0  0  0
    4.0964    1.1651   -1.0049 C   0  0  0  0  0  0  0  0  0  0  0  0
    5.0642    0.0227   -0.7160 C   0  0  0  0  0  0  0  0  0  0  0  0
    4.4608   -1.1175    0.1499 C   0  0  1  0  0  0  0  0  0  0  0  0
    2.9985   -1.1223    0.1129 O   0  0  0  0  0  0  0  0  0  0  0  0
    5.0650   -1.5524    1.8597 C   0  0  2  0  0  0  0  0  0  0  0  0
    6.5878   -1.4767    2.3208 C   0  0  0  0  0  0  0  0  0  0  0  0
    4.8248   -2.9360    1.3736 C   0  0  1  0  0  0  0  0  0  0  0  0
    5.7614   -2.9909    0.1651 C   0  0  0  0  0  0  0  0  0  0  0  0
    4.8151   -2.4018   -0.7861 C   0  0  0  0  0  0  0  0  0  0  0  0
    4.8770   -4.1710    2.1394 C   0  0  1  0  0  0  0  0  0  0  0  0
    4.1253   -4.1061    3.4583 C   0  0  2  0  0  0  0  0  0  0  0  0
    4.5963   -2.8506    4.2021 C   0  0  0  0  0  0  0  0  0  0  0  0
    4.3275   -1.5388    3.3188 C   0  0  0  0  0  0  0  0  0  0  0  0
    4.3653   -5.4760    4.0673 C   0  0  0  0  0  0  0  0  0  0  0  0
    4.3701   -5.6694    5.4458 C   0  0  0  0  0  0  0  0  0  0  0  0
    4.6470   -6.9346    5.9678 C   0  0  0  0  0  0  0  0  0  0  0  0
    4.9153   -8.0199    5.1211 C   0  0  0  0  0  0  0  0  0  0  0  0
    5.2051   -9.3508    5.7200 C   0  0  0  0  0  0  0  0  0  0  0  0
    5.2115   -9.5200    6.9164 O   0  0  0  0  0  0  0  0  0  0  0  0
    5.4623  -10.3944    4.8590 N   0  0  0  0  0  0  0  0  0  0  0  0
    4.8925   -7.8376    3.7469 C   0  0  0  0  0  0  0  0  0  0  0  0
    4.5936   -6.5938    3.2130 C   0  0  0  0  0  0  0  0  0  0  0  0
    4.6305   -6.5207    1.7063 C   0  0  0  0  0  0  0  0  0  0  0  0
    4.1761   -5.1904    1.2301 C   0  0  0  0  0  0  0  0  0  0  0  0
    3.7375   -2.9239    1.1496 H   0  0  0  0  0  0  0  0  0  0  0  0
    5.9332   -4.4128    2.3010 H   0  0  0  0  0  0  0  0  0  0  0  0
    3.0394   -3.9935    3.3167 H   0  0  0  0  0  0  0  0  0  0  0  0
    1.5305    2.5809    0.8289 H   0  0  0  0  0  0  0  0  0  0  0  0
    2.8319    3.4153   -0.0379 H   0  0  0  0  0  0  0  0  0  0  0  0
    1.6302    2.4631   -0.9350 H   0  0  0  0  0  0  0  0  0  0  0  0
    4.6075    0.6613    1.6396 H   0  0  0  0  0  0  0  0  0  0  0  0
    4.4893    2.3517    1.4463 H   0  0  0  0  0  0  0  0  0  0  0  0
    3.2161    1.4251    2.3267 H   0  0  0  0  0  0  0  0  0  0  0  0
    3.5588    1.0092   -1.9572 H   0  0  0  0  0  0  0  0  0  0  0  0
    4.6824    2.0800   -1.1410 H   0  0  0  0  0  0  0  0  0  0  0  0
    5.3803   -0.3145   -1.7176 H   0  0  0  0  0  0  0  0  0  0  0  0
    5.9789    0.3683   -0.2406 H   0  0  0  0  0  0  0  0  0  0  0  0
    6.8667   -2.4273    2.8100 H   0  0  0  0  0  0  0  0  0  0  0  0
    7.3522   -1.3145    1.5642 H   0  0  0  0  0  0  0  0  0  0  0  0
    6.7626   -0.7263    3.1027 H   0  0  0  0  0  0  0  0  0  0  0  0
    6.2560   -3.9349   -0.0282 H   0  0  0  0  0  0  0  0  0  0  0  0
    6.5810   -2.2628    0.1558 H   0  0  0  0  0  0  0  0  0  0  0  0
    3.9770   -3.0849   -0.9941 H   0  0  0  0  0  0  0  0  0  0  0  0
    5.3284   -2.2374   -1.7385 H   0  0  0  0  0  0  0  0  0  0  0  0
    5.6595   -2.9649    4.4652 H   0  0  0  0  0  0  0  0  0  0  0  0
    4.0911   -2.7683    5.1754 H   0  0  0  0  0  0  0  0  0  0  0  0
    4.7423   -0.7258    3.9427 H   0  0  0  0  0  0  0  0  0  0  0  0
    3.2505   -1.3587    3.2801 H   0  0  0  0  0  0  0  0  0  0  0  0
    4.1709   -4.8475    6.1274 H   0  0  0  0  0  0  0  0  0  0  0  0
    4.6565   -7.0660    7.0465 H   0  0  0  0  0  0  0  0  0  0  0  0
    5.4702  -10.3426    3.8558 H   0  0  0  0  0  0  0  0  0  0  0  0
    5.6429  -11.2939    5.2804 H   0  0  0  0  0  0  0  0  0  0  0  0
    5.1085   -8.6328    3.0448 H   0  0  0  0  0  0  0  0  0  0  0  0
    4.0075   -7.2896    1.2451 H   0  0  0  0  0  0  0  0  0  0  0  0
    5.6662   -6.6538    1.3647 H   0  0  0  0  0  0  0  0  0  0  0  0
    3.0814   -5.0785    1.2725 H   0  0  0  0  0  0  0  0  0  0  0  0
    4.4323   -5.0832    0.1699 H   0  0  0  0  0  0  0  0  0  0  0  0
  1  2  2  0  0  0  0
  2  3  1  0  0  0  0
  2  9  1  0  0  0  0
  3  4  1  0  0  0  0
  3  5  1  0  0  0  0
  3  6  1  0  0  0  0
  4 33  1  0  0  0  0
  4 34  1  0  0  0  0
  4 35  1  0  0  0  0
  5 36  1  0  0  0  0
  5 37  1  0  0  0  0
  5 38  1  0  0  0  0
  6  7  1  0  0  0  0
  6 39  1  0  0  0  0
  6 40  1  0  0  0  0
  7  8  1  0  0  0  0
  7 41  1  0  0  0  0
  7 42  1  0  0  0  0
  8  9  1  6  0  0  0
  8 10  1  0  0  0  0
  8 14  1  0  0  0  0
 10 11  1  1  0  0  0
 10 12  1  0  0  0  0
 10 18  1  0  0  0  0
 11 43  1  0  0  0  0
 11 44  1  0  0  0  0
 11 45  1  0  0  0  0
 12 13  1  0  0  0  0
 12 15  1  0  0  0  0
 12 30  1  6  0  0  0
 13 14  1  0  0  0  0
 13 46  1  0  0  0  0
 13 47  1  0  0  0  0
 14 48  1  0  0  0  0
 14 49  1  0  0  0  0
 15 16  1  0  0  0  0
 15 29  1  0  0  0  0
 15 31  1  1  0  0  0
 16 17  1  0  0  0  0
 16 19  1  0  0  0  0
 16 32  1  6  0  0  0
 17 18  1  0  0  0  0
 17 50  1  0  0  0  0
 17 51  1  0  0  0  0
 18 52  1  0  0  0  0
 18 53  1  0  0  0  0
 19 20  2  0  0  0  0
 19 27  1  0  0  0  0
 20 21  1  0  0  0  0
 20 54  1  0  0  0  0
 21 22  2  0  0  0  0
 21 55  1  0  0  0  0
 22 23  1  0  0  0  0
 22 26  1  0  0  0  0
 23 24  2  0  0  0  0
 23 25  1  0  0  0  0
 25 56  1  0  0  0  0
 25 57  1  0  0  0  0
 26 27  2  0  0  0  0
 26 58  1  0  0  0  0
 27 28  1  0  0  0  0
 28 29  1  0  0  0  0
 28 59  1  0  0  0  0
 28 60  1  0  0  0  0
 29 61  1  0  0  0  0
 29 62  1  0  0  0  0
M  END
>  <DRUGBANK_ID>
DB07700

>  <COMMON_NAME>
3-carboxamido-1,3,5(10)-estratrien-17(R)-spiro-2'(5',5'-dimethyl-6'oxo)tetrahydropyran

$$$$
