
 OpenBabel10282417133D

 19 18  0  0  0  0  0  0  0  0999 V2000
    1.1978   -0.2408   -0.0672 C   0  0  0  0  0  0  0  0  0  0  0  0
    0.6941   -1.2007    1.0030 C   0  0  0  0  0  0  0  0  0  0  0  0
    1.0318   -0.7535    2.4256 C   0  0  0  0  0  0  0  0  0  0  0  0
    0.4543    0.6082    2.8385 C   0  0  0  0  0  0  0  0  0  0  0  0
   -1.3757    0.6082    2.8385 P   0  0  0  0  0  0  0  0  0  0  0  0
   -1.2296    2.0473    3.6223 O   0  0  0  0  0  0  0  0  0  0  0  0
   -1.2779    1.2072    1.3093 O   0  0  0  0  0  0  0  0  0  0  0  0
   -2.9241    0.6082    2.8385 O   0  0  0  0  0  0  0  0  0  0  0  0
    0.9221    0.7988    0.1258 H   0  0  0  0  0  0  0  0  0  0  0  0
    0.7796   -0.5098   -1.0418 H   0  0  0  0  0  0  0  0  0  0  0  0
    2.2883   -0.2786   -0.1337 H   0  0  0  0  0  0  0  0  0  0  0  0
   -0.3875   -1.3504    0.9087 H   0  0  0  0  0  0  0  0  0  0  0  0
    1.1399   -2.1863    0.8229 H   0  0  0  0  0  0  0  0  0  0  0  0
    0.6492   -1.5132    3.1196 H   0  0  0  0  0  0  0  0  0  0  0  0
    2.1206   -0.7331    2.5482 H   0  0  0  0  0  0  0  0  0  0  0  0
    0.7860    0.7836    3.8708 H   0  0  0  0  0  0  0  0  0  0  0  0
    0.8801    1.4227    2.2418 H   0  0  0  0  0  0  0  0  0  0  0  0
   -2.1079    2.4385    3.7846 H   0  0  0  0  0  0  0  0  0  0  0  0
   -1.1795    0.5231    0.6192 H   0  0  0  0  0  0  0  0  0  0  0  0
  1  2  1  0  0  0  0
  1  9  1  0  0  0  0
  1 10  1  0  0  0  0
  1 11  1  0  0  0  0
  2  3  1  0  0  0  0
  2 12  1  0  0  0  0
  2 13  1  0  0  0  0
  3  4  1  0  0  0  0
  3 14  1  0  0  0  0
  3 15  1  0  0  0  0
  4  5  1  0  0  0  0
  4 16  1  0  0  0  0
  4 17  1  0  0  0  0
  5  6  1  0  0  0  0
  5  7  1  0  0  0  0
  5  8  2  0  0  0  0
  6 18  1  0  0  0  0
  7 19  1  0  0  0  0
M  END
>  <DRUGBANK_ID>
DB03999

>  <SECONDARY_ACCESSION_NUMBERS>
EXPT00862

>  <COMMON_NAME>
Butylphosphonate

>  <UNII>
HKC30FCB7P

$$$$
