
 OpenBabel10282417163D

 65 64  0  0  0  0  0  0  0  0999 V2000
    0.4551    0.3988   -0.0279 O   0  0  0  0  0  0  0  0  0  0  0  0
    0.6765    1.0336   -1.4717 P   0  0  0  0  0  0  0  0  0  0  0  0
   -0.0984    3.1764   -5.4783 C   0  0  0  0  0  0  0  0  0  0  0  0
   -0.7030    2.3952   -6.6145 C   0  0  0  0  0  0  0  0  0  0  0  0
   -7.0656    1.2303   -2.8001 C   0  0  0  0  0  0  0  0  0  0  0  0
   -8.4249    0.5954   -3.0895 C   0  0  0  0  0  0  0  0  0  0  0  0
   -8.8071   -0.3531   -3.9728 C   0  0  0  0  0  0  0  0  0  0  0  0
  -10.1542   -0.7772   -4.5029 C   0  0  0  0  0  0  0  0  0  0  0  0
   -9.5844   -0.6234   -7.1058 C   0  0  0  0  0  0  0  0  0  0  0  0
  -10.4848   -0.2492   -5.9320 C   0  0  0  0  0  0  0  0  0  0  0  0
   -8.3474   -0.1322   -7.3120 C   0  0  0  0  0  0  0  0  0  0  0  0
   -7.5030    0.6880   -6.3939 C   0  0  0  0  0  0  0  0  0  0  0  0
   -6.3801   -0.1479   -5.7319 C   0  0  0  0  0  0  0  0  0  0  0  0
   -5.3002   -0.6275   -6.5836 C   0  0  0  0  0  0  0  0  0  0  0  0
   -4.0357   -0.2567   -6.2203 C   0  0  0  0  0  0  0  0  0  0  0  0
   -2.8927   -0.3647   -7.1291 C   0  0  0  0  0  0  0  0  0  0  0  0
   -2.5094    1.0238   -7.6742 C   0  0  0  0  0  0  0  0  0  0  0  0
   -1.9933    2.0029   -6.6322 C   0  0  0  0  0  0  0  0  0  0  0  0
    0.9410    2.4950   -4.8097 O   0  0  0  0  0  0  0  0  0  0  0  0
   -0.1871    1.1044   -2.8246 O   0  0  0  0  0  0  0  0  0  0  0  0
    0.8229    1.0518   -4.1204 P   0  0  3  0  0  0  0  0  0  0  0  0
   -9.4852    1.1155   -2.1934 C   0  0  0  0  0  0  0  0  0  0  0  0
  -10.1496   -1.5508   -8.1567 C   0  0  0  0  0  0  0  0  0  0  0  0
   -5.6195   -1.5595   -7.6759 C   0  0  0  0  0  0  0  0  0  0  0  0
   -2.9337    2.4938   -5.5596 C   0  0  0  0  0  0  0  0  0  0  0  0
    2.1648    0.4119   -3.8899 O   0  0  0  0  0  0  0  0  0  0  0  0
    1.8144    1.9855   -1.4121 O   0  0  0  0  0  0  0  0  0  0  0  0
    1.0709   -0.4871   -1.8151 O   0  0  0  0  0  0  0  0  0  0  0  0
    0.0601    0.2127   -5.2468 O   0  0  0  0  0  0  0  0  0  0  0  0
    1.3664    0.0182    0.1188 H   0  0  0  0  0  0  0  0  0  0  0  0
   -0.8202    3.4877   -4.7253 H   0  0  0  0  0  0  0  0  0  0  0  0
    0.3248    4.0883   -5.9116 H   0  0  0  0  0  0  0  0  0  0  0  0
   -0.0393    2.0708   -7.4140 H   0  0  0  0  0  0  0  0  0  0  0  0
   -7.1557    2.3256   -2.8705 H   0  0  0  0  0  0  0  0  0  0  0  0
   -6.7074    0.9669   -1.8043 H   0  0  0  0  0  0  0  0  0  0  0  0
   -6.2173    1.0162   -3.4300 H   0  0  0  0  0  0  0  0  0  0  0  0
   -8.1186   -0.9542   -4.5065 H   0  0  0  0  0  0  0  0  0  0  0  0
  -10.9476   -0.4705   -3.8184 H   0  0  0  0  0  0  0  0  0  0  0  0
  -10.1551   -1.8733   -4.5376 H   0  0  0  0  0  0  0  0  0  0  0  0
  -10.5584    0.8469   -5.9092 H   0  0  0  0  0  0  0  0  0  0  0  0
  -11.5017   -0.5914   -6.1720 H   0  0  0  0  0  0  0  0  0  0  0  0
   -7.8442   -0.3851   -8.2406 H   0  0  0  0  0  0  0  0  0  0  0  0
   -8.1399    1.1913   -5.6609 H   0  0  0  0  0  0  0  0  0  0  0  0
   -7.0542    1.5301   -6.9280 H   0  0  0  0  0  0  0  0  0  0  0  0
   -6.6279   -1.0681   -5.2003 H   0  0  0  0  0  0  0  0  0  0  0  0
   -5.9353    0.5187   -5.0162 H   0  0  0  0  0  0  0  0  0  0  0  0
   -3.9003    0.2368   -5.2704 H   0  0  0  0  0  0  0  0  0  0  0  0
   -3.1506   -0.9981   -7.9827 H   0  0  0  0  0  0  0  0  0  0  0  0
   -2.0761   -0.8537   -6.5940 H   0  0  0  0  0  0  0  0  0  0  0  0
   -3.3598    1.4792   -8.2017 H   0  0  0  0  0  0  0  0  0  0  0  0
   -1.7464    0.8408   -8.4399 H   0  0  0  0  0  0  0  0  0  0  0  0
  -10.2337    1.6588   -2.7697 H   0  0  0  0  0  0  0  0  0  0  0  0
   -9.9304    0.2521   -1.6893 H   0  0  0  0  0  0  0  0  0  0  0  0
   -9.0637    1.7656   -1.4247 H   0  0  0  0  0  0  0  0  0  0  0  0
  -10.5086   -2.4798   -7.7042 H   0  0  0  0  0  0  0  0  0  0  0  0
  -10.9679   -1.0710   -8.7004 H   0  0  0  0  0  0  0  0  0  0  0  0
   -9.3912   -1.8385   -8.8986 H   0  0  0  0  0  0  0  0  0  0  0  0
   -5.5937   -1.0271   -8.6270 H   0  0  0  0  0  0  0  0  0  0  0  0
   -4.9317   -2.4061   -7.6678 H   0  0  0  0  0  0  0  0  0  0  0  0
   -6.6091   -2.0075   -7.5253 H   0  0  0  0  0  0  0  0  0  0  0  0
   -2.6599    2.0443   -4.5957 H   0  0  0  0  0  0  0  0  0  0  0  0
   -2.8874    3.5827   -5.4691 H   0  0  0  0  0  0  0  0  0  0  0  0
   -3.9818    2.2748   -5.7676 H   0  0  0  0  0  0  0  0  0  0  0  0
    1.9618   -0.5866   -2.1782 H   0  0  0  0  0  0  0  0  0  0  0  0
    0.6170    0.2370   -6.0498 H   0  0  0  0  0  0  0  0  0  0  0  0
  1 30  1  0  0  0  0
  2  1  1  0  0  0  0
  2 27  2  0  0  0  0
  2 28  1  0  0  0  0
  3 19  1  0  0  0  0
  3 31  1  0  0  0  0
  3 32  1  0  0  0  0
  4  3  1  0  0  0  0
  4 33  1  0  0  0  0
  5  6  1  0  0  0  0
  5 34  1  0  0  0  0
  5 35  1  0  0  0  0
  5 36  1  0  0  0  0
  6  7  2  0  0  0  0
  7  8  1  0  0  0  0
  7 37  1  0  0  0  0
  8 10  1  0  0  0  0
  8 38  1  0  0  0  0
  8 39  1  0  0  0  0
  9 23  1  0  0  0  0
  9 10  1  0  0  0  0
  9 11  2  3  0  0  0
 10 40  1  0  0  0  0
 10 41  1  0  0  0  0
 11 12  1  0  0  0  0
 11 42  1  0  0  0  0
 12 13  1  0  0  0  0
 12 43  1  0  0  0  0
 12 44  1  0  0  0  0
 13 14  1  0  0  0  0
 13 45  1  0  0  0  0
 13 46  1  0  0  0  0
 14 24  1  0  0  0  0
 14 15  2  3  0  0  0
 15 16  1  0  0  0  0
 15 47  1  0  0  0  0
 16 17  1  0  0  0  0
 16 48  1  0  0  0  0
 16 49  1  0  0  0  0
 17 18  1  0  0  0  0
 17 50  1  0  0  0  0
 17 51  1  0  0  0  0
 18  4  2  3  0  0  0
 18 25  1  0  0  0  0
 19 21  1  0  0  0  0
 20  2  1  0  0  0  0
 21 20  1  0  0  0  0
 21 26  2  0  0  0  0
 21 29  1  0  0  0  0
 22  6  1  0  0  0  0
 22 52  1  0  0  0  0
 22 53  1  0  0  0  0
 22 54  1  0  0  0  0
 23 55  1  0  0  0  0
 23 56  1  0  0  0  0
 23 57  1  0  0  0  0
 24 58  1  0  0  0  0
 24 59  1  0  0  0  0
 24 60  1  0  0  0  0
 25 61  1  0  0  0  0
 25 62  1  0  0  0  0
 25 63  1  0  0  0  0
 28 64  1  0  0  0  0
 29 65  1  0  0  0  0
M  END
>  <DRUGBANK_ID>
DB07841

>  <COMMON_NAME>
Geranylgeranyl diphosphate

$$$$
