
 OpenBabel10282417123D

 18 17  0  0  0  0  0  0  0  0999 V2000
    0.9612    0.1831    0.0525 N   0  0  0  0  0  0  0  0  0  0  0  0
    0.5219   -0.1213   -1.3043 C   0  0  0  0  0  0  0  0  0  0  0  0
    0.9889   -1.5057   -1.7605 C   0  0  0  0  0  0  0  0  0  0  0  0
    0.4199   -2.6637   -0.9276 C   0  0  0  0  0  0  0  0  0  0  0  0
   -1.1099   -2.7225   -0.9036 C   0  0  0  0  0  0  0  0  0  0  0  0
   -1.6519   -2.9367   -2.2400 N   0  0  0  0  0  0  0  0  0  0  0  0
    0.5925   -0.5098    0.7029 H   0  0  0  0  0  0  0  0  0  0  0  0
    1.9757    0.0927    0.1034 H   0  0  0  0  0  0  0  0  0  0  0  0
   -0.5680   -0.0354   -1.3599 H   0  0  0  0  0  0  0  0  0  0  0  0
    0.9219    0.6395   -1.9824 H   0  0  0  0  0  0  0  0  0  0  0  0
    0.7180   -1.6403   -2.8147 H   0  0  0  0  0  0  0  0  0  0  0  0
    2.0849   -1.5514   -1.7299 H   0  0  0  0  0  0  0  0  0  0  0  0
    0.8168   -3.6094   -1.3176 H   0  0  0  0  0  0  0  0  0  0  0  0
    0.7875   -2.5918    0.1035 H   0  0  0  0  0  0  0  0  0  0  0  0
   -1.4298   -3.5416   -0.2524 H   0  0  0  0  0  0  0  0  0  0  0  0
   -1.5286   -1.8045   -0.4785 H   0  0  0  0  0  0  0  0  0  0  0  0
   -2.6717   -2.8946   -2.2018 H   0  0  0  0  0  0  0  0  0  0  0  0
   -1.3680   -2.1849   -2.8616 H   0  0  0  0  0  0  0  0  0  0  0  0
  1  2  1  0  0  0  0
  1  7  1  0  0  0  0
  1  8  1  0  0  0  0
  2  3  1  0  0  0  0
  2  9  1  0  0  0  0
  2 10  1  0  0  0  0
  3  4  1  0  0  0  0
  3 11  1  0  0  0  0
  3 12  1  0  0  0  0
  4  5  1  0  0  0  0
  4 13  1  0  0  0  0
  4 14  1  0  0  0  0
  5  6  1  0  0  0  0
  5 15  1  0  0  0  0
  5 16  1  0  0  0  0
  6 17  1  0  0  0  0
  6 18  1  0  0  0  0
M  END
>  <DRUGBANK_ID>
DB01917

>  <SECONDARY_ACCESSION_NUMBERS>
EXPT02702

>  <COMMON_NAME>
Putrescine

>  <CAS_NUMBER>
110-60-1

>  <UNII>
V10TVZ52E4

>  <SYNONYMS>
putrescina

$$$$
