
 OpenBabel10282417173D

 29 28  0  0  0  0  0  0  0  0999 V2000
    1.0616   -0.0454    0.0211 N   0  3  0  0  0  0  0  0  0  0  0  0
    0.4596   -1.5022   -0.0885 C   0  0  0  0  0  0  0  0  0  0  0  0
    0.4795    0.6341    1.2815 C   0  0  0  0  0  0  0  0  0  0  0  0
    0.5291    0.6614   -1.2879 C   0  0  0  0  0  0  0  0  0  0  0  0
    2.6057   -0.0892   -0.0367 C   0  0  0  0  0  0  0  0  0  0  0  0
    0.7286   -2.4425    1.0789 C   0  0  0  0  0  0  0  0  0  0  0  0
    0.9970    2.0305    1.5844 C   0  0  0  0  0  0  0  0  0  0  0  0
    0.9981    2.0895   -1.5326 C   0  0  0  0  0  0  0  0  0  0  0  0
    3.3010   -0.6840    1.1767 C   0  0  0  0  0  0  0  0  0  0  0  0
   -0.6250   -1.3761   -0.1940 H   0  0  0  0  0  0  0  0  0  0  0  0
    0.8486   -1.9396   -1.0148 H   0  0  0  0  0  0  0  0  0  0  0  0
   -0.6094    0.6363    1.1749 H   0  0  0  0  0  0  0  0  0  0  0  0
    0.7312    0.0030    2.1365 H   0  0  0  0  0  0  0  0  0  0  0  0
    0.8582    0.0359   -2.1269 H   0  0  0  0  0  0  0  0  0  0  0  0
   -0.5654    0.6324   -1.2436 H   0  0  0  0  0  0  0  0  0  0  0  0
    2.8808   -0.6293   -0.9475 H   0  0  0  0  0  0  0  0  0  0  0  0
    2.9563    0.9400   -0.1386 H   0  0  0  0  0  0  0  0  0  0  0  0
    0.5412   -2.0021    2.0583 H   0  0  0  0  0  0  0  0  0  0  0  0
    0.0779   -3.3204    0.9984 H   0  0  0  0  0  0  0  0  0  0  0  0
    1.7388   -2.8489    1.0557 H   0  0  0  0  0  0  0  0  0  0  0  0
    0.4750    2.7960    1.0100 H   0  0  0  0  0  0  0  0  0  0  0  0
    0.7816    2.2763    2.6297 H   0  0  0  0  0  0  0  0  0  0  0  0
    2.0719    2.1387    1.4399 H   0  0  0  0  0  0  0  0  0  0  0  0
    2.0709    2.2343   -1.4049 H   0  0  0  0  0  0  0  0  0  0  0  0
    0.7610    2.3806   -2.5620 H   0  0  0  0  0  0  0  0  0  0  0  0
    0.4630    2.8098   -0.9155 H   0  0  0  0  0  0  0  0  0  0  0  0
    3.3335   -1.7730    1.1392 H   0  0  0  0  0  0  0  0  0  0  0  0
    4.3523   -0.3772    1.1766 H   0  0  0  0  0  0  0  0  0  0  0  0
    2.8698   -0.3666    2.1262 H   0  0  0  0  0  0  0  0  0  0  0  0
  1  2  1  0  0  0  0
  1  3  1  0  0  0  0
  1  4  1  0  0  0  0
  1  5  1  0  0  0  0
  2  6  1  0  0  0  0
  2 10  1  0  0  0  0
  2 11  1  0  0  0  0
  3  7  1  0  0  0  0
  3 12  1  0  0  0  0
  3 13  1  0  0  0  0
  4  8  1  0  0  0  0
  4 14  1  0  0  0  0
  4 15  1  0  0  0  0
  5  9  1  0  0  0  0
  5 16  1  0  0  0  0
  5 17  1  0  0  0  0
  6 18  1  0  0  0  0
  6 19  1  0  0  0  0
  6 20  1  0  0  0  0
  7 21  1  0  0  0  0
  7 22  1  0  0  0  0
  7 23  1  0  0  0  0
  8 24  1  0  0  0  0
  8 25  1  0  0  0  0
  8 26  1  0  0  0  0
  9 27  1  0  0  0  0
  9 28  1  0  0  0  0
  9 29  1  0  0  0  0
M  CHG  1   1   1
M  END
>  <DRUGBANK_ID>
DB08837

>  <COMMON_NAME>
Tetraethylammonium

>  <CAS_NUMBER>
66-40-0

>  <UNII>
5AV7G7EIEE

$$$$
