
 OpenBabel10282417193D

 51 55  0  0  0  0  0  0  0  0999 V2000
    2.1747   -0.0485   -0.0666 C   0  0  0  0  0  0  0  0  0  0  0  0
    0.7345   -0.0114   -0.2089 N   0  0  0  0  0  0  0  0  0  0  0  0
   -0.0447   -1.1351   -0.0503 C   0  0  0  0  0  0  0  0  0  0  0  0
   -1.3420   -0.7033   -0.1564 C   0  0  0  0  0  0  0  0  0  0  0  0
   -1.3572    0.6608   -0.4466 N   0  0  0  0  0  0  0  0  0  0  0  0
   -0.0949    1.1060   -0.3866 C   0  0  0  0  0  0  0  0  0  0  0  0
    0.3348    2.4725    0.1874 C   0  0  0  0  0  0  0  0  0  0  0  0
    0.8382    3.8311   -0.3654 C   0  0  0  0  0  0  0  0  0  0  0  0
    1.5438    4.5666    0.8488 C   0  0  0  0  0  0  0  0  0  0  0  0
    0.6329    4.6568    1.9791 N   0  0  0  0  0  0  0  0  0  0  0  0
    0.1452    3.4096    2.5214 C   0  0  0  0  0  0  0  0  0  0  0  0
   -0.5805    2.7030    1.3985 C   0  0  0  0  0  0  0  0  0  0  0  0
    0.2339    5.8302    2.5845 C   0  0  0  0  0  0  0  0  0  0  0  0
   -0.4005    6.8814    1.9103 C   0  0  0  0  0  0  0  0  0  0  0  0
   -0.8445    7.2018    0.6128 C   0  0  0  0  0  0  0  0  0  0  0  0
   -1.4589    8.3906    0.5327 N   0  0  0  0  0  0  0  0  0  0  0  0
   -1.4282    8.8230    1.8072 N   0  0  0  0  0  0  0  0  0  0  0  0
   -0.8203    7.9718    2.6755 C   0  0  0  0  0  0  0  0  0  0  0  0
   -0.6699    8.1411    3.9888 N   0  0  0  0  0  0  0  0  0  0  0  0
   -0.0586    7.0806    4.5461 C   0  0  0  0  0  0  0  0  0  0  0  0
    0.3708    5.9521    3.9333 N   0  0  0  0  0  0  0  0  0  0  0  0
   -2.5212   -1.5660   -0.0696 C   0  0  0  0  0  0  0  0  0  0  0  0
   -3.4648   -1.5014   -1.0989 C   0  0  0  0  0  0  0  0  0  0  0  0
   -4.5883   -2.3322   -1.0978 C   0  0  0  0  0  0  0  0  0  0  0  0
   -4.7885   -3.2330   -0.0577 C   0  0  0  0  0  0  0  0  0  0  0  0
   -3.8839   -3.3256    0.9962 C   0  0  0  0  0  0  0  0  0  0  0  0
   -2.7418   -2.4826    0.9835 C   0  0  0  0  0  0  0  0  0  0  0  0
   -4.1234   -4.3050    2.1118 C   0  0  0  0  0  0  0  0  0  0  0  0
   -3.0967   -5.1939    2.2421 F   0  0  0  0  0  0  0  0  0  0  0  0
   -4.2306   -3.6922    3.3252 F   0  0  0  0  0  0  0  0  0  0  0  0
   -5.2461   -5.0666    1.9896 F   0  0  0  0  0  0  0  0  0  0  0  0
   -5.8767   -4.0136   -0.0972 F   0  0  0  0  0  0  0  0  0  0  0  0
    2.4390   -0.5976    0.8432 H   0  0  0  0  0  0  0  0  0  0  0  0
    2.5697   -0.5452   -0.9519 H   0  0  0  0  0  0  0  0  0  0  0  0
    2.6216    0.9425   -0.0067 H   0  0  0  0  0  0  0  0  0  0  0  0
    0.3866   -2.1165    0.1060 H   0  0  0  0  0  0  0  0  0  0  0  0
    1.3267    2.1684    0.4805 H   0  0  0  0  0  0  0  0  0  0  0  0
    1.6028    3.7186   -1.1455 H   0  0  0  0  0  0  0  0  0  0  0  0
    0.0548    4.4852   -0.7618 H   0  0  0  0  0  0  0  0  0  0  0  0
    2.4001    3.9527    1.1809 H   0  0  0  0  0  0  0  0  0  0  0  0
    1.9768    5.5364    0.5836 H   0  0  0  0  0  0  0  0  0  0  0  0
   -0.5552    3.5335    3.3535 H   0  0  0  0  0  0  0  0  0  0  0  0
    0.9775    2.7868    2.8737 H   0  0  0  0  0  0  0  0  0  0  0  0
   -1.4507    3.2917    1.0779 H   0  0  0  0  0  0  0  0  0  0  0  0
   -0.9654    1.7603    1.7973 H   0  0  0  0  0  0  0  0  0  0  0  0
   -0.7564    6.6077   -0.2880 H   0  0  0  0  0  0  0  0  0  0  0  0
   -1.8549    9.7231    2.0360 H   0  0  0  0  0  0  0  0  0  0  0  0
    0.1095    7.1379    5.6153 H   0  0  0  0  0  0  0  0  0  0  0  0
   -3.3132   -0.8035   -1.9190 H   0  0  0  0  0  0  0  0  0  0  0  0
   -5.3099   -2.2827   -1.9076 H   0  0  0  0  0  0  0  0  0  0  0  0
   -2.0381   -2.5442    1.8141 H   0  0  0  0  0  0  0  0  0  0  0  0
  1  2  1  0  0  0  0
  1 33  1  0  0  0  0
  1 34  1  0  0  0  0
  1 35  1  0  0  0  0
  2  3  1  0  0  0  0
  2  6  1  0  0  0  0
  3  4  2  0  0  0  0
  3 36  1  0  0  0  0
  4  5  1  0  0  0  0
  4 22  1  0  0  0  0
  5  6  2  0  0  0  0
  6  7  1  0  0  0  0
  7  8  1  0  0  0  0
  7 12  1  0  0  0  0
  7 37  1  0  0  0  0
  8  9  1  0  0  0  0
  8 38  1  0  0  0  0
  8 39  1  0  0  0  0
  9 10  1  0  0  0  0
  9 40  1  0  0  0  0
  9 41  1  0  0  0  0
 10 11  1  0  0  0  0
 10 13  1  0  0  0  0
 11 12  1  0  0  0  0
 11 42  1  0  0  0  0
 11 43  1  0  0  0  0
 12 44  1  0  0  0  0
 12 45  1  0  0  0  0
 13 14  2  0  0  0  0
 13 21  1  0  0  0  0
 14 15  1  0  0  0  0
 14 18  1  0  0  0  0
 15 16  2  0  0  0  0
 15 46  1  0  0  0  0
 16 17  1  0  0  0  0
 17 18  1  0  0  0  0
 17 47  1  0  0  0  0
 18 19  2  0  0  0  0
 19 20  1  0  0  0  0
 20 21  2  0  0  0  0
 20 48  1  0  0  0  0
 22 23  2  0  0  0  0
 22 27  1  0  0  0  0
 23 24  1  0  0  0  0
 23 49  1  0  0  0  0
 24 25  2  0  0  0  0
 24 50  1  0  0  0  0
 25 26  1  0  0  0  0
 25 32  1  0  0  0  0
 26 27  2  0  0  0  0
 26 28  1  0  0  0  0
 27 51  1  0  0  0  0
 28 29  1  0  0  0  0
 28 30  1  0  0  0  0
 28 31  1  0  0  0  0
M  END
>  <DRUGBANK_ID>
DB12690

>  <COMMON_NAME>
LY-2584702

>  <CAS_NUMBER>
1082949-67-4

>  <UNII>
I4965C6W4O

$$$$
