4830
 OpenBabel10282417143D

 26 25  0  0  0  0  0  0  0  0999 V2000
    1.2166   -0.0763   -0.0029 N   0  0  0  0  0  0  0  0  0  0  0  0
    3.0654   -0.1870   -1.3693 N   0  0  0  0  0  0  0  0  0  0  0  0
    3.3069    0.8052    0.6299 N   0  0  0  0  0  0  0  0  0  0  0  0
    1.0595   -0.1902   -2.6011 N   0  0  0  0  0  0  0  0  0  0  0  0
    3.0458   -0.6477   -3.5829 N   0  0  0  0  0  0  0  0  0  0  0  0
    0.6887   -0.8381    2.3016 C   0  0  0  0  0  0  0  0  0  0  0  0
    2.1121   -0.8719    2.8561 C   0  0  0  0  0  0  0  0  0  0  0  0
    0.4667    0.2312    1.2202 C   0  0  0  0  0  0  0  0  0  0  0  0
    2.5038    0.4487    3.5396 C   0  0  0  0  0  0  0  0  0  0  0  0
    2.4483    0.1972   -0.2152 C   0  0  0  0  0  0  0  0  0  0  0  0
    2.3941   -0.3350   -2.4432 C   0  0  0  0  0  0  0  0  0  0  0  0
    2.8520    0.8938    1.5012 H   0  0  0  0  0  0  0  0  0  0  0  0
    4.1468    0.2447    0.7281 H   0  0  0  0  0  0  0  0  0  0  0  0
    0.5577   -0.5592   -3.3849 H   0  0  0  0  0  0  0  0  0  0  0  0
    0.5686   -0.2085   -1.6995 H   0  0  0  0  0  0  0  0  0  0  0  0
    4.0476   -0.4907   -3.5454 H   0  0  0  0  0  0  0  0  0  0  0  0
    2.5987   -0.5589   -4.4766 H   0  0  0  0  0  0  0  0  0  0  0  0
   -0.0001   -0.6712    3.1388 H   0  0  0  0  0  0  0  0  0  0  0  0
    0.4395   -1.8222    1.8831 H   0  0  0  0  0  0  0  0  0  0  0  0
    2.2335   -1.6872    3.5754 H   0  0  0  0  0  0  0  0  0  0  0  0
    2.7902   -1.1524    2.0408 H   0  0  0  0  0  0  0  0  0  0  0  0
    0.6390    1.2478    1.5880 H   0  0  0  0  0  0  0  0  0  0  0  0
   -0.6023    0.2121    0.9642 H   0  0  0  0  0  0  0  0  0  0  0  0
    2.0229    0.5444    4.5104 H   0  0  0  0  0  0  0  0  0  0  0  0
    3.5924    0.5067    3.6459 H   0  0  0  0  0  0  0  0  0  0  0  0
    2.1927    1.3597    3.0122 H   0  0  0  0  0  0  0  0  0  0  0  0
  1  8  1  0  0  0  0
  1 10  2  0  0  0  0
  2 10  1  0  0  0  0
  2 11  2  0  0  0  0
  3 10  1  0  0  0  0
  3 12  1  0  0  0  0
  3 13  1  0  0  0  0
  4 11  1  0  0  0  0
  4 14  1  0  0  0  0
  4 15  1  0  0  0  0
  5 11  1  0  0  0  0
  5 16  1  0  0  0  0
  5 17  1  0  0  0  0
  6  7  1  0  0  0  0
  6  8  1  0  0  0  0
  6 18  1  0  0  0  0
  6 19  1  0  0  0  0
  7  9  1  0  0  0  0
  7 20  1  0  0  0  0
  7 21  1  0  0  0  0
  8 22  1  0  0  0  0
  8 23  1  0  0  0  0
  9 24  1  0  0  0  0
  9 25  1  0  0  0  0
  9 26  1  0  0  0  0
M  END
>  <DRUGBANK_ID>
DB04830

>  <COMMON_NAME>
Buformin

>  <CAS_NUMBER>
692-13-7

>  <UNII>
W2115E9C7B

>  <SYNONYMS>
1-Butylbiguanide; Buformin; Buformina; Buformine; Buforminum

$$$$
