
 OpenBabel10282417133D

 32 34  0  0  1  0  0  0  0  0999 V2000
    1.3429   -0.0570    0.0252 C   0  0  0  0  0  0  0  0  0  0  0  0
    4.5503    2.7685   -1.7384 C   0  0  0  0  0  0  0  0  0  0  0  0
    0.7354    2.6844   -3.8847 C   0  0  0  0  0  0  0  0  0  0  0  0
    0.4305    1.1352    0.3858 C   0  0  2  0  0  0  0  0  0  0  0  0
    2.8722    2.7645   -3.8115 C   0  0  0  0  0  0  0  0  0  0  0  0
   -1.0033    0.9470   -0.0960 C   0  0  1  0  0  0  0  0  0  0  0  0
   -0.9104    1.4168   -1.5555 C   0  0  2  0  0  0  0  0  0  0  0  0
    4.2595    2.8202   -4.0355 C   0  0  0  0  0  0  0  0  0  0  0  0
    2.4529    2.7030   -2.4880 C   0  0  0  0  0  0  0  0  0  0  0  0
    0.1233    2.5591   -1.4590 C   0  0  2  0  0  0  0  0  0  0  0  0
    4.8086    2.8614   -5.2980 N   0  0  0  0  0  0  0  0  0  0  0  0
    5.0922    2.8239   -2.9725 N   0  0  0  0  0  0  0  0  0  0  0  0
    3.2469    2.6938   -1.4069 N   0  0  0  0  0  0  0  0  0  0  0  0
    1.7931    2.7456   -4.6681 N   0  0  0  0  0  0  0  0  0  0  0  0
    1.0793    2.6325   -2.5567 N   0  0  0  0  0  0  0  0  0  0  0  0
    1.0923   -0.5618   -1.2871 O   0  0  0  0  0  0  0  0  0  0  0  0
   -1.4785   -0.3818    0.0585 O   0  0  0  0  0  0  0  0  0  0  0  0
   -2.1532    1.8169   -2.1312 O   0  0  0  0  0  0  0  0  0  0  0  0
    0.8428    2.3653   -0.2259 O   0  0  0  0  0  0  0  0  0  0  0  0
    0.4970    1.2862    1.4688 H   0  0  0  0  0  0  0  0  0  0  0  0
   -1.6777    1.6024    0.4674 H   0  0  0  0  0  0  0  0  0  0  0  0
   -0.5689    0.6153   -2.2122 H   0  0  0  0  0  0  0  0  0  0  0  0
   -0.3758    3.5359   -1.4246 H   0  0  0  0  0  0  0  0  0  0  0  0
    1.1139   -0.8829    0.7062 H   0  0  0  0  0  0  0  0  0  0  0  0
    2.4075    0.1738    0.1004 H   0  0  0  0  0  0  0  0  0  0  0  0
    5.2541    2.7791   -0.9116 H   0  0  0  0  0  0  0  0  0  0  0  0
   -0.2921    2.6634   -4.2244 H   0  0  0  0  0  0  0  0  0  0  0  0
    4.1927    2.8645   -6.0969 H   0  0  0  0  0  0  0  0  0  0  0  0
    5.8106    2.9073   -5.3861 H   0  0  0  0  0  0  0  0  0  0  0  0
    1.5105    0.0513   -1.9200 H   0  0  0  0  0  0  0  0  0  0  0  0
   -0.8850   -0.9721   -0.4517 H   0  0  0  0  0  0  0  0  0  0  0  0
   -2.6778    2.3065   -1.4763 H   0  0  0  0  0  0  0  0  0  0  0  0
  1 24  1  0  0  0  0
  1 25  1  0  0  0  0
  2 26  1  0  0  0  0
  3 27  1  0  0  0  0
  4  1  1  0  0  0  0
  4 20  1  1  0  0  0
  6  4  1  0  0  0  0
  6 17  1  0  0  0  0
  6 21  1  1  0  0  0
  7  6  1  0  0  0  0
  7 18  1  0  0  0  0
  7 22  1  6  0  0  0
  8  5  2  0  0  0  0
  9  5  1  0  0  0  0
 10  7  1  0  0  0  0
 10 23  1  1  0  0  0
 10 15  1  0  0  0  0
 11  8  1  0  0  0  0
 11 28  1  0  0  0  0
 11 29  1  0  0  0  0
 12  2  2  0  0  0  0
 12  8  1  0  0  0  0
 13  2  1  0  0  0  0
 13  9  2  0  0  0  0
 14  3  2  0  0  0  0
 14  5  1  0  0  0  0
 15  3  1  0  0  0  0
 15  9  1  0  0  0  0
 16  1  1  0  0  0  0
 16 30  1  0  0  0  0
 17 31  1  0  0  0  0
 18 32  1  0  0  0  0
 19  4  1  0  0  0  0
 19 10  1  0  0  0  0
M  END
>  <DRUGBANK_ID>
DB03528

>  <SECONDARY_ACCESSION_NUMBERS>
EXPT03264

>  <COMMON_NAME>
9-Beta-D-Xylofuranosyl-Adenine

$$$$
