317
 OpenBabel10282417103D

 55 58  0  0  0  0  0  0  0  0999 V2000
    2.0060    0.5167   -0.0057 Cl  0  0  0  0  0  0  0  0  0  0  0  0
    0.4397   -2.0212   -0.0205 F   0  0  0  0  0  0  0  0  0  0  0  0
    3.6493    5.8784   -6.9351 O   0  0  0  0  0  0  0  0  0  0  0  0
   -0.6872    2.7565   -4.2723 O   0  0  0  0  0  0  0  0  0  0  0  0
    1.4241    4.8284   -3.0996 O   0  0  0  0  0  0  0  0  0  0  0  0
    1.8286    6.6600   -4.6319 N   0  0  0  0  0  0  0  0  0  0  0  0
   -2.7396    2.5323    0.2227 N   0  0  0  0  0  0  0  0  0  0  0  0
   -1.1377    6.3508    0.1154 N   0  0  0  0  0  0  0  0  0  0  0  0
   -2.5638    4.7297    1.1193 N   0  0  0  0  0  0  0  0  0  0  0  0
    0.2099    6.2725   -5.3149 C   0  0  0  0  0  0  0  0  0  0  0  0
    2.4386    7.6225   -5.5163 C   0  0  0  0  0  0  0  0  0  0  0  0
    3.2143    5.5617   -4.5888 C   0  0  0  0  0  0  0  0  0  0  0  0
   -0.2618    4.7577   -6.3085 C   0  0  0  0  0  0  0  0  0  0  0  0
    2.6456    6.9343   -6.8738 C   0  0  0  0  0  0  0  0  0  0  0  0
    3.3906    4.8443   -6.0104 C   0  0  0  0  0  0  0  0  0  0  0  0
   -0.0915    3.0425   -5.6792 C   0  0  0  0  0  0  0  0  0  0  0  0
   -0.6633    3.6030   -3.1128 C   0  0  0  0  0  0  0  0  0  0  0  0
   -1.6105    4.2161   -0.9867 C   0  0  0  0  0  0  0  0  0  0  0  0
   -1.4752    3.3288   -2.1200 C   0  0  0  0  0  0  0  0  0  0  0  0
    0.1493    4.7261   -2.7209 C   0  0  0  0  0  0  0  0  0  0  0  0
   -0.9753    5.4934   -0.8974 C   0  0  0  0  0  0  0  0  0  0  0  0
   -0.0999    5.7588   -1.8134 C   0  0  0  0  0  0  0  0  0  0  0  0
   -2.3108    3.8769    0.1057 C   0  0  0  0  0  0  0  0  0  0  0  0
   -1.9210    1.3871    0.1327 C   0  0  0  0  0  0  0  0  0  0  0  0
   -1.9443    5.9303    1.0651 C   0  0  0  0  0  0  0  0  0  0  0  0
    1.3747    4.2747   -4.3376 C   0  0  0  0  0  0  0  0  0  0  0  0
   -0.5081    1.4736    0.1122 C   0  0  0  0  0  0  0  0  0  0  0  0
   -2.5013    0.1203    0.0520 C   0  0  0  0  0  0  0  0  0  0  0  0
    0.2942    0.3403    0.0339 C   0  0  0  0  0  0  0  0  0  0  0  0
   -1.6943   -1.0229    0.0087 C   0  0  0  0  0  0  0  0  0  0  0  0
   -0.3053   -0.9074    0.0035 C   0  0  0  0  0  0  0  0  0  0  0  0
   -3.7411    2.4528    0.2272 H   0  0  0  0  0  0  0  0  0  0  0  0
   -0.1994    7.2031   -5.7580 H   0  0  0  0  0  0  0  0  0  0  0  0
   -0.4963    6.2182   -4.4539 H   0  0  0  0  0  0  0  0  0  0  0  0
    3.3893    7.9083   -5.0497 H   0  0  0  0  0  0  0  0  0  0  0  0
    1.7947    8.5012   -5.5430 H   0  0  0  0  0  0  0  0  0  0  0  0
    4.0991    6.0314   -4.1320 H   0  0  0  0  0  0  0  0  0  0  0  0
    3.2288    4.7825   -3.7804 H   0  0  0  0  0  0  0  0  0  0  0  0
    0.3279    4.8369   -7.2289 H   0  0  0  0  0  0  0  0  0  0  0  0
   -1.3307    4.8112   -6.5610 H   0  0  0  0  0  0  0  0  0  0  0  0
    1.6809    6.5745   -7.2543 H   0  0  0  0  0  0  0  0  0  0  0  0
    2.9926    7.6942   -7.5561 H   0  0  0  0  0  0  0  0  0  0  0  0
    4.0347    3.9413   -5.9674 H   0  0  0  0  0  0  0  0  0  0  0  0
    2.5327    4.3124   -6.4788 H   0  0  0  0  0  0  0  0  0  0  0  0
    0.9322    2.6875   -5.4821 H   0  0  0  0  0  0  0  0  0  0  0  0
   -0.0490    2.2879   -6.4926 H   0  0  0  0  0  0  0  0  0  0  0  0
   -1.9349    2.3467   -2.1623 H   0  0  0  0  0  0  0  0  0  0  0  0
    0.5250    6.6721   -1.8323 H   0  0  0  0  0  0  0  0  0  0  0  0
   -2.1084    6.6136    1.8906 H   0  0  0  0  0  0  0  0  0  0  0  0
    2.0231    3.4349   -4.4603 H   0  0  0  0  0  0  0  0  0  0  0  0
    0.3751    4.4015   -4.5830 H   0  0  0  0  0  0  0  0  0  0  0  0
    1.5303    4.8234   -5.2539 H   0  0  0  0  0  0  0  0  0  0  0  0
   -0.0052    2.4384    0.1288 H   0  0  0  0  0  0  0  0  0  0  0  0
   -3.5820    0.0113    0.0332 H   0  0  0  0  0  0  0  0  0  0  0  0
   -2.1420   -2.0107   -0.0076 H   0  0  0  0  0  0  0  0  0  0  0  0
  1 29  1  0  0  0  0
  2 31  1  0  0  0  0
  3 14  1  0  0  0  0
  3 15  1  0  0  0  0
  4 16  1  0  0  0  0
  4 17  1  0  0  0  0
  5 20  1  0  0  0  0
  5 26  1  0  0  0  0
  6 10  1  0  0  0  0
  6 11  1  0  0  0  0
  6 12  1  0  0  0  0
  7 23  1  0  0  0  0
  7 24  1  0  0  0  0
  7 32  1  0  0  0  0
  8 21  1  0  0  0  0
  8 25  2  0  0  0  0
  9 23  2  0  0  0  0
  9 25  1  0  0  0  0
 10 13  1  0  0  0  0
 10 33  1  0  0  0  0
 10 34  1  0  0  0  0
 11 14  1  0  0  0  0
 11 35  1  0  0  0  0
 11 36  1  0  0  0  0
 12 15  1  0  0  0  0
 12 37  1  0  0  0  0
 12 38  1  0  0  0  0
 13 16  1  0  0  0  0
 13 39  1  0  0  0  0
 13 40  1  0  0  0  0
 14 41  1  0  0  0  0
 14 42  1  0  0  0  0
 15 43  1  0  0  0  0
 15 44  1  0  0  0  0
 16 45  1  0  0  0  0
 16 46  1  0  0  0  0
 17 19  1  0  0  0  0
 17 20  2  0  0  0  0
 18 19  2  0  0  0  0
 18 21  1  0  0  0  0
 18 23  1  0  0  0  0
 19 47  1  0  0  0  0
 20 22  1  0  0  0  0
 21 22  2  0  0  0  0
 22 48  1  0  0  0  0
 24 27  2  0  0  0  0
 24 28  1  0  0  0  0
 25 49  1  0  0  0  0
 26 50  1  0  0  0  0
 26 51  1  0  0  0  0
 26 52  1  0  0  0  0
 27 29  1  0  0  0  0
 27 53  1  0  0  0  0
 28 30  2  0  0  0  0
 28 54  1  0  0  0  0
 29 31  2  0  0  0  0
 30 31  1  0  0  0  0
 30 55  1  0  0  0  0
M  END
>  <DRUGBANK_ID>
DB00317

>  <SECONDARY_ACCESSION_NUMBERS>
APRD00997; DB07998

>  <COMMON_NAME>
Gefitinib

>  <CAS_NUMBER>
184475-35-2

>  <UNII>
S65743JHBS

>  <SYNONYMS>
4-(3'-chloro-4'-fluoroanilino)-7-methoxy-6-(3-morpholinopropoxy)quinazoline; Gefitinib; N-(3-chloro-4-fluorophenyl)-7-methoxy-6-(3-(4-morpholinyl)propoxy)-4-quinazolinamine

$$$$
