P04
 OpenBabel10282417173D

 48 52  0  0  0  0  0  0  0  0999 V2000
    1.2982   -0.7782    0.1555 N   0  0  0  0  0  0  0  0  0  0  0  0
    2.3385    0.0361    0.0481 C   0  0  0  0  0  0  0  0  0  0  0  0
    1.7661    1.3011    0.0569 C   0  0  0  0  0  0  0  0  0  0  0  0
    0.4044    1.3723    0.1250 C   0  0  0  0  0  0  0  0  0  0  0  0
    0.2220    0.0965   -0.0543 N   0  0  0  0  0  0  0  0  0  0  0  0
   -0.8108    2.5138   -0.0477 N   0  0  0  0  0  0  0  0  0  0  0  0
   -1.1997    3.6860   -1.1547 C   0  0  0  0  0  0  0  0  0  0  0  0
   -1.5155    1.7528   -1.1574 N   0  0  0  0  0  0  0  0  0  0  0  0
   -1.0367    0.1077   -0.5918 C   0  0  0  0  0  0  0  0  0  0  0  0
   -1.1548   -1.7592   -0.2610 N   0  0  0  0  0  0  0  0  0  0  0  0
    0.1385   -3.2284   -0.0620 C   0  0  0  0  0  0  0  0  0  0  0  0
    1.1850   -3.4043    1.1643 C   0  0  0  0  0  0  0  0  0  0  0  0
    1.6763   -3.2106   -0.2586 C   0  0  0  0  0  0  0  0  0  0  0  0
   -0.4496    5.6563   -1.5349 N   0  0  0  0  0  0  0  0  0  0  0  0
    0.0389    7.6313   -1.4360 C   0  0  0  0  0  0  0  0  0  0  0  0
    0.8094    7.7457   -0.4131 C   0  0  0  0  0  0  0  0  0  0  0  0
   -0.3110    7.6532    0.3382 C   0  0  0  0  0  0  0  0  0  0  0  0
   -0.9200    8.7698    0.9010 C   0  0  0  0  0  0  0  0  0  0  0  0
   -0.3461    9.9023    0.6259 C   0  0  0  0  0  0  0  0  0  0  0  0
    0.0814    9.4297   -0.7242 C   0  0  0  0  0  0  0  0  0  0  0  0
   -0.8333    6.4291    0.5260 N   0  0  0  0  0  0  0  0  0  0  0  0
    0.2855    5.5174    0.5144 C   0  0  0  0  0  0  0  0  0  0  0  0
    1.4866    5.6828    0.2839 O   0  0  0  0  0  0  0  0  0  0  0  0
   -0.0362    4.1720    0.4045 C   0  0  0  0  0  0  0  0  0  0  0  0
    0.6602    3.3815   -1.3364 C   0  0  0  0  0  0  0  0  0  0  0  0
    2.0472    3.2509   -1.2770 C   0  0  0  0  0  0  0  0  0  0  0  0
    2.3184    2.5817    0.0110 C   0  0  0  0  0  0  0  0  0  0  0  0
    3.4154   -0.1782    0.0104 H   0  0  0  0  0  0  0  0  0  0  0  0
   -1.8779   -2.6503   -0.1037 H   0  0  0  0  0  0  0  0  0  0  0  0
   -0.2586   -4.2479   -0.4358 H   0  0  0  0  0  0  0  0  0  0  0  0
    1.1893   -2.6738    1.9680 H   0  0  0  0  0  0  0  0  0  0  0  0
    1.5460   -4.3059    1.6957 H   0  0  0  0  0  0  0  0  0  0  0  0
    2.4721   -3.7827   -0.7625 H   0  0  0  0  0  0  0  0  0  0  0  0
    2.0384   -2.3504   -0.7784 H   0  0  0  0  0  0  0  0  0  0  0  0
    0.5325    6.2049   -2.1541 H   0  0  0  0  0  0  0  0  0  0  0  0
    1.7439    7.4405   -0.8414 H   0  0  0  0  0  0  0  0  0  0  0  0
   -1.7225    8.5951    1.5560 H   0  0  0  0  0  0  0  0  0  0  0  0
   -0.4901   10.7676    1.3594 H   0  0  0  0  0  0  0  0  0  0  0  0
    0.6349   10.7627   -0.7656 H   0  0  0  0  0  0  0  0  0  0  0  0
   -1.7792    6.3092    0.0722 H   0  0  0  0  0  0  0  0  0  0  0  0
   -1.3480    4.2222    0.5605 H   0  0  0  0  0  0  0  0  0  0  0  0
    0.1332    3.5086    1.2679 H   0  0  0  0  0  0  0  0  0  0  0  0
    0.2417    3.7498   -2.3730 H   0  0  0  0  0  0  0  0  0  0  0  0
    0.2733    2.3270   -1.7028 H   0  0  0  0  0  0  0  0  0  0  0  0
    2.1904    4.3010   -1.2953 H   0  0  0  0  0  0  0  0  0  0  0  0
    2.1679    2.6884   -2.1980 H   0  0  0  0  0  0  0  0  0  0  0  0
    1.8786    3.0468    0.8965 H   0  0  0  0  0  0  0  0  0  0  0  0
    3.3527    2.5070    0.0716 H   0  0  0  0  0  0  0  0  0  0  0  0
  1  5  1  0  0  0  0
  2  1  2  0  0  0  0
  2 28  1  0  0  0  0
  3  2  1  0  0  0  0
  3  4  2  0  0  0  0
  4  6  1  0  0  0  0
  4  5  1  0  0  0  0
  5  9  1  0  0  0  0
  6  7  2  0  0  0  0
  7 14  1  0  0  0  0
  7  8  1  0  0  0  0
  9  8  2  0  0  0  0
  9 10  1  0  0  0  0
 10 11  1  0  0  0  0
 10 29  1  0  0  0  0
 11 12  1  0  0  0  0
 11 13  1  0  0  0  0
 11 30  1  0  0  0  0
 12 13  1  0  0  0  0
 12 31  1  0  0  0  0
 12 32  1  0  0  0  0
 13 33  1  0  0  0  0
 13 34  1  0  0  0  0
 14 35  1  0  0  0  0
 15 14  1  0  0  0  0
 15 20  1  0  0  0  0
 16 15  2  0  0  0  0
 16 36  1  0  0  0  0
 17 16  1  0  0  0  0
 17 18  2  0  0  0  0
 18 19  1  0  0  0  0
 18 37  1  0  0  0  0
 19 20  2  0  0  0  0
 19 38  1  0  0  0  0
 20 39  1  0  0  0  0
 21 17  1  0  0  0  0
 21 40  1  0  0  0  0
 22 21  1  0  0  0  0
 22 24  1  0  0  0  0
 23 22  2  0  0  0  0
 24 25  1  0  0  0  0
 24 41  1  0  0  0  0
 24 42  1  0  0  0  0
 25 26  1  0  0  0  0
 25 43  1  0  0  0  0
 25 44  1  0  0  0  0
 26 27  1  0  0  0  0
 26 45  1  0  0  0  0
 26 46  1  0  0  0  0
 27  3  1  0  0  0  0
 27 47  1  0  0  0  0
 27 48  1  0  0  0  0
M  END
>  <DRUGBANK_ID>
DB08338

>  <COMMON_NAME>
19-(cyclopropylamino)-4,6,7,15-tetrahydro-5H-16,1-(azenometheno)-10,14-(metheno)pyrazolo[4,3-o][1,3,9]triazacyclohexadecin-8(9H)-one

$$$$
