
 OpenBabel10282417123D

 25 25  0  0  0  0  0  0  0  0999 V2000
    0.6970    1.2824   -0.2657 C   0  0  1  0  0  0  0  0  0  0  0  0
    1.3675    2.4445    0.2520 O   0  0  0  0  0  0  0  0  0  0  0  0
    1.4490    0.0309    0.1926 C   0  0  1  0  0  0  0  0  0  0  0  0
    1.5995    0.1243    1.6230 O   0  0  0  0  0  0  0  0  0  0  0  0
    0.6723   -1.2424   -0.2027 C   0  0  2  0  0  0  0  0  0  0  0  0
   -1.4124   -0.0892   -0.1821 C   0  0  2  0  0  0  0  0  0  0  0  0
   -2.7232   -0.1178    0.3739 O   0  0  0  0  0  0  0  0  0  0  0  0
   -1.5001    2.4269   -0.2896 N   0  0  0  0  0  0  0  0  0  0  0  0
   -0.6688   -1.2054    0.3182 O   0  0  0  0  0  0  0  0  0  0  0  0
   -0.7578    1.2519    0.2254 C   0  0  2  0  0  0  0  0  0  0  0  0
    1.4589   -2.4930    0.2608 C   0  0  0  0  0  0  0  0  0  0  0  0
    0.6861   -3.4782    0.9259 O   0  0  0  0  0  0  0  0  0  0  0  0
    0.7262    1.3445   -1.3603 H   0  0  0  0  0  0  0  0  0  0  0  0
    1.3893    2.3145    1.2207 H   0  0  0  0  0  0  0  0  0  0  0  0
    2.4559    0.0267   -0.2397 H   0  0  0  0  0  0  0  0  0  0  0  0
    2.4343   -0.3144    1.8663 H   0  0  0  0  0  0  0  0  0  0  0  0
    0.5980   -1.2917   -1.2981 H   0  0  0  0  0  0  0  0  0  0  0  0
   -1.5010   -0.1557   -1.2756 H   0  0  0  0  0  0  0  0  0  0  0  0
   -3.2268   -0.7494   -0.1709 H   0  0  0  0  0  0  0  0  0  0  0  0
   -1.0556    3.2652    0.0908 H   0  0  0  0  0  0  0  0  0  0  0  0
   -2.4422    2.3860    0.1038 H   0  0  0  0  0  0  0  0  0  0  0  0
   -0.7733    1.3307    1.3206 H   0  0  0  0  0  0  0  0  0  0  0  0
    1.9143   -2.9663   -0.6164 H   0  0  0  0  0  0  0  0  0  0  0  0
    2.2999   -2.2346    0.9122 H   0  0  0  0  0  0  0  0  0  0  0  0
    0.3614   -3.0692    1.7493 H   0  0  0  0  0  0  0  0  0  0  0  0
  1 10  1  0  0  0  0
  1  2  1  0  0  0  0
  1 13  1  6  0  0  0
  2 14  1  0  0  0  0
  3  1  1  0  0  0  0
  3 15  1  6  0  0  0
  3  4  1  0  0  0  0
  4 16  1  0  0  0  0
  5  3  1  0  0  0  0
  5  9  1  0  0  0  0
  5 17  1  6  0  0  0
  5 11  1  0  0  0  0
  6 10  1  0  0  0  0
  6 18  1  6  0  0  0
  6  7  1  0  0  0  0
  7 19  1  0  0  0  0
  8 20  1  0  0  0  0
  8 21  1  0  0  0  0
  9  6  1  0  0  0  0
 10 22  1  1  0  0  0
 10  8  1  0  0  0  0
 11 12  1  0  0  0  0
 11 23  1  0  0  0  0
 11 24  1  0  0  0  0
 12 25  1  0  0  0  0
M  END
>  <DRUGBANK_ID>
DB02678

>  <SECONDARY_ACCESSION_NUMBERS>
EXPT00074

>  <COMMON_NAME>
beta-D-Galactosamine

>  <CAS_NUMBER>
14196-86-2

>  <UNII>
K8YZM765ZS

>  <SYNONYMS>
2-amino-2-deoxy-beta-D-galactopyranose; 2-amino-2-deoxy-β-D-galactopyranose; 2-deoxy-2-aminogalactose; β-D-galactosamine; β-galactosylamine

$$$$
