
 OpenBabel10282417103D

 47 49  0  0  0  0  0  0  0  0999 V2000
    1.2166    0.5886   -0.2274 C   0  0  0  0  0  0  0  0  0  0  0  0
    1.1185   -0.9037   -0.0426 C   0  0  0  0  0  0  0  0  0  0  0  0
   -1.1903    0.6979   -0.0165 C   0  0  0  0  0  0  0  0  0  0  0  0
   -1.1973   -0.7134    0.0099 C   0  0  0  0  0  0  0  0  0  0  0  0
   -2.4353    1.3518    0.0007 C   0  0  0  0  0  0  0  0  0  0  0  0
   -2.4123   -1.4014    0.0071 C   0  0  0  0  0  0  0  0  0  0  0  0
   -3.6470   -0.7305    0.0021 C   0  0  0  0  0  0  0  0  0  0  0  0
   -3.6593    0.6649    0.0102 C   0  0  0  0  0  0  0  0  0  0  0  0
    3.5616    0.3721   -0.2311 C   0  0  0  0  0  0  0  0  0  0  0  0
   -0.0287   -1.4968    0.0560 N   0  0  0  0  0  0  0  0  0  0  0  0
    2.3961    1.0633   -0.4653 N   0  0  0  0  0  0  0  0  0  0  0  0
    2.3992   -1.7063   -0.0069 C   0  0  0  0  0  0  0  0  0  0  0  0
    2.4223   -2.9298    0.0332 O   0  0  0  0  0  0  0  0  0  0  0  0
    4.6662    0.8727   -0.0960 O   0  0  0  0  0  0  0  0  0  0  0  0
    3.5208   -0.9595   -0.0400 N   0  0  0  0  0  0  0  0  0  0  0  0
    0.0494    1.3720   -0.0976 N   0  0  0  0  0  0  0  0  0  0  0  0
    0.0661    2.8476    0.0115 C   0  0  0  0  0  0  0  0  0  0  0  0
    0.7357    3.3732    1.3141 C   0  0  1  0  0  0  0  0  0  0  0  0
    2.2448    3.0717    1.3441 C   0  0  1  0  0  0  0  0  0  0  0  0
    0.5533    4.7876    1.4929 O   0  0  0  0  0  0  0  0  0  0  0  0
    2.9774    3.6420    0.0735 C   0  0  1  0  0  0  0  0  0  0  0  0
    2.9120    3.4722    2.5439 O   0  0  0  0  0  0  0  0  0  0  0  0
    3.0343    5.1465   -0.0947 C   0  0  0  0  0  0  0  0  0  0  0  0
    4.3449    3.2631    0.0212 O   0  0  0  0  0  0  0  0  0  0  0  0
    3.6449    5.7775    1.0170 O   0  0  0  0  0  0  0  0  0  0  0  0
   -4.9044    1.5083    0.0183 C   0  0  0  0  0  0  0  0  0  0  0  0
   -4.8930   -1.5616   -0.0066 C   0  0  0  0  0  0  0  0  0  0  0  0
   -2.5272    2.4314   -0.0097 H   0  0  0  0  0  0  0  0  0  0  0  0
   -2.3829   -2.4902    0.0078 H   0  0  0  0  0  0  0  0  0  0  0  0
    4.4351   -1.3727    0.0609 H   0  0  0  0  0  0  0  0  0  0  0  0
    0.5098    3.2710   -0.8942 H   0  0  0  0  0  0  0  0  0  0  0  0
   -0.9184    3.3208   -0.0136 H   0  0  0  0  0  0  0  0  0  0  0  0
    0.2367    2.9248    2.1828 H   0  0  0  0  0  0  0  0  0  0  0  0
    2.3137    1.9916    1.4593 H   0  0  0  0  0  0  0  0  0  0  0  0
    0.4774    5.2168    0.6234 H   0  0  0  0  0  0  0  0  0  0  0  0
    2.5195    3.2695   -0.8485 H   0  0  0  0  0  0  0  0  0  0  0  0
    2.4481    4.2349    2.9155 H   0  0  0  0  0  0  0  0  0  0  0  0
    3.6448    5.3645   -0.9757 H   0  0  0  0  0  0  0  0  0  0  0  0
    2.0611    5.5909   -0.2821 H   0  0  0  0  0  0  0  0  0  0  0  0
    4.6732    3.2349    0.9348 H   0  0  0  0  0  0  0  0  0  0  0  0
    3.1417    5.5252    1.8049 H   0  0  0  0  0  0  0  0  0  0  0  0
   -4.9152    2.1388    0.9132 H   0  0  0  0  0  0  0  0  0  0  0  0
   -4.9283    2.1406   -0.8753 H   0  0  0  0  0  0  0  0  0  0  0  0
   -5.8305    0.9383    0.0256 H   0  0  0  0  0  0  0  0  0  0  0  0
   -4.9155   -2.1812   -0.9069 H   0  0  0  0  0  0  0  0  0  0  0  0
   -4.9234   -2.1861    0.8899 H   0  0  0  0  0  0  0  0  0  0  0  0
   -5.8088   -0.9735   -0.0104 H   0  0  0  0  0  0  0  0  0  0  0  0
  2  1  1  0  0  0  0
  2 12  1  0  0  0  0
  3  4  1  0  0  0  0
  4 10  1  0  0  0  0
  5  3  2  0  0  0  0
  5  8  1  0  0  0  0
  5 28  1  0  0  0  0
  6  4  2  0  0  0  0
  6 29  1  0  0  0  0
  7  6  1  0  0  0  0
  7 27  1  0  0  0  0
  8  7  2  0  0  0  0
  8 26  1  0  0  0  0
  9 14  2  0  0  0  0
 10  2  2  0  0  0  0
 11  1  2  0  0  0  0
 11  9  1  0  0  0  0
 12 15  1  0  0  0  0
 12 13  2  0  0  0  0
 15  9  1  0  0  0  0
 15 30  1  0  0  0  0
 16  3  1  0  0  0  0
 16  1  1  0  0  0  0
 16 17  1  0  0  0  0
 17 18  1  0  0  0  0
 17 31  1  0  0  0  0
 17 32  1  0  0  0  0
 18 19  1  0  0  0  0
 18 20  1  0  0  0  0
 18 33  1  1  0  0  0
 19 21  1  0  0  0  0
 19 22  1  0  0  0  0
 19 34  1  6  0  0  0
 20 35  1  0  0  0  0
 21 23  1  0  0  0  0
 21 24  1  0  0  0  0
 21 36  1  6  0  0  0
 22 37  1  0  0  0  0
 23 25  1  0  0  0  0
 23 38  1  0  0  0  0
 23 39  1  0  0  0  0
 24 40  1  0  0  0  0
 25 41  1  0  0  0  0
 26 42  1  0  0  0  0
 26 43  1  0  0  0  0
 26 44  1  0  0  0  0
 27 45  1  0  0  0  0
 27 46  1  0  0  0  0
 27 47  1  0  0  0  0
M  END
>  <DRUGBANK_ID>
DB00140

>  <SECONDARY_ACCESSION_NUMBERS>
NUTR00010; APRD00626; EXPT02760; DB09358

>  <COMMON_NAME>
Riboflavin

>  <CAS_NUMBER>
83-88-5

>  <UNII>
TLM2976OFR

>  <SYNONYMS>
1-Deoxy-1-(7,8-dimethyl-2,4-dioxo-3,4-dihydrobenzo[g]pteridin-10(2H)-yl)pentitol; 6,7-Dimethyl-9-D-ribitylisoalloxazine; 7,8-Dimethyl-10-(D-ribo-2,3,4,5-tetrahydroxypentyl)isoalloxazine; 7,8-Dimethyl-10-ribitylisoalloxazine; Lactoflavin; Lactoflavine; Riboflavin; Riboflavina; Riboflavine; Riboflavinum; Vitamin B2; Vitamin Bi; Vitamin G

$$$$
