CA2
 OpenBabel10282417143D

 44 45  0  0  0  0  0  0  0  0999 V2000
    0.4814   -0.1484    0.5120 O   0  0  0  0  0  0  0  0  0  0  0  0
    1.6747    0.0561    0.2354 C   0  0  0  0  0  0  0  0  0  0  0  0
    1.9348    0.2435   -1.0600 O   0  0  0  0  0  0  0  0  0  0  0  0
    2.8566   -0.0726    1.2905 C   0  0  2  0  0  0  0  0  0  0  0  0
    2.1881    0.4182    2.4736 O   0  0  0  0  0  0  0  0  0  0  0  0
    4.1492    0.7623    1.2770 C   0  0  0  0  0  0  0  0  0  0  0  0
    5.1846    0.2276    0.3291 C   0  0  1  0  0  0  0  0  0  0  0  0
    5.5144   -1.2808    0.5124 C   0  0  1  0  0  0  0  0  0  0  0  0
    6.2085   -1.4650    1.7463 O   0  0  0  0  0  0  0  0  0  0  0  0
    4.2317   -2.1341    0.4978 C   0  0  2  0  0  0  0  0  0  0  0  0
    3.6365   -2.2360   -0.7918 O   0  0  0  0  0  0  0  0  0  0  0  0
    3.2408   -1.5643    1.5177 C   0  0  0  0  0  0  0  0  0  0  0  0
    4.6892    0.4534   -1.0534 C   0  0  0  0  0  0  0  0  0  0  0  0
    4.4607    1.8777   -1.5472 C   0  0  0  0  0  0  0  0  0  0  0  0
    5.7598    2.6211   -1.6920 C   0  0  0  0  0  0  0  0  0  0  0  0
    6.5980    2.1951   -2.7976 O   0  0  0  0  0  0  0  0  0  0  0  0
    6.9140    0.8715   -2.9939 C   0  0  0  0  0  0  0  0  0  0  0  0
    5.9886   -0.1172   -3.3583 C   0  0  0  0  0  0  0  0  0  0  0  0
    6.2663   -1.4718   -3.0580 C   0  0  0  0  0  0  0  0  0  0  0  0
    7.5746   -1.8742   -2.9108 C   0  0  0  0  0  0  0  0  0  0  0  0
    8.5567   -0.8988   -3.0343 C   0  0  0  0  0  0  0  0  0  0  0  0
    8.2345    0.4686   -2.9366 C   0  0  0  0  0  0  0  0  0  0  0  0
    6.1377    0.7688    0.4401 H   0  0  0  0  0  0  0  0  0  0  0  0
    6.1948   -1.6402   -0.2717 H   0  0  0  0  0  0  0  0  0  0  0  0
    4.5065   -3.1611    0.7634 H   0  0  0  0  0  0  0  0  0  0  0  0
    2.5819    0.9432   -1.2051 H   0  0  0  0  0  0  0  0  0  0  0  0
    2.7041    0.1694    3.2535 H   0  0  0  0  0  0  0  0  0  0  0  0
    3.9538    1.8229    1.0941 H   0  0  0  0  0  0  0  0  0  0  0  0
    4.6166    0.7584    2.2728 H   0  0  0  0  0  0  0  0  0  0  0  0
    6.3165   -0.6036    2.1798 H   0  0  0  0  0  0  0  0  0  0  0  0
    2.8833   -1.6239   -0.8777 H   0  0  0  0  0  0  0  0  0  0  0  0
    3.7074   -1.6628    2.5078 H   0  0  0  0  0  0  0  0  0  0  0  0
    2.3423   -2.1829    1.5256 H   0  0  0  0  0  0  0  0  0  0  0  0
    5.5196   -0.0443   -1.4521 H   0  0  0  0  0  0  0  0  0  0  0  0
    3.9408   -0.1939   -1.4873 H   0  0  0  0  0  0  0  0  0  0  0  0
    3.9324    1.8747   -2.5117 H   0  0  0  0  0  0  0  0  0  0  0  0
    3.7860    2.4184   -0.8697 H   0  0  0  0  0  0  0  0  0  0  0  0
    5.4848    3.6719   -1.8717 H   0  0  0  0  0  0  0  0  0  0  0  0
    6.2905    2.6299   -0.7308 H   0  0  0  0  0  0  0  0  0  0  0  0
    4.9513    0.1558   -3.5268 H   0  0  0  0  0  0  0  0  0  0  0  0
    5.4583   -2.1698   -2.8172 H   0  0  0  0  0  0  0  0  0  0  0  0
    7.8139   -2.9233   -2.7499 H   0  0  0  0  0  0  0  0  0  0  0  0
    9.5784   -1.2075   -3.2166 H   0  0  0  0  0  0  0  0  0  0  0  0
    9.0192    1.2125   -2.8728 H   0  0  0  0  0  0  0  0  0  0  0  0
  1  2  2  0  0  0  0
  2  3  1  0  0  0  0
  3 26  1  0  0  0  0
  4  2  1  6  0  0  0
  4  5  1  0  0  0  0
  4  6  1  0  0  0  0
  4 12  1  0  0  0  0
  5 27  1  0  0  0  0
  6  7  1  0  0  0  0
  6 28  1  0  0  0  0
  6 29  1  0  0  0  0
  7  8  1  0  0  0  0
  7 13  1  0  0  0  0
  7 23  1  1  0  0  0
  8 10  1  0  0  0  0
  8 24  1  6  0  0  0
  8  9  1  0  0  0  0
  9 30  1  0  0  0  0
 10 11  1  0  0  0  0
 10 12  1  0  0  0  0
 10 25  1  1  0  0  0
 11 31  1  0  0  0  0
 12 32  1  0  0  0  0
 12 33  1  0  0  0  0
 13 14  1  0  0  0  0
 13 34  1  0  0  0  0
 13 35  1  0  0  0  0
 14 15  1  0  0  0  0
 14 36  1  0  0  0  0
 14 37  1  0  0  0  0
 15 16  1  0  0  0  0
 15 38  1  0  0  0  0
 15 39  1  0  0  0  0
 16 17  1  0  0  0  0
 17 18  2  0  0  0  0
 17 22  1  0  0  0  0
 18 19  1  0  0  0  0
 18 40  1  0  0  0  0
 19 20  2  0  0  0  0
 19 41  1  0  0  0  0
 20 21  1  0  0  0  0
 20 42  1  0  0  0  0
 21 22  2  0  0  0  0
 21 43  1  0  0  0  0
 22 44  1  0  0  0  0
M  END
>  <DRUGBANK_ID>
DB04656

>  <COMMON_NAME>
1,3,4-TRIHYDROXY-5-(3-PHENOXYPROPYL)-CYCLOHEXANE-1-CARBOXYLIC A CID

$$$$
