IIE
 OpenBabel10282417173D

 61 64  0  0  0  0  0  0  0  0999 V2000
    2.1292   -0.7047   -0.0068 C   0  0  0  0  0  0  0  0  0  0  0  0
    0.9175   -1.4169   -0.0069 C   0  0  0  0  0  0  0  0  0  0  0  0
   -0.2824   -0.6821   -0.0048 C   0  0  0  0  0  0  0  0  0  0  0  0
   -0.2566    0.7188   -0.0185 C   0  0  0  0  0  0  0  0  0  0  0  0
    0.9671    1.4067   -0.0133 C   0  0  0  0  0  0  0  0  0  0  0  0
    2.1560    0.6865   -0.0049 C   0  0  0  0  0  0  0  0  0  0  0  0
   -1.6207   -1.0576    0.0367 N   0  0  0  0  0  0  0  0  0  0  0  0
   -2.4169    0.0968    0.0399 C   0  0  0  0  0  0  0  0  0  0  0  0
   -1.5843    1.1861   -0.0184 C   0  0  0  0  0  0  0  0  0  0  0  0
   -3.8382    0.0644    0.1494 C   0  0  0  0  0  0  0  0  0  0  0  0
   -4.5869    1.2120    0.0248 N   0  0  0  0  0  0  0  0  0  0  0  0
   -6.0722    1.2381    0.0066 C   0  0  0  0  0  0  0  0  0  0  0  0
   -6.7450   -0.1306    0.1335 C   0  0  0  0  0  0  0  0  0  0  0  0
   -6.4930   -0.9577   -1.1258 C   0  0  0  0  0  0  0  0  0  0  0  0
   -6.9525   -0.3260   -2.3646 N   0  0  0  0  0  0  0  0  0  0  0  0
   -6.3482    1.0180   -2.4943 C   0  0  0  0  0  0  0  0  0  0  0  0
   -6.6093    1.8976   -1.2726 C   0  0  0  0  0  0  0  0  0  0  0  0
   -6.5885   -1.1821   -3.5284 C   0  0  0  0  0  0  0  0  0  0  0  0
   -5.0713   -1.3412   -3.7765 C   0  0  0  0  0  0  0  0  0  0  0  0
   -7.2182   -2.5775   -3.3847 C   0  0  0  0  0  0  0  0  0  0  0  0
   -2.1474   -2.4465    0.0740 C   0  0  0  0  0  0  0  0  0  0  0  0
   -2.8983   -2.7819    1.3787 C   0  0  0  0  0  0  0  0  0  0  0  0
   -5.1431   -2.4477    3.3646 C   0  0  0  0  0  0  0  0  0  0  0  0
   -6.0927   -2.5452    4.3896 C   0  0  0  0  0  0  0  0  0  0  0  0
   -5.0990   -3.4024    2.3384 C   0  0  0  0  0  0  0  0  0  0  0  0
   -6.9099   -3.6679    4.4610 C   0  0  0  0  0  0  0  0  0  0  0  0
   -6.8147   -4.6630    3.4905 C   0  0  0  0  0  0  0  0  0  0  0  0
   -5.9860   -4.4789    2.3769 C   0  0  0  0  0  0  0  0  0  0  0  0
   -4.1802   -3.3294    1.2570 N   0  0  0  0  0  0  0  0  0  0  0  0
   -2.3509   -2.6098    2.4692 O   0  0  0  0  0  0  0  0  0  0  0  0
   -8.0555   -3.8213    5.7361 Cl  0  0  0  0  0  0  0  0  0  0  0  0
   -4.3593   -1.0257    0.3402 O   0  0  0  0  0  0  0  0  0  0  0  0
    3.0722   -1.2467    0.0014 H   0  0  0  0  0  0  0  0  0  0  0  0
    0.9321   -2.5020    0.0090 H   0  0  0  0  0  0  0  0  0  0  0  0
    0.9749    2.4922   -0.0049 H   0  0  0  0  0  0  0  0  0  0  0  0
    3.1004    1.2233    0.0068 H   0  0  0  0  0  0  0  0  0  0  0  0
   -1.8926    2.2204   -0.0071 H   0  0  0  0  0  0  0  0  0  0  0  0
   -4.1015    2.0971   -0.0072 H   0  0  0  0  0  0  0  0  0  0  0  0
   -6.3642    1.8528    0.8652 H   0  0  0  0  0  0  0  0  0  0  0  0
   -6.3848   -0.6509    1.0294 H   0  0  0  0  0  0  0  0  0  0  0  0
   -7.8243   -0.0360    0.2851 H   0  0  0  0  0  0  0  0  0  0  0  0
   -5.4397   -1.1183   -1.3103 H   0  0  0  0  0  0  0  0  0  0  0  0
   -6.9024   -1.9522   -0.9390 H   0  0  0  0  0  0  0  0  0  0  0  0
   -6.7424    1.5099   -3.3903 H   0  0  0  0  0  0  0  0  0  0  0  0
   -5.2598    0.9690   -2.6081 H   0  0  0  0  0  0  0  0  0  0  0  0
   -7.6911    2.0606   -1.1811 H   0  0  0  0  0  0  0  0  0  0  0  0
   -6.1442    2.8781   -1.4225 H   0  0  0  0  0  0  0  0  0  0  0  0
   -7.0303   -0.7180   -4.4184 H   0  0  0  0  0  0  0  0  0  0  0  0
   -4.5594   -1.8403   -2.9463 H   0  0  0  0  0  0  0  0  0  0  0  0
   -4.8860   -1.9475   -4.6658 H   0  0  0  0  0  0  0  0  0  0  0  0
   -4.5761   -0.3804   -3.9417 H   0  0  0  0  0  0  0  0  0  0  0  0
   -8.2976   -2.5036   -3.2150 H   0  0  0  0  0  0  0  0  0  0  0  0
   -7.0446   -3.1745   -4.2829 H   0  0  0  0  0  0  0  0  0  0  0  0
   -6.7829   -3.1479   -2.5558 H   0  0  0  0  0  0  0  0  0  0  0  0
   -2.7557   -2.5949   -0.8286 H   0  0  0  0  0  0  0  0  0  0  0  0
   -1.3035   -3.1408    0.0038 H   0  0  0  0  0  0  0  0  0  0  0  0
   -4.4654   -1.5974    3.3634 H   0  0  0  0  0  0  0  0  0  0  0  0
   -6.1711   -1.7574    5.1346 H   0  0  0  0  0  0  0  0  0  0  0  0
   -7.3693   -5.5905    3.6032 H   0  0  0  0  0  0  0  0  0  0  0  0
   -5.9770   -5.2294    1.5928 H   0  0  0  0  0  0  0  0  0  0  0  0
   -4.6218   -3.3257    0.3404 H   0  0  0  0  0  0  0  0  0  0  0  0
  1  2  2  0  0  0  0
  1  6  1  0  0  0  0
  1 33  1  0  0  0  0
  2  3  1  0  0  0  0
  2 34  1  0  0  0  0
  3  4  2  0  0  0  0
  3  7  1  0  0  0  0
  4  5  1  0  0  0  0
  4  9  1  0  0  0  0
  5  6  2  0  0  0  0
  5 35  1  0  0  0  0
  6 36  1  0  0  0  0
  7  8  1  0  0  0  0
  7 21  1  0  0  0  0
  8  9  2  0  0  0  0
  8 10  1  0  0  0  0
  9 37  1  0  0  0  0
 10 11  1  0  0  0  0
 10 32  2  0  0  0  0
 11 12  1  0  0  0  0
 11 38  1  0  0  0  0
 12 13  1  0  0  0  0
 12 17  1  0  0  0  0
 12 39  1  0  0  0  0
 13 14  1  0  0  0  0
 13 40  1  0  0  0  0
 13 41  1  0  0  0  0
 14 15  1  0  0  0  0
 14 42  1  0  0  0  0
 14 43  1  0  0  0  0
 15 16  1  0  0  0  0
 15 18  1  0  0  0  0
 16 17  1  0  0  0  0
 16 44  1  0  0  0  0
 16 45  1  0  0  0  0
 17 46  1  0  0  0  0
 17 47  1  0  0  0  0
 18 19  1  0  0  0  0
 18 20  1  0  0  0  0
 18 48  1  0  0  0  0
 19 49  1  0  0  0  0
 19 50  1  0  0  0  0
 19 51  1  0  0  0  0
 20 52  1  0  0  0  0
 20 53  1  0  0  0  0
 20 54  1  0  0  0  0
 21 22  1  0  0  0  0
 21 55  1  0  0  0  0
 21 56  1  0  0  0  0
 22 29  1  0  0  0  0
 22 30  2  0  0  0  0
 23 24  1  0  0  0  0
 23 25  2  0  0  0  0
 23 57  1  0  0  0  0
 24 26  2  0  0  0  0
 24 58  1  0  0  0  0
 25 28  1  0  0  0  0
 25 29  1  0  0  0  0
 26 27  1  0  0  0  0
 26 31  1  0  0  0  0
 27 28  2  0  0  0  0
 27 59  1  0  0  0  0
 28 60  1  0  0  0  0
 29 61  1  0  0  0  0
M  END
>  <DRUGBANK_ID>
DB07974

>  <COMMON_NAME>
1-{2-[(4-CHLOROPHENYL)AMINO]-2-OXOETHYL}-N-(1-ISOPROPYLPIPERIDIN-4-YL)-1H-INDOLE-2-CARBOXAMIDE

$$$$
