
 OpenBabel10282417233D

 70 74  0  0  1  0  0  0  0  0999 V2000
    0.8497   -0.1061    0.0135 C   0  0  0  0  0  0  0  0  0  0  0  0
    0.2107   -0.6459    1.1753 O   0  0  0  0  0  0  0  0  0  0  0  0
    0.6498   -1.8584    1.6307 C   0  0  0  0  0  0  0  0  0  0  0  0
    1.9593   -2.2821    1.5231 C   0  0  0  0  0  0  0  0  0  0  0  0
    2.4451   -3.4608    2.1089 C   0  0  0  0  0  0  0  0  0  0  0  0
    3.7469   -3.8694    1.9919 O   0  0  0  0  0  0  0  0  0  0  0  0
    4.7025   -3.0275    1.3272 C   0  0  0  0  0  0  0  0  0  0  0  0
    4.4466   -2.9598   -0.1852 C   0  0  0  0  0  0  0  0  0  0  0  0
    4.9164   -1.6812    2.0382 C   0  0  0  0  0  0  0  0  0  0  0  0
    1.5576   -4.2541    2.8422 C   0  0  0  0  0  0  0  0  0  0  0  0
    0.2154   -3.8511    2.9432 C   0  0  0  0  0  0  0  0  0  0  0  0
   -0.2331   -2.6645    2.3308 C   0  0  0  0  0  0  0  0  0  0  0  0
    1.9564   -5.5916    3.3544 C   0  0  0  0  0  0  0  0  0  0  0  0
    1.3481   -6.6667    2.9314 N   0  0  0  0  0  0  0  0  0  0  0  0
    2.0304   -7.8283    3.5886 C   0  0  2  0  0  0  0  0  0  0  0  0
    3.3305   -7.2205    4.1773 C   0  0  2  0  0  0  0  0  0  0  0  0
    3.0304   -5.7900    4.2446 N   0  0  0  0  0  0  0  0  0  0  0  0
    3.6136   -4.8387    5.0917 C   0  0  0  0  0  0  0  0  0  0  0  0
    3.1704   -3.6948    5.2205 O   0  0  0  0  0  0  0  0  0  0  0  0
    4.5696   -5.3104    5.9796 N   0  0  0  0  0  0  0  0  0  0  0  0
    4.5021   -4.9596    7.3964 C   0  0  0  0  0  0  0  0  0  0  0  0
    4.7547   -6.2697    8.1443 C   0  0  0  0  0  0  0  0  0  0  0  0
    6.0334   -6.8511    7.7587 N   0  0  0  0  0  0  0  0  0  0  0  0
    6.5767   -6.6938    6.5038 C   0  0  0  0  0  0  0  0  0  0  0  0
    7.6120   -7.3040    6.2109 O   0  0  0  0  0  0  0  0  0  0  0  0
    5.9321   -5.6439    5.5697 C   0  0  0  0  0  0  0  0  0  0  0  0
    4.5328   -7.4818    3.2719 C   0  0  0  0  0  0  0  0  0  0  0  0
    4.5685   -6.9746    1.9610 C   0  0  0  0  0  0  0  0  0  0  0  0
    5.6952   -7.1246    1.1651 C   0  0  0  0  0  0  0  0  0  0  0  0
    6.8142   -7.7602    1.6861 C   0  0  0  0  0  0  0  0  0  0  0  0
    8.2143   -7.9430    0.7087 Cl  0  0  0  0  0  0  0  0  0  0  0  0
    6.7984   -8.2765    2.9801 C   0  0  0  0  0  0  0  0  0  0  0  0
    5.6313   -8.2148    3.7406 C   0  0  0  0  0  0  0  0  0  0  0  0
    2.2296   -9.0423    2.6765 C   0  0  0  0  0  0  0  0  0  0  0  0
    2.8385  -10.2185    3.1591 C   0  0  0  0  0  0  0  0  0  0  0  0
    3.1054  -11.2927    2.3008 C   0  0  0  0  0  0  0  0  0  0  0  0
    2.7335  -11.2169    0.9612 C   0  0  0  0  0  0  0  0  0  0  0  0
    3.1042  -12.5109   -0.1110 Cl  0  0  0  0  0  0  0  0  0  0  0  0
    2.0939  -10.0822    0.4743 C   0  0  0  0  0  0  0  0  0  0  0  0
    1.8804   -8.9894    1.3174 C   0  0  0  0  0  0  0  0  0  0  0  0
    0.4894    0.9185   -0.1234 H   0  0  0  0  0  0  0  0  0  0  0  0
    0.5627   -0.6915   -0.8644 H   0  0  0  0  0  0  0  0  0  0  0  0
    1.9413   -0.0282    0.0775 H   0  0  0  0  0  0  0  0  0  0  0  0
    2.6166   -1.6312    0.9830 H   0  0  0  0  0  0  0  0  0  0  0  0
    5.6580   -3.5583    1.4334 H   0  0  0  0  0  0  0  0  0  0  0  0
    3.4768   -2.5478   -0.4685 H   0  0  0  0  0  0  0  0  0  0  0  0
    5.2027   -2.3541   -0.6881 H   0  0  0  0  0  0  0  0  0  0  0  0
    4.4393   -3.9704   -0.6073 H   0  0  0  0  0  0  0  0  0  0  0  0
    5.2173   -1.8486    3.0775 H   0  0  0  0  0  0  0  0  0  0  0  0
    5.6711   -1.0816    1.5257 H   0  0  0  0  0  0  0  0  0  0  0  0
    4.0297   -1.0511    2.1194 H   0  0  0  0  0  0  0  0  0  0  0  0
   -0.4880   -4.4502    3.5137 H   0  0  0  0  0  0  0  0  0  0  0  0
   -1.2762   -2.3712    2.3958 H   0  0  0  0  0  0  0  0  0  0  0  0
    1.3631   -8.1480    4.4008 H   0  0  0  0  0  0  0  0  0  0  0  0
    3.5135   -7.6140    5.1856 H   0  0  0  0  0  0  0  0  0  0  0  0
    5.2909   -4.2292    7.6271 H   0  0  0  0  0  0  0  0  0  0  0  0
    3.5359   -4.5236    7.6626 H   0  0  0  0  0  0  0  0  0  0  0  0
    4.7493   -6.1391    9.2288 H   0  0  0  0  0  0  0  0  0  0  0  0
    3.9835   -7.0025    7.8747 H   0  0  0  0  0  0  0  0  0  0  0  0
    6.4837   -7.5384    8.3525 H   0  0  0  0  0  0  0  0  0  0  0  0
    6.5484   -4.7402    5.6104 H   0  0  0  0  0  0  0  0  0  0  0  0
    5.9469   -5.9570    4.5374 H   0  0  0  0  0  0  0  0  0  0  0  0
    3.7022   -6.4707    1.5373 H   0  0  0  0  0  0  0  0  0  0  0  0
    5.6854   -6.7291    0.1546 H   0  0  0  0  0  0  0  0  0  0  0  0
    7.6976   -8.7024    3.4175 H   0  0  0  0  0  0  0  0  0  0  0  0
    5.6212   -8.6685    4.7297 H   0  0  0  0  0  0  0  0  0  0  0  0
    3.1617  -10.2928    4.1951 H   0  0  0  0  0  0  0  0  0  0  0  0
    3.6109  -12.1784    2.6781 H   0  0  0  0  0  0  0  0  0  0  0  0
    1.7719  -10.0293   -0.5615 H   0  0  0  0  0  0  0  0  0  0  0  0
    1.4731   -8.0737    0.8930 H   0  0  0  0  0  0  0  0  0  0  0  0
  1  2  1  0  0  0  0
  1 41  1  0  0  0  0
  1 42  1  0  0  0  0
  1 43  1  0  0  0  0
  2  3  1  0  0  0  0
  3  4  2  0  0  0  0
  3 12  1  0  0  0  0
  4  5  1  0  0  0  0
  4 44  1  0  0  0  0
  5  6  1  0  0  0  0
  5 10  2  0  0  0  0
  6  7  1  0  0  0  0
  7  8  1  0  0  0  0
  7  9  1  0  0  0  0
  7 45  1  0  0  0  0
  8 46  1  0  0  0  0
  8 47  1  0  0  0  0
  8 48  1  0  0  0  0
  9 49  1  0  0  0  0
  9 50  1  0  0  0  0
  9 51  1  0  0  0  0
 10 11  1  0  0  0  0
 10 13  1  0  0  0  0
 11 12  2  0  0  0  0
 11 52  1  0  0  0  0
 12 53  1  0  0  0  0
 13 14  2  0  0  0  0
 13 17  1  0  0  0  0
 15 14  1  0  0  0  0
 15 16  1  0  0  0  0
 15 34  1  0  0  0  0
 15 54  1  1  0  0  0
 16 17  1  0  0  0  0
 16 55  1  1  0  0  0
 16 27  1  0  0  0  0
 17 18  1  0  0  0  0
 18 19  2  0  0  0  0
 18 20  1  0  0  0  0
 20 21  1  0  0  0  0
 20 26  1  0  0  0  0
 21 22  1  0  0  0  0
 21 56  1  0  0  0  0
 21 57  1  0  0  0  0
 22 23  1  0  0  0  0
 22 58  1  0  0  0  0
 22 59  1  0  0  0  0
 23 24  1  0  0  0  0
 23 60  1  0  0  0  0
 24 25  2  0  0  0  0
 24 26  1  0  0  0  0
 26 61  1  0  0  0  0
 26 62  1  0  0  0  0
 27 28  2  0  0  0  0
 27 33  1  0  0  0  0
 28 29  1  0  0  0  0
 28 63  1  0  0  0  0
 29 30  2  0  0  0  0
 29 64  1  0  0  0  0
 30 31  1  0  0  0  0
 30 32  1  0  0  0  0
 32 33  2  0  0  0  0
 32 65  1  0  0  0  0
 33 66  1  0  0  0  0
 34 35  2  0  0  0  0
 34 40  1  0  0  0  0
 35 36  1  0  0  0  0
 35 67  1  0  0  0  0
 36 37  2  0  0  0  0
 36 68  1  0  0  0  0
 37 38  1  0  0  0  0
 37 39  1  0  0  0  0
 39 40  2  0  0  0  0
 39 69  1  0  0  0  0
 40 70  1  0  0  0  0
M  END
>  <DRUGBANK_ID>
DB17039

>  <COMMON_NAME>
Nutlin-3

>  <CAS_NUMBER>
548472-68-0

>  <UNII>
53IA0V845C

>  <SYNONYMS>
2-piperazinone, 4-(((4r,5s)-4,5-bis(4-chlorophenyl)-4,5-dihydro-2-(4-methoxy-2-(1-methylethoxy)phenyl)-1h-imidazol-1-yl)carbonyl)-, rel-

$$$$
