
 OpenBabel10282417153D

102106  0  0  1  0  0  0  0  0999 V2000
    0.3784   -0.3379   -0.0617 O   0  0  0  0  0  0  0  0  0  0  0  0
    5.1841   -1.9269    2.9756 O   0  0  0  0  0  0  0  0  0  0  0  0
    6.2733   -1.2892   -3.0803 O   0  0  0  0  0  0  0  0  0  0  0  0
    5.7395    1.3447    2.1839 O   0  0  0  0  0  0  0  0  0  0  0  0
    2.6219    3.6882    2.6832 O   0  0  0  0  0  0  0  0  0  0  0  0
    1.7974    2.9494    0.3739 O   0  0  0  0  0  0  0  0  0  0  0  0
    3.5994   -2.1960    1.2245 N   0  0  0  0  0  0  0  0  0  0  0  0
    2.2400    0.8349    0.7493 N   0  0  0  0  0  0  0  0  0  0  0  0
    6.0272   -1.6395   -0.7303 N   0  0  0  0  0  0  0  0  0  0  0  0
    3.2213    1.6285   -1.5974 N   0  0  0  0  0  0  0  0  0  0  0  0
    4.3980    3.5660    4.3716 N   0  0  0  0  0  0  0  0  0  0  0  0
    6.1469    4.0307   -0.2299 N   0  0  0  0  0  0  0  0  0  0  0  0
    6.6471    4.5715    3.0199 N   0  0  0  0  0  0  0  0  0  0  0  0
    2.2840   -3.1163   -0.5945 C   0  0  1  0  0  0  0  0  0  0  0  0
    2.2526   -3.7585    0.7882 C   0  0  1  0  0  0  0  0  0  0  0  0
    2.5963   -1.8658   -0.0069 C   0  0  1  0  0  0  0  0  0  0  0  0
    3.5499   -3.5752   -1.4392 C   0  0  0  0  0  0  0  0  0  0  0  0
    3.3906   -4.7639    0.6064 C   0  0  0  0  0  0  0  0  0  0  0  0
    2.6419   -2.8155    1.9799 C   0  0  0  0  0  0  0  0  0  0  0  0
    3.6305   -4.9466   -0.8938 C   0  0  0  0  0  0  0  0  0  0  0  0
    1.5366   -0.4562    0.3403 C   0  0  0  0  0  0  0  0  0  0  0  0
    4.9191   -1.9715    1.7598 C   0  0  0  0  0  0  0  0  0  0  0  0
    5.9324   -1.3722    0.8634 C   0  0  2  0  0  0  0  0  0  0  0  0
    5.1401   -0.2111    0.8415 C   0  0  0  0  0  0  0  0  0  0  0  0
    3.9970    1.5736    0.4958 C   0  0  1  0  0  0  0  0  0  0  0  0
    3.9402    0.1266    2.4924 C   0  0  0  0  0  0  0  0  0  0  0  0
    6.6766    0.3135   -0.2142 C   0  0  0  0  0  0  0  0  0  0  0  0
    4.0203   -0.3803   -0.2888 C   0  0  0  0  0  0  0  0  0  0  0  0
    6.5160    2.3293   -1.9032 C   0  0  0  0  0  0  0  0  0  0  0  0
    5.0065    1.0143   -2.2383 C   0  0  1  0  0  0  0  0  0  0  0  0
    5.7141   -0.8043   -2.0878 C   0  0  0  0  0  0  0  0  0  0  0  0
    4.4063    2.9529   -1.0318 C   0  0  0  0  0  0  0  0  0  0  0  0
    7.0440    2.3770    0.0301 C   0  0  0  0  0  0  0  0  0  0  0  0
    5.7934    4.0559   -2.4267 C   0  0  0  0  0  0  0  0  0  0  0  0
    4.6259    1.8588    1.9278 C   0  0  0  0  0  0  0  0  0  0  0  0
    7.0413    3.3705    1.2165 C   0  0  0  0  0  0  0  0  0  0  0  0
    6.0375    5.5546   -1.1815 C   0  0  0  0  0  0  0  0  0  0  0  0
    6.1386    5.4059    0.8952 C   0  0  0  0  0  0  0  0  0  0  0  0
    5.8769    2.8231    4.9524 C   0  0  0  0  0  0  0  0  0  0  0  0
    3.5883    4.6138   -0.8654 C   0  0  0  0  0  0  0  0  0  0  0  0
    7.4517    2.5459    4.2720 C   0  0  0  0  0  0  0  0  0  0  0  0
    6.4971    1.4704    4.6057 C   0  0  0  0  0  0  0  0  0  0  0  0
    3.5316    2.9584    3.1008 C   0  0  0  0  0  0  0  0  0  0  0  0
    3.5205    5.4163    0.4883 C   0  0  0  0  0  0  0  0  0  0  0  0
    2.9034    2.8380   -0.1016 C   0  0  0  0  0  0  0  0  0  0  0  0
    4.7455    3.5504    0.7789 C   0  0  0  0  0  0  0  0  0  0  0  0
    5.3381    3.8604    2.3433 C   0  0  0  0  0  0  0  0  0  0  0  0
    7.8257    4.8308    0.2903 C   0  0  0  0  0  0  0  0  0  0  0  0
    7.8741    5.0473    2.0764 C   0  0  0  0  0  0  0  0  0  0  0  0
    1.4640   -2.8099   -1.2525 H   0  0  0  0  0  0  0  0  0  0  0  0
    1.2411   -4.0842    0.9185 H   0  0  0  0  0  0  0  0  0  0  0  0
    1.5050    1.5354    0.6541 H   0  0  0  0  0  0  0  0  0  0  0  0
    6.8872   -2.1544   -0.7918 H   0  0  0  0  0  0  0  0  0  0  0  0
    2.5481    0.9685   -2.0299 H   0  0  0  0  0  0  0  0  0  0  0  0
    4.6867    4.5808    4.1188 H   0  0  0  0  0  0  0  0  0  0  0  0
    3.0284   -1.7004   -0.9906 H   0  0  0  0  0  0  0  0  0  0  0  0
    4.5081   -3.0586   -1.2772 H   0  0  0  0  0  0  0  0  0  0  0  0
    3.3864   -3.4616   -2.5201 H   0  0  0  0  0  0  0  0  0  0  0  0
    3.0777   -5.6584    1.1087 H   0  0  0  0  0  0  0  0  0  0  0  0
    4.3332   -4.4126    1.0668 H   0  0  0  0  0  0  0  0  0  0  0  0
    1.8884   -2.0470    2.2456 H   0  0  0  0  0  0  0  0  0  0  0  0
    3.1244   -3.1929    2.8641 H   0  0  0  0  0  0  0  0  0  0  0  0
    4.5832   -5.4155   -1.1263 H   0  0  0  0  0  0  0  0  0  0  0  0
    2.7992   -5.4775   -1.3468 H   0  0  0  0  0  0  0  0  0  0  0  0
    6.8566   -0.8916    1.3619 H   0  0  0  0  0  0  0  0  0  0  0  0
    4.6298    1.1617   -0.2223 H   0  0  0  0  0  0  0  0  0  0  0  0
    4.4382    0.6555    3.3502 H   0  0  0  0  0  0  0  0  0  0  0  0
    3.1151    0.9770    2.3939 H   0  0  0  0  0  0  0  0  0  0  0  0
    3.5065   -0.3450    3.3796 H   0  0  0  0  0  0  0  0  0  0  0  0
    7.0300    0.1255   -1.2506 H   0  0  0  0  0  0  0  0  0  0  0  0
    6.0787    0.9628   -0.7288 H   0  0  0  0  0  0  0  0  0  0  0  0
    7.8012    0.6340   -0.2015 H   0  0  0  0  0  0  0  0  0  0  0  0
    4.0576   -0.5948   -1.3297 H   0  0  0  0  0  0  0  0  0  0  0  0
    3.4863   -0.4711    0.6004 H   0  0  0  0  0  0  0  0  0  0  0  0
    3.0806    0.1361   -0.6622 H   0  0  0  0  0  0  0  0  0  0  0  0
    7.4792    2.0631   -2.3727 H   0  0  0  0  0  0  0  0  0  0  0  0
    4.8675    1.0639   -3.3525 H   0  0  0  0  0  0  0  0  0  0  0  0
    5.3420    2.8255   -0.9080 H   0  0  0  0  0  0  0  0  0  0  0  0
    4.4076    2.6941   -2.0728 H   0  0  0  0  0  0  0  0  0  0  0  0
    6.0766    2.0899    0.3778 H   0  0  0  0  0  0  0  0  0  0  0  0
    7.4170    1.6360    0.8023 H   0  0  0  0  0  0  0  0  0  0  0  0
    5.8630    4.1135   -3.5250 H   0  0  0  0  0  0  0  0  0  0  0  0
    4.6502    4.0303   -2.7179 H   0  0  0  0  0  0  0  0  0  0  0  0
    6.9221    2.7912    2.0788 H   0  0  0  0  0  0  0  0  0  0  0  0
    8.1615    3.2183    1.1923 H   0  0  0  0  0  0  0  0  0  0  0  0
    5.3416    6.3391   -1.3539 H   0  0  0  0  0  0  0  0  0  0  0  0
    7.0445    5.4213   -1.6267 H   0  0  0  0  0  0  0  0  0  0  0  0
    5.4893    5.7935    1.7840 H   0  0  0  0  0  0  0  0  0  0  0  0
    6.6882    6.3605    1.1116 H   0  0  0  0  0  0  0  0  0  0  0  0
    5.8736    3.1652    5.9593 H   0  0  0  0  0  0  0  0  0  0  0  0
    3.9369    5.1946   -1.6614 H   0  0  0  0  0  0  0  0  0  0  0  0
    2.5569    4.4230   -1.1112 H   0  0  0  0  0  0  0  0  0  0  0  0
    7.9590    2.6779    3.3019 H   0  0  0  0  0  0  0  0  0  0  0  0
    8.4125    2.5646    4.7829 H   0  0  0  0  0  0  0  0  0  0  0  0
    6.6370    0.4184    4.8750 H   0  0  0  0  0  0  0  0  0  0  0  0
    6.0704    0.7866    3.8970 H   0  0  0  0  0  0  0  0  0  0  0  0
    4.4336    5.2149    0.8480 H   0  0  0  0  0  0  0  0  0  0  0  0
    3.8727    6.4216    0.4995 H   0  0  0  0  0  0  0  0  0  0  0  0
    3.3920    5.0030    1.4881 H   0  0  0  0  0  0  0  0  0  0  0  0
    5.3913    2.9334    3.0798 H   0  0  0  0  0  0  0  0  0  0  0  0
    7.9706    5.7570   -0.2298 H   0  0  0  0  0  0  0  0  0  0  0  0
    8.0013    5.9749    2.6007 H   0  0  0  0  0  0  0  0  0  0  0  0
  1 21  2  0  0  0  0
  2 22  2  0  0  0  0
  3 31  2  0  0  0  0
  4 35  2  0  0  0  0
  5 43  2  0  0  0  0
  6 45  2  0  0  0  0
  7 16  1  0  0  0  0
  7 19  1  0  0  0  0
  7 22  1  0  0  0  0
  8 21  1  0  0  0  0
  8 52  1  0  0  0  0
  9 31  1  0  0  0  0
  9 53  1  0  0  0  0
 10 45  1  0  0  0  0
 10 54  1  0  0  0  0
 11 39  1  0  0  0  0
 11 43  1  0  0  0  0
 11 55  1  0  0  0  0
 12 46  2  0  0  0  0
 12 48  1  0  0  0  0
 13 47  2  0  0  0  0
 13 49  1  0  0  0  0
 14 15  1  0  0  0  0
 14 16  1  0  0  0  0
 14 17  1  0  0  0  0
 14 50  1  6  0  0  0
 15 18  1  0  0  0  0
 15 19  1  0  0  0  0
 15 51  1  1  0  0  0
 16 21  1  0  0  0  0
 16 56  1  6  0  0  0
 17 20  1  0  0  0  0
 17 57  1  0  0  0  0
 17 58  1  0  0  0  0
 18 20  1  0  0  0  0
 18 59  1  0  0  0  0
 18 60  1  0  0  0  0
 19 61  1  0  0  0  0
 19 62  1  0  0  0  0
 20 63  1  0  0  0  0
 20 64  1  0  0  0  0
 22 23  1  0  0  0  0
 23  9  1  0  0  0  0
 23 24  1  0  0  0  0
 23 65  1  1  0  0  0
 24 26  1  0  0  0  0
 24 27  1  0  0  0  0
 24 28  1  0  0  0  0
 25  8  1  0  0  0  0
 25 32  1  0  0  0  0
 25 35  1  0  0  0  0
 25 66  1  6  0  0  0
 26 67  1  0  0  0  0
 26 68  1  0  0  0  0
 26 69  1  0  0  0  0
 27 70  1  0  0  0  0
 27 71  1  0  0  0  0
 27 72  1  0  0  0  0
 28 73  1  0  0  0  0
 28 74  1  0  0  0  0
 28 75  1  0  0  0  0
 29 30  1  0  0  0  0
 29 33  1  0  0  0  0
 29 34  1  0  0  0  0
 29 76  1  0  0  0  0
 30 10  1  0  0  0  0
 30 31  1  0  0  0  0
 30 77  1  6  0  0  0
 32 40  1  0  0  0  0
 32 78  1  0  0  0  0
 32 79  1  0  0  0  0
 33 36  1  0  0  0  0
 33 80  1  0  0  0  0
 33 81  1  0  0  0  0
 34 37  1  0  0  0  0
 34 82  1  0  0  0  0
 34 83  1  0  0  0  0
 35 43  1  0  0  0  0
 36 38  1  0  0  0  0
 36 84  1  0  0  0  0
 36 85  1  0  0  0  0
 37 38  1  0  0  0  0
 37 86  1  0  0  0  0
 37 87  1  0  0  0  0
 38 88  1  0  0  0  0
 38 89  1  0  0  0  0
 39 41  1  0  0  0  0
 39 42  1  0  0  0  0
 39 90  1  0  0  0  0
 40 44  1  0  0  0  0
 40 91  1  0  0  0  0
 40 92  1  0  0  0  0
 41 42  1  0  0  0  0
 41 93  1  0  0  0  0
 41 94  1  0  0  0  0
 42 95  1  0  0  0  0
 42 96  1  0  0  0  0
 44 97  1  0  0  0  0
 44 98  1  0  0  0  0
 44 99  1  0  0  0  0
 45 46  1  0  0  0  0
 46 47  1  0  0  0  0
 47100  1  0  0  0  0
 48 49  2  0  0  0  0
 48101  1  0  0  0  0
 49102  1  0  0  0  0
M  END
>  <DRUGBANK_ID>
DB05521

>  <COMMON_NAME>
Telaprevir

>  <CAS_NUMBER>
402957-28-2

>  <UNII>
655M5O3W0U

>  <SYNONYMS>
(1S,3aR,6aS)-(2S)-2-cyclohexyl-N-(pyrazinylcarbonyl)glycyl-3-methyl-L-valyl-N-((1S)-1-((cyclopropylamino)oxoacetyl)butyl)octahydrocyclopenta(c)pyrrole-1-carboxamide; Telaprevir

$$$$
