
 OpenBabel10282417243D

 71 74  0  0  1  0  0  0  0  0999 V2000
    0.9800   -1.0244    2.2842 C   0  0  0  0  0  0  0  0  0  0  0  0
    0.5092   -1.1683    0.8336 C   0  0  2  0  0  0  0  0  0  0  0  0
    1.0499   -0.0248   -0.0607 C   0  0  0  0  0  0  0  0  0  0  0  0
    2.3466    0.4253    0.3360 O   0  0  0  0  0  0  0  0  0  0  0  0
   -0.9646   -1.2263    0.8340 N   0  0  0  0  0  0  0  0  0  0  0  0
   -1.6118   -2.3534    0.3136 C   0  0  0  0  0  0  0  0  0  0  0  0
   -1.2193   -3.6144    0.7665 C   0  0  0  0  0  0  0  0  0  0  0  0
   -1.9671   -4.7609    0.4739 C   0  0  0  0  0  0  0  0  0  0  0  0
   -3.0793   -4.5591   -0.3468 C   0  0  0  0  0  0  0  0  0  0  0  0
   -3.3756   -3.2989   -0.8952 C   0  0  0  0  0  0  0  0  0  0  0  0
   -2.6556   -2.2000   -0.5412 N   0  0  0  0  0  0  0  0  0  0  0  0
   -4.3955   -3.2217   -1.8273 N   0  0  0  0  0  0  0  0  0  0  0  0
   -5.7242   -3.7733   -1.5510 C   0  0  0  0  0  0  0  0  0  0  0  0
   -6.1373   -4.7251   -2.6852 C   0  0  0  0  0  0  0  0  0  0  0  0
   -6.0811   -4.0705   -3.9645 O   0  0  0  0  0  0  0  0  0  0  0  0
   -4.7479   -3.5911   -4.2253 C   0  0  0  0  0  0  0  0  0  0  0  0
   -4.2648   -2.5890   -3.1428 C   0  0  0  0  0  0  0  0  0  0  0  0
   -1.5396   -6.1029    0.9888 C   0  0  0  0  0  0  0  0  0  0  0  0
   -1.2176   -7.1827    0.1579 C   0  0  0  0  0  0  0  0  0  0  0  0
   -0.3875   -8.2443    0.4841 C   0  0  0  0  0  0  0  0  0  0  0  0
    0.2447   -9.0031   -0.5414 N   0  0  0  0  0  0  0  0  0  0  0  0
    0.3072   -8.8259   -1.9180 C   0  0  0  0  0  0  0  0  0  0  0  0
    0.6082   -9.7833   -2.6186 O   0  0  0  0  0  0  0  0  0  0  0  0
   -0.0306   -7.6159   -2.4869 N   0  0  0  0  0  0  0  0  0  0  0  0
    0.2931   -6.2769   -2.0221 C   0  0  0  0  0  0  0  0  0  0  0  0
   -0.9724   -5.5180   -2.3803 C   0  0  0  0  0  0  0  0  0  0  0  0
   -1.4089   -6.0735   -3.7205 C   0  0  1  0  0  0  0  0  0  0  0  0
   -0.8799   -5.1129   -4.7733 C   0  0  0  0  0  0  0  0  0  0  0  0
    0.3767   -5.5587   -5.4673 C   0  0  0  0  0  0  0  0  0  0  0  0
    0.1504   -6.6712   -6.1909 F   0  0  0  0  0  0  0  0  0  0  0  0
    0.7983   -4.5954   -6.3101 F   0  0  0  0  0  0  0  0  0  0  0  0
    1.3816   -5.8047   -4.6109 F   0  0  0  0  0  0  0  0  0  0  0  0
   -0.9233   -7.5461   -3.6475 C   0  0  0  0  0  0  0  0  0  0  0  0
   -0.2735   -8.5101    1.8353 C   0  0  0  0  0  0  0  0  0  0  0  0
   -0.8367   -7.5975    2.7586 C   0  0  0  0  0  0  0  0  0  0  0  0
   -1.4084   -6.3709    2.3434 C   0  0  0  0  0  0  0  0  0  0  0  0
   -2.0132   -5.3941    3.3086 C   0  0  0  0  0  0  0  0  0  0  0  0
    0.5636   -0.1210    2.7424 H   0  0  0  0  0  0  0  0  0  0  0  0
    2.0726   -0.9723    2.3498 H   0  0  0  0  0  0  0  0  0  0  0  0
    0.6706   -1.8847    2.8849 H   0  0  0  0  0  0  0  0  0  0  0  0
    0.9500   -2.0945    0.4429 H   0  0  0  0  0  0  0  0  0  0  0  0
    1.1406   -0.3792   -1.0938 H   0  0  0  0  0  0  0  0  0  0  0  0
    0.3844    0.8435   -0.0720 H   0  0  0  0  0  0  0  0  0  0  0  0
    2.2631    0.8302    1.2178 H   0  0  0  0  0  0  0  0  0  0  0  0
   -1.4650   -0.3640    0.6467 H   0  0  0  0  0  0  0  0  0  0  0  0
   -0.3581   -3.6881    1.4231 H   0  0  0  0  0  0  0  0  0  0  0  0
   -3.6452   -5.4229   -0.6822 H   0  0  0  0  0  0  0  0  0  0  0  0
   -6.4325   -2.9367   -1.5149 H   0  0  0  0  0  0  0  0  0  0  0  0
   -5.7761   -4.2894   -0.5874 H   0  0  0  0  0  0  0  0  0  0  0  0
   -5.4921   -5.6115   -2.7142 H   0  0  0  0  0  0  0  0  0  0  0  0
   -7.1661   -5.0664   -2.5307 H   0  0  0  0  0  0  0  0  0  0  0  0
   -4.7582   -3.1211   -5.2145 H   0  0  0  0  0  0  0  0  0  0  0  0
   -4.0823   -4.4587   -4.2833 H   0  0  0  0  0  0  0  0  0  0  0  0
   -4.9142   -1.7057   -3.1783 H   0  0  0  0  0  0  0  0  0  0  0  0
   -3.2397   -2.2785   -3.3688 H   0  0  0  0  0  0  0  0  0  0  0  0
   -1.6083   -7.2485   -0.8337 H   0  0  0  0  0  0  0  0  0  0  0  0
    0.6405   -9.8990   -0.2748 H   0  0  0  0  0  0  0  0  0  0  0  0
    1.1362   -5.8861   -2.5868 H   0  0  0  0  0  0  0  0  0  0  0  0
    0.6324   -6.2308   -0.9885 H   0  0  0  0  0  0  0  0  0  0  0  0
   -1.8249   -5.8055   -1.7937 H   0  0  0  0  0  0  0  0  0  0  0  0
   -0.8904   -4.4362   -2.2733 H   0  0  0  0  0  0  0  0  0  0  0  0
   -2.5102   -6.0588   -3.7665 H   0  0  0  0  0  0  0  0  0  0  0  0
   -1.6697   -4.9436   -5.5121 H   0  0  0  0  0  0  0  0  0  0  0  0
   -0.7103   -4.1230   -4.3238 H   0  0  0  0  0  0  0  0  0  0  0  0
   -1.7725   -8.2213   -3.4685 H   0  0  0  0  0  0  0  0  0  0  0  0
   -0.4152   -7.9065   -4.5372 H   0  0  0  0  0  0  0  0  0  0  0  0
    0.1938   -9.4219    2.1984 H   0  0  0  0  0  0  0  0  0  0  0  0
   -0.8304   -7.8450    3.8169 H   0  0  0  0  0  0  0  0  0  0  0  0
   -1.4785   -4.4400    3.2904 H   0  0  0  0  0  0  0  0  0  0  0  0
   -3.0570   -5.2150    3.0167 H   0  0  0  0  0  0  0  0  0  0  0  0
   -2.0047   -5.7728    4.3279 H   0  0  0  0  0  0  0  0  0  0  0  0
  1 38  1  0  0  0  0
  1 39  1  0  0  0  0
  1 40  1  0  0  0  0
  2  5  1  0  0  0  0
  2 41  1  6  0  0  0
  2  3  1  0  0  0  0
  2  1  1  0  0  0  0
  3  4  1  0  0  0  0
  3 42  1  0  0  0  0
  3 43  1  0  0  0  0
  4 44  1  0  0  0  0
  5  6  1  0  0  0  0
  5 45  1  0  0  0  0
  6  7  2  0  0  0  0
  6 11  1  0  0  0  0
  7  8  1  0  0  0  0
  7 46  1  0  0  0  0
  8  9  2  0  0  0  0
  8 18  1  0  0  0  0
  9 10  1  0  0  0  0
  9 47  1  0  0  0  0
 10 11  2  0  0  0  0
 10 12  1  0  0  0  0
 12 13  1  0  0  0  0
 12 17  1  0  0  0  0
 13 14  1  0  0  0  0
 13 48  1  0  0  0  0
 13 49  1  0  0  0  0
 14 15  1  0  0  0  0
 14 50  1  0  0  0  0
 14 51  1  0  0  0  0
 15 16  1  0  0  0  0
 16 17  1  0  0  0  0
 16 52  1  0  0  0  0
 16 53  1  0  0  0  0
 17 54  1  0  0  0  0
 17 55  1  0  0  0  0
 18 19  2  0  0  0  0
 18 36  1  0  0  0  0
 19 20  1  0  0  0  0
 19 56  1  0  0  0  0
 20 21  1  0  0  0  0
 20 34  2  0  0  0  0
 21 22  1  0  0  0  0
 21 57  1  0  0  0  0
 22 23  2  0  0  0  0
 22 24  1  0  0  0  0
 24 25  1  0  0  0  0
 24 33  1  0  0  0  0
 25 26  1  0  0  0  0
 25 58  1  0  0  0  0
 25 59  1  0  0  0  0
 26 60  1  0  0  0  0
 26 61  1  0  0  0  0
 27 26  1  0  0  0  0
 27 33  1  0  0  0  0
 27 62  1  6  0  0  0
 27 28  1  0  0  0  0
 28 29  1  0  0  0  0
 28 63  1  0  0  0  0
 28 64  1  0  0  0  0
 29 30  1  0  0  0  0
 29 31  1  0  0  0  0
 29 32  1  0  0  0  0
 33 65  1  0  0  0  0
 33 66  1  0  0  0  0
 34 35  1  0  0  0  0
 34 67  1  0  0  0  0
 35 36  2  0  0  0  0
 35 68  1  0  0  0  0
 36 37  1  0  0  0  0
 37 69  1  0  0  0  0
 37 70  1  0  0  0  0
 37 71  1  0  0  0  0
M  END
>  <DRUGBANK_ID>
DB17582

>  <COMMON_NAME>
Exarafenib

>  <CAS_NUMBER>
2639957-39-2

>  <UNII>
2VPX8HL8AB

>  <SYNONYMS>
KIN-2787 free base

$$$$
