
 OpenBabel10282417143D

 48 49  0  0  0  0  0  0  0  0999 V2000
   -2.7313    2.6752    0.1782 I   0  0  0  0  0  0  0  0  0  0  0  0
    4.4122    0.7594    3.8165 I   0  0  0  0  0  0  0  0  0  0  0  0
    2.2317    0.2894   -2.8912 I   0  0  0  0  0  0  0  0  0  0  0  0
    6.5450   -0.2810   -2.0369 I   0  0  0  0  0  0  0  0  0  0  0  0
   -0.8799   -3.5619    0.0576 I   0  0  0  0  0  0  0  0  0  0  0  0
    6.1435    5.3551   -0.2619 I   0  0  0  0  0  0  0  0  0  0  0  0
    1.8529    4.5781   -0.1923 O   0  0  0  0  0  0  0  0  0  0  0  0
    3.2280   -2.6215    0.4723 O   0  0  0  0  0  0  0  0  0  0  0  0
   -3.4588   -2.1047    0.4891 O   0  0  0  0  0  0  0  0  0  0  0  0
    3.9615    5.3190    1.8571 O   0  0  0  0  0  0  0  0  0  0  0  0
   -4.0924    0.0192    0.4785 O   0  0  0  0  0  0  0  0  0  0  0  0
    2.9685    3.7155    2.8931 O   0  0  0  0  0  0  0  0  0  0  0  0
    0.3285    2.8229   -0.4196 N   0  0  0  0  0  0  0  0  0  0  0  0
    4.6702   -0.8845    0.6625 N   0  0  0  0  0  0  0  0  0  0  0  0
    2.5271    1.5798    1.0415 C   0  0  0  0  0  0  0  0  0  0  0  0
    1.6207    0.5643    1.5944 C   0  0  0  0  0  0  0  0  0  0  0  0
    2.6258    2.3975   -0.2169 C   0  0  0  0  0  0  0  0  0  0  0  0
    2.0517   -0.6702    0.8782 C   0  0  0  0  0  0  0  0  0  0  0  0
    1.5794    3.3878   -0.2838 C   0  0  0  0  0  0  0  0  0  0  0  0
    3.3791   -1.4273    0.8058 C   0  0  0  0  0  0  0  0  0  0  0  0
   -0.1170    1.4264   -0.6985 C   0  0  0  0  0  0  0  0  0  0  0  0
    5.2942    0.4903    0.7210 C   0  0  0  0  0  0  0  0  0  0  0  0
   -1.3644    1.0064   -0.1240 C   0  0  0  0  0  0  0  0  0  0  0  0
    5.0687    1.5272    1.7791 C   0  0  0  0  0  0  0  0  0  0  0  0
    0.5279    0.3493   -1.3696 C   0  0  0  0  0  0  0  0  0  0  0  0
    5.9123    0.9770   -0.4524 C   0  0  0  0  0  0  0  0  0  0  0  0
   -1.7732   -0.4051    0.0526 C   0  0  0  0  0  0  0  0  0  0  0  0
    5.0690    2.9938    1.5355 C   0  0  0  0  0  0  0  0  0  0  0  0
    0.1977   -1.0266   -1.0911 C   0  0  0  0  0  0  0  0  0  0  0  0
    6.1321    2.3724   -0.6291 C   0  0  0  0  0  0  0  0  0  0  0  0
   -0.8809   -1.4104   -0.3229 C   0  0  0  0  0  0  0  0  0  0  0  0
    5.7245    3.3582    0.3332 C   0  0  0  0  0  0  0  0  0  0  0  0
   -3.1559   -0.8095    0.3913 C   0  0  0  0  0  0  0  0  0  0  0  0
    3.9276    4.0125    2.1913 C   0  0  0  0  0  0  0  0  0  0  0  0
   -2.7248   -2.7479    0.3999 H   0  0  0  0  0  0  0  0  0  0  0  0
    4.3807    5.5544    1.0146 H   0  0  0  0  0  0  0  0  0  0  0  0
   -0.3364    3.4745   -0.0001 H   0  0  0  0  0  0  0  0  0  0  0  0
    5.1589   -1.5418    0.0462 H   0  0  0  0  0  0  0  0  0  0  0  0
    3.3381    0.9483    0.8912 H   0  0  0  0  0  0  0  0  0  0  0  0
    2.6932    2.1386    1.9095 H   0  0  0  0  0  0  0  0  0  0  0  0
    1.7170    0.2941    2.6456 H   0  0  0  0  0  0  0  0  0  0  0  0
    0.6312    1.0152    1.5684 H   0  0  0  0  0  0  0  0  0  0  0  0
    2.6037    1.9679   -1.1813 H   0  0  0  0  0  0  0  0  0  0  0  0
    3.5895    2.8686   -0.3185 H   0  0  0  0  0  0  0  0  0  0  0  0
    1.2265   -1.3473    1.0724 H   0  0  0  0  0  0  0  0  0  0  0  0
    2.1276   -0.3799   -0.1553 H   0  0  0  0  0  0  0  0  0  0  0  0
    0.9636   -1.8047   -1.2270 H   0  0  0  0  0  0  0  0  0  0  0  0
    6.5524    2.7202   -1.5812 H   0  0  0  0  0  0  0  0  0  0  0  0
  1 23  1  0  0  0  0
  2 24  1  0  0  0  0
  3 25  1  0  0  0  0
  4 26  1  0  0  0  0
  5 31  1  0  0  0  0
  6 32  1  0  0  0  0
  7 19  2  0  0  0  0
  8 20  2  0  0  0  0
  9 33  1  0  0  0  0
  9 35  1  0  0  0  0
 10 34  1  0  0  0  0
 10 36  1  0  0  0  0
 11 33  2  0  0  0  0
 12 34  2  0  0  0  0
 13 19  1  0  0  0  0
 13 21  1  0  0  0  0
 13 37  1  0  0  0  0
 14 20  1  0  0  0  0
 14 22  1  0  0  0  0
 14 38  1  0  0  0  0
 15 16  1  0  0  0  0
 15 17  1  0  0  0  0
 15 39  1  0  0  0  0
 15 40  1  0  0  0  0
 16 18  1  0  0  0  0
 16 41  1  0  0  0  0
 16 42  1  0  0  0  0
 17 19  1  0  0  0  0
 17 43  1  0  0  0  0
 17 44  1  0  0  0  0
 18 20  1  0  0  0  0
 18 45  1  0  0  0  0
 18 46  1  0  0  0  0
 21 23  1  0  0  0  0
 21 25  2  0  0  0  0
 22 24  1  0  0  0  0
 22 26  2  0  0  0  0
 23 27  2  0  0  0  0
 24 28  2  0  0  0  0
 25 29  1  0  0  0  0
 26 30  1  0  0  0  0
 27 31  1  0  0  0  0
 27 33  1  0  0  0  0
 28 32  1  0  0  0  0
 28 34  1  0  0  0  0
 29 31  2  0  0  0  0
 29 47  1  0  0  0  0
 30 32  2  0  0  0  0
 30 48  1  0  0  0  0
M  END
>  <DRUGBANK_ID>
DB04711

>  <COMMON_NAME>
Iodipamide

>  <CAS_NUMBER>
606-17-7

>  <UNII>
TKQ858A3VW

>  <SYNONYMS>
3,3'-(adipoyldiimino)bis(2,4,6-triiodobenzoic acid); Adipiodona; Adipiodone; Adipiodonum; Iodipamide

$$$$
