
 OpenBabel10282417123D

 15 15  0  0  0  0  0  0  0  0999 V2000
    1.0924    0.1387   -0.0641 N   0  0  0  0  0  0  0  0  0  0  0  0
    0.3701    1.0034    0.7070 C   0  0  0  0  0  0  0  0  0  0  0  0
   -0.8529    0.9587    0.7477 O   0  0  0  0  0  0  0  0  0  0  0  0
    1.1204    1.9632    1.5350 C   0  0  0  0  0  0  0  0  0  0  0  0
    0.7042    2.1644    2.8457 C   0  0  0  0  0  0  0  0  0  0  0  0
    1.3044    3.0261    3.7046 N   0  0  0  0  0  0  0  0  0  0  0  0
    2.3537    3.7303    3.2191 C   0  0  0  0  0  0  0  0  0  0  0  0
    2.8315    3.5982    1.9214 C   0  0  0  0  0  0  0  0  0  0  0  0
    4.3103    4.6165    1.3429 Br  0  0  0  0  0  0  0  0  0  0  0  0
    2.2059    2.6996    1.0578 C   0  0  0  0  0  0  0  0  0  0  0  0
    0.5711   -0.5881   -0.5419 H   0  0  0  0  0  0  0  0  0  0  0  0
    2.0964    0.0399   -0.0106 H   0  0  0  0  0  0  0  0  0  0  0  0
   -0.1376    1.6130    3.2579 H   0  0  0  0  0  0  0  0  0  0  0  0
    2.8043    4.4217    3.9267 H   0  0  0  0  0  0  0  0  0  0  0  0
    2.5372    2.6001    0.0291 H   0  0  0  0  0  0  0  0  0  0  0  0
  1  2  1  0  0  0  0
  1 11  1  0  0  0  0
  1 12  1  0  0  0  0
  2  3  2  0  0  0  0
  2  4  1  0  0  0  0
  4  5  2  0  0  0  0
  4 10  1  0  0  0  0
  5  6  1  0  0  0  0
  5 13  1  0  0  0  0
  6  7  2  0  0  0  0
  7  8  1  0  0  0  0
  7 14  1  0  0  0  0
  8  9  1  0  0  0  0
  8 10  2  0  0  0  0
 10 15  1  0  0  0  0
M  END
>  <DRUGBANK_ID>
DB01854

>  <SECONDARY_ACCESSION_NUMBERS>
EXPT00757

>  <COMMON_NAME>
5-Bromonicotinamide

>  <CAS_NUMBER>
28733-43-9

>  <UNII>
FCT9J0CUP7

$$$$
