
 OpenBabel10282417163D

 47 47  0  0  0  0  0  0  0  0999 V2000
   -1.3367   -4.4336    0.2669 P   0  0  2  0  0  0  0  0  0  0  0  0
   -1.3578   -2.9287   -0.3333 O   0  0  0  0  0  0  0  0  0  0  0  0
   -2.6748   -5.1882   -0.1945 O   0  0  0  0  0  0  0  0  0  0  0  0
   -2.1116   -3.9849    1.5300 O   0  0  0  0  0  0  0  0  0  0  0  0
   -0.0011   -2.1863    1.7466 C   0  0  2  0  0  0  0  0  0  0  0  0
   -1.1513   -6.1029   -1.9871 C   0  0  0  0  0  0  0  0  0  0  0  0
   -0.4208   -4.9638   -1.2261 C   0  0  0  0  0  0  0  0  0  0  0  0
   -2.5372   -5.7275   -2.5976 C   0  0  0  0  0  0  0  0  0  0  0  0
   -0.2348   -2.2014    0.1785 C   0  0  0  0  0  0  0  0  0  0  0  0
    1.2049   -1.3074    2.1710 C   0  0  0  0  0  0  0  0  0  0  0  0
   -2.4684   -4.5439   -3.5420 C   0  0  0  0  0  0  0  0  0  0  0  0
    0.3365   -3.5128    2.4953 C   0  0  0  0  0  0  0  0  0  0  0  0
   -1.7069   -4.9334   -4.7903 C   0  0  0  0  0  0  0  0  0  0  0  0
    1.6573   -0.3154    1.1513 C   0  0  0  0  0  0  0  0  0  0  0  0
   -2.3648   -6.1388   -5.4490 C   0  0  0  0  0  0  0  0  0  0  0  0
    2.4408   -0.7573    0.0740 C   0  0  0  0  0  0  0  0  0  0  0  0
    1.2009    0.9962    1.2044 C   0  0  0  0  0  0  0  0  0  0  0  0
    2.7018    0.0978   -0.9907 C   0  0  0  0  0  0  0  0  0  0  0  0
    1.4872    1.8579    0.1475 C   0  0  0  0  0  0  0  0  0  0  0  0
    2.2238    1.4021   -0.9467 C   0  0  0  0  0  0  0  0  0  0  0  0
   -2.7688   -6.0738    0.2047 H   0  0  0  0  0  0  0  0  0  0  0  0
   -0.9204   -1.7664    2.1822 H   0  0  0  0  0  0  0  0  0  0  0  0
   -0.4936   -6.4669   -2.7830 H   0  0  0  0  0  0  0  0  0  0  0  0
   -1.2780   -6.9562   -1.3074 H   0  0  0  0  0  0  0  0  0  0  0  0
   -0.2022   -4.1472   -1.9209 H   0  0  0  0  0  0  0  0  0  0  0  0
    0.5501   -5.3342   -0.8777 H   0  0  0  0  0  0  0  0  0  0  0  0
   -2.9754   -6.6303   -3.0271 H   0  0  0  0  0  0  0  0  0  0  0  0
   -3.3538   -5.4613   -1.9310 H   0  0  0  0  0  0  0  0  0  0  0  0
    0.6444   -2.6242   -0.3128 H   0  0  0  0  0  0  0  0  0  0  0  0
   -0.3854   -1.1848   -0.1971 H   0  0  0  0  0  0  0  0  0  0  0  0
    0.9781   -0.8282    3.1314 H   0  0  0  0  0  0  0  0  0  0  0  0
    2.0774   -1.9424    2.3805 H   0  0  0  0  0  0  0  0  0  0  0  0
   -3.4891   -4.2306   -3.7964 H   0  0  0  0  0  0  0  0  0  0  0  0
   -2.0151   -3.6741   -3.0510 H   0  0  0  0  0  0  0  0  0  0  0  0
    0.4305   -3.2957    3.5665 H   0  0  0  0  0  0  0  0  0  0  0  0
   -0.3526   -4.3499    2.4913 H   0  0  0  0  0  0  0  0  0  0  0  0
    1.2763   -3.9304    2.1250 H   0  0  0  0  0  0  0  0  0  0  0  0
   -1.6882   -4.0835   -5.4756 H   0  0  0  0  0  0  0  0  0  0  0  0
   -0.6665   -5.1645   -4.5372 H   0  0  0  0  0  0  0  0  0  0  0  0
   -3.4194   -5.9266   -5.6547 H   0  0  0  0  0  0  0  0  0  0  0  0
   -1.8534   -6.4010   -6.3724 H   0  0  0  0  0  0  0  0  0  0  0  0
   -2.3260   -7.0325   -4.8167 H   0  0  0  0  0  0  0  0  0  0  0  0
    2.7798   -1.7892    0.0240 H   0  0  0  0  0  0  0  0  0  0  0  0
    0.5984    1.3389    2.0412 H   0  0  0  0  0  0  0  0  0  0  0  0
    3.2486   -0.2686   -1.8528 H   0  0  0  0  0  0  0  0  0  0  0  0
    1.1083    2.8730    0.1708 H   0  0  0  0  0  0  0  0  0  0  0  0
    2.4192    2.0724   -1.7809 H   0  0  0  0  0  0  0  0  0  0  0  0
  1  2  1  0  0  0  0
  1  3  1  0  0  0  0
  1  4  2  1  0  0  0
  1  7  1  0  0  0  0
  2  9  1  0  0  0  0
  3 21  1  0  0  0  0
  5 12  1  0  0  0  0
  5 22  1  1  0  0  0
  5 10  1  0  0  0  0
  5  9  1  0  0  0  0
  6  7  1  0  0  0  0
  6  8  1  0  0  0  0
  6 23  1  0  0  0  0
  6 24  1  0  0  0  0
  7 25  1  0  0  0  0
  7 26  1  0  0  0  0
  8 11  1  0  0  0  0
  8 27  1  0  0  0  0
  8 28  1  0  0  0  0
  9 29  1  0  0  0  0
  9 30  1  0  0  0  0
 10 14  1  0  0  0  0
 10 31  1  0  0  0  0
 10 32  1  0  0  0  0
 11 13  1  0  0  0  0
 11 33  1  0  0  0  0
 11 34  1  0  0  0  0
 12 35  1  0  0  0  0
 12 36  1  0  0  0  0
 12 37  1  0  0  0  0
 13 15  1  0  0  0  0
 13 38  1  0  0  0  0
 13 39  1  0  0  0  0
 14 16  2  0  0  0  0
 14 17  1  0  0  0  0
 15 40  1  0  0  0  0
 15 41  1  0  0  0  0
 15 42  1  0  0  0  0
 16 18  1  0  0  0  0
 16 43  1  0  0  0  0
 17 19  2  0  0  0  0
 17 44  1  0  0  0  0
 18 20  2  0  0  0  0
 18 45  1  0  0  0  0
 19 20  1  0  0  0  0
 19 46  1  0  0  0  0
 20 47  1  0  0  0  0
M  END
>  <DRUGBANK_ID>
DB06966

>  <COMMON_NAME>
Hexylphosphonic acid (S)-2-methyl-3-phenylpropyl ester

$$$$
