
 OpenBabel10282417213D

 43 45  0  0  0  0  0  0  0  0999 V2000
   -0.7435   -1.3112   -0.2567 C   0  0  0  0  0  0  0  0  0  0  0  0
   -1.3674   -2.2002   -1.1004 C   0  0  0  0  0  0  0  0  0  0  0  0
    1.6257   -0.1020   -0.1181 N   0  3  0  0  0  0  0  0  0  0  0  0
   -0.6014   -3.3421   -1.5480 C   0  0  0  0  0  0  0  0  0  0  0  0
   -2.6750   -1.8787   -1.6967 C   0  0  0  0  0  0  0  0  0  0  0  0
    0.7284   -1.3588    0.2211 C   0  0  0  0  0  0  0  0  0  0  0  0
   -0.1302   -3.4864   -3.2058 S   0  0  0  0  0  0  0  0  0  0  0  0
   -4.0298   -2.9480   -1.5670 S   0  0  0  0  0  0  0  0  0  0  0  0
   -1.4423   -0.0604    0.2535 C   0  0  0  0  0  0  0  0  0  0  0  0
   -3.0659   -0.7920   -2.4895 C   0  0  0  0  0  0  0  0  0  0  0  0
   -0.1116   -4.4169   -0.8222 C   0  0  0  0  0  0  0  0  0  0  0  0
    0.7611    1.2134    0.1580 C   0  0  0  0  0  0  0  0  0  0  0  0
    0.7298   -4.9348   -2.9249 C   0  0  0  0  0  0  0  0  0  0  0  0
   -5.0677   -1.8962   -2.4494 C   0  0  0  0  0  0  0  0  0  0  0  0
   -4.4327   -0.7841   -2.8730 C   0  0  0  0  0  0  0  0  0  0  0  0
    0.6619   -5.3232   -1.6072 C   0  0  0  0  0  0  0  0  0  0  0  0
   -0.7383    1.1781   -0.3026 C   0  0  3  0  0  0  0  0  0  0  0  0
    2.4446   -0.2100   -1.4736 C   0  0  0  0  0  0  0  0  0  0  0  0
    2.8445   -0.0419    0.8424 C   0  0  0  0  0  0  0  0  0  0  0  0
   -0.9987    1.3583   -1.7071 O   0  0  0  0  0  0  0  0  0  0  0  0
   -0.1867    0.5758   -2.5457 C   0  0  0  0  0  0  0  0  0  0  0  0
    0.7110   -1.4007    1.3194 H   0  0  0  0  0  0  0  0  0  0  0  0
    1.2956   -2.2210   -0.1290 H   0  0  0  0  0  0  0  0  0  0  0  0
   -2.5075   -0.0248    0.0016 H   0  0  0  0  0  0  0  0  0  0  0  0
   -1.4156   -0.0470    1.3522 H   0  0  0  0  0  0  0  0  0  0  0  0
   -2.4401    0.0118   -2.7986 H   0  0  0  0  0  0  0  0  0  0  0  0
   -0.2971   -4.5518    0.2369 H   0  0  0  0  0  0  0  0  0  0  0  0
    1.3066    2.0702   -0.2488 H   0  0  0  0  0  0  0  0  0  0  0  0
    0.7411    1.3065    1.2557 H   0  0  0  0  0  0  0  0  0  0  0  0
    1.2329   -5.4445   -3.7380 H   0  0  0  0  0  0  0  0  0  0  0  0
   -6.1139   -2.1566   -2.6257 H   0  0  0  0  0  0  0  0  0  0  0  0
   -4.8858    0.0268   -3.4579 H   0  0  0  0  0  0  0  0  0  0  0  0
    1.1303   -6.2252   -1.2301 H   0  0  0  0  0  0  0  0  0  0  0  0
   -1.2378    2.0489    0.1471 H   0  0  0  0  0  0  0  0  0  0  0  0
    2.9582    0.7519   -1.6282 H   0  0  0  0  0  0  0  0  0  0  0  0
    3.1775   -1.0174   -1.3841 H   0  0  0  0  0  0  0  0  0  0  0  0
    1.8702   -0.4989   -2.3518 H   0  0  0  0  0  0  0  0  0  0  0  0
    2.5130    0.0238    1.8756 H   0  0  0  0  0  0  0  0  0  0  0  0
    3.4445   -0.9447    0.6797 H   0  0  0  0  0  0  0  0  0  0  0  0
    3.4371    0.8418    0.5657 H   0  0  0  0  0  0  0  0  0  0  0  0
    0.7860    0.8956   -2.2677 H   0  0  0  0  0  0  0  0  0  0  0  0
   -0.3276   -0.4948   -2.4249 H   0  0  0  0  0  0  0  0  0  0  0  0
   -0.2555    0.7650   -3.6128 H   0  0  0  0  0  0  0  0  0  0  0  0
  2  1  2  0  0  0  0
  3  6  1  0  0  0  0
  3 12  1  0  0  0  0
  4  2  1  0  0  0  0
  5  2  1  0  0  0  0
  6  1  1  0  0  0  0
  6 22  1  0  0  0  0
  6 23  1  0  0  0  0
  7  4  1  0  0  0  0
  8  5  1  0  0  0  0
  9  1  1  0  0  0  0
  9 24  1  0  0  0  0
  9 25  1  0  0  0  0
 10  5  2  0  0  0  0
 10 26  1  0  0  0  0
 11  4  2  0  0  0  0
 11 27  1  0  0  0  0
 12 17  1  0  0  0  0
 12 28  1  0  0  0  0
 12 29  1  0  0  0  0
 13  7  1  0  0  0  0
 13 30  1  0  0  0  0
 14  8  1  0  0  0  0
 14 31  1  0  0  0  0
 15 10  1  0  0  0  0
 15 14  2  0  0  0  0
 15 32  1  0  0  0  0
 16 11  1  0  0  0  0
 16 13  2  0  0  0  0
 16 33  1  0  0  0  0
 17  9  1  0  0  0  0
 17 34  1  0  0  0  0
 18  3  1  0  0  0  0
 18 35  1  0  0  0  0
 18 36  1  0  0  0  0
 18 37  1  0  0  0  0
 19  3  1  0  0  0  0
 19 38  1  0  0  0  0
 19 39  1  0  0  0  0
 19 40  1  0  0  0  0
 20 17  1  0  0  0  0
 21 20  1  0  0  0  0
 21 41  1  0  0  0  0
 21 42  1  0  0  0  0
 21 43  1  0  0  0  0
M  CHG  1   3   1
M  END
>  <DRUGBANK_ID>
DB13850

>  <COMMON_NAME>
Timepidium

>  <CAS_NUMBER>
97094-64-9

>  <UNII>
C1WS2XH3K4

>  <SYNONYMS>
3-(di-2-thienylmethylene)-5-methoxy-1,1-dimethyl-piperidinium; Timepidium cation; Timepidium ion

$$$$
