LI4
 OpenBabel10282417173D

 33 35  0  0  0  0  0  0  0  0999 V2000
   -1.8710   -0.1494    0.0044 C   0  0  0  0  0  0  0  0  0  0  0  0
   -1.2879   -1.4145    0.0428 C   0  0  0  0  0  0  0  0  0  0  0  0
    0.0627   -1.5846    0.4063 C   0  0  0  0  0  0  0  0  0  0  0  0
    0.7226   -0.5071    1.0004 C   0  0  0  0  0  0  0  0  0  0  0  0
   -1.0704    0.9089    0.3552 C   0  0  0  0  0  0  0  0  0  0  0  0
    0.6226   -2.7904    0.0751 O   0  0  0  0  0  0  0  0  0  0  0  0
    2.0807   -0.6628    1.5163 N   0  0  0  0  0  0  0  0  0  0  0  0
    2.3120    0.8631   -0.7048 C   0  0  0  0  0  0  0  0  0  0  0  0
    2.6448   -0.3588   -1.4896 C   0  0  0  0  0  0  0  0  0  0  0  0
    3.0784    0.1143   -2.7007 C   0  0  0  0  0  0  0  0  0  0  0  0
    3.0024    1.5522   -3.0482 C   0  0  0  0  0  0  0  0  0  0  0  0
    2.4975    2.5759   -2.2055 C   0  0  0  0  0  0  0  0  0  0  0  0
    2.1622    2.2255   -0.9886 C   0  0  0  0  0  0  0  0  0  0  0  0
    2.6647   -1.9341   -1.2392 C   0  0  0  0  0  0  0  0  0  0  0  0
    3.2819   -2.7714   -2.1865 C   0  0  0  0  0  0  0  0  0  0  0  0
    3.7623   -2.2131   -3.3482 C   0  0  0  0  0  0  0  0  0  0  0  0
    3.6411   -0.8281   -3.6068 C   0  0  0  0  0  0  0  0  0  0  0  0
    0.1437    0.7392    0.9580 N   0  0  0  0  0  0  0  0  0  0  0  0
    2.0532   -2.7986   -0.0451 C   0  0  0  0  0  0  0  0  0  0  0  0
   -2.9100    0.0048   -0.2761 H   0  0  0  0  0  0  0  0  0  0  0  0
   -1.8932   -2.2746   -0.2240 H   0  0  0  0  0  0  0  0  0  0  0  0
   -1.4092    1.9348    0.1893 H   0  0  0  0  0  0  0  0  0  0  0  0
    2.5825    0.1901    1.7562 H   0  0  0  0  0  0  0  0  0  0  0  0
    2.7003   -0.9813    0.7694 H   0  0  0  0  0  0  0  0  0  0  0  0
    2.1583    0.9254    0.3237 H   0  0  0  0  0  0  0  0  0  0  0  0
    3.3637    1.8827   -4.0024 H   0  0  0  0  0  0  0  0  0  0  0  0
    2.4120    3.6297   -2.4684 H   0  0  0  0  0  0  0  0  0  0  0  0
    1.7950    2.8823   -0.1774 H   0  0  0  0  0  0  0  0  0  0  0  0
    3.3951   -3.8473   -2.0204 H   0  0  0  0  0  0  0  0  0  0  0  0
    4.2335   -2.8584   -4.0903 H   0  0  0  0  0  0  0  0  0  0  0  0
    4.0298   -0.4681   -4.5480 H   0  0  0  0  0  0  0  0  0  0  0  0
    2.5315   -2.6938    0.9377 H   0  0  0  0  0  0  0  0  0  0  0  0
    2.3261   -3.8616   -0.1736 H   0  0  0  0  0  0  0  0  0  0  0  0
  1  2  2  0  0  0  0
  1  5  1  0  0  0  0
  1 20  1  0  0  0  0
  2  3  1  0  0  0  0
  2 21  1  0  0  0  0
  3  4  2  0  0  0  0
  3  6  1  0  0  0  0
  4  7  1  0  0  0  0
  4 18  1  0  0  0  0
  5 18  2  0  0  0  0
  5 22  1  0  0  0  0
  6 19  1  0  0  0  0
  7 23  1  0  0  0  0
  7 24  1  0  0  0  0
  8  9  2  0  0  0  0
  8 13  1  0  0  0  0
  8 25  1  0  0  0  0
  9 10  1  0  0  0  0
  9 14  1  0  0  0  0
 10 11  2  0  0  0  0
 10 17  1  0  0  0  0
 11 12  1  0  0  0  0
 11 26  1  0  0  0  0
 12 13  2  0  0  0  0
 12 27  1  0  0  0  0
 13 28  1  0  0  0  0
 14 15  2  0  0  0  0
 14 19  1  0  0  0  0
 15 16  1  0  0  0  0
 15 29  1  0  0  0  0
 16 17  2  0  0  0  0
 16 30  1  0  0  0  0
 17 31  1  0  0  0  0
 19 32  1  0  0  0  0
 19 33  1  0  0  0  0
M  END
>  <DRUGBANK_ID>
DB08093

>  <COMMON_NAME>
3-(1-NAPHTHYLMETHOXY)PYRIDIN-2-AMINE

$$$$
