
 OpenBabel10282417233D

 28 29  0  0  1  0  0  0  0  0999 V2000
    1.1663   -0.0566    0.1463 C   0  0  0  0  0  0  0  0  0  0  0  0
    0.5140   -1.3103   -0.4367 C   0  0  2  0  0  0  0  0  0  0  0  0
   -0.9895   -1.2039   -0.1190 C   0  0  0  0  0  0  0  0  0  0  0  0
   -1.1877   -2.1353    1.4081 S   0  0  0  0  0  0  0  0  0  0  0  0
    0.2421   -3.0722    1.0385 C   0  0  0  0  0  0  0  0  0  0  0  0
    1.0862   -2.5504    0.2084 N   0  0  0  0  0  0  0  0  0  0  0  0
    0.3810   -4.3743    1.7313 C   0  0  0  0  0  0  0  0  0  0  0  0
    1.5849   -4.6921    2.3750 C   0  0  0  0  0  0  0  0  0  0  0  0
    1.6793   -5.8523    3.1621 C   0  0  0  0  0  0  0  0  0  0  0  0
    0.5785   -6.6983    3.2836 C   0  0  0  0  0  0  0  0  0  0  0  0
    0.6067   -7.8160    4.0645 O   0  0  0  0  0  0  0  0  0  0  0  0
   -0.6013   -6.4246    2.6062 C   0  0  0  0  0  0  0  0  0  0  0  0
   -0.6970   -5.2743    1.8252 C   0  0  0  0  0  0  0  0  0  0  0  0
   -1.8928   -5.1116    1.1763 O   0  0  0  0  0  0  0  0  0  0  0  0
    0.7689   -1.4600   -1.9668 C   0  0  0  0  0  0  0  0  0  0  0  0
    1.4798   -0.4853   -2.5809 O   0  0  0  0  0  0  0  0  0  0  0  0
    0.3627   -2.4170   -2.6280 O   0  0  0  0  0  0  0  0  0  0  0  0
    0.8874    0.0876    1.1947 H   0  0  0  0  0  0  0  0  0  0  0  0
    0.8065    0.8298   -0.3947 H   0  0  0  0  0  0  0  0  0  0  0  0
    2.2558   -0.0867    0.0845 H   0  0  0  0  0  0  0  0  0  0  0  0
   -1.3018   -0.1732    0.0842 H   0  0  0  0  0  0  0  0  0  0  0  0
   -1.6571   -1.6214   -0.8742 H   0  0  0  0  0  0  0  0  0  0  0  0
    2.4404   -4.0253    2.2996 H   0  0  0  0  0  0  0  0  0  0  0  0
    2.6066   -6.0701    3.6844 H   0  0  0  0  0  0  0  0  0  0  0  0
    1.4742   -7.8924    4.4930 H   0  0  0  0  0  0  0  0  0  0  0  0
   -1.4515   -7.0955    2.6949 H   0  0  0  0  0  0  0  0  0  0  0  0
   -1.8907   -4.2671    0.6927 H   0  0  0  0  0  0  0  0  0  0  0  0
    1.8638    0.2261   -2.0382 H   0  0  0  0  0  0  0  0  0  0  0  0
  1 18  1  0  0  0  0
  1 19  1  0  0  0  0
  1 20  1  0  0  0  0
  2  1  1  0  0  0  0
  2  3  1  0  0  0  0
  2  6  1  0  0  0  0
  2 15  1  6  0  0  0
  3  4  1  0  0  0  0
  3 21  1  0  0  0  0
  3 22  1  0  0  0  0
  4  5  1  0  0  0  0
  5  6  2  0  0  0  0
  5  7  1  0  0  0  0
  7  8  2  0  0  0  0
  7 13  1  0  0  0  0
  8  9  1  0  0  0  0
  8 23  1  0  0  0  0
  9 10  2  0  0  0  0
  9 24  1  0  0  0  0
 10 11  1  0  0  0  0
 10 12  1  0  0  0  0
 11 25  1  0  0  0  0
 12 13  2  0  0  0  0
 12 26  1  0  0  0  0
 13 14  1  0  0  0  0
 14 27  1  0  0  0  0
 15 16  1  0  0  0  0
 15 17  2  0  0  0  0
 16 28  1  0  0  0  0
M  END
>  <DRUGBANK_ID>
DB16132

>  <COMMON_NAME>
Deferitrin

>  <CAS_NUMBER>
239101-33-8

>  <UNII>
T69Y9LDN44

>  <SYNONYMS>
Deferitrin

$$$$
