
 OpenBabel10282417193D

121123  0  0  1  0  0  0  0  0999 V2000
   -0.0312   -9.5637   -0.5720 C   0  0  0  0  0  0  0  0  0  0  0  0
    1.2982   -9.8072    0.1722 C   0  0  0  0  0  0  0  0  0  0  0  0
    2.5011   -9.3926   -0.7175 C   0  0  2  0  0  0  0  0  0  0  0  0
    2.7393  -10.5739   -1.6256 C   0  0  0  0  0  0  0  0  0  0  0  0
    3.9937   -9.0754   -0.1802 C   0  0  1  0  0  0  0  0  0  0  0  0
    4.5765   -8.1890   -1.5315 C   0  0  0  0  0  0  0  0  0  0  0  0
    4.4214   -8.3838   -2.7344 O   0  0  0  0  0  0  0  0  0  0  0  0
    5.4803   -7.2495   -1.1206 N   0  0  0  0  0  0  0  0  0  0  0  0
    4.8941   -5.9944   -0.6118 C   0  0  2  0  0  0  0  0  0  0  0  0
    3.5725   -6.2901    0.0645 C   0  0  0  0  0  0  0  0  0  0  0  0
    2.6027   -6.8067   -0.4601 O   0  0  0  0  0  0  0  0  0  0  0  0
    3.4158   -6.3229    1.3637 N   0  0  0  0  0  0  0  0  0  0  0  0
    2.1314   -7.1414    2.3020 C   0  0  2  0  0  0  0  0  0  0  0  0
    2.4818   -8.6611    3.3731 C   0  0  0  0  0  0  0  0  0  0  0  0
    2.2020   -9.8009    2.9972 O   0  0  0  0  0  0  0  0  0  0  0  0
    3.1429   -8.5697    4.6177 N   0  0  0  0  0  0  0  0  0  0  0  0
    3.4652   -9.5501    5.6365 C   0  0  1  0  0  0  0  0  0  0  0  0
    4.5522   -8.9541    6.6703 C   0  0  0  0  0  0  0  0  0  0  0  0
    4.4979   -7.6921    7.5868 C   0  0  0  0  0  0  0  0  0  0  0  0
    3.1220   -7.3660    8.7051 S   0  0  0  0  0  0  0  0  0  0  0  0
    1.8015   -7.6079    7.5162 C   0  0  0  0  0  0  0  0  0  0  0  0
    1.1522   -6.5841    6.6791 C   0  0  0  0  0  0  0  0  0  0  0  0
    2.3131   -6.0995    5.9588 C   0  0  0  0  0  0  0  0  0  0  0  0
    3.2369   -5.4319    6.4951 O   0  0  0  0  0  0  0  0  0  0  0  0
    2.4326   -6.4898    4.6937 N   0  0  0  0  0  0  0  0  0  0  0  0
    3.8070   -6.3360    3.6535 C   0  0  1  0  0  0  0  0  0  0  0  0
    4.5878   -7.8677    2.6232 C   0  0  0  0  0  0  0  0  0  0  0  0
    5.4580   -8.6028    3.1239 O   0  0  0  0  0  0  0  0  0  0  0  0
    3.9884   -8.3740    1.2748 N   0  0  0  0  0  0  0  0  0  0  0  0
    3.3602   -4.8197    2.9490 C   0  0  0  0  0  0  0  0  0  0  0  0
    2.7895   -3.7634    3.7417 C   0  0  0  0  0  0  0  0  0  0  0  0
    1.9180   -3.7109    4.7860 C   0  0  0  0  0  0  0  0  0  0  0  0
    1.9949   -2.4613    5.2799 N   0  0  0  0  0  0  0  0  0  0  0  0
    2.3693   -1.6646    4.2429 C   0  0  0  0  0  0  0  0  0  0  0  0
    2.7983   -2.4754    3.2108 C   0  0  0  0  0  0  0  0  0  0  0  0
    3.1759   -1.9746    1.9563 C   0  0  0  0  0  0  0  0  0  0  0  0
    3.1495   -0.6062    1.8134 C   0  0  0  0  0  0  0  0  0  0  0  0
    2.7593    0.2005    2.8890 C   0  0  0  0  0  0  0  0  0  0  0  0
    2.3637   -0.3035    4.1316 C   0  0  0  0  0  0  0  0  0  0  0  0
    2.0731  -10.0678    6.1671 C   0  0  0  0  0  0  0  0  0  0  0  0
    1.0204   -9.6782    5.6469 O   0  0  0  0  0  0  0  0  0  0  0  0
    2.0717  -10.7941    7.3695 N   0  0  0  0  0  0  0  0  0  0  0  0
    3.1221  -11.7842    7.4429 C   0  0  0  0  0  0  0  0  0  0  0  0
    0.8283  -11.0025    8.2696 C   0  0  1  0  0  0  0  0  0  0  0  0
    0.5618  -10.0677    9.5581 C   0  0  0  0  0  0  0  0  0  0  0  0
    0.0346   -8.6235    9.4501 C   0  0  0  0  0  0  0  0  0  0  0  0
   -1.0579   -8.3192    8.3918 C   0  0  0  0  0  0  0  0  0  0  0  0
   -2.3012   -8.7985    8.9262 N   0  0  0  0  0  0  0  0  0  0  0  0
   -0.4386  -11.2330    7.4377 C   0  0  0  0  0  0  0  0  0  0  0  0
   -0.2352  -12.3023    6.5268 O   0  0  0  0  0  0  0  0  0  0  0  0
    0.8533   -7.1380    1.5540 C   0  0  0  0  0  0  0  0  0  0  0  0
   -0.2366   -7.4816    2.5432 C   0  0  0  0  0  0  0  0  0  0  0  0
   -1.1793   -6.7157    2.7113 O   0  0  0  0  0  0  0  0  0  0  0  0
   -0.0949   -8.5308    3.3982 N   0  0  0  0  0  0  0  0  0  0  0  0
    4.3425   -4.8972   -1.5686 C   0  0  2  0  0  0  0  0  0  0  0  0
    2.7611   -4.7673   -1.6568 C   0  0  0  0  0  0  0  0  0  0  0  0
    4.7983   -5.1285   -2.9847 C   0  0  0  0  0  0  0  0  0  0  0  0
    4.3844   -3.9801   -3.8703 C   0  0  0  0  0  0  0  0  0  0  0  0
   -0.1162   -8.5376   -0.9667 H   0  0  0  0  0  0  0  0  0  0  0  0
   -0.8859   -9.6985    0.0996 H   0  0  0  0  0  0  0  0  0  0  0  0
   -0.1165  -10.2520   -1.4110 H   0  0  0  0  0  0  0  0  0  0  0  0
    1.1780   -9.3356    1.1289 H   0  0  0  0  0  0  0  0  0  0  0  0
    1.4081  -10.8291    0.5222 H   0  0  0  0  0  0  0  0  0  0  0  0
    2.1378   -8.5738   -1.3761 H   0  0  0  0  0  0  0  0  0  0  0  0
    2.0519  -10.5670   -2.4693 H   0  0  0  0  0  0  0  0  0  0  0  0
    3.7599  -10.5797   -2.0055 H   0  0  0  0  0  0  0  0  0  0  0  0
    2.6255  -11.4674   -1.0163 H   0  0  0  0  0  0  0  0  0  0  0  0
    4.6322   -9.9346   -0.0846 H   0  0  0  0  0  0  0  0  0  0  0  0
    6.0639   -7.7777   -0.4783 H   0  0  0  0  0  0  0  0  0  0  0  0
    5.7047   -5.6379    0.0482 H   0  0  0  0  0  0  0  0  0  0  0  0
    4.3799   -6.1620    1.7072 H   0  0  0  0  0  0  0  0  0  0  0  0
    1.7638   -6.3123    2.8751 H   0  0  0  0  0  0  0  0  0  0  0  0
    3.2715   -7.6717    5.0421 H   0  0  0  0  0  0  0  0  0  0  0  0
    3.9195  -10.3612    5.0759 H   0  0  0  0  0  0  0  0  0  0  0  0
    5.4260   -8.7233    6.0417 H   0  0  0  0  0  0  0  0  0  0  0  0
    4.8700   -9.7560    7.3377 H   0  0  0  0  0  0  0  0  0  0  0  0
    4.6855   -6.7994    7.0004 H   0  0  0  0  0  0  0  0  0  0  0  0
    5.3714   -7.6873    8.2525 H   0  0  0  0  0  0  0  0  0  0  0  0
    0.8355   -7.8516    7.8042 H   0  0  0  0  0  0  0  0  0  0  0  0
    1.9098   -8.6393    7.4088 H   0  0  0  0  0  0  0  0  0  0  0  0
    0.6699   -5.8459    7.3332 H   0  0  0  0  0  0  0  0  0  0  0  0
    0.3271   -7.0160    6.0643 H   0  0  0  0  0  0  0  0  0  0  0  0
    1.5070   -6.8767    4.4013 H   0  0  0  0  0  0  0  0  0  0  0  0
    4.5868   -6.0830    4.3727 H   0  0  0  0  0  0  0  0  0  0  0  0
    3.1737   -7.8635    1.0237 H   0  0  0  0  0  0  0  0  0  0  0  0
    4.1876   -4.4304    2.3428 H   0  0  0  0  0  0  0  0  0  0  0  0
    2.4957   -4.8271    2.2175 H   0  0  0  0  0  0  0  0  0  0  0  0
    1.3546   -4.4050    5.3575 H   0  0  0  0  0  0  0  0  0  0  0  0
    1.6559   -2.2144    6.1970 H   0  0  0  0  0  0  0  0  0  0  0  0
    3.4634   -2.6240    1.1295 H   0  0  0  0  0  0  0  0  0  0  0  0
    3.4440   -0.1780    0.8622 H   0  0  0  0  0  0  0  0  0  0  0  0
    2.7504    1.2713    2.7596 H   0  0  0  0  0  0  0  0  0  0  0  0
    2.0532    0.2986    4.9690 H   0  0  0  0  0  0  0  0  0  0  0  0
    3.4994  -11.8379    8.4599 H   0  0  0  0  0  0  0  0  0  0  0  0
    2.7129  -12.7261    7.0776 H   0  0  0  0  0  0  0  0  0  0  0  0
    3.9560  -11.5549    6.7771 H   0  0  0  0  0  0  0  0  0  0  0  0
    1.0545  -11.9680    8.7430 H   0  0  0  0  0  0  0  0  0  0  0  0
   -0.1428  -10.5625   10.2316 H   0  0  0  0  0  0  0  0  0  0  0  0
    1.5185  -10.0293   10.1069 H   0  0  0  0  0  0  0  0  0  0  0  0
   -0.1179   -7.9180   10.2792 H   0  0  0  0  0  0  0  0  0  0  0  0
    1.0136   -8.2190    9.3531 H   0  0  0  0  0  0  0  0  0  0  0  0
   -1.1395   -7.2602    8.1065 H   0  0  0  0  0  0  0  0  0  0  0  0
   -0.8797   -8.7752    7.4202 H   0  0  0  0  0  0  0  0  0  0  0  0
   -2.9801   -8.8732    8.1731 H   0  0  0  0  0  0  0  0  0  0  0  0
   -2.1471   -9.7349    9.2879 H   0  0  0  0  0  0  0  0  0  0  0  0
   -1.3059  -11.4226    8.0731 H   0  0  0  0  0  0  0  0  0  0  0  0
   -0.6910  -10.4015    6.7970 H   0  0  0  0  0  0  0  0  0  0  0  0
    0.3821  -11.9235    5.8689 H   0  0  0  0  0  0  0  0  0  0  0  0
    0.6735   -6.1379    1.1381 H   0  0  0  0  0  0  0  0  0  0  0  0
    0.9834   -7.7020    0.6735 H   0  0  0  0  0  0  0  0  0  0  0  0
    0.5646   -9.3138    3.3610 H   0  0  0  0  0  0  0  0  0  0  0  0
   -0.7500   -8.6679    4.1561 H   0  0  0  0  0  0  0  0  0  0  0  0
    4.7059   -3.9531   -1.1403 H   0  0  0  0  0  0  0  0  0  0  0  0
    2.3637   -4.0172   -2.3210 H   0  0  0  0  0  0  0  0  0  0  0  0
    2.3376   -5.6992   -2.0741 H   0  0  0  0  0  0  0  0  0  0  0  0
    2.3119   -4.5319   -0.6799 H   0  0  0  0  0  0  0  0  0  0  0  0
    5.8757   -5.3015   -3.0257 H   0  0  0  0  0  0  0  0  0  0  0  0
    4.2811   -6.0148   -3.3619 H   0  0  0  0  0  0  0  0  0  0  0  0
    4.7124   -3.0273   -3.4468 H   0  0  0  0  0  0  0  0  0  0  0  0
    4.7920   -4.1379   -4.8635 H   0  0  0  0  0  0  0  0  0  0  0  0
    3.2978   -3.9500   -3.9932 H   0  0  0  0  0  0  0  0  0  0  0  0
  1  2  1  0  0  0  0
  1 59  1  0  0  0  0
  1 60  1  0  0  0  0
  1 61  1  0  0  0  0
  2 62  1  0  0  0  0
  2 63  1  0  0  0  0
  3 64  1  6  0  0  0
  3  4  1  0  0  0  0
  3  2  1  0  0  0  0
  4 65  1  0  0  0  0
  4 66  1  0  0  0  0
  4 67  1  0  0  0  0
  5  3  1  0  0  0  0
  5  6  1  0  0  0  0
  5 29  1  0  0  0  0
  5 68  1  1  0  0  0
  6  7  2  0  0  0  0
  6  8  1  0  0  0  0
  8  9  1  0  0  0  0
  8 69  1  0  0  0  0
  9 10  1  0  0  0  0
  9 70  1  1  0  0  0
 10 11  2  0  0  0  0
 10 12  1  0  0  0  0
 12 13  1  0  0  0  0
 12 71  1  0  0  0  0
 13 14  1  0  0  0  0
 13 51  1  0  0  0  0
 13 72  1  1  0  0  0
 14 15  2  0  0  0  0
 14 16  1  0  0  0  0
 16 17  1  0  0  0  0
 16 73  1  0  0  0  0
 17 18  1  0  0  0  0
 17 74  1  6  0  0  0
 17 40  1  0  0  0  0
 18 19  1  0  0  0  0
 18 75  1  0  0  0  0
 18 76  1  0  0  0  0
 19 20  1  0  0  0  0
 19 77  1  0  0  0  0
 19 78  1  0  0  0  0
 20 21  1  0  0  0  0
 21 22  1  0  0  0  0
 21 79  1  0  0  0  0
 21 80  1  0  0  0  0
 22 23  1  0  0  0  0
 22 81  1  0  0  0  0
 22 82  1  0  0  0  0
 23 24  2  0  0  0  0
 23 25  1  0  0  0  0
 25 26  1  0  0  0  0
 25 83  1  0  0  0  0
 26 27  1  0  0  0  0
 26 84  1  1  0  0  0
 26 30  1  0  0  0  0
 27 28  2  0  0  0  0
 27 29  1  0  0  0  0
 29 85  1  0  0  0  0
 30 31  1  0  0  0  0
 30 86  1  0  0  0  0
 30 87  1  0  0  0  0
 31 32  2  0  0  0  0
 31 35  1  0  0  0  0
 32 33  1  0  0  0  0
 32 88  1  0  0  0  0
 33 34  1  0  0  0  0
 33 89  1  0  0  0  0
 34 35  1  0  0  0  0
 34 39  2  0  0  0  0
 35 36  2  0  0  0  0
 36 37  1  0  0  0  0
 36 90  1  0  0  0  0
 37 38  2  0  0  0  0
 37 91  1  0  0  0  0
 38 39  1  0  0  0  0
 38 92  1  0  0  0  0
 39 93  1  0  0  0  0
 40 41  2  0  0  0  0
 40 42  1  0  0  0  0
 42 43  1  0  0  0  0
 43 94  1  0  0  0  0
 43 95  1  0  0  0  0
 43 96  1  0  0  0  0
 44 42  1  0  0  0  0
 44 45  1  0  0  0  0
 44 49  1  0  0  0  0
 44 97  1  1  0  0  0
 45 46  1  0  0  0  0
 45 98  1  0  0  0  0
 45 99  1  0  0  0  0
 46 47  1  0  0  0  0
 46100  1  0  0  0  0
 46101  1  0  0  0  0
 47 48  1  0  0  0  0
 47102  1  0  0  0  0
 47103  1  0  0  0  0
 48104  1  0  0  0  0
 48105  1  0  0  0  0
 49 50  1  0  0  0  0
 49106  1  0  0  0  0
 49107  1  0  0  0  0
 50108  1  0  0  0  0
 51 52  1  0  0  0  0
 51109  1  0  0  0  0
 51110  1  0  0  0  0
 52 53  2  0  0  0  0
 52 54  1  0  0  0  0
 54111  1  0  0  0  0
 54112  1  0  0  0  0
 55 57  1  0  0  0  0
 55113  1  1  0  0  0
 55 56  1  0  0  0  0
 55  9  1  0  0  0  0
 56114  1  0  0  0  0
 56115  1  0  0  0  0
 56116  1  0  0  0  0
 57 58  1  0  0  0  0
 57117  1  0  0  0  0
 57118  1  0  0  0  0
 58119  1  0  0  0  0
 58120  1  0  0  0  0
 58121  1  0  0  0  0
M  END
>  <DRUGBANK_ID>
DB12292

>  <COMMON_NAME>
Barusiban

>  <CAS_NUMBER>
285571-64-4

>  <UNII>
UX33I93GLS

>  <SYNONYMS>
Barusiban

$$$$
