
 OpenBabel10282417183D

 20 19  0  0  1  0  0  0  0  0999 V2000
    0.2232    1.3305   -3.3834 O   0  0  0  0  0  0  0  0  0  0  0  0
    0.5914    2.4681   -2.6175 C   0  0  0  0  0  0  0  0  0  0  0  0
    0.9586    2.3144   -1.1505 C   0  0  2  0  0  0  0  0  0  0  0  0
    0.1986    1.1386   -0.5585 C   0  0  0  0  0  0  0  0  0  0  0  0
    0.3403   -0.2471   -1.1667 C   0  0  0  0  0  0  0  0  0  0  0  0
    0.6326    3.6153   -3.1629 O   0  0  0  0  0  0  0  0  0  0  0  0
    0.6035    3.5426   -0.4252 N   0  0  0  0  0  0  0  0  0  0  0  0
    2.0176   -1.0590   -0.5592 Se  0  0  0  0  0  0  0  0  0  0  0  0
    3.5260    0.0589   -1.1220 C   0  0  0  0  0  0  0  0  0  0  0  0
    0.1908    0.4279   -2.9542 H   0  0  0  0  0  0  0  0  0  0  0  0
    2.0106    2.1397   -1.0626 H   0  0  0  0  0  0  0  0  0  0  0  0
    0.1911    1.0607    0.5086 H   0  0  0  0  0  0  0  0  0  0  0  0
   -0.7171    1.5818   -0.8902 H   0  0  0  0  0  0  0  0  0  0  0  0
   -0.4832   -0.8574   -0.8595 H   0  0  0  0  0  0  0  0  0  0  0  0
    0.3478   -0.1692   -2.2339 H   0  0  0  0  0  0  0  0  0  0  0  0
    1.1135    4.3316   -0.8224 H   0  0  0  0  0  0  0  0  0  0  0  0
   -0.3993    3.7091   -0.5090 H   0  0  0  0  0  0  0  0  0  0  0  0
    3.5335    0.1368   -2.1892 H   0  0  0  0  0  0  0  0  0  0  0  0
    3.4262    1.0344   -0.6939 H   0  0  0  0  0  0  0  0  0  0  0  0
    4.4416   -0.3843   -0.7903 H   0  0  0  0  0  0  0  0  0  0  0  0
  1  2  1  0  0  0  0
  1 10  1  0  0  0  0
  2  6  2  0  0  0  0
  3  7  1  0  0  0  0
  3 11  1  1  0  0  0
  3  4  1  0  0  0  0
  3  2  1  0  0  0  0
  4  5  1  0  0  0  0
  4 12  1  0  0  0  0
  4 13  1  0  0  0  0
  5  8  1  0  0  0  0
  5 14  1  0  0  0  0
  5 15  1  0  0  0  0
  7 16  1  0  0  0  0
  7 17  1  0  0  0  0
  8  9  1  0  0  0  0
  9 18  1  0  0  0  0
  9 19  1  0  0  0  0
  9 20  1  0  0  0  0
M  END
>  <DRUGBANK_ID>
DB11142

>  <COMMON_NAME>
Selenomethionine

>  <CAS_NUMBER>
3211-76-5

>  <UNII>
964MRK2PEL

$$$$
