251
 OpenBabel10282417103D

 67 71  0  0  0  0  0  0  0  0999 V2000
    0.2014    1.1519   -0.0819 C   0  0  1  0  0  0  0  0  0  0  0  0
    0.2589    1.8856   -1.4456 C   0  0  0  0  0  0  0  0  0  0  0  0
    0.1086    2.1836    1.0722 C   0  0  0  0  0  0  0  0  0  0  0  0
   -0.9463    0.3321   -0.2050 O   0  0  0  0  0  0  0  0  0  0  0  0
   -0.0584    1.6765    2.4132 N   0  0  0  0  0  0  0  0  0  0  0  0
   -0.9206    1.2537    4.3785 N   0  0  0  0  0  0  0  0  0  0  0  0
    1.3241    0.2591    0.0942 O   0  0  0  0  0  0  0  0  0  0  0  0
   -5.2882    3.3073    1.7223 N   0  0  0  0  0  0  0  0  0  0  0  0
   -0.7131    2.8036   -1.9248 C   0  0  0  0  0  0  0  0  0  0  0  0
    0.8875    0.9396    3.0226 N   0  0  0  0  0  0  0  0  0  0  0  0
   -5.8359    6.1562    1.6383 N   0  0  0  0  0  0  0  0  0  0  0  0
    0.2784    0.6387    4.1743 C   0  0  0  0  0  0  0  0  0  0  0  0
   -1.0915    1.9315    3.2667 C   0  0  0  0  0  0  0  0  0  0  0  0
    1.3114    1.5806   -2.3294 C   0  0  0  0  0  0  0  0  0  0  0  0
   -0.6702    3.3122   -3.2269 C   0  0  0  0  0  0  0  0  0  0  0  0
   -4.7179    2.0500    1.7351 C   0  0  0  0  0  0  0  0  0  0  0  0
   -0.6284   -1.0280    0.1064 C   0  0  1  0  0  0  0  0  0  0  0  0
   -5.9869    3.8493    0.5426 C   0  0  0  0  0  0  0  0  0  0  0  0
   -4.9949    4.1321    2.8923 C   0  0  0  0  0  0  0  0  0  0  0  0
   -5.8059    5.3744    0.3833 C   0  0  0  0  0  0  0  0  0  0  0  0
   -4.7969    5.6019    2.5244 C   0  0  0  0  0  0  0  0  0  0  0  0
    0.8397   -1.0573   -0.2300 C   0  0  0  0  0  0  0  0  0  0  0  0
   -4.0415    1.5994    0.6417 C   0  0  0  0  0  0  0  0  0  0  0  0
   -4.7218    1.2356    2.8741 C   0  0  0  0  0  0  0  0  0  0  0  0
    0.3805    2.9855   -4.0596 C   0  0  0  0  0  0  0  0  0  0  0  0
   -7.1824    6.2956    2.2417 C   0  0  0  0  0  0  0  0  0  0  0  0
   -1.9858    3.5122   -1.0099 Cl  0  0  0  0  0  0  0  0  0  0  0  0
   -2.3959   -1.4389    1.9163 O   0  0  0  0  0  0  0  0  0  0  0  0
    1.3789    2.1331   -3.6120 C   0  0  0  0  0  0  0  0  0  0  0  0
   -3.1305   -0.2866    1.8640 C   0  0  0  0  0  0  0  0  0  0  0  0
   -0.9939   -1.4174    1.5513 C   0  0  0  0  0  0  0  0  0  0  0  0
   -3.8915    0.0981    2.9551 C   0  0  0  0  0  0  0  0  0  0  0  0
   -3.3238    0.4116    0.6821 C   0  0  0  0  0  0  0  0  0  0  0  0
    0.4612    3.6829   -5.6254 Cl  0  0  0  0  0  0  0  0  0  0  0  0
   -8.0037    5.0577    2.6423 C   0  0  0  0  0  0  0  0  0  0  0  0
   -7.1157    7.1933    3.4852 C   0  0  0  0  0  0  0  0  0  0  0  0
    0.9942    2.8252    1.0875 H   0  0  0  0  0  0  0  0  0  0  0  0
   -0.7554    2.8310    0.9524 H   0  0  0  0  0  0  0  0  0  0  0  0
    0.7073   -0.0743    4.8645 H   0  0  0  0  0  0  0  0  0  0  0  0
   -1.9350    2.5631    3.0209 H   0  0  0  0  0  0  0  0  0  0  0  0
    2.1061    0.9010   -2.0264 H   0  0  0  0  0  0  0  0  0  0  0  0
   -1.4496    3.9901   -3.5715 H   0  0  0  0  0  0  0  0  0  0  0  0
   -1.2022   -1.6895   -0.5534 H   0  0  0  0  0  0  0  0  0  0  0  0
   -5.7033    3.3706   -0.4021 H   0  0  0  0  0  0  0  0  0  0  0  0
   -7.0431    3.5960    0.6218 H   0  0  0  0  0  0  0  0  0  0  0  0
   -5.7740    3.9941    3.6382 H   0  0  0  0  0  0  0  0  0  0  0  0
   -4.0794    3.8029    3.4002 H   0  0  0  0  0  0  0  0  0  0  0  0
   -4.8253    5.5380   -0.0924 H   0  0  0  0  0  0  0  0  0  0  0  0
   -6.5272    5.7787   -0.3384 H   0  0  0  0  0  0  0  0  0  0  0  0
   -3.8235    5.6985    2.0192 H   0  0  0  0  0  0  0  0  0  0  0  0
   -4.6753    6.1977    3.4333 H   0  0  0  0  0  0  0  0  0  0  0  0
    1.4214   -1.8355    0.2708 H   0  0  0  0  0  0  0  0  0  0  0  0
    0.9591   -1.1886   -1.3134 H   0  0  0  0  0  0  0  0  0  0  0  0
   -4.0267    2.1703   -0.2776 H   0  0  0  0  0  0  0  0  0  0  0  0
   -5.3739    1.4815    3.7045 H   0  0  0  0  0  0  0  0  0  0  0  0
   -7.7884    6.8320    1.4996 H   0  0  0  0  0  0  0  0  0  0  0  0
    2.2184    1.8876   -4.2543 H   0  0  0  0  0  0  0  0  0  0  0  0
   -0.6545   -2.4498    1.7107 H   0  0  0  0  0  0  0  0  0  0  0  0
   -0.4399   -0.8526    2.2835 H   0  0  0  0  0  0  0  0  0  0  0  0
   -3.8614   -0.4641    3.8844 H   0  0  0  0  0  0  0  0  0  0  0  0
   -2.9434    0.0779   -0.2618 H   0  0  0  0  0  0  0  0  0  0  0  0
   -7.5542    4.4889    3.4529 H   0  0  0  0  0  0  0  0  0  0  0  0
   -8.9846    5.3523    3.0245 H   0  0  0  0  0  0  0  0  0  0  0  0
   -8.2204    4.3923    1.8136 H   0  0  0  0  0  0  0  0  0  0  0  0
   -6.7241    8.1847    3.2419 H   0  0  0  0  0  0  0  0  0  0  0  0
   -8.1133    7.3166    3.9182 H   0  0  0  0  0  0  0  0  0  0  0  0
   -6.4943    6.7533    4.2724 H   0  0  0  0  0  0  0  0  0  0  0  0
  1  2  1  0  0  0  0
  1  3  1  1  0  0  0
  3 37  1  0  0  0  0
  3 38  1  0  0  0  0
  4  1  1  0  0  0  0
  5  3  1  0  0  0  0
  6 13  2  0  0  0  0
  7  1  1  0  0  0  0
  8 16  1  0  0  0  0
  9  2  2  0  0  0  0
 10  5  1  0  0  0  0
 11 21  1  0  0  0  0
 12 10  2  0  0  0  0
 12  6  1  0  0  0  0
 12 39  1  0  0  0  0
 13  5  1  0  0  0  0
 13 40  1  0  0  0  0
 14  2  1  0  0  0  0
 14 41  1  0  0  0  0
 15  9  1  0  0  0  0
 15 42  1  0  0  0  0
 16 23  2  0  0  0  0
 17  4  1  0  0  0  0
 17 31  1  0  0  0  0
 17 43  1  6  0  0  0
 18  8  1  0  0  0  0
 18 44  1  0  0  0  0
 18 45  1  0  0  0  0
 19  8  1  0  0  0  0
 19 46  1  0  0  0  0
 19 47  1  0  0  0  0
 20 18  1  0  0  0  0
 20 11  1  0  0  0  0
 20 48  1  0  0  0  0
 20 49  1  0  0  0  0
 21 19  1  0  0  0  0
 21 50  1  0  0  0  0
 21 51  1  0  0  0  0
 22  7  1  0  0  0  0
 22 17  1  0  0  0  0
 22 52  1  0  0  0  0
 22 53  1  0  0  0  0
 23 33  1  0  0  0  0
 23 54  1  0  0  0  0
 24 32  2  0  0  0  0
 24 16  1  0  0  0  0
 24 55  1  0  0  0  0
 25 29  1  0  0  0  0
 25 15  2  0  0  0  0
 26 11  1  0  0  0  0
 26 56  1  0  0  0  0
 27  9  1  0  0  0  0
 28 31  1  0  0  0  0
 29 14  2  0  0  0  0
 29 57  1  0  0  0  0
 30 28  1  0  0  0  0
 31 58  1  0  0  0  0
 31 59  1  0  0  0  0
 32 30  1  0  0  0  0
 32 60  1  0  0  0  0
 33 30  2  0  0  0  0
 33 61  1  0  0  0  0
 34 25  1  0  0  0  0
 35 26  1  0  0  0  0
 35 62  1  0  0  0  0
 35 63  1  0  0  0  0
 35 64  1  0  0  0  0
 36 26  1  0  0  0  0
 36 65  1  0  0  0  0
 36 66  1  0  0  0  0
 36 67  1  0  0  0  0
M  END
>  <DRUGBANK_ID>
DB00251

>  <SECONDARY_ACCESSION_NUMBERS>
APRD00659

>  <COMMON_NAME>
Terconazole

>  <CAS_NUMBER>
67915-31-5

>  <UNII>
0KJ2VE664U

>  <SYNONYMS>
Terconazole

$$$$
