
 OpenBabel10282417133D

 35 36  0  0  1  0  0  0  0  0999 V2000
   -1.8164   -7.2075    2.5374 C   0  0  0  0  0  0  0  0  0  0  0  0
   -0.8850   -7.1461    1.3714 C   0  0  0  0  0  0  0  0  0  0  0  0
    0.1547   -6.3048    1.2732 C   0  0  0  0  0  0  0  0  0  0  0  0
    0.8865   -6.1350    0.0988 N   0  0  0  0  0  0  0  0  0  0  0  0
    1.7308   -4.9075    0.0084 C   0  0  1  0  0  0  0  0  0  0  0  0
    2.8737   -4.8236    1.0228 C   0  0  0  0  0  0  0  0  0  0  0  0
    4.0349   -5.4365    0.2893 C   0  0  0  0  0  0  0  0  0  0  0  0
    3.7225   -5.2480   -1.2008 C   0  0  1  0  0  0  0  0  0  0  0  0
    3.8680   -6.3935   -2.2387 C   0  0  0  0  0  0  0  0  0  0  0  0
    3.1729   -7.5970   -1.8919 O   0  0  0  0  0  0  0  0  0  0  0  0
    3.5478   -8.1790   -0.3065 P   0  0  0  0  0  0  0  0  0  0  0  0
    3.3517   -9.6745   -0.9469 O   0  0  0  0  0  0  0  0  0  0  0  0
    5.1428   -8.1126   -0.7279 O   0  0  0  0  0  0  0  0  0  0  0  0
    3.8833   -8.6998    1.1125 O   0  0  0  0  0  0  0  0  0  0  0  0
    2.3660   -4.7888   -1.2597 O   0  0  0  0  0  0  0  0  0  0  0  0
    0.4853   -6.8529   -1.0407 C   0  0  0  0  0  0  0  0  0  0  0  0
    0.7283   -6.5810   -2.2096 O   0  0  0  0  0  0  0  0  0  0  0  0
   -0.2519   -7.9827   -0.7813 N   0  0  0  0  0  0  0  0  0  0  0  0
   -1.1621   -8.0377    0.2265 C   0  0  0  0  0  0  0  0  0  0  0  0
   -2.1538   -8.7617    0.1812 O   0  0  0  0  0  0  0  0  0  0  0  0
   -1.9706   -8.2385    2.8688 H   0  0  0  0  0  0  0  0  0  0  0  0
   -2.7897   -6.7838    2.2626 H   0  0  0  0  0  0  0  0  0  0  0  0
   -1.4347   -6.6343    3.3881 H   0  0  0  0  0  0  0  0  0  0  0  0
    0.3933   -5.6418    2.0997 H   0  0  0  0  0  0  0  0  0  0  0  0
    1.0585   -4.0538    0.1272 H   0  0  0  0  0  0  0  0  0  0  0  0
    3.1349   -3.7920    1.2673 H   0  0  0  0  0  0  0  0  0  0  0  0
    2.6677   -5.3563    1.9590 H   0  0  0  0  0  0  0  0  0  0  0  0
    5.0409   -5.1123    0.5696 H   0  0  0  0  0  0  0  0  0  0  0  0
    4.0270   -6.4192    0.7059 H   0  0  0  0  0  0  0  0  0  0  0  0
    4.3484   -4.4237   -1.5621 H   0  0  0  0  0  0  0  0  0  0  0  0
    3.4618   -6.0754   -3.2060 H   0  0  0  0  0  0  0  0  0  0  0  0
    4.9199   -6.6311   -2.4405 H   0  0  0  0  0  0  0  0  0  0  0  0
    2.5145  -10.0957   -0.7115 H   0  0  0  0  0  0  0  0  0  0  0  0
    5.6024   -7.2939   -0.4907 H   0  0  0  0  0  0  0  0  0  0  0  0
   -0.5146   -8.4998   -1.6092 H   0  0  0  0  0  0  0  0  0  0  0  0
  1  2  1  0  0  0  0
  1 21  1  0  0  0  0
  1 22  1  0  0  0  0
  1 23  1  0  0  0  0
  2  3  2  0  0  0  0
  2 19  1  0  0  0  0
  3  4  1  0  0  0  0
  3 24  1  0  0  0  0
  4 16  1  0  0  0  0
  5  6  1  0  0  0  0
  5 15  1  0  0  0  0
  5 25  1  1  0  0  0
  5  4  1  0  0  0  0
  6  7  1  0  0  0  0
  6 26  1  0  0  0  0
  6 27  1  0  0  0  0
  7  8  1  0  0  0  0
  7 28  1  0  0  0  0
  7 29  1  0  0  0  0
  8 15  1  0  0  0  0
  8 30  1  6  0  0  0
  8  9  1  0  0  0  0
  9 10  1  0  0  0  0
  9 31  1  0  0  0  0
  9 32  1  0  0  0  0
 10 11  1  0  0  0  0
 11 12  1  0  0  0  0
 11 13  1  0  0  0  0
 11 14  2  0  0  0  0
 12 33  1  0  0  0  0
 13 34  1  0  0  0  0
 16 17  2  0  0  0  0
 16 18  1  0  0  0  0
 18 19  1  0  0  0  0
 18 35  1  0  0  0  0
 19 20  2  0  0  0  0
M  END
>  <DRUGBANK_ID>
DB03150

>  <SECONDARY_ACCESSION_NUMBERS>
EXPT00113

>  <COMMON_NAME>
2',3'-Dideoxythymidine-5'-Monophosphate

>  <UNII>
R6VJB6HJ6Y

$$$$
