
 OpenBabel10282417193D

 24 24  0  0  0  0  0  0  0  0999 V2000
    0.9386   -0.1212   -0.1918 S   0  0  0  0  0  0  0  0  0  0  0  0
    4.6388    0.8212    3.5411 N   0  0  0  0  0  0  0  0  0  0  0  0
    3.3486   -0.2778   -1.2091 N   0  0  0  0  0  0  0  0  0  0  0  0
    3.3542    0.1876    1.1748 C   0  0  0  0  0  0  0  0  0  0  0  0
    3.6563   -0.1075    3.5302 C   0  0  0  0  0  0  0  0  0  0  0  0
    2.9724   -0.4351    2.3689 C   0  0  0  0  0  0  0  0  0  0  0  0
    2.6045   -0.0760   -0.0759 C   0  0  0  0  0  0  0  0  0  0  0  0
    4.4192    1.0848    1.1670 C   0  0  0  0  0  0  0  0  0  0  0  0
    5.0222    1.3729    2.3724 C   0  0  0  0  0  0  0  0  0  0  0  0
    3.3425   -0.7925    4.8389 C   0  0  0  0  0  0  0  0  0  0  0  0
    4.5181   -1.6176    5.3823 C   0  0  0  0  0  0  0  0  0  0  0  0
    5.7414   -0.7828    5.7440 C   0  0  0  0  0  0  0  0  0  0  0  0
    4.3575   -0.3434   -1.2202 H   0  0  0  0  0  0  0  0  0  0  0  0
    2.8561   -0.4881   -2.0714 H   0  0  0  0  0  0  0  0  0  0  0  0
    2.1672   -1.1596    2.3921 H   0  0  0  0  0  0  0  0  0  0  0  0
    4.7514    1.5835    0.2639 H   0  0  0  0  0  0  0  0  0  0  0  0
    5.8506    2.0700    2.4459 H   0  0  0  0  0  0  0  0  0  0  0  0
    3.0363   -0.0379    5.5732 H   0  0  0  0  0  0  0  0  0  0  0  0
    2.4829   -1.4633    4.7101 H   0  0  0  0  0  0  0  0  0  0  0  0
    4.1855   -2.1437    6.2856 H   0  0  0  0  0  0  0  0  0  0  0  0
    4.8058   -2.3858    4.6545 H   0  0  0  0  0  0  0  0  0  0  0  0
    5.4745    0.0154    6.4437 H   0  0  0  0  0  0  0  0  0  0  0  0
    6.5132   -1.4065    6.2017 H   0  0  0  0  0  0  0  0  0  0  0  0
    6.2028   -0.3310    4.8628 H   0  0  0  0  0  0  0  0  0  0  0  0
  1  7  2  0  0  0  0
  2  5  1  0  0  0  0
  2  9  2  0  0  0  0
  3  7  1  0  0  0  0
  3 13  1  0  0  0  0
  3 14  1  0  0  0  0
  4  6  1  0  0  0  0
  4  7  1  0  0  0  0
  4  8  2  0  0  0  0
  5  6  2  0  0  0  0
  5 10  1  0  0  0  0
  6 15  1  0  0  0  0
  8  9  1  0  0  0  0
  8 16  1  0  0  0  0
  9 17  1  0  0  0  0
 10 11  1  0  0  0  0
 10 18  1  0  0  0  0
 10 19  1  0  0  0  0
 11 12  1  0  0  0  0
 11 20  1  0  0  0  0
 11 21  1  0  0  0  0
 12 22  1  0  0  0  0
 12 23  1  0  0  0  0
 12 24  1  0  0  0  0
M  END
>  <DRUGBANK_ID>
DB12667

>  <COMMON_NAME>
Protionamide

>  <CAS_NUMBER>
14222-60-7

>  <UNII>
76YOO33643

>  <SYNONYMS>
Prothionamide; Protionamida; Protionamide; Protionamidum

$$$$
