
 OpenBabel10282417193D

 56 59  0  0  0  0  0  0  0  0999 V2000
    1.0720   -0.3262    0.0114 C   0  0  0  0  0  0  0  0  0  0  0  0
    0.9414   -2.2843    1.2295 C   0  0  0  0  0  0  0  0  0  0  0  0
    1.7499    2.3168    4.7569 C   0  0  0  0  0  0  0  0  0  0  0  0
    2.0400   -0.1439    4.5658 C   0  0  0  0  0  0  0  0  0  0  0  0
    3.4311    3.0975    1.5438 C   0  0  0  0  0  0  0  0  0  0  0  0
    4.3680    3.7227    1.2093 C   0  0  0  0  0  0  0  0  0  0  0  0
    2.8889    2.5418    2.4960 C   0  0  0  0  0  0  0  0  0  0  0  0
    2.9240    2.6946    0.3555 C   0  0  0  0  0  0  0  0  0  0  0  0
   -0.9858   -3.5201    4.3363 C   0  0  0  0  0  0  0  0  0  0  0  0
   -1.6064   -4.7448    4.0768 C   0  0  0  0  0  0  0  0  0  0  0  0
   -2.5643   -3.1928    6.0871 C   0  0  0  0  0  0  0  0  0  0  0  0
   -1.3680   -0.6381    3.3883 C   0  0  0  0  0  0  0  0  0  0  0  0
   -0.1677    0.8978    4.8913 C   0  0  0  0  0  0  0  0  0  0  0  0
    0.4224   -1.5746    0.0038 C   0  0  0  0  0  0  0  0  0  0  0  0
   -1.4672   -2.7206    5.3561 C   0  0  0  0  0  0  0  0  0  0  0  0
    1.8633    1.8608    2.0063 C   0  0  0  0  0  0  0  0  0  0  0  0
   -1.0005   -0.2197    2.1675 C   0  0  0  0  0  0  0  0  0  0  0  0
   -2.8466   -5.0394    4.6214 C   0  0  0  0  0  0  0  0  0  0  0  0
   -3.3296   -4.2585    5.6262 C   0  0  0  0  0  0  0  0  0  0  0  0
    1.5817    1.9133    0.6648 C   0  0  0  0  0  0  0  0  0  0  0  0
    0.9963    1.1594    2.7407 C   0  0  0  0  0  0  0  0  0  0  0  0
   -0.0516    0.8274    1.9185 C   0  0  0  0  0  0  0  0  0  0  0  0
   -0.8207   -1.3745    5.6398 C   0  0  0  0  0  0  0  0  0  0  0  0
   -1.7217   -0.9068    1.0710 C   0  0  0  0  0  0  0  0  0  0  0  0
    1.1685    1.0358    4.2134 C   0  0  0  0  0  0  0  0  0  0  0  0
   -3.5795   -6.0668    4.1890 F   0  0  0  0  0  0  0  0  0  0  0  0
   -4.5285   -4.5377    6.1422 F   0  0  0  0  0  0  0  0  0  0  0  0
    0.1168    1.5945    0.4647 N   0  0  0  0  0  0  0  0  0  0  0  0
   -0.8103   -0.3872    4.6167 N   0  0  0  0  0  0  0  0  0  0  0  0
   -0.3198   -1.1763    6.7439 O   0  0  0  0  0  0  0  0  0  0  0  0
   -2.9482   -0.9093    1.0852 O   0  0  0  0  0  0  0  0  0  0  0  0
   -1.0072   -1.4789    0.0368 O   0  0  0  0  0  0  0  0  0  0  0  0
    1.0137   -0.4144    1.2036 H   0  0  0  0  0  0  0  0  0  0  0  0
    0.7370    0.3430   -0.9412 H   0  0  0  0  0  0  0  0  0  0  0  0
    2.0895   -0.1074    0.0128 H   0  0  0  0  0  0  0  0  0  0  0  0
    0.5931   -1.7965    2.1481 H   0  0  0  0  0  0  0  0  0  0  0  0
    0.5747   -3.2733    1.2323 H   0  0  0  0  0  0  0  0  0  0  0  0
    2.0256   -2.2477    1.2487 H   0  0  0  0  0  0  0  0  0  0  0  0
    1.9414    2.3051    5.7930 H   0  0  0  0  0  0  0  0  0  0  0  0
    2.7373    2.3952    4.4780 H   0  0  0  0  0  0  0  0  0  0  0  0
    1.1977    3.1897    4.4402 H   0  0  0  0  0  0  0  0  0  0  0  0
    1.5776   -1.0577    4.2008 H   0  0  0  0  0  0  0  0  0  0  0  0
    3.0190   -0.0500    4.1111 H   0  0  0  0  0  0  0  0  0  0  0  0
    2.1543   -0.2182    5.6428 H   0  0  0  0  0  0  0  0  0  0  0  0
    3.9798    3.6727    0.5371 H   0  0  0  0  0  0  0  0  0  0  0  0
    4.9146    4.0658    2.5485 H   0  0  0  0  0  0  0  0  0  0  0  0
    3.3734    2.7568    3.3203 H   0  0  0  0  0  0  0  0  0  0  0  0
    2.9458    3.0531   -0.6281 H   0  0  0  0  0  0  0  0  0  0  0  0
   -0.1377   -3.1794    3.7615 H   0  0  0  0  0  0  0  0  0  0  0  0
   -1.1276   -5.4724    3.4418 H   0  0  0  0  0  0  0  0  0  0  0  0
   -2.8366   -2.7247    7.0152 H   0  0  0  0  0  0  0  0  0  0  0  0
   -2.2358   -1.2780    3.4103 H   0  0  0  0  0  0  0  0  0  0  0  0
   -0.8214    1.7086    4.5606 H   0  0  0  0  0  0  0  0  0  0  0  0
   -0.0337    0.9814    5.9707 H   0  0  0  0  0  0  0  0  0  0  0  0
    0.7857   -2.0140   -0.8876 H   0  0  0  0  0  0  0  0  0  0  0  0
   -0.3167    0.8364   -0.1221 H   0  0  0  0  0  0  0  0  0  0  0  0
  1 33  1  0  0  0  0
  1 34  1  0  0  0  0
  1 35  1  0  0  0  0
  2 36  1  0  0  0  0
  2 37  1  0  0  0  0
  2 38  1  0  0  0  0
  3 39  1  0  0  0  0
  3 40  1  0  0  0  0
  3 41  1  0  0  0  0
  4 42  1  0  0  0  0
  4 43  1  0  0  0  0
  4 44  1  0  0  0  0
  5 45  1  0  0  0  0
  6  5  2  0  0  0  0
  6 46  1  0  0  0  0
  7  5  1  0  0  0  0
  7 47  1  0  0  0  0
  8  6  1  0  0  0  0
  8 48  1  0  0  0  0
  9 49  1  0  0  0  0
 10  9  2  0  0  0  0
 10 50  1  0  0  0  0
 11 51  1  0  0  0  0
 12 52  1  0  0  0  0
 13 53  1  0  0  0  0
 13 54  1  0  0  0  0
 14  1  1  0  0  0  0
 14  2  1  0  0  0  0
 14 55  1  0  0  0  0
 15  9  1  0  0  0  0
 15 11  2  0  0  0  0
 16  7  2  0  0  0  0
 17 12  2  0  0  0  0
 18 10  1  0  0  0  0
 19 11  1  0  0  0  0
 19 18  2  0  0  0  0
 20  8  2  0  0  0  0
 20 16  1  0  0  0  0
 21 16  1  0  0  0  0
 22 17  1  0  0  0  0
 22 21  2  0  0  0  0
 23 15  1  0  0  0  0
 24 17  1  0  0  0  0
 25  3  1  0  0  0  0
 25  4  1  0  0  0  0
 25 13  1  0  0  0  0
 25 21  1  0  0  0  0
 26 18  1  0  0  0  0
 27 19  1  0  0  0  0
 28 20  1  0  0  0  0
 28 22  1  0  0  0  0
 28 56  1  0  0  0  0
 29 12  1  0  0  0  0
 29 13  1  0  0  0  0
 29 23  1  0  0  0  0
 30 23  2  0  0  0  0
 31 24  2  0  0  0  0
 32 14  1  0  0  0  0
 32 24  1  0  0  0  0
M  END
>  <DRUGBANK_ID>
DB12719

>  <COMMON_NAME>
Turofexorate isopropyl

>  <CAS_NUMBER>
629664-81-9

>  <UNII>
S6KDM312I5

>  <SYNONYMS>
Turofexorate isopropyl

$$$$
