
 OpenBabel10282417203D

 37 39  0  0  0  0  0  0  0  0999 V2000
   -1.8771    0.1101    0.1496 C   0  0  0  0  0  0  0  0  0  0  0  0
   -1.2707   -1.1487    0.1287 C   0  0  0  0  0  0  0  0  0  0  0  0
    0.1104   -1.2949    0.2017 C   0  0  0  0  0  0  0  0  0  0  0  0
    0.9281   -0.1704    0.2381 C   0  0  0  0  0  0  0  0  0  0  0  0
    0.3157    1.1211    0.1925 C   0  0  0  0  0  0  0  0  0  0  0  0
   -1.1088    1.2780    0.1619 C   0  0  0  0  0  0  0  0  0  0  0  0
   -1.8115    2.5955   -0.0926 C   0  0  0  0  0  0  0  0  0  0  0  0
   -1.7394    3.1011   -1.3365 C   0  0  0  0  0  0  0  0  0  0  0  0
   -2.2758    4.4759   -1.5575 C   0  0  0  0  0  0  0  0  0  0  0  0
   -1.7926    5.2081   -2.4272 O   0  0  0  0  0  0  0  0  0  0  0  0
   -3.4284    4.8385   -0.7173 C   0  0  0  0  0  0  0  0  0  0  0  0
   -4.1376    6.0526   -0.8190 C   0  0  0  0  0  0  0  0  0  0  0  0
   -5.2641    6.2740   -0.0189 C   0  0  0  0  0  0  0  0  0  0  0  0
   -5.7067    5.2482    0.8179 C   0  0  0  0  0  0  0  0  0  0  0  0
   -5.0163    4.0421    0.9150 C   0  0  0  0  0  0  0  0  0  0  0  0
   -3.8268    3.8718    0.2151 C   0  0  0  0  0  0  0  0  0  0  0  0
   -3.0402    2.7833    0.5790 O   0  0  0  0  0  0  0  0  0  0  0  0
   -6.7938    5.3892    1.6308 O   0  0  0  0  0  0  0  0  0  0  0  0
   -3.7069    7.0436   -1.6585 O   0  0  0  0  0  0  0  0  0  0  0  0
   -1.8629    2.2217   -2.4110 O   0  0  0  0  0  0  0  0  0  0  0  0
    2.2984   -0.2831    0.3606 O   0  0  0  0  0  0  0  0  0  0  0  0
    3.1520   -1.3497   -0.5026 P   0  0  0  0  0  0  0  0  0  0  0  0
    2.5795   -1.7780   -1.8086 O   0  0  0  0  0  0  0  0  0  0  0  0
    4.5656   -0.6149   -0.6115 O   0  0  0  0  0  0  0  0  0  0  0  0
    3.4559   -2.5907    0.4695 O   0  0  0  0  0  0  0  0  0  0  0  0
    0.5270   -2.5901    0.2995 O   0  0  0  0  0  0  0  0  0  0  0  0
   -2.9612    0.1585    0.0865 H   0  0  0  0  0  0  0  0  0  0  0  0
   -1.8804   -2.0440    0.0461 H   0  0  0  0  0  0  0  0  0  0  0  0
    0.9469    2.0108    0.1469 H   0  0  0  0  0  0  0  0  0  0  0  0
   -5.7786    7.2304   -0.0388 H   0  0  0  0  0  0  0  0  0  0  0  0
   -5.3760    3.2629    1.5791 H   0  0  0  0  0  0  0  0  0  0  0  0
   -7.1671    6.2805    1.5397 H   0  0  0  0  0  0  0  0  0  0  0  0
   -4.2487    7.8458   -1.5873 H   0  0  0  0  0  0  0  0  0  0  0  0
   -1.8708    1.3184   -2.0453 H   0  0  0  0  0  0  0  0  0  0  0  0
    4.4316    0.2602   -1.0286 H   0  0  0  0  0  0  0  0  0  0  0  0
    4.3395   -2.6677    0.8812 H   0  0  0  0  0  0  0  0  0  0  0  0
    1.4095   -2.7403   -0.0737 H   0  0  0  0  0  0  0  0  0  0  0  0
  1  2  2  0  0  0  0
  1  6  1  0  0  0  0
  1 27  1  0  0  0  0
  2  3  1  0  0  0  0
  2 28  1  0  0  0  0
  3  4  2  0  0  0  0
  3 26  1  0  0  0  0
  4  5  1  0  0  0  0
  4 21  1  0  0  0  0
  5  6  2  0  0  0  0
  5 29  1  0  0  0  0
  6  7  1  0  0  0  0
  7  8  2  0  0  0  0
  7 17  1  0  0  0  0
  8  9  1  0  0  0  0
  8 20  1  0  0  0  0
  9 10  2  0  0  0  0
  9 11  1  0  0  0  0
 11 12  2  0  0  0  0
 11 16  1  0  0  0  0
 12 13  1  0  0  0  0
 12 19  1  0  0  0  0
 13 14  2  0  0  0  0
 13 30  1  0  0  0  0
 14 15  1  0  0  0  0
 14 18  1  0  0  0  0
 15 16  2  0  0  0  0
 15 31  1  0  0  0  0
 16 17  1  0  0  0  0
 18 32  1  0  0  0  0
 19 33  1  0  0  0  0
 20 34  1  0  0  0  0
 21 22  1  0  0  0  0
 22 23  2  0  0  0  0
 22 24  1  0  0  0  0
 22 25  1  0  0  0  0
 24 35  1  0  0  0  0
 25 36  1  0  0  0  0
 26 37  1  0  0  0  0
M  END
>  <DRUGBANK_ID>
DB12937

>  <COMMON_NAME>
Quercetin-3'-O-phosphate

>  <CAS_NUMBER>
1111616-69-3

>  <UNII>
E2I4458LJN

$$$$
