
 OpenBabel10282417203D

 46 48  0  0  0  0  0  0  0  0999 V2000
    0.7542   -0.1381   -0.3872 C   0  0  0  0  0  0  0  0  0  0  0  0
    0.3643   -1.5896   -0.3131 C   0  0  0  0  0  0  0  0  0  0  0  0
    0.9661   -2.3278    0.8975 C   0  0  0  0  0  0  0  0  0  0  0  0
    0.5619   -1.7909    2.2361 N   0  0  0  0  0  0  0  0  0  0  0  0
    0.7552   -0.4858    2.6854 C   0  0  0  0  0  0  0  0  0  0  0  0
    0.1636   -0.0070    3.8166 C   0  0  0  0  0  0  0  0  0  0  0  0
   -0.5592   -0.8782    4.7000 C   0  0  0  0  0  0  0  0  0  0  0  0
   -1.2339   -0.4354    5.6109 O   0  0  0  0  0  0  0  0  0  0  0  0
   -0.4013   -2.2435    4.4224 N   0  0  0  0  0  0  0  0  0  0  0  0
   -0.0098   -2.7406    3.1877 C   0  0  0  0  0  0  0  0  0  0  0  0
   -0.0978   -3.9135    2.8440 O   0  0  0  0  0  0  0  0  0  0  0  0
   -0.8822   -3.1948    5.4293 C   0  0  0  0  0  0  0  0  0  0  0  0
    0.0291   -3.2764    6.6699 C   0  0  0  0  0  0  0  0  0  0  0  0
    0.1524   -1.9654    7.4305 C   0  0  0  0  0  0  0  0  0  0  0  0
    0.2810    1.3684    3.9112 N   0  0  0  0  0  0  0  0  0  0  0  0
    0.9478    1.7268    2.8351 C   0  0  0  0  0  0  0  0  0  0  0  0
    1.4314    0.6025    2.2094 N   0  0  0  0  0  0  0  0  0  0  0  0
    1.2850    3.0840    2.3038 C   0  0  0  0  0  0  0  0  0  0  0  0
    2.4367    3.6977    3.0851 C   0  0  0  0  0  0  0  0  0  0  0  0
    2.3445    5.1969    2.8356 C   0  0  0  0  0  0  0  0  0  0  0  0
    0.9444    5.4590    2.2826 C   0  0  0  0  0  0  0  0  0  0  0  0
    0.1878    4.1368    2.4105 C   0  0  0  0  0  0  0  0  0  0  0  0
    0.1562    0.3804    0.3619 H   0  0  0  0  0  0  0  0  0  0  0  0
    0.5212    0.3967   -1.3048 H   0  0  0  0  0  0  0  0  0  0  0  0
    1.8370   -0.0643   -0.2418 H   0  0  0  0  0  0  0  0  0  0  0  0
   -0.7277   -1.6546   -0.2906 H   0  0  0  0  0  0  0  0  0  0  0  0
    0.7128   -2.0693   -1.2354 H   0  0  0  0  0  0  0  0  0  0  0  0
    0.6327   -3.3696    0.7947 H   0  0  0  0  0  0  0  0  0  0  0  0
    2.0597   -2.3522    0.8618 H   0  0  0  0  0  0  0  0  0  0  0  0
   -1.9006   -2.9151    5.7217 H   0  0  0  0  0  0  0  0  0  0  0  0
   -0.9455   -4.2049    5.0038 H   0  0  0  0  0  0  0  0  0  0  0  0
   -0.3727   -4.0335    7.3541 H   0  0  0  0  0  0  0  0  0  0  0  0
    1.0306   -3.6065    6.3715 H   0  0  0  0  0  0  0  0  0  0  0  0
   -0.8408   -1.5757    7.6786 H   0  0  0  0  0  0  0  0  0  0  0  0
    0.7117   -2.0734    8.3604 H   0  0  0  0  0  0  0  0  0  0  0  0
    0.7041   -1.2311    6.8362 H   0  0  0  0  0  0  0  0  0  0  0  0
    2.0080    0.6790    1.3931 H   0  0  0  0  0  0  0  0  0  0  0  0
    1.5686    3.0026    1.2429 H   0  0  0  0  0  0  0  0  0  0  0  0
    2.3222    3.4941    4.1565 H   0  0  0  0  0  0  0  0  0  0  0  0
    3.4027    3.2861    2.7743 H   0  0  0  0  0  0  0  0  0  0  0  0
    2.5184    5.7479    3.7654 H   0  0  0  0  0  0  0  0  0  0  0  0
    3.1065    5.5196    2.1174 H   0  0  0  0  0  0  0  0  0  0  0  0
    0.4390    6.2689    2.8182 H   0  0  0  0  0  0  0  0  0  0  0  0
    1.0177    5.7627    1.2306 H   0  0  0  0  0  0  0  0  0  0  0  0
   -0.5744    4.0378    1.6286 H   0  0  0  0  0  0  0  0  0  0  0  0
   -0.3204    4.0887    3.3794 H   0  0  0  0  0  0  0  0  0  0  0  0
  1  2  1  0  0  0  0
  1 23  1  0  0  0  0
  1 24  1  0  0  0  0
  1 25  1  0  0  0  0
  2  3  1  0  0  0  0
  2 26  1  0  0  0  0
  2 27  1  0  0  0  0
  3  4  1  0  0  0  0
  3 28  1  0  0  0  0
  3 29  1  0  0  0  0
  4  5  1  0  0  0  0
  4 10  1  0  0  0  0
  5  6  2  0  0  0  0
  5 17  1  0  0  0  0
  6  7  1  0  0  0  0
  6 15  1  0  0  0  0
  7  8  2  0  0  0  0
  7  9  1  0  0  0  0
  9 10  1  0  0  0  0
  9 12  1  0  0  0  0
 10 11  2  0  0  0  0
 12 13  1  0  0  0  0
 12 30  1  0  0  0  0
 12 31  1  0  0  0  0
 13 14  1  0  0  0  0
 13 32  1  0  0  0  0
 13 33  1  0  0  0  0
 14 34  1  0  0  0  0
 14 35  1  0  0  0  0
 14 36  1  0  0  0  0
 15 16  2  0  0  0  0
 16 17  1  0  0  0  0
 16 18  1  0  0  0  0
 17 37  1  0  0  0  0
 18 19  1  0  0  0  0
 18 22  1  0  0  0  0
 18 38  1  0  0  0  0
 19 20  1  0  0  0  0
 19 39  1  0  0  0  0
 19 40  1  0  0  0  0
 20 21  1  0  0  0  0
 20 41  1  0  0  0  0
 20 42  1  0  0  0  0
 21 22  1  0  0  0  0
 21 43  1  0  0  0  0
 21 44  1  0  0  0  0
 22 45  1  0  0  0  0
 22 46  1  0  0  0  0
M  END
>  <DRUGBANK_ID>
DB12946

>  <COMMON_NAME>
DPCPX

>  <CAS_NUMBER>
102146-07-6

>  <UNII>
9PTP4FOI9E

>  <SYNONYMS>
8-cyclopentyl-1,3-dipropyl-1H-purine-2,6(3H,7H)-dione; 8-cyclopentyl-1,3-dipropylxanthine; CPX

$$$$
