
 OpenBabel10282417223D

 93 99  0  0  1  0  0  0  0  0999 V2000
   -2.5431    0.1113   -0.1266 C   0  0  0  0  0  0  0  0  0  0  0  0
   -1.1548    0.1682    0.2993 N   0  0  0  0  0  0  0  0  0  0  0  0
   -0.5102   -1.0023   -0.2469 C   0  0  0  0  0  0  0  0  0  0  0  0
    0.8890   -0.9753    0.3033 C   0  0  0  0  0  0  0  0  0  0  0  0
    1.8315    0.3408    0.0510 C   0  0  0  0  0  0  0  0  0  0  0  0
    0.9707    1.5401    0.4356 C   0  0  0  0  0  0  0  0  0  0  0  0
   -0.4657    1.3898   -0.1439 C   0  0  0  0  0  0  0  0  0  0  0  0
    3.4023    0.4105    0.5865 N   0  0  3  0  0  0  0  0  0  0  0  0
    4.5655   -0.5921    0.2473 C   0  0  0  0  0  0  0  0  0  0  0  0
    4.2281   -1.9196    0.8657 C   0  0  0  0  0  0  0  0  0  0  0  0
    4.0308   -2.1560    2.2347 N   0  0  0  0  0  0  0  0  0  0  0  0
    3.0661   -1.1225    2.7351 C   0  0  0  0  0  0  0  0  0  0  0  0
    3.3878    0.2760    2.0728 C   0  0  0  0  0  0  0  0  0  0  0  0
    4.0787   -3.4720    2.7459 C   0  0  0  0  0  0  0  0  0  0  0  0
    3.6688   -3.6689    3.8975 O   0  0  0  0  0  0  0  0  0  0  0  0
    4.5859   -4.7927    1.8165 C   0  0  1  0  0  0  0  0  0  0  0  0
    3.4690   -5.6728    0.9244 C   0  0  0  0  0  0  0  0  0  0  0  0
    2.9339   -5.0939   -0.4289 C   0  0  0  0  0  0  0  0  0  0  0  0
    2.3969   -5.5846   -1.6144 C   0  0  0  0  0  0  0  0  0  0  0  0
    2.0316   -4.7012   -2.7173 C   0  0  0  0  0  0  0  0  0  0  0  0
    2.3394   -3.3494   -2.6260 C   0  0  0  0  0  0  0  0  0  0  0  0
    1.8759   -2.6676   -3.7352 N   0  0  0  0  0  0  0  0  0  0  0  0
    1.3346   -3.4726   -4.6068 N   0  0  0  0  0  0  0  0  0  0  0  0
    1.4232   -4.6669   -3.9792 C   0  0  0  0  0  0  0  0  0  0  0  0
    2.8252   -2.8399   -1.5516 C   0  0  0  0  0  0  0  0  0  0  0  0
    2.8189   -1.3766   -1.7130 C   0  0  0  0  0  0  0  0  0  0  0  0
    2.8481   -3.7386   -0.4234 C   0  0  0  0  0  0  0  0  0  0  0  0
    5.7879   -4.5566    0.9778 N   0  0  0  0  0  0  0  0  0  0  0  0
    7.0696   -4.7970    1.3217 C   0  0  0  0  0  0  0  0  0  0  0  0
    7.8715   -3.8659    1.2712 O   0  0  0  0  0  0  0  0  0  0  0  0
    7.4273   -6.1269    1.4762 N   0  0  0  0  0  0  0  0  0  0  0  0
    6.9814   -7.0255    0.4254 C   0  0  0  0  0  0  0  0  0  0  0  0
    7.2304   -8.4969    0.7667 C   0  0  0  0  0  0  0  0  0  0  0  0
    8.6601   -8.8751    1.4720 C   0  0  3  0  0  0  0  0  0  0  0  0
    9.1578   -7.6977    2.2847 C   0  0  0  0  0  0  0  0  0  0  0  0
    8.8227   -6.3028    1.8004 C   0  0  0  0  0  0  0  0  0  0  0  0
    8.9259  -10.2650    2.4917 C   0  0  0  0  0  0  0  0  0  0  0  0
    8.9765  -10.6367    3.8740 C   0  0  0  0  0  0  0  0  0  0  0  0
    7.6380  -10.9284    4.8241 C   0  0  0  0  0  0  0  0  0  0  0  0
    6.5051  -10.4690    4.1657 C   0  0  0  0  0  0  0  0  0  0  0  0
    6.6761  -10.1761    2.8368 N   0  0  0  0  0  0  0  0  0  0  0  0
    7.6636  -10.9684    2.2505 C   0  0  0  0  0  0  0  0  0  0  0  0
    7.6299  -12.1449    1.9291 O   0  0  0  0  0  0  0  0  0  0  0  0
    5.2590  -10.1696    4.6849 C   0  0  0  0  0  0  0  0  0  0  0  0
    5.0165  -10.4647    5.9949 C   0  0  0  0  0  0  0  0  0  0  0  0
    6.0188  -11.1398    6.6951 C   0  0  0  0  0  0  0  0  0  0  0  0
    7.2946  -11.4668    6.0857 C   0  0  0  0  0  0  0  0  0  0  0  0
   -3.0895    0.9627    0.2750 H   0  0  0  0  0  0  0  0  0  0  0  0
   -2.6190    0.0912   -1.2189 H   0  0  0  0  0  0  0  0  0  0  0  0
   -3.0130   -0.8022    0.2635 H   0  0  0  0  0  0  0  0  0  0  0  0
   -0.9876   -1.9265    0.1317 H   0  0  0  0  0  0  0  0  0  0  0  0
   -0.5488   -1.0859   -1.3441 H   0  0  0  0  0  0  0  0  0  0  0  0
    0.7499   -1.1337    1.3594 H   0  0  0  0  0  0  0  0  0  0  0  0
    1.2286   -1.9201   -0.0881 H   0  0  0  0  0  0  0  0  0  0  0  0
    1.8737    0.5760   -1.0340 H   0  0  0  0  0  0  0  0  0  0  0  0
    0.9437    1.6244    1.5195 H   0  0  0  0  0  0  0  0  0  0  0  0
    1.4266    2.4477    0.0159 H   0  0  0  0  0  0  0  0  0  0  0  0
   -0.4281    1.3995   -1.2429 H   0  0  0  0  0  0  0  0  0  0  0  0
   -1.0369    2.2610    0.1815 H   0  0  0  0  0  0  0  0  0  0  0  0
    4.8272   -0.7862   -0.8127 H   0  0  0  0  0  0  0  0  0  0  0  0
    5.5691   -0.3436    0.6142 H   0  0  0  0  0  0  0  0  0  0  0  0
    3.1759   -1.9340    0.6894 H   0  0  0  0  0  0  0  0  0  0  0  0
    4.6744   -2.6845    0.2781 H   0  0  0  0  0  0  0  0  0  0  0  0
    2.0531   -1.4580    2.4980 H   0  0  0  0  0  0  0  0  0  0  0  0
    3.0583   -1.0709    3.8164 H   0  0  0  0  0  0  0  0  0  0  0  0
    4.4276    0.4617    2.3575 H   0  0  0  0  0  0  0  0  0  0  0  0
    2.7905    1.0894    2.4596 H   0  0  0  0  0  0  0  0  0  0  0  0
    4.9316   -5.4716    2.6186 H   0  0  0  0  0  0  0  0  0  0  0  0
    3.9621   -6.6188    0.6745 H   0  0  0  0  0  0  0  0  0  0  0  0
    2.6453   -5.9223    1.6071 H   0  0  0  0  0  0  0  0  0  0  0  0
    2.1837   -6.6388   -1.7305 H   0  0  0  0  0  0  0  0  0  0  0  0
    1.8562   -1.6397   -3.8532 H   0  0  0  0  0  0  0  0  0  0  0  0
    1.0048   -5.5024   -4.4847 H   0  0  0  0  0  0  0  0  0  0  0  0
    3.5987   -0.7875   -2.1900 H   0  0  0  0  0  0  0  0  0  0  0  0
    1.8546   -0.9939   -2.0553 H   0  0  0  0  0  0  0  0  0  0  0  0
    2.8202   -1.1299   -0.7263 H   0  0  0  0  0  0  0  0  0  0  0  0
    2.7590   -3.5041    0.6217 H   0  0  0  0  0  0  0  0  0  0  0  0
    5.8464   -3.7000    0.4700 H   0  0  0  0  0  0  0  0  0  0  0  0
    5.9106   -6.8842    0.2524 H   0  0  0  0  0  0  0  0  0  0  0  0
    7.4572   -6.7221   -0.5131 H   0  0  0  0  0  0  0  0  0  0  0  0
    6.3644   -8.6964    1.3926 H   0  0  0  0  0  0  0  0  0  0  0  0
    7.0437   -9.1015   -0.1318 H   0  0  0  0  0  0  0  0  0  0  0  0
    9.3259   -8.9760    0.5911 H   0  0  0  0  0  0  0  0  0  0  0  0
    8.7274   -7.8072    3.2800 H   0  0  0  0  0  0  0  0  0  0  0  0
   10.2457   -7.7795    2.3551 H   0  0  0  0  0  0  0  0  0  0  0  0
    9.4052   -6.0189    0.9151 H   0  0  0  0  0  0  0  0  0  0  0  0
    9.0803   -5.6079    2.6075 H   0  0  0  0  0  0  0  0  0  0  0  0
    9.7649  -11.3576    4.1508 H   0  0  0  0  0  0  0  0  0  0  0  0
    7.0058   -9.2134    2.9541 H   0  0  0  0  0  0  0  0  0  0  0  0
    4.5266   -9.7041    4.0366 H   0  0  0  0  0  0  0  0  0  0  0  0
    4.0458  -10.2164    6.4155 H   0  0  0  0  0  0  0  0  0  0  0  0
    5.7931  -11.3908    7.7348 H   0  0  0  0  0  0  0  0  0  0  0  0
    7.8864  -12.1904    6.6486 H   0  0  0  0  0  0  0  0  0  0  0  0
  1  2  1  0  0  0  0
  1 48  1  0  0  0  0
  1 49  1  0  0  0  0
  1 50  1  0  0  0  0
  2  3  1  0  0  0  0
  2  7  1  0  0  0  0
  3  4  1  0  0  0  0
  3 51  1  0  0  0  0
  3 52  1  0  0  0  0
  4  5  1  0  0  0  0
  4 53  1  0  0  0  0
  4 54  1  0  0  0  0
  5  6  1  0  0  0  0
  5  8  1  0  0  0  0
  5 55  1  0  0  0  0
  6  7  1  0  0  0  0
  6 56  1  0  0  0  0
  6 57  1  0  0  0  0
  7 58  1  0  0  0  0
  7 59  1  0  0  0  0
  8  9  1  0  0  0  0
  8 13  1  0  0  0  0
  9 10  1  0  0  0  0
  9 60  1  0  0  0  0
  9 61  1  0  0  0  0
 10 11  1  0  0  0  0
 10 62  1  0  0  0  0
 10 63  1  0  0  0  0
 11 12  1  0  0  0  0
 11 14  1  0  0  0  0
 12 13  1  0  0  0  0
 12 64  1  0  0  0  0
 12 65  1  0  0  0  0
 13 66  1  0  0  0  0
 13 67  1  0  0  0  0
 14 15  2  0  0  0  0
 16 14  1  0  0  0  0
 16 17  1  0  0  0  0
 16 28  1  0  0  0  0
 16 68  1  1  0  0  0
 17 18  1  0  0  0  0
 17 69  1  0  0  0  0
 17 70  1  0  0  0  0
 18 19  2  0  0  0  0
 18 27  1  0  0  0  0
 19 20  1  0  0  0  0
 19 71  1  0  0  0  0
 20 21  2  0  0  0  0
 20 24  1  0  0  0  0
 21 22  1  0  0  0  0
 21 25  1  0  0  0  0
 22 23  1  0  0  0  0
 22 72  1  0  0  0  0
 23 24  2  0  0  0  0
 24 73  1  0  0  0  0
 25 26  1  0  0  0  0
 25 27  2  0  0  0  0
 26 74  1  0  0  0  0
 26 75  1  0  0  0  0
 26 76  1  0  0  0  0
 27 77  1  0  0  0  0
 28 29  1  0  0  0  0
 28 78  1  0  0  0  0
 29 30  2  0  0  0  0
 29 31  1  0  0  0  0
 31 32  1  0  0  0  0
 31 36  1  0  0  0  0
 32 33  1  0  0  0  0
 32 79  1  0  0  0  0
 32 80  1  0  0  0  0
 33 34  1  0  0  0  0
 33 81  1  0  0  0  0
 33 82  1  0  0  0  0
 34 35  1  0  0  0  0
 34 37  1  0  0  0  0
 34 83  1  0  0  0  0
 35 36  1  0  0  0  0
 35 84  1  0  0  0  0
 35 85  1  0  0  0  0
 36 86  1  0  0  0  0
 36 87  1  0  0  0  0
 37 38  2  0  0  0  0
 37 42  1  0  0  0  0
 38 39  1  0  0  0  0
 38 88  1  0  0  0  0
 39 40  2  0  0  0  0
 39 47  1  0  0  0  0
 40 41  1  0  0  0  0
 40 44  1  0  0  0  0
 41 42  1  0  0  0  0
 41 89  1  0  0  0  0
 42 43  2  0  0  0  0
 44 45  2  0  0  0  0
 44 90  1  0  0  0  0
 45 46  1  0  0  0  0
 45 91  1  0  0  0  0
 46 47  2  0  0  0  0
 46 92  1  0  0  0  0
 47 93  1  0  0  0  0
M  END
>  <DRUGBANK_ID>
DB15688

>  <COMMON_NAME>
Zavegepant

>  <CAS_NUMBER>
1337918-83-8

>  <UNII>
ODU3ZAZ94J

>  <SYNONYMS>
1-piperidinecarboxamide, 4-(1,2-dihydro-2-oxo-3-quinolinyl)-n-((1r)-1-((7-methyl-1h-indazol-5-yl)methyl)-2-(4-(1-methyl-4-piperidinyl)-1-piperazinyl)-2-oxoethyl)-; Vazegepant; Zavegepant

$$$$
