
 OpenBabel10282417233D

 43 45  0  0  1  0  0  0  0  0999 V2000
    1.1020    0.0339    0.0705 C   0  0  0  0  0  0  0  0  0  0  0  0
    0.6536   -0.8899    1.0660 O   0  0  0  0  0  0  0  0  0  0  0  0
    0.9432   -2.2055    0.7944 C   0  0  0  0  0  0  0  0  0  0  0  0
    2.2676   -2.5352    0.4988 C   0  0  0  0  0  0  0  0  0  0  0  0
    2.6202   -3.8486    0.3015 C   0  0  0  0  0  0  0  0  0  0  0  0
    1.6524   -4.8322    0.4174 C   0  0  0  0  0  0  0  0  0  0  0  0
    0.2955   -4.5840    0.7344 C   0  0  0  0  0  0  0  0  0  0  0  0
   -0.0743   -3.2024    0.9365 C   0  0  0  0  0  0  0  0  0  0  0  0
   -1.3856   -2.8974    1.2432 N   0  3  0  0  0  0  0  0  0  0  0  0
   -1.8332   -1.5066    1.4658 C   0  0  0  0  0  0  0  0  0  0  0  0
   -2.3059   -3.8749    1.3484 C   0  0  0  0  0  0  0  0  0  0  0  0
   -3.6656   -3.6786    1.5780 O   0  0  0  0  0  0  0  0  0  0  0  0
   -4.2695   -5.0083    1.6241 C   0  0  2  0  0  0  0  0  0  0  0  0
   -3.1773   -6.0495    1.3512 C   0  0  0  0  0  0  0  0  0  0  0  0
   -1.9794   -5.1952    1.1887 C   0  0  0  0  0  0  0  0  0  0  0  0
   -0.6938   -5.5909    0.8681 C   0  0  0  0  0  0  0  0  0  0  0  0
   -0.6018   -6.9481    0.7113 O   0  0  0  0  0  0  0  0  0  0  0  0
    0.6261   -7.5762    0.3839 C   0  0  0  0  0  0  0  0  0  0  0  0
   -5.4371   -5.1225    0.6134 C   0  0  0  0  0  0  0  0  0  0  0  0
   -6.0341   -6.5380    0.5847 C   0  0  0  0  0  0  0  0  0  0  0  0
   -6.5536   -4.1241    0.9277 C   0  0  0  0  0  0  0  0  0  0  0  0
    0.6996    1.0136    0.3413 H   0  0  0  0  0  0  0  0  0  0  0  0
    0.7080   -0.2382   -0.9144 H   0  0  0  0  0  0  0  0  0  0  0  0
    2.1913    0.1194    0.0486 H   0  0  0  0  0  0  0  0  0  0  0  0
    3.0551   -1.7901    0.4506 H   0  0  0  0  0  0  0  0  0  0  0  0
    3.6466   -4.1308    0.0790 H   0  0  0  0  0  0  0  0  0  0  0  0
    2.0636   -5.8170    0.2531 H   0  0  0  0  0  0  0  0  0  0  0  0
   -1.2868   -1.1066    2.3250 H   0  0  0  0  0  0  0  0  0  0  0  0
   -1.6561   -0.9417    0.5459 H   0  0  0  0  0  0  0  0  0  0  0  0
   -2.8980   -1.4484    1.6935 H   0  0  0  0  0  0  0  0  0  0  0  0
   -4.6665   -5.1403    2.6408 H   0  0  0  0  0  0  0  0  0  0  0  0
   -3.3439   -6.6072    0.4269 H   0  0  0  0  0  0  0  0  0  0  0  0
   -3.0891   -6.7454    2.1906 H   0  0  0  0  0  0  0  0  0  0  0  0
    0.9763   -7.2438   -0.6000 H   0  0  0  0  0  0  0  0  0  0  0  0
    1.3568   -7.4191    1.1851 H   0  0  0  0  0  0  0  0  0  0  0  0
    0.4836   -8.6562    0.3077 H   0  0  0  0  0  0  0  0  0  0  0  0
   -5.0542   -4.8791   -0.3865 H   0  0  0  0  0  0  0  0  0  0  0  0
   -6.4450   -6.8107    1.5626 H   0  0  0  0  0  0  0  0  0  0  0  0
   -6.8370   -6.6071   -0.1563 H   0  0  0  0  0  0  0  0  0  0  0  0
   -5.2972   -7.2995    0.3146 H   0  0  0  0  0  0  0  0  0  0  0  0
   -6.1842   -3.0948    0.9262 H   0  0  0  0  0  0  0  0  0  0  0  0
   -7.3511   -4.1935    0.1789 H   0  0  0  0  0  0  0  0  0  0  0  0
   -6.9981   -4.3289    1.9078 H   0  0  0  0  0  0  0  0  0  0  0  0
  1  2  1  0  0  0  0
  1 22  1  0  0  0  0
  1 23  1  0  0  0  0
  1 24  1  0  0  0  0
  2  3  1  0  0  0  0
  3  4  2  0  0  0  0
  3  8  1  0  0  0  0
  4  5  1  0  0  0  0
  4 25  1  0  0  0  0
  5  6  2  0  0  0  0
  5 26  1  0  0  0  0
  6  7  1  0  0  0  0
  6 27  1  0  0  0  0
  7  8  2  0  0  0  0
  7 16  1  0  0  0  0
  8  9  1  0  0  0  0
  9 10  1  0  0  0  0
  9 11  2  0  0  0  0
 10 28  1  0  0  0  0
 10 29  1  0  0  0  0
 10 30  1  0  0  0  0
 11 12  1  0  0  0  0
 11 15  1  0  0  0  0
 13 12  1  0  0  0  0
 13 14  1  0  0  0  0
 13 19  1  0  0  0  0
 13 31  1  1  0  0  0
 14 15  1  0  0  0  0
 14 32  1  0  0  0  0
 14 33  1  0  0  0  0
 15 16  2  0  0  0  0
 16 17  1  0  0  0  0
 17 18  1  0  0  0  0
 18 34  1  0  0  0  0
 18 35  1  0  0  0  0
 18 36  1  0  0  0  0
 19 20  1  0  0  0  0
 19 21  1  0  0  0  0
 19 37  1  0  0  0  0
 20 38  1  0  0  0  0
 20 39  1  0  0  0  0
 20 40  1  0  0  0  0
 21 41  1  0  0  0  0
 21 42  1  0  0  0  0
 21 43  1  0  0  0  0
M  CHG  1   9   1
M  END
>  <DRUGBANK_ID>
DB16223

>  <COMMON_NAME>
Lunasine

>  <CAS_NUMBER>
6901-22-0

>  <UNII>
80R70AS7M1

>  <SYNONYMS>
(-)-lunasine; Lunasin; Lunasine, (-)-

$$$$
