
 OpenBabel10282417203D

 47 47  0  0  0  0  0  0  0  0999 V2000
   -3.7752    1.0878   -0.4258 C   0  0  2  0  0  0  0  0  0  0  0  0
   -4.9240    1.0563    0.6274 C   0  0  1  0  0  0  0  0  0  0  0  0
   -5.4639   -0.3742    0.7447 C   0  0  1  0  0  0  0  0  0  0  0  0
   -4.3848   -1.4411    0.8862 C   0  0  2  0  0  0  0  0  0  0  0  0
   -3.1217   -1.2643    0.0138 C   0  0  1  0  0  0  0  0  0  0  0  0
   -2.7538    0.0727   -0.3100 O   0  0  0  0  0  0  0  0  0  0  0  0
   -3.0767    2.4699   -0.4707 C   0  0  0  0  0  0  0  0  0  0  0  0
   -4.9215   -2.7727    0.7967 O   0  0  0  0  0  0  0  0  0  0  0  0
   -4.6685    1.6356    1.9194 O   0  0  0  0  0  0  0  0  0  0  0  0
   -6.3527   -0.4760    1.8741 O   0  0  0  0  0  0  0  0  0  0  0  0
   -1.9623   -2.0144    0.4897 O   0  0  0  0  0  0  0  0  0  0  0  0
   -1.3241   -1.8046    1.7801 C   0  0  1  0  0  0  0  0  0  0  0  0
   -0.5236   -0.4565    1.9603 C   0  0  1  0  0  0  0  0  0  0  0  0
   -1.3749    0.7984    1.8621 C   0  0  2  0  0  0  0  0  0  0  0  0
   -1.1957    2.0020    2.7661 C   0  0  0  0  0  0  0  0  0  0  0  0
   -1.5248    1.6131    4.1042 O   0  0  0  0  0  0  0  0  0  0  0  0
   -2.1738   -2.2470    3.0278 C   0  0  1  0  0  0  0  0  0  0  0  0
   -2.7058   -3.6737    2.9099 C   0  0  0  0  0  0  0  0  0  0  0  0
   -1.6551   -4.5960    3.1522 O   0  0  0  0  0  0  0  0  0  0  0  0
    0.1797   -0.4383    3.1987 O   0  0  0  0  0  0  0  0  0  0  0  0
   -2.7075    0.4277    2.1711 O   0  0  0  0  0  0  0  0  0  0  0  0
   -1.5191   -2.0013    4.2746 O   0  0  0  0  0  0  0  0  0  0  0  0
   -2.0121    2.4980   -1.4242 O   0  0  0  0  0  0  0  0  0  0  0  0
   -4.2301    0.9157   -1.4038 H   0  0  0  0  0  0  0  0  0  0  0  0
   -5.7253    1.7040    0.2729 H   0  0  0  0  0  0  0  0  0  0  0  0
   -6.0570   -0.5972   -0.1426 H   0  0  0  0  0  0  0  0  0  0  0  0
   -4.1381   -1.3824    1.9189 H   0  0  0  0  0  0  0  0  0  0  0  0
   -3.3435   -1.7490   -0.9465 H   0  0  0  0  0  0  0  0  0  0  0  0
   -3.7891    3.2521   -0.7366 H   0  0  0  0  0  0  0  0  0  0  0  0
   -2.6424    2.7655    0.4853 H   0  0  0  0  0  0  0  0  0  0  0  0
   -5.2308   -2.9384   -0.1076 H   0  0  0  0  0  0  0  0  0  0  0  0
   -3.7276    1.4849    2.1112 H   0  0  0  0  0  0  0  0  0  0  0  0
   -5.8383   -0.2190    2.6660 H   0  0  0  0  0  0  0  0  0  0  0  0
   -0.5035   -2.5381    1.7697 H   0  0  0  0  0  0  0  0  0  0  0  0
    0.2406   -0.4052    1.1745 H   0  0  0  0  0  0  0  0  0  0  0  0
   -1.2732    1.1495    0.8339 H   0  0  0  0  0  0  0  0  0  0  0  0
   -0.2028    2.4369    2.7000 H   0  0  0  0  0  0  0  0  0  0  0  0
   -1.9292    2.7737    2.4880 H   0  0  0  0  0  0  0  0  0  0  0  0
   -2.4957    1.5294    4.1631 H   0  0  0  0  0  0  0  0  0  0  0  0
   -3.0555   -1.6536    3.1716 H   0  0  0  0  0  0  0  0  0  0  0  0
   -3.4988   -3.8343    3.6491 H   0  0  0  0  0  0  0  0  0  0  0  0
   -3.1296   -3.8762    1.9236 H   0  0  0  0  0  0  0  0  0  0  0  0
   -1.0885   -4.5747    2.3617 H   0  0  0  0  0  0  0  0  0  0  0  0
   -0.4971   -0.3187    3.9032 H   0  0  0  0  0  0  0  0  0  0  0  0
   -2.6930    0.0897    3.1012 H   0  0  0  0  0  0  0  0  0  0  0  0
   -0.8699   -2.7170    4.4010 H   0  0  0  0  0  0  0  0  0  0  0  0
   -1.3809    1.7956   -1.1799 H   0  0  0  0  0  0  0  0  0  0  0  0
  1  7  1  0  0  0  0
  1  2  1  0  0  0  0
  1 24  1  6  0  0  0
  2  9  1  0  0  0  0
  2  3  1  0  0  0  0
  2 25  1  6  0  0  0
  3 10  1  0  0  0  0
  3  4  1  0  0  0  0
  3 26  1  6  0  0  0
  4  5  1  0  0  0  0
  4  8  1  0  0  0  0
  4 27  1  1  0  0  0
  5  6  1  0  0  0  0
  5 11  1  0  0  0  0
  5 28  1  6  0  0  0
  6  1  1  0  0  0  0
  7 23  1  0  0  0  0
  7 29  1  0  0  0  0
  7 30  1  0  0  0  0
  8 31  1  0  0  0  0
  9 32  1  0  0  0  0
 10 33  1  0  0  0  0
 12 11  1  0  0  0  0
 12 13  1  0  0  0  0
 12 17  1  0  0  0  0
 12 34  1  6  0  0  0
 13 20  1  0  0  0  0
 13 35  1  6  0  0  0
 14 21  1  0  0  0  0
 14 36  1  6  0  0  0
 14 15  1  0  0  0  0
 14 13  1  0  0  0  0
 15 16  1  0  0  0  0
 15 37  1  0  0  0  0
 15 38  1  0  0  0  0
 16 39  1  0  0  0  0
 17 18  1  0  0  0  0
 17 22  1  0  0  0  0
 17 40  1  6  0  0  0
 18 19  1  0  0  0  0
 18 41  1  0  0  0  0
 18 42  1  0  0  0  0
 19 43  1  0  0  0  0
 20 44  1  0  0  0  0
 21 45  1  0  0  0  0
 22 46  1  0  0  0  0
 23 47  1  0  0  0  0
M  END
>  <DRUGBANK_ID>
DB12942

>  <COMMON_NAME>
Lactitol

>  <CAS_NUMBER>
585-86-4

>  <UNII>
L2B0WJF7ZY

>  <SYNONYMS>
Lactitol; Lactitolum

$$$$
