
 OpenBabel10282417133D

 14 13  0  0  0  0  0  0  0  0999 V2000
    0.9811    0.0950    0.0506 C   0  0  0  0  0  0  0  0  0  0  0  0
    0.4425    1.0791   -0.9874 C   0  0  0  0  0  0  0  0  0  0  0  0
    1.0048    0.7220   -2.3465 C   0  0  0  0  0  0  0  0  0  0  0  0
    0.1272    0.4707   -3.3392 O   0  0  0  0  0  0  0  0  0  0  0  0
    2.2133    0.6905   -2.5576 O   0  0  0  0  0  0  0  0  0  0  0  0
   -1.0567    1.0691   -0.9415 C   0  0  0  0  0  0  0  0  0  0  0  0
   -1.6519    2.2273   -0.6006 O   0  0  0  0  0  0  0  0  0  0  0  0
   -1.7163    0.0946   -1.2891 O   0  0  0  0  0  0  0  0  0  0  0  0
    0.6568   -0.9290   -0.1704 H   0  0  0  0  0  0  0  0  0  0  0  0
    0.6293    0.3460    1.0567 H   0  0  0  0  0  0  0  0  0  0  0  0
    2.0771    0.0907    0.0666 H   0  0  0  0  0  0  0  0  0  0  0  0
    0.8010    2.0885   -0.7520 H   0  0  0  0  0  0  0  0  0  0  0  0
   -0.8197    0.3729   -3.0926 H   0  0  0  0  0  0  0  0  0  0  0  0
   -1.0758    2.9919   -0.4076 H   0  0  0  0  0  0  0  0  0  0  0  0
  1  2  1  0  0  0  0
  1  9  1  0  0  0  0
  1 10  1  0  0  0  0
  1 11  1  0  0  0  0
  2  3  1  0  0  0  0
  2  6  1  0  0  0  0
  2 12  1  0  0  0  0
  3  4  1  0  0  0  0
  3  5  2  0  0  0  0
  4 13  1  0  0  0  0
  6  7  1  0  0  0  0
  6  8  2  0  0  0  0
  7 14  1  0  0  0  0
M  END
>  <DRUGBANK_ID>
DB04183

>  <SECONDARY_ACCESSION_NUMBERS>
EXPT01309

>  <COMMON_NAME>
Methylmalonic Acid

>  <CAS_NUMBER>
516-05-2

>  <UNII>
8LL8S712J7

$$$$
