
 OpenBabel10282417203D

 43 44  0  0  0  0  0  0  0  0999 V2000
   -1.5162   -0.2549    0.1728 C   0  0  0  0  0  0  0  0  0  0  0  0
   -0.5785   -1.2571    0.2218 C   0  0  0  0  0  0  0  0  0  0  0  0
    0.7201   -0.8346    0.1799 C   0  0  0  0  0  0  0  0  0  0  0  0
    1.0632    0.4719   -0.2201 C   0  0  0  0  0  0  0  0  0  0  0  0
    0.1937    1.5212   -0.0967 C   0  0  0  0  0  0  0  0  0  0  0  0
   -1.1342    1.1127    0.0768 C   0  0  0  0  0  0  0  0  0  0  0  0
   -2.6809    2.4928    0.0390 I   0  0  0  0  0  0  0  0  0  0  0  0
    0.5806    2.8888   -0.0819 N   0  0  0  0  0  0  0  0  0  0  0  0
    1.8134    3.5042   -0.0016 C   0  0  0  0  0  0  0  0  0  0  0  0
    1.9082    4.7316   -0.0451 O   0  0  0  0  0  0  0  0  0  0  0  0
    3.0432    2.6561    0.1469 C   0  0  0  0  0  0  0  0  0  0  0  0
    2.9428    1.7572    1.2435 O   0  0  0  0  0  0  0  0  0  0  0  0
    3.2454    2.3735    2.4788 C   0  0  0  0  0  0  0  0  0  0  0  0
    4.6750    2.8727    2.4537 C   0  0  0  0  0  0  0  0  0  0  0  0
    4.9102    4.0800    2.3395 O   0  0  0  0  0  0  0  0  0  0  0  0
    5.7054    1.9567    2.5178 N   0  0  0  0  0  0  0  0  0  0  0  0
    5.6830    0.5049    2.5742 C   0  0  0  0  0  0  0  0  0  0  0  0
    6.5558   -0.1566    3.4244 C   0  0  0  0  0  0  0  0  0  0  0  0
    6.5993   -1.5691    3.4276 C   0  0  0  0  0  0  0  0  0  0  0  0
    5.7832   -2.4063    2.6145 C   0  0  0  0  0  0  0  0  0  0  0  0
    5.0302   -1.8742    1.5788 C   0  0  0  0  0  0  0  0  0  0  0  0
    5.0923   -0.3817    1.5694 C   0  0  0  0  0  0  0  0  0  0  0  0
    5.7251    0.4586   -0.4463 I   0  0  0  0  0  0  0  0  0  0  0  0
    4.3573   -2.9763    0.5310 C   0  0  0  0  0  0  0  0  0  0  0  0
    4.0262   -4.1256    0.7893 O   0  0  0  0  0  0  0  0  0  0  0  0
    3.9670   -2.5113   -0.7165 O   0  0  0  0  0  0  0  0  0  0  0  0
    6.0269   -4.4651    2.9993 I   0  0  0  0  0  0  0  0  0  0  0  0
    7.8819    0.8492    4.7167 I   0  0  0  0  0  0  0  0  0  0  0  0
    2.0661    0.2826   -2.4065 I   0  0  0  0  0  0  0  0  0  0  0  0
    1.8044   -1.6721    0.5053 C   0  0  0  0  0  0  0  0  0  0  0  0
    1.7754   -2.8958    0.5884 O   0  0  0  0  0  0  0  0  0  0  0  0
    2.8713   -0.8921    0.4151 O   0  0  0  0  0  0  0  0  0  0  0  0
   -1.2168   -3.2535    0.0602 I   0  0  0  0  0  0  0  0  0  0  0  0
   -2.5553   -0.5549    0.2071 H   0  0  0  0  0  0  0  0  0  0  0  0
   -0.1739    3.5603   -0.0265 H   0  0  0  0  0  0  0  0  0  0  0  0
    3.1148    2.1210   -0.7870 H   0  0  0  0  0  0  0  0  0  0  0  0
    3.9726    3.2303    0.1589 H   0  0  0  0  0  0  0  0  0  0  0  0
    2.5419    3.1924    2.6757 H   0  0  0  0  0  0  0  0  0  0  0  0
    3.1291    1.6492    3.2897 H   0  0  0  0  0  0  0  0  0  0  0  0
    6.6069    2.4290    2.5751 H   0  0  0  0  0  0  0  0  0  0  0  0
    7.3298   -2.0628    4.0650 H   0  0  0  0  0  0  0  0  0  0  0  0
    3.0827   -2.9594   -0.9339 H   0  0  0  0  0  0  0  0  0  0  0  0
    3.5146   -1.1918   -0.2866 H   0  0  0  0  0  0  0  0  0  0  0  0
  1  2  2  0  0  0  0
  1  6  1  0  0  0  0
  1 34  1  0  0  0  0
  2  3  1  0  0  0  0
  2 33  1  0  0  0  0
  3  4  2  0  0  0  0
  3 30  1  0  0  0  0
  4  5  1  0  0  0  0
  4 29  1  0  0  0  0
  5  6  2  0  0  0  0
  5  8  1  0  0  0  0
  6  7  1  0  0  0  0
  8  9  1  0  0  0  0
  8 35  1  0  0  0  0
  9 10  2  0  0  0  0
  9 11  1  0  0  0  0
 11 12  1  0  0  0  0
 11 36  1  0  0  0  0
 11 37  1  0  0  0  0
 12 13  1  0  0  0  0
 13 14  1  0  0  0  0
 13 38  1  0  0  0  0
 13 39  1  0  0  0  0
 14 15  2  0  0  0  0
 14 16  1  0  0  0  0
 16 17  1  0  0  0  0
 16 40  1  0  0  0  0
 17 18  2  0  0  0  0
 17 22  1  0  0  0  0
 18 19  1  0  0  0  0
 18 28  1  0  0  0  0
 19 20  2  0  0  0  0
 19 41  1  0  0  0  0
 20 21  1  0  0  0  0
 20 27  1  0  0  0  0
 21 22  2  0  0  0  0
 21 24  1  0  0  0  0
 22 23  1  0  0  0  0
 24 25  2  0  0  0  0
 24 26  1  0  0  0  0
 26 42  1  0  0  0  0
 30 31  2  0  0  0  0
 30 32  1  0  0  0  0
 32 43  1  0  0  0  0
M  END
>  <DRUGBANK_ID>
DB13741

>  <COMMON_NAME>
Ioglycamic acid

>  <CAS_NUMBER>
2618-25-9

>  <UNII>
ET36GPP4T7

>  <SYNONYMS>
Ioglycamic acid

$$$$
