
 OpenBabel10282417173D

 52 54  0  0  1  0  0  0  0  0999 V2000
   -0.3477    5.0645    3.2309 C   0  0  0  0  0  0  0  0  0  0  0  0
   -0.2445    4.2033    4.3220 C   0  0  0  0  0  0  0  0  0  0  0  0
   -0.3088    2.8477    4.1100 C   0  0  0  0  0  0  0  0  0  0  0  0
   -0.4504    2.3771    2.8162 C   0  0  0  0  0  0  0  0  0  0  0  0
   -0.6531    3.1949    1.7043 C   0  0  0  0  0  0  0  0  0  0  0  0
   -0.5447    4.5700    1.9301 C   0  0  0  0  0  0  0  0  0  0  0  0
   -1.0965    2.5981    0.3758 C   0  0  2  0  0  0  0  0  0  0  0  0
   -0.4502    1.2397   -0.0228 C   0  0  0  0  0  0  0  0  0  0  0  0
   -0.5886    0.0221    0.7807 N   0  0  0  0  0  0  0  0  0  0  0  0
    0.6244   -0.8102    0.8032 C   0  0  0  0  0  0  0  0  0  0  0  0
    2.0050   -0.1375    0.9494 C   0  0  0  0  0  0  0  0  0  0  0  0
    2.2356    0.5383    2.2667 C   0  0  0  0  0  0  0  0  0  0  0  0
    2.0845   -0.0842    3.5184 C   0  0  0  0  0  0  0  0  0  0  0  0
    2.2827    0.6224    4.7263 C   0  0  0  0  0  0  0  0  0  0  0  0
    2.5979    1.9803    4.6914 C   0  0  0  0  0  0  0  0  0  0  0  0
    2.6776    2.5576    3.4243 C   0  0  0  0  0  0  0  0  0  0  0  0
    2.5515    1.8762    2.2352 C   0  0  0  0  0  0  0  0  0  0  0  0
    2.7190    2.7353    5.8873 N   0  0  0  0  0  0  0  0  0  0  0  0
    3.1131    4.0515    6.0913 C   0  0  0  0  0  0  0  0  0  0  0  0
    3.0667    4.5142    7.2234 O   0  0  0  0  0  0  0  0  0  0  0  0
   -0.7763    3.5151   -0.6889 O   0  0  0  0  0  0  0  0  0  0  0  0
    3.5414    4.9479    4.9324 C   0  0  0  0  0  0  0  0  0  0  0  0
    4.7453    4.4226    4.1790 C   0  0  0  0  0  0  0  0  0  0  0  0
    5.2395    4.9284    2.9906 C   0  0  0  0  0  0  0  0  0  0  0  0
    6.3431    3.8164    2.2844 S   0  0  0  0  0  0  0  0  0  0  0  0
    6.0641    2.7199    3.5737 C   0  0  0  0  0  0  0  0  0  0  0  0
    5.3056    3.1924    4.5306 N   0  0  0  0  0  0  0  0  0  0  0  0
    6.5649    1.4776    3.5712 N   0  0  0  0  0  0  0  0  0  0  0  0
   -0.2949    6.1340    3.4020 H   0  0  0  0  0  0  0  0  0  0  0  0
   -0.0509    4.5645    5.3256 H   0  0  0  0  0  0  0  0  0  0  0  0
   -0.1313    2.1287    4.9051 H   0  0  0  0  0  0  0  0  0  0  0  0
   -0.2448    1.3300    2.7246 H   0  0  0  0  0  0  0  0  0  0  0  0
   -0.6136    5.2736    1.1029 H   0  0  0  0  0  0  0  0  0  0  0  0
   -2.1884    2.5074    0.3959 H   0  0  0  0  0  0  0  0  0  0  0  0
   -0.7702    0.9697   -1.0348 H   0  0  0  0  0  0  0  0  0  0  0  0
    0.5916    1.5183   -0.1347 H   0  0  0  0  0  0  0  0  0  0  0  0
   -0.9620    0.1667    1.7118 H   0  0  0  0  0  0  0  0  0  0  0  0
    0.5138   -1.5501    1.6045 H   0  0  0  0  0  0  0  0  0  0  0  0
    0.6277   -1.3696   -0.1348 H   0  0  0  0  0  0  0  0  0  0  0  0
    2.8077   -0.8631    0.8028 H   0  0  0  0  0  0  0  0  0  0  0  0
    2.1742    0.5784    0.1328 H   0  0  0  0  0  0  0  0  0  0  0  0
    1.7532   -1.1176    3.5611 H   0  0  0  0  0  0  0  0  0  0  0  0
    2.1293    0.0999    5.6675 H   0  0  0  0  0  0  0  0  0  0  0  0
    2.7614    3.6048    3.2419 H   0  0  0  0  0  0  0  0  0  0  0  0
    2.5779    2.4656    1.3216 H   0  0  0  0  0  0  0  0  0  0  0  0
    2.5516    2.2575    6.7661 H   0  0  0  0  0  0  0  0  0  0  0  0
    0.1941    3.5858   -0.7127 H   0  0  0  0  0  0  0  0  0  0  0  0
    2.6561    5.0911    4.2964 H   0  0  0  0  0  0  0  0  0  0  0  0
    3.7367    5.9641    5.2831 H   0  0  0  0  0  0  0  0  0  0  0  0
    4.9466    5.8282    2.4711 H   0  0  0  0  0  0  0  0  0  0  0  0
    7.3036    1.1996    2.9413 H   0  0  0  0  0  0  0  0  0  0  0  0
    6.3442    0.8507    4.3350 H   0  0  0  0  0  0  0  0  0  0  0  0
  1  2  2  0  0  0  0
  1  6  1  0  0  0  0
  1 29  1  0  0  0  0
  2  3  1  0  0  0  0
  2 30  1  0  0  0  0
  3  4  2  0  0  0  0
  3 31  1  0  0  0  0
  4  5  1  0  0  0  0
  4 32  1  0  0  0  0
  5  6  2  0  0  0  0
  6 33  1  0  0  0  0
  7 21  1  0  0  0  0
  7 34  1  1  0  0  0
  7  8  1  0  0  0  0
  7  5  1  0  0  0  0
  8  9  1  0  0  0  0
  8 35  1  0  0  0  0
  8 36  1  0  0  0  0
  9 10  1  0  0  0  0
  9 37  1  0  0  0  0
 10 11  1  0  0  0  0
 10 38  1  0  0  0  0
 10 39  1  0  0  0  0
 11 12  1  0  0  0  0
 11 40  1  0  0  0  0
 11 41  1  0  0  0  0
 12 13  2  0  0  0  0
 12 17  1  0  0  0  0
 13 14  1  0  0  0  0
 13 42  1  0  0  0  0
 14 15  2  0  0  0  0
 14 43  1  0  0  0  0
 15 16  1  0  0  0  0
 15 18  1  0  0  0  0
 16 17  2  0  0  0  0
 16 44  1  0  0  0  0
 17 45  1  0  0  0  0
 18 19  1  0  0  0  0
 18 46  1  0  0  0  0
 19 20  2  0  0  0  0
 19 22  1  0  0  0  0
 21 47  1  0  0  0  0
 22 23  1  0  0  0  0
 22 48  1  0  0  0  0
 22 49  1  0  0  0  0
 23 24  2  0  0  0  0
 23 27  1  0  0  0  0
 24 25  1  0  0  0  0
 24 50  1  0  0  0  0
 25 26  1  0  0  0  0
 26 27  2  0  0  0  0
 26 28  1  0  0  0  0
 28 51  1  0  0  0  0
 28 52  1  0  0  0  0
M  END
>  <DRUGBANK_ID>
DB08893

>  <SECONDARY_ACCESSION_NUMBERS>
DB05702

>  <COMMON_NAME>
Mirabegron

>  <CAS_NUMBER>
223673-61-8

>  <UNII>
MVR3JL3B2V

>  <SYNONYMS>
Mirabegron

$$$$
