
 OpenBabel10282417203D

 21 22  0  0  0  0  0  0  0  0999 V2000
    1.1012    0.0584   -0.0393 C   0  0  0  0  0  0  0  0  0  0  0  0
    0.6256    1.0280   -1.0732 C   0  0  0  0  0  0  0  0  0  0  0  0
    0.9126    2.3320   -0.8679 N   0  0  0  0  0  0  0  0  0  0  0  0
    0.5469    3.2495   -1.7860 C   0  0  0  0  0  0  0  0  0  0  0  0
   -0.2535    2.8946   -2.9017 C   0  0  0  0  0  0  0  0  0  0  0  0
   -0.6161    1.5438   -3.0285 C   0  0  0  0  0  0  0  0  0  0  0  0
   -0.0845    0.5916   -2.1764 C   0  0  0  0  0  0  0  0  0  0  0  0
   -0.5835    3.8742   -3.8625 C   0  0  0  0  0  0  0  0  0  0  0  0
   -0.0972    5.1732   -3.7609 C   0  0  0  0  0  0  0  0  0  0  0  0
    0.6895    5.5192   -2.6705 C   0  0  0  0  0  0  0  0  0  0  0  0
    0.9910    4.5726   -1.6883 C   0  0  0  0  0  0  0  0  0  0  0  0
    1.7832    4.9268   -0.6135 O   0  0  0  0  0  0  0  0  0  0  0  0
    1.3110    7.1252   -2.5685 Cl  0  0  0  0  0  0  0  0  0  0  0  0
   -1.5251    3.4988   -5.2708 Cl  0  0  0  0  0  0  0  0  0  0  0  0
    0.7345   -0.9528   -0.2421 H   0  0  0  0  0  0  0  0  0  0  0  0
    0.7263    0.3600    0.9438 H   0  0  0  0  0  0  0  0  0  0  0  0
    2.1941    0.0375   -0.0186 H   0  0  0  0  0  0  0  0  0  0  0  0
   -1.2780    1.2080   -3.8245 H   0  0  0  0  0  0  0  0  0  0  0  0
   -0.2254   -0.4639   -2.3781 H   0  0  0  0  0  0  0  0  0  0  0  0
   -0.3106    5.8986   -4.5400 H   0  0  0  0  0  0  0  0  0  0  0  0
    2.0346    5.8619   -0.7103 H   0  0  0  0  0  0  0  0  0  0  0  0
  1  2  1  0  0  0  0
  1 15  1  0  0  0  0
  1 16  1  0  0  0  0
  1 17  1  0  0  0  0
  2  3  2  0  0  0  0
  2  7  1  0  0  0  0
  3  4  1  0  0  0  0
  4  5  2  0  0  0  0
  4 11  1  0  0  0  0
  5  6  1  0  0  0  0
  5  8  1  0  0  0  0
  6  7  2  0  0  0  0
  6 18  1  0  0  0  0
  7 19  1  0  0  0  0
  8  9  2  0  0  0  0
  8 14  1  0  0  0  0
  9 10  1  0  0  0  0
  9 20  1  0  0  0  0
 10 11  2  0  0  0  0
 10 13  1  0  0  0  0
 11 12  1  0  0  0  0
 12 21  1  0  0  0  0
M  END
>  <DRUGBANK_ID>
DB13306

>  <COMMON_NAME>
Chlorquinaldol

>  <CAS_NUMBER>
72-80-0

>  <UNII>
D6VHC87LLS

>  <SYNONYMS>
2-methyl-5,7-dichloro-8-hydroxyquinoline; 5,7-dichloro-2-methyl-8-hydroxyquinoline; 5,7-dichloro-2-methyl-8-quinolinol; 5,7-dichloro-8-hydroxy-2-methylquinoline; 5,7-dichloro-8-hydroxyquinaldine; 5,7-dichloro-8-quinaldinol; Chlorchinaldol; Chlorquinaldol; Chlorquinaldolum; Clorquinaldol

$$$$
