1280
 OpenBabel10282417113D

 36 38  0  0  1  0  0  0  0  0999 V2000
    1.8370   -0.0884    0.0579 O   0  0  0  0  0  0  0  0  0  0  0  0
   -1.6006   -1.4063    0.0799 O   0  0  0  0  0  0  0  0  0  0  0  0
   -1.3481    1.6099   -0.1690 O   0  0  0  0  0  0  0  0  0  0  0  0
    2.8952    2.4795    0.8409 O   0  0  0  0  0  0  0  0  0  0  0  0
    0.7522   -4.7921    4.9375 O   0  0  0  0  0  0  0  0  0  0  0  0
    1.0871   -1.9219    1.3577 N   0  0  0  0  0  0  0  0  0  0  0  0
    1.8465   -2.4088    3.3984 N   0  0  0  0  0  0  0  0  0  0  0  0
   -0.4973   -3.7481    1.0847 N   0  0  0  0  0  0  0  0  0  0  0  0
   -0.6215   -5.1717    3.0196 N   0  0  0  0  0  0  0  0  0  0  0  0
   -1.9608   -5.5130    1.1555 N   0  0  0  0  0  0  0  0  0  0  0  0
   -0.4419   -0.6765   -0.2784 C   0  0  2  0  0  0  0  0  0  0  0  0
    0.9465   -1.2451    0.0748 C   0  0  1  0  0  0  0  0  0  0  0  0
   -0.4003    0.6972    0.3676 C   0  0  1  0  0  0  0  0  0  0  0  0
    1.0343    1.1208    0.0906 C   0  0  1  0  0  0  0  0  0  0  0  0
    1.5668    2.0734    1.1612 C   0  0  0  0  0  0  0  0  0  0  0  0
    0.4341   -3.0640    1.7555 C   0  0  0  0  0  0  0  0  0  0  0  0
    1.9515   -1.5934    2.3701 C   0  0  0  0  0  0  0  0  0  0  0  0
    0.9018   -3.3391    3.0297 C   0  0  0  0  0  0  0  0  0  0  0  0
    0.3372   -4.4537    3.6635 C   0  0  0  0  0  0  0  0  0  0  0  0
   -0.9869   -4.7916    1.7787 C   0  0  0  0  0  0  0  0  0  0  0  0
    0.1339   -5.9426    5.4976 C   0  0  0  0  0  0  0  0  0  0  0  0
   -1.5254   -1.7214    0.9995 H   0  0  0  0  0  0  0  0  0  0  0  0
   -1.2850    1.6087   -1.1406 H   0  0  0  0  0  0  0  0  0  0  0  0
    3.4199    1.6659    0.7277 H   0  0  0  0  0  0  0  0  0  0  0  0
   -2.2649   -5.2053    0.2458 H   0  0  0  0  0  0  0  0  0  0  0  0
   -2.3756   -6.2933    1.6347 H   0  0  0  0  0  0  0  0  0  0  0  0
   -0.4994   -0.5500   -1.3673 H   0  0  0  0  0  0  0  0  0  0  0  0
    1.2982   -1.9517   -0.6862 H   0  0  0  0  0  0  0  0  0  0  0  0
   -0.6024    0.6121    1.4412 H   0  0  0  0  0  0  0  0  0  0  0  0
    1.1286    1.5998   -0.8929 H   0  0  0  0  0  0  0  0  0  0  0  0
    0.9461    2.9714    1.2379 H   0  0  0  0  0  0  0  0  0  0  0  0
    1.6006    1.5863    2.1407 H   0  0  0  0  0  0  0  0  0  0  0  0
    2.6345   -0.7554    2.3136 H   0  0  0  0  0  0  0  0  0  0  0  0
   -0.9426   -5.7976    5.6336 H   0  0  0  0  0  0  0  0  0  0  0  0
    0.3420   -6.8433    4.9110 H   0  0  0  0  0  0  0  0  0  0  0  0
    0.5706   -6.0937    6.4922 H   0  0  0  0  0  0  0  0  0  0  0  0
  1 12  1  0  0  0  0
  1 14  1  0  0  0  0
  2 22  1  0  0  0  0
  3 23  1  0  0  0  0
  4 15  1  0  0  0  0
  4 24  1  0  0  0  0
  5 19  1  0  0  0  0
  5 21  1  0  0  0  0
  6 16  1  0  0  0  0
  6 17  1  0  0  0  0
  7 17  2  0  0  0  0
  7 18  1  0  0  0  0
  8 16  1  0  0  0  0
  8 20  2  0  0  0  0
  9 19  2  0  0  0  0
  9 20  1  0  0  0  0
 10 20  1  0  0  0  0
 10 25  1  0  0  0  0
 10 26  1  0  0  0  0
 11  2  1  0  0  0  0
 11 12  1  0  0  0  0
 11 13  1  0  0  0  0
 11 27  1  6  0  0  0
 12  6  1  0  0  0  0
 12 28  1  6  0  0  0
 13  3  1  0  0  0  0
 13 14  1  0  0  0  0
 13 29  1  1  0  0  0
 14 15  1  0  0  0  0
 14 30  1  6  0  0  0
 15 31  1  0  0  0  0
 15 32  1  0  0  0  0
 16 18  2  0  0  0  0
 17 33  1  0  0  0  0
 18 19  1  0  0  0  0
 21 34  1  0  0  0  0
 21 35  1  0  0  0  0
 21 36  1  0  0  0  0
M  END
>  <DRUGBANK_ID>
DB01280

>  <COMMON_NAME>
Nelarabine

>  <CAS_NUMBER>
121032-29-9

>  <UNII>
60158CV180

>  <SYNONYMS>
2-Amino-9-beta-D-arabinofuranosyl-6-methoxy-9H-purine; Nelarabina; Nelarabine; Nelzarabine

$$$$
