
 OpenBabel10282417243D

 56 58  0  0  0  0  0  0  0  0999 V2000
    0.9767   -0.1434    0.2950 N   0  0  0  0  0  0  0  0  0  0  0  0
    0.4109   -1.4918    0.4383 C   0  0  0  0  0  0  0  0  0  0  0  0
    0.9674   -1.9888    1.7947 C   0  0  0  0  0  0  0  0  0  0  0  0
    0.5557   -1.0985    2.8411 O   0  0  0  0  0  0  0  0  0  0  0  0
   -1.1547   -1.6030    0.5511 C   0  0  0  0  0  0  0  0  0  0  0  0
   -1.8963   -1.6340   -0.6602 O   0  0  0  0  0  0  0  0  0  0  0  0
    0.9276   -2.3142   -0.7632 C   0  0  0  0  0  0  0  0  0  0  0  0
    0.4727   -1.8256   -2.1693 C   0  0  0  0  0  0  0  0  0  0  0  0
    0.8101   -0.3884   -2.5428 C   0  0  0  0  0  0  0  0  0  0  0  0
    2.0081   -0.2092   -3.2665 C   0  0  0  0  0  0  0  0  0  0  0  0
    2.4760    1.0720   -3.5907 C   0  0  0  0  0  0  0  0  0  0  0  0
    1.7885    2.2128   -3.1939 C   0  0  0  0  0  0  0  0  0  0  0  0
    2.3625    3.8419   -3.5951 S   0  0  0  0  0  0  0  0  0  0  0  0
    1.2721    4.9841   -2.7361 C   0  0  0  0  0  0  0  0  0  0  0  0
    1.1241    4.9785   -1.3374 C   0  0  0  0  0  0  0  0  0  0  0  0
    0.3970    5.9779   -0.6978 C   0  0  0  0  0  0  0  0  0  0  0  0
   -0.0922    7.0435   -1.4404 C   0  0  0  0  0  0  0  0  0  0  0  0
    0.0064    7.0471   -2.8377 C   0  0  0  0  0  0  0  0  0  0  0  0
   -0.5425    7.9942   -3.6693 O   0  0  0  0  0  0  0  0  0  0  0  0
   -1.2293    9.1013   -3.0618 C   0  0  0  0  0  0  0  0  0  0  0  0
   -2.5749    8.7439   -2.4450 C   0  0  0  0  0  0  0  0  0  0  0  0
   -2.9813    7.4046   -2.3036 C   0  0  0  0  0  0  0  0  0  0  0  0
   -4.0177    7.0454   -1.4521 C   0  0  0  0  0  0  0  0  0  0  0  0
   -4.7601    8.0345   -0.8304 C   0  0  0  0  0  0  0  0  0  0  0  0
   -4.4544    9.3787   -1.0531 C   0  0  0  0  0  0  0  0  0  0  0  0
   -3.3618    9.7363   -1.8518 C   0  0  0  0  0  0  0  0  0  0  0  0
    0.6328    5.9785   -3.4821 C   0  0  0  0  0  0  0  0  0  0  0  0
    0.6036    2.0402   -2.4966 C   0  0  0  0  0  0  0  0  0  0  0  0
    0.1045    0.7833   -2.1944 C   0  0  0  0  0  0  0  0  0  0  0  0
   -1.3792    0.9733   -1.3195 Cl  0  0  0  0  0  0  0  0  0  0  0  0
    0.5416    0.6183    0.7951 H   0  0  0  0  0  0  0  0  0  0  0  0
    1.9914   -0.0953    0.2305 H   0  0  0  0  0  0  0  0  0  0  0  0
    0.5970   -2.9875    2.0395 H   0  0  0  0  0  0  0  0  0  0  0  0
    2.0616   -2.0144    1.8012 H   0  0  0  0  0  0  0  0  0  0  0  0
    0.8261   -0.2099    2.5480 H   0  0  0  0  0  0  0  0  0  0  0  0
   -1.4084   -2.5610    1.0075 H   0  0  0  0  0  0  0  0  0  0  0  0
   -1.5637   -0.8089    1.1828 H   0  0  0  0  0  0  0  0  0  0  0  0
   -1.7322   -0.7822   -1.1060 H   0  0  0  0  0  0  0  0  0  0  0  0
    2.0277   -2.3490   -0.7440 H   0  0  0  0  0  0  0  0  0  0  0  0
    0.6080   -3.3590   -0.6380 H   0  0  0  0  0  0  0  0  0  0  0  0
    0.9675   -2.4969   -2.8886 H   0  0  0  0  0  0  0  0  0  0  0  0
   -0.5790   -2.0320   -2.3710 H   0  0  0  0  0  0  0  0  0  0  0  0
    2.5862   -1.0757   -3.5788 H   0  0  0  0  0  0  0  0  0  0  0  0
    3.3999    1.1568   -4.1647 H   0  0  0  0  0  0  0  0  0  0  0  0
    1.5548    4.1878   -0.7299 H   0  0  0  0  0  0  0  0  0  0  0  0
    0.2254    5.9505    0.3758 H   0  0  0  0  0  0  0  0  0  0  0  0
   -0.6156    7.8240   -0.8960 H   0  0  0  0  0  0  0  0  0  0  0  0
   -0.5733    9.5648   -2.3097 H   0  0  0  0  0  0  0  0  0  0  0  0
   -1.3745    9.8584   -3.8415 H   0  0  0  0  0  0  0  0  0  0  0  0
   -2.4366    6.5976   -2.7838 H   0  0  0  0  0  0  0  0  0  0  0  0
   -4.2096    5.9919   -1.2668 H   0  0  0  0  0  0  0  0  0  0  0  0
   -5.5810    7.7542   -0.1771 H   0  0  0  0  0  0  0  0  0  0  0  0
   -5.0504   10.1479   -0.5719 H   0  0  0  0  0  0  0  0  0  0  0  0
   -3.1176   10.7894   -1.9770 H   0  0  0  0  0  0  0  0  0  0  0  0
    0.6281    5.9357   -4.5694 H   0  0  0  0  0  0  0  0  0  0  0  0
    0.0306    2.8903   -2.1611 H   0  0  0  0  0  0  0  0  0  0  0  0
  1  2  1  0  0  0  0
  1 31  1  0  0  0  0
  1 32  1  0  0  0  0
  2  3  1  0  0  0  0
  2  5  1  0  0  0  0
  2  7  1  0  0  0  0
  3  4  1  0  0  0  0
  3 33  1  0  0  0  0
  3 34  1  0  0  0  0
  4 35  1  0  0  0  0
  5  6  1  0  0  0  0
  5 36  1  0  0  0  0
  5 37  1  0  0  0  0
  6 38  1  0  0  0  0
  7  8  1  0  0  0  0
  7 39  1  0  0  0  0
  7 40  1  0  0  0  0
  8  9  1  0  0  0  0
  8 41  1  0  0  0  0
  8 42  1  0  0  0  0
  9 10  2  0  0  0  0
  9 29  1  0  0  0  0
 10 11  1  0  0  0  0
 10 43  1  0  0  0  0
 11 12  2  0  0  0  0
 11 44  1  0  0  0  0
 12 13  1  0  0  0  0
 12 28  1  0  0  0  0
 13 14  1  0  0  0  0
 14 15  2  0  0  0  0
 14 27  1  0  0  0  0
 15 16  1  0  0  0  0
 15 45  1  0  0  0  0
 16 17  2  0  0  0  0
 16 46  1  0  0  0  0
 17 18  1  0  0  0  0
 17 47  1  0  0  0  0
 18 19  1  0  0  0  0
 18 27  2  0  0  0  0
 19 20  1  0  0  0  0
 20 21  1  0  0  0  0
 20 48  1  0  0  0  0
 20 49  1  0  0  0  0
 21 22  2  0  0  0  0
 21 26  1  0  0  0  0
 22 23  1  0  0  0  0
 22 50  1  0  0  0  0
 23 24  2  0  0  0  0
 23 51  1  0  0  0  0
 24 25  1  0  0  0  0
 24 52  1  0  0  0  0
 25 26  2  0  0  0  0
 25 53  1  0  0  0  0
 26 54  1  0  0  0  0
 27 55  1  0  0  0  0
 28 29  2  0  0  0  0
 28 56  1  0  0  0  0
 29 30  1  0  0  0  0
M  END
>  <DRUGBANK_ID>
DB18151

>  <COMMON_NAME>
Mocravimod

>  <CAS_NUMBER>
509092-16-4

>  <UNII>
X71GCJ0HLI

>  <SYNONYMS>
1,3-propanediol, 2-amino-2-(2-(2-chloro-4-((3-(phenylmethoxy)phenyl)thio)phenyl)ethyl)-; 2-amino-2-(2-(2-chloro-4-(3-benzyloxyphenylthio)phenyl)ethyl)-1,3-propanediol; Krp-203 free base

$$$$
