
 OpenBabel10282417133D

 41 43  0  0  1  0  0  0  0  0999 V2000
    0.9781    0.0782   -0.0137 C   0  0  0  0  0  0  0  0  0  0  0  0
    1.1856    3.9140   -1.4938 C   0  0  0  0  0  0  0  0  0  0  0  0
    3.5937    1.5983   -4.3365 C   0  0  0  0  0  0  0  0  0  0  0  0
    0.5760   -0.4129   -1.4654 C   0  0  2  0  0  0  0  0  0  0  0  0
    3.2046    3.4243   -3.2523 C   0  0  0  0  0  0  0  0  0  0  0  0
    1.4051   -1.5782   -2.0253 C   0  0  2  0  0  0  0  0  0  0  0  0
    2.4225   -0.9584   -2.9466 C   0  0  2  0  0  0  0  0  0  0  0  0
    2.2165    2.5370   -2.8979 C   0  0  0  0  0  0  0  0  0  0  0  0
    3.0886    4.6601   -2.6130 C   0  0  0  0  0  0  0  0  0  0  0  0
    1.6501    0.2120   -3.4985 C   0  0  2  0  0  0  0  0  0  0  0  0
    1.2122    2.7194   -2.0330 N   0  0  0  0  0  0  0  0  0  0  0  0
    2.0822    4.8767   -1.7108 N   0  0  0  0  0  0  0  0  0  0  0  0
    4.0623    2.8243   -4.1630 N   0  0  0  0  0  0  0  0  0  0  0  0
    2.4560    1.4025   -3.6071 N   0  0  0  0  0  0  0  0  0  0  0  0
    0.5718   -2.4652   -2.7829 O   0  0  0  0  0  0  0  0  0  0  0  0
    2.8189   -1.8746   -3.9624 O   0  0  0  0  0  0  0  0  0  0  0  0
    0.1646   -2.7128    2.1350 O   0  0  0  0  0  0  0  0  0  0  0  0
   -0.2960   -2.7165   -0.0952 O   0  0  0  0  0  0  0  0  0  0  0  0
    1.5765   -3.8443    0.5262 O   0  0  0  0  0  0  0  0  0  0  0  0
    3.4363    7.7773   -4.0806 O   0  0  0  0  0  0  0  0  0  0  0  0
    1.8859    7.2270   -2.2610 O   0  0  0  0  0  0  0  0  0  0  0  0
    4.2932    8.0380   -1.6609 O   0  0  0  0  0  0  0  0  0  0  0  0
    0.4837   -0.8041    1.0839 O   0  0  0  0  0  0  0  0  0  0  0  0
    0.5687    0.4800   -2.5748 O   0  0  0  0  0  0  0  0  0  0  0  0
    3.9337    5.7065   -2.8446 O   0  0  0  0  0  0  0  0  0  0  0  0
    1.0604   -2.4084    0.7896 P   0  0  0  0  0  0  0  0  0  0  0  0
    3.4554    7.2186   -2.5807 P   0  0  0  0  0  0  0  0  0  0  0  0
   -0.4963   -0.5947   -1.3908 H   0  0  0  0  0  0  0  0  0  0  0  0
    1.9654   -2.1718   -1.3143 H   0  0  0  0  0  0  0  0  0  0  0  0
    3.3088   -0.6535   -2.3762 H   0  0  0  0  0  0  0  0  0  0  0  0
    1.2112    0.0021   -4.4798 H   0  0  0  0  0  0  0  0  0  0  0  0
    0.5741    1.0755    0.1907 H   0  0  0  0  0  0  0  0  0  0  0  0
    2.0680    0.1473    0.0851 H   0  0  0  0  0  0  0  0  0  0  0  0
    0.3544    4.1224   -0.8301 H   0  0  0  0  0  0  0  0  0  0  0  0
    4.0371    0.8190   -4.9519 H   0  0  0  0  0  0  0  0  0  0  0  0
   -0.1222   -1.9672   -3.2520 H   0  0  0  0  0  0  0  0  0  0  0  0
    2.0619   -2.4884   -4.0908 H   0  0  0  0  0  0  0  0  0  0  0  0
    0.4342   -3.4329    2.7126 H   0  0  0  0  0  0  0  0  0  0  0  0
   -0.6053   -2.1904   -0.7859 H   0  0  0  0  0  0  0  0  0  0  0  0
    4.2973    8.1695   -4.2978 H   0  0  0  0  0  0  0  0  0  0  0  0
    1.6735    6.4409   -1.7132 H   0  0  0  0  0  0  0  0  0  0  0  0
  1 32  1  0  0  0  0
  1 33  1  0  0  0  0
  2 34  1  0  0  0  0
  3 35  1  0  0  0  0
  4  1  1  0  0  0  0
  4 28  1  1  0  0  0
  6  4  1  0  0  0  0
  6 15  1  0  0  0  0
  6 29  1  1  0  0  0
  7  6  1  0  0  0  0
  7 16  1  0  0  0  0
  7 30  1  1  0  0  0
  8  5  2  0  0  0  0
  9  5  1  0  0  0  0
 10  7  1  0  0  0  0
 10 31  1  6  0  0  0
 10 14  1  0  0  0  0
 11  2  2  0  0  0  0
 11  8  1  0  0  0  0
 12  2  1  0  0  0  0
 12  9  2  0  0  0  0
 13  3  2  0  0  0  0
 13  5  1  0  0  0  0
 14  3  1  0  0  0  0
 14  8  1  0  0  0  0
 15 36  1  0  0  0  0
 16 37  1  0  0  0  0
 17 38  1  0  0  0  0
 18 39  1  0  0  0  0
 20 40  1  0  0  0  0
 21 41  1  0  0  0  0
 23  1  1  0  0  0  0
 24  4  1  0  0  0  0
 24 10  1  0  0  0  0
 25  9  1  0  0  0  0
 26 17  1  0  0  0  0
 26 18  1  0  0  0  0
 26 19  2  0  0  0  0
 26 23  1  0  0  0  0
 27 20  1  0  0  0  0
 27 21  1  0  0  0  0
 27 22  2  0  0  0  0
 27 25  1  0  0  0  0
M  END
>  <DRUGBANK_ID>
DB03510

>  <SECONDARY_ACCESSION_NUMBERS>
EXPT01873

>  <COMMON_NAME>
6-O-Phosphoryl Inosine Monophosphate

$$$$
