
 OpenBabel10282417193D

 46 49  0  0  1  0  0  0  0  0999 V2000
    0.9901   -2.5184   -0.0817 C   0  0  0  0  0  0  0  0  0  0  0  0
    0.4122   -1.1897   -0.6709 C   0  0  2  0  0  0  0  0  0  0  0  0
    1.0917    0.1166    0.0275 C   0  0  2  0  0  0  0  0  0  0  0  0
    2.2589    0.6349   -0.8455 C   0  0  0  0  0  0  0  0  0  0  0  0
    1.8474    1.5093   -1.9262 N   0  0  0  0  0  0  0  0  0  0  0  0
    1.7233    2.8659   -1.8768 C   0  0  0  0  0  0  0  0  0  0  0  0
    1.4210    3.3255   -3.0662 N   0  0  0  0  0  0  0  0  0  0  0  0
    1.3688    2.1882   -3.8223 C   0  0  0  0  0  0  0  0  0  0  0  0
    1.6677    1.0534   -3.1782 N   0  0  0  0  0  0  0  0  0  0  0  0
    1.4817   -0.1944    1.4637 C   0  0  0  0  0  0  0  0  0  0  0  0
    0.5548    0.0416    2.5065 C   0  0  0  0  0  0  0  0  0  0  0  0
    0.8607   -0.2894    3.8128 C   0  0  0  0  0  0  0  0  0  0  0  0
    2.0624   -0.9294    4.0745 C   0  0  0  0  0  0  0  0  0  0  0  0
    2.9721   -1.2210    3.0643 C   0  0  0  0  0  0  0  0  0  0  0  0
    2.6909   -0.8221    1.7711 C   0  0  0  0  0  0  0  0  0  0  0  0
    3.5275   -1.1751    0.7848 F   0  0  0  0  0  0  0  0  0  0  0  0
    2.3398   -1.2926    5.3301 F   0  0  0  0  0  0  0  0  0  0  0  0
    0.1853    1.2019    0.2899 O   0  0  0  0  0  0  0  0  0  0  0  0
   -1.0666   -1.1840   -0.6451 N   0  0  0  0  0  0  0  0  0  0  0  0
   -1.7935   -2.3409   -0.8308 C   0  0  0  0  0  0  0  0  0  0  0  0
   -3.0818   -2.4352   -0.8254 N   0  0  0  0  0  0  0  0  0  0  0  0
   -3.7961   -1.2436   -0.7044 C   0  0  0  0  0  0  0  0  0  0  0  0
   -5.1792   -1.2625   -0.7344 C   0  0  0  0  0  0  0  0  0  0  0  0
   -5.8668   -0.0637   -0.9302 C   0  0  0  0  0  0  0  0  0  0  0  0
   -5.1931    1.1572   -1.0022 C   0  0  0  0  0  0  0  0  0  0  0  0
   -3.8430    1.1986   -0.7260 C   0  0  0  0  0  0  0  0  0  0  0  0
   -3.1589   -0.0094   -0.6944 C   0  0  0  0  0  0  0  0  0  0  0  0
   -1.7327   -0.0134   -0.9362 C   0  0  0  0  0  0  0  0  0  0  0  0
   -1.2756    0.9844   -1.5120 O   0  0  0  0  0  0  0  0  0  0  0  0
   -7.5779   -0.0757   -1.0543 Cl  0  0  0  0  0  0  0  0  0  0  0  0
    1.0989   -2.4837    1.0010 H   0  0  0  0  0  0  0  0  0  0  0  0
    1.9540   -2.7647   -0.5339 H   0  0  0  0  0  0  0  0  0  0  0  0
    0.3697   -3.4055   -0.1808 H   0  0  0  0  0  0  0  0  0  0  0  0
    0.6676   -1.1911   -1.7414 H   0  0  0  0  0  0  0  0  0  0  0  0
    2.9486    1.2305   -0.2353 H   0  0  0  0  0  0  0  0  0  0  0  0
    2.8366   -0.1865   -1.2847 H   0  0  0  0  0  0  0  0  0  0  0  0
    1.8563    3.4509   -0.9780 H   0  0  0  0  0  0  0  0  0  0  0  0
    1.1255    2.1979   -4.8768 H   0  0  0  0  0  0  0  0  0  0  0  0
   -0.4243    0.4807    2.3019 H   0  0  0  0  0  0  0  0  0  0  0  0
    0.1562   -0.0668    4.6068 H   0  0  0  0  0  0  0  0  0  0  0  0
    3.8747   -1.7795    3.2735 H   0  0  0  0  0  0  0  0  0  0  0  0
    0.6353    2.0522    0.3838 H   0  0  0  0  0  0  0  0  0  0  0  0
   -1.2325   -3.2622   -1.0105 H   0  0  0  0  0  0  0  0  0  0  0  0
   -5.6984   -2.2134   -0.6841 H   0  0  0  0  0  0  0  0  0  0  0  0
   -5.6958    2.0714   -1.2999 H   0  0  0  0  0  0  0  0  0  0  0  0
   -3.3025    2.1386   -0.6492 H   0  0  0  0  0  0  0  0  0  0  0  0
  1 31  1  0  0  0  0
  1 32  1  0  0  0  0
  1 33  1  0  0  0  0
  2 19  1  0  0  0  0
  2 34  1  6  0  0  0
  2  3  1  0  0  0  0
  2  1  1  0  0  0  0
  3 18  1  1  0  0  0
  3 10  1  0  0  0  0
  3  4  1  0  0  0  0
  4  5  1  0  0  0  0
  4 35  1  0  0  0  0
  4 36  1  0  0  0  0
  5  6  1  0  0  0  0
  5  9  1  0  0  0  0
  6  7  2  0  0  0  0
  6 37  1  0  0  0  0
  7  8  1  0  0  0  0
  8  9  2  0  0  0  0
  8 38  1  0  0  0  0
 10 11  2  0  0  0  0
 10 15  1  0  0  0  0
 11 12  1  0  0  0  0
 11 39  1  0  0  0  0
 12 13  2  0  0  0  0
 12 40  1  0  0  0  0
 13 14  1  0  0  0  0
 13 17  1  0  0  0  0
 14 15  2  0  0  0  0
 14 41  1  0  0  0  0
 15 16  1  0  0  0  0
 18 42  1  0  0  0  0
 19 20  1  0  0  0  0
 19 28  1  0  0  0  0
 20 21  2  0  0  0  0
 20 43  1  0  0  0  0
 21 22  1  0  0  0  0
 22 23  2  0  0  0  0
 22 27  1  0  0  0  0
 23 24  1  0  0  0  0
 23 44  1  0  0  0  0
 24 25  2  0  0  0  0
 24 30  1  0  0  0  0
 25 26  1  0  0  0  0
 25 45  1  0  0  0  0
 26 27  2  0  0  0  0
 26 46  1  0  0  0  0
 27 28  1  0  0  0  0
 28 29  2  0  0  0  0
M  END
>  <DRUGBANK_ID>
DB12073

>  <COMMON_NAME>
Albaconazole

>  <CAS_NUMBER>
187949-02-6

>  <UNII>
YDW24Y8IAB

>  <SYNONYMS>
Albaconazole

$$$$
