
 OpenBabel10282417103D

 44 46  0  0  0  0  0  0  0  0999 V2000
   -0.9980    1.1125    0.0124 S   0  0  0  0  0  0  0  0  0  0  0  0
   -0.3559    7.4430   -1.1404 O   0  0  0  0  0  0  0  0  0  0  0  0
    2.5410   -0.4209   -0.0013 O   0  0  0  0  0  0  0  0  0  0  0  0
   -1.9085   -1.3562    0.0128 O   0  0  0  0  0  0  0  0  0  0  0  0
   -0.5575    6.1233    1.7437 N   0  0  0  0  0  0  0  0  0  0  0  0
    0.3588   -1.0476   -0.0383 N   0  0  0  0  0  0  0  0  0  0  0  0
    1.4258    5.2558    2.7212 N   0  0  0  0  0  0  0  0  0  0  0  0
    0.8194    1.3050    0.0091 C   0  0  3  0  0  0  0  0  0  0  0  0
    1.3423    2.0669   -1.2173 C   0  0  0  0  0  0  0  0  0  0  0  0
    1.0266    3.5423   -1.3177 C   0  0  0  0  0  0  0  0  0  0  0  0
    1.3554   -0.1181   -0.0099 C   0  0  0  0  0  0  0  0  0  0  0  0
   -1.0190    7.4585    1.3657 C   0  0  0  0  0  0  0  0  0  0  0  0
    1.5894    4.4270   -0.3929 C   0  0  0  0  0  0  0  0  0  0  0  0
    0.1995    4.0757   -2.3167 C   0  0  0  0  0  0  0  0  0  0  0  0
   -0.2870    8.0995    0.1449 C   0  0  0  0  0  0  0  0  0  0  0  0
    0.4064    6.3108   -1.3565 C   0  0  0  0  0  0  0  0  0  0  0  0
    1.3418    5.8110   -0.4503 C   0  0  0  0  0  0  0  0  0  0  0  0
   -0.0783    5.4580   -2.3607 C   0  0  0  0  0  0  0  0  0  0  0  0
   -0.9176   -0.6257   -0.0047 C   0  0  0  0  0  0  0  0  0  0  0  0
    0.2373    5.8963    2.8527 C   0  0  0  0  0  0  0  0  0  0  0  0
   -1.0550    4.9643    1.0259 C   0  0  0  0  0  0  0  0  0  0  0  0
   -0.2265    6.2595    4.1070 C   0  0  0  0  0  0  0  0  0  0  0  0
    0.5104    5.9388    5.2444 C   0  0  0  0  0  0  0  0  0  0  0  0
    2.1531    4.9888    3.8341 C   0  0  0  0  0  0  0  0  0  0  0  0
    1.7299    5.2934    5.1116 C   0  0  0  0  0  0  0  0  0  0  0  0
    0.5717   -2.0340   -0.0498 H   0  0  0  0  0  0  0  0  0  0  0  0
    1.1270    1.7630    0.9557 H   0  0  0  0  0  0  0  0  0  0  0  0
    2.4395    2.0085   -1.2078 H   0  0  0  0  0  0  0  0  0  0  0  0
    1.0436    1.5550   -2.1407 H   0  0  0  0  0  0  0  0  0  0  0  0
   -0.8929    8.1522    2.2104 H   0  0  0  0  0  0  0  0  0  0  0  0
   -2.0976    7.4126    1.1762 H   0  0  0  0  0  0  0  0  0  0  0  0
    2.0553    4.0305    0.5106 H   0  0  0  0  0  0  0  0  0  0  0  0
   -0.3196    3.4143   -3.0079 H   0  0  0  0  0  0  0  0  0  0  0  0
    0.7477    8.3668    0.3775 H   0  0  0  0  0  0  0  0  0  0  0  0
   -0.7969    9.0626   -0.0121 H   0  0  0  0  0  0  0  0  0  0  0  0
    1.6555    6.3945    0.4107 H   0  0  0  0  0  0  0  0  0  0  0  0
   -0.7986    5.8347   -3.0830 H   0  0  0  0  0  0  0  0  0  0  0  0
   -2.1354    4.8422    1.0660 H   0  0  0  0  0  0  0  0  0  0  0  0
   -0.9305    5.0931   -0.0320 H   0  0  0  0  0  0  0  0  0  0  0  0
   -0.5348    4.0411    1.2964 H   0  0  0  0  0  0  0  0  0  0  0  0
   -1.1959    6.7330    4.1956 H   0  0  0  0  0  0  0  0  0  0  0  0
    0.1123    6.1768    6.2243 H   0  0  0  0  0  0  0  0  0  0  0  0
    3.1080    4.4935    3.6692 H   0  0  0  0  0  0  0  0  0  0  0  0
    2.3224    5.0251    5.9787 H   0  0  0  0  0  0  0  0  0  0  0  0
  1  8  1  0  0  0  0
  1 19  1  0  0  0  0
  2 15  1  0  0  0  0
  2 16  1  0  0  0  0
  3 11  2  0  0  0  0
  4 19  2  0  0  0  0
  5 12  1  0  0  0  0
  5 20  1  0  0  0  0
  5 21  1  0  0  0  0
  6 11  1  0  0  0  0
  6 19  1  0  0  0  0
  6 26  1  0  0  0  0
  7 20  1  0  0  0  0
  7 24  2  0  0  0  0
  8  9  1  0  0  0  0
  8 11  1  0  0  0  0
  8 27  1  0  0  0  0
  9 10  1  0  0  0  0
  9 28  1  0  0  0  0
  9 29  1  0  0  0  0
 10 13  2  0  0  0  0
 10 14  1  0  0  0  0
 12 15  1  0  0  0  0
 12 30  1  0  0  0  0
 12 31  1  0  0  0  0
 13 17  1  0  0  0  0
 13 32  1  0  0  0  0
 14 18  2  0  0  0  0
 14 33  1  0  0  0  0
 15 34  1  0  0  0  0
 15 35  1  0  0  0  0
 16 17  2  0  0  0  0
 16 18  1  0  0  0  0
 17 36  1  0  0  0  0
 18 37  1  0  0  0  0
 20 22  2  0  0  0  0
 21 38  1  0  0  0  0
 21 39  1  0  0  0  0
 21 40  1  0  0  0  0
 22 23  1  0  0  0  0
 22 41  1  0  0  0  0
 23 25  2  0  0  0  0
 23 42  1  0  0  0  0
 24 25  1  0  0  0  0
 24 43  1  0  0  0  0
 25 44  1  0  0  0  0
M  END
>  <DRUGBANK_ID>
DB00412

>  <SECONDARY_ACCESSION_NUMBERS>
APRD00403

>  <COMMON_NAME>
Rosiglitazone

>  <CAS_NUMBER>
122320-73-4

>  <UNII>
05V02F2KDG

>  <SYNONYMS>
(Â±)-5-[p-[2-(methyl-2-pyridylamino)ethoxy]benzyl]-2,4-thiazolidinedione; (RS)-5-{4-[2-(Methyl-2-pyridylamino)ethoxy]benzyl}-2,4-thiazolidinedion; Rosiglitazon; Rosiglitazona; Rosiglitazone; Rosiglitazonum

$$$$
