
 OpenBabel10282417213D

 60 64  0  0  0  0  0  0  0  0999 V2000
    1.0505    0.0172    0.0083 C   0  0  0  0  0  0  0  0  0  0  0  0
    0.5694   -0.1375    1.4410 C   0  0  0  0  0  0  0  0  0  0  0  0
    1.0248    0.9775    2.3592 C   0  0  0  0  0  0  0  0  0  0  0  0
    0.8303    2.3123    1.9322 C   0  0  0  0  0  0  0  0  0  0  0  0
    1.0022    3.3983    2.7939 C   0  0  0  0  0  0  0  0  0  0  0  0
    1.3489    3.1368    4.1236 C   0  0  0  0  0  0  0  0  0  0  0  0
    1.5187    1.8147    4.5838 C   0  0  0  0  0  0  0  0  0  0  0  0
    1.4222    0.7372    3.6920 C   0  0  0  0  0  0  0  0  0  0  0  0
    1.8791   -0.5566    4.0948 N   0  0  0  0  0  0  0  0  0  0  0  0
    2.9301   -1.1265    3.4275 N   0  0  0  0  0  0  0  0  0  0  0  0
    3.1216   -2.3137    4.0186 C   0  0  0  0  0  0  0  0  0  0  0  0
    4.1990   -3.2513    3.5427 C   0  0  0  0  0  0  0  0  0  0  0  0
    4.0321   -3.6836    2.0977 C   0  0  0  0  0  0  0  0  0  0  0  0
    5.5963   -2.7251    3.8479 C   0  0  0  0  0  0  0  0  0  0  0  0
    2.1841   -2.5460    5.0579 C   0  0  0  0  0  0  0  0  0  0  0  0
    1.4094   -1.3852    5.1106 C   0  0  0  0  0  0  0  0  0  0  0  0
    0.3572   -1.1770    5.9387 N   0  0  0  0  0  0  0  0  0  0  0  0
    0.0744   -2.2394    6.7372 C   0  0  0  0  0  0  0  0  0  0  0  0
    0.7462   -3.4533    6.7676 C   0  0  0  0  0  0  0  0  0  0  0  0
    1.8401   -3.6055    5.9260 C   0  0  0  0  0  0  0  0  0  0  0  0
    2.5907   -4.7921    5.9828 N   0  0  0  0  0  0  0  0  0  0  0  0
    2.1734   -6.0745    5.7098 C   0  0  0  0  0  0  0  0  0  0  0  0
    3.1773   -6.9330    5.7342 N   0  0  0  0  0  0  0  0  0  0  0  0
    4.2639   -6.1875    6.1029 C   0  0  0  0  0  0  0  0  0  0  0  0
    3.9227   -4.8711    6.2854 C   0  0  0  0  0  0  0  0  0  0  0  0
    5.5873   -6.7359    6.2854 C   0  0  0  0  0  0  0  0  0  0  0  0
    6.3883   -6.5975    7.3927 C   0  0  0  0  0  0  0  0  0  0  0  0
    7.5581   -7.2215    7.0819 N   0  0  0  0  0  0  0  0  0  0  0  0
    8.6964   -7.3831    7.9535 C   0  0  0  0  0  0  0  0  0  0  0  0
    7.5921   -7.7045    5.8226 N   0  0  0  0  0  0  0  0  0  0  0  0
    6.3741   -7.4143    5.3414 C   0  0  0  0  0  0  0  0  0  0  0  0
    0.7252    4.7664    2.2545 C   0  0  0  0  0  0  0  0  0  0  0  0
    0.8481    5.8367    3.0913 N   0  0  0  0  0  0  0  0  0  0  0  0
    0.3702    4.9445    1.0885 O   0  0  0  0  0  0  0  0  0  0  0  0
    0.6725    0.9330   -0.4560 H   0  0  0  0  0  0  0  0  0  0  0  0
    0.6942   -0.8171   -0.6009 H   0  0  0  0  0  0  0  0  0  0  0  0
    2.1434    0.0452   -0.0269 H   0  0  0  0  0  0  0  0  0  0  0  0
   -0.5292   -0.1427    1.4626 H   0  0  0  0  0  0  0  0  0  0  0  0
    0.8782   -1.1205    1.8059 H   0  0  0  0  0  0  0  0  0  0  0  0
    0.5082    2.5183    0.9118 H   0  0  0  0  0  0  0  0  0  0  0  0
    1.5049    3.9470    4.8258 H   0  0  0  0  0  0  0  0  0  0  0  0
    1.7626    1.6567    5.6311 H   0  0  0  0  0  0  0  0  0  0  0  0
    4.1132   -4.1924    4.0722 H   0  0  0  0  0  0  0  0  0  0  0  0
    4.1315   -2.8392    1.4147 H   0  0  0  0  0  0  0  0  0  0  0  0
    4.7853   -4.4386    1.8442 H   0  0  0  0  0  0  0  0  0  0  0  0
    3.0469   -4.1427    1.9529 H   0  0  0  0  0  0  0  0  0  0  0  0
    5.7056   -2.4903    4.9139 H   0  0  0  0  0  0  0  0  0  0  0  0
    6.3548   -3.4750    3.5981 H   0  0  0  0  0  0  0  0  0  0  0  0
    5.8050   -1.8154    3.2796 H   0  0  0  0  0  0  0  0  0  0  0  0
   -0.7643   -2.0817    7.4130 H   0  0  0  0  0  0  0  0  0  0  0  0
    0.4613   -4.2264    7.4743 H   0  0  0  0  0  0  0  0  0  0  0  0
    1.1520   -6.3116    5.4397 H   0  0  0  0  0  0  0  0  0  0  0  0
    4.5203   -4.0062    6.5326 H   0  0  0  0  0  0  0  0  0  0  0  0
    6.2163   -6.1261    8.3490 H   0  0  0  0  0  0  0  0  0  0  0  0
    8.8760   -8.4515    8.0931 H   0  0  0  0  0  0  0  0  0  0  0  0
    9.5616   -6.8985    7.4956 H   0  0  0  0  0  0  0  0  0  0  0  0
    8.4791   -6.9166    8.9188 H   0  0  0  0  0  0  0  0  0  0  0  0
    6.1321   -7.6788    4.3198 H   0  0  0  0  0  0  0  0  0  0  0  0
    0.6227    6.7479    2.7122 H   0  0  0  0  0  0  0  0  0  0  0  0
    1.1105    5.7836    4.0617 H   0  0  0  0  0  0  0  0  0  0  0  0
  1  2  1  0  0  0  0
  1 35  1  0  0  0  0
  1 36  1  0  0  0  0
  1 37  1  0  0  0  0
  2  3  1  0  0  0  0
  2 38  1  0  0  0  0
  2 39  1  0  0  0  0
  3  4  2  0  0  0  0
  3  8  1  0  0  0  0
  4  5  1  0  0  0  0
  4 40  1  0  0  0  0
  5  6  2  0  0  0  0
  5 32  1  0  0  0  0
  6  7  1  0  0  0  0
  6 41  1  0  0  0  0
  7  8  2  0  0  0  0
  7 42  1  0  0  0  0
  8  9  1  0  0  0  0
  9 10  1  0  0  0  0
  9 16  1  0  0  0  0
 10 11  2  0  0  0  0
 11 12  1  0  0  0  0
 11 15  1  0  0  0  0
 12 13  1  0  0  0  0
 12 14  1  0  0  0  0
 12 43  1  0  0  0  0
 13 44  1  0  0  0  0
 13 45  1  0  0  0  0
 13 46  1  0  0  0  0
 14 47  1  0  0  0  0
 14 48  1  0  0  0  0
 14 49  1  0  0  0  0
 15 16  2  0  0  0  0
 15 20  1  0  0  0  0
 16 17  1  0  0  0  0
 17 18  2  0  0  0  0
 18 19  1  0  0  0  0
 18 50  1  0  0  0  0
 19 20  2  0  0  0  0
 19 51  1  0  0  0  0
 20 21  1  0  0  0  0
 21 22  1  0  0  0  0
 21 25  1  0  0  0  0
 22 23  2  0  0  0  0
 22 52  1  0  0  0  0
 23 24  1  0  0  0  0
 24 25  2  0  0  0  0
 24 26  1  0  0  0  0
 25 53  1  0  0  0  0
 26 27  2  0  0  0  0
 26 31  1  0  0  0  0
 27 28  1  0  0  0  0
 27 54  1  0  0  0  0
 28 29  1  0  0  0  0
 28 30  1  0  0  0  0
 29 55  1  0  0  0  0
 29 56  1  0  0  0  0
 29 57  1  0  0  0  0
 30 31  2  0  0  0  0
 31 58  1  0  0  0  0
 32 33  1  0  0  0  0
 32 34  2  0  0  0  0
 33 59  1  0  0  0  0
 33 60  1  0  0  0  0
M  END
>  <DRUGBANK_ID>
DB14876

>  <COMMON_NAME>
TAS-116

>  <CAS_NUMBER>
1260533-36-5

>  <UNII>
PLO044MUDZ

$$$$
