
 OpenBabel10282417213D

223229  0  0  1  0  0  0  0  0999 V2000
    1.1534    2.6512   -1.0063 C   0  0  0  0  0  0  0  0  0  0  0  0
   -0.0590    4.7896    0.3621 C   0  0  0  0  0  0  0  0  0  0  0  0
   -0.9756    7.7636    1.1285 C   0  0  2  0  0  0  0  0  0  0  0  0
   -0.2590    4.0998    1.2092 C   0  0  0  0  0  0  0  0  0  0  0  0
   -1.9399   11.7298    1.2178 C   0  0  2  0  0  0  0  0  0  0  0  0
   -3.1801   16.0152    0.9772 N   0  0  0  0  0  0  0  0  0  0  0  0
   -4.2688   19.7434    0.7683 C   0  0  0  0  0  0  0  0  0  0  0  0
   -5.3879   21.8474    1.0339 O   0  0  0  0  0  0  0  0  0  0  0  0
   -5.3569   23.8824    0.6320 C   0  0  2  0  0  0  0  0  0  0  0  0
   -5.8212   27.1546    1.2692 C   0  0  0  0  0  0  0  0  0  0  0  0
   -4.7334   28.2119    2.2843 C   0  0  0  0  0  0  0  0  0  0  0  0
   -4.2438   27.0453    1.8448 C   0  0  0  0  0  0  0  0  0  0  0  0
   -3.1090   26.6831    2.5681 N   0  0  0  0  0  0  0  0  0  0  0  0
   -2.9068   27.6708    3.5446 C   0  0  0  0  0  0  0  0  0  0  0  0
   -3.9084   28.6345    3.3699 C   0  0  0  0  0  0  0  0  0  0  0  0
   -3.9797   29.7202    4.2425 C   0  0  0  0  0  0  0  0  0  0  0  0
   -3.0926   29.8063    5.2729 C   0  0  0  0  0  0  0  0  0  0  0  0
   -2.1198   28.8427    5.4519 C   0  0  0  0  0  0  0  0  0  0  0  0
   -1.9932   27.7590    4.5896 C   0  0  0  0  0  0  0  0  0  0  0  0
   -6.7497   26.9587    0.2616 N   0  0  0  0  0  0  0  0  0  0  0  0
   -7.8999   29.4642    0.6142 C   0  0  0  0  0  0  0  0  0  0  0  0
   -7.6164   30.3298    1.8070 O   0  0  0  0  0  0  0  0  0  0  0  0
   -9.3979   30.8385    0.1067 C   0  0  1  0  0  0  0  0  0  0  0  0
  -10.4882   30.7387    1.0848 N   0  0  0  0  0  0  0  0  0  0  0  0
  -11.0661   31.9442    1.6668 C   0  0  0  0  0  0  0  0  0  0  0  0
  -10.6534   33.0814    1.3617 O   0  0  0  0  0  0  0  0  0  0  0  0
  -12.2190   31.8147    2.6712 C   0  0  2  0  0  0  0  0  0  0  0  0
  -11.8715   32.4576    4.0300 C   0  0  0  0  0  0  0  0  0  0  0  0
  -12.5128   33.8513    4.0338 C   0  0  0  0  0  0  0  0  0  0  0  0
  -13.2261   34.0088    2.6762 C   0  0  0  0  0  0  0  0  0  0  0  0
  -13.4856   32.5606    2.2160 N   0  0  0  0  0  0  0  0  0  0  0  0
  -14.6536   32.0325    1.5006 C   0  0  0  0  0  0  0  0  0  0  0  0
  -14.9823   32.4795    0.3765 O   0  0  0  0  0  0  0  0  0  0  0  0
  -15.4843   30.9080    2.1465 C   0  0  1  0  0  0  0  0  0  0  0  0
  -16.9607   31.3219    2.3358 C   0  0  0  0  0  0  0  0  0  0  0  0
  -17.7403   30.7193    1.1600 C   0  0  0  0  0  0  0  0  0  0  0  0
  -16.7128   29.9642    0.2954 C   0  0  0  0  0  0  0  0  0  0  0  0
  -15.5602   29.6462    1.2631 N   0  0  0  0  0  0  0  0  0  0  0  0
  -14.7115   28.4580    1.1231 C   0  0  0  0  0  0  0  0  0  0  0  0
  -14.4079   28.0153   -0.0126 O   0  0  0  0  0  0  0  0  0  0  0  0
  -14.2030   27.7354    2.3744 C   0  0  2  0  0  0  0  0  0  0  0  0
  -12.6862   27.7428    2.3784 C   0  0  0  0  0  0  0  0  0  0  0  0
  -12.2096   27.5419    3.7046 O   0  0  0  0  0  0  0  0  0  0  0  0
  -14.6905   26.3407    2.3805 N   0  0  0  0  0  0  0  0  0  0  0  0
  -13.7332   25.2400    2.3827 C   0  0  0  0  0  0  0  0  0  0  0  0
  -12.4987   25.4426    2.3842 O   0  0  0  0  0  0  0  0  0  0  0  0
  -14.2413   23.7994    2.3834 C   0  0  2  0  0  0  0  0  0  0  0  0
  -13.7459   23.0947    3.6298 C   0  0  0  0  0  0  0  0  0  0  0  0
  -13.7489   23.0996    1.1869 N   0  0  0  0  0  0  0  0  0  0  0  0
  -12.9018   21.9168    1.3380 C   0  0  0  0  0  0  0  0  0  0  0  0
  -12.5865   21.4454    2.4369 O   0  0  0  0  0  0  0  0  0  0  0  0
  -12.3741   21.1832    0.0963 C   0  0  2  0  0  0  0  0  0  0  0  0
  -12.9248   19.7722    0.0890 C   0  0  0  0  0  0  0  0  0  0  0  0
  -14.0688   20.5705   -0.4770 C   0  0  0  0  0  0  0  0  0  0  0  0
  -13.7520   20.9867   -1.8641 N   0  0  0  0  0  0  0  0  0  0  0  0
  -10.9236   21.1835    0.0836 N   0  0  0  0  0  0  0  0  0  0  0  0
  -10.2098   19.9278    0.0881 C   0  0  0  0  0  0  0  0  0  0  0  0
  -10.8630   18.8727    0.1138 O   0  0  0  0  0  0  0  0  0  0  0  0
   -8.6877   19.9154    0.0912 C   0  0  2  0  0  0  0  0  0  0  0  0
   -8.1906   19.1912   -1.1590 C   0  0  0  0  0  0  0  0  0  0  0  0
   -8.5344   17.7270   -1.0085 C   0  0  0  0  0  0  0  0  0  0  0  0
   -9.9168   17.5430   -0.7137 N   0  0  0  0  0  0  0  0  0  0  0  0
   -8.1996   19.2163    1.3023 N   0  0  0  0  0  0  0  0  0  0  0  0
   -7.3664   17.9930    1.2006 C   0  0  0  0  0  0  0  0  0  0  0  0
   -6.8655   17.5707    0.0568 O   0  0  0  0  0  0  0  0  0  0  0  0
   -6.8374   17.3124    2.4037 C   0  0  2  0  0  0  0  0  0  0  0  0
   -5.3191   17.3297    2.4044 C   0  0  0  0  0  0  0  0  0  0  0  0
   -4.8140   18.7290    2.4098 C   0  0  0  0  0  0  0  0  0  0  0  0
   -3.8437   19.3078    3.1611 C   0  0  0  0  0  0  0  0  0  0  0  0
   -3.4922   20.5817    2.7427 N   0  0  0  0  0  0  0  0  0  0  0  0
   -4.1864   20.9038    1.9339 C   0  0  0  0  0  0  0  0  0  0  0  0
   -5.3664   19.5276    1.6421 C   0  0  0  0  0  0  0  0  0  0  0  0
   -6.1682   19.7207    0.4182 C   0  0  0  0  0  0  0  0  0  0  0  0
   -6.3706   20.8386   -0.3431 C   0  0  0  0  0  0  0  0  0  0  0  0
   -5.6109   21.9094   -0.3619 C   0  0  0  0  0  0  0  0  0  0  0  0
   -4.0501   21.9757    0.8544 C   0  0  0  0  0  0  0  0  0  0  0  0
   -7.3229   15.9221    2.4041 N   0  0  0  0  0  0  0  0  0  0  0  0
   -6.3635   14.8216    2.3931 C   0  0  0  0  0  0  0  0  0  0  0  0
   -5.1322   15.0335    2.4034 O   0  0  0  0  0  0  0  0  0  0  0  0
   -6.8741   13.3799    2.4058 C   0  0  2  0  0  0  0  0  0  0  0  0
   -6.3775   12.6782    3.6567 C   0  0  0  0  0  0  0  0  0  0  0  0
   -5.8258   13.6500    4.6743 C   0  0  0  0  0  0  0  0  0  0  0  0
   -6.8307   14.6818    4.9535 N   0  0  0  0  0  0  0  0  0  0  0  0
   -6.3831   12.6764    1.2098 N   0  0  0  0  0  0  0  0  0  0  0  0
   -5.5461   11.4926    1.3528 C   0  0  0  0  0  0  0  0  0  0  0  0
   -5.2183   11.0265    2.4588 O   0  0  0  0  0  0  0  0  0  0  0  0
   -5.0352   10.7780    0.1067 C   0  0  1  0  0  0  0  0  0  0  0  0
   -5.5392   11.4799   -1.1358 C   0  0  0  0  0  0  0  0  0  0  0  0
   -5.0388   10.7627   -2.3723 C   0  0  0  0  0  0  0  0  0  0  0  0
   -5.5282    9.3833   -2.3723 N   0  0  0  0  0  0  0  0  0  0  0  0
   -3.5618   10.7619    0.1050 N   0  0  0  0  0  0  0  0  0  0  0  0
   -2.8491    9.5162    0.1081 C   0  0  0  0  0  0  0  0  0  0  0  0
   -3.5923    8.5567    0.1221 O   0  0  0  0  0  0  0  0  0  0  0  0
   -1.3181    9.5158    0.0513 C   0  0  2  0  0  0  0  0  0  0  0  0
   -0.8136    8.7841   -1.1375 C   0  0  0  0  0  0  0  0  0  0  0  0
   -1.1717    7.3089   -0.9976 C   0  0  0  0  0  0  0  0  0  0  0  0
   -2.6089    7.1272   -0.6803 C   0  0  0  0  0  0  0  0  0  0  0  0
   -3.4066    7.7042   -1.7804 N   0  0  0  0  0  0  0  0  0  0  0  0
   -0.6179    9.1303    0.8119 N   0  0  0  0  0  0  0  0  0  0  0  0
    0.4258    7.9853    0.7168 C   0  0  0  0  0  0  0  0  0  0  0  0
    0.5585    7.1935   -0.0271 O   0  0  0  0  0  0  0  0  0  0  0  0
    0.3664    7.4106    2.6672 C   0  0  2  0  0  0  0  0  0  0  0  0
    2.1333    6.9636    2.4530 C   0  0  0  0  0  0  0  0  0  0  0  0
    2.5595    6.6805    3.8424 C   0  0  0  0  0  0  0  0  0  0  0  0
    2.0727    5.3951    4.3556 N   0  0  0  0  0  0  0  0  0  0  0  0
   -0.1165    6.1615    2.4104 N   0  0  0  0  0  0  0  0  0  0  0  0
   -0.5215    8.6517    1.9591 C   0  0  0  0  0  0  0  0  0  0  0  0
    0.6190    6.5783    1.9260 O   0  0  0  0  0  0  0  0  0  0  0  0
   -9.0335   32.3108   -0.1051 C   0  0  1  0  0  0  0  0  0  0  0  0
   -7.7282   31.7623    0.3376 C   0  0  0  0  0  0  0  0  0  0  0  0
   -8.9321   32.7037   -1.4634 O   0  0  0  0  0  0  0  0  0  0  0  0
    2.3517    2.4960   -0.9707 H   0  0  0  0  0  0  0  0  0  0  0  0
    1.0743    2.9028   -2.0984 H   0  0  0  0  0  0  0  0  0  0  0  0
    1.0729    1.3444   -1.3002 H   0  0  0  0  0  0  0  0  0  0  0  0
    0.8250    4.0579    0.0148 H   0  0  0  0  0  0  0  0  0  0  0  0
   -0.5511    2.9244   -0.2476 H   0  0  0  0  0  0  0  0  0  0  0  0
    0.2276    5.5226    1.1661 H   0  0  0  0  0  0  0  0  0  0  0  0
    0.3321    1.6022    0.8650 H   0  0  0  0  0  0  0  0  0  0  0  0
    0.1435    1.6604    1.8482 H   0  0  0  0  0  0  0  0  0  0  0  0
   -0.3162    1.7498    0.8493 H   0  0  0  0  0  0  0  0  0  0  0  0
   -1.8022    9.5591    1.5429 H   0  0  0  0  0  0  0  0  0  0  0  0
   -3.6769   18.0497    0.6609 H   0  0  0  0  0  0  0  0  0  0  0  0
   -5.5867   26.4759    0.1413 H   0  0  0  0  0  0  0  0  0  0  0  0
   -5.7399   29.6077    1.4919 H   0  0  0  0  0  0  0  0  0  0  0  0
   -6.7239   28.7858    2.3883 H   0  0  0  0  0  0  0  0  0  0  0  0
   -4.6714   26.4705    1.0463 H   0  0  0  0  0  0  0  0  0  0  0  0
   -2.5304   25.8517    2.4184 H   0  0  0  0  0  0  0  0  0  0  0  0
   -4.7258   30.4768    4.1079 H   0  0  0  0  0  0  0  0  0  0  0  0
   -3.1543   30.6335    5.9499 H   0  0  0  0  0  0  0  0  0  0  0  0
   -1.4438   28.9355    6.2798 H   0  0  0  0  0  0  0  0  0  0  0  0
   -1.2268   27.0222    4.7274 H   0  0  0  0  0  0  0  0  0  0  0  0
   -7.8371   28.5277   -0.8439 H   0  0  0  0  0  0  0  0  0  0  0  0
   -9.6777   30.4133   -0.8212 H   0  0  0  0  0  0  0  0  0  0  0  0
  -10.8312   29.8140    1.3405 H   0  0  0  0  0  0  0  0  0  0  0  0
  -12.4028   30.7669    2.7823 H   0  0  0  0  0  0  0  0  0  0  0  0
  -12.2412   31.8582    4.8459 H   0  0  0  0  0  0  0  0  0  0  0  0
  -10.8062   32.5367    4.1512 H   0  0  0  0  0  0  0  0  0  0  0  0
  -13.2060   33.9592    4.8512 H   0  0  0  0  0  0  0  0  0  0  0  0
  -11.7584   34.6086    4.1557 H   0  0  0  0  0  0  0  0  0  0  0  0
  -14.1231   34.5944    2.7498 H   0  0  0  0  0  0  0  0  0  0  0  0
  -12.5900   34.5288    1.9779 H   0  0  0  0  0  0  0  0  0  0  0  0
  -15.0254   30.7009    3.0897 H   0  0  0  0  0  0  0  0  0  0  0  0
  -17.3431   30.9652    3.2782 H   0  0  0  0  0  0  0  0  0  0  0  0
  -17.0580   32.3925    2.3383 H   0  0  0  0  0  0  0  0  0  0  0  0
  -18.5178   30.0585    1.5054 H   0  0  0  0  0  0  0  0  0  0  0  0
  -18.2158   31.4977    0.5897 H   0  0  0  0  0  0  0  0  0  0  0  0
  -17.1287   29.0853   -0.1629 H   0  0  0  0  0  0  0  0  0  0  0  0
  -16.3748   30.5876   -0.5164 H   0  0  0  0  0  0  0  0  0  0  0  0
  -14.5623   28.2427    3.2512 H   0  0  0  0  0  0  0  0  0  0  0  0
  -12.3212   26.9621    1.7375 H   0  0  0  0  0  0  0  0  0  0  0  0
  -12.3246   28.6778    2.0082 H   0  0  0  0  0  0  0  0  0  0  0  0
  -12.5414   28.2671    4.2855 H   0  0  0  0  0  0  0  0  0  0  0  0
  -15.6943   26.1635    2.3793 H   0  0  0  0  0  0  0  0  0  0  0  0
  -15.3177   23.7997    2.3835 H   0  0  0  0  0  0  0  0  0  0  0  0
  -13.3508   23.7797    4.3499 H   0  0  0  0  0  0  0  0  0  0  0  0
  -14.6254   22.6242    4.0182 H   0  0  0  0  0  0  0  0  0  0  0  0
  -13.0162   22.3622    3.4655 H   0  0  0  0  0  0  0  0  0  0  0  0
  -13.9999   23.4504    0.2607 H   0  0  0  0  0  0  0  0  0  0  0  0
  -12.7262   21.7212   -0.7356 H   0  0  0  0  0  0  0  0  0  0  0  0
  -12.7717   18.8877   -0.5242 H   0  0  0  0  0  0  0  0  0  0  0  0
  -13.1418   19.4569    1.0923 H   0  0  0  0  0  0  0  0  0  0  0  0
  -14.9552   20.0057   -0.4691 H   0  0  0  0  0  0  0  0  0  0  0  0
  -14.2120   21.4548    0.1304 H   0  0  0  0  0  0  0  0  0  0  0  0
  -14.5017   21.5570   -2.2216 H   0  0  0  0  0  0  0  0  0  0  0  0
  -12.8856   21.5442   -1.8989 H   0  0  0  0  0  0  0  0  0  0  0  0
  -10.4231   22.0716    0.0831 H   0  0  0  0  0  0  0  0  0  0  0  0
   -8.3308   20.9294    0.0906 H   0  0  0  0  0  0  0  0  0  0  0  0
   -8.7455   19.6051   -1.9641 H   0  0  0  0  0  0  0  0  0  0  0  0
   -7.1318   19.2933   -1.3797 H   0  0  0  0  0  0  0  0  0  0  0  0
   -8.2735   17.1978   -1.8916 H   0  0  0  0  0  0  0  0  0  0  0  0
   -8.1038   17.2560   -0.2200 H   0  0  0  0  0  0  0  0  0  0  0  0
  -10.1659   16.5896   -0.5757 H   0  0  0  0  0  0  0  0  0  0  0  0
  -10.1473   18.0497    0.1716 H   0  0  0  0  0  0  0  0  0  0  0  0
   -8.4346   19.5770    2.2149 H   0  0  0  0  0  0  0  0  0  0  0  0
   -7.1950   17.8241    3.2755 H   0  0  0  0  0  0  0  0  0  0  0  0
   -4.9572   16.8170    3.2792 H   0  0  0  0  0  0  0  0  0  0  0  0
   -4.9687   16.8142    1.5278 H   0  0  0  0  0  0  0  0  0  0  0  0
   -3.3838   18.8290    3.9991 H   0  0  0  0  0  0  0  0  0  0  0  0
   -2.8157   21.2304    3.0593 H   0  0  0  0  0  0  0  0  0  0  0  0
   -6.7097   18.9297    0.2214 H   0  0  0  0  0  0  0  0  0  0  0  0
   -7.1185   20.8515   -1.0770 H   0  0  0  0  0  0  0  0  0  0  0  0
   -5.7923   22.8441   -0.7290 H   0  0  0  0  0  0  0  0  0  0  0  0
   -3.9618   22.9147    0.9897 H   0  0  0  0  0  0  0  0  0  0  0  0
   -8.3276   15.7447    2.4028 H   0  0  0  0  0  0  0  0  0  0  0  0
   -7.9506   13.3808    2.4072 H   0  0  0  0  0  0  0  0  0  0  0  0
   -7.2584   12.2048    4.0415 H   0  0  0  0  0  0  0  0  0  0  0  0
   -5.6493   11.9430    3.4889 H   0  0  0  0  0  0  0  0  0  0  0  0
   -5.5871   13.1286    5.5814 H   0  0  0  0  0  0  0  0  0  0  0  0
   -4.9324   14.1090    4.2886 H   0  0  0  0  0  0  0  0  0  0  0  0
   -6.4607   15.3443    5.6329 H   0  0  0  0  0  0  0  0  0  0  0  0
   -7.0537   15.1834    4.0931 H   0  0  0  0  0  0  0  0  0  0  0  0
   -6.6336   13.0321    0.2854 H   0  0  0  0  0  0  0  0  0  0  0  0
   -5.3946    9.7607    0.1135 H   0  0  0  0  0  0  0  0  0  0  0  0
   -6.6157   11.4850   -1.1349 H   0  0  0  0  0  0  0  0  0  0  0  0
   -5.1846   12.4967   -1.1378 H   0  0  0  0  0  0  0  0  0  0  0  0
   -5.3931   11.2690   -3.2513 H   0  0  0  0  0  0  0  0  0  0  0  0
   -3.9626   10.7653   -2.3754 H   0  0  0  0  0  0  0  0  0  0  0  0
   -5.1848    8.8957   -3.2017 H   0  0  0  0  0  0  0  0  0  0  0  0
   -5.1874    8.9025   -1.5387 H   0  0  0  0  0  0  0  0  0  0  0  0
   -3.0689   11.6534    0.0943 H   0  0  0  0  0  0  0  0  0  0  0  0
   -0.9484   10.5063    0.0991 H   0  0  0  0  0  0  0  0  0  0  0  0
   -1.3758    9.1874   -1.9403 H   0  0  0  0  0  0  0  0  0  0  0  0
    0.2418    8.8874   -1.3453 H   0  0  0  0  0  0  0  0  0  0  0  0
   -0.9058    6.7788   -1.8686 H   0  0  0  0  0  0  0  0  0  0  0  0
   -0.7220    6.8293   -0.2311 H   0  0  0  0  0  0  0  0  0  0  0  0
   -2.8591    6.1129   -0.5377 H   0  0  0  0  0  0  0  0  0  0  0  0
   -2.7505    7.5433    0.2753 H   0  0  0  0  0  0  0  0  0  0  0  0
   -4.3993    7.6097   -1.5577 H   0  0  0  0  0  0  0  0  0  0  0  0
   -3.1868    8.6995   -1.8775 H   0  0  0  0  0  0  0  0  0  0  0  0
   -1.0994    9.3159    2.3926 H   0  0  0  0  0  0  0  0  0  0  0  0
    0.1677    7.4156    3.3667 H   0  0  0  0  0  0  0  0  0  0  0  0
    2.4376    6.1251    1.7789 H   0  0  0  0  0  0  0  0  0  0  0  0
    2.4144    7.8470    2.0538 H   0  0  0  0  0  0  0  0  0  0  0  0
    3.6313    6.6830    3.8414 H   0  0  0  0  0  0  0  0  0  0  0  0
    2.2010    7.4732    4.4734 H   0  0  0  0  0  0  0  0  0  0  0  0
    2.4071    5.2474    5.2962 H   0  0  0  0  0  0  0  0  0  0  0  0
    1.0490    5.3911    4.3438 H   0  0  0  0  0  0  0  0  0  0  0  0
   -1.0056    5.4806    2.6014 H   0  0  0  0  0  0  0  0  0  0  0  0
   -9.2517   33.1831    0.4946 H   0  0  0  0  0  0  0  0  0  0  0  0
   -7.4902   30.8763   -0.2778 H   0  0  0  0  0  0  0  0  0  0  0  0
   -6.9430   32.4164    0.2598 H   0  0  0  0  0  0  0  0  0  0  0  0
   -7.8498   31.5616    1.3534 H   0  0  0  0  0  0  0  0  0  0  0  0
   -8.7325   31.9088   -2.0160 H   0  0  0  0  0  0  0  0  0  0  0  0
  1  2  1  0  0  0  0
  1112  1  0  0  0  0
  1113  1  0  0  0  0
  1114  1  0  0  0  0
  2115  1  0  0  0  0
  2116  1  0  0  0  0
  3  5  1  0  0  0  0
  3117  1  1  0  0  0
  3  4  1  0  0  0  0
  3  2  1  0  0  0  0
  4118  1  0  0  0  0
  4119  1  0  0  0  0
  4120  1  0  0  0  0
  5  6  1  0  0  0  0
  5107  1  0  0  0  0
  5121  1  1  0  0  0
  6  7  1  0  0  0  0
  6122  1  0  0  0  0
  7  8  2  0  0  0  0
  9  7  1  0  0  0  0
  9 20  1  0  0  0  0
  9123  1  6  0  0  0
  9 10  1  0  0  0  0
 10 11  1  0  0  0  0
 10124  1  0  0  0  0
 10125  1  0  0  0  0
 11 12  2  0  0  0  0
 11 15  1  0  0  0  0
 12 13  1  0  0  0  0
 12126  1  0  0  0  0
 13 14  1  0  0  0  0
 13127  1  0  0  0  0
 14 15  2  0  0  0  0
 14 19  1  0  0  0  0
 15 16  1  0  0  0  0
 16 17  2  0  0  0  0
 16128  1  0  0  0  0
 17 18  1  0  0  0  0
 17129  1  0  0  0  0
 18 19  2  0  0  0  0
 18130  1  0  0  0  0
 19131  1  0  0  0  0
 20 21  1  0  0  0  0
 20132  1  0  0  0  0
 21 22  2  0  0  0  0
 23 21  1  0  0  0  0
 23 24  1  0  0  0  0
 23133  1  6  0  0  0
 23109  1  0  0  0  0
 24 25  1  0  0  0  0
 24134  1  0  0  0  0
 25 26  2  0  0  0  0
 27 25  1  0  0  0  0
 27 28  1  0  0  0  0
 27 31  1  0  0  0  0
 27135  1  6  0  0  0
 28 29  1  0  0  0  0
 28136  1  0  0  0  0
 28137  1  0  0  0  0
 29 30  1  0  0  0  0
 29138  1  0  0  0  0
 29139  1  0  0  0  0
 30 31  1  0  0  0  0
 30140  1  0  0  0  0
 30141  1  0  0  0  0
 31 32  1  0  0  0  0
 32 33  2  0  0  0  0
 34 32  1  0  0  0  0
 34 35  1  0  0  0  0
 34 38  1  0  0  0  0
 34142  1  1  0  0  0
 35 36  1  0  0  0  0
 35143  1  0  0  0  0
 35144  1  0  0  0  0
 36 37  1  0  0  0  0
 36145  1  0  0  0  0
 36146  1  0  0  0  0
 37 38  1  0  0  0  0
 37147  1  0  0  0  0
 37148  1  0  0  0  0
 38 39  1  0  0  0  0
 39 40  2  0  0  0  0
 41 39  1  0  0  0  0
 41 44  1  0  0  0  0
 41149  1  1  0  0  0
 41 42  1  0  0  0  0
 42 43  1  0  0  0  0
 42150  1  0  0  0  0
 42151  1  0  0  0  0
 43152  1  0  0  0  0
 44 45  1  0  0  0  0
 44153  1  0  0  0  0
 45 46  2  0  0  0  0
 47 45  1  0  0  0  0
 47 49  1  0  0  0  0
 47154  1  6  0  0  0
 47 48  1  0  0  0  0
 48155  1  0  0  0  0
 48156  1  0  0  0  0
 48157  1  0  0  0  0
 49 50  1  0  0  0  0
 49158  1  0  0  0  0
 50 51  2  0  0  0  0
 52 50  1  0  0  0  0
 52 56  1  0  0  0  0
 52159  1  6  0  0  0
 52 53  1  0  0  0  0
 53 54  1  0  0  0  0
 53160  1  0  0  0  0
 53161  1  0  0  0  0
 54 55  1  0  0  0  0
 54162  1  0  0  0  0
 54163  1  0  0  0  0
 55164  1  0  0  0  0
 55165  1  0  0  0  0
 56 57  1  0  0  0  0
 56166  1  0  0  0  0
 57 58  2  0  0  0  0
 59 57  1  0  0  0  0
 59 63  1  0  0  0  0
 59167  1  6  0  0  0
 59 60  1  0  0  0  0
 60 61  1  0  0  0  0
 60168  1  0  0  0  0
 60169  1  0  0  0  0
 61 62  1  0  0  0  0
 61170  1  0  0  0  0
 61171  1  0  0  0  0
 62172  1  0  0  0  0
 62173  1  0  0  0  0
 63 64  1  0  0  0  0
 63174  1  0  0  0  0
 64 65  2  0  0  0  0
 66 64  1  0  0  0  0
 66 77  1  0  0  0  0
 66175  1  1  0  0  0
 66 67  1  0  0  0  0
 67 68  1  0  0  0  0
 67176  1  0  0  0  0
 67177  1  0  0  0  0
 68 69  2  0  0  0  0
 68 72  1  0  0  0  0
 69 70  1  0  0  0  0
 69178  1  0  0  0  0
 70 71  1  0  0  0  0
 70179  1  0  0  0  0
 71 72  2  0  0  0  0
 71 76  1  0  0  0  0
 72 73  1  0  0  0  0
 73 74  2  0  0  0  0
 73180  1  0  0  0  0
 74 75  1  0  0  0  0
 74181  1  0  0  0  0
 75 76  2  0  0  0  0
 75182  1  0  0  0  0
 76183  1  0  0  0  0
 77 78  1  0  0  0  0
 77184  1  0  0  0  0
 78 79  2  0  0  0  0
 80 78  1  0  0  0  0
 80 84  1  0  0  0  0
 80185  1  6  0  0  0
 80 81  1  0  0  0  0
 81 82  1  0  0  0  0
 81186  1  0  0  0  0
 81187  1  0  0  0  0
 82 83  1  0  0  0  0
 82188  1  0  0  0  0
 82189  1  0  0  0  0
 83190  1  0  0  0  0
 83191  1  0  0  0  0
 84 85  1  0  0  0  0
 84192  1  0  0  0  0
 85 86  2  0  0  0  0
 87 85  1  0  0  0  0
 87 88  1  0  0  0  0
 87 91  1  0  0  0  0
 87193  1  1  0  0  0
 88 89  1  0  0  0  0
 88194  1  0  0  0  0
 88195  1  0  0  0  0
 89 90  1  0  0  0  0
 89196  1  0  0  0  0
 89197  1  0  0  0  0
 90198  1  0  0  0  0
 90199  1  0  0  0  0
 91 92  1  0  0  0  0
 91200  1  0  0  0  0
 92 93  2  0  0  0  0
 94 92  1  0  0  0  0
 94 99  1  0  0  0  0
 94201  1  6  0  0  0
 94 95  1  0  0  0  0
 95 96  1  0  0  0  0
 95202  1  0  0  0  0
 95203  1  0  0  0  0
 96 97  1  0  0  0  0
 96204  1  0  0  0  0
 96205  1  0  0  0  0
 97 98  1  0  0  0  0
 97206  1  0  0  0  0
 97207  1  0  0  0  0
 98208  1  0  0  0  0
 98209  1  0  0  0  0
 99100  1  0  0  0  0
 99210  1  0  0  0  0
100101  2  0  0  0  0
102100  1  0  0  0  0
102106  1  0  0  0  0
102211  1  1  0  0  0
102103  1  0  0  0  0
103104  1  0  0  0  0
103212  1  0  0  0  0
103213  1  0  0  0  0
104105  1  0  0  0  0
104214  1  0  0  0  0
104215  1  0  0  0  0
105216  1  0  0  0  0
105217  1  0  0  0  0
106107  1  0  0  0  0
106218  1  0  0  0  0
107108  2  0  0  0  0
109110  1  0  0  0  0
109111  1  0  0  0  0
109219  1  1  0  0  0
110220  1  0  0  0  0
110221  1  0  0  0  0
110222  1  0  0  0  0
111223  1  0  0  0  0
M  END
>  <DRUGBANK_ID>
DB14777

>  <COMMON_NAME>
Murepavadin

>  <CAS_NUMBER>
944252-63-5

>  <UNII>
0D02GRY87Z

>  <SYNONYMS>
Murepavadin

$$$$
