
 OpenBabel10282417143D

 30 29  0  0  0  0  0  0  0  0999 V2000
    1.0918   -0.0020   -0.2712 N   0  0  0  0  0  0  0  0  0  0  0  0
    0.6716   -1.3405    0.1291 C   0  0  0  0  0  0  0  0  0  0  0  0
    1.1591   -1.6670    1.5423 C   0  0  0  0  0  0  0  0  0  0  0  0
    0.5828   -0.7197    2.6027 C   0  0  0  0  0  0  0  0  0  0  0  0
   -0.9489   -0.7617    2.6411 C   0  0  0  0  0  0  0  0  0  0  0  0
   -1.4703   -2.1590    2.9941 C   0  0  0  0  0  0  0  0  0  0  0  0
   -1.0027   -2.6059    4.3840 C   0  0  0  0  0  0  0  0  0  0  0  0
   -1.5186   -1.6791    5.4927 C   0  0  0  0  0  0  0  0  0  0  0  0
   -3.0468   -1.6046    5.5408 C   0  0  0  0  0  0  0  0  0  0  0  0
   -3.6113   -2.9214    5.8141 N   0  0  0  0  0  0  0  0  0  0  0  0
    0.6953    0.6854    0.3707 H   0  0  0  0  0  0  0  0  0  0  0  0
    2.1017    0.0729   -0.1519 H   0  0  0  0  0  0  0  0  0  0  0  0
   -0.4188   -1.4156    0.0562 H   0  0  0  0  0  0  0  0  0  0  0  0
    1.0716   -2.0719   -0.5783 H   0  0  0  0  0  0  0  0  0  0  0  0
    0.8980   -2.7059    1.7781 H   0  0  0  0  0  0  0  0  0  0  0  0
    2.2535   -1.6305    1.5822 H   0  0  0  0  0  0  0  0  0  0  0  0
    1.0029   -0.9771    3.5813 H   0  0  0  0  0  0  0  0  0  0  0  0
    0.9141    0.3087    2.4262 H   0  0  0  0  0  0  0  0  0  0  0  0
   -1.3144   -0.0157    3.3545 H   0  0  0  0  0  0  0  0  0  0  0  0
   -1.3735   -0.4470    1.6824 H   0  0  0  0  0  0  0  0  0  0  0  0
   -2.5628   -2.1669    2.9259 H   0  0  0  0  0  0  0  0  0  0  0  0
   -1.1503   -2.8958    2.2499 H   0  0  0  0  0  0  0  0  0  0  0  0
   -1.3225   -3.6379    4.5601 H   0  0  0  0  0  0  0  0  0  0  0  0
    0.0910   -2.6498    4.4310 H   0  0  0  0  0  0  0  0  0  0  0  0
   -1.1260   -2.0158    6.4583 H   0  0  0  0  0  0  0  0  0  0  0  0
   -1.1171   -0.6667    5.3564 H   0  0  0  0  0  0  0  0  0  0  0  0
   -3.3567   -0.9000    6.3157 H   0  0  0  0  0  0  0  0  0  0  0  0
   -3.4503   -1.2209    4.5972 H   0  0  0  0  0  0  0  0  0  0  0  0
   -4.6306   -2.8749    5.7396 H   0  0  0  0  0  0  0  0  0  0  0  0
   -3.3164   -3.5812    5.1029 H   0  0  0  0  0  0  0  0  0  0  0  0
  1  2  1  0  0  0  0
  1 11  1  0  0  0  0
  1 12  1  0  0  0  0
  2  3  1  0  0  0  0
  2 13  1  0  0  0  0
  2 14  1  0  0  0  0
  3  4  1  0  0  0  0
  3 15  1  0  0  0  0
  3 16  1  0  0  0  0
  4  5  1  0  0  0  0
  4 17  1  0  0  0  0
  4 18  1  0  0  0  0
  5  6  1  0  0  0  0
  5 19  1  0  0  0  0
  5 20  1  0  0  0  0
  6  7  1  0  0  0  0
  6 21  1  0  0  0  0
  6 22  1  0  0  0  0
  7  8  1  0  0  0  0
  7 23  1  0  0  0  0
  7 24  1  0  0  0  0
  8  9  1  0  0  0  0
  8 25  1  0  0  0  0
  8 26  1  0  0  0  0
  9 10  1  0  0  0  0
  9 27  1  0  0  0  0
  9 28  1  0  0  0  0
 10 29  1  0  0  0  0
 10 30  1  0  0  0  0
M  END
>  <DRUGBANK_ID>
DB04333

>  <SECONDARY_ACCESSION_NUMBERS>
EXPT01201

>  <COMMON_NAME>
Octamethylenediamine

>  <CAS_NUMBER>
373-44-4

>  <UNII>
53A6694PIE

>  <SYNONYMS>
1,8-Diaminooctane; 1,8-Octamethylenediamine; 1,8-Octanediamine; 1,8-Octylenediamine

$$$$
