
 OpenBabel10282417133D

 37 36  0  0  1  0  0  0  0  0999 V2000
    1.0004    0.0326   -0.1119 C   0  0  0  0  0  0  0  0  0  0  0  0
   -1.6921   -3.5952    1.4047 C   0  0  0  0  0  0  0  0  0  0  0  0
   -1.0361   -2.3074    1.8921 C   0  0  0  0  0  0  0  0  0  0  0  0
   -1.2000   -4.7759    2.2357 C   0  0  0  0  0  0  0  0  0  0  0  0
    0.4886   -2.3076    1.7164 C   0  0  0  0  0  0  0  0  0  0  0  0
   -1.6640   -4.5908    3.6759 C   0  0  0  0  0  0  0  0  0  0  0  0
    0.7505   -3.8770   -0.3617 C   0  0  0  0  0  0  0  0  0  0  0  0
    0.5374   -1.3139   -0.6553 C   0  0  1  0  0  0  0  0  0  0  0  0
    1.0119   -2.4803    0.2552 C   0  0  1  0  0  0  0  0  0  0  0  0
   -3.1725   -4.5716    3.7735 C   0  0  0  0  0  0  0  0  0  0  0  0
    1.2817   -4.1640   -1.7357 C   0  0  0  0  0  0  0  0  0  0  0  0
   -0.8947   -1.2705   -0.9465 N   0  0  0  0  0  0  0  0  0  0  0  0
   -3.8543   -5.4420    4.2791 O   0  0  0  0  0  0  0  0  0  0  0  0
   -3.7544   -3.5007    3.1941 O   0  0  0  0  0  0  0  0  0  0  0  0
    1.9662   -5.1066   -2.0517 O   0  0  0  0  0  0  0  0  0  0  0  0
    0.7244   -3.3463   -2.6545 O   0  0  0  0  0  0  0  0  0  0  0  0
    1.0367   -1.4066   -1.6182 H   0  0  0  0  0  0  0  0  0  0  0  0
    2.1074   -2.4055    0.3315 H   0  0  0  0  0  0  0  0  0  0  0  0
    0.6068    0.2530    0.8838 H   0  0  0  0  0  0  0  0  0  0  0  0
    0.6828    0.8399   -0.7756 H   0  0  0  0  0  0  0  0  0  0  0  0
    2.0945    0.0413   -0.0596 H   0  0  0  0  0  0  0  0  0  0  0  0
   -2.7723   -3.5053    1.3930 H   0  0  0  0  0  0  0  0  0  0  0  0
   -1.6085   -3.7734    0.3494 H   0  0  0  0  0  0  0  0  0  0  0  0
   -1.2645   -2.1243    2.9458 H   0  0  0  0  0  0  0  0  0  0  0  0
   -1.5184   -1.4429    1.4481 H   0  0  0  0  0  0  0  0  0  0  0  0
   -1.5482   -5.7218    1.8089 H   0  0  0  0  0  0  0  0  0  0  0  0
   -0.1038   -4.8504    2.2235 H   0  0  0  0  0  0  0  0  0  0  0  0
    0.9475   -3.0624    2.3673 H   0  0  0  0  0  0  0  0  0  0  0  0
    0.8681   -1.3699    2.1435 H   0  0  0  0  0  0  0  0  0  0  0  0
   -1.2683   -5.4024    4.2892 H   0  0  0  0  0  0  0  0  0  0  0  0
   -1.2591   -3.6794    4.1268 H   0  0  0  0  0  0  0  0  0  0  0  0
    1.0641   -4.6718    0.3231 H   0  0  0  0  0  0  0  0  0  0  0  0
   -0.2867   -4.0575   -0.5823 H   0  0  0  0  0  0  0  0  0  0  0  0
   -1.2750   -2.2075   -1.0626 H   0  0  0  0  0  0  0  0  0  0  0  0
   -1.4174   -0.8272   -0.1985 H   0  0  0  0  0  0  0  0  0  0  0  0
   -4.6984   -3.7205    3.0526 H   0  0  0  0  0  0  0  0  0  0  0  0
    1.0792   -3.5840   -3.5299 H   0  0  0  0  0  0  0  0  0  0  0  0
  1 19  1  0  0  0  0
  1 20  1  0  0  0  0
  1 21  1  0  0  0  0
  2 22  1  0  0  0  0
  2 23  1  0  0  0  0
  3  2  1  0  0  0  0
  3 24  1  0  0  0  0
  3 25  1  0  0  0  0
  4  2  1  0  0  0  0
  4 26  1  0  0  0  0
  4 27  1  0  0  0  0
  5  3  1  0  0  0  0
  5 28  1  0  0  0  0
  5 29  1  0  0  0  0
  6  4  1  0  0  0  0
  6 30  1  0  0  0  0
  6 31  1  0  0  0  0
  7 32  1  0  0  0  0
  7 33  1  0  0  0  0
  8  1  1  0  0  0  0
  8 12  1  0  0  0  0
  8 17  1  6  0  0  0
  9  5  1  0  0  0  0
  9  7  1  0  0  0  0
  9  8  1  0  0  0  0
  9 18  1  1  0  0  0
 10  6  1  0  0  0  0
 11  7  1  0  0  0  0
 12 34  1  0  0  0  0
 12 35  1  0  0  0  0
 13 10  2  0  0  0  0
 14 10  1  0  0  0  0
 14 36  1  0  0  0  0
 15 11  2  0  0  0  0
 16 11  1  0  0  0  0
 16 37  1  0  0  0  0
M  END
>  <DRUGBANK_ID>
DB02941

>  <SECONDARY_ACCESSION_NUMBERS>
EXPT01858

>  <COMMON_NAME>
3-(1-Aminoethyl)Nonanedioic Acid

$$$$
