3TP
 OpenBabel10282417163D

 48 50  0  0  0  0  0  0  0  0999 V2000
    0.9837    0.1139    0.1170 C   0  0  2  0  0  0  0  0  0  0  0  0
    0.4990    1.3377    0.9706 C   0  0  0  0  0  0  0  0  0  0  0  0
   -0.2360    2.2186    0.5300 O   0  0  0  0  0  0  0  0  0  0  0  0
    2.1590    1.0809    2.8431 C   0  0  0  0  0  0  0  0  0  0  0  0
    1.8530    0.5178    4.2146 C   0  0  0  0  0  0  0  0  0  0  0  0
    0.6420    1.3411    4.6635 C   0  0  0  0  0  0  0  0  0  0  0  0
   -0.0758    1.7202    3.3636 C   0  0  0  0  0  0  0  0  0  0  0  0
    0.8854   -1.0753   -2.1032 C   0  0  0  0  0  0  0  0  0  0  0  0
    1.1289   -3.0106   -2.8787 C   0  0  0  0  0  0  0  0  0  0  0  0
    0.9506   -4.4478   -3.0015 C   0  0  0  0  0  0  0  0  0  0  0  0
   -0.3430   -4.9891   -3.0768 C   0  0  0  0  0  0  0  0  0  0  0  0
   -0.5372   -6.3669   -3.2409 C   0  0  0  0  0  0  0  0  0  0  0  0
    1.8665   -6.6806   -3.2470 C   0  0  0  0  0  0  0  0  0  0  0  0
    2.0522   -5.3074   -3.0468 C   0  0  0  0  0  0  0  0  0  0  0  0
    0.4532    0.1543   -1.3528 C   0  0  1  0  0  0  0  0  0  0  0  0
    0.8328    1.2958    2.3102 N   0  0  0  0  0  0  0  0  0  0  0  0
    0.5586   -1.1366    0.8055 N   0  0  0  0  0  0  0  0  0  0  0  0
    0.4819   -2.3102   -1.9044 N   0  0  0  0  0  0  0  0  0  0  0  0
    1.8607   -2.2487   -3.7098 N   0  0  0  0  0  0  0  0  0  0  0  0
    1.6872   -0.9477   -3.2011 O   0  0  0  0  0  0  0  0  0  0  0  0
    0.5712   -7.2115   -3.3160 C   0  0  0  0  0  0  0  0  0  0  0  0
    0.4078   -8.9849   -3.3962 S   0  0  0  0  0  0  0  0  0  0  0  0
    0.9344   -9.3929   -4.6886 O   0  0  0  0  0  0  0  0  0  0  0  0
    0.9692   -9.4991   -2.1651 O   0  0  0  0  0  0  0  0  0  0  0  0
   -1.3231   -9.3679   -3.3828 C   0  0  0  0  0  0  0  0  0  0  0  0
   -1.0855    0.1838   -1.4325 C   0  0  0  0  0  0  0  0  0  0  0  0
    2.0804    0.1250    0.0921 H   0  0  0  0  0  0  0  0  0  0  0  0
    0.8491    1.0536   -1.8454 H   0  0  0  0  0  0  0  0  0  0  0  0
    2.6436    2.0634    2.9297 H   0  0  0  0  0  0  0  0  0  0  0  0
    2.7771    0.4431    2.2119 H   0  0  0  0  0  0  0  0  0  0  0  0
    1.5674   -0.5368    4.1176 H   0  0  0  0  0  0  0  0  0  0  0  0
    2.6964    0.5876    4.9052 H   0  0  0  0  0  0  0  0  0  0  0  0
   -0.0028    0.7778    5.3464 H   0  0  0  0  0  0  0  0  0  0  0  0
    0.9717    2.2441    5.1893 H   0  0  0  0  0  0  0  0  0  0  0  0
   -1.0233    1.1827    3.2471 H   0  0  0  0  0  0  0  0  0  0  0  0
   -0.2738    2.7955    3.3058 H   0  0  0  0  0  0  0  0  0  0  0  0
   -1.2088   -4.3314   -3.0072 H   0  0  0  0  0  0  0  0  0  0  0  0
   -1.5539   -6.7380   -3.3089 H   0  0  0  0  0  0  0  0  0  0  0  0
    2.7347   -7.3297   -3.3456 H   0  0  0  0  0  0  0  0  0  0  0  0
    3.0571   -4.9135   -2.9065 H   0  0  0  0  0  0  0  0  0  0  0  0
    0.8377   -1.1292    1.7810 H   0  0  0  0  0  0  0  0  0  0  0  0
   -0.4593   -1.2019    0.7888 H   0  0  0  0  0  0  0  0  0  0  0  0
   -1.7706   -8.9957   -2.4590 H   0  0  0  0  0  0  0  0  0  0  0  0
   -1.8013   -8.9295   -4.2601 H   0  0  0  0  0  0  0  0  0  0  0  0
   -1.4328  -10.4552   -3.4191 H   0  0  0  0  0  0  0  0  0  0  0  0
   -1.5273    1.0245   -0.8989 H   0  0  0  0  0  0  0  0  0  0  0  0
   -1.4186    0.2521   -2.4733 H   0  0  0  0  0  0  0  0  0  0  0  0
   -1.5228   -0.7302   -1.0153 H   0  0  0  0  0  0  0  0  0  0  0  0
  1  2  1  0  0  0  0
  1 15  1  0  0  0  0
  1 17  1  0  0  0  0
  1 27  1  6  0  0  0
  2  3  2  0  0  0  0
  2 16  1  0  0  0  0
  4  5  1  0  0  0  0
  4 16  1  0  0  0  0
  4 29  1  0  0  0  0
  4 30  1  0  0  0  0
  5  6  1  0  0  0  0
  5 31  1  0  0  0  0
  5 32  1  0  0  0  0
  6  7  1  0  0  0  0
  6 33  1  0  0  0  0
  6 34  1  0  0  0  0
  7 16  1  0  0  0  0
  7 35  1  0  0  0  0
  7 36  1  0  0  0  0
  8 15  1  0  0  0  0
  8 18  2  0  0  0  0
  8 20  1  0  0  0  0
  9 10  1  0  0  0  0
  9 18  1  0  0  0  0
  9 19  2  0  0  0  0
 10 11  1  0  0  0  0
 10 14  2  0  0  0  0
 11 12  2  0  0  0  0
 11 37  1  0  0  0  0
 12 21  1  0  0  0  0
 12 38  1  0  0  0  0
 13 14  1  0  0  0  0
 13 21  2  0  0  0  0
 13 39  1  0  0  0  0
 14 40  1  0  0  0  0
 15 26  1  0  0  0  0
 15 28  1  6  0  0  0
 17 41  1  0  0  0  0
 17 42  1  0  0  0  0
 19 20  1  0  0  0  0
 21 22  1  0  0  0  0
 22 23  2  0  0  0  0
 22 24  2  0  0  0  0
 22 25  1  0  0  0  0
 25 43  1  0  0  0  0
 25 44  1  0  0  0  0
 25 45  1  0  0  0  0
 26 46  1  0  0  0  0
 26 47  1  0  0  0  0
 26 48  1  0  0  0  0
M  END
>  <DRUGBANK_ID>
DB07067

>  <COMMON_NAME>
(2S,3S)-3-{3-[4-(METHYLSULFONYL)PHENYL]-1,2,4-OXADIAZOL-5-YL}-1-OXO-1-PYRROLIDIN-1-YLBUTAN-2-AMINE

$$$$
