
 OpenBabel10282417113D

 57 60  0  0  0  0  0  0  0  0999 V2000
   -2.5317    2.5351    1.5824 C   0  0  1  0  0  0  0  0  0  0  0  0
   -1.6139    2.1032    2.9197 C   0  0  1  0  0  0  0  0  0  0  0  0
   -1.9169    3.5355    0.5934 C   0  0  1  0  0  0  0  0  0  0  0  0
   -4.0602    2.5621    1.4830 C   0  0  0  0  0  0  0  0  0  0  0  0
   -0.3028    1.5800    2.3228 C   0  0  1  0  0  0  0  0  0  0  0  0
   -1.0414    3.0961    4.0955 C   0  0  0  0  0  0  0  0  0  0  0  0
   -2.5313    3.5493   -0.8936 C   0  0  2  0  0  0  0  0  0  0  0  0
   -0.4075    3.2165    0.3748 C   0  0  2  0  0  0  0  0  0  0  0  0
   -4.6405    2.4787   -0.0969 C   0  0  1  0  0  0  0  0  0  0  0  0
    0.7093    1.2664    3.5069 C   0  0  2  0  0  0  0  0  0  0  0  0
    0.3492    2.8528    1.5620 C   0  0  0  0  0  0  0  0  0  0  0  0
   -0.5454    0.4472    1.2514 C   0  0  0  0  0  0  0  0  0  0  0  0
    0.6078    2.6753    4.1560 C   0  0  2  0  0  0  0  0  0  0  0  0
   -3.8649    2.9595   -1.4284 C   0  0  0  0  0  0  0  0  0  0  0  0
   -1.7624    2.3735   -1.4287 C   0  0  0  0  0  0  0  0  0  0  0  0
   -2.3441    5.0060   -1.4284 C   0  0  0  0  0  0  0  0  0  0  0  0
    0.2565    4.2059   -0.3820 O   0  0  0  0  0  0  0  0  0  0  0  0
   -4.8848    1.1423   -0.2812 F   0  0  0  0  0  0  0  0  0  0  0  0
    1.6945    0.3666    2.6798 C   0  0  0  0  0  0  0  0  0  0  0  0
    0.7118    0.4685    4.6724 O   0  0  0  0  0  0  0  0  0  0  0  0
    1.3584    3.2385    5.3999 C   0  0  0  0  0  0  0  0  0  0  0  0
   -3.8173    2.2429   -2.7036 C   0  0  0  0  0  0  0  0  0  0  0  0
   -1.2850    2.3424   -2.6682 C   0  0  0  0  0  0  0  0  0  0  0  0
    1.5301   -1.2405    2.8340 C   0  0  0  0  0  0  0  0  0  0  0  0
    2.4376    0.8118    1.8029 O   0  0  0  0  0  0  0  0  0  0  0  0
   -2.3868    1.4635   -3.0522 C   0  0  0  0  0  0  0  0  0  0  0  0
    0.5853   -2.1344    2.2656 O   0  0  0  0  0  0  0  0  0  0  0  0
   -2.1920    0.2615   -3.2968 O   0  0  0  0  0  0  0  0  0  0  0  0
   -2.4906    1.6089    1.0458 H   0  0  0  0  0  0  0  0  0  0  0  0
   -2.1472    1.2693    3.4089 H   0  0  0  0  0  0  0  0  0  0  0  0
   -2.0188    4.5241    1.0609 H   0  0  0  0  0  0  0  0  0  0  0  0
   -4.5066    3.3552    2.0968 H   0  0  0  0  0  0  0  0  0  0  0  0
   -4.3863    1.6265    1.9656 H   0  0  0  0  0  0  0  0  0  0  0  0
   -0.9374    3.0654    5.2076 H   0  0  0  0  0  0  0  0  0  0  0  0
   -1.9901    2.8494    4.6345 H   0  0  0  0  0  0  0  0  0  0  0  0
   -0.2292    2.3061   -0.1785 H   0  0  0  0  0  0  0  0  0  0  0  0
   -5.6106    2.9916   -0.0762 H   0  0  0  0  0  0  0  0  0  0  0  0
    0.4061    3.8099    2.0886 H   0  0  0  0  0  0  0  0  0  0  0  0
    1.3714    2.6457    1.2362 H   0  0  0  0  0  0  0  0  0  0  0  0
    0.0991    0.5271    0.3695 H   0  0  0  0  0  0  0  0  0  0  0  0
   -0.3429   -0.5039    1.6448 H   0  0  0  0  0  0  0  0  0  0  0  0
   -1.5519    0.2275    0.8989 H   0  0  0  0  0  0  0  0  0  0  0  0
    1.1970    3.2820    3.4887 H   0  0  0  0  0  0  0  0  0  0  0  0
   -2.1506    1.4285   -0.9624 H   0  0  0  0  0  0  0  0  0  0  0  0
   -3.1487    5.6830   -1.1097 H   0  0  0  0  0  0  0  0  0  0  0  0
   -1.4503    5.4878   -1.0181 H   0  0  0  0  0  0  0  0  0  0  0  0
   -2.2551    5.0689   -2.5146 H   0  0  0  0  0  0  0  0  0  0  0  0
   -0.0546    4.0544   -1.2931 H   0  0  0  0  0  0  0  0  0  0  0  0
    1.6444    0.5873    5.0025 H   0  0  0  0  0  0  0  0  0  0  0  0
    2.1799    2.6193    5.7639 H   0  0  0  0  0  0  0  0  0  0  0  0
    1.8263    4.1894    5.0795 H   0  0  0  0  0  0  0  0  0  0  0  0
    0.7282    3.5500    6.2407 H   0  0  0  0  0  0  0  0  0  0  0  0
   -3.6160    2.8037   -3.6682 H   0  0  0  0  0  0  0  0  0  0  0  0
   -1.1450    3.2827   -3.1827 H   0  0  0  0  0  0  0  0  0  0  0  0
    2.4766   -1.5943    2.4279 H   0  0  0  0  0  0  0  0  0  0  0  0
    1.5321   -1.4766    3.8962 H   0  0  0  0  0  0  0  0  0  0  0  0
   -0.3050   -1.9705    2.6317 H   0  0  0  0  0  0  0  0  0  0  0  0
  1  4  1  0  0  0  0
  1  2  1  0  0  0  0
  1  3  1  0  0  0  0
  1 29  1  1  0  0  0
  2  5  1  0  0  0  0
  2  6  1  0  0  0  0
  2 30  1  1  0  0  0
  3  7  1  0  0  0  0
  3  8  1  0  0  0  0
  3 31  1  6  0  0  0
  4  9  1  0  0  0  0
  4 32  1  0  0  0  0
  4 33  1  0  0  0  0
  5 10  1  0  0  0  0
  5 11  1  0  0  0  0
  5 12  1  1  0  0  0
  6 13  1  0  0  0  0
  6 34  1  0  0  0  0
  6 35  1  0  0  0  0
  7 14  1  0  0  0  0
  7 15  1  0  0  0  0
  7 16  1  6  0  0  0
  8 11  1  0  0  0  0
  8 17  1  0  0  0  0
  8 36  1  6  0  0  0
  9 14  1  0  0  0  0
  9 37  1  6  0  0  0
  9 18  1  0  0  0  0
 10 13  1  0  0  0  0
 10 20  1  1  0  0  0
 10 19  1  0  0  0  0
 11 38  1  0  0  0  0
 11 39  1  0  0  0  0
 12 40  1  0  0  0  0
 12 41  1  0  0  0  0
 12 42  1  0  0  0  0
 13 21  1  0  0  0  0
 13 43  1  6  0  0  0
 14 22  2  0  0  0  0
 15 23  2  0  0  0  0
 15 44  1  0  0  0  0
 16 45  1  0  0  0  0
 16 46  1  0  0  0  0
 16 47  1  0  0  0  0
 17 48  1  0  0  0  0
 19 24  1  0  0  0  0
 19 25  2  0  0  0  0
 20 49  1  0  0  0  0
 21 50  1  0  0  0  0
 21 51  1  0  0  0  0
 21 52  1  0  0  0  0
 22 26  1  0  0  0  0
 22 53  1  0  0  0  0
 23 26  1  0  0  0  0
 23 54  1  0  0  0  0
 24 27  1  0  0  0  0
 24 55  1  0  0  0  0
 24 56  1  0  0  0  0
 26 28  2  0  0  0  0
 27 57  1  0  0  0  0
M  END
>  <DRUGBANK_ID>
DB01384

>  <COMMON_NAME>
Paramethasone

>  <CAS_NUMBER>
53-33-8

>  <UNII>
VFC6ZX3584

>  <SYNONYMS>
Parametasona; Parametasone; Paramethasone; Paramethasonum

$$$$
