
 OpenBabel10282417203D

 20 21  0  0  0  0  0  0  0  0999 V2000
    1.0118   -1.4169    0.0192 C   0  0  0  0  0  0  0  0  0  0  0  0
    2.1923   -0.6701   -0.0129 C   0  0  0  0  0  0  0  0  0  0  0  0
    2.1490    0.7212   -0.0252 C   0  0  0  0  0  0  0  0  0  0  0  0
    0.9292    1.4067   -0.0010 C   0  0  0  0  0  0  0  0  0  0  0  0
   -0.2445    0.6414    0.0095 C   0  0  0  0  0  0  0  0  0  0  0  0
   -0.2318   -0.7533    0.0164 C   0  0  0  0  0  0  0  0  0  0  0  0
   -1.5905   -1.2003    0.0021 C   0  0  0  0  0  0  0  0  0  0  0  0
   -2.3805   -0.0671   -0.0296 C   0  0  0  0  0  0  0  0  0  0  0  0
   -1.5645    1.0326    0.0057 N   0  0  0  0  0  0  0  0  0  0  0  0
   -2.0562   -2.6151   -0.0100 C   0  0  0  0  0  0  0  0  0  0  0  0
   -2.8791   -2.9069    1.1138 O   0  0  0  0  0  0  0  0  0  0  0  0
    1.0586   -2.5013    0.0273 H   0  0  0  0  0  0  0  0  0  0  0  0
    3.1491   -1.1856   -0.0351 H   0  0  0  0  0  0  0  0  0  0  0  0
    3.0794    1.2833   -0.0583 H   0  0  0  0  0  0  0  0  0  0  0  0
    0.9034    2.4914   -0.0064 H   0  0  0  0  0  0  0  0  0  0  0  0
   -3.4569    0.0428   -0.0728 H   0  0  0  0  0  0  0  0  0  0  0  0
   -1.8803    1.9915    0.0037 H   0  0  0  0  0  0  0  0  0  0  0  0
   -2.6302   -2.8159   -0.9198 H   0  0  0  0  0  0  0  0  0  0  0  0
   -1.2133   -3.3130    0.0086 H   0  0  0  0  0  0  0  0  0  0  0  0
   -2.3675   -2.6333    1.8944 H   0  0  0  0  0  0  0  0  0  0  0  0
  1 12  1  0  0  0  0
  2  1  1  0  0  0  0
  2 13  1  0  0  0  0
  3  2  2  0  0  0  0
  3 14  1  0  0  0  0
  4  3  1  0  0  0  0
  4 15  1  0  0  0  0
  5  4  2  0  0  0  0
  6  5  1  0  0  0  0
  6  1  2  0  0  0  0
  7  6  1  0  0  0  0
  8  7  2  0  0  0  0
  8 16  1  0  0  0  0
  9  8  1  0  0  0  0
  9  5  1  0  0  0  0
  9 17  1  0  0  0  0
 10  7  1  0  0  0  0
 10 18  1  0  0  0  0
 10 19  1  0  0  0  0
 11 10  1  0  0  0  0
 11 20  1  0  0  0  0
M  END
>  <DRUGBANK_ID>
DB12881

>  <COMMON_NAME>
Indole-3-carbinol

>  <CAS_NUMBER>
700-06-1

>  <UNII>
C11E72455F

$$$$
