
 OpenBabel10282417143D

 17 17  0  0  0  0  0  0  0  0999 V2000
    1.3776   -0.2121   -0.0029 C   0  0  0  0  0  0  0  0  0  0  0  0
    0.4960   -1.2937    0.0048 C   0  0  0  0  0  0  0  0  0  0  0  0
   -0.8918   -1.0798    0.0028 C   0  0  0  0  0  0  0  0  0  0  0  0
   -1.3729    0.2409   -0.0094 C   0  0  0  0  0  0  0  0  0  0  0  0
   -0.4894    1.3166    0.0205 C   0  0  0  0  0  0  0  0  0  0  0  0
    0.8837    1.0908   -0.0190 C   0  0  0  0  0  0  0  0  0  0  0  0
   -1.8488   -2.2515    0.0862 C   0  0  1  0  0  0  0  0  0  0  0  0
   -2.6781   -2.1878    1.3106 C   0  0  0  0  0  0  0  0  0  0  0  0
   -2.6621   -2.2801   -1.0937 O   0  0  0  0  0  0  0  0  0  0  0  0
   -3.3377   -2.0976    2.2672 N   0  0  0  0  0  0  0  0  0  0  0  0
    2.4508   -0.3851    0.0232 H   0  0  0  0  0  0  0  0  0  0  0  0
    0.9046   -2.3026    0.0189 H   0  0  0  0  0  0  0  0  0  0  0  0
   -2.4415    0.4461   -0.0170 H   0  0  0  0  0  0  0  0  0  0  0  0
   -0.8764    2.3296    0.0935 H   0  0  0  0  0  0  0  0  0  0  0  0
    1.5691    1.9330   -0.0591 H   0  0  0  0  0  0  0  0  0  0  0  0
   -1.2839   -3.1904    0.0927 H   0  0  0  0  0  0  0  0  0  0  0  0
   -3.1453   -1.4376   -1.1306 H   0  0  0  0  0  0  0  0  0  0  0  0
  1  2  1  0  0  0  0
  1 11  1  0  0  0  0
  2  3  2  0  0  0  0
  2 12  1  0  0  0  0
  3  4  1  0  0  0  0
  4  5  2  0  0  0  0
  4 13  1  0  0  0  0
  5 14  1  0  0  0  0
  6  5  1  0  0  0  0
  6  1  2  0  0  0  0
  6 15  1  0  0  0  0
  7  3  1  0  0  0  0
  7  8  1  0  0  0  0
  7  9  1  0  0  0  0
  7 16  1  1  0  0  0
  8 10  3  0  0  0  0
  9 17  1  0  0  0  0
M  END
>  <DRUGBANK_ID>
DB04737

>  <COMMON_NAME>
(S)-mandelonitrile

>  <CAS_NUMBER>
28549-12-4

>  <UNII>
2K9VO6WZ5K

>  <SYNONYMS>
(−)-mandelonitrile; (S)-(−)-mandelonitrile; (S)-Benzaldehyde cyanohydrin; l-mandelonitrile

$$$$
