
 OpenBabel10282417243D

 43 41  0  0  1  0  0  0  0  0999 V2000
    1.0604   -0.2135    0.0609 C   0  0  0  0  0  0  0  0  0  0  0  0
    0.7029    1.0893   -0.5314 C   0  0  0  0  0  0  0  0  0  0  0  0
    0.2277    1.0947   -1.6669 O   0  0  0  0  0  0  0  0  0  0  0  0
    0.9357    2.2178    0.2143 N   0  0  0  0  0  0  0  0  0  0  0  0
    1.6608    2.3875    1.4775 C   0  0  1  0  0  0  0  0  0  0  0  0
    2.9171    3.2455    1.2468 C   0  0  0  0  0  0  0  0  0  0  0  0
    2.6825    5.0188    0.8689 S   0  0  0  0  0  0  0  0  0  0  0  0
    0.8093    2.9429    2.6417 C   0  0  0  0  0  0  0  0  0  0  0  0
    0.6333    2.0921    3.6805 O   0  0  0  0  0  0  0  0  0  0  0  0
    0.2582    4.0387    2.6509 O   0  0  0  0  0  0  0  0  0  0  0  0
   -0.8607    8.2855    1.1906 N   0  0  0  0  0  0  0  0  0  0  0  0
   -1.5780    7.0946    1.6170 C   0  0  0  0  0  0  0  0  0  0  0  0
   -2.6404    6.7270    0.5836 C   0  0  0  0  0  0  0  0  0  0  0  0
   -2.0527    6.3860   -0.7866 C   0  0  0  0  0  0  0  0  0  0  0  0
   -1.0806    5.2368   -0.6897 C   0  0  0  0  0  0  0  0  0  0  0  0
   -1.7315    3.9480   -0.1868 C   0  0  2  0  0  0  0  0  0  0  0  0
   -1.2176    2.9421   -1.0667 N   0  0  0  0  0  0  0  0  0  0  0  0
   -3.2572    3.8109   -0.1718 C   0  0  0  0  0  0  0  0  0  0  0  0
   -3.7763    3.5406    1.0499 O   0  0  0  0  0  0  0  0  0  0  0  0
   -3.9637    3.8849   -1.1778 O   0  0  0  0  0  0  0  0  0  0  0  0
    0.6549   -0.9912   -0.5935 H   0  0  0  0  0  0  0  0  0  0  0  0
    0.6094   -0.3158    1.0485 H   0  0  0  0  0  0  0  0  0  0  0  0
    2.1466   -0.2662    0.0757 H   0  0  0  0  0  0  0  0  0  0  0  0
    0.5241    3.0454   -0.2175 H   0  0  0  0  0  0  0  0  0  0  0  0
    2.0035    1.3940    1.7767 H   0  0  0  0  0  0  0  0  0  0  0  0
    3.5583    3.1932    2.1305 H   0  0  0  0  0  0  0  0  0  0  0  0
    3.4758    2.8319    0.4002 H   0  0  0  0  0  0  0  0  0  0  0  0
    1.8162    4.8880   -0.1450 H   0  0  0  0  0  0  0  0  0  0  0  0
    1.0171    1.1992    3.6045 H   0  0  0  0  0  0  0  0  0  0  0  0
   -0.3927    8.1002    0.3028 H   0  0  0  0  0  0  0  0  0  0  0  0
   -1.5423    9.0153    0.9878 H   0  0  0  0  0  0  0  0  0  0  0  0
   -0.8713    6.2737    1.7782 H   0  0  0  0  0  0  0  0  0  0  0  0
   -2.0559    7.2668    2.5844 H   0  0  0  0  0  0  0  0  0  0  0  0
   -3.2039    5.8911    0.9972 H   0  0  0  0  0  0  0  0  0  0  0  0
   -3.3750    7.5268    0.4615 H   0  0  0  0  0  0  0  0  0  0  0  0
   -2.8398    6.1286   -1.5029 H   0  0  0  0  0  0  0  0  0  0  0  0
   -1.5377    7.2467   -1.2239 H   0  0  0  0  0  0  0  0  0  0  0  0
   -0.5915    5.1167   -1.6680 H   0  0  0  0  0  0  0  0  0  0  0  0
   -0.2341    5.4880   -0.0397 H   0  0  0  0  0  0  0  0  0  0  0  0
   -1.3612    3.7333    0.8214 H   0  0  0  0  0  0  0  0  0  0  0  0
   -1.0754    3.2026   -2.0409 H   0  0  0  0  0  0  0  0  0  0  0  0
   -1.7309    2.0609   -1.0773 H   0  0  0  0  0  0  0  0  0  0  0  0
   -3.1260    3.5270    1.7819 H   0  0  0  0  0  0  0  0  0  0  0  0
  1  2  1  0  0  0  0
  1 21  1  0  0  0  0
  1 22  1  0  0  0  0
  1 23  1  0  0  0  0
  2  3  2  0  0  0  0
  2  4  1  0  0  0  0
  4 24  1  0  0  0  0
  5  4  1  0  0  0  0
  5  6  1  0  0  0  0
  5  8  1  0  0  0  0
  5 25  1  1  0  0  0
  6  7  1  0  0  0  0
  6 26  1  0  0  0  0
  6 27  1  0  0  0  0
  7 28  1  0  0  0  0
  8  9  1  0  0  0  0
  8 10  2  0  0  0  0
  9 29  1  0  0  0  0
 11 12  1  0  0  0  0
 11 30  1  0  0  0  0
 11 31  1  0  0  0  0
 12 13  1  0  0  0  0
 12 32  1  0  0  0  0
 12 33  1  0  0  0  0
 13 14  1  0  0  0  0
 13 34  1  0  0  0  0
 13 35  1  0  0  0  0
 14 15  1  0  0  0  0
 14 36  1  0  0  0  0
 14 37  1  0  0  0  0
 15 38  1  0  0  0  0
 15 39  1  0  0  0  0
 16 18  1  0  0  0  0
 16 40  1  1  0  0  0
 16 17  1  0  0  0  0
 16 15  1  0  0  0  0
 17 41  1  0  0  0  0
 17 42  1  0  0  0  0
 18 19  1  0  0  0  0
 18 20  2  0  0  0  0
 19 43  1  0  0  0  0
M  END
>  <DRUGBANK_ID>
DB17839

>  <COMMON_NAME>
Nacystelyn

>  <CAS_NUMBER>
89344-48-9

>  <UNII>
8G1KV0RT1P

>  <SYNONYMS>
Acetylcysteine lysine; L-lysine, compd. with n-acetyl-l-cysteine; Lysine acetylcysteinate; Lysine acetylcysteinate salt; N-acetylcysteinate lysine

$$$$
