
 OpenBabel10282417153D

134133  0  0  1  0  0  0  0  0999 V2000
    0.6500    0.1746    0.4314 P   0  0  3  0  0  0  0  0  0  0  0  0
    0.2970   -1.4862    0.0984 O   0  0  0  0  0  0  0  0  0  0  0  0
    3.4171   -0.9083    1.3600 O   0  0  0  0  0  0  0  0  0  0  0  0
    1.1789    0.4584    1.8795 O   0  0  0  0  0  0  0  0  0  0  0  0
    4.6504    1.6814    3.5531 O   0  0  0  0  0  0  0  0  0  0  0  0
    1.6364   -2.0491    2.2020 O   0  0  0  0  0  0  0  0  0  0  0  0
   -0.6734    0.8830    0.5980 O   0  5  0  0  0  0  0  0  0  0  0  0
    1.6731    0.6577   -0.5673 O   0  0  0  0  0  0  0  0  0  0  0  0
    4.0159    3.3697    2.1470 O   0  0  0  0  0  0  0  0  0  0  0  0
   -0.8697   -0.5775   -2.6850 N   0  3  0  0  0  0  0  0  0  0  0  0
    6.8196   -2.6588   -3.0963 C   0  0  0  0  0  0  0  0  0  0  0  0
    7.5299   -3.9363   -2.6293 C   0  0  0  0  0  0  0  0  0  0  0  0
    5.3786   -3.0217   -3.4587 C   0  0  0  0  0  0  0  0  0  0  0  0
    7.5062   -4.9510   -3.7733 C   0  0  0  0  0  0  0  0  0  0  0  0
    4.7675   -3.6693   -2.2164 C   0  0  0  0  0  0  0  0  0  0  0  0
    8.2185   -4.3445   -4.9833 C   0  0  0  0  0  0  0  0  0  0  0  0
    5.0061   -2.7007   -1.0239 C   0  0  0  0  0  0  0  0  0  0  0  0
    9.6605   -3.9999   -4.6008 C   0  0  0  0  0  0  0  0  0  0  0  0
    4.3232   -1.3924   -1.3113 C   0  0  0  0  0  0  0  0  0  0  0  0
   10.3960   -5.2686   -4.1561 C   0  0  0  0  0  0  0  0  0  0  0  0
   -0.9039   -2.0248   -2.1707 C   0  0  0  0  0  0  0  0  0  0  0  0
    2.9174   -1.8630   -1.3396 C   0  0  0  0  0  0  0  0  0  0  0  0
   10.4341   -6.2926   -5.2957 C   0  0  0  0  0  0  0  0  0  0  0  0
    0.4948   -0.0876   -3.2272 C   0  0  0  0  0  0  0  0  0  0  0  0
   -2.0215   -0.2577   -3.4768 C   0  0  0  0  0  0  0  0  0  0  0  0
   -1.1832    0.2663   -1.5405 C   0  0  0  0  0  0  0  0  0  0  0  0
    0.2115   -2.2846   -1.2170 C   0  0  0  0  0  0  0  0  0  0  0  0
    2.5126   -2.6586    0.0323 C   0  0  0  0  0  0  0  0  0  0  0  0
   11.1335   -5.7179   -6.5279 C   0  0  0  0  0  0  0  0  0  0  0  0
    5.2395    2.1106    6.4955 C   0  0  0  0  0  0  0  0  0  0  0  0
    5.2608    3.1313    7.6385 C   0  0  0  0  0  0  0  0  0  0  0  0
    3.7911    1.7604    6.1267 C   0  0  0  0  0  0  0  0  0  0  0  0
    7.9902    0.5258   14.2491 C   0  0  0  0  0  0  0  0  0  0  0  0
    8.1519   -0.4097   13.0447 C   0  0  0  0  0  0  0  0  0  0  0  0
    4.5642    2.5494    8.8628 C   0  0  0  0  0  0  0  0  0  0  0  0
    7.0386   -0.0867   15.2843 C   0  0  0  0  0  0  0  0  0  0  0  0
    6.8010   -0.6467   12.3769 C   0  0  0  0  0  0  0  0  0  0  0  0
    2.4720   -1.8757    1.3457 C   0  0  0  0  0  0  0  0  0  0  0  0
    3.0700    3.0028    5.6042 C   0  0  0  0  0  0  0  0  0  0  0  0
    3.2645    0.1400    2.3401 C   0  0  3  0  0  0  0  0  0  0  0  0
   12.5646   -5.3344   -6.1889 C   0  0  0  0  0  0  0  0  0  0  0  0
    5.2161    1.2337    9.2512 C   0  0  0  0  0  0  0  0  0  0  0  0
    7.5923   -1.4167   15.8056 C   0  0  0  0  0  0  0  0  0  0  0  0
    6.1793    0.6794   11.9749 C   0  0  0  0  0  0  0  0  0  0  0  0
    3.8469    3.7194    4.4946 C   0  0  0  0  0  0  0  0  0  0  0  0
    2.3398    1.2313    1.8973 C   0  0  0  0  0  0  0  0  0  0  0  0
    4.6401    0.6649    2.5526 C   0  0  0  0  0  0  0  0  0  0  0  0
    6.6218    1.5038    9.6807 C   0  0  0  0  0  0  0  0  0  0  0  0
    8.9711   -1.2309   16.4408 C   0  0  0  0  0  0  0  0  0  0  0  0
    7.0363    1.3167   10.9295 C   0  0  0  0  0  0  0  0  0  0  0  0
    4.1643    2.9268    3.2417 C   0  0  0  0  0  0  0  0  0  0  0  0
    8.8872   -0.2694   17.6152 C   0  0  0  0  0  0  0  0  0  0  0  0
    7.3086   -2.1619   -3.9327 H   0  0  0  0  0  0  0  0  0  0  0  0
    6.8810   -1.8944   -2.3167 H   0  0  0  0  0  0  0  0  0  0  0  0
    8.5347   -3.6953   -2.2803 H   0  0  0  0  0  0  0  0  0  0  0  0
    7.0818   -4.3849   -1.7369 H   0  0  0  0  0  0  0  0  0  0  0  0
    5.2997   -3.6953   -4.3156 H   0  0  0  0  0  0  0  0  0  0  0  0
    4.8349   -2.1333   -3.7976 H   0  0  0  0  0  0  0  0  0  0  0  0
    7.9531   -5.8910   -3.4437 H   0  0  0  0  0  0  0  0  0  0  0  0
    6.4914   -5.2507   -4.0525 H   0  0  0  0  0  0  0  0  0  0  0  0
    5.1784   -4.6458   -1.9607 H   0  0  0  0  0  0  0  0  0  0  0  0
    3.7311   -3.9565   -2.4380 H   0  0  0  0  0  0  0  0  0  0  0  0
    8.1616   -5.0322   -5.8292 H   0  0  0  0  0  0  0  0  0  0  0  0
    7.7123   -3.4495   -5.3585 H   0  0  0  0  0  0  0  0  0  0  0  0
    6.0310   -2.5161   -0.7358 H   0  0  0  0  0  0  0  0  0  0  0  0
    4.6553   -3.1632   -0.1124 H   0  0  0  0  0  0  0  0  0  0  0  0
   10.1551   -3.5024   -5.4378 H   0  0  0  0  0  0  0  0  0  0  0  0
    9.7090   -3.2496   -3.8047 H   0  0  0  0  0  0  0  0  0  0  0  0
    4.6147   -0.9011   -2.2524 H   0  0  0  0  0  0  0  0  0  0  0  0
    4.4318   -0.6007   -0.5757 H   0  0  0  0  0  0  0  0  0  0  0  0
   11.3988   -5.0111   -3.8088 H   0  0  0  0  0  0  0  0  0  0  0  0
    9.9319   -5.7203   -3.2729 H   0  0  0  0  0  0  0  0  0  0  0  0
   -0.8181   -2.6830   -3.0479 H   0  0  0  0  0  0  0  0  0  0  0  0
   -1.8044   -2.2321   -1.5945 H   0  0  0  0  0  0  0  0  0  0  0  0
    2.7687   -2.4559   -2.2633 H   0  0  0  0  0  0  0  0  0  0  0  0
    2.4039   -0.9748   -1.6413 H   0  0  0  0  0  0  0  0  0  0  0  0
   10.9391   -7.2013   -4.9563 H   0  0  0  0  0  0  0  0  0  0  0  0
    9.4215   -6.6150   -5.5686 H   0  0  0  0  0  0  0  0  0  0  0  0
    0.9174   -0.8065   -3.9277 H   0  0  0  0  0  0  0  0  0  0  0  0
    0.4306    0.9421   -3.5807 H   0  0  0  0  0  0  0  0  0  0  0  0
    1.1832   -0.0034   -2.4150 H   0  0  0  0  0  0  0  0  0  0  0  0
   -2.8788   -0.5475   -2.8542 H   0  0  0  0  0  0  0  0  0  0  0  0
   -1.9840    0.8264   -3.6119 H   0  0  0  0  0  0  0  0  0  0  0  0
   -1.9298   -0.8430   -4.3726 H   0  0  0  0  0  0  0  0  0  0  0  0
   -2.0313   -0.0593   -0.9223 H   0  0  0  0  0  0  0  0  0  0  0  0
   -0.3937   -0.1742   -1.0927 H   0  0  0  0  0  0  0  0  0  0  0  0
   -0.8885    1.3177   -1.6091 H   0  0  0  0  0  0  0  0  0  0  0  0
    1.0265   -2.2303   -1.9202 H   0  0  0  0  0  0  0  0  0  0  0  0
    0.2094   -3.3811   -1.0146 H   0  0  0  0  0  0  0  0  0  0  0  0
    3.0028   -3.6238    0.1006 H   0  0  0  0  0  0  0  0  0  0  0  0
    1.5552   -3.1608    0.1075 H   0  0  0  0  0  0  0  0  0  0  0  0
   11.1157   -6.4520   -7.3375 H   0  0  0  0  0  0  0  0  0  0  0  0
   10.5995   -4.8426   -6.9169 H   0  0  0  0  0  0  0  0  0  0  0  0
    5.7870    1.1956    6.7370 H   0  0  0  0  0  0  0  0  0  0  0  0
    5.8092    2.5099    5.6534 H   0  0  0  0  0  0  0  0  0  0  0  0
    6.2943    3.4116    7.8629 H   0  0  0  0  0  0  0  0  0  0  0  0
    4.7793    4.0731    7.3607 H   0  0  0  0  0  0  0  0  0  0  0  0
    3.2399    1.3319    6.9700 H   0  0  0  0  0  0  0  0  0  0  0  0
    3.7632    0.9458    5.4019 H   0  0  0  0  0  0  0  0  0  0  0  0
    8.9727    0.7473   14.6719 H   0  0  0  0  0  0  0  0  0  0  0  0
    7.6217    1.5140   13.9564 H   0  0  0  0  0  0  0  0  0  0  0  0
    8.5899   -1.3707   13.3267 H   0  0  0  0  0  0  0  0  0  0  0  0
    8.8714    0.0180   12.3400 H   0  0  0  0  0  0  0  0  0  0  0  0
    4.5841    3.2654    9.6923 H   0  0  0  0  0  0  0  0  0  0  0  0
    3.5000    2.3697    8.6747 H   0  0  0  0  0  0  0  0  0  0  0  0
    6.8736    0.6247   16.0979 H   0  0  0  0  0  0  0  0  0  0  0  0
    6.0354   -0.2424   14.8726 H   0  0  0  0  0  0  0  0  0  0  0  0
    6.1068   -1.1691   13.0444 H   0  0  0  0  0  0  0  0  0  0  0  0
    6.9127   -1.3102   11.5108 H   0  0  0  0  0  0  0  0  0  0  0  0
    2.9360    3.7187    6.4280 H   0  0  0  0  0  0  0  0  0  0  0  0
    2.0529    2.7399    5.2961 H   0  0  0  0  0  0  0  0  0  0  0  0
    2.8125   -0.2630    3.2547 H   0  0  0  0  0  0  0  0  0  0  0  0
   13.1081   -6.2148   -5.8341 H   0  0  0  0  0  0  0  0  0  0  0  0
   13.0715   -4.9200   -7.0603 H   0  0  0  0  0  0  0  0  0  0  0  0
   12.6132   -4.5715   -5.4049 H   0  0  0  0  0  0  0  0  0  0  0  0
    4.5733    0.7879   10.0031 H   0  0  0  0  0  0  0  0  0  0  0  0
    5.2278    0.4758    8.4657 H   0  0  0  0  0  0  0  0  0  0  0  0
    6.8938   -1.8483   16.5288 H   0  0  0  0  0  0  0  0  0  0  0  0
    7.6595   -2.1539   14.9961 H   0  0  0  0  0  0  0  0  0  0  0  0
    6.0388    1.3863   12.7945 H   0  0  0  0  0  0  0  0  0  0  0  0
    5.1611    0.4566   11.6717 H   0  0  0  0  0  0  0  0  0  0  0  0
    4.8106    4.0998    4.8376 H   0  0  0  0  0  0  0  0  0  0  0  0
    3.2608    4.5888    4.1878 H   0  0  0  0  0  0  0  0  0  0  0  0
    2.6726    1.7462    0.9710 H   0  0  0  0  0  0  0  0  0  0  0  0
    2.1462    2.0213    2.6211 H   0  0  0  0  0  0  0  0  0  0  0  0
    5.2085   -0.2032    2.9088 H   0  0  0  0  0  0  0  0  0  0  0  0
    5.0895    0.9928    1.6118 H   0  0  0  0  0  0  0  0  0  0  0  0
    7.3306    1.9155    8.9637 H   0  0  0  0  0  0  0  0  0  0  0  0
    9.3598   -2.1991   16.7673 H   0  0  0  0  0  0  0  0  0  0  0  0
    9.6980   -0.8571   15.7099 H   0  0  0  0  0  0  0  0  0  0  0  0
    8.0584    1.6006   11.1749 H   0  0  0  0  0  0  0  0  0  0  0  0
    8.1906   -0.6593   18.3629 H   0  0  0  0  0  0  0  0  0  0  0  0
    9.8675   -0.1277   18.0707 H   0  0  0  0  0  0  0  0  0  0  0  0
    8.5347    0.7222   17.3128 H   0  0  0  0  0  0  0  0  0  0  0  0
  1  2  1  0  0  0  0
  1  4  1  0  0  0  0
  1  7  1  0  0  0  0
  1  8  2  0  0  0  0
  2 27  1  0  0  0  0
  3 38  1  0  0  0  0
  3 40  1  0  0  0  0
  4 46  1  0  0  0  0
  5 47  1  0  0  0  0
  5 51  1  0  0  0  0
  6 38  2  0  0  0  0
  9 51  2  0  0  0  0
 10 21  1  0  0  0  0
 10 24  1  0  0  0  0
 10 25  1  0  0  0  0
 10 26  1  0  0  0  0
 11 12  1  0  0  0  0
 11 13  1  0  0  0  0
 11 53  1  0  0  0  0
 11 54  1  0  0  0  0
 12 14  1  0  0  0  0
 12 55  1  0  0  0  0
 12 56  1  0  0  0  0
 13 15  1  0  0  0  0
 13 57  1  0  0  0  0
 13 58  1  0  0  0  0
 14 16  1  0  0  0  0
 14 59  1  0  0  0  0
 14 60  1  0  0  0  0
 15 17  1  0  0  0  0
 15 61  1  0  0  0  0
 15 62  1  0  0  0  0
 16 18  1  0  0  0  0
 16 63  1  0  0  0  0
 16 64  1  0  0  0  0
 17 19  1  0  0  0  0
 17 65  1  0  0  0  0
 17 66  1  0  0  0  0
 18 20  1  0  0  0  0
 18 67  1  0  0  0  0
 18 68  1  0  0  0  0
 19 22  1  0  0  0  0
 19 69  1  0  0  0  0
 19 70  1  0  0  0  0
 20 23  1  0  0  0  0
 20 71  1  0  0  0  0
 20 72  1  0  0  0  0
 21 27  1  0  0  0  0
 21 73  1  0  0  0  0
 21 74  1  0  0  0  0
 22 28  1  0  0  0  0
 22 75  1  0  0  0  0
 22 76  1  0  0  0  0
 23 29  1  0  0  0  0
 23 77  1  0  0  0  0
 23 78  1  0  0  0  0
 24 79  1  0  0  0  0
 24 80  1  0  0  0  0
 24 81  1  0  0  0  0
 25 82  1  0  0  0  0
 25 83  1  0  0  0  0
 25 84  1  0  0  0  0
 26 85  1  0  0  0  0
 26 86  1  0  0  0  0
 26 87  1  0  0  0  0
 27 88  1  0  0  0  0
 27 89  1  0  0  0  0
 28 38  1  0  0  0  0
 28 90  1  0  0  0  0
 28 91  1  0  0  0  0
 29 41  1  0  0  0  0
 29 92  1  0  0  0  0
 29 93  1  0  0  0  0
 30 31  1  0  0  0  0
 30 32  1  0  0  0  0
 30 94  1  0  0  0  0
 30 95  1  0  0  0  0
 31 35  1  0  0  0  0
 31 96  1  0  0  0  0
 31 97  1  0  0  0  0
 32 39  1  0  0  0  0
 32 98  1  0  0  0  0
 32 99  1  0  0  0  0
 33 34  1  0  0  0  0
 33 36  1  0  0  0  0
 33100  1  0  0  0  0
 33101  1  0  0  0  0
 34 37  1  0  0  0  0
 34102  1  0  0  0  0
 34103  1  0  0  0  0
 35 42  1  0  0  0  0
 35104  1  0  0  0  0
 35105  1  0  0  0  0
 36 43  1  0  0  0  0
 36106  1  0  0  0  0
 36107  1  0  0  0  0
 37 44  1  0  0  0  0
 37108  1  0  0  0  0
 37109  1  0  0  0  0
 39 45  1  0  0  0  0
 39110  1  0  0  0  0
 39111  1  0  0  0  0
 40 46  1  0  0  0  0
 40 47  1  0  0  0  0
 40112  1  0  0  0  0
 41113  1  0  0  0  0
 41114  1  0  0  0  0
 41115  1  0  0  0  0
 42 48  1  0  0  0  0
 42116  1  0  0  0  0
 42117  1  0  0  0  0
 43 49  1  0  0  0  0
 43118  1  0  0  0  0
 43119  1  0  0  0  0
 44 50  1  0  0  0  0
 44120  1  0  0  0  0
 44121  1  0  0  0  0
 45 51  1  0  0  0  0
 45122  1  0  0  0  0
 45123  1  0  0  0  0
 46124  1  0  0  0  0
 46125  1  0  0  0  0
 47126  1  0  0  0  0
 47127  1  0  0  0  0
 48 50  2  0  0  0  0
 48128  1  0  0  0  0
 49 52  1  0  0  0  0
 49129  1  0  0  0  0
 49130  1  0  0  0  0
 50131  1  0  0  0  0
 52132  1  0  0  0  0
 52133  1  0  0  0  0
 52134  1  0  0  0  0
M  CHG  2   7  -1  10   1
M  END
>  <DRUGBANK_ID>
DB05456

>  <COMMON_NAME>
ETC-588

$$$$
