658
 OpenBabel10282417103D

 21 20  0  0  1  0  0  0  0  0999 V2000
    1.9240   -1.7697    1.0002 Cl  0  0  0  0  0  0  0  0  0  0  0  0
    2.7891    0.0729    2.7657 O   0  0  0  0  0  0  0  0  0  0  0  0
    0.3596    0.4964   -0.3614 N   0  0  0  0  0  0  0  0  0  0  0  0
    3.6502    0.1445    1.6061 C   0  0  3  0  0  0  0  0  0  0  0  0
    3.0051    1.3751    2.2464 C   0  0  0  0  0  0  0  0  0  0  0  0
    3.1465   -0.5958    0.4174 C   0  0  0  0  0  0  0  0  0  0  0  0
    0.2419   -0.2770   -1.5900 C   0  0  0  0  0  0  0  0  0  0  0  0
    0.8102   -1.6773   -1.6957 C   0  0  0  0  0  0  0  0  0  0  0  0
    0.0826   -2.7872   -1.7009 C   0  0  0  0  0  0  0  0  0  0  0  0
    0.1347   -0.0659    0.4607 H   0  0  0  0  0  0  0  0  0  0  0  0
    1.2859    0.8664   -0.2058 H   0  0  0  0  0  0  0  0  0  0  0  0
    4.6959   -0.0599    1.7607 H   0  0  0  0  0  0  0  0  0  0  0  0
    2.1546    1.8798    1.8035 H   0  0  0  0  0  0  0  0  0  0  0  0
    3.5868    2.0035    2.9084 H   0  0  0  0  0  0  0  0  0  0  0  0
    3.8956   -1.2141   -0.0824 H   0  0  0  0  0  0  0  0  0  0  0  0
    2.8585    0.1001   -0.3846 H   0  0  0  0  0  0  0  0  0  0  0  0
   -0.8305   -0.3456   -1.7617 H   0  0  0  0  0  0  0  0  0  0  0  0
    0.6891    0.3084   -2.3957 H   0  0  0  0  0  0  0  0  0  0  0  0
    1.8946   -1.7994   -1.8007 H   0  0  0  0  0  0  0  0  0  0  0  0
    0.5370   -3.7803   -1.7654 H   0  0  0  0  0  0  0  0  0  0  0  0
   -1.0020   -2.7557   -1.5998 H   0  0  0  0  0  0  0  0  0  0  0  0
  1  6  1  0  0  0  0
  2  4  1  0  0  0  0
  2  5  1  0  0  0  0
  3  7  1  0  0  0  0
  3 10  1  0  0  0  0
  3 11  1  0  0  0  0
  4  5  1  0  0  0  0
  4  6  1  0  0  0  0
  4 12  1  0  0  0  0
  5 13  1  0  0  0  0
  5 14  1  0  0  0  0
  6 15  1  0  0  0  0
  6 16  1  0  0  0  0
  7  8  1  0  0  0  0
  7 17  1  0  0  0  0
  7 18  1  0  0  0  0
  8  9  2  0  0  0  0
  8 19  1  0  0  0  0
  9 20  1  0  0  0  0
  9 21  1  0  0  0  0
M  END
>  <DRUGBANK_ID>
DB00658

>  <SECONDARY_ACCESSION_NUMBERS>
APRD01226

>  <COMMON_NAME>
Sevelamer

>  <CAS_NUMBER>
52757-95-6

>  <UNII>
941N5DUU5C

>  <SYNONYMS>
Sevelamer; Sévélamer; Sevelamero; Sevelamerum

$$$$
