
 OpenBabel10282417193D

 49 53  0  0  0  0  0  0  0  0999 V2000
    1.3165    1.8811    4.5484 C   0  0  0  0  0  0  0  0  0  0  0  0
    0.9668    0.6114    5.0252 C   0  0  0  0  0  0  0  0  0  0  0  0
   -0.3842    0.3052    5.2375 C   0  0  0  0  0  0  0  0  0  0  0  0
   -1.3641    1.2684    5.0029 C   0  0  0  0  0  0  0  0  0  0  0  0
   -1.0074    2.5457    4.5757 C   0  0  0  0  0  0  0  0  0  0  0  0
    0.3326    2.8497    4.3334 C   0  0  0  0  0  0  0  0  0  0  0  0
   -2.6534    1.0237    5.2767 F   0  0  0  0  0  0  0  0  0  0  0  0
   -0.7714   -0.9676    5.6968 N   0  0  0  0  0  0  0  0  0  0  0  0
   -1.6798   -1.7011    5.0308 N   0  0  0  0  0  0  0  0  0  0  0  0
   -1.7630   -2.8713    5.6677 C   0  0  0  0  0  0  0  0  0  0  0  0
   -0.9541   -2.8444    6.8314 C   0  0  0  0  0  0  0  0  0  0  0  0
   -0.2980   -1.6317    6.7994 C   0  0  0  0  0  0  0  0  0  0  0  0
   -2.5323   -3.9576    5.2485 N   0  0  0  0  0  0  0  0  0  0  0  0
   -3.2544   -4.1213    4.0672 C   0  0  0  0  0  0  0  0  0  0  0  0
   -3.9004   -5.1597    3.9006 O   0  0  0  0  0  0  0  0  0  0  0  0
   -3.3226   -2.9638    3.0462 C   0  0  1  0  0  0  0  0  0  0  0  0
   -2.8059   -2.1340    1.8651 C   0  0  0  0  0  0  0  0  0  0  0  0
   -3.8107   -2.0855    0.7145 C   0  0  0  0  0  0  0  0  0  0  0  0
   -5.2069   -1.5625    1.1342 C   0  0  1  0  0  0  0  0  0  0  0  0
   -5.0919   -0.1177    1.2993 O   0  0  0  0  0  0  0  0  0  0  0  0
   -5.6699    0.5538    0.2604 C   0  0  0  0  0  0  0  0  0  0  0  0
   -5.4277    1.6923   -0.1164 O   0  0  0  0  0  0  0  0  0  0  0  0
   -6.5596   -0.3806   -0.3921 C   0  0  0  0  0  0  0  0  0  0  0  0
   -6.2219   -1.6441    0.0400 C   0  0  0  0  0  0  0  0  0  0  0  0
   -6.8005   -2.6887   -0.6343 C   0  0  0  0  0  0  0  0  0  0  0  0
   -7.7080   -2.5061   -1.6338 N   0  0  0  0  0  0  0  0  0  0  0  0
   -8.0532   -1.2348   -1.9698 C   0  0  0  0  0  0  0  0  0  0  0  0
   -7.5020   -0.1212   -1.3748 C   0  0  0  0  0  0  0  0  0  0  0  0
   -5.6369   -2.2268    2.4721 C   0  0  0  0  0  0  0  0  0  0  0  0
   -4.5125   -2.1280    3.5422 C   0  0  0  0  0  0  0  0  0  0  0  0
    2.3572    2.1192    4.3355 H   0  0  0  0  0  0  0  0  0  0  0  0
    1.7452   -0.1349    5.1639 H   0  0  0  0  0  0  0  0  0  0  0  0
   -1.7780    3.2990    4.4411 H   0  0  0  0  0  0  0  0  0  0  0  0
    0.6081    3.8404    3.9771 H   0  0  0  0  0  0  0  0  0  0  0  0
   -0.8418   -3.6037    7.5918 H   0  0  0  0  0  0  0  0  0  0  0  0
    0.3920   -1.1588    7.4839 H   0  0  0  0  0  0  0  0  0  0  0  0
   -2.5583   -4.7586    5.8637 H   0  0  0  0  0  0  0  0  0  0  0  0
   -2.2760   -2.8760    3.3319 H   0  0  0  0  0  0  0  0  0  0  0  0
   -2.6247   -1.1138    2.2676 H   0  0  0  0  0  0  0  0  0  0  0  0
   -1.8184   -2.4162    1.4777 H   0  0  0  0  0  0  0  0  0  0  0  0
   -3.9066   -3.0974    0.3118 H   0  0  0  0  0  0  0  0  0  0  0  0
   -3.3623   -1.4654   -0.0726 H   0  0  0  0  0  0  0  0  0  0  0  0
   -6.5460   -3.7241   -0.4359 H   0  0  0  0  0  0  0  0  0  0  0  0
   -8.7840   -1.1431   -2.7719 H   0  0  0  0  0  0  0  0  0  0  0  0
   -7.7707    0.8840   -1.6765 H   0  0  0  0  0  0  0  0  0  0  0  0
   -6.5610   -1.8049    2.8896 H   0  0  0  0  0  0  0  0  0  0  0  0
   -5.8633   -3.2851    2.2721 H   0  0  0  0  0  0  0  0  0  0  0  0
   -4.8988   -2.4399    4.5202 H   0  0  0  0  0  0  0  0  0  0  0  0
   -4.2114   -1.0830    3.6792 H   0  0  0  0  0  0  0  0  0  0  0  0
  1  2  2  0  0  0  0
  1  6  1  0  0  0  0
  1 31  1  0  0  0  0
  2  3  1  0  0  0  0
  2 32  1  0  0  0  0
  3  4  2  0  0  0  0
  3  8  1  0  0  0  0
  4  5  1  0  0  0  0
  4  7  1  0  0  0  0
  5  6  2  0  0  0  0
  5 33  1  0  0  0  0
  6 34  1  0  0  0  0
  8  9  1  0  0  0  0
  8 12  1  0  0  0  0
  9 10  2  0  0  0  0
 10 11  1  0  0  0  0
 10 13  1  0  0  0  0
 11 12  2  0  0  0  0
 11 35  1  0  0  0  0
 12 36  1  0  0  0  0
 13 14  1  0  0  0  0
 13 37  1  0  0  0  0
 14 15  2  0  0  0  0
 16 17  1  0  0  0  0
 16 30  1  0  0  0  0
 16 14  1  0  0  0  0
 16 38  1  1  0  0  0
 17 18  1  0  0  0  0
 17 39  1  0  0  0  0
 17 40  1  0  0  0  0
 18 19  1  0  0  0  0
 18 41  1  0  0  0  0
 18 42  1  0  0  0  0
 19 20  1  1  0  0  0
 19 24  1  0  0  0  0
 19 29  1  0  0  0  0
 20 21  1  0  0  0  0
 21 23  1  0  0  0  0
 21 22  2  0  0  0  0
 23 24  2  0  0  0  0
 23 28  1  0  0  0  0
 24 25  1  0  0  0  0
 25 26  2  0  0  0  0
 25 43  1  0  0  0  0
 26 27  1  0  0  0  0
 27 28  2  0  0  0  0
 27 44  1  0  0  0  0
 28 45  1  0  0  0  0
 29 30  1  0  0  0  0
 29 46  1  0  0  0  0
 29 47  1  0  0  0  0
 30 48  1  0  0  0  0
 30 49  1  0  0  0  0
M  END
>  <DRUGBANK_ID>
DB12168

>  <COMMON_NAME>
MK-0557

>  <CAS_NUMBER>
328232-95-7

>  <UNII>
HVE36P8422

$$$$
