
 OpenBabel10282417163D

 55 59  0  0  0  0  0  0  0  0999 V2000
    0.9759    0.0029   -0.0021 C   0  0  0  0  0  0  0  0  0  0  0  0
    0.3767    1.0767   -0.0768 O   0  0  0  0  0  0  0  0  0  0  0  0
   -0.6543   -1.6410   -0.9207 O   0  0  0  0  0  0  0  0  0  0  0  0
    0.2627   -1.2715    0.0567 C   0  0  0  0  0  0  0  0  0  0  0  0
    0.2907   -2.2515    1.0334 C   0  0  0  0  0  0  0  0  0  0  0  0
   -0.5837   -3.2814    0.6188 C   0  0  0  0  0  0  0  0  0  0  0  0
   -1.1544   -2.8754   -0.5689 C   0  0  0  0  0  0  0  0  0  0  0  0
   -2.1240   -3.5478   -1.3893 C   0  0  0  0  0  0  0  0  0  0  0  0
   -2.9370   -4.2155   -2.0131 C   0  0  0  0  0  0  0  0  0  0  0  0
   -3.8588   -5.0350   -2.7847 C   0  0  0  0  0  0  0  0  0  0  0  0
   -3.8095   -6.4383   -2.7446 C   0  0  0  0  0  0  0  0  0  0  0  0
   -4.5389   -7.2166   -3.6643 C   0  0  0  0  0  0  0  0  0  0  0  0
   -5.4339   -6.6131   -4.5423 C   0  0  0  0  0  0  0  0  0  0  0  0
   -5.6177   -5.2352   -4.4760 C   0  0  0  0  0  0  0  0  0  0  0  0
   -4.7974   -4.4485   -3.6458 C   0  0  0  0  0  0  0  0  0  0  0  0
    7.4939    0.0129    1.5471 O   0  0  0  0  0  0  0  0  0  0  0  0
    6.2260    0.3815    2.1791 C   0  0  0  0  0  0  0  0  0  0  0  0
    5.0828    0.1653    1.1643 C   0  0  0  0  0  0  0  0  0  0  0  0
    5.9082    0.1514   -0.0805 C   0  0  0  0  0  0  0  0  0  0  0  0
    7.2486    0.1480    0.1994 C   0  0  0  0  0  0  0  0  0  0  0  0
    5.4707    0.1538   -1.3960 C   0  0  0  0  0  0  0  0  0  0  0  0
    6.3131    0.4072   -2.4528 C   0  0  0  0  0  0  0  0  0  0  0  0
    7.6766    0.4435   -2.1736 C   0  0  0  0  0  0  0  0  0  0  0  0
    8.1565    0.2427   -0.8503 C   0  0  0  0  0  0  0  0  0  0  0  0
    2.3832   -0.0109    0.1241 N   0  0  0  0  0  0  0  0  0  0  0  0
    3.2115   -1.2399    0.1913 C   0  0  0  0  0  0  0  0  0  0  0  0
    4.2764   -1.1403    1.2972 C   0  0  0  0  0  0  0  0  0  0  0  0
    4.1210    1.3634    1.2261 C   0  0  0  0  0  0  0  0  0  0  0  0
    3.0845    1.2922    0.1146 C   0  0  0  0  0  0  0  0  0  0  0  0
    5.6623    0.6690   -3.7865 C   0  0  0  0  0  0  0  0  0  0  0  0
    5.9308    2.0252   -4.2414 N   0  0  0  0  0  0  0  0  0  0  0  0
    0.8955   -2.2159    1.9306 H   0  0  0  0  0  0  0  0  0  0  0  0
   -0.7826   -4.2054    1.1388 H   0  0  0  0  0  0  0  0  0  0  0  0
   -3.1932   -6.9526   -2.0124 H   0  0  0  0  0  0  0  0  0  0  0  0
   -4.4070   -8.2967   -3.7015 H   0  0  0  0  0  0  0  0  0  0  0  0
   -5.9891   -7.2112   -5.2638 H   0  0  0  0  0  0  0  0  0  0  0  0
   -6.3869   -4.7705   -5.0897 H   0  0  0  0  0  0  0  0  0  0  0  0
   -4.8968   -3.3676   -3.6946 H   0  0  0  0  0  0  0  0  0  0  0  0
    6.3381    1.4417    2.4566 H   0  0  0  0  0  0  0  0  0  0  0  0
    6.0458   -0.1437    3.1285 H   0  0  0  0  0  0  0  0  0  0  0  0
    4.4367    0.0188   -1.6624 H   0  0  0  0  0  0  0  0  0  0  0  0
    8.3589    0.6298   -2.9988 H   0  0  0  0  0  0  0  0  0  0  0  0
    9.2271    0.1958   -0.6877 H   0  0  0  0  0  0  0  0  0  0  0  0
    3.6720   -1.4336   -0.7791 H   0  0  0  0  0  0  0  0  0  0  0  0
    2.6182   -2.1410    0.3173 H   0  0  0  0  0  0  0  0  0  0  0  0
    4.9288   -2.0217    1.2633 H   0  0  0  0  0  0  0  0  0  0  0  0
    3.7563   -1.1632    2.2637 H   0  0  0  0  0  0  0  0  0  0  0  0
    3.6016    1.3718    2.1936 H   0  0  0  0  0  0  0  0  0  0  0  0
    4.6759    2.3084    1.1544 H   0  0  0  0  0  0  0  0  0  0  0  0
    3.5570    1.4582   -0.8540 H   0  0  0  0  0  0  0  0  0  0  0  0
    2.4073    2.1462    0.1797 H   0  0  0  0  0  0  0  0  0  0  0  0
    5.9821   -0.0775   -4.5158 H   0  0  0  0  0  0  0  0  0  0  0  0
    4.5669    0.5641   -3.7055 H   0  0  0  0  0  0  0  0  0  0  0  0
    5.4201    2.1930   -5.1057 H   0  0  0  0  0  0  0  0  0  0  0  0
    5.5493    2.6807   -3.5581 H   0  0  0  0  0  0  0  0  0  0  0  0
  1  2  2  0  0  0  0
  1  4  1  0  0  0  0
  1 25  1  0  0  0  0
  3  4  1  0  0  0  0
  3  7  1  0  0  0  0
  4  5  2  0  0  0  0
  5  6  1  0  0  0  0
  5 32  1  0  0  0  0
  6  7  2  0  0  0  0
  6 33  1  0  0  0  0
  7  8  1  0  0  0  0
  8  9  3  0  0  0  0
  9 10  1  0  0  0  0
 10 11  1  0  0  0  0
 10 15  2  0  0  0  0
 11 12  2  0  0  0  0
 11 34  1  0  0  0  0
 12 13  1  0  0  0  0
 12 35  1  0  0  0  0
 13 14  2  0  0  0  0
 13 36  1  0  0  0  0
 14 15  1  0  0  0  0
 14 37  1  0  0  0  0
 15 38  1  0  0  0  0
 16 17  1  0  0  0  0
 16 20  1  0  0  0  0
 17 18  1  0  0  0  0
 17 39  1  0  0  0  0
 17 40  1  0  0  0  0
 18 19  1  0  0  0  0
 19 20  1  0  0  0  0
 21 22  1  0  0  0  0
 21 19  2  0  0  0  0
 21 41  1  0  0  0  0
 22 23  2  0  0  0  0
 22 30  1  0  0  0  0
 23 24  1  0  0  0  0
 23 42  1  0  0  0  0
 24 20  2  0  0  0  0
 24 43  1  0  0  0  0
 25 26  1  0  0  0  0
 25 29  1  0  0  0  0
 26 27  1  0  0  0  0
 26 44  1  0  0  0  0
 26 45  1  0  0  0  0
 27 18  1  0  0  0  0
 27 46  1  0  0  0  0
 27 47  1  0  0  0  0
 28 29  1  0  0  0  0
 28 18  1  0  0  0  0
 28 48  1  0  0  0  0
 28 49  1  0  0  0  0
 29 50  1  0  0  0  0
 29 51  1  0  0  0  0
 30 31  1  0  0  0  0
 30 52  1  0  0  0  0
 30 53  1  0  0  0  0
 31 54  1  0  0  0  0
 31 55  1  0  0  0  0
M  END
>  <DRUGBANK_ID>
DB06962

>  <COMMON_NAME>
JNJ-27390467

>  <CAS_NUMBER>
1025795-11-2

>  <UNII>
B700BD3K5Y

$$$$
