P2C
 OpenBabel10282417143D

 30 31  0  0  0  0  0  0  0  0999 V2000
   -2.8321    0.6464    0.0023 Cl  0  0  0  0  0  0  0  0  0  0  0  0
   -1.2359   -0.0259   -0.0022 C   0  0  0  0  0  0  0  0  0  0  0  0
   -0.0443    0.7176   -0.0054 C   0  0  0  0  0  0  0  0  0  0  0  0
    0.1344    2.0800    0.0028 O   0  0  0  0  0  0  0  0  0  0  0  0
   -1.1166    2.7824   -0.0209 O   0  0  0  0  0  0  0  0  0  0  0  0
   -0.8829    4.2101   -0.0094 O   0  0  0  0  0  0  0  0  0  0  0  0
    1.1671    0.0101   -0.0132 C   0  0  0  0  0  0  0  0  0  0  0  0
    2.7046    0.8125   -0.0033 Cl  0  0  0  0  0  0  0  0  0  0  0  0
    1.1920   -1.3803   -0.0204 C   0  0  0  0  0  0  0  0  0  0  0  0
   -1.1967   -1.4349    0.0052 C   0  0  0  0  0  0  0  0  0  0  0  0
    0.0147   -2.1270   -0.0093 C   0  0  0  0  0  0  0  0  0  0  0  0
    0.0313   -3.5316    0.0906 N   0  0  0  0  0  0  0  0  0  0  0  0
    1.1815   -4.3499    0.0433 C   0  0  0  0  0  0  0  0  0  0  0  0
    2.1059   -4.2060    1.0980 C   0  0  0  0  0  0  0  0  0  0  0  0
    3.2779   -4.9488    1.1531 C   0  0  0  0  0  0  0  0  0  0  0  0
    3.5335   -5.8853    0.1621 C   0  0  0  0  0  0  0  0  0  0  0  0
    2.6360   -6.0425   -0.9011 C   0  0  0  0  0  0  0  0  0  0  0  0
    1.4912   -5.2270   -1.0140 C   0  0  0  0  0  0  0  0  0  0  0  0
    0.7491   -5.2872   -2.3092 C   0  0  0  0  0  0  0  0  0  0  0  0
    1.0418   -6.0081   -3.2551 O   0  0  0  0  0  0  0  0  0  0  0  0
   -0.2743   -4.4196   -2.4134 O   0  0  0  0  0  0  0  0  0  0  0  0
   -1.8215    4.4590   -0.0195 H   0  0  0  0  0  0  0  0  0  0  0  0
    2.1586   -1.8744   -0.0408 H   0  0  0  0  0  0  0  0  0  0  0  0
   -2.1302   -1.9961    0.0180 H   0  0  0  0  0  0  0  0  0  0  0  0
   -0.8070   -3.9968   -0.2499 H   0  0  0  0  0  0  0  0  0  0  0  0
    1.9031   -3.4812    1.8848 H   0  0  0  0  0  0  0  0  0  0  0  0
    3.9698   -4.8004    1.9779 H   0  0  0  0  0  0  0  0  0  0  0  0
    4.4433   -6.4789    0.2074 H   0  0  0  0  0  0  0  0  0  0  0  0
    2.8483   -6.8011   -1.6534 H   0  0  0  0  0  0  0  0  0  0  0  0
   -0.5867   -4.4944   -3.3410 H   0  0  0  0  0  0  0  0  0  0  0  0
  1  2  1  0  0  0  0
  2  3  2  0  0  0  0
  2 10  1  0  0  0  0
  3  4  1  0  0  0  0
  3  7  1  0  0  0  0
  4  5  1  0  0  0  0
  5  6  1  0  0  0  0
  6 22  1  0  0  0  0
  7  8  1  0  0  0  0
  7  9  2  0  0  0  0
  9 11  1  0  0  0  0
  9 23  1  0  0  0  0
 10 11  2  0  0  0  0
 10 24  1  0  0  0  0
 11 12  1  0  0  0  0
 12 13  1  0  0  0  0
 12 25  1  0  0  0  0
 13 14  2  0  0  0  0
 13 18  1  0  0  0  0
 14 15  1  0  0  0  0
 14 26  1  0  0  0  0
 15 16  2  0  0  0  0
 15 27  1  0  0  0  0
 16 17  1  0  0  0  0
 16 28  1  0  0  0  0
 17 18  2  0  0  0  0
 17 29  1  0  0  0  0
 18 19  1  0  0  0  0
 19 20  2  0  0  0  0
 19 21  1  0  0  0  0
 21 30  1  0  0  0  0
M  END
>  <DRUGBANK_ID>
DB04756

>  <COMMON_NAME>
2-[(3,5-Dichloro-4-trioxidanylphenyl)amino]benzoic acid

$$$$
