
 OpenBabel10282417223D

 96 97  0  0  0  0  0  0  0  0999 V2000
   -3.1043  -34.4639   22.1378 C   0  0  0  0  0  0  0  0  0  0  0  0
   -3.1527  -34.0510   20.7177 C   0  0  0  0  0  0  0  0  0  0  0  0
  -10.8819  -22.2233    5.1604 C   0  0  0  0  0  0  0  0  0  0  0  0
  -10.8516  -21.8699    3.6844 C   0  0  1  0  0  0  0  0  0  0  0  0
   -2.2309  -35.4253   22.5595 C   0  0  0  0  0  0  0  0  0  0  0  0
   -9.5994  -22.4572    3.0325 C   0  0  0  0  0  0  0  0  0  0  0  0
   -4.0584  -33.7667   23.1485 C   0  0  0  0  0  0  0  0  0  0  0  0
   -3.9925  -33.1921   20.1066 C   0  0  0  0  0  0  0  0  0  0  0  0
  -10.2579  -23.2930    5.6942 C   0  0  0  0  0  0  0  0  0  0  0  0
  -12.2242  -22.2516    3.0116 C   0  0  0  0  0  0  0  0  0  0  0  0
   -4.8852  -31.3169   16.9202 C   0  0  0  0  0  0  0  0  0  0  0  0
   -9.0876  -24.9758    8.8550 C   0  0  0  0  0  0  0  0  0  0  0  0
   -3.9645  -32.7680   18.7068 C   0  0  0  0  0  0  0  0  0  0  0  0
  -10.1168  -23.6254    7.0899 C   0  0  0  0  0  0  0  0  0  0  0  0
   -5.6915  -29.9994   14.9833 C   0  0  0  0  0  0  0  0  0  0  0  0
   -8.2854  -26.2864   10.7996 C   0  0  0  0  0  0  0  0  0  0  0  0
   -9.2160  -24.5627    7.4757 C   0  0  0  0  0  0  0  0  0  0  0  0
   -4.8025  -31.7874   18.2874 C   0  0  0  0  0  0  0  0  0  0  0  0
   -8.2840  -25.9171    9.3778 C   0  0  0  0  0  0  0  0  0  0  0  0
   -5.6939  -30.3683   16.4127 C   0  0  0  0  0  0  0  0  0  0  0  0
   -7.4588  -27.2498   11.2689 C   0  0  0  0  0  0  0  0  0  0  0  0
   -6.5232  -29.0418   14.5132 C   0  0  0  0  0  0  0  0  0  0  0  0
   -9.6794  -23.2362    1.9394 C   0  0  0  0  0  0  0  0  0  0  0  0
   -7.4161  -27.6616   12.6659 C   0  0  0  0  0  0  0  0  0  0  0  0
   -6.5894  -28.6153   13.1257 C   0  0  0  0  0  0  0  0  0  0  0  0
  -10.9425  -23.4342    1.1516 C   0  0  0  0  0  0  0  0  0  0  0  0
   -2.2056  -35.9644   23.9844 C   0  0  0  0  0  0  0  0  0  0  0  0
   -3.7002  -34.1089   24.6264 C   0  0  0  0  0  0  0  0  0  0  0  0
  -12.0188  -22.3977    1.4884 C   0  0  0  0  0  0  0  0  0  0  0  0
   -1.1566  -36.0999   21.7301 C   0  0  0  0  0  0  0  0  0  0  0  0
   -8.2747  -22.1460    3.7146 C   0  0  0  0  0  0  0  0  0  0  0  0
   -3.9553  -32.2171   23.1107 C   0  0  0  0  0  0  0  0  0  0  0  0
   -5.5078  -34.2416   22.8905 C   0  0  0  0  0  0  0  0  0  0  0  0
   -3.4054  -35.5784   24.8304 C   0  0  0  0  0  0  0  0  0  0  0  0
  -12.8017  -23.5713    3.5824 C   0  0  0  0  0  0  0  0  0  0  0  0
  -13.2690  -21.1384    3.2626 C   0  0  0  0  0  0  0  0  0  0  0  0
   -2.9785  -33.4882   17.8219 C   0  0  0  0  0  0  0  0  0  0  0  0
  -10.9964  -22.8935    8.0654 C   0  0  0  0  0  0  0  0  0  0  0  0
   -9.2254  -25.5993   11.7663 C   0  0  0  0  0  0  0  0  0  0  0  0
   -4.7246  -30.7421   14.0829 C   0  0  0  0  0  0  0  0  0  0  0  0
   -2.4108  -34.5162   20.0825 H   0  0  0  0  0  0  0  0  0  0  0  0
  -11.4573  -21.5264    5.7566 H   0  0  0  0  0  0  0  0  0  0  0  0
  -10.7321  -20.7781    3.6048 H   0  0  0  0  0  0  0  0  0  0  0  0
   -4.7998  -32.7328   20.6578 H   0  0  0  0  0  0  0  0  0  0  0  0
   -9.7322  -23.9775    5.0253 H   0  0  0  0  0  0  0  0  0  0  0  0
   -4.2152  -31.8093   16.2334 H   0  0  0  0  0  0  0  0  0  0  0  0
   -9.7636  -24.4517    9.5103 H   0  0  0  0  0  0  0  0  0  0  0  0
   -8.5634  -25.0505    6.7521 H   0  0  0  0  0  0  0  0  0  0  0  0
   -5.4732  -31.3036   18.9979 H   0  0  0  0  0  0  0  0  0  0  0  0
   -7.6014  -26.4522    8.7198 H   0  0  0  0  0  0  0  0  0  0  0  0
   -6.3866  -29.8492   17.0718 H   0  0  0  0  0  0  0  0  0  0  0  0
   -6.7792  -27.7593   10.5870 H   0  0  0  0  0  0  0  0  0  0  0  0
   -7.1999  -28.5403   15.2046 H   0  0  0  0  0  0  0  0  0  0  0  0
   -8.7915  -23.7413    1.5690 H   0  0  0  0  0  0  0  0  0  0  0  0
   -8.0794  -27.1774   13.3728 H   0  0  0  0  0  0  0  0  0  0  0  0
   -5.9388  -29.0811   12.3997 H   0  0  0  0  0  0  0  0  0  0  0  0
  -10.7056  -23.3538    0.0849 H   0  0  0  0  0  0  0  0  0  0  0  0
  -11.3231  -24.4488    1.3133 H   0  0  0  0  0  0  0  0  0  0  0  0
   -2.1462  -37.0604   23.9707 H   0  0  0  0  0  0  0  0  0  0  0  0
   -1.2898  -35.6067   24.4738 H   0  0  0  0  0  0  0  0  0  0  0  0
   -2.8139  -33.5378   24.9394 H   0  0  0  0  0  0  0  0  0  0  0  0
   -4.5126  -33.7993   25.2957 H   0  0  0  0  0  0  0  0  0  0  0  0
  -11.7249  -21.4278    1.0625 H   0  0  0  0  0  0  0  0  0  0  0  0
  -12.9596  -22.6746    0.9949 H   0  0  0  0  0  0  0  0  0  0  0  0
   -0.1738  -35.8870   22.1666 H   0  0  0  0  0  0  0  0  0  0  0  0
   -1.3030  -37.1852   21.7264 H   0  0  0  0  0  0  0  0  0  0  0  0
   -1.1031  -35.7864   20.6892 H   0  0  0  0  0  0  0  0  0  0  0  0
   -8.0668  -21.0743    3.6621 H   0  0  0  0  0  0  0  0  0  0  0  0
   -8.2504  -22.3932    4.7795 H   0  0  0  0  0  0  0  0  0  0  0  0
   -7.4468  -22.7092    3.2790 H   0  0  0  0  0  0  0  0  0  0  0  0
   -4.2282  -31.7450   22.1704 H   0  0  0  0  0  0  0  0  0  0  0  0
   -4.6188  -31.7680   23.8573 H   0  0  0  0  0  0  0  0  0  0  0  0
   -2.9295  -31.8917   23.3218 H   0  0  0  0  0  0  0  0  0  0  0  0
   -6.2065  -33.7738   23.5911 H   0  0  0  0  0  0  0  0  0  0  0  0
   -5.8676  -34.0102   21.8860 H   0  0  0  0  0  0  0  0  0  0  0  0
   -5.6003  -35.3283   22.9998 H   0  0  0  0  0  0  0  0  0  0  0  0
   -3.1940  -35.7745   25.8882 H   0  0  0  0  0  0  0  0  0  0  0  0
   -4.2724  -36.1938   24.5677 H   0  0  0  0  0  0  0  0  0  0  0  0
  -13.0346  -23.4805    4.6498 H   0  0  0  0  0  0  0  0  0  0  0  0
  -13.7363  -23.8494    3.0861 H   0  0  0  0  0  0  0  0  0  0  0  0
  -12.0974  -24.4018    3.4722 H   0  0  0  0  0  0  0  0  0  0  0  0
  -14.2370  -21.3950    2.8154 H   0  0  0  0  0  0  0  0  0  0  0  0
  -13.4355  -20.9734    4.3325 H   0  0  0  0  0  0  0  0  0  0  0  0
  -12.9505  -20.1850    2.8252 H   0  0  0  0  0  0  0  0  0  0  0  0
   -1.9551  -33.3090   18.1682 H   0  0  0  0  0  0  0  0  0  0  0  0
   -3.1858  -34.5632   17.8296 H   0  0  0  0  0  0  0  0  0  0  0  0
   -2.9992  -33.1852   16.7766 H   0  0  0  0  0  0  0  0  0  0  0  0
  -11.6782  -23.6026    8.5417 H   0  0  0  0  0  0  0  0  0  0  0  0
  -10.3829  -22.3843    8.8151 H   0  0  0  0  0  0  0  0  0  0  0  0
  -11.6257  -22.1227    7.6223 H   0  0  0  0  0  0  0  0  0  0  0  0
   -9.8943  -26.3376   12.2227 H   0  0  0  0  0  0  0  0  0  0  0  0
   -8.6480  -25.0954   12.5491 H   0  0  0  0  0  0  0  0  0  0  0  0
   -9.8759  -24.8376   11.3440 H   0  0  0  0  0  0  0  0  0  0  0  0
   -3.6927  -30.5733   14.4082 H   0  0  0  0  0  0  0  0  0  0  0  0
   -4.9457  -31.8148   14.0858 H   0  0  0  0  0  0  0  0  0  0  0  0
   -4.7515  -30.4433   13.0363 H   0  0  0  0  0  0  0  0  0  0  0  0
  2  1  1  0  0  0  0
  2 41  1  0  0  0  0
  3  9  2  0  0  0  0
  3 42  1  0  0  0  0
  4 43  1  6  0  0  0
  4  3  1  0  0  0  0
  5  1  2  0  0  0  0
  6  4  1  0  0  0  0
  7  1  1  0  0  0  0
  8  2  2  0  0  0  0
  8 44  1  0  0  0  0
  9 14  1  0  0  0  0
  9 45  1  0  0  0  0
 10  4  1  0  0  0  0
 11 18  1  0  0  0  0
 11 46  1  0  0  0  0
 12 19  2  0  0  0  0
 12 47  1  0  0  0  0
 13  8  1  0  0  0  0
 14 17  2  0  0  0  0
 15 20  1  0  0  0  0
 16 21  2  0  0  0  0
 17 12  1  0  0  0  0
 17 48  1  0  0  0  0
 18 13  2  0  0  0  0
 18 49  1  0  0  0  0
 19 16  1  0  0  0  0
 19 50  1  0  0  0  0
 20 11  2  0  0  0  0
 20 51  1  0  0  0  0
 21 24  1  0  0  0  0
 21 52  1  0  0  0  0
 22 15  2  0  0  0  0
 22 53  1  0  0  0  0
 23  6  2  0  0  0  0
 23 54  1  0  0  0  0
 24 25  2  0  0  0  0
 24 55  1  0  0  0  0
 25 22  1  0  0  0  0
 25 56  1  0  0  0  0
 26 29  1  0  0  0  0
 26 23  1  0  0  0  0
 26 57  1  0  0  0  0
 26 58  1  0  0  0  0
 27  5  1  0  0  0  0
 27 59  1  0  0  0  0
 27 60  1  0  0  0  0
 28  7  1  0  0  0  0
 28 61  1  0  0  0  0
 28 62  1  0  0  0  0
 29 10  1  0  0  0  0
 29 63  1  0  0  0  0
 29 64  1  0  0  0  0
 30  5  1  0  0  0  0
 30 65  1  0  0  0  0
 30 66  1  0  0  0  0
 30 67  1  0  0  0  0
 31  6  1  0  0  0  0
 31 68  1  0  0  0  0
 31 69  1  0  0  0  0
 31 70  1  0  0  0  0
 32  7  1  0  0  0  0
 32 71  1  0  0  0  0
 32 72  1  0  0  0  0
 32 73  1  0  0  0  0
 33  7  1  0  0  0  0
 33 74  1  0  0  0  0
 33 75  1  0  0  0  0
 33 76  1  0  0  0  0
 34 28  1  0  0  0  0
 34 27  1  0  0  0  0
 34 77  1  0  0  0  0
 34 78  1  0  0  0  0
 35 10  1  0  0  0  0
 35 79  1  0  0  0  0
 35 80  1  0  0  0  0
 35 81  1  0  0  0  0
 36 10  1  0  0  0  0
 36 82  1  0  0  0  0
 36 83  1  0  0  0  0
 36 84  1  0  0  0  0
 37 13  1  0  0  0  0
 37 85  1  0  0  0  0
 37 86  1  0  0  0  0
 37 87  1  0  0  0  0
 38 14  1  0  0  0  0
 38 88  1  0  0  0  0
 38 89  1  0  0  0  0
 38 90  1  0  0  0  0
 39 16  1  0  0  0  0
 39 91  1  0  0  0  0
 39 92  1  0  0  0  0
 39 93  1  0  0  0  0
 40 15  1  0  0  0  0
 40 94  1  0  0  0  0
 40 95  1  0  0  0  0
 40 96  1  0  0  0  0
M  END
>  <DRUGBANK_ID>
DB15909

>  <COMMON_NAME>
alpha-Carotene

>  <CAS_NUMBER>
7488-99-5

>  <UNII>
45XWE1Z69V

>  <SYNONYMS>
(6'R)-beta,epsilon-Carotene; (all-e)-1,3,3-trimethyl-2-(3,7,12,16-tetramethyl-18-(2,6,6-trimethyl-2-cyclohexen-1-yl)-1,3,5,7,9,11,13,15,17-octadecanonaenyl)cyclohexene; 1,3,3-trimethyl-2-((1e,3e,5e,7e,9e,11e,13e,15e,17e)-3,7,12,16-tetramethyl-18-(2,6,6-trimethyl-2-cyclohexen-1-yl)-1,3,5,7,9,11,13,15,17-octadecanonaen-1-yl)cyclohexene

$$$$
