
 OpenBabel10282417123D

 38 39  0  0  1  0  0  0  0  0999 V2000
    1.4279    0.0497    0.0011 C   0  0  0  0  0  0  0  0  0  0  0  0
    0.6921    1.2261    0.0078 C   0  0  0  0  0  0  0  0  0  0  0  0
    0.7574   -1.1701   -0.0087 C   0  0  0  0  0  0  0  0  0  0  0  0
   -0.6882    1.1302    0.0073 C   0  0  0  0  0  0  0  0  0  0  0  0
   -4.8786   -5.7793   -2.1103 C   0  0  0  0  0  0  0  0  0  0  0  0
   -4.3781   -3.8775   -0.6253 C   0  0  0  0  0  0  0  0  0  0  0  0
   -3.5183   -5.9747    1.1321 C   0  0  0  0  0  0  0  0  0  0  0  0
   -5.1220   -5.1724   -0.7237 C   0  0  2  0  0  0  0  0  0  0  0  0
   -5.6201   -7.1014   -2.3288 C   0  0  1  0  0  0  0  0  0  0  0  0
   -3.3230   -3.7001    0.1825 C   0  0  0  0  0  0  0  0  0  0  0  0
   -4.7302   -6.1982    0.3436 C   0  0  0  0  0  0  0  0  0  0  0  0
   -2.8781   -4.8080    1.0342 C   0  0  0  0  0  0  0  0  0  0  0  0
   -0.6353   -1.1839    0.0062 C   0  0  0  0  0  0  0  0  0  0  0  0
   -7.1467   -6.9218   -2.2253 C   0  0  0  0  0  0  0  0  0  0  0  0
   -5.2377   -7.6241   -3.6616 N   0  0  0  0  0  0  0  0  0  0  0  0
   -1.3626   -0.0398    0.0055 N   0  0  0  0  0  0  0  0  0  0  0  0
   -2.6349   -2.5042    0.2262 N   0  0  0  0  0  0  0  0  0  0  0  0
   -1.3041   -2.4190   -0.1171 N   0  0  0  0  0  0  0  0  0  0  0  0
   -5.3401   -7.2489    0.5423 O   0  0  0  0  0  0  0  0  0  0  0  0
   -1.7459   -4.5682    1.7895 O   0  0  0  0  0  0  0  0  0  0  0  0
   -7.9560   -7.1270   -3.1250 O   0  0  0  0  0  0  0  0  0  0  0  0
   -7.5721   -6.4810   -1.0280 O   0  0  0  0  0  0  0  0  0  0  0  0
   -6.1618   -4.8905   -0.5466 H   0  0  0  0  0  0  0  0  0  0  0  0
   -5.2996   -7.8750   -1.6290 H   0  0  0  0  0  0  0  0  0  0  0  0
    2.5132    0.0771   -0.0062 H   0  0  0  0  0  0  0  0  0  0  0  0
    1.1802    2.1937    0.0091 H   0  0  0  0  0  0  0  0  0  0  0  0
    1.3175   -2.0984   -0.0247 H   0  0  0  0  0  0  0  0  0  0  0  0
   -1.3102    2.0204   -0.0010 H   0  0  0  0  0  0  0  0  0  0  0  0
   -5.1631   -5.0543   -2.8867 H   0  0  0  0  0  0  0  0  0  0  0  0
   -3.7970   -5.9489   -2.2357 H   0  0  0  0  0  0  0  0  0  0  0  0
   -4.7090   -3.0810   -1.2898 H   0  0  0  0  0  0  0  0  0  0  0  0
   -3.2153   -6.7957    1.7654 H   0  0  0  0  0  0  0  0  0  0  0  0
   -5.7448   -8.5006   -3.7969 H   0  0  0  0  0  0  0  0  0  0  0  0
   -5.6054   -6.9935   -4.3740 H   0  0  0  0  0  0  0  0  0  0  0  0
   -3.1632   -1.6978   -0.1190 H   0  0  0  0  0  0  0  0  0  0  0  0
   -0.7573   -3.2047    0.2335 H   0  0  0  0  0  0  0  0  0  0  0  0
   -1.6342   -5.3122    2.4040 H   0  0  0  0  0  0  0  0  0  0  0  0
   -8.5378   -6.3408   -1.0767 H   0  0  0  0  0  0  0  0  0  0  0  0
  1 25  1  0  0  0  0
  2  1  2  0  0  0  0
  2 26  1  0  0  0  0
  3  1  1  0  0  0  0
  3 27  1  0  0  0  0
  4  2  1  0  0  0  0
  4 28  1  0  0  0  0
  5 29  1  0  0  0  0
  5 30  1  0  0  0  0
  6 31  1  0  0  0  0
  7 32  1  0  0  0  0
  8  5  1  0  0  0  0
  8  6  1  0  0  0  0
  8 23  1  1  0  0  0
  9  5  1  0  0  0  0
  9 15  1  0  0  0  0
  9 24  1  1  0  0  0
 10  6  2  0  0  0  0
 11  7  1  0  0  0  0
 11  8  1  0  0  0  0
 12  7  2  0  0  0  0
 12 10  1  0  0  0  0
 13  3  2  0  0  0  0
 14  9  1  0  0  0  0
 15 33  1  0  0  0  0
 15 34  1  0  0  0  0
 16  4  2  0  0  0  0
 16 13  1  0  0  0  0
 17 10  1  0  0  0  0
 17 35  1  0  0  0  0
 18 13  1  0  0  0  0
 18 17  1  0  0  0  0
 18 36  1  0  0  0  0
 19 11  2  0  0  0  0
 20 12  1  0  0  0  0
 20 37  1  0  0  0  0
 21 14  2  0  0  0  0
 22 14  1  0  0  0  0
 22 38  1  0  0  0  0
M  END
>  <DRUGBANK_ID>
DB01634

>  <SECONDARY_ACCESSION_NUMBERS>
EXPT02499

>  <COMMON_NAME>
2-Oxy-4-Hydroxy-5-(2-Hydrazinopyridine)Phenylalanine

$$$$
