
 OpenBabel10282417103D

 34 35  0  0  1  0  0  0  0  0999 V2000
    1.1000   -0.6746    0.1642 C   0  0  0  0  0  0  0  0  0  0  0  0
   -0.2106   -1.1312    0.0464 N   0  0  0  0  0  0  0  0  0  0  0  0
   -0.3627    1.0861   -0.0197 N   0  0  0  0  0  0  0  0  0  0  0  0
    2.4132   -1.3288    0.2592 C   0  0  0  0  0  0  0  0  0  0  0  0
   -1.0425   -0.0330    0.0017 C   0  0  0  0  0  0  0  0  0  0  0  0
   -0.7144   -2.5090   -0.0174 C   0  0  1  0  0  0  0  0  0  0  0  0
    0.9461    0.6996    0.0451 C   0  0  0  0  0  0  0  0  0  0  0  0
    3.4633   -0.7556    0.0690 O   0  0  0  0  0  0  0  0  0  0  0  0
   -0.3453   -3.1947   -1.3390 C   0  0  0  0  0  0  0  0  0  0  0  0
    2.3272   -2.6740    0.4758 O   0  0  0  0  0  0  0  0  0  0  0  0
   -0.3754   -3.2471    1.2914 C   0  0  0  0  0  0  0  0  0  0  0  0
    0.9566   -3.2736   -1.8272 C   0  0  0  0  0  0  0  0  0  0  0  0
   -1.2928   -3.7591   -2.1885 C   0  0  0  0  0  0  0  0  0  0  0  0
    3.4039   -3.6152    0.1873 C   0  0  0  0  0  0  0  0  0  0  0  0
    4.2325   -3.3758   -1.0733 C   0  0  0  0  0  0  0  0  0  0  0  0
   -0.8998   -4.4739   -3.3434 C   0  0  0  0  0  0  0  0  0  0  0  0
    1.3726   -4.0361   -2.9095 C   0  0  0  0  0  0  0  0  0  0  0  0
    0.4342   -4.6243   -3.6954 C   0  0  0  0  0  0  0  0  0  0  0  0
   -2.1271   -0.0918   -0.0273 H   0  0  0  0  0  0  0  0  0  0  0  0
   -1.8149   -2.4271   -0.0036 H   0  0  0  0  0  0  0  0  0  0  0  0
    1.7491    1.4233    0.0104 H   0  0  0  0  0  0  0  0  0  0  0  0
   -0.8110   -2.7258    2.1545 H   0  0  0  0  0  0  0  0  0  0  0  0
   -0.7112   -4.2846    1.2817 H   0  0  0  0  0  0  0  0  0  0  0  0
    0.6802   -3.2851    1.5314 H   0  0  0  0  0  0  0  0  0  0  0  0
    1.7228   -2.6354   -1.4604 H   0  0  0  0  0  0  0  0  0  0  0  0
   -2.3525   -3.6097   -2.0053 H   0  0  0  0  0  0  0  0  0  0  0  0
    4.0424   -3.6676    1.0663 H   0  0  0  0  0  0  0  0  0  0  0  0
    2.9182   -4.6010    0.0833 H   0  0  0  0  0  0  0  0  0  0  0  0
    4.5827   -2.3516   -1.1651 H   0  0  0  0  0  0  0  0  0  0  0  0
    5.0753   -4.0684   -1.1243 H   0  0  0  0  0  0  0  0  0  0  0  0
    3.6862   -3.5466   -1.9894 H   0  0  0  0  0  0  0  0  0  0  0  0
   -1.6415   -4.9236   -3.9898 H   0  0  0  0  0  0  0  0  0  0  0  0
    2.4129   -4.1158   -3.1930 H   0  0  0  0  0  0  0  0  0  0  0  0
    0.7747   -5.1172   -4.5976 H   0  0  0  0  0  0  0  0  0  0  0  0
  2  1  1  0  0  0  0
  4  1  1  0  0  0  0
  5  2  1  0  0  0  0
  5  3  2  0  0  0  0
  5 19  1  0  0  0  0
  6  2  1  0  0  0  0
  6 11  1  0  0  0  0
  6 20  1  6  0  0  0
  7  1  2  0  0  0  0
  7  3  1  0  0  0  0
  7 21  1  0  0  0  0
  8  4  2  0  0  0  0
  9  6  1  0  0  0  0
 10  4  1  0  0  0  0
 11 22  1  0  0  0  0
 11 23  1  0  0  0  0
 11 24  1  0  0  0  0
 12  9  2  0  0  0  0
 12 25  1  0  0  0  0
 13  9  1  0  0  0  0
 13 26  1  0  0  0  0
 14 10  1  0  0  0  0
 14 27  1  0  0  0  0
 14 28  1  0  0  0  0
 15 14  1  0  0  0  0
 15 29  1  0  0  0  0
 15 30  1  0  0  0  0
 15 31  1  0  0  0  0
 16 13  2  0  0  0  0
 16 32  1  0  0  0  0
 17 12  1  0  0  0  0
 17 33  1  0  0  0  0
 18 16  1  0  0  0  0
 18 17  2  0  0  0  0
 18 34  1  0  0  0  0
M  END
>  <DRUGBANK_ID>
DB00292

>  <SECONDARY_ACCESSION_NUMBERS>
APRD00965

>  <COMMON_NAME>
Etomidate

>  <CAS_NUMBER>
33125-97-2

>  <UNII>
Z22628B598

>  <SYNONYMS>
(+)-ethyl 1-(α-methylbenzyl)imidazole-5-carboxylate; (+)-etomidate; (R)-(+)-1-(α-methylbenzyl)imidazole-5-carboxylic acid ethyl ester; (R)-1-(1-phenylethyl)-1H-imidazole-5-carboxylic acid ethyl ester; 3-((R)-1-Phenyl-ethyl)-3H-imidazole-4-carboxylic acid ethyl ester; Etomidate; Etomidato; Etomidatum; R-(+)-ethyl 1-(1-phenylethyl)-1H-imidazole-5-carboxylate

$$$$
