047
 OpenBabel10282417163D

 53 56  0  0  0  0  0  0  0  0999 V2000
    1.5668    1.1449    0.0465 N   0  0  0  0  0  0  0  0  0  0  0  0
    0.2400    0.7270    0.0615 C   0  0  0  0  0  0  0  0  0  0  0  0
    0.2430   -0.6655    0.0074 C   0  0  0  0  0  0  0  0  0  0  0  0
    1.5936   -1.0996   -0.0591 C   0  0  0  0  0  0  0  0  0  0  0  0
    2.3840    0.0360   -0.0487 C   0  0  0  0  0  0  0  0  0  0  0  0
    2.0273   -2.5187   -0.1516 C   0  0  0  0  0  0  0  0  0  0  0  0
    1.5663   -3.2099    1.0537 N   0  0  0  0  0  0  0  0  0  0  0  0
    2.1557   -4.5349    1.1958 C   0  0  0  0  0  0  0  0  0  0  0  0
    3.6959   -4.5182    1.2702 C   0  0  0  0  0  0  0  0  0  0  0  0
    4.2445   -3.2875    2.0260 C   0  0  0  0  0  0  0  0  0  0  0  0
    5.7578   -3.2908    2.0927 C   0  0  0  0  0  0  0  0  0  0  0  0
    6.2405   -4.5557    2.7757 C   0  0  0  0  0  0  0  0  0  0  0  0
    5.7318   -5.8002    2.0514 C   0  0  0  0  0  0  0  0  0  0  0  0
    4.2088   -5.8060    1.9299 C   0  0  0  0  0  0  0  0  0  0  0  0
   -0.9754   -1.3746    0.0049 C   0  0  0  0  0  0  0  0  0  0  0  0
   -2.1775   -0.6746    0.0104 C   0  0  0  0  0  0  0  0  0  0  0  0
   -2.1723    0.7144    0.0152 C   0  0  0  0  0  0  0  0  0  0  0  0
   -0.9742    1.4420    0.0410 C   0  0  0  0  0  0  0  0  0  0  0  0
    2.0283    2.4837    0.0436 C   0  0  0  0  0  0  0  0  0  0  0  0
    1.5715    3.3751    1.0215 C   0  0  0  0  0  0  0  0  0  0  0  0
    1.9006    4.7282    0.9210 C   0  0  0  0  0  0  0  0  0  0  0  0
    2.7052    5.1922   -0.1257 C   0  0  0  0  0  0  0  0  0  0  0  0
    3.2406    4.2707   -1.0389 C   0  0  0  0  0  0  0  0  0  0  0  0
    2.8910    2.9194   -0.9632 C   0  0  0  0  0  0  0  0  0  0  0  0
    2.9389    6.6658   -0.2911 C   0  0  0  0  0  0  0  0  0  0  0  0
    3.4594    0.1468   -0.0590 H   0  0  0  0  0  0  0  0  0  0  0  0
    1.5925   -2.9926   -1.0354 H   0  0  0  0  0  0  0  0  0  0  0  0
    3.1118   -2.5348   -0.2870 H   0  0  0  0  0  0  0  0  0  0  0  0
    1.7932   -2.6473    1.8749 H   0  0  0  0  0  0  0  0  0  0  0  0
    1.7353   -4.9987    2.0968 H   0  0  0  0  0  0  0  0  0  0  0  0
    1.8261   -5.1663    0.3599 H   0  0  0  0  0  0  0  0  0  0  0  0
    4.0793   -4.4966    0.2394 H   0  0  0  0  0  0  0  0  0  0  0  0
    3.9699   -2.3445    1.5489 H   0  0  0  0  0  0  0  0  0  0  0  0
    3.8158   -3.2562    3.0344 H   0  0  0  0  0  0  0  0  0  0  0  0
    6.0930   -2.4040    2.6412 H   0  0  0  0  0  0  0  0  0  0  0  0
    6.1733   -3.2184    1.0792 H   0  0  0  0  0  0  0  0  0  0  0  0
    5.8786   -4.5606    3.8113 H   0  0  0  0  0  0  0  0  0  0  0  0
    7.3336   -4.5569    2.8099 H   0  0  0  0  0  0  0  0  0  0  0  0
    6.0593   -6.6945    2.5905 H   0  0  0  0  0  0  0  0  0  0  0  0
    6.1729   -5.8434    1.0481 H   0  0  0  0  0  0  0  0  0  0  0  0
    3.7705   -5.9022    2.9318 H   0  0  0  0  0  0  0  0  0  0  0  0
    3.8858   -6.6836    1.3569 H   0  0  0  0  0  0  0  0  0  0  0  0
   -0.9705   -2.4612   -0.0109 H   0  0  0  0  0  0  0  0  0  0  0  0
   -3.1122   -1.2276   -0.0025 H   0  0  0  0  0  0  0  0  0  0  0  0
   -3.1199    1.2469   -0.0076 H   0  0  0  0  0  0  0  0  0  0  0  0
   -0.9914    2.5252    0.0176 H   0  0  0  0  0  0  0  0  0  0  0  0
    0.9817    3.0253    1.8628 H   0  0  0  0  0  0  0  0  0  0  0  0
    1.5051    5.4262    1.6578 H   0  0  0  0  0  0  0  0  0  0  0  0
    3.9004    4.6071   -1.8340 H   0  0  0  0  0  0  0  0  0  0  0  0
    3.2351    2.2407   -1.7430 H   0  0  0  0  0  0  0  0  0  0  0  0
    1.9815    7.1722   -0.4602 H   0  0  0  0  0  0  0  0  0  0  0  0
    3.4130    7.0848    0.6011 H   0  0  0  0  0  0  0  0  0  0  0  0
    3.5798    6.8795   -1.1525 H   0  0  0  0  0  0  0  0  0  0  0  0
  1  2  1  0  0  0  0
  1 19  1  0  0  0  0
  1  5  1  0  0  0  0
  2 18  2  0  0  0  0
  2  3  1  0  0  0  0
  3 15  2  0  0  0  0
  3  4  1  0  0  0  0
  4  6  1  0  0  0  0
  4  5  2  0  0  0  0
  5 26  1  0  0  0  0
  6  7  1  0  0  0  0
  6 27  1  0  0  0  0
  6 28  1  0  0  0  0
  7  8  1  0  0  0  0
  7 29  1  0  0  0  0
  8  9  1  0  0  0  0
  8 30  1  0  0  0  0
  8 31  1  0  0  0  0
  9 14  1  0  0  0  0
  9 10  1  0  0  0  0
  9 32  1  0  0  0  0
 10 11  1  0  0  0  0
 10 33  1  0  0  0  0
 10 34  1  0  0  0  0
 11 12  1  0  0  0  0
 11 35  1  0  0  0  0
 11 36  1  0  0  0  0
 12 13  1  0  0  0  0
 12 37  1  0  0  0  0
 12 38  1  0  0  0  0
 13 14  1  0  0  0  0
 13 39  1  0  0  0  0
 13 40  1  0  0  0  0
 14 41  1  0  0  0  0
 14 42  1  0  0  0  0
 15 16  1  0  0  0  0
 15 43  1  0  0  0  0
 16 17  2  0  0  0  0
 16 44  1  0  0  0  0
 17 18  1  0  0  0  0
 17 45  1  0  0  0  0
 18 46  1  0  0  0  0
 19 20  2  0  0  0  0
 19 24  1  0  0  0  0
 20 21  1  0  0  0  0
 20 47  1  0  0  0  0
 21 22  2  0  0  0  0
 21 48  1  0  0  0  0
 22 23  1  0  0  0  0
 22 25  1  0  0  0  0
 23 24  2  0  0  0  0
 23 49  1  0  0  0  0
 24 50  1  0  0  0  0
 25 51  1  0  0  0  0
 25 52  1  0  0  0  0
 25 53  1  0  0  0  0
M  END
>  <DRUGBANK_ID>
DB06833

>  <COMMON_NAME>
1-CYCLOHEXYL-N-{[1-(4-METHYLPHENYL)-1H-INDOL-3-YL]METHYL}METHANAMINE

$$$$
