
 OpenBabel10282417203D

 40 42  0  0  0  0  0  0  0  0999 V2000
    1.3376   -0.1994   -0.0078 C   0  0  0  0  0  0  0  0  0  0  0  0
    0.4610   -1.2754    0.0083 C   0  0  0  0  0  0  0  0  0  0  0  0
    0.8418    1.1090    0.0010 C   0  0  0  0  0  0  0  0  0  0  0  0
   -0.9158   -1.0452   -0.0264 C   0  0  0  0  0  0  0  0  0  0  0  0
   -1.6519    5.3409    1.7848 C   0  0  0  0  0  0  0  0  0  0  0  0
   -0.1493    6.2082    0.1169 C   0  0  0  0  0  0  0  0  0  0  0  0
   -2.2769    6.5889    1.9029 C   0  0  0  0  0  0  0  0  0  0  0  0
   -0.8089    7.4524    0.1876 C   0  0  0  0  0  0  0  0  0  0  0  0
   -1.6994   13.3040   -0.2878 C   0  0  0  0  0  0  0  0  0  0  0  0
   -0.3309   13.4513   -0.2157 C   0  0  0  0  0  0  0  0  0  0  0  0
   -0.6239    5.1215    0.8572 C   0  0  0  0  0  0  0  0  0  0  0  0
   -1.8658    7.6446    1.0891 C   0  0  0  0  0  0  0  0  0  0  0  0
   -0.5433    1.3637    0.0865 C   0  0  0  0  0  0  0  0  0  0  0  0
   -1.4422    0.2677   -0.0272 C   0  0  0  0  0  0  0  0  0  0  0  0
   -1.0273    2.7278    0.5038 C   0  0  0  0  0  0  0  0  0  0  0  0
   -2.9236    0.4235   -0.2611 C   0  0  0  0  0  0  0  0  0  0  0  0
   -1.2415   11.4659    0.8475 C   0  0  0  0  0  0  0  0  0  0  0  0
   -2.2104   12.1574    0.3029 N   0  0  0  0  0  0  0  0  0  0  0  0
   -0.1352    3.8096    0.5819 N   0  0  0  0  0  0  0  0  0  0  0  0
   -1.4005   10.2409    1.5271 N   0  0  0  0  0  0  0  0  0  0  0  0
   -2.2010    2.8447    0.8356 O   0  0  0  0  0  0  0  0  0  0  0  0
   -3.5534    1.4050   -0.6187 O   0  0  0  0  0  0  0  0  0  0  0  0
   -3.5993   -0.7419   -0.1914 O   0  0  0  0  0  0  0  0  0  0  0  0
   -3.2297    9.4842   -0.1298 O   0  0  0  0  0  0  0  0  0  0  0  0
   -3.5305    9.2018    2.3734 O   0  0  0  0  0  0  0  0  0  0  0  0
    0.3240   12.1653    0.7108 S   0  0  0  0  0  0  0  0  0  0  0  0
   -2.6945    9.2467    1.1910 S   0  0  0  0  0  0  0  0  0  0  0  0
    2.4118   -0.3774    0.0078 H   0  0  0  0  0  0  0  0  0  0  0  0
    0.8469   -2.2932    0.0200 H   0  0  0  0  0  0  0  0  0  0  0  0
    1.5741    1.9076   -0.0328 H   0  0  0  0  0  0  0  0  0  0  0  0
   -1.5772   -1.9106   -0.0502 H   0  0  0  0  0  0  0  0  0  0  0  0
   -1.9978    4.5260    2.4193 H   0  0  0  0  0  0  0  0  0  0  0  0
    0.6672    6.0840   -0.5888 H   0  0  0  0  0  0  0  0  0  0  0  0
   -3.1068    6.6943    2.5977 H   0  0  0  0  0  0  0  0  0  0  0  0
   -0.5265    8.2491   -0.4970 H   0  0  0  0  0  0  0  0  0  0  0  0
   -2.3716   14.0040   -0.7724 H   0  0  0  0  0  0  0  0  0  0  0  0
    0.2850   14.2399   -0.6281 H   0  0  0  0  0  0  0  0  0  0  0  0
    0.7854    3.7379    0.1764 H   0  0  0  0  0  0  0  0  0  0  0  0
   -0.9365   10.1487    2.4246 H   0  0  0  0  0  0  0  0  0  0  0  0
   -4.5087   -0.4415   -0.4198 H   0  0  0  0  0  0  0  0  0  0  0  0
  1 28  1  0  0  0  0
  2  1  2  0  0  0  0
  2 29  1  0  0  0  0
  3  1  1  0  0  0  0
  3 30  1  0  0  0  0
  4  2  1  0  0  0  0
  4 31  1  0  0  0  0
  5 32  1  0  0  0  0
  6 33  1  0  0  0  0
  7  5  1  0  0  0  0
  7 34  1  0  0  0  0
  8  6  2  0  0  0  0
  8 35  1  0  0  0  0
  9 36  1  0  0  0  0
 10  9  2  0  0  0  0
 10 37  1  0  0  0  0
 11  5  2  0  0  0  0
 11  6  1  0  0  0  0
 12  7  2  0  0  0  0
 12  8  1  0  0  0  0
 13  3  2  0  0  0  0
 14  4  2  0  0  0  0
 14 13  1  0  0  0  0
 15 13  1  0  0  0  0
 16 14  1  0  0  0  0
 18  9  1  0  0  0  0
 18 17  2  0  0  0  0
 19 11  1  0  0  0  0
 19 15  1  0  0  0  0
 19 38  1  0  0  0  0
 20 17  1  0  0  0  0
 20 39  1  0  0  0  0
 21 15  2  0  0  0  0
 22 16  2  0  0  0  0
 23 16  1  0  0  0  0
 23 40  1  0  0  0  0
 26 10  1  0  0  0  0
 26 17  1  0  0  0  0
 27 12  1  0  0  0  0
 27 20  1  0  0  0  0
 27 24  2  0  0  0  0
 27 25  2  0  0  0  0
M  END
>  <DRUGBANK_ID>
DB13248

>  <COMMON_NAME>
Phthalylsulfathiazole

>  <CAS_NUMBER>
85-73-4

>  <UNII>
6875L5852V

>  <SYNONYMS>
Phthalylsulfathiazole

$$$$
