
 OpenBabel10282417223D

 59 63  0  0  0  0  0  0  0  0999 V2000
    0.9519    0.0078    0.0063 O   0  0  0  0  0  0  0  0  0  0  0  0
    0.4263   -0.1112    1.2452 C   0  0  0  0  0  0  0  0  0  0  0  0
    1.1170   -0.2954    2.2265 O   0  0  0  0  0  0  0  0  0  0  0  0
   -1.0563   -0.0805    1.2163 C   0  0  0  0  0  0  0  0  0  0  0  0
   -1.6626   -0.8281    0.2435 C   0  0  0  0  0  0  0  0  0  0  0  0
   -3.0372   -1.0536    0.3358 C   0  0  0  0  0  0  0  0  0  0  0  0
   -3.9422   -0.3971    1.1899 C   0  0  0  0  0  0  0  0  0  0  0  0
   -3.3107    0.3150    2.2204 C   0  0  0  0  0  0  0  0  0  0  0  0
   -1.8706    0.4573    2.2307 C   0  0  0  0  0  0  0  0  0  0  0  0
   -6.0136   -0.3674    0.9838 S   0  0  0  0  0  0  0  0  0  0  0  0
   -6.4239   -1.3021    2.0573 O   0  0  0  0  0  0  0  0  0  0  0  0
   -6.3394    1.0017    1.0220 O   0  0  0  0  0  0  0  0  0  0  0  0
   -6.4329   -1.0739   -0.6120 N   0  0  0  0  0  0  0  0  0  0  0  0
   -5.3404   -1.9919   -0.7636 C   0  0  0  0  0  0  0  0  0  0  0  0
   -5.4203   -3.5034   -0.5116 C   0  0  0  0  0  0  0  0  0  0  0  0
   -4.3408   -4.3322   -0.9116 C   0  0  0  0  0  0  0  0  0  0  0  0
   -4.5317   -5.6882   -1.2066 C   0  0  0  0  0  0  0  0  0  0  0  0
   -5.7827   -6.2739   -1.0443 C   0  0  0  0  0  0  0  0  0  0  0  0
   -6.1226   -7.5604   -1.3427 O   0  0  0  0  0  0  0  0  0  0  0  0
   -5.0556   -8.4197   -1.6952 C   0  0  0  0  0  0  0  0  0  0  0  0
   -4.5715   -8.0959   -2.9143 F   0  0  0  0  0  0  0  0  0  0  0  0
   -4.0570   -8.3693   -0.7862 F   0  0  0  0  0  0  0  0  0  0  0  0
   -5.5101   -9.6900   -1.7432 F   0  0  0  0  0  0  0  0  0  0  0  0
   -6.8155   -5.5016   -0.5285 C   0  0  0  0  0  0  0  0  0  0  0  0
   -6.6056   -4.1617   -0.1723 C   0  0  0  0  0  0  0  0  0  0  0  0
   -7.8200   -1.2314   -1.6056 C   0  0  0  0  0  0  0  0  0  0  0  0
   -7.9495   -1.0043   -3.0329 N   0  0  0  0  0  0  0  0  0  0  0  0
   -8.1384   -2.2541   -4.1029 C   0  0  0  0  0  0  0  0  0  0  0  0
   -7.7345   -3.5663   -3.8503 C   0  0  0  0  0  0  0  0  0  0  0  0
   -6.8365   -4.4395   -4.6428 C   0  0  0  0  0  0  0  0  0  0  0  0
   -5.4414   -4.4426   -4.4229 C   0  0  0  0  0  0  0  0  0  0  0  0
   -4.9838   -3.4325   -3.6658 C   0  0  0  0  0  0  0  0  0  0  0  0
   -5.9849   -2.7773   -3.0002 C   0  0  0  0  0  0  0  0  0  0  0  0
   -7.3419   -3.2012   -2.6715 C   0  0  0  0  0  0  0  0  0  0  0  0
   -8.3035   -2.4597   -1.7185 C   0  0  0  0  0  0  0  0  0  0  0  0
   -9.9346   -2.5095   -1.7515 C   0  0  0  0  0  0  0  0  0  0  0  0
  -10.7034   -3.4507   -2.6419 C   0  0  0  0  0  0  0  0  0  0  0  0
  -10.7436   -1.9823   -2.9642 C   0  0  0  0  0  0  0  0  0  0  0  0
    1.9240   -0.0577    0.1237 H   0  0  0  0  0  0  0  0  0  0  0  0
   -1.0857   -1.3601   -0.5146 H   0  0  0  0  0  0  0  0  0  0  0  0
   -3.2040   -1.9868   -0.1471 H   0  0  0  0  0  0  0  0  0  0  0  0
   -3.8739    0.6962    3.0675 H   0  0  0  0  0  0  0  0  0  0  0  0
   -1.3790    0.9980    3.0385 H   0  0  0  0  0  0  0  0  0  0  0  0
   -5.1451   -1.2433   -1.5579 H   0  0  0  0  0  0  0  0  0  0  0  0
   -4.3646   -2.0006   -1.2311 H   0  0  0  0  0  0  0  0  0  0  0  0
   -3.3741   -3.9135   -1.1955 H   0  0  0  0  0  0  0  0  0  0  0  0
   -3.6961   -6.2223   -1.6509 H   0  0  0  0  0  0  0  0  0  0  0  0
   -7.8256   -5.9051   -0.4786 H   0  0  0  0  0  0  0  0  0  0  0  0
   -7.4762   -3.6016    0.1490 H   0  0  0  0  0  0  0  0  0  0  0  0
   -8.8822   -2.1884   -4.9030 H   0  0  0  0  0  0  0  0  0  0  0  0
   -7.2043   -5.0440   -5.4620 H   0  0  0  0  0  0  0  0  0  0  0  0
   -4.7121   -5.0726   -4.9125 H   0  0  0  0  0  0  0  0  0  0  0  0
   -3.9619   -3.1076   -3.5117 H   0  0  0  0  0  0  0  0  0  0  0  0
   -5.8202   -1.6922   -2.9992 H   0  0  0  0  0  0  0  0  0  0  0  0
  -10.3911   -2.1983   -0.8103 H   0  0  0  0  0  0  0  0  0  0  0  0
  -10.1092   -4.1717   -3.1837 H   0  0  0  0  0  0  0  0  0  0  0  0
  -11.6315   -3.8821   -2.2870 H   0  0  0  0  0  0  0  0  0  0  0  0
  -11.6843   -1.4446   -2.8770 H   0  0  0  0  0  0  0  0  0  0  0  0
  -10.2746   -1.5191   -3.8190 H   0  0  0  0  0  0  0  0  0  0  0  0
  1  2  1  0  0  0  0
  1 39  1  0  0  0  0
  2  3  2  0  0  0  0
  2  4  1  0  0  0  0
  4  5  2  0  0  0  0
  4  9  1  0  0  0  0
  5  6  1  0  0  0  0
  5 40  1  0  0  0  0
  6  7  2  0  0  0  0
  6 41  1  0  0  0  0
  7  8  1  0  0  0  0
  7 10  1  0  0  0  0
  8  9  2  0  0  0  0
  8 42  1  0  0  0  0
  9 43  1  0  0  0  0
 10 11  2  0  0  0  0
 10 12  2  0  0  0  0
 10 13  1  0  0  0  0
 13 14  1  0  0  0  0
 13 26  1  0  0  0  0
 14 15  1  0  0  0  0
 14 44  1  0  0  0  0
 14 45  1  0  0  0  0
 15 16  2  0  0  0  0
 15 25  1  0  0  0  0
 16 17  1  0  0  0  0
 16 46  1  0  0  0  0
 17 18  2  0  0  0  0
 17 47  1  0  0  0  0
 18 19  1  0  0  0  0
 18 24  1  0  0  0  0
 19 20  1  0  0  0  0
 20 21  1  0  0  0  0
 20 22  1  0  0  0  0
 20 23  1  0  0  0  0
 24 25  2  0  0  0  0
 24 48  1  0  0  0  0
 25 49  1  0  0  0  0
 26 27  2  0  0  0  0
 26 35  1  0  0  0  0
 27 28  1  0  0  0  0
 28 29  2  0  0  0  0
 28 50  1  0  0  0  0
 29 30  1  0  0  0  0
 29 34  1  0  0  0  0
 30 31  2  0  0  0  0
 30 51  1  0  0  0  0
 31 32  1  0  0  0  0
 31 52  1  0  0  0  0
 32 33  2  0  0  0  0
 32 53  1  0  0  0  0
 33 34  1  0  0  0  0
 33 54  1  0  0  0  0
 34 35  2  0  0  0  0
 35 36  1  0  0  0  0
 36 37  1  0  0  0  0
 36 38  1  0  0  0  0
 36 55  1  0  0  0  0
 37 38  1  0  0  0  0
 37 56  1  0  0  0  0
 37 57  1  0  0  0  0
 38 58  1  0  0  0  0
 38 59  1  0  0  0  0
M  END
>  <DRUGBANK_ID>
DB15287

>  <COMMON_NAME>
Elismetrep

>  <CAS_NUMBER>
1400699-64-0

>  <UNII>
KIB8V5UR7D

>  <SYNONYMS>
Elismetrep

$$$$
