737
 OpenBabel10282417103D

 55 58  0  0  1  0  0  0  0  0999 V2000
   -2.1628    0.0785    0.1246 Cl  0  0  0  0  0  0  0  0  0  0  0  0
    4.1193   -0.6505    1.0013 N   0  0  0  0  0  0  0  0  0  0  0  0
    2.0075   -1.5169    2.9757 N   0  0  0  0  0  0  0  0  0  0  0  0
    3.7292   -2.0598    1.1855 C   0  0  0  0  0  0  0  0  0  0  0  0
    3.7635    0.1547    2.1525 C   0  0  0  0  0  0  0  0  0  0  0  0
    2.3409   -2.2814    1.7869 C   0  0  0  0  0  0  0  0  0  0  0  0
    2.3775   -0.1014    2.7903 C   0  0  0  0  0  0  0  0  0  0  0  0
    3.8165   -0.0085   -0.2699 C   0  0  3  0  0  0  0  0  0  0  0  0
    2.4571   -2.1925    4.1910 C   0  0  0  0  0  0  0  0  0  0  0  0
    2.3023    0.1148   -0.5398 C   0  0  0  0  0  0  0  0  0  0  0  0
    4.5837   -0.6752   -1.4039 C   0  0  0  0  0  0  0  0  0  0  0  0
    3.9550   -2.2823    4.4063 C   0  0  0  0  0  0  0  0  0  0  0  0
    1.6227    1.3133   -0.2685 C   0  0  0  0  0  0  0  0  0  0  0  0
    1.5414   -1.0238   -0.8573 C   0  0  0  0  0  0  0  0  0  0  0  0
    4.2973   -0.2520   -2.6862 C   0  0  0  0  0  0  0  0  0  0  0  0
    5.4966   -1.7358   -1.1998 C   0  0  0  0  0  0  0  0  0  0  0  0
    4.6878   -1.1268    4.7205 C   0  0  0  0  0  0  0  0  0  0  0  0
    4.6587   -3.4547    4.1031 C   0  0  0  0  0  0  0  0  0  0  0  0
    0.2271    1.3181   -0.1536 C   0  0  0  0  0  0  0  0  0  0  0  0
    0.1731   -1.0528   -0.5719 C   0  0  0  0  0  0  0  0  0  0  0  0
    4.7732   -0.9795   -3.7756 C   0  0  0  0  0  0  0  0  0  0  0  0
    5.9302   -2.4952   -2.2857 C   0  0  0  0  0  0  0  0  0  0  0  0
    6.0544   -1.0476    4.3988 C   0  0  0  0  0  0  0  0  0  0  0  0
   -0.4824    0.1218   -0.2334 C   0  0  0  0  0  0  0  0  0  0  0  0
    5.5492   -2.1199   -3.5538 C   0  0  0  0  0  0  0  0  0  0  0  0
    6.0545   -3.4374    4.0437 C   0  0  0  0  0  0  0  0  0  0  0  0
    6.7437   -2.2253    4.1161 C   0  0  0  0  0  0  0  0  0  0  0  0
    6.7143    0.2949    4.1927 C   0  0  0  0  0  0  0  0  0  0  0  0
    3.7753   -2.6540    0.2687 H   0  0  0  0  0  0  0  0  0  0  0  0
    4.5021   -2.5234    1.8000 H   0  0  0  0  0  0  0  0  0  0  0  0
    4.5274   -0.1574    2.8189 H   0  0  0  0  0  0  0  0  0  0  0  0
    3.9996    1.2218    2.0651 H   0  0  0  0  0  0  0  0  0  0  0  0
    1.6118   -1.9200    1.1008 H   0  0  0  0  0  0  0  0  0  0  0  0
    2.0859   -3.3459    1.8211 H   0  0  0  0  0  0  0  0  0  0  0  0
    1.6309    0.3511    2.1330 H   0  0  0  0  0  0  0  0  0  0  0  0
    2.2613    0.4561    3.7245 H   0  0  0  0  0  0  0  0  0  0  0  0
    4.2345    1.0089   -0.2205 H   0  0  0  0  0  0  0  0  0  0  0  0
    1.9761   -1.7141    5.0470 H   0  0  0  0  0  0  0  0  0  0  0  0
    2.0362   -3.2076    4.1529 H   0  0  0  0  0  0  0  0  0  0  0  0
    2.1772    2.2229   -0.0504 H   0  0  0  0  0  0  0  0  0  0  0  0
    2.0450   -1.9700   -1.0616 H   0  0  0  0  0  0  0  0  0  0  0  0
    3.6469    0.6048   -2.8467 H   0  0  0  0  0  0  0  0  0  0  0  0
    5.8143   -2.0489   -0.2134 H   0  0  0  0  0  0  0  0  0  0  0  0
    4.1425   -0.2053    4.9261 H   0  0  0  0  0  0  0  0  0  0  0  0
    4.1281   -4.3586    3.8092 H   0  0  0  0  0  0  0  0  0  0  0  0
   -0.2912    2.2415    0.0862 H   0  0  0  0  0  0  0  0  0  0  0  0
   -0.3275   -2.0153   -0.4739 H   0  0  0  0  0  0  0  0  0  0  0  0
    4.5001   -0.6639   -4.7660 H   0  0  0  0  0  0  0  0  0  0  0  0
    6.5372   -3.3781   -2.0999 H   0  0  0  0  0  0  0  0  0  0  0  0
    5.8660   -2.7189   -4.4077 H   0  0  0  0  0  0  0  0  0  0  0  0
    6.5989   -4.3557    3.8470 H   0  0  0  0  0  0  0  0  0  0  0  0
    7.8069   -2.1957    3.8937 H   0  0  0  0  0  0  0  0  0  0  0  0
    7.3414    0.5438    5.0465 H   0  0  0  0  0  0  0  0  0  0  0  0
    7.3204    0.2996    3.2748 H   0  0  0  0  0  0  0  0  0  0  0  0
    5.9751    1.0962    4.0534 H   0  0  0  0  0  0  0  0  0  0  0  0
  1 24  1  0  0  0  0
  2  4  1  0  0  0  0
  2  5  1  0  0  0  0
  2  8  1  0  0  0  0
  3  6  1  0  0  0  0
  3  7  1  0  0  0  0
  3  9  1  0  0  0  0
  4  6  1  0  0  0  0
  4 29  1  0  0  0  0
  4 30  1  0  0  0  0
  5  7  1  0  0  0  0
  5 31  1  0  0  0  0
  5 32  1  0  0  0  0
  6 33  1  0  0  0  0
  6 34  1  0  0  0  0
  7 35  1  0  0  0  0
  7 36  1  0  0  0  0
  8 10  1  0  0  0  0
  8 11  1  0  0  0  0
  8 37  1  0  0  0  0
  9 12  1  0  0  0  0
  9 38  1  0  0  0  0
  9 39  1  0  0  0  0
 10 13  2  0  0  0  0
 10 14  1  0  0  0  0
 11 15  2  0  0  0  0
 11 16  1  0  0  0  0
 12 17  1  0  0  0  0
 12 18  2  0  0  0  0
 13 19  1  0  0  0  0
 13 40  1  0  0  0  0
 14 20  2  0  0  0  0
 14 41  1  0  0  0  0
 15 21  1  0  0  0  0
 15 42  1  0  0  0  0
 16 22  2  0  0  0  0
 16 43  1  0  0  0  0
 17 23  2  0  0  0  0
 17 44  1  0  0  0  0
 18 26  1  0  0  0  0
 18 45  1  0  0  0  0
 19 24  2  0  0  0  0
 19 46  1  0  0  0  0
 20 24  1  0  0  0  0
 20 47  1  0  0  0  0
 21 25  2  0  0  0  0
 21 48  1  0  0  0  0
 22 25  1  0  0  0  0
 22 49  1  0  0  0  0
 23 27  1  0  0  0  0
 23 28  1  0  0  0  0
 25 50  1  0  0  0  0
 26 27  2  0  0  0  0
 26 51  1  0  0  0  0
 27 52  1  0  0  0  0
 28 53  1  0  0  0  0
 28 54  1  0  0  0  0
 28 55  1  0  0  0  0
M  END
>  <DRUGBANK_ID>
DB00737

>  <SECONDARY_ACCESSION_NUMBERS>
APRD00354

>  <COMMON_NAME>
Meclizine

>  <CAS_NUMBER>
569-65-3

>  <UNII>
3L5TQ84570

>  <SYNONYMS>
Meclizine; Meclozina; Meclozine

$$$$
