
 OpenBabel10282417123D

 63 64  0  0  0  0  0  0  0  0999 V2000
    1.6856    1.6291    1.6240 C   0  0  2  0  0  0  0  0  0  0  0  0
    2.1492    0.9595    2.8592 N   0  0  0  0  0  0  0  0  0  0  0  0
    1.5563    0.6690    0.5542 O   0  0  0  0  0  0  0  0  0  0  0  0
    2.4685    2.7930    1.0356 C   0  0  1  0  0  0  0  0  0  0  0  0
    3.4859    0.6656    3.0691 C   0  0  0  0  0  0  0  0  0  0  0  0
    1.2087    0.3520    3.6613 C   0  0  0  0  0  0  0  0  0  0  0  0
    2.0237    1.2466   -0.7029 C   0  0  1  0  0  0  0  0  0  0  0  0
    2.2089    2.6914   -0.4474 C   0  0  1  0  0  0  0  0  0  0  0  0
    1.9452    4.0427    1.4367 O   0  0  0  0  0  0  0  0  0  0  0  0
    3.8819   -0.2458    4.0098 N   0  0  0  0  0  0  0  0  0  0  0  0
    4.3273    1.1709    2.3004 O   0  0  0  0  0  0  0  0  0  0  0  0
    1.5373   -0.6550    4.4665 C   0  0  0  0  0  0  0  0  0  0  0  0
    3.4331    0.8436   -0.9572 C   0  0  0  0  0  0  0  0  0  0  0  0
    1.0185    3.3527   -0.8466 O   0  0  0  0  0  0  0  0  0  0  0  0
    2.9752   -0.9137    4.6572 C   0  0  0  0  0  0  0  0  0  0  0  0
    4.3048    0.7189   -2.0644 O   0  0  0  0  0  0  0  0  0  0  0  0
    3.4098    0.9655   -3.5243 P   0  0  3  0  0  0  0  0  0  0  0  0
    2.5127   -0.4819   -3.2188 O   0  0  0  0  0  0  0  0  0  0  0  0
    2.6585    2.2259   -2.8685 O   0  0  0  0  0  0  0  0  0  0  0  0
    2.6088    1.1862   -4.8308 O   0  0  0  0  0  0  0  0  0  0  0  0
    3.3242   -1.8270   -3.9435 P   0  0  3  0  0  0  0  0  0  0  0  0
    4.7727   -1.1300   -3.6880 O   0  0  0  0  0  0  0  0  0  0  0  0
    4.0504   -3.0309   -4.5921 O   0  0  0  0  0  0  0  0  0  0  0  0
    3.3795   -1.8489    5.5689 N   0  0  0  0  0  0  0  0  0  0  0  0
    3.0330   -2.7896   -2.6740 O   0  0  0  0  0  0  0  0  0  0  0  0
    1.9251   -2.7135   -1.8515 C   0  0  0  0  0  0  0  0  0  0  0  0
    3.8016   -1.8394    1.2561 C   0  0  0  0  0  0  0  0  0  0  0  0
    2.8710   -2.8739    1.5830 O   0  0  0  0  0  0  0  0  0  0  0  0
    2.3366   -1.7507   -0.8017 C   0  0  1  0  0  0  0  0  0  0  0  0
    1.3161   -1.7177    0.2070 O   0  0  0  0  0  0  0  0  0  0  0  0
    4.8012   -2.8832   -0.8320 C   0  0  0  0  0  0  0  0  0  0  0  0
    4.0458   -1.6942   -0.2476 C   0  0  2  0  0  0  0  0  0  0  0  0
    5.1170   -0.2981   -0.4926 O   0  0  0  0  0  0  0  0  0  0  0  0
    7.4887   -0.2370   -0.7651 O   0  0  0  0  0  0  0  0  0  0  0  0
    6.3685    0.3057    1.4044 O   0  0  0  0  0  0  0  0  0  0  0  0
    6.5060   -0.8135    0.4006 P   0  0  0  0  0  0  0  0  0  0  0  0
    7.8951   -1.3289    1.2938 O   0  0  0  0  0  0  0  0  0  0  0  0
    0.6563    1.9527    1.8001 H   0  0  0  0  0  0  0  0  0  0  0  0
    3.5478    2.7510    1.1832 H   0  0  0  0  0  0  0  0  0  0  0  0
    0.1871    0.6953    3.5619 H   0  0  0  0  0  0  0  0  0  0  0  0
    1.3092    0.9422   -1.4829 H   0  0  0  0  0  0  0  0  0  0  0  0
    3.0968    3.1048   -0.9444 H   0  0  0  0  0  0  0  0  0  0  0  0
    1.1645    4.1470    0.8495 H   0  0  0  0  0  0  0  0  0  0  0  0
    0.8137   -1.2552    4.9943 H   0  0  0  0  0  0  0  0  0  0  0  0
    3.8849    0.9352    0.0214 H   0  0  0  0  0  0  0  0  0  0  0  0
    3.3107   -0.1480   -1.1593 H   0  0  0  0  0  0  0  0  0  0  0  0
    0.3174    2.6731   -0.8829 H   0  0  0  0  0  0  0  0  0  0  0  0
    3.2364    3.0155   -2.8942 H   0  0  0  0  0  0  0  0  0  0  0  0
    5.1503   -0.9173   -4.5694 H   0  0  0  0  0  0  0  0  0  0  0  0
    2.7474   -2.1313    6.3061 H   0  0  0  0  0  0  0  0  0  0  0  0
    4.3607   -1.8139    5.8289 H   0  0  0  0  0  0  0  0  0  0  0  0
    1.0399   -2.3194   -2.3796 H   0  0  0  0  0  0  0  0  0  0  0  0
    1.6382   -3.6454   -1.3677 H   0  0  0  0  0  0  0  0  0  0  0  0
    4.6896   -1.9891    1.8586 H   0  0  0  0  0  0  0  0  0  0  0  0
    3.3405   -0.9075    1.5243 H   0  0  0  0  0  0  0  0  0  0  0  0
    1.9983   -2.6031    1.2009 H   0  0  0  0  0  0  0  0  0  0  0  0
    1.9913   -0.9093   -1.3498 H   0  0  0  0  0  0  0  0  0  0  0  0
    1.3833   -0.8099    0.5868 H   0  0  0  0  0  0  0  0  0  0  0  0
    5.1357   -2.6474   -1.8438 H   0  0  0  0  0  0  0  0  0  0  0  0
    5.7011   -3.1437   -0.2804 H   0  0  0  0  0  0  0  0  0  0  0  0
    4.1593   -3.7685   -0.8404 H   0  0  0  0  0  0  0  0  0  0  0  0
    7.6699   -0.8395   -1.4963 H   0  0  0  0  0  0  0  0  0  0  0  0
    8.0576   -2.2788    1.1934 H   0  0  0  0  0  0  0  0  0  0  0  0
  1  3  1  0  0  0  0
  1  4  1  0  0  0  0
  1 38  1  1  0  0  0
  1  2  1  0  0  0  0
  2  5  1  0  0  0  0
  2  6  1  0  0  0  0
  3  7  1  0  0  0  0
  4  8  1  0  0  0  0
  4  9  1  0  0  0  0
  4 39  1  1  0  0  0
  5 10  1  0  0  0  0
  5 11  2  0  0  0  0
  6 12  2  0  0  0  0
  6 40  1  0  0  0  0
  7  8  1  0  0  0  0
  7 41  1  6  0  0  0
  7 13  1  0  0  0  0
  8 14  1  0  0  0  0
  8 42  1  6  0  0  0
  9 43  1  0  0  0  0
 10 15  2  0  0  0  0
 12 15  1  0  0  0  0
 12 44  1  0  0  0  0
 13 16  1  0  0  0  0
 13 45  1  0  0  0  0
 13 46  1  0  0  0  0
 14 47  1  0  0  0  0
 15 24  1  0  0  0  0
 16 17  1  0  0  0  0
 17 18  1  0  0  0  0
 17 19  1  0  0  0  0
 17 20  2  0  0  0  0
 18 21  1  0  0  0  0
 19 48  1  0  0  0  0
 21 22  1  0  0  0  0
 21 25  1  0  0  0  0
 21 23  2  0  0  0  0
 22 49  1  0  0  0  0
 24 50  1  0  0  0  0
 24 51  1  0  0  0  0
 25 26  1  0  0  0  0
 26 52  1  0  0  0  0
 26 53  1  0  0  0  0
 27 28  1  0  0  0  0
 27 54  1  0  0  0  0
 27 55  1  0  0  0  0
 28 56  1  0  0  0  0
 29 30  1  0  0  0  0
 29 57  1  6  0  0  0
 29 32  1  0  0  0  0
 29 26  1  0  0  0  0
 30 58  1  0  0  0  0
 31 59  1  0  0  0  0
 31 60  1  0  0  0  0
 31 61  1  0  0  0  0
 32 27  1  0  0  0  0
 32 31  1  0  0  0  0
 32 33  1  6  0  0  0
 33 36  1  0  0  0  0
 34 62  1  0  0  0  0
 36 34  1  0  0  0  0
 36 35  2  0  0  0  0
 36 37  1  0  0  0  0
 37 63  1  0  0  0  0
M  END
>  <DRUGBANK_ID>
DB01859

>  <SECONDARY_ACCESSION_NUMBERS>
EXPT02978

>  <COMMON_NAME>
4-CDP-2-C-methyl-D-erythritol 2-phosphate

>  <CAS_NUMBER>
263016-95-1

>  <SYNONYMS>
2-Phospho-4-(cytidine 5'-diphospho)-2-C-methyl-D-erythritol

$$$$
