
 OpenBabel10282417193D

 40 43  0  0  0  0  0  0  0  0999 V2000
   -0.2391   -1.4565   -0.1041 C   0  0  0  0  0  0  0  0  0  0  0  0
    1.6994    4.1638    3.1591 C   0  0  0  0  0  0  0  0  0  0  0  0
    1.6899    2.8894    3.7469 C   0  0  0  0  0  0  0  0  0  0  0  0
    0.9102   -0.7459   -0.3270 C   0  0  0  0  0  0  0  0  0  0  0  0
   -1.3559   -0.6690    0.0449 C   0  0  0  0  0  0  0  0  0  0  0  0
   -0.5211    4.9895    0.4544 C   0  0  0  0  0  0  0  0  0  0  0  0
    1.1970    4.6207   -1.1697 C   0  0  0  0  0  0  0  0  0  0  0  0
   -0.6354    3.4685    0.7700 C   0  0  0  0  0  0  0  0  0  0  0  0
    1.0956    3.1127   -0.9219 C   0  0  0  0  0  0  0  0  0  0  0  0
    3.1245    3.3610    1.3741 C   0  0  0  0  0  0  0  0  0  0  0  0
    1.8662    5.5909    1.0549 C   0  0  0  0  0  0  0  0  0  0  0  0
    2.8006   -0.0563    2.2246 C   0  0  0  0  0  0  0  0  0  0  0  0
    2.2988    4.3798    1.8953 C   0  0  0  0  0  0  0  0  0  0  0  0
    2.2787    1.8554    3.0584 C   0  0  0  0  0  0  0  0  0  0  0  0
    2.9852    2.0822    1.9064 C   0  0  0  0  0  0  0  0  0  0  0  0
   -0.1960    1.2987   -0.1865 C   0  0  0  0  0  0  0  0  0  0  0  0
    0.9417    0.5895   -0.3791 N   0  0  0  0  0  0  0  0  0  0  0  0
   -1.3623    0.6756    0.0551 N   0  0  0  0  0  0  0  0  0  0  0  0
    0.8185    5.4396    0.0005 N   0  0  0  0  0  0  0  0  0  0  0  0
   -0.2106    2.6814   -0.4133 N   0  0  0  0  0  0  0  0  0  0  0  0
    2.1980    0.5390    3.3854 O   0  0  0  0  0  0  0  0  0  0  0  0
    3.3514    0.9112    1.3028 O   0  0  0  0  0  0  0  0  0  0  0  0
   -0.2531   -2.5291   -0.0571 H   0  0  0  0  0  0  0  0  0  0  0  0
    1.1317    4.9596    3.6348 H   0  0  0  0  0  0  0  0  0  0  0  0
    1.1392    2.6919    4.6580 H   0  0  0  0  0  0  0  0  0  0  0  0
    1.8711   -1.2458   -0.4248 H   0  0  0  0  0  0  0  0  0  0  0  0
   -2.3364   -1.1285    0.1359 H   0  0  0  0  0  0  0  0  0  0  0  0
   -0.8658    5.6132    1.2867 H   0  0  0  0  0  0  0  0  0  0  0  0
   -1.2308    5.1915   -0.3647 H   0  0  0  0  0  0  0  0  0  0  0  0
    0.5329    4.8660   -2.0114 H   0  0  0  0  0  0  0  0  0  0  0  0
    2.2064    4.8866   -1.5036 H   0  0  0  0  0  0  0  0  0  0  0  0
   -0.0081    3.2440    1.6279 H   0  0  0  0  0  0  0  0  0  0  0  0
   -1.6558    3.2319    1.0901 H   0  0  0  0  0  0  0  0  0  0  0  0
    1.7752    2.8768   -0.1451 H   0  0  0  0  0  0  0  0  0  0  0  0
    1.4683    2.5450   -1.7796 H   0  0  0  0  0  0  0  0  0  0  0  0
    3.6326    3.4844    0.4188 H   0  0  0  0  0  0  0  0  0  0  0  0
    2.7580    6.0405    0.5996 H   0  0  0  0  0  0  0  0  0  0  0  0
    1.4971    6.3630    1.7443 H   0  0  0  0  0  0  0  0  0  0  0  0
    3.6060   -0.7340    2.5180 H   0  0  0  0  0  0  0  0  0  0  0  0
    2.0378   -0.6875    1.7629 H   0  0  0  0  0  0  0  0  0  0  0  0
  1 23  1  0  0  0  0
  2 24  1  0  0  0  0
  3  2  2  0  0  0  0
  3 25  1  0  0  0  0
  4  1  2  0  0  0  0
  4 26  1  0  0  0  0
  5  1  1  0  0  0  0
  5 27  1  0  0  0  0
  6 28  1  0  0  0  0
  6 29  1  0  0  0  0
  7 30  1  0  0  0  0
  7 31  1  0  0  0  0
  8  6  1  0  0  0  0
  8 32  1  0  0  0  0
  8 33  1  0  0  0  0
  9  7  1  0  0  0  0
  9 34  1  0  0  0  0
  9 35  1  0  0  0  0
 10 36  1  0  0  0  0
 11 37  1  0  0  0  0
 11 38  1  0  0  0  0
 12 39  1  0  0  0  0
 12 40  1  0  0  0  0
 13  2  1  0  0  0  0
 13 10  2  0  0  0  0
 13 11  1  0  0  0  0
 14  3  1  0  0  0  0
 15 10  1  0  0  0  0
 15 14  2  0  0  0  0
 17  4  1  0  0  0  0
 17 16  2  0  0  0  0
 18  5  2  0  0  0  0
 18 16  1  0  0  0  0
 19  6  1  0  0  0  0
 19  7  1  0  0  0  0
 19 11  1  0  0  0  0
 20  8  1  0  0  0  0
 20  9  1  0  0  0  0
 20 16  1  0  0  0  0
 21 12  1  0  0  0  0
 21 14  1  0  0  0  0
 22 12  1  0  0  0  0
 22 15  1  0  0  0  0
M  END
>  <DRUGBANK_ID>
DB12478

>  <COMMON_NAME>
Piribedil

>  <CAS_NUMBER>
3605-01-4

>  <UNII>
DO22K1PRDJ

>  <SYNONYMS>
Piribedil

$$$$
