RF3
 OpenBabel10282417173D

 41 44  0  0  0  0  0  0  0  0999 V2000
    1.3845   -0.7357    0.0067 C   0  0  0  0  0  0  0  0  0  0  0  0
    1.3737    0.6912    0.0008 C   0  0  0  0  0  0  0  0  0  0  0  0
    0.0931    1.1947   -0.0096 C   0  0  0  0  0  0  0  0  0  0  0  0
   -1.0829   -0.0501   -0.0330 S   0  0  0  0  0  0  0  0  0  0  0  0
    0.1137   -1.2848    0.0020 C   0  0  0  0  0  0  0  0  0  0  0  0
   -0.2717   -2.7535   -0.0070 C   0  0  0  0  0  0  0  0  0  0  0  0
   -1.0894   -3.1044    1.2370 C   0  0  0  0  0  0  0  0  0  0  0  0
   -0.6694   -2.8510    2.3712 O   0  0  0  0  0  0  0  0  0  0  0  0
   -2.3759   -3.5994    1.0366 N   0  0  0  0  0  0  0  0  0  0  0  0
   -3.4270   -3.1848    1.9474 C   0  0  0  0  0  0  0  0  0  0  0  0
   -3.9287   -4.3302    2.8106 C   0  0  0  0  0  0  0  0  0  0  0  0
   -2.7259   -4.7088    0.1548 C   0  0  0  0  0  0  0  0  0  0  0  0
   -3.2275   -5.9169    0.9685 C   0  0  0  0  0  0  0  0  0  0  0  0
   -4.3479   -5.5455    1.9645 C   0  0  0  0  0  0  0  0  0  0  0  0
   -4.7229   -6.6723    2.8856 C   0  0  0  0  0  0  0  0  0  0  0  0
   -5.7289   -6.7525    3.7313 N   0  0  0  0  0  0  0  0  0  0  0  0
   -3.8646   -7.7301    2.9802 O   0  0  0  0  0  0  0  0  0  0  0  0
   -4.2905   -8.4965    4.0624 N   0  0  0  0  0  0  0  0  0  0  0  0
   -5.3959   -7.8634    4.4779 C   0  0  0  0  0  0  0  0  0  0  0  0
   -6.2077   -8.3302    5.6399 C   0  0  0  0  0  0  0  0  0  0  0  0
   -7.5791   -8.4581    5.6048 C   0  0  0  0  0  0  0  0  0  0  0  0
   -8.1021   -8.9574    6.8347 C   0  0  0  0  0  0  0  0  0  0  0  0
   -7.1179   -9.1185    7.7859 C   0  0  0  0  0  0  0  0  0  0  0  0
   -5.5600   -8.7813    7.1538 S   0  0  0  0  0  0  0  0  0  0  0  0
    2.2902   -1.3293    0.0187 H   0  0  0  0  0  0  0  0  0  0  0  0
    2.2599    1.3154    0.0082 H   0  0  0  0  0  0  0  0  0  0  0  0
   -0.2053    2.2353   -0.0091 H   0  0  0  0  0  0  0  0  0  0  0  0
   -0.8215   -2.9742   -0.9268 H   0  0  0  0  0  0  0  0  0  0  0  0
    0.6360   -3.3680   -0.0023 H   0  0  0  0  0  0  0  0  0  0  0  0
   -4.2414   -2.8048    1.3192 H   0  0  0  0  0  0  0  0  0  0  0  0
   -3.0868   -2.3517    2.5711 H   0  0  0  0  0  0  0  0  0  0  0  0
   -4.7790   -3.9771    3.4077 H   0  0  0  0  0  0  0  0  0  0  0  0
   -3.1431   -4.6241    3.5183 H   0  0  0  0  0  0  0  0  0  0  0  0
   -1.8681   -5.0074   -0.4552 H   0  0  0  0  0  0  0  0  0  0  0  0
   -3.5218   -4.3565   -0.5105 H   0  0  0  0  0  0  0  0  0  0  0  0
   -2.3767   -6.3423    1.5166 H   0  0  0  0  0  0  0  0  0  0  0  0
   -3.5868   -6.6986    0.2869 H   0  0  0  0  0  0  0  0  0  0  0  0
   -5.2449   -5.2785    1.3885 H   0  0  0  0  0  0  0  0  0  0  0  0
   -8.1700   -8.2673    4.7175 H   0  0  0  0  0  0  0  0  0  0  0  0
   -9.1471   -9.1792    7.0135 H   0  0  0  0  0  0  0  0  0  0  0  0
   -7.2345   -9.4474    8.8104 H   0  0  0  0  0  0  0  0  0  0  0  0
  1 25  1  0  0  0  0
  2  1  1  0  0  0  0
  2 26  1  0  0  0  0
  3  2  2  0  0  0  0
  3 27  1  0  0  0  0
  4  3  1  0  0  0  0
  4  5  1  0  0  0  0
  5  1  2  0  0  0  0
  5  6  1  0  0  0  0
  6 28  1  0  0  0  0
  6 29  1  0  0  0  0
  7  6  1  0  0  0  0
  7  9  1  0  0  0  0
  8  7  2  0  0  0  0
  9 10  1  0  0  0  0
 10 11  1  0  0  0  0
 10 30  1  0  0  0  0
 10 31  1  0  0  0  0
 11 32  1  0  0  0  0
 11 33  1  0  0  0  0
 12  9  1  0  0  0  0
 12 13  1  0  0  0  0
 12 34  1  0  0  0  0
 12 35  1  0  0  0  0
 13 14  1  0  0  0  0
 13 36  1  0  0  0  0
 13 37  1  0  0  0  0
 14 11  1  0  0  0  0
 14 15  1  0  0  0  0
 14 38  1  0  0  0  0
 15 17  1  0  0  0  0
 16 15  2  0  0  0  0
 16 19  1  0  0  0  0
 17 18  1  0  0  0  0
 19 18  2  0  0  0  0
 20 19  1  0  0  0  0
 20 21  2  0  0  0  0
 21 39  1  0  0  0  0
 22 21  1  0  0  0  0
 22 40  1  0  0  0  0
 23 22  2  0  0  0  0
 23 41  1  0  0  0  0
 24 20  1  0  0  0  0
 24 23  1  0  0  0  0
M  END
>  <DRUGBANK_ID>
DB08471

>  <COMMON_NAME>
1-(thiophen-2-ylacetyl)-4-(3-thiophen-2-yl-1,2,4-oxadiazol-5-yl)piperidine

$$$$
