2IH
 OpenBabel10282417163D

 34 35  0  0  0  0  0  0  0  0999 V2000
   -1.2392   -0.0779   -0.0082 C   0  0  0  0  0  0  0  0  0  0  0  0
   -0.4155   -1.1786   -0.0098 C   0  0  0  0  0  0  0  0  0  0  0  0
    0.8954   -0.8109   -0.1084 N   0  0  0  0  0  0  0  0  0  0  0  0
    0.8712    0.4980   -0.2052 C   0  0  0  0  0  0  0  0  0  0  0  0
   -0.3963    0.9931   -0.0647 N   0  0  0  0  0  0  0  0  0  0  0  0
   -0.8109    2.3800    0.0288 C   0  0  0  0  0  0  0  0  0  0  0  0
   -0.2594    3.0891    1.2685 C   0  0  0  0  0  0  0  0  0  0  0  0
    1.2657    3.1547    1.2670 C   0  0  0  0  0  0  0  0  0  0  0  0
    1.7849    3.8245   -0.0208 C   0  0  0  0  0  0  0  0  0  0  0  0
    1.4861    5.3235   -0.0129 C   0  0  0  0  0  0  0  0  0  0  0  0
    2.0461    6.0267    1.2296 C   0  0  0  0  0  0  0  0  0  0  0  0
    3.4877    5.9195    1.3391 N   0  0  0  0  0  0  0  0  0  0  0  0
    4.3617    6.9638    1.2591 C   0  0  0  0  0  0  0  0  0  0  0  0
    4.2438    4.7891    1.4928 C   0  0  0  0  0  0  0  0  0  0  0  0
    5.5387    5.1906    1.3344 C   0  0  0  0  0  0  0  0  0  0  0  0
    5.6065    6.5529    1.2258 N   0  0  0  0  0  0  0  0  0  0  0  0
   -2.3118    0.0291    0.0357 H   0  0  0  0  0  0  0  0  0  0  0  0
   -0.6957   -2.2198    0.0418 H   0  0  0  0  0  0  0  0  0  0  0  0
    1.7576    1.1021   -0.3397 H   0  0  0  0  0  0  0  0  0  0  0  0
   -0.5319    2.8740   -0.9066 H   0  0  0  0  0  0  0  0  0  0  0  0
   -1.9049    2.4142    0.0585 H   0  0  0  0  0  0  0  0  0  0  0  0
   -0.6648    4.1079    1.3169 H   0  0  0  0  0  0  0  0  0  0  0  0
   -0.5994    2.5877    2.1815 H   0  0  0  0  0  0  0  0  0  0  0  0
    1.5994    3.6624    2.1753 H   0  0  0  0  0  0  0  0  0  0  0  0
    1.7054    2.1649    1.4031 H   0  0  0  0  0  0  0  0  0  0  0  0
    2.8505    3.6352   -0.1654 H   0  0  0  0  0  0  0  0  0  0  0  0
    1.3690    3.3792   -0.9277 H   0  0  0  0  0  0  0  0  0  0  0  0
    1.8912    5.7763   -0.9248 H   0  0  0  0  0  0  0  0  0  0  0  0
    0.4000    5.4756   -0.0596 H   0  0  0  0  0  0  0  0  0  0  0  0
    1.7735    7.0867    1.1953 H   0  0  0  0  0  0  0  0  0  0  0  0
    1.6153    5.6446    2.1604 H   0  0  0  0  0  0  0  0  0  0  0  0
    4.0343    7.9957    1.2120 H   0  0  0  0  0  0  0  0  0  0  0  0
    3.8387    3.7930    1.6251 H   0  0  0  0  0  0  0  0  0  0  0  0
    6.4204    4.5600    1.3034 H   0  0  0  0  0  0  0  0  0  0  0  0
  1  2  2  0  0  0  0
  1  5  1  0  0  0  0
  1 17  1  0  0  0  0
  2  3  1  0  0  0  0
  2 18  1  0  0  0  0
  3  4  2  0  0  0  0
  4  5  1  0  0  0  0
  4 19  1  0  0  0  0
  5  6  1  0  0  0  0
  6  7  1  0  0  0  0
  6 20  1  0  0  0  0
  6 21  1  0  0  0  0
  7  8  1  0  0  0  0
  7 22  1  0  0  0  0
  7 23  1  0  0  0  0
  8  9  1  0  0  0  0
  8 24  1  0  0  0  0
  8 25  1  0  0  0  0
  9 10  1  0  0  0  0
  9 26  1  0  0  0  0
  9 27  1  0  0  0  0
 10 11  1  0  0  0  0
 10 28  1  0  0  0  0
 10 29  1  0  0  0  0
 11 12  1  0  0  0  0
 11 30  1  0  0  0  0
 11 31  1  0  0  0  0
 12 13  1  0  0  0  0
 12 14  1  0  0  0  0
 13 16  2  0  0  0  0
 13 32  1  0  0  0  0
 14 15  2  0  0  0  0
 14 33  1  0  0  0  0
 15 16  1  0  0  0  0
 15 34  1  0  0  0  0
M  END
>  <DRUGBANK_ID>
DB06968

>  <COMMON_NAME>
1,1'-HEXANE-1,6-DIYLBIS(1H-IMIDAZOLE)

$$$$
