
 OpenBabel10282417133D

 26 25  0  0  1  0  0  0  0  0999 V2000
    1.0224    0.1350   -0.1451 N   0  0  0  0  0  0  0  0  0  0  0  0
    0.5081   -1.2182   -0.3717 C   0  0  1  0  0  0  0  0  0  0  0  0
    1.0167   -2.1466    0.7612 C   0  0  0  0  0  0  0  0  0  0  0  0
    0.6007   -1.7638    2.1980 C   0  0  0  0  0  0  0  0  0  0  0  0
   -0.9076   -1.8135    2.4359 C   0  0  0  0  0  0  0  0  0  0  0  0
   -1.5321   -3.1299    1.9928 C   0  0  0  0  0  0  0  0  0  0  0  0
   -1.0558   -4.1549    2.9535 N   0  3  0  0  0  0  0  0  0  0  0  0
   -1.0371   -1.1481   -0.6069 C   0  0  0  0  0  0  0  0  0  0  0  0
   -1.5911   -1.9582   -1.5467 N   0  0  0  0  0  0  0  0  0  0  0  0
   -1.8271   -0.4495    0.0337 O   0  0  0  0  0  0  0  0  0  0  0  0
    0.6505    0.5114    0.7288 H   0  0  0  0  0  0  0  0  0  0  0  0
    2.0364    0.1167   -0.0420 H   0  0  0  0  0  0  0  0  0  0  0  0
    0.9417   -1.5849   -1.3089 H   0  0  0  0  0  0  0  0  0  0  0  0
    0.7477   -3.1877    0.5480 H   0  0  0  0  0  0  0  0  0  0  0  0
    2.1174   -2.1513    0.7429 H   0  0  0  0  0  0  0  0  0  0  0  0
    1.1023   -2.4281    2.9137 H   0  0  0  0  0  0  0  0  0  0  0  0
    0.9663   -0.7608    2.4447 H   0  0  0  0  0  0  0  0  0  0  0  0
   -1.1450   -1.6208    3.4871 H   0  0  0  0  0  0  0  0  0  0  0  0
   -1.3568   -0.9605    1.9480 H   0  0  0  0  0  0  0  0  0  0  0  0
   -2.6234   -3.1179    2.0279 H   0  0  0  0  0  0  0  0  0  0  0  0
   -1.2352   -3.4742    0.9977 H   0  0  0  0  0  0  0  0  0  0  0  0
   -1.3506   -3.8951    3.9033 H   0  0  0  0  0  0  0  0  0  0  0  0
   -1.4216   -5.0903    2.7456 H   0  0  0  0  0  0  0  0  0  0  0  0
   -0.0295   -4.2181    2.9596 H   0  0  0  0  0  0  0  0  0  0  0  0
   -2.5772   -1.7276   -1.6666 H   0  0  0  0  0  0  0  0  0  0  0  0
   -1.1082   -2.0144   -2.4368 H   0  0  0  0  0  0  0  0  0  0  0  0
  1 11  1  0  0  0  0
  1 12  1  0  0  0  0
  2  1  1  0  0  0  0
  2  3  1  0  0  0  0
  2  8  1  0  0  0  0
  2 13  1  6  0  0  0
  3  4  1  0  0  0  0
  3 14  1  0  0  0  0
  3 15  1  0  0  0  0
  4  5  1  0  0  0  0
  4 16  1  0  0  0  0
  4 17  1  0  0  0  0
  5  6  1  0  0  0  0
  5 18  1  0  0  0  0
  5 19  1  0  0  0  0
  6  7  1  0  0  0  0
  6 20  1  0  0  0  0
  6 21  1  0  0  0  0
  7 22  1  0  0  0  0
  7 23  1  0  0  0  0
  7 24  1  0  0  0  0
  8  9  1  0  0  0  0
  8 10  2  0  0  0  0
  9 25  1  0  0  0  0
  9 26  1  0  0  0  0
M  CHG  1   7   1
M  END
>  <DRUGBANK_ID>
DB03988

>  <SECONDARY_ACCESSION_NUMBERS>
EXPT02078

>  <COMMON_NAME>
2,6-Diamino-Hexanoic Acid Amide

$$$$
