
 OpenBabel10282417123D

 11 10  0  0  0  0  0  0  0  0999 V2000
    0.9917    0.1069   -0.1075 N   0  0  0  0  0  0  0  0  0  0  0  0
    0.2985    0.9552   -0.9366 C   0  0  0  0  0  0  0  0  0  0  0  0
   -1.0448    0.9718   -0.9529 C   0  0  0  0  0  0  0  0  0  0  0  0
    0.9718    1.9279   -1.8873 C   0  0  0  0  0  0  0  0  0  0  0  0
    2.3210    1.8942   -1.8543 O   0  0  0  0  0  0  0  0  0  0  0  0
    0.3674    2.6885   -2.6307 O   0  0  0  0  0  0  0  0  0  0  0  0
    0.4536   -0.5093    0.4948 H   0  0  0  0  0  0  0  0  0  0  0  0
    1.9928    0.0447   -0.0468 H   0  0  0  0  0  0  0  0  0  0  0  0
   -1.6047    1.6387   -1.6047 H   0  0  0  0  0  0  0  0  0  0  0  0
   -1.6353    0.3214   -0.3172 H   0  0  0  0  0  0  0  0  0  0  0  0
    2.6862    1.2537   -1.2284 H   0  0  0  0  0  0  0  0  0  0  0  0
  1  2  1  0  0  0  0
  1  7  1  0  0  0  0
  1  8  1  0  0  0  0
  2  3  2  0  0  0  0
  2  4  1  0  0  0  0
  3  9  1  0  0  0  0
  3 10  1  0  0  0  0
  4  5  1  0  0  0  0
  4  6  2  0  0  0  0
  5 11  1  0  0  0  0
M  END
>  <DRUGBANK_ID>
DB02688

>  <SECONDARY_ACCESSION_NUMBERS>
EXPT01186

>  <COMMON_NAME>
2,3-Didehydroalanine

>  <CAS_NUMBER>
1948-56-7

>  <UNII>
98RA387EKY

$$$$
