099
 OpenBabel10282417163D

 49 51  0  0  0  0  0  0  0  0999 V2000
    9.1985   -5.3536   -2.3600 C   0  0  0  0  0  0  0  0  0  0  0  0
    6.9832   -3.8275   -1.4946 C   0  0  0  0  0  0  0  0  0  0  0  0
    2.8515   -8.3516    1.7869 C   0  0  0  0  0  0  0  0  0  0  0  0
    0.8355   -7.4410    0.8112 C   0  0  0  0  0  0  0  0  0  0  0  0
    1.7833   -6.4132    2.7799 C   0  0  0  0  0  0  0  0  0  0  0  0
    4.0610   -7.1349    3.6017 C   0  0  0  0  0  0  0  0  0  0  0  0
    0.8007   -6.4623    1.8013 C   0  0  0  0  0  0  0  0  0  0  0  0
    7.0313   -5.2003   -1.2941 C   0  0  0  0  0  0  0  0  0  0  0  0
    4.9402   -5.8636    1.5443 C   0  0  0  0  0  0  0  0  0  0  0  0
    5.0049   -6.0107    3.0793 C   0  0  1  0  0  0  0  0  0  0  0  0
    9.1630   -3.9721   -2.5615 C   0  0  0  0  0  0  0  0  0  0  0  0
    8.0590   -3.2144   -2.1409 C   0  0  0  0  0  0  0  0  0  0  0  0
    1.8622   -8.3901    0.8093 C   0  0  0  0  0  0  0  0  0  0  0  0
    7.9301   -7.4047   -1.4247 C   0  0  0  0  0  0  0  0  0  0  0  0
    4.6812   -4.6376    3.6988 C   0  0  0  0  0  0  0  0  0  0  0  0
    2.8330   -7.3447    2.7590 C   0  0  0  0  0  0  0  0  0  0  0  0
    8.1181   -5.9562   -1.7418 C   0  0  0  0  0  0  0  0  0  0  0  0
    4.7918   -4.6142    5.2153 C   0  0  0  0  0  0  0  0  0  0  0  0
    6.4146   -7.4905   -1.1782 C   0  0  2  0  0  0  0  0  0  0  0  0
    6.0124   -6.0814   -0.6299 C   0  0  1  0  0  0  0  0  0  0  0  0
    5.7357   -3.7724    5.7332 N   0  0  0  0  0  0  0  0  0  0  0  0
    6.0947   -5.9981    0.8257 N   0  0  0  0  0  0  0  0  0  0  0  0
   -0.1587   -5.4923    1.8283 O   0  0  0  0  0  0  0  0  0  0  0  0
    6.1567   -8.5859   -0.2978 O   0  0  0  0  0  0  0  0  0  0  0  0
    5.8247   -3.7365    7.1454 O   0  0  0  0  0  0  0  0  0  0  0  0
    4.0985   -5.2977    5.9718 O   0  0  0  0  0  0  0  0  0  0  0  0
    3.8981   -5.5859    0.9440 O   0  0  0  0  0  0  0  0  0  0  0  0
    6.0295   -6.2776    3.3721 H   0  0  0  0  0  0  0  0  0  0  0  0
    5.8977   -7.6733   -2.1323 H   0  0  0  0  0  0  0  0  0  0  0  0
    5.0120   -5.8281   -1.0004 H   0  0  0  0  0  0  0  0  0  0  0  0
   10.0515   -5.9384   -2.6879 H   0  0  0  0  0  0  0  0  0  0  0  0
    6.1285   -3.2404   -1.1697 H   0  0  0  0  0  0  0  0  0  0  0  0
    3.6884   -9.0443    1.7428 H   0  0  0  0  0  0  0  0  0  0  0  0
    0.0946   -7.4659    0.0205 H   0  0  0  0  0  0  0  0  0  0  0  0
    1.7796   -5.5871    3.4860 H   0  0  0  0  0  0  0  0  0  0  0  0
    4.6282   -8.0724    3.6680 H   0  0  0  0  0  0  0  0  0  0  0  0
    3.7159   -6.9719    4.6229 H   0  0  0  0  0  0  0  0  0  0  0  0
    9.9981   -3.4784   -3.0527 H   0  0  0  0  0  0  0  0  0  0  0  0
    8.0450   -2.1415   -2.3204 H   0  0  0  0  0  0  0  0  0  0  0  0
    1.9217   -9.1336    0.0209 H   0  0  0  0  0  0  0  0  0  0  0  0
    8.4843   -7.6767   -0.5205 H   0  0  0  0  0  0  0  0  0  0  0  0
    8.2290   -8.0615   -2.2457 H   0  0  0  0  0  0  0  0  0  0  0  0
    5.3530   -3.8825    3.2713 H   0  0  0  0  0  0  0  0  0  0  0  0
    3.6697   -4.3137    3.4332 H   0  0  0  0  0  0  0  0  0  0  0  0
    6.2552   -3.0726    5.2180 H   0  0  0  0  0  0  0  0  0  0  0  0
    6.9960   -6.1181    1.2673 H   0  0  0  0  0  0  0  0  0  0  0  0
   -0.7892   -5.6598    1.1110 H   0  0  0  0  0  0  0  0  0  0  0  0
    5.1926   -8.6811   -0.2137 H   0  0  0  0  0  0  0  0  0  0  0  0
    5.1645   -4.4147    7.4174 H   0  0  0  0  0  0  0  0  0  0  0  0
  1 11  2  0  0  0  0
  1 17  1  0  0  0  0
  1 31  1  0  0  0  0
  2  8  1  0  0  0  0
  2 12  2  0  0  0  0
  2 32  1  0  0  0  0
  3 13  2  0  0  0  0
  3 16  1  0  0  0  0
  3 33  1  0  0  0  0
  4  7  2  0  0  0  0
  4 13  1  0  0  0  0
  4 34  1  0  0  0  0
  5  7  1  0  0  0  0
  5 16  2  0  0  0  0
  5 35  1  0  0  0  0
  6 16  1  0  0  0  0
  6 36  1  0  0  0  0
  6 37  1  0  0  0  0
  7 23  1  0  0  0  0
  8 17  2  0  0  0  0
  8 20  1  0  0  0  0
  9 22  1  0  0  0  0
  9 27  2  0  0  0  0
 10 15  1  0  0  0  0
 10 28  1  1  0  0  0
 10  9  1  0  0  0  0
 10  6  1  0  0  0  0
 11 12  1  0  0  0  0
 11 38  1  0  0  0  0
 12 39  1  0  0  0  0
 13 40  1  0  0  0  0
 14 17  1  0  0  0  0
 14 19  1  0  0  0  0
 14 41  1  0  0  0  0
 14 42  1  0  0  0  0
 15 18  1  0  0  0  0
 15 43  1  0  0  0  0
 15 44  1  0  0  0  0
 18 21  1  0  0  0  0
 18 26  2  0  0  0  0
 19 20  1  0  0  0  0
 19 29  1  6  0  0  0
 19 24  1  0  0  0  0
 20 30  1  6  0  0  0
 20 22  1  0  0  0  0
 21 25  1  0  0  0  0
 21 45  1  0  0  0  0
 22 46  1  0  0  0  0
 23 47  1  0  0  0  0
 24 48  1  0  0  0  0
 25 49  1  0  0  0  0
M  END
>  <DRUGBANK_ID>
DB06837

>  <COMMON_NAME>
(2R)-N~4~-hydroxy-2-(3-hydroxybenzyl)-N~1~-[(1S,2R)-2-hydroxy-2,3-dihydro-1H-inden-1-yl]butanediamide

$$$$
