
 OpenBabel10282417133D

162163  0  0  1  0  0  0  0  0999 V2000
   -0.8327    7.4615   -0.6934 C   0  0  0  0  0  0  0  0  0  0  0  0
   -8.2269   12.3601    2.8393 C   0  0  0  0  0  0  0  0  0  0  0  0
   -1.1623    5.9786   -0.6605 C   0  0  0  0  0  0  0  0  0  0  0  0
   -6.8783   11.6989    3.0692 C   0  0  0  0  0  0  0  0  0  0  0  0
   -0.3809    5.2941    0.4604 C   0  0  0  0  0  0  0  0  0  0  0  0
   -6.6556   11.4732    4.5643 C   0  0  0  0  0  0  0  0  0  0  0  0
   -0.7357    5.9057    1.8200 C   0  0  0  0  0  0  0  0  0  0  0  0
   -7.7490   10.5707    5.1411 C   0  0  0  0  0  0  0  0  0  0  0  0
   -2.2376    5.7633    2.0826 C   0  0  0  0  0  0  0  0  0  0  0  0
   -7.7516    9.2317    4.3997 C   0  0  0  0  0  0  0  0  0  0  0  0
   -2.5968    4.2813    2.0760 C   0  0  0  0  0  0  0  0  0  0  0  0
   -6.3800    8.5724    4.5789 C   0  0  0  0  0  0  0  0  0  0  0  0
   -1.7424    3.5881    3.1379 C   0  0  0  0  0  0  0  0  0  0  0  0
   -6.1528    8.3805    6.0758 C   0  0  0  0  0  0  0  0  0  0  0  0
   -2.0641    4.2203    4.4878 C   0  0  0  0  0  0  0  0  0  0  0  0
   -7.3422    7.5670    6.5778 C   0  0  0  0  0  0  0  0  0  0  0  0
   -3.5450    3.9971    4.6957 C   0  0  0  0  0  0  0  0  0  0  0  0
   -7.3874    6.3004    5.6849 C   0  0  0  0  0  0  0  0  0  0  0  0
   -3.7949    2.4914    4.4151 C   0  0  0  0  0  0  0  0  0  0  0  0
   -6.0561    5.6162    5.8916 C   0  0  0  0  0  0  0  0  0  0  0  0
   -2.7260    1.6313    5.2973 C   0  0  0  0  0  0  0  0  0  0  0  0
   -5.9731    5.5039    7.3807 C   0  0  0  0  0  0  0  0  0  0  0  0
   -2.6350    2.1488    6.6950 C   0  0  0  0  0  0  0  0  0  0  0  0
   -7.4419    4.9763    7.7824 C   0  0  0  0  0  0  0  0  0  0  0  0
   -4.0402    1.9731    6.8885 C   0  0  0  0  0  0  0  0  0  0  0  0
   -7.6859    3.5297    7.2192 C   0  0  0  0  0  0  0  0  0  0  0  0
   -4.6373    0.5997    7.0684 C   0  0  0  0  0  0  0  0  0  0  0  0
   -6.4409    2.7341    7.1781 C   0  0  0  0  0  0  0  0  0  0  0  0
   -4.1068    0.0438    8.4401 C   0  0  0  0  0  0  0  0  0  0  0  0
   -5.8229    2.1144    8.4105 C   0  0  0  0  0  0  0  0  0  0  0  0
   -4.8147    0.1884   10.2672 C   0  0  0  0  0  0  0  0  0  0  0  0
   -6.6105    1.0438    8.9361 C   0  0  0  0  0  0  0  0  0  0  0  0
   -6.5920    0.0062   11.0023 C   0  0  0  0  0  0  0  0  0  0  0  0
   -6.2986   -0.6781    8.6438 C   0  0  0  0  0  0  0  0  0  0  0  0
   -6.8052    3.8965    9.9580 C   0  0  0  0  0  0  0  0  0  0  0  0
   -7.3218   -3.2936    9.5937 C   0  0  0  0  0  0  0  0  0  0  0  0
   -6.7163   -3.0100   12.0658 C   0  0  0  0  0  0  0  0  0  0  0  0
   -5.1158    2.8847   14.4099 C   0  0  0  0  0  0  0  0  0  0  0  0
   -6.3436   -3.6168   10.6889 C   0  0  2  0  0  0  0  0  0  0  0  0
   -5.5096    4.1518   10.6513 C   0  0  2  0  0  0  0  0  0  0  0  0
   -5.9620    1.5357   14.2979 C   0  0  2  0  0  0  0  0  0  0  0  0
   -7.6689   -1.0850   10.8736 C   0  0  0  0  0  0  0  0  0  0  0  0
   -5.0395   -1.9202    9.4351 C   0  0  0  0  0  0  0  0  0  0  0  0
   -3.9720    4.2361    9.8845 C   0  0  1  0  0  0  0  0  0  0  0  0
   -5.9231    0.9867   15.7071 C   0  0  1  0  0  0  0  0  0  0  0  0
   -2.9530    4.3033   10.9719 C   0  0  1  0  0  0  0  0  0  0  0  0
   -6.7497   -0.2874   15.7794 C   0  0  1  0  0  0  0  0  0  0  0  0
   -3.1181    3.0365   11.7883 C   0  0  2  0  0  0  0  0  0  0  0  0
   -6.2979   -1.3803   14.8092 C   0  0  2  0  0  0  0  0  0  0  0  0
   -6.2802   -0.8009   13.4449 C   0  0  2  0  0  0  0  0  0  0  0  0
   -4.5481    2.8626   12.2400 C   0  0  1  0  0  0  0  0  0  0  0  0
   -8.1202    3.9765   10.4323 O   0  0  0  0  0  0  0  0  0  0  0  0
   -8.7001   -1.0514   11.6966 O   0  0  0  0  0  0  0  0  0  0  0  0
   -3.7845   -1.8684    9.4187 O   0  0  0  0  0  0  0  0  0  0  0  0
   -3.2982    3.2171    9.1225 O   0  0  0  0  0  0  0  0  0  0  0  0
   -4.5525    0.6667   16.0264 O   0  0  0  0  0  0  0  0  0  0  0  0
   -1.6204    4.3120   10.4177 O   0  0  0  0  0  0  0  0  0  0  0  0
   -6.6631   -0.8136   17.0954 O   0  0  0  0  0  0  0  0  0  0  0  0
   -2.2901    3.1086   12.9329 O   0  0  0  0  0  0  0  0  0  0  0  0
   -7.2403   -2.4494   14.8303 O   0  0  0  0  0  0  0  0  0  0  0  0
   -7.7670   -1.9124    9.8343 O   0  0  0  0  0  0  0  0  0  0  0  0
   -5.8849   -1.8408   12.4558 O   0  0  0  0  0  0  0  0  0  0  0  0
   -4.9066    3.6958   13.2833 O   0  0  0  0  0  0  0  0  0  0  0  0
   -5.2143   -2.9722   10.2004 O   0  0  0  0  0  0  0  0  0  0  0  0
   -5.6068    3.0025   11.4032 O   0  0  0  0  0  0  0  0  0  0  0  0
   -5.4068    0.4009   13.4895 O   0  0  0  0  0  0  0  0  0  0  0  0
   -6.0113   -4.6544   10.7708 H   0  0  0  0  0  0  0  0  0  0  0  0
   -5.6905    5.1262   11.1135 H   0  0  0  0  0  0  0  0  0  0  0  0
   -6.9678    1.7844   13.9259 H   0  0  0  0  0  0  0  0  0  0  0  0
   -3.9202    5.0925    9.2109 H   0  0  0  0  0  0  0  0  0  0  0  0
   -6.2680    1.7306   16.4335 H   0  0  0  0  0  0  0  0  0  0  0  0
   -3.1188    5.2148   11.5327 H   0  0  0  0  0  0  0  0  0  0  0  0
   -7.7971   -0.0298   15.5755 H   0  0  0  0  0  0  0  0  0  0  0  0
   -2.7935    2.1294   11.2570 H   0  0  0  0  0  0  0  0  0  0  0  0
   -5.2930   -1.7594   15.0231 H   0  0  0  0  0  0  0  0  0  0  0  0
   -7.2804   -0.4153   13.2385 H   0  0  0  0  0  0  0  0  0  0  0  0
   -4.5728    1.8226   12.4564 H   0  0  0  0  0  0  0  0  0  0  0  0
   -1.0992    7.9657    0.2416 H   0  0  0  0  0  0  0  0  0  0  0  0
   -1.3853    7.9636   -1.4867 H   0  0  0  0  0  0  0  0  0  0  0  0
    0.2411    7.5957   -0.8516 H   0  0  0  0  0  0  0  0  0  0  0  0
   -8.2625   13.3148    3.3714 H   0  0  0  0  0  0  0  0  0  0  0  0
   -8.4008   12.5256    1.7768 H   0  0  0  0  0  0  0  0  0  0  0  0
   -9.0577   11.7443    3.2003 H   0  0  0  0  0  0  0  0  0  0  0  0
   -2.2436    5.8439   -0.5346 H   0  0  0  0  0  0  0  0  0  0  0  0
   -0.9219    5.5092   -1.6173 H   0  0  0  0  0  0  0  0  0  0  0  0
   -6.0719   12.3151    2.6660 H   0  0  0  0  0  0  0  0  0  0  0  0
   -6.8298   10.7567    2.5092 H   0  0  0  0  0  0  0  0  0  0  0  0
   -0.5869    4.2159    0.4415 H   0  0  0  0  0  0  0  0  0  0  0  0
    0.6953    5.3767    0.2907 H   0  0  0  0  0  0  0  0  0  0  0  0
   -6.6398   12.4221    5.1046 H   0  0  0  0  0  0  0  0  0  0  0  0
   -5.6590   11.0418    4.7233 H   0  0  0  0  0  0  0  0  0  0  0  0
   -0.1325    5.4325    2.6024 H   0  0  0  0  0  0  0  0  0  0  0  0
   -0.4468    6.9542    1.8910 H   0  0  0  0  0  0  0  0  0  0  0  0
   -8.7382   11.0259    5.0853 H   0  0  0  0  0  0  0  0  0  0  0  0
   -7.5944   10.4505    6.2196 H   0  0  0  0  0  0  0  0  0  0  0  0
   -2.4967    6.2523    3.0281 H   0  0  0  0  0  0  0  0  0  0  0  0
   -2.8530    6.2943    1.3559 H   0  0  0  0  0  0  0  0  0  0  0  0
   -7.9841    9.3181    3.3393 H   0  0  0  0  0  0  0  0  0  0  0  0
   -8.5813    8.6156    4.7662 H   0  0  0  0  0  0  0  0  0  0  0  0
   -3.6773    4.1670    2.2278 H   0  0  0  0  0  0  0  0  0  0  0  0
   -2.4444    3.7918    1.1143 H   0  0  0  0  0  0  0  0  0  0  0  0
   -5.5537    9.1262    4.1420 H   0  0  0  0  0  0  0  0  0  0  0  0
   -6.3419    7.6360    4.0123 H   0  0  0  0  0  0  0  0  0  0  0  0
   -1.9305    2.5129    3.0907 H   0  0  0  0  0  0  0  0  0  0  0  0
   -0.6706    3.6072    2.9718 H   0  0  0  0  0  0  0  0  0  0  0  0
   -6.0604    9.3011    6.6500 H   0  0  0  0  0  0  0  0  0  0  0  0
   -5.1799    7.9059    6.2514 H   0  0  0  0  0  0  0  0  0  0  0  0
   -1.4511    3.7642    5.2657 H   0  0  0  0  0  0  0  0  0  0  0  0
   -1.8179    5.2771    4.5882 H   0  0  0  0  0  0  0  0  0  0  0  0
   -8.3159    8.0500    6.5756 H   0  0  0  0  0  0  0  0  0  0  0  0
   -7.2164    7.4247    7.6606 H   0  0  0  0  0  0  0  0  0  0  0  0
   -3.7963    4.3422    5.7051 H   0  0  0  0  0  0  0  0  0  0  0  0
   -4.1864    4.6153    4.0591 H   0  0  0  0  0  0  0  0  0  0  0  0
   -7.5833    6.4038    4.6279 H   0  0  0  0  0  0  0  0  0  0  0  0
   -8.2528    5.6802    5.9177 H   0  0  0  0  0  0  0  0  0  0  0  0
   -4.8893    2.3296    4.5294 H   0  0  0  0  0  0  0  0  0  0  0  0
   -3.7397    2.1326    3.3954 H   0  0  0  0  0  0  0  0  0  0  0  0
   -5.1730    6.1238    5.5018 H   0  0  0  0  0  0  0  0  0  0  0  0
   -6.0633    4.6502    5.3908 H   0  0  0  0  0  0  0  0  0  0  0  0
   -3.0466    0.5890    5.3196 H   0  0  0  0  0  0  0  0  0  0  0  0
   -1.7046    1.6412    4.9624 H   0  0  0  0  0  0  0  0  0  0  0  0
   -5.6798    6.3959    7.9622 H   0  0  0  0  0  0  0  0  0  0  0  0
   -5.0914    4.9012    7.6217 H   0  0  0  0  0  0  0  0  0  0  0  0
   -2.0649    1.6535    7.4777 H   0  0  0  0  0  0  0  0  0  0  0  0
   -2.4564    3.2282    6.8500 H   0  0  0  0  0  0  0  0  0  0  0  0
   -8.3852    5.5000    7.6426 H   0  0  0  0  0  0  0  0  0  0  0  0
   -7.4898    5.3660    8.8031 H   0  0  0  0  0  0  0  0  0  0  0  0
   -4.1976    2.8455    7.4926 H   0  0  0  0  0  0  0  0  0  0  0  0
   -4.6548    2.3485    6.1327 H   0  0  0  0  0  0  0  0  0  0  0  0
   -7.9120    3.5987    6.1437 H   0  0  0  0  0  0  0  0  0  0  0  0
   -8.4572    2.8914    7.6444 H   0  0  0  0  0  0  0  0  0  0  0  0
   -5.7289    0.6111    6.9866 H   0  0  0  0  0  0  0  0  0  0  0  0
   -4.6159   -0.0589    6.1871 H   0  0  0  0  0  0  0  0  0  0  0  0
   -5.7458    3.4497    6.8163 H   0  0  0  0  0  0  0  0  0  0  0  0
   -6.5617    2.0422    6.3460 H   0  0  0  0  0  0  0  0  0  0  0  0
   -4.1680   -0.9329    7.9294 H   0  0  0  0  0  0  0  0  0  0  0  0
   -3.0404    0.2206    8.5182 H   0  0  0  0  0  0  0  0  0  0  0  0
   -5.3992    2.8026    9.0951 H   0  0  0  0  0  0  0  0  0  0  0  0
   -4.8333    1.7850    8.6476 H   0  0  0  0  0  0  0  0  0  0  0  0
   -4.1965   -0.3837   10.9846 H   0  0  0  0  0  0  0  0  0  0  0  0
   -4.4582    1.1722   10.5326 H   0  0  0  0  0  0  0  0  0  0  0  0
   -7.6731    1.2945    8.9791 H   0  0  0  0  0  0  0  0  0  0  0  0
   -6.3094    1.4599    9.9110 H   0  0  0  0  0  0  0  0  0  0  0  0
   -6.6964    0.7810   11.7935 H   0  0  0  0  0  0  0  0  0  0  0  0
   -7.4510    0.5788   10.5901 H   0  0  0  0  0  0  0  0  0  0  0  0
   -6.3071   -0.9691    7.5965 H   0  0  0  0  0  0  0  0  0  0  0  0
   -7.3775   -0.7359    8.6099 H   0  0  0  0  0  0  0  0  0  0  0  0
   -6.3354    4.2936    9.1000 H   0  0  0  0  0  0  0  0  0  0  0  0
   -7.0960    3.0496    9.4183 H   0  0  0  0  0  0  0  0  0  0  0  0
   -8.2645   -3.8063    9.5254 H   0  0  0  0  0  0  0  0  0  0  0  0
   -6.8493   -3.3700    8.5769 H   0  0  0  0  0  0  0  0  0  0  0  0
   -7.7573   -2.8488   11.8091 H   0  0  0  0  0  0  0  0  0  0  0  0
   -7.0642   -3.6299   12.8781 H   0  0  0  0  0  0  0  0  0  0  0  0
   -5.6017    3.5722   15.1071 H   0  0  0  0  0  0  0  0  0  0  0  0
   -4.1040    2.6694   14.7428 H   0  0  0  0  0  0  0  0  0  0  0  0
   -8.5143    3.0765   10.2631 H   0  0  0  0  0  0  0  0  0  0  0  0
   -3.1664    2.3366    9.5133 H   0  0  0  0  0  0  0  0  0  0  0  0
   -4.1486    0.2806   15.2190 H   0  0  0  0  0  0  0  0  0  0  0  0
   -1.6125    3.6122    9.7255 H   0  0  0  0  0  0  0  0  0  0  0  0
   -5.7238   -1.0623   17.2026 H   0  0  0  0  0  0  0  0  0  0  0  0
   -2.5954    3.9348   13.3482 H   0  0  0  0  0  0  0  0  0  0  0  0
   -8.0739   -2.0908   14.4689 H   0  0  0  0  0  0  0  0  0  0  0  0
  1 78  1  0  0  0  0
  1 79  1  0  0  0  0
  1 80  1  0  0  0  0
  2 81  1  0  0  0  0
  2 82  1  0  0  0  0
  2 83  1  0  0  0  0
  3  1  1  0  0  0  0
  3 84  1  0  0  0  0
  3 85  1  0  0  0  0
  4  2  1  0  0  0  0
  4 86  1  0  0  0  0
  4 87  1  0  0  0  0
  5  3  1  0  0  0  0
  5 88  1  0  0  0  0
  5 89  1  0  0  0  0
  6  4  1  0  0  0  0
  6 90  1  0  0  0  0
  6 91  1  0  0  0  0
  7  5  1  0  0  0  0
  7 92  1  0  0  0  0
  7 93  1  0  0  0  0
  8  6  1  0  0  0  0
  8 94  1  0  0  0  0
  8 95  1  0  0  0  0
  9  7  1  0  0  0  0
  9 96  1  0  0  0  0
  9 97  1  0  0  0  0
 10  8  1  0  0  0  0
 10 98  1  0  0  0  0
 10 99  1  0  0  0  0
 11  9  1  0  0  0  0
 11100  1  0  0  0  0
 11101  1  0  0  0  0
 12 10  1  0  0  0  0
 12102  1  0  0  0  0
 12103  1  0  0  0  0
 13 11  1  0  0  0  0
 13104  1  0  0  0  0
 13105  1  0  0  0  0
 14 12  1  0  0  0  0
 14106  1  0  0  0  0
 14107  1  0  0  0  0
 15 13  1  0  0  0  0
 15108  1  0  0  0  0
 15109  1  0  0  0  0
 16 14  1  0  0  0  0
 16110  1  0  0  0  0
 16111  1  0  0  0  0
 17 15  1  0  0  0  0
 17112  1  0  0  0  0
 17113  1  0  0  0  0
 18 16  1  0  0  0  0
 18114  1  0  0  0  0
 18115  1  0  0  0  0
 19 17  1  0  0  0  0
 19116  1  0  0  0  0
 19117  1  0  0  0  0
 20 18  1  0  0  0  0
 20118  1  0  0  0  0
 20119  1  0  0  0  0
 21 19  1  0  0  0  0
 21120  1  0  0  0  0
 21121  1  0  0  0  0
 22 20  1  0  0  0  0
 22122  1  0  0  0  0
 22123  1  0  0  0  0
 23 21  1  0  0  0  0
 23124  1  0  0  0  0
 23125  1  0  0  0  0
 24 22  1  0  0  0  0
 24126  1  0  0  0  0
 24127  1  0  0  0  0
 25 23  1  0  0  0  0
 25128  1  0  0  0  0
 25129  1  0  0  0  0
 26 24  1  0  0  0  0
 26130  1  0  0  0  0
 26131  1  0  0  0  0
 27 25  1  0  0  0  0
 27132  1  0  0  0  0
 27133  1  0  0  0  0
 28 26  1  0  0  0  0
 28134  1  0  0  0  0
 28135  1  0  0  0  0
 29 27  1  0  0  0  0
 29136  1  0  0  0  0
 29137  1  0  0  0  0
 30 28  1  0  0  0  0
 30138  1  0  0  0  0
 30139  1  0  0  0  0
 31 29  1  0  0  0  0
 31140  1  0  0  0  0
 31141  1  0  0  0  0
 32 30  1  0  0  0  0
 32142  1  0  0  0  0
 32143  1  0  0  0  0
 33 31  1  0  0  0  0
 33144  1  0  0  0  0
 33145  1  0  0  0  0
 34 32  1  0  0  0  0
 34146  1  0  0  0  0
 34147  1  0  0  0  0
 35148  1  0  0  0  0
 35149  1  0  0  0  0
 36150  1  0  0  0  0
 36151  1  0  0  0  0
 37152  1  0  0  0  0
 37153  1  0  0  0  0
 38154  1  0  0  0  0
 38155  1  0  0  0  0
 39 64  1  0  0  0  0
 39 67  1  1  0  0  0
 39 37  1  0  0  0  0
 39 36  1  0  0  0  0
 40 35  1  0  0  0  0
 40 68  1  1  0  0  0
 41 38  1  0  0  0  0
 41 69  1  6  0  0  0
 42 33  1  0  0  0  0
 43 34  1  0  0  0  0
 44 40  1  0  0  0  0
 44 55  1  0  0  0  0
 44 70  1  6  0  0  0
 45 41  1  0  0  0  0
 45 56  1  0  0  0  0
 45 71  1  1  0  0  0
 46 44  1  0  0  0  0
 46 57  1  0  0  0  0
 46 72  1  1  0  0  0
 47 45  1  0  0  0  0
 47 58  1  0  0  0  0
 47 73  1  6  0  0  0
 48 46  1  0  0  0  0
 48 59  1  0  0  0  0
 48 74  1  6  0  0  0
 49 47  1  0  0  0  0
 49 60  1  0  0  0  0
 49 75  1  1  0  0  0
 50 49  1  0  0  0  0
 50 76  1  6  0  0  0
 50 62  1  0  0  0  0
 51 48  1  0  0  0  0
 51 63  1  0  0  0  0
 51 77  1  1  0  0  0
 52 35  1  0  0  0  0
 52156  1  0  0  0  0
 53 42  2  0  0  0  0
 54 43  2  0  0  0  0
 55157  1  0  0  0  0
 56158  1  0  0  0  0
 57159  1  0  0  0  0
 58160  1  0  0  0  0
 59161  1  0  0  0  0
 60162  1  0  0  0  0
 61 36  1  0  0  0  0
 61 42  1  0  0  0  0
 62 37  1  0  0  0  0
 63 38  1  0  0  0  0
 64 43  1  0  0  0  0
 65 40  1  0  0  0  0
 65 51  1  0  0  0  0
 66 41  1  0  0  0  0
 66 50  1  0  0  0  0
M  END
>  <DRUGBANK_ID>
DB03426

>  <SECONDARY_ACCESSION_NUMBERS>
EXPT01176

>  <COMMON_NAME>
Digalactosyl Diacyl Glycerol (Dgdg)

$$$$
