620
 OpenBabel10282417103D

 55 58  0  0  1  0  0  0  0  0999 V2000
    6.0909   -1.8461    7.4049 F   0  0  0  0  0  0  0  0  0  0  0  0
    2.8940    2.1200    6.7942 O   0  0  0  0  0  0  0  0  0  0  0  0
    3.9368   -2.3771    5.6915 O   0  0  0  0  0  0  0  0  0  0  0  0
    6.5190    3.1133    7.0947 O   0  0  0  0  0  0  0  0  0  0  0  0
    2.0564    2.7527    9.0292 O   0  0  0  0  0  0  0  0  0  0  0  0
    3.2346   -0.2571   10.1947 O   0  0  0  0  0  0  0  0  0  0  0  0
    5.2612   -2.6240    1.2252 O   0  0  0  0  0  0  0  0  0  0  0  0
    4.8113    0.8664    7.0991 C   0  0  1  0  0  0  0  0  0  0  0  0
    6.1685    0.6861    7.9774 C   0  0  2  0  0  0  0  0  0  0  0  0
    7.1323   -0.0909    6.5979 C   0  0  1  0  0  0  0  0  0  0  0  0
    6.1931   -1.3006    6.0928 C   0  0  1  0  0  0  0  0  0  0  0  0
    3.9906    1.9613    7.7314 C   0  0  1  0  0  0  0  0  0  0  0  0
    4.0065   -0.4048    6.8566 C   0  0  0  0  0  0  0  0  0  0  0  0
    5.8938    2.1940    8.9413 C   0  0  0  0  0  0  0  0  0  0  0  0
    4.6929   -1.1505    5.7980 C   0  0  2  0  0  0  0  0  0  0  0  0
    5.3054    3.0761    7.9114 C   0  0  1  0  0  0  0  0  0  0  0  0
    6.7256   -2.5521    5.1485 C   0  0  1  0  0  0  0  0  0  0  0  0
    8.4720   -0.9604    6.6546 C   0  0  0  0  0  0  0  0  0  0  0  0
    5.1381    1.6406    5.6085 C   0  0  0  0  0  0  0  0  0  0  0  0
    8.9933   -1.6473    5.1026 C   0  0  0  0  0  0  0  0  0  0  0  0
    7.8922   -2.2868    4.0748 C   0  0  0  0  0  0  0  0  0  0  0  0
    3.0055    1.9473    9.0006 C   0  0  0  0  0  0  0  0  0  0  0  0
    6.6714   -3.7150    6.2089 C   0  0  0  0  0  0  0  0  0  0  0  0
    5.7323   -2.9186    4.1042 C   0  0  0  0  0  0  0  0  0  0  0  0
    7.6412   -2.4653    2.6005 C   0  0  0  0  0  0  0  0  0  0  0  0
    3.2262    1.1394   10.3039 C   0  0  0  0  0  0  0  0  0  0  0  0
    5.4016   -1.8611    3.3167 C   0  0  0  0  0  0  0  0  0  0  0  0
    5.9905   -2.2800    2.0844 C   0  0  0  0  0  0  0  0  0  0  0  0
    6.2975   -0.0178    8.8102 H   0  0  0  0  0  0  0  0  0  0  0  0
    7.4371    0.6960    5.9055 H   0  0  0  0  0  0  0  0  0  0  0  0
    2.9672    1.4928    6.0543 H   0  0  0  0  0  0  0  0  0  0  0  0
    3.8387   -2.6280    4.7501 H   0  0  0  0  0  0  0  0  0  0  0  0
    7.2431    2.6033    7.5333 H   0  0  0  0  0  0  0  0  0  0  0  0
    2.3856   -0.5040    9.7878 H   0  0  0  0  0  0  0  0  0  0  0  0
    3.6670   -0.9154    7.7593 H   0  0  0  0  0  0  0  0  0  0  0  0
    3.0444   -0.3379    6.3424 H   0  0  0  0  0  0  0  0  0  0  0  0
    6.3706    2.6084    9.8529 H   0  0  0  0  0  0  0  0  0  0  0  0
    4.9875    2.2354    9.5252 H   0  0  0  0  0  0  0  0  0  0  0  0
    4.4748   -0.5931    4.8861 H   0  0  0  0  0  0  0  0  0  0  0  0
    5.1044    4.0944    8.2491 H   0  0  0  0  0  0  0  0  0  0  0  0
    9.2677   -0.3675    7.1170 H   0  0  0  0  0  0  0  0  0  0  0  0
    8.3508   -1.8087    7.3419 H   0  0  0  0  0  0  0  0  0  0  0  0
    6.1732    1.7285    5.2864 H   0  0  0  0  0  0  0  0  0  0  0  0
    4.5746    1.2716    4.7557 H   0  0  0  0  0  0  0  0  0  0  0  0
    4.8171    2.6933    5.6467 H   0  0  0  0  0  0  0  0  0  0  0  0
    9.9337   -1.1233    4.8628 H   0  0  0  0  0  0  0  0  0  0  0  0
    9.4949   -2.6030    5.3050 H   0  0  0  0  0  0  0  0  0  0  0  0
    7.3048   -3.5507    7.0923 H   0  0  0  0  0  0  0  0  0  0  0  0
    5.6506   -3.7002    6.6386 H   0  0  0  0  0  0  0  0  0  0  0  0
    6.7859   -4.7410    5.8775 H   0  0  0  0  0  0  0  0  0  0  0  0
    5.8597   -3.9535    3.7424 H   0  0  0  0  0  0  0  0  0  0  0  0
    7.4401   -3.4744    2.0823 H   0  0  0  0  0  0  0  0  0  0  0  0
    4.1195    1.4453   10.8563 H   0  0  0  0  0  0  0  0  0  0  0  0
    2.4125    1.4334   10.9862 H   0  0  0  0  0  0  0  0  0  0  0  0
    5.6487   -0.8128    3.4820 H   0  0  0  0  0  0  0  0  0  0  0  0
  2 31  1  0  0  0  0
  3 32  1  0  0  0  0
  4 33  1  0  0  0  0
  5 22  2  0  0  0  0
  6 26  1  0  0  0  0
  6 34  1  0  0  0  0
  7 28  2  0  0  0  0
  8  9  1  0  0  0  0
  8 12  1  0  0  0  0
  8 13  1  0  0  0  0
  8 19  1  1  0  0  0
  9 10  1  0  0  0  0
  9 14  1  0  0  0  0
  9 29  1  6  0  0  0
 10 11  1  0  0  0  0
 10 18  1  0  0  0  0
 10 30  1  1  0  0  0
 11 15  1  0  0  0  0
 11 17  1  0  0  0  0
 11  1  1  6  0  0  0
 12 16  1  0  0  0  0
 12 22  1  1  0  0  0
 12  2  1  0  0  0  0
 13 15  1  0  0  0  0
 13 35  1  0  0  0  0
 13 36  1  0  0  0  0
 14 16  1  0  0  0  0
 14 37  1  0  0  0  0
 14 38  1  0  0  0  0
 15 39  1  6  0  0  0
 15  3  1  0  0  0  0
 16 40  1  1  0  0  0
 16  4  1  0  0  0  0
 17 21  1  0  0  0  0
 17 24  1  0  0  0  0
 17 23  1  1  0  0  0
 18 20  1  0  0  0  0
 18 41  1  0  0  0  0
 18 42  1  0  0  0  0
 19 43  1  0  0  0  0
 19 44  1  0  0  0  0
 19 45  1  0  0  0  0
 20 21  1  0  0  0  0
 20 46  1  0  0  0  0
 20 47  1  0  0  0  0
 21 25  2  0  0  0  0
 22 26  1  0  0  0  0
 23 48  1  0  0  0  0
 23 49  1  0  0  0  0
 23 50  1  0  0  0  0
 24 27  2  0  0  0  0
 24 51  1  0  0  0  0
 25 28  1  0  0  0  0
 25 52  1  0  0  0  0
 26 53  1  0  0  0  0
 26 54  1  0  0  0  0
 27 28  1  0  0  0  0
 27 55  1  0  0  0  0
M  END
>  <DRUGBANK_ID>
DB00620

>  <SECONDARY_ACCESSION_NUMBERS>
APRD00422

>  <COMMON_NAME>
Triamcinolone

>  <CAS_NUMBER>
124-94-7

>  <UNII>
1ZK20VI6TY

>  <SYNONYMS>
11β,16α,17α,21-tetrahydroxy-9α-fluoro-1,4-pregnadiene-3,20-dione; 9-fluoro-11β,16α,17,21-tetrahydroxypregna-1,4-diene-3,20-dione; 9α-fluoro-11β,16α,17,21-tetrahydroxypregna-1,4-diene-3,20-dione; 9α-fluoro-11β,16α,17α,21-tetrahydroxypregna-1,4-diene-3,20-dione; 9α-fluoro-16α-hydroxyprednisolone; Fluoxyprednisolone; Tiamcinolonum; Triamcinolona; Triamcinolone; Triamcinolonum

$$$$
