
 OpenBabel10282417133D

 18 17  0  0  1  0  0  0  0  0999 V2000
    1.0582    0.0735   -0.0348 C   0  0  0  0  0  0  0  0  0  0  0  0
    0.5515    1.4535   -0.4211 C   0  0  1  0  0  0  0  0  0  0  0  0
    1.0582    1.8090   -1.8094 C   0  0  0  0  0  0  0  0  0  0  0  0
    1.2015   -0.6227   -3.2738 As  0  0  0  0  0  0  0  0  0  0  0  0
   -0.9185    1.4535   -0.4211 N   0  0  0  0  0  0  0  0  0  0  0  0
    0.2323    2.0485   -2.7452 O   0  0  0  0  0  0  0  0  0  0  0  0
    2.4543    1.8733   -2.0608 O   0  0  0  0  0  0  0  0  0  0  0  0
    3.0515   -0.6227   -3.2738 O   0  0  0  0  0  0  0  0  0  0  0  0
    0.5848   -1.8698   -4.4933 O   0  0  0  0  0  0  0  0  0  0  0  0
    0.4549   -1.1466   -1.2279 S   0  0  0  0  0  0  0  0  0  0  0  0
    0.9082    2.1748    0.2842 H   0  0  0  0  0  0  0  0  0  0  0  0
    0.7015   -0.1767    0.9425 H   0  0  0  0  0  0  0  0  0  0  0  0
    2.1282    0.0735   -0.0348 H   0  0  0  0  0  0  0  0  0  0  0  0
   -1.2585    2.3796   -0.6804 H   0  0  0  0  0  0  0  0  0  0  0  0
   -1.2585    0.7660   -1.0935 H   0  0  0  0  0  0  0  0  0  0  0  0
    2.7876    2.1072   -2.9742 H   0  0  0  0  0  0  0  0  0  0  0  0
    3.3848    0.0513   -2.6147 H   0  0  0  0  0  0  0  0  0  0  0  0
    0.9182   -1.6359   -5.4067 H   0  0  0  0  0  0  0  0  0  0  0  0
  1 12  1  0  0  0  0
  1 13  1  0  0  0  0
  2  1  1  0  0  0  0
  2  5  1  0  0  0  0
  2 11  1  1  0  0  0
  3  2  1  0  0  0  0
  5 14  1  0  0  0  0
  5 15  1  0  0  0  0
  6  3  2  0  0  0  0
  7  3  1  0  0  0  0
  7 16  1  0  0  0  0
  8  4  1  0  0  0  0
  8 17  1  0  0  0  0
  9  4  1  0  0  0  0
  9 18  1  0  0  0  0
 10  1  1  0  0  0  0
 10  4  1  0  0  0  0
M  END
>  <DRUGBANK_ID>
DB03289

>  <SECONDARY_ACCESSION_NUMBERS>
EXPT01083

>  <COMMON_NAME>
Thiarsa Dihydroxy Cysteine

$$$$
