631
 OpenBabel10282417103D

 31 33  0  0  1  0  0  0  0  0999 V2000
    2.1651   -8.3446    1.1579 Cl  0  0  0  0  0  0  0  0  0  0  0  0
    3.6147   -4.6690   -1.5921 F   0  0  0  0  0  0  0  0  0  0  0  0
    4.4024   -3.3332    0.9764 O   0  0  0  0  0  0  0  0  0  0  0  0
    4.4288   -1.2194   -1.4389 O   0  0  0  0  0  0  0  0  0  0  0  0
    1.8071   -3.1829    2.0916 O   0  0  0  0  0  0  0  0  0  0  0  0
    5.8507   -5.0778    0.1470 N   0  0  0  0  0  0  0  0  0  0  0  0
    7.5069   -6.5838    0.1623 N   0  0  0  0  0  0  0  0  0  0  0  0
    3.9672   -6.5495    0.6471 N   0  0  0  0  0  0  0  0  0  0  0  0
    4.6892   -8.8697    0.9059 N   0  0  0  0  0  0  0  0  0  0  0  0
    6.9114   -9.5731    0.7127 N   0  0  0  0  0  0  0  0  0  0  0  0
    5.2495   -3.7819   -0.1007 C   0  0  1  0  0  0  0  0  0  0  0  0
    3.6576   -2.3854   -1.1170 C   0  0  1  0  0  0  0  0  0  0  0  0
    4.4669   -3.6330   -1.3958 C   0  0  2  0  0  0  0  0  0  0  0  0
    3.3630   -2.4934    0.3841 C   0  0  1  0  0  0  0  0  0  0  0  0
    2.0145   -3.1544    0.6800 C   0  0  0  0  0  0  0  0  0  0  0  0
    5.2624   -6.2827    0.4324 C   0  0  0  0  0  0  0  0  0  0  0  0
    7.1982   -5.3153   -0.0032 C   0  0  0  0  0  0  0  0  0  0  0  0
    6.3087   -7.2049    0.4327 C   0  0  0  0  0  0  0  0  0  0  0  0
    5.9814   -8.5544    0.6860 C   0  0  0  0  0  0  0  0  0  0  0  0
    3.7842   -7.8695    0.8700 C   0  0  0  0  0  0  0  0  0  0  0  0
    5.1260   -3.5554   -2.2643 H   0  0  0  0  0  0  0  0  0  0  0  0
    5.1680   -1.1119   -0.8161 H   0  0  0  0  0  0  0  0  0  0  0  0
    2.5766   -3.6566    2.4627 H   0  0  0  0  0  0  0  0  0  0  0  0
    7.8908   -9.3669    0.5816 H   0  0  0  0  0  0  0  0  0  0  0  0
    6.5948  -10.5045    0.9384 H   0  0  0  0  0  0  0  0  0  0  0  0
    6.0778   -3.0611   -0.1066 H   0  0  0  0  0  0  0  0  0  0  0  0
    2.7431   -2.3327   -1.7158 H   0  0  0  0  0  0  0  0  0  0  0  0
    3.4132   -1.5148    0.8781 H   0  0  0  0  0  0  0  0  0  0  0  0
    1.1886   -2.5948    0.2298 H   0  0  0  0  0  0  0  0  0  0  0  0
    1.9837   -4.1867    0.3206 H   0  0  0  0  0  0  0  0  0  0  0  0
    7.9051   -4.5331   -0.2464 H   0  0  0  0  0  0  0  0  0  0  0  0
  1 20  1  0  0  0  0
  2 13  1  0  0  0  0
  3 11  1  0  0  0  0
  3 14  1  0  0  0  0
  4 22  1  0  0  0  0
  5 15  1  0  0  0  0
  5 23  1  0  0  0  0
  6 16  1  0  0  0  0
  6 17  1  0  0  0  0
  7 17  2  0  0  0  0
  7 18  1  0  0  0  0
  8 16  2  0  0  0  0
  8 20  1  0  0  0  0
  9 19  1  0  0  0  0
  9 20  2  0  0  0  0
 10 19  1  0  0  0  0
 10 24  1  0  0  0  0
 10 25  1  0  0  0  0
 11 13  1  0  0  0  0
 11 26  1  6  0  0  0
 11  6  1  0  0  0  0
 12  4  1  0  0  0  0
 12 13  1  0  0  0  0
 12 14  1  0  0  0  0
 12 27  1  6  0  0  0
 13 21  1  6  0  0  0
 14 15  1  0  0  0  0
 14 28  1  1  0  0  0
 15 29  1  0  0  0  0
 15 30  1  0  0  0  0
 16 18  1  0  0  0  0
 17 31  1  0  0  0  0
 18 19  2  0  0  0  0
M  END
>  <DRUGBANK_ID>
DB00631

>  <SECONDARY_ACCESSION_NUMBERS>
APRD00878; DB07554; DB06189

>  <COMMON_NAME>
Clofarabine

>  <CAS_NUMBER>
123318-82-1

>  <UNII>
762RDY0Y2H

>  <SYNONYMS>
(2R,3R,4S,5R)-5-(6-amino-2-chloropurin-9-yl)-4-fluoro-2-(hydroxymethyl)oxolan-3-ol; 2-chloro-9-(2-deoxy-2-fluoro-β-D-arabinofuranosyl)adenine; 2-chloro-9-(2'-deoxy-2'-fluoro-β-D-arabinofuranosyl)adenine; CAFdA; Cl-F-Ara-A; Clofarabin; Clofarabina; Clofarabine; Clofarabinum

$$$$
