127
 OpenBabel10282417103D

 40 39  0  0  0  0  0  0  0  0999 V2000
    0.9334    0.0324   -0.0474 N   0  0  0  0  0  0  0  0  0  0  0  0
   -1.8868   -3.9340   -0.8702 N   0  0  0  0  0  0  0  0  0  0  0  0
    3.4022   -0.9907    2.8243 N   0  0  0  0  0  0  0  0  0  0  0  0
   -3.6175   -2.4610   -3.4936 N   0  0  0  0  0  0  0  0  0  0  0  0
    0.8543   -2.4731   -1.0573 C   0  0  0  0  0  0  0  0  0  0  0  0
    0.2374   -3.5194   -0.0384 C   0  0  0  0  0  0  0  0  0  0  0  0
    0.4455   -0.9386   -1.0536 C   0  0  0  0  0  0  0  0  0  0  0  0
   -1.2237   -3.2520    0.2150 C   0  0  0  0  0  0  0  0  0  0  0  0
    0.5690   -0.2209    1.3522 C   0  0  0  0  0  0  0  0  0  0  0  0
   -3.3185   -3.7397   -0.7978 C   0  0  0  0  0  0  0  0  0  0  0  0
    1.2694   -1.4503    1.8778 C   0  0  0  0  0  0  0  0  0  0  0  0
   -3.7372   -2.2847   -1.0308 C   0  0  0  0  0  0  0  0  0  0  0  0
    2.7516   -1.7310    1.7809 C   0  0  0  0  0  0  0  0  0  0  0  0
   -3.2032   -1.6830   -2.3340 C   0  0  0  0  0  0  0  0  0  0  0  0
    1.9443    0.1210   -0.1228 H   0  0  0  0  0  0  0  0  0  0  0  0
   -1.5175   -3.5966   -1.7576 H   0  0  0  0  0  0  0  0  0  0  0  0
    4.4094   -1.0150    2.6548 H   0  0  0  0  0  0  0  0  0  0  0  0
    3.1056   -0.0263    2.7488 H   0  0  0  0  0  0  0  0  0  0  0  0
   -3.1907   -2.0727   -4.3324 H   0  0  0  0  0  0  0  0  0  0  0  0
   -3.2521   -3.4110   -3.4132 H   0  0  0  0  0  0  0  0  0  0  0  0
    0.5875   -2.8459   -2.0555 H   0  0  0  0  0  0  0  0  0  0  0  0
    1.9472   -2.5368   -1.0122 H   0  0  0  0  0  0  0  0  0  0  0  0
    0.4542   -4.5346   -0.3865 H   0  0  0  0  0  0  0  0  0  0  0  0
    0.6799   -3.6253    0.9602 H   0  0  0  0  0  0  0  0  0  0  0  0
   -0.6366   -0.8186   -1.1304 H   0  0  0  0  0  0  0  0  0  0  0  0
    0.8140   -0.5387   -2.0110 H   0  0  0  0  0  0  0  0  0  0  0  0
   -1.5460   -3.6239    1.1948 H   0  0  0  0  0  0  0  0  0  0  0  0
   -1.4221   -2.1765    0.2377 H   0  0  0  0  0  0  0  0  0  0  0  0
    0.7796    0.6374    1.9958 H   0  0  0  0  0  0  0  0  0  0  0  0
   -0.5186   -0.3828    1.4018 H   0  0  0  0  0  0  0  0  0  0  0  0
   -3.7611   -4.3967   -1.5504 H   0  0  0  0  0  0  0  0  0  0  0  0
   -3.6814   -4.0970    0.1721 H   0  0  0  0  0  0  0  0  0  0  0  0
    0.7688   -1.9407    2.7115 H   0  0  0  0  0  0  0  0  0  0  0  0
    1.0156   -2.0363    1.0475 H   0  0  0  0  0  0  0  0  0  0  0  0
   -4.8299   -2.2414   -1.0181 H   0  0  0  0  0  0  0  0  0  0  0  0
   -3.4086   -1.6543   -0.1935 H   0  0  0  0  0  0  0  0  0  0  0  0
    2.9230   -2.8155    1.8735 H   0  0  0  0  0  0  0  0  0  0  0  0
    3.1510   -1.4649    0.7943 H   0  0  0  0  0  0  0  0  0  0  0  0
   -3.5519   -0.6503   -2.4282 H   0  0  0  0  0  0  0  0  0  0  0  0
   -2.1114   -1.6382   -2.3328 H   0  0  0  0  0  0  0  0  0  0  0  0
  1  7  1  0  0  0  0
  1  9  1  0  0  0  0
  1 15  1  0  0  0  0
  2  8  1  0  0  0  0
  2 10  1  0  0  0  0
  2 16  1  0  0  0  0
  3 13  1  0  0  0  0
  3 17  1  0  0  0  0
  3 18  1  0  0  0  0
  4 14  1  0  0  0  0
  4 19  1  0  0  0  0
  4 20  1  0  0  0  0
  5  6  1  0  0  0  0
  5  7  1  0  0  0  0
  5 21  1  0  0  0  0
  5 22  1  0  0  0  0
  6  8  1  0  0  0  0
  6 23  1  0  0  0  0
  6 24  1  0  0  0  0
  7 25  1  0  0  0  0
  7 26  1  0  0  0  0
  8 27  1  0  0  0  0
  8 28  1  0  0  0  0
  9 11  1  0  0  0  0
  9 29  1  0  0  0  0
  9 30  1  0  0  0  0
 10 12  1  0  0  0  0
 10 31  1  0  0  0  0
 10 32  1  0  0  0  0
 11 13  1  0  0  0  0
 11 33  1  0  0  0  0
 11 34  1  0  0  0  0
 12 14  1  0  0  0  0
 12 35  1  0  0  0  0
 12 36  1  0  0  0  0
 13 37  1  0  0  0  0
 13 38  1  0  0  0  0
 14 39  1  0  0  0  0
 14 40  1  0  0  0  0
M  END
>  <DRUGBANK_ID>
DB00127

>  <SECONDARY_ACCESSION_NUMBERS>
NUTR00055; EXPT02947; DB02564

>  <COMMON_NAME>
Spermine

>  <CAS_NUMBER>
71-44-3

>  <UNII>
2FZ7Y3VOQX

>  <SYNONYMS>
4,9-diaza-1,12-dodecanediamine; 4,9-diazadodecane-1,12-diamine; Musculamine; N,N'-Bis(3-aminopropyl)-1,4-butanediamine; Spermina; Spermine

$$$$
