
 OpenBabel10282417213D

 35 36  0  0  0  0  0  0  0  0999 V2000
    7.0789   -6.7838   -0.7909 C   0  0  0  0  0  0  0  0  0  0  0  0
    7.0629   -5.3810   -1.1307 C   0  0  0  0  0  0  0  0  0  0  0  0
    7.0090   -4.9315   -2.4572 C   0  0  0  0  0  0  0  0  0  0  0  0
    7.0926   -3.5329   -2.7307 C   0  0  0  0  0  0  0  0  0  0  0  0
    7.2685   -2.5732   -1.7236 C   0  0  0  0  0  0  0  0  0  0  0  0
    7.3048   -3.0711   -0.4073 C   0  0  0  0  0  0  0  0  0  0  0  0
    7.1607   -4.4394   -0.1075 C   0  0  0  0  0  0  0  0  0  0  0  0
    7.1383   -7.9110   -0.5458 N   0  0  0  0  0  0  0  0  0  0  0  0
    6.8827   -5.8904   -3.6175 C   0  0  0  0  0  0  0  0  0  0  0  0
    5.7756   -5.6392   -4.3690 F   0  0  0  0  0  0  0  0  0  0  0  0
    7.9438   -5.7991   -4.4641 F   0  0  0  0  0  0  0  0  0  0  0  0
    6.7967   -7.2039   -3.2844 F   0  0  0  0  0  0  0  0  0  0  0  0
    7.3040   -1.2192   -1.9905 N   0  0  0  0  0  0  0  0  0  0  0  0
    6.2801   -0.4757   -2.7370 C   0  0  2  0  0  0  0  0  0  0  0  0
    7.1525    0.5622   -3.4782 C   0  0  0  0  0  0  0  0  0  0  0  0
    8.2085    0.9382   -2.4362 C   0  0  0  0  0  0  0  0  0  0  0  0
    8.3935   -0.3305   -1.5770 C   0  0  0  0  0  0  0  0  0  0  0  0
    5.2707    0.2686   -1.8244 C   0  0  2  0  0  0  0  0  0  0  0  0
    4.6221   -0.6004   -0.7384 C   0  0  0  0  0  0  0  0  0  0  0  0
    4.2577    0.8652   -2.6852 O   0  0  0  0  0  0  0  0  0  0  0  0
    4.6296    0.0413    0.4544 F   0  0  0  0  0  0  0  0  0  0  0  0
    3.3317   -0.8664   -1.0567 F   0  0  0  0  0  0  0  0  0  0  0  0
    5.1766   -1.7938   -0.5289 F   0  0  0  0  0  0  0  0  0  0  0  0
    7.0536   -3.2059   -3.7699 H   0  0  0  0  0  0  0  0  0  0  0  0
    7.3085   -2.3752    0.4307 H   0  0  0  0  0  0  0  0  0  0  0  0
    7.1162   -4.7581    0.9346 H   0  0  0  0  0  0  0  0  0  0  0  0
    5.7392   -1.0827   -3.4711 H   0  0  0  0  0  0  0  0  0  0  0  0
    7.6377    0.0954   -4.3438 H   0  0  0  0  0  0  0  0  0  0  0  0
    6.5983    1.4363   -3.8402 H   0  0  0  0  0  0  0  0  0  0  0  0
    9.1438    1.2731   -2.8967 H   0  0  0  0  0  0  0  0  0  0  0  0
    7.8520    1.7716   -1.8170 H   0  0  0  0  0  0  0  0  0  0  0  0
    9.3738   -0.7775   -1.7643 H   0  0  0  0  0  0  0  0  0  0  0  0
    8.3074   -0.0740   -0.5152 H   0  0  0  0  0  0  0  0  0  0  0  0
    5.7489    1.1233   -1.3284 H   0  0  0  0  0  0  0  0  0  0  0  0
    3.6933    0.1324   -3.0021 H   0  0  0  0  0  0  0  0  0  0  0  0
  1  2  1  0  0  0  0
  1  8  3  0  0  0  0
  2  3  1  0  0  0  0
  2  7  2  0  0  0  0
  3  4  2  0  0  0  0
  3  9  1  0  0  0  0
  4  5  1  0  0  0  0
  4 24  1  0  0  0  0
  5  6  2  0  0  0  0
  5 13  1  0  0  0  0
  6  7  1  0  0  0  0
  6 25  1  0  0  0  0
  7 26  1  0  0  0  0
  9 10  1  0  0  0  0
  9 11  1  0  0  0  0
  9 12  1  0  0  0  0
 13 14  1  0  0  0  0
 13 17  1  0  0  0  0
 14 15  1  0  0  0  0
 14 27  1  6  0  0  0
 15 16  1  0  0  0  0
 15 28  1  0  0  0  0
 15 29  1  0  0  0  0
 16 17  1  0  0  0  0
 16 30  1  0  0  0  0
 16 31  1  0  0  0  0
 17 32  1  0  0  0  0
 17 33  1  0  0  0  0
 18 20  1  0  0  0  0
 18 34  1  1  0  0  0
 18 19  1  0  0  0  0
 18 14  1  0  0  0  0
 19 21  1  0  0  0  0
 19 22  1  0  0  0  0
 19 23  1  0  0  0  0
 20 35  1  0  0  0  0
M  END
>  <DRUGBANK_ID>
DB13934

>  <COMMON_NAME>
Ligandrol

>  <CAS_NUMBER>
1165910-22-4

>  <UNII>
1EJT54415A

$$$$
