U1N
 OpenBabel10282417173D

 45 46  0  0  0  0  0  0  0  0999 V2000
   -4.0614   -1.1275   -2.4655 C   0  0  0  0  0  0  0  0  0  0  0  0
   -3.3746   -0.7968   -1.3317 C   0  0  0  0  0  0  0  0  0  0  0  0
   -2.5747    0.3270   -1.1928 C   0  0  0  0  0  0  0  0  0  0  0  0
   -2.7678    1.4120   -1.9839 C   0  0  0  0  0  0  0  0  0  0  0  0
   -3.4600    1.1470   -3.1567 C   0  0  0  0  0  0  0  0  0  0  0  0
   -4.0091   -0.1435   -3.4307 C   0  0  0  0  0  0  0  0  0  0  0  0
   -2.2057    2.7094   -1.4573 C   0  0  0  0  0  0  0  0  0  0  0  0
   -2.8950    3.2981   -0.1823 C   0  0  0  0  0  0  0  0  0  0  0  0
   -2.6745    2.5434    1.1910 C   0  0  1  0  0  0  0  0  0  0  0  0
   -3.1811    3.4180    2.3434 C   0  0  0  0  0  0  0  0  0  0  0  0
   -3.3692    1.2534    1.3988 N   0  0  0  0  0  0  0  0  0  0  0  0
   -2.5057    0.1213    1.8946 C   0  0  0  0  0  0  0  0  0  0  0  0
   -3.2005   -1.2851    1.7944 C   0  0  0  0  0  0  0  0  0  0  0  0
   -4.3727   -1.4302    2.1504 O   0  0  0  0  0  0  0  0  0  0  0  0
   -2.5094   -2.4932    1.0813 C   0  0  0  0  0  0  0  0  0  0  0  0
   -3.3372   -3.3844    0.3449 C   0  0  0  0  0  0  0  0  0  0  0  0
   -2.8325   -4.2714   -0.6389 C   0  0  0  0  0  0  0  0  0  0  0  0
   -1.4737   -4.3641   -0.8244 C   0  0  0  0  0  0  0  0  0  0  0  0
   -0.9790   -5.1856   -1.7624 F   0  0  0  0  0  0  0  0  0  0  0  0
   -0.6280   -3.5645   -0.0636 C   0  0  0  0  0  0  0  0  0  0  0  0
   -1.1390   -2.6007    0.8439 C   0  0  0  0  0  0  0  0  0  0  0  0
   -4.8063   -2.4337   -2.6018 C   0  0  0  0  0  0  0  0  0  0  0  0
   -5.1051   -2.8685   -3.8467 N   0  0  0  0  0  0  0  0  0  0  0  0
   -5.2144   -3.1559   -1.6834 O   0  0  0  0  0  0  0  0  0  0  0  0
   -1.5923    2.4152    1.3072 H   0  0  0  0  0  0  0  0  0  0  0  0
   -3.5442   -1.3630   -0.4649 H   0  0  0  0  0  0  0  0  0  0  0  0
   -1.9208    0.4729   -0.3577 H   0  0  0  0  0  0  0  0  0  0  0  0
   -3.5825    1.9234   -3.8975 H   0  0  0  0  0  0  0  0  0  0  0  0
   -4.4517   -0.3383   -4.3910 H   0  0  0  0  0  0  0  0  0  0  0  0
   -1.1469    2.5536   -1.2007 H   0  0  0  0  0  0  0  0  0  0  0  0
   -2.2125    3.4513   -2.2621 H   0  0  0  0  0  0  0  0  0  0  0  0
   -2.4635    4.3075   -0.0566 H   0  0  0  0  0  0  0  0  0  0  0  0
   -3.9627    3.4643   -0.3733 H   0  0  0  0  0  0  0  0  0  0  0  0
   -3.0273    2.9075    3.3017 H   0  0  0  0  0  0  0  0  0  0  0  0
   -2.6497    4.3735    2.3918 H   0  0  0  0  0  0  0  0  0  0  0  0
   -4.2534    3.6267    2.2432 H   0  0  0  0  0  0  0  0  0  0  0  0
   -3.9652    1.0200    0.6048 H   0  0  0  0  0  0  0  0  0  0  0  0
   -1.5477    0.0809    1.3753 H   0  0  0  0  0  0  0  0  0  0  0  0
   -2.2574    0.3174    2.9372 H   0  0  0  0  0  0  0  0  0  0  0  0
   -4.4151   -3.1944    0.3488 H   0  0  0  0  0  0  0  0  0  0  0  0
   -3.4896   -4.8103   -1.3243 H   0  0  0  0  0  0  0  0  0  0  0  0
    0.4406   -3.6745   -0.2141 H   0  0  0  0  0  0  0  0  0  0  0  0
   -0.4425   -1.9128    1.3043 H   0  0  0  0  0  0  0  0  0  0  0  0
   -5.2685   -2.1928   -4.5722 H   0  0  0  0  0  0  0  0  0  0  0  0
   -5.6923   -3.6952   -3.8398 H   0  0  0  0  0  0  0  0  0  0  0  0
  1  6  1  0  0  0  0
  1 22  1  0  0  0  0
  1  2  2  0  0  0  0
  2  3  1  0  0  0  0
  2 26  1  0  0  0  0
  3  4  2  0  0  0  0
  3 27  1  0  0  0  0
  4  5  1  0  0  0  0
  4  7  1  0  0  0  0
  5  6  2  0  0  0  0
  5 28  1  0  0  0  0
  6 29  1  0  0  0  0
  7  8  1  0  0  0  0
  7 30  1  0  0  0  0
  7 31  1  0  0  0  0
  8 32  1  0  0  0  0
  8 33  1  0  0  0  0
  9 10  1  0  0  0  0
  9 25  1  1  0  0  0
  9 11  1  0  0  0  0
  9  8  1  0  0  0  0
 10 34  1  0  0  0  0
 10 35  1  0  0  0  0
 10 36  1  0  0  0  0
 11 12  1  0  0  0  0
 11 37  1  0  0  0  0
 12 13  1  0  0  0  0
 12 38  1  0  0  0  0
 12 39  1  0  0  0  0
 13 15  1  0  0  0  0
 13 14  2  0  0  0  0
 15 21  2  0  0  0  0
 15 16  1  0  0  0  0
 16 17  2  0  0  0  0
 16 40  1  0  0  0  0
 17 18  1  0  0  0  0
 17 41  1  0  0  0  0
 18 19  1  0  0  0  0
 18 20  2  0  0  0  0
 20 21  1  0  0  0  0
 20 42  1  0  0  0  0
 21 43  1  0  0  0  0
 22 24  2  0  0  0  0
 22 23  1  0  0  0  0
 23 44  1  0  0  0  0
 23 45  1  0  0  0  0
M  END
>  <DRUGBANK_ID>
DB08672

>  <COMMON_NAME>
4-[(3R)-3-{[2-(4-FLUOROPHENYL)-2-OXOETHYL]AMINO}BUTYL]BENZAMIDE

$$$$
