
 OpenBabel10282417193D

149153  0  0  0  0  0  0  0  0999 V2000
    2.7683   19.5286    3.8393 C   0  0  0  0  0  0  0  0  0  0  0  0
    9.2316   17.5283    3.7380 C   0  0  0  0  0  0  0  0  0  0  0  0
    1.8098   19.9386    4.5680 N   0  0  0  0  0  0  0  0  0  0  0  0
   10.2719   16.9312    4.0748 O   0  0  0  0  0  0  0  0  0  0  0  0
    4.4373   18.9402    4.5151 N   0  0  0  0  0  0  0  0  0  0  0  0
    8.1282   18.0149    5.1032 C   0  0  1  0  0  0  0  0  0  0  0  0
    2.4369   19.3297    2.1381 N   0  0  0  0  0  0  0  0  0  0  0  0
    8.3922   17.5935    6.4915 N   0  0  0  0  0  0  0  0  0  0  0  0
    5.3856   18.3275    2.6798 C   0  0  0  0  0  0  0  0  0  0  0  0
    7.5676   19.4738    5.0345 C   0  0  0  0  0  0  0  0  0  0  0  0
    6.8283   19.8804    3.5209 C   0  0  0  0  0  0  0  0  0  0  0  0
    8.6007   17.2922    2.3446 N   0  0  0  0  0  0  0  0  0  0  0  0
    6.9602   18.9810    2.0645 C   0  0  0  0  0  0  0  0  0  0  0  0
    6.2301   18.4659    3.8481 N   0  0  0  0  0  0  0  0  0  0  0  0
    7.9483   18.2038    1.5119 C   0  0  2  0  0  0  0  0  0  0  0  0
    7.0838   17.5564    0.4679 C   0  0  0  0  0  0  0  0  0  0  0  0
    8.0251   16.4959    0.1098 C   0  0  0  0  0  0  0  0  0  0  0  0
    8.8399   16.1817    1.4078 C   0  0  0  0  0  0  0  0  0  0  0  0
    6.9911   20.2272    1.5727 O   0  0  0  0  0  0  0  0  0  0  0  0
    6.9903   16.0654    3.9987 C   0  0  0  0  0  0  0  0  0  0  0  0
    8.1496   15.8333    4.3362 O   0  0  0  0  0  0  0  0  0  0  0  0
    5.9319   17.1471    4.4881 C   0  0  2  0  0  0  0  0  0  0  0  0
    4.5349   16.6928    4.3990 C   0  0  0  0  0  0  0  0  0  0  0  0
    3.5429   17.7154    3.8117 C   0  0  0  0  0  0  0  0  0  0  0  0
    4.5695   19.5717    3.1320 C   0  0  0  0  0  0  0  0  0  0  0  0
    6.8897   14.9732    3.3510 N   0  0  0  0  0  0  0  0  0  0  0  0
    5.3922   14.1684    2.0961 C   0  0  0  0  0  0  0  0  0  0  0  0
    4.9810   12.9186    1.9212 N   0  0  0  0  0  0  0  0  0  0  0  0
    5.7271   14.3165    3.4993 C   0  0  0  0  0  0  0  0  0  0  0  0
    5.4399   15.0155    1.2143 O   0  0  0  0  0  0  0  0  0  0  0  0
    2.9689   11.8578    0.6778 C   0  0  0  0  0  0  0  0  0  0  0  0
    4.6451   12.5300    0.6000 C   0  0  2  0  0  0  0  0  0  0  0  0
    2.5837   10.7738    1.5768 N   0  0  0  0  0  0  0  0  0  0  0  0
    5.8958   11.7862    0.0871 C   0  0  0  0  0  0  0  0  0  0  0  0
    2.1368   12.2399   -0.1560 O   0  0  0  0  0  0  0  0  0  0  0  0
    2.4547    8.6740   -0.0266 C   0  0  0  0  0  0  0  0  0  0  0  0
    2.5783    9.2138    1.4241 C   0  0  2  0  0  0  0  0  0  0  0  0
    2.0629    7.5278   -0.2348 O   0  0  0  0  0  0  0  0  0  0  0  0
    1.4735    8.8191    2.3505 C   0  0  0  0  0  0  0  0  0  0  0  0
    3.0097    9.4615   -1.0128 N   0  0  0  0  0  0  0  0  0  0  0  0
    7.2015   12.3051    0.3069 C   0  0  0  0  0  0  0  0  0  0  0  0
    7.4516   13.1604   -0.6746 C   0  0  0  0  0  0  0  0  0  0  0  0
    8.6836   13.6639   -0.6313 C   0  0  0  0  0  0  0  0  0  0  0  0
    8.0693   11.8599    1.3107 C   0  0  0  0  0  0  0  0  0  0  0  0
    9.6858   13.1230    0.1542 C   0  0  0  0  0  0  0  0  0  0  0  0
    9.3904   12.1816    1.1131 C   0  0  0  0  0  0  0  0  0  0  0  0
    4.8288    9.8855    0.8432 C   0  0  0  0  0  0  0  0  0  0  0  0
    4.5969   10.5861    1.8556 O   0  0  0  0  0  0  0  0  0  0  0  0
    4.2899   10.0180   -0.8197 C   0  0  2  0  0  0  0  0  0  0  0  0
    4.1816   11.3473   -1.7944 C   0  0  0  0  0  0  0  0  0  0  0  0
    3.4028   10.8684   -2.9707 C   0  0  0  0  0  0  0  0  0  0  0  0
    2.5510    9.7244   -2.3887 C   0  0  0  0  0  0  0  0  0  0  0  0
    5.9300    9.3747    1.3471 N   0  0  0  0  0  0  0  0  0  0  0  0
    7.1718    7.7640    1.1798 C   0  0  0  0  0  0  0  0  0  0  0  0
    7.0075    9.0358    0.4805 C   0  0  2  0  0  0  0  0  0  0  0  0
    6.2741    6.8339    0.7125 N   0  0  0  0  0  0  0  0  0  0  0  0
    8.3689    9.7271    0.3379 C   0  0  0  0  0  0  0  0  0  0  0  0
    7.8800    7.6777    2.1749 O   0  0  0  0  0  0  0  0  0  0  0  0
    9.4285    8.9578   -0.2342 C   0  0  0  0  0  0  0  0  0  0  0  0
   11.1993    7.2124   -0.9410 C   0  0  0  0  0  0  0  0  0  0  0  0
   11.6110    8.2300   -0.0907 C   0  0  0  0  0  0  0  0  0  0  0  0
    9.8802    7.0553   -1.3588 C   0  0  0  0  0  0  0  0  0  0  0  0
   10.7019    9.1440    0.2832 C   0  0  0  0  0  0  0  0  0  0  0  0
    9.0044    8.0409   -1.1432 C   0  0  0  0  0  0  0  0  0  0  0  0
    5.1672    1.5006    4.0098 C   0  0  0  0  0  0  0  0  0  0  0  0
    6.7961    4.5882    0.1886 C   0  0  0  0  0  0  0  0  0  0  0  0
    5.1957    1.4296    5.2939 N   0  0  0  0  0  0  0  0  0  0  0  0
    5.9223    4.3830   -0.8343 O   0  0  0  0  0  0  0  0  0  0  0  0
    5.4736    2.6210    3.3184 N   0  0  0  0  0  0  0  0  0  0  0  0
    6.3055    5.5358    1.2974 C   0  0  2  0  0  0  0  0  0  0  0  0
    4.7944    0.4131    3.2996 N   0  0  0  0  0  0  0  0  0  0  0  0
    5.4382    2.7363    1.8905 C   0  0  0  0  0  0  0  0  0  0  0  0
    4.9341    5.1999    1.8788 C   0  0  0  0  0  0  0  0  0  0  0  0
    4.4570    3.8177    1.4676 C   0  0  0  0  0  0  0  0  0  0  0  0
    7.8355    3.9471    0.2600 O   0  0  0  0  0  0  0  0  0  0  0  0
    1.3124    7.4225    2.4052 O   0  0  0  0  0  0  0  0  0  0  0  0
    1.0994   20.1058    3.8573 H   0  0  0  0  0  0  0  0  0  0  0  0
    4.8493   19.0384    5.4436 H   0  0  0  0  0  0  0  0  0  0  0  0
    7.4675   17.1838    5.4173 H   0  0  0  0  0  0  0  0  0  0  0  0
    1.7349   19.8371    1.6083 H   0  0  0  0  0  0  0  0  0  0  0  0
    3.1228   19.1483    1.2915 H   0  0  0  0  0  0  0  0  0  0  0  0
    8.4892   16.5549    6.4601 H   0  0  0  0  0  0  0  0  0  0  0  0
    9.2564   18.0434    6.5869 H   0  0  0  0  0  0  0  0  0  0  0  0
    5.6543   17.2071    2.5765 H   0  0  0  0  0  0  0  0  0  0  0  0
    5.1060   18.5148    1.5238 H   0  0  0  0  0  0  0  0  0  0  0  0
    8.4546   20.0638    5.0001 H   0  0  0  0  0  0  0  0  0  0  0  0
    6.6923   19.6682    5.6455 H   0  0  0  0  0  0  0  0  0  0  0  0
    8.0323   19.4936    3.2638 H   0  0  0  0  0  0  0  0  0  0  0  0
    6.3492   20.7885    3.4795 H   0  0  0  0  0  0  0  0  0  0  0  0
    8.6483   18.9419    1.1141 H   0  0  0  0  0  0  0  0  0  0  0  0
    6.1577   17.1079    0.8340 H   0  0  0  0  0  0  0  0  0  0  0  0
    6.7455   18.2628   -0.3029 H   0  0  0  0  0  0  0  0  0  0  0  0
    7.4211   15.6863   -0.2813 H   0  0  0  0  0  0  0  0  0  0  0  0
    8.6808   16.8862   -0.6606 H   0  0  0  0  0  0  0  0  0  0  0  0
    8.5285   15.2137    1.7858 H   0  0  0  0  0  0  0  0  0  0  0  0
    9.8958   16.1280    1.1885 H   0  0  0  0  0  0  0  0  0  0  0  0
    5.9430   17.5905    5.5204 H   0  0  0  0  0  0  0  0  0  0  0  0
    4.4008   16.2253    3.4676 H   0  0  0  0  0  0  0  0  0  0  0  0
    4.5131   16.1238    5.3629 H   0  0  0  0  0  0  0  0  0  0  0  0
    2.4721   17.4002    3.7972 H   0  0  0  0  0  0  0  0  0  0  0  0
    3.2370   17.9005    5.1781 H   0  0  0  0  0  0  0  0  0  0  0  0
    4.1072   19.2590    2.2541 H   0  0  0  0  0  0  0  0  0  0  0  0
    4.4119   20.5660    3.7006 H   0  0  0  0  0  0  0  0  0  0  0  0
    7.8308   14.5677    3.4235 H   0  0  0  0  0  0  0  0  0  0  0  0
    5.0252   12.2272    2.6685 H   0  0  0  0  0  0  0  0  0  0  0  0
    5.7206   13.6094    4.2963 H   0  0  0  0  0  0  0  0  0  0  0  0
    4.9854   14.8964    3.9088 H   0  0  0  0  0  0  0  0  0  0  0  0
    4.7037   13.3637   -0.1058 H   0  0  0  0  0  0  0  0  0  0  0  0
    3.3031   10.7220    2.2991 H   0  0  0  0  0  0  0  0  0  0  0  0
    6.1599   11.1662    0.8465 H   0  0  0  0  0  0  0  0  0  0  0  0
    5.9783   11.1050   -0.7643 H   0  0  0  0  0  0  0  0  0  0  0  0
    3.4715    8.6993    1.9124 H   0  0  0  0  0  0  0  0  0  0  0  0
    1.6804    9.2094    3.3611 H   0  0  0  0  0  0  0  0  0  0  0  0
    0.5968    9.3241    1.9577 H   0  0  0  0  0  0  0  0  0  0  0  0
    6.6043   13.4741   -1.2634 H   0  0  0  0  0  0  0  0  0  0  0  0
    8.7932   14.5729   -1.1658 H   0  0  0  0  0  0  0  0  0  0  0  0
    7.7222   10.9677    1.8995 H   0  0  0  0  0  0  0  0  0  0  0  0
   10.6793   13.5209    0.0708 H   0  0  0  0  0  0  0  0  0  0  0  0
   10.2013   11.6893    1.6295 H   0  0  0  0  0  0  0  0  0  0  0  0
    5.0266    9.4274   -1.3616 H   0  0  0  0  0  0  0  0  0  0  0  0
    3.6726   12.2245   -1.4201 H   0  0  0  0  0  0  0  0  0  0  0  0
    5.1053   11.8496   -2.1114 H   0  0  0  0  0  0  0  0  0  0  0  0
    2.8199   11.6787   -3.4316 H   0  0  0  0  0  0  0  0  0  0  0  0
    4.1319   10.5315   -3.7107 H   0  0  0  0  0  0  0  0  0  0  0  0
    1.4972   10.0000   -2.3755 H   0  0  0  0  0  0  0  0  0  0  0  0
    2.7078    8.8401   -3.0029 H   0  0  0  0  0  0  0  0  0  0  0  0
    6.0685    9.9696    2.2000 H   0  0  0  0  0  0  0  0  0  0  0  0
    6.5839    9.0119   -0.5108 H   0  0  0  0  0  0  0  0  0  0  0  0
    5.6604    7.0412   -0.0666 H   0  0  0  0  0  0  0  0  0  0  0  0
    8.3537   10.5019   -0.4695 H   0  0  0  0  0  0  0  0  0  0  0  0
    8.9003    9.8936    1.3156 H   0  0  0  0  0  0  0  0  0  0  0  0
   11.9254    6.5206   -1.3175 H   0  0  0  0  0  0  0  0  0  0  0  0
   12.6039    8.3050    0.3092 H   0  0  0  0  0  0  0  0  0  0  0  0
    9.5283    6.1726   -1.8495 H   0  0  0  0  0  0  0  0  0  0  0  0
   10.9481    9.9480    0.9706 H   0  0  0  0  0  0  0  0  0  0  0  0
    7.9947    8.0750   -1.5292 H   0  0  0  0  0  0  0  0  0  0  0  0
    5.4842    2.3044    5.7366 H   0  0  0  0  0  0  0  0  0  0  0  0
    5.0482    4.8243   -0.7954 H   0  0  0  0  0  0  0  0  0  0  0  0
    5.7878    3.4477    3.8221 H   0  0  0  0  0  0  0  0  0  0  0  0
    7.0393    5.5333    2.1156 H   0  0  0  0  0  0  0  0  0  0  0  0
    4.7536    0.3444    2.2979 H   0  0  0  0  0  0  0  0  0  0  0  0
    4.5600   -0.4421    3.7831 H   0  0  0  0  0  0  0  0  0  0  0  0
    5.1586    1.8236    1.3800 H   0  0  0  0  0  0  0  0  0  0  0  0
    6.4533    2.8985    1.5587 H   0  0  0  0  0  0  0  0  0  0  0  0
    4.9744    5.2384    2.9755 H   0  0  0  0  0  0  0  0  0  0  0  0
    4.1991    5.9601    1.5872 H   0  0  0  0  0  0  0  0  0  0  0  0
    3.4560    3.6179    1.8364 H   0  0  0  0  0  0  0  0  0  0  0  0
    4.3004    3.7677    0.3947 H   0  0  0  0  0  0  0  0  0  0  0  0
    1.2046    7.1346    1.4744 H   0  0  0  0  0  0  0  0  0  0  0  0
  1  3  2  0  0  0  0
  1  5  1  0  0  0  0
  1  7  1  0  0  0  0
  2  6  1  0  0  0  0
  2  4  2  0  0  0  0
  3 77  1  0  0  0  0
  5  9  1  0  0  0  0
  5 78  1  0  0  0  0
  6 10  1  0  0  0  0
  6  8  1  0  0  0  0
  6 79  1  6  0  0  0
  7 80  1  0  0  0  0
  7 81  1  0  0  0  0
  8 82  1  0  0  0  0
  8 83  1  0  0  0  0
  9 11  1  0  0  0  0
  9 84  1  0  0  0  0
  9 85  1  0  0  0  0
 10 11  1  0  0  0  0
 10 86  1  0  0  0  0
 10 87  1  0  0  0  0
 11 88  1  0  0  0  0
 11 89  1  0  0  0  0
 12  2  1  0  0  0  0
 13 14  1  0  0  0  0
 15 16  1  0  0  0  0
 15 12  1  0  0  0  0
 15 90  1  6  0  0  0
 15 13  1  0  0  0  0
 16 17  1  0  0  0  0
 16 91  1  0  0  0  0
 16 92  1  0  0  0  0
 17 18  1  0  0  0  0
 17 93  1  0  0  0  0
 17 94  1  0  0  0  0
 18 12  1  0  0  0  0
 18 95  1  0  0  0  0
 18 96  1  0  0  0  0
 19 13  2  0  0  0  0
 20 21  2  0  0  0  0
 22 23  1  0  0  0  0
 22 14  1  0  0  0  0
 22 97  1  1  0  0  0
 22 20  1  0  0  0  0
 23 24  1  0  0  0  0
 23 98  1  0  0  0  0
 23 99  1  0  0  0  0
 24 25  1  0  0  0  0
 24100  1  0  0  0  0
 24101  1  0  0  0  0
 25 14  1  0  0  0  0
 25102  1  0  0  0  0
 25103  1  0  0  0  0
 26 20  1  0  0  0  0
 26 29  1  0  0  0  0
 26104  1  0  0  0  0
 27 28  1  0  0  0  0
 27 29  1  0  0  0  0
 27 30  2  0  0  0  0
 28105  1  0  0  0  0
 29106  1  0  0  0  0
 29107  1  0  0  0  0
 31 33  1  0  0  0  0
 32 28  1  0  0  0  0
 32108  1  6  0  0  0
 32 34  1  0  0  0  0
 32 31  1  0  0  0  0
 33109  1  0  0  0  0
 34 41  1  0  0  0  0
 34110  1  0  0  0  0
 34111  1  0  0  0  0
 35 31  2  0  0  0  0
 36 38  2  0  0  0  0
 37 39  1  0  0  0  0
 37112  1  1  0  0  0
 37 33  1  0  0  0  0
 37 36  1  0  0  0  0
 39 76  1  0  0  0  0
 39113  1  0  0  0  0
 39114  1  0  0  0  0
 40 36  1  0  0  0  0
 41 42  1  0  0  0  0
 42115  1  0  0  0  0
 43 42  2  0  0  0  0
 43116  1  0  0  0  0
 44 41  2  0  0  0  0
 44117  1  0  0  0  0
 45 43  1  0  0  0  0
 45118  1  0  0  0  0
 46 44  1  0  0  0  0
 46 45  2  0  0  0  0
 46119  1  0  0  0  0
 47 48  2  0  0  0  0
 49 50  1  0  0  0  0
 49 40  1  0  0  0  0
 49120  1  6  0  0  0
 49 47  1  0  0  0  0
 50 51  1  0  0  0  0
 50121  1  0  0  0  0
 50122  1  0  0  0  0
 51 52  1  0  0  0  0
 51123  1  0  0  0  0
 51124  1  0  0  0  0
 52 40  1  0  0  0  0
 52125  1  0  0  0  0
 52126  1  0  0  0  0
 53 47  1  0  0  0  0
 53127  1  0  0  0  0
 54 56  1  0  0  0  0
 55 53  1  0  0  0  0
 55128  1  6  0  0  0
 55 57  1  0  0  0  0
 55 54  1  0  0  0  0
 56129  1  0  0  0  0
 57 59  1  0  0  0  0
 57130  1  0  0  0  0
 57131  1  0  0  0  0
 58 54  2  0  0  0  0
 59 63  1  0  0  0  0
 59 64  2  0  0  0  0
 60132  1  0  0  0  0
 61 60  1  0  0  0  0
 61133  1  0  0  0  0
 62 60  2  0  0  0  0
 62134  1  0  0  0  0
 63 61  2  0  0  0  0
 63135  1  0  0  0  0
 64 62  1  0  0  0  0
 64136  1  0  0  0  0
 65 67  2  0  0  0  0
 65 69  1  0  0  0  0
 65 71  1  0  0  0  0
 66 68  1  0  0  0  0
 67137  1  0  0  0  0
 68138  1  0  0  0  0
 69 72  1  0  0  0  0
 69139  1  0  0  0  0
 70 56  1  0  0  0  0
 70140  1  1  0  0  0
 70 73  1  0  0  0  0
 70 66  1  0  0  0  0
 71141  1  0  0  0  0
 71142  1  0  0  0  0
 72 74  1  0  0  0  0
 72143  1  0  0  0  0
 72144  1  0  0  0  0
 73 74  1  0  0  0  0
 73145  1  0  0  0  0
 73146  1  0  0  0  0
 74147  1  0  0  0  0
 74148  1  0  0  0  0
 75 66  2  0  0  0  0
 76149  1  0  0  0  0
M  END
>  <DRUGBANK_ID>
DB12126

>  <COMMON_NAME>
Bradykinin

>  <CAS_NUMBER>
58-82-2

>  <UNII>
S8TIM42R2W

>  <SYNONYMS>
L-bradykinin

$$$$
