
 OpenBabel10282417143D

 59 61  0  0  0  0  0  0  0  0999 V2000
   -1.6608    1.3617    0.6233 C   0  0  1  0  0  0  0  0  0  0  0  0
   -2.0843    2.7915    0.4307 C   0  0  0  0  0  0  0  0  0  0  0  0
   -1.6668    3.7880    1.2242 C   0  0  0  0  0  0  0  0  0  0  0  0
   -2.0520    5.2181    1.0087 C   0  0  2  0  0  0  0  0  0  0  0  0
   -0.8291    6.0863    0.6608 C   0  0  3  0  0  0  0  0  0  0  0  0
   -0.1372    5.5801   -0.6144 C   0  0  0  0  0  0  0  0  0  0  0  0
   -1.0689    5.6197   -1.7500 C   0  0  0  0  0  0  0  0  0  0  0  0
   -1.2371    7.5551    0.4895 C   0  0  0  0  0  0  0  0  0  0  0  0
   -1.8919    5.6768   -2.7596 C   0  0  0  0  0  0  0  0  0  0  0  0
   -2.8514    5.7433   -3.9366 C   0  0  0  0  0  0  0  0  0  0  0  0
   -2.6595    5.6736    2.2088 O   0  0  0  0  0  0  0  0  0  0  0  0
   -2.8697   -0.6292   -0.1889 C   0  0  0  0  0  0  0  0  0  0  0  0
   -2.8815    0.4628    0.8742 C   0  0  1  0  0  0  0  0  0  0  0  0
   -1.4675   -0.6206   -0.7777 C   0  0  1  0  0  0  0  0  0  0  0  0
   -0.9689    0.8192   -0.6369 C   0  0  2  0  0  0  0  0  0  0  0  0
   -0.5785   -1.4930   -0.0489 O   0  0  0  0  0  0  0  0  0  0  0  0
    0.6028   -0.7914   -0.0133 C   0  0  0  0  0  0  0  0  0  0  0  0
    0.4659    0.5402   -0.3914 C   0  0  0  0  0  0  0  0  0  0  0  0
    1.5407    1.4140   -0.4060 C   0  0  0  0  0  0  0  0  0  0  0  0
    2.7676    0.9342    0.0180 C   0  0  0  0  0  0  0  0  0  0  0  0
    2.8728   -0.3812    0.4759 C   0  0  0  0  0  0  0  0  0  0  0  0
    1.8108   -1.3015    0.4079 C   0  0  0  0  0  0  0  0  0  0  0  0
    1.9756   -2.7552    0.7642 C   0  0  0  0  0  0  0  0  0  0  0  0
    2.9837   -3.4885   -0.1422 C   0  0  0  0  0  0  0  0  0  0  0  0
    4.4258   -2.9725   -0.0848 C   0  0  0  0  0  0  0  0  0  0  0  0
    4.9829   -2.9654    1.3319 C   0  0  0  0  0  0  0  0  0  0  0  0
    6.1633   -3.5948    1.4673 O   0  0  0  0  0  0  0  0  0  0  0  0
    4.4573   -2.4233    2.2977 O   0  0  0  0  0  0  0  0  0  0  0  0
   -2.7904   -0.1202    2.1699 O   0  0  0  0  0  0  0  0  0  0  0  0
   -1.4775   -0.9669   -1.8189 H   0  0  0  0  0  0  0  0  0  0  0  0
   -1.1371    1.4073   -1.5446 H   0  0  0  0  0  0  0  0  0  0  0  0
   -0.9871    1.3102    1.4916 H   0  0  0  0  0  0  0  0  0  0  0  0
   -2.7493    3.0071   -0.4043 H   0  0  0  0  0  0  0  0  0  0  0  0
   -0.9761    3.5821    2.0408 H   0  0  0  0  0  0  0  0  0  0  0  0
   -2.8079    5.2998    0.2183 H   0  0  0  0  0  0  0  0  0  0  0  0
   -0.1099    6.0432    1.4909 H   0  0  0  0  0  0  0  0  0  0  0  0
    0.7471    6.1905   -0.8307 H   0  0  0  0  0  0  0  0  0  0  0  0
    0.2333    4.5578   -0.4786 H   0  0  0  0  0  0  0  0  0  0  0  0
   -1.7072    7.9465    1.3949 H   0  0  0  0  0  0  0  0  0  0  0  0
   -0.3607    8.1713    0.2645 H   0  0  0  0  0  0  0  0  0  0  0  0
   -1.9527    7.6768   -0.3310 H   0  0  0  0  0  0  0  0  0  0  0  0
   -3.0350    6.7862   -4.2095 H   0  0  0  0  0  0  0  0  0  0  0  0
   -2.4238    5.2200   -4.7963 H   0  0  0  0  0  0  0  0  0  0  0  0
   -3.8016    5.2725   -3.6697 H   0  0  0  0  0  0  0  0  0  0  0  0
   -3.4507    5.1221    2.3348 H   0  0  0  0  0  0  0  0  0  0  0  0
   -3.1453   -1.6064    0.2187 H   0  0  0  0  0  0  0  0  0  0  0  0
   -3.5839   -0.3545   -0.9742 H   0  0  0  0  0  0  0  0  0  0  0  0
   -3.8249    1.0204    0.8326 H   0  0  0  0  0  0  0  0  0  0  0  0
    1.4363    2.4517   -0.6947 H   0  0  0  0  0  0  0  0  0  0  0  0
    3.6511    1.5673    0.0287 H   0  0  0  0  0  0  0  0  0  0  0  0
    3.8339   -0.6547    0.8906 H   0  0  0  0  0  0  0  0  0  0  0  0
    2.2357   -2.8504    1.8218 H   0  0  0  0  0  0  0  0  0  0  0  0
    1.0142   -3.2798    0.6789 H   0  0  0  0  0  0  0  0  0  0  0  0
    2.9889   -4.5516    0.1276 H   0  0  0  0  0  0  0  0  0  0  0  0
    2.6294   -3.4341   -1.1815 H   0  0  0  0  0  0  0  0  0  0  0  0
    5.0570   -3.5808   -0.7397 H   0  0  0  0  0  0  0  0  0  0  0  0
    4.5083   -1.9731   -0.5228 H   0  0  0  0  0  0  0  0  0  0  0  0
    6.5179   -3.9709    0.6440 H   0  0  0  0  0  0  0  0  0  0  0  0
   -3.6185    0.0721    2.6406 H   0  0  0  0  0  0  0  0  0  0  0  0
  1 15  1  0  0  0  0
  1  2  1  0  0  0  0
  1 32  1  1  0  0  0
  2  3  2  0  0  0  0
  2 33  1  0  0  0  0
  3  4  1  0  0  0  0
  3 34  1  0  0  0  0
  4 11  1  0  0  0  0
  4  5  1  0  0  0  0
  4 35  1  6  0  0  0
  5  6  1  0  0  0  0
  5  8  1  0  0  0  0
  5 36  1  0  0  0  0
  6  7  1  0  0  0  0
  6 37  1  0  0  0  0
  6 38  1  0  0  0  0
  7  9  3  0  0  0  0
  8 39  1  0  0  0  0
  8 40  1  0  0  0  0
  8 41  1  0  0  0  0
  9 10  1  0  0  0  0
 10 42  1  0  0  0  0
 10 43  1  0  0  0  0
 10 44  1  0  0  0  0
 11 45  1  0  0  0  0
 12 13  1  0  0  0  0
 12 46  1  0  0  0  0
 12 47  1  0  0  0  0
 13  1  1  0  0  0  0
 13 48  1  6  0  0  0
 13 29  1  0  0  0  0
 14 12  1  0  0  0  0
 14 15  1  0  0  0  0
 14 30  1  6  0  0  0
 15 18  1  0  0  0  0
 15 31  1  6  0  0  0
 16 14  1  0  0  0  0
 17 16  1  0  0  0  0
 17 18  2  0  0  0  0
 18 19  1  0  0  0  0
 19 20  2  0  0  0  0
 19 49  1  0  0  0  0
 20 21  1  0  0  0  0
 20 50  1  0  0  0  0
 21 22  2  0  0  0  0
 21 51  1  0  0  0  0
 22 17  1  0  0  0  0
 22 23  1  0  0  0  0
 23 24  1  0  0  0  0
 23 52  1  0  0  0  0
 23 53  1  0  0  0  0
 24 25  1  0  0  0  0
 24 54  1  0  0  0  0
 24 55  1  0  0  0  0
 25 26  1  0  0  0  0
 25 56  1  0  0  0  0
 25 57  1  0  0  0  0
 26 27  1  0  0  0  0
 26 28  2  0  0  0  0
 27 58  1  0  0  0  0
 29 59  1  0  0  0  0
M  END
>  <DRUGBANK_ID>
DB05229

>  <COMMON_NAME>
Beraprost

>  <CAS_NUMBER>
88430-50-6

>  <UNII>
35E3NJJ4O6

>  <SYNONYMS>
Beraprost; Beraprostum

$$$$
