
 OpenBabel10282417163D

 44 46  0  0  0  0  0  0  0  0999 V2000
   -0.6497   -6.2379    1.1227 C   0  0  0  0  0  0  0  0  0  0  0  0
   -0.7049   -5.2558    2.0101 C   0  0  0  0  0  0  0  0  0  0  0  0
   -0.9970   -4.2594    1.2148 C   0  0  0  0  0  0  0  0  0  0  0  0
   -0.2597   -4.1097   -0.4354 C   0  0  0  0  0  0  0  0  0  0  0  0
   -1.4947   -4.8007   -0.9475 C   0  0  0  0  0  0  0  0  0  0  0  0
   -2.0258   -3.7554   -2.3327 N   0  0  0  0  0  0  0  0  0  0  0  0
   -0.9564   -2.0975   -2.6070 C   0  0  0  0  0  0  0  0  0  0  0  0
    0.1508   -1.5970   -3.7156 C   0  0  0  0  0  0  0  0  0  0  0  0
   -0.0295   -0.2780   -3.6003 C   0  0  0  0  0  0  0  0  0  0  0  0
   -0.1640    0.2021   -2.2949 C   0  0  0  0  0  0  0  0  0  0  0  0
    0.0587   -0.6544   -1.1156 C   0  0  0  0  0  0  0  0  0  0  0  0
   -0.5169    0.0040    0.0563 O   0  0  0  0  0  0  0  0  0  0  0  0
   -0.2759   -0.5854    1.3153 C   0  0  0  0  0  0  0  0  0  0  0  0
   -0.7190   -1.9235    1.4375 C   0  0  2  0  0  0  0  0  0  0  0  0
    0.1243   -2.5366    0.4865 C   0  0  0  0  0  0  0  0  0  0  0  0
   -1.3108   -2.7177   -0.8761 N   0  0  0  0  0  0  0  0  0  0  0  0
   -0.2349   -3.7638   -2.4973 C   0  0  0  0  0  0  0  0  0  0  0  0
   -0.0825   -5.3657   -2.7178 C   0  0  0  0  0  0  0  0  0  0  0  0
   -1.3414   -3.2069   -4.1789 C   0  0  0  0  0  0  0  0  0  0  0  0
   -2.2040   -2.1193    1.3752 O   0  0  0  0  0  0  0  0  0  0  0  0
    0.3231   -2.2711   -1.4112 C   0  0  0  0  0  0  0  0  0  0  0  0
   -1.0721   -6.1198   -0.3370 C   0  0  0  0  0  0  0  0  0  0  0  0
   -0.3985   -7.1752    1.5688 H   0  0  0  0  0  0  0  0  0  0  0  0
   -0.5892   -5.0704    3.0811 H   0  0  0  0  0  0  0  0  0  0  0  0
   -1.2864   -3.5666    2.1814 H   0  0  0  0  0  0  0  0  0  0  0  0
   -1.8790   -4.4315   -3.0944 H   0  0  0  0  0  0  0  0  0  0  0  0
    0.1834   -1.9766   -4.7919 H   0  0  0  0  0  0  0  0  0  0  0  0
   -0.4323    0.1642   -4.5100 H   0  0  0  0  0  0  0  0  0  0  0  0
   -0.5813    1.1971   -2.2061 H   0  0  0  0  0  0  0  0  0  0  0  0
    0.7787   -0.7859    1.4752 H   0  0  0  0  0  0  0  0  0  0  0  0
   -0.7334   -0.1704    2.2066 H   0  0  0  0  0  0  0  0  0  0  0  0
   -0.0963   -2.4265    2.2096 H   0  0  0  0  0  0  0  0  0  0  0  0
    1.2931   -2.4586    0.1056 H   0  0  0  0  0  0  0  0  0  0  0  0
    0.8614   -3.6311    0.7712 H   0  0  0  0  0  0  0  0  0  0  0  0
   -2.2854   -2.9945   -0.7962 H   0  0  0  0  0  0  0  0  0  0  0  0
    0.9452   -3.4251   -2.6501 H   0  0  0  0  0  0  0  0  0  0  0  0
   -1.0999   -5.9101   -2.7054 H   0  0  0  0  0  0  0  0  0  0  0  0
    0.3579   -5.4098   -3.6913 H   0  0  0  0  0  0  0  0  0  0  0  0
    0.6320   -5.6833   -1.9390 H   0  0  0  0  0  0  0  0  0  0  0  0
   -1.6570   -2.0158   -4.3504 H   0  0  0  0  0  0  0  0  0  0  0  0
   -0.9133   -3.6877   -5.0036 H   0  0  0  0  0  0  0  0  0  0  0  0
   -2.4876   -3.0714   -3.9636 H   0  0  0  0  0  0  0  0  0  0  0  0
   -2.5428   -2.4331    0.5070 H   0  0  0  0  0  0  0  0  0  0  0  0
   -0.6482   -6.9535   -0.9042 H   0  0  0  0  0  0  0  0  0  0  0  0
  1  2  2  0  0  0  0
  1 23  1  0  0  0  0
  2  3  1  0  0  0  0
  2 24  1  0  0  0  0
  3  4  2  0  0  0  0
  3 25  1  0  0  0  0
  4 21  1  0  0  0  0
  5  4  1  0  0  0  0
  5 22  2  0  0  0  0
  6  5  1  0  0  0  0
  6 26  1  0  0  0  0
  7  6  1  0  0  0  0
  7 21  2  0  0  0  0
  8  7  1  0  0  0  0
  8 27  1  0  0  0  0
  9  8  2  0  0  0  0
  9 28  1  0  0  0  0
 10  9  1  0  0  0  0
 10 29  1  0  0  0  0
 11 10  2  0  0  0  0
 11 12  1  0  0  0  0
 12 13  1  0  0  0  0
 13 30  1  0  0  0  0
 13 31  1  0  0  0  0
 14 20  1  0  0  0  0
 14 32  1  1  0  0  0
 14 15  1  0  0  0  0
 14 13  1  0  0  0  0
 15 16  1  0  0  0  0
 15 33  1  0  0  0  0
 15 34  1  0  0  0  0
 16 17  1  0  0  0  0
 16 35  1  0  0  0  0
 17 18  1  0  0  0  0
 17 19  1  0  0  0  0
 17 36  1  0  0  0  0
 18 37  1  0  0  0  0
 18 38  1  0  0  0  0
 18 39  1  0  0  0  0
 19 40  1  0  0  0  0
 19 41  1  0  0  0  0
 19 42  1  0  0  0  0
 20 43  1  0  0  0  0
 21 11  1  0  0  0  0
 22  1  1  0  0  0  0
 22 44  1  0  0  0  0
M  END
>  <DRUGBANK_ID>
DB07543

>  <COMMON_NAME>
(S)-carazolol

>  <CAS_NUMBER>
78859-33-3

>  <UNII>
6Q9080LN3O

>  <SYNONYMS>
(-)-Carazolol

$$$$
