
 OpenBabel10282417203D

 55 58  0  0  0  0  0  0  0  0999 V2000
   -3.9101    0.9741    1.0861 C   0  0  0  0  0  0  0  0  0  0  0  0
   -6.7808    4.8248    1.2295 C   0  0  0  0  0  0  0  0  0  0  0  0
   -4.3549    1.2079    2.7240 C   0  0  2  0  0  0  0  0  0  0  0  0
   -3.0699    3.1024    0.2746 C   0  0  0  0  0  0  0  0  0  0  0  0
   -3.3611    0.2261    2.3739 C   0  0  0  0  0  0  0  0  0  0  0  0
   -6.6886    3.2977   -1.3048 C   0  0  2  0  0  0  0  0  0  0  0  0
   -4.2405    2.9037   -0.7082 C   0  0  0  0  0  0  0  0  0  0  0  0
   -8.2455    4.5876    0.2716 C   0  0  1  0  0  0  0  0  0  0  0  0
   -7.9633    4.0746   -1.3923 C   0  0  0  0  0  0  0  0  0  0  0  0
   -5.9924    3.6194   -2.5865 C   0  0  0  0  0  0  0  0  0  0  0  0
   -8.5259    3.9070   -2.7229 C   0  0  0  0  0  0  0  0  0  0  0  0
   -6.2762    2.7570   -3.5525 C   0  0  0  0  0  0  0  0  0  0  0  0
   -5.8616    3.5217    1.0009 C   0  0  2  0  0  0  0  0  0  0  0  0
   -6.6434    2.9088    1.3684 H   0  0  0  0  0  0  0  0  0  0  0  0
   -5.5279    3.6701   -0.4118 C   0  0  1  0  0  0  0  0  0  0  0  0
   -5.2579    4.7313   -0.5593 H   0  0  0  0  0  0  0  0  0  0  0  0
   -3.4000    2.6196    1.8317 C   0  0  2  0  0  0  0  0  0  0  0  0
   -2.3057    3.0014    2.7904 C   0  0  0  0  0  0  0  0  0  0  0  0
   -4.7908    2.6438    1.6780 C   0  0  1  0  0  0  0  0  0  0  0  0
   -4.7273    3.2768    2.5940 H   0  0  0  0  0  0  0  0  0  0  0  0
   -7.3518    4.1371   -5.0841 O   0  0  0  0  0  0  0  0  0  0  0  0
   -7.3924    3.6349   -4.0214 C   0  0  0  0  0  0  0  0  0  0  0  0
   -7.4601    2.0088   -0.9543 C   0  0  0  0  0  0  0  0  0  0  0  0
   -4.9951    1.5735    3.9491 O   0  0  0  0  0  0  0  0  0  0  0  0
   -5.5900   -0.0185    2.3903 C   0  0  0  0  0  0  0  0  0  0  0  0
   -4.1336    2.0918   -1.6281 O   0  0  0  0  0  0  0  0  0  0  0  0
   -5.7655   -0.9457    3.1985 O   0  0  0  0  0  0  0  0  0  0  0  0
   -6.5763    0.0447    1.2784 C   0  0  0  0  0  0  0  0  0  0  0  0
   -7.3949    1.1330    1.5400 O   0  0  0  0  0  0  0  0  0  0  0  0
   -9.0300    3.7188    1.4290 C   0  0  0  0  0  0  0  0  0  0  0  0
   -4.3574    0.4214    0.2604 H   0  0  0  0  0  0  0  0  0  0  0  0
   -2.8969    1.0214    0.6070 H   0  0  0  0  0  0  0  0  0  0  0  0
   -7.1481    4.9917    2.2599 H   0  0  0  0  0  0  0  0  0  0  0  0
   -6.1882    5.7357    1.0702 H   0  0  0  0  0  0  0  0  0  0  0  0
   -2.7933    4.1577    0.2233 H   0  0  0  0  0  0  0  0  0  0  0  0
   -2.2420    2.5453   -0.1886 H   0  0  0  0  0  0  0  0  0  0  0  0
   -3.6111   -0.6626    2.9612 H   0  0  0  0  0  0  0  0  0  0  0  0
   -2.2853    0.3557    2.4953 H   0  0  0  0  0  0  0  0  0  0  0  0
   -8.8525    5.4989    0.1929 H   0  0  0  0  0  0  0  0  0  0  0  0
   -5.8954    4.7081   -2.7693 H   0  0  0  0  0  0  0  0  0  0  0  0
   -8.8259    2.8559   -3.0854 H   0  0  0  0  0  0  0  0  0  0  0  0
   -6.5051    1.7414   -3.2324 H   0  0  0  0  0  0  0  0  0  0  0  0
   -2.1810    2.2483    3.5753 H   0  0  0  0  0  0  0  0  0  0  0  0
   -1.3454    2.9892    2.2501 H   0  0  0  0  0  0  0  0  0  0  0  0
   -2.4514    3.9765    3.2405 H   0  0  0  0  0  0  0  0  0  0  0  0
   -8.3668    1.7315   -1.5135 H   0  0  0  0  0  0  0  0  0  0  0  0
   -6.8188    1.1574   -0.9654 H   0  0  0  0  0  0  0  0  0  0  0  0
   -7.9611    2.1688   -0.0075 H   0  0  0  0  0  0  0  0  0  0  0  0
   -5.9424    1.2862    3.8768 H   0  0  0  0  0  0  0  0  0  0  0  0
   -6.1218    0.0199    0.2899 H   0  0  0  0  0  0  0  0  0  0  0  0
   -7.2450   -0.8113    1.3018 H   0  0  0  0  0  0  0  0  0  0  0  0
   -7.5425    1.2929    2.4803 H   0  0  0  0  0  0  0  0  0  0  0  0
   -9.6201    2.8519    1.1280 H   0  0  0  0  0  0  0  0  0  0  0  0
   -8.3435    3.3357    2.2105 H   0  0  0  0  0  0  0  0  0  0  0  0
   -9.6419    4.3789    2.0622 H   0  0  0  0  0  0  0  0  0  0  0  0
  1 31  1  0  0  0  0
  1 32  1  0  0  0  0
  2  8  1  0  0  0  0
  2 33  1  0  0  0  0
  2 34  1  0  0  0  0
  3  5  1  0  0  0  0
  3 24  1  1  0  0  0
  3 25  1  0  0  0  0
  4  7  1  0  0  0  0
  4 35  1  0  0  0  0
  4 36  1  0  0  0  0
  5  1  1  0  0  0  0
  5 37  1  0  0  0  0
  5 38  1  0  0  0  0
  6  9  1  0  0  0  0
  6 10  1  0  0  0  0
  6 23  1  6  0  0  0
  7 26  2  0  0  0  0
  8  9  1  0  0  0  0
  8 39  1  6  0  0  0
  8 30  1  0  0  0  0
  9 11  2  0  0  0  0
 10 12  2  0  0  0  0
 10 40  1  0  0  0  0
 11 22  1  0  0  0  0
 11 41  1  0  0  0  0
 12 22  1  0  0  0  0
 12 42  1  0  0  0  0
 13 15  1  0  0  0  0
 13  2  1  0  0  0  0
 13 14  1  1  0  0  0
 15  6  1  0  0  0  0
 15  7  1  0  0  0  0
 15 16  1  1  0  0  0
 17  3  1  0  0  0  0
 17  4  1  0  0  0  0
 17 18  1  1  0  0  0
 18 43  1  0  0  0  0
 18 44  1  0  0  0  0
 18 45  1  0  0  0  0
 19 13  1  0  0  0  0
 19 17  1  0  0  0  0
 19  1  1  0  0  0  0
 19 20  1  6  0  0  0
 22 21  2  0  0  0  0
 23 46  1  0  0  0  0
 23 47  1  0  0  0  0
 23 48  1  0  0  0  0
 24 49  1  0  0  0  0
 27 25  2  0  0  0  0
 28 25  1  0  0  0  0
 28 50  1  0  0  0  0
 28 51  1  0  0  0  0
 29 28  1  0  0  0  0
 29 52  1  0  0  0  0
 30 53  1  0  0  0  0
 30 54  1  0  0  0  0
 30 55  1  0  0  0  0
M  END
>  <DRUGBANK_ID>
DB12952

>  <COMMON_NAME>
Methylprednisone

>  <CAS_NUMBER>
91523-05-6

>  <UNII>
621XR2W6OP

>  <SYNONYMS>
6-alpha-methylprednisone

$$$$
