
 OpenBabel10282417243D

 49 48  0  0  1  0  0  0  0  0999 V2000
    1.0425   -2.0783    1.3972 C   0  0  0  0  0  0  0  0  0  0  0  0
    0.5319   -1.4402    0.1042 C   0  0  2  0  0  0  0  0  0  0  0  0
    1.1235   -0.1013   -0.1217 N   0  0  0  0  0  0  0  0  0  0  0  0
   -1.0081   -1.3827    0.0896 C   0  0  0  0  0  0  0  0  0  0  0  0
   -1.6888   -2.0713   -0.6731 O   0  0  0  0  0  0  0  0  0  0  0  0
   -1.6734   -0.5419    0.9369 N   0  0  0  0  0  0  0  0  0  0  0  0
   -1.1278    0.1822    2.0823 C   0  0  1  0  0  0  0  0  0  0  0  0
   -1.2731    1.7063    1.9727 C   0  0  0  0  0  0  0  0  0  0  0  0
   -2.5925    2.2872    2.3850 C   0  0  0  0  0  0  0  0  0  0  0  0
   -2.6470    2.3147    3.9371 C   0  0  0  0  0  0  0  0  0  0  0  0
   -3.2445    3.4180    4.4293 O   0  0  0  0  0  0  0  0  0  0  0  0
   -2.3423    1.4473    4.6934 O   0  0  0  0  0  0  0  0  0  0  0  0
   -1.5629   -0.5217    3.3833 C   0  0  0  0  0  0  0  0  0  0  0  0
   -0.7009   -0.8157    4.2210 O   0  0  0  0  0  0  0  0  0  0  0  0
   -2.8952   -0.7540    3.6854 N   0  0  0  0  0  0  0  0  0  0  0  0
   -4.1632   -0.1804    3.1106 C   0  0  1  0  0  0  0  0  0  0  0  0
   -5.1739   -1.2280    2.7146 C   0  0  0  0  0  0  0  0  0  0  0  0
   -5.8190   -1.8064    3.9231 C   0  0  0  0  0  0  0  0  0  0  0  0
   -7.0722   -1.3538    4.1455 O   0  0  0  0  0  0  0  0  0  0  0  0
   -5.2299   -2.4930    4.7442 O   0  0  0  0  0  0  0  0  0  0  0  0
   -4.9858    1.1315    3.6963 C   0  0  0  0  0  0  0  0  0  0  0  0
   -5.2708    2.0980    2.9714 O   0  0  0  0  0  0  0  0  0  0  0  0
   -5.3968    1.2511    4.9907 N   0  0  0  0  0  0  0  0  0  0  0  0
   -5.2531    0.2126    5.9641 C   0  0  0  0  0  0  0  0  0  0  0  0
   -4.5264    0.3377    7.2789 C   0  0  0  0  0  0  0  0  0  0  0  0
   -5.2813   -0.0557    8.3309 O   0  0  0  0  0  0  0  0  0  0  0  0
   -3.3595    0.6672    7.3911 O   0  0  0  0  0  0  0  0  0  0  0  0
    0.4606   -1.8139    2.2775 H   0  0  0  0  0  0  0  0  0  0  0  0
    2.0780   -1.7960    1.6068 H   0  0  0  0  0  0  0  0  0  0  0  0
    0.9722   -3.1667    1.3446 H   0  0  0  0  0  0  0  0  0  0  0  0
    0.8383   -2.0649   -0.7413 H   0  0  0  0  0  0  0  0  0  0  0  0
    1.5685    0.2389    0.7285 H   0  0  0  0  0  0  0  0  0  0  0  0
    0.4035    0.5718   -0.3813 H   0  0  0  0  0  0  0  0  0  0  0  0
   -2.6571   -0.7666    0.9236 H   0  0  0  0  0  0  0  0  0  0  0  0
   -0.0434    0.0806    2.0667 H   0  0  0  0  0  0  0  0  0  0  0  0
   -0.5246    2.1817    2.6130 H   0  0  0  0  0  0  0  0  0  0  0  0
   -1.0609    2.0074    0.9400 H   0  0  0  0  0  0  0  0  0  0  0  0
   -2.7284    3.3116    2.0435 H   0  0  0  0  0  0  0  0  0  0  0  0
   -3.3614    1.7849    1.7980 H   0  0  0  0  0  0  0  0  0  0  0  0
   -4.0905    3.5344    3.9614 H   0  0  0  0  0  0  0  0  0  0  0  0
   -2.8887   -0.9530    4.6852 H   0  0  0  0  0  0  0  0  0  0  0  0
   -3.8352    0.1294    2.1309 H   0  0  0  0  0  0  0  0  0  0  0  0
   -5.9170   -0.7472    2.0684 H   0  0  0  0  0  0  0  0  0  0  0  0
   -4.6949   -2.0260    2.1421 H   0  0  0  0  0  0  0  0  0  0  0  0
   -7.4302   -0.7214    3.4913 H   0  0  0  0  0  0  0  0  0  0  0  0
   -5.7259    2.1677    5.2913 H   0  0  0  0  0  0  0  0  0  0  0  0
   -6.2476   -0.2121    6.1096 H   0  0  0  0  0  0  0  0  0  0  0  0
   -4.6205   -0.5068    5.4861 H   0  0  0  0  0  0  0  0  0  0  0  0
   -6.1725   -0.3791    8.0960 H   0  0  0  0  0  0  0  0  0  0  0  0
  1 28  1  0  0  0  0
  1 29  1  0  0  0  0
  1 30  1  0  0  0  0
  2  4  1  0  0  0  0
  2 31  1  6  0  0  0
  2  3  1  0  0  0  0
  2  1  1  0  0  0  0
  3 32  1  0  0  0  0
  3 33  1  0  0  0  0
  4  5  2  0  0  0  0
  4  6  1  0  0  0  0
  6 34  1  0  0  0  0
  7  6  1  0  0  0  0
  7  8  1  0  0  0  0
  7 13  1  0  0  0  0
  7 35  1  6  0  0  0
  8  9  1  0  0  0  0
  8 36  1  0  0  0  0
  8 37  1  0  0  0  0
  9 10  1  0  0  0  0
  9 38  1  0  0  0  0
  9 39  1  0  0  0  0
 10 11  1  0  0  0  0
 10 12  2  0  0  0  0
 11 40  1  0  0  0  0
 13 14  2  0  0  0  0
 13 15  1  0  0  0  0
 15 41  1  0  0  0  0
 16 15  1  0  0  0  0
 16 17  1  0  0  0  0
 16 21  1  0  0  0  0
 16 42  1  6  0  0  0
 17 18  1  0  0  0  0
 17 43  1  0  0  0  0
 17 44  1  0  0  0  0
 18 19  1  0  0  0  0
 18 20  2  0  0  0  0
 19 45  1  0  0  0  0
 21 22  2  0  0  0  0
 21 23  1  0  0  0  0
 23 24  1  0  0  0  0
 23 46  1  0  0  0  0
 24 25  1  0  0  0  0
 24 47  1  0  0  0  0
 24 48  1  0  0  0  0
 25 26  1  0  0  0  0
 25 27  2  0  0  0  0
 26 49  1  0  0  0  0
M  END
>  <DRUGBANK_ID>
DB17882

>  <COMMON_NAME>
Epitalon

>  <CAS_NUMBER>
307297-39-8

>  <UNII>
O65P17785G

>  <SYNONYMS>
Ala-glu-asp-gly; Epithalon; Glycine, l-alanyl-l-.alpha.-glutamyl-l-.alpha.-aspartyl-

$$$$
