
 OpenBabel10282417123D

 72 76  0  0  1  0  0  0  0  0999 V2000
    0.4097    0.4418    0.2714 C   0  0  0  0  0  0  0  0  0  0  0  0
    6.0282   -4.5077   -5.1637 C   0  0  0  0  0  0  0  0  0  0  0  0
    3.1843    9.9320    4.0846 C   0  0  0  0  0  0  0  0  0  0  0  0
    6.4087   -3.1703   -5.3306 C   0  0  0  0  0  0  0  0  0  0  0  0
    3.0904   10.9468    3.1337 C   0  0  0  0  0  0  0  0  0  0  0  0
    5.0767   -4.8885   -4.2195 C   0  0  0  0  0  0  0  0  0  0  0  0
    3.2198    8.6069    3.6764 C   0  0  0  0  0  0  0  0  0  0  0  0
    5.8525   -2.1868   -4.5434 C   0  0  0  0  0  0  0  0  0  0  0  0
    3.0395   10.6470    1.7686 C   0  0  0  0  0  0  0  0  0  0  0  0
    3.5747   -4.2841   -2.4478 C   0  0  0  0  0  0  0  0  0  0  0  0
    3.2168    6.9851    1.9212 C   0  0  0  0  0  0  0  0  0  0  0  0
    3.5727    4.3170   -1.2770 C   0  0  0  0  0  0  0  0  0  0  0  0
    3.1570   -3.3088   -1.5867 C   0  0  0  0  0  0  0  0  0  0  0  0
    3.1385    6.6797    0.5733 C   0  0  0  0  0  0  0  0  0  0  0  0
    3.8400    3.0491   -0.7449 C   0  0  0  0  0  0  0  0  0  0  0  0
    4.5201   -1.6124   -2.7357 C   0  0  0  0  0  0  0  0  0  0  0  0
    3.0934    8.9932   -0.0426 C   0  0  0  0  0  0  0  0  0  0  0  0
    1.4261    3.6571   -1.9810 C   0  0  0  0  0  0  0  0  0  0  0  0
   -1.8591   -0.3773   -2.3296 C   0  0  0  0  0  0  0  0  0  0  0  0
    4.5225   -3.9275   -3.4067 C   0  0  0  0  0  0  0  0  0  0  0  0
    3.1884    8.3049    2.3142 C   0  0  0  0  0  0  0  0  0  0  0  0
    4.9546   -2.5793   -3.5755 C   0  0  0  0  0  0  0  0  0  0  0  0
    3.1083    9.3236    1.3304 C   0  0  0  0  0  0  0  0  0  0  0  0
    2.3632    4.6646   -1.8690 C   0  0  0  0  0  0  0  0  0  0  0  0
    3.7444   -2.0316   -1.6809 C   0  0  0  0  0  0  0  0  0  0  0  0
    3.1139    7.6554   -0.4282 C   0  0  0  0  0  0  0  0  0  0  0  0
    1.7629    2.3265   -1.5686 C   0  0  0  0  0  0  0  0  0  0  0  0
    2.9989    1.9761   -0.9726 C   0  0  0  0  0  0  0  0  0  0  0  0
   -0.4735   -0.7803   -1.8789 C   0  0  1  0  0  0  0  0  0  0  0  0
   -1.8409    0.5735   -3.4978 C   0  0  0  0  0  0  0  0  0  0  0  0
    0.8170    1.3521   -2.0651 C   0  0  0  0  0  0  0  0  0  0  0  0
    0.1621   -1.7037   -3.0313 C   0  0  0  0  0  0  0  0  0  0  0  0
    3.6537    0.6646   -0.7151 N   0  0  0  0  0  0  0  0  0  0  0  0
    0.2000    0.4261   -1.2015 N   0  0  0  0  0  0  0  0  0  0  0  0
   -2.0040    0.2616   -4.6661 O   0  0  0  0  0  0  0  0  0  0  0  0
   -1.5621    1.8506   -3.1599 O   0  0  0  0  0  0  0  0  0  0  0  0
    0.7364    1.3865   -3.2965 O   0  0  0  0  0  0  0  0  0  0  0  0
    0.3946   -2.9048   -2.9294 O   0  0  0  0  0  0  0  0  0  0  0  0
    0.4328   -1.0662   -4.1892 O   0  0  0  0  0  0  0  0  0  0  0  0
    2.3925   -1.3377    0.2933 O   0  0  0  0  0  0  0  0  0  0  0  0
    2.1033   -0.5938   -2.1561 O   0  0  0  0  0  0  0  0  0  0  0  0
    4.3919    6.8294   -2.5723 O   0  0  0  0  0  0  0  0  0  0  0  0
    2.4171    8.3436   -2.8545 O   0  0  0  0  0  0  0  0  0  0  0  0
    2.0323    5.9319   -2.2881 O   0  0  0  0  0  0  0  0  0  0  0  0
    2.8537   -0.7835   -0.9757 S   0  0  0  0  0  0  0  0  0  0  0  0
    3.0494    7.2228   -2.1812 S   0  0  0  0  0  0  0  0  0  0  0  0
   -0.5706   -1.5200   -1.0642 H   0  0  0  0  0  0  0  0  0  0  0  0
    0.0961   -0.4973    0.7374 H   0  0  0  0  0  0  0  0  0  0  0  0
   -0.0166    1.3243    0.7399 H   0  0  0  0  0  0  0  0  0  0  0  0
    1.4588    0.5899    0.5350 H   0  0  0  0  0  0  0  0  0  0  0  0
    6.4842   -5.2724   -5.7776 H   0  0  0  0  0  0  0  0  0  0  0  0
    3.2253   10.1699    5.1434 H   0  0  0  0  0  0  0  0  0  0  0  0
    7.1569   -2.8913   -6.0617 H   0  0  0  0  0  0  0  0  0  0  0  0
    3.0572   11.9830    3.4557 H   0  0  0  0  0  0  0  0  0  0  0  0
    4.7982   -5.9287   -4.0917 H   0  0  0  0  0  0  0  0  0  0  0  0
    3.2687    7.8165    4.4232 H   0  0  0  0  0  0  0  0  0  0  0  0
    6.1580   -1.1464   -4.6401 H   0  0  0  0  0  0  0  0  0  0  0  0
    2.9410   11.4563    1.0502 H   0  0  0  0  0  0  0  0  0  0  0  0
    3.1452   -5.2782   -2.3654 H   0  0  0  0  0  0  0  0  0  0  0  0
    3.2709    6.1678    2.6368 H   0  0  0  0  0  0  0  0  0  0  0  0
    4.3549    5.0506   -1.1205 H   0  0  0  0  0  0  0  0  0  0  0  0
    2.2774   -3.4899   -0.9590 H   0  0  0  0  0  0  0  0  0  0  0  0
    3.0796    5.6270    0.4034 H   0  0  0  0  0  0  0  0  0  0  0  0
    4.7694    2.9258   -0.2019 H   0  0  0  0  0  0  0  0  0  0  0  0
    4.6410   -0.5485   -2.9460 H   0  0  0  0  0  0  0  0  0  0  0  0
    3.0532    9.7799   -0.7943 H   0  0  0  0  0  0  0  0  0  0  0  0
    0.4604    3.8512   -2.4590 H   0  0  0  0  0  0  0  0  0  0  0  0
   -2.4112   -1.2680   -2.6418 H   0  0  0  0  0  0  0  0  0  0  0  0
   -2.3866    0.0775   -1.4894 H   0  0  0  0  0  0  0  0  0  0  0  0
    4.1654    0.6505    0.1650 H   0  0  0  0  0  0  0  0  0  0  0  0
   -0.8268    2.0526   -3.8021 H   0  0  0  0  0  0  0  0  0  0  0  0
    1.0526   -1.6089   -4.7158 H   0  0  0  0  0  0  0  0  0  0  0  0
  1 48  1  0  0  0  0
  1 49  1  0  0  0  0
  1 50  1  0  0  0  0
  2 51  1  0  0  0  0
  3 52  1  0  0  0  0
  4  2  2  0  0  0  0
  4 53  1  0  0  0  0
  5  3  2  0  0  0  0
  5 54  1  0  0  0  0
  6  2  1  0  0  0  0
  6 55  1  0  0  0  0
  7  3  1  0  0  0  0
  7 56  1  0  0  0  0
  8  4  1  0  0  0  0
  8 57  1  0  0  0  0
  9  5  1  0  0  0  0
  9 58  1  0  0  0  0
 10 59  1  0  0  0  0
 11 60  1  0  0  0  0
 12 61  1  0  0  0  0
 13 10  2  0  0  0  0
 13 62  1  0  0  0  0
 14 11  2  0  0  0  0
 14 63  1  0  0  0  0
 15 12  2  0  0  0  0
 15 64  1  0  0  0  0
 16 65  1  0  0  0  0
 17 66  1  0  0  0  0
 18 67  1  0  0  0  0
 19 68  1  0  0  0  0
 19 69  1  0  0  0  0
 20  6  2  0  0  0  0
 20 10  1  0  0  0  0
 21  7  2  0  0  0  0
 21 11  1  0  0  0  0
 22  8  2  0  0  0  0
 22 16  1  0  0  0  0
 22 20  1  0  0  0  0
 23  9  2  0  0  0  0
 23 17  1  0  0  0  0
 23 21  1  0  0  0  0
 24 12  1  0  0  0  0
 24 18  2  0  0  0  0
 25 13  1  0  0  0  0
 25 16  2  0  0  0  0
 26 14  1  0  0  0  0
 26 17  2  0  0  0  0
 27 18  1  0  0  0  0
 28 15  1  0  0  0  0
 28 27  2  0  0  0  0
 29 19  1  0  0  0  0
 29 34  1  0  0  0  0
 29 47  1  1  0  0  0
 30 19  1  0  0  0  0
 31 27  1  0  0  0  0
 32 29  1  0  0  0  0
 33 28  1  0  0  0  0
 33 70  1  0  0  0  0
 34  1  1  0  0  0  0
 34 31  1  0  0  0  0
 35 30  2  0  0  0  0
 36 30  1  0  0  0  0
 36 71  1  0  0  0  0
 37 31  2  0  0  0  0
 38 32  2  0  0  0  0
 39 32  1  0  0  0  0
 39 72  1  0  0  0  0
 44 24  1  0  0  0  0
 45 25  1  0  0  0  0
 45 33  1  0  0  0  0
 45 40  2  0  0  0  0
 45 41  2  0  0  0  0
 46 26  1  0  0  0  0
 46 42  2  0  0  0  0
 46 43  2  0  0  0  0
 46 44  1  0  0  0  0
M  END
>  <DRUGBANK_ID>
DB01879

>  <SECONDARY_ACCESSION_NUMBERS>
EXPT03011

>  <COMMON_NAME>
(S)-2-{Methyl-[2-(Naphthalene-2-Sulfonylamino)-5-(Naphthalene-2-Sulfonyloxy)-Benzoyl]-Amino}-Succinicacid

$$$$
