
 OpenBabel10282417133D

 15 14  0  0  1  0  0  0  0  0999 V2000
   -0.7278   -1.0983    1.4239 C   0  0  0  0  0  0  0  0  0  0  0  0
    0.1314   -1.1480    0.1448 C   0  0  2  0  0  0  0  0  0  0  0  0
    1.1159    0.0089   -0.0445 C   0  0  0  0  0  0  0  0  0  0  0  0
   -0.9972    0.1082    1.9552 O   0  0  0  0  0  0  0  0  0  0  0  0
   -1.2239   -2.1149    1.9045 O   0  0  0  0  0  0  0  0  0  0  0  0
   -0.7166   -1.4731   -1.0244 N   0  0  0  0  0  0  0  0  0  0  0  0
    0.7890    1.0804   -1.4796 S   0  0  0  0  0  0  0  0  0  0  0  0
    2.0514    1.8520   -1.7295 O   0  0  0  0  0  0  0  0  0  0  0  0
    0.8570    0.2025   -2.4606 H   0  0  0  0  0  0  0  0  0  0  0  0
    0.7702   -2.0276    0.3143 H   0  0  0  0  0  0  0  0  0  0  0  0
    1.1696    0.6719    0.8213 H   0  0  0  0  0  0  0  0  0  0  0  0
    2.1204   -0.3971   -0.1980 H   0  0  0  0  0  0  0  0  0  0  0  0
   -0.6443    0.9079    1.5276 H   0  0  0  0  0  0  0  0  0  0  0  0
   -1.2008   -2.3568   -0.8274 H   0  0  0  0  0  0  0  0  0  0  0  0
   -1.4660   -0.7879   -1.1259 H   0  0  0  0  0  0  0  0  0  0  0  0
  2  6  1  0  0  0  0
  2 10  1  1  0  0  0
  2  3  1  0  0  0  0
  2  1  1  0  0  0  0
  3 11  1  0  0  0  0
  3 12  1  0  0  0  0
  4  1  1  0  0  0  0
  4 13  1  0  0  0  0
  5  1  2  0  0  0  0
  6 14  1  0  0  0  0
  6 15  1  0  0  0  0
  7  3  1  0  0  0  0
  7  8  2  0  0  0  0
  7  9  1  0  0  0  0
M  END
>  <DRUGBANK_ID>
DB03382

>  <SECONDARY_ACCESSION_NUMBERS>
EXPT01041

>  <COMMON_NAME>
S-oxy-L-cysteine

>  <SYNONYMS>
3-(oxidosulfanyl)-L-alanine; cysteine S-oxide; cysteine sulfoxide; cysteine sulphoxide; L-cysteine S-oxide; L-cysteine sulfoxide; L-cysteine sulphoxide; S-oxo-L-cysteine; S-oxocysteine

$$$$
