4TZ
 OpenBabel10282417143D

 40 42  0  0  0  0  0  0  0  0999 V2000
    0.9833    0.0337    0.0118 S   0  0  0  0  0  0  0  0  0  0  0  0
    0.6511   -0.5096   -1.2853 O   0  0  0  0  0  0  0  0  0  0  0  0
    0.6604   -0.6713    1.2320 O   0  0  0  0  0  0  0  0  0  0  0  0
    0.4570    1.5809    0.0832 O   0  0  0  0  0  0  0  0  0  0  0  0
    2.6672    0.1307    0.0160 N   0  0  0  0  0  0  0  0  0  0  0  0
   -5.3510    4.2322    1.0518 N   0  0  0  0  0  0  0  0  0  0  0  0
   -5.9429    5.1788    0.2007 N   0  0  0  0  0  0  0  0  0  0  0  0
   -7.2702    6.2009   -1.2304 N   0  0  0  0  0  0  0  0  0  0  0  0
   -6.2399    7.0555   -0.9162 N   0  0  0  0  0  0  0  0  0  0  0  0
   -2.8926    6.3430    7.0635 N   0  0  0  0  0  0  0  0  0  0  0  0
   -7.0859    5.0883   -0.5521 C   0  0  0  0  0  0  0  0  0  0  0  0
   -5.4586    6.4323   -0.0656 C   0  0  0  0  0  0  0  0  0  0  0  0
   -4.8952    4.5617    2.3407 C   0  0  0  0  0  0  0  0  0  0  0  0
   -3.6187    4.2183    2.8147 C   0  0  0  0  0  0  0  0  0  0  0  0
   -3.1284    4.6217    4.0554 C   0  0  0  0  0  0  0  0  0  0  0  0
   -3.9115    5.4217    4.8689 C   0  0  0  0  0  0  0  0  0  0  0  0
   -5.1981    5.7647    4.4496 C   0  0  0  0  0  0  0  0  0  0  0  0
   -5.6802    5.3428    3.1988 C   0  0  0  0  0  0  0  0  0  0  0  0
   -3.3651    5.9253    6.0953 C   0  0  0  0  0  0  0  0  0  0  0  0
   -5.0802    2.9268    0.4362 C   0  0  0  0  0  0  0  0  0  0  0  0
   -3.6188    2.5663    0.3013 C   0  0  0  0  0  0  0  0  0  0  0  0
   -3.1171    1.4721    1.0230 C   0  0  0  0  0  0  0  0  0  0  0  0
   -1.7652    1.1356    0.9636 C   0  0  0  0  0  0  0  0  0  0  0  0
   -0.8939    1.8494    0.1429 C   0  0  0  0  0  0  0  0  0  0  0  0
   -1.3848    2.9414   -0.5833 C   0  0  0  0  0  0  0  0  0  0  0  0
   -2.7288    3.3296   -0.4667 C   0  0  0  0  0  0  0  0  0  0  0  0
    3.0394   -0.8221    0.0316 H   0  0  0  0  0  0  0  0  0  0  0  0
    3.0205    0.6494   -0.7849 H   0  0  0  0  0  0  0  0  0  0  0  0
   -7.7240    4.2183   -0.5910 H   0  0  0  0  0  0  0  0  0  0  0  0
   -4.5623    6.8163    0.3950 H   0  0  0  0  0  0  0  0  0  0  0  0
   -2.8974    3.6849    2.2173 H   0  0  0  0  0  0  0  0  0  0  0  0
   -2.1193    4.3278    4.3410 H   0  0  0  0  0  0  0  0  0  0  0  0
   -5.8333    6.3778    5.0843 H   0  0  0  0  0  0  0  0  0  0  0  0
   -6.6866    5.6355    2.9055 H   0  0  0  0  0  0  0  0  0  0  0  0
   -5.5177    2.8439   -0.5680 H   0  0  0  0  0  0  0  0  0  0  0  0
   -5.5977    2.1614    1.0309 H   0  0  0  0  0  0  0  0  0  0  0  0
   -3.7625    0.9206    1.7053 H   0  0  0  0  0  0  0  0  0  0  0  0
   -1.4268    0.3154    1.5880 H   0  0  0  0  0  0  0  0  0  0  0  0
   -0.7352    3.4959   -1.2560 H   0  0  0  0  0  0  0  0  0  0  0  0
   -3.0685    4.2488   -0.9425 H   0  0  0  0  0  0  0  0  0  0  0  0
  1  2  2  0  0  0  0
  1  3  2  0  0  0  0
  1  4  1  0  0  0  0
  1  5  1  0  0  0  0
  4 24  1  0  0  0  0
  5 27  1  0  0  0  0
  5 28  1  0  0  0  0
  6  7  1  0  0  0  0
  6 13  1  0  0  0  0
  6 20  1  0  0  0  0
  7 11  1  0  0  0  0
  7 12  1  0  0  0  0
  8  9  1  0  0  0  0
  8 11  2  0  0  0  0
  9 12  2  0  0  0  0
 10 19  3  0  0  0  0
 11 29  1  0  0  0  0
 12 30  1  0  0  0  0
 13 14  2  0  0  0  0
 13 18  1  0  0  0  0
 14 15  1  0  0  0  0
 14 31  1  0  0  0  0
 15 16  2  0  0  0  0
 15 32  1  0  0  0  0
 16 17  1  0  0  0  0
 16 19  1  0  0  0  0
 17 18  2  0  0  0  0
 17 33  1  0  0  0  0
 18 34  1  0  0  0  0
 20 21  1  0  0  0  0
 20 35  1  0  0  0  0
 20 36  1  0  0  0  0
 21 22  2  0  0  0  0
 21 26  1  0  0  0  0
 22 23  1  0  0  0  0
 22 37  1  0  0  0  0
 23 24  2  0  0  0  0
 23 38  1  0  0  0  0
 24 25  1  0  0  0  0
 25 26  2  0  0  0  0
 25 39  1  0  0  0  0
 26 40  1  0  0  0  0
M  END
>  <DRUGBANK_ID>
DB04601

>  <COMMON_NAME>
4-[(4-O-SULFAMOYLBENZYL)(4-CYANOPHENYL)AMINO]-4H-[1,2,4]-TRIAZOLE

$$$$
