
 OpenBabel10282417133D

 25 26  0  0  0  0  0  0  0  0999 V2000
    1.3435   -0.3872    0.2885 C   0  0  0  0  0  0  0  0  0  0  0  0
   -1.2413   -2.5795   -1.2275 C   0  0  0  0  0  0  0  0  0  0  0  0
   -1.9547   -2.0142   -0.0078 C   0  0  0  0  0  0  0  0  0  0  0  0
   -0.1868   -0.5375   -2.2646 C   0  0  0  0  0  0  0  0  0  0  0  0
   -1.3762    0.4690   -0.1461 C   0  0  0  0  0  0  0  0  0  0  0  0
    0.0457   -1.7472   -1.3388 C   0  0  1  0  0  0  0  0  0  0  0  0
   -1.0401   -0.8917    0.4865 C   0  0  2  0  0  0  0  0  0  0  0  0
   -0.9602    0.6307   -1.6217 C   0  0  1  0  0  0  0  0  0  0  0  0
    0.2834   -1.3641    0.0633 N   0  0  0  0  0  0  0  0  0  0  0  0
   -0.2188    1.8576   -1.7880 O   0  0  0  0  0  0  0  0  0  0  0  0
    0.8526   -2.3742   -1.7355 H   0  0  0  0  0  0  0  0  0  0  0  0
   -1.1100   -0.8258    1.5788 H   0  0  0  0  0  0  0  0  0  0  0  0
   -1.8642    0.8032   -2.2093 H   0  0  0  0  0  0  0  0  0  0  0  0
    1.1702    0.1719    1.2165 H   0  0  0  0  0  0  0  0  0  0  0  0
    1.4326    0.3463   -0.5072 H   0  0  0  0  0  0  0  0  0  0  0  0
    2.3271   -0.8552    0.3635 H   0  0  0  0  0  0  0  0  0  0  0  0
   -1.8756   -2.5189   -2.1186 H   0  0  0  0  0  0  0  0  0  0  0  0
   -1.0125   -3.6403   -1.0644 H   0  0  0  0  0  0  0  0  0  0  0  0
   -2.9645   -1.6669   -0.2472 H   0  0  0  0  0  0  0  0  0  0  0  0
   -2.0491   -2.8028    0.7506 H   0  0  0  0  0  0  0  0  0  0  0  0
   -0.7593   -0.8726   -3.1410 H   0  0  0  0  0  0  0  0  0  0  0  0
    0.7757   -0.1983   -2.6659 H   0  0  0  0  0  0  0  0  0  0  0  0
   -0.9253    1.2627    0.4629 H   0  0  0  0  0  0  0  0  0  0  0  0
   -2.4599    0.6264   -0.0755 H   0  0  0  0  0  0  0  0  0  0  0  0
    0.6312    1.7907   -1.3479 H   0  0  0  0  0  0  0  0  0  0  0  0
  1 14  1  0  0  0  0
  1 15  1  0  0  0  0
  1 16  1  0  0  0  0
  2 17  1  0  0  0  0
  2 18  1  0  0  0  0
  3  2  1  0  0  0  0
  3 19  1  0  0  0  0
  3 20  1  0  0  0  0
  4 21  1  0  0  0  0
  4 22  1  0  0  0  0
  5 23  1  0  0  0  0
  5 24  1  0  0  0  0
  6  2  1  0  0  0  0
  6  4  1  0  0  0  0
  6 11  1  6  0  0  0
  7  3  1  0  0  0  0
  7  5  1  0  0  0  0
  7 12  1  1  0  0  0
  8  4  1  0  0  0  0
  8  5  1  0  0  0  0
  8 10  1  0  0  0  0
  8 13  1  6  0  0  0
  9  1  1  0  0  0  0
  9  6  1  0  0  0  0
  9  7  1  0  0  0  0
 10 25  1  0  0  0  0
M  END
>  <DRUGBANK_ID>
DB04026

>  <SECONDARY_ACCESSION_NUMBERS>
EXPT02685

>  <COMMON_NAME>
Pseudotropine

>  <CAS_NUMBER>
135-97-7

>  <UNII>
L9Q7Z9D09L

>  <SYNONYMS>
(3-exo)-8-methyl-8-azabicyclo[3.2.1]octan-3-ol; 1αH,5αH-tropan-3β-ol; 3-pseudotropanol; 3β-tropanol; exo-8-methyl-8-azabicyclo[3.2.1]octan-3-ol; pseudotropanol; ψ-tropine

$$$$
