HOM
 OpenBabel10282417163D

 28 29  0  0  0  0  0  0  0  0999 V2000
   -2.3369    0.6742   -0.0232 C   0  0  0  0  0  0  0  0  0  0  0  0
   -2.2109   -0.8176    0.0236 C   0  0  0  0  0  0  0  0  0  0  0  0
    0.1966   -0.5393   -0.0252 C   0  0  0  0  0  0  0  0  0  0  0  0
    1.4327   -1.1887   -0.0252 C   0  0  0  0  0  0  0  0  0  0  0  0
    2.5906   -0.4260    0.0046 C   0  0  0  0  0  0  0  0  0  0  0  0
    2.5243    0.9570    0.0530 C   0  0  0  0  0  0  0  0  0  0  0  0
    1.2803    1.5834    0.0602 C   0  0  0  0  0  0  0  0  0  0  0  0
    0.0883    0.8487   -0.0085 C   0  0  0  0  0  0  0  0  0  0  0  0
   -1.2422    1.4763   -0.0845 C   0  0  0  0  0  0  0  0  0  0  0  0
   -3.7724    1.1794   -0.0522 C   0  0  0  0  0  0  0  0  0  0  0  0
   -4.2213    1.8943    1.2288 C   0  0  0  0  0  0  0  0  0  0  0  0
   -1.2906    2.9819   -0.3000 C   0  0  0  0  0  0  0  0  0  0  0  0
   -3.1995   -1.5584    0.0830 O   0  0  0  0  0  0  0  0  0  0  0  0
   -0.9412   -1.3577   -0.0347 O   0  0  0  0  0  0  0  0  0  0  0  0
    3.7938   -1.0617   -0.0070 O   0  0  0  0  0  0  0  0  0  0  0  0
   -3.4148    3.0020    1.5802 O   0  0  0  0  0  0  0  0  0  0  0  0
    1.4898   -2.2724   -0.0522 H   0  0  0  0  0  0  0  0  0  0  0  0
    3.4158    1.5748    0.0827 H   0  0  0  0  0  0  0  0  0  0  0  0
    1.2931    2.6653    0.1211 H   0  0  0  0  0  0  0  0  0  0  0  0
   -3.9044    1.8196   -0.9319 H   0  0  0  0  0  0  0  0  0  0  0  0
   -4.4821    0.3536   -0.1986 H   0  0  0  0  0  0  0  0  0  0  0  0
   -5.2342    2.2834    1.0979 H   0  0  0  0  0  0  0  0  0  0  0  0
   -4.2130    1.2140    2.0831 H   0  0  0  0  0  0  0  0  0  0  0  0
   -1.9597    3.2391   -1.1238 H   0  0  0  0  0  0  0  0  0  0  0  0
   -1.5646    3.5523    0.5857 H   0  0  0  0  0  0  0  0  0  0  0  0
   -0.3320    3.4269   -0.5606 H   0  0  0  0  0  0  0  0  0  0  0  0
    4.4954   -0.3891    0.0126 H   0  0  0  0  0  0  0  0  0  0  0  0
   -2.5757    2.6236    1.9007 H   0  0  0  0  0  0  0  0  0  0  0  0
  1  2  1  0  0  0  0
  1  9  2  0  0  0  0
  1 10  1  0  0  0  0
  2 13  2  0  0  0  0
  2 14  1  0  0  0  0
  3  4  2  0  0  0  0
  3  8  1  0  0  0  0
  3 14  1  0  0  0  0
  4  5  1  0  0  0  0
  4 17  1  0  0  0  0
  5  6  2  0  0  0  0
  5 15  1  0  0  0  0
  6  7  1  0  0  0  0
  6 18  1  0  0  0  0
  7  8  2  0  0  0  0
  7 19  1  0  0  0  0
  8  9  1  0  0  0  0
  9 12  1  0  0  0  0
 10 11  1  0  0  0  0
 10 20  1  0  0  0  0
 10 21  1  0  0  0  0
 11 16  1  0  0  0  0
 11 22  1  0  0  0  0
 11 23  1  0  0  0  0
 12 24  1  0  0  0  0
 12 25  1  0  0  0  0
 12 26  1  0  0  0  0
 15 27  1  0  0  0  0
 16 28  1  0  0  0  0
M  END
>  <DRUGBANK_ID>
DB07908

>  <COMMON_NAME>
7-HYDROXY-4-METHYL-3-(2-HYDROXY-ETHYL)COUMARIN

$$$$
