
 OpenBabel10282417133D

 11 10  0  0  0  0  0  0  0  0999 V2000
    1.0544    0.0121   -0.0493 C   0  0  0  0  0  0  0  0  0  0  0  0
    0.5551   -0.4732    1.2977 C   0  0  0  0  0  0  0  0  0  0  0  0
    0.5365    1.3859   -0.3686 C   0  0  0  0  0  0  0  0  0  0  0  0
   -0.1533    1.6874   -1.3291 O   0  0  0  0  0  0  0  0  0  0  0  0
    0.9368    2.3193    0.5159 O   0  0  0  0  0  0  0  0  0  0  0  0
    0.9010    0.1774    2.1075 H   0  0  0  0  0  0  0  0  0  0  0  0
    0.7126   -0.6732   -0.8329 H   0  0  0  0  0  0  0  0  0  0  0  0
    2.1487    0.0271   -0.0840 H   0  0  0  0  0  0  0  0  0  0  0  0
   -0.5395   -0.4870    1.3248 H   0  0  0  0  0  0  0  0  0  0  0  0
    0.9168   -1.4864    1.4975 H   0  0  0  0  0  0  0  0  0  0  0  0
    0.5393    3.1566    0.1970 H   0  0  0  0  0  0  0  0  0  0  0  0
  1  3  1  0  0  0  0
  1  7  1  0  0  0  0
  1  8  1  0  0  0  0
  2  1  1  0  0  0  0
  2  6  1  0  0  0  0
  2  9  1  0  0  0  0
  2 10  1  0  0  0  0
  3  4  2  0  0  0  0
  3  5  1  0  0  0  0
  5 11  1  0  0  0  0
M  END
>  <DRUGBANK_ID>
DB03766

>  <SECONDARY_ACCESSION_NUMBERS>
EXPT02641

>  <COMMON_NAME>
Propanoic acid

>  <CAS_NUMBER>
79-09-4

>  <UNII>
JHU490RVYR

>  <SYNONYMS>
Propionic acid

$$$$
