
 OpenBabel10282417133D

 47 46  0  0  0  0  0  0  0  0999 V2000
    2.9925    0.5876   -1.3553 C   0  0  0  0  0  0  0  0  0  0  0  0
    2.3150    0.3893   -2.6976 C   0  0  0  0  0  0  0  0  0  0  0  0
    0.7997    0.4675   -2.5681 C   0  0  0  0  0  0  0  0  0  0  0  0
    0.3439    1.8464   -2.1702 C   0  0  0  0  0  0  0  0  0  0  0  0
   -0.3946    2.6725   -2.9253 C   0  0  0  0  0  0  0  0  0  0  0  0
   -0.8717    2.2941   -4.2173 C   0  0  0  0  0  0  0  0  0  0  0  0
   -1.6004    3.0881   -5.0039 C   0  0  0  0  0  0  0  0  0  0  0  0
   -2.1479    2.5618   -6.2923 C   0  0  0  0  0  0  0  0  0  0  0  0
   -3.6733    2.5913   -6.2464 C   0  0  0  0  0  0  0  0  0  0  0  0
   -4.1903    4.0167   -6.0234 C   0  0  0  0  0  0  0  0  0  0  0  0
   -3.6918    4.9548   -7.1291 C   0  0  0  0  0  0  0  0  0  0  0  0
   -4.2083    4.4945   -8.4954 C   0  0  0  0  0  0  0  0  0  0  0  0
   -5.7404    4.4974   -8.5136 C   0  0  0  0  0  0  0  0  0  0  0  0
   -6.2846    5.9064   -8.2499 C   0  0  0  0  0  0  0  0  0  0  0  0
   -5.8135    6.8910   -9.3264 C   0  0  0  0  0  0  0  0  0  0  0  0
   -6.2679    6.4580  -10.7160 C   0  0  0  0  0  0  0  0  0  0  0  0
   -7.6868    6.4149  -10.7755 O   0  0  0  0  0  0  0  0  0  0  0  0
    0.6500    2.2064   -1.1912 H   0  0  0  0  0  0  0  0  0  0  0  0
   -0.6539    3.6569   -2.5403 H   0  0  0  0  0  0  0  0  0  0  0  0
   -0.6715    1.3031   -4.5979 H   0  0  0  0  0  0  0  0  0  0  0  0
   -1.8365    4.0956   -4.6810 H   0  0  0  0  0  0  0  0  0  0  0  0
    2.7931    1.5845   -0.9512 H   0  0  0  0  0  0  0  0  0  0  0  0
    4.0740    0.4793   -1.4541 H   0  0  0  0  0  0  0  0  0  0  0  0
    2.6262   -0.1516   -0.6361 H   0  0  0  0  0  0  0  0  0  0  0  0
    2.6765    1.1348   -3.4181 H   0  0  0  0  0  0  0  0  0  0  0  0
    2.5816   -0.5949   -3.1002 H   0  0  0  0  0  0  0  0  0  0  0  0
    0.3891    0.1393   -3.5249 H   0  0  0  0  0  0  0  0  0  0  0  0
    0.4251   -0.2546   -1.8360 H   0  0  0  0  0  0  0  0  0  0  0  0
   -1.7438    3.1588   -7.1156 H   0  0  0  0  0  0  0  0  0  0  0  0
   -1.8191    1.5366   -6.4957 H   0  0  0  0  0  0  0  0  0  0  0  0
   -4.0662    2.1716   -7.1799 H   0  0  0  0  0  0  0  0  0  0  0  0
   -4.0518    1.9332   -5.4562 H   0  0  0  0  0  0  0  0  0  0  0  0
   -5.2824    4.0031   -5.9623 H   0  0  0  0  0  0  0  0  0  0  0  0
   -3.8839    4.4050   -5.0479 H   0  0  0  0  0  0  0  0  0  0  0  0
   -3.9985    5.9802   -6.9039 H   0  0  0  0  0  0  0  0  0  0  0  0
   -2.5997    5.0174   -7.1523 H   0  0  0  0  0  0  0  0  0  0  0  0
   -3.7924    5.1339   -9.2799 H   0  0  0  0  0  0  0  0  0  0  0  0
   -3.8390    3.4961   -8.7514 H   0  0  0  0  0  0  0  0  0  0  0  0
   -6.0978    4.0980   -9.4664 H   0  0  0  0  0  0  0  0  0  0  0  0
   -6.1513    3.8022   -7.7746 H   0  0  0  0  0  0  0  0  0  0  0  0
   -7.3763    5.8752   -8.1940 H   0  0  0  0  0  0  0  0  0  0  0  0
   -5.9782    6.2720   -7.2631 H   0  0  0  0  0  0  0  0  0  0  0  0
   -6.2074    7.8840   -9.0908 H   0  0  0  0  0  0  0  0  0  0  0  0
   -4.7212    6.9906   -9.3129 H   0  0  0  0  0  0  0  0  0  0  0  0
   -5.9099    7.1602  -11.4706 H   0  0  0  0  0  0  0  0  0  0  0  0
   -5.8765    5.4739  -10.9946 H   0  0  0  0  0  0  0  0  0  0  0  0
   -7.9958    5.7723  -10.1139 H   0  0  0  0  0  0  0  0  0  0  0  0
  1 22  1  0  0  0  0
  1 23  1  0  0  0  0
  1 24  1  0  0  0  0
  2  1  1  0  0  0  0
  2 25  1  0  0  0  0
  2 26  1  0  0  0  0
  3  2  1  0  0  0  0
  3 27  1  0  0  0  0
  3 28  1  0  0  0  0
  4  3  1  0  0  0  0
  5  4  2  0  0  0  0
  6  5  1  0  0  0  0
  7  6  2  0  0  0  0
  8  7  1  0  0  0  0
  8 29  1  0  0  0  0
  8 30  1  0  0  0  0
  9  8  1  0  0  0  0
  9 31  1  0  0  0  0
  9 32  1  0  0  0  0
 10  9  1  0  0  0  0
 10 33  1  0  0  0  0
 10 34  1  0  0  0  0
 11 10  1  0  0  0  0
 11 35  1  0  0  0  0
 11 36  1  0  0  0  0
 12 11  1  0  0  0  0
 12 37  1  0  0  0  0
 12 38  1  0  0  0  0
 13 12  1  0  0  0  0
 13 39  1  0  0  0  0
 13 40  1  0  0  0  0
 14 13  1  0  0  0  0
 14 41  1  0  0  0  0
 14 42  1  0  0  0  0
 15 14  1  0  0  0  0
 15 43  1  0  0  0  0
 15 44  1  0  0  0  0
 16 15  1  0  0  0  0
 16 45  1  0  0  0  0
 16 46  1  0  0  0  0
 17 16  1  0  0  0  0
 17 47  1  0  0  0  0
 18  4  1  0  0  0  0
 19  5  1  0  0  0  0
 20  6  1  0  0  0  0
 21  7  1  0  0  0  0
M  END
>  <DRUGBANK_ID>
DB02982

>  <SECONDARY_ACCESSION_NUMBERS>
EXPT00738

>  <COMMON_NAME>
Bombykol

>  <UNII>
LZT8R8TVZ7

$$$$
