
 OpenBabel10282417133D

 21 20  0  0  1  0  0  0  0  0999 V2000
    0.5807    0.6136   -2.6691 C   0  0  0  0  0  0  0  0  0  0  0  0
    0.9920    0.0002   -0.1630 C   0  0  0  0  0  0  0  0  0  0  0  0
    0.3157    0.9194   -1.2030 C   0  0  2  0  0  0  0  0  0  0  0  0
    1.8330   -1.1760   -0.7039 C   0  0  1  0  0  0  0  0  0  0  0  0
   -1.2170    0.8820   -1.1542 C   0  0  0  0  0  0  0  0  0  0  0  0
    3.1546   -0.7673   -1.4441 C   0  0  0  0  0  0  0  0  0  0  0  0
    2.2529   -2.0213    0.4543 N   0  0  0  0  0  0  0  0  0  0  0  0
   -1.7623    2.0130   -1.0098 O   0  0  0  0  0  0  0  0  0  0  0  0
   -1.7415   -0.2555   -1.3130 O   0  5  0  0  0  0  0  0  0  0  0  0
    4.2725   -0.8143   -0.9675 O   0  0  0  0  0  0  0  0  0  0  0  0
    3.0018   -0.3534   -2.7159 O   0  0  0  0  0  0  0  0  0  0  0  0
    0.6454    1.9481   -1.0034 H   0  0  0  0  0  0  0  0  0  0  0  0
    1.2204   -1.8239   -1.3363 H   0  0  0  0  0  0  0  0  0  0  0  0
    0.6931   -0.4611   -2.8464 H   0  0  0  0  0  0  0  0  0  0  0  0
    1.4797    1.1608   -2.9596 H   0  0  0  0  0  0  0  0  0  0  0  0
   -0.1902    0.9339   -3.3713 H   0  0  0  0  0  0  0  0  0  0  0  0
    1.6224    0.6264    0.4871 H   0  0  0  0  0  0  0  0  0  0  0  0
    0.2169   -0.3920    0.5159 H   0  0  0  0  0  0  0  0  0  0  0  0
    2.8096   -2.7823    0.0654 H   0  0  0  0  0  0  0  0  0  0  0  0
    2.9170   -1.4663    0.9972 H   0  0  0  0  0  0  0  0  0  0  0  0
    3.6974    0.3015   -2.9198 H   0  0  0  0  0  0  0  0  0  0  0  0
  1 14  1  0  0  0  0
  1 15  1  0  0  0  0
  1 16  1  0  0  0  0
  2 17  1  0  0  0  0
  2 18  1  0  0  0  0
  3 12  1  1  0  0  0
  3  2  1  0  0  0  0
  3  1  1  0  0  0  0
  4  2  1  0  0  0  0
  4  7  1  0  0  0  0
  4 13  1  6  0  0  0
  5  3  1  0  0  0  0
  6  4  1  0  0  0  0
  7 19  1  0  0  0  0
  7 20  1  0  0  0  0
  8  5  2  0  0  0  0
  9  5  1  0  0  0  0
 10  6  2  0  0  0  0
 11  6  1  0  0  0  0
 11 21  1  0  0  0  0
M  CHG  1   9  -1
M  END
>  <DRUGBANK_ID>
DB03425

>  <SECONDARY_ACCESSION_NUMBERS>
EXPT02986

>  <COMMON_NAME>
2s,4r-4-Methylglutamate

$$$$
