
 OpenBabel10282417143D

 83 85  0  0  0  0  0  0  0  0999 V2000
    1.0761    0.0089    0.0032 S   0  0  0  0  0  0  0  0  0  0  0  0
    4.0654    5.8869    1.1020 O   0  0  0  0  0  0  0  0  0  0  0  0
   -3.2132    3.4628    6.0009 O   0  0  0  0  0  0  0  0  0  0  0  0
    1.8222    6.3701    4.4218 O   0  0  0  0  0  0  0  0  0  0  0  0
    0.6473   -0.3661   -1.3262 O   0  0  0  0  0  0  0  0  0  0  0  0
    0.5835   -0.7206    1.1518 O   0  0  0  0  0  0  0  0  0  0  0  0
    0.1236    0.9126    5.0629 N   0  0  0  0  0  0  0  0  0  0  0  0
    0.6150    1.6006    0.1896 N   0  0  0  0  0  0  0  0  0  0  0  0
    1.4441    1.6307    5.0158 C   0  0  0  0  0  0  0  0  0  0  0  0
   -0.6009    1.3226    6.2241 C   0  0  0  0  0  0  0  0  0  0  0  0
   -0.7576    0.9736    3.8823 C   0  0  0  0  0  0  0  0  0  0  0  0
    1.6219    3.1883    4.9558 C   0  0  0  0  0  0  0  0  0  0  0  0
   -1.3921    2.5480    5.7880 C   0  0  0  0  0  0  0  0  0  0  0  0
   -2.3415    0.7137    4.2415 C   0  0  0  0  0  0  0  0  0  0  0  0
    1.0853    4.3627    6.0832 C   0  0  0  0  0  0  0  0  0  0  0  0
   -2.4386    2.9775    4.0814 C   0  0  0  0  0  0  0  0  0  0  0  0
   -3.2390    1.6054    5.6507 C   0  0  0  0  0  0  0  0  0  0  0  0
    3.3550    6.5448    2.0727 C   0  0  0  0  0  0  0  0  0  0  0  0
    2.1485    5.8965    2.2684 C   0  0  0  0  0  0  0  0  0  0  0  0
    3.9072    7.7973    2.7050 C   0  0  0  0  0  0  0  0  0  0  0  0
    2.1133    4.7673    1.4134 C   0  0  0  0  0  0  0  0  0  0  0  0
    2.9200    9.0005    2.5972 C   0  0  0  0  0  0  0  0  0  0  0  0
    1.6961    4.0752    7.3709 C   0  0  0  0  0  0  0  0  0  0  0  0
   -4.0455    3.1921    3.9428 C   0  0  0  0  0  0  0  0  0  0  0  0
    3.3001    4.8188    0.7049 C   0  0  0  0  0  0  0  0  0  0  0  0
    1.2766    6.2799    3.3801 C   0  0  0  0  0  0  0  0  0  0  0  0
    1.6078    8.8888    3.3646 C   0  0  0  0  0  0  0  0  0  0  0  0
    1.2251    3.6821    1.1787 C   0  0  0  0  0  0  0  0  0  0  0  0
   -0.2520    6.1485    3.3067 C   0  0  0  0  0  0  0  0  0  0  0  0
    1.5159    2.6919    0.2799 C   0  0  0  0  0  0  0  0  0  0  0  0
   -2.1015    4.7342    5.4534 C   0  0  0  0  0  0  0  0  0  0  0  0
    3.5685    3.9033   -0.3035 C   0  0  0  0  0  0  0  0  0  0  0  0
    2.6129    2.8891   -0.5309 C   0  0  0  0  0  0  0  0  0  0  0  0
   -0.1965    4.8858    3.5182 C   0  0  0  0  0  0  0  0  0  0  0  0
   -1.4306    6.6602    3.9585 C   0  0  0  0  0  0  0  0  0  0  0  0
   -0.8886    4.4059    4.5970 C   0  0  0  0  0  0  0  0  0  0  0  0
   -2.4676    5.9272    4.8939 C   0  0  0  0  0  0  0  0  0  0  0  0
    1.8498    8.7033    4.8774 C   0  0  0  0  0  0  0  0  0  0  0  0
    2.8648   -0.0314    0.0660 C   0  0  0  0  0  0  0  0  0  0  0  0
   -0.3869    1.7509    0.3311 H   0  0  0  0  0  0  0  0  0  0  0  0
    2.0758    1.3108    5.8342 H   0  0  0  0  0  0  0  0  0  0  0  0
    1.8894    1.2499    4.0795 H   0  0  0  0  0  0  0  0  0  0  0  0
   -1.2294    0.6228    6.7549 H   0  0  0  0  0  0  0  0  0  0  0  0
    0.0915    1.5958    7.0448 H   0  0  0  0  0  0  0  0  0  0  0  0
   -0.4256    0.3469    3.0535 H   0  0  0  0  0  0  0  0  0  0  0  0
   -0.5995    1.8913    3.3180 H   0  0  0  0  0  0  0  0  0  0  0  0
    2.6103    3.5355    4.6349 H   0  0  0  0  0  0  0  0  0  0  0  0
    1.1904    3.0963    3.9742 H   0  0  0  0  0  0  0  0  0  0  0  0
   -1.6690    3.0284    6.8110 H   0  0  0  0  0  0  0  0  0  0  0  0
   -0.4738    3.0614    5.9626 H   0  0  0  0  0  0  0  0  0  0  0  0
   -2.4269   -0.3699    4.3522 H   0  0  0  0  0  0  0  0  0  0  0  0
   -2.9055    0.9018    3.2985 H   0  0  0  0  0  0  0  0  0  0  0  0
    1.0502    5.4209    5.8282 H   0  0  0  0  0  0  0  0  0  0  0  0
    0.0646    4.4840    6.4790 H   0  0  0  0  0  0  0  0  0  0  0  0
   -2.4283    3.9983    3.6084 H   0  0  0  0  0  0  0  0  0  0  0  0
   -1.9932    2.7330    3.1009 H   0  0  0  0  0  0  0  0  0  0  0  0
   -2.9957    1.0776    6.5831 H   0  0  0  0  0  0  0  0  0  0  0  0
   -4.2886    1.3124    5.5350 H   0  0  0  0  0  0  0  0  0  0  0  0
    4.1687    7.6069    3.7545 H   0  0  0  0  0  0  0  0  0  0  0  0
    4.8463    8.0828    2.2205 H   0  0  0  0  0  0  0  0  0  0  0  0
    3.3910    9.9059    2.9776 H   0  0  0  0  0  0  0  0  0  0  0  0
    2.6794    9.1453    1.5374 H   0  0  0  0  0  0  0  0  0  0  0  0
    2.6928    4.4748    7.2890 H   0  0  0  0  0  0  0  0  0  0  0  0
    1.0734    4.5252    8.1539 H   0  0  0  0  0  0  0  0  0  0  0  0
    1.6293    2.9981    7.4527 H   0  0  0  0  0  0  0  0  0  0  0  0
   -4.5185    3.8950    4.6640 H   0  0  0  0  0  0  0  0  0  0  0  0
   -4.4559    3.4674    2.9832 H   0  0  0  0  0  0  0  0  0  0  0  0
   -4.4165    2.2084    4.0222 H   0  0  0  0  0  0  0  0  0  0  0  0
    0.8827    9.6874    3.2220 H   0  0  0  0  0  0  0  0  0  0  0  0
    1.0491    8.1502    2.8038 H   0  0  0  0  0  0  0  0  0  0  0  0
    0.2782    3.5541    1.6860 H   0  0  0  0  0  0  0  0  0  0  0  0
    4.4471    3.9875   -0.9245 H   0  0  0  0  0  0  0  0  0  0  0  0
    2.7297    2.2526   -1.3955 H   0  0  0  0  0  0  0  0  0  0  0  0
    0.6968    4.3578    3.2502 H   0  0  0  0  0  0  0  0  0  0  0  0
   -1.8021    7.5026    3.3925 H   0  0  0  0  0  0  0  0  0  0  0  0
   -0.5034    3.4094    4.4211 H   0  0  0  0  0  0  0  0  0  0  0  0
   -3.5190    6.1682    4.8013 H   0  0  0  0  0  0  0  0  0  0  0  0
    2.1741    9.6246    5.3428 H   0  0  0  0  0  0  0  0  0  0  0  0
    0.9521    8.3290    5.3911 H   0  0  0  0  0  0  0  0  0  0  0  0
    2.6797    8.0257    5.1323 H   0  0  0  0  0  0  0  0  0  0  0  0
    3.1888   -1.0645   -0.0462 H   0  0  0  0  0  0  0  0  0  0  0  0
    3.2843    0.5052   -0.7791 H   0  0  0  0  0  0  0  0  0  0  0  0
    3.2102    0.3754    1.0186 H   0  0  0  0  0  0  0  0  0  0  0  0
  1  5  2  0  0  0  0
  1  6  2  0  0  0  0
  1  8  1  0  0  0  0
  1 39  1  0  0  0  0
  2 18  1  0  0  0  0
  2 25  1  0  0  0  0
  3 17  1  0  0  0  0
  3 31  1  0  0  0  0
  4 26  2  0  0  0  0
  7  9  1  0  0  0  0
  7 10  1  0  0  0  0
  7 11  1  0  0  0  0
  8 30  1  0  0  0  0
  8 40  1  0  0  0  0
  9 12  1  0  0  0  0
  9 41  1  0  0  0  0
  9 42  1  0  0  0  0
 10 13  1  0  0  0  0
 10 43  1  0  0  0  0
 10 44  1  0  0  0  0
 11 14  1  0  0  0  0
 11 45  1  0  0  0  0
 11 46  1  0  0  0  0
 12 15  1  0  0  0  0
 12 47  1  0  0  0  0
 12 48  1  0  0  0  0
 13 16  1  0  0  0  0
 13 49  1  0  0  0  0
 13 50  1  0  0  0  0
 14 17  1  0  0  0  0
 14 51  1  0  0  0  0
 14 52  1  0  0  0  0
 15 23  1  0  0  0  0
 15 53  1  0  0  0  0
 15 54  1  0  0  0  0
 16 24  1  0  0  0  0
 16 55  1  0  0  0  0
 16 56  1  0  0  0  0
 17 57  1  0  0  0  0
 17 58  1  0  0  0  0
 18 19  2  0  0  0  0
 18 20  1  0  0  0  0
 19 21  1  0  0  0  0
 19 26  1  0  0  0  0
 20 22  1  0  0  0  0
 20 59  1  0  0  0  0
 20 60  1  0  0  0  0
 21 25  2  0  0  0  0
 21 28  1  0  0  0  0
 22 27  1  0  0  0  0
 22 61  1  0  0  0  0
 22 62  1  0  0  0  0
 23 63  1  0  0  0  0
 23 64  1  0  0  0  0
 23 65  1  0  0  0  0
 24 66  1  0  0  0  0
 24 67  1  0  0  0  0
 24 68  1  0  0  0  0
 25 32  1  0  0  0  0
 26 29  1  0  0  0  0
 27 38  1  0  0  0  0
 27 69  1  0  0  0  0
 27 70  1  0  0  0  0
 28 30  2  0  0  0  0
 28 71  1  0  0  0  0
 29 34  2  0  0  0  0
 29 35  1  0  0  0  0
 30 33  1  0  0  0  0
 31 36  2  0  0  0  0
 31 37  1  0  0  0  0
 32 33  2  0  0  0  0
 32 72  1  0  0  0  0
 33 73  1  0  0  0  0
 34 36  1  0  0  0  0
 34 74  1  0  0  0  0
 35 37  2  0  0  0  0
 35 75  1  0  0  0  0
 36 76  1  0  0  0  0
 37 77  1  0  0  0  0
 38 78  1  0  0  0  0
 38 79  1  0  0  0  0
 38 80  1  0  0  0  0
 39 81  1  0  0  0  0
 39 82  1  0  0  0  0
 39 83  1  0  0  0  0
M  END
>  <DRUGBANK_ID>
DB04855

>  <COMMON_NAME>
Dronedarone

>  <CAS_NUMBER>
141626-36-0

>  <UNII>
JQZ1L091Y2

>  <SYNONYMS>
Dronedarona; Dronedarone; N-(2-butyl-3-(4-(3-(dibutylamino)propoxy)benzoyl)-5-benzofuranyl)-methanesulfonamide; N-(2-butyl-3-(p-(3-(dibutylamino)propoxy)benzoyl)-5-benzofuranyl)methanesulfonamide

$$$$
