
 OpenBabel10282417213D

104110  0  0  0  0  0  0  0  0999 V2000
   -7.4679    0.7865   -2.2129 C   0  0  0  0  0  0  0  0  0  0  0  0
   -6.8721    0.8735   -0.9823 C   0  0  0  0  0  0  0  0  0  0  0  0
   -5.9298    1.8475   -1.8714 C   0  0  0  0  0  0  0  0  0  0  0  0
   -6.4455    2.7452    4.0217 C   0  0  0  0  0  0  0  0  0  0  0  0
   -6.6267    1.5561    3.0923 C   0  0  1  0  0  0  0  0  0  0  0  0
   -5.8472    1.4475    4.4020 C   0  0  2  0  0  0  0  0  0  0  0  0
   -8.1665    1.5628    2.5056 C   0  0  0  0  0  0  0  0  0  0  0  0
   -8.4400    2.1051    1.1221 N   0  0  0  0  0  0  0  0  0  0  0  0
   -8.9895    0.8203    3.0176 O   0  0  0  0  0  0  0  0  0  0  0  0
   -7.2135    2.7033    0.2422 S   0  0  0  0  0  0  0  0  0  0  0  0
   -6.0586    2.8811    1.1217 O   0  0  0  0  0  0  0  0  0  0  0  0
   -7.4906    3.7475   -0.7072 O   0  0  0  0  0  0  0  0  0  0  0  0
   -6.1892   -0.7282   -0.1901 C   0  0  0  0  0  0  0  0  0  0  0  0
   -4.8422    3.1996   -2.5875 C   0  0  1  0  0  0  0  0  0  0  0  0
   -6.2944    1.8958   -3.5450 C   0  0  0  0  0  0  0  0  0  0  0  0
   -5.1476    0.3190   -2.4489 N   0  0  0  0  0  0  0  0  0  0  0  0
   -4.9892    0.9246   -0.5387 C   0  0  1  0  0  0  0  0  0  0  0  0
   -4.5450    2.6506   -0.7739 C   0  0  0  0  0  0  0  0  0  0  0  0
   -5.7212   -3.8493   -6.6718 C   0  0  2  0  0  0  0  0  0  0  0  0
   -4.8937   -4.6851   -7.6050 C   0  0  0  0  0  0  0  0  0  0  0  0
   -4.2335   -5.8017   -6.7821 C   0  0  0  0  0  0  0  0  0  0  0  0
   -4.6824   -5.6478   -5.3637 C   0  0  0  0  0  0  0  0  0  0  0  0
   -5.9778   -4.8296   -5.5471 C   0  0  1  0  0  0  0  0  0  0  0  0
   -6.9539   -3.4381   -7.2430 O   0  0  0  0  0  0  0  0  0  0  0  0
   -6.4802   -4.1912   -4.4723 O   0  0  0  0  0  0  0  0  0  0  0  0
   -5.1513   -2.9473   -6.4272 H   0  0  0  0  0  0  0  0  0  0  0  0
   -6.8087   -5.4784   -5.7222 H   0  0  0  0  0  0  0  0  0  0  0  0
   -7.0806   -2.0475   -7.2841 C   0  0  0  0  0  0  0  0  0  0  0  0
   -7.0960   -1.5718   -5.9639 C   0  0  0  0  0  0  0  0  0  0  0  0
   -6.0517   -0.7842   -5.8372 C   0  0  0  0  0  0  0  0  0  0  0  0
   -5.8501   -0.3463   -4.5825 C   0  0  0  0  0  0  0  0  0  0  0  0
   -4.5010   -0.5741   -4.2430 C   0  0  0  0  0  0  0  0  0  0  0  0
   -7.0028   -0.8850   -3.9938 F   0  0  0  0  0  0  0  0  0  0  0  0
   -5.6270    0.8904   -4.9358 F   0  0  0  0  0  0  0  0  0  0  0  0
   -3.0379    0.5752   -3.8119 C   0  0  0  0  0  0  0  0  0  0  0  0
   -1.6072   -0.2749   -2.8320 N   0  0  0  0  0  0  0  0  0  0  0  0
   -4.4726   -2.2456   -3.4422 N   0  0  0  0  0  0  0  0  0  0  0  0
   -2.9766   -3.0120   -2.5840 C   0  0  0  0  0  0  0  0  0  0  0  0
   -1.5848   -1.8649   -2.1489 C   0  0  0  0  0  0  0  0  0  0  0  0
   -0.5413   -1.9378   -1.3697 C   0  0  0  0  0  0  0  0  0  0  0  0
   -0.6370   -3.2094   -0.9702 C   0  0  0  0  0  0  0  0  0  0  0  0
   -1.5467   -4.3059   -1.5649 C   0  0  0  0  0  0  0  0  0  0  0  0
   -2.6671   -4.2575   -2.3601 C   0  0  0  0  0  0  0  0  0  0  0  0
   -3.3327    2.3166   -3.2187 O   0  0  0  0  0  0  0  0  0  0  0  0
   -5.0674    4.2023   -2.8353 H   0  0  0  0  0  0  0  0  0  0  0  0
   -6.2294    0.6215    1.1014 C   0  0  0  0  0  0  0  0  0  0  0  0
   -4.3386    0.1329   -0.6435 H   0  0  0  0  0  0  0  0  0  0  0  0
   -7.3801    0.0408    1.2436 O   0  0  0  0  0  0  0  0  0  0  0  0
   -5.6775    0.9122    2.2376 N   0  0  0  0  0  0  0  0  0  0  0  0
   -3.6475   -0.7816   -2.5973 C   0  0  0  0  0  0  0  0  0  0  0  0
   -3.0041   -1.7982   -4.1147 C   0  0  1  0  0  0  0  0  0  0  0  0
   -2.5371   -1.3493   -3.7047 O   0  0  0  0  0  0  0  0  0  0  0  0
   -4.0019   -3.2852   -4.7752 N   0  0  0  0  0  0  0  0  0  0  0  0
   -5.3812   -3.8995   -3.8109 C   0  0  0  0  0  0  0  0  0  0  0  0
   -5.5890   -3.9911   -2.5851 O   0  0  0  0  0  0  0  0  0  0  0  0
   -3.5655   -1.1299   -2.1054 C   0  0  0  0  0  0  0  0  0  0  0  0
   -2.8667   -1.0022   -5.1772 H   0  0  0  0  0  0  0  0  0  0  0  0
   -3.5664   -2.1639   -0.6084 C   0  0  0  0  0  0  0  0  0  0  0  0
   -2.6609    0.7343   -1.6945 C   0  0  0  0  0  0  0  0  0  0  0  0
   -5.4512   -1.8430   -2.0025 C   0  0  0  0  0  0  0  0  0  0  0  0
   -6.2658    0.4955    5.4091 C   0  0  0  0  0  0  0  0  0  0  0  0
   -5.2097    0.3115    6.2482 F   0  0  0  0  0  0  0  0  0  0  0  0
   -7.2802    0.9878    6.1404 F   0  0  0  0  0  0  0  0  0  0  0  0
   -8.1581    1.0593   -2.9840 H   0  0  0  0  0  0  0  0  0  0  0  0
   -7.1446   -0.0071   -2.7679 H   0  0  0  0  0  0  0  0  0  0  0  0
   -4.8102    1.6202   -3.0445 H   0  0  0  0  0  0  0  0  0  0  0  0
   -4.8820    1.8249   -3.1752 H   0  0  0  0  0  0  0  0  0  0  0  0
   -5.9298    3.6591    3.7566 H   0  0  0  0  0  0  0  0  0  0  0  0
   -7.3058    3.0468    4.5987 H   0  0  0  0  0  0  0  0  0  0  0  0
   -4.7630    1.2628    4.3121 H   0  0  0  0  0  0  0  0  0  0  0  0
   -8.9061    1.4126    0.4903 H   0  0  0  0  0  0  0  0  0  0  0  0
   -6.4996   -1.6997   -0.4534 H   0  0  0  0  0  0  0  0  0  0  0  0
   -5.0463   -0.5732    0.5913 H   0  0  0  0  0  0  0  0  0  0  0  0
   -7.1965   -0.6763   -0.2582 H   0  0  0  0  0  0  0  0  0  0  0  0
   -7.1546    2.5205   -3.0169 H   0  0  0  0  0  0  0  0  0  0  0  0
   -6.8788    1.7076   -4.4053 H   0  0  0  0  0  0  0  0  0  0  0  0
   -3.7235    2.5050   -0.1092 H   0  0  0  0  0  0  0  0  0  0  0  0
   -5.2705    3.3749   -0.4608 H   0  0  0  0  0  0  0  0  0  0  0  0
   -5.5492   -5.0948   -8.3663 H   0  0  0  0  0  0  0  0  0  0  0  0
   -4.1347   -4.0709   -8.0969 H   0  0  0  0  0  0  0  0  0  0  0  0
   -4.5696   -6.7746   -7.1215 H   0  0  0  0  0  0  0  0  0  0  0  0
   -3.1453   -5.7517   -6.8634 H   0  0  0  0  0  0  0  0  0  0  0  0
   -4.8106   -6.5336   -4.7533 H   0  0  0  0  0  0  0  0  0  0  0  0
   -3.8487   -5.2022   -4.8164 H   0  0  0  0  0  0  0  0  0  0  0  0
   -8.0186   -1.6831   -7.6504 H   0  0  0  0  0  0  0  0  0  0  0  0
   -6.2334   -1.5693   -7.7946 H   0  0  0  0  0  0  0  0  0  0  0  0
   -7.7761   -1.9316   -5.1721 H   0  0  0  0  0  0  0  0  0  0  0  0
   -5.2345   -0.3635   -6.3887 H   0  0  0  0  0  0  0  0  0  0  0  0
   -0.0035   -0.9958   -1.2032 H   0  0  0  0  0  0  0  0  0  0  0  0
   -0.1731   -3.4082   -0.0276 H   0  0  0  0  0  0  0  0  0  0  0  0
   -1.1655   -5.2933   -1.5243 H   0  0  0  0  0  0  0  0  0  0  0  0
   -3.2548   -4.8834   -2.9919 H   0  0  0  0  0  0  0  0  0  0  0  0
   -4.9410    1.4818    1.8977 H   0  0  0  0  0  0  0  0  0  0  0  0
   -3.6649   -3.5508   -5.6672 H   0  0  0  0  0  0  0  0  0  0  0  0
   -2.6149   -2.4925   -0.3407 H   0  0  0  0  0  0  0  0  0  0  0  0
   -3.8159   -1.5469    0.1911 H   0  0  0  0  0  0  0  0  0  0  0  0
   -4.1702   -3.0866   -0.7805 H   0  0  0  0  0  0  0  0  0  0  0  0
   -2.0275    1.5075   -2.6816 H   0  0  0  0  0  0  0  0  0  0  0  0
   -3.0529    1.0472   -0.8163 H   0  0  0  0  0  0  0  0  0  0  0  0
   -1.3797    1.0625   -1.9331 H   0  0  0  0  0  0  0  0  0  0  0  0
   -5.8543   -1.2016   -2.7199 H   0  0  0  0  0  0  0  0  0  0  0  0
   -6.2595   -2.1385   -2.7147 H   0  0  0  0  0  0  0  0  0  0  0  0
   -5.2500   -1.2068   -1.3275 H   0  0  0  0  0  0  0  0  0  0  0  0
   -6.5144   -0.4537    4.9383 H   0  0  0  0  0  0  0  0  0  0  0  0
  1  3  1  0  0  0  0
  1 64  1  0  0  0  0
  1 65  1  0  0  0  0
  2  1  1  0  0  0  0
  2 13  1  0  0  0  0
  3  2  1  0  0  0  0
  3 66  1  0  0  0  0
  3 67  1  0  0  0  0
  4  6  1  0  0  0  0
  4 68  1  0  0  0  0
  4 69  1  0  0  0  0
  5  4  1  0  0  0  0
  5  7  1  1  0  0  0
  5 49  1  0  0  0  0
  6  5  1  0  0  0  0
  6 70  1  6  0  0  0
  6 61  1  0  0  0  0
  7  8  1  0  0  0  0
  7  9  2  0  0  0  0
  8 10  1  0  0  0  0
  8 71  1  0  0  0  0
 10  2  1  0  0  0  0
 10 11  2  0  0  0  0
 10 12  2  0  0  0  0
 13 72  1  0  0  0  0
 13 73  1  0  0  0  0
 13 74  1  0  0  0  0
 14 15  1  0  0  0  0
 14 44  1  0  0  0  0
 14 45  1  6  0  0  0
 15 16  1  0  0  0  0
 15 75  1  0  0  0  0
 15 76  1  0  0  0  0
 16 17  1  0  0  0  0
 16 50  1  0  0  0  0
 17 18  1  0  0  0  0
 17 47  1  1  0  0  0
 17 46  1  0  0  0  0
 18 14  1  0  0  0  0
 18 77  1  0  0  0  0
 18 78  1  0  0  0  0
 19 20  1  0  0  0  0
 19 24  1  0  0  0  0
 19 26  1  1  0  0  0
 20 21  1  0  0  0  0
 20 79  1  0  0  0  0
 20 80  1  0  0  0  0
 21 22  1  0  0  0  0
 21 81  1  0  0  0  0
 21 82  1  0  0  0  0
 22 23  1  0  0  0  0
 22 83  1  0  0  0  0
 22 84  1  0  0  0  0
 23 19  1  0  0  0  0
 23 25  1  0  0  0  0
 23 27  1  6  0  0  0
 24 28  1  0  0  0  0
 25 54  1  0  0  0  0
 28 29  1  0  0  0  0
 28 85  1  0  0  0  0
 28 86  1  0  0  0  0
 29 30  2  0  0  0  0
 29 87  1  0  0  0  0
 30 31  1  0  0  0  0
 30 88  1  0  0  0  0
 31 32  1  0  0  0  0
 31 33  1  0  0  0  0
 31 34  1  0  0  0  0
 32 35  1  0  0  0  0
 32 37  2  0  0  0  0
 35 36  2  0  0  0  0
 35 44  1  0  0  0  0
 36 39  1  0  0  0  0
 38 37  1  0  0  0  0
 38 39  2  0  0  0  0
 38 43  1  0  0  0  0
 39 40  1  0  0  0  0
 40 41  2  0  0  0  0
 40 89  1  0  0  0  0
 41 42  1  0  0  0  0
 41 90  1  0  0  0  0
 42 43  2  0  0  0  0
 42 91  1  0  0  0  0
 43 92  1  0  0  0  0
 46 48  2  0  0  0  0
 46 49  1  0  0  0  0
 49 93  1  0  0  0  0
 50 51  1  0  0  0  0
 50 52  2  0  0  0  0
 51 53  1  0  0  0  0
 51 57  1  1  0  0  0
 51 56  1  0  0  0  0
 53 54  1  0  0  0  0
 53 94  1  0  0  0  0
 54 55  2  0  0  0  0
 56 58  1  0  0  0  0
 56 59  1  0  0  0  0
 56 60  1  0  0  0  0
 58 95  1  0  0  0  0
 58 96  1  0  0  0  0
 58 97  1  0  0  0  0
 59 98  1  0  0  0  0
 59 99  1  0  0  0  0
 59100  1  0  0  0  0
 60101  1  0  0  0  0
 60102  1  0  0  0  0
 60103  1  0  0  0  0
 61 62  1  0  0  0  0
 61 63  1  0  0  0  0
 61104  1  0  0  0  0
M  END
>  <DRUGBANK_ID>
DB13879

>  <COMMON_NAME>
Glecaprevir

>  <CAS_NUMBER>
1365970-03-1

>  <UNII>
K6BUU8J72P

>  <SYNONYMS>
Glécaprévir; Glecaprevir; Glecaprevirum

$$$$
