
 OpenBabel10282417213D

 44 46  0  0  0  0  0  0  0  0999 V2000
   -1.7570   -1.1112   -0.3659 C   0  0  2  0  0  0  0  0  0  0  0  0
   -1.9564    0.4118   -0.3348 C   0  0  0  0  0  0  0  0  0  0  0  0
   -0.4227   -0.8189    0.2828 C   0  0  2  0  0  0  0  0  0  0  0  0
   -0.7924    0.5814    0.3667 N   0  0  0  0  0  0  0  0  0  0  0  0
    0.2779    1.5121    0.0760 C   0  0  2  0  0  0  0  0  0  0  0  0
    1.5901    0.6564   -0.0352 C   0  0  0  0  0  0  0  0  0  0  0  0
    1.0559   -0.9800   -0.6841 S   0  0  0  0  0  0  0  0  0  0  0  0
    2.4975    1.1682   -1.1297 C   0  0  0  0  0  0  0  0  0  0  0  0
    2.3609    0.3961    1.2744 C   0  0  0  0  0  0  0  0  0  0  0  0
    0.3604    2.6333    1.1294 C   0  0  0  0  0  0  0  0  0  0  0  0
   -0.5081    3.6519    0.9451 O   0  0  0  0  0  0  0  0  0  0  0  0
    1.1020    2.6413    2.1009 O   0  0  0  0  0  0  0  0  0  0  0  0
   -1.8462   -2.0235   -1.4988 N   0  0  0  0  0  0  0  0  0  0  0  0
   -2.8054    1.2091   -0.6138 O   0  0  0  0  0  0  0  0  0  0  0  0
   -0.2711   -1.0148    1.3260 H   0  0  0  0  0  0  0  0  0  0  0  0
   -2.1471   -3.3775   -1.3764 C   0  0  0  0  0  0  0  0  0  0  0  0
   -2.2168   -4.0222   -2.4313 O   0  0  0  0  0  0  0  0  0  0  0  0
   -2.4518   -4.0731    0.0528 C   0  0  1  0  0  0  0  0  0  0  0  0
   -1.2756   -4.1691    1.0452 C   0  0  0  0  0  0  0  0  0  0  0  0
   -0.9452   -3.0913    1.8484 C   0  0  0  0  0  0  0  0  0  0  0  0
    0.2754   -2.9295    2.5049 C   0  0  0  0  0  0  0  0  0  0  0  0
    1.1067   -3.9989    2.6373 C   0  0  0  0  0  0  0  0  0  0  0  0
    0.6995   -5.2020    2.0741 C   0  0  0  0  0  0  0  0  0  0  0  0
   -0.4538   -5.2844    1.2463 C   0  0  0  0  0  0  0  0  0  0  0  0
   -3.7783   -3.6208    0.5805 N   0  0  0  0  0  0  0  0  0  0  0  0
   -4.0704   -2.6203    1.3108 C   0  0  0  0  0  0  0  0  0  0  0  0
   -2.4490   -1.5133    0.3176 H   0  0  0  0  0  0  0  0  0  0  0  0
    0.0248    1.9520   -0.8929 H   0  0  0  0  0  0  0  0  0  0  0  0
    2.8566    2.1655   -0.8802 H   0  0  0  0  0  0  0  0  0  0  0  0
    3.3605    0.5059   -1.2668 H   0  0  0  0  0  0  0  0  0  0  0  0
    1.9596    1.2225   -2.0849 H   0  0  0  0  0  0  0  0  0  0  0  0
    3.1573   -0.3487    1.1620 H   0  0  0  0  0  0  0  0  0  0  0  0
    2.8683    1.3055    1.6090 H   0  0  0  0  0  0  0  0  0  0  0  0
    1.7098    0.0601    2.0925 H   0  0  0  0  0  0  0  0  0  0  0  0
   -1.1722    3.5293    0.2407 H   0  0  0  0  0  0  0  0  0  0  0  0
   -1.7483   -1.6984   -2.4569 H   0  0  0  0  0  0  0  0  0  0  0  0
   -2.6486   -5.1204   -0.2357 H   0  0  0  0  0  0  0  0  0  0  0  0
   -1.6183   -2.2662    1.9412 H   0  0  0  0  0  0  0  0  0  0  0  0
    0.5719   -1.9567    2.8917 H   0  0  0  0  0  0  0  0  0  0  0  0
    2.0100   -3.8730    3.2237 H   0  0  0  0  0  0  0  0  0  0  0  0
    1.3008   -6.0808    2.2817 H   0  0  0  0  0  0  0  0  0  0  0  0
   -0.7017   -6.2502    0.8110 H   0  0  0  0  0  0  0  0  0  0  0  0
   -3.4121   -1.8408    1.7240 H   0  0  0  0  0  0  0  0  0  0  0  0
   -5.1110   -2.4099    1.5896 H   0  0  0  0  0  0  0  0  0  0  0  0
  1  2  1  0  0  0  0
  1 27  1  1  0  0  0
  1 13  1  0  0  0  0
  2 14  2  0  0  0  0
  2  4  1  0  0  0  0
  3  1  1  0  0  0  0
  3  4  1  0  0  0  0
  3  7  1  0  0  0  0
  3 15  1  1  0  0  0
  4  5  1  0  0  0  0
  5  6  1  0  0  0  0
  5 28  1  6  0  0  0
  5 10  1  0  0  0  0
  6  7  1  0  0  0  0
  6  8  1  0  0  0  0
  6  9  1  0  0  0  0
  8 29  1  0  0  0  0
  8 30  1  0  0  0  0
  8 31  1  0  0  0  0
  9 32  1  0  0  0  0
  9 33  1  0  0  0  0
  9 34  1  0  0  0  0
 10 11  1  0  0  0  0
 10 12  2  0  0  0  0
 11 35  1  0  0  0  0
 13 16  1  0  0  0  0
 13 36  1  0  0  0  0
 16 17  2  0  0  0  0
 16 18  1  0  0  0  0
 18 19  1  0  0  0  0
 18 25  1  0  0  0  0
 18 37  1  6  0  0  0
 20 19  1  0  0  0  0
 20 21  2  0  0  0  0
 20 38  1  0  0  0  0
 21 22  1  0  0  0  0
 21 39  1  0  0  0  0
 22 23  2  0  0  0  0
 22 40  1  0  0  0  0
 23 24  1  0  0  0  0
 23 41  1  0  0  0  0
 24 19  2  0  0  0  0
 24 42  1  0  0  0  0
 25 26  2  0  0  0  0
 26 43  1  0  0  0  0
 26 44  1  0  0  0  0
M  END
>  <DRUGBANK_ID>
DB13836

>  <COMMON_NAME>
Metampicillin

>  <CAS_NUMBER>
6489-97-0

>  <UNII>
G0H6U7VSTK

>  <SYNONYMS>
Metampicilina; Metampicillin; Metampicilline; Metampicillinum

$$$$
