
 OpenBabel10282417163D

 34 35  0  0  0  0  0  0  0  0999 V2000
   -1.1450   -0.3660   -0.0620 O   0  0  0  0  0  0  0  0  0  0  0  0
    1.1390   -0.3930    0.0300 O   0  0  0  0  0  0  0  0  0  0  0  0
   -2.8539    1.8718   -0.6909 O   0  0  0  0  0  0  0  0  0  0  0  0
    1.3894   -7.5282    0.2215 N   0  0  0  0  0  0  0  0  0  0  0  0
    1.7182   -6.4825   -1.9289 N   0  0  0  0  0  0  0  0  0  0  0  0
    3.5601   -7.8231   -0.7918 N   0  0  0  0  0  0  0  0  0  0  0  0
   -0.7540    1.0160    0.0990 C   0  0  1  0  0  0  0  0  0  0  0  0
    0.7790    1.0080   -0.0840 C   0  0  0  0  0  0  0  0  0  0  0  0
   -1.4498    1.9329   -0.8938 C   0  0  0  0  0  0  0  0  0  0  0  0
   -0.0420   -2.7228    0.1286 C   0  0  0  0  0  0  0  0  0  0  0  0
   -0.5936   -3.4158   -0.8607 C   0  0  0  0  0  0  0  0  0  0  0  0
    0.5001   -3.3563    1.2346 C   0  0  0  0  0  0  0  0  0  0  0  0
    0.0703   -5.4752    0.1433 C   0  0  0  0  0  0  0  0  0  0  0  0
   -0.5052   -4.7867   -0.8883 C   0  0  0  0  0  0  0  0  0  0  0  0
    0.6717   -4.7511    1.0695 C   0  0  0  0  0  0  0  0  0  0  0  0
    0.0205   -6.9925    0.2199 C   0  0  0  0  0  0  0  0  0  0  0  0
    2.1912   -7.2874   -0.7934 C   0  0  0  0  0  0  0  0  0  0  0  0
   -0.0170   -1.1260    0.0300 B   0  0  0  0  0  0  0  0  0  0  0  0
    2.3399   -6.2958   -2.7157 H   0  0  0  0  0  0  0  0  0  0  0  0
    0.7684   -6.1108   -1.9300 H   0  0  0  0  0  0  0  0  0  0  0  0
    3.8883   -8.3815   -0.0038 H   0  0  0  0  0  0  0  0  0  0  0  0
    4.1818   -7.6364   -1.5786 H   0  0  0  0  0  0  0  0  0  0  0  0
   -3.1697    0.9327   -0.8264 H   0  0  0  0  0  0  0  0  0  0  0  0
   -1.0167    1.3723    1.0731 H   0  0  0  0  0  0  0  0  0  0  0  0
    1.0848    1.4372   -1.0152 H   0  0  0  0  0  0  0  0  0  0  0  0
    1.2561    1.5866    0.6792 H   0  0  0  0  0  0  0  0  0  0  0  0
   -1.1118    2.9377   -0.7488 H   0  0  0  0  0  0  0  0  0  0  0  0
   -1.2195    1.6195   -1.8906 H   0  0  0  0  0  0  0  0  0  0  0  0
   -1.1116   -2.9021   -1.6433 H   0  0  0  0  0  0  0  0  0  0  0  0
    0.7652   -2.8380    2.1324 H   0  0  0  0  0  0  0  0  0  0  0  0
   -0.8923   -5.3232   -1.7293 H   0  0  0  0  0  0  0  0  0  0  0  0
    1.3348   -5.2541    1.7419 H   0  0  0  0  0  0  0  0  0  0  0  0
   -0.4793   -7.2880    1.1187 H   0  0  0  0  0  0  0  0  0  0  0  0
   -0.5113   -7.3750   -0.6261 H   0  0  0  0  0  0  0  0  0  0  0  0
  1  7  1  0  0  0  0
  1 18  1  0  0  0  0
  2  8  1  0  0  0  0
  2 18  1  0  0  0  0
  3  9  1  0  0  0  0
  3 23  1  0  0  0  0
  4 16  1  0  0  0  0
  4 17  2  0  0  0  0
  5 17  1  0  0  0  0
  5 19  1  0  0  0  0
  5 20  1  0  0  0  0
  6 17  1  0  0  0  0
  6 21  1  0  0  0  0
  6 22  1  0  0  0  0
  7  8  1  0  0  0  0
  7  9  1  0  0  0  0
  7 24  1  1  0  0  0
  8 25  1  0  0  0  0
  8 26  1  0  0  0  0
  9 27  1  0  0  0  0
  9 28  1  0  0  0  0
 10 11  2  0  0  0  0
 10 12  1  0  0  0  0
 10 18  1  0  0  0  0
 11 14  1  0  0  0  0
 11 29  1  0  0  0  0
 12 15  2  0  0  0  0
 12 30  1  0  0  0  0
 13 14  2  0  0  0  0
 13 15  1  0  0  0  0
 13 16  1  0  0  0  0
 14 31  1  0  0  0  0
 15 32  1  0  0  0  0
 16 33  1  0  0  0  0
 16 34  1  0  0  0  0
M  END
>  <DRUGBANK_ID>
DB07887

>  <COMMON_NAME>
(R)-1-(4-(4-(hydroxymethyl)-1,3,2-dioxaborolan-2-yl)benzyl)guanidine

$$$$
