JNO
 OpenBabel10282417173D

 50 53  0  0  0  0  0  0  0  0999 V2000
    0.7481   -0.0889   -0.3634 C   0  0  0  0  0  0  0  0  0  0  0  0
    0.2210   -1.3490    0.1074 N   0  0  0  0  0  0  0  0  0  0  0  0
   -0.4540   -1.5837    1.2801 C   0  0  0  0  0  0  0  0  0  0  0  0
   -0.8053   -2.7478    1.5334 O   0  0  0  0  0  0  0  0  0  0  0  0
   -0.7372   -0.4279    2.2644 C   0  0  0  0  0  0  0  0  0  0  0  0
    0.4770    0.1865    2.8750 N   0  0  0  0  0  0  0  0  0  0  0  0
    1.6967   -0.5964    2.6803 C   0  0  0  0  0  0  0  0  0  0  0  0
    2.9546    0.0183    3.2642 C   0  0  0  0  0  0  0  0  0  0  0  0
    3.1057    1.4808    2.8271 C   0  0  0  0  0  0  0  0  0  0  0  0
    1.8365    2.2562    3.1832 C   0  0  0  0  0  0  0  0  0  0  0  0
    0.5923    1.6184    2.5922 C   0  0  0  0  0  0  0  0  0  0  0  0
    4.2145    2.1103    3.5385 N   0  0  0  0  0  0  0  0  0  0  0  0
    5.3261    2.4862    2.8138 C   0  0  0  0  0  0  0  0  0  0  0  0
    6.5281    1.9704    3.1305 N   0  0  0  0  0  0  0  0  0  0  0  0
    7.6047    2.4772    2.4806 C   0  0  0  0  0  0  0  0  0  0  0  0
    7.5165    3.5052    1.5701 C   0  0  0  0  0  0  0  0  0  0  0  0
    6.2524    3.9794    1.3413 C   0  0  0  0  0  0  0  0  0  0  0  0
    5.1530    3.4669    1.9167 N   0  0  0  0  0  0  0  0  0  0  0  0
    8.8865    1.8271    2.7430 C   0  0  0  0  0  0  0  0  0  0  0  0
   10.0435    2.4361    3.2181 N   0  0  0  0  0  0  0  0  0  0  0  0
   10.2935    3.7579    3.6093 C   0  0  0  0  0  0  0  0  0  0  0  0
   11.5129    4.0996    4.0644 C   0  0  0  0  0  0  0  0  0  0  0  0
   12.5480    3.0825    4.1491 C   0  0  0  0  0  0  0  0  0  0  0  0
   12.3160    1.8152    3.7591 C   0  0  0  0  0  0  0  0  0  0  0  0
   11.0308    1.4473    3.2637 C   0  0  0  0  0  0  0  0  0  0  0  0
   10.5840    0.2937    2.8210 N   0  0  0  0  0  0  0  0  0  0  0  0
    9.2665    0.5151    2.5127 C   0  0  0  0  0  0  0  0  0  0  0  0
    0.3152    0.7051    0.2141 H   0  0  0  0  0  0  0  0  0  0  0  0
    0.4629    0.0913   -1.3951 H   0  0  0  0  0  0  0  0  0  0  0  0
    1.8411   -0.0744   -0.2783 H   0  0  0  0  0  0  0  0  0  0  0  0
    0.4942   -2.1949   -0.3778 H   0  0  0  0  0  0  0  0  0  0  0  0
   -1.3774    0.3073    1.7610 H   0  0  0  0  0  0  0  0  0  0  0  0
   -1.3468   -0.8353    3.0838 H   0  0  0  0  0  0  0  0  0  0  0  0
    1.9368   -0.7114    1.6307 H   0  0  0  0  0  0  0  0  0  0  0  0
    1.5624   -1.6138    3.0691 H   0  0  0  0  0  0  0  0  0  0  0  0
    3.8109   -0.5668    2.9014 H   0  0  0  0  0  0  0  0  0  0  0  0
    2.9325   -0.0791    4.3533 H   0  0  0  0  0  0  0  0  0  0  0  0
    3.2458    1.5056    1.7335 H   0  0  0  0  0  0  0  0  0  0  0  0
    1.7258    2.3337    4.2695 H   0  0  0  0  0  0  0  0  0  0  0  0
    1.9212    3.2784    2.7919 H   0  0  0  0  0  0  0  0  0  0  0  0
   -0.2978    2.1435    2.9618 H   0  0  0  0  0  0  0  0  0  0  0  0
    0.6335    1.8569    1.5324 H   0  0  0  0  0  0  0  0  0  0  0  0
    4.4379    1.7259    4.4434 H   0  0  0  0  0  0  0  0  0  0  0  0
    8.3745    3.9047    1.0483 H   0  0  0  0  0  0  0  0  0  0  0  0
    6.0755    4.8136    0.6699 H   0  0  0  0  0  0  0  0  0  0  0  0
    9.4843    4.4717    3.5382 H   0  0  0  0  0  0  0  0  0  0  0  0
   11.7496    5.1097    4.3829 H   0  0  0  0  0  0  0  0  0  0  0  0
   13.5182    3.3714    4.5447 H   0  0  0  0  0  0  0  0  0  0  0  0
   13.0850    1.0530    3.8227 H   0  0  0  0  0  0  0  0  0  0  0  0
    8.6542   -0.2825    2.1111 H   0  0  0  0  0  0  0  0  0  0  0  0
  1  2  1  0  0  0  0
  1 28  1  0  0  0  0
  1 29  1  0  0  0  0
  1 30  1  0  0  0  0
  2  3  1  0  0  0  0
  2 31  1  0  0  0  0
  3  4  2  0  0  0  0
  3  5  1  0  0  0  0
  5  6  1  0  0  0  0
  5 32  1  0  0  0  0
  5 33  1  0  0  0  0
  6  7  1  0  0  0  0
  6 11  1  0  0  0  0
  7  8  1  0  0  0  0
  7 34  1  0  0  0  0
  7 35  1  0  0  0  0
  8  9  1  0  0  0  0
  8 36  1  0  0  0  0
  8 37  1  0  0  0  0
  9 10  1  0  0  0  0
  9 12  1  0  0  0  0
  9 38  1  0  0  0  0
 10 11  1  0  0  0  0
 10 39  1  0  0  0  0
 10 40  1  0  0  0  0
 11 41  1  0  0  0  0
 11 42  1  0  0  0  0
 12 13  1  0  0  0  0
 12 43  1  0  0  0  0
 13 14  2  0  0  0  0
 13 18  1  0  0  0  0
 14 15  1  0  0  0  0
 15 16  2  0  0  0  0
 15 19  1  0  0  0  0
 16 17  1  0  0  0  0
 16 44  1  0  0  0  0
 17 18  2  0  0  0  0
 17 45  1  0  0  0  0
 19 20  1  0  0  0  0
 19 27  2  0  0  0  0
 20 21  1  0  0  0  0
 20 25  1  0  0  0  0
 21 22  2  0  0  0  0
 21 46  1  0  0  0  0
 22 23  1  0  0  0  0
 22 47  1  0  0  0  0
 23 24  2  0  0  0  0
 23 48  1  0  0  0  0
 24 25  1  0  0  0  0
 24 49  1  0  0  0  0
 25 26  2  0  0  0  0
 26 27  1  0  0  0  0
 27 50  1  0  0  0  0
M  END
>  <DRUGBANK_ID>
DB08026

>  <COMMON_NAME>
2-{4-[(4-imidazo[1,2-a]pyridin-3-ylpyrimidin-2-yl)amino]piperidin-1-yl}-N-methylacetamide

$$$$
