12894
 OpenBabel10282417173D

 31 32  0  0  0  0  0  0  0  0999 V2000
    1.0184    0.2682   -0.0694 S   0  0  0  0  0  0  0  0  0  0  0  0
    2.3262    3.3675   -0.9424 O   0  0  0  0  0  0  0  0  0  0  0  0
    0.6258   -0.4293   -1.2877 O   0  0  0  0  0  0  0  0  0  0  0  0
    0.5124   -0.2023    1.2004 O   0  0  0  0  0  0  0  0  0  0  0  0
    0.4415    1.8625   -0.2524 N   0  0  0  0  0  0  0  0  0  0  0  0
    1.0132    3.9390    0.7864 N   0  0  0  0  0  0  0  0  0  0  0  0
    6.9823    0.0043    0.0701 N   0  0  0  0  0  0  0  0  0  0  0  0
    2.7852    0.1099    0.0431 C   0  0  0  0  0  0  0  0  0  0  0  0
    1.2545    3.0241   -0.1351 C   0  0  0  0  0  0  0  0  0  0  0  0
    2.8770    4.5010   -0.3683 C   0  0  0  0  0  0  0  0  0  0  0  0
    2.0293    4.8837    0.6537 C   0  0  0  0  0  0  0  0  0  0  0  0
    3.5755    1.2194    0.2317 C   0  0  0  0  0  0  0  0  0  0  0  0
    3.4297   -1.1276   -0.0483 C   0  0  0  0  0  0  0  0  0  0  0  0
    4.9461    1.2064    0.0704 C   0  0  0  0  0  0  0  0  0  0  0  0
    4.8423   -1.1727   -0.0313 C   0  0  0  0  0  0  0  0  0  0  0  0
    5.6060    0.0013   -0.0283 C   0  0  0  0  0  0  0  0  0  0  0  0
    4.1725    5.0154   -0.8947 C   0  0  0  0  0  0  0  0  0  0  0  0
    2.0945    6.0928    1.5183 C   0  0  0  0  0  0  0  0  0  0  0  0
   -0.3786    1.9653    0.3447 H   0  0  0  0  0  0  0  0  0  0  0  0
    7.5078   -0.8498   -0.0307 H   0  0  0  0  0  0  0  0  0  0  0  0
    7.4785    0.8835   -0.0185 H   0  0  0  0  0  0  0  0  0  0  0  0
    3.1675    2.1345    0.5916 H   0  0  0  0  0  0  0  0  0  0  0  0
    2.8659   -2.0595   -0.0785 H   0  0  0  0  0  0  0  0  0  0  0  0
    5.4745    2.1533    0.1003 H   0  0  0  0  0  0  0  0  0  0  0  0
    5.3474   -2.1351   -0.0206 H   0  0  0  0  0  0  0  0  0  0  0  0
    4.0469    5.9957   -1.3644 H   0  0  0  0  0  0  0  0  0  0  0  0
    4.9093    5.1389   -0.0882 H   0  0  0  0  0  0  0  0  0  0  0  0
    4.6272    4.3434   -1.6310 H   0  0  0  0  0  0  0  0  0  0  0  0
    3.0160    6.1335    2.1107 H   0  0  0  0  0  0  0  0  0  0  0  0
    2.0534    7.0001    0.9043 H   0  0  0  0  0  0  0  0  0  0  0  0
    1.2484    6.1260    2.2114 H   0  0  0  0  0  0  0  0  0  0  0  0
  1  3  2  0  0  0  0
  1  4  2  0  0  0  0
  1  5  1  0  0  0  0
  1  8  1  0  0  0  0
  2  9  1  0  0  0  0
  2 10  1  0  0  0  0
  5  9  1  0  0  0  0
  5 19  1  0  0  0  0
  6  9  2  0  0  0  0
  6 11  1  0  0  0  0
  7 16  1  0  0  0  0
  7 20  1  0  0  0  0
  7 21  1  0  0  0  0
  8 12  2  0  0  0  0
  8 13  1  0  0  0  0
 10 11  2  0  0  0  0
 10 17  1  0  0  0  0
 11 18  1  0  0  0  0
 12 14  1  0  0  0  0
 12 22  1  0  0  0  0
 13 15  2  0  0  0  0
 13 23  1  0  0  0  0
 14 16  2  0  0  0  0
 14 24  1  0  0  0  0
 15 16  1  0  0  0  0
 15 25  1  0  0  0  0
 17 26  1  0  0  0  0
 17 27  1  0  0  0  0
 17 28  1  0  0  0  0
 18 29  1  0  0  0  0
 18 30  1  0  0  0  0
 18 31  1  0  0  0  0
M  END
>  <DRUGBANK_ID>
DB08798

>  <COMMON_NAME>
Sulfamoxole

>  <CAS_NUMBER>
729-99-7

>  <UNII>
HGG82XE020

>  <SYNONYMS>
2-(p-Aminobenzenesulfonamido)-4,5-dimethyloxazole; 2-(p-Aminobenzolsulfonamido)-4,5-dimethyloxazol; 4-Amino-N-(4,5-dimethyl-2-oxazolyl)benzenesulfonamide; 4,5-Dimethyl-2-sulfanilamidooxazole; N(sup 1)-(4,5-Dimethyl-2-oxazolyl)sulfanilamide; N1-(4,5-Dimethyl-2-oxazolyl)sulfanilamide; Oxasulfa; p-Aminobenzenesulfonyl-2-amino-4,5-dimethyloxazole; Sulfadimethyloxazole; Sulfamoxol; Sulfamoxole; Sulfamoxolum; Sulphamoxole

$$$$
