
 OpenBabel10282417153D

 57 61  0  0  0  0  0  0  0  0999 V2000
    0.9117    0.0731    0.0397 Cl  0  0  0  0  0  0  0  0  0  0  0  0
   10.6333    3.7858   -0.1274 F   0  0  0  0  0  0  0  0  0  0  0  0
    7.6047   -5.0466   -1.7329 O   0  0  0  0  0  0  0  0  0  0  0  0
    4.8343   -6.4787    0.0321 N   0  0  0  0  0  0  0  0  0  0  0  0
    6.7789   -0.1669    0.1537 N   0  0  0  0  0  0  0  0  0  0  0  0
    7.7325   -7.3477   -1.2100 N   0  0  0  0  0  0  0  0  0  0  0  0
    9.2700   -5.9138   -0.4117 N   0  0  0  0  0  0  0  0  0  0  0  0
    5.4985   -3.6243    0.0366 C   0  0  0  0  0  0  0  0  0  0  0  0
    5.8036   -4.4607    1.2818 C   0  0  0  0  0  0  0  0  0  0  0  0
    4.2302   -4.1468   -0.6330 C   0  0  0  0  0  0  0  0  0  0  0  0
    5.8802   -5.9377    0.9054 C   0  0  0  0  0  0  0  0  0  0  0  0
    4.4787   -5.5819   -1.0821 C   0  0  0  0  0  0  0  0  0  0  0  0
    5.6944   -2.1444    0.1647 C   0  0  0  0  0  0  0  0  0  0  0  0
    5.2561   -7.7977   -0.5063 C   0  0  0  0  0  0  0  0  0  0  0  0
    4.7282   -1.1068    0.1639 C   0  0  0  0  0  0  0  0  0  0  0  0
    6.4038   -7.8474   -1.5778 C   0  0  0  0  0  0  0  0  0  0  0  0
    6.9372   -1.5281    0.1173 C   0  0  0  0  0  0  0  0  0  0  0  0
    5.4144    0.1167    0.1671 C   0  0  0  0  0  0  0  0  0  0  0  0
    8.7215   -8.1369   -0.5029 C   0  0  0  0  0  0  0  0  0  0  0  0
    3.3208   -1.1088    0.1116 C   0  0  0  0  0  0  0  0  0  0  0  0
    9.9123   -7.1827   -0.4926 C   0  0  0  0  0  0  0  0  0  0  0  0
    4.7182    1.3377    0.1037 C   0  0  0  0  0  0  0  0  0  0  0  0
    7.8409    0.7749    0.1316 C   0  0  0  0  0  0  0  0  0  0  0  0
    8.1364   -5.9947   -1.2230 C   0  0  0  0  0  0  0  0  0  0  0  0
    2.6323    0.0965    0.0732 C   0  0  0  0  0  0  0  0  0  0  0  0
    3.3182    1.3033    0.0685 C   0  0  0  0  0  0  0  0  0  0  0  0
    7.9000    1.7571    1.1266 C   0  0  0  0  0  0  0  0  0  0  0  0
    8.8058    0.7384   -0.8862 C   0  0  0  0  0  0  0  0  0  0  0  0
    8.8359    2.7871    1.0257 C   0  0  0  0  0  0  0  0  0  0  0  0
    9.7938    1.7292   -0.9302 C   0  0  0  0  0  0  0  0  0  0  0  0
    9.7627    2.7739   -0.0105 C   0  0  0  0  0  0  0  0  0  0  0  0
    9.6773   -5.0155   -0.1840 H   0  0  0  0  0  0  0  0  0  0  0  0
    6.2767   -3.8225   -0.6912 H   0  0  0  0  0  0  0  0  0  0  0  0
    6.7862   -4.1704    1.6810 H   0  0  0  0  0  0  0  0  0  0  0  0
    5.0681   -4.3203    2.0770 H   0  0  0  0  0  0  0  0  0  0  0  0
    3.3714   -4.1310    0.0452 H   0  0  0  0  0  0  0  0  0  0  0  0
    3.9815   -3.5471   -1.5168 H   0  0  0  0  0  0  0  0  0  0  0  0
    6.8056   -5.9851    0.3900 H   0  0  0  0  0  0  0  0  0  0  0  0
    6.0699   -6.5828    1.7716 H   0  0  0  0  0  0  0  0  0  0  0  0
    3.5890   -5.9658   -1.5947 H   0  0  0  0  0  0  0  0  0  0  0  0
    5.2602   -5.5388   -1.8441 H   0  0  0  0  0  0  0  0  0  0  0  0
    5.4972   -8.4647    0.3323 H   0  0  0  0  0  0  0  0  0  0  0  0
    4.3622   -8.2485   -0.9660 H   0  0  0  0  0  0  0  0  0  0  0  0
    6.5279   -8.8855   -1.9009 H   0  0  0  0  0  0  0  0  0  0  0  0
    6.0883   -7.2850   -2.4598 H   0  0  0  0  0  0  0  0  0  0  0  0
    7.9240   -1.9708    0.0657 H   0  0  0  0  0  0  0  0  0  0  0  0
    8.3725   -8.3532    0.5134 H   0  0  0  0  0  0  0  0  0  0  0  0
    8.9183   -9.0587   -1.0515 H   0  0  0  0  0  0  0  0  0  0  0  0
    2.7711   -2.0426    0.0912 H   0  0  0  0  0  0  0  0  0  0  0  0
   10.6500   -7.3285    0.2937 H   0  0  0  0  0  0  0  0  0  0  0  0
   10.4013   -7.1914   -1.4762 H   0  0  0  0  0  0  0  0  0  0  0  0
    5.2434    2.2869    0.0653 H   0  0  0  0  0  0  0  0  0  0  0  0
    2.7637    2.2361    0.0343 H   0  0  0  0  0  0  0  0  0  0  0  0
    7.2444    1.7087    1.9926 H   0  0  0  0  0  0  0  0  0  0  0  0
    8.7664   -0.0055   -1.6791 H   0  0  0  0  0  0  0  0  0  0  0  0
    8.8496    3.5974    1.7475 H   0  0  0  0  0  0  0  0  0  0  0  0
   10.5724    1.7118   -1.6873 H   0  0  0  0  0  0  0  0  0  0  0  0
  1 25  1  0  0  0  0
  2 31  1  0  0  0  0
  3 24  2  0  0  0  0
  4 11  1  0  0  0  0
  4 12  1  0  0  0  0
  4 14  1  0  0  0  0
  5 17  1  0  0  0  0
  5 18  1  0  0  0  0
  5 23  1  0  0  0  0
  6 16  1  0  0  0  0
  6 19  1  0  0  0  0
  6 24  1  0  0  0  0
  7 21  1  0  0  0  0
  7 24  1  0  0  0  0
  7 32  1  0  0  0  0
  8  9  1  0  0  0  0
  8 10  1  0  0  0  0
  8 13  1  0  0  0  0
  8 33  1  0  0  0  0
  9 11  1  0  0  0  0
  9 34  1  0  0  0  0
  9 35  1  0  0  0  0
 10 12  1  0  0  0  0
 10 36  1  0  0  0  0
 10 37  1  0  0  0  0
 11 38  1  0  0  0  0
 11 39  1  0  0  0  0
 12 40  1  0  0  0  0
 12 41  1  0  0  0  0
 13 15  1  0  0  0  0
 13 17  2  0  0  0  0
 14 16  1  0  0  0  0
 14 42  1  0  0  0  0
 14 43  1  0  0  0  0
 15 18  2  0  0  0  0
 15 20  1  0  0  0  0
 16 44  1  0  0  0  0
 16 45  1  0  0  0  0
 17 46  1  0  0  0  0
 18 22  1  0  0  0  0
 19 21  1  0  0  0  0
 19 47  1  0  0  0  0
 19 48  1  0  0  0  0
 20 25  2  0  0  0  0
 20 49  1  0  0  0  0
 21 50  1  0  0  0  0
 21 51  1  0  0  0  0
 22 26  2  0  0  0  0
 22 52  1  0  0  0  0
 23 27  2  0  0  0  0
 23 28  1  0  0  0  0
 25 26  1  0  0  0  0
 26 53  1  0  0  0  0
 27 29  1  0  0  0  0
 27 54  1  0  0  0  0
 28 30  2  0  0  0  0
 28 55  1  0  0  0  0
 29 31  2  0  0  0  0
 29 56  1  0  0  0  0
 30 31  1  0  0  0  0
 30 57  1  0  0  0  0
M  END
>  <DRUGBANK_ID>
DB06144

>  <COMMON_NAME>
Sertindole

>  <CAS_NUMBER>
106516-24-9

>  <UNII>
GVV4Z879SP

>  <SYNONYMS>
1-[2-[4-[5-chloro-1-(4-fluorophenyl)-indol-3-yl]-1-piperidyl]ethyl]imidazolidin-2-one; Sertindol; Sertindole; Sertindolum

$$$$
