BS1
 OpenBabel10282417163D

 56 60  0  0  0  0  0  0  0  0999 V2000
    1.1939   -0.3394    0.7400 C   0  0  0  0  0  0  0  0  0  0  0  0
    0.3450   -1.2757   -0.0611 N   0  3  0  0  0  0  0  0  0  0  0  0
    0.9597   -2.3682    1.2978 C   0  0  0  0  0  0  0  0  0  0  0  0
    0.7283   -1.7127   -2.2025 C   0  0  1  0  0  0  0  0  0  0  0  0
   -0.9179   -2.8801   -2.4088 C   0  0  0  0  0  0  0  0  0  0  0  0
   -2.1561   -2.5200   -1.1923 C   0  0  0  0  0  0  0  0  0  0  0  0
   -1.7462   -1.0473   -0.2181 C   0  0  2  0  0  0  0  0  0  0  0  0
    0.8192   -0.5420   -3.1838 C   0  0  0  0  0  0  0  0  0  0  0  0
   -0.1221    0.7344   -2.7772 C   0  0  1  0  0  0  0  0  0  0  0  0
   -1.7776    0.6017   -1.6319 C   0  0  0  0  0  0  0  0  0  0  0  0
    0.9313    1.6711   -2.4232 O   0  0  0  0  0  0  0  0  0  0  0  0
    1.6370    1.3384   -1.2019 C   0  0  0  0  0  0  0  0  0  0  0  0
    2.6085   -0.3084   -1.2036 C   0  0  0  0  0  0  0  0  0  0  0  0
    3.9511   -0.1226   -1.2414 C   0  0  0  0  0  0  0  0  0  0  0  0
    4.7222   -1.3138   -1.2292 C   0  0  0  0  0  0  0  0  0  0  0  0
    4.2631   -2.6881   -1.1802 C   0  0  0  0  0  0  0  0  0  0  0  0
    2.9894   -3.0387   -0.9293 C   0  0  0  0  0  0  0  0  0  0  0  0
    2.1913   -1.9517   -0.8374 C   0  0  0  0  0  0  0  0  0  0  0  0
    0.3673   -2.7486   -0.8739 C   0  0  0  0  0  0  0  0  0  0  0  0
   -0.5617   -0.8753   -1.4538 C   0  0  0  0  0  0  0  0  0  0  0  0
   -0.6872    0.6724   -0.0451 C   0  0  0  0  0  0  0  0  0  0  0  0
   -1.8653    0.7658    1.0389 C   0  0  0  0  0  0  0  0  0  0  0  0
   -1.6647    1.3466    2.2463 C   0  0  0  0  0  0  0  0  0  0  0  0
   -0.4886    2.0842    2.3364 C   0  0  0  0  0  0  0  0  0  0  0  0
    0.4787    2.2960    1.2401 C   0  0  0  0  0  0  0  0  0  0  0  0
    0.3551    1.6800   -0.0417 C   0  0  0  0  0  0  0  0  0  0  0  0
    1.5243   -2.4260   -2.5881 H   0  0  0  0  0  0  0  0  0  0  0  0
   -1.9696   -1.3021    0.8299 H   0  0  0  0  0  0  0  0  0  0  0  0
   -0.5640    0.8690   -3.7670 H   0  0  0  0  0  0  0  0  0  0  0  0
    0.6989   -0.0194    1.6200 H   0  0  0  0  0  0  0  0  0  0  0  0
    1.0814    0.0361   -0.1905 H   0  0  0  0  0  0  0  0  0  0  0  0
    2.2681   -0.1053    0.8102 H   0  0  0  0  0  0  0  0  0  0  0  0
    2.0623   -2.2359    1.3260 H   0  0  0  0  0  0  0  0  0  0  0  0
    0.4648   -1.9631    2.1610 H   0  0  0  0  0  0  0  0  0  0  0  0
    0.7984   -3.4239    1.1028 H   0  0  0  0  0  0  0  0  0  0  0  0
   -1.1451   -3.0084   -3.4519 H   0  0  0  0  0  0  0  0  0  0  0  0
   -0.8371   -3.9529   -2.0411 H   0  0  0  0  0  0  0  0  0  0  0  0
   -3.0162   -2.2443   -1.8110 H   0  0  0  0  0  0  0  0  0  0  0  0
   -2.3766   -3.2565   -0.4258 H   0  0  0  0  0  0  0  0  0  0  0  0
    0.4976   -1.0793   -4.0849 H   0  0  0  0  0  0  0  0  0  0  0  0
    1.8839   -0.3248   -3.3255 H   0  0  0  0  0  0  0  0  0  0  0  0
   -1.5485    1.6943   -1.3955 H   0  0  0  0  0  0  0  0  0  0  0  0
   -2.5786    0.5606   -2.3484 H   0  0  0  0  0  0  0  0  0  0  0  0
    2.3869    2.0787   -0.8563 H   0  0  0  0  0  0  0  0  0  0  0  0
    4.3682    0.8756   -1.2123 H   0  0  0  0  0  0  0  0  0  0  0  0
    5.7956   -1.1955   -1.2598 H   0  0  0  0  0  0  0  0  0  0  0  0
    4.9081   -3.5406   -1.3316 H   0  0  0  0  0  0  0  0  0  0  0  0
    2.5289   -4.0131   -0.9849 H   0  0  0  0  0  0  0  0  0  0  0  0
    0.7037   -3.5966   -1.5469 H   0  0  0  0  0  0  0  0  0  0  0  0
   -0.3018   -3.1591   -0.0882 H   0  0  0  0  0  0  0  0  0  0  0  0
   -0.9084   -0.8800   -2.5767 H   0  0  0  0  0  0  0  0  0  0  0  0
   -1.6479   -1.0489   -1.9183 H   0  0  0  0  0  0  0  0  0  0  0  0
   -2.8464    0.2167    1.0255 H   0  0  0  0  0  0  0  0  0  0  0  0
   -2.3829    1.1507    3.0498 H   0  0  0  0  0  0  0  0  0  0  0  0
   -0.2973    2.5134    3.3162 H   0  0  0  0  0  0  0  0  0  0  0  0
    1.4446    2.7183    1.5156 H   0  0  0  0  0  0  0  0  0  0  0  0
  1  2  1  0  0  0  0
  1 30  1  0  0  0  0
  1 31  1  0  0  0  0
  1 32  1  0  0  0  0
  2  3  1  0  0  0  0
  2  4  1  0  0  0  0
  2  7  1  0  0  0  0
  3 33  1  0  0  0  0
  3 34  1  0  0  0  0
  3 35  1  0  0  0  0
  4  5  1  0  0  0  0
  4  8  1  0  0  0  0
  4 27  1  6  0  0  0
  5  6  1  0  0  0  0
  5 36  1  0  0  0  0
  5 37  1  0  0  0  0
  6  7  1  0  0  0  0
  6 38  1  0  0  0  0
  6 39  1  0  0  0  0
  7 10  1  0  0  0  0
  7 28  1  1  0  0  0
  8  9  1  0  0  0  0
  8 40  1  0  0  0  0
  8 41  1  0  0  0  0
  9 10  1  0  0  0  0
  9 11  1  0  0  0  0
  9 29  1  6  0  0  0
 10 42  1  0  0  0  0
 10 43  1  0  0  0  0
 11 12  1  0  0  0  0
 12 13  1  0  0  0  0
 12 26  1  0  0  0  0
 12 44  1  0  0  0  0
 13 14  1  0  0  0  0
 13 18  2  0  0  0  0
 14 15  2  0  0  0  0
 14 45  1  0  0  0  0
 15 16  1  0  0  0  0
 15 46  1  0  0  0  0
 16 17  2  0  0  0  0
 16 47  1  0  0  0  0
 17 18  1  0  0  0  0
 17 48  1  0  0  0  0
 18 19  1  0  0  0  0
 19 20  1  0  0  0  0
 19 49  1  0  0  0  0
 19 50  1  0  0  0  0
 20 21  1  0  0  0  0
 20 51  1  0  0  0  0
 20 52  1  0  0  0  0
 21 22  2  0  0  0  0
 21 26  1  0  0  0  0
 22 23  1  0  0  0  0
 22 53  1  0  0  0  0
 23 24  2  0  0  0  0
 23 54  1  0  0  0  0
 24 25  1  0  0  0  0
 24 55  1  0  0  0  0
 25 26  2  0  0  0  0
 25 56  1  0  0  0  0
M  CHG  1   2   1
M  END
>  <DRUGBANK_ID>
DB07494

>  <COMMON_NAME>
(3-EXO)-3-(10,11-DIHYDRO-5H-DIBENZO[A,D][7]ANNULEN-5-YLOXY)-8,8-DIMETHYL-8-AZONIABICYCLO[3.2.1]OCTANE

$$$$
