
 OpenBabel10282417153D

 58 60  0  0  0  0  0  0  0  0999 V2000
   -1.4621    0.6296   -0.7475 N   0  0  0  0  0  0  0  0  0  0  0  0
   -1.3317    1.9448   -0.3354 C   0  0  0  0  0  0  0  0  0  0  0  0
   -0.6644   -0.4887   -0.2673 C   0  0  1  0  0  0  0  0  0  0  0  0
   -0.2317    2.3990    0.6295 C   0  0  1  0  0  0  0  0  0  0  0  0
    0.4186    1.4686    2.8696 C   0  0  0  0  0  0  0  0  0  0  0  0
   -2.8020    0.1618   -1.2023 C   0  0  2  0  0  0  0  0  0  0  0  0
   -0.5075    2.0625    2.0397 N   0  0  0  0  0  0  0  0  0  0  0  0
    0.8368   -0.4095   -0.1797 C   0  0  0  0  0  0  0  0  0  0  0  0
    0.0572    1.2210    4.3161 C   0  0  1  0  0  0  0  0  0  0  0  0
    1.6392    0.7323   -0.0694 C   0  0  0  0  0  0  0  0  0  0  0  0
   -3.7457    1.1787   -1.8450 C   0  0  0  0  0  0  0  0  0  0  0  0
    1.1757    2.1559    0.1169 C   0  0  0  0  0  0  0  0  0  0  0  0
    0.3663   -0.5967    4.6388 S   0  0  0  0  0  0  0  0  0  0  0  0
   -1.0540   -1.3353    3.9579 C   0  0  0  0  0  0  0  0  0  0  0  0
   -2.1157    2.8201   -0.7236 O   0  0  0  0  0  0  0  0  0  0  0  0
    1.5632    1.1823    2.5278 O   0  0  0  0  0  0  0  0  0  0  0  0
   -3.7415    1.5268   -3.0132 O   0  0  0  0  0  0  0  0  0  0  0  0
   -2.0726   -0.6765    3.7350 O   0  0  0  0  0  0  0  0  0  0  0  0
    1.0858    2.0418    5.1535 C   0  0  0  0  0  0  0  0  0  0  0  0
   -4.5692    1.7615   -0.9384 O   0  0  0  0  0  0  0  0  0  0  0  0
   -1.3557   -1.1098    0.9379 C   0  0  0  0  0  0  0  0  0  0  0  0
   -3.5590   -0.6154   -0.0994 C   0  0  0  0  0  0  0  0  0  0  0  0
    1.4809   -1.6723   -0.2672 C   0  0  0  0  0  0  0  0  0  0  0  0
    3.0420    0.5773   -0.0785 C   0  0  0  0  0  0  0  0  0  0  0  0
   -2.7093   -1.7005    0.5462 C   0  0  0  0  0  0  0  0  0  0  0  0
   -0.9850   -2.8318    3.7771 C   0  0  0  0  0  0  0  0  0  0  0  0
    1.0190    3.5499    4.8608 C   0  0  0  0  0  0  0  0  0  0  0  0
    0.8799    1.8102    6.6463 C   0  0  0  0  0  0  0  0  0  0  0  0
    2.8617   -1.7991   -0.3213 C   0  0  0  0  0  0  0  0  0  0  0  0
    3.6462   -0.6659   -0.2243 C   0  0  0  0  0  0  0  0  0  0  0  0
   -0.7837   -1.2311   -1.0704 H   0  0  0  0  0  0  0  0  0  0  0  0
   -0.3302    3.4991    0.6101 H   0  0  0  0  0  0  0  0  0  0  0  0
   -2.5903   -0.5601   -2.0058 H   0  0  0  0  0  0  0  0  0  0  0  0
   -1.4059    2.3646    2.4046 H   0  0  0  0  0  0  0  0  0  0  0  0
   -0.9705    1.5212    4.5442 H   0  0  0  0  0  0  0  0  0  0  0  0
    1.3460    2.6918   -0.8218 H   0  0  0  0  0  0  0  0  0  0  0  0
    1.8440    2.6575    0.8380 H   0  0  0  0  0  0  0  0  0  0  0  0
    2.1096    1.7251    4.8978 H   0  0  0  0  0  0  0  0  0  0  0  0
   -4.8988    2.5670   -1.3829 H   0  0  0  0  0  0  0  0  0  0  0  0
   -1.5290   -0.3063    1.6487 H   0  0  0  0  0  0  0  0  0  0  0  0
   -0.7466   -1.8900    1.3939 H   0  0  0  0  0  0  0  0  0  0  0  0
   -4.4683   -1.0655   -0.5167 H   0  0  0  0  0  0  0  0  0  0  0  0
   -3.8777    0.0727    0.6931 H   0  0  0  0  0  0  0  0  0  0  0  0
    0.8852   -2.5833   -0.3337 H   0  0  0  0  0  0  0  0  0  0  0  0
    3.6741    1.4530    0.0598 H   0  0  0  0  0  0  0  0  0  0  0  0
   -3.2352   -2.1044    1.4206 H   0  0  0  0  0  0  0  0  0  0  0  0
   -2.5624   -2.5376   -0.1470 H   0  0  0  0  0  0  0  0  0  0  0  0
   -0.0109   -3.1748    3.4083 H   0  0  0  0  0  0  0  0  0  0  0  0
   -1.2099   -3.3024    4.7343 H   0  0  0  0  0  0  0  0  0  0  0  0
   -1.7344   -3.1598    3.0478 H   0  0  0  0  0  0  0  0  0  0  0  0
    0.0261    3.9484    5.0871 H   0  0  0  0  0  0  0  0  0  0  0  0
    1.7531    4.0924    5.4680 H   0  0  0  0  0  0  0  0  0  0  0  0
    1.2493    3.7795    3.8143 H   0  0  0  0  0  0  0  0  0  0  0  0
    0.9989    0.7566    6.9120 H   0  0  0  0  0  0  0  0  0  0  0  0
    1.6143    2.3689    7.2319 H   0  0  0  0  0  0  0  0  0  0  0  0
   -0.1255    2.1248    6.9387 H   0  0  0  0  0  0  0  0  0  0  0  0
    3.3117   -2.7770   -0.4537 H   0  0  0  0  0  0  0  0  0  0  0  0
    4.7271   -0.7382   -0.2556 H   0  0  0  0  0  0  0  0  0  0  0  0
  2  1  1  0  0  0  0
  3  1  1  0  0  0  0
  3 31  1  6  0  0  0
  4  2  1  0  0  0  0
  4 32  1  6  0  0  0
  4  7  1  0  0  0  0
  5  7  1  0  0  0  0
  6  1  1  0  0  0  0
  6 33  1  6  0  0  0
  6 11  1  0  0  0  0
  7 34  1  0  0  0  0
  8  3  1  0  0  0  0
  9  5  1  0  0  0  0
  9 13  1  0  0  0  0
  9 35  1  1  0  0  0
 10  8  2  0  0  0  0
 10 12  1  0  0  0  0
 12  4  1  0  0  0  0
 12 36  1  0  0  0  0
 12 37  1  0  0  0  0
 14 13  1  0  0  0  0
 15  2  2  0  0  0  0
 16  5  2  0  0  0  0
 17 11  2  0  0  0  0
 18 14  2  0  0  0  0
 19  9  1  0  0  0  0
 19 38  1  0  0  0  0
 20 11  1  0  0  0  0
 20 39  1  0  0  0  0
 21  3  1  0  0  0  0
 21 40  1  0  0  0  0
 21 41  1  0  0  0  0
 22  6  1  0  0  0  0
 22 42  1  0  0  0  0
 22 43  1  0  0  0  0
 23  8  1  0  0  0  0
 23 44  1  0  0  0  0
 24 10  1  0  0  0  0
 24 45  1  0  0  0  0
 25 21  1  0  0  0  0
 25 22  1  0  0  0  0
 25 46  1  0  0  0  0
 25 47  1  0  0  0  0
 26 14  1  0  0  0  0
 26 48  1  0  0  0  0
 26 49  1  0  0  0  0
 26 50  1  0  0  0  0
 27 19  1  0  0  0  0
 27 51  1  0  0  0  0
 27 52  1  0  0  0  0
 27 53  1  0  0  0  0
 28 19  1  0  0  0  0
 28 54  1  0  0  0  0
 28 55  1  0  0  0  0
 28 56  1  0  0  0  0
 29 23  2  0  0  0  0
 29 57  1  0  0  0  0
 30 24  2  0  0  0  0
 30 29  1  0  0  0  0
 30 58  1  0  0  0  0
M  END
>  <DRUGBANK_ID>
DB06604

>  <COMMON_NAME>
Ilepatril

>  <CAS_NUMBER>
473289-62-2

>  <UNII>
5N1YAP5FCM

>  <SYNONYMS>
Ilepatril

$$$$
