
 OpenBabel10282417183D

  2  1  0  0  0  0  0  0  0  0999 V2000
    0.9839   -0.0265    0.0845 F   0  0  0  0  0  0  0  0  0  0  0  0
    1.9231   -0.0265    0.0845 H   0  0  0  0  0  0  0  0  0  0  0  0
  1  2  1  0  0  0  0
M  END
>  <DRUGBANK_ID>
DB11072

>  <COMMON_NAME>
Hydrogen fluoride

>  <CAS_NUMBER>
7664-39-3

>  <UNII>
RGL5YE86CZ

>  <SYNONYMS>
fluorure d'hydrog√®ne; Fluorwasserstoff; Hydrofluoric acid; Hydrogen fluoride, anhydrous; Hydrogenfluorid

$$$$
