
 OpenBabel10282417213D

 14 13  0  0  0  0  0  0  0  0999 V2000
    0.9270   -0.0832   -0.0706 C   0  0  0  0  0  0  0  0  0  0  0  0
    0.3327   -1.3984   -0.4626 C   0  0  0  0  0  0  0  0  0  0  0  0
   -0.4876   -1.9963    0.2219 O   0  0  0  0  0  0  0  0  0  0  0  0
    0.7874   -1.8222   -1.6714 O   0  0  0  0  0  0  0  0  0  0  0  0
    0.2929   -3.1187   -2.0899 C   0  0  0  0  0  0  0  0  0  0  0  0
    0.8149   -4.2854   -1.2508 C   0  0  0  0  0  0  0  0  0  0  0  0
    0.4283   -4.2592    0.0369 F   0  0  0  0  0  0  0  0  0  0  0  0
    0.3874   -5.4631   -1.7660 F   0  0  0  0  0  0  0  0  0  0  0  0
    2.1688   -4.3094   -1.2670 F   0  0  0  0  0  0  0  0  0  0  0  0
    0.5990    0.1513    0.9476 H   0  0  0  0  0  0  0  0  0  0  0  0
    0.5671    0.7014   -0.7391 H   0  0  0  0  0  0  0  0  0  0  0  0
    2.0187   -0.1300   -0.0692 H   0  0  0  0  0  0  0  0  0  0  0  0
   -0.8028   -3.1072   -2.1383 H   0  0  0  0  0  0  0  0  0  0  0  0
    0.6430   -3.2615   -3.1204 H   0  0  0  0  0  0  0  0  0  0  0  0
  1  2  1  0  0  0  0
  1 10  1  0  0  0  0
  1 11  1  0  0  0  0
  1 12  1  0  0  0  0
  2  3  2  0  0  0  0
  2  4  1  0  0  0  0
  4  5  1  0  0  0  0
  5  6  1  0  0  0  0
  5 13  1  0  0  0  0
  5 14  1  0  0  0  0
  6  7  1  0  0  0  0
  6  8  1  0  0  0  0
  6  9  1  0  0  0  0
M  END
>  <DRUGBANK_ID>
DB14629

>  <SECONDARY_ACCESSION_NUMBERS>
DBSALT002296

>  <COMMON_NAME>
Trifluoroethyl acetate

>  <CAS_NUMBER>
406-95-1

>  <UNII>
EN07RVL78U

>  <SYNONYMS>
2,2,2-trifluoroethanol acetate; 2,2,2-trifluoroethyl acetate

$$$$
