1550
 OpenBabel10282417113D

 30 30  0  0  1  0  0  0  0  0999 V2000
    1.0989   -0.0060    0.0203 N   0  0  0  0  0  0  0  0  0  0  0  0
    4.1189    2.4301   -0.4548 N   0  0  0  0  0  0  0  0  0  0  0  0
    0.5075    0.3611    1.3583 C   0  0  3  0  0  0  0  0  0  0  0  0
    0.8715    1.7541    2.0098 C   0  0  0  0  0  0  0  0  0  0  0  0
    0.1986    3.0336    1.4065 C   0  0  0  0  0  0  0  0  0  0  0  0
   -0.9967    0.0876    1.5179 C   0  0  0  0  0  0  0  0  0  0  0  0
    0.8681    0.8745   -1.1435 C   0  0  0  0  0  0  0  0  0  0  0  0
   -0.8062    2.9482    0.4042 C   0  0  0  0  0  0  0  0  0  0  0  0
    0.9205    4.2343    1.4117 C   0  0  0  0  0  0  0  0  0  0  0  0
    1.6114    2.1992   -1.0541 C   0  0  0  0  0  0  0  0  0  0  0  0
   -1.0291    3.8900   -0.5990 C   0  0  0  0  0  0  0  0  0  0  0  0
    0.6035    5.2542    0.4866 C   0  0  0  0  0  0  0  0  0  0  0  0
   -0.3217    5.0624   -0.5488 C   0  0  0  0  0  0  0  0  0  0  0  0
    3.0587    2.2696   -0.8518 C   0  0  0  0  0  0  0  0  0  0  0  0
    2.1142   -0.0737    0.1366 H   0  0  0  0  0  0  0  0  0  0  0  0
    0.9718   -0.3914    2.0206 H   0  0  0  0  0  0  0  0  0  0  0  0
    0.6840    1.7314    3.0910 H   0  0  0  0  0  0  0  0  0  0  0  0
    1.9742    1.8324    1.9344 H   0  0  0  0  0  0  0  0  0  0  0  0
   -1.2691   -0.9132    1.1936 H   0  0  0  0  0  0  0  0  0  0  0  0
   -1.2935    0.2727    2.5555 H   0  0  0  0  0  0  0  0  0  0  0  0
   -1.6780    0.7090    0.9588 H   0  0  0  0  0  0  0  0  0  0  0  0
    1.1739    0.4275   -2.0909 H   0  0  0  0  0  0  0  0  0  0  0  0
   -0.2203    0.9617   -1.2671 H   0  0  0  0  0  0  0  0  0  0  0  0
   -1.1868    2.0089    0.0670 H   0  0  0  0  0  0  0  0  0  0  0  0
    1.8807    4.2932    1.9316 H   0  0  0  0  0  0  0  0  0  0  0  0
    1.1770    3.0233   -1.6195 H   0  0  0  0  0  0  0  0  0  0  0  0
    1.4308    2.4510   -0.0560 H   0  0  0  0  0  0  0  0  0  0  0  0
   -1.5855    3.5842   -1.4896 H   0  0  0  0  0  0  0  0  0  0  0  0
    1.1621    6.1821    0.5083 H   0  0  0  0  0  0  0  0  0  0  0  0
   -0.4128    5.7662   -1.3702 H   0  0  0  0  0  0  0  0  0  0  0  0
  1  3  1  0  0  0  0
  1  7  1  0  0  0  0
  1 15  1  0  0  0  0
  2 14  3  0  0  0  0
  3  4  1  0  0  0  0
  3  6  1  0  0  0  0
  3 16  1  0  0  0  0
  4  5  1  0  0  0  0
  4 17  1  0  0  0  0
  4 18  1  0  0  0  0
  5  8  2  0  0  0  0
  5  9  1  0  0  0  0
  6 19  1  0  0  0  0
  6 20  1  0  0  0  0
  6 21  1  0  0  0  0
  7 10  1  0  0  0  0
  7 22  1  0  0  0  0
  7 23  1  0  0  0  0
  8 11  1  0  0  0  0
  8 24  1  0  0  0  0
  9 12  2  0  0  0  0
  9 25  1  0  0  0  0
 10 14  1  0  0  0  0
 10 26  1  0  0  0  0
 10 27  1  0  0  0  0
 11 13  2  0  0  0  0
 11 28  1  0  0  0  0
 12 13  1  0  0  0  0
 12 29  1  0  0  0  0
 13 30  1  0  0  0  0
M  END
>  <DRUGBANK_ID>
DB01550

>  <COMMON_NAME>
Fenproporex

>  <CAS_NUMBER>
16397-28-7

>  <UNII>
W0194S5FOA

>  <SYNONYMS>
Femproporex; Fenproporex; Fenproporexum

$$$$
