
 OpenBabel10282417243D

 76 81  0  0  0  0  0  0  0  0999 V2000
    1.0527   -0.0557   -0.0585 C   0  0  0  0  0  0  0  0  0  0  0  0
    0.5406    1.2853   -0.3913 C   0  0  0  0  0  0  0  0  0  0  0  0
   -0.6122    1.6067   -1.0729 C   0  0  0  0  0  0  0  0  0  0  0  0
   -0.6204    2.9664   -1.1394 N   0  0  0  0  0  0  0  0  0  0  0  0
    0.5223    3.4145   -0.5171 C   0  0  0  0  0  0  0  0  0  0  0  0
    1.2321    2.4189   -0.0364 N   0  0  0  0  0  0  0  0  0  0  0  0
   -1.5565    3.7520   -1.8189 C   0  0  0  0  0  0  0  0  0  0  0  0
   -2.9054    3.7755   -1.4355 C   0  0  0  0  0  0  0  0  0  0  0  0
   -3.7176    4.7661   -1.9830 C   0  0  0  0  0  0  0  0  0  0  0  0
   -5.0955    4.8595   -1.6820 N   0  0  0  0  0  0  0  0  0  0  0  0
   -6.0794    5.7065   -2.2116 C   0  0  0  0  0  0  0  0  0  0  0  0
   -7.2062    5.7097   -1.7191 O   0  0  0  0  0  0  0  0  0  0  0  0
   -5.8347    6.5476   -3.4248 C   0  0  0  0  0  0  0  0  0  0  0  0
   -5.3041    5.9519   -4.6034 C   0  0  0  0  0  0  0  0  0  0  0  0
   -4.8137    6.7255   -5.6785 C   0  0  0  0  0  0  0  0  0  0  0  0
   -4.1110    6.0770   -6.7980 C   0  0  0  0  0  0  0  0  0  0  0  0
   -3.3488    5.6469   -7.6389 C   0  0  0  0  0  0  0  0  0  0  0  0
   -2.4160    5.0696   -8.5855 C   0  0  0  0  0  0  0  0  0  0  0  0
   -1.5047    5.6079   -9.4753 C   0  0  0  0  0  0  0  0  0  0  0  0
   -0.9873    4.6396  -10.3315 N   0  0  0  0  0  0  0  0  0  0  0  0
   -1.5402    3.5011   -9.9456 C   0  0  0  0  0  0  0  0  0  0  0  0
   -1.4715    2.1385  -10.4631 C   0  0  0  0  0  0  0  0  0  0  0  0
   -0.7560    1.8785  -11.6421 N   0  0  0  0  0  0  0  0  0  0  0  0
   -0.5242    0.6747  -12.2195 C   0  0  0  0  0  0  0  0  0  0  0  0
   -1.4388   -0.3569  -12.5208 C   0  0  0  0  0  0  0  0  0  0  0  0
   -0.8374   -1.4504  -13.0028 N   0  0  0  0  0  0  0  0  0  0  0  0
    0.4632   -1.0955  -13.0413 N   0  0  0  0  0  0  0  0  0  0  0  0
    1.4586   -2.0420  -13.4860 C   0  0  0  0  0  0  0  0  0  0  0  0
    0.6942    0.1853  -12.6168 C   0  0  0  0  0  0  0  0  0  0  0  0
   -2.1011    1.1818   -9.7230 C   0  0  0  0  0  0  0  0  0  0  0  0
   -2.8502    1.4636   -8.5089 C   0  0  0  0  0  0  0  0  0  0  0  0
   -2.9299    2.7228   -8.0866 C   0  0  0  0  0  0  0  0  0  0  0  0
   -2.3162    3.7186   -8.8109 N   0  0  0  0  0  0  0  0  0  0  0  0
   -4.8299    8.1339   -5.5318 C   0  0  0  0  0  0  0  0  0  0  0  0
   -4.0769    9.0685   -6.4529 C   0  0  0  0  0  0  0  0  0  0  0  0
   -5.5086    8.7176   -4.4333 C   0  0  0  0  0  0  0  0  0  0  0  0
   -5.9690    7.9362   -3.3679 C   0  0  0  0  0  0  0  0  0  0  0  0
   -6.4126    8.5613   -2.2655 F   0  0  0  0  0  0  0  0  0  0  0  0
   -3.1004    5.7258   -2.7841 C   0  0  0  0  0  0  0  0  0  0  0  0
   -1.7928    5.6730   -3.2421 C   0  0  0  0  0  0  0  0  0  0  0  0
   -1.0432    4.5987   -2.7981 C   0  0  0  0  0  0  0  0  0  0  0  0
   -1.2053    6.8512   -4.0302 C   0  0  0  0  0  0  0  0  0  0  0  0
    0.2895    6.8316   -3.8552 C   0  0  0  0  0  0  0  0  0  0  0  0
   -1.4383    6.7454   -5.5196 C   0  0  0  0  0  0  0  0  0  0  0  0
   -1.7360    8.1664   -3.5864 C   0  0  0  0  0  0  0  0  0  0  0  0
   -2.1894    9.2064   -3.2860 N   0  0  0  0  0  0  0  0  0  0  0  0
    0.7035   -0.7883   -0.7925 H   0  0  0  0  0  0  0  0  0  0  0  0
    0.6933   -0.3544    0.9298 H   0  0  0  0  0  0  0  0  0  0  0  0
    2.1459   -0.0657   -0.0572 H   0  0  0  0  0  0  0  0  0  0  0  0
   -1.3635    1.0034   -1.5583 H   0  0  0  0  0  0  0  0  0  0  0  0
    0.7637    4.4668   -0.4113 H   0  0  0  0  0  0  0  0  0  0  0  0
   -3.2693    3.0878   -0.6767 H   0  0  0  0  0  0  0  0  0  0  0  0
   -5.4555    4.2470   -0.9545 H   0  0  0  0  0  0  0  0  0  0  0  0
   -5.0918    4.8843   -4.5753 H   0  0  0  0  0  0  0  0  0  0  0  0
   -1.2177    6.6440   -9.5980 H   0  0  0  0  0  0  0  0  0  0  0  0
   -0.2027    2.6894  -11.9252 H   0  0  0  0  0  0  0  0  0  0  0  0
   -2.5129   -0.3512  -12.3897 H   0  0  0  0  0  0  0  0  0  0  0  0
    1.4369   -2.9175  -12.8312 H   0  0  0  0  0  0  0  0  0  0  0  0
    1.2364   -2.3234  -14.5179 H   0  0  0  0  0  0  0  0  0  0  0  0
    2.4431   -1.5702  -13.4347 H   0  0  0  0  0  0  0  0  0  0  0  0
    1.6940    0.5899  -12.5718 H   0  0  0  0  0  0  0  0  0  0  0  0
   -2.0676    0.1358  -10.0124 H   0  0  0  0  0  0  0  0  0  0  0  0
   -3.3808    0.7111   -7.9410 H   0  0  0  0  0  0  0  0  0  0  0  0
   -3.4765    3.0144   -7.2032 H   0  0  0  0  0  0  0  0  0  0  0  0
   -4.7851    9.6233   -7.0672 H   0  0  0  0  0  0  0  0  0  0  0  0
   -3.4616    9.7834   -5.8861 H   0  0  0  0  0  0  0  0  0  0  0  0
   -3.3763    8.5427   -7.1077 H   0  0  0  0  0  0  0  0  0  0  0  0
   -5.6343    9.7993   -4.3825 H   0  0  0  0  0  0  0  0  0  0  0  0
   -3.6242    6.6245   -3.0420 H   0  0  0  0  0  0  0  0  0  0  0  0
   -0.0221    4.4386   -3.1305 H   0  0  0  0  0  0  0  0  0  0  0  0
    0.5183    6.8622   -2.7870 H   0  0  0  0  0  0  0  0  0  0  0  0
    0.6913    5.9135   -4.2991 H   0  0  0  0  0  0  0  0  0  0  0  0
    0.7567    7.6685   -4.3691 H   0  0  0  0  0  0  0  0  0  0  0  0
   -1.1150    5.7969   -5.9572 H   0  0  0  0  0  0  0  0  0  0  0  0
   -2.4904    6.8388   -5.6155 H   0  0  0  0  0  0  0  0  0  0  0  0
   -1.0472    7.5811   -6.1126 H   0  0  0  0  0  0  0  0  0  0  0  0
  1  2  1  0  0  0  0
  1 47  1  0  0  0  0
  1 48  1  0  0  0  0
  1 49  1  0  0  0  0
  2  3  2  0  0  0  0
  2  6  1  0  0  0  0
  3  4  1  0  0  0  0
  3 50  1  0  0  0  0
  4  5  1  0  0  0  0
  4  7  1  0  0  0  0
  5  6  2  0  0  0  0
  5 51  1  0  0  0  0
  7  8  2  0  0  0  0
  7 41  1  0  0  0  0
  8  9  1  0  0  0  0
  8 52  1  0  0  0  0
  9 10  1  0  0  0  0
  9 39  2  0  0  0  0
 10 11  1  0  0  0  0
 10 53  1  0  0  0  0
 11 12  2  0  0  0  0
 11 13  1  0  0  0  0
 13 14  2  0  0  0  0
 13 37  1  0  0  0  0
 14 15  1  0  0  0  0
 14 54  1  0  0  0  0
 15 16  1  0  0  0  0
 15 34  2  0  0  0  0
 16 17  3  0  0  0  0
 17 18  1  0  0  0  0
 18 19  2  0  0  0  0
 18 33  1  0  0  0  0
 19 20  1  0  0  0  0
 19 55  1  0  0  0  0
 20 21  2  0  0  0  0
 21 22  1  0  0  0  0
 21 33  1  0  0  0  0
 22 23  1  0  0  0  0
 22 30  2  0  0  0  0
 23 24  1  0  0  0  0
 23 56  1  0  0  0  0
 24 25  1  0  0  0  0
 24 29  2  0  0  0  0
 25 26  2  0  0  0  0
 25 57  1  0  0  0  0
 26 27  1  0  0  0  0
 27 28  1  0  0  0  0
 27 29  1  0  0  0  0
 28 58  1  0  0  0  0
 28 59  1  0  0  0  0
 28 60  1  0  0  0  0
 29 61  1  0  0  0  0
 30 31  1  0  0  0  0
 30 62  1  0  0  0  0
 31 32  2  0  0  0  0
 31 63  1  0  0  0  0
 32 33  1  0  0  0  0
 32 64  1  0  0  0  0
 34 35  1  0  0  0  0
 34 36  1  0  0  0  0
 35 65  1  0  0  0  0
 35 66  1  0  0  0  0
 35 67  1  0  0  0  0
 36 37  2  0  0  0  0
 36 68  1  0  0  0  0
 37 38  1  0  0  0  0
 39 40  1  0  0  0  0
 39 69  1  0  0  0  0
 40 41  2  0  0  0  0
 40 42  1  0  0  0  0
 41 70  1  0  0  0  0
 42 43  1  0  0  0  0
 42 44  1  0  0  0  0
 42 45  1  0  0  0  0
 43 71  1  0  0  0  0
 43 72  1  0  0  0  0
 43 73  1  0  0  0  0
 44 74  1  0  0  0  0
 44 75  1  0  0  0  0
 44 76  1  0  0  0  0
 45 46  3  0  0  0  0
M  END
>  <DRUGBANK_ID>
DB18297

>  <COMMON_NAME>
KF-1601

>  <CAS_NUMBER>
2699634-21-2

>  <UNII>
A3F7DA3SGX

>  <SYNONYMS>
Benzamide, N-[3-(1-cyano-1-methylethyl)-5-(4-methyl-1H-imidazol-1-yl)phenyl]-2-fluoro-4-methyl-5-[2-[8-[(1-methyl-1H-pyrazol-4-yl)amino]imidazo[1,2-a]pyridin-3-yl]ethynyl]-; N-(3-(2-cyanopropan-2-yl)-5-(4-methyl-1H-imidazol-1-yl)phenyl)-2-fluoro-4-methyl-5-((8-((1-methyl-1H-pyrazol-4-yl)amino)imidazo[1,2-a]pyridin-3-yl)ethynyl)benzamide

$$$$
