704
 OpenBabel10282417103D

 48 53  0  0  1  0  0  0  0  0999 V2000
   -0.1140    1.4809    1.3891 O   0  0  0  0  0  0  0  0  0  0  0  0
   -1.7173   -3.0434   -0.5713 O   0  0  0  0  0  0  0  0  0  0  0  0
   -2.9062    2.2983   -0.2746 O   0  0  0  0  0  0  0  0  0  0  0  0
    3.0633    2.3206    1.2115 O   0  0  0  0  0  0  0  0  0  0  0  0
    0.7008   -0.4352   -1.6848 N   0  0  0  0  0  0  0  0  0  0  0  0
   -0.8369   -0.4715    0.0417 C   0  0  1  0  0  0  0  0  0  0  0  0
   -1.3971   -1.8510    0.2252 C   0  0  1  0  0  0  0  0  0  0  0  0
    0.0972   -1.9365   -0.7219 C   0  0  1  0  0  0  0  0  0  0  0  0
   -1.2930    0.7254    0.8763 C   0  0  2  0  0  0  0  0  0  0  0  0
   -1.3254   -0.6240   -1.7467 C   0  0  0  0  0  0  0  0  0  0  0  0
    0.7977   -0.5018    0.8364 C   0  0  0  0  0  0  0  0  0  0  0  0
   -2.9662   -1.3970    0.2309 C   0  0  0  0  0  0  0  0  0  0  0  0
   -0.3751    0.1688   -2.4186 C   0  0  0  0  0  0  0  0  0  0  0  0
    1.4038   -2.6370   -0.5391 C   0  0  0  0  0  0  0  0  0  0  0  0
    1.8976   -1.4763    0.3318 C   0  0  0  0  0  0  0  0  0  0  0  0
    1.4757    0.9351   -1.4662 C   0  0  0  0  0  0  0  0  0  0  0  0
   -3.5208   -0.0144   -0.2325 C   0  0  0  0  0  0  0  0  0  0  0  0
    0.8243    2.3377   -0.9556 C   0  0  0  0  0  0  0  0  0  0  0  0
   -2.5751    1.1259    0.0898 C   0  0  0  0  0  0  0  0  0  0  0  0
    1.0776    0.7066    1.3825 C   0  0  0  0  0  0  0  0  0  0  0  0
   -0.3165    3.1808   -1.4655 C   0  0  0  0  0  0  0  0  0  0  0  0
    1.0353    3.8010   -1.2922 C   0  0  0  0  0  0  0  0  0  0  0  0
    3.2364   -1.2033    0.3805 C   0  0  0  0  0  0  0  0  0  0  0  0
    2.5077    1.0357    1.3043 C   0  0  0  0  0  0  0  0  0  0  0  0
    3.5330    0.0845    0.8087 C   0  0  0  0  0  0  0  0  0  0  0  0
    0.1621   -2.3152    0.3909 H   0  0  0  0  0  0  0  0  0  0  0  0
   -1.7481    0.4209    1.8235 H   0  0  0  0  0  0  0  0  0  0  0  0
   -1.7499   -3.8081    0.0269 H   0  0  0  0  0  0  0  0  0  0  0  0
    2.5672    2.9252    0.6322 H   0  0  0  0  0  0  0  0  0  0  0  0
   -1.1983   -1.6331   -2.2160 H   0  0  0  0  0  0  0  0  0  0  0  0
   -2.3158   -0.4141   -2.0919 H   0  0  0  0  0  0  0  0  0  0  0  0
   -3.2676   -1.4646    1.2851 H   0  0  0  0  0  0  0  0  0  0  0  0
   -3.5953   -2.1400   -0.2821 H   0  0  0  0  0  0  0  0  0  0  0  0
   -0.2784    0.1422   -3.4970 H   0  0  0  0  0  0  0  0  0  0  0  0
   -0.7408    1.1323   -2.1156 H   0  0  0  0  0  0  0  0  0  0  0  0
    1.5663   -2.9049   -1.5860 H   0  0  0  0  0  0  0  0  0  0  0  0
    1.5234   -3.5815    0.0220 H   0  0  0  0  0  0  0  0  0  0  0  0
    2.3125    0.8924   -0.8212 H   0  0  0  0  0  0  0  0  0  0  0  0
    2.1351    0.9927   -2.3403 H   0  0  0  0  0  0  0  0  0  0  0  0
   -3.7862   -0.0171   -1.3002 H   0  0  0  0  0  0  0  0  0  0  0  0
   -4.4895    0.1832    0.2307 H   0  0  0  0  0  0  0  0  0  0  0  0
    0.9539    2.4260    0.0945 H   0  0  0  0  0  0  0  0  0  0  0  0
   -0.7203    3.0591   -2.4526 H   0  0  0  0  0  0  0  0  0  0  0  0
   -1.0660    3.4205   -0.7069 H   0  0  0  0  0  0  0  0  0  0  0  0
    1.0435    4.5254   -0.4617 H   0  0  0  0  0  0  0  0  0  0  0  0
    1.7526    4.0058   -2.0572 H   0  0  0  0  0  0  0  0  0  0  0  0
    3.9325   -1.8452   -0.1578 H   0  0  0  0  0  0  0  0  0  0  0  0
    4.4932    0.4693    0.4356 H   0  0  0  0  0  0  0  0  0  0  0  0
  1  9  1  0  0  0  0
  1 20  1  0  0  0  0
  2 28  1  0  0  0  0
  3 19  2  0  0  0  0
  4 24  1  0  0  0  0
  4 29  1  0  0  0  0
  5  8  1  0  0  0  0
  5 13  1  0  0  0  0
  5 16  1  0  0  0  0
  6  7  1  0  0  0  0
  6  9  1  0  0  0  0
  6 10  1  0  0  0  0
  6 11  1  6  0  0  0
  7  2  1  1  0  0  0
  7  8  1  0  0  0  0
  7 12  1  0  0  0  0
  8 14  1  0  0  0  0
  8 26  1  1  0  0  0
  9 19  1  0  0  0  0
  9 27  1  1  0  0  0
 10 13  1  0  0  0  0
 10 30  1  0  0  0  0
 10 31  1  0  0  0  0
 11 15  2  0  0  0  0
 11 20  1  0  0  0  0
 12 17  1  0  0  0  0
 12 32  1  0  0  0  0
 12 33  1  0  0  0  0
 13 34  1  0  0  0  0
 13 35  1  0  0  0  0
 14 15  1  0  0  0  0
 14 36  1  0  0  0  0
 14 37  1  0  0  0  0
 15 23  1  0  0  0  0
 16 18  1  0  0  0  0
 16 38  1  0  0  0  0
 16 39  1  0  0  0  0
 17 19  1  0  0  0  0
 17 40  1  0  0  0  0
 17 41  1  0  0  0  0
 18 21  1  0  0  0  0
 18 22  1  0  0  0  0
 18 42  1  0  0  0  0
 20 24  2  0  0  0  0
 21 22  1  0  0  0  0
 21 43  1  0  0  0  0
 21 44  1  0  0  0  0
 22 45  1  0  0  0  0
 22 46  1  0  0  0  0
 23 25  2  0  0  0  0
 23 47  1  0  0  0  0
 24 25  1  0  0  0  0
 25 48  1  0  0  0  0
M  END
>  <DRUGBANK_ID>
DB00704

>  <SECONDARY_ACCESSION_NUMBERS>
APRD00005; DB05067

>  <COMMON_NAME>
Naltrexone

>  <CAS_NUMBER>
16590-41-3

>  <UNII>
5S6W795CQM

>  <SYNONYMS>
17-(Cyclopropylmethyl)-4,5-epoxy-3,14-dihydroxymorphinan-6-one; 17-(Cyclopropylmethyl)-4,5Î±-epoxy-3,14-dihydroxymorphinan-6-one; N-Cyclopropylmethyl-14-hydroxydihydromorphinone; N-Cyclopropylmethylnoroxymorphone; Naltrexon; Naltrexona; Naltrexone; Naltrexonum

$$$$
