
 OpenBabel10282417203D

 94 98  0  0  1  0  0  0  0  0999 V2000
   -0.1526    7.4196   -0.6210 O   0  0  0  0  0  0  0  0  0  0  0  0
   -1.0425    4.1913   -0.6168 O   0  0  0  0  0  0  0  0  0  0  0  0
   -2.4625    4.9926    1.3540 O   0  0  0  0  0  0  0  0  0  0  0  0
   -3.2321    7.1473   -2.4760 O   0  0  0  0  0  0  0  0  0  0  0  0
   -2.8665    9.9821   -2.0742 O   0  0  0  0  0  0  0  0  0  0  0  0
    0.7722    8.9077    1.1375 O   0  0  0  0  0  0  0  0  0  0  0  0
   -1.5762   10.6656    0.4419 O   0  0  0  0  0  0  0  0  0  0  0  0
   -2.1691    2.3804    2.4813 O   0  0  0  0  0  0  0  0  0  0  0  0
    0.1944    2.4479    3.6272 O   0  0  0  0  0  0  0  0  0  0  0  0
    0.3265    6.1885    3.4240 O   0  0  0  0  0  0  0  0  0  0  0  0
    4.2692    8.9304   -0.0875 O   0  0  0  0  0  0  0  0  0  0  0  0
    0.9954   11.2241   -0.2856 O   0  0  0  0  0  0  0  0  0  0  0  0
    1.8484   12.3692   -2.4283 O   0  0  0  0  0  0  0  0  0  0  0  0
    6.3799   11.3210   -3.4461 O   0  0  0  0  0  0  0  0  0  0  0  0
    2.7736    4.0457    1.6905 O   0  0  0  0  0  0  0  0  0  0  0  0
    3.7498    4.5943    4.5757 O   0  0  0  0  0  0  0  0  0  0  0  0
    3.9897   11.8453   -5.3306 O   0  0  0  0  0  0  0  0  0  0  0  0
    1.1489    6.4832    1.2627 O   0  0  0  0  0  0  0  0  0  0  0  0
    1.0284    4.7428    4.9390 O   0  0  0  0  0  0  0  0  0  0  0  0
   -1.3920    6.7554   -1.0016 C   0  0  1  0  0  0  0  0  0  0  0  0
   -2.0463    7.7273   -1.9466 C   0  0  2  0  0  0  0  0  0  0  0  0
   -2.3621    9.0147   -1.1535 C   0  0  1  0  0  0  0  0  0  0  0  0
   -1.1415    9.6265   -0.4441 C   0  0  2  0  0  0  0  0  0  0  0  0
   -1.1375    2.8897    1.6132 C   0  0  1  0  0  0  0  0  0  0  0  0
   -1.8549    3.9073    0.5693 C   0  0  2  0  0  0  0  0  0  0  0  0
   -0.1384    3.4827    2.6770 C   0  0  1  0  0  0  0  0  0  0  0  0
   -0.6267    5.0638    3.1660 C   0  0  2  0  0  0  0  0  0  0  0  0
   -0.3439    8.5475    0.2694 C   0  0  1  0  0  0  0  0  0  0  0  0
   -1.2479    5.2927   -1.5785 C   0  0  0  0  0  0  0  0  0  0  0  0
   -1.5993    5.7884    2.1667 C   0  0  2  0  0  0  0  0  0  0  0  0
   -2.0918    7.1458    2.7510 C   0  0  0  0  0  0  0  0  0  0  0  0
    1.9499    9.2206    0.5066 C   0  0  0  0  0  0  0  0  0  0  0  0
    3.1730    8.6659    0.7057 C   0  0  0  0  0  0  0  0  0  0  0  0
    1.8829   10.4205   -0.3612 C   0  0  0  0  0  0  0  0  0  0  0  0
    3.0191   10.6520   -1.2278 C   0  0  0  0  0  0  0  0  0  0  0  0
    3.5656    7.5934    1.6428 C   0  0  0  0  0  0  0  0  0  0  0  0
    4.1594    9.8931   -1.0344 C   0  0  0  0  0  0  0  0  0  0  0  0
    2.9955   11.7111   -2.1068 C   0  0  0  0  0  0  0  0  0  0  0  0
    5.2925   10.1318   -1.7809 C   0  0  0  0  0  0  0  0  0  0  0  0
    3.4333    6.2867    1.2190 C   0  0  0  0  0  0  0  0  0  0  0  0
    4.1937    7.7599    2.8558 C   0  0  0  0  0  0  0  0  0  0  0  0
    4.1822   12.0745   -2.6933 C   0  0  0  0  0  0  0  0  0  0  0  0
    5.2907   11.2219   -2.6329 C   0  0  0  0  0  0  0  0  0  0  0  0
    3.3687    5.1996    2.1294 C   0  0  0  0  0  0  0  0  0  0  0  0
    4.3845    6.6462    3.7072 C   0  0  0  0  0  0  0  0  0  0  0  0
    3.8161    5.3799    3.4424 C   0  0  0  0  0  0  0  0  0  0  0  0
    6.3132   12.3324   -4.4527 C   0  0  0  0  0  0  0  0  0  0  0  0
    1.9174    4.1821    0.5294 C   0  0  0  0  0  0  0  0  0  0  0  0
    2.9501    3.4003    4.8230 C   0  0  0  0  0  0  0  0  0  0  0  0
    5.3756   11.9937   -5.6328 C   0  0  0  0  0  0  0  0  0  0  0  0
    0.8760    5.2549    0.6860 C   0  0  0  0  0  0  0  0  0  0  0  0
    1.6392    3.6918    5.5846 C   0  0  0  0  0  0  0  0  0  0  0  0
   -3.8426    6.9840   -1.7348 H   0  0  0  0  0  0  0  0  0  0  0  0
   -2.0948   10.2803   -2.5925 H   0  0  0  0  0  0  0  0  0  0  0  0
   -2.0789   10.2925    1.1822 H   0  0  0  0  0  0  0  0  0  0  0  0
   -2.3908    3.1503    3.0387 H   0  0  0  0  0  0  0  0  0  0  0  0
   -0.5881    2.1602    4.1128 H   0  0  0  0  0  0  0  0  0  0  0  0
    1.2696    6.0602    3.2005 H   0  0  0  0  0  0  0  0  0  0  0  0
    1.9997   13.0378   -3.1148 H   0  0  0  0  0  0  0  0  0  0  0  0
    3.9001   11.0305   -4.7999 H   0  0  0  0  0  0  0  0  0  0  0  0
    0.5638    6.8271    1.9618 H   0  0  0  0  0  0  0  0  0  0  0  0
    1.7383    5.1119    4.3946 H   0  0  0  0  0  0  0  0  0  0  0  0
   -2.0665    6.6584   -0.1611 H   0  0  0  0  0  0  0  0  0  0  0  0
   -1.3639    7.9592   -2.7727 H   0  0  0  0  0  0  0  0  0  0  0  0
   -3.1564    8.8228   -0.4181 H   0  0  0  0  0  0  0  0  0  0  0  0
   -0.5340   10.0503   -1.2412 H   0  0  0  0  0  0  0  0  0  0  0  0
   -0.6767    2.0337    1.0844 H   0  0  0  0  0  0  0  0  0  0  0  0
   -2.7027    3.3602    0.1485 H   0  0  0  0  0  0  0  0  0  0  0  0
    0.8553    3.4922    2.2903 H   0  0  0  0  0  0  0  0  0  0  0  0
   -1.1300    4.9415    4.1217 H   0  0  0  0  0  0  0  0  0  0  0  0
   -1.0313    8.2381    1.0266 H   0  0  0  0  0  0  0  0  0  0  0  0
   -2.0705    5.0116   -2.2385 H   0  0  0  0  0  0  0  0  0  0  0  0
   -0.3435    5.3024   -2.2221 H   0  0  0  0  0  0  0  0  0  0  0  0
   -1.0318    6.2606    1.3963 H   0  0  0  0  0  0  0  0  0  0  0  0
   -1.2238    7.7976    2.9923 H   0  0  0  0  0  0  0  0  0  0  0  0
   -2.6782    7.7178    2.0232 H   0  0  0  0  0  0  0  0  0  0  0  0
   -2.6455    7.0522    3.6758 H   0  0  0  0  0  0  0  0  0  0  0  0
    6.1604    9.4886   -1.6691 H   0  0  0  0  0  0  0  0  0  0  0  0
    3.0389    6.1998    0.2040 H   0  0  0  0  0  0  0  0  0  0  0  0
    4.5511    8.7451    3.1362 H   0  0  0  0  0  0  0  0  0  0  0  0
    4.1719   12.9679   -3.3018 H   0  0  0  0  0  0  0  0  0  0  0  0
    4.9569    6.7930    4.6192 H   0  0  0  0  0  0  0  0  0  0  0  0
    6.1074   13.3067   -3.9934 H   0  0  0  0  0  0  0  0  0  0  0  0
    7.3281   12.4028   -4.8545 H   0  0  0  0  0  0  0  0  0  0  0  0
    2.4311    4.3525   -0.4105 H   0  0  0  0  0  0  0  0  0  0  0  0
    1.3849    3.2261    0.3849 H   0  0  0  0  0  0  0  0  0  0  0  0
    2.8036    2.8470    3.8945 H   0  0  0  0  0  0  0  0  0  0  0  0
    3.4997    2.7608    5.5187 H   0  0  0  0  0  0  0  0  0  0  0  0
    5.4313   12.8084   -6.3568 H   0  0  0  0  0  0  0  0  0  0  0  0
    5.6873   11.0605   -6.1036 H   0  0  0  0  0  0  0  0  0  0  0  0
    0.4589    5.4659   -0.2507 H   0  0  0  0  0  0  0  0  0  0  0  0
    0.0895    4.8235    1.2036 H   0  0  0  0  0  0  0  0  0  0  0  0
    0.9343    2.8571    5.6320 H   0  0  0  0  0  0  0  0  0  0  0  0
    1.7215    4.0920    6.5892 H   0  0  0  0  0  0  0  0  0  0  0  0
  1 20  1  0  0  0  0
  1 28  1  0  0  0  0
  2 29  1  0  0  0  0
  3 25  1  0  0  0  0
  3 30  1  0  0  0  0
  4 53  1  0  0  0  0
  5 54  1  0  0  0  0
  6 32  1  0  0  0  0
  7 55  1  0  0  0  0
  8 56  1  0  0  0  0
  9 57  1  0  0  0  0
 10 58  1  0  0  0  0
 11 33  1  0  0  0  0
 11 37  1  0  0  0  0
 12 34  2  0  0  0  0
 13 38  1  0  0  0  0
 13 59  1  0  0  0  0
 14 43  1  0  0  0  0
 14 47  1  0  0  0  0
 15 44  1  0  0  0  0
 15 48  1  0  0  0  0
 16 46  1  0  0  0  0
 16 49  1  0  0  0  0
 17 50  1  0  0  0  0
 17 60  1  0  0  0  0
 18 51  1  0  0  0  0
 18 61  1  0  0  0  0
 19 52  1  0  0  0  0
 19 62  1  0  0  0  0
 20 21  1  0  0  0  0
 20 29  1  0  0  0  0
 20 63  1  1  0  0  0
 21  4  1  0  0  0  0
 21 22  1  0  0  0  0
 21 64  1  6  0  0  0
 22  5  1  0  0  0  0
 22 23  1  0  0  0  0
 22 65  1  1  0  0  0
 23  7  1  0  0  0  0
 23 28  1  0  0  0  0
 23 66  1  6  0  0  0
 24  8  1  0  0  0  0
 24 25  1  0  0  0  0
 24 26  1  0  0  0  0
 24 67  1  6  0  0  0
 25 68  1  6  0  0  0
 25  2  1  0  0  0  0
 26  9  1  0  0  0  0
 26 27  1  0  0  0  0
 26 69  1  6  0  0  0
 27 10  1  0  0  0  0
 27 30  1  0  0  0  0
 27 70  1  1  0  0  0
 28  6  1  0  0  0  0
 28 71  1  1  0  0  0
 29 72  1  0  0  0  0
 29 73  1  0  0  0  0
 30 31  1  0  0  0  0
 30 74  1  6  0  0  0
 31 75  1  0  0  0  0
 31 76  1  0  0  0  0
 31 77  1  0  0  0  0
 32 33  2  0  0  0  0
 32 34  1  0  0  0  0
 33 36  1  0  0  0  0
 34 35  1  0  0  0  0
 35 37  1  0  0  0  0
 35 38  2  0  0  0  0
 36 40  2  0  0  0  0
 36 41  1  0  0  0  0
 37 39  2  0  0  0  0
 38 42  1  0  0  0  0
 39 43  1  0  0  0  0
 39 78  1  0  0  0  0
 40 44  1  0  0  0  0
 40 79  1  0  0  0  0
 41 45  2  0  0  0  0
 41 80  1  0  0  0  0
 42 43  2  0  0  0  0
 42 81  1  0  0  0  0
 44 46  2  0  0  0  0
 45 46  1  0  0  0  0
 45 82  1  0  0  0  0
 47 50  1  0  0  0  0
 47 83  1  0  0  0  0
 47 84  1  0  0  0  0
 48 51  1  0  0  0  0
 48 85  1  0  0  0  0
 48 86  1  0  0  0  0
 49 52  1  0  0  0  0
 49 87  1  0  0  0  0
 49 88  1  0  0  0  0
 50 89  1  0  0  0  0
 50 90  1  0  0  0  0
 51 91  1  0  0  0  0
 51 92  1  0  0  0  0
 52 93  1  0  0  0  0
 52 94  1  0  0  0  0
M  END
>  <DRUGBANK_ID>
DB13124

>  <COMMON_NAME>
Troxerutin

>  <CAS_NUMBER>
7085-55-4

>  <UNII>
7Y4N11PXO8

>  <SYNONYMS>
Troxerutin; Troxerutina

$$$$
