SG1
 OpenBabel10282417143D

 30 31  0  0  0  0  0  0  0  0999 V2000
    0.9404    0.0569   -0.0284 S   0  0  0  0  0  0  0  0  0  0  0  0
    0.3794    1.1918    1.2233 C   0  0  0  0  0  0  0  0  0  0  0  0
    0.0379    0.6944    2.4787 C   0  0  0  0  0  0  0  0  0  0  0  0
   -0.1695    1.5837    3.5404 C   0  0  0  0  0  0  0  0  0  0  0  0
   -0.0646    2.9761    3.3594 C   0  0  0  0  0  0  0  0  0  0  0  0
   -0.3665    3.8048    4.4588 N   0  0  0  0  0  0  0  0  0  0  0  0
    0.3402    3.7871    5.6588 C   0  0  0  0  0  0  0  0  0  0  0  0
    1.3558    3.1600    5.9120 O   0  0  0  0  0  0  0  0  0  0  0  0
   -0.4061    4.6674    6.6287 C   0  0  0  0  0  0  0  0  0  0  0  0
   -1.2062    5.5863    5.7158 C   0  0  0  0  0  0  0  0  0  0  0  0
   -1.4642    4.7446    4.4772 C   0  0  0  0  0  0  0  0  0  0  0  0
    0.3061    3.4576    2.0919 C   0  0  0  0  0  0  0  0  0  0  0  0
    0.8028    4.8371    1.9090 N   0  3  0  0  0  0  0  0  0  0  0  0
    1.1316    5.1704    0.7611 O   0  5  0  0  0  0  0  0  0  0  0  0
    0.9014    5.5841    2.8909 O   0  0  0  0  0  0  0  0  0  0  0  0
    0.4565    2.5715    1.0036 C   0  0  0  0  0  0  0  0  0  0  0  0
    0.2844    0.7067   -1.4064 N   0  0  0  0  0  0  0  0  0  0  0  0
    0.2809   -1.2133    0.1868 O   0  0  0  0  0  0  0  0  0  0  0  0
    2.3696    0.2019   -0.1124 O   0  0  0  0  0  0  0  0  0  0  0  0
   -0.0308   -0.3796    2.6483 H   0  0  0  0  0  0  0  0  0  0  0  0
   -0.3946    1.1731    4.5240 H   0  0  0  0  0  0  0  0  0  0  0  0
   -1.0611    4.0318    7.2325 H   0  0  0  0  0  0  0  0  0  0  0  0
    0.2770    5.2264    7.2722 H   0  0  0  0  0  0  0  0  0  0  0  0
   -2.1277    5.9487    6.1817 H   0  0  0  0  0  0  0  0  0  0  0  0
   -0.5995    6.4627    5.4555 H   0  0  0  0  0  0  0  0  0  0  0  0
   -2.4036    4.1882    4.5645 H   0  0  0  0  0  0  0  0  0  0  0  0
   -1.5060    5.3615    3.5752 H   0  0  0  0  0  0  0  0  0  0  0  0
    0.7089    2.9506    0.0161 H   0  0  0  0  0  0  0  0  0  0  0  0
   -0.6857    0.4978   -1.6111 H   0  0  0  0  0  0  0  0  0  0  0  0
    0.7852    1.4710   -1.8480 H   0  0  0  0  0  0  0  0  0  0  0  0
  1  2  1  0  0  0  0
  1 17  1  0  0  0  0
  1 18  2  0  0  0  0
  1 19  2  0  0  0  0
  2  3  2  0  0  0  0
  2 16  1  0  0  0  0
  3  4  1  0  0  0  0
  3 20  1  0  0  0  0
  4  5  2  0  0  0  0
  4 21  1  0  0  0  0
  5  6  1  0  0  0  0
  5 12  1  0  0  0  0
  6  7  1  0  0  0  0
  6 11  1  0  0  0  0
  7  8  2  0  0  0  0
  7  9  1  0  0  0  0
  9 10  1  0  0  0  0
  9 22  1  0  0  0  0
  9 23  1  0  0  0  0
 10 11  1  0  0  0  0
 10 24  1  0  0  0  0
 10 25  1  0  0  0  0
 11 26  1  0  0  0  0
 11 27  1  0  0  0  0
 12 13  1  0  0  0  0
 12 16  2  0  0  0  0
 13 14  1  0  0  0  0
 13 15  2  0  0  0  0
 16 28  1  0  0  0  0
 17 29  1  0  0  0  0
 17 30  1  0  0  0  0
M  CHG  2  13   1  14  -1
M  END
>  <DRUGBANK_ID>
DB04394

>  <SECONDARY_ACCESSION_NUMBERS>
EXPT02892

>  <COMMON_NAME>
3-Nitro-4-(2-Oxo-Pyrrolidin-1-Yl)-Benzenesulfonamide

$$$$
