
 OpenBabel10282417103D

 48 50  0  0  0  0  0  0  0  0999 V2000
    1.9551    0.4841    0.6968 C   0  0  2  0  0  0  0  0  0  0  0  0
    1.9541   -1.3093    0.9108 C   0  0  1  0  0  0  0  0  0  0  0  0
   -0.1470   -0.1808    2.2074 N   0  3  0  0  0  0  0  0  0  0  0  0
    2.5524   -0.4362    0.0104 O   0  0  0  0  0  0  0  0  0  0  0  0
   -0.0290    1.1079    1.1804 C   0  0  2  0  0  0  0  0  0  0  0  0
    0.0547   -1.6872    1.2689 C   0  0  1  0  0  0  0  0  0  0  0  0
    1.5509    0.2296   -1.9117 C   0  0  2  0  0  0  0  0  0  0  0  0
    0.1029    0.1356   -3.0165 C   0  0  0  0  0  0  0  0  0  0  0  0
    1.3869   -1.8353   -1.4831 C   0  0  0  0  0  0  0  0  0  0  0  0
   -1.6618   -1.7387    0.1731 C   0  0  0  0  0  0  0  0  0  0  0  0
   -1.5860    1.4159   -0.0135 C   0  0  0  0  0  0  0  0  0  0  0  0
   -1.4346   -0.0255   -2.5318 O   0  0  0  0  0  0  0  0  0  0  0  0
   -2.2813   -0.1420   -0.8703 C   0  0  1  0  0  0  0  0  0  0  0  0
    0.4087   -0.0137   -4.2012 O   0  0  0  0  0  0  0  0  0  0  0  0
    1.0946   -0.1840    3.0742 C   0  0  0  0  0  0  0  0  0  0  0  0
   -1.4745   -0.0581    2.7355 C   0  0  0  0  0  0  0  0  0  0  0  0
    2.7847    1.2876    0.2003 H   0  0  0  0  0  0  0  0  0  0  0  0
    2.6366   -2.0747    0.4452 H   0  0  0  0  0  0  0  0  0  0  0  0
    1.4732   -2.9630   -2.2998 O   0  0  0  0  0  0  0  0  0  0  0  0
    1.3835    1.9591   -0.8989 C   0  0  0  0  0  0  0  0  0  0  0  0
    1.6298    2.5420    0.8794 C   0  0  0  0  0  0  0  0  0  0  0  0
    1.2332    3.3824    1.8725 C   0  0  0  0  0  0  0  0  0  0  0  0
    0.6459    4.2383    1.0687 C   0  0  0  0  0  0  0  0  0  0  0  0
    0.5969    4.1015   -0.5175 C   0  0  0  0  0  0  0  0  0  0  0  0
    0.7961    3.0085   -1.4869 C   0  0  0  0  0  0  0  0  0  0  0  0
   -0.1026   -0.2729   -0.5928 Br  0  5  0  0  0  0  0  0  0  0  0  0
   -0.3707    2.0476    1.6583 H   0  0  0  0  0  0  0  0  0  0  0  0
    0.0682   -2.6083    1.8661 H   0  0  0  0  0  0  0  0  0  0  0  0
    2.4736    0.2175   -2.4365 H   0  0  0  0  0  0  0  0  0  0  0  0
    1.2917   -2.4190   -0.4359 H   0  0  0  0  0  0  0  0  0  0  0  0
    0.2674   -2.1155   -1.4015 H   0  0  0  0  0  0  0  0  0  0  0  0
   -2.5067   -1.8652    0.8210 H   0  0  0  0  0  0  0  0  0  0  0  0
   -1.5811   -2.4375   -0.7099 H   0  0  0  0  0  0  0  0  0  0  0  0
   -2.4354    1.7705    0.5584 H   0  0  0  0  0  0  0  0  0  0  0  0
   -1.4222    2.1163   -0.9122 H   0  0  0  0  0  0  0  0  0  0  0  0
   -3.3346   -0.0504   -1.0458 H   0  0  0  0  0  0  0  0  0  0  0  0
    1.1638    0.7252    3.6498 H   0  0  0  0  0  0  0  0  0  0  0  0
    1.1660   -1.1653    3.5120 H   0  0  0  0  0  0  0  0  0  0  0  0
    2.0486   -0.1322    2.5346 H   0  0  0  0  0  0  0  0  0  0  0  0
   -2.1916   -0.0093    1.9118 H   0  0  0  0  0  0  0  0  0  0  0  0
   -1.5959   -0.9682    3.2962 H   0  0  0  0  0  0  0  0  0  0  0  0
   -1.4982    0.8966    3.2576 H   0  0  0  0  0  0  0  0  0  0  0  0
    0.5863   -2.8644   -2.7065 H   0  0  0  0  0  0  0  0  0  0  0  0
    1.8250    1.8351    1.7953 H   0  0  0  0  0  0  0  0  0  0  0  0
    0.8700    2.9713    2.9003 H   0  0  0  0  0  0  0  0  0  0  0  0
    0.1771    5.0286    1.6164 H   0  0  0  0  0  0  0  0  0  0  0  0
    0.8080    5.0841   -0.9077 H   0  0  0  0  0  0  0  0  0  0  0  0
    0.6630    2.9252   -2.5582 H   0  0  0  0  0  0  0  0  0  0  0  0
  1 17  1  6  0  0  0
  1  4  1  0  0  0  0
  2  4  1  0  0  0  0
  2 18  1  6  0  0  0
  2  1  1  0  0  0  0
  5 11  1  0  0  0  0
  5  3  1  0  0  0  0
  5  1  1  0  0  0  0
  5 27  1  1  0  0  0
  6 10  1  0  0  0  0
  6  3  1  0  0  0  0
  6  2  1  0  0  0  0
  6 28  1  1  0  0  0
  7 20  1  0  0  0  0
  7  8  1  0  0  0  0
  7 29  1  6  0  0  0
  8 12  1  0  0  0  0
  9 19  1  0  0  0  0
  9  7  1  0  0  0  0
  9 30  1  0  0  0  0
  9 31  1  0  0  0  0
 10 32  1  0  0  0  0
 10 33  1  0  0  0  0
 11 34  1  0  0  0  0
 11 35  1  0  0  0  0
 13 11  1  0  0  0  0
 13 10  1  0  0  0  0
 13 36  1  6  0  0  0
 13 12  1  0  0  0  0
 14  8  2  0  0  0  0
 15  3  1  0  0  0  0
 15 37  1  0  0  0  0
 15 38  1  0  0  0  0
 15 39  1  0  0  0  0
 16  3  1  0  0  0  0
 16 40  1  0  0  0  0
 16 41  1  0  0  0  0
 16 42  1  0  0  0  0
 19 43  1  0  0  0  0
 20 21  2  0  0  0  0
 21 22  1  0  0  0  0
 21 44  1  0  0  0  0
 22 23  2  0  0  0  0
 22 45  1  0  0  0  0
 23 24  1  0  0  0  0
 23 46  1  0  0  0  0
 24 25  2  0  0  0  0
 24 47  1  0  0  0  0
 25 20  1  0  0  0  0
 25 48  1  0  0  0  0
M  CHG  2   3   1  26  -1
M  END
>  <DRUGBANK_ID>
DB00462

>  <SECONDARY_ACCESSION_NUMBERS>
APRD00314

>  <COMMON_NAME>
Methscopolamine bromide

>  <CAS_NUMBER>
155-41-9

>  <UNII>
RTN51LK7WL

>  <SYNONYMS>
(−)-scopolamine methobromide; (−)-scopolamine methyl bromide; Hyoscine methobromide; Hyoscine methyl bromide; Methscopolamine bromide; Methylscopolamine bromide; N-methylhyoscine bromide; N-methylscopolammonium bromide; Scopolamine methobromide; Scopolamine methyl bromide

$$$$
