
 OpenBabel10282417123D

 27 26  0  0  1  0  0  0  0  0999 V2000
   -0.8577   -0.3629   -2.2624 C   0  0  0  0  0  0  0  0  0  0  0  0
    0.1306    0.4610   -1.3544 C   0  0  2  0  0  0  0  0  0  0  0  0
    0.8299   -0.0885   -0.0910 C   0  0  0  0  0  0  0  0  0  0  0  0
   -0.6277    1.6533   -0.8998 N   0  0  0  0  0  0  0  0  0  0  0  0
   -1.8776    0.1205   -2.7189 O   0  0  0  0  0  0  0  0  0  0  0  0
   -0.5168   -1.6199   -2.5994 O   0  0  0  0  0  0  0  0  0  0  0  0
   -0.0608   -0.8424    0.9089 C   0  0  0  0  0  0  0  0  0  0  0  0
   -0.6026   -2.1498    0.3388 C   0  0  0  0  0  0  0  0  0  0  0  0
    0.5200   -3.0780   -0.1553 C   0  0  0  0  0  0  0  0  0  0  0  0
    1.3135   -3.5790    0.9506 N   0  0  0  0  0  0  0  0  0  0  0  0
    2.4104   -4.3843    0.4319 C   0  0  0  0  0  0  0  0  0  0  0  0
    0.9169    0.8106   -2.0345 H   0  0  0  0  0  0  0  0  0  0  0  0
    1.7136   -0.6760   -0.3656 H   0  0  0  0  0  0  0  0  0  0  0  0
    1.2767    0.7574    0.4591 H   0  0  0  0  0  0  0  0  0  0  0  0
   -1.1861    1.9630   -1.7045 H   0  0  0  0  0  0  0  0  0  0  0  0
   -1.3417    1.3439   -0.2363 H   0  0  0  0  0  0  0  0  0  0  0  0
    0.2128   -1.9806   -2.0910 H   0  0  0  0  0  0  0  0  0  0  0  0
    0.5058   -1.0553    1.8243 H   0  0  0  0  0  0  0  0  0  0  0  0
   -0.8919   -0.2028    1.2237 H   0  0  0  0  0  0  0  0  0  0  0  0
   -1.2307   -2.6782    1.0620 H   0  0  0  0  0  0  0  0  0  0  0  0
   -1.3149   -1.8941   -0.4480 H   0  0  0  0  0  0  0  0  0  0  0  0
    0.0958   -3.8850   -0.7633 H   0  0  0  0  0  0  0  0  0  0  0  0
    1.2334   -2.5570   -0.8012 H   0  0  0  0  0  0  0  0  0  0  0  0
    1.7101   -2.7912    1.4649 H   0  0  0  0  0  0  0  0  0  0  0  0
    3.0948   -3.7830   -0.1786 H   0  0  0  0  0  0  0  0  0  0  0  0
    2.9698   -4.7961    1.2724 H   0  0  0  0  0  0  0  0  0  0  0  0
    2.0305   -5.2116   -0.1751 H   0  0  0  0  0  0  0  0  0  0  0  0
  1  5  2  0  0  0  0
  1  6  1  0  0  0  0
  2  4  1  0  0  0  0
  2 12  1  6  0  0  0
  2  3  1  0  0  0  0
  2  1  1  0  0  0  0
  3  7  1  0  0  0  0
  3 13  1  0  0  0  0
  3 14  1  0  0  0  0
  4 15  1  0  0  0  0
  4 16  1  0  0  0  0
  6 17  1  0  0  0  0
  7  8  1  0  0  0  0
  7 18  1  0  0  0  0
  7 19  1  0  0  0  0
  8  9  1  0  0  0  0
  8 20  1  0  0  0  0
  8 21  1  0  0  0  0
  9 10  1  0  0  0  0
  9 22  1  0  0  0  0
  9 23  1  0  0  0  0
 10 11  1  0  0  0  0
 10 24  1  0  0  0  0
 11 25  1  0  0  0  0
 11 26  1  0  0  0  0
 11 27  1  0  0  0  0
M  END
>  <DRUGBANK_ID>
DB01714

>  <SECONDARY_ACCESSION_NUMBERS>
EXPT02190

>  <COMMON_NAME>
Epsilon-N-methyllysine

>  <CAS_NUMBER>
1188-07-4

>  <UNII>
FCR6T2IYVU

>  <SYNONYMS>
N-Epsilon-methyllysine; N(6)-Methyllysine

$$$$
