
 OpenBabel10282417213D

 37 36  0  0  0  0  0  0  0  0999 V2000
    1.1097    0.4507   -0.2069 Cl  0  0  0  0  0  0  0  0  0  0  0  0
    3.5186    1.0934    0.6444 O   0  0  0  0  0  0  0  0  0  0  0  0
    2.8158    0.2484    0.0840 C   0  0  0  0  0  0  0  0  0  0  0  0
    3.4484   -1.0228   -0.4598 C   0  0  0  0  0  0  0  0  0  0  0  0
    3.0762   -2.2940    0.3027 C   0  0  0  0  0  0  0  0  0  0  0  0
    1.6052   -2.6663    0.1325 C   0  0  0  0  0  0  0  0  0  0  0  0
    1.2499   -2.8170   -1.3529 C   0  0  0  0  0  0  0  0  0  0  0  0
    2.0144   -3.9985   -1.9543 C   0  0  0  0  0  0  0  0  0  0  0  0
    1.6385   -5.2862   -1.2167 C   0  0  0  0  0  0  0  0  0  0  0  0
    0.1308   -5.5357   -1.3340 C   0  0  0  0  0  0  0  0  0  0  0  0
   -0.2647   -5.6938   -2.8063 C   0  0  0  0  0  0  0  0  0  0  0  0
    0.4603   -6.8883   -3.4363 C   0  0  0  0  0  0  0  0  0  0  0  0
    0.1370   -8.1881   -2.6978 C   0  0  0  0  0  0  0  0  0  0  0  0
   -1.3555   -8.4708   -2.7516 C   0  0  0  0  0  0  0  0  0  0  0  0
    3.2585   -1.1000   -1.5356 H   0  0  0  0  0  0  0  0  0  0  0  0
    4.5352   -0.9006   -0.3870 H   0  0  0  0  0  0  0  0  0  0  0  0
    3.7085   -3.1202   -0.0539 H   0  0  0  0  0  0  0  0  0  0  0  0
    3.3119   -2.1970    1.3662 H   0  0  0  0  0  0  0  0  0  0  0  0
    1.3866   -3.5769    0.6985 H   0  0  0  0  0  0  0  0  0  0  0  0
    0.9552   -1.9401    0.6174 H   0  0  0  0  0  0  0  0  0  0  0  0
    0.1668   -2.9270   -1.4637 H   0  0  0  0  0  0  0  0  0  0  0  0
    1.4636   -1.9187   -1.9367 H   0  0  0  0  0  0  0  0  0  0  0  0
    1.8060   -4.0662   -3.0268 H   0  0  0  0  0  0  0  0  0  0  0  0
    3.0967   -3.8463   -1.9112 H   0  0  0  0  0  0  0  0  0  0  0  0
    2.2268   -6.1212   -1.6054 H   0  0  0  0  0  0  0  0  0  0  0  0
    1.9254   -5.2515   -0.1621 H   0  0  0  0  0  0  0  0  0  0  0  0
   -0.1458   -6.4084   -0.7368 H   0  0  0  0  0  0  0  0  0  0  0  0
   -0.4559   -4.7293   -0.8820 H   0  0  0  0  0  0  0  0  0  0  0  0
   -1.3499   -5.7930   -2.8886 H   0  0  0  0  0  0  0  0  0  0  0  0
   -0.0463   -4.7881   -3.3821 H   0  0  0  0  0  0  0  0  0  0  0  0
    0.1849   -6.9696   -4.4919 H   0  0  0  0  0  0  0  0  0  0  0  0
    1.5459   -6.7306   -3.4365 H   0  0  0  0  0  0  0  0  0  0  0  0
    0.6972   -9.0137   -3.1449 H   0  0  0  0  0  0  0  0  0  0  0  0
    0.4666   -8.1441   -1.6528 H   0  0  0  0  0  0  0  0  0  0  0  0
   -1.6796   -8.5507   -3.7932 H   0  0  0  0  0  0  0  0  0  0  0  0
   -1.5939   -9.3958   -2.2259 H   0  0  0  0  0  0  0  0  0  0  0  0
   -1.9428   -7.6778   -2.2769 H   0  0  0  0  0  0  0  0  0  0  0  0
  1  3  1  0  0  0  0
  2  3  2  0  0  0  0
  3  4  1  0  0  0  0
  4  5  1  0  0  0  0
  4 15  1  0  0  0  0
  4 16  1  0  0  0  0
  5  6  1  0  0  0  0
  5 17  1  0  0  0  0
  5 18  1  0  0  0  0
  6  7  1  0  0  0  0
  6 19  1  0  0  0  0
  6 20  1  0  0  0  0
  7  8  1  0  0  0  0
  7 21  1  0  0  0  0
  7 22  1  0  0  0  0
  8  9  1  0  0  0  0
  8 23  1  0  0  0  0
  8 24  1  0  0  0  0
  9 10  1  0  0  0  0
  9 25  1  0  0  0  0
  9 26  1  0  0  0  0
 10 11  1  0  0  0  0
 10 27  1  0  0  0  0
 10 28  1  0  0  0  0
 11 12  1  0  0  0  0
 11 29  1  0  0  0  0
 11 30  1  0  0  0  0
 12 13  1  0  0  0  0
 12 31  1  0  0  0  0
 12 32  1  0  0  0  0
 13 14  1  0  0  0  0
 13 33  1  0  0  0  0
 13 34  1  0  0  0  0
 14 35  1  0  0  0  0
 14 36  1  0  0  0  0
 14 37  1  0  0  0  0
M  END
>  <DRUGBANK_ID>
DB14670

>  <SECONDARY_ACCESSION_NUMBERS>
DBSALT002257

>  <COMMON_NAME>
Lauroyl chloride

>  <CAS_NUMBER>
112-16-3

>  <UNII>
9LHL10777I

>  <SYNONYMS>
Dodecanoic acid, chloride; Dodecanoyl chloride; Lauric acid chloride; N-dodecanoyl chloride

$$$$
