
 OpenBabel10282417143D

 36 37  0  0  0  0  0  0  0  0999 V2000
    1.2558   -0.3740    0.3082 O   0  0  0  0  0  0  0  0  0  0  0  0
   -1.1298    0.5272   -2.0098 C   0  0  0  0  0  0  0  0  0  0  0  0
    0.2598    0.6530   -2.0168 C   0  0  0  0  0  0  0  0  0  0  0  0
   -1.7603   -0.4492   -2.7653 C   0  0  0  0  0  0  0  0  0  0  0  0
    1.0592   -0.2901   -2.6926 C   0  0  0  0  0  0  0  0  0  0  0  0
   -0.9968   -1.3214   -3.5295 C   0  0  0  0  0  0  0  0  0  0  0  0
    0.3954   -1.2582   -3.4746 C   0  0  0  0  0  0  0  0  0  0  0  0
   -1.9163    1.3335   -1.2391 O   0  0  0  0  0  0  0  0  0  0  0  0
    2.5878   -0.2859   -2.5252 C   0  0  1  0  0  0  0  0  0  0  0  0
    3.1191   -0.7023   -1.1322 C   0  0  0  0  0  0  0  0  0  0  0  0
    4.1037   -1.6370   -1.0726 C   0  0  0  0  0  0  0  0  0  0  0  0
    4.8580   -1.8877   -2.1948 N   0  0  0  0  0  0  0  0  0  0  0  0
    3.1831   -1.1531   -3.5689 N   0  0  0  0  0  0  0  0  0  0  0  0
    4.3591   -1.8027   -3.4447 C   0  0  0  0  0  0  0  0  0  0  0  0
    5.0977   -2.5837   -4.7076 S   0  0  0  0  0  0  0  0  0  0  0  0
    2.4603   -0.1411    0.0898 C   0  0  0  0  0  0  0  0  0  0  0  0
    3.0768    0.6915    0.9715 O   0  0  0  0  0  0  0  0  0  0  0  0
    4.4638    1.1085    1.1497 C   0  0  0  0  0  0  0  0  0  0  0  0
    5.3057   -0.0843    1.4345 C   0  0  0  0  0  0  0  0  0  0  0  0
    4.5634   -2.4699    0.0970 C   0  0  0  0  0  0  0  0  0  0  0  0
    0.7231    1.4267   -1.4104 H   0  0  0  0  0  0  0  0  0  0  0  0
   -2.8410   -0.5403   -2.7465 H   0  0  0  0  0  0  0  0  0  0  0  0
   -1.4768   -2.0786   -4.1424 H   0  0  0  0  0  0  0  0  0  0  0  0
    0.9391   -2.0083   -4.0428 H   0  0  0  0  0  0  0  0  0  0  0  0
   -1.3455    1.8270   -0.6268 H   0  0  0  0  0  0  0  0  0  0  0  0
    2.9531    0.7196   -2.7722 H   0  0  0  0  0  0  0  0  0  0  0  0
    5.7376   -2.3870   -2.1043 H   0  0  0  0  0  0  0  0  0  0  0  0
    2.7699   -1.1905   -4.4914 H   0  0  0  0  0  0  0  0  0  0  0  0
    4.7953    1.6215    0.2459 H   0  0  0  0  0  0  0  0  0  0  0  0
    4.5241    1.7827    2.0097 H   0  0  0  0  0  0  0  0  0  0  0  0
    5.2882   -0.4908    0.4515 H   0  0  0  0  0  0  0  0  0  0  0  0
    6.3783    0.0040    1.5884 H   0  0  0  0  0  0  0  0  0  0  0  0
    4.8558   -0.7668    2.1675 H   0  0  0  0  0  0  0  0  0  0  0  0
    4.5046   -3.5428   -0.0858 H   0  0  0  0  0  0  0  0  0  0  0  0
    5.6341   -2.2927    0.2797 H   0  0  0  0  0  0  0  0  0  0  0  0
    3.9645   -2.2579    0.9833 H   0  0  0  0  0  0  0  0  0  0  0  0
  2  8  1  0  0  0  0
  3  2  2  0  0  0  0
  3 21  1  0  0  0  0
  4  2  1  0  0  0  0
  4 22  1  0  0  0  0
  5  3  1  0  0  0  0
  6  4  2  0  0  0  0
  6 23  1  0  0  0  0
  7  5  2  0  0  0  0
  7  6  1  0  0  0  0
  7 24  1  0  0  0  0
  8 25  1  0  0  0  0
  9 10  1  0  0  0  0
  9 26  1  6  0  0  0
  9  5  1  0  0  0  0
 10 16  1  0  0  0  0
 11 10  2  0  0  0  0
 11 20  1  0  0  0  0
 12 11  1  0  0  0  0
 12 27  1  0  0  0  0
 13  9  1  0  0  0  0
 13 28  1  0  0  0  0
 14 12  1  0  0  0  0
 14 13  1  0  0  0  0
 14 15  2  0  0  0  0
 16  1  2  0  0  0  0
 16 17  1  0  0  0  0
 17 18  1  0  0  0  0
 18 19  1  0  0  0  0
 18 29  1  0  0  0  0
 18 30  1  0  0  0  0
 19 31  1  0  0  0  0
 19 32  1  0  0  0  0
 19 33  1  0  0  0  0
 20 34  1  0  0  0  0
 20 35  1  0  0  0  0
 20 36  1  0  0  0  0
M  END
>  <DRUGBANK_ID>
DB04331

>  <SECONDARY_ACCESSION_NUMBERS>
EXPT02296

>  <COMMON_NAME>
Monastrol

>  <CAS_NUMBER>
254753-54-3

>  <UNII>
6BSM97YZ8G

>  <SYNONYMS>
(+)-Monastrol; (4S)-Monastrol; (S)-monastrol

$$$$
