
 OpenBabel10282417233D

 53 55  0  0  0  0  0  0  0  0999 V2000
    0.9890   -0.3011    0.2888 C   0  0  0  0  0  0  0  0  0  0  0  0
    0.6235   -0.1935   -1.0574 O   0  0  0  0  0  0  0  0  0  0  0  0
    1.0310    1.0714   -1.4005 C   0  0  0  0  0  0  0  0  0  0  0  0
    2.3999    1.3734   -1.6800 C   0  0  0  0  0  0  0  0  0  0  0  0
    2.7808    2.5047   -2.4491 C   0  0  0  0  0  0  0  0  0  0  0  0
    1.8190    3.3039   -2.9544 C   0  0  0  0  0  0  0  0  0  0  0  0
    2.3927    4.5571   -4.1463 C   0  0  0  0  0  0  0  0  0  0  0  0
    2.0750    5.1932   -5.6753 C   0  0  0  0  0  0  0  0  0  0  0  0
    0.5933    5.4666   -5.9912 C   0  0  0  0  0  0  0  0  0  0  0  0
    0.1452    6.4941   -5.0854 O   0  0  0  0  0  0  0  0  0  0  0  0
    0.0361    6.0536   -3.6995 C   0  0  3  0  0  0  0  0  0  0  0  0
   -0.6679    4.5975   -3.7854 C   0  0  0  0  0  0  0  0  0  0  0  0
   -0.1724    3.1349   -4.5664 N   0  0  0  0  0  0  0  0  0  0  0  0
    0.9622    2.7489   -5.3206 C   0  0  0  0  0  0  0  0  0  0  0  0
    1.3259    1.4531   -5.2003 C   0  0  0  0  0  0  0  0  0  0  0  0
    0.2965    0.8298   -4.6400 N   0  0  0  0  0  0  0  0  0  0  0  0
   -0.5980    1.7852   -4.3523 C   0  0  0  0  0  0  0  0  0  0  0  0
    1.2801    6.5624   -2.4734 C   0  0  0  0  0  0  0  0  0  0  0  0
    1.8888    7.7628   -2.7779 C   0  0  0  0  0  0  0  0  0  0  0  0
    3.2995    7.9359   -2.5705 C   0  0  0  0  0  0  0  0  0  0  0  0
    4.1677    6.9341   -2.0907 C   0  0  0  0  0  0  0  0  0  0  0  0
    5.5204    6.8404   -2.2096 O   0  0  0  0  0  0  0  0  0  0  0  0
    6.0914    8.1153   -2.1011 C   0  0  0  0  0  0  0  0  0  0  0  0
    3.6266    5.8303   -1.5654 C   0  0  0  0  0  0  0  0  0  0  0  0
    2.2260    5.7195   -1.7229 C   0  0  0  0  0  0  0  0  0  0  0  0
    0.5017    3.0307   -2.2046 C   0  0  0  0  0  0  0  0  0  0  0  0
    0.1076    1.9353   -1.4522 C   0  0  0  0  0  0  0  0  0  0  0  0
    0.5804   -1.2374    0.6437 H   0  0  0  0  0  0  0  0  0  0  0  0
    0.5890    0.5365    0.8795 H   0  0  0  0  0  0  0  0  0  0  0  0
    2.0791   -0.3159    0.3361 H   0  0  0  0  0  0  0  0  0  0  0  0
    3.1499    0.7184   -1.3290 H   0  0  0  0  0  0  0  0  0  0  0  0
    3.8289    2.7055   -2.6264 H   0  0  0  0  0  0  0  0  0  0  0  0
    2.0127    5.4542   -3.8155 H   0  0  0  0  0  0  0  0  0  0  0  0
    3.4660    4.7080   -3.9955 H   0  0  0  0  0  0  0  0  0  0  0  0
    2.5368    6.1882   -5.7571 H   0  0  0  0  0  0  0  0  0  0  0  0
    2.6117    4.6153   -6.4416 H   0  0  0  0  0  0  0  0  0  0  0  0
    0.4631    5.7346   -7.0448 H   0  0  0  0  0  0  0  0  0  0  0  0
   -0.1117    4.6356   -6.0118 H   0  0  0  0  0  0  0  0  0  0  0  0
   -0.7525    6.7186   -3.2924 H   0  0  0  0  0  0  0  0  0  0  0  0
   -0.6313    4.6598   -2.6814 H   0  0  0  0  0  0  0  0  0  0  0  0
   -1.7585    4.5476   -3.8827 H   0  0  0  0  0  0  0  0  0  0  0  0
    1.8044    3.3081   -5.5883 H   0  0  0  0  0  0  0  0  0  0  0  0
    2.3544    1.1062   -5.3900 H   0  0  0  0  0  0  0  0  0  0  0  0
   -1.4685    1.5234   -3.7798 H   0  0  0  0  0  0  0  0  0  0  0  0
    1.3472    8.4794   -3.3796 H   0  0  0  0  0  0  0  0  0  0  0  0
    3.7241    8.8707   -2.8973 H   0  0  0  0  0  0  0  0  0  0  0  0
    5.9769    8.6148   -3.0636 H   0  0  0  0  0  0  0  0  0  0  0  0
    5.6029    8.6613   -1.2879 H   0  0  0  0  0  0  0  0  0  0  0  0
    7.1460    7.9986   -1.8589 H   0  0  0  0  0  0  0  0  0  0  0  0
    4.2765    4.9377   -1.4513 H   0  0  0  0  0  0  0  0  0  0  0  0
    2.2191    4.6730   -1.7403 H   0  0  0  0  0  0  0  0  0  0  0  0
   -0.5321    3.2262   -2.3962 H   0  0  0  0  0  0  0  0  0  0  0  0
   -0.9957    1.7391   -1.3135 H   0  0  0  0  0  0  0  0  0  0  0  0
  1  2  1  0  0  0  0
  1 28  1  0  0  0  0
  1 29  1  0  0  0  0
  1 30  1  0  0  0  0
  2  3  1  0  0  0  0
  3  4  2  0  0  0  0
  3 27  1  0  0  0  0
  4  5  1  0  0  0  0
  4 31  1  0  0  0  0
  5  6  2  0  0  0  0
  5 32  1  0  0  0  0
  6  7  1  0  0  0  0
  6 26  1  0  0  0  0
  7  8  1  0  0  0  0
  7 33  1  0  0  0  0
  7 34  1  0  0  0  0
  8  9  1  0  0  0  0
  8 35  1  0  0  0  0
  8 36  1  0  0  0  0
  9 10  1  0  0  0  0
  9 37  1  0  0  0  0
  9 38  1  0  0  0  0
 10 11  1  0  0  0  0
 11 12  1  0  0  0  0
 11 18  1  0  0  0  0
 11 39  1  0  0  0  0
 12 13  1  0  0  0  0
 12 40  1  0  0  0  0
 12 41  1  0  0  0  0
 13 14  1  0  0  0  0
 13 17  1  0  0  0  0
 14 15  2  0  0  0  0
 14 42  1  0  0  0  0
 15 16  1  0  0  0  0
 15 43  1  0  0  0  0
 16 17  2  0  0  0  0
 17 44  1  0  0  0  0
 18 19  2  0  0  0  0
 18 25  1  0  0  0  0
 19 20  1  0  0  0  0
 19 45  1  0  0  0  0
 20 21  2  0  0  0  0
 20 46  1  0  0  0  0
 21 22  1  0  0  0  0
 21 24  1  0  0  0  0
 22 23  1  0  0  0  0
 23 47  1  0  0  0  0
 23 48  1  0  0  0  0
 23 49  1  0  0  0  0
 24 25  2  0  0  0  0
 24 50  1  0  0  0  0
 25 51  1  0  0  0  0
 26 27  2  0  0  0  0
 26 52  1  0  0  0  0
 27 53  1  0  0  0  0
M  END
>  <DRUGBANK_ID>
DB17054

>  <COMMON_NAME>
SKF-96365 free base

>  <CAS_NUMBER>
162849-90-3

>  <UNII>
I61V87164A

>  <SYNONYMS>
1-(2-(3-(4-methoxyphenyl)propoxy)-4-methoxyphenylethyl)-1h-imidazole

$$$$
