
 OpenBabel10282417213D

 29 30  0  0  0  0  0  0  0  0999 V2000
   -0.7487   -0.9959    0.0462 C   0  0  0  0  0  0  0  0  0  0  0  0
    0.6228   -0.9413    0.0073 C   0  0  0  0  0  0  0  0  0  0  0  0
    1.1909    0.2770   -0.0128 C   0  0  0  0  0  0  0  0  0  0  0  0
    0.3663    1.4012   -0.0044 C   0  0  0  0  0  0  0  0  0  0  0  0
   -1.0666    1.2961   -0.0095 C   0  0  0  0  0  0  0  0  0  0  0  0
   -1.7039    0.0452    0.0030 C   0  0  0  0  0  0  0  0  0  0  0  0
   -3.2998   -0.0373   -0.0208 C   0  0  0  0  0  0  0  0  0  0  0  0
   -3.8834    1.0606   -0.0431 O   0  0  0  0  0  0  0  0  0  0  0  0
   -4.2047   -1.1786   -0.0417 N   0  0  0  0  0  0  0  0  0  0  0  0
   -4.0797   -2.6310   -0.0533 N   0  0  0  0  0  0  0  0  0  0  0  0
   -2.8513   -2.9946    0.1190 C   0  0  0  0  0  0  0  0  0  0  0  0
   -1.9989   -4.1492    0.0643 C   0  0  0  0  0  0  0  0  0  0  0  0
   -1.9770   -5.1283   -0.8964 C   0  0  0  0  0  0  0  0  0  0  0  0
   -0.9460   -6.0278   -0.5730 C   0  0  0  0  0  0  0  0  0  0  0  0
   -0.2467   -5.4724    0.4640 C   0  0  0  0  0  0  0  0  0  0  0  0
   -0.8246   -4.2756    0.8476 O   0  0  0  0  0  0  0  0  0  0  0  0
    0.8911   -6.0139    1.1777 N   0  3  0  0  0  0  0  0  0  0  0  0
    1.4800   -5.3294    2.0006 O   0  0  0  0  0  0  0  0  0  0  0  0
    1.1943   -7.1909    0.8589 O   0  5  0  0  0  0  0  0  0  0  0  0
    2.5444    0.3152   -0.0181 O   0  0  0  0  0  0  0  0  0  0  0  0
   -0.8575   -2.0446    0.1592 H   0  0  0  0  0  0  0  0  0  0  0  0
    1.1563   -1.8902    0.0305 H   0  0  0  0  0  0  0  0  0  0  0  0
    0.8412    2.3753    0.0108 H   0  0  0  0  0  0  0  0  0  0  0  0
   -1.6501    2.2183   -0.0116 H   0  0  0  0  0  0  0  0  0  0  0  0
   -5.1866   -0.8997   -0.0890 H   0  0  0  0  0  0  0  0  0  0  0  0
   -2.3813   -2.0926    0.2075 H   0  0  0  0  0  0  0  0  0  0  0  0
   -2.6754   -5.1559   -1.7150 H   0  0  0  0  0  0  0  0  0  0  0  0
   -0.7322   -6.9786   -1.0369 H   0  0  0  0  0  0  0  0  0  0  0  0
    2.8554   -0.6133   -0.0114 H   0  0  0  0  0  0  0  0  0  0  0  0
  1  2  2  0  0  0  0
  1  6  1  0  0  0  0
  1 21  1  0  0  0  0
  2  3  1  0  0  0  0
  2 22  1  0  0  0  0
  3  4  2  0  0  0  0
  3 20  1  0  0  0  0
  4  5  1  0  0  0  0
  4 23  1  0  0  0  0
  5  6  2  0  0  0  0
  5 24  1  0  0  0  0
  6  7  1  0  0  0  0
  7  8  2  0  0  0  0
  7  9  1  0  0  0  0
  9 10  1  0  0  0  0
  9 25  1  0  0  0  0
 10 11  2  0  0  0  0
 11 12  1  0  0  0  0
 11 26  1  0  0  0  0
 12 13  2  0  0  0  0
 12 16  1  0  0  0  0
 13 14  1  0  0  0  0
 13 27  1  0  0  0  0
 14 15  2  0  0  0  0
 14 28  1  0  0  0  0
 15 16  1  0  0  0  0
 15 17  1  0  0  0  0
 17 18  2  0  0  0  0
 17 19  1  0  0  0  0
 20 29  1  0  0  0  0
M  CHG  2  17   1  19  -1
M  END
>  <DRUGBANK_ID>
DB13855

>  <COMMON_NAME>
Nifuroxazide

>  <CAS_NUMBER>
965-52-6

>  <UNII>
PM5LI0P38J

>  <SYNONYMS>
Nifuroxazide

$$$$
