
 OpenBabel10282417163D

 38 38  0  0  0  0  0  0  0  0999 V2000
    0.9386   -0.0346   -0.1349 C   0  0  0  0  0  0  0  0  0  0  0  0
   -1.1729   -2.9874    4.3449 C   0  0  0  0  0  0  0  0  0  0  0  0
    0.5098   -1.4641    0.1629 C   0  0  0  0  0  0  0  0  0  0  0  0
    1.0429   -1.9436    1.5189 C   0  0  0  0  0  0  0  0  0  0  0  0
    0.5684   -1.0835    2.6833 C   0  0  0  0  0  0  0  0  0  0  0  0
   -0.9443   -1.0618    2.7827 C   0  0  0  0  0  0  0  0  0  0  0  0
   -3.8780   -3.5560    2.9111 C   0  0  0  0  0  0  0  0  0  0  0  0
   -6.0231   -2.4160    2.9641 C   0  0  0  0  0  0  0  0  0  0  0  0
   -1.6527   -2.4031    3.0115 C   0  0  3  0  0  0  0  0  0  0  0  0
   -5.2801   -3.5982    2.9289 C   0  0  0  0  0  0  0  0  0  0  0  0
   -3.1844   -2.3199    2.9592 C   0  0  0  0  0  0  0  0  0  0  0  0
   -5.3581   -1.1815    2.9947 C   0  0  0  0  0  0  0  0  0  0  0  0
   -3.9522   -1.1300    3.0060 C   0  0  0  0  0  0  0  0  0  0  0  0
   -5.9789   -4.8936    2.9285 N   0  0  0  0  0  0  0  0  0  0  0  0
   -6.1727    0.0536    3.0346 N   0  0  0  0  0  0  0  0  0  0  0  0
   -3.3811    0.0908    3.2148 O   0  0  0  0  0  0  0  0  0  0  0  0
   -7.2184   -4.8740    2.9497 O   0  0  0  0  0  0  0  0  0  0  0  0
   -5.2914   -5.9218    2.9072 O   0  0  0  0  0  0  0  0  0  0  0  0
   -7.4054   -0.0949    3.0843 O   0  0  0  0  0  0  0  0  0  0  0  0
   -5.6243    1.1591    2.9869 O   0  0  0  0  0  0  0  0  0  0  0  0
    0.5319    0.6759    0.5922 H   0  0  0  0  0  0  0  0  0  0  0  0
    0.5827    0.2788   -1.1187 H   0  0  0  0  0  0  0  0  0  0  0  0
    2.0295    0.0428   -0.1111 H   0  0  0  0  0  0  0  0  0  0  0  0
   -1.4793   -2.3396    5.1726 H   0  0  0  0  0  0  0  0  0  0  0  0
   -1.5672   -3.9902    4.5269 H   0  0  0  0  0  0  0  0  0  0  0  0
   -0.0822   -3.0747    4.3723 H   0  0  0  0  0  0  0  0  0  0  0  0
   -0.5841   -1.5339    0.1176 H   0  0  0  0  0  0  0  0  0  0  0  0
    0.8797   -2.1322   -0.6209 H   0  0  0  0  0  0  0  0  0  0  0  0
    0.7387   -2.9839    1.6792 H   0  0  0  0  0  0  0  0  0  0  0  0
    2.1369   -1.9425    1.5090 H   0  0  0  0  0  0  0  0  0  0  0  0
    1.0121   -1.4157    3.6252 H   0  0  0  0  0  0  0  0  0  0  0  0
    0.9087   -0.0477    2.5654 H   0  0  0  0  0  0  0  0  0  0  0  0
   -1.1729   -0.3906    3.6165 H   0  0  0  0  0  0  0  0  0  0  0  0
   -1.3259   -0.6204    1.8562 H   0  0  0  0  0  0  0  0  0  0  0  0
   -3.3109   -4.4898    2.8939 H   0  0  0  0  0  0  0  0  0  0  0  0
   -7.1109   -2.4534    2.9889 H   0  0  0  0  0  0  0  0  0  0  0  0
   -1.3633   -3.0928    2.2049 H   0  0  0  0  0  0  0  0  0  0  0  0
   -2.7146    0.3210    2.5509 H   0  0  0  0  0  0  0  0  0  0  0  0
  1 21  1  0  0  0  0
  1 22  1  0  0  0  0
  1 23  1  0  0  0  0
  2 24  1  0  0  0  0
  2 25  1  0  0  0  0
  2 26  1  0  0  0  0
  3  1  1  0  0  0  0
  3 27  1  0  0  0  0
  3 28  1  0  0  0  0
  4  3  1  0  0  0  0
  4 29  1  0  0  0  0
  4 30  1  0  0  0  0
  5  4  1  0  0  0  0
  5 31  1  0  0  0  0
  5 32  1  0  0  0  0
  6  5  1  0  0  0  0
  6 33  1  0  0  0  0
  6 34  1  0  0  0  0
  7 35  1  0  0  0  0
  8 36  1  0  0  0  0
  9  2  1  0  0  0  0
  9  6  1  0  0  0  0
  9 37  1  0  0  0  0
 10  7  2  0  0  0  0
 10  8  1  0  0  0  0
 11  7  1  0  0  0  0
 11  9  1  0  0  0  0
 12  8  2  0  0  0  0
 13 11  2  0  0  0  0
 13 12  1  0  0  0  0
 14 10  1  0  0  0  0
 15 12  1  0  0  0  0
 16 13  1  0  0  0  0
 16 38  1  0  0  0  0
 17 14  2  0  0  0  0
 18 14  2  0  0  0  0
 19 15  2  0  0  0  0
 20 15  2  0  0  0  0
M  END
>  <DRUGBANK_ID>
DB07671

>  <COMMON_NAME>
2-[1-METHYLHEXYL]-4,6-DINITROPHENOL

$$$$
