
 OpenBabel10282417123D

 24 24  0  0  1  0  0  0  0  0999 V2000
    0.9678   -0.1030   -0.0152 O   0  0  0  0  0  0  0  0  0  0  0  0
    0.4440   -1.1559    0.7947 C   0  0  0  0  0  0  0  0  0  0  0  0
    1.0076   -2.5046    0.3253 C   0  0  2  0  0  0  0  0  0  0  0  0
    0.1235   -3.6621    0.5564 N   0  0  0  0  0  0  0  0  0  0  0  0
    0.9880   -4.8409    0.8002 C   0  0  1  0  0  0  0  0  0  0  0  0
    0.7882   -5.9865   -0.2105 C   0  0  0  0  0  0  0  0  0  0  0  0
    1.7271   -7.0418   -0.0422 O   0  0  0  0  0  0  0  0  0  0  0  0
    2.4392   -4.3285    0.8133 C   0  0  2  0  0  0  0  0  0  0  0  0
    3.2383   -4.9809    1.7918 O   0  0  0  0  0  0  0  0  0  0  0  0
    2.2878   -2.8372    1.0913 C   0  0  1  0  0  0  0  0  0  0  0  0
    3.3900   -2.0599    0.6390 O   0  0  0  0  0  0  0  0  0  0  0  0
    1.9367   -0.1080    0.1042 H   0  0  0  0  0  0  0  0  0  0  0  0
    0.6976   -0.9424    1.8395 H   0  0  0  0  0  0  0  0  0  0  0  0
   -0.6453   -1.1251    0.7033 H   0  0  0  0  0  0  0  0  0  0  0  0
    1.2358   -2.4411   -0.7486 H   0  0  0  0  0  0  0  0  0  0  0  0
   -0.4776   -3.8015   -0.2584 H   0  0  0  0  0  0  0  0  0  0  0  0
    0.7373   -5.2335    1.7944 H   0  0  0  0  0  0  0  0  0  0  0  0
   -0.2102   -6.4204   -0.0884 H   0  0  0  0  0  0  0  0  0  0  0  0
    0.8671   -5.6225   -1.2403 H   0  0  0  0  0  0  0  0  0  0  0  0
    2.6302   -6.6755   -0.0827 H   0  0  0  0  0  0  0  0  0  0  0  0
    2.9289   -4.4777   -0.1561 H   0  0  0  0  0  0  0  0  0  0  0  0
    2.8349   -4.8261    2.6673 H   0  0  0  0  0  0  0  0  0  0  0  0
    2.1801   -2.6609    2.1696 H   0  0  0  0  0  0  0  0  0  0  0  0
    3.6310   -2.3565   -0.2608 H   0  0  0  0  0  0  0  0  0  0  0  0
  1  2  1  0  0  0  0
  1 12  1  0  0  0  0
  2 13  1  0  0  0  0
  2 14  1  0  0  0  0
  3  2  1  0  0  0  0
  3  4  1  0  0  0  0
  3 10  1  0  0  0  0
  3 15  1  6  0  0  0
  4  5  1  0  0  0  0
  4 16  1  0  0  0  0
  5  8  1  0  0  0  0
  5 17  1  1  0  0  0
  5  6  1  0  0  0  0
  6  7  1  0  0  0  0
  6 18  1  0  0  0  0
  6 19  1  0  0  0  0
  7 20  1  0  0  0  0
  8  9  1  0  0  0  0
  8 10  1  0  0  0  0
  8 21  1  6  0  0  0
  9 22  1  0  0  0  0
 10 11  1  0  0  0  0
 10 23  1  1  0  0  0
 11 24  1  0  0  0  0
M  END
>  <DRUGBANK_ID>
DB02172

>  <SECONDARY_ACCESSION_NUMBERS>
EXPT01205

>  <COMMON_NAME>
2,5-Dideoxy-2,5-Imino-D-Glucitol

$$$$
