
 OpenBabel10282417133D

 53 54  0  0  1  0  0  0  0  0999 V2000
    1.4174    0.5169    1.4301 C   0  0  0  0  0  0  0  0  0  0  0  0
    2.0571   -0.0027   -0.9591 C   0  0  0  0  0  0  0  0  0  0  0  0
   -4.3992    1.5765    4.4707 C   0  0  0  0  0  0  0  0  0  0  0  0
   -3.2823    0.8451    4.0768 C   0  0  0  0  0  0  0  0  0  0  0  0
   -5.5881    1.4897    3.7484 C   0  0  0  0  0  0  0  0  0  0  0  0
   -3.3528    0.0584    2.9317 C   0  0  0  0  0  0  0  0  0  0  0  0
   -5.6609    0.6782    2.6313 C   0  0  0  0  0  0  0  0  0  0  0  0
   -4.6435   -0.6079    0.7857 C   0  0  0  0  0  0  0  0  0  0  0  0
   -2.3878   -4.3027   -1.3800 C   0  0  0  0  0  0  0  0  0  0  0  0
   -4.5218    0.0442    2.1507 C   0  0  0  0  0  0  0  0  0  0  0  0
   -3.1398   -4.8294   -0.1651 C   0  0  1  0  0  0  0  0  0  0  0  0
   -4.7184    0.3489   -0.4550 C   0  0  0  0  0  0  0  0  0  0  0  0
   -2.5922   -0.5366   -1.3365 C   0  0  1  0  0  0  0  0  0  0  0  0
   -0.0157    1.4071   -0.5452 C   0  0  1  0  0  0  0  0  0  0  0  0
   -1.6812   -0.2218   -0.1214 C   0  0  2  0  0  0  0  0  0  0  0  0
   -4.5317   -4.1701    0.0625 C   0  0  0  0  0  0  0  0  0  0  0  0
    0.4760    2.8174   -0.2357 C   0  0  0  0  0  0  0  0  0  0  0  0
   -3.0009   -2.0040   -1.6268 C   0  0  0  0  0  0  0  0  0  0  0  0
    0.9174    0.3111   -0.0018 C   0  0  0  0  0  0  0  0  0  0  0  0
   -3.3993   -6.3133   -0.2188 N   0  0  0  0  0  0  0  0  0  0  0  0
   -3.7886    0.3493   -1.3541 N   0  0  0  0  0  0  0  0  0  0  0  0
   -1.3484    1.2147    0.0201 N   0  0  0  0  0  0  0  0  0  0  0  0
   -5.7371    1.0803   -0.5415 O   0  5  0  0  0  0  0  0  0  0  0  0
   -5.5220   -4.8079   -0.4278 O   0  0  0  0  0  0  0  0  0  0  0  0
   -4.5001   -3.2714    0.9260 O   0  5  0  0  0  0  0  0  0  0  0  0
    0.9258    3.6241   -1.0437 O   0  0  0  0  0  0  0  0  0  0  0  0
    0.4739    3.1241    1.0829 O   0  0  0  0  0  0  0  0  0  0  0  0
   -3.9873   -2.3467   -2.2780 O   0  0  0  0  0  0  0  0  0  0  0  0
   -2.0468   -2.9071   -1.2461 O   0  0  0  0  0  0  0  0  0  0  0  0
   -0.1231   -1.1590    0.0294 S   0  0  0  0  0  0  0  0  0  0  0  0
   -2.5501   -4.6146    0.7355 H   0  0  0  0  0  0  0  0  0  0  0  0
   -2.0180   -0.2554   -2.2294 H   0  0  0  0  0  0  0  0  0  0  0  0
   -0.1117    1.3389   -1.6379 H   0  0  0  0  0  0  0  0  0  0  0  0
   -2.1624   -0.4858    0.7931 H   0  0  0  0  0  0  0  0  0  0  0  0
    2.0678    1.3945    1.4839 H   0  0  0  0  0  0  0  0  0  0  0  0
    0.5935    0.6592    2.1421 H   0  0  0  0  0  0  0  0  0  0  0  0
    2.0205   -0.3267    1.7822 H   0  0  0  0  0  0  0  0  0  0  0  0
    1.6855   -0.3303   -1.9393 H   0  0  0  0  0  0  0  0  0  0  0  0
    2.6762    0.8824   -1.1173 H   0  0  0  0  0  0  0  0  0  0  0  0
    2.6972   -0.8017   -0.5660 H   0  0  0  0  0  0  0  0  0  0  0  0
   -4.3518    2.2089    5.3464 H   0  0  0  0  0  0  0  0  0  0  0  0
   -2.3531    0.8990    4.6344 H   0  0  0  0  0  0  0  0  0  0  0  0
   -6.4597    2.0757    4.0060 H   0  0  0  0  0  0  0  0  0  0  0  0
   -2.4844   -0.5368    2.6687 H   0  0  0  0  0  0  0  0  0  0  0  0
   -6.5840    0.5618    2.0665 H   0  0  0  0  0  0  0  0  0  0  0  0
   -5.5430   -1.2334    0.7832 H   0  0  0  0  0  0  0  0  0  0  0  0
   -3.7998   -1.2710    0.6811 H   0  0  0  0  0  0  0  0  0  0  0  0
   -2.8926   -4.5049   -2.3309 H   0  0  0  0  0  0  0  0  0  0  0  0
   -1.4269   -4.8350   -1.4256 H   0  0  0  0  0  0  0  0  0  0  0  0
   -4.0583   -6.4287    0.5697 H   0  0  0  0  0  0  0  0  0  0  0  0
   -4.0982   -6.3688   -0.9796 H   0  0  0  0  0  0  0  0  0  0  0  0
   -1.3925    1.4658    1.0062 H   0  0  0  0  0  0  0  0  0  0  0  0
    0.8874    4.0061    1.1412 H   0  0  0  0  0  0  0  0  0  0  0  0
  1 35  1  0  0  0  0
  1 36  1  0  0  0  0
  1 37  1  0  0  0  0
  2 38  1  0  0  0  0
  2 39  1  0  0  0  0
  2 40  1  0  0  0  0
  3 41  1  0  0  0  0
  4  3  2  0  0  0  0
  4 42  1  0  0  0  0
  5  3  1  0  0  0  0
  5 43  1  0  0  0  0
  6  4  1  0  0  0  0
  6 44  1  0  0  0  0
  7  5  2  0  0  0  0
  7 45  1  0  0  0  0
  8 46  1  0  0  0  0
  8 47  1  0  0  0  0
  9 48  1  0  0  0  0
  9 49  1  0  0  0  0
 10  6  2  0  0  0  0
 10  7  1  0  0  0  0
 10  8  1  0  0  0  0
 11  9  1  0  0  0  0
 11 20  1  0  0  0  0
 11 31  1  1  0  0  0
 12  8  1  0  0  0  0
 12 23  1  0  0  0  0
 13 21  1  0  0  0  0
 13 32  1  6  0  0  0
 14 17  1  0  0  0  0
 14 33  1  6  0  0  0
 15 13  1  0  0  0  0
 15 34  1  1  0  0  0
 16 11  1  0  0  0  0
 18 13  1  0  0  0  0
 19  1  1  0  0  0  0
 19  2  1  0  0  0  0
 19 14  1  0  0  0  0
 20 50  1  0  0  0  0
 20 51  1  0  0  0  0
 21 12  2  3  0  0  0
 22 14  1  0  0  0  0
 22 15  1  0  0  0  0
 22 52  1  0  0  0  0
 24 16  2  0  0  0  0
 25 16  1  0  0  0  0
 26 17  2  0  0  0  0
 27 17  1  0  0  0  0
 27 53  1  0  0  0  0
 28 18  2  0  0  0  0
 29  9  1  0  0  0  0
 29 18  1  0  0  0  0
 30 15  1  0  0  0  0
 30 19  1  0  0  0  0
M  CHG  2  23  -1  25  -1
M  END
>  <DRUGBANK_ID>
DB02968

>  <SECONDARY_ACCESSION_NUMBERS>
EXPT02561

>  <COMMON_NAME>
Penicillin G Acyl-Serine

$$$$
