
 OpenBabel10282417153D

 56 58  0  0  0  0  0  0  0  0999 V2000
    1.8424   -1.5019   -0.2059 C   0  0  0  0  0  0  0  0  0  0  0  0
    0.6698   -0.6548   -0.0647 C   0  0  0  0  0  0  0  0  0  0  0  0
    3.1870   -1.1300   -0.2106 C   0  0  0  0  0  0  0  0  0  0  0  0
   -0.7136   -1.0679   -0.0191 C   0  0  0  0  0  0  0  0  0  0  0  0
    0.9060    0.7260   -0.0228 C   0  0  0  0  0  0  0  0  0  0  0  0
   -1.7063   -0.0559    0.0218 C   0  0  0  0  0  0  0  0  0  0  0  0
    4.1925   -2.2911   -0.2435 N   0  0  0  0  0  0  0  0  0  0  0  0
   -0.0410    1.6718    0.0269 N   0  0  0  0  0  0  0  0  0  0  0  0
    2.2026    1.1554   -0.0331 C   0  0  0  0  0  0  0  0  0  0  0  0
    3.3075    0.2783   -0.0449 C   0  0  0  0  0  0  0  0  0  0  0  0
   -1.1039   -2.4504    0.0040 N   0  0  0  0  0  0  0  0  0  0  0  0
   -3.1183   -0.3339    0.0090 C   0  0  0  0  0  0  0  0  0  0  0  0
   -4.2395   -0.5624   -0.0178 N   0  0  0  0  0  0  0  0  0  0  0  0
    5.5695   -2.3167   -0.5530 C   0  0  0  0  0  0  0  0  0  0  0  0
    0.8004   -5.4284   -1.1468 C   0  0  0  0  0  0  0  0  0  0  0  0
   -0.2067   -4.4532   -1.0859 C   0  0  0  0  0  0  0  0  0  0  0  0
   -1.3220    1.2749    0.0355 C   0  0  0  0  0  0  0  0  0  0  0  0
   -0.2954   -3.6084    0.0341 C   0  0  0  0  0  0  0  0  0  0  0  0
    1.7261   -5.5495   -0.1092 C   0  0  0  0  0  0  0  0  0  0  0  0
    6.5403   -3.2721    0.0749 C   0  0  0  0  0  0  0  0  0  0  0  0
    7.7954   -2.7459    0.1777 C   0  0  0  0  0  0  0  0  0  0  0  0
    6.1483   -1.5754   -1.3471 O   0  0  0  0  0  0  0  0  0  0  0  0
    1.6373   -4.7365    1.0141 C   0  0  0  0  0  0  0  0  0  0  0  0
    0.9279   -6.4431   -2.5333 Cl  0  0  0  0  0  0  0  0  0  0  0  0
    0.5995   -3.8039    1.1072 C   0  0  0  0  0  0  0  0  0  0  0  0
    9.8378   -3.2726   -1.0647 N   0  0  0  0  0  0  0  0  0  0  0  0
    2.7450   -6.4182   -0.1888 F   0  0  0  0  0  0  0  0  0  0  0  0
    4.3964    1.0659    0.2924 O   0  0  0  0  0  0  0  0  0  0  0  0
    9.0472   -3.5364    0.1545 C   0  0  0  0  0  0  0  0  0  0  0  0
   10.9467   -4.2265   -1.0696 C   0  0  0  0  0  0  0  0  0  0  0  0
    9.0427   -3.4467   -2.2912 C   0  0  0  0  0  0  0  0  0  0  0  0
    5.5321    0.2667    0.2620 C   0  0  0  0  0  0  0  0  0  0  0  0
    5.5302   -0.6319    1.5634 C   0  0  0  0  0  0  0  0  0  0  0  0
    1.6914   -2.5406   -0.3875 H   0  0  0  0  0  0  0  0  0  0  0  0
    3.7886   -3.1856    0.0205 H   0  0  0  0  0  0  0  0  0  0  0  0
    2.4059    2.2253    0.0130 H   0  0  0  0  0  0  0  0  0  0  0  0
   -2.0924   -2.6481   -0.1374 H   0  0  0  0  0  0  0  0  0  0  0  0
   -0.8512   -4.2990   -1.9493 H   0  0  0  0  0  0  0  0  0  0  0  0
   -2.0394    2.0951    0.0508 H   0  0  0  0  0  0  0  0  0  0  0  0
    6.3472   -4.3322    0.0952 H   0  0  0  0  0  0  0  0  0  0  0  0
    8.0200   -1.6746    0.0720 H   0  0  0  0  0  0  0  0  0  0  0  0
    2.4174   -4.7676    1.7694 H   0  0  0  0  0  0  0  0  0  0  0  0
    0.6094   -3.0850    1.9268 H   0  0  0  0  0  0  0  0  0  0  0  0
    9.6452   -3.2680    1.0353 H   0  0  0  0  0  0  0  0  0  0  0  0
    8.7718   -4.5899    0.2135 H   0  0  0  0  0  0  0  0  0  0  0  0
   10.5697   -5.2558   -1.0527 H   0  0  0  0  0  0  0  0  0  0  0  0
   11.5824   -4.1005   -1.9505 H   0  0  0  0  0  0  0  0  0  0  0  0
   11.5742   -4.0745   -0.1850 H   0  0  0  0  0  0  0  0  0  0  0  0
    8.5749   -4.4365   -2.3253 H   0  0  0  0  0  0  0  0  0  0  0  0
    8.2549   -2.6906   -2.3771 H   0  0  0  0  0  0  0  0  0  0  0  0
    9.6587   -3.3212   -3.1891 H   0  0  0  0  0  0  0  0  0  0  0  0
    5.3853   -0.0284   -0.7787 H   0  0  0  0  0  0  0  0  0  0  0  0
    6.4746    0.8011    0.1498 H   0  0  0  0  0  0  0  0  0  0  0  0
    4.6030   -1.1957    1.7758 H   0  0  0  0  0  0  0  0  0  0  0  0
    6.3131   -1.3844    1.6432 H   0  0  0  0  0  0  0  0  0  0  0  0
    5.6436   -0.0146    2.4482 H   0  0  0  0  0  0  0  0  0  0  0  0
  1 34  1  0  0  0  0
  2  1  1  0  0  0  0
  3  1  2  0  0  0  0
  4  2  1  0  0  0  0
  5  2  2  0  0  0  0
  5  9  1  0  0  0  0
  6  4  2  0  0  0  0
  7  3  1  0  0  0  0
  7 35  1  0  0  0  0
  8  5  1  0  0  0  0
  9 10  2  0  0  0  0
  9 36  1  0  0  0  0
 10  3  1  0  0  0  0
 11  4  1  0  0  0  0
 11 37  1  0  0  0  0
 12  6  1  0  0  0  0
 13 12  3  0  0  0  0
 14  7  1  0  0  0  0
 15 16  1  0  0  0  0
 16 18  2  0  0  0  0
 16 38  1  0  0  0  0
 17  8  2  0  0  0  0
 17  6  1  0  0  0  0
 17 39  1  0  0  0  0
 18 11  1  0  0  0  0
 19 23  1  0  0  0  0
 19 15  2  0  0  0  0
 20 14  1  0  0  0  0
 20 40  1  0  0  0  0
 21 20  2  0  0  0  0
 21 41  1  0  0  0  0
 22 14  2  0  0  0  0
 23 25  2  0  0  0  0
 23 42  1  0  0  0  0
 24 15  1  0  0  0  0
 25 18  1  0  0  0  0
 25 43  1  0  0  0  0
 26 29  1  0  0  0  0
 27 19  1  0  0  0  0
 28 10  1  0  0  0  0
 29 21  1  0  0  0  0
 29 44  1  0  0  0  0
 29 45  1  0  0  0  0
 30 26  1  0  0  0  0
 30 46  1  0  0  0  0
 30 47  1  0  0  0  0
 30 48  1  0  0  0  0
 31 26  1  0  0  0  0
 31 49  1  0  0  0  0
 31 50  1  0  0  0  0
 31 51  1  0  0  0  0
 32 28  1  0  0  0  0
 32 52  1  0  0  0  0
 32 53  1  0  0  0  0
 33 32  1  0  0  0  0
 33 54  1  0  0  0  0
 33 55  1  0  0  0  0
 33 56  1  0  0  0  0
M  END
>  <DRUGBANK_ID>
DB05524

>  <COMMON_NAME>
Pelitinib

>  <CAS_NUMBER>
257933-82-7

>  <UNII>
X5DWL380Z6

>  <SYNONYMS>
(2E)-N-(4-((3-chloro-4-fluorophenyl)amino)-3-cyano-7-ethoxy-6-quinolinyl)-4-(dimethylamino)-2-butenamide; Pelitinib

$$$$
