
 OpenBabel10282417193D

 64 68  0  0  1  0  0  0  0  0999 V2000
    2.5046   -0.2891    0.1807 C   0  0  0  0  0  0  0  0  0  0  0  0
    1.0990   -0.0312   -0.3530 C   0  0  1  0  0  0  0  0  0  0  0  0
    0.1883   -1.2006    0.1348 C   0  0  0  0  0  0  0  0  0  0  0  0
   -1.1884   -1.0213   -0.2386 O   0  0  0  0  0  0  0  0  0  0  0  0
   -1.6986    0.1894    0.3375 C   0  0  0  0  0  0  0  0  0  0  0  0
   -0.9058    1.4174   -0.1644 C   0  0  0  0  0  0  0  0  0  0  0  0
    0.5271    1.2333    0.1481 N   0  0  0  0  0  0  0  0  0  0  0  0
    1.3129    2.3318    0.5150 C   0  0  0  0  0  0  0  0  0  0  0  0
    1.1130    2.8922    1.7788 C   0  0  0  0  0  0  0  0  0  0  0  0
    0.1884    2.3731    2.6950 C   0  0  0  0  0  0  0  0  0  0  0  0
    0.1654    2.8294    3.9826 C   0  0  0  0  0  0  0  0  0  0  0  0
    0.8603    3.9877    4.2595 C   0  0  0  0  0  0  0  0  0  0  0  0
    1.7515    4.5244    3.3846 N   0  0  0  0  0  0  0  0  0  0  0  0
    1.9524    3.9252    2.1854 C   0  0  0  0  0  0  0  0  0  0  0  0
    2.9682    4.3102    1.4134 N   0  0  0  0  0  0  0  0  0  0  0  0
    3.1504    3.7252    0.2187 C   0  0  0  0  0  0  0  0  0  0  0  0
    2.3411    2.7495   -0.2521 N   0  0  0  0  0  0  0  0  0  0  0  0
    4.1181    4.2875   -0.5880 N   0  0  0  0  0  0  0  0  0  0  0  0
    5.5391    4.1447   -0.2432 C   0  0  0  0  0  0  0  0  0  0  0  0
    6.2979    5.4293   -0.6369 C   0  0  0  0  0  0  0  0  0  0  0  0
    6.1122    5.7340   -2.0306 O   0  0  0  0  0  0  0  0  0  0  0  0
    4.7162    5.9451   -2.2959 C   0  0  0  0  0  0  0  0  0  0  0  0
    3.8589    4.6832   -1.9808 C   0  0  2  0  0  0  0  0  0  0  0  0
    2.3970    5.0478   -2.2182 C   0  0  0  0  0  0  0  0  0  0  0  0
    0.5807    4.6396    5.5452 C   0  0  0  0  0  0  0  0  0  0  0  0
   -0.1307    5.8287    5.6629 C   0  0  0  0  0  0  0  0  0  0  0  0
   -0.6928    6.1713    6.9010 C   0  0  0  0  0  0  0  0  0  0  0  0
   -0.2661    5.5372    8.0755 C   0  0  0  0  0  0  0  0  0  0  0  0
    0.5775    4.4338    7.9918 C   0  0  0  0  0  0  0  0  0  0  0  0
    0.7782    3.9124    6.7224 C   0  0  0  0  0  0  0  0  0  0  0  0
    1.1830    3.8416    9.2274 C   0  0  0  0  0  0  0  0  0  0  0  0
    0.8813    4.2935   10.3203 O   0  0  0  0  0  0  0  0  0  0  0  0
    2.1266    2.8302    9.1759 N   0  0  0  0  0  0  0  0  0  0  0  0
    2.7722    2.1400    8.0788 C   0  0  0  0  0  0  0  0  0  0  0  0
    3.2205    0.4395   -0.2061 H   0  0  0  0  0  0  0  0  0  0  0  0
    2.5198   -0.2310    1.2755 H   0  0  0  0  0  0  0  0  0  0  0  0
    2.8634   -1.2789   -0.1148 H   0  0  0  0  0  0  0  0  0  0  0  0
    1.0951   -0.0184   -1.4497 H   0  0  0  0  0  0  0  0  0  0  0  0
    0.5204   -2.1505   -0.2974 H   0  0  0  0  0  0  0  0  0  0  0  0
    0.2372   -1.3080    1.2277 H   0  0  0  0  0  0  0  0  0  0  0  0
   -2.7551    0.2749    0.0650 H   0  0  0  0  0  0  0  0  0  0  0  0
   -1.6582    0.0939    1.4296 H   0  0  0  0  0  0  0  0  0  0  0  0
   -1.0314    1.4990   -1.2503 H   0  0  0  0  0  0  0  0  0  0  0  0
   -1.3228    2.3230    0.2897 H   0  0  0  0  0  0  0  0  0  0  0  0
   -0.4947    1.5786    2.4384 H   0  0  0  0  0  0  0  0  0  0  0  0
   -0.4240    2.3110    4.7305 H   0  0  0  0  0  0  0  0  0  0  0  0
    5.9663    3.3110   -0.8187 H   0  0  0  0  0  0  0  0  0  0  0  0
    5.7016    3.9396    0.8196 H   0  0  0  0  0  0  0  0  0  0  0  0
    7.3743    5.3094   -0.4733 H   0  0  0  0  0  0  0  0  0  0  0  0
    5.9642    6.2851   -0.0378 H   0  0  0  0  0  0  0  0  0  0  0  0
    4.6215    6.2184   -3.3526 H   0  0  0  0  0  0  0  0  0  0  0  0
    4.3800    6.8090   -1.7065 H   0  0  0  0  0  0  0  0  0  0  0  0
    4.1705    3.8741   -2.6544 H   0  0  0  0  0  0  0  0  0  0  0  0
    2.2431    5.4345   -3.2285 H   0  0  0  0  0  0  0  0  0  0  0  0
    1.7432    4.1800   -2.1082 H   0  0  0  0  0  0  0  0  0  0  0  0
    2.0720    5.8099   -1.5004 H   0  0  0  0  0  0  0  0  0  0  0  0
   -0.3488    6.4267    4.7820 H   0  0  0  0  0  0  0  0  0  0  0  0
   -1.4749    6.9247    6.9491 H   0  0  0  0  0  0  0  0  0  0  0  0
   -0.6162    5.8917    9.0431 H   0  0  0  0  0  0  0  0  0  0  0  0
    1.0130    2.8662    6.6031 H   0  0  0  0  0  0  0  0  0  0  0  0
    2.4343    2.5650   10.1055 H   0  0  0  0  0  0  0  0  0  0  0  0
    3.8455    2.0952    8.2520 H   0  0  0  0  0  0  0  0  0  0  0  0
    2.3415    1.1366    8.0077 H   0  0  0  0  0  0  0  0  0  0  0  0
    2.6936    2.6518    7.1301 H   0  0  0  0  0  0  0  0  0  0  0  0
  1 35  1  0  0  0  0
  1 36  1  0  0  0  0
  1 37  1  0  0  0  0
  2  1  1  0  0  0  0
  2  3  1  0  0  0  0
  2  7  1  0  0  0  0
  2 38  1  6  0  0  0
  3  4  1  0  0  0  0
  3 39  1  0  0  0  0
  3 40  1  0  0  0  0
  4  5  1  0  0  0  0
  5  6  1  0  0  0  0
  5 41  1  0  0  0  0
  5 42  1  0  0  0  0
  6  7  1  0  0  0  0
  6 43  1  0  0  0  0
  6 44  1  0  0  0  0
  7  8  1  0  0  0  0
  8  9  1  0  0  0  0
  8 17  2  0  0  0  0
  9 10  2  0  0  0  0
  9 14  1  0  0  0  0
 10 11  1  0  0  0  0
 10 45  1  0  0  0  0
 11 12  2  0  0  0  0
 11 46  1  0  0  0  0
 12 13  1  0  0  0  0
 12 25  1  0  0  0  0
 13 14  2  0  0  0  0
 14 15  1  0  0  0  0
 15 16  2  0  0  0  0
 16 17  1  0  0  0  0
 16 18  1  0  0  0  0
 18 19  1  0  0  0  0
 18 23  1  0  0  0  0
 19 20  1  0  0  0  0
 19 47  1  0  0  0  0
 19 48  1  0  0  0  0
 20 21  1  0  0  0  0
 20 49  1  0  0  0  0
 20 50  1  0  0  0  0
 21 22  1  0  0  0  0
 22 23  1  0  0  0  0
 22 51  1  0  0  0  0
 22 52  1  0  0  0  0
 23 24  1  0  0  0  0
 23 53  1  6  0  0  0
 24 54  1  0  0  0  0
 24 55  1  0  0  0  0
 24 56  1  0  0  0  0
 25 26  2  0  0  0  0
 25 30  1  0  0  0  0
 26 27  1  0  0  0  0
 26 57  1  0  0  0  0
 27 28  2  0  0  0  0
 27 58  1  0  0  0  0
 28 29  1  0  0  0  0
 28 59  1  0  0  0  0
 29 30  2  0  0  0  0
 29 31  1  0  0  0  0
 30 60  1  0  0  0  0
 31 32  2  0  0  0  0
 31 33  1  0  0  0  0
 33 34  1  0  0  0  0
 33 61  1  0  0  0  0
 34 62  1  0  0  0  0
 34 63  1  0  0  0  0
 34 64  1  0  0  0  0
M  END
>  <DRUGBANK_ID>
DB11925

>  <COMMON_NAME>
Vistusertib

>  <CAS_NUMBER>
1009298-59-2

>  <UNII>
0BSC3P4H5X

>  <SYNONYMS>
Vistusertib

$$$$
