1262
 OpenBabel10282417113D

 28 29  0  0  1  0  0  0  0  0999 V2000
    1.3132    0.5430   -0.3187 O   0  0  0  0  0  0  0  0  0  0  0  0
   -1.7442    0.0523   -0.6267 O   0  0  0  0  0  0  0  0  0  0  0  0
    0.0016    2.9382    2.0122 O   0  0  0  0  0  0  0  0  0  0  0  0
    2.1031   -0.6642    2.1940 O   0  0  0  0  0  0  0  0  0  0  0  0
    2.4131   -1.5053    0.1027 N   0  0  0  0  0  0  0  0  0  0  0  0
    3.9661   -1.8211    1.8363 N   0  0  0  0  0  0  0  0  0  0  0  0
    4.3703   -2.7256   -0.2669 N   0  0  0  0  0  0  0  0  0  0  0  0
    5.8589   -2.9799    1.5179 N   0  0  0  0  0  0  0  0  0  0  0  0
   -0.8612    0.0221    0.4979 C   0  0  1  0  0  0  0  0  0  0  0  0
   -0.0718   -1.2651    0.4452 C   0  0  0  0  0  0  0  0  0  0  0  0
    0.1936    1.1221    0.3972 C   0  0  1  0  0  0  0  0  0  0  0  0
    1.1744   -0.8935   -0.3640 C   0  0  1  0  0  0  0  0  0  0  0  0
    0.6119    1.6651    1.7792 C   0  0  0  0  0  0  0  0  0  0  0  0
    2.7986   -1.2992    1.4023 C   0  0  0  0  0  0  0  0  0  0  0  0
    3.2557   -2.2275   -0.6812 C   0  0  0  0  0  0  0  0  0  0  0  0
    4.7046   -2.4925    1.0270 C   0  0  0  0  0  0  0  0  0  0  0  0
   -1.2142    0.0970   -1.4398 H   0  0  0  0  0  0  0  0  0  0  0  0
    0.3834    3.5581    1.3667 H   0  0  0  0  0  0  0  0  0  0  0  0
    6.5106   -3.4738    0.9329 H   0  0  0  0  0  0  0  0  0  0  0  0
    6.0970   -2.7537    2.4741 H   0  0  0  0  0  0  0  0  0  0  0  0
   -1.4821    0.1032    1.3956 H   0  0  0  0  0  0  0  0  0  0  0  0
    0.1674   -1.5879    1.4610 H   0  0  0  0  0  0  0  0  0  0  0  0
   -0.6159   -2.0960   -0.0147 H   0  0  0  0  0  0  0  0  0  0  0  0
   -0.1701    1.9536   -0.2169 H   0  0  0  0  0  0  0  0  0  0  0  0
    1.0108   -1.1442   -1.4220 H   0  0  0  0  0  0  0  0  0  0  0  0
    0.2732    1.0126    2.5910 H   0  0  0  0  0  0  0  0  0  0  0  0
    1.6949    1.7938    1.8717 H   0  0  0  0  0  0  0  0  0  0  0  0
    2.9394   -2.3916   -1.7248 H   0  0  0  0  0  0  0  0  0  0  0  0
  1 11  1  0  0  0  0
  1 12  1  0  0  0  0
  2 17  1  0  0  0  0
  3 13  1  0  0  0  0
  3 18  1  0  0  0  0
  4 14  2  0  0  0  0
  5 14  1  0  0  0  0
  5 15  1  0  0  0  0
  6 14  1  0  0  0  0
  6 16  2  0  0  0  0
  7 15  2  0  0  0  0
  7 16  1  0  0  0  0
  8 16  1  0  0  0  0
  8 19  1  0  0  0  0
  8 20  1  0  0  0  0
  9  2  1  0  0  0  0
  9 10  1  0  0  0  0
  9 11  1  0  0  0  0
  9 21  1  1  0  0  0
 10 12  1  0  0  0  0
 10 22  1  0  0  0  0
 10 23  1  0  0  0  0
 11 24  1  6  0  0  0
 11 13  1  0  0  0  0
 12 25  1  6  0  0  0
 12  5  1  0  0  0  0
 13 26  1  0  0  0  0
 13 27  1  0  0  0  0
 15 28  1  0  0  0  0
M  END
>  <DRUGBANK_ID>
DB01262

>  <COMMON_NAME>
Decitabine

>  <CAS_NUMBER>
2353-33-5

>  <UNII>
776B62CQ27

>  <SYNONYMS>
4-amino-1-(2-deoxy-Î²-D-erythro-pentofuranosyl)-s-triazin-2(1H)-one; 5-aza-2'-deoxycytidine; 5-azadeoxycytidine; DAC; Decitabina; Decitabine

$$$$
