
 OpenBabel10282417143D

 50 52  0  0  1  0  0  0  0  0999 V2000
    1.1945   -1.7719   -0.4160 O   0  0  0  0  0  0  0  0  0  0  0  0
    6.9895    0.0680    4.5187 O   0  0  0  0  0  0  0  0  0  0  0  0
    7.0765    2.9685    4.3215 O   0  0  0  0  0  0  0  0  0  0  0  0
    1.5065    0.9027    1.9156 N   0  0  3  0  0  0  0  0  0  0  0  0
    2.6194   -0.0169    2.2944 C   0  0  3  0  0  0  0  0  0  0  0  0
    2.0937    0.3820   -0.6200 C   0  0  3  0  0  0  0  0  0  0  0  0
    0.9126    0.3828    0.6975 C   0  0  0  0  0  0  0  0  0  0  0  0
    2.9729   -1.0859    1.1805 C   0  0  0  0  0  0  0  0  0  0  0  0
    1.8335    2.2477    1.4772 C   0  0  0  0  0  0  0  0  0  0  0  0
    3.8043    0.7651    2.8728 C   0  0  0  0  0  0  0  0  0  0  0  0
    2.0356   -0.9754   -0.0471 C   0  0  0  0  0  0  0  0  0  0  0  0
    3.3749   -0.2832   -1.5638 C   0  0  0  0  0  0  0  0  0  0  0  0
    2.6878    3.0319    2.3872 C   0  0  0  0  0  0  0  0  0  0  0  0
    3.8199    2.1761    2.8553 C   0  0  0  0  0  0  0  0  0  0  0  0
    2.9067   -1.4476   -2.5259 C   0  0  0  0  0  0  0  0  0  0  0  0
    4.9000    0.1154    3.4678 C   0  0  0  0  0  0  0  0  0  0  0  0
    4.9137    2.8919    3.3143 C   0  0  0  0  0  0  0  0  0  0  0  0
    1.9369   -0.8718   -3.5418 C   0  0  0  0  0  0  0  0  0  0  0  0
    3.9121   -2.3753   -3.2038 C   0  0  0  0  0  0  0  0  0  0  0  0
    5.9992    0.8498    3.9673 C   0  0  0  0  0  0  0  0  0  0  0  0
    6.0067    2.2536    3.8666 C   0  0  0  0  0  0  0  0  0  0  0  0
    8.1277    0.7536    5.0353 C   0  0  0  0  0  0  0  0  0  0  0  0
    7.0448    4.3816    4.2005 C   0  0  0  0  0  0  0  0  0  0  0  0
    2.2591   -0.6426    3.1297 H   0  0  0  0  0  0  0  0  0  0  0  0
    1.4936    0.8744   -1.3778 H   0  0  0  0  0  0  0  0  0  0  0  0
    0.4261   -0.5485    1.0815 H   0  0  0  0  0  0  0  0  0  0  0  0
    0.0102    0.9488    0.4252 H   0  0  0  0  0  0  0  0  0  0  0  0
    2.8631   -2.1254    1.4881 H   0  0  0  0  0  0  0  0  0  0  0  0
    4.0028   -0.9163    0.8700 H   0  0  0  0  0  0  0  0  0  0  0  0
    2.3991    2.2273    0.5448 H   0  0  0  0  0  0  0  0  0  0  0  0
    0.9049    2.7947    1.2648 H   0  0  0  0  0  0  0  0  0  0  0  0
    3.8352    0.5015   -2.1927 H   0  0  0  0  0  0  0  0  0  0  0  0
    4.2532   -0.6239   -0.9917 H   0  0  0  0  0  0  0  0  0  0  0  0
    3.0762    3.8547    1.7700 H   0  0  0  0  0  0  0  0  0  0  0  0
    2.1168    3.4533    3.2177 H   0  0  0  0  0  0  0  0  0  0  0  0
    2.3953   -2.2033   -1.9413 H   0  0  0  0  0  0  0  0  0  0  0  0
    4.9067   -0.9704    3.5636 H   0  0  0  0  0  0  0  0  0  0  0  0
    4.8641    3.9709    3.2194 H   0  0  0  0  0  0  0  0  0  0  0  0
    2.4841   -0.3462   -4.3280 H   0  0  0  0  0  0  0  0  0  0  0  0
    1.3331   -1.6654   -3.9850 H   0  0  0  0  0  0  0  0  0  0  0  0
    1.2439   -0.1627   -3.0861 H   0  0  0  0  0  0  0  0  0  0  0  0
    4.5984   -2.8358   -2.4855 H   0  0  0  0  0  0  0  0  0  0  0  0
    3.3441   -3.2111   -3.6497 H   0  0  0  0  0  0  0  0  0  0  0  0
    4.4680   -1.8978   -4.0085 H   0  0  0  0  0  0  0  0  0  0  0  0
    8.6568    1.2872    4.2364 H   0  0  0  0  0  0  0  0  0  0  0  0
    7.8455    1.4172    5.8621 H   0  0  0  0  0  0  0  0  0  0  0  0
    8.8294    0.0238    5.4430 H   0  0  0  0  0  0  0  0  0  0  0  0
    7.0008    4.6822    3.1481 H   0  0  0  0  0  0  0  0  0  0  0  0
    6.2151    4.8077    4.7750 H   0  0  0  0  0  0  0  0  0  0  0  0
    7.9762    4.7631    4.6220 H   0  0  0  0  0  0  0  0  0  0  0  0
  1 11  2  0  0  0  0
  2 20  1  0  0  0  0
  2 22  1  0  0  0  0
  3 21  1  0  0  0  0
  3 23  1  0  0  0  0
  4  5  1  0  0  0  0
  4  7  1  0  0  0  0
  4  9  1  0  0  0  0
  5  8  1  0  0  0  0
  5 10  1  0  0  0  0
  5 24  1  0  0  0  0
  6  7  1  0  0  0  0
  6 11  1  0  0  0  0
  6 12  1  0  0  0  0
  6 25  1  0  0  0  0
  7 26  1  0  0  0  0
  7 27  1  0  0  0  0
  8 11  1  0  0  0  0
  8 28  1  0  0  0  0
  8 29  1  0  0  0  0
  9 13  1  0  0  0  0
  9 30  1  0  0  0  0
  9 31  1  0  0  0  0
 10 14  1  0  0  0  0
 10 16  2  0  0  0  0
 12 15  1  0  0  0  0
 12 32  1  0  0  0  0
 12 33  1  0  0  0  0
 13 14  1  0  0  0  0
 13 34  1  0  0  0  0
 13 35  1  0  0  0  0
 14 17  2  0  0  0  0
 15 18  1  0  0  0  0
 15 19  1  0  0  0  0
 15 36  1  0  0  0  0
 16 20  1  0  0  0  0
 16 37  1  0  0  0  0
 17 21  1  0  0  0  0
 17 38  1  0  0  0  0
 18 39  1  0  0  0  0
 18 40  1  0  0  0  0
 18 41  1  0  0  0  0
 19 42  1  0  0  0  0
 19 43  1  0  0  0  0
 19 44  1  0  0  0  0
 20 21  2  0  0  0  0
 22 45  1  0  0  0  0
 22 46  1  0  0  0  0
 22 47  1  0  0  0  0
 23 48  1  0  0  0  0
 23 49  1  0  0  0  0
 23 50  1  0  0  0  0
M  END
>  <DRUGBANK_ID>
DB04844

>  <COMMON_NAME>
Tetrabenazine

>  <CAS_NUMBER>
58-46-8

>  <UNII>
Z9O08YRN8O

>  <SYNONYMS>
1,2,4,6,7,11b-hexahydro-3-isobutyl-9,10-dimethoxy-2H-benzo[a]quinolizin-2-one; 2-oxo-3-isobutyl-9,10-dimethoxy-1,2,3,4,6,7-hexahydro-11bH-benzo[a]quinolizine; 2-oxo-3-isobutyl-9,10-dimethoxy-1,3,4,6,7,11b-hexahydro-2H-benzoquinolizine; Tetrabenazina; Tetrabenazine; Tetrabenazinum

$$$$
