
 OpenBabel10282417233D

 45 52  0  0  0  0  0  0  0  0999 V2000
    1.1412   -0.3534   -0.4009 O   0  0  0  0  0  0  0  0  0  0  0  0
    2.3055   -0.3017   -0.7426 C   0  0  0  0  0  0  0  0  0  0  0  0
    3.1693   -1.3700   -0.6259 N   0  0  0  0  0  0  0  0  0  0  0  0
    4.4081   -0.9946   -0.2532 C   0  0  0  0  0  0  0  0  0  0  0  0
    5.0771   -1.6861    0.5559 O   0  0  0  0  0  0  0  0  0  0  0  0
    4.5300    0.3066   -0.7965 C   0  0  0  0  0  0  0  0  0  0  0  0
    3.2025    0.7553   -1.1320 C   0  0  0  0  0  0  0  0  0  0  0  0
    3.0553    2.2067   -1.2144 C   0  0  0  0  0  0  0  0  0  0  0  0
    3.4200    2.7209    0.0487 C   0  0  0  0  0  0  0  0  0  0  0  0
    2.2725    2.5826    0.9730 N   0  0  0  0  0  0  0  0  0  0  0  0
    2.3943    1.7990    2.1948 C   0  0  3  0  0  0  0  0  0  0  0  0
    2.8858    2.7443    3.2523 C   0  0  0  0  0  0  0  0  0  0  0  0
    4.3443    2.5217    3.1638 C   0  0  0  0  0  0  0  0  0  0  0  0
    4.7638    1.3917    2.3333 C   0  0  3  0  0  0  0  0  0  0  0  0
    3.4604    0.8593    1.8790 O   0  0  0  0  0  0  0  0  0  0  0  0
    5.6089    2.3958    1.3933 N   0  0  0  0  0  0  0  0  0  0  0  0
    7.0250    2.2026    0.9629 C   0  0  0  0  0  0  0  0  0  0  0  0
    6.7145    1.0334    0.2314 C   0  0  0  0  0  0  0  0  0  0  0  0
    7.4748   -0.0752    0.7235 C   0  0  0  0  0  0  0  0  0  0  0  0
    8.7190    0.0104    1.3860 C   0  0  0  0  0  0  0  0  0  0  0  0
    9.2642    1.2424    1.6321 C   0  0  0  0  0  0  0  0  0  0  0  0
    8.3925    2.3558    1.5380 C   0  0  0  0  0  0  0  0  0  0  0  0
    5.4556    1.3583   -0.5563 C   0  0  0  0  0  0  0  0  0  0  0  0
    4.9412    2.4738    0.1956 C   0  0  0  0  0  0  0  0  0  0  0  0
    1.1051    2.7357    0.1113 C   0  0  0  0  0  0  0  0  0  0  0  0
    1.7055    2.7628   -1.1828 C   0  0  0  0  0  0  0  0  0  0  0  0
    1.2289    3.8195   -1.9896 C   0  0  0  0  0  0  0  0  0  0  0  0
    0.0169    4.4690   -1.7822 C   0  0  0  0  0  0  0  0  0  0  0  0
   -0.8156    4.0212   -0.7727 C   0  0  0  0  0  0  0  0  0  0  0  0
   -0.3111    3.1089    0.2056 C   0  0  0  0  0  0  0  0  0  0  0  0
    2.8231   -2.2440   -0.2786 H   0  0  0  0  0  0  0  0  0  0  0  0
    1.4637    1.2820    2.4925 H   0  0  0  0  0  0  0  0  0  0  0  0
    2.6599    3.7807    2.9215 H   0  0  0  0  0  0  0  0  0  0  0  0
    2.5548    2.6702    4.2774 H   0  0  0  0  0  0  0  0  0  0  0  0
    4.3770    3.3551    2.4628 H   0  0  0  0  0  0  0  0  0  0  0  0
    5.0957    2.7924    3.8767 H   0  0  0  0  0  0  0  0  0  0  0  0
    5.4075    0.5210    2.5349 H   0  0  0  0  0  0  0  0  0  0  0  0
    7.0526   -1.0628    0.7268 H   0  0  0  0  0  0  0  0  0  0  0  0
    9.2469   -0.9042    1.6562 H   0  0  0  0  0  0  0  0  0  0  0  0
   10.3213    1.2978    1.9288 H   0  0  0  0  0  0  0  0  0  0  0  0
    8.9107    3.3259    1.6315 H   0  0  0  0  0  0  0  0  0  0  0  0
    1.9323    4.1876   -2.7222 H   0  0  0  0  0  0  0  0  0  0  0  0
   -0.2460    5.2946   -2.4378 H   0  0  0  0  0  0  0  0  0  0  0  0
   -1.8289    4.4424   -0.7372 H   0  0  0  0  0  0  0  0  0  0  0  0
   -1.0319    2.7744    0.9619 H   0  0  0  0  0  0  0  0  0  0  0  0
  1  2  2  0  0  0  0
  2  3  1  0  0  0  0
  2  7  1  0  0  0  0
  3  4  1  0  0  0  0
  3 31  1  0  0  0  0
  4  5  2  0  0  0  0
  4  6  1  0  0  0  0
  6  7  2  0  0  0  0
  6 23  1  0  0  0  0
  7  8  1  0  0  0  0
  8  9  2  0  0  0  0
  8 26  1  0  0  0  0
  9 10  1  0  0  0  0
  9 24  1  0  0  0  0
 10 11  1  0  0  0  0
 10 25  1  0  0  0  0
 11 12  1  0  0  0  0
 11 15  1  0  0  0  0
 11 32  1  0  0  0  0
 12 13  1  0  0  0  0
 12 33  1  0  0  0  0
 12 34  1  0  0  0  0
 13 14  1  0  0  0  0
 13 35  1  0  0  0  0
 13 36  1  0  0  0  0
 14 15  1  0  0  0  0
 14 16  1  0  0  0  0
 14 37  1  0  0  0  0
 16 17  1  0  0  0  0
 16 24  1  0  0  0  0
 17 18  2  0  0  0  0
 17 22  1  0  0  0  0
 18 19  1  0  0  0  0
 18 23  1  0  0  0  0
 19 20  2  0  0  0  0
 19 38  1  0  0  0  0
 20 21  1  0  0  0  0
 20 39  1  0  0  0  0
 21 22  2  0  0  0  0
 21 40  1  0  0  0  0
 22 41  1  0  0  0  0
 23 24  2  0  0  0  0
 25 26  2  0  0  0  0
 25 30  1  0  0  0  0
 26 27  1  0  0  0  0
 27 28  2  0  0  0  0
 27 42  1  0  0  0  0
 28 29  1  0  0  0  0
 28 43  1  0  0  0  0
 29 30  2  0  0  0  0
 29 44  1  0  0  0  0
 30 45  1  0  0  0  0
M  END
>  <DRUGBANK_ID>
DB17051

>  <COMMON_NAME>
SB-218078

>  <CAS_NUMBER>
135897-06-2

>  <UNII>
S6U3J3UP11

>  <SYNONYMS>
9,10,11,12-tetrahydro-9,12-epoxy-1h-diindolo(1,2,3-fg:3',2',1'-kl)pyrrolo(3,4-i)(1,6)benzodiazocine-1,3(2h)-dione; 9,12-epoxy-1h-diindolo(1,2,3-fg:3',2',1'-kl)pyrrolo(3,4-i)(1,6)benzodiazocine-1,3(2h)-dione, 9,10,11,12-tetrahydro-

$$$$
