
 OpenBabel10282417133D

 19 18  0  0  1  0  0  0  0  0999 V2000
    0.9365   -0.0442   -0.0633 N   0  0  0  0  0  0  0  0  0  0  0  0
    0.4465    1.2835   -0.4607 C   0  0  1  0  0  0  0  0  0  0  0  0
    0.9532    1.6141   -1.8551 C   0  0  0  0  0  0  0  0  0  0  0  0
    0.4798    0.6404   -2.7740 O   0  0  0  0  0  0  0  0  0  0  0  0
    1.2098   -1.3377   -2.1819 V   0  0  0  0  0  0  0  0  0  0  0  0
    1.9030   -0.5114   -0.2759 O   0  0  0  0  0  0  0  0  0  0  0  0
   -0.8211   -2.1388   -2.3542 O   0  5  0  0  0  0  0  0  0  0  0  0
    2.5476   -1.3629   -3.9157 O   0  5  0  0  0  0  0  0  0  0  0  0
    1.9398   -3.3157   -1.5899 O   0  5  0  0  0  0  0  0  0  0  0  0
   -1.0735    1.2835   -0.4607 C   0  0  0  0  0  0  0  0  0  0  0  0
   -1.7835    2.1779    0.3832 O   0  0  0  0  0  0  0  0  0  0  0  0
   -1.7090    0.4830   -1.2161 O   0  0  0  0  0  0  0  0  0  0  0  0
    0.5965   -0.7437   -0.7233 H   0  0  0  0  0  0  0  0  0  0  0  0
    1.9565   -0.0442   -0.0633 H   0  0  0  0  0  0  0  0  0  0  0  0
    0.8032    2.0172    0.2316 H   0  0  0  0  0  0  0  0  0  0  0  0
    0.5965    2.5805   -2.1444 H   0  0  0  0  0  0  0  0  0  0  0  0
    2.0232    1.6141   -1.8551 H   0  0  0  0  0  0  0  0  0  0  0  0
    2.8458   -0.1928   -0.3739 H   0  0  0  0  0  0  0  0  0  0  0  0
   -1.2835    2.8078    0.9776 H   0  0  0  0  0  0  0  0  0  0  0  0
  1 13  1  0  0  0  0
  1 14  1  0  0  0  0
  2  1  1  0  0  0  0
  2  3  1  0  0  0  0
  2 10  1  0  0  0  0
  2 15  1  1  0  0  0
  3  4  1  0  0  0  0
  3 16  1  0  0  0  0
  3 17  1  0  0  0  0
  4  5  1  0  0  0  0
  5  6  1  0  0  0  0
  5  7  1  0  0  0  0
  5  8  1  0  0  0  0
  5  9  1  0  0  0  0
  6 18  1  0  0  0  0
 10 11  1  0  0  0  0
 10 12  2  0  0  0  0
 11 19  1  0  0  0  0
M  CHG  3   7  -1   8  -1   9  -1
M  END
>  <DRUGBANK_ID>
DB04031

>  <SECONDARY_ACCESSION_NUMBERS>
EXPT02982

>  <COMMON_NAME>
Serine vanadate

$$$$
