
 OpenBabel10282417143D

 74 76  0  0  0  0  0  0  0  0999 V2000
    7.4623    0.9986    3.1169 C   0  0  1  0  0  0  0  0  0  0  0  0
    6.4215    1.9444    3.0556 O   0  0  0  0  0  0  0  0  0  0  0  0
    9.0158    1.6712    3.3222 C   0  0  1  0  0  0  0  0  0  0  0  0
    7.7605    0.5751    5.2781 C   0  0  2  0  0  0  0  0  0  0  0  0
    7.8454    3.0159    6.7998 C   0  0  1  0  0  0  0  0  0  0  0  0
    6.5861    3.1782    2.3326 C   0  0  1  0  0  0  0  0  0  0  0  0
    9.1860    2.8299    2.3761 C   0  0  2  0  0  0  0  0  0  0  0  0
    7.1516    2.1416    5.6794 C   0  0  1  0  0  0  0  0  0  0  0  0
    8.0250    3.8584    2.4522 C   0  0  2  0  0  0  0  0  0  0  0  0
    5.2366    3.0309    9.3756 C   0  0  1  0  0  0  0  0  0  0  0  0
    5.5441    3.2504    7.8783 C   0  0  1  0  0  0  0  0  0  0  0  0
    7.0792    0.0626    4.1545 O   0  0  0  0  0  0  0  0  0  0  0  0
    6.3104    2.0866    9.9986 C   0  0  2  0  0  0  0  0  0  0  0  0
    6.8485    3.8007    7.5708 O   0  0  0  0  0  0  0  0  0  0  0  0
    6.5151    0.7080    9.2700 C   0  0  2  0  0  0  0  0  0  0  0  0
    8.1561   -0.3229    6.4407 C   0  0  2  0  0  0  0  0  0  0  0  0
    8.8050    2.2064    7.7272 C   0  0  1  0  0  0  0  0  0  0  0  0
    5.2249    1.9536    7.4216 O   0  0  0  0  0  0  0  0  0  0  0  0
    9.1566    0.6372    7.2823 C   0  0  0  0  0  0  0  0  0  0  0  0
    6.1208    0.9539    7.8231 C   0  0  0  0  0  0  0  0  0  0  0  0
    9.5805    2.1928    4.6268 N   0  0  0  0  0  0  0  0  0  0  0  0
    5.9648    2.8814    0.9625 C   0  0  2  0  0  0  0  0  0  0  0  0
    6.2136    1.7373   11.4153 N   0  0  0  0  0  0  0  0  0  0  0  0
    5.1326    4.2775   10.0500 O   0  0  0  0  0  0  0  0  0  0  0  0
    9.3392    2.2209    1.1273 O   0  0  0  0  0  0  0  0  0  0  0  0
    8.2682    4.5784    3.7112 O   0  0  0  0  0  0  0  0  0  0  0  0
    6.7948    3.2233    4.8802 O   0  0  0  0  0  0  0  0  0  0  0  0
    8.7645   -1.6639    6.1952 N   0  0  0  0  0  0  0  0  0  0  0  0
    9.5902    2.9500    8.7578 N   0  0  0  0  0  0  0  0  0  0  0  0
    5.5092   -0.2795    9.5124 O   0  0  0  0  0  0  0  0  0  0  0  0
    4.9883    1.8281    1.0884 O   0  0  0  0  0  0  0  0  0  0  0  0
    7.9372    0.0268    9.8313 C   0  0  0  0  0  0  0  0  0  0  0  0
    7.2783    2.4156   12.1369 C   0  0  0  0  0  0  0  0  0  0  0  0
    6.9390    2.4448   -0.0940 C   0  0  0  0  0  0  0  0  0  0  0  0
    7.4088    0.4109    2.1955 H   0  0  0  0  0  0  0  0  0  0  0  0
    4.8230    3.9519    7.4334 H   0  0  0  0  0  0  0  0  0  0  0  0
    5.8664    3.8608    2.8212 H   0  0  0  0  0  0  0  0  0  0  0  0
    9.6612    0.8101    3.0884 H   0  0  0  0  0  0  0  0  0  0  0  0
    8.7536    0.4294    4.9081 H   0  0  0  0  0  0  0  0  0  0  0  0
    8.4550    3.8303    6.3613 H   0  0  0  0  0  0  0  0  0  0  0  0
   10.1381    3.3212    2.6206 H   0  0  0  0  0  0  0  0  0  0  0  0
    6.1061    1.8495    5.6991 H   0  0  0  0  0  0  0  0  0  0  0  0
    8.1301    4.6369    1.7005 H   0  0  0  0  0  0  0  0  0  0  0  0
    4.2682    2.5187    9.4230 H   0  0  0  0  0  0  0  0  0  0  0  0
    7.1920    2.7288    9.9102 H   0  0  0  0  0  0  0  0  0  0  0  0
    7.2803   -0.7297    6.9321 H   0  0  0  0  0  0  0  0  0  0  0  0
    8.0661    2.0837    8.4637 H   0  0  0  0  0  0  0  0  0  0  0  0
   10.1749    0.5867    6.8976 H   0  0  0  0  0  0  0  0  0  0  0  0
    9.2451    0.0491    8.1591 H   0  0  0  0  0  0  0  0  0  0  0  0
    5.7990    0.1331    7.2132 H   0  0  0  0  0  0  0  0  0  0  0  0
    7.0634    1.1979    7.3899 H   0  0  0  0  0  0  0  0  0  0  0  0
   10.5951    2.2458    4.6070 H   0  0  0  0  0  0  0  0  0  0  0  0
    9.2861    3.1543    4.8069 H   0  0  0  0  0  0  0  0  0  0  0  0
    5.4370    3.7729    0.6207 H   0  0  0  0  0  0  0  0  0  0  0  0
    6.3721    0.7250   11.4869 H   0  0  0  0  0  0  0  0  0  0  0  0
    5.9529    4.7614    9.8644 H   0  0  0  0  0  0  0  0  0  0  0  0
    8.6501    1.5395    1.1157 H   0  0  0  0  0  0  0  0  0  0  0  0
    7.4349    4.8316    4.1881 H   0  0  0  0  0  0  0  0  0  0  0  0
    7.6183    3.1919    4.2907 H   0  0  0  0  0  0  0  0  0  0  0  0
    8.1289   -2.2296    5.6164 H   0  0  0  0  0  0  0  0  0  0  0  0
    8.7434   -2.1695    7.0915 H   0  0  0  0  0  0  0  0  0  0  0  0
    9.2689    2.6703    9.6990 H   0  0  0  0  0  0  0  0  0  0  0  0
   10.5771    2.7334    8.7770 H   0  0  0  0  0  0  0  0  0  0  0  0
    4.7982   -0.0962    8.8662 H   0  0  0  0  0  0  0  0  0  0  0  0
    5.1189    1.4256    1.9776 H   0  0  0  0  0  0  0  0  0  0  0  0
    8.8272    0.6893    9.8425 H   0  0  0  0  0  0  0  0  0  0  0  0
    7.9054   -0.2606   10.8874 H   0  0  0  0  0  0  0  0  0  0  0  0
    8.2397   -0.9283    9.3679 H   0  0  0  0  0  0  0  0  0  0  0  0
    7.2620    2.0809   13.1701 H   0  0  0  0  0  0  0  0  0  0  0  0
    8.2803    2.2081   11.7327 H   0  0  0  0  0  0  0  0  0  0  0  0
    7.1015    3.4916   12.0852 H   0  0  0  0  0  0  0  0  0  0  0  0
    6.4912    2.4059   -1.0819 H   0  0  0  0  0  0  0  0  0  0  0  0
    7.7729    3.1478   -0.1421 H   0  0  0  0  0  0  0  0  0  0  0  0
    7.2542    1.4120    0.0822 H   0  0  0  0  0  0  0  0  0  0  0  0
  1 35  1  6  0  0  0
  2  1  1  0  0  0  0
  3  1  1  0  0  0  0
  3 21  1  0  0  0  0
  3 38  1  6  0  0  0
  4 39  1  6  0  0  0
  4 12  1  0  0  0  0
  5  8  1  0  0  0  0
  5 40  1  6  0  0  0
  5 14  1  0  0  0  0
  6  2  1  0  0  0  0
  6 37  1  1  0  0  0
  7  3  1  0  0  0  0
  7 25  1  0  0  0  0
  7 41  1  1  0  0  0
  8  4  1  0  0  0  0
  8 27  1  0  0  0  0
  8 42  1  1  0  0  0
  9  6  1  0  0  0  0
  9  7  1  0  0  0  0
  9 43  1  6  0  0  0
  9 26  1  0  0  0  0
 10 11  1  0  0  0  0
 10 24  1  0  0  0  0
 10 44  1  1  0  0  0
 11 14  1  0  0  0  0
 11 36  1  6  0  0  0
 12  1  1  0  0  0  0
 13 10  1  0  0  0  0
 13 45  1  6  0  0  0
 13 23  1  0  0  0  0
 15 20  1  0  0  0  0
 15 30  1  1  0  0  0
 15 32  1  0  0  0  0
 15 13  1  0  0  0  0
 16  4  1  0  0  0  0
 16 46  1  1  0  0  0
 16 28  1  0  0  0  0
 17  5  1  0  0  0  0
 17 29  1  0  0  0  0
 17 19  1  0  0  0  0
 17 47  1  1  0  0  0
 18 11  1  0  0  0  0
 19 16  1  0  0  0  0
 19 48  1  0  0  0  0
 19 49  1  0  0  0  0
 20 18  1  0  0  0  0
 20 50  1  0  0  0  0
 20 51  1  0  0  0  0
 21 52  1  0  0  0  0
 21 53  1  0  0  0  0
 22 54  1  6  0  0  0
 22 31  1  0  0  0  0
 22  6  1  0  0  0  0
 23 55  1  0  0  0  0
 24 56  1  0  0  0  0
 25 57  1  0  0  0  0
 26 58  1  0  0  0  0
 27 59  1  0  0  0  0
 28 60  1  0  0  0  0
 28 61  1  0  0  0  0
 29 62  1  0  0  0  0
 29 63  1  0  0  0  0
 30 64  1  0  0  0  0
 31 65  1  0  0  0  0
 32 66  1  0  0  0  0
 32 67  1  0  0  0  0
 32 68  1  0  0  0  0
 33 23  1  0  0  0  0
 33 69  1  0  0  0  0
 33 70  1  0  0  0  0
 33 71  1  0  0  0  0
 34 22  1  0  0  0  0
 34 72  1  0  0  0  0
 34 73  1  0  0  0  0
 34 74  1  0  0  0  0
M  END
>  <DRUGBANK_ID>
DB04263

>  <SECONDARY_ACCESSION_NUMBERS>
EXPT01586

>  <COMMON_NAME>
Geneticin

>  <CAS_NUMBER>
49863-47-0

>  <UNII>
A08F5XTI6G

$$$$
