
 OpenBabel10282417123D

 89 88  0  0  1  0  0  0  0  0999 V2000
  -13.1493  -14.6701   -0.5448 C   0  0  0  0  0  0  0  0  0  0  0  0
  -11.6308  -14.7091   -0.5825 C   0  0  0  0  0  0  0  0  0  0  0  0
  -11.1496  -15.0240   -1.9987 C   0  0  0  0  0  0  0  0  0  0  0  0
  -11.6311  -13.9568   -2.9871 C   0  0  0  0  0  0  0  0  0  0  0  0
  -11.1090  -12.5769   -2.5745 C   0  0  0  0  0  0  0  0  0  0  0  0
   -9.5795  -12.5865   -2.5763 C   0  0  0  0  0  0  0  0  0  0  0  0
   -9.0845  -12.9366   -3.9814 C   0  0  0  0  0  0  0  0  0  0  0  0
   -9.6086  -11.8892   -4.9668 C   0  0  0  0  0  0  0  0  0  0  0  0
   -9.0823  -10.5271   -4.5264 C   0  0  0  0  0  0  0  0  0  0  0  0
   -7.5499  -10.6437   -4.4610 C   0  0  0  0  0  0  0  0  0  0  0  0
   -7.0288  -11.0775   -5.8357 C   0  0  0  0  0  0  0  0  0  0  0  0
   -7.5154  -10.0480   -6.7672 C   0  0  0  0  0  0  0  0  0  0  0  0
   -7.0013   -8.7411   -6.1259 C   0  0  0  0  0  0  0  0  0  0  0  0
   -5.4329   -8.7128   -6.1821 C   0  0  0  0  0  0  0  0  0  0  0  0
   -4.6083   -8.9176   -7.4602 C   0  0  0  0  0  0  0  0  0  0  0  0
   -4.6306   -7.6598   -8.2075 C   0  0  0  0  0  0  0  0  0  0  0  0
   -4.5105   -6.3388   -7.8693 O   0  0  0  0  0  0  0  0  0  0  0  0
   -5.4927   -5.8474   -7.0273 C   0  0  0  0  0  0  0  0  0  0  0  0
   -7.0656   -5.7456   -7.2147 C   0  0  2  0  0  0  0  0  0  0  0  0
   -7.8059   -5.3311   -8.5475 C   0  0  0  0  0  0  0  0  0  0  0  0
   -8.3023   -6.4790   -9.5109 O   0  0  0  0  0  0  0  0  0  0  0  0
   -7.1692   -7.6696   -9.4858 P   0  0  1  0  0  0  0  0  0  0  0  0
   -6.2172   -6.5122   -9.6820 O   0  5  0  0  0  0  0  0  0  0  0  0
   -7.5199   -8.3184   -8.3169 O   0  0  0  0  0  0  0  0  0  0  0  0
   -6.0469   -8.7355  -10.3837 O   0  0  0  0  0  0  0  0  0  0  0  0
   -4.6522   -8.3214  -11.0084 C   0  0  0  0  0  0  0  0  0  0  0  0
   -4.8038   -7.5439  -12.3048 C   0  0  0  0  0  0  0  0  0  0  0  0
   -5.8142   -6.4002  -12.2256 N   0  3  0  0  0  0  0  0  0  0  0  0
   -5.2391   -5.2416  -11.2053 C   0  0  0  0  0  0  0  0  0  0  0  0
   -6.1732   -5.7084  -13.4447 C   0  0  0  0  0  0  0  0  0  0  0  0
   -7.2012   -6.9949  -12.0245 C   0  0  0  0  0  0  0  0  0  0  0  0
   -7.5403   -5.0188   -6.0530 O   0  0  0  0  0  0  0  0  0  0  0  0
   -7.1942   -3.7475   -5.8487 C   0  0  0  0  0  0  0  0  0  0  0  0
   -6.3489   -3.0711   -6.8908 C   0  0  0  0  0  0  0  0  0  0  0  0
   -7.5735   -3.1611   -4.8420 O   0  0  0  0  0  0  0  0  0  0  0  0
  -13.5595  -13.9003   -1.2067 H   0  0  0  0  0  0  0  0  0  0  0  0
  -13.5059  -14.4399    0.4586 H   0  0  0  0  0  0  0  0  0  0  0  0
  -13.5500  -15.6360   -0.8654 H   0  0  0  0  0  0  0  0  0  0  0  0
  -11.2288  -13.7522   -0.2284 H   0  0  0  0  0  0  0  0  0  0  0  0
  -11.2483  -15.4597    0.1134 H   0  0  0  0  0  0  0  0  0  0  0  0
  -10.0553  -15.1020   -2.0037 H   0  0  0  0  0  0  0  0  0  0  0  0
  -11.5056  -16.0078   -2.3163 H   0  0  0  0  0  0  0  0  0  0  0  0
  -11.3177  -14.2261   -4.0010 H   0  0  0  0  0  0  0  0  0  0  0  0
  -12.7199  -13.9324   -3.0603 H   0  0  0  0  0  0  0  0  0  0  0  0
  -11.5186  -11.8129   -3.2430 H   0  0  0  0  0  0  0  0  0  0  0  0
  -11.4747  -12.2678   -1.5931 H   0  0  0  0  0  0  0  0  0  0  0  0
   -9.2040  -11.6200   -2.2247 H   0  0  0  0  0  0  0  0  0  0  0  0
   -9.1619  -13.2892   -1.8527 H   0  0  0  0  0  0  0  0  0  0  0  0
   -7.9932  -13.0113   -3.9778 H   0  0  0  0  0  0  0  0  0  0  0  0
   -9.3836  -13.9323   -4.3072 H   0  0  0  0  0  0  0  0  0  0  0  0
   -9.3035  -12.1497   -5.9845 H   0  0  0  0  0  0  0  0  0  0  0  0
  -10.6960  -11.8661   -5.0402 H   0  0  0  0  0  0  0  0  0  0  0  0
   -9.4611   -9.7481   -5.2014 H   0  0  0  0  0  0  0  0  0  0  0  0
   -9.4662  -10.1944   -3.5607 H   0  0  0  0  0  0  0  0  0  0  0  0
   -7.1480   -9.7079   -4.0702 H   0  0  0  0  0  0  0  0  0  0  0  0
   -7.1538  -11.3167   -3.7138 H   0  0  0  0  0  0  0  0  0  0  0  0
   -5.9434  -11.1196   -5.8776 H   0  0  0  0  0  0  0  0  0  0  0  0
   -7.3480  -12.0496   -6.1982 H   0  0  0  0  0  0  0  0  0  0  0  0
   -7.1464  -10.2571   -7.7838 H   0  0  0  0  0  0  0  0  0  0  0  0
   -8.6097  -10.0080   -6.9431 H   0  0  0  0  0  0  0  0  0  0  0  0
   -7.8212   -8.0935   -6.4257 H   0  0  0  0  0  0  0  0  0  0  0  0
   -7.2565   -8.3781   -5.1221 H   0  0  0  0  0  0  0  0  0  0  0  0
   -5.0693   -7.8635   -5.6377 H   0  0  0  0  0  0  0  0  0  0  0  0
   -5.0586   -9.4910   -5.5358 H   0  0  0  0  0  0  0  0  0  0  0  0
   -3.5597   -9.1654   -7.3769 H   0  0  0  0  0  0  0  0  0  0  0  0
   -5.0452   -9.7501   -8.0573 H   0  0  0  0  0  0  0  0  0  0  0  0
   -4.4509   -7.5294   -9.1998 H   0  0  0  0  0  0  0  0  0  0  0  0
   -5.5777   -7.9605   -8.4435 H   0  0  0  0  0  0  0  0  0  0  0  0
   -5.2569   -6.2516   -6.0667 H   0  0  0  0  0  0  0  0  0  0  0  0
   -5.0545   -4.8847   -6.8455 H   0  0  0  0  0  0  0  0  0  0  0  0
   -7.5792   -6.6296   -6.9911 H   0  0  0  0  0  0  0  0  0  0  0  0
   -8.6253   -4.6375   -8.3514 H   0  0  0  0  0  0  0  0  0  0  0  0
   -7.0839   -4.7412   -9.1153 H   0  0  0  0  0  0  0  0  0  0  0  0
   -3.8698   -7.6745  -10.5423 H   0  0  0  0  0  0  0  0  0  0  0  0
   -3.9888   -9.2145  -11.0378 H   0  0  0  0  0  0  0  0  0  0  0  0
   -3.8472   -7.0961  -12.6109 H   0  0  0  0  0  0  0  0  0  0  0  0
   -5.1627   -8.2740  -13.0190 H   0  0  0  0  0  0  0  0  0  0  0  0
   -4.4193   -4.7284  -11.7047 H   0  0  0  0  0  0  0  0  0  0  0  0
   -6.0549   -4.5509  -10.9575 H   0  0  0  0  0  0  0  0  0  0  0  0
   -4.7112   -5.5998  -10.3061 H   0  0  0  0  0  0  0  0  0  0  0  0
   -6.5742   -6.4768  -14.1100 H   0  0  0  0  0  0  0  0  0  0  0  0
   -6.9647   -5.0037  -13.1438 H   0  0  0  0  0  0  0  0  0  0  0  0
   -5.2904   -5.2207  -13.8139 H   0  0  0  0  0  0  0  0  0  0  0  0
   -7.6387   -7.7064  -12.7397 H   0  0  0  0  0  0  0  0  0  0  0  0
   -6.9889   -7.8457  -11.5059 H   0  0  0  0  0  0  0  0  0  0  0  0
   -7.9032   -6.3084  -11.5667 H   0  0  0  0  0  0  0  0  0  0  0  0
   -6.9136   -2.2570   -7.3227 H   0  0  0  0  0  0  0  0  0  0  0  0
   -5.4048   -2.7858   -6.4222 H   0  0  0  0  0  0  0  0  0  0  0  0
   -6.0684   -3.6594   -7.7627 H   0  0  0  0  0  0  0  0  0  0  0  0
  1  2  1  0  0  0  0
  1 36  1  0  0  0  0
  1 37  1  0  0  0  0
  1 38  1  0  0  0  0
  2  3  1  0  0  0  0
  2 39  1  0  0  0  0
  2 40  1  0  0  0  0
  3  4  1  0  0  0  0
  3 41  1  0  0  0  0
  3 42  1  0  0  0  0
  4  5  1  0  0  0  0
  4 43  1  0  0  0  0
  4 44  1  0  0  0  0
  5  6  1  0  0  0  0
  5 45  1  0  0  0  0
  5 46  1  0  0  0  0
  6  7  1  0  0  0  0
  6 47  1  0  0  0  0
  6 48  1  0  0  0  0
  7  8  1  0  0  0  0
  7 49  1  0  0  0  0
  7 50  1  0  0  0  0
  8  9  1  0  0  0  0
  8 51  1  0  0  0  0
  8 52  1  0  0  0  0
  9 10  1  0  0  0  0
  9 53  1  0  0  0  0
  9 54  1  0  0  0  0
 10 11  1  0  0  0  0
 10 55  1  0  0  0  0
 10 56  1  0  0  0  0
 11 12  1  0  0  0  0
 11 57  1  0  0  0  0
 11 58  1  0  0  0  0
 12 13  1  0  0  0  0
 12 59  1  0  0  0  0
 12 60  1  0  0  0  0
 13 14  1  0  0  0  0
 13 61  1  0  0  0  0
 13 62  1  0  0  0  0
 14 15  1  0  0  0  0
 14 63  1  0  0  0  0
 14 64  1  0  0  0  0
 15 16  1  0  0  0  0
 15 65  1  0  0  0  0
 15 66  1  0  0  0  0
 16 17  1  0  0  0  0
 16 67  1  0  0  0  0
 16 68  1  0  0  0  0
 17 18  1  0  0  0  0
 18 69  1  0  0  0  0
 18 70  1  0  0  0  0
 19 32  1  0  0  0  0
 19 71  1  1  0  0  0
 19 20  1  0  0  0  0
 19 18  1  0  0  0  0
 20 21  1  0  0  0  0
 20 72  1  0  0  0  0
 20 73  1  0  0  0  0
 22 21  1  0  0  0  0
 22 23  1  1  0  0  0
 22 24  2  0  0  0  0
 22 25  1  0  0  0  0
 25 26  1  0  0  0  0
 26 27  1  0  0  0  0
 26 74  1  0  0  0  0
 26 75  1  0  0  0  0
 27 28  1  0  0  0  0
 27 76  1  0  0  0  0
 27 77  1  0  0  0  0
 28 29  1  0  0  0  0
 28 30  1  0  0  0  0
 28 31  1  0  0  0  0
 29 78  1  0  0  0  0
 29 79  1  0  0  0  0
 29 80  1  0  0  0  0
 30 81  1  0  0  0  0
 30 82  1  0  0  0  0
 30 83  1  0  0  0  0
 31 84  1  0  0  0  0
 31 85  1  0  0  0  0
 31 86  1  0  0  0  0
 32 33  1  0  0  0  0
 33 34  1  0  0  0  0
 33 35  2  0  0  0  0
 34 87  1  0  0  0  0
 34 88  1  0  0  0  0
 34 89  1  0  0  0  0
M  CHG  2  23  -1  28   1
M  END
>  <DRUGBANK_ID>
DB02261

>  <SECONDARY_ACCESSION_NUMBERS>
EXPT02559

>  <COMMON_NAME>
Platelet Activating Factor

>  <CAS_NUMBER>
74389-68-7

>  <UNII>
42EWD89I80

>  <SYNONYMS>
1-hexadecyl-2-acetyl-glycero-3-phosphocholine; Blood platelet-activating factor; PAF; PAF 16; PAF acether; Platelet-activating factor

$$$$
