J54
 OpenBabel10282417173D

 31 31  0  0  0  0  0  0  0  0999 V2000
    4.1264   -2.0116    2.1219 O   0  0  0  0  0  0  0  0  0  0  0  0
    4.0263   -1.1914    1.2421 C   0  0  0  0  0  0  0  0  0  0  0  0
    3.0213   -0.0394    1.2095 C   0  0  2  0  0  0  0  0  0  0  0  0
    2.2785   -0.0722   -0.0136 O   0  0  0  0  0  0  0  0  0  0  0  0
    3.8395    1.2518    1.2056 C   0  0  0  0  0  0  0  0  0  0  0  0
    3.0748    2.4090    1.5928 N   0  0  0  0  0  0  0  0  0  0  0  0
    3.0665    3.1276    2.7210 C   0  0  0  0  0  0  0  0  0  0  0  0
    2.3823    4.1503    2.7632 O   0  0  0  0  0  0  0  0  0  0  0  0
    3.7663    2.7753    3.8060 N   0  0  0  0  0  0  0  0  0  0  0  0
    4.6945    1.7067    4.1228 C   0  0  0  0  0  0  0  0  0  0  0  0
    6.1393    2.1412    4.1207 C   0  0  0  0  0  0  0  0  0  0  0  0
    6.5227    3.4900    4.0958 C   0  0  0  0  0  0  0  0  0  0  0  0
    7.8502    3.8529    4.3138 C   0  0  0  0  0  0  0  0  0  0  0  0
    8.8100    2.8713    4.5480 C   0  0  0  0  0  0  0  0  0  0  0  0
    8.4552    1.5248    4.5081 C   0  0  0  0  0  0  0  0  0  0  0  0
    7.1353    1.1605    4.2475 C   0  0  0  0  0  0  0  0  0  0  0  0
    4.7977   -1.2045    0.1191 O   0  0  0  0  0  0  0  0  0  0  0  0
    2.3379   -0.1255    2.0665 H   0  0  0  0  0  0  0  0  0  0  0  0
    2.3317   -0.9777   -0.3715 H   0  0  0  0  0  0  0  0  0  0  0  0
    4.7503    1.1529    1.7780 H   0  0  0  0  0  0  0  0  0  0  0  0
    4.2210    1.4728    0.2053 H   0  0  0  0  0  0  0  0  0  0  0  0
    2.4423    2.7865    0.8952 H   0  0  0  0  0  0  0  0  0  0  0  0
    3.6644    3.4749    4.5299 H   0  0  0  0  0  0  0  0  0  0  0  0
    4.4148    1.3309    5.1112 H   0  0  0  0  0  0  0  0  0  0  0  0
    4.5777    0.8340    3.4932 H   0  0  0  0  0  0  0  0  0  0  0  0
    5.7932    4.2772    3.9189 H   0  0  0  0  0  0  0  0  0  0  0  0
    8.1227    4.9048    4.3326 H   0  0  0  0  0  0  0  0  0  0  0  0
    9.8367    3.1566    4.7570 H   0  0  0  0  0  0  0  0  0  0  0  0
    9.1989    0.7575    4.7079 H   0  0  0  0  0  0  0  0  0  0  0  0
    6.8837    0.1041    4.1677 H   0  0  0  0  0  0  0  0  0  0  0  0
    4.6003   -0.4694   -0.4979 H   0  0  0  0  0  0  0  0  0  0  0  0
  1  2  2  0  0  0  0
  2 17  1  0  0  0  0
  3  5  1  0  0  0  0
  3 18  1  1  0  0  0
  3  4  1  0  0  0  0
  3  2  1  0  0  0  0
  4 19  1  0  0  0  0
  5  6  1  0  0  0  0
  5 20  1  0  0  0  0
  5 21  1  0  0  0  0
  6  7  1  0  0  0  0
  6 22  1  0  0  0  0
  7  8  2  0  0  0  0
  7  9  1  0  0  0  0
  9 10  1  0  0  0  0
  9 23  1  0  0  0  0
 10 11  1  0  0  0  0
 10 24  1  0  0  0  0
 10 25  1  0  0  0  0
 11 12  1  0  0  0  0
 11 16  2  0  0  0  0
 12 13  2  0  0  0  0
 12 26  1  0  0  0  0
 13 14  1  0  0  0  0
 13 27  1  0  0  0  0
 14 15  2  0  0  0  0
 14 28  1  0  0  0  0
 15 16  1  0  0  0  0
 15 29  1  0  0  0  0
 16 30  1  0  0  0  0
 17 31  1  0  0  0  0
M  END
>  <DRUGBANK_ID>
DB08007

>  <COMMON_NAME>
(2R)-3-{[(BENZYLAMINO)CARBONYL]AMINO}-2-HYDROXYPROPANOIC ACID

$$$$
