D28
 OpenBabel10282417163D

 37 39  0  0  0  0  0  0  0  0999 V2000
    1.3117    0.7597   -0.0104 C   0  0  0  0  0  0  0  0  0  0  0  0
    2.4956    1.6158   -0.0178 C   0  0  0  0  0  0  0  0  0  0  0  0
    1.3744   -0.6342   -0.0538 N   0  0  0  0  0  0  0  0  0  0  0  0
    0.0364    1.2791    0.0153 C   0  0  0  0  0  0  0  0  0  0  0  0
    3.4168    1.5380   -1.0736 C   0  0  0  0  0  0  0  0  0  0  0  0
    2.7211    2.5456    1.0122 C   0  0  0  0  0  0  0  0  0  0  0  0
    0.1629   -1.1660   -0.0386 C   0  0  0  0  0  0  0  0  0  0  0  0
   -1.1069    0.0173    0.0390 S   0  0  0  0  0  0  0  0  0  0  0  0
    4.5615    2.3556   -1.0956 C   0  0  0  0  0  0  0  0  0  0  0  0
    3.8662    3.3501    1.0053 C   0  0  0  0  0  0  0  0  0  0  0  0
   -0.0721   -2.5112   -0.0364 N   0  0  0  0  0  0  0  0  0  0  0  0
    4.7751    3.2460   -0.0412 C   0  0  0  0  0  0  0  0  0  0  0  0
    5.5505    2.2862   -2.2195 C   0  0  0  0  0  0  0  0  0  0  0  0
   -1.3279   -3.1521   -0.0663 C   0  0  0  0  0  0  0  0  0  0  0  0
    5.8710    4.0194   -0.0300 F   0  0  0  0  0  0  0  0  0  0  0  0
   -2.2489   -2.9113   -1.0937 C   0  0  0  0  0  0  0  0  0  0  0  0
   -1.7142   -4.0126    0.9666 C   0  0  0  0  0  0  0  0  0  0  0  0
   -3.5314   -3.4822   -1.0701 C   0  0  0  0  0  0  0  0  0  0  0  0
   -3.0076   -4.5727    1.0038 C   0  0  0  0  0  0  0  0  0  0  0  0
   -3.9453   -4.3108   -0.0112 C   0  0  0  0  0  0  0  0  0  0  0  0
   -4.3823   -3.2078   -2.1055 O   0  0  0  0  0  0  0  0  0  0  0  0
   -5.3484   -4.8692    0.0026 C   0  0  0  0  0  0  0  0  0  0  0  0
   -5.6832   -5.6446    1.0582 O   0  0  0  0  0  0  0  0  0  0  0  0
   -6.1822   -4.6593   -0.8674 O   0  0  0  0  0  0  0  0  0  0  0  0
   -0.2791    2.3117    0.0205 H   0  0  0  0  0  0  0  0  0  0  0  0
    3.2334    0.8433   -1.8909 H   0  0  0  0  0  0  0  0  0  0  0  0
    2.0179    2.6446    1.8360 H   0  0  0  0  0  0  0  0  0  0  0  0
    4.0607    4.0533    1.8099 H   0  0  0  0  0  0  0  0  0  0  0  0
    0.7312   -3.1205    0.0714 H   0  0  0  0  0  0  0  0  0  0  0  0
    5.6295    3.2587   -2.7172 H   0  0  0  0  0  0  0  0  0  0  0  0
    6.5363    1.9977   -1.8400 H   0  0  0  0  0  0  0  0  0  0  0  0
    5.2495    1.5489   -2.9700 H   0  0  0  0  0  0  0  0  0  0  0  0
   -1.9561   -2.2687   -1.9202 H   0  0  0  0  0  0  0  0  0  0  0  0
   -1.0300   -4.2236    1.7871 H   0  0  0  0  0  0  0  0  0  0  0  0
   -3.2388   -5.1964    1.8592 H   0  0  0  0  0  0  0  0  0  0  0  0
   -3.9713   -2.6357   -2.7707 H   0  0  0  0  0  0  0  0  0  0  0  0
   -5.0328   -5.8069    1.7555 H   0  0  0  0  0  0  0  0  0  0  0  0
  1  2  1  0  0  0  0
  1  3  1  0  0  0  0
  1  4  2  0  0  0  0
  2  5  1  0  0  0  0
  2  6  2  0  0  0  0
  3  7  2  0  0  0  0
  4  8  1  0  0  0  0
  4 25  1  0  0  0  0
  5  9  2  0  0  0  0
  5 26  1  0  0  0  0
  6 10  1  0  0  0  0
  6 27  1  0  0  0  0
  7  8  1  0  0  0  0
  7 11  1  0  0  0  0
  9 12  1  0  0  0  0
  9 13  1  0  0  0  0
 10 12  2  0  0  0  0
 10 28  1  0  0  0  0
 11 14  1  0  0  0  0
 11 29  1  0  0  0  0
 12 15  1  0  0  0  0
 13 30  1  0  0  0  0
 13 31  1  0  0  0  0
 13 32  1  0  0  0  0
 14 16  1  0  0  0  0
 14 17  2  0  0  0  0
 16 18  2  0  0  0  0
 16 33  1  0  0  0  0
 17 19  1  0  0  0  0
 17 34  1  0  0  0  0
 18 20  1  0  0  0  0
 18 21  1  0  0  0  0
 19 20  2  0  0  0  0
 19 35  1  0  0  0  0
 20 22  1  0  0  0  0
 21 36  1  0  0  0  0
 22 23  1  0  0  0  0
 22 24  2  0  0  0  0
 23 37  1  0  0  0  0
M  END
>  <DRUGBANK_ID>
DB07616

>  <COMMON_NAME>
4-{[4-(4-fluoro-3-methylphenyl)-1,3-thiazol-2-yl]amino}-2-hydroxybenzoic acid

$$$$
