3CZ
 OpenBabel10282417163D

 56 58  0  0  0  0  0  0  0  0999 V2000
    1.0190    0.0489    0.0100 O   0  5  0  0  0  0  0  0  0  0  0  0
    2.2555   -0.0096   -0.0372 N   0  3  0  0  0  0  0  0  0  0  0  0
    2.9130   -1.0174   -0.3333 O   0  0  0  0  0  0  0  0  0  0  0  0
    3.0032    1.1933    0.3126 C   0  0  0  0  0  0  0  0  0  0  0  0
    2.6053    1.9551    1.4152 C   0  0  0  0  0  0  0  0  0  0  0  0
    3.3835    3.0554    1.8160 C   0  0  0  0  0  0  0  0  0  0  0  0
    4.1504    1.5212   -0.4050 C   0  0  0  0  0  0  0  0  0  0  0  0
    4.9228    2.6037    0.0264 C   0  0  0  0  0  0  0  0  0  0  0  0
    4.5389    3.4169    1.1118 C   0  0  0  0  0  0  0  0  0  0  0  0
    5.2078    4.6014    1.3437 N   0  0  0  0  0  0  0  0  0  0  0  0
    5.7630    5.0621    2.6393 C   0  0  0  0  0  0  0  0  0  0  0  0
    5.2756    6.5143    2.9434 C   0  0  1  0  0  0  0  0  0  0  0  0
    5.6359    7.1338    4.2868 C   0  0  0  0  0  0  0  0  0  0  0  0
    5.3276    5.5231    0.1920 C   0  0  0  0  0  0  0  0  0  0  0  0
    4.8508    6.9359    0.5925 C   0  0  0  0  0  0  0  0  0  0  0  0
    5.6378    7.4530    1.7921 N   0  0  0  0  0  0  0  0  0  0  0  0
    7.3121    7.7178    1.3400 S   0  0  0  0  0  0  0  0  0  0  0  0
    7.9603    6.4553    1.0882 O   0  0  0  0  0  0  0  0  0  0  0  0
    7.2834    8.7319    0.2970 O   0  0  0  0  0  0  0  0  0  0  0  0
    8.1944    8.3861    2.7147 C   0  0  0  0  0  0  0  0  0  0  0  0
    8.4045    7.5589    3.8146 C   0  0  0  0  0  0  0  0  0  0  0  0
    8.9648    8.0586    4.9720 C   0  0  0  0  0  0  0  0  0  0  0  0
    8.8362    9.6130    2.6520 C   0  0  0  0  0  0  0  0  0  0  0  0
    9.6455    9.9930    3.7254 C   0  0  0  0  0  0  0  0  0  0  0  0
    9.6409    9.2725    4.9395 C   0  0  0  0  0  0  0  0  0  0  0  0
   10.3952    9.7756    6.1680 C   0  0  0  0  0  0  0  0  0  0  0  0
   11.9005    9.7452    5.8615 C   0  0  0  0  0  0  0  0  0  0  0  0
    9.9432   11.2108    6.4857 C   0  0  0  0  0  0  0  0  0  0  0  0
   10.1403    8.9099    7.4250 C   0  0  0  0  0  0  0  0  0  0  0  0
    4.1765    6.4538    2.9843 H   0  0  0  0  0  0  0  0  0  0  0  0
    1.6958    1.7057    1.9570 H   0  0  0  0  0  0  0  0  0  0  0  0
    3.0412    3.6587    2.6524 H   0  0  0  0  0  0  0  0  0  0  0  0
    4.4510    0.9610   -1.2873 H   0  0  0  0  0  0  0  0  0  0  0  0
    5.8533    2.8247   -0.4949 H   0  0  0  0  0  0  0  0  0  0  0  0
    5.5233    4.3813    3.4628 H   0  0  0  0  0  0  0  0  0  0  0  0
    6.8538    5.0428    2.5633 H   0  0  0  0  0  0  0  0  0  0  0  0
    4.7664    7.4219    4.8821 H   0  0  0  0  0  0  0  0  0  0  0  0
    6.2268    6.4498    4.9032 H   0  0  0  0  0  0  0  0  0  0  0  0
    6.1365    8.0925    4.1492 H   0  0  0  0  0  0  0  0  0  0  0  0
    6.3576    5.5280   -0.1665 H   0  0  0  0  0  0  0  0  0  0  0  0
    4.7282    5.1924   -0.6640 H   0  0  0  0  0  0  0  0  0  0  0  0
    3.7868    6.8831    0.8694 H   0  0  0  0  0  0  0  0  0  0  0  0
    4.9132    7.6389   -0.2417 H   0  0  0  0  0  0  0  0  0  0  0  0
    8.0418    6.5400    3.8254 H   0  0  0  0  0  0  0  0  0  0  0  0
    8.8735    7.4563    5.8705 H   0  0  0  0  0  0  0  0  0  0  0  0
    8.7742   10.2397    1.7659 H   0  0  0  0  0  0  0  0  0  0  0  0
   10.2920   10.8594    3.6037 H   0  0  0  0  0  0  0  0  0  0  0  0
   12.1550   10.3769    5.0034 H   0  0  0  0  0  0  0  0  0  0  0  0
   12.4828   10.1015    6.7169 H   0  0  0  0  0  0  0  0  0  0  0  0
   12.2318    8.7264    5.6251 H   0  0  0  0  0  0  0  0  0  0  0  0
    8.8675   11.2443    6.6986 H   0  0  0  0  0  0  0  0  0  0  0  0
   10.4745   11.6067    7.3566 H   0  0  0  0  0  0  0  0  0  0  0  0
   10.1306   11.8950    5.6511 H   0  0  0  0  0  0  0  0  0  0  0  0
    9.0739    8.8933    7.6861 H   0  0  0  0  0  0  0  0  0  0  0  0
   10.4631    7.8721    7.2707 H   0  0  0  0  0  0  0  0  0  0  0  0
   10.6864    9.2859    8.2949 H   0  0  0  0  0  0  0  0  0  0  0  0
  1  2  1  0  0  0  0
  2  3  2  0  0  0  0
  2  4  1  0  0  0  0
  4  5  2  0  0  0  0
  4  7  1  0  0  0  0
  5  6  1  0  0  0  0
  5 31  1  0  0  0  0
  6  9  2  0  0  0  0
  6 32  1  0  0  0  0
  7  8  2  0  0  0  0
  7 33  1  0  0  0  0
  8  9  1  0  0  0  0
  8 34  1  0  0  0  0
  9 10  1  0  0  0  0
 10 11  1  0  0  0  0
 10 14  1  0  0  0  0
 11 12  1  0  0  0  0
 11 35  1  0  0  0  0
 11 36  1  0  0  0  0
 12 16  1  0  0  0  0
 12 30  1  6  0  0  0
 12 13  1  0  0  0  0
 13 37  1  0  0  0  0
 13 38  1  0  0  0  0
 13 39  1  0  0  0  0
 14 15  1  0  0  0  0
 14 40  1  0  0  0  0
 14 41  1  0  0  0  0
 15 16  1  0  0  0  0
 15 42  1  0  0  0  0
 15 43  1  0  0  0  0
 16 17  1  0  0  0  0
 17 18  2  0  0  0  0
 17 19  2  0  0  0  0
 17 20  1  0  0  0  0
 20 21  2  0  0  0  0
 20 23  1  0  0  0  0
 21 22  1  0  0  0  0
 21 44  1  0  0  0  0
 22 25  2  0  0  0  0
 22 45  1  0  0  0  0
 23 24  2  0  0  0  0
 23 46  1  0  0  0  0
 24 25  1  0  0  0  0
 24 47  1  0  0  0  0
 25 26  1  0  0  0  0
 26 27  1  0  0  0  0
 26 28  1  0  0  0  0
 26 29  1  0  0  0  0
 27 48  1  0  0  0  0
 27 49  1  0  0  0  0
 27 50  1  0  0  0  0
 28 51  1  0  0  0  0
 28 52  1  0  0  0  0
 28 53  1  0  0  0  0
 29 54  1  0  0  0  0
 29 55  1  0  0  0  0
 29 56  1  0  0  0  0
M  CHG  2   1  -1   2   1
M  END
>  <DRUGBANK_ID>
DB07049

>  <COMMON_NAME>
(2R)-1-[(4-tert-butylphenyl)sulfonyl]-2-methyl-4-(4-nitrophenyl)piperazine

$$$$
