
 OpenBabel10282417203D

 33 35  0  0  0  0  0  0  0  0999 V2000
   -2.4497    0.3437   -0.2569 C   0  0  0  0  0  0  0  0  0  0  0  0
   -1.2533    0.9850   -0.0515 C   0  0  0  0  0  0  0  0  0  0  0  0
   -0.0011    0.3554    0.2022 C   0  0  0  0  0  0  0  0  0  0  0  0
    0.0668   -1.0147    0.1051 C   0  0  0  0  0  0  0  0  0  0  0  0
   -1.1902   -1.6655    0.1016 C   0  0  0  0  0  0  0  0  0  0  0  0
   -2.4283   -1.0060   -0.0709 C   0  0  0  0  0  0  0  0  0  0  0  0
   -1.2510   -3.3688    0.3511 Cl  0  0  0  0  0  0  0  0  0  0  0  0
    1.3114   -1.5973    0.0037 N   0  0  0  0  0  0  0  0  0  0  0  0
    2.4187   -0.7859   -0.0441 C   0  0  0  0  0  0  0  0  0  0  0  0
    2.3427    0.5726    0.1451 C   0  0  0  0  0  0  0  0  0  0  0  0
    1.1444    1.0602    0.4233 N   0  0  0  0  0  0  0  0  0  0  0  0
    3.4356    1.4759    0.0013 N   0  0  0  0  0  0  0  0  0  0  0  0
    3.4735    3.1762   -0.0679 S   0  0  0  0  0  0  0  0  0  0  0  0
    4.2146    3.5735    1.1022 O   0  0  0  0  0  0  0  0  0  0  0  0
    4.0216    3.4863   -1.3873 O   0  0  0  0  0  0  0  0  0  0  0  0
    1.9197    4.0219    0.0089 C   0  0  0  0  0  0  0  0  0  0  0  0
    1.7093    5.3811    0.1314 C   0  0  0  0  0  0  0  0  0  0  0  0
    0.3612    5.8660    0.2288 C   0  0  0  0  0  0  0  0  0  0  0  0
   -0.6847    4.9974    0.5107 C   0  0  0  0  0  0  0  0  0  0  0  0
   -0.2585    3.7457    0.7564 C   0  0  0  0  0  0  0  0  0  0  0  0
    0.7620    3.3586   -0.0809 C   0  0  0  0  0  0  0  0  0  0  0  0
   -1.9967    5.3459    0.7982 N   0  0  0  0  0  0  0  0  0  0  0  0
   -3.3391    0.9190   -0.5086 H   0  0  0  0  0  0  0  0  0  0  0  0
   -1.3691    2.0482   -0.1781 H   0  0  0  0  0  0  0  0  0  0  0  0
   -3.3712   -1.5389   -0.0803 H   0  0  0  0  0  0  0  0  0  0  0  0
    3.3522   -1.2936   -0.2572 H   0  0  0  0  0  0  0  0  0  0  0  0
    4.3445    1.0807   -0.2397 H   0  0  0  0  0  0  0  0  0  0  0  0
    2.5425    6.0666    0.0857 H   0  0  0  0  0  0  0  0  0  0  0  0
    0.1487    6.9187    0.1231 H   0  0  0  0  0  0  0  0  0  0  0  0
   -0.8556    3.0518    1.3363 H   0  0  0  0  0  0  0  0  0  0  0  0
    0.6795    2.5670   -0.8100 H   0  0  0  0  0  0  0  0  0  0  0  0
   -2.6661    4.5813    0.6863 H   0  0  0  0  0  0  0  0  0  0  0  0
   -2.3200    6.1763    0.3179 H   0  0  0  0  0  0  0  0  0  0  0  0
  1  2  1  0  0  0  0
  1  6  2  0  0  0  0
  1 23  1  0  0  0  0
  2  3  2  0  0  0  0
  2 24  1  0  0  0  0
  3  4  1  0  0  0  0
  3 11  1  0  0  0  0
  4  5  2  0  0  0  0
  4  8  1  0  0  0  0
  5  6  1  0  0  0  0
  5  7  1  0  0  0  0
  6 25  1  0  0  0  0
  8  9  2  0  0  0  0
  9 10  1  0  0  0  0
  9 26  1  0  0  0  0
 10 11  2  0  0  0  0
 10 12  1  0  0  0  0
 12 13  1  0  0  0  0
 12 27  1  0  0  0  0
 13 14  2  0  0  0  0
 13 15  2  0  0  0  0
 13 16  1  0  0  0  0
 16 17  2  0  0  0  0
 16 21  1  0  0  0  0
 17 18  1  0  0  0  0
 17 28  1  0  0  0  0
 18 19  2  0  0  0  0
 18 29  1  0  0  0  0
 19 20  1  0  0  0  0
 19 22  1  0  0  0  0
 20 21  2  0  0  0  0
 20 30  1  0  0  0  0
 21 31  1  0  0  0  0
 22 32  1  0  0  0  0
 22 33  1  0  0  0  0
M  END
>  <DRUGBANK_ID>
DB12921

>  <COMMON_NAME>
Chlorsulfaquinoxaline

>  <CAS_NUMBER>
97919-22-7

>  <UNII>
O0408QB48D

>  <SYNONYMS>
Chloroquinoxaline sulfonamide

$$$$
