1367
 OpenBabel10282417113D

 26 27  0  0  1  0  0  0  0  0999 V2000
    1.0355    0.0787    0.0040 N   0  0  0  0  0  0  0  0  0  0  0  0
    0.5367    1.2873   -0.6516 C   0  0  2  0  0  0  0  0  0  0  0  0
    1.5898    2.0094   -1.5287 C   0  0  0  0  0  0  0  0  0  0  0  0
    1.1778    3.4901   -1.5608 C   0  0  0  0  0  0  0  0  0  0  0  0
    0.1911    2.3906    0.3147 C   0  0  0  0  0  0  0  0  0  0  0  0
    0.5401    3.6410   -0.2143 C   0  0  0  0  0  0  0  0  0  0  0  0
   -0.4469    2.2954    1.5432 C   0  0  0  0  0  0  0  0  0  0  0  0
    0.2697    4.8110    0.4784 C   0  0  0  0  0  0  0  0  0  0  0  0
    0.5764   -1.1396   -0.6583 C   0  0  0  0  0  0  0  0  0  0  0  0
   -0.7005    3.4674    2.2592 C   0  0  0  0  0  0  0  0  0  0  0  0
   -0.3413    4.7165    1.7317 C   0  0  0  0  0  0  0  0  0  0  0  0
    1.0669   -1.2365   -2.0386 C   0  0  0  0  0  0  0  0  0  0  0  0
    1.4556   -1.2653   -3.1769 C   0  0  0  0  0  0  0  0  0  0  0  0
    2.0518    0.0872    0.0483 H   0  0  0  0  0  0  0  0  0  0  0  0
   -0.3631    1.0824   -1.2463 H   0  0  0  0  0  0  0  0  0  0  0  0
    2.5934    1.9267   -1.0862 H   0  0  0  0  0  0  0  0  0  0  0  0
    1.6538    1.5927   -2.5386 H   0  0  0  0  0  0  0  0  0  0  0  0
    2.0449    4.1447   -1.6883 H   0  0  0  0  0  0  0  0  0  0  0  0
    0.4516    3.6779   -2.3588 H   0  0  0  0  0  0  0  0  0  0  0  0
   -0.7315    1.3287    1.9462 H   0  0  0  0  0  0  0  0  0  0  0  0
    0.5343    5.7812    0.0709 H   0  0  0  0  0  0  0  0  0  0  0  0
    0.9247   -2.0059   -0.0844 H   0  0  0  0  0  0  0  0  0  0  0  0
   -0.5192   -1.1817   -0.6322 H   0  0  0  0  0  0  0  0  0  0  0  0
   -1.1778    3.4111    3.2344 H   0  0  0  0  0  0  0  0  0  0  0  0
   -0.5391    5.6176    2.3076 H   0  0  0  0  0  0  0  0  0  0  0  0
    1.7989   -1.2580   -4.1844 H   0  0  0  0  0  0  0  0  0  0  0  0
  1  9  1  0  0  0  0
  1 14  1  0  0  0  0
  2  1  1  0  0  0  0
  2  3  1  0  0  0  0
  2  5  1  0  0  0  0
  2 15  1  6  0  0  0
  3  4  1  0  0  0  0
  3 16  1  0  0  0  0
  3 17  1  0  0  0  0
  4  6  1  0  0  0  0
  4 18  1  0  0  0  0
  4 19  1  0  0  0  0
  5  6  1  0  0  0  0
  5  7  2  0  0  0  0
  6  8  2  0  0  0  0
  7 10  1  0  0  0  0
  7 20  1  0  0  0  0
  8 11  1  0  0  0  0
  8 21  1  0  0  0  0
  9 12  1  0  0  0  0
  9 22  1  0  0  0  0
  9 23  1  0  0  0  0
 10 11  2  0  0  0  0
 10 24  1  0  0  0  0
 11 25  1  0  0  0  0
 12 13  3  0  0  0  0
 13 26  1  0  0  0  0
M  END
>  <DRUGBANK_ID>
DB01367

>  <SECONDARY_ACCESSION_NUMBERS>
EXPT02758

>  <COMMON_NAME>
Rasagiline

>  <CAS_NUMBER>
136236-51-6

>  <UNII>
003N66TS6T

>  <SYNONYMS>
(1R)-N-propargylindan-1-amine; (R)-indan-1-yl-prop-2-ynyl-amine; (R)-N-2-Propynyl-1-indanamine; RAS; Rasagilina; Rasagiline

$$$$
