GVQ
 OpenBabel10282417163D

 30 31  0  0  0  0  0  0  0  0999 V2000
    1.6887    1.2243    0.0105 C   0  0  0  0  0  0  0  0  0  0  0  0
    0.2878    1.2420   -0.0012 C   0  0  0  0  0  0  0  0  0  0  0  0
   -0.4310    0.0487   -0.0156 C   0  0  0  0  0  0  0  0  0  0  0  0
    0.2347   -1.1679   -0.0519 C   0  0  0  0  0  0  0  0  0  0  0  0
    5.0678   -0.4478    3.6254 C   0  0  0  0  0  0  0  0  0  0  0  0
    4.6272   -1.7391    3.8925 C   0  0  0  0  0  0  0  0  0  0  0  0
    4.1943   -2.5547    2.8518 C   0  0  0  0  0  0  0  0  0  0  0  0
    4.1573   -2.0461    1.5580 C   0  0  0  0  0  0  0  0  0  0  0  0
    3.9248   -0.0264    0.0155 C   0  0  2  0  0  0  0  0  0  0  0  0
    4.9718    0.0819    2.3348 C   0  0  0  0  0  0  0  0  0  0  0  0
    4.4190   -0.6940    1.3033 C   0  0  0  0  0  0  0  0  0  0  0  0
    2.3819    0.0045   -0.0162 C   0  0  0  0  0  0  0  0  0  0  0  0
    1.6256   -1.1811   -0.0796 C   0  0  0  0  0  0  0  0  0  0  0  0
    4.5042   -0.6849   -1.2614 C   0  0  0  0  0  0  0  0  0  0  0  0
    4.0814    0.0004   -2.4906 N   0  0  0  0  0  0  0  0  0  0  0  0
   -2.1498    0.0658   -0.0061 Cl  0  0  0  0  0  0  0  0  0  0  0  0
    4.2831    1.0143    0.0236 H   0  0  0  0  0  0  0  0  0  0  0  0
    2.2300    2.1673    0.0285 H   0  0  0  0  0  0  0  0  0  0  0  0
   -0.2383    2.1932    0.0036 H   0  0  0  0  0  0  0  0  0  0  0  0
   -0.3080   -2.1079   -0.0616 H   0  0  0  0  0  0  0  0  0  0  0  0
    5.4407    0.1744    4.4370 H   0  0  0  0  0  0  0  0  0  0  0  0
    4.6187   -2.1213    4.9095 H   0  0  0  0  0  0  0  0  0  0  0  0
    3.8443   -3.5622    3.0425 H   0  0  0  0  0  0  0  0  0  0  0  0
    3.8278   -2.7132    0.7668 H   0  0  0  0  0  0  0  0  0  0  0  0
    5.2817    1.1065    2.1567 H   0  0  0  0  0  0  0  0  0  0  0  0
    2.1028   -2.1524   -0.1435 H   0  0  0  0  0  0  0  0  0  0  0  0
    5.5991   -0.6779   -1.2165 H   0  0  0  0  0  0  0  0  0  0  0  0
    4.1959   -1.7334   -1.3341 H   0  0  0  0  0  0  0  0  0  0  0  0
    4.3794   -0.5436   -3.2981 H   0  0  0  0  0  0  0  0  0  0  0  0
    3.0595    0.0130   -2.5245 H   0  0  0  0  0  0  0  0  0  0  0  0
  1  2  1  0  0  0  0
  1 12  2  0  0  0  0
  1 18  1  0  0  0  0
  2  3  2  0  0  0  0
  2 19  1  0  0  0  0
  3  4  1  0  0  0  0
  3 16  1  0  0  0  0
  4 13  2  0  0  0  0
  4 20  1  0  0  0  0
  5  6  1  0  0  0  0
  5 10  2  0  0  0  0
  5 21  1  0  0  0  0
  6  7  2  0  0  0  0
  6 22  1  0  0  0  0
  7  8  1  0  0  0  0
  7 23  1  0  0  0  0
  8 11  2  0  0  0  0
  8 24  1  0  0  0  0
  9 11  1  0  0  0  0
  9 12  1  0  0  0  0
  9 14  1  0  0  0  0
  9 17  1  1  0  0  0
 10 11  1  0  0  0  0
 10 25  1  0  0  0  0
 12 13  1  0  0  0  0
 13 26  1  0  0  0  0
 14 15  1  0  0  0  0
 14 27  1  0  0  0  0
 14 28  1  0  0  0  0
 15 29  1  0  0  0  0
 15 30  1  0  0  0  0
M  END
>  <DRUGBANK_ID>
DB07860

>  <COMMON_NAME>
(2R)-2-(4-CHLOROPHENYL)-2-PHENYLETHANAMINE

$$$$
