DSB
 OpenBabel10282417143D

 30 29  0  0  0  0  0  0  0  0999 V2000
    0.9889   -0.1966   -0.0026 C   0  0  0  0  0  0  0  0  0  0  0  0
    0.4191   -0.5796    1.0097 O   0  0  0  0  0  0  0  0  0  0  0  0
    0.3507    0.6492   -1.0950 C   0  0  0  0  0  0  0  0  0  0  0  0
    0.6688    2.1480   -1.0689 C   0  0  0  0  0  0  0  0  0  0  0  0
    2.6592    3.1809   -2.4482 C   0  0  0  0  0  0  0  0  0  0  0  0
    2.2670   -0.5380   -0.2418 O   0  0  0  0  0  0  0  0  0  0  0  0
    3.5540    4.3213   -1.9617 C   0  0  0  0  0  0  0  0  0  0  0  0
    6.1555    4.1042   -1.5841 C   0  0  0  0  0  0  0  0  0  0  0  0
    6.9009    4.7762   -0.4220 C   0  0  0  0  0  0  0  0  0  0  0  0
    6.9986    3.9956    0.8960 C   0  0  0  0  0  0  0  0  0  0  0  0
    8.2415    3.5883    1.2225 O   0  0  0  0  0  0  0  0  0  0  0  0
    6.0831    3.8231    1.6955 O   0  0  0  0  0  0  0  0  0  0  0  0
    4.7439    3.8288   -1.1651 C   0  0  0  0  0  0  0  0  0  0  0  0
    2.1351    2.3323   -1.3069 C   0  0  0  0  0  0  0  0  0  0  0  0
    2.9064    1.7249   -0.5720 O   0  0  0  0  0  0  0  0  0  0  0  0
    4.5756    3.2220   -0.1149 O   0  0  0  0  0  0  0  0  0  0  0  0
    0.6152    0.2174   -2.0660 H   0  0  0  0  0  0  0  0  0  0  0  0
   -0.7317    0.5340   -0.9778 H   0  0  0  0  0  0  0  0  0  0  0  0
    0.0950    2.6822   -1.8329 H   0  0  0  0  0  0  0  0  0  0  0  0
    0.4295    2.5961   -0.0970 H   0  0  0  0  0  0  0  0  0  0  0  0
    3.2252    2.5119   -3.1084 H   0  0  0  0  0  0  0  0  0  0  0  0
    1.8234    3.5802   -3.0316 H   0  0  0  0  0  0  0  0  0  0  0  0
    2.7249   -0.5569    0.6286 H   0  0  0  0  0  0  0  0  0  0  0  0
    3.8933    4.9262   -2.8076 H   0  0  0  0  0  0  0  0  0  0  0  0
    2.9843    4.9826   -1.2963 H   0  0  0  0  0  0  0  0  0  0  0  0
    6.6215    3.1502   -1.8561 H   0  0  0  0  0  0  0  0  0  0  0  0
    6.1580    4.7440   -2.4732 H   0  0  0  0  0  0  0  0  0  0  0  0
    7.9108    5.0298   -0.7601 H   0  0  0  0  0  0  0  0  0  0  0  0
    6.4107    5.7280   -0.1818 H   0  0  0  0  0  0  0  0  0  0  0  0
    8.9600    3.9137    0.6571 H   0  0  0  0  0  0  0  0  0  0  0  0
  1  2  2  0  0  0  0
  1  3  1  0  0  0  0
  1  6  1  0  0  0  0
  3  4  1  0  0  0  0
  3 17  1  0  0  0  0
  3 18  1  0  0  0  0
  4 14  1  0  0  0  0
  4 19  1  0  0  0  0
  4 20  1  0  0  0  0
  5  7  1  0  0  0  0
  5 14  1  0  0  0  0
  5 21  1  0  0  0  0
  5 22  1  0  0  0  0
  6 23  1  0  0  0  0
  7 13  1  0  0  0  0
  7 24  1  0  0  0  0
  7 25  1  0  0  0  0
  8  9  1  0  0  0  0
  8 13  1  0  0  0  0
  8 26  1  0  0  0  0
  8 27  1  0  0  0  0
  9 10  1  0  0  0  0
  9 28  1  0  0  0  0
  9 29  1  0  0  0  0
 10 11  1  0  0  0  0
 10 12  2  0  0  0  0
 11 30  1  0  0  0  0
 13 16  2  0  0  0  0
 14 15  2  0  0  0  0
M  END
>  <DRUGBANK_ID>
DB04560

>  <SECONDARY_ACCESSION_NUMBERS>
EXPT01272

>  <COMMON_NAME>
4,7-Dioxosebacic Acid

$$$$
