SAG
 OpenBabel10282417173D

 39 40  0  0  0  0  0  0  0  0999 V2000
    2.1710   -0.0330    0.0039 F   0  0  0  0  0  0  0  0  0  0  0  0
    0.8345   -0.0249    0.0913 C   0  0  0  0  0  0  0  0  0  0  0  0
    0.1635    1.1909    0.1542 C   0  0  0  0  0  0  0  0  0  0  0  0
    0.1363   -1.2265    0.0523 C   0  0  0  0  0  0  0  0  0  0  0  0
   -1.2594   -1.2165    0.0690 C   0  0  0  0  0  0  0  0  0  0  0  0
   -1.9496   -0.0021    0.1319 C   0  0  0  0  0  0  0  0  0  0  0  0
   -1.2429    1.2140    0.1628 C   0  0  0  0  0  0  0  0  0  0  0  0
   -1.9652    2.5331   -0.0006 C   0  0  0  0  0  0  0  0  0  0  0  0
   -2.7980    2.6560   -1.1682 O   0  0  0  0  0  0  0  0  0  0  0  0
   -2.2110    2.5767   -2.4020 C   0  0  0  0  0  0  0  0  0  0  0  0
   -1.2858    1.5992   -2.7692 C   0  0  0  0  0  0  0  0  0  0  0  0
   -0.7869    1.5004   -4.0558 C   0  0  0  0  0  0  0  0  0  0  0  0
   -2.6981    3.4327   -3.3894 C   0  0  0  0  0  0  0  0  0  0  0  0
   -2.2611    3.2990   -4.7099 C   0  0  0  0  0  0  0  0  0  0  0  0
   -1.2710    2.3681   -5.0176 C   0  0  0  0  0  0  0  0  0  0  0  0
   -0.6541    2.3175   -6.3398 C   0  0  0  0  0  0  0  0  0  0  0  0
   -1.0744    3.0297   -7.3175 N   0  0  0  0  0  0  0  0  0  0  0  0
   -0.3809    2.9246   -8.6169 C   0  0  1  0  0  0  0  0  0  0  0  0
    1.0911    3.2992   -8.5211 C   0  0  0  0  0  0  0  0  0  0  0  0
   -0.6098    1.5524   -9.2674 C   0  0  0  0  0  0  0  0  0  0  0  0
   -1.2425    1.4069  -10.3172 O   0  0  0  0  0  0  0  0  0  0  0  0
   -0.0670    0.4555   -8.6632 N   0  0  0  0  0  0  0  0  0  0  0  0
   -0.8638    3.6617   -9.2716 H   0  0  0  0  0  0  0  0  0  0  0  0
    0.7377    2.1114    0.0886 H   0  0  0  0  0  0  0  0  0  0  0  0
    0.6838   -2.1612   -0.0137 H   0  0  0  0  0  0  0  0  0  0  0  0
   -1.8105   -2.1512   -0.0054 H   0  0  0  0  0  0  0  0  0  0  0  0
   -3.0369    0.0003    0.0606 H   0  0  0  0  0  0  0  0  0  0  0  0
   -2.6260    2.6476    0.8678 H   0  0  0  0  0  0  0  0  0  0  0  0
   -1.2697    3.3808    0.0311 H   0  0  0  0  0  0  0  0  0  0  0  0
   -0.9309    0.8385   -2.1006 H   0  0  0  0  0  0  0  0  0  0  0  0
   -0.0502    0.7312   -4.2708 H   0  0  0  0  0  0  0  0  0  0  0  0
   -3.4193    4.2072   -3.1446 H   0  0  0  0  0  0  0  0  0  0  0  0
   -2.6802    3.9211   -5.4958 H   0  0  0  0  0  0  0  0  0  0  0  0
    0.2134    1.6459   -6.4071 H   0  0  0  0  0  0  0  0  0  0  0  0
    1.6561    2.6063   -7.8907 H   0  0  0  0  0  0  0  0  0  0  0  0
    1.5515    3.2824   -9.5145 H   0  0  0  0  0  0  0  0  0  0  0  0
    1.2141    4.3044   -8.1030 H   0  0  0  0  0  0  0  0  0  0  0  0
    0.5429    0.4906   -7.8641 H   0  0  0  0  0  0  0  0  0  0  0  0
   -0.2376   -0.4455   -9.0869 H   0  0  0  0  0  0  0  0  0  0  0  0
  1  2  1  0  0  0  0
  2  3  1  0  0  0  0
  2  4  2  0  0  0  0
  3  7  2  0  0  0  0
  3 24  1  0  0  0  0
  4  5  1  0  0  0  0
  4 25  1  0  0  0  0
  5  6  2  0  0  0  0
  5 26  1  0  0  0  0
  6  7  1  0  0  0  0
  6 27  1  0  0  0  0
  7  8  1  0  0  0  0
  8  9  1  0  0  0  0
  8 28  1  0  0  0  0
  8 29  1  0  0  0  0
  9 10  1  0  0  0  0
 10 11  1  0  0  0  0
 10 13  2  0  0  0  0
 11 12  2  0  0  0  0
 11 30  1  0  0  0  0
 12 15  1  0  0  0  0
 12 31  1  0  0  0  0
 13 14  1  0  0  0  0
 13 32  1  0  0  0  0
 14 15  2  0  0  0  0
 14 33  1  0  0  0  0
 15 16  1  0  0  0  0
 16 17  2  0  0  0  0
 16 34  1  0  0  0  0
 17 18  1  0  0  0  0
 18 19  1  0  0  0  0
 18 20  1  0  0  0  0
 18 23  1  6  0  0  0
 19 35  1  0  0  0  0
 19 36  1  0  0  0  0
 19 37  1  0  0  0  0
 20 21  2  0  0  0  0
 20 22  1  0  0  0  0
 22 38  1  0  0  0  0
 22 39  1  0  0  0  0
M  END
>  <DRUGBANK_ID>
DB08516

>  <COMMON_NAME>
(S)-(+)-2-[4-(FLUOROBENZYLOXY-BENZYLAMINO)PROPIONAMIDE]

$$$$
