N2T
 OpenBabel10282417173D

 54 57  0  0  0  0  0  0  0  0999 V2000
    1.3628    0.0174    0.0069 C   0  0  0  0  0  0  0  0  0  0  0  0
    0.6744    1.2329    0.0325 C   0  0  0  0  0  0  0  0  0  0  0  0
   -0.7292    1.2517    0.0833 C   0  0  0  0  0  0  0  0  0  0  0  0
   -1.4000    0.0206    0.0598 C   0  0  0  0  0  0  0  0  0  0  0  0
   -0.7073   -1.1937    0.0223 C   0  0  0  0  0  0  0  0  0  0  0  0
    0.6854   -1.1963    0.0067 C   0  0  0  0  0  0  0  0  0  0  0  0
   -1.4713    2.5161    0.0633 C   0  0  0  0  0  0  0  0  0  0  0  0
   -2.5161    2.9709    1.0465 C   0  0  0  0  0  0  0  0  0  0  0  0
   -3.0028    4.2515    0.4666 N   0  0  0  0  0  0  0  0  0  0  0  0
   -2.3821    4.4832   -0.8438 C   0  0  1  0  0  0  0  0  0  0  0  0
   -1.3690    3.3863   -0.9417 C   0  0  0  0  0  0  0  0  0  0  0  0
   -3.3114    4.5560   -2.0795 C   0  0  0  0  0  0  0  0  0  0  0  0
   -4.4133    5.4044   -2.1147 C   0  0  0  0  0  0  0  0  0  0  0  0
   -5.0124    5.9299   -3.2555 C   0  0  0  0  0  0  0  0  0  0  0  0
   -4.7004    5.3833   -4.4559 C   0  0  0  0  0  0  0  0  0  0  0  0
   -3.7395    4.3826   -4.4756 C   0  0  0  0  0  0  0  0  0  0  0  0
   -3.0380    3.9871   -3.3134 C   0  0  0  0  0  0  0  0  0  0  0  0
   -3.9116    5.0241    1.2014 C   0  0  0  0  0  0  0  0  0  0  0  0
   -4.2788    6.3200    0.7402 N   0  0  0  0  0  0  0  0  0  0  0  0
   -5.6468    6.8741    1.1678 C   0  0  0  0  0  0  0  0  0  0  0  0
   -2.7402   -0.0152    0.0297 F   0  0  0  0  0  0  0  0  0  0  0  0
    2.7025    0.0186   -0.0160 F   0  0  0  0  0  0  0  0  0  0  0  0
   -4.4369    4.5461    2.1936 O   0  0  0  0  0  0  0  0  0  0  0  0
   -6.8303    5.8680    1.0131 C   0  0  0  0  0  0  0  0  0  0  0  0
   -3.3806    7.1985   -0.0464 C   0  0  0  0  0  0  0  0  0  0  0  0
   -6.1143    8.1756    0.4489 C   0  0  0  0  0  0  0  0  0  0  0  0
   -7.2608    5.6224   -0.4281 C   0  0  0  0  0  0  0  0  0  0  0  0
   -6.5496    7.9020   -0.9868 C   0  0  0  0  0  0  0  0  0  0  0  0
   -7.5714    6.8671   -1.1324 N   0  0  0  0  0  0  0  0  0  0  0  0
   -1.7589    5.3799   -0.7469 H   0  0  0  0  0  0  0  0  0  0  0  0
    1.2510    2.1534    0.0164 H   0  0  0  0  0  0  0  0  0  0  0  0
   -1.2614   -2.1275    0.0014 H   0  0  0  0  0  0  0  0  0  0  0  0
    1.2428   -2.1284   -0.0096 H   0  0  0  0  0  0  0  0  0  0  0  0
   -2.0596    3.1643    2.0260 H   0  0  0  0  0  0  0  0  0  0  0  0
   -3.3394    2.2604    1.1561 H   0  0  0  0  0  0  0  0  0  0  0  0
   -0.6785    3.3190   -1.7697 H   0  0  0  0  0  0  0  0  0  0  0  0
   -4.8190    5.7406   -1.1921 H   0  0  0  0  0  0  0  0  0  0  0  0
   -5.7291    6.7407   -3.2179 H   0  0  0  0  0  0  0  0  0  0  0  0
   -5.2529    5.7169   -5.3250 H   0  0  0  0  0  0  0  0  0  0  0  0
   -3.5147    3.9156   -5.4231 H   0  0  0  0  0  0  0  0  0  0  0  0
   -2.2881    3.2117   -3.4006 H   0  0  0  0  0  0  0  0  0  0  0  0
   -5.5410    7.1154    2.2330 H   0  0  0  0  0  0  0  0  0  0  0  0
   -6.6207    4.9054    1.4818 H   0  0  0  0  0  0  0  0  0  0  0  0
   -7.7060    6.2718    1.5398 H   0  0  0  0  0  0  0  0  0  0  0  0
   -2.4458    7.4529    0.4455 H   0  0  0  0  0  0  0  0  0  0  0  0
   -3.0425    6.6941   -0.9284 H   0  0  0  0  0  0  0  0  0  0  0  0
   -3.8746    8.0441   -0.5175 H   0  0  0  0  0  0  0  0  0  0  0  0
   -6.9614    8.6284    0.9781 H   0  0  0  0  0  0  0  0  0  0  0  0
   -5.3297    8.9399    0.4591 H   0  0  0  0  0  0  0  0  0  0  0  0
   -6.5194    5.0217   -0.9469 H   0  0  0  0  0  0  0  0  0  0  0  0
   -8.1377    4.9665   -0.4611 H   0  0  0  0  0  0  0  0  0  0  0  0
   -6.8770    8.8171   -1.4933 H   0  0  0  0  0  0  0  0  0  0  0  0
   -5.6535    7.6292   -1.5206 H   0  0  0  0  0  0  0  0  0  0  0  0
   -7.7056    6.6493   -2.1220 H   0  0  0  0  0  0  0  0  0  0  0  0
  1  2  1  0  0  0  0
  1  6  2  0  0  0  0
  1 22  1  0  0  0  0
  2  3  2  0  0  0  0
  2 31  1  0  0  0  0
  3  4  1  0  0  0  0
  3  7  1  0  0  0  0
  4  5  2  0  0  0  0
  4 21  1  0  0  0  0
  5  6  1  0  0  0  0
  5 32  1  0  0  0  0
  6 33  1  0  0  0  0
  7  8  1  0  0  0  0
  7 11  2  0  0  0  0
  8  9  1  0  0  0  0
  8 34  1  0  0  0  0
  8 35  1  0  0  0  0
  9 10  1  0  0  0  0
  9 18  1  0  0  0  0
 10 11  1  0  0  0  0
 10 12  1  0  0  0  0
 10 30  1  1  0  0  0
 11 36  1  0  0  0  0
 12 13  1  0  0  0  0
 12 17  2  0  0  0  0
 13 14  2  0  0  0  0
 13 37  1  0  0  0  0
 14 15  1  0  0  0  0
 14 38  1  0  0  0  0
 15 16  2  0  0  0  0
 15 39  1  0  0  0  0
 16 17  1  0  0  0  0
 16 40  1  0  0  0  0
 17 41  1  0  0  0  0
 18 19  1  0  0  0  0
 18 23  2  0  0  0  0
 19 20  1  0  0  0  0
 19 25  1  0  0  0  0
 20 24  1  0  0  0  0
 20 26  1  0  0  0  0
 20 42  1  0  0  0  0
 24 27  1  0  0  0  0
 24 43  1  0  0  0  0
 24 44  1  0  0  0  0
 25 45  1  0  0  0  0
 25 46  1  0  0  0  0
 25 47  1  0  0  0  0
 26 28  1  0  0  0  0
 26 48  1  0  0  0  0
 26 49  1  0  0  0  0
 27 29  1  0  0  0  0
 27 50  1  0  0  0  0
 27 51  1  0  0  0  0
 28 29  1  0  0  0  0
 28 52  1  0  0  0  0
 28 53  1  0  0  0  0
 29 54  1  0  0  0  0
M  END
>  <DRUGBANK_ID>
DB08239

>  <COMMON_NAME>
(2S)-4-(2,5-DIFLUOROPHENYL)-N-METHYL-2-PHENYL-N-PIPERIDIN-4-YL-2,5-DIHYDRO-1H-PYRROLE-1-CARBOXAMIDE

$$$$
