
 OpenBabel10282417133D

 11 10  0  0  0  0  0  0  0  0999 V2000
    1.0223    0.1304    0.0477 N   0  0  0  0  0  0  0  0  0  0  0  0
    0.5445   -0.6600   -1.0902 C   0  0  0  0  0  0  0  0  0  0  0  0
    1.0412   -2.1090   -1.0490 C   0  0  0  0  0  0  0  0  0  0  0  0
    0.5698   -2.7754    0.1177 O   0  0  0  0  0  0  0  0  0  0  0  0
    0.6429   -0.2452    0.9142 H   0  0  0  0  0  0  0  0  0  0  0  0
    2.0374    0.0769    0.1102 H   0  0  0  0  0  0  0  0  0  0  0  0
   -0.5507   -0.6431   -1.0804 H   0  0  0  0  0  0  0  0  0  0  0  0
    0.8788   -0.1831   -2.0171 H   0  0  0  0  0  0  0  0  0  0  0  0
    0.6706   -2.6573   -1.9207 H   0  0  0  0  0  0  0  0  0  0  0  0
    2.1353   -2.1542   -1.0584 H   0  0  0  0  0  0  0  0  0  0  0  0
    0.9307   -2.2968    0.8834 H   0  0  0  0  0  0  0  0  0  0  0  0
  1  2  1  0  0  0  0
  1  5  1  0  0  0  0
  1  6  1  0  0  0  0
  2  3  1  0  0  0  0
  2  7  1  0  0  0  0
  2  8  1  0  0  0  0
  3  4  1  0  0  0  0
  3  9  1  0  0  0  0
  3 10  1  0  0  0  0
  4 11  1  0  0  0  0
M  END
>  <DRUGBANK_ID>
DB03994

>  <SECONDARY_ACCESSION_NUMBERS>
EXPT01366

>  <COMMON_NAME>
Ethanolamine

>  <CAS_NUMBER>
141-43-5

>  <UNII>
5KV86114PT

$$$$
