
 OpenBabel10282417123D

 67 70  0  0  0  0  0  0  0  0999 V2000
  -12.4996   -4.5989   21.0450 C   0  0  0  0  0  0  0  0  0  0  0  0
   -6.0903   -3.8087   12.9307 C   0  0  0  0  0  0  0  0  0  0  0  0
   -9.3545   -3.2489   14.3188 C   0  0  0  0  0  0  0  0  0  0  0  0
   -1.2972   -6.0795   13.0079 C   0  0  0  0  0  0  0  0  0  0  0  0
   -6.4983   -3.9816   13.5912 C   0  0  0  0  0  0  0  0  0  0  0  0
   -2.6930   -7.2020   15.5674 C   0  0  0  0  0  0  0  0  0  0  0  0
   -5.2550   -3.2830   14.1172 C   0  0  0  0  0  0  0  0  0  0  0  0
   -2.6606   -6.5519   16.9410 C   0  0  0  0  0  0  0  0  0  0  0  0
  -11.6460   -4.8337   18.6475 C   0  0  0  0  0  0  0  0  0  0  0  0
   -6.3733   -2.3038   10.9707 C   0  0  0  0  0  0  0  0  0  0  0  0
   -9.2804   -3.9763   21.3832 C   0  0  0  0  0  0  0  0  0  0  0  0
  -10.2666   -5.0169   16.6998 C   0  0  0  0  0  0  0  0  0  0  0  0
   -3.5020   -4.0753   11.5481 C   0  0  0  0  0  0  0  0  0  0  0  0
   -5.4451   -6.0815   15.5845 C   0  0  0  0  0  0  0  0  0  0  0  0
  -11.4679   -4.5612   19.9293 C   0  0  0  0  0  0  0  0  0  0  0  0
   -5.6542   -3.1275   11.6437 C   0  0  0  0  0  0  0  0  0  0  0  0
   -8.4929   -4.2569   15.0616 C   0  0  0  0  0  0  0  0  0  0  0  0
   -2.7068   -5.7675   13.4833 C   0  0  0  0  0  0  0  0  0  0  0  0
   -5.7245   -1.8924    9.9016 C   0  0  0  0  0  0  0  0  0  0  0  0
  -10.4554   -4.7911   18.0280 C   0  0  0  0  0  0  0  0  0  0  0  0
   -7.2825   -4.5650   14.7553 C   0  0  0  0  0  0  0  0  0  0  0  0
   -3.3055   -6.2376   14.5648 C   0  0  0  0  0  0  0  0  0  0  0  0
  -10.0097   -4.3300   20.0973 C   0  0  0  0  0  0  0  0  0  0  0  0
   -4.5104   -3.2951   11.0737 C   0  0  0  0  0  0  0  0  0  0  0  0
   -8.8689   -4.9414   16.1072 C   0  0  0  0  0  0  0  0  0  0  0  0
   -3.6951   -4.8717   12.8283 C   0  0  0  0  0  0  0  0  0  0  0  0
   -6.8297   -5.4546   15.5960 C   0  0  0  0  0  0  0  0  0  0  0  0
   -4.5437   -5.7223   14.6309 C   0  0  0  0  0  0  0  0  0  0  0  0
   -4.3873   -4.2850   14.8611 C   0  0  0  0  0  0  0  0  0  0  0  0
   -4.0768   -6.2056   17.3711 C   0  0  0  0  0  0  0  0  0  0  0  0
   -9.4765   -4.4951   18.8983 N   0  0  0  0  0  0  0  0  0  0  0  0
   -4.5314   -2.5003    9.9354 N   0  5  0  0  0  0  0  0  0  0  0  0
   -7.8220   -5.7165   16.4812 N   0  0  0  0  0  0  0  0  0  0  0  0
   -4.7771   -4.9096   13.5877 N   0  0  0  0  0  0  0  0  0  0  0  0
   -3.2001   -4.5123   14.4685 O   0  0  0  0  0  0  0  0  0  0  0  0
   -4.9031   -4.9670   15.9948 O   0  5  0  0  0  0  0  0  0  0  0  0
   -4.5609   -6.7127   18.4311 O   0  0  0  0  0  0  0  0  0  0  0  0
   -4.8588   -5.3153   16.5886 O   0  0  0  0  0  0  0  0  0  0  0  0
    1.0649    0.0626    0.0431 Co  0  0  0  0  0  0  0  0  0  0  0  0
   -9.8276   -3.8697   22.2965 H   0  0  0  0  0  0  0  0  0  0  0  0
  -11.1020   -5.2477   16.0723 H   0  0  0  0  0  0  0  0  0  0  0  0
   -2.5729   -4.1284   11.0200 H   0  0  0  0  0  0  0  0  0  0  0  0
   -5.1792   -6.8052   16.3264 H   0  0  0  0  0  0  0  0  0  0  0  0
  -13.4821   -4.5496   20.6241 H   0  0  0  0  0  0  0  0  0  0  0  0
  -12.3492   -3.7648   21.6982 H   0  0  0  0  0  0  0  0  0  0  0  0
  -12.3937   -5.5087   21.5981 H   0  0  0  0  0  0  0  0  0  0  0  0
   -6.0760   -4.8699   12.7950 H   0  0  0  0  0  0  0  0  0  0  0  0
   -5.4200   -3.5410   13.7206 H   0  0  0  0  0  0  0  0  0  0  0  0
   -7.0817   -3.4946   13.1823 H   0  0  0  0  0  0  0  0  0  0  0  0
   -8.8835   -2.2885   14.3458 H   0  0  0  0  0  0  0  0  0  0  0  0
   -9.4713   -3.5604   13.3018 H   0  0  0  0  0  0  0  0  0  0  0  0
  -10.3153   -3.1882   14.7858 H   0  0  0  0  0  0  0  0  0  0  0  0
   -1.3390   -6.5251   12.0360 H   0  0  0  0  0  0  0  0  0  0  0  0
   -0.7281   -5.1746   12.9612 H   0  0  0  0  0  0  0  0  0  0  0  0
   -0.8322   -6.7584   13.6918 H   0  0  0  0  0  0  0  0  0  0  0  0
   -6.2106   -4.7681   12.9252 H   0  0  0  0  0  0  0  0  0  0  0  0
   -7.1091   -3.2763   13.0675 H   0  0  0  0  0  0  0  0  0  0  0  0
   -3.2815   -8.0947   15.6091 H   0  0  0  0  0  0  0  0  0  0  0  0
   -1.6961   -7.4458   15.2647 H   0  0  0  0  0  0  0  0  0  0  0  0
   -4.7030   -2.8723   13.2977 H   0  0  0  0  0  0  0  0  0  0  0  0
   -5.5427   -2.4965   14.7833 H   0  0  0  0  0  0  0  0  0  0  0  0
   -2.2295   -7.2308   17.6468 H   0  0  0  0  0  0  0  0  0  0  0  0
   -2.0721   -5.6593   16.8994 H   0  0  0  0  0  0  0  0  0  0  0  0
  -12.5839   -5.0520   18.1811 H   0  0  0  0  0  0  0  0  0  0  0  0
   -7.3614   -1.9949   11.2409 H   0  0  0  0  0  0  0  0  0  0  0  0
   -7.7878   -6.3645   17.2681 H   0  0  0  0  0  0  0  0  0  0  0  0
   -5.7904   -5.0874   16.8716 H   0  0  0  0  0  0  0  0  0  0  0  0
  1 44  1  0  0  0  0
  1 45  1  0  0  0  0
  1 46  1  0  0  0  0
  2 47  1  0  0  0  0
  2 48  1  0  0  0  0
  2 49  1  0  0  0  0
  3 50  1  0  0  0  0
  3 51  1  0  0  0  0
  3 52  1  0  0  0  0
  4 53  1  0  0  0  0
  4 54  1  0  0  0  0
  4 55  1  0  0  0  0
  5 56  1  0  0  0  0
  5 57  1  0  0  0  0
  6 58  1  0  0  0  0
  6 59  1  0  0  0  0
  7  5  1  0  0  0  0
  7 60  1  0  0  0  0
  7 61  1  0  0  0  0
  8  6  1  0  0  0  0
  8 62  1  0  0  0  0
  8 63  1  0  0  0  0
  9 64  1  0  0  0  0
 10 65  1  0  0  0  0
 15  1  1  0  0  0  0
 15  9  2  0  0  0  0
 16  2  1  0  0  0  0
 16 10  2  0  0  0  0
 17  3  1  0  0  0  0
 18  4  1  0  0  0  0
 19 10  1  0  0  0  0
 19 11  2  0  0  0  0
 20  9  1  0  0  0  0
 20 12  2  0  0  0  0
 21  5  1  0  0  0  0
 21 17  1  0  0  0  0
 22  6  1  0  0  0  0
 22 18  2  0  0  0  0
 23 11  1  0  0  0  0
 23 15  1  0  0  0  0
 24 13  2  0  0  0  0
 24 16  1  0  0  0  0
 25 12  1  0  0  0  0
 25 17  2  0  0  0  0
 26 13  1  0  0  0  0
 26 18  1  0  0  0  0
 27 14  1  0  0  0  0
 27 21  2  0  0  0  0
 28 14  2  0  0  0  0
 28 22  1  0  0  0  0
 29  7  1  0  0  0  0
 30  8  1  0  0  0  0
 31 20  1  0  0  0  0
 31 23  2  0  0  0  0
 32 19  1  0  0  0  0
 32 24  1  0  0  0  0
 33 25  1  0  0  0  0
 33 27  1  0  0  0  0
 33 66  1  0  0  0  0
 34 26  2  0  0  0  0
 34 28  1  0  0  0  0
 35 29  2  0  0  0  0
 36 29  1  0  0  0  0
 37 30  2  0  0  0  0
 38 30  1  0  0  0  0
 38 67  1  0  0  0  0
 40 11  1  0  0  0  0
 41 12  1  0  0  0  0
 42 13  1  0  0  0  0
 43 14  1  0  0  0  0
M  CHG  3  32  -1  36  -1  39   7
M  END
>  <DRUGBANK_ID>
DB02173

>  <SECONDARY_ACCESSION_NUMBERS>
EXPT01165

>  <COMMON_NAME>
Co(III)-(Deuteroporphyrin IX)

$$$$
