675
 OpenBabel10282417103D

 57 59  0  0  0  0  0  0  0  0999 V2000
    1.0504   -0.1067   -0.3574 O   0  0  0  0  0  0  0  0  0  0  0  0
    2.3298    2.1081    1.3081 N   0  0  0  0  0  0  0  0  0  0  0  0
   -2.0745   -4.8141    0.0622 C   0  0  0  0  0  0  0  0  0  0  0  0
   -3.1686   -5.0042   -0.7601 C   0  0  0  0  0  0  0  0  0  0  0  0
   -1.2991   -3.5051    0.1878 C   0  0  0  0  0  0  0  0  0  0  0  0
   -3.9917   -6.3142   -0.8205 C   0  0  0  0  0  0  0  0  0  0  0  0
   -1.6297   -6.0123    0.8753 C   0  0  0  0  0  0  0  0  0  0  0  0
   -3.7285   -3.9780   -1.7155 C   0  0  0  0  0  0  0  0  0  0  0  0
   -0.0656   -3.4295    0.8398 C   0  0  0  0  0  0  0  0  0  0  0  0
   -1.7448   -2.2973   -0.3584 C   0  0  0  0  0  0  0  0  0  0  0  0
   -5.4197   -6.2609   -0.2954 C   0  0  0  0  0  0  0  0  0  0  0  0
    0.3675   -1.2380   -0.0701 C   0  0  0  0  0  0  0  0  0  0  0  0
    0.7379   -2.2792    0.7789 C   0  0  0  0  0  0  0  0  0  0  0  0
   -0.8701   -1.2633   -0.6492 C   0  0  0  0  0  0  0  0  0  0  0  0
   -1.5805   -5.9210    2.2729 C   0  0  0  0  0  0  0  0  0  0  0  0
   -1.3291   -7.2532    0.2811 C   0  0  0  0  0  0  0  0  0  0  0  0
   -2.9471   -3.3475   -2.7017 C   0  0  0  0  0  0  0  0  0  0  0  0
   -5.0351   -3.4942   -1.5360 C   0  0  0  0  0  0  0  0  0  0  0  0
    2.8185    1.4300    0.0817 C   0  0  0  0  0  0  0  0  0  0  0  0
    2.4250   -0.0487   -0.0280 C   0  0  0  0  0  0  0  0  0  0  0  0
   -1.3403   -7.0512    3.0565 C   0  0  0  0  0  0  0  0  0  0  0  0
   -1.2137   -8.4038    1.0667 C   0  0  0  0  0  0  0  0  0  0  0  0
   -3.4208   -2.1914   -3.3482 C   0  0  0  0  0  0  0  0  0  0  0  0
   -5.5746   -2.4871   -2.3335 C   0  0  0  0  0  0  0  0  0  0  0  0
   -1.2075   -8.3001    2.4544 C   0  0  0  0  0  0  0  0  0  0  0  0
   -4.7429   -1.7829   -3.1879 C   0  0  0  0  0  0  0  0  0  0  0  0
    2.8478    3.4768    1.3474 C   0  0  0  0  0  0  0  0  0  0  0  0
    0.8633    2.1582    1.3726 C   0  0  0  0  0  0  0  0  0  0  0  0
   -3.9733   -6.7018   -1.8463 H   0  0  0  0  0  0  0  0  0  0  0  0
   -3.5603   -7.1085   -0.2181 H   0  0  0  0  0  0  0  0  0  0  0  0
    0.3137   -4.2600    1.4341 H   0  0  0  0  0  0  0  0  0  0  0  0
   -2.7649   -2.1326   -0.6465 H   0  0  0  0  0  0  0  0  0  0  0  0
   -6.0899   -5.7578   -0.9931 H   0  0  0  0  0  0  0  0  0  0  0  0
   -5.8223   -7.2715   -0.1879 H   0  0  0  0  0  0  0  0  0  0  0  0
   -5.4551   -5.7716    0.6842 H   0  0  0  0  0  0  0  0  0  0  0  0
    1.6288   -2.2466    1.3856 H   0  0  0  0  0  0  0  0  0  0  0  0
   -1.1859   -0.4658   -1.3233 H   0  0  0  0  0  0  0  0  0  0  0  0
   -1.7391   -4.9632    2.7633 H   0  0  0  0  0  0  0  0  0  0  0  0
   -1.3165   -7.3556   -0.8028 H   0  0  0  0  0  0  0  0  0  0  0  0
   -1.8976   -3.6140   -2.8222 H   0  0  0  0  0  0  0  0  0  0  0  0
   -5.6509   -3.8359   -0.7125 H   0  0  0  0  0  0  0  0  0  0  0  0
    3.9148    1.4591    0.0828 H   0  0  0  0  0  0  0  0  0  0  0  0
    2.4687    1.9674   -0.8096 H   0  0  0  0  0  0  0  0  0  0  0  0
    2.6854   -0.5582    0.9032 H   0  0  0  0  0  0  0  0  0  0  0  0
    2.9649   -0.5173   -0.8577 H   0  0  0  0  0  0  0  0  0  0  0  0
   -1.3030   -6.9593    4.1380 H   0  0  0  0  0  0  0  0  0  0  0  0
   -1.1739   -9.3824    0.5935 H   0  0  0  0  0  0  0  0  0  0  0  0
   -2.7350   -1.5699   -3.9198 H   0  0  0  0  0  0  0  0  0  0  0  0
   -6.6200   -2.2158   -2.2202 H   0  0  0  0  0  0  0  0  0  0  0  0
   -1.1058   -9.1916    3.0672 H   0  0  0  0  0  0  0  0  0  0  0  0
   -5.1158   -0.8928   -3.6863 H   0  0  0  0  0  0  0  0  0  0  0  0
    2.5076    4.0667    0.4884 H   0  0  0  0  0  0  0  0  0  0  0  0
    2.5217    3.9816    2.2633 H   0  0  0  0  0  0  0  0  0  0  0  0
    3.9424    3.4757    1.3594 H   0  0  0  0  0  0  0  0  0  0  0  0
    0.4288    2.6254    0.4809 H   0  0  0  0  0  0  0  0  0  0  0  0
    0.4265    1.1661    1.5066 H   0  0  0  0  0  0  0  0  0  0  0  0
    0.5329    2.7236    2.2512 H   0  0  0  0  0  0  0  0  0  0  0  0
  1 12  1  0  0  0  0
  1 20  1  0  0  0  0
  2 19  1  0  0  0  0
  2 27  1  0  0  0  0
  2 28  1  0  0  0  0
  3  4  2  0  0  0  0
  3  5  1  0  0  0  0
  3  7  1  0  0  0  0
  4  6  1  0  0  0  0
  4  8  1  0  0  0  0
  5  9  2  0  0  0  0
  5 10  1  0  0  0  0
  6 11  1  0  0  0  0
  6 29  1  0  0  0  0
  6 30  1  0  0  0  0
  7 15  2  0  0  0  0
  7 16  1  0  0  0  0
  8 17  2  0  0  0  0
  8 18  1  0  0  0  0
  9 13  1  0  0  0  0
  9 31  1  0  0  0  0
 10 14  2  0  0  0  0
 10 32  1  0  0  0  0
 11 33  1  0  0  0  0
 11 34  1  0  0  0  0
 11 35  1  0  0  0  0
 12 13  2  0  0  0  0
 12 14  1  0  0  0  0
 13 36  1  0  0  0  0
 14 37  1  0  0  0  0
 15 21  1  0  0  0  0
 15 38  1  0  0  0  0
 16 22  2  0  0  0  0
 16 39  1  0  0  0  0
 17 23  1  0  0  0  0
 17 40  1  0  0  0  0
 18 24  2  0  0  0  0
 18 41  1  0  0  0  0
 19 20  1  0  0  0  0
 19 42  1  0  0  0  0
 19 43  1  0  0  0  0
 20 44  1  0  0  0  0
 20 45  1  0  0  0  0
 21 25  2  0  0  0  0
 21 46  1  0  0  0  0
 22 25  1  0  0  0  0
 22 47  1  0  0  0  0
 23 26  2  0  0  0  0
 23 48  1  0  0  0  0
 24 26  1  0  0  0  0
 24 49  1  0  0  0  0
 25 50  1  0  0  0  0
 26 51  1  0  0  0  0
 27 52  1  0  0  0  0
 27 53  1  0  0  0  0
 27 54  1  0  0  0  0
 28 55  1  0  0  0  0
 28 56  1  0  0  0  0
 28 57  1  0  0  0  0
M  END
>  <DRUGBANK_ID>
DB00675

>  <SECONDARY_ACCESSION_NUMBERS>
APRD00123

>  <COMMON_NAME>
Tamoxifen

>  <CAS_NUMBER>
10540-29-1

>  <UNII>
094ZI81Y45

>  <SYNONYMS>
(Z)-2-(4-(1,2-Diphenyl-1-butenyl)phenoxy)-N,N-dimethylethanamine; (Z)-2-(para-(1,2-Diphenyl-1-butenyl)phenoxy)-N,N-dimethylamine; 1-p-beta-Dimethylaminoethoxyphenyl-trans-1,2-diphenylbut-1-ene; 1-para-beta-Dimethylaminoethoxyphenyl-trans-1,2-diphenylbut-1-ene; Tamoxifen; Tamoxif√®ne; Tamoxifene; Tamoxifeno; Tamoxifenum; trans-Tamoxifen

$$$$
