
 OpenBabel10282417123D

 41 43  0  0  1  0  0  0  0  0999 V2000
   -2.3489   -0.0669    0.0832 C   0  0  0  0  0  0  0  0  0  0  0  0
   -3.1247   -4.4277   -3.6195 C   0  0  0  0  0  0  0  0  0  0  0  0
   -3.1198   -3.0864   -3.2732 C   0  0  0  0  0  0  0  0  0  0  0  0
   -2.6201   -5.3790   -2.7344 C   0  0  0  0  0  0  0  0  0  0  0  0
   -2.5553   -2.7072   -2.0593 C   0  0  0  0  0  0  0  0  0  0  0  0
   -2.1314   -5.0045   -1.4913 C   0  0  0  0  0  0  0  0  0  0  0  0
    0.9115    1.4346    0.7388 C   0  0  0  0  0  0  0  0  0  0  0  0
    0.8969    1.3991   -0.7981 C   0  0  0  0  0  0  0  0  0  0  0  0
    0.4894   -0.9752    1.3303 C   0  0  0  0  0  0  0  0  0  0  0  0
    0.4738   -1.0135   -1.2857 C   0  0  0  0  0  0  0  0  0  0  0  0
   -2.0102   -3.6612   -1.1677 C   0  0  0  0  0  0  0  0  0  0  0  0
   -0.1453    0.4127    1.1686 C   0  0  2  0  0  0  0  0  0  0  0  0
   -0.1788    0.3672   -1.1527 C   0  0  1  0  0  0  0  0  0  0  0  0
    1.1198   -1.5054    0.0231 C   0  0  2  0  0  0  0  0  0  0  0  0
   -1.2163   -3.3105    0.0755 C   0  0  2  0  0  0  0  0  0  0  0  0
    0.2298   -3.8597    0.0952 C   0  0  0  0  0  0  0  0  0  0  0  0
   -1.0347    0.5225    0.0199 N   0  0  0  0  0  0  0  0  0  0  0  0
   -1.9786   -3.5515    1.2474 O   0  0  0  0  0  0  0  0  0  0  0  0
    0.4649   -5.0560    0.1935 O   0  0  0  0  0  0  0  0  0  0  0  0
    1.2563   -2.9561    0.0357 O   0  0  0  0  0  0  0  0  0  0  0  0
   -0.6325    0.7123    2.1021 H   0  0  0  0  0  0  0  0  0  0  0  0
   -0.6867    0.6327   -2.0861 H   0  0  0  0  0  0  0  0  0  0  0  0
    2.1544   -1.1329    0.0085 H   0  0  0  0  0  0  0  0  0  0  0  0
   -1.0880   -2.2598    0.0557 H   0  0  0  0  0  0  0  0  0  0  0  0
   -2.3944   -1.1389    0.1504 H   0  0  0  0  0  0  0  0  0  0  0  0
   -2.9062    0.2491    0.9677 H   0  0  0  0  0  0  0  0  0  0  0  0
   -2.9378    0.2055   -0.7983 H   0  0  0  0  0  0  0  0  0  0  0  0
   -3.5192   -4.7362   -4.5812 H   0  0  0  0  0  0  0  0  0  0  0  0
   -3.5099   -2.3335   -3.9554 H   0  0  0  0  0  0  0  0  0  0  0  0
   -2.5729   -6.4243   -3.0149 H   0  0  0  0  0  0  0  0  0  0  0  0
   -2.5161   -1.6397   -1.8804 H   0  0  0  0  0  0  0  0  0  0  0  0
   -1.7793   -5.7596   -0.7941 H   0  0  0  0  0  0  0  0  0  0  0  0
    0.6312    2.4371    1.0811 H   0  0  0  0  0  0  0  0  0  0  0  0
    1.9039    1.2056    1.1389 H   0  0  0  0  0  0  0  0  0  0  0  0
    1.8810    1.1399   -1.2031 H   0  0  0  0  0  0  0  0  0  0  0  0
    0.6228    2.3850   -1.1896 H   0  0  0  0  0  0  0  0  0  0  0  0
   -0.2468   -1.6626    1.7522 H   0  0  0  0  0  0  0  0  0  0  0  0
    1.2673   -0.9495    2.1052 H   0  0  0  0  0  0  0  0  0  0  0  0
   -0.2487   -1.7217   -1.6721 H   0  0  0  0  0  0  0  0  0  0  0  0
    1.2312   -1.0135   -2.0814 H   0  0  0  0  0  0  0  0  0  0  0  0
   -2.0587   -4.5148    1.3342 H   0  0  0  0  0  0  0  0  0  0  0  0
  1 25  1  0  0  0  0
  1 26  1  0  0  0  0
  1 27  1  0  0  0  0
  2 28  1  0  0  0  0
  3  2  2  0  0  0  0
  3 29  1  0  0  0  0
  4  2  1  0  0  0  0
  4 30  1  0  0  0  0
  5  3  1  0  0  0  0
  5 31  1  0  0  0  0
  6  4  2  0  0  0  0
  6 32  1  0  0  0  0
  7 33  1  0  0  0  0
  7 34  1  0  0  0  0
  8  7  1  0  0  0  0
  8 35  1  0  0  0  0
  8 36  1  0  0  0  0
  9 37  1  0  0  0  0
  9 38  1  0  0  0  0
 10 39  1  0  0  0  0
 10 40  1  0  0  0  0
 11  5  2  0  0  0  0
 11  6  1  0  0  0  0
 12  7  1  0  0  0  0
 12  9  1  0  0  0  0
 12 21  1  1  0  0  0
 13  8  1  0  0  0  0
 13 10  1  0  0  0  0
 13 22  1  6  0  0  0
 14  9  1  0  0  0  0
 14 10  1  0  0  0  0
 14 20  1  0  0  0  0
 14 23  1  6  0  0  0
 15 11  1  0  0  0  0
 15 18  1  0  0  0  0
 15 24  1  6  0  0  0
 16 15  1  0  0  0  0
 17  1  1  0  0  0  0
 17 12  1  0  0  0  0
 17 13  1  0  0  0  0
 18 41  1  0  0  0  0
 19 16  2  0  0  0  0
 20 16  1  0  0  0  0
M  END
>  <DRUGBANK_ID>
DB02161

>  <SECONDARY_ACCESSION_NUMBERS>
EXPT01792

>  <COMMON_NAME>
Hydroxy-Phenyl-Acetic Acid 8-Methyl-8-Aza-Bicyclo[3.2.1]Oct-3-Yl Ester

$$$$
