B34
 OpenBabel10282417163D

 48 51  0  0  0  0  0  0  0  0999 V2000
    1.8344   -0.6601    1.2684 O   0  0  0  0  0  0  0  0  0  0  0  0
    1.3476   -0.1988   -0.0119 S   0  0  0  0  0  0  0  0  0  0  0  0
    1.7918   -0.7597   -1.2697 O   0  0  0  0  0  0  0  0  0  0  0  0
   -0.3902   -0.3113    0.0242 C   0  0  0  0  0  0  0  0  0  0  0  0
   -1.1763   -1.4504   -0.0050 C   0  0  0  0  0  0  0  0  0  0  0  0
   -2.5590   -1.2601   -0.0110 C   0  0  0  0  0  0  0  0  0  0  0  0
    1.4043    1.4475   -0.0941 N   0  0  0  0  0  0  0  0  0  0  0  0
    0.2034    1.9494   -0.0220 C   0  0  0  0  0  0  0  0  0  0  0  0
   -0.9052    0.9760    0.0391 C   0  0  0  0  0  0  0  0  0  0  0  0
   -2.2742    1.1704    0.0278 C   0  0  0  0  0  0  0  0  0  0  0  0
   -3.1018    0.0390    0.0066 C   0  0  0  0  0  0  0  0  0  0  0  0
   -0.0727    3.3955   -0.0530 C   0  0  0  0  0  0  0  0  0  0  0  0
   -0.7466    4.1939    0.9990 C   0  0  0  0  0  0  0  0  0  0  0  0
   -1.2506    3.7164    1.9788 O   0  0  0  0  0  0  0  0  0  0  0  0
   -0.7035    5.5444    0.6259 N   0  0  0  0  0  0  0  0  0  0  0  0
   -0.1249    5.7118   -0.7343 C   0  0  1  0  0  0  0  0  0  0  0  0
    1.1600    6.5948   -0.8702 C   0  0  0  0  0  0  0  0  0  0  0  0
    1.9799    6.5375    0.4411 C   0  0  0  0  0  0  0  0  0  0  0  0
    0.9896    7.9416   -1.6655 C   0  0  0  0  0  0  0  0  0  0  0  0
    0.2493    4.2543   -1.0266 C   0  0  0  0  0  0  0  0  0  0  0  0
    0.8951    3.9483   -2.2051 O   0  0  0  0  0  0  0  0  0  0  0  0
   -1.4185    6.5668    1.4531 C   0  0  0  0  0  0  0  0  0  0  0  0
   -0.5898    7.7485    1.9457 C   0  0  0  0  0  0  0  0  0  0  0  0
   -0.1048    7.9924    3.2268 C   0  0  0  0  0  0  0  0  0  0  0  0
    0.8278    9.0361    3.4477 C   0  0  0  0  0  0  0  0  0  0  0  0
   -0.1600    8.6238    0.9641 C   0  0  0  0  0  0  0  0  0  0  0  0
    0.9275    9.4950    1.1176 C   0  0  0  0  0  0  0  0  0  0  0  0
    1.4151    9.7229    2.3840 C   0  0  0  0  0  0  0  0  0  0  0  0
   -0.9120    6.0136   -1.4364 H   0  0  0  0  0  0  0  0  0  0  0  0
   -0.7453   -2.4470   -0.0275 H   0  0  0  0  0  0  0  0  0  0  0  0
   -3.2282   -2.1195   -0.0313 H   0  0  0  0  0  0  0  0  0  0  0  0
   -2.7126    2.1620    0.0329 H   0  0  0  0  0  0  0  0  0  0  0  0
   -4.1834    0.1658    0.0004 H   0  0  0  0  0  0  0  0  0  0  0  0
    1.8360    6.0932   -1.5736 H   0  0  0  0  0  0  0  0  0  0  0  0
    2.2361    5.4992    0.6843 H   0  0  0  0  0  0  0  0  0  0  0  0
    2.8849    7.1414    0.4113 H   0  0  0  0  0  0  0  0  0  0  0  0
    1.4508    6.8314    1.3365 H   0  0  0  0  0  0  0  0  0  0  0  0
    0.2587    8.7017   -1.3943 H   0  0  0  0  0  0  0  0  0  0  0  0
    1.9342    8.4928   -1.6885 H   0  0  0  0  0  0  0  0  0  0  0  0
    0.6598    7.7377   -2.6893 H   0  0  0  0  0  0  0  0  0  0  0  0
    1.2520    3.0386   -2.1632 H   0  0  0  0  0  0  0  0  0  0  0  0
   -2.2440    6.9435    0.8346 H   0  0  0  0  0  0  0  0  0  0  0  0
   -1.8754    6.0751    2.3172 H   0  0  0  0  0  0  0  0  0  0  0  0
   -0.4000    7.3642    4.0605 H   0  0  0  0  0  0  0  0  0  0  0  0
    1.1434    9.2856    4.4557 H   0  0  0  0  0  0  0  0  0  0  0  0
   -0.6186    8.4041    0.0199 H   0  0  0  0  0  0  0  0  0  0  0  0
    1.4402    9.9208    0.2554 H   0  0  0  0  0  0  0  0  0  0  0  0
    2.2467   10.4093    2.5286 H   0  0  0  0  0  0  0  0  0  0  0  0
  2  1  2  0  0  0  0
  2  3  2  0  0  0  0
  2  4  1  0  0  0  0
  4  5  1  0  0  0  0
  5  6  2  0  0  0  0
  5 30  1  0  0  0  0
  6 31  1  0  0  0  0
  7  2  1  0  0  0  0
  8  7  2  0  0  0  0
  8  9  1  0  0  0  0
  9  4  2  0  0  0  0
  9 10  1  0  0  0  0
 10 11  2  0  0  0  0
 10 32  1  0  0  0  0
 11  6  1  0  0  0  0
 11 33  1  0  0  0  0
 12  8  1  0  0  0  0
 13 12  1  0  0  0  0
 13 14  2  0  0  0  0
 15 13  1  0  0  0  0
 16 15  1  0  0  0  0
 16 20  1  0  0  0  0
 16 17  1  0  0  0  0
 16 29  1  6  0  0  0
 17 19  1  0  0  0  0
 17 34  1  0  0  0  0
 18 17  1  0  0  0  0
 18 35  1  0  0  0  0
 18 36  1  0  0  0  0
 18 37  1  0  0  0  0
 19 38  1  0  0  0  0
 19 39  1  0  0  0  0
 19 40  1  0  0  0  0
 20 12  2  0  0  0  0
 20 21  1  0  0  0  0
 21 41  1  0  0  0  0
 22 15  1  0  0  0  0
 22 42  1  0  0  0  0
 22 43  1  0  0  0  0
 23 22  1  0  0  0  0
 23 26  1  0  0  0  0
 24 23  2  0  0  0  0
 24 44  1  0  0  0  0
 25 24  1  0  0  0  0
 25 28  2  0  0  0  0
 25 45  1  0  0  0  0
 26 46  1  0  0  0  0
 27 26  2  0  0  0  0
 27 47  1  0  0  0  0
 28 27  1  0  0  0  0
 28 48  1  0  0  0  0
M  END
>  <DRUGBANK_ID>
DB07414

>  <COMMON_NAME>
(5S)-1-benzyl-3-(1,1-dioxido-1,2-benzisothiazol-3-yl)-4-hydroxy-5-(1-methylethyl)-1,5-dihydro-2H-pyrrol-2-one

$$$$
