
 OpenBabel10282417153D

 80 86  0  0  1  0  0  0  0  0999 V2000
   -2.6630  -14.2596   -0.6784 C   0  0  0  0  0  0  0  0  0  0  0  0
   -1.6931  -15.2248   -0.0303 C   0  0  0  0  0  0  0  0  0  0  0  0
   -2.3739  -16.1309    0.8879 N   0  0  0  0  0  0  0  0  0  0  0  0
   -1.5033  -17.2424    1.2900 C   0  0  0  0  0  0  0  0  0  0  0  0
   -0.3521  -16.8867    2.2157 C   0  0  0  0  0  0  0  0  0  0  0  0
   -3.0121  -15.4414    2.0327 C   0  0  0  0  0  0  0  0  0  0  0  0
   -2.1107  -14.6064    3.0602 C   0  0  0  0  0  0  0  0  0  0  0  0
   -1.1185  -13.5918    2.5450 N   0  0  0  0  0  0  0  0  0  0  0  0
   -1.6806  -12.6161    1.7672 C   0  0  0  0  0  0  0  0  0  0  0  0
   -2.8513  -12.4816    1.5671 O   0  0  0  0  0  0  0  0  0  0  0  0
   -0.5776  -11.8184    1.3738 C   0  0  0  0  0  0  0  0  0  0  0  0
   -0.7528  -10.7544    0.4895 C   0  0  0  0  0  0  0  0  0  0  0  0
   -1.8693  -10.3737   -0.3307 C   0  0  0  0  0  0  0  0  0  0  0  0
   -3.0970  -10.8875   -0.7911 C   0  0  0  0  0  0  0  0  0  0  0  0
   -3.9691  -10.2215   -1.6590 C   0  0  0  0  0  0  0  0  0  0  0  0
   -3.6877   -8.9621   -2.0939 C   0  0  0  0  0  0  0  0  0  0  0  0
   -2.5012   -8.3608   -1.7026 C   0  0  0  0  0  0  0  0  0  0  0  0
   -1.5744   -9.0927   -0.8222 C   0  0  0  0  0  0  0  0  0  0  0  0
   -0.3342   -8.8835   -0.2366 N   0  0  0  0  0  0  0  0  0  0  0  0
    0.2022   -9.8404    0.5978 C   0  0  0  0  0  0  0  0  0  0  0  0
    1.3304   -9.9385    1.4381 C   0  0  0  0  0  0  0  0  0  0  0  0
    1.7927  -11.0833    2.0955 C   0  0  0  0  0  0  0  0  0  0  0  0
    0.6688  -12.1311    2.0997 C   0  0  0  0  0  0  0  0  0  0  0  0
    0.2852  -13.4091    2.7762 C   0  0  0  0  0  0  0  0  0  0  0  0
    0.9715  -14.2281    3.3781 O   0  0  0  0  0  0  0  0  0  0  0  0
    3.1526  -10.7098    2.7641 C   0  0  0  0  0  0  0  0  0  0  0  0
    4.5235  -10.9858    3.3032 C   0  0  0  0  0  0  0  0  0  0  0  0
    5.3065   -9.9760    4.0444 C   0  0  0  0  0  0  0  0  0  0  0  0
    4.6690   -8.8566    4.5338 C   0  0  0  0  0  0  0  0  0  0  0  0
    3.4442   -8.5572    3.9810 C   0  0  0  0  0  0  0  0  0  0  0  0
    2.9061   -9.3393    2.9398 C   0  0  0  0  0  0  0  0  0  0  0  0
    2.1725   -8.9403    1.8430 N   0  0  0  0  0  0  0  0  0  0  0  0
    2.3348   -7.6214    1.2575 C   0  0  1  0  0  0  0  0  0  0  0  0
    3.5592   -7.5844    0.3481 C   0  0  1  0  0  0  0  0  0  0  0  0
    3.5327   -6.2993   -0.4902 C   0  0  2  0  0  0  0  0  0  0  0  0
    2.1734   -6.0142   -1.1425 C   0  0  1  0  0  0  0  0  0  0  0  0
    1.0790   -6.1434   -0.1054 C   0  0  2  0  0  0  0  0  0  0  0  0
    1.1754   -7.3815    0.5193 O   0  0  0  0  0  0  0  0  0  0  0  0
   -0.2593   -6.0264   -0.8167 C   0  0  0  0  0  0  0  0  0  0  0  0
   -1.3150   -6.0958    0.1436 O   0  0  0  0  0  0  0  0  0  0  0  0
    2.0832   -4.7021   -1.7099 O   0  0  0  0  0  0  0  0  0  0  0  0
    1.8280   -3.6948   -0.7248 C   0  0  0  0  0  0  0  0  0  0  0  0
    4.5596   -6.3514   -1.4818 O   0  0  0  0  0  0  0  0  0  0  0  0
    4.7719   -7.6142    1.1099 O   0  0  0  0  0  0  0  0  0  0  0  0
    2.4853   -7.2937    4.6469 Cl  0  0  0  0  0  0  0  0  0  0  0  0
   -2.4355   -6.8032   -2.4844 Cl  0  0  0  0  0  0  0  0  0  0  0  0
   -3.2722  -14.6963   -1.4668 H   0  0  0  0  0  0  0  0  0  0  0  0
   -2.0901  -13.4190   -1.0749 H   0  0  0  0  0  0  0  0  0  0  0  0
   -3.4045  -13.8839    0.0215 H   0  0  0  0  0  0  0  0  0  0  0  0
   -1.1536  -15.7406   -0.8306 H   0  0  0  0  0  0  0  0  0  0  0  0
   -0.9053  -14.6930    0.4980 H   0  0  0  0  0  0  0  0  0  0  0  0
   -2.1200  -18.0163    1.7603 H   0  0  0  0  0  0  0  0  0  0  0  0
   -1.0802  -17.7011    0.3891 H   0  0  0  0  0  0  0  0  0  0  0  0
   -0.7011  -16.6944    3.2247 H   0  0  0  0  0  0  0  0  0  0  0  0
    0.3452  -17.7098    2.3499 H   0  0  0  0  0  0  0  0  0  0  0  0
    0.2053  -16.0290    1.8346 H   0  0  0  0  0  0  0  0  0  0  0  0
   -3.8487  -14.8160    1.6799 H   0  0  0  0  0  0  0  0  0  0  0  0
   -3.5823  -16.2130    2.5794 H   0  0  0  0  0  0  0  0  0  0  0  0
   -2.8336  -14.0762    3.6972 H   0  0  0  0  0  0  0  0  0  0  0  0
   -1.6243  -15.2730    3.7547 H   0  0  0  0  0  0  0  0  0  0  0  0
   -3.4242  -11.8658   -0.5093 H   0  0  0  0  0  0  0  0  0  0  0  0
   -4.8726  -10.7093   -1.9995 H   0  0  0  0  0  0  0  0  0  0  0  0
   -4.3834   -8.4500   -2.7621 H   0  0  0  0  0  0  0  0  0  0  0  0
    0.1453   -8.0287   -0.2706 H   0  0  0  0  0  0  0  0  0  0  0  0
    5.1149  -11.8929    3.1249 H   0  0  0  0  0  0  0  0  0  0  0  0
    6.3690  -10.0791    4.3221 H   0  0  0  0  0  0  0  0  0  0  0  0
    5.0917   -8.2248    5.3168 H   0  0  0  0  0  0  0  0  0  0  0  0
    2.3784   -6.8856    2.0584 H   0  0  0  0  0  0  0  0  0  0  0  0
    3.5735   -8.4600   -0.3163 H   0  0  0  0  0  0  0  0  0  0  0  0
    3.7845   -5.4680    0.1696 H   0  0  0  0  0  0  0  0  0  0  0  0
    2.0381   -6.7485   -1.9600 H   0  0  0  0  0  0  0  0  0  0  0  0
    1.0848   -5.4509    0.7284 H   0  0  0  0  0  0  0  0  0  0  0  0
   -0.4088   -5.1123   -1.3875 H   0  0  0  0  0  0  0  0  0  0  0  0
   -0.2800   -6.8224   -1.5746 H   0  0  0  0  0  0  0  0  0  0  0  0
   -1.4561   -6.9991    0.4779 H   0  0  0  0  0  0  0  0  0  0  0  0
    0.8543   -3.8231   -0.2356 H   0  0  0  0  0  0  0  0  0  0  0  0
    2.6040   -3.7202    0.0420 H   0  0  0  0  0  0  0  0  0  0  0  0
    1.7635   -2.7268   -1.2023 H   0  0  0  0  0  0  0  0  0  0  0  0
    4.4742   -7.1897   -1.9693 H   0  0  0  0  0  0  0  0  0  0  0  0
    4.7082   -6.9468    1.8164 H   0  0  0  0  0  0  0  0  0  0  0  0
  1  2  1  0  0  0  0
  1 47  1  0  0  0  0
  1 48  1  0  0  0  0
  1 49  1  0  0  0  0
  2  3  1  0  0  0  0
  2 50  1  0  0  0  0
  2 51  1  0  0  0  0
  3  4  1  0  0  0  0
  3  6  1  0  0  0  0
  4  5  1  0  0  0  0
  4 52  1  0  0  0  0
  4 53  1  0  0  0  0
  5 54  1  0  0  0  0
  5 55  1  0  0  0  0
  5 56  1  0  0  0  0
  6  7  1  0  0  0  0
  6 57  1  0  0  0  0
  6 58  1  0  0  0  0
  7  8  1  0  0  0  0
  7 59  1  0  0  0  0
  7 60  1  0  0  0  0
  8  9  1  0  0  0  0
  8 24  1  0  0  0  0
  9 10  2  0  0  0  0
  9 11  1  0  0  0  0
 11 12  1  0  0  0  0
 11 23  2  0  0  0  0
 12 13  1  0  0  0  0
 12 20  2  0  0  0  0
 13 14  1  0  0  0  0
 13 18  2  0  0  0  0
 14 15  2  0  0  0  0
 14 61  1  0  0  0  0
 15 16  1  0  0  0  0
 15 62  1  0  0  0  0
 16 17  2  0  0  0  0
 16 63  1  0  0  0  0
 17 18  1  0  0  0  0
 17 46  1  0  0  0  0
 18 19  1  0  0  0  0
 19 20  1  0  0  0  0
 19 64  1  0  0  0  0
 20 21  1  0  0  0  0
 21 22  2  0  0  0  0
 21 32  1  0  0  0  0
 22 23  1  0  0  0  0
 22 26  1  0  0  0  0
 23 24  1  0  0  0  0
 24 25  2  0  0  0  0
 26 27  2  0  0  0  0
 26 31  1  0  0  0  0
 27 28  1  0  0  0  0
 27 65  1  0  0  0  0
 28 29  2  0  0  0  0
 28 66  1  0  0  0  0
 29 30  1  0  0  0  0
 29 67  1  0  0  0  0
 30 31  2  0  0  0  0
 30 45  1  0  0  0  0
 31 32  1  0  0  0  0
 33 34  1  0  0  0  0
 33 38  1  0  0  0  0
 33 68  1  1  0  0  0
 33 32  1  0  0  0  0
 34 35  1  0  0  0  0
 34 44  1  0  0  0  0
 34 69  1  6  0  0  0
 35 36  1  0  0  0  0
 35 43  1  0  0  0  0
 35 70  1  1  0  0  0
 36 37  1  0  0  0  0
 36 71  1  6  0  0  0
 36 41  1  0  0  0  0
 37 38  1  0  0  0  0
 37 39  1  0  0  0  0
 37 72  1  1  0  0  0
 39 40  1  0  0  0  0
 39 73  1  0  0  0  0
 39 74  1  0  0  0  0
 40 75  1  0  0  0  0
 41 42  1  0  0  0  0
 42 76  1  0  0  0  0
 42 77  1  0  0  0  0
 42 78  1  0  0  0  0
 43 79  1  0  0  0  0
 44 80  1  0  0  0  0
M  END
>  <DRUGBANK_ID>
DB06362

>  <COMMON_NAME>
Becatecarin

>  <CAS_NUMBER>
119673-08-4

>  <UNII>
A60X6MBU6G

>  <SYNONYMS>
6-(2-(DIETHYLAMINO)ETHYL)-REBECCAMYCIN; Becatecarin; DEAE-rebeccamycin

$$$$
