
 OpenBabel10282417243D

 53 56  0  0  0  0  0  0  0  0999 V2000
   -2.0899   -0.0558   -0.0576 C   0  0  0  0  0  0  0  0  0  0  0  0
   -0.6484   -0.0842    0.0192 N   0  0  0  0  0  0  0  0  0  0  0  0
    0.1608   -1.1877    0.0302 C   0  0  0  0  0  0  0  0  0  0  0  0
    1.4551   -0.7115    0.0208 C   0  0  0  0  0  0  0  0  0  0  0  0
    1.3103    0.6930    0.0063 C   0  0  0  0  0  0  0  0  0  0  0  0
    0.0317    1.0776    0.0173 N   0  0  0  0  0  0  0  0  0  0  0  0
    2.6586   -1.5106   -0.0656 C   0  0  0  0  0  0  0  0  0  0  0  0
    2.8462   -2.3762   -1.1473 C   0  0  0  0  0  0  0  0  0  0  0  0
    4.0492   -3.0704   -1.3044 C   0  0  0  0  0  0  0  0  0  0  0  0
    5.0861   -2.8885   -0.3879 C   0  0  0  0  0  0  0  0  0  0  0  0
    4.9224   -1.9952    0.6794 C   0  0  0  0  0  0  0  0  0  0  0  0
    3.6949   -1.3426    0.8611 C   0  0  0  0  0  0  0  0  0  0  0  0
    6.5987   -3.8220   -0.4714 S   0  0  0  0  0  0  0  0  0  0  0  0
    7.6797   -2.9133   -0.7706 O   0  0  0  0  0  0  0  0  0  0  0  0
    6.6157   -4.7070    0.6865 O   0  0  0  0  0  0  0  0  0  0  0  0
    6.4970   -4.8494   -1.8316 N   0  0  0  0  0  0  0  0  0  0  0  0
    6.4105   -4.4108   -3.1305 C   0  0  0  0  0  0  0  0  0  0  0  0
    6.3130   -5.5194   -3.9421 C   0  0  0  0  0  0  0  0  0  0  0  0
    6.4957   -6.6451   -3.1182 C   0  0  0  0  0  0  0  0  0  0  0  0
    6.6276   -7.9962   -3.5228 C   0  0  0  0  0  0  0  0  0  0  0  0
    6.2136   -8.5569   -4.6705 C   0  0  0  0  0  0  0  0  0  0  0  0
    6.1353  -10.0262   -4.9547 C   0  0  0  0  0  0  0  0  0  0  0  0
    6.0123  -10.3795   -6.1293 O   0  0  0  0  0  0  0  0  0  0  0  0
    6.2147  -10.9736   -3.9652 N   0  0  0  0  0  0  0  0  0  0  0  0
    6.1572  -10.8241   -2.5647 C   0  0  0  0  0  0  0  0  0  0  0  0
    5.2457   -9.9256   -1.9849 C   0  0  0  0  0  0  0  0  0  0  0  0
    5.3617   -9.5677   -0.6461 C   0  0  0  0  0  0  0  0  0  0  0  0
    6.2608  -10.2488    0.1620 C   0  0  0  0  0  0  0  0  0  0  0  0
    7.0607  -11.2637   -0.3785 C   0  0  0  0  0  0  0  0  0  0  0  0
    7.1032  -11.4898   -1.7608 C   0  0  0  0  0  0  0  0  0  0  0  0
    7.9951  -12.4443   -2.2860 N   0  0  0  0  0  0  0  0  0  0  0  0
    6.5245   -6.2196   -1.8001 C   0  0  0  0  0  0  0  0  0  0  0  0
   -2.4759    0.5375    0.7754 H   0  0  0  0  0  0  0  0  0  0  0  0
   -2.3722    0.3994   -1.0111 H   0  0  0  0  0  0  0  0  0  0  0  0
   -2.4794   -1.0749   -0.0027 H   0  0  0  0  0  0  0  0  0  0  0  0
   -0.2462   -2.1891    0.0285 H   0  0  0  0  0  0  0  0  0  0  0  0
    2.0865    1.4458   -0.0402 H   0  0  0  0  0  0  0  0  0  0  0  0
    2.0622   -2.5052   -1.8907 H   0  0  0  0  0  0  0  0  0  0  0  0
    4.1337   -3.7301   -2.1592 H   0  0  0  0  0  0  0  0  0  0  0  0
    5.7387   -1.8015    1.3741 H   0  0  0  0  0  0  0  0  0  0  0  0
    3.5511   -0.7064    1.7330 H   0  0  0  0  0  0  0  0  0  0  0  0
    6.4071   -3.3592   -3.3741 H   0  0  0  0  0  0  0  0  0  0  0  0
    6.2045   -5.5265   -5.0182 H   0  0  0  0  0  0  0  0  0  0  0  0
    7.0652   -8.6176   -2.7552 H   0  0  0  0  0  0  0  0  0  0  0  0
    5.8862   -7.9455   -5.5064 H   0  0  0  0  0  0  0  0  0  0  0  0
    6.3366  -11.9219   -4.3016 H   0  0  0  0  0  0  0  0  0  0  0  0
    4.5260   -9.3946   -2.6037 H   0  0  0  0  0  0  0  0  0  0  0  0
    4.7734   -8.7413   -0.2544 H   0  0  0  0  0  0  0  0  0  0  0  0
    6.3398   -9.9889    1.2146 H   0  0  0  0  0  0  0  0  0  0  0  0
    7.6912  -11.8385    0.2934 H   0  0  0  0  0  0  0  0  0  0  0  0
    8.7919  -12.6416   -1.6839 H   0  0  0  0  0  0  0  0  0  0  0  0
    8.2912  -12.2495   -3.2395 H   0  0  0  0  0  0  0  0  0  0  0  0
    6.6050   -6.7610   -0.8618 H   0  0  0  0  0  0  0  0  0  0  0  0
  1  2  1  0  0  0  0
  1 33  1  0  0  0  0
  1 34  1  0  0  0  0
  1 35  1  0  0  0  0
  2  3  1  0  0  0  0
  2  6  1  0  0  0  0
  3  4  2  0  0  0  0
  3 36  1  0  0  0  0
  4  5  1  0  0  0  0
  4  7  1  0  0  0  0
  5  6  2  0  0  0  0
  5 37  1  0  0  0  0
  7  8  2  0  0  0  0
  7 12  1  0  0  0  0
  8  9  1  0  0  0  0
  8 38  1  0  0  0  0
  9 10  2  0  0  0  0
  9 39  1  0  0  0  0
 10 11  1  0  0  0  0
 10 13  1  0  0  0  0
 11 12  2  0  0  0  0
 11 40  1  0  0  0  0
 12 41  1  0  0  0  0
 13 14  2  0  0  0  0
 13 15  2  0  0  0  0
 13 16  1  0  0  0  0
 16 17  1  0  0  0  0
 16 32  1  0  0  0  0
 17 18  2  0  0  0  0
 17 42  1  0  0  0  0
 18 19  1  0  0  0  0
 18 43  1  0  0  0  0
 19 20  1  0  0  0  0
 19 32  2  0  0  0  0
 20 21  2  0  0  0  0
 20 44  1  0  0  0  0
 21 22  1  0  0  0  0
 21 45  1  0  0  0  0
 22 23  2  0  0  0  0
 22 24  1  0  0  0  0
 24 25  1  0  0  0  0
 24 46  1  0  0  0  0
 25 26  2  0  0  0  0
 25 30  1  0  0  0  0
 26 27  1  0  0  0  0
 26 47  1  0  0  0  0
 27 28  2  0  0  0  0
 27 48  1  0  0  0  0
 28 29  1  0  0  0  0
 28 49  1  0  0  0  0
 29 30  2  0  0  0  0
 29 50  1  0  0  0  0
 30 31  1  0  0  0  0
 31 51  1  0  0  0  0
 31 52  1  0  0  0  0
 32 53  1  0  0  0  0
M  END
>  <DRUGBANK_ID>
DB17521

>  <COMMON_NAME>
Domatinostat

>  <CAS_NUMBER>
910462-43-0

>  <UNII>
264ARM7UXX

>  <SYNONYMS>
(e)-n-(2-aminophenyl)-3-(1-((4-(1-methyl-1h-pyrazol-4-yl)phenyl)sulfonyl)-1h-pyrrol-3-yl)acrylamide; 2-propenamide, n-(2-aminophenyl)-3-(1-((4-(1-methyl-1h-pyrazol-4-yl)phenyl)sulfonyl)-1h-pyrrol-3-yl)-, (2e)-; Hdac inhibitor 4sc-202

$$$$
