
 OpenBabel10282417223D

 36 38  0  0  0  0  0  0  0  0999 V2000
   -5.8484   -1.0983   -1.5857 N   0  0  0  0  0  0  0  0  0  0  0  0
   -4.9806   -0.0979   -0.9800 C   0  0  2  0  0  0  0  0  0  0  0  0
   -6.4672   -0.6802   -2.7501 C   0  0  0  0  0  0  0  0  0  0  0  0
   -4.8597   -2.0385   -1.7269 C   0  0  0  0  0  0  0  0  0  0  0  0
   -6.1573    0.5683   -3.1884 C   0  0  0  0  0  0  0  0  0  0  0  0
   -5.0323    1.3584   -2.0567 S   0  0  0  0  0  0  0  0  0  0  0  0
   -3.7997   -1.0505   -1.2501 C   0  0  2  0  0  0  0  0  0  0  0  0
  -10.0012   -0.5305   -6.0535 S   0  3  2  0  0  0  0  0  0  0  0  0
   -7.3168   -1.7604   -3.2754 C   0  0  0  0  0  0  0  0  0  0  0  0
   -6.5024    1.5690   -4.5711 S   0  0  0  0  0  0  0  0  0  0  0  0
   -4.8290   -3.1083   -2.2849 O   0  0  0  0  0  0  0  0  0  0  0  0
   -9.0911    0.6668   -4.9739 C   0  0  0  0  0  0  0  0  0  0  0  0
   -7.7554    0.8811   -5.6810 C   0  0  2  0  0  0  0  0  0  0  0  0
  -10.5653   -1.6267   -5.0677 O   0  5  0  0  0  0  0  0  0  0  0  0
   -2.9688   -1.4588   -0.0599 C   0  0  2  0  0  0  0  0  0  0  0  0
   -7.6534   -2.8212   -2.7735 O   0  0  0  0  0  0  0  0  0  0  0  0
   -8.4353   -1.2742   -6.8056 C   0  0  0  0  0  0  0  0  0  0  0  0
   -7.2591   -0.3258   -6.5187 C   0  0  0  0  0  0  0  0  0  0  0  0
   -7.8547   -1.4150   -4.3911 O   0  0  0  0  0  0  0  0  0  0  0  0
   -1.7381   -0.7436   -0.1298 O   0  0  0  0  0  0  0  0  0  0  0  0
   -2.6643   -2.9487   -0.0740 C   0  0  0  0  0  0  0  0  0  0  0  0
   -5.2718    0.0787    0.0606 H   0  0  0  0  0  0  0  0  0  0  0  0
   -3.1715   -0.7563   -2.1037 H   0  0  0  0  0  0  0  0  0  0  0  0
   -9.0305    0.2883   -3.9417 H   0  0  0  0  0  0  0  0  0  0  0  0
   -9.6745    1.5855   -4.8389 H   0  0  0  0  0  0  0  0  0  0  0  0
   -7.9587    1.6600   -6.4276 H   0  0  0  0  0  0  0  0  0  0  0  0
   -3.4463   -1.2023    0.8906 H   0  0  0  0  0  0  0  0  0  0  0  0
   -8.6070   -1.4760   -7.8642 H   0  0  0  0  0  0  0  0  0  0  0  0
   -8.2626   -2.2788   -6.3760 H   0  0  0  0  0  0  0  0  0  0  0  0
   -6.8051   -0.0016   -7.4625 H   0  0  0  0  0  0  0  0  0  0  0  0
   -6.4243   -0.8629   -6.0359 H   0  0  0  0  0  0  0  0  0  0  0  0
   -8.6593   -1.9819   -4.4523 H   0  0  0  0  0  0  0  0  0  0  0  0
   -1.9249    0.1918    0.0604 H   0  0  0  0  0  0  0  0  0  0  0  0
   -1.9323   -3.2002    0.6972 H   0  0  0  0  0  0  0  0  0  0  0  0
   -3.5733   -3.5324    0.1114 H   0  0  0  0  0  0  0  0  0  0  0  0
   -2.2466   -3.2643   -1.0372 H   0  0  0  0  0  0  0  0  0  0  0  0
  2  1  1  0  0  0  0
  2 22  1  1  0  0  0
  2  7  1  0  0  0  0
  3  1  1  0  0  0  0
  4  1  1  0  0  0  0
  5  3  2  0  0  0  0
  6  2  1  0  0  0  0
  6  5  1  0  0  0  0
  7  4  1  0  0  0  0
  7 23  1  6  0  0  0
  8 12  1  0  0  0  0
  8 17  1  0  0  0  0
  8 14  1  1  0  0  0
  9  3  1  0  0  0  0
 10  5  1  0  0  0  0
 11  4  2  0  0  0  0
 12 13  1  0  0  0  0
 12 24  1  0  0  0  0
 12 25  1  0  0  0  0
 13 10  1  0  0  0  0
 13 26  1  6  0  0  0
 15 27  1  1  0  0  0
 15 20  1  0  0  0  0
 15  7  1  0  0  0  0
 16  9  2  0  0  0  0
 17 18  1  0  0  0  0
 17 28  1  0  0  0  0
 17 29  1  0  0  0  0
 18 13  1  0  0  0  0
 18 30  1  0  0  0  0
 18 31  1  0  0  0  0
 19  9  1  0  0  0  0
 19 32  1  0  0  0  0
 20 33  1  0  0  0  0
 21 15  1  0  0  0  0
 21 34  1  0  0  0  0
 21 35  1  0  0  0  0
 21 36  1  0  0  0  0
M  CHG  2   8   1  14  -1
M  END
>  <DRUGBANK_ID>
DB15284

>  <COMMON_NAME>
Sulopenem

>  <CAS_NUMBER>
120788-07-0

>  <UNII>
XX514BJ1XW

>  <SYNONYMS>
Sulopenem

$$$$
