
 OpenBabel10282417203D

 56 55  0  0  1  0  0  0  0  0999 V2000
    0.7780   -1.7210    1.7416 C   0  0  0  0  0  0  0  0  0  0  0  0
    1.2064   -1.9562    3.0007 C   0  0  0  0  0  0  0  0  0  0  0  0
    0.2481   -0.4172    1.1782 C   0  0  2  0  0  0  0  0  0  0  0  0
    1.0227   -1.0412    4.1059 C   0  0  0  0  0  0  0  0  0  0  0  0
    1.0354    0.0599   -0.0536 C   0  0  0  0  0  0  0  0  0  0  0  0
    0.4032    0.5984    2.1454 O   0  0  0  0  0  0  0  0  0  0  0  0
    1.7396   -0.9835    5.2267 C   0  0  0  0  0  0  0  0  0  0  0  0
    1.3466    1.5813   -0.0557 C   0  0  0  0  0  0  0  0  0  0  0  0
    1.5361    0.1148    6.1382 C   0  0  0  0  0  0  0  0  0  0  0  0
    2.3058    2.1256    1.0330 C   0  0  0  0  0  0  0  0  0  0  0  0
    2.1547    0.1481    7.3180 C   0  0  0  0  0  0  0  0  0  0  0  0
    3.5993    1.3522    1.1129 C   0  0  0  0  0  0  0  0  0  0  0  0
    1.9017    1.2006    8.3414 C   0  0  1  0  0  0  0  0  0  0  0  0
    4.7007    2.1205    1.0564 O   0  0  0  0  0  0  0  0  0  0  0  0
    3.6715    0.1350    1.2679 O   0  0  0  0  0  0  0  0  0  0  0  0
    1.2129    0.5832    9.5614 C   0  0  0  0  0  0  0  0  0  0  0  0
    3.1429    1.8112    8.6830 O   0  0  0  0  0  0  0  0  0  0  0  0
    2.0935   -0.4278   10.2487 C   0  0  0  0  0  0  0  0  0  0  0  0
    2.6155   -0.2573   11.4649 C   0  0  0  0  0  0  0  0  0  0  0  0
    2.2885    0.8972   12.3632 C   0  0  0  0  0  0  0  0  0  0  0  0
    1.5698    0.3900   13.6071 C   0  0  0  0  0  0  0  0  0  0  0  0
    2.4850   -0.4797   14.4696 C   0  0  0  0  0  0  0  0  0  0  0  0
    3.7655    0.2581   14.8693 C   0  0  0  0  0  0  0  0  0  0  0  0
    3.4470    1.5069   15.6768 C   0  0  0  0  0  0  0  0  0  0  0  0
    0.9150   -2.5108    1.0037 H   0  0  0  0  0  0  0  0  0  0  0  0
    1.7626   -2.8678    3.2039 H   0  0  0  0  0  0  0  0  0  0  0  0
   -0.8215   -0.4819    0.9613 H   0  0  0  0  0  0  0  0  0  0  0  0
    0.2443   -0.2866    4.0133 H   0  0  0  0  0  0  0  0  0  0  0  0
    1.9658   -0.5058   -0.1709 H   0  0  0  0  0  0  0  0  0  0  0  0
    0.4583   -0.2025   -0.9500 H   0  0  0  0  0  0  0  0  0  0  0  0
    1.3258    0.4464    2.4456 H   0  0  0  0  0  0  0  0  0  0  0  0
    2.4990   -1.7248    5.4454 H   0  0  0  0  0  0  0  0  0  0  0  0
    1.7775    1.8331   -1.0301 H   0  0  0  0  0  0  0  0  0  0  0  0
    0.3928    2.1222    0.0139 H   0  0  0  0  0  0  0  0  0  0  0  0
    0.8692    0.9316    5.8577 H   0  0  0  0  0  0  0  0  0  0  0  0
    2.4873    3.1875    0.8434 H   0  0  0  0  0  0  0  0  0  0  0  0
    1.8951    2.1562    2.0473 H   0  0  0  0  0  0  0  0  0  0  0  0
    2.8131   -0.6713    7.5866 H   0  0  0  0  0  0  0  0  0  0  0  0
    1.2568    1.9974    7.9553 H   0  0  0  0  0  0  0  0  0  0  0  0
    4.5109    3.0758    1.0215 H   0  0  0  0  0  0  0  0  0  0  0  0
    0.9437    1.4143   10.2121 H   0  0  0  0  0  0  0  0  0  0  0  0
    0.2644    0.1034    9.2983 H   0  0  0  0  0  0  0  0  0  0  0  0
    3.6949    1.1302    9.1057 H   0  0  0  0  0  0  0  0  0  0  0  0
    2.3588   -1.3299    9.6993 H   0  0  0  0  0  0  0  0  0  0  0  0
    3.2964   -1.0211   11.8400 H   0  0  0  0  0  0  0  0  0  0  0  0
    3.2045    1.4514   12.5813 H   0  0  0  0  0  0  0  0  0  0  0  0
    1.6398    1.6453   11.9121 H   0  0  0  0  0  0  0  0  0  0  0  0
    1.2030    1.2502   14.1775 H   0  0  0  0  0  0  0  0  0  0  0  0
    0.6704   -0.1734   13.3258 H   0  0  0  0  0  0  0  0  0  0  0  0
    1.9396   -0.8019   15.3623 H   0  0  0  0  0  0  0  0  0  0  0  0
    2.7478   -1.3982   13.9313 H   0  0  0  0  0  0  0  0  0  0  0  0
    4.4062   -0.4129   15.4476 H   0  0  0  0  0  0  0  0  0  0  0  0
    4.3563    0.5335   13.9878 H   0  0  0  0  0  0  0  0  0  0  0  0
    2.8974    1.2344   16.5823 H   0  0  0  0  0  0  0  0  0  0  0  0
    4.3635    2.0289   15.9566 H   0  0  0  0  0  0  0  0  0  0  0  0
    2.8356    2.2191   15.1126 H   0  0  0  0  0  0  0  0  0  0  0  0
  1  2  2  0  0  0  0
  1 25  1  0  0  0  0
  2  4  1  0  0  0  0
  2 26  1  0  0  0  0
  3  6  1  0  0  0  0
  3 27  1  6  0  0  0
  3  5  1  0  0  0  0
  3  1  1  0  0  0  0
  4  7  2  0  0  0  0
  4 28  1  0  0  0  0
  5  8  1  0  0  0  0
  5 29  1  0  0  0  0
  5 30  1  0  0  0  0
  6 31  1  0  0  0  0
  7  9  1  0  0  0  0
  7 32  1  0  0  0  0
  8 10  1  0  0  0  0
  8 33  1  0  0  0  0
  8 34  1  0  0  0  0
  9 11  2  0  0  0  0
  9 35  1  0  0  0  0
 10 12  1  0  0  0  0
 10 36  1  0  0  0  0
 10 37  1  0  0  0  0
 11 13  1  0  0  0  0
 11 38  1  0  0  0  0
 12 14  1  0  0  0  0
 12 15  2  0  0  0  0
 13 16  1  0  0  0  0
 13 17  1  0  0  0  0
 13 39  1  6  0  0  0
 14 40  1  0  0  0  0
 16 18  1  0  0  0  0
 16 41  1  0  0  0  0
 16 42  1  0  0  0  0
 17 43  1  0  0  0  0
 18 19  2  0  0  0  0
 18 44  1  0  0  0  0
 19 20  1  0  0  0  0
 19 45  1  0  0  0  0
 20 21  1  0  0  0  0
 20 46  1  0  0  0  0
 20 47  1  0  0  0  0
 21 22  1  0  0  0  0
 21 48  1  0  0  0  0
 21 49  1  0  0  0  0
 22 23  1  0  0  0  0
 22 50  1  0  0  0  0
 22 51  1  0  0  0  0
 23 24  1  0  0  0  0
 23 52  1  0  0  0  0
 23 53  1  0  0  0  0
 24 54  1  0  0  0  0
 24 55  1  0  0  0  0
 24 56  1  0  0  0  0
M  END
>  <DRUGBANK_ID>
DB12961

>  <COMMON_NAME>
Leukotriene B4

>  <CAS_NUMBER>
71160-24-2

>  <UNII>
1HGW4DR56D

>  <SYNONYMS>
LTB4

$$$$
