
 OpenBabel10282417123D

 75 78  0  0  0  0  0  0  0  0999 V2000
    1.5368    1.5660    0.3009 O   0  0  0  0  0  0  0  0  0  0  0  0
    0.5160    3.6826    0.3083 O   0  0  0  0  0  0  0  0  0  0  0  0
   -1.9514    0.2965   -0.2174 O   0  0  0  0  0  0  0  0  0  0  0  0
    1.8798   -1.3040   -0.1704 O   0  0  0  0  0  0  0  0  0  0  0  0
   -3.0171   -1.7012    0.2070 O   0  0  0  0  0  0  0  0  0  0  0  0
    1.6882    4.3169   -3.7294 O   0  0  0  0  0  0  0  0  0  0  0  0
    0.5124    6.4516   -2.1490 O   0  0  0  0  0  0  0  0  0  0  0  0
   -2.3894    3.0031   -0.2214 O   0  0  0  0  0  0  0  0  0  0  0  0
   -2.2806    5.3303   -0.7621 O   0  0  0  0  0  0  0  0  0  0  0  0
    4.1215    0.5831   -3.2810 O   0  0  0  0  0  0  0  0  0  0  0  0
   -0.3784   -5.1644    0.6005 O   0  0  0  0  0  0  0  0  0  0  0  0
   -2.5561   -1.5666   -4.6051 O   0  0  0  0  0  0  0  0  0  0  0  0
   -2.3077   -1.5736   -6.8780 O   0  0  0  0  0  0  0  0  0  0  0  0
    2.9301    2.1684   -2.2454 N   0  0  0  0  0  0  0  0  0  0  0  0
   -0.4005   -2.9297    0.6177 N   0  0  0  0  0  0  0  0  0  0  0  0
    0.4973    0.7104   -0.2121 C   0  0  1  0  0  0  0  0  0  0  0  0
    0.6809   -0.7102    0.3602 C   0  0  1  0  0  0  0  0  0  0  0  0
    1.7406    2.8951   -1.7761 C   0  0  1  0  0  0  0  0  0  0  0  0
    1.6159    2.9117   -0.2179 C   0  0  2  0  0  0  0  0  0  0  0  0
   -0.5284   -1.6091    0.0307 C   0  0  2  0  0  0  0  0  0  0  0  0
   -0.9146    1.2169    0.0631 C   0  0  1  0  0  0  0  0  0  0  0  0
    1.6819    4.3311   -2.2937 C   0  0  2  0  0  0  0  0  0  0  0  0
    0.4355    5.0727   -1.7879 C   0  0  1  0  0  0  0  0  0  0  0  0
   -1.8406   -0.9229    0.4495 C   0  0  1  0  0  0  0  0  0  0  0  0
    0.2459    4.9802   -0.2640 C   0  0  1  0  0  0  0  0  0  0  0  0
   -1.3882    2.2730   -0.8930 C   0  0  0  0  0  0  0  0  0  0  0  0
   -1.1746    5.5641    0.1193 C   0  0  0  0  0  0  0  0  0  0  0  0
    3.0170    1.0608   -3.0433 C   0  0  0  0  0  0  0  0  0  0  0  0
   -0.4243   -4.1268   -0.0387 C   0  0  0  0  0  0  0  0  0  0  0  0
   -3.4059   -1.9949   -1.0701 C   0  0  0  0  0  0  0  0  0  0  0  0
    1.7660    0.4315   -3.6146 C   0  0  0  0  0  0  0  0  0  0  0  0
   -0.5024   -4.1120   -1.5456 C   0  0  0  0  0  0  0  0  0  0  0  0
   -2.8328   -1.5295   -2.2508 C   0  0  0  0  0  0  0  0  0  0  0  0
   -4.4561   -2.9091   -1.1565 C   0  0  0  0  0  0  0  0  0  0  0  0
   -3.2576   -2.0366   -3.4782 C   0  0  0  0  0  0  0  0  0  0  0  0
   -4.8950   -3.3903   -2.3989 C   0  0  0  0  0  0  0  0  0  0  0  0
   -4.2840   -2.9692   -3.5854 C   0  0  0  0  0  0  0  0  0  0  0  0
   -4.6527   -3.4489   -4.9219 C   0  0  0  0  0  0  0  0  0  0  0  0
   -3.9787   -2.9728   -5.9819 C   0  0  0  0  0  0  0  0  0  0  0  0
   -2.8931   -1.9942   -5.8711 C   0  0  0  0  0  0  0  0  0  0  0  0
   -5.7589   -4.4459   -5.0828 C   0  0  0  0  0  0  0  0  0  0  0  0
    3.8413    2.5043   -1.9504 H   0  0  0  0  0  0  0  0  0  0  0  0
   -0.3585   -3.0132    1.6270 H   0  0  0  0  0  0  0  0  0  0  0  0
    1.7872   -1.4562   -1.1262 H   0  0  0  0  0  0  0  0  0  0  0  0
    0.8913    3.8627   -4.0560 H   0  0  0  0  0  0  0  0  0  0  0  0
    1.2907    6.8329   -1.7092 H   0  0  0  0  0  0  0  0  0  0  0  0
   -3.2001    2.4696   -0.2223 H   0  0  0  0  0  0  0  0  0  0  0  0
   -2.2236    4.4306   -1.1275 H   0  0  0  0  0  0  0  0  0  0  0  0
    0.6195    0.6218   -1.2759 H   0  0  0  0  0  0  0  0  0  0  0  0
    0.8281   -0.6486    1.4429 H   0  0  0  0  0  0  0  0  0  0  0  0
    0.9067    2.3701   -2.2390 H   0  0  0  0  0  0  0  0  0  0  0  0
    2.5340    3.3422    0.2021 H   0  0  0  0  0  0  0  0  0  0  0  0
   -0.5135   -1.7213   -1.0545 H   0  0  0  0  0  0  0  0  0  0  0  0
   -0.9737    1.5399    1.1081 H   0  0  0  0  0  0  0  0  0  0  0  0
    2.5765    4.8788   -1.9855 H   0  0  0  0  0  0  0  0  0  0  0  0
   -0.4348    4.6773   -2.3273 H   0  0  0  0  0  0  0  0  0  0  0  0
   -1.8297   -0.7073    1.5239 H   0  0  0  0  0  0  0  0  0  0  0  0
    0.9560    5.6426    0.2378 H   0  0  0  0  0  0  0  0  0  0  0  0
   -0.6416    2.9545   -1.2119 H   0  0  0  0  0  0  0  0  0  0  0  0
   -1.7880    1.9176   -1.8459 H   0  0  0  0  0  0  0  0  0  0  0  0
   -1.4554    5.2945    1.1446 H   0  0  0  0  0  0  0  0  0  0  0  0
   -1.1051    6.6479    0.0515 H   0  0  0  0  0  0  0  0  0  0  0  0
    1.1605   -0.0414   -2.8504 H   0  0  0  0  0  0  0  0  0  0  0  0
    1.1698    1.1616   -4.1641 H   0  0  0  0  0  0  0  0  0  0  0  0
    2.0378   -0.3889   -4.2834 H   0  0  0  0  0  0  0  0  0  0  0  0
   -1.4489   -3.6881   -1.8673 H   0  0  0  0  0  0  0  0  0  0  0  0
    0.3262   -3.5424   -1.9750 H   0  0  0  0  0  0  0  0  0  0  0  0
   -0.4656   -5.1326   -1.9284 H   0  0  0  0  0  0  0  0  0  0  0  0
   -2.0209   -0.8160   -2.2751 H   0  0  0  0  0  0  0  0  0  0  0  0
   -4.9250   -3.2725   -0.2437 H   0  0  0  0  0  0  0  0  0  0  0  0
   -5.7098   -4.1092   -2.4064 H   0  0  0  0  0  0  0  0  0  0  0  0
   -4.2053   -3.2888   -6.9940 H   0  0  0  0  0  0  0  0  0  0  0  0
   -5.5214   -5.3767   -4.5572 H   0  0  0  0  0  0  0  0  0  0  0  0
   -6.7004   -4.0457   -4.6922 H   0  0  0  0  0  0  0  0  0  0  0  0
   -5.9255   -4.6992   -6.1356 H   0  0  0  0  0  0  0  0  0  0  0  0
  2 19  1  0  0  0  0
  2 25  1  0  0  0  0
  3 21  1  0  0  0  0
  3 24  1  0  0  0  0
  4 44  1  0  0  0  0
  5 30  1  0  0  0  0
  6 45  1  0  0  0  0
  7 46  1  0  0  0  0
  8 26  1  0  0  0  0
  8 47  1  0  0  0  0
  9 27  1  0  0  0  0
  9 48  1  0  0  0  0
 10 28  2  0  0  0  0
 11 29  2  0  0  0  0
 12 35  1  0  0  0  0
 12 40  1  0  0  0  0
 13 40  2  0  0  0  0
 14 28  1  0  0  0  0
 14 42  1  0  0  0  0
 15 29  1  0  0  0  0
 15 43  1  0  0  0  0
 16  1  1  0  0  0  0
 16 17  1  0  0  0  0
 16 21  1  0  0  0  0
 16 49  1  6  0  0  0
 17  4  1  0  0  0  0
 17 20  1  0  0  0  0
 17 50  1  1  0  0  0
 18 14  1  0  0  0  0
 18 19  1  0  0  0  0
 18 22  1  0  0  0  0
 18 51  1  6  0  0  0
 19  1  1  0  0  0  0
 19 52  1  1  0  0  0
 20 15  1  0  0  0  0
 20 24  1  0  0  0  0
 20 53  1  6  0  0  0
 21 54  1  1  0  0  0
 21 26  1  0  0  0  0
 22  6  1  0  0  0  0
 22 23  1  0  0  0  0
 22 55  1  1  0  0  0
 23  7  1  0  0  0  0
 23 25  1  0  0  0  0
 23 56  1  6  0  0  0
 24 57  1  1  0  0  0
 24  5  1  0  0  0  0
 25 58  1  1  0  0  0
 25 27  1  0  0  0  0
 26 59  1  0  0  0  0
 26 60  1  0  0  0  0
 27 61  1  0  0  0  0
 27 62  1  0  0  0  0
 28 31  1  0  0  0  0
 29 32  1  0  0  0  0
 30 33  2  0  0  0  0
 30 34  1  0  0  0  0
 31 63  1  0  0  0  0
 31 64  1  0  0  0  0
 31 65  1  0  0  0  0
 32 66  1  0  0  0  0
 32 67  1  0  0  0  0
 32 68  1  0  0  0  0
 33 35  1  0  0  0  0
 33 69  1  0  0  0  0
 34 36  2  0  0  0  0
 34 70  1  0  0  0  0
 35 37  2  0  0  0  0
 36 37  1  0  0  0  0
 36 71  1  0  0  0  0
 37 38  1  0  0  0  0
 38 39  2  0  0  0  0
 38 41  1  0  0  0  0
 39 40  1  0  0  0  0
 39 72  1  0  0  0  0
 41 73  1  0  0  0  0
 41 74  1  0  0  0  0
 41 75  1  0  0  0  0
M  END
>  <DRUGBANK_ID>
DB02759

>  <SECONDARY_ACCESSION_NUMBERS>
EXPT01671

>  <COMMON_NAME>
4-methyl-umbelliferyl-N-acetyl-chitobiose

>  <CAS_NUMBER>
53643-12-2

>  <UNII>
SYW68VG2T6

>  <SYNONYMS>
4-methylumbelliferyl-N,N-diacetylchitobioside; 4-Mudacb

$$$$
