TTT
 OpenBabel10282417173D

 43 45  0  0  0  0  0  0  0  0999 V2000
    3.9535   -1.7930    1.4403 C   0  0  0  0  0  0  0  0  0  0  0  0
    3.1681   -2.4279    0.3019 C   0  0  0  0  0  0  0  0  0  0  0  0
    5.3996    1.4664    0.0398 C   0  0  0  0  0  0  0  0  0  0  0  0
    4.3215    4.0930    0.0673 C   0  0  0  0  0  0  0  0  0  0  0  0
    3.0590   -1.9586   -1.0489 C   0  0  0  0  0  0  0  0  0  0  0  0
    6.0610    2.5220   -0.6289 C   0  0  0  0  0  0  0  0  0  0  0  0
    5.5369    3.8223   -0.5587 C   0  0  0  0  0  0  0  0  0  0  0  0
    2.3172   -3.4629    0.7243 C   0  0  0  0  0  0  0  0  0  0  0  0
    6.1021    0.2142   -0.0561 C   0  0  0  0  0  0  0  0  0  0  0  0
    3.7771   -0.7690   -1.6094 C   0  0  0  0  0  0  0  0  0  0  0  0
    1.3001   -3.9350   -0.1142 C   0  0  0  0  0  0  0  0  0  0  0  0
    7.1398   -0.0587   -0.9500 C   0  0  0  0  0  0  0  0  0  0  0  0
    1.0822   -3.3019   -1.3405 C   0  0  0  0  0  0  0  0  0  0  0  0
    7.7367    0.9902   -1.5987 C   0  0  0  0  0  0  0  0  0  0  0  0
    4.7263   -2.4867    2.0717 O   0  0  0  0  0  0  0  0  0  0  0  0
    1.9639   -2.3482   -1.8188 C   0  0  0  0  0  0  0  0  0  0  0  0
    0.3278   -4.8136    0.3783 N   0  0  0  0  0  0  0  0  0  0  0  0
    3.8060   -0.4629    1.8456 N   0  0  0  0  0  0  0  0  0  0  0  0
    3.1138    0.7148    1.3147 C   0  0  2  0  0  0  0  0  0  0  0  0
    1.8598    0.3897    0.5006 C   0  0  0  0  0  0  0  0  0  0  0  0
    4.0900    1.7406    0.6609 C   0  0  0  0  0  0  0  0  0  0  0  0
    7.2357    2.2757   -1.3885 C   0  0  0  0  0  0  0  0  0  0  0  0
    3.5890    3.0611    0.6369 C   0  0  0  0  0  0  0  0  0  0  0  0
    2.7197    1.2194    2.2110 H   0  0  0  0  0  0  0  0  0  0  0  0
    3.9381    5.1101    0.0972 H   0  0  0  0  0  0  0  0  0  0  0  0
    6.0756    4.6506   -1.0142 H   0  0  0  0  0  0  0  0  0  0  0  0
    2.3981   -3.8453    1.7413 H   0  0  0  0  0  0  0  0  0  0  0  0
    5.7456   -0.6737    0.4446 H   0  0  0  0  0  0  0  0  0  0  0  0
    4.5499   -0.9606   -2.3473 H   0  0  0  0  0  0  0  0  0  0  0  0
    3.1292    0.0598   -1.9322 H   0  0  0  0  0  0  0  0  0  0  0  0
    4.2088   -0.3712   -0.7379 H   0  0  0  0  0  0  0  0  0  0  0  0
    7.4396   -1.0906   -1.1298 H   0  0  0  0  0  0  0  0  0  0  0  0
    0.1999   -3.5190   -1.9331 H   0  0  0  0  0  0  0  0  0  0  0  0
    8.5931    0.8072   -2.2405 H   0  0  0  0  0  0  0  0  0  0  0  0
    1.7198   -1.7788   -2.7156 H   0  0  0  0  0  0  0  0  0  0  0  0
   -0.2040   -5.2866   -0.3464 H   0  0  0  0  0  0  0  0  0  0  0  0
    0.6622   -5.4480    1.0969 H   0  0  0  0  0  0  0  0  0  0  0  0
    4.5086   -0.2209    2.5380 H   0  0  0  0  0  0  0  0  0  0  0  0
    2.1423   -0.4162   -0.0952 H   0  0  0  0  0  0  0  0  0  0  0  0
    1.0308   -0.1032    1.0195 H   0  0  0  0  0  0  0  0  0  0  0  0
    1.5482    1.0930   -0.2748 H   0  0  0  0  0  0  0  0  0  0  0  0
    7.7603    3.0987   -1.8673 H   0  0  0  0  0  0  0  0  0  0  0  0
    2.6175    3.2939    1.0741 H   0  0  0  0  0  0  0  0  0  0  0  0
  1  2  1  0  0  0  0
  1 15  2  0  0  0  0
  1 18  1  0  0  0  0
  2  5  2  0  0  0  0
  2  8  1  0  0  0  0
  3  6  2  0  0  0  0
  3  9  1  0  0  0  0
  3 21  1  0  0  0  0
  4  7  2  0  0  0  0
  4 23  1  0  0  0  0
  4 25  1  0  0  0  0
  5 10  1  0  0  0  0
  5 16  1  0  0  0  0
  6  7  1  0  0  0  0
  6 22  1  0  0  0  0
  7 26  1  0  0  0  0
  8 11  2  0  0  0  0
  8 27  1  0  0  0  0
  9 12  2  0  0  0  0
  9 28  1  0  0  0  0
 10 29  1  0  0  0  0
 10 30  1  0  0  0  0
 10 31  1  0  0  0  0
 11 13  1  0  0  0  0
 11 17  1  0  0  0  0
 12 14  1  0  0  0  0
 12 32  1  0  0  0  0
 13 16  2  0  0  0  0
 13 33  1  0  0  0  0
 14 22  2  0  0  0  0
 14 34  1  0  0  0  0
 16 35  1  0  0  0  0
 17 36  1  0  0  0  0
 17 37  1  0  0  0  0
 18 38  1  0  0  0  0
 19 21  1  0  0  0  0
 19 24  1  1  0  0  0
 19 20  1  0  0  0  0
 19 18  1  0  0  0  0
 20 39  1  0  0  0  0
 20 40  1  0  0  0  0
 20 41  1  0  0  0  0
 21 23  2  0  0  0  0
 22 42  1  0  0  0  0
 23 43  1  0  0  0  0
M  END
>  <DRUGBANK_ID>
DB08656

>  <COMMON_NAME>
5-amino-2-methyl-N-[(1R)-1-naphthalen-1-ylethyl]benzamide

>  <UNII>
SQH4947NDN

$$$$
