
 OpenBabel10282417143D

 89 92  0  0  0  0  0  0  0  0999 V2000
   -6.4498    5.6252   -2.0187 C   0  0  0  0  0  0  0  0  0  0  0  0
   -5.6960    5.1110   -0.8240 C   0  0  1  0  0  0  0  0  0  0  0  0
   -5.4921    3.6223   -1.0104 C   0  0  1  0  0  0  0  0  0  0  0  0
   -4.3037    2.9231   -2.3189 C   0  0  2  0  0  0  0  0  0  0  0  0
   -2.1498    3.4508   -1.9520 C   0  0  2  0  0  0  0  0  0  0  0  0
   -1.0394    2.8524   -2.5066 C   0  0  0  0  0  0  0  0  0  0  0  0
   -0.4892    1.9478   -1.6607 N   0  0  0  0  0  0  0  0  0  0  0  0
   -0.9186    3.1538   -3.6925 O   0  0  0  0  0  0  0  0  0  0  0  0
   -1.6039    3.5964   -0.1958 O   0  0  0  0  0  0  0  0  0  0  0  0
   -2.2927    2.3968    0.9302 C   0  0  0  0  0  0  0  0  0  0  0  0
   -3.7714    1.2082    0.8076 C   0  0  0  0  0  0  0  0  0  0  0  0
   -5.7091   -0.8546   -0.4037 C   0  0  0  0  0  0  0  0  0  0  0  0
   -4.5623   -1.0822    0.4564 C   0  0  0  0  0  0  0  0  0  0  0  0
   -3.5804   -0.1115    0.9949 C   0  0  0  0  0  0  0  0  0  0  0  0
   -4.9476    1.1610   -0.1778 C   0  0  0  0  0  0  0  0  0  0  0  0
   -5.9148    0.3770   -0.8093 C   0  0  0  0  0  0  0  0  0  0  0  0
   -5.2967    3.4858   -3.4913 O   0  0  0  0  0  0  0  0  0  0  0  0
   -5.5759    3.2488    0.4891 O   0  0  0  0  0  0  0  0  0  0  0  0
   -3.6700    5.9929   -1.5460 C   0  0  0  0  0  0  0  0  0  0  0  0
   -3.5926    4.6665   -2.0759 C   0  0  0  0  0  0  0  0  0  0  0  0
   -3.1994    3.8645   -3.6977 C   0  0  0  0  0  0  0  0  0  0  0  0
   -2.9327    2.0695   -3.8081 C   0  0  0  0  0  0  0  0  0  0  0  0
   -2.7678    1.0708   -2.5866 C   0  0  0  0  0  0  0  0  0  0  0  0
   -2.9086    1.7229   -1.2175 C   0  0  0  0  0  0  0  0  0  0  0  0
   -3.4824    3.4461   -0.6880 C   0  0  0  0  0  0  0  0  0  0  0  0
   -4.5659    5.8822   -0.4572 O   0  0  0  0  0  0  0  0  0  0  0  0
   -5.9604    5.8661   -3.1189 O   0  0  0  0  0  0  0  0  0  0  0  0
   -7.7678    5.7767   -1.8240 N   0  0  0  0  0  0  0  0  0  0  0  0
    0.2989    0.9326   -2.1335 C   0  0  1  0  0  0  0  0  0  0  0  0
    2.4963    1.0048   -2.8985 C   0  0  0  0  0  0  0  0  0  0  0  0
    1.4496    1.8768   -2.4041 C   0  0  0  0  0  0  0  0  0  0  0  0
    1.2336    2.9470   -3.4803 C   0  0  0  0  0  0  0  0  0  0  0  0
    0.4557   -0.0506   -0.9086 C   0  0  0  0  0  0  0  0  0  0  0  0
    1.2253    0.2275    0.0137 O   0  0  0  0  0  0  0  0  0  0  0  0
   -0.4125   -1.1311   -0.7778 N   0  0  0  0  0  0  0  0  0  0  0  0
   -0.1974   -2.1210    0.2715 C   0  0  0  0  0  0  0  0  0  0  0  0
   -8.3530    5.0195   -0.7466 C   0  0  2  0  0  0  0  0  0  0  0  0
   -8.9471    2.8368    0.1962 C   0  0  0  0  0  0  0  0  0  0  0  0
   -8.0216    3.4480   -0.7556 C   0  0  1  0  0  0  0  0  0  0  0  0
   -8.0115    2.8719   -2.0838 O   0  0  0  0  0  0  0  0  0  0  0  0
  -10.0472    3.4943   -0.4880 C   0  0  0  0  0  0  0  0  0  0  0  0
  -11.9490    4.8686   -1.7649 C   0  0  0  0  0  0  0  0  0  0  0  0
  -12.0134    3.4657   -1.6699 C   0  0  0  0  0  0  0  0  0  0  0  0
  -11.0257    2.7604   -1.0522 C   0  0  0  0  0  0  0  0  0  0  0  0
   -9.8157    4.8304   -0.8327 C   0  0  0  0  0  0  0  0  0  0  0  0
  -10.8427    5.5877   -1.3143 C   0  0  0  0  0  0  0  0  0  0  0  0
   -6.2636    5.1378    0.1099 H   0  0  0  0  0  0  0  0  0  0  0  0
   -6.2061    3.0176   -1.5035 H   0  0  0  0  0  0  0  0  0  0  0  0
   -4.6024    1.9089   -2.6500 H   0  0  0  0  0  0  0  0  0  0  0  0
   -1.7741    4.5445   -2.2513 H   0  0  0  0  0  0  0  0  0  0  0  0
   -0.7900    1.8054   -0.7296 H   0  0  0  0  0  0  0  0  0  0  0  0
   -1.3247    1.9200    0.8636 H   0  0  0  0  0  0  0  0  0  0  0  0
   -2.3887    2.8911    1.9004 H   0  0  0  0  0  0  0  0  0  0  0  0
   -6.4340   -1.5606   -0.7720 H   0  0  0  0  0  0  0  0  0  0  0  0
   -4.4405   -2.0875    0.7928 H   0  0  0  0  0  0  0  0  0  0  0  0
   -2.6042   -0.3923    1.3478 H   0  0  0  0  0  0  0  0  0  0  0  0
   -4.9347    1.7839   -0.9949 H   0  0  0  0  0  0  0  0  0  0  0  0
   -6.5761    0.7679   -1.6103 H   0  0  0  0  0  0  0  0  0  0  0  0
   -5.2276    4.4699   -3.4950 H   0  0  0  0  0  0  0  0  0  0  0  0
   -4.7408    3.0998    0.9457 H   0  0  0  0  0  0  0  0  0  0  0  0
   -4.0146    6.5146   -2.4105 H   0  0  0  0  0  0  0  0  0  0  0  0
   -2.6789    6.2239   -1.1638 H   0  0  0  0  0  0  0  0  0  0  0  0
   -3.4143    4.3030   -4.6540 H   0  0  0  0  0  0  0  0  0  0  0  0
   -2.8775    1.5043   -4.7307 H   0  0  0  0  0  0  0  0  0  0  0  0
   -2.4534    0.0118   -2.5675 H   0  0  0  0  0  0  0  0  0  0  0  0
   -2.3459    0.9900   -0.5838 H   0  0  0  0  0  0  0  0  0  0  0  0
   -3.4744    3.9437    0.2886 H   0  0  0  0  0  0  0  0  0  0  0  0
   -8.2209    6.0437   -2.6890 H   0  0  0  0  0  0  0  0  0  0  0  0
   -0.2404    0.4599   -2.9633 H   0  0  0  0  0  0  0  0  0  0  0  0
    2.0796    0.4854   -3.7685 H   0  0  0  0  0  0  0  0  0  0  0  0
    3.2984    1.6818   -3.1464 H   0  0  0  0  0  0  0  0  0  0  0  0
    2.7389    0.3122   -2.1010 H   0  0  0  0  0  0  0  0  0  0  0  0
    1.6692    2.4299   -1.4716 H   0  0  0  0  0  0  0  0  0  0  0  0
    0.7460    3.8114   -2.9795 H   0  0  0  0  0  0  0  0  0  0  0  0
    2.0211    3.5353   -3.8937 H   0  0  0  0  0  0  0  0  0  0  0  0
    0.6857    2.4620   -4.3261 H   0  0  0  0  0  0  0  0  0  0  0  0
   -1.1359   -1.3395   -1.4541 H   0  0  0  0  0  0  0  0  0  0  0  0
   -1.1043   -2.2430    0.8713 H   0  0  0  0  0  0  0  0  0  0  0  0
    0.0442   -3.0811   -0.1954 H   0  0  0  0  0  0  0  0  0  0  0  0
    0.6282   -1.8334    0.9264 H   0  0  0  0  0  0  0  0  0  0  0  0
   -8.0659    5.4967    0.1991 H   0  0  0  0  0  0  0  0  0  0  0  0
   -8.6910    3.2357    1.1871 H   0  0  0  0  0  0  0  0  0  0  0  0
   -8.8866    1.7476    0.1546 H   0  0  0  0  0  0  0  0  0  0  0  0
   -7.2503    2.9884   -0.1764 H   0  0  0  0  0  0  0  0  0  0  0  0
   -8.5343    2.0601   -2.0832 H   0  0  0  0  0  0  0  0  0  0  0  0
  -12.7717    5.3869   -2.2380 H   0  0  0  0  0  0  0  0  0  0  0  0
  -12.8612    2.9011   -2.0163 H   0  0  0  0  0  0  0  0  0  0  0  0
  -10.9423    1.6846   -1.0051 H   0  0  0  0  0  0  0  0  0  0  0  0
  -10.8272    6.6703   -1.3504 H   0  0  0  0  0  0  0  0  0  0  0  0
  1 28  1  0  0  0  0
  1  2  1  0  0  0  0
  1 27  2  0  0  0  0
  2  3  1  0  0  0  0
  2 26  1  0  0  0  0
  2 47  1  1  0  0  0
  3 18  1  0  0  0  0
  3 48  1  6  0  0  0
  4 17  1  0  0  0  0
  4 49  1  1  0  0  0
  4  5  1  0  0  0  0
  4  3  1  0  0  0  0
  5 50  1  6  0  0  0
  5  9  1  0  0  0  0
  5  6  1  0  0  0  0
  6  7  1  0  0  0  0
  6  8  2  0  0  0  0
  7 51  1  0  0  0  0
  9 10  1  0  0  0  0
 10 11  1  0  0  0  0
 10 52  1  0  0  0  0
 10 53  1  0  0  0  0
 11 14  2  0  0  0  0
 11 15  1  0  0  0  0
 12 13  2  0  0  0  0
 12 16  1  0  0  0  0
 12 54  1  0  0  0  0
 13 14  1  0  0  0  0
 13 55  1  0  0  0  0
 14 56  1  0  0  0  0
 15 16  2  0  0  0  0
 15 57  1  0  0  0  0
 16 58  1  0  0  0  0
 17 59  1  0  0  0  0
 18 60  1  0  0  0  0
 19 26  1  0  0  0  0
 19 20  1  0  0  0  0
 19 61  1  0  0  0  0
 19 62  1  0  0  0  0
 20 21  2  0  0  0  0
 20 25  1  0  0  0  0
 21 22  1  0  0  0  0
 21 63  1  0  0  0  0
 22 23  2  0  0  0  0
 22 64  1  0  0  0  0
 23 24  1  0  0  0  0
 23 65  1  0  0  0  0
 24 25  2  0  0  0  0
 24 66  1  0  0  0  0
 25 67  1  0  0  0  0
 28 68  1  0  0  0  0
 29 31  1  0  0  0  0
 29 69  1  6  0  0  0
 29 33  1  0  0  0  0
 29  7  1  0  0  0  0
 30 31  1  0  0  0  0
 30 70  1  0  0  0  0
 30 71  1  0  0  0  0
 30 72  1  0  0  0  0
 31 32  1  0  0  0  0
 31 73  1  0  0  0  0
 32 74  1  0  0  0  0
 32 75  1  0  0  0  0
 32 76  1  0  0  0  0
 33 35  1  0  0  0  0
 33 34  2  0  0  0  0
 35 36  1  0  0  0  0
 35 77  1  0  0  0  0
 36 78  1  0  0  0  0
 36 79  1  0  0  0  0
 36 80  1  0  0  0  0
 37 28  1  0  0  0  0
 37 39  1  0  0  0  0
 37 45  1  0  0  0  0
 37 81  1  1  0  0  0
 38 41  1  0  0  0  0
 38 39  1  0  0  0  0
 38 82  1  0  0  0  0
 38 83  1  0  0  0  0
 39 84  1  1  0  0  0
 39 40  1  0  0  0  0
 40 85  1  0  0  0  0
 41 44  2  0  0  0  0
 41 45  1  0  0  0  0
 42 43  2  0  0  0  0
 42 46  1  0  0  0  0
 42 86  1  0  0  0  0
 43 44  1  0  0  0  0
 43 87  1  0  0  0  0
 44 88  1  0  0  0  0
 45 46  2  0  0  0  0
 46 89  1  0  0  0  0
M  END
>  <DRUGBANK_ID>
DB04255

>  <SECONDARY_ACCESSION_NUMBERS>
EXPT00660

>  <COMMON_NAME>
Inhibitor BEA388

>  <SYNONYMS>
[5-(2-hydroxy-indan-1-ylcarbamoyl)-3,4-dihydroxy-2,5-[dibenzyl-oxy]-pentanoyl]-valinyl-amido-methane

$$$$
