1521
 OpenBabel10282417113D

 49 52  0  0  1  0  0  0  0  0999 V2000
    1.8803    0.6947   -1.0331 Cl  0  0  0  0  0  0  0  0  0  0  0  0
    4.7219   -8.1196   -0.5309 O   0  0  0  0  0  0  0  0  0  0  0  0
    2.8804    0.7634    1.7364 O   0  0  0  0  0  0  0  0  0  0  0  0
    5.4419   -5.0260   -2.5341 C   0  0  2  0  0  0  0  0  0  0  0  0
    4.8411   -5.7830   -1.2848 C   0  0  2  0  0  0  0  0  0  0  0  0
    5.2054   -3.4255   -2.1754 C   0  0  1  0  0  0  0  0  0  0  0  0
    5.5017   -2.9101   -0.7159 C   0  0  1  0  0  0  0  0  0  0  0  0
    4.7647   -1.5198   -0.3469 C   0  0  2  0  0  0  0  0  0  0  0  0
    5.3986   -5.3138    0.0690 C   0  0  0  0  0  0  0  0  0  0  0  0
    5.0288   -3.9064    0.3632 C   0  0  0  0  0  0  0  0  0  0  0  0
    5.3103   -7.2302   -1.4619 C   0  0  2  0  0  0  0  0  0  0  0  0
    5.3026   -6.2592   -3.6494 C   0  0  0  0  0  0  0  0  0  0  0  0
    5.6005   -2.2605   -3.0918 C   0  0  0  0  0  0  0  0  0  0  0  0
    4.9025   -7.5408   -2.8758 C   0  0  0  0  0  0  0  0  0  0  0  0
    4.5483   -0.3244   -1.2664 C   0  0  0  0  0  0  0  0  0  0  0  0
    4.9095   -0.7961   -2.7307 C   0  0  0  0  0  0  0  0  0  0  0  0
    3.2836   -5.6886   -1.3298 C   0  0  0  0  0  0  0  0  0  0  0  0
    5.4444   -0.9883    0.9785 C   0  0  0  0  0  0  0  0  0  0  0  0
    3.2665   -1.9805   -0.4199 C   0  0  0  0  0  0  0  0  0  0  0  0
    5.1792    0.4708    1.3190 C   0  0  0  0  0  0  0  0  0  0  0  0
    3.6185    0.5415   -0.6431 C   0  0  0  0  0  0  0  0  0  0  0  0
    3.7540    0.6584    0.9221 C   0  0  0  0  0  0  0  0  0  0  0  0
    4.7085   -4.6961   -3.2779 H   0  0  0  0  0  0  0  0  0  0  0  0
    4.1287   -3.4397   -2.3172 H   0  0  0  0  0  0  0  0  0  0  0  0
    6.5923   -2.8016   -0.6263 H   0  0  0  0  0  0  0  0  0  0  0  0
    5.0140   -7.8502    0.3581 H   0  0  0  0  0  0  0  0  0  0  0  0
    4.9667   -5.9091    0.8838 H   0  0  0  0  0  0  0  0  0  0  0  0
    6.4856   -5.4081    0.1322 H   0  0  0  0  0  0  0  0  0  0  0  0
    3.9459   -3.9442    0.4620 H   0  0  0  0  0  0  0  0  0  0  0  0
    5.3661   -3.6183    1.3616 H   0  0  0  0  0  0  0  0  0  0  0  0
    6.4013   -7.3059   -1.3654 H   0  0  0  0  0  0  0  0  0  0  0  0
    6.1257   -6.4853   -4.3388 H   0  0  0  0  0  0  0  0  0  0  0  0
    4.4555   -6.0578   -4.3348 H   0  0  0  0  0  0  0  0  0  0  0  0
    5.3005   -2.5162   -4.1160 H   0  0  0  0  0  0  0  0  0  0  0  0
    6.6971   -2.2010   -3.1025 H   0  0  0  0  0  0  0  0  0  0  0  0
    5.3493   -8.4780   -3.2191 H   0  0  0  0  0  0  0  0  0  0  0  0
    3.8179   -7.7064   -2.9550 H   0  0  0  0  0  0  0  0  0  0  0  0
    3.9920   -0.7491   -3.3206 H   0  0  0  0  0  0  0  0  0  0  0  0
    5.6110   -0.0637   -3.1632 H   0  0  0  0  0  0  0  0  0  0  0  0
    2.9029   -4.6812   -1.1603 H   0  0  0  0  0  0  0  0  0  0  0  0
    2.8854   -5.9557   -2.3145 H   0  0  0  0  0  0  0  0  0  0  0  0
    2.8217   -6.3360   -0.5835 H   0  0  0  0  0  0  0  0  0  0  0  0
    6.5390   -1.0741    0.9020 H   0  0  0  0  0  0  0  0  0  0  0  0
    5.1335   -1.6027    1.8270 H   0  0  0  0  0  0  0  0  0  0  0  0
    2.8854   -2.4789    0.4505 H   0  0  0  0  0  0  0  0  0  0  0  0
    3.2842   -2.5049   -1.3471 H   0  0  0  0  0  0  0  0  0  0  0  0
    2.3893   -1.5333   -0.8824 H   0  0  0  0  0  0  0  0  0  0  0  0
    5.7587    1.1729    0.7096 H   0  0  0  0  0  0  0  0  0  0  0  0
    5.3705    0.7187    2.3674 H   0  0  0  0  0  0  0  0  0  0  0  0
  1 21  1  0  0  0  0
  2 26  1  0  0  0  0
  3 22  2  0  0  0  0
  4  5  1  0  0  0  0
  4  6  1  0  0  0  0
  4 12  1  0  0  0  0
  4 23  1  1  0  0  0
  5  9  1  0  0  0  0
  5 11  1  0  0  0  0
  5 17  1  6  0  0  0
  6  7  1  0  0  0  0
  6 13  1  0  0  0  0
  6 24  1  6  0  0  0
  7  8  1  0  0  0  0
  7 10  1  0  0  0  0
  7 25  1  1  0  0  0
  8 15  1  0  0  0  0
  8 18  1  0  0  0  0
  8 19  1  1  0  0  0
  9 10  1  0  0  0  0
  9 27  1  0  0  0  0
  9 28  1  0  0  0  0
 10 29  1  0  0  0  0
 10 30  1  0  0  0  0
 11  2  1  0  0  0  0
 11 14  1  0  0  0  0
 11 31  1  1  0  0  0
 12 14  1  0  0  0  0
 12 32  1  0  0  0  0
 12 33  1  0  0  0  0
 13 16  1  0  0  0  0
 13 34  1  0  0  0  0
 13 35  1  0  0  0  0
 14 36  1  0  0  0  0
 14 37  1  0  0  0  0
 15 16  1  0  0  0  0
 15 21  2  0  0  0  0
 16 38  1  0  0  0  0
 16 39  1  0  0  0  0
 17 40  1  0  0  0  0
 17 41  1  0  0  0  0
 17 42  1  0  0  0  0
 18 20  1  0  0  0  0
 18 43  1  0  0  0  0
 18 44  1  0  0  0  0
 19 45  1  0  0  0  0
 19 46  1  0  0  0  0
 19 47  1  0  0  0  0
 20 22  1  0  0  0  0
 20 48  1  0  0  0  0
 20 49  1  0  0  0  0
 21 22  1  0  0  0  0
M  END
>  <DRUGBANK_ID>
DB01521

>  <COMMON_NAME>
Clostebol

>  <CAS_NUMBER>
1093-58-9

>  <UNII>
Z7D4G976SH

>  <SYNONYMS>
Clostebol

$$$$
