
 OpenBabel10282417223D

 43 42  0  0  0  0  0  0  0  0999 V2000
    0.0180   -1.3780    0.0460 O   0  0  0  0  0  0  0  0  0  0  0  0
   -1.1670   -0.6830   -0.1700 C   0  0  0  0  0  0  0  0  0  0  0  0
   -1.1660    0.6880    0.1710 C   0  0  0  0  0  0  0  0  0  0  0  0
    1.1430   -0.6970    0.0890 C   0  0  0  0  0  0  0  0  0  0  0  0
    1.1470    0.6910   -0.0880 C   0  0  0  0  0  0  0  0  0  0  0  0
    0.0250    1.3780   -0.0480 C   0  0  0  0  0  0  0  0  0  0  0  0
    0.0276    2.6391   -0.2052 O   0  0  0  0  0  0  0  0  0  0  0  0
    2.3757    1.3662   -0.3134 O   0  5  0  0  0  0  0  0  0  0  0  0
    2.4537   -1.4267    0.3338 C   0  0  0  0  0  0  0  0  0  0  0  0
    1.9284    3.1691   -0.4763 Fe  0  1  0  0  0  0  0  0  0  0  0  0
    0.0180   -1.3780    0.0460 O   0  0  0  0  0  0  0  0  0  0  0  0
   -1.1670   -0.6830   -0.1700 C   0  0  0  0  0  0  0  0  0  0  0  0
   -1.1660    0.6880    0.1710 C   0  0  0  0  0  0  0  0  0  0  0  0
    1.1430   -0.6970    0.0890 C   0  0  0  0  0  0  0  0  0  0  0  0
    1.1470    0.6910   -0.0880 C   0  0  0  0  0  0  0  0  0  0  0  0
    0.0250    1.3780   -0.0480 C   0  0  0  0  0  0  0  0  0  0  0  0
    0.0276    2.6391   -0.2052 O   0  0  0  0  0  0  0  0  0  0  0  0
    2.3757    1.3662   -0.3134 O   0  5  0  0  0  0  0  0  0  0  0  0
    2.4537   -1.4267    0.3338 C   0  0  0  0  0  0  0  0  0  0  0  0
    0.0180   -1.3780    0.0460 O   0  0  0  0  0  0  0  0  0  0  0  0
   -1.1670   -0.6830   -0.1700 C   0  0  0  0  0  0  0  0  0  0  0  0
   -1.1660    0.6880    0.1710 C   0  0  0  0  0  0  0  0  0  0  0  0
    1.1430   -0.6970    0.0890 C   0  0  0  0  0  0  0  0  0  0  0  0
    1.1470    0.6910   -0.0880 C   0  0  0  0  0  0  0  0  0  0  0  0
    0.0250    1.3780   -0.0480 C   0  0  0  0  0  0  0  0  0  0  0  0
    0.0276    2.6391   -0.2052 O   0  0  0  0  0  0  0  0  0  0  0  0
    2.3757    1.3662   -0.3134 O   0  5  0  0  0  0  0  0  0  0  0  0
    2.4537   -1.4267    0.3338 C   0  0  0  0  0  0  0  0  0  0  0  0
   -2.0346   -1.1618   -0.5736 H   0  0  0  0  0  0  0  0  0  0  0  0
   -2.0317    1.1700    0.5750 H   0  0  0  0  0  0  0  0  0  0  0  0
    3.1097   -1.2701   -0.4969 H   0  0  0  0  0  0  0  0  0  0  0  0
    2.9106   -1.0499    1.2250 H   0  0  0  0  0  0  0  0  0  0  0  0
    2.2636   -2.4737    0.4457 H   0  0  0  0  0  0  0  0  0  0  0  0
   -2.0346   -1.1618   -0.5736 H   0  0  0  0  0  0  0  0  0  0  0  0
   -2.0317    1.1700    0.5750 H   0  0  0  0  0  0  0  0  0  0  0  0
    3.1097   -1.2701   -0.4969 H   0  0  0  0  0  0  0  0  0  0  0  0
    2.9106   -1.0499    1.2250 H   0  0  0  0  0  0  0  0  0  0  0  0
    2.2636   -2.4737    0.4457 H   0  0  0  0  0  0  0  0  0  0  0  0
   -2.0346   -1.1618   -0.5736 H   0  0  0  0  0  0  0  0  0  0  0  0
   -2.0317    1.1700    0.5750 H   0  0  0  0  0  0  0  0  0  0  0  0
    3.1097   -1.2701   -0.4969 H   0  0  0  0  0  0  0  0  0  0  0  0
    2.9106   -1.0499    1.2250 H   0  0  0  0  0  0  0  0  0  0  0  0
    2.2636   -2.4737    0.4457 H   0  0  0  0  0  0  0  0  0  0  0  0
  1  4  1  0  0  0  0
  1  2  1  0  0  0  0
  2  3  2  0  0  0  0
  2 29  1  0  0  0  0
  3  6  1  0  0  0  0
  3 30  1  0  0  0  0
  4  9  1  0  0  0  0
  5  4  2  0  0  0  0
  5  6  1  0  0  0  0
  5  8  1  0  0  0  0
  6  7  2  0  0  0  0
  9 31  1  0  0  0  0
  9 32  1  0  0  0  0
  9 33  1  0  0  0  0
 11 14  1  0  0  0  0
 11 12  1  0  0  0  0
 12 13  2  0  0  0  0
 12 34  1  0  0  0  0
 13 16  1  0  0  0  0
 13 35  1  0  0  0  0
 14 19  1  0  0  0  0
 15 14  2  0  0  0  0
 15 16  1  0  0  0  0
 15 18  1  0  0  0  0
 16 17  2  0  0  0  0
 19 36  1  0  0  0  0
 19 37  1  0  0  0  0
 19 38  1  0  0  0  0
 20 21  1  0  0  0  0
 20 23  1  0  0  0  0
 21 22  2  0  0  0  0
 21 39  1  0  0  0  0
 22 25  1  0  0  0  0
 22 40  1  0  0  0  0
 23 28  1  0  0  0  0
 24 23  2  0  0  0  0
 24 25  1  0  0  0  0
 24 27  1  0  0  0  0
 25 26  2  0  0  0  0
 28 41  1  0  0  0  0
 28 42  1  0  0  0  0
 28 43  1  0  0  0  0
M  CHG  4   8  -1  10   3  18  -1  27  -1
M  END
>  <DRUGBANK_ID>
DB15598

>  <COMMON_NAME>
Ferric maltol

>  <CAS_NUMBER>
33725-54-1

>  <UNII>
MA10QYF1Z0

>  <SYNONYMS>
Ferric maltol; Iron (III) maltol

$$$$
