
 OpenBabel10282417233D

 53 56  0  0  0  0  0  0  0  0999 V2000
    0.7776   -0.1016   -0.0209 C   0  0  0  0  0  0  0  0  0  0  0  0
    0.2746    0.6524   -1.2645 C   0  0  0  0  0  0  0  0  0  0  0  0
    1.1288    0.1434   -2.4578 C   0  0  0  0  0  0  0  0  0  0  0  0
    0.4831    2.1716   -1.1419 N   0  0  0  0  0  0  0  0  0  0  0  0
   -0.2076    2.9397   -2.1715 C   0  0  0  0  0  0  0  0  0  0  0  0
   -1.7020    2.7792   -2.0139 C   0  0  0  0  0  0  0  0  0  0  0  0
   -2.1260    1.3996   -1.9133 N   0  0  0  0  0  0  0  0  0  0  0  0
   -3.4227    0.9480   -2.0915 C   0  0  0  0  0  0  0  0  0  0  0  0
   -4.4176    1.8334   -2.4063 N   0  0  0  0  0  0  0  0  0  0  0  0
   -5.7873    1.5292   -2.5361 C   0  0  0  0  0  0  0  0  0  0  0  0
   -6.5031    0.9666   -1.4712 C   0  0  0  0  0  0  0  0  0  0  0  0
   -7.7987    0.4826   -1.6625 C   0  0  0  0  0  0  0  0  0  0  0  0
   -8.3888    0.5841   -2.9159 C   0  0  0  0  0  0  0  0  0  0  0  0
   -9.5751    0.0012   -3.1339 F   0  0  0  0  0  0  0  0  0  0  0  0
   -7.7154    1.1820   -3.9758 C   0  0  0  0  0  0  0  0  0  0  0  0
   -6.4179    1.6682   -3.7834 C   0  0  0  0  0  0  0  0  0  0  0  0
   -3.3478   -0.4326   -1.9005 C   0  0  0  0  0  0  0  0  0  0  0  0
   -2.0129   -0.7680   -1.5331 N   0  0  0  0  0  0  0  0  0  0  0  0
   -1.2864    0.3641   -1.5424 C   0  0  0  0  0  0  0  0  0  0  0  0
   -4.5259   -1.3568   -2.0734 C   0  0  0  0  0  0  0  0  0  0  0  0
   -5.2395   -1.4041   -3.3017 C   0  0  0  0  0  0  0  0  0  0  0  0
   -6.5105   -2.0199   -3.4254 C   0  0  0  0  0  0  0  0  0  0  0  0
   -7.0911   -2.6277   -2.3245 C   0  0  0  0  0  0  0  0  0  0  0  0
   -8.3387   -3.1178   -2.4091 F   0  0  0  0  0  0  0  0  0  0  0  0
   -6.4244   -2.6189   -1.1049 C   0  0  0  0  0  0  0  0  0  0  0  0
   -5.1560   -1.9879   -0.9787 C   0  0  0  0  0  0  0  0  0  0  0  0
    1.3454    2.7949   -0.2245 C   0  0  0  0  0  0  0  0  0  0  0  0
    2.0318    2.1732    0.6058 O   0  0  0  0  0  0  0  0  0  0  0  0
    1.4331    4.3401   -0.1646 C   0  0  0  0  0  0  0  0  0  0  0  0
    2.0552    4.9013   -1.3747 N   0  0  0  0  0  0  0  0  0  0  0  0
    0.4907   -1.1550   -0.0264 H   0  0  0  0  0  0  0  0  0  0  0  0
    0.4097    0.3515    0.9047 H   0  0  0  0  0  0  0  0  0  0  0  0
    1.8791   -0.0876    0.0194 H   0  0  0  0  0  0  0  0  0  0  0  0
    2.1930    0.3813   -2.3136 H   0  0  0  0  0  0  0  0  0  0  0  0
    1.0463   -0.9421   -2.5777 H   0  0  0  0  0  0  0  0  0  0  0  0
    0.8372    0.5948   -3.4112 H   0  0  0  0  0  0  0  0  0  0  0  0
    0.0108    4.0040   -2.1446 H   0  0  0  0  0  0  0  0  0  0  0  0
    0.1330    2.5903   -3.1524 H   0  0  0  0  0  0  0  0  0  0  0  0
   -2.0369    3.2682   -1.0934 H   0  0  0  0  0  0  0  0  0  0  0  0
   -2.1932    3.2298   -2.8791 H   0  0  0  0  0  0  0  0  0  0  0  0
   -4.2227    2.7932   -2.6670 H   0  0  0  0  0  0  0  0  0  0  0  0
   -6.0024    0.7912   -0.5215 H   0  0  0  0  0  0  0  0  0  0  0  0
   -8.2923   -0.0854   -0.8798 H   0  0  0  0  0  0  0  0  0  0  0  0
   -8.1727    1.1880   -4.9601 H   0  0  0  0  0  0  0  0  0  0  0  0
   -5.8614    2.0417   -4.6395 H   0  0  0  0  0  0  0  0  0  0  0  0
   -4.8917   -0.8195   -4.1513 H   0  0  0  0  0  0  0  0  0  0  0  0
   -7.1043   -1.9128   -4.3326 H   0  0  0  0  0  0  0  0  0  0  0  0
   -6.9378   -3.0342   -0.2402 H   0  0  0  0  0  0  0  0  0  0  0  0
   -4.7300   -1.9055    0.0172 H   0  0  0  0  0  0  0  0  0  0  0  0
    0.4402    4.7655    0.0146 H   0  0  0  0  0  0  0  0  0  0  0  0
    2.0561    4.6209    0.6961 H   0  0  0  0  0  0  0  0  0  0  0  0
    2.1600    5.9090   -1.2527 H   0  0  0  0  0  0  0  0  0  0  0  0
    3.0056    4.5327   -1.4419 H   0  0  0  0  0  0  0  0  0  0  0  0
  1  2  1  0  0  0  0
  1 31  1  0  0  0  0
  1 32  1  0  0  0  0
  1 33  1  0  0  0  0
  2  3  1  0  0  0  0
  2  4  1  0  0  0  0
  2 19  1  0  0  0  0
  3 34  1  0  0  0  0
  3 35  1  0  0  0  0
  3 36  1  0  0  0  0
  4  5  1  0  0  0  0
  4 27  1  0  0  0  0
  5  6  1  0  0  0  0
  5 37  1  0  0  0  0
  5 38  1  0  0  0  0
  6  7  1  0  0  0  0
  6 39  1  0  0  0  0
  6 40  1  0  0  0  0
  7  8  1  0  0  0  0
  7 19  1  0  0  0  0
  8  9  1  0  0  0  0
  8 17  2  0  0  0  0
  9 10  1  0  0  0  0
  9 41  1  0  0  0  0
 10 11  2  0  0  0  0
 10 16  1  0  0  0  0
 11 12  1  0  0  0  0
 11 42  1  0  0  0  0
 12 13  2  0  0  0  0
 12 43  1  0  0  0  0
 13 14  1  0  0  0  0
 13 15  1  0  0  0  0
 15 16  2  0  0  0  0
 15 44  1  0  0  0  0
 16 45  1  0  0  0  0
 17 18  1  0  0  0  0
 17 20  1  0  0  0  0
 18 19  2  0  0  0  0
 20 21  2  0  0  0  0
 20 26  1  0  0  0  0
 21 22  1  0  0  0  0
 21 46  1  0  0  0  0
 22 23  2  0  0  0  0
 22 47  1  0  0  0  0
 23 24  1  0  0  0  0
 23 25  1  0  0  0  0
 25 26  2  0  0  0  0
 25 48  1  0  0  0  0
 26 49  1  0  0  0  0
 27 28  2  0  0  0  0
 27 29  1  0  0  0  0
 29 30  1  0  0  0  0
 29 50  1  0  0  0  0
 29 51  1  0  0  0  0
 30 52  1  0  0  0  0
 30 53  1  0  0  0  0
M  END
>  <DRUGBANK_ID>
DB16173

>  <COMMON_NAME>
Ganaplacide

>  <CAS_NUMBER>
1261113-96-5

>  <UNII>
85VMN9JU7A

>  <SYNONYMS>
2-Amino-1-[2-(4-fluorophenyl)-3-[(4-fluorophenyl)amino]-5,6-dihydro-8,8-dimethylimidazo[1,2-a]pyrazin-7(8H)-yl]ethanone; Ganaplacide

$$$$
