4TR
 OpenBabel10282417143D

 40 42  0  0  0  0  0  0  0  0999 V2000
    0.9667    0.0402   -0.0514 S   0  0  0  0  0  0  0  0  0  0  0  0
    0.5863   -0.3302   -1.3944 O   0  0  0  0  0  0  0  0  0  0  0  0
    0.8145   -0.8792    1.0483 O   0  0  0  0  0  0  0  0  0  0  0  0
    0.3854    1.5431    0.2923 O   0  0  0  0  0  0  0  0  0  0  0  0
    2.6418    0.1928   -0.0899 N   0  0  0  0  0  0  0  0  0  0  0  0
   -0.9758    1.8002    0.3337 C   0  0  0  0  0  0  0  0  0  0  0  0
   -1.4704    2.9148   -0.3922 C   0  0  0  0  0  0  0  0  0  0  0  0
   -2.8452    3.2592   -0.3666 C   0  0  0  0  0  0  0  0  0  0  0  0
   -3.7512    2.4784    0.3587 C   0  0  0  0  0  0  0  0  0  0  0  0
   -3.2463    1.4147    1.1057 C   0  0  0  0  0  0  0  0  0  0  0  0
   -1.8861    1.1007    1.1343 C   0  0  0  0  0  0  0  0  0  0  0  0
   -5.2582    2.6620    0.3109 C   0  0  0  0  0  0  0  0  0  0  0  0
  -10.0477   -1.1553    2.7952 C   0  0  0  0  0  0  0  0  0  0  0  0
  -10.9533   -1.6586    3.3090 N   0  0  0  0  0  0  0  0  0  0  0  0
   -8.9483   -0.5095    2.1309 C   0  0  0  0  0  0  0  0  0  0  0  0
   -8.8410    0.8820    2.1459 C   0  0  0  0  0  0  0  0  0  0  0  0
   -7.8238    1.5243    1.4226 C   0  0  0  0  0  0  0  0  0  0  0  0
   -6.8902    0.7960    0.6693 C   0  0  0  0  0  0  0  0  0  0  0  0
   -6.9940   -0.6075    0.7015 C   0  0  0  0  0  0  0  0  0  0  0  0
   -8.0052   -1.2562    1.4262 C   0  0  0  0  0  0  0  0  0  0  0  0
   -5.9219    1.4219   -0.1406 N   0  0  0  0  0  0  0  0  0  0  0  0
   -5.9914    0.1461   -3.4791 N   0  0  0  0  0  0  0  0  0  0  0  0
   -4.6463    0.3403   -3.3171 N   0  0  0  0  0  0  0  0  0  0  0  0
   -4.4650    0.8408   -2.1178 C   0  0  0  0  0  0  0  0  0  0  0  0
   -5.6613    0.9992   -1.4672 N   0  0  0  0  0  0  0  0  0  0  0  0
   -6.5851    0.5569   -2.3818 C   0  0  0  0  0  0  0  0  0  0  0  0
   -1.5072   -0.1923    2.4634 Br  0  0  0  0  0  0  0  0  0  0  0  0
    3.0147   -0.7614   -0.0555 H   0  0  0  0  0  0  0  0  0  0  0  0
    2.9861    0.7200   -0.8839 H   0  0  0  0  0  0  0  0  0  0  0  0
   -0.8094    3.5375   -0.9982 H   0  0  0  0  0  0  0  0  0  0  0  0
   -3.2110    4.0988   -0.9600 H   0  0  0  0  0  0  0  0  0  0  0  0
   -3.9374    0.7934    1.6740 H   0  0  0  0  0  0  0  0  0  0  0  0
   -5.5550    2.9222    1.3372 H   0  0  0  0  0  0  0  0  0  0  0  0
   -5.5368    3.5111   -0.3220 H   0  0  0  0  0  0  0  0  0  0  0  0
   -9.5644    1.4807    2.6977 H   0  0  0  0  0  0  0  0  0  0  0  0
   -7.8182    2.6112    1.4171 H   0  0  0  0  0  0  0  0  0  0  0  0
   -6.2771   -1.2232    0.1591 H   0  0  0  0  0  0  0  0  0  0  0  0
   -8.0551   -2.3443    1.4179 H   0  0  0  0  0  0  0  0  0  0  0  0
   -3.5032    1.0867   -1.7073 H   0  0  0  0  0  0  0  0  0  0  0  0
   -7.6447    0.5257   -2.1846 H   0  0  0  0  0  0  0  0  0  0  0  0
  1  2  2  0  0  0  0
  1  3  2  0  0  0  0
  1  4  1  0  0  0  0
  1  5  1  0  0  0  0
  4  6  1  0  0  0  0
  5 28  1  0  0  0  0
  5 29  1  0  0  0  0
  6  7  2  0  0  0  0
  6 11  1  0  0  0  0
  7  8  1  0  0  0  0
  7 30  1  0  0  0  0
  8  9  2  0  0  0  0
  8 31  1  0  0  0  0
  9 10  1  0  0  0  0
  9 12  1  0  0  0  0
 10 11  2  0  0  0  0
 10 32  1  0  0  0  0
 11 27  1  0  0  0  0
 12 21  1  0  0  0  0
 12 33  1  0  0  0  0
 12 34  1  0  0  0  0
 13 14  3  0  0  0  0
 13 15  1  0  0  0  0
 15 16  1  0  0  0  0
 15 20  2  0  0  0  0
 16 17  2  0  0  0  0
 16 35  1  0  0  0  0
 17 18  1  0  0  0  0
 17 36  1  0  0  0  0
 18 19  2  0  0  0  0
 18 21  1  0  0  0  0
 19 20  1  0  0  0  0
 19 37  1  0  0  0  0
 20 38  1  0  0  0  0
 21 25  1  0  0  0  0
 22 23  1  0  0  0  0
 22 26  2  0  0  0  0
 23 24  2  0  0  0  0
 24 25  1  0  0  0  0
 24 39  1  0  0  0  0
 25 26  1  0  0  0  0
 26 40  1  0  0  0  0
M  END
>  <DRUGBANK_ID>
DB04600

>  <COMMON_NAME>
4-[(3-BROMO-4-O-SULFAMOYLBENZYL)(4-CYANOPHENYL)AMINO]-4H-[1,2,4]-TRIAZOLE

$$$$
