TPY
 OpenBabel10282417173D

 39 39  0  0  0  0  0  0  0  0999 V2000
   -0.7188    1.3694   -1.1602 C   0  0  0  0  0  0  0  0  0  0  0  0
    0.1196    1.1499    0.0833 C   0  0  2  0  0  0  0  0  0  0  0  0
    1.0916   -0.0886   -0.0881 C   0  0  2  0  0  0  0  0  0  0  0  0
    0.4209   -1.4013   -0.4079 C   0  0  0  0  0  0  0  0  0  0  0  0
   -0.8206    1.2438    1.3386 C   0  0  0  0  0  0  0  0  0  0  0  0
   -0.2058    1.3479    2.7403 C   0  0  0  0  0  0  0  0  0  0  0  0
   -0.9281    2.4888   -1.6213 O   0  0  0  0  0  0  0  0  0  0  0  0
    1.1183   -2.2192   -1.2243 O   0  0  0  0  0  0  0  0  0  0  0  0
   -0.6297   -1.7521    0.1067 O   0  0  0  0  0  0  0  0  0  0  0  0
    2.8042   -1.1884    3.8230 O   0  0  0  0  0  0  0  0  0  0  0  0
    5.1269   -1.0724    2.8547 O   0  0  0  0  0  0  0  0  0  0  0  0
    3.7877   -0.5571    2.9577 S   0  0  0  0  0  0  0  0  0  0  0  0
    3.1496   -0.6815    1.3385 N   0  0  0  0  0  0  0  0  0  0  0  0
    1.7362   -0.3232    1.2526 C   0  0  0  0  0  0  0  0  0  0  0  0
    3.9037    1.1667    3.4842 C   0  0  0  0  0  0  0  0  0  0  0  0
    3.0052    2.1565    3.0931 C   0  0  0  0  0  0  0  0  0  0  0  0
    4.8693    1.5288    4.4278 C   0  0  0  0  0  0  0  0  0  0  0  0
    2.9433    3.4217    3.6713 C   0  0  0  0  0  0  0  0  0  0  0  0
    4.8575    2.8227    4.9986 C   0  0  0  0  0  0  0  0  0  0  0  0
    3.8995    3.7693    4.6036 C   0  0  0  0  0  0  0  0  0  0  0  0
    3.9602    5.1630    5.0539 N   0  3  0  0  0  0  0  0  0  0  0  0
    4.8765    5.4765    5.8229 O   0  5  0  0  0  0  0  0  0  0  0  0
    3.1131    5.9509    4.6046 O   0  0  0  0  0  0  0  0  0  0  0  0
    0.7723    2.0387    0.1317 H   0  0  0  0  0  0  0  0  0  0  0  0
    1.8155    0.1607   -0.8750 H   0  0  0  0  0  0  0  0  0  0  0  0
   -1.1960    0.4828   -1.6051 H   0  0  0  0  0  0  0  0  0  0  0  0
   -1.4049    2.1698    1.2364 H   0  0  0  0  0  0  0  0  0  0  0  0
   -1.5413    0.4237    1.3273 H   0  0  0  0  0  0  0  0  0  0  0  0
    0.4031    2.2487    2.7976 H   0  0  0  0  0  0  0  0  0  0  0  0
   -0.9554    1.4384    3.5276 H   0  0  0  0  0  0  0  0  0  0  0  0
    0.3820    0.4832    3.0495 H   0  0  0  0  0  0  0  0  0  0  0  0
    1.9698   -1.9101   -1.5916 H   0  0  0  0  0  0  0  0  0  0  0  0
    3.2788   -1.6723    1.1036 H   0  0  0  0  0  0  0  0  0  0  0  0
    1.7472    0.6606    1.6310 H   0  0  0  0  0  0  0  0  0  0  0  0
    1.1345   -0.9757    1.8874 H   0  0  0  0  0  0  0  0  0  0  0  0
    2.3202    2.0560    2.2874 H   0  0  0  0  0  0  0  0  0  0  0  0
    5.6465    0.8233    4.7174 H   0  0  0  0  0  0  0  0  0  0  0  0
    2.1646    4.1099    3.3417 H   0  0  0  0  0  0  0  0  0  0  0  0
    5.6004    3.0799    5.7495 H   0  0  0  0  0  0  0  0  0  0  0  0
  1  7  2  0  0  0  0
  1 26  1  0  0  0  0
  2  5  1  0  0  0  0
  2 24  1  1  0  0  0
  2  3  1  0  0  0  0
  2  1  1  0  0  0  0
  3 25  1  6  0  0  0
  3 14  1  0  0  0  0
  3  4  1  0  0  0  0
  4  8  1  0  0  0  0
  4  9  2  0  0  0  0
  5  6  1  0  0  0  0
  5 27  1  0  0  0  0
  5 28  1  0  0  0  0
  6 29  1  0  0  0  0
  6 30  1  0  0  0  0
  6 31  1  0  0  0  0
  8 32  1  0  0  0  0
 10 12  2  0  0  0  0
 11 12  2  0  0  0  0
 12 13  1  0  0  0  0
 12 15  1  0  0  0  0
 13 14  1  0  0  0  0
 13 33  1  0  0  0  0
 14 34  1  0  0  0  0
 14 35  1  0  0  0  0
 15 16  2  0  0  0  0
 15 17  1  0  0  0  0
 16 18  1  0  0  0  0
 16 36  1  0  0  0  0
 17 19  2  0  0  0  0
 17 37  1  0  0  0  0
 18 20  2  0  0  0  0
 18 38  1  0  0  0  0
 19 20  1  0  0  0  0
 19 39  1  0  0  0  0
 20 21  1  0  0  0  0
 21 22  1  0  0  0  0
 21 23  2  0  0  0  0
M  CHG  2  21   1  22  -1
M  END
>  <DRUGBANK_ID>
DB08641

>  <COMMON_NAME>
(2S,3S)-3-FORMYL-2-({[(4-NITROPHENYL)SULFONYL]AMINO}METHYL)PENTANOIC ACID

$$$$
