
 OpenBabel10282417123D

 89 92  0  0  1  0  0  0  0  0999 V2000
    1.0368   -0.2268   -0.3362 C   0  0  0  0  0  0  0  0  0  0  0  0
    0.5243    1.0462   -1.0162 C   0  0  0  0  0  0  0  0  0  0  0  0
    0.9742    1.0823   -2.4679 C   0  0  0  0  0  0  0  0  0  0  0  0
   -0.9765    1.1582   -0.8198 C   0  0  0  0  0  0  0  0  0  0  0  0
   -1.4668    1.4232    0.6281 C   0  0  1  0  0  0  0  0  0  0  0  0
   -0.9716    2.7189    1.1616 N   0  0  0  0  0  0  0  0  0  0  0  0
    0.2157    2.9341    1.5349 C   0  0  0  0  0  0  0  0  0  0  0  0
    1.2695    2.0891    1.6431 N   0  0  0  0  0  0  0  0  0  0  0  0
    0.6791    4.1637    1.8527 N   0  0  0  0  0  0  0  0  0  0  0  0
   -3.0216    1.4382    0.6324 C   0  0  0  0  0  0  0  0  0  0  0  0
   -3.6717    0.5138    1.1294 O   0  0  0  0  0  0  0  0  0  0  0  0
   -3.7186    2.4247   -0.0117 N   0  0  0  0  0  0  0  0  0  0  0  0
   -3.1976    3.4898   -0.8397 C   0  0  0  0  0  0  0  0  0  0  0  0
   -3.4953    3.4160   -2.3615 C   0  0  0  0  0  0  0  0  0  0  0  0
   -3.7667    4.4596   -2.9651 O   0  0  0  0  0  0  0  0  0  0  0  0
   -3.1616    2.2535   -3.0583 N   0  0  0  0  0  0  0  0  0  0  0  0
   -2.6357    2.3490   -4.4089 C   0  0  0  0  0  0  0  0  0  0  0  0
   -3.6090    1.7841   -5.4312 C   0  0  0  0  0  0  0  0  0  0  0  0
   -4.0465    0.3474   -5.0850 C   0  0  3  0  0  0  0  0  0  0  0  0
   -4.5285    0.3007   -3.6197 C   0  0  0  0  0  0  0  0  0  0  0  0
   -3.5165    0.8974   -2.6720 C   0  0  0  0  0  0  0  0  0  0  0  0
   -5.1538   -0.1329   -5.9833 C   0  0  0  0  0  0  0  0  0  0  0  0
   -6.4385   -0.5020   -5.6441 C   0  0  0  0  0  0  0  0  0  0  0  0
   -7.1118   -0.7691   -6.8486 C   0  0  0  0  0  0  0  0  0  0  0  0
   -6.2726   -0.6814   -7.8903 N   0  0  0  0  0  0  0  0  0  0  0  0
   -5.1038   -0.2564   -7.3504 N   0  0  0  0  0  0  0  0  0  0  0  0
   -4.0157    0.0775   -8.2409 C   0  0  0  0  0  0  0  0  0  0  0  0
   -8.5186   -1.1342   -6.9543 C   0  0  0  0  0  0  0  0  0  0  0  0
   -9.5553   -0.3040   -6.4769 C   0  0  0  0  0  0  0  0  0  0  0  0
   -9.1925    1.2855   -5.8580 Cl  0  0  0  0  0  0  0  0  0  0  0  0
  -10.8915   -0.7524   -6.5128 C   0  0  0  0  0  0  0  0  0  0  0  0
  -12.1921    0.2637   -5.9544 Cl  0  0  0  0  0  0  0  0  0  0  0  0
  -11.1974   -2.0294   -7.0158 C   0  0  0  0  0  0  0  0  0  0  0  0
  -12.5310   -2.3690   -7.0890 O   0  0  0  0  0  0  0  0  0  0  0  0
  -12.9094   -3.5846   -7.7501 C   0  0  0  0  0  0  0  0  0  0  0  0
  -12.5060   -3.6427   -9.2093 C   0  0  0  0  0  0  0  0  0  0  0  0
  -12.1913   -2.4894   -9.9481 C   0  0  0  0  0  0  0  0  0  0  0  0
  -11.5805   -2.5789  -11.2081 C   0  0  0  0  0  0  0  0  0  0  0  0
  -11.3210   -3.8328  -11.7702 C   0  0  0  0  0  0  0  0  0  0  0  0
  -10.7970   -3.9324  -13.0875 N   0  0  0  0  0  0  0  0  0  0  0  0
  -10.6205   -5.1308  -13.7697 C   0  0  0  0  0  0  0  0  0  0  0  0
  -10.1533   -5.0237  -15.1926 C   0  0  0  0  0  0  0  0  0  0  0  0
  -10.8123   -6.2594  -13.3300 O   0  0  0  0  0  0  0  0  0  0  0  0
  -11.6358   -4.9669  -11.0164 C   0  0  0  0  0  0  0  0  0  0  0  0
  -12.2787   -4.8866   -9.7867 C   0  0  0  0  0  0  0  0  0  0  0  0
  -10.1530   -2.8437   -7.4700 C   0  0  0  0  0  0  0  0  0  0  0  0
   -8.8324   -2.3986   -7.4552 C   0  0  0  0  0  0  0  0  0  0  0  0
    0.7227   -1.1174   -0.8821 H   0  0  0  0  0  0  0  0  0  0  0  0
    0.6420   -0.3915    0.6728 H   0  0  0  0  0  0  0  0  0  0  0  0
    2.1257   -0.1927   -0.2587 H   0  0  0  0  0  0  0  0  0  0  0  0
    0.9584    1.9700   -0.6379 H   0  0  0  0  0  0  0  0  0  0  0  0
    0.6380    0.2018   -3.0158 H   0  0  0  0  0  0  0  0  0  0  0  0
    0.6095    1.9843   -2.9721 H   0  0  0  0  0  0  0  0  0  0  0  0
    2.0700    1.1234   -2.4879 H   0  0  0  0  0  0  0  0  0  0  0  0
   -1.2956    1.9502   -1.4903 H   0  0  0  0  0  0  0  0  0  0  0  0
   -1.4316    0.2291   -1.1727 H   0  0  0  0  0  0  0  0  0  0  0  0
   -1.1910    0.5877    1.2813 H   0  0  0  0  0  0  0  0  0  0  0  0
    2.0702    2.3796    1.0903 H   0  0  0  0  0  0  0  0  0  0  0  0
    0.9839    1.1864    1.3307 H   0  0  0  0  0  0  0  0  0  0  0  0
   -0.0066    4.7616    2.2933 H   0  0  0  0  0  0  0  0  0  0  0  0
    1.6007    4.1933    2.2632 H   0  0  0  0  0  0  0  0  0  0  0  0
   -4.7251    2.3201    0.0237 H   0  0  0  0  0  0  0  0  0  0  0  0
   -3.5951    4.4253   -0.4359 H   0  0  0  0  0  0  0  0  0  0  0  0
   -2.1159    3.5771   -0.7413 H   0  0  0  0  0  0  0  0  0  0  0  0
   -1.7077    1.7603   -4.4262 H   0  0  0  0  0  0  0  0  0  0  0  0
   -2.3601    3.3775   -4.6614 H   0  0  0  0  0  0  0  0  0  0  0  0
   -3.1119    1.8252   -6.4026 H   0  0  0  0  0  0  0  0  0  0  0  0
   -4.4908    2.4303   -5.4994 H   0  0  0  0  0  0  0  0  0  0  0  0
   -3.1896   -0.3355   -5.1873 H   0  0  0  0  0  0  0  0  0  0  0  0
   -5.4655    0.8609   -3.5082 H   0  0  0  0  0  0  0  0  0  0  0  0
   -4.7261   -0.7362   -3.3164 H   0  0  0  0  0  0  0  0  0  0  0  0
   -3.9361    0.8453   -1.6764 H   0  0  0  0  0  0  0  0  0  0  0  0
   -2.6163    0.2848   -2.7346 H   0  0  0  0  0  0  0  0  0  0  0  0
   -6.8714   -0.5228   -4.6534 H   0  0  0  0  0  0  0  0  0  0  0  0
   -3.8289   -0.7617   -8.9124 H   0  0  0  0  0  0  0  0  0  0  0  0
   -4.2989    0.9732   -8.8013 H   0  0  0  0  0  0  0  0  0  0  0  0
   -3.1016    0.2639   -7.6777 H   0  0  0  0  0  0  0  0  0  0  0  0
  -12.4799   -4.4265   -7.1886 H   0  0  0  0  0  0  0  0  0  0  0  0
  -13.9988   -3.6853   -7.6815 H   0  0  0  0  0  0  0  0  0  0  0  0
  -12.3515   -1.5078   -9.5036 H   0  0  0  0  0  0  0  0  0  0  0  0
  -11.2961   -1.6523  -11.7004 H   0  0  0  0  0  0  0  0  0  0  0  0
  -10.6509   -3.0619  -13.5850 H   0  0  0  0  0  0  0  0  0  0  0  0
   -9.1964   -5.5500  -15.2688 H   0  0  0  0  0  0  0  0  0  0  0  0
  -10.8850   -5.5424  -15.8224 H   0  0  0  0  0  0  0  0  0  0  0  0
  -10.0383   -3.9992  -15.5429 H   0  0  0  0  0  0  0  0  0  0  0  0
  -11.3708   -5.9640  -11.3416 H   0  0  0  0  0  0  0  0  0  0  0  0
  -12.5327   -5.8124   -9.2762 H   0  0  0  0  0  0  0  0  0  0  0  0
  -10.3263   -3.8293   -7.8886 H   0  0  0  0  0  0  0  0  0  0  0  0
   -8.0479   -3.0559   -7.8271 H   0  0  0  0  0  0  0  0  0  0  0  0
  1  2  1  0  0  0  0
  1 48  1  0  0  0  0
  1 49  1  0  0  0  0
  1 50  1  0  0  0  0
  2  3  1  0  0  0  0
  2  4  1  0  0  0  0
  2 51  1  0  0  0  0
  3 52  1  0  0  0  0
  3 53  1  0  0  0  0
  3 54  1  0  0  0  0
  4  5  1  0  0  0  0
  4 55  1  0  0  0  0
  4 56  1  0  0  0  0
  5  6  1  0  0  0  0
  5 10  1  0  0  0  0
  5 57  1  1  0  0  0
  6  7  2  0  0  0  0
  7  8  1  0  0  0  0
  7  9  1  0  0  0  0
  8 58  1  0  0  0  0
  8 59  1  0  0  0  0
  9 60  1  0  0  0  0
  9 61  1  0  0  0  0
 10 11  2  0  0  0  0
 10 12  1  0  0  0  0
 12 13  1  0  0  0  0
 12 62  1  0  0  0  0
 13 14  1  0  0  0  0
 13 63  1  0  0  0  0
 13 64  1  0  0  0  0
 14 15  2  0  0  0  0
 14 16  1  0  0  0  0
 16 17  1  0  0  0  0
 16 21  1  0  0  0  0
 17 18  1  0  0  0  0
 17 65  1  0  0  0  0
 17 66  1  0  0  0  0
 18 19  1  0  0  0  0
 18 67  1  0  0  0  0
 18 68  1  0  0  0  0
 19 20  1  0  0  0  0
 19 22  1  0  0  0  0
 19 69  1  0  0  0  0
 20 21  1  0  0  0  0
 20 70  1  0  0  0  0
 20 71  1  0  0  0  0
 21 72  1  0  0  0  0
 21 73  1  0  0  0  0
 22 23  2  0  0  0  0
 22 26  1  0  0  0  0
 23 24  1  0  0  0  0
 23 74  1  0  0  0  0
 24 25  2  0  0  0  0
 24 28  1  0  0  0  0
 25 26  1  0  0  0  0
 26 27  1  0  0  0  0
 27 75  1  0  0  0  0
 27 76  1  0  0  0  0
 27 77  1  0  0  0  0
 28 29  2  0  0  0  0
 28 47  1  0  0  0  0
 29 30  1  0  0  0  0
 29 31  1  0  0  0  0
 31 32  1  0  0  0  0
 31 33  2  0  0  0  0
 33 34  1  0  0  0  0
 33 46  1  0  0  0  0
 34 35  1  0  0  0  0
 35 36  1  0  0  0  0
 35 78  1  0  0  0  0
 35 79  1  0  0  0  0
 36 37  2  0  0  0  0
 36 45  1  0  0  0  0
 37 38  1  0  0  0  0
 37 80  1  0  0  0  0
 38 39  2  0  0  0  0
 38 81  1  0  0  0  0
 39 40  1  0  0  0  0
 39 44  1  0  0  0  0
 40 41  1  0  0  0  0
 40 82  1  0  0  0  0
 41 42  1  0  0  0  0
 41 43  2  0  0  0  0
 42 83  1  0  0  0  0
 42 84  1  0  0  0  0
 42 85  1  0  0  0  0
 44 45  2  0  0  0  0
 44 86  1  0  0  0  0
 45 87  1  0  0  0  0
 46 47  2  0  0  0  0
 46 88  1  0  0  0  0
 47 89  1  0  0  0  0
M  END
>  <DRUGBANK_ID>
DB02555

>  <SECONDARY_ACCESSION_NUMBERS>
EXPT01492

>  <COMMON_NAME>
SP4160

$$$$
