TL5
 OpenBabel10282417173D

 31 31  0  0  0  0  0  0  0  0999 V2000
    1.0157    0.2882   -0.0930 O   0  0  0  0  0  0  0  0  0  0  0  0
    2.2318    0.1678   -0.1854 C   0  0  0  0  0  0  0  0  0  0  0  0
    3.1945    1.2937   -0.2397 C   0  0  0  0  0  0  0  0  0  0  0  0
    2.7192    2.7008   -0.3354 C   0  0  0  0  0  0  0  0  0  0  0  0
    3.0593   -1.3642   -0.1103 S   0  0  0  0  0  0  0  0  0  0  0  0
    4.5536   -0.5642    0.5966 C   0  0  2  0  0  0  0  0  0  0  0  0
    4.4038    0.8890    0.1952 C   0  0  0  0  0  0  0  0  0  0  0  0
    5.4617    1.7298    0.4841 O   0  0  0  0  0  0  0  0  0  0  0  0
    5.8126   -1.1572   -0.0408 C   0  0  0  0  0  0  0  0  0  0  0  0
    4.5143   -0.8223    2.0998 C   0  0  0  0  0  0  0  0  0  0  0  0
    3.9355   -0.1320    3.1112 C   0  0  0  0  0  0  0  0  0  0  0  0
    3.1128    1.1151    2.9608 C   0  0  0  0  0  0  0  0  0  0  0  0
    4.0120   -0.5438    4.5073 C   0  0  0  0  0  0  0  0  0  0  0  0
    4.6514   -1.6179    4.9895 C   0  0  0  0  0  0  0  0  0  0  0  0
    4.6963   -1.9677    6.4351 C   0  0  0  0  0  0  0  0  0  0  0  0
    2.9140    3.2379    0.6033 H   0  0  0  0  0  0  0  0  0  0  0  0
    3.2378    3.2241   -1.1395 H   0  0  0  0  0  0  0  0  0  0  0  0
    1.6408    2.7586   -0.5066 H   0  0  0  0  0  0  0  0  0  0  0  0
    5.2066    2.6577    0.3456 H   0  0  0  0  0  0  0  0  0  0  0  0
    5.6558   -2.1746   -0.4140 H   0  0  0  0  0  0  0  0  0  0  0  0
    6.1648   -0.5475   -0.8808 H   0  0  0  0  0  0  0  0  0  0  0  0
    6.6367   -1.2018    0.6818 H   0  0  0  0  0  0  0  0  0  0  0  0
    5.0392   -1.7437    2.3500 H   0  0  0  0  0  0  0  0  0  0  0  0
    2.0798    0.9768    3.2890 H   0  0  0  0  0  0  0  0  0  0  0  0
    3.5819    1.9821    3.4309 H   0  0  0  0  0  0  0  0  0  0  0  0
    2.9945    1.4080    1.9462 H   0  0  0  0  0  0  0  0  0  0  0  0
    3.4907    0.1067    5.2125 H   0  0  0  0  0  0  0  0  0  0  0  0
    5.1823   -2.3005    4.3362 H   0  0  0  0  0  0  0  0  0  0  0  0
    4.2580   -2.9583    6.5836 H   0  0  0  0  0  0  0  0  0  0  0  0
    5.7374   -1.9898    6.7689 H   0  0  0  0  0  0  0  0  0  0  0  0
    4.1491   -1.2480    7.0507 H   0  0  0  0  0  0  0  0  0  0  0  0
  1  2  2  0  0  0  0
  2  3  1  0  0  0  0
  2  5  1  0  0  0  0
  3  4  1  0  0  0  0
  3  7  2  0  0  0  0
  4 16  1  0  0  0  0
  4 17  1  0  0  0  0
  4 18  1  0  0  0  0
  5  6  1  0  0  0  0
  6  7  1  0  0  0  0
  6 10  1  1  0  0  0
  6  9  1  0  0  0  0
  7  8  1  0  0  0  0
  8 19  1  0  0  0  0
  9 20  1  0  0  0  0
  9 21  1  0  0  0  0
  9 22  1  0  0  0  0
 10 11  2  0  0  0  0
 10 23  1  0  0  0  0
 11 12  1  0  0  0  0
 11 13  1  0  0  0  0
 12 24  1  0  0  0  0
 12 25  1  0  0  0  0
 12 26  1  0  0  0  0
 13 14  2  0  0  0  0
 13 27  1  0  0  0  0
 14 15  1  0  0  0  0
 14 28  1  0  0  0  0
 15 29  1  0  0  0  0
 15 30  1  0  0  0  0
 15 31  1  0  0  0  0
M  END
>  <DRUGBANK_ID>
DB08627

>  <COMMON_NAME>
(5R)-4-HYDROXY-3,5-DIMETHYL-5-[(1E,3E)-2-METHYLPENTA-1,3-DIENYL]THIOPHEN-2(5H)-ONE

$$$$
