
 OpenBabel10282417123D

  5  4  0  0  0  0  0  0  0  0999 V2000
    1.0182    0.0759    0.1154 N   0  0  0  0  0  0  0  0  0  0  0  0
    0.3530    0.1978    1.2610 C   0  0  0  0  0  0  0  0  0  0  0  0
   -0.2247    0.3037    2.2561 N   0  0  0  0  0  0  0  0  0  0  0  0
    0.5402   -0.0197   -0.7829 H   0  0  0  0  0  0  0  0  0  0  0  0
    2.0395    0.0719    0.0778 H   0  0  0  0  0  0  0  0  0  0  0  0
  1  2  1  0  0  0  0
  1  4  1  0  0  0  0
  1  5  1  0  0  0  0
  2  3  3  0  0  0  0
M  END
>  <DRUGBANK_ID>
DB02679

>  <SECONDARY_ACCESSION_NUMBERS>
EXPT00971

>  <COMMON_NAME>
Cyanamide

>  <CAS_NUMBER>
420-04-2

>  <UNII>
21CP7826LC

>  <SYNONYMS>
Cyanamide

$$$$
