D5G
 OpenBabel10282417163D

 49 50  0  0  0  0  0  0  0  0999 V2000
    1.5502   -0.4160   -0.1009 C   0  0  0  0  0  0  0  0  0  0  0  0
    0.6876   -1.5548   -0.1053 C   0  0  0  0  0  0  0  0  0  0  0  0
   -0.7066   -1.4238   -0.1079 C   0  0  0  0  0  0  0  0  0  0  0  0
   -1.2007   -0.1919    0.1628 C   0  0  0  0  0  0  0  0  0  0  0  0
   -0.2453    0.7159    0.5946 C   0  0  0  0  0  0  0  0  0  0  0  0
    1.0086    0.8316    0.0690 C   0  0  0  0  0  0  0  0  0  0  0  0
    1.6675    2.0979   -0.1490 N   0  0  0  0  0  0  0  0  0  0  0  0
    1.2621    3.4151   -0.2528 C   0  0  0  0  0  0  0  0  0  0  0  0
    2.4023    4.6083   -0.5725 S   0  0  0  0  0  0  0  0  0  0  0  0
   -0.0137    3.8694   -0.1580 N   0  0  0  0  0  0  0  0  0  0  0  0
   -1.2336    3.0937   -0.2607 C   0  0  1  0  0  0  0  0  0  0  0  0
   -1.8727    2.9513    1.2230 C   0  0  0  0  0  0  0  0  0  0  0  0
   -2.9028    3.9870    1.5635 C   0  0  0  0  0  0  0  0  0  0  0  0
   -4.1374    3.5586    0.7776 C   0  0  0  0  0  0  0  0  0  0  0  0
   -3.4271    4.2443    2.9501 C   0  0  0  0  0  0  0  0  0  0  0  0
   -2.1509    2.9967   -1.5249 C   0  0  0  0  0  0  0  0  0  0  0  0
   -2.4043    1.8840   -2.0542 O   0  0  0  0  0  0  0  0  0  0  0  0
   -2.8586    4.0599   -1.9873 N   0  0  0  0  0  0  0  0  0  0  0  0
   -2.9361    5.2853   -1.2549 C   0  0  2  0  0  0  0  0  0  0  0  0
   -4.2576    6.0354   -1.1077 C   0  0  0  0  0  0  0  0  0  0  0  0
   -3.8975    7.4138   -0.9868 O   0  0  0  0  0  0  0  0  0  0  0  0
   -1.9262    6.3056   -1.6148 C   0  0  0  0  0  0  0  0  0  0  0  0
   -2.4825    7.4671   -0.8304 C   0  0  1  0  0  0  0  0  0  0  0  0
   -2.0063    8.6549   -1.3844 O   0  0  0  0  0  0  0  0  0  0  0  0
   -0.7436    2.2201   -0.6195 H   0  0  0  0  0  0  0  0  0  0  0  0
   -2.6007    5.0498   -0.2852 H   0  0  0  0  0  0  0  0  0  0  0  0
   -2.2244    7.4021    0.2413 H   0  0  0  0  0  0  0  0  0  0  0  0
    2.6227   -0.5455   -0.1396 H   0  0  0  0  0  0  0  0  0  0  0  0
    1.0995   -2.5543   -0.0948 H   0  0  0  0  0  0  0  0  0  0  0  0
   -1.4027   -2.2533   -0.1751 H   0  0  0  0  0  0  0  0  0  0  0  0
   -2.2678    0.0248    0.1971 H   0  0  0  0  0  0  0  0  0  0  0  0
   -0.4721    1.4155    1.3547 H   0  0  0  0  0  0  0  0  0  0  0  0
    2.6484    2.0156   -0.3988 H   0  0  0  0  0  0  0  0  0  0  0  0
   -0.0963    4.8753   -0.1351 H   0  0  0  0  0  0  0  0  0  0  0  0
   -2.3736    1.9827    1.3528 H   0  0  0  0  0  0  0  0  0  0  0  0
   -1.0883    3.0320    1.9956 H   0  0  0  0  0  0  0  0  0  0  0  0
   -2.3748    4.9307    1.3802 H   0  0  0  0  0  0  0  0  0  0  0  0
   -4.6411    2.6775    1.1707 H   0  0  0  0  0  0  0  0  0  0  0  0
   -4.8538    4.3585    0.7639 H   0  0  0  0  0  0  0  0  0  0  0  0
   -3.9268    3.2372   -0.2257 H   0  0  0  0  0  0  0  0  0  0  0  0
   -2.6434    4.3821    3.6917 H   0  0  0  0  0  0  0  0  0  0  0  0
   -3.9929    5.1882    2.8777 H   0  0  0  0  0  0  0  0  0  0  0  0
   -4.1261    3.4647    3.2524 H   0  0  0  0  0  0  0  0  0  0  0  0
   -3.6350    3.7412   -2.5610 H   0  0  0  0  0  0  0  0  0  0  0  0
   -4.9463    5.8551   -1.9330 H   0  0  0  0  0  0  0  0  0  0  0  0
   -4.8338    5.8479   -0.2020 H   0  0  0  0  0  0  0  0  0  0  0  0
   -0.9112    6.0810   -1.2906 H   0  0  0  0  0  0  0  0  0  0  0  0
   -1.8984    6.4353   -2.6946 H   0  0  0  0  0  0  0  0  0  0  0  0
   -2.2170    8.5541   -2.3273 H   0  0  0  0  0  0  0  0  0  0  0  0
  1  2  1  0  0  0  0
  1  6  2  0  0  0  0
  1 28  1  0  0  0  0
  2  3  2  0  0  0  0
  2 29  1  0  0  0  0
  3  4  1  0  0  0  0
  3 30  1  0  0  0  0
  4  5  2  0  0  0  0
  4 31  1  0  0  0  0
  5  6  1  0  0  0  0
  5 32  1  0  0  0  0
  6  7  1  0  0  0  0
  7  8  1  0  0  0  0
  7 33  1  0  0  0  0
  8  9  2  0  0  0  0
  8 10  1  0  0  0  0
 10 34  1  0  0  0  0
 11 10  1  0  0  0  0
 11 12  1  0  0  0  0
 11 16  1  0  0  0  0
 11 25  1  6  0  0  0
 12 13  1  0  0  0  0
 12 35  1  0  0  0  0
 12 36  1  0  0  0  0
 13 14  1  0  0  0  0
 13 15  1  0  0  0  0
 13 37  1  0  0  0  0
 14 38  1  0  0  0  0
 14 39  1  0  0  0  0
 14 40  1  0  0  0  0
 15 41  1  0  0  0  0
 15 42  1  0  0  0  0
 15 43  1  0  0  0  0
 16 17  2  0  0  0  0
 16 18  1  0  0  0  0
 18 44  1  0  0  0  0
 19 18  1  0  0  0  0
 19 20  1  0  0  0  0
 19 22  1  0  0  0  0
 19 26  1  1  0  0  0
 20 21  1  0  0  0  0
 20 45  1  0  0  0  0
 20 46  1  0  0  0  0
 21 23  1  0  0  0  0
 22 23  1  0  0  0  0
 22 47  1  0  0  0  0
 22 48  1  0  0  0  0
 23 24  1  0  0  0  0
 23 27  1  1  0  0  0
 24 49  1  0  0  0  0
M  END
>  <DRUGBANK_ID>
DB07627

>  <COMMON_NAME>
(2S)-4-METHYL-2-(3-PHENYLTHIOUREIDO)-N-((3S)-TETRAHYDRO-2-HYDROXY-3-FURANYL)PENTANAMIDE

$$$$
