
 OpenBabel10282417233D

 61 63  0  0  1  0  0  0  0  0999 V2000
    0.6551   -1.3187   -6.4338 C   0  0  0  0  0  0  0  0  0  0  0  0
   -0.5621   -1.3843   -5.6471 O   0  0  0  0  0  0  0  0  0  0  0  0
   -1.4406   -2.4151   -5.8792 C   0  0  0  0  0  0  0  0  0  0  0  0
   -1.2325   -3.2652   -6.7362 O   0  0  0  0  0  0  0  0  0  0  0  0
   -2.5512   -2.4433   -5.0052 N   0  0  0  0  0  0  0  0  0  0  0  0
   -3.1742   -3.6957   -4.6720 C   0  0  0  0  0  0  0  0  0  0  0  0
   -4.5706   -3.8479   -5.2870 C   0  0  0  0  0  0  0  0  0  0  0  0
   -5.4687   -2.6121   -5.1151 C   0  0  0  0  0  0  0  0  0  0  0  0
   -4.7410   -1.3060   -5.5187 C   0  0  2  0  0  0  0  0  0  0  0  0
   -4.4197   -1.2012   -7.0044 N   0  0  0  0  0  0  0  0  0  0  0  0
   -3.9807    0.2705   -7.8082 S   0  0  0  0  0  0  0  0  0  0  0  0
   -2.1518    0.6695   -7.5498 C   0  0  0  0  0  0  0  0  0  0  0  0
   -4.0543   -0.0834   -9.2299 O   0  0  0  0  0  0  0  0  0  0  0  0
   -4.7991    1.3262   -7.3004 O   0  0  0  0  0  0  0  0  0  0  0  0
   -3.4419   -1.3101   -4.6367 C   0  0  2  0  0  0  0  0  0  0  0  0
   -2.7636   -0.0264   -4.8450 C   0  0  0  0  0  0  0  0  0  0  0  0
   -3.5552    1.1200   -4.7630 O   0  0  0  0  0  0  0  0  0  0  0  0
   -3.7579    1.4130   -3.4004 C   0  0  1  0  0  0  0  0  0  0  0  0
   -2.9657    2.6582   -3.0777 C   0  0  0  0  0  0  0  0  0  0  0  0
   -3.5760    3.8939   -3.6954 C   0  0  0  0  0  0  0  0  0  0  0  0
   -5.0879    4.0091   -3.4049 C   0  0  2  0  0  0  0  0  0  0  0  0
   -5.8552    2.7289   -3.8028 C   0  0  0  0  0  0  0  0  0  0  0  0
   -5.2510    1.4947   -3.1715 C   0  0  0  0  0  0  0  0  0  0  0  0
   -5.6081    5.1683   -4.2204 C   0  0  0  0  0  0  0  0  0  0  0  0
   -5.5098    5.0261   -5.6154 C   0  0  0  0  0  0  0  0  0  0  0  0
   -5.8807    6.0292   -6.4802 C   0  0  0  0  0  0  0  0  0  0  0  0
   -6.3997    7.2010   -5.9595 C   0  0  0  0  0  0  0  0  0  0  0  0
   -6.5573    7.3516   -4.5760 C   0  0  0  0  0  0  0  0  0  0  0  0
   -6.1251    6.3537   -3.6932 C   0  0  0  0  0  0  0  0  0  0  0  0
    1.2527   -0.4650   -6.0834 H   0  0  0  0  0  0  0  0  0  0  0  0
    0.4385   -1.1435   -7.4926 H   0  0  0  0  0  0  0  0  0  0  0  0
    1.2638   -2.2202   -6.3150 H   0  0  0  0  0  0  0  0  0  0  0  0
   -3.2658   -3.6636   -3.5788 H   0  0  0  0  0  0  0  0  0  0  0  0
   -2.5170   -4.5290   -4.9242 H   0  0  0  0  0  0  0  0  0  0  0  0
   -5.0546   -4.7143   -4.8226 H   0  0  0  0  0  0  0  0  0  0  0  0
   -4.4794   -4.0479   -6.3573 H   0  0  0  0  0  0  0  0  0  0  0  0
   -6.4213   -2.7461   -5.6412 H   0  0  0  0  0  0  0  0  0  0  0  0
   -5.7399   -2.5358   -4.0457 H   0  0  0  0  0  0  0  0  0  0  0  0
   -5.4362   -0.4928   -5.2835 H   0  0  0  0  0  0  0  0  0  0  0  0
   -4.0595   -2.0446   -7.4477 H   0  0  0  0  0  0  0  0  0  0  0  0
   -1.5974   -0.2479   -7.7582 H   0  0  0  0  0  0  0  0  0  0  0  0
   -1.8356    1.4936   -8.1782 H   0  0  0  0  0  0  0  0  0  0  0  0
   -1.8497    1.0711   -6.5749 H   0  0  0  0  0  0  0  0  0  0  0  0
   -3.7060   -1.4141   -3.5782 H   0  0  0  0  0  0  0  0  0  0  0  0
   -1.7772    0.1233   -4.4213 H   0  0  0  0  0  0  0  0  0  0  0  0
   -2.6273   -0.2341   -5.8617 H   0  0  0  0  0  0  0  0  0  0  0  0
   -3.3583    0.6056   -2.7830 H   0  0  0  0  0  0  0  0  0  0  0  0
   -2.9236    2.7608   -1.9940 H   0  0  0  0  0  0  0  0  0  0  0  0
   -1.9390    2.5600   -3.4588 H   0  0  0  0  0  0  0  0  0  0  0  0
   -3.0479    4.7845   -3.3345 H   0  0  0  0  0  0  0  0  0  0  0  0
   -3.3767    3.8562   -4.7757 H   0  0  0  0  0  0  0  0  0  0  0  0
   -5.2292    4.1684   -2.3268 H   0  0  0  0  0  0  0  0  0  0  0  0
   -6.9132    2.8058   -3.5257 H   0  0  0  0  0  0  0  0  0  0  0  0
   -5.8591    2.5745   -4.8901 H   0  0  0  0  0  0  0  0  0  0  0  0
   -5.7549    0.6247   -3.6059 H   0  0  0  0  0  0  0  0  0  0  0  0
   -5.4399    1.4756   -2.0996 H   0  0  0  0  0  0  0  0  0  0  0  0
   -5.1027    4.1120   -6.0448 H   0  0  0  0  0  0  0  0  0  0  0  0
   -5.7528    5.8625   -7.5432 H   0  0  0  0  0  0  0  0  0  0  0  0
   -6.6756    7.9972   -6.6412 H   0  0  0  0  0  0  0  0  0  0  0  0
   -7.0180    8.2594   -4.1960 H   0  0  0  0  0  0  0  0  0  0  0  0
   -6.1903    6.5277   -2.6206 H   0  0  0  0  0  0  0  0  0  0  0  0
  1  2  1  0  0  0  0
  1 30  1  0  0  0  0
  1 31  1  0  0  0  0
  1 32  1  0  0  0  0
  2  3  1  0  0  0  0
  3  4  2  0  0  0  0
  3  5  1  0  0  0  0
  5  6  1  0  0  0  0
  6  7  1  0  0  0  0
  6 33  1  0  0  0  0
  6 34  1  0  0  0  0
  7  8  1  0  0  0  0
  7 35  1  0  0  0  0
  7 36  1  0  0  0  0
  8 37  1  0  0  0  0
  8 38  1  0  0  0  0
  9  8  1  0  0  0  0
  9 10  1  0  0  0  0
  9 15  1  0  0  0  0
  9 39  1  1  0  0  0
 10 11  1  0  0  0  0
 10 40  1  0  0  0  0
 11 12  1  0  0  0  0
 11 13  2  0  0  0  0
 11 14  2  0  0  0  0
 12 41  1  0  0  0  0
 12 42  1  0  0  0  0
 12 43  1  0  0  0  0
 15  5  1  0  0  0  0
 15 16  1  0  0  0  0
 15 44  1  1  0  0  0
 16 17  1  0  0  0  0
 16 45  1  0  0  0  0
 16 46  1  0  0  0  0
 18 19  1  0  0  0  0
 18 23  1  0  0  0  0
 18 47  1  1  0  0  0
 18 17  1  0  0  0  0
 19 20  1  0  0  0  0
 19 48  1  0  0  0  0
 19 49  1  0  0  0  0
 20 50  1  0  0  0  0
 20 51  1  0  0  0  0
 21 20  1  0  0  0  0
 21 22  1  0  0  0  0
 21 52  1  1  0  0  0
 21 24  1  0  0  0  0
 22 23  1  0  0  0  0
 22 53  1  0  0  0  0
 22 54  1  0  0  0  0
 23 55  1  0  0  0  0
 23 56  1  0  0  0  0
 24 25  2  0  0  0  0
 24 29  1  0  0  0  0
 25 26  1  0  0  0  0
 25 57  1  0  0  0  0
 26 27  2  0  0  0  0
 26 58  1  0  0  0  0
 27 28  1  0  0  0  0
 27 59  1  0  0  0  0
 28 29  2  0  0  0  0
 28 60  1  0  0  0  0
 29 61  1  0  0  0  0
M  END
>  <DRUGBANK_ID>
DB16962

>  <COMMON_NAME>
Danavorexton

>  <CAS_NUMBER>
2114324-48-8

>  <UNII>
1QMD83K4YN

>  <SYNONYMS>
1-piperidinecarboxylic acid, 3-((methylsulfonyl)amino)-2-(((cis-4-phenylcyclohexyl)oxy)methyl)-, methyl ester, (2r,3s)-; Methyl (2r,3s)-3-((methylsulfonyl)amino)-2-(((cis-4-phenylcyclohexyl)oxy)methyl)piperidine-1-carboxylate; Methyl (2R,3S)-3-[(Methylsulfonyl)Amino]-2-{[(Cis-4-Phenylcyclohexyl)Oxy]Methyl}Piperidine-1-Carboxylate

$$$$
