PPT
 OpenBabel10282417133D

 24 24  0  0  0  0  0  0  0  0999 V2000
    0.9009   -0.0910    0.0824 C   0  0  0  0  0  0  0  0  0  0  0  0
    0.1794    1.0338    0.7982 C   0  0  0  0  0  0  0  0  0  0  0  0
   -0.9711    1.4193    0.6293 O   0  0  0  0  0  0  0  0  0  0  0  0
    0.9902    1.7105    1.6389 O   0  0  0  0  0  0  0  0  0  0  0  0
    0.5106   -0.3186   -1.3942 C   0  0  0  0  0  0  0  0  0  0  0  0
    0.2287    0.9099   -2.2334 C   0  0  0  0  0  0  0  0  0  0  0  0
    0.4925    2.1931   -1.7477 C   0  0  0  0  0  0  0  0  0  0  0  0
   -0.3901    0.8036   -3.4836 C   0  0  0  0  0  0  0  0  0  0  0  0
   -0.1124    3.3077   -2.2924 C   0  0  0  0  0  0  0  0  0  0  0  0
   -0.8170    1.9594   -4.1513 C   0  0  0  0  0  0  0  0  0  0  0  0
   -0.7258    3.2116   -3.5297 C   0  0  0  0  0  0  0  0  0  0  0  0
   -1.1606    4.4713   -4.2027 C   0  0  0  0  0  0  0  0  0  0  0  0
    0.7178   -0.9993    0.6643 H   0  0  0  0  0  0  0  0  0  0  0  0
    1.9808    0.1053    0.1106 H   0  0  0  0  0  0  0  0  0  0  0  0
    0.4599    2.4971    1.8927 H   0  0  0  0  0  0  0  0  0  0  0  0
   -0.3818   -0.9607   -1.4008 H   0  0  0  0  0  0  0  0  0  0  0  0
    1.3042   -0.8959   -1.8880 H   0  0  0  0  0  0  0  0  0  0  0  0
    1.1078    2.3664   -0.8755 H   0  0  0  0  0  0  0  0  0  0  0  0
   -0.5418   -0.1687   -3.9487 H   0  0  0  0  0  0  0  0  0  0  0  0
   -0.0752    4.2445   -1.7437 H   0  0  0  0  0  0  0  0  0  0  0  0
   -1.2352    1.8784   -5.1510 H   0  0  0  0  0  0  0  0  0  0  0  0
   -0.5199    4.6429   -5.0715 H   0  0  0  0  0  0  0  0  0  0  0  0
   -2.2089    4.4160   -4.5008 H   0  0  0  0  0  0  0  0  0  0  0  0
   -1.0433    5.3321   -3.5324 H   0  0  0  0  0  0  0  0  0  0  0  0
  1  2  1  0  0  0  0
  1  5  1  0  0  0  0
  1 13  1  0  0  0  0
  1 14  1  0  0  0  0
  2  3  2  0  0  0  0
  2  4  1  0  0  0  0
  4 15  1  0  0  0  0
  5  6  1  0  0  0  0
  5 16  1  0  0  0  0
  5 17  1  0  0  0  0
  6  7  2  0  0  0  0
  6  8  1  0  0  0  0
  7  9  1  0  0  0  0
  7 18  1  0  0  0  0
  8 10  2  0  0  0  0
  8 19  1  0  0  0  0
  9 11  2  0  0  0  0
  9 20  1  0  0  0  0
 10 11  1  0  0  0  0
 10 21  1  0  0  0  0
 11 12  1  0  0  0  0
 12 22  1  0  0  0  0
 12 23  1  0  0  0  0
 12 24  1  0  0  0  0
M  END
>  <DRUGBANK_ID>
DB03400

>  <SECONDARY_ACCESSION_NUMBERS>
EXPT02648

>  <COMMON_NAME>
3-(P-Tolyl)Propionic Acid

>  <UNII>
BG327JNM0V

$$$$
