
 OpenBabel10282417213D

 63 66  0  0  0  0  0  0  0  0999 V2000
    0.8139   -0.0685    0.0827 C   0  0  0  0  0  0  0  0  0  0  0  0
    0.3709    1.2703   -0.4964 C   0  0  0  0  0  0  0  0  0  0  0  0
    1.3065   -0.5786   -3.1472 C   0  0  0  0  0  0  0  0  0  0  0  0
   -0.0443    0.9644   -4.2794 C   0  0  0  0  0  0  0  0  0  0  0  0
   -0.8191    3.3517   -2.8087 C   0  0  0  0  0  0  0  0  0  0  0  0
    1.1467    4.1877   -1.7089 C   0  0  0  0  0  0  0  0  0  0  0  0
    2.5800   -7.4029   -0.5179 C   0  0  0  0  0  0  0  0  0  0  0  0
    0.8068   -1.5937   -4.0035 C   0  0  0  0  0  0  0  0  0  0  0  0
   -0.5209   -0.0265   -5.1477 C   0  0  0  0  0  0  0  0  0  0  0  0
   -1.1070    4.6168   -3.3038 C   0  0  0  0  0  0  0  0  0  0  0  0
    0.7676    5.4838   -2.0623 C   0  0  0  0  0  0  0  0  0  0  0  0
    3.5312   -8.3702   -0.2114 C   0  0  0  0  0  0  0  0  0  0  0  0
    1.7168   -4.6083   -1.2169 C   0  0  0  0  0  0  0  0  0  0  0  0
    1.1400   -4.2715    1.1970 C   0  0  0  0  0  0  0  0  0  0  0  0
    0.0464   -1.2367   -0.5353 C   0  0  0  0  0  0  0  0  0  0  0  0
    0.9015   -3.3550   -1.4387 C   0  0  0  0  0  0  0  0  0  0  0  0
    0.2396   -3.1225    0.8457 C   0  0  0  0  0  0  0  0  0  0  0  0
    3.0626   -6.3212    1.5728 C   0  0  0  0  0  0  0  0  0  0  0  0
    0.7232    0.6847   -3.1298 C   0  0  0  0  0  0  0  0  0  0  0  0
    0.4012    3.0912   -2.1601 C   0  0  0  0  0  0  0  0  0  0  0  0
    2.3115   -6.3721    0.3877 C   0  0  0  0  0  0  0  0  0  0  0  0
   -0.1553   -1.3173   -4.9497 C   0  0  0  0  0  0  0  0  0  0  0  0
   -0.3152    5.6788   -2.9125 C   0  0  0  0  0  0  0  0  0  0  0  0
    0.9170    1.6597   -1.9231 C   0  0  0  0  0  0  0  0  0  0  0  0
    4.0303   -7.2823    1.8969 C   0  0  0  0  0  0  0  0  0  0  0  0
    4.2404   -8.3218    0.9950 C   0  0  0  0  0  0  0  0  0  0  0  0
    1.2866   -5.2985    0.0633 C   0  0  0  0  0  0  0  0  0  0  0  0
    4.7531   -7.0870    3.2009 C   0  0  0  0  0  0  0  0  0  0  0  0
    5.3476   -9.6058    1.2866 Cl  0  0  0  0  0  0  0  0  0  0  0  0
   -0.6500   -2.3144   -5.6959 F   0  0  0  0  0  0  0  0  0  0  0  0
   -0.6212    6.9121   -3.3319 F   0  0  0  0  0  0  0  0  0  0  0  0
    5.4316   -5.9015    3.2285 F   0  0  0  0  0  0  0  0  0  0  0  0
    3.8852   -7.0226    4.2533 F   0  0  0  0  0  0  0  0  0  0  0  0
    5.6622   -8.0351    3.5341 F   0  0  0  0  0  0  0  0  0  0  0  0
    0.8213   -2.4503   -0.2977 N   0  0  0  0  0  0  0  0  0  0  0  0
    0.0082   -5.9099   -0.1397 O   0  0  0  0  0  0  0  0  0  0  0  0
    0.6224   -0.0777    1.1672 H   0  0  0  0  0  0  0  0  0  0  0  0
    1.9035   -0.1645   -0.0203 H   0  0  0  0  0  0  0  0  0  0  0  0
   -0.7240    1.3298   -0.4561 H   0  0  0  0  0  0  0  0  0  0  0  0
    0.7251    2.0313    0.2212 H   0  0  0  0  0  0  0  0  0  0  0  0
    2.0328   -0.8452   -2.3746 H   0  0  0  0  0  0  0  0  0  0  0  0
   -0.3028    1.9691   -4.5634 H   0  0  0  0  0  0  0  0  0  0  0  0
   -1.5178    2.5483   -3.0338 H   0  0  0  0  0  0  0  0  0  0  0  0
    2.0210    4.0382   -1.0787 H   0  0  0  0  0  0  0  0  0  0  0  0
    2.0635   -7.4611   -1.4738 H   0  0  0  0  0  0  0  0  0  0  0  0
    1.0742   -2.6353   -3.9278 H   0  0  0  0  0  0  0  0  0  0  0  0
   -1.1752    0.2318   -5.9749 H   0  0  0  0  0  0  0  0  0  0  0  0
   -1.9345    4.7646   -3.9901 H   0  0  0  0  0  0  0  0  0  0  0  0
    1.3267    6.3402   -1.7046 H   0  0  0  0  0  0  0  0  0  0  0  0
    3.7136   -9.1697   -0.9250 H   0  0  0  0  0  0  0  0  0  0  0  0
    2.7832   -4.3375   -1.1808 H   0  0  0  0  0  0  0  0  0  0  0  0
    1.6006   -5.2523   -2.1026 H   0  0  0  0  0  0  0  0  0  0  0  0
    0.7334   -4.7439    2.0948 H   0  0  0  0  0  0  0  0  0  0  0  0
    2.1194   -3.8322    1.4362 H   0  0  0  0  0  0  0  0  0  0  0  0
   -0.9733   -1.2863   -0.1366 H   0  0  0  0  0  0  0  0  0  0  0  0
   -0.1629   -1.0890   -1.5810 H   0  0  0  0  0  0  0  0  0  0  0  0
    1.5252   -2.8767   -2.1705 H   0  0  0  0  0  0  0  0  0  0  0  0
   -0.0828   -3.5998   -1.8566 H   0  0  0  0  0  0  0  0  0  0  0  0
    0.2202   -2.4292    1.6940 H   0  0  0  0  0  0  0  0  0  0  0  0
   -0.7872   -3.4427    0.6387 H   0  0  0  0  0  0  0  0  0  0  0  0
    2.9186   -5.5130    2.2902 H   0  0  0  0  0  0  0  0  0  0  0  0
    2.0108    1.7318   -1.8162 H   0  0  0  0  0  0  0  0  0  0  0  0
    0.0703   -6.5092   -0.9013 H   0  0  0  0  0  0  0  0  0  0  0  0
  1 37  1  0  0  0  0
  1 38  1  0  0  0  0
  2  1  1  0  0  0  0
  2 39  1  0  0  0  0
  2 40  1  0  0  0  0
  3 41  1  0  0  0  0
  4 42  1  0  0  0  0
  5 43  1  0  0  0  0
  6 44  1  0  0  0  0
  7 45  1  0  0  0  0
  8  3  1  0  0  0  0
  8 46  1  0  0  0  0
  9  4  2  0  0  0  0
  9 47  1  0  0  0  0
 10  5  1  0  0  0  0
 10 48  1  0  0  0  0
 11  6  2  0  0  0  0
 11 49  1  0  0  0  0
 12  7  2  0  0  0  0
 12 50  1  0  0  0  0
 13 51  1  0  0  0  0
 13 52  1  0  0  0  0
 14 53  1  0  0  0  0
 14 54  1  0  0  0  0
 15  1  1  0  0  0  0
 15 55  1  0  0  0  0
 15 56  1  0  0  0  0
 16 13  1  0  0  0  0
 16 57  1  0  0  0  0
 16 58  1  0  0  0  0
 17 14  1  0  0  0  0
 17 59  1  0  0  0  0
 17 60  1  0  0  0  0
 18 61  1  0  0  0  0
 19  3  2  0  0  0  0
 19  4  1  0  0  0  0
 20  5  2  0  0  0  0
 20  6  1  0  0  0  0
 21  7  1  0  0  0  0
 21 18  2  0  0  0  0
 22  8  2  0  0  0  0
 22  9  1  0  0  0  0
 23 10  2  0  0  0  0
 23 11  1  0  0  0  0
 24  2  1  0  0  0  0
 24 19  1  0  0  0  0
 24 20  1  0  0  0  0
 24 62  1  0  0  0  0
 25 18  1  0  0  0  0
 26 12  1  0  0  0  0
 26 25  2  0  0  0  0
 27 13  1  0  0  0  0
 27 14  1  0  0  0  0
 27 21  1  0  0  0  0
 28 25  1  0  0  0  0
 29 26  1  0  0  0  0
 30 22  1  0  0  0  0
 31 23  1  0  0  0  0
 32 28  1  0  0  0  0
 33 28  1  0  0  0  0
 34 28  1  0  0  0  0
 35 15  1  0  0  0  0
 35 16  1  0  0  0  0
 35 17  1  0  0  0  0
 36 27  1  0  0  0  0
 36 63  1  0  0  0  0
M  END
>  <DRUGBANK_ID>
DB13791

>  <COMMON_NAME>
Penfluridol

>  <CAS_NUMBER>
26864-56-2

>  <UNII>
25TLU22Q8H

>  <SYNONYMS>
Penfluridol

$$$$
