
 OpenBabel10282417223D

 93 97  0  0  1  0  0  0  0  0999 V2000
   13.0764    1.3333   -0.1307 C   0  0  0  0  0  0  0  0  0  0  0  0
   13.2623    1.7786    1.2217 O   0  0  0  0  0  0  0  0  0  0  0  0
   12.0878    2.1464    1.8371 C   0  0  0  0  0  0  0  0  0  0  0  0
   11.0371    1.2565    2.0197 C   0  0  0  0  0  0  0  0  0  0  0  0
   11.4863   -0.4297    1.9934 Cl  0  0  0  0  0  0  0  0  0  0  0  0
    9.8111    1.7627    2.4996 C   0  0  0  0  0  0  0  0  0  0  0  0
    8.5967    0.9776    2.6194 O   0  0  0  0  0  0  0  0  0  0  0  0
    8.4009   -0.1391    1.8030 C   0  0  0  0  0  0  0  0  0  0  0  0
    9.1415   -0.4249    0.8631 O   0  0  0  0  0  0  0  0  0  0  0  0
    7.3168   -0.8959    2.1333 O   0  0  0  0  0  0  0  0  0  0  0  0
    7.1937   -2.1220    1.3364 C   0  0  1  0  0  0  0  0  0  0  0  0
    7.0026   -1.8187   -0.1636 C   0  0  0  0  0  0  0  0  0  0  0  0
    6.8161   -3.0813   -0.9905 C   0  0  0  0  0  0  0  0  0  0  0  0
    7.9385   -4.1435   -0.8068 C   0  0  2  0  0  0  0  0  0  0  0  0
    9.2336   -3.6664   -1.5145 C   0  0  0  0  0  0  0  0  0  0  0  0
    7.4284   -5.4764   -1.4357 C   0  0  1  0  0  0  0  0  0  0  0  0
    7.2791   -5.3848   -2.9611 C   0  0  0  0  0  0  0  0  0  0  0  0
    6.8293   -6.6997   -3.5514 C   0  0  0  0  0  0  0  0  0  0  0  0
    7.7769   -7.8681   -3.1679 C   0  0  2  0  0  0  0  0  0  0  0  0
    9.1837   -7.6822   -3.7424 C   0  0  0  0  0  0  0  0  0  0  0  0
    7.2966   -9.2905   -3.4833 C   0  0  2  0  0  0  0  0  0  0  0  0
    7.8845  -10.2411   -2.4226 C   0  0  0  0  0  0  0  0  0  0  0  0
    8.4001   -9.3048   -1.3278 C   0  0  0  0  0  0  0  0  0  0  0  0
    7.7343   -7.9620   -1.6367 C   0  0  1  0  0  0  0  0  0  0  0  0
    8.2808   -6.6973   -0.9922 C   0  0  2  0  0  0  0  0  0  0  0  0
    8.2469   -6.8548    0.5217 C   0  0  0  0  0  0  0  0  0  0  0  0
    8.3614   -5.5608    1.2491 C   0  0  0  0  0  0  0  0  0  0  0  0
    8.2241   -4.3490    0.6838 C   0  0  0  0  0  0  0  0  0  0  0  0
    8.3761   -3.1069    1.5267 C   0  0  0  0  0  0  0  0  0  0  0  0
    7.3826   -9.8239   -4.9522 C   0  0  2  0  0  0  0  0  0  0  0  0
    7.3864   -8.7544   -6.0660 C   0  0  0  0  0  0  0  0  0  0  0  0
    6.2380  -10.8275   -5.2496 C   0  0  0  0  0  0  0  0  0  0  0  0
    4.9865  -10.5590   -4.4035 C   0  0  0  0  0  0  0  0  0  0  0  0
    4.5203   -9.0890   -4.5302 C   0  0  0  0  0  0  0  0  0  0  0  0
    4.1324   -8.6844   -5.9372 C   0  0  0  0  0  0  0  0  0  0  0  0
    2.9371   -9.5111   -6.3135 C   0  0  0  0  0  0  0  0  0  0  0  0
    3.8942   -7.1792   -6.0121 C   0  0  0  0  0  0  0  0  0  0  0  0
    9.7806    3.0915    2.9995 C   0  0  0  0  0  0  0  0  0  0  0  0
    8.2864    3.7185    3.6193 Cl  0  0  0  0  0  0  0  0  0  0  0  0
   10.9719    3.8593    3.0050 C   0  0  0  0  0  0  0  0  0  0  0  0
   12.0946    3.3858    2.3734 N   0  0  0  0  0  0  0  0  0  0  0  0
   11.0854    5.2461    3.6711 C   0  0  0  0  0  0  0  0  0  0  0  0
   10.0454    6.4458    2.8348 Cl  0  0  0  0  0  0  0  0  0  0  0  0
   10.6922    5.1827    5.4263 Cl  0  0  0  0  0  0  0  0  0  0  0  0
   12.7709    5.9257    3.5920 Cl  0  0  0  0  0  0  0  0  0  0  0  0
   14.0534    1.0251   -0.5165 H   0  0  0  0  0  0  0  0  0  0  0  0
   12.6799    2.1390   -0.7547 H   0  0  0  0  0  0  0  0  0  0  0  0
   12.4287    0.4574   -0.2433 H   0  0  0  0  0  0  0  0  0  0  0  0
    6.2879   -2.6270    1.7037 H   0  0  0  0  0  0  0  0  0  0  0  0
    7.8655   -1.2998   -0.5863 H   0  0  0  0  0  0  0  0  0  0  0  0
    6.1641   -1.1310   -0.3091 H   0  0  0  0  0  0  0  0  0  0  0  0
    6.7559   -2.7799   -2.0443 H   0  0  0  0  0  0  0  0  0  0  0  0
    5.8425   -3.5130   -0.7309 H   0  0  0  0  0  0  0  0  0  0  0  0
    9.6147   -2.7316   -1.0962 H   0  0  0  0  0  0  0  0  0  0  0  0
   10.0361   -4.4085   -1.4382 H   0  0  0  0  0  0  0  0  0  0  0  0
    9.0716   -3.4679   -2.5800 H   0  0  0  0  0  0  0  0  0  0  0  0
    6.4126   -5.6572   -1.0452 H   0  0  0  0  0  0  0  0  0  0  0  0
    6.5408   -4.6212   -3.2338 H   0  0  0  0  0  0  0  0  0  0  0  0
    8.2131   -5.1119   -3.4554 H   0  0  0  0  0  0  0  0  0  0  0  0
    6.7699   -6.5281   -4.6236 H   0  0  0  0  0  0  0  0  0  0  0  0
    5.8046   -6.8672   -3.1899 H   0  0  0  0  0  0  0  0  0  0  0  0
    9.1632   -7.5051   -4.8112 H   0  0  0  0  0  0  0  0  0  0  0  0
    9.6996   -6.8147   -3.3419 H   0  0  0  0  0  0  0  0  0  0  0  0
    9.7974   -8.5731   -3.5812 H   0  0  0  0  0  0  0  0  0  0  0  0
    6.2829   -9.2569   -3.0992 H   0  0  0  0  0  0  0  0  0  0  0  0
    7.0926  -10.8908   -2.0168 H   0  0  0  0  0  0  0  0  0  0  0  0
    8.6601  -10.8961   -2.8216 H   0  0  0  0  0  0  0  0  0  0  0  0
    8.1439   -9.6738   -0.3308 H   0  0  0  0  0  0  0  0  0  0  0  0
    9.4870   -9.2324   -1.4041 H   0  0  0  0  0  0  0  0  0  0  0  0
    6.6801   -8.0514   -1.3107 H   0  0  0  0  0  0  0  0  0  0  0  0
    9.3202   -6.5515   -1.3035 H   0  0  0  0  0  0  0  0  0  0  0  0
    7.3083   -7.3296    0.8321 H   0  0  0  0  0  0  0  0  0  0  0  0
    9.0627   -7.5212    0.8234 H   0  0  0  0  0  0  0  0  0  0  0  0
    8.5721   -5.6455    2.3112 H   0  0  0  0  0  0  0  0  0  0  0  0
    9.3386   -2.6734    1.2405 H   0  0  0  0  0  0  0  0  0  0  0  0
    8.4832   -3.3470    2.5909 H   0  0  0  0  0  0  0  0  0  0  0  0
    8.3335  -10.3604   -5.0670 H   0  0  0  0  0  0  0  0  0  0  0  0
    8.3664   -8.3225   -6.2518 H   0  0  0  0  0  0  0  0  0  0  0  0
    7.0830   -9.1440   -7.0396 H   0  0  0  0  0  0  0  0  0  0  0  0
    6.7093   -7.9397   -5.8470 H   0  0  0  0  0  0  0  0  0  0  0  0
    5.9665  -10.7921   -6.3128 H   0  0  0  0  0  0  0  0  0  0  0  0
    6.5865  -11.8537   -5.0905 H   0  0  0  0  0  0  0  0  0  0  0  0
    4.1858  -11.2535   -4.6550 H   0  0  0  0  0  0  0  0  0  0  0  0
    5.2037  -10.8193   -3.3594 H   0  0  0  0  0  0  0  0  0  0  0  0
    3.7640   -8.8556   -3.7739 H   0  0  0  0  0  0  0  0  0  0  0  0
    5.3050   -8.3887   -4.3120 H   0  0  0  0  0  0  0  0  0  0  0  0
    4.9300   -8.9034   -6.6500 H   0  0  0  0  0  0  0  0  0  0  0  0
    2.1380   -9.3356   -5.5899 H   0  0  0  0  0  0  0  0  0  0  0  0
    2.6161   -9.2745   -7.3231 H   0  0  0  0  0  0  0  0  0  0  0  0
    3.1926  -10.5749   -6.2928 H   0  0  0  0  0  0  0  0  0  0  0  0
    4.8035   -6.6096   -5.7804 H   0  0  0  0  0  0  0  0  0  0  0  0
    3.5944   -6.8980   -7.0235 H   0  0  0  0  0  0  0  0  0  0  0  0
    3.1266   -6.8699   -5.2994 H   0  0  0  0  0  0  0  0  0  0  0  0
  1  2  1  0  0  0  0
  1 46  1  0  0  0  0
  1 47  1  0  0  0  0
  1 48  1  0  0  0  0
  2  3  1  0  0  0  0
  3  4  2  0  0  0  0
  3 41  1  0  0  0  0
  4  5  1  0  0  0  0
  4  6  1  0  0  0  0
  6  7  1  0  0  0  0
  6 38  2  0  0  0  0
  7  8  1  0  0  0  0
  8  9  2  0  0  0  0
  8 10  1  0  0  0  0
 11 12  1  0  0  0  0
 11 29  1  0  0  0  0
 11 49  1  1  0  0  0
 11 10  1  0  0  0  0
 12 13  1  0  0  0  0
 12 50  1  0  0  0  0
 12 51  1  0  0  0  0
 13 52  1  0  0  0  0
 13 53  1  0  0  0  0
 14 13  1  0  0  0  0
 14 15  1  6  0  0  0
 14 28  1  0  0  0  0
 15 54  1  0  0  0  0
 15 55  1  0  0  0  0
 15 56  1  0  0  0  0
 16 14  1  0  0  0  0
 16 17  1  0  0  0  0
 16 25  1  0  0  0  0
 16 57  1  1  0  0  0
 17 18  1  0  0  0  0
 17 58  1  0  0  0  0
 17 59  1  0  0  0  0
 18 60  1  0  0  0  0
 18 61  1  0  0  0  0
 19 18  1  0  0  0  0
 19 20  1  6  0  0  0
 19 21  1  0  0  0  0
 20 62  1  0  0  0  0
 20 63  1  0  0  0  0
 20 64  1  0  0  0  0
 21 22  1  0  0  0  0
 21 65  1  1  0  0  0
 21 30  1  0  0  0  0
 22 23  1  0  0  0  0
 22 66  1  0  0  0  0
 22 67  1  0  0  0  0
 23 68  1  0  0  0  0
 23 69  1  0  0  0  0
 24 23  1  0  0  0  0
 24 19  1  0  0  0  0
 24 70  1  1  0  0  0
 25 24  1  0  0  0  0
 25 26  1  0  0  0  0
 25 71  1  6  0  0  0
 26 27  1  0  0  0  0
 26 72  1  0  0  0  0
 26 73  1  0  0  0  0
 27 28  2  0  0  0  0
 27 74  1  0  0  0  0
 28 29  1  0  0  0  0
 29 75  1  0  0  0  0
 29 76  1  0  0  0  0
 30 77  1  6  0  0  0
 30 32  1  0  0  0  0
 30 31  1  0  0  0  0
 31 78  1  0  0  0  0
 31 79  1  0  0  0  0
 31 80  1  0  0  0  0
 32 33  1  0  0  0  0
 32 81  1  0  0  0  0
 32 82  1  0  0  0  0
 33 34  1  0  0  0  0
 33 83  1  0  0  0  0
 33 84  1  0  0  0  0
 34 35  1  0  0  0  0
 34 85  1  0  0  0  0
 34 86  1  0  0  0  0
 35 36  1  0  0  0  0
 35 37  1  0  0  0  0
 35 87  1  0  0  0  0
 36 88  1  0  0  0  0
 36 89  1  0  0  0  0
 36 90  1  0  0  0  0
 37 91  1  0  0  0  0
 37 92  1  0  0  0  0
 37 93  1  0  0  0  0
 38 39  1  0  0  0  0
 38 40  1  0  0  0  0
 40 41  2  0  0  0  0
 40 42  1  0  0  0  0
 42 43  1  0  0  0  0
 42 44  1  0  0  0  0
 42 45  1  0  0  0  0
M  END
>  <DRUGBANK_ID>
DB15075

>  <COMMON_NAME>
4-demethyl-4-cholesteryloxycarbonylpenclomedine

>  <CAS_NUMBER>
942149-56-6

>  <UNII>
1S83F4T2WE

>  <SYNONYMS>
4-DEMETHYLCHOLESTERYLOXYCARBONYLPENCLOMEDINE; DM-CHOC-PEN

$$$$
