MB9
 OpenBabel10282417173D

 40 43  0  0  0  0  0  0  0  0999 V2000
    0.7195    0.7166   -0.7139 C   0  0  0  0  0  0  0  0  0  0  0  0
   -0.2845    1.3122   -1.9113 C   0  0  0  0  0  0  0  0  0  0  0  0
   -1.5781    0.9956   -1.3362 N   0  0  0  0  0  0  0  0  0  0  0  0
   -1.7015    1.9860   -0.2493 C   0  0  0  0  0  0  0  0  0  0  0  0
   -1.1969    1.3423    1.0048 C   0  0  0  0  0  0  0  0  0  0  0  0
    0.3394    1.0989    0.9097 C   0  0  0  0  0  0  0  0  0  0  0  0
    1.0589    2.4130    1.0127 N   0  0  0  0  0  0  0  0  0  0  0  0
    0.8548    3.3326    2.0276 C   0  0  0  0  0  0  0  0  0  0  0  0
    0.8619    4.5045    1.8077 O   0  0  0  0  0  0  0  0  0  0  0  0
    0.6798    2.6700    3.3147 C   0  0  0  0  0  0  0  0  0  0  0  0
    0.5427    3.2651    4.5525 N   0  0  0  0  0  0  0  0  0  0  0  0
    0.5212    4.6966    4.7792 C   0  0  0  0  0  0  0  0  0  0  0  0
    0.4513    2.2863    5.5336 C   0  0  0  0  0  0  0  0  0  0  0  0
    0.3100    2.3516    6.9313 C   0  0  0  0  0  0  0  0  0  0  0  0
    0.2389    1.1439    7.6446 C   0  0  0  0  0  0  0  0  0  0  0  0
    0.0715    1.1767    9.3575 Cl  0  0  0  0  0  0  0  0  0  0  0  0
    0.3054   -0.0884    7.0107 C   0  0  0  0  0  0  0  0  0  0  0  0
    0.4580   -0.1434    5.6342 C   0  0  0  0  0  0  0  0  0  0  0  0
    0.5278    1.0494    4.8916 C   0  0  0  0  0  0  0  0  0  0  0  0
    0.6529    1.2997    3.5112 C   0  0  0  0  0  0  0  0  0  0  0  0
    0.7302    0.2856    2.4133 C   0  0  1  0  0  0  0  0  0  0  0  0
   -0.2624   -0.8397    2.6561 C   0  0  0  0  0  0  0  0  0  0  0  0
   -1.0858   -1.7732    2.8575 N   0  0  0  0  0  0  0  0  0  0  0  0
    1.7502   -0.1042    2.3230 H   0  0  0  0  0  0  0  0  0  0  0  0
    0.7949   -0.3289   -1.0502 H   0  0  0  0  0  0  0  0  0  0  0  0
    1.7903    0.9427   -0.7636 H   0  0  0  0  0  0  0  0  0  0  0  0
   -0.1491    0.7727   -2.8635 H   0  0  0  0  0  0  0  0  0  0  0  0
   -0.5378    2.3400   -2.2690 H   0  0  0  0  0  0  0  0  0  0  0  0
   -1.4841    0.0292   -1.0134 H   0  0  0  0  0  0  0  0  0  0  0  0
   -2.7290    2.3265   -0.1609 H   0  0  0  0  0  0  0  0  0  0  0  0
   -1.1039    2.9026   -0.4150 H   0  0  0  0  0  0  0  0  0  0  0  0
   -1.7369    0.4003    1.1318 H   0  0  0  0  0  0  0  0  0  0  0  0
   -1.4609    1.9699    1.8626 H   0  0  0  0  0  0  0  0  0  0  0  0
    1.7851    2.6638    0.3505 H   0  0  0  0  0  0  0  0  0  0  0  0
    1.4599    5.1234    4.4153 H   0  0  0  0  0  0  0  0  0  0  0  0
   -0.3326    5.1258    4.2475 H   0  0  0  0  0  0  0  0  0  0  0  0
    0.4226    4.9064    5.8455 H   0  0  0  0  0  0  0  0  0  0  0  0
    0.2548    3.2990    7.4548 H   0  0  0  0  0  0  0  0  0  0  0  0
    0.2399   -1.0202    7.5647 H   0  0  0  0  0  0  0  0  0  0  0  0
    0.5080   -1.1141    5.1486 H   0  0  0  0  0  0  0  0  0  0  0  0
  1  2  1  0  0  0  0
  1  6  1  0  0  0  0
  1 25  1  0  0  0  0
  1 26  1  0  0  0  0
  2  3  1  0  0  0  0
  2 27  1  0  0  0  0
  2 28  1  0  0  0  0
  3  4  1  0  0  0  0
  3 29  1  0  0  0  0
  4  5  1  0  0  0  0
  4 30  1  0  0  0  0
  4 31  1  0  0  0  0
  5  6  1  0  0  0  0
  5 32  1  0  0  0  0
  5 33  1  0  0  0  0
  6  7  1  0  0  0  0
  6 21  1  0  0  0  0
  7  8  1  0  0  0  0
  7 34  1  0  0  0  0
  8  9  2  0  0  0  0
  8 10  1  0  0  0  0
 10 11  1  0  0  0  0
 10 20  2  0  0  0  0
 11 12  1  0  0  0  0
 11 13  1  0  0  0  0
 12 35  1  0  0  0  0
 12 36  1  0  0  0  0
 12 37  1  0  0  0  0
 13 14  2  0  0  0  0
 13 19  1  0  0  0  0
 14 15  1  0  0  0  0
 14 38  1  0  0  0  0
 15 16  1  0  0  0  0
 15 17  2  0  0  0  0
 17 18  1  0  0  0  0
 17 39  1  0  0  0  0
 18 19  2  0  0  0  0
 18 40  1  0  0  0  0
 19 20  1  0  0  0  0
 20 21  1  0  0  0  0
 21 22  1  0  0  0  0
 21 24  1  6  0  0  0
 22 23  3  0  0  0  0
M  END
>  <DRUGBANK_ID>
DB08166

>  <COMMON_NAME>
(4R)-7-chloro-9-methyl-1-oxo-1,2,4,9-tetrahydrospiro[beta-carboline-3,4'-piperidine]-4-carbonitrile

$$$$
