
 OpenBabel10282417213D

170173  0  0  0  0  0  0  0  0999 V2000
   -1.8067    1.5300   -0.1775 C   0  0  0  0  0  0  0  0  0  0  0  0
   -3.1069    2.4935   -1.2430 N   0  0  0  0  0  0  0  0  0  0  0  0
   -4.8882    3.5489   -1.6071 C   0  0  2  0  0  0  0  0  0  0  0  0
   -6.8413    4.0120   -2.0333 C   0  0  0  0  0  0  0  0  0  0  0  0
   -7.9251    5.3738   -1.9158 N   0  0  0  0  0  0  0  0  0  0  0  0
   -9.5144    5.3244   -2.8886 C   0  0  2  0  0  0  0  0  0  0  0  0
  -10.0457    6.6487   -3.9837 C   0  0  0  0  0  0  0  0  0  0  0  0
  -10.2722    8.1531   -3.4686 N   0  0  0  0  0  0  0  0  0  0  0  0
   -5.4333    4.8934   -1.0777 C   0  0  0  0  0  0  0  0  0  0  0  0
   -1.1283   -2.1402   -0.6643 N   0  0  0  0  0  0  0  0  0  0  0  0
   -1.5642   -4.1225   -2.3269 C   0  0  2  0  0  0  0  0  0  0  0  0
   -2.9523   -4.2954   -2.6747 O   0  0  0  0  0  0  0  0  0  0  0  0
   -3.9551   -3.5638   -2.1856 C   0  0  0  0  0  0  0  0  0  0  0  0
   -3.9544   -2.1203   -2.5518 C   0  0  1  0  0  0  0  0  0  0  0  0
   -4.8011   -1.7946   -1.0913 N   0  0  0  0  0  0  0  0  0  0  0  0
   -5.6213   -0.6678   -1.1108 C   0  0  0  0  0  0  0  0  0  0  0  0
   -5.3327    0.6327   -0.1588 C   0  0  1  0  0  0  0  0  0  0  0  0
   -6.5709    0.5851    0.2579 N   0  0  0  0  0  0  0  0  0  0  0  0
   -7.4036    1.5728   -0.2570 C   0  0  0  0  0  0  0  0  0  0  0  0
   -8.9247    1.9517    0.1529 C   0  0  1  0  0  0  0  0  0  0  0  0
   -1.2517   -3.6452   -0.8522 C   0  0  0  0  0  0  0  0  0  0  0  0
   -0.5128   -0.3793    0.0067 C   0  0  3  0  0  0  0  0  0  0  0  0
   -1.9582    1.5849    1.0787 O   0  0  0  0  0  0  0  0  0  0  0  0
   -0.7497   -4.5224   -0.1683 O   0  0  0  0  0  0  0  0  0  0  0  0
    0.3531   -1.9406    0.8160 C   0  0  0  0  0  0  0  0  0  0  0  0
    1.8356   -1.6612    0.9231 C   0  0  0  0  0  0  0  0  0  0  0  0
   -0.1660   -2.8362    1.9879 C   0  0  0  0  0  0  0  0  0  0  0  0
   -7.8680    3.4156   -1.6920 O   0  0  0  0  0  0  0  0  0  0  0  0
  -11.4461    5.6196   -1.6548 C   0  0  0  0  0  0  0  0  0  0  0  0
  -10.3541    6.2560   -5.1145 O   0  0  0  0  0  0  0  0  0  0  0  0
   -4.8792   -4.0439   -1.5292 O   0  0  0  0  0  0  0  0  0  0  0  0
   -2.6059   -1.3353   -2.7610 C   0  0  0  0  0  0  0  0  0  0  0  0
   -1.6709   -1.6654   -3.7443 C   0  0  0  0  0  0  0  0  0  0  0  0
   -1.9512    0.4748   -3.0606 C   0  0  0  0  0  0  0  0  0  0  0  0
   -4.0433   -2.1975    0.3606 C   0  0  0  0  0  0  0  0  0  0  0  0
   -6.4700   -0.5808   -2.0065 O   0  0  0  0  0  0  0  0  0  0  0  0
   -3.9957    0.6827    0.1849 C   0  0  0  0  0  0  0  0  0  0  0  0
   -3.4850    0.1606   -1.1014 C   0  0  0  0  0  0  0  0  0  0  0  0
   -4.1942    0.3487   -2.6975 C   0  0  0  0  0  0  0  0  0  0  0  0
   -2.1348   -0.2285   -0.9747 C   0  0  0  0  0  0  0  0  0  0  0  0
   -5.5685    6.1276   -2.4588 C   0  0  0  0  0  0  0  0  0  0  0  0
   -5.5248    7.6824   -1.8062 C   0  0  0  0  0  0  0  0  0  0  0  0
   -6.6935    5.9085   -3.7226 C   0  0  0  0  0  0  0  0  0  0  0  0
   -6.5695    8.7953   -2.3249 C   0  0  0  0  0  0  0  0  0  0  0  0
   -7.5439    7.1223   -4.1050 C   0  0  0  0  0  0  0  0  0  0  0  0
   -7.5513    8.4696   -3.3813 C   0  0  0  0  0  0  0  0  0  0  0  0
   -6.6195    2.2264   -0.8903 O   0  0  0  0  0  0  0  0  0  0  0  0
   -9.7346    2.2357   -1.0455 N   0  0  0  0  0  0  0  0  0  0  0  0
  -11.3626    6.4727   -0.2989 C   0  0  0  0  0  0  0  0  0  0  0  0
  -12.5905    6.9458   -0.0872 C   0  0  0  0  0  0  0  0  0  0  0  0
  -10.1948    7.0182    0.3057 C   0  0  0  0  0  0  0  0  0  0  0  0
  -12.7043    7.7904    0.9158 C   0  0  0  0  0  0  0  0  0  0  0  0
  -10.2950    7.8353    1.3380 C   0  0  0  0  0  0  0  0  0  0  0  0
  -11.5785    8.2067    1.6186 C   0  0  0  0  0  0  0  0  0  0  0  0
  -10.4685    9.2096   -4.4207 C   0  0  0  0  0  0  0  0  0  0  0  0
  -10.5618    8.7261   -2.0442 C   0  0  1  0  0  0  0  0  0  0  0  0
  -10.4951   10.5149   -3.5840 C   0  0  0  0  0  0  0  0  0  0  0  0
  -10.4463   10.1734   -2.1123 C   0  0  0  0  0  0  0  0  0  0  0  0
  -11.3811    7.6645   -2.4416 C   0  0  0  0  0  0  0  0  0  0  0  0
  -12.4036    7.5974   -3.1364 O   0  0  0  0  0  0  0  0  0  0  0  0
  -10.1543    6.4445   -1.9583 N   0  0  0  0  0  0  0  0  0  0  0  0
   -8.6514    0.9442    1.2505 C   0  0  0  0  0  0  0  0  0  0  0  0
   -8.4660   -0.4564    0.5204 C   0  0  0  0  0  0  0  0  0  0  0  0
   -7.4466    1.7092    2.1478 C   0  0  0  0  0  0  0  0  0  0  0  0
  -10.1703    3.5723   -0.8579 C   0  0  0  0  0  0  0  0  0  0  0  0
  -10.6658    4.3028   -2.2074 C   0  0  1  0  0  0  0  0  0  0  0  0
   -9.2790    1.8741   -2.4443 C   0  0  0  0  0  0  0  0  0  0  0  0
   -9.9151    4.2452    0.1522 O   0  0  0  0  0  0  0  0  0  0  0  0
  -12.2975    4.2505   -3.0945 C   0  0  1  0  0  0  0  0  0  0  0  0
  -12.6403    2.8592   -3.2638 C   0  0  0  0  0  0  0  0  0  0  0  0
  -13.5479    5.0182   -2.4029 C   0  0  0  0  0  0  0  0  0  0  0  0
  -12.8680    2.2870   -1.8909 C   0  0  0  0  0  0  0  0  0  0  0  0
  -13.8668    2.8960   -4.1145 C   0  0  0  0  0  0  0  0  0  0  0  0
   -0.0311   -3.4966   -2.7728 C   0  0  2  0  0  0  0  0  0  0  0  0
    0.7346   -2.1349   -2.1085 C   0  0  0  0  0  0  0  0  0  0  0  0
    0.1689   -3.3537   -4.2488 C   0  0  0  0  0  0  0  0  0  0  0  0
    1.6278   -3.2354   -4.3857 C   0  0  0  0  0  0  0  0  0  0  0  0
   -7.5320    6.5651   -1.2290 C   0  0  0  0  0  0  0  0  0  0  0  0
   -3.3880    2.4463   -2.3089 H   0  0  0  0  0  0  0  0  0  0  0  0
   -5.0592    3.0569   -0.7213 H   0  0  0  0  0  0  0  0  0  0  0  0
   -9.1573    4.8635   -1.9308 H   0  0  0  0  0  0  0  0  0  0  0  0
   -6.4333    4.6668   -0.3148 H   0  0  0  0  0  0  0  0  0  0  0  0
   -4.8570    5.3680   -0.3541 H   0  0  0  0  0  0  0  0  0  0  0  0
   -1.0628   -2.0793   -1.6698 H   0  0  0  0  0  0  0  0  0  0  0  0
   -1.3318   -4.9828   -3.0102 H   0  0  0  0  0  0  0  0  0  0  0  0
   -4.1790   -2.0553   -3.6132 H   0  0  0  0  0  0  0  0  0  0  0  0
   -5.3351    0.8773    0.9328 H   0  0  0  0  0  0  0  0  0  0  0  0
   -6.6779   -0.4070    0.3398 H   0  0  0  0  0  0  0  0  0  0  0  0
   -9.9297    1.6739    0.5325 H   0  0  0  0  0  0  0  0  0  0  0  0
    0.0250   -0.0838    0.8807 H   0  0  0  0  0  0  0  0  0  0  0  0
    0.6561   -2.9689    0.2813 H   0  0  0  0  0  0  0  0  0  0  0  0
    1.8477   -0.8693    1.6348 H   0  0  0  0  0  0  0  0  0  0  0  0
    2.4542   -2.5184    1.2503 H   0  0  0  0  0  0  0  0  0  0  0  0
    2.2203   -1.3637   -0.0513 H   0  0  0  0  0  0  0  0  0  0  0  0
   -1.0697   -3.4335    1.7824 H   0  0  0  0  0  0  0  0  0  0  0  0
    0.5733   -3.6328    2.2889 H   0  0  0  0  0  0  0  0  0  0  0  0
   -0.2912   -2.1731    2.8100 H   0  0  0  0  0  0  0  0  0  0  0  0
  -11.7727    5.9079   -2.7018 H   0  0  0  0  0  0  0  0  0  0  0  0
  -11.8971    4.8003   -1.0458 H   0  0  0  0  0  0  0  0  0  0  0  0
   -2.5528   -1.8687   -1.8083 H   0  0  0  0  0  0  0  0  0  0  0  0
   -1.9720   -1.1999   -4.6354 H   0  0  0  0  0  0  0  0  0  0  0  0
   -0.6723   -1.2682   -3.5442 H   0  0  0  0  0  0  0  0  0  0  0  0
   -1.7937   -2.6940   -3.7025 H   0  0  0  0  0  0  0  0  0  0  0  0
   -2.3813    1.1216   -2.3315 H   0  0  0  0  0  0  0  0  0  0  0  0
   -0.9140    0.8411   -2.8327 H   0  0  0  0  0  0  0  0  0  0  0  0
   -2.2892    0.9965   -3.9081 H   0  0  0  0  0  0  0  0  0  0  0  0
   -4.7879   -1.9787    1.1022 H   0  0  0  0  0  0  0  0  0  0  0  0
   -3.4237   -3.0684    0.1847 H   0  0  0  0  0  0  0  0  0  0  0  0
   -3.2503   -1.5850    0.8673 H   0  0  0  0  0  0  0  0  0  0  0  0
   -3.8228    1.7241    0.2985 H   0  0  0  0  0  0  0  0  0  0  0  0
   -3.6865    0.2274    1.1497 H   0  0  0  0  0  0  0  0  0  0  0  0
   -3.4722   -0.8090   -0.7766 H   0  0  0  0  0  0  0  0  0  0  0  0
   -3.9674    1.2748   -3.1110 H   0  0  0  0  0  0  0  0  0  0  0  0
   -3.8345   -0.2234   -3.5742 H   0  0  0  0  0  0  0  0  0  0  0  0
   -5.2088    0.4173   -2.9093 H   0  0  0  0  0  0  0  0  0  0  0  0
   -2.1421   -0.7525    0.0488 H   0  0  0  0  0  0  0  0  0  0  0  0
   -1.4020   -0.6345   -1.6519 H   0  0  0  0  0  0  0  0  0  0  0  0
   -1.1931    0.4497   -1.3131 H   0  0  0  0  0  0  0  0  0  0  0  0
   -5.4838    7.7723   -0.6317 H   0  0  0  0  0  0  0  0  0  0  0  0
   -7.4929    4.9615   -3.8114 H   0  0  0  0  0  0  0  0  0  0  0  0
   -6.7852    9.7395   -1.7696 H   0  0  0  0  0  0  0  0  0  0  0  0
   -8.3257    6.9266   -4.8527 H   0  0  0  0  0  0  0  0  0  0  0  0
   -8.3707    9.1880   -3.5556 H   0  0  0  0  0  0  0  0  0  0  0  0
  -13.3804    6.7770   -0.7799 H   0  0  0  0  0  0  0  0  0  0  0  0
   -9.2031    6.9770   -0.0578 H   0  0  0  0  0  0  0  0  0  0  0  0
  -13.7289    7.9904    1.1054 H   0  0  0  0  0  0  0  0  0  0  0  0
   -9.3951    8.0399    1.8847 H   0  0  0  0  0  0  0  0  0  0  0  0
  -11.7297    8.8404    2.4475 H   0  0  0  0  0  0  0  0  0  0  0  0
  -11.1614    9.3036   -5.2511 H   0  0  0  0  0  0  0  0  0  0  0  0
   -9.6596    8.8408   -5.0326 H   0  0  0  0  0  0  0  0  0  0  0  0
  -11.1788    8.6933   -1.1251 H   0  0  0  0  0  0  0  0  0  0  0  0
  -11.3604   11.1639   -3.7935 H   0  0  0  0  0  0  0  0  0  0  0  0
   -9.6969   11.1844   -3.8462 H   0  0  0  0  0  0  0  0  0  0  0  0
  -10.9770   10.8921   -1.4699 H   0  0  0  0  0  0  0  0  0  0  0  0
   -9.5176   10.1015   -1.5280 H   0  0  0  0  0  0  0  0  0  0  0  0
   -9.2273    6.6760   -1.6990 H   0  0  0  0  0  0  0  0  0  0  0  0
   -9.4057    0.7643    1.9988 H   0  0  0  0  0  0  0  0  0  0  0  0
   -8.0426   -0.3372   -0.5647 H   0  0  0  0  0  0  0  0  0  0  0  0
   -7.8340   -1.0311    1.2390 H   0  0  0  0  0  0  0  0  0  0  0  0
   -9.2256   -1.0007    0.0302 H   0  0  0  0  0  0  0  0  0  0  0  0
   -7.8014    2.6571    2.5367 H   0  0  0  0  0  0  0  0  0  0  0  0
   -6.9718    0.9979    2.8175 H   0  0  0  0  0  0  0  0  0  0  0  0
   -6.5790    2.1700    1.6144 H   0  0  0  0  0  0  0  0  0  0  0  0
  -10.2590    3.7256   -3.0756 H   0  0  0  0  0  0  0  0  0  0  0  0
   -8.7662    0.9408   -2.4187 H   0  0  0  0  0  0  0  0  0  0  0  0
  -10.1149    1.8855   -3.1193 H   0  0  0  0  0  0  0  0  0  0  0  0
   -8.6285    2.5594   -3.0462 H   0  0  0  0  0  0  0  0  0  0  0  0
  -12.1015    4.7662   -4.0677 H   0  0  0  0  0  0  0  0  0  0  0  0
  -11.8110    2.4112   -3.7960 H   0  0  0  0  0  0  0  0  0  0  0  0
  -13.3957    6.0784   -2.3714 H   0  0  0  0  0  0  0  0  0  0  0  0
  -14.4412    5.1194   -2.9714 H   0  0  0  0  0  0  0  0  0  0  0  0
  -13.6692    4.7317   -1.3509 H   0  0  0  0  0  0  0  0  0  0  0  0
  -13.6492    2.8072   -1.3342 H   0  0  0  0  0  0  0  0  0  0  0  0
  -13.1189    1.2499   -1.9965 H   0  0  0  0  0  0  0  0  0  0  0  0
  -12.0003    2.3514   -1.2526 H   0  0  0  0  0  0  0  0  0  0  0  0
  -13.6593    3.4358   -5.0476 H   0  0  0  0  0  0  0  0  0  0  0  0
  -14.1569    1.8780   -4.2855 H   0  0  0  0  0  0  0  0  0  0  0  0
  -14.6886    3.4078   -3.6095 H   0  0  0  0  0  0  0  0  0  0  0  0
    0.5633   -4.3273   -2.3369 H   0  0  0  0  0  0  0  0  0  0  0  0
    1.7647   -1.9550   -1.8728 H   0  0  0  0  0  0  0  0  0  0  0  0
    0.3458   -1.1031   -2.2097 H   0  0  0  0  0  0  0  0  0  0  0  0
    0.6327   -2.4060   -1.1293 H   0  0  0  0  0  0  0  0  0  0  0  0
   -0.3918   -4.0922   -4.8055 H   0  0  0  0  0  0  0  0  0  0  0  0
   -0.1515   -2.4361   -4.7281 H   0  0  0  0  0  0  0  0  0  0  0  0
    2.0286   -4.1765   -4.0384 H   0  0  0  0  0  0  0  0  0  0  0  0
    1.8153   -2.9991   -5.4159 H   0  0  0  0  0  0  0  0  0  0  0  0
    2.0335   -2.4156   -3.7792 H   0  0  0  0  0  0  0  0  0  0  0  0
   -7.2388    6.9567   -2.1313 H   0  0  0  0  0  0  0  0  0  0  0  0
   -7.9640    7.5280   -0.9565 H   0  0  0  0  0  0  0  0  0  0  0  0
   -6.8262    6.4060   -0.4707 H   0  0  0  0  0  0  0  0  0  0  0  0
  1 22  1  0  0  0  0
  1 23  2  0  0  0  0
  2  1  1  0  0  0  0
  2 79  1  0  0  0  0
  3  2  1  0  0  0  0
  3  9  1  0  0  0  0
  3 80  1  1  0  0  0
  4  3  1  0  0  0  0
  4 28  2  0  0  0  0
  5  4  1  0  0  0  0
  5 78  1  0  0  0  0
  6  5  1  0  0  0  0
  6 29  1  0  0  0  0
  6 81  1  6  0  0  0
  7  6  1  0  0  0  0
  7 30  2  0  0  0  0
  8  7  1  0  0  0  0
  9 41  1  0  0  0  0
  9 82  1  0  0  0  0
  9 83  1  0  0  0  0
 10 21  1  0  0  0  0
 10 22  1  0  0  0  0
 10 84  1  0  0  0  0
 11 12  1  0  0  0  0
 11 21  1  0  0  0  0
 11 85  1  1  0  0  0
 11 74  1  0  0  0  0
 13 12  1  0  0  0  0
 13 31  2  0  0  0  0
 14 13  1  0  0  0  0
 14 86  1  6  0  0  0
 14 32  1  0  0  0  0
 15 14  1  0  0  0  0
 15 35  1  0  0  0  0
 16 15  1  0  0  0  0
 16 36  2  0  0  0  0
 17 16  1  0  0  0  0
 17 87  1  6  0  0  0
 17 37  1  0  0  0  0
 18 17  1  0  0  0  0
 18 88  1  0  0  0  0
 19 18  1  0  0  0  0
 19 47  2  0  0  0  0
 20 19  1  0  0  0  0
 20 48  1  0  0  0  0
 20 89  1  1  0  0  0
 20 62  1  0  0  0  0
 21 24  2  0  0  0  0
 22 25  1  0  0  0  0
 22 90  1  0  0  0  0
 25 26  1  0  0  0  0
 25 27  1  0  0  0  0
 25 91  1  0  0  0  0
 26 92  1  0  0  0  0
 26 93  1  0  0  0  0
 26 94  1  0  0  0  0
 27 95  1  0  0  0  0
 27 96  1  0  0  0  0
 27 97  1  0  0  0  0
 29 49  1  0  0  0  0
 29 98  1  0  0  0  0
 29 99  1  0  0  0  0
 32 33  1  0  0  0  0
 32 34  1  0  0  0  0
 32100  1  0  0  0  0
 33101  1  0  0  0  0
 33102  1  0  0  0  0
 33103  1  0  0  0  0
 34104  1  0  0  0  0
 34105  1  0  0  0  0
 34106  1  0  0  0  0
 35107  1  0  0  0  0
 35108  1  0  0  0  0
 35109  1  0  0  0  0
 37 38  1  0  0  0  0
 37110  1  0  0  0  0
 37111  1  0  0  0  0
 38 39  1  0  0  0  0
 38 40  1  0  0  0  0
 38112  1  0  0  0  0
 39113  1  0  0  0  0
 39114  1  0  0  0  0
 39115  1  0  0  0  0
 40116  1  0  0  0  0
 40117  1  0  0  0  0
 40118  1  0  0  0  0
 42 41  1  0  0  0  0
 42119  1  0  0  0  0
 43 41  2  0  0  0  0
 43120  1  0  0  0  0
 44 42  2  0  0  0  0
 44121  1  0  0  0  0
 45 43  1  0  0  0  0
 45122  1  0  0  0  0
 46 44  1  0  0  0  0
 46 45  2  0  0  0  0
 46123  1  0  0  0  0
 48 65  1  0  0  0  0
 48 67  1  0  0  0  0
 50 49  1  0  0  0  0
 50124  1  0  0  0  0
 51 49  2  0  0  0  0
 51125  1  0  0  0  0
 52 50  2  0  0  0  0
 52126  1  0  0  0  0
 53 51  1  0  0  0  0
 53127  1  0  0  0  0
 54 52  1  0  0  0  0
 54 53  2  0  0  0  0
 54128  1  0  0  0  0
 55  8  1  0  0  0  0
 55129  1  0  0  0  0
 55130  1  0  0  0  0
 56  8  1  0  0  0  0
 56 59  1  0  0  0  0
 56131  1  1  0  0  0
 57 55  1  0  0  0  0
 57132  1  0  0  0  0
 57133  1  0  0  0  0
 58 56  1  0  0  0  0
 58 57  1  0  0  0  0
 58134  1  0  0  0  0
 58135  1  0  0  0  0
 59 61  1  0  0  0  0
 59 60  2  0  0  0  0
 61136  1  0  0  0  0
 62 63  1  0  0  0  0
 62 64  1  0  0  0  0
 62137  1  0  0  0  0
 63138  1  0  0  0  0
 63139  1  0  0  0  0
 63140  1  0  0  0  0
 64141  1  0  0  0  0
 64142  1  0  0  0  0
 64143  1  0  0  0  0
 65 66  1  0  0  0  0
 65 68  2  0  0  0  0
 66 61  1  0  0  0  0
 66 69  1  0  0  0  0
 66144  1  6  0  0  0
 67145  1  0  0  0  0
 67146  1  0  0  0  0
 67147  1  0  0  0  0
 69 70  1  0  0  0  0
 69 71  1  0  0  0  0
 69148  1  6  0  0  0
 70 72  1  0  0  0  0
 70 73  1  0  0  0  0
 70149  1  0  0  0  0
 71150  1  0  0  0  0
 71151  1  0  0  0  0
 71152  1  0  0  0  0
 72153  1  0  0  0  0
 72154  1  0  0  0  0
 72155  1  0  0  0  0
 73156  1  0  0  0  0
 73157  1  0  0  0  0
 73158  1  0  0  0  0
 74159  1  1  0  0  0
 74 76  1  0  0  0  0
 74 75  1  0  0  0  0
 75160  1  0  0  0  0
 75161  1  0  0  0  0
 75162  1  0  0  0  0
 76 77  1  0  0  0  0
 76163  1  0  0  0  0
 76164  1  0  0  0  0
 77165  1  0  0  0  0
 77166  1  0  0  0  0
 77167  1  0  0  0  0
 78168  1  0  0  0  0
 78169  1  0  0  0  0
 78170  1  0  0  0  0
M  END
>  <DRUGBANK_ID>
DB14058

>  <COMMON_NAME>
Basifungin

>  <CAS_NUMBER>
127785-64-2

>  <UNII>
VV0USO6I6U

>  <SYNONYMS>
Aureobasidin A; Basifungin

$$$$
