
 OpenBabel10282417133D

 17 16  0  0  0  0  0  0  0  0999 V2000
    1.0249   -0.1812    0.0748 O   0  0  0  0  0  0  0  0  0  0  0  0
    0.4316   -0.8849    1.0540 C   0  0  0  0  0  0  0  0  0  0  0  0
    1.1054   -1.4988    1.8701 O   0  0  0  0  0  0  0  0  0  0  0  0
   -1.0752   -0.8228    1.0304 C   0  0  0  0  0  0  0  0  0  0  0  0
   -1.6305    0.5984    1.1734 C   0  0  0  0  0  0  0  0  0  0  0  0
   -1.2436    1.5533    0.0387 C   0  0  0  0  0  0  0  0  0  0  0  0
   -1.6784    1.0350   -1.3202 C   0  0  0  0  0  0  0  0  0  0  0  0
   -2.4697    1.8803   -2.0104 O   0  0  0  0  0  0  0  0  0  0  0  0
   -1.3658   -0.0514   -1.7848 O   0  0  0  0  0  0  0  0  0  0  0  0
    1.9903   -0.2680    0.2058 H   0  0  0  0  0  0  0  0  0  0  0  0
   -1.4464   -1.3244    0.1333 H   0  0  0  0  0  0  0  0  0  0  0  0
   -1.4466   -1.4304    1.8644 H   0  0  0  0  0  0  0  0  0  0  0  0
   -2.7259    0.5468    1.2327 H   0  0  0  0  0  0  0  0  0  0  0  0
   -1.2892    1.0183    2.1294 H   0  0  0  0  0  0  0  0  0  0  0  0
   -1.6763    2.5403    0.2339 H   0  0  0  0  0  0  0  0  0  0  0  0
   -0.1656    1.7326    0.0149 H   0  0  0  0  0  0  0  0  0  0  0  0
   -2.6455    2.7327   -1.5759 H   0  0  0  0  0  0  0  0  0  0  0  0
  1  2  1  0  0  0  0
  1 10  1  0  0  0  0
  2  3  2  0  0  0  0
  2  4  1  0  0  0  0
  4  5  1  0  0  0  0
  4 11  1  0  0  0  0
  4 12  1  0  0  0  0
  5  6  1  0  0  0  0
  5 13  1  0  0  0  0
  5 14  1  0  0  0  0
  6  7  1  0  0  0  0
  6 15  1  0  0  0  0
  6 16  1  0  0  0  0
  7  8  1  0  0  0  0
  7  9  2  0  0  0  0
  8 17  1  0  0  0  0
M  END
>  <DRUGBANK_ID>
DB03553

>  <SECONDARY_ACCESSION_NUMBERS>
EXPT01668

>  <COMMON_NAME>
Glutaric Acid

>  <CAS_NUMBER>
110-94-1

>  <UNII>
H849F7N00B

$$$$
