
 OpenBabel10282417243D

 62 61  0  0  0  0  0  0  0  0999 V2000
    0.9390   -0.0513   -0.0604 Sm  0  1  0  0  0  0  0  0  0  0  0  0
    0.9313   -0.0235    0.0688 O   0  0  0  0  0  0  0  0  0  0  0  0
    0.3547    1.6054   -0.0135 P   0  0  0  0  0  0  0  0  0  0  0  0
    1.7291    2.0437   -0.9685 O   0  0  0  0  0  0  0  0  0  0  0  0
   -0.9411    1.1119   -0.7025 O   0  0  0  0  0  0  0  0  0  0  0  0
   -0.2553    3.3286   -0.1006 C   0  0  0  0  0  0  0  0  0  0  0  0
    0.7130    4.1546   -0.8362 N   0  0  0  0  0  0  0  0  0  0  0  0
    0.0964    4.9081   -1.9377 C   0  0  0  0  0  0  0  0  0  0  0  0
   -0.5601    6.2087   -1.5392 C   0  0  0  0  0  0  0  0  0  0  0  0
    0.3681    7.3301   -1.4587 N   0  0  0  0  0  0  0  0  0  0  0  0
   -0.4055    8.5799   -1.4436 C   0  0  0  0  0  0  0  0  0  0  0  0
   -1.4540    8.6303    0.0554 P   0  0  3  0  0  0  0  0  0  0  0  0
   -0.0669    8.3045    1.0366 O   0  0  0  0  0  0  0  0  0  0  0  0
   -1.8931   10.2640   -0.3065 O   0  5  0  0  0  0  0  0  0  0  0  0
   -2.3411    8.6729    1.3237 O   0  0  0  0  0  0  0  0  0  0  0  0
    1.2119    7.2859   -0.2569 C   0  0  0  0  0  0  0  0  0  0  0  0
    2.5397    7.9838   -0.4816 C   0  0  0  0  0  0  0  0  0  0  0  0
    3.5643    7.0731   -1.0039 N   0  0  0  0  0  0  0  0  0  0  0  0
    4.5991    7.8528   -1.6982 C   0  0  0  0  0  0  0  0  0  0  0  0
    5.3787    9.0168   -0.5208 P   0  0  3  0  0  0  0  0  0  0  0  0
    5.6232    7.7207    0.5986 O   0  0  0  0  0  0  0  0  0  0  0  0
    6.5953    9.3881   -1.6934 O   0  5  0  0  0  0  0  0  0  0  0  0
    6.0383   10.0016    0.4754 O   0  0  0  0  0  0  0  0  0  0  0  0
    4.1808    6.3196    0.0976 C   0  0  0  0  0  0  0  0  0  0  0  0
    4.8373    5.0189   -0.3009 C   0  0  0  0  0  0  0  0  0  0  0  0
    3.9089    3.8975   -0.3804 N   0  0  0  0  0  0  0  0  0  0  0  0
    3.0393    3.9224    0.8045 C   0  0  0  0  0  0  0  0  0  0  0  0
    2.0440    5.4580    0.7985 P   0  0  3  0  0  0  0  0  0  0  0  0
    0.6090    4.5289    1.0644 O   0  0  0  0  0  0  0  0  0  0  0  0
    2.9520    6.0518    2.1460 O   0  5  0  0  0  0  0  0  0  0  0  0
    1.2018    6.7573    0.7935 O   0  0  0  0  0  0  0  0  0  0  0  0
    3.0654    3.9417   -1.5832 C   0  0  0  0  0  0  0  0  0  0  0  0
    1.7376    3.2439   -1.3585 C   0  0  0  0  0  0  0  0  0  0  0  0
    1.9313   -0.0235    0.0688 H   0  0  0  0  0  0  0  0  0  0  0  0
    2.4725    2.3373   -0.3676 H   0  0  0  0  0  0  0  0  0  0  0  0
   -1.1979    3.3481   -0.6066 H   0  0  0  0  0  0  0  0  0  0  0  0
   -0.3742    3.7153    0.8899 H   0  0  0  0  0  0  0  0  0  0  0  0
    0.8940    5.1693   -2.6015 H   0  0  0  0  0  0  0  0  0  0  0  0
   -0.6484    4.2858   -2.3882 H   0  0  0  0  0  0  0  0  0  0  0  0
   -1.2738    6.4461   -2.3001 H   0  0  0  0  0  0  0  0  0  0  0  0
   -1.0162    6.0776   -0.5802 H   0  0  0  0  0  0  0  0  0  0  0  0
    0.2645    9.4141   -1.4384 H   0  0  0  0  0  0  0  0  0  0  0  0
   -1.0257    8.6260   -2.3143 H   0  0  0  0  0  0  0  0  0  0  0  0
    0.0402    7.3161    1.1447 H   0  0  0  0  0  0  0  0  0  0  0  0
    0.6969    7.7921    0.5327 H   0  0  0  0  0  0  0  0  0  0  0  0
    1.3959    6.2639    0.0010 H   0  0  0  0  0  0  0  0  0  0  0  0
    2.3861    8.7553   -1.2069 H   0  0  0  0  0  0  0  0  0  0  0  0
    2.8792    8.3862    0.4499 H   0  0  0  0  0  0  0  0  0  0  0  0
    5.3425    7.1901   -2.0896 H   0  0  0  0  0  0  0  0  0  0  0  0
    4.1532    8.4024   -2.5007 H   0  0  0  0  0  0  0  0  0  0  0  0
    4.8278    7.6451    1.2000 H   0  0  0  0  0  0  0  0  0  0  0  0
    4.9626    6.9413    0.4814 H   0  0  0  0  0  0  0  0  0  0  0  0
    3.4184    6.0993    0.8153 H   0  0  0  0  0  0  0  0  0  0  0  0
    5.2443    5.1598   -1.2804 H   0  0  0  0  0  0  0  0  0  0  0  0
    5.5902    4.7843    0.4224 H   0  0  0  0  0  0  0  0  0  0  0  0
    2.3870    3.0744    0.7861 H   0  0  0  0  0  0  0  0  0  0  0  0
    3.6407    3.8906    1.6890 H   0  0  0  0  0  0  0  0  0  0  0  0
    0.2126    4.2686    0.1840 H   0  0  0  0  0  0  0  0  0  0  0  0
    2.8696    4.9672   -1.8177 H   0  0  0  0  0  0  0  0  0  0  0  0
    3.5805    3.4582   -2.3868 H   0  0  0  0  0  0  0  0  0  0  0  0
    1.8912    2.4724   -0.6332 H   0  0  0  0  0  0  0  0  0  0  0  0
    1.3981    2.8414   -2.2900 H   0  0  0  0  0  0  0  0  0  0  0  0
  2  3  1  0  0  0  0
  2 34  1  0  0  0  0
  3  4  1  0  0  0  0
  3  5  2  0  0  0  0
  3  6  1  0  0  0  0
  4 35  1  0  0  0  0
  6  7  1  0  0  0  0
  6 36  1  0  0  0  0
  6 37  1  0  0  0  0
  7  8  1  0  0  0  0
  7 33  1  0  0  0  0
  8  9  1  0  0  0  0
  8 38  1  0  0  0  0
  8 39  1  0  0  0  0
  9 10  1  0  0  0  0
  9 40  1  0  0  0  0
  9 41  1  0  0  0  0
 10 11  1  0  0  0  0
 10 16  1  0  0  0  0
 11 12  1  0  0  0  0
 11 42  1  0  0  0  0
 11 43  1  0  0  0  0
 12 13  1  0  0  0  0
 12 14  1  0  0  0  0
 12 15  2  0  0  0  0
 13 44  1  0  0  0  0
 16 17  1  0  0  0  0
 16 45  1  0  0  0  0
 16 46  1  0  0  0  0
 17 18  1  0  0  0  0
 17 47  1  0  0  0  0
 17 48  1  0  0  0  0
 18 19  1  0  0  0  0
 18 24  1  0  0  0  0
 19 20  1  0  0  0  0
 19 49  1  0  0  0  0
 19 50  1  0  0  0  0
 20 21  1  0  0  0  0
 20 22  1  0  0  0  0
 20 23  2  0  0  0  0
 21 51  1  0  0  0  0
 24 25  1  0  0  0  0
 24 52  1  0  0  0  0
 24 53  1  0  0  0  0
 25 26  1  0  0  0  0
 25 54  1  0  0  0  0
 25 55  1  0  0  0  0
 26 27  1  0  0  0  0
 26 32  1  0  0  0  0
 27 28  1  0  0  0  0
 27 56  1  0  0  0  0
 27 57  1  0  0  0  0
 28 29  1  0  0  0  0
 28 30  1  0  0  0  0
 28 31  2  0  0  0  0
 29 58  1  0  0  0  0
 32 33  1  0  0  0  0
 32 59  1  0  0  0  0
 32 60  1  0  0  0  0
 33 61  1  0  0  0  0
 33 62  1  0  0  0  0
M  ISO  1   1 153
M  CHG  4   1   3  14  -1  22  -1  30  -1
M  END
>  <DRUGBANK_ID>
DB18484

>  <COMMON_NAME>
DOTMP SM-153

>  <CAS_NUMBER>
633308-21-1

>  <UNII>
S5NN2E9ZKF

>  <SYNONYMS>
153sm-1,4,7,10-tetraazacyclododecane-1,4,7,10- tetramethylene-phosphonic acid; 153sm-dotmp; Cyclosam; Samarate(5-)-153sm, ((((1,4,7,10-tetraazacyclododecane-1,4,7,10-tetrayl-.kappa.n1,.kappa.n4,.kappa.n7,.kappa.n10)tetrakis(methylene))tetrakis(phosphonato-.kappa.o))(8-))-, pentahydrogen; Samarium-153 dotmp

$$$$
