
 OpenBabel10282417143D

 18 17  0  0  1  0  0  0  0  0999 V2000
   -1.0926   -0.1356   -3.0386 N   0  0  0  0  0  0  0  0  0  0  0  0
    0.3554   -0.3354   -2.7789 C   0  0  1  0  0  0  0  0  0  0  0  0
    1.0467    0.9892   -2.3183 C   0  0  2  0  0  0  0  0  0  0  0  0
    0.7894    1.3389   -0.9577 O   0  0  0  0  0  0  0  0  0  0  0  0
    0.5713    2.1704   -3.2008 C   0  0  0  0  0  0  0  0  0  0  0  0
    1.4951    2.8567   -3.9203 N   0  0  0  0  0  0  0  0  0  0  0  0
   -0.6119    2.5017   -3.2906 O   0  0  0  0  0  0  0  0  0  0  0  0
    0.4630   -1.4777   -1.7412 C   0  0  0  0  0  0  0  0  0  0  0  0
    0.8490   -2.6829   -2.2290 O   0  0  0  0  0  0  0  0  0  0  0  0
    0.1330   -1.3675   -0.5617 O   0  0  0  0  0  0  0  0  0  0  0  0
   -1.4677    0.2945   -2.1838 H   0  0  0  0  0  0  0  0  0  0  0  0
   -1.2008    0.6378   -3.7103 H   0  0  0  0  0  0  0  0  0  0  0  0
    0.8167   -0.6615   -3.7216 H   0  0  0  0  0  0  0  0  0  0  0  0
    2.1321    0.8841   -2.4036 H   0  0  0  0  0  0  0  0  0  0  0  0
   -0.1381    1.6256   -0.8695 H   0  0  0  0  0  0  0  0  0  0  0  0
    1.1447    3.6480   -4.4505 H   0  0  0  0  0  0  0  0  0  0  0  0
    2.4898    2.7909   -3.7634 H   0  0  0  0  0  0  0  0  0  0  0  0
    0.9360   -2.7605   -3.1965 H   0  0  0  0  0  0  0  0  0  0  0  0
  1 11  1  0  0  0  0
  1 12  1  0  0  0  0
  2  1  1  0  0  0  0
  2  8  1  0  0  0  0
  2 13  1  6  0  0  0
  3  5  1  0  0  0  0
  3 14  1  6  0  0  0
  3  4  1  0  0  0  0
  3  2  1  0  0  0  0
  4 15  1  0  0  0  0
  5  6  1  0  0  0  0
  5  7  2  0  0  0  0
  6 16  1  0  0  0  0
  6 17  1  0  0  0  0
  8  9  1  0  0  0  0
  8 10  2  0  0  0  0
  9 18  1  0  0  0  0
M  END
>  <DRUGBANK_ID>
DB04527

>  <SECONDARY_ACCESSION_NUMBERS>
EXPT00462

>  <COMMON_NAME>
beta-Hydroxyasparagine

>  <CAS_NUMBER>
20790-72-1

>  <UNII>
9J17BCS69U

>  <SYNONYMS>
(2S,3S)-3-Hydroxyasparagine

$$$$
