PCS
 OpenBabel10282417173D

 25 25  0  0  0  0  0  0  0  0999 V2000
    1.0145    2.3743    0.5799 N   0  0  0  0  0  0  0  0  0  0  0  0
    0.5504    0.9801    0.8702 C   0  0  2  0  0  0  0  0  0  0  0  0
    1.3139    0.0613   -0.2417 C   0  0  0  0  0  0  0  0  0  0  0  0
   -1.0415    1.0373    1.0286 C   0  0  0  0  0  0  0  0  0  0  0  0
    2.2781    0.5085   -0.8519 O   0  0  0  0  0  0  0  0  0  0  0  0
   -2.8687   -0.3495    2.3889 C   0  0  0  0  0  0  0  0  0  0  0  0
   -1.7559   -0.1892    1.5941 C   0  0  0  0  0  0  0  0  0  0  0  0
   -1.1361   -1.3840    1.3562 C   0  0  0  0  0  0  0  0  0  0  0  0
   -1.5507   -2.6888    1.5172 C   0  0  0  0  0  0  0  0  0  0  0  0
   -2.5939   -2.8316    2.3676 C   0  0  0  0  0  0  0  0  0  0  0  0
   -3.2540   -1.6677    2.8024 C   0  0  0  0  0  0  0  0  0  0  0  0
    0.9742   -1.4123   -0.4473 C   0  0  0  0  0  0  0  0  0  0  0  0
    1.8029   -2.3648    0.8465 Cl  0  0  0  0  0  0  0  0  0  0  0  0
    0.9779    0.7244    1.8498 H   0  0  0  0  0  0  0  0  0  0  0  0
    0.7576    2.6003   -0.3844 H   0  0  0  0  0  0  0  0  0  0  0  0
    2.0416    2.3465    0.5335 H   0  0  0  0  0  0  0  0  0  0  0  0
   -1.2985    1.8932    1.6701 H   0  0  0  0  0  0  0  0  0  0  0  0
   -1.4546    1.2517    0.0329 H   0  0  0  0  0  0  0  0  0  0  0  0
   -3.3837    0.5092    2.8069 H   0  0  0  0  0  0  0  0  0  0  0  0
   -0.0887   -1.2453    1.4180 H   0  0  0  0  0  0  0  0  0  0  0  0
   -0.9252   -3.5085    1.1732 H   0  0  0  0  0  0  0  0  0  0  0  0
   -2.7912   -3.8230    2.7620 H   0  0  0  0  0  0  0  0  0  0  0  0
   -4.0649   -1.7999    3.5090 H   0  0  0  0  0  0  0  0  0  0  0  0
   -0.1105   -1.4992   -0.5920 H   0  0  0  0  0  0  0  0  0  0  0  0
    1.3460   -1.8763   -1.3531 H   0  0  0  0  0  0  0  0  0  0  0  0
  1 15  1  0  0  0  0
  1 16  1  0  0  0  0
  2  4  1  0  0  0  0
  2 14  1  1  0  0  0
  2  3  1  0  0  0  0
  2  1  1  0  0  0  0
  3  5  2  0  0  0  0
  3 12  1  0  0  0  0
  4  7  1  0  0  0  0
  4 17  1  0  0  0  0
  4 18  1  0  0  0  0
  6  7  2  0  0  0  0
  6 11  1  0  0  0  0
  6 19  1  0  0  0  0
  7  8  1  0  0  0  0
  8  9  2  0  0  0  0
  8 20  1  0  0  0  0
  9 10  1  0  0  0  0
  9 21  1  0  0  0  0
 10 11  2  0  0  0  0
 10 22  1  0  0  0  0
 11 23  1  0  0  0  0
 12 13  1  0  0  0  0
 12 24  1  0  0  0  0
 12 25  1  0  0  0  0
M  END
>  <DRUGBANK_ID>
DB08374

>  <COMMON_NAME>
Phenylalanylmethylchloride

>  <CAS_NUMBER>
52735-71-4

>  <SYNONYMS>
(3S)-3-Amino-1-chloro-4-phenyl-2-butanone; L-Phenylalanine chloromethyl ketone

$$$$
