
 OpenBabel10282417143D

 26 26  0  0  0  0  0  0  0  0999 V2000
    1.4809    0.0109    0.0060 C   0  0  0  0  0  0  0  0  0  0  0  0
    2.9784    0.0939    0.0064 C   0  0  0  0  0  0  0  0  0  0  0  0
    0.7406    1.2001    0.0054 C   0  0  0  0  0  0  0  0  0  0  0  0
    0.7895   -1.2020    0.0014 C   0  0  0  0  0  0  0  0  0  0  0  0
    3.6950   -1.1028    0.0207 N   0  0  0  0  0  0  0  0  0  0  0  0
    3.5337    1.1931   -0.0213 O   0  0  0  0  0  0  0  0  0  0  0  0
   -0.6435    1.1217    0.0002 C   0  0  0  0  0  0  0  0  0  0  0  0
   -0.5960   -1.1740    0.0053 C   0  0  0  0  0  0  0  0  0  0  0  0
    5.1145   -1.0797   -0.0196 N   0  0  0  0  0  0  0  0  0  0  0  0
   -1.3258   -0.0419    0.0019 N   0  0  0  0  0  0  0  0  0  0  0  0
    5.6347   -1.7368   -1.2325 C   0  0  0  0  0  0  0  0  0  0  0  0
    5.1243   -1.0536   -2.5016 C   0  0  0  0  0  0  0  0  0  0  0  0
    7.1654   -1.7046   -1.2198 C   0  0  0  0  0  0  0  0  0  0  0  0
    1.2237    2.1727    0.0098 H   0  0  0  0  0  0  0  0  0  0  0  0
    1.2780   -2.1650   -0.0033 H   0  0  0  0  0  0  0  0  0  0  0  0
    3.2473   -2.0104    0.0319 H   0  0  0  0  0  0  0  0  0  0  0  0
   -1.2615    2.0162   -0.0044 H   0  0  0  0  0  0  0  0  0  0  0  0
   -1.1719   -2.0957    0.0132 H   0  0  0  0  0  0  0  0  0  0  0  0
    5.4027   -0.0912   -0.0149 H   0  0  0  0  0  0  0  0  0  0  0  0
    5.3205   -2.7888   -1.2336 H   0  0  0  0  0  0  0  0  0  0  0  0
    5.4314   -0.0026   -2.5313 H   0  0  0  0  0  0  0  0  0  0  0  0
    5.5174   -1.5504   -3.3942 H   0  0  0  0  0  0  0  0  0  0  0  0
    4.0320   -1.0918   -2.5646 H   0  0  0  0  0  0  0  0  0  0  0  0
    7.5713   -2.2164   -0.3407 H   0  0  0  0  0  0  0  0  0  0  0  0
    7.5673   -2.2070   -2.1080 H   0  0  0  0  0  0  0  0  0  0  0  0
    7.5452   -0.6767   -1.2223 H   0  0  0  0  0  0  0  0  0  0  0  0
  1  4  1  0  0  0  0
  1  2  1  0  0  0  0
  1  3  2  0  0  0  0
  2  5  1  0  0  0  0
  2  6  2  0  0  0  0
  3  7  1  0  0  0  0
  3 14  1  0  0  0  0
  4  8  2  0  0  0  0
  4 15  1  0  0  0  0
  5  9  1  0  0  0  0
  5 16  1  0  0  0  0
  7 10  2  0  0  0  0
  7 17  1  0  0  0  0
  8 10  1  0  0  0  0
  8 18  1  0  0  0  0
  9 11  1  0  0  0  0
  9 19  1  0  0  0  0
 11 12  1  0  0  0  0
 11 13  1  0  0  0  0
 11 20  1  0  0  0  0
 12 21  1  0  0  0  0
 12 22  1  0  0  0  0
 12 23  1  0  0  0  0
 13 24  1  0  0  0  0
 13 25  1  0  0  0  0
 13 26  1  0  0  0  0
M  END
>  <DRUGBANK_ID>
DB04818

>  <COMMON_NAME>
Iproniazid

>  <CAS_NUMBER>
54-92-2

>  <UNII>
D892HFI3XA

>  <SYNONYMS>
Iproniazid; Iproniazida; Iproniazide; Iproniazidum

$$$$
