
 OpenBabel10282417133D

 46 46  0  0  0  0  0  0  0  0999 V2000
    3.0014    2.3955   -0.2313 O   0  0  0  0  0  0  0  0  0  0  0  0
    3.7239    2.3251   -3.5841 O   0  0  0  0  0  0  0  0  0  0  0  0
   -0.4551    5.3232   -1.3331 O   0  0  0  0  0  0  0  0  0  0  0  0
    0.1423    5.5526   -3.5073 O   0  0  0  0  0  0  0  0  0  0  0  0
    2.7034    4.1455   -2.7478 N   0  0  0  0  0  0  0  0  0  0  0  0
    0.5347    0.5728   -1.0758 N   0  0  0  0  0  0  0  0  0  0  0  0
    2.5759    6.0770   -1.2465 C   0  0  0  0  0  0  0  0  0  0  0  0
    2.9959    7.1078   -2.3007 C   0  0  0  0  0  0  0  0  0  0  0  0
    1.8331    4.9094   -1.8428 C   0  0  1  0  0  0  0  0  0  0  0  0
    0.9511    1.9027   -1.5582 C   0  0  1  0  0  0  0  0  0  0  0  0
    2.5158    1.9779   -1.5141 C   0  0  1  0  0  0  0  0  0  0  0  0
    0.3208    2.2391   -2.9686 C   0  0  0  0  0  0  0  0  0  0  0  0
    3.0587    2.8225   -2.6758 C   0  0  0  0  0  0  0  0  0  0  0  0
    1.8279    7.7495   -3.0388 C   0  0  0  0  0  0  0  0  0  0  0  0
    3.7813    8.2128   -1.6349 C   0  0  0  0  0  0  0  0  0  0  0  0
   -1.1891    2.2906   -2.9854 C   0  0  0  0  0  0  0  0  0  0  0  0
    0.4514    5.3194   -2.3365 C   0  0  0  0  0  0  0  0  0  0  0  0
   -1.8977    1.1069   -2.8971 C   0  0  0  0  0  0  0  0  0  0  0  0
   -1.9393    3.4722   -3.0452 C   0  0  0  0  0  0  0  0  0  0  0  0
   -3.2690    1.1217   -2.6838 C   0  0  0  0  0  0  0  0  0  0  0  0
   -3.2794    3.5174   -2.6961 C   0  0  0  0  0  0  0  0  0  0  0  0
   -3.9554    2.3254   -2.5485 C   0  0  0  0  0  0  0  0  0  0  0  0
    2.8407    3.3385   -0.0942 H   0  0  0  0  0  0  0  0  0  0  0  0
   -0.7633    4.4029   -1.1719 H   0  0  0  0  0  0  0  0  0  0  0  0
    2.9825    4.5741   -3.6269 H   0  0  0  0  0  0  0  0  0  0  0  0
    0.2165    0.0282   -1.8739 H   0  0  0  0  0  0  0  0  0  0  0  0
   -0.2794    0.6706   -0.4695 H   0  0  0  0  0  0  0  0  0  0  0  0
    1.9490    6.5360   -0.4717 H   0  0  0  0  0  0  0  0  0  0  0  0
    3.4642    5.6795   -0.7358 H   0  0  0  0  0  0  0  0  0  0  0  0
    3.6368    6.6152   -3.0418 H   0  0  0  0  0  0  0  0  0  0  0  0
    1.5819    4.2643   -1.0134 H   0  0  0  0  0  0  0  0  0  0  0  0
    0.5508    2.5834   -0.7962 H   0  0  0  0  0  0  0  0  0  0  0  0
    2.9292    0.9698   -1.6430 H   0  0  0  0  0  0  0  0  0  0  0  0
    0.6486    3.2066   -3.3237 H   0  0  0  0  0  0  0  0  0  0  0  0
    0.7045    1.5555   -3.7304 H   0  0  0  0  0  0  0  0  0  0  0  0
    1.0230    8.0315   -2.3483 H   0  0  0  0  0  0  0  0  0  0  0  0
    2.1173    8.6200   -3.6259 H   0  0  0  0  0  0  0  0  0  0  0  0
    1.4655    7.0682   -3.7984 H   0  0  0  0  0  0  0  0  0  0  0  0
    4.6795    7.8153   -1.1579 H   0  0  0  0  0  0  0  0  0  0  0  0
    4.0767    8.9471   -2.3885 H   0  0  0  0  0  0  0  0  0  0  0  0
    3.1639    8.7116   -0.8813 H   0  0  0  0  0  0  0  0  0  0  0  0
   -1.3872    0.1584   -3.0104 H   0  0  0  0  0  0  0  0  0  0  0  0
   -1.5409    4.4138   -3.3825 H   0  0  0  0  0  0  0  0  0  0  0  0
   -3.7917    0.1769   -2.6139 H   0  0  0  0  0  0  0  0  0  0  0  0
   -3.7770    4.4785   -2.5826 H   0  0  0  0  0  0  0  0  0  0  0  0
   -5.0268    2.3358   -2.3933 H   0  0  0  0  0  0  0  0  0  0  0  0
  1 23  1  0  0  0  0
  2 13  2  0  0  0  0
  3 17  1  0  0  0  0
  3 24  1  0  0  0  0
  4 17  2  0  0  0  0
  5  9  1  0  0  0  0
  5 13  1  0  0  0  0
  5 25  1  0  0  0  0
  6 26  1  0  0  0  0
  6 27  1  0  0  0  0
  7  8  1  0  0  0  0
  7 28  1  0  0  0  0
  7 29  1  0  0  0  0
  8 14  1  0  0  0  0
  8 15  1  0  0  0  0
  8 30  1  0  0  0  0
  9  7  1  0  0  0  0
  9 17  1  0  0  0  0
  9 31  1  1  0  0  0
 10 12  1  0  0  0  0
 10 32  1  1  0  0  0
 10 11  1  0  0  0  0
 10  6  1  0  0  0  0
 11  1  1  0  0  0  0
 11 13  1  0  0  0  0
 11 33  1  6  0  0  0
 12 16  1  0  0  0  0
 12 34  1  0  0  0  0
 12 35  1  0  0  0  0
 14 36  1  0  0  0  0
 14 37  1  0  0  0  0
 14 38  1  0  0  0  0
 15 39  1  0  0  0  0
 15 40  1  0  0  0  0
 15 41  1  0  0  0  0
 16 18  2  0  0  0  0
 16 19  1  0  0  0  0
 18 20  1  0  0  0  0
 18 42  1  0  0  0  0
 19 21  2  0  0  0  0
 19 43  1  0  0  0  0
 20 22  2  0  0  0  0
 20 44  1  0  0  0  0
 21 22  1  0  0  0  0
 21 45  1  0  0  0  0
 22 46  1  0  0  0  0
M  END
>  <DRUGBANK_ID>
DB03424

>  <SECONDARY_ACCESSION_NUMBERS>
EXPT00673

>  <COMMON_NAME>
Ubenimex

>  <CAS_NUMBER>
58970-76-6

>  <UNII>
I0J33N5627

>  <SYNONYMS>
Ubenimex; Ubenimexum

$$$$
