
 OpenBabel10282417123D

 14 14  0  0  0  0  0  0  0  0999 V2000
   -1.1919    0.3224    0.0193 C   0  0  0  0  0  0  0  0  0  0  0  0
   -1.1985   -1.0372   -0.0578 N   0  0  0  0  0  0  0  0  0  0  0  0
    0.0323    0.9017    0.1786 N   0  0  0  0  0  0  0  0  0  0  0  0
    1.2423    0.2815    0.0073 C   0  0  0  0  0  0  0  0  0  0  0  0
    1.1925   -1.1761   -0.3716 C   0  0  0  0  0  0  0  0  0  0  0  0
   -0.0278   -1.8200    0.2438 C   0  0  0  0  0  0  0  0  0  0  0  0
    2.2978    0.9071    0.0685 O   0  0  0  0  0  0  0  0  0  0  0  0
   -2.2232    0.9779   -0.0745 O   0  0  0  0  0  0  0  0  0  0  0  0
   -2.1134   -1.4678   -0.1248 H   0  0  0  0  0  0  0  0  0  0  0  0
    0.0472    1.9058    0.2793 H   0  0  0  0  0  0  0  0  0  0  0  0
    1.1440   -1.2315   -1.4649 H   0  0  0  0  0  0  0  0  0  0  0  0
    2.1033   -1.6761   -0.0301 H   0  0  0  0  0  0  0  0  0  0  0  0
   -0.1820   -2.8259   -0.1583 H   0  0  0  0  0  0  0  0  0  0  0  0
    0.0648   -1.8934    1.3338 H   0  0  0  0  0  0  0  0  0  0  0  0
  1  3  1  0  0  0  0
  2  1  1  0  0  0  0
  2  9  1  0  0  0  0
  3 10  1  0  0  0  0
  4  3  1  0  0  0  0
  5  4  1  0  0  0  0
  5 11  1  0  0  0  0
  5 12  1  0  0  0  0
  6  5  1  0  0  0  0
  6  2  1  0  0  0  0
  6 13  1  0  0  0  0
  6 14  1  0  0  0  0
  7  4  2  0  0  0  0
  8  1  2  0  0  0  0
M  END
>  <DRUGBANK_ID>
DB01849

>  <SECONDARY_ACCESSION_NUMBERS>
EXPT01296

>  <COMMON_NAME>
Dihydrouracil

>  <CAS_NUMBER>
504-07-4

>  <UNII>
016FR52RU5

>  <SYNONYMS>
2,4-Dioxotetrahydropyrimidine; 5,6-Dihydro-2,4-dihydroxypyrimidine; 5,6-dihydrouracil; Dihydro-2,4(1H,3H)-pyrimidinedione; Dihydrouracile; Hydrouracil

$$$$
