
 OpenBabel10282417243D

 74 76  0  0  1  0  0  0  0  0999 V2000
    2.4319   -0.5087   -1.1157 H   0  0  0  0  0  0  0  0  0  0  0  0
    2.0462   -0.1710   -0.1439 C   0  0  1  0  0  0  0  0  0  0  0  0
    2.7709    1.0975    0.1860 C   0  0  0  0  0  0  0  0  0  0  0  0
    3.8409    0.9669    1.2444 C   0  0  0  0  0  0  0  0  0  0  0  0
    4.0004   -0.5067    1.1904 C   0  0  1  0  0  0  0  0  0  0  0  0
    4.6086   -0.6697    0.2843 H   0  0  0  0  0  0  0  0  0  0  0  0
    4.6616   -1.2293    2.2932 C   0  0  0  0  0  0  0  0  0  0  0  0
    4.5905   -2.6761    1.9302 C   0  0  0  0  0  0  0  0  0  0  0  0
    3.3316   -3.3799    1.4983 C   0  0  0  0  0  0  0  0  0  0  0  0
    2.6239   -2.5255    0.4736 C   0  0  0  0  0  0  0  0  0  0  0  0
    2.5594   -1.0808    0.9778 C   0  0  2  0  0  0  0  0  0  0  0  0
    1.7499   -1.0220    2.3102 C   0  0  0  0  0  0  0  0  0  0  0  0
    5.3454   -0.7217    3.3336 C   0  0  0  0  0  0  0  0  0  0  0  0
    6.1888   -1.5507    4.1776 C   0  0  0  0  0  0  0  0  0  0  0  0
    7.2019   -2.3528    3.7754 C   0  0  0  0  0  0  0  0  0  0  0  0
    7.9406   -3.2003    4.7798 C   0  0  0  0  0  0  0  0  0  0  0  0
    9.4565   -3.0549    4.6096 C   0  0  1  0  0  0  0  0  0  0  0  0
   10.1305   -3.9682    5.4684 O   0  0  0  0  0  0  0  0  0  0  0  0
    9.8842   -3.3043    3.1626 C   0  0  0  0  0  0  0  0  0  0  0  0
    9.2192   -2.2997    2.2251 C   0  0  0  0  0  0  0  0  0  0  0  0
    7.7406   -2.4802    2.3939 C   0  0  0  0  0  0  0  0  0  0  0  0
    7.2245   -3.1343    1.3682 C   0  0  0  0  0  0  0  0  0  0  0  0
    0.4916   -0.0035   -0.1669 C   0  0  2  0  0  0  0  0  0  0  0  0
   -0.0071   -0.5049   -1.5276 C   0  0  0  0  0  0  0  0  0  0  0  0
   -0.2008    1.3801    0.1482 C   0  0  0  0  0  0  0  0  0  0  0  0
    0.1723    2.3080    1.3585 C   0  0  0  0  0  0  0  0  0  0  0  0
    1.3202    3.3716    1.1961 C   0  0  1  0  0  0  0  0  0  0  0  0
    1.1223    4.1131   -0.0059 O   0  0  0  0  0  0  0  0  0  0  0  0
    1.6565    4.1860    2.4558 C   0  0  0  0  0  0  0  0  0  0  0  0
    1.9016    3.2848    3.6840 C   0  0  0  0  0  0  0  0  0  0  0  0
    2.9585    4.9712    2.1787 C   0  0  0  0  0  0  0  0  0  0  0  0
    0.5662    5.0505    2.7216 O   0  0  0  0  0  0  0  0  0  0  0  0
    2.0005    1.4381    0.8030 H   0  0  0  0  0  0  0  0  0  0  0  0
    2.9786    1.7796   -0.6393 H   0  0  0  0  0  0  0  0  0  0  0  0
    3.4787    1.2837    2.2276 H   0  0  0  0  0  0  0  0  0  0  0  0
    4.7307    1.5661    1.0345 H   0  0  0  0  0  0  0  0  0  0  0  0
    5.1241   -2.6634    0.9752 H   0  0  0  0  0  0  0  0  0  0  0  0
    5.0196   -3.2935    2.7122 H   0  0  0  0  0  0  0  0  0  0  0  0
    3.6290   -4.3314    1.0416 H   0  0  0  0  0  0  0  0  0  0  0  0
    2.7161   -3.6080    2.3682 H   0  0  0  0  0  0  0  0  0  0  0  0
    3.1920   -2.5567   -0.4696 H   0  0  0  0  0  0  0  0  0  0  0  0
    1.6347   -2.9359    0.2608 H   0  0  0  0  0  0  0  0  0  0  0  0
    1.7077   -0.0145    2.7273 H   0  0  0  0  0  0  0  0  0  0  0  0
    0.7300   -1.3934    2.1965 H   0  0  0  0  0  0  0  0  0  0  0  0
    2.1849   -1.6498    3.0935 H   0  0  0  0  0  0  0  0  0  0  0  0
    5.3209    0.3406    3.5758 H   0  0  0  0  0  0  0  0  0  0  0  0
    5.9341   -1.4791    5.2393 H   0  0  0  0  0  0  0  0  0  0  0  0
    7.6390   -4.2489    4.6433 H   0  0  0  0  0  0  0  0  0  0  0  0
    7.6643   -2.9600    5.8157 H   0  0  0  0  0  0  0  0  0  0  0  0
    9.7566   -2.0410    4.8960 H   0  0  0  0  0  0  0  0  0  0  0  0
    9.8342   -4.8656    5.2381 H   0  0  0  0  0  0  0  0  0  0  0  0
   10.9684   -3.2492    3.0525 H   0  0  0  0  0  0  0  0  0  0  0  0
    9.6068   -4.3347    2.8807 H   0  0  0  0  0  0  0  0  0  0  0  0
    9.5263   -1.2677    2.3868 H   0  0  0  0  0  0  0  0  0  0  0  0
    9.5131   -2.5710    1.1999 H   0  0  0  0  0  0  0  0  0  0  0  0
    6.4328   -3.8628    1.4906 H   0  0  0  0  0  0  0  0  0  0  0  0
    7.5849   -3.0281    0.3439 H   0  0  0  0  0  0  0  0  0  0  0  0
    0.0443   -0.7148    0.5310 H   0  0  0  0  0  0  0  0  0  0  0  0
    0.5854   -0.0785   -2.3423 H   0  0  0  0  0  0  0  0  0  0  0  0
    0.0727   -1.5971   -1.5765 H   0  0  0  0  0  0  0  0  0  0  0  0
   -1.0550   -0.2372   -1.6848 H   0  0  0  0  0  0  0  0  0  0  0  0
   -0.2403    1.9738   -0.7665 H   0  0  0  0  0  0  0  0  0  0  0  0
   -1.2432    1.0917    0.3582 H   0  0  0  0  0  0  0  0  0  0  0  0
   -0.7295    2.8944    1.5696 H   0  0  0  0  0  0  0  0  0  0  0  0
    0.3292    1.6710    2.2342 H   0  0  0  0  0  0  0  0  0  0  0  0
    2.3219    3.0056    1.0492 H   0  0  0  0  0  0  0  0  0  0  0  0
    1.1914    3.4678   -0.7341 H   0  0  0  0  0  0  0  0  0  0  0  0
    2.7614    2.6217    3.5533 H   0  0  0  0  0  0  0  0  0  0  0  0
    2.0992    3.8881    4.5742 H   0  0  0  0  0  0  0  0  0  0  0  0
    1.0349    2.6640    3.9268 H   0  0  0  0  0  0  0  0  0  0  0  0
    2.8717    5.5822    1.2747 H   0  0  0  0  0  0  0  0  0  0  0  0
    3.2079    5.6343    3.0088 H   0  0  0  0  0  0  0  0  0  0  0  0
    3.8120    4.2906    2.0272 H   0  0  0  0  0  0  0  0  0  0  0  0
    0.8183    5.6267    3.4563 H   0  0  0  0  0  0  0  0  0  0  0  0
  2  3  1  0  0  0  0
  2 11  1  0  0  0  0
  2 23  1  0  0  0  0
  2  1  1  6  0  0  0
  3  4  1  0  0  0  0
  3 33  1  0  0  0  0
  3 34  1  0  0  0  0
  4 35  1  0  0  0  0
  4 36  1  0  0  0  0
  5  4  1  0  0  0  0
  5  6  1  6  0  0  0
  5  7  1  0  0  0  0
  7  8  1  0  0  0  0
  7 13  2  0  0  0  0
  8  9  1  0  0  0  0
  8 37  1  0  0  0  0
  8 38  1  0  0  0  0
  9 10  1  0  0  0  0
  9 39  1  0  0  0  0
  9 40  1  0  0  0  0
 10 41  1  0  0  0  0
 10 42  1  0  0  0  0
 11 10  1  0  0  0  0
 11  5  1  0  0  0  0
 11 12  1  1  0  0  0
 12 43  1  0  0  0  0
 12 44  1  0  0  0  0
 12 45  1  0  0  0  0
 13 14  1  0  0  0  0
 13 46  1  0  0  0  0
 14 15  2  0  0  0  0
 14 47  1  0  0  0  0
 15 16  1  0  0  0  0
 15 21  1  0  0  0  0
 16 48  1  0  0  0  0
 16 49  1  0  0  0  0
 17 16  1  0  0  0  0
 17 18  1  0  0  0  0
 17 19  1  0  0  0  0
 17 50  1  1  0  0  0
 18 51  1  0  0  0  0
 19 20  1  0  0  0  0
 19 52  1  0  0  0  0
 19 53  1  0  0  0  0
 20 21  1  0  0  0  0
 20 54  1  0  0  0  0
 20 55  1  0  0  0  0
 21 22  2  0  0  0  0
 22 56  1  0  0  0  0
 22 57  1  0  0  0  0
 23 58  1  1  0  0  0
 23 25  1  0  0  0  0
 23 24  1  0  0  0  0
 24 59  1  0  0  0  0
 24 60  1  0  0  0  0
 24 61  1  0  0  0  0
 25 26  1  0  0  0  0
 25 62  1  0  0  0  0
 25 63  1  0  0  0  0
 26 64  1  0  0  0  0
 26 65  1  0  0  0  0
 27 26  1  0  0  0  0
 27 28  1  0  0  0  0
 27 29  1  0  0  0  0
 27 66  1  6  0  0  0
 28 67  1  0  0  0  0
 29 30  1  0  0  0  0
 29 31  1  0  0  0  0
 29 32  1  0  0  0  0
 30 68  1  0  0  0  0
 30 69  1  0  0  0  0
 30 70  1  0  0  0  0
 31 71  1  0  0  0  0
 31 72  1  0  0  0  0
 31 73  1  0  0  0  0
 32 74  1  0  0  0  0
M  END
>  <DRUGBANK_ID>
DB18406

>  <COMMON_NAME>
Secalciferol

>  <CAS_NUMBER>
55721-11-4

>  <UNII>
460029IUDA

>  <SYNONYMS>
(5z,7e,24r)-9,10-secocholesta-5,7,10(19)-triene-3b,24,25-triol; 2,3-heptanediol, 2-methyl-6-((1r,3as,4e,7ar)-octahydro-4-((2z)-2-((5s)-5-hydroxy-2-methylenecyclohexylidene)ethylidene)-7a-methyl-1h-inden-1-yl)-, (3r,6r)-; 24(R),25-(OH)2D3; Osteo d

$$$$
