
 OpenBabel10282417203D

 25 25  0  0  0  0  0  0  0  0999 V2000
   -1.4194   -0.0407   -0.1856 N   0  0  0  0  0  0  0  0  0  0  0  0
   -2.5883    0.1894   -0.8975 C   0  0  0  0  0  0  0  0  0  0  0  0
   -3.0651    1.4684   -1.2093 N   0  0  0  0  0  0  0  0  0  0  0  0
   -2.7583    2.8042   -0.9501 C   0  0  0  0  0  0  0  0  0  0  0  0
   -3.2982    3.7690   -1.7461 N   0  0  0  0  0  0  0  0  0  0  0  0
   -0.5662    1.0308    0.3010 C   0  0  0  0  0  0  0  0  0  0  0  0
    0.8588    0.9654   -0.1896 C   0  0  0  0  0  0  0  0  0  0  0  0
    1.4670   -0.2429    0.2163 O   0  0  0  0  0  0  0  0  0  0  0  0
    0.6806   -1.3363   -0.2912 C   0  0  0  0  0  0  0  0  0  0  0  0
   -0.7937   -1.3160    0.2033 C   0  0  0  0  0  0  0  0  0  0  0  0
   -3.3075   -0.7947   -1.3743 N   0  0  0  0  0  0  0  0  0  0  0  0
   -1.9617    3.2542   -0.0616 N   0  0  0  0  0  0  0  0  0  0  0  0
   -3.8711    1.3437   -1.8081 H   0  0  0  0  0  0  0  0  0  0  0  0
   -3.0924    4.6821   -1.3460 H   0  0  0  0  0  0  0  0  0  0  0  0
   -4.2758    3.7273   -1.9942 H   0  0  0  0  0  0  0  0  0  0  0  0
   -0.6746    1.1724    1.3834 H   0  0  0  0  0  0  0  0  0  0  0  0
   -0.7699    1.8761   -0.2747 H   0  0  0  0  0  0  0  0  0  0  0  0
    0.8591    1.0475   -1.2882 H   0  0  0  0  0  0  0  0  0  0  0  0
    1.4008    1.8419    0.1880 H   0  0  0  0  0  0  0  0  0  0  0  0
    1.1847   -2.2412    0.0460 H   0  0  0  0  0  0  0  0  0  0  0  0
    0.7085   -1.2967   -1.3867 H   0  0  0  0  0  0  0  0  0  0  0  0
   -0.7980   -1.3675    1.3012 H   0  0  0  0  0  0  0  0  0  0  0  0
   -1.3094   -2.2036   -0.1672 H   0  0  0  0  0  0  0  0  0  0  0  0
   -2.8917   -1.6860   -1.1037 H   0  0  0  0  0  0  0  0  0  0  0  0
   -1.6412    4.2178   -0.1772 H   0  0  0  0  0  0  0  0  0  0  0  0
  1  2  1  0  0  0  0
  1 10  1  0  0  0  0
  1  6  1  0  0  0  0
  2 11  2  0  0  0  0
  2  3  1  0  0  0  0
  3  4  1  0  0  0  0
  3 13  1  0  0  0  0
  4  5  1  0  0  0  0
  4 12  2  0  0  0  0
  5 14  1  0  0  0  0
  5 15  1  0  0  0  0
  6  7  1  0  0  0  0
  6 16  1  0  0  0  0
  6 17  1  0  0  0  0
  7  8  1  0  0  0  0
  7 18  1  0  0  0  0
  7 19  1  0  0  0  0
  8  9  1  0  0  0  0
  9 10  1  0  0  0  0
  9 20  1  0  0  0  0
  9 21  1  0  0  0  0
 10 22  1  0  0  0  0
 10 23  1  0  0  0  0
 11 24  1  0  0  0  0
 12 25  1  0  0  0  0
M  END
>  <DRUGBANK_ID>
DB13597

>  <COMMON_NAME>
Moroxydine

>  <CAS_NUMBER>
3731-59-7

>  <UNII>
O611591WAH

>  <SYNONYMS>
Moroxidina; Moroxydine; Moroxydinum

$$$$
