
 OpenBabel10282417143D

 51 52  0  0  0  0  0  0  0  0999 V2000
    0.9797   -0.1034   -0.0671 C   0  0  0  0  0  0  0  0  0  0  0  0
    0.3552    0.2731    1.5694 S   0  0  0  0  0  0  0  0  0  0  0  0
    0.9070   -1.1234    2.5210 C   0  0  0  0  0  0  0  0  0  0  0  0
    1.2592   -0.8145    3.8160 C   0  0  0  0  0  0  0  0  0  0  0  0
    1.3752   -1.8250    4.7541 C   0  0  0  0  0  0  0  0  0  0  0  0
    1.3106   -3.1831    4.4460 C   0  0  0  0  0  0  0  0  0  0  0  0
    0.9550   -3.4927    3.1304 C   0  0  0  0  0  0  0  0  0  0  0  0
    0.7809   -2.4718    2.1700 C   0  0  0  0  0  0  0  0  0  0  0  0
    1.5945   -4.3054    5.4070 C   0  0  0  0  0  0  0  0  0  0  0  0
    1.4795   -5.4728    5.0299 O   0  0  0  0  0  0  0  0  0  0  0  0
    2.0479   -4.0933    6.8133 C   0  0  0  0  0  0  0  0  0  0  0  0
    2.3069   -2.9255    7.4070 C   0  0  0  0  0  0  0  0  0  0  0  0
    2.7694   -2.6777    8.7451 C   0  0  0  0  0  0  0  0  0  0  0  0
    3.9016   -3.3624    9.1115 C   0  0  0  0  0  0  0  0  0  0  0  0
    4.5995   -3.0405   10.2603 C   0  0  0  0  0  0  0  0  0  0  0  0
    5.8476   -3.9026   10.3521 C   0  0  0  0  0  0  0  0  0  0  0  0
    4.1064   -1.9569   11.0561 C   0  0  0  0  0  0  0  0  0  0  0  0
    4.5369   -1.5547   12.3028 O   0  0  0  0  0  0  0  0  0  0  0  0
    5.5437   -2.3088   12.9639 C   0  0  0  0  0  0  0  0  0  0  0  0
    5.0085   -3.7440   13.2428 C   0  0  0  0  0  0  0  0  0  0  0  0
    6.8546   -2.0118   12.2027 C   0  0  0  0  0  0  0  0  0  0  0  0
    5.8598   -1.7761   14.3648 C   0  0  0  0  0  0  0  0  0  0  0  0
    5.3483   -0.8241   14.9498 O   0  0  0  0  0  0  0  0  0  0  0  0
    6.8645   -2.4746   14.9527 O   0  0  0  0  0  0  0  0  0  0  0  0
    3.0162   -1.1652   10.5979 C   0  0  0  0  0  0  0  0  0  0  0  0
    2.6418    0.1680   11.2078 C   0  0  0  0  0  0  0  0  0  0  0  0
    2.3154   -1.5743    9.4648 C   0  0  0  0  0  0  0  0  0  0  0  0
    0.6356    0.6916   -0.7326 H   0  0  0  0  0  0  0  0  0  0  0  0
    0.5905   -1.0543   -0.4323 H   0  0  0  0  0  0  0  0  0  0  0  0
    2.0713   -0.1125   -0.0621 H   0  0  0  0  0  0  0  0  0  0  0  0
    1.3644    0.2124    4.1610 H   0  0  0  0  0  0  0  0  0  0  0  0
    1.4002   -1.4107    5.7367 H   0  0  0  0  0  0  0  0  0  0  0  0
    0.7488   -4.5269    2.8537 H   0  0  0  0  0  0  0  0  0  0  0  0
    0.5018   -2.7555    1.1616 H   0  0  0  0  0  0  0  0  0  0  0  0
    2.1945   -5.0210    7.3671 H   0  0  0  0  0  0  0  0  0  0  0  0
    2.3684   -1.9808    6.9252 H   0  0  0  0  0  0  0  0  0  0  0  0
    4.2848   -4.1335    8.4467 H   0  0  0  0  0  0  0  0  0  0  0  0
    6.7357   -3.3721   10.0030 H   0  0  0  0  0  0  0  0  0  0  0  0
    6.0527   -4.3486   11.3153 H   0  0  0  0  0  0  0  0  0  0  0  0
    5.7772   -4.7790    9.6995 H   0  0  0  0  0  0  0  0  0  0  0  0
    4.4385   -4.2038   12.4288 H   0  0  0  0  0  0  0  0  0  0  0  0
    5.8103   -4.4327   13.5251 H   0  0  0  0  0  0  0  0  0  0  0  0
    4.2576   -3.7386   14.0423 H   0  0  0  0  0  0  0  0  0  0  0  0
    7.2714   -1.0352   12.4772 H   0  0  0  0  0  0  0  0  0  0  0  0
    7.6155   -2.7797   12.3541 H   0  0  0  0  0  0  0  0  0  0  0  0
    6.7004   -1.8376   11.1380 H   0  0  0  0  0  0  0  0  0  0  0  0
    7.0217   -2.0379   15.8138 H   0  0  0  0  0  0  0  0  0  0  0  0
    2.7731    0.9631   10.4595 H   0  0  0  0  0  0  0  0  0  0  0  0
    1.5987    0.1782   11.5392 H   0  0  0  0  0  0  0  0  0  0  0  0
    3.2743    0.4403   12.0565 H   0  0  0  0  0  0  0  0  0  0  0  0
    1.4587   -1.0008    9.1099 H   0  0  0  0  0  0  0  0  0  0  0  0
  1  2  1  0  0  0  0
  1 28  1  0  0  0  0
  1 29  1  0  0  0  0
  1 30  1  0  0  0  0
  2  3  1  0  0  0  0
  3  4  2  0  0  0  0
  3  8  1  0  0  0  0
  4  5  1  0  0  0  0
  4 31  1  0  0  0  0
  5  6  2  0  0  0  0
  5 32  1  0  0  0  0
  6  7  1  0  0  0  0
  6  9  1  0  0  0  0
  7  8  2  0  0  0  0
  7 33  1  0  0  0  0
  8 34  1  0  0  0  0
  9 10  2  0  0  0  0
  9 11  1  0  0  0  0
 11 12  2  0  0  0  0
 11 35  1  0  0  0  0
 12 13  1  0  0  0  0
 12 36  1  0  0  0  0
 13 14  2  0  0  0  0
 13 27  1  0  0  0  0
 14 15  1  0  0  0  0
 14 37  1  0  0  0  0
 15 16  1  0  0  0  0
 15 17  2  0  0  0  0
 16 38  1  0  0  0  0
 16 39  1  0  0  0  0
 16 40  1  0  0  0  0
 17 18  1  0  0  0  0
 17 25  1  0  0  0  0
 18 19  1  0  0  0  0
 19 20  1  0  0  0  0
 19 21  1  0  0  0  0
 19 22  1  0  0  0  0
 20 41  1  0  0  0  0
 20 42  1  0  0  0  0
 20 43  1  0  0  0  0
 21 44  1  0  0  0  0
 21 45  1  0  0  0  0
 21 46  1  0  0  0  0
 22 23  2  0  0  0  0
 22 24  1  0  0  0  0
 24 47  1  0  0  0  0
 25 26  1  0  0  0  0
 25 27  2  0  0  0  0
 26 48  1  0  0  0  0
 26 49  1  0  0  0  0
 26 50  1  0  0  0  0
 27 51  1  0  0  0  0
M  END
>  <DRUGBANK_ID>
DB05187

>  <COMMON_NAME>
Elafibranor

>  <CAS_NUMBER>
923978-27-2

>  <UNII>
2J3H5C81A5

>  <SYNONYMS>
Elafibranor

$$$$
