
 OpenBabel10282417203D

 42 45  0  0  1  0  0  0  0  0999 V2000
    1.7213   -1.3576   -0.2797 C   0  0  0  0  0  0  0  0  0  0  0  0
   -4.9365   -0.3997    2.5144 C   0  0  0  0  0  0  0  0  0  0  0  0
    2.2615   -4.0968    0.8367 C   0  0  0  0  0  0  0  0  0  0  0  0
    0.3891   -0.7602    3.0764 C   0  0  0  0  0  0  0  0  0  0  0  0
   -1.3669   -1.5406    3.9693 C   0  0  0  0  0  0  0  0  0  0  0  0
   -0.3357   -2.3619   -0.1227 C   0  0  0  0  0  0  0  0  0  0  0  0
    0.9913   -2.6834    1.2395 C   0  0  0  0  0  0  0  0  0  0  0  0
    0.5204   -0.6059    1.0765 C   0  0  2  0  0  0  0  0  0  0  0  0
   -3.6037   -0.5826    1.8877 C   0  0  2  0  0  0  0  0  0  0  0  0
   -1.1079   -1.3634    0.4546 C   0  0  1  0  0  0  0  0  0  0  0  0
   -2.7820   -1.8260    2.6013 C   0  0  1  0  0  0  0  0  0  0  0  0
   -2.7604    0.7061    1.8975 C   0  0  0  0  0  0  0  0  0  0  0  0
   -1.2598   -1.2954    1.9114 C   0  0  2  0  0  0  0  0  0  0  0  0
    0.5343   -3.9496    1.6361 C   0  0  1  0  0  0  0  0  0  0  0  0
   -2.0766   -2.2490    1.3254 C   0  0  1  0  0  0  0  0  0  0  0  0
   -3.0696    1.8119    2.3147 O   0  0  0  0  0  0  0  0  0  0  0  0
   -1.4793    0.3621    1.5333 O   0  0  0  0  0  0  0  0  0  0  0  0
   -0.2320   -2.6443    2.5088 O   0  0  0  0  0  0  0  0  0  0  0  0
   -0.5579   -4.3967    0.8995 O   0  0  0  0  0  0  0  0  0  0  0  0
   -1.7841   -3.7610    1.6055 O   0  0  0  0  0  0  0  0  0  0  0  0
    0.7017    0.4425    0.7606 H   0  0  0  0  0  0  0  0  0  0  0  0
   -3.8242   -0.8255    0.8155 H   0  0  0  0  0  0  0  0  0  0  0  0
   -1.7852   -0.7226   -0.1593 H   0  0  0  0  0  0  0  0  0  0  0  0
   -3.4495   -2.6970    2.7587 H   0  0  0  0  0  0  0  0  0  0  0  0
   -1.3991   -0.4968    2.7156 H   0  0  0  0  0  0  0  0  0  0  0  0
    2.7269   -1.4772    0.0859 H   0  0  0  0  0  0  0  0  0  0  0  0
    1.6250   -1.1050   -1.3438 H   0  0  0  0  0  0  0  0  0  0  0  0
    1.4886   -2.4562   -0.5976 H   0  0  0  0  0  0  0  0  0  0  0  0
   -5.4279    0.4773    2.0858 H   0  0  0  0  0  0  0  0  0  0  0  0
   -5.5657   -1.2780    2.3375 H   0  0  0  0  0  0  0  0  0  0  0  0
   -4.7588   -0.2684    3.5757 H   0  0  0  0  0  0  0  0  0  0  0  0
    3.0303   -3.2562    0.9994 H   0  0  0  0  0  0  0  0  0  0  0  0
    2.8782   -4.9120    1.2032 H   0  0  0  0  0  0  0  0  0  0  0  0
    2.2728   -4.1539   -0.2796 H   0  0  0  0  0  0  0  0  0  0  0  0
    0.8874   -1.5911    3.6384 H   0  0  0  0  0  0  0  0  0  0  0  0
    1.2976   -0.2849    3.4134 H   0  0  0  0  0  0  0  0  0  0  0  0
   -1.3007   -2.5624    4.3358 H   0  0  0  0  0  0  0  0  0  0  0  0
   -1.8792   -0.8019    4.5643 H   0  0  0  0  0  0  0  0  0  0  0  0
   -1.1679   -2.9804   -0.4907 H   0  0  0  0  0  0  0  0  0  0  0  0
   -0.1576   -1.6416   -0.9431 H   0  0  0  0  0  0  0  0  0  0  0  0
    1.4188   -2.9452    2.4006 H   0  0  0  0  0  0  0  0  0  0  0  0
    1.7980   -1.9529    1.6025 H   0  0  0  0  0  0  0  0  0  0  0  0
  1 26  1  0  0  0  0
  1 27  1  0  0  0  0
  1 28  1  0  0  0  0
  2 29  1  0  0  0  0
  2 30  1  0  0  0  0
  2 31  1  0  0  0  0
  3 32  1  0  0  0  0
  3 33  1  0  0  0  0
  3 34  1  0  0  0  0
  4 35  1  0  0  0  0
  4 36  1  0  0  0  0
  5  4  1  0  0  0  0
  5 37  1  0  0  0  0
  5 38  1  0  0  0  0
  6 39  1  0  0  0  0
  6 40  1  0  0  0  0
  7  6  1  0  0  0  0
  7 41  1  0  0  0  0
  7 42  1  0  0  0  0
  8  4  1  0  0  0  0
  8 21  1  6  0  0  0
  8  1  1  0  0  0  0
  9  2  1  0  0  0  0
  9 22  1  6  0  0  0
 10  6  1  0  0  0  0
 10  8  1  0  0  0  0
 10 23  1  1  0  0  0
 11  5  1  0  0  0  0
 11  9  1  0  0  0  0
 11 24  1  1  0  0  0
 12  9  1  0  0  0  0
 13 25  1  1  0  0  0
 14  3  1  6  0  0  0
 14  7  1  0  0  0  0
 15 10  1  0  0  0  0
 15 11  1  0  0  0  0
 15 13  1  0  0  0  0
 15 20  1  6  0  0  0
 16 12  2  0  0  0  0
 17 12  1  0  0  0  0
 17 13  1  0  0  0  0
 18 13  1  0  0  0  0
 18 14  1  0  0  0  0
 19 14  1  0  0  0  0
 20 19  1  0  0  0  0
M  END
>  <DRUGBANK_ID>
DB13132

>  <COMMON_NAME>
Artemisinin

>  <CAS_NUMBER>
63968-64-9

>  <UNII>
9RMU91N5K2

>  <SYNONYMS>
Artemisinin; artemisinina

$$$$
