
 OpenBabel10282417123D

 47 48  0  0  0  0  0  0  0  0999 V2000
    9.0254    4.1713   -0.3680 C   0  0  0  0  0  0  0  0  0  0  0  0
   10.1781    4.5851   -0.5166 O   0  0  0  0  0  0  0  0  0  0  0  0
    8.3630    3.7179    0.9999 C   0  0  1  0  0  0  0  0  0  0  0  0
    6.8797    3.5940    1.1438 N   0  0  0  0  0  0  0  0  0  0  0  0
    9.0478    2.3119    1.3349 C   0  0  1  0  0  0  0  0  0  0  0  0
    8.3179    1.2397    0.7501 O   0  0  0  0  0  0  0  0  0  0  0  0
    8.7986    0.7180   -0.4631 C   0  0  0  0  0  0  0  0  0  0  0  0
   10.2308    0.9494   -0.8155 C   0  0  0  0  0  0  0  0  0  0  0  0
   11.0180    1.8142    0.1150 C   0  0  0  0  0  0  0  0  0  0  0  0
   12.5230    2.1425   -0.1505 C   0  0  0  0  0  0  0  0  0  0  0  0
   10.5019    2.3564    1.1680 N   0  0  0  0  0  0  0  0  0  0  0  0
   10.6966    0.3065   -1.8994 C   0  0  0  0  0  0  0  0  0  0  0  0
    6.0688    3.6190    0.0528 C   0  0  0  0  0  0  0  0  0  0  0  0
    6.5716    3.8529   -1.0426 O   0  0  0  0  0  0  0  0  0  0  0  0
    4.5527    3.4536    0.1402 C   0  0  2  0  0  0  0  0  0  0  0  0
    4.0188    2.6549   -1.0857 C   0  0  0  0  0  0  0  0  0  0  0  0
    4.8947    2.0545   -2.0254 C   0  0  0  0  0  0  0  0  0  0  0  0
    4.4634    1.4499   -3.1987 C   0  0  0  0  0  0  0  0  0  0  0  0
    3.1106    1.3273   -3.4142 C   0  0  0  0  0  0  0  0  0  0  0  0
    2.6451    0.6736   -4.5138 O   0  0  0  0  0  0  0  0  0  0  0  0
    2.2034    1.8489   -2.4954 C   0  0  0  0  0  0  0  0  0  0  0  0
    2.6479    2.5221   -1.3415 C   0  0  0  0  0  0  0  0  0  0  0  0
    4.0123    4.8877    0.1572 C   0  0  0  0  0  0  0  0  0  0  0  0
    4.2087    5.7136   -0.7242 O   0  0  0  0  0  0  0  0  0  0  0  0
    3.3355    5.2389    1.2775 O   0  0  0  0  0  0  0  0  0  0  0  0
    8.7214    4.6775    2.0104 O   0  0  0  0  0  0  0  0  0  0  0  0
    8.2603    5.9875    1.6735 C   0  0  0  0  0  0  0  0  0  0  0  0
   13.1974    2.9007    0.5356 O   0  0  0  0  0  0  0  0  0  0  0  0
   13.0775    1.5290   -1.1955 O   0  0  0  0  0  0  0  0  0  0  0  0
    8.4633    4.0428   -1.2904 H   0  0  0  0  0  0  0  0  0  0  0  0
    6.5325    3.5151    2.0914 H   0  0  0  0  0  0  0  0  0  0  0  0
    8.8957    2.1416    2.4091 H   0  0  0  0  0  0  0  0  0  0  0  0
    8.6522   -0.3631   -0.3619 H   0  0  0  0  0  0  0  0  0  0  0  0
    8.1529    1.0532   -1.2834 H   0  0  0  0  0  0  0  0  0  0  0  0
   11.7113    0.3433   -2.2638 H   0  0  0  0  0  0  0  0  0  0  0  0
   10.0452   -0.3371   -2.4831 H   0  0  0  0  0  0  0  0  0  0  0  0
    4.2756    2.9169    1.0557 H   0  0  0  0  0  0  0  0  0  0  0  0
    5.9732    2.0610   -1.9168 H   0  0  0  0  0  0  0  0  0  0  0  0
    5.2097    1.0956   -3.9031 H   0  0  0  0  0  0  0  0  0  0  0  0
    3.4108    0.3626   -5.0273 H   0  0  0  0  0  0  0  0  0  0  0  0
    1.1406    1.7388   -2.6891 H   0  0  0  0  0  0  0  0  0  0  0  0
    1.9025    2.9434   -0.6711 H   0  0  0  0  0  0  0  0  0  0  0  0
    3.1955    4.5566    1.9569 H   0  0  0  0  0  0  0  0  0  0  0  0
    8.5503    6.2829    0.6610 H   0  0  0  0  0  0  0  0  0  0  0  0
    7.1706    6.0245    1.7564 H   0  0  0  0  0  0  0  0  0  0  0  0
    8.6915    6.7054    2.3711 H   0  0  0  0  0  0  0  0  0  0  0  0
   14.0027    1.8433   -1.2406 H   0  0  0  0  0  0  0  0  0  0  0  0
  1  2  2  0  0  0  0
  1 30  1  0  0  0  0
  3 26  1  1  0  0  0
  3  4  1  0  0  0  0
  3  1  1  0  0  0  0
  4 13  1  0  0  0  0
  4 31  1  0  0  0  0
  5  6  1  0  0  0  0
  5 11  1  0  0  0  0
  5 32  1  1  0  0  0
  5  3  1  0  0  0  0
  6  7  1  0  0  0  0
  7  8  1  0  0  0  0
  7 33  1  0  0  0  0
  7 34  1  0  0  0  0
  8  9  1  0  0  0  0
  8 12  2  0  0  0  0
  9 11  2  0  0  0  0
  9 10  1  0  0  0  0
 10 28  2  0  0  0  0
 10 29  1  0  0  0  0
 12 35  1  0  0  0  0
 12 36  1  0  0  0  0
 13 14  2  0  0  0  0
 15 23  1  0  0  0  0
 15 37  1  1  0  0  0
 15 16  1  0  0  0  0
 15 13  1  0  0  0  0
 16 17  2  0  0  0  0
 16 22  1  0  0  0  0
 17 18  1  0  0  0  0
 17 38  1  0  0  0  0
 18 19  2  0  0  0  0
 18 39  1  0  0  0  0
 19 20  1  0  0  0  0
 19 21  1  0  0  0  0
 20 40  1  0  0  0  0
 21 22  2  0  0  0  0
 21 41  1  0  0  0  0
 22 42  1  0  0  0  0
 23 25  1  0  0  0  0
 23 24  2  0  0  0  0
 25 43  1  0  0  0  0
 26 27  1  0  0  0  0
 27 44  1  0  0  0  0
 27 45  1  0  0  0  0
 27 46  1  0  0  0  0
 29 47  1  0  0  0  0
M  END
>  <DRUGBANK_ID>
DB02588

>  <SECONDARY_ACCESSION_NUMBERS>
EXPT02215

>  <COMMON_NAME>
(2R)-2-[(1R)-1-{[(2S)-2-Carboxy-2-(4-hydroxyphenyl)acetyl]amino}-1-methoxy-2-oxoethyl]-5-methylene-5,6-dihydro-2H-1,3-oxazine-4-carboxylic acid

$$$$
