NCZ
 OpenBabel10282417173D

 42 44  0  0  0  0  0  0  0  0999 V2000
    1.0207   -3.5577    4.3048 C   0  0  0  0  0  0  0  0  0  0  0  0
    0.7635   -3.2293    2.9426 C   0  0  0  0  0  0  0  0  0  0  0  0
    1.7240   -2.3537    2.3380 C   0  0  0  0  0  0  0  0  0  0  0  0
    1.6959   -2.0819    0.9799 C   0  0  0  0  0  0  0  0  0  0  0  0
    0.8125   -2.7138    0.1801 C   0  0  0  0  0  0  0  0  0  0  0  0
   -0.3230   -3.1933    0.7932 C   0  0  0  0  0  0  0  0  0  0  0  0
   -0.3631   -3.6376    2.1401 C   0  0  0  0  0  0  0  0  0  0  0  0
   -1.4695   -4.5088    2.7778 C   0  0  0  0  0  0  0  0  0  0  0  0
   -1.5625   -4.5842    4.0156 O   0  0  0  0  0  0  0  0  0  0  0  0
   -2.3407   -5.3078    2.0890 O   0  0  0  0  0  0  0  0  0  0  0  0
   -2.4599   -5.2097    0.6755 C   0  0  1  0  0  0  0  0  0  0  0  0
   -1.3062   -6.0136   -0.0248 C   0  0  1  0  0  0  0  0  0  0  0  0
   -1.8930   -6.3264   -1.3461 C   0  0  0  0  0  0  0  0  0  0  0  0
   -3.2226   -6.2015   -1.3284 C   0  0  0  0  0  0  0  0  0  0  0  0
   -3.7377   -5.7848    0.0201 C   0  0  2  0  0  0  0  0  0  0  0  0
   -4.7361   -4.7750   -0.1520 O   0  0  0  0  0  0  0  0  0  0  0  0
   -0.0178   -5.4809   -0.2713 O   0  0  0  0  0  0  0  0  0  0  0  0
   -1.3758   -2.9769   -0.0551 O   0  0  0  0  0  0  0  0  0  0  0  0
    2.7742   -1.7772    3.0527 C   0  0  0  0  0  0  0  0  0  0  0  0
    2.9383   -2.1017    4.3891 C   0  0  0  0  0  0  0  0  0  0  0  0
    2.0798   -2.9918    5.0198 C   0  0  0  0  0  0  0  0  0  0  0  0
    2.1833   -3.3599    6.3347 O   0  0  0  0  0  0  0  0  0  0  0  0
    3.2560   -2.7471    7.0420 C   0  0  0  0  0  0  0  0  0  0  0  0
    3.7642   -0.8472    2.4044 C   0  0  0  0  0  0  0  0  0  0  0  0
   -2.6744   -4.1623    0.5524 H   0  0  0  0  0  0  0  0  0  0  0  0
   -1.1004   -6.9009    0.5760 H   0  0  0  0  0  0  0  0  0  0  0  0
   -4.1716   -6.6002    0.5959 H   0  0  0  0  0  0  0  0  0  0  0  0
    0.3949   -4.2567    4.8555 H   0  0  0  0  0  0  0  0  0  0  0  0
    2.3408   -1.3632    0.4899 H   0  0  0  0  0  0  0  0  0  0  0  0
    0.9117   -2.6469   -0.8957 H   0  0  0  0  0  0  0  0  0  0  0  0
   -1.2930   -6.6253   -2.1939 H   0  0  0  0  0  0  0  0  0  0  0  0
   -3.8465   -6.4000   -2.1862 H   0  0  0  0  0  0  0  0  0  0  0  0
   -4.7569   -4.4788   -1.0781 H   0  0  0  0  0  0  0  0  0  0  0  0
   -0.0033   -4.8455   -1.0026 H   0  0  0  0  0  0  0  0  0  0  0  0
   -1.3310   -3.5795   -0.8168 H   0  0  0  0  0  0  0  0  0  0  0  0
    3.7727   -1.6505    4.9098 H   0  0  0  0  0  0  0  0  0  0  0  0
    4.2186   -3.0420    6.6078 H   0  0  0  0  0  0  0  0  0  0  0  0
    3.1475   -1.6555    7.0506 H   0  0  0  0  0  0  0  0  0  0  0  0
    3.2327   -3.0932    8.0761 H   0  0  0  0  0  0  0  0  0  0  0  0
    4.2796   -1.3636    1.5860 H   0  0  0  0  0  0  0  0  0  0  0  0
    3.2463    0.0375    2.0165 H   0  0  0  0  0  0  0  0  0  0  0  0
    4.5231   -0.5083    3.1103 H   0  0  0  0  0  0  0  0  0  0  0  0
  1  2  2  0  0  0  0
  1 21  1  0  0  0  0
  1 28  1  0  0  0  0
  2  3  1  0  0  0  0
  2  7  1  0  0  0  0
  3  4  1  0  0  0  0
  3 19  2  0  0  0  0
  4  5  2  0  0  0  0
  4 29  1  0  0  0  0
  5  6  1  0  0  0  0
  5 30  1  0  0  0  0
  6  7  2  0  0  0  0
  6 18  1  0  0  0  0
  7  8  1  0  0  0  0
  8  9  2  0  0  0  0
  8 10  1  0  0  0  0
 11 12  1  0  0  0  0
 11 15  1  0  0  0  0
 11 25  1  6  0  0  0
 11 10  1  0  0  0  0
 12 13  1  0  0  0  0
 12 17  1  0  0  0  0
 12 26  1  1  0  0  0
 13 14  2  0  0  0  0
 13 31  1  0  0  0  0
 14 15  1  0  0  0  0
 14 32  1  0  0  0  0
 15 27  1  1  0  0  0
 15 16  1  0  0  0  0
 16 33  1  0  0  0  0
 17 34  1  0  0  0  0
 18 35  1  0  0  0  0
 19 20  1  0  0  0  0
 19 24  1  0  0  0  0
 20 21  2  0  0  0  0
 20 36  1  0  0  0  0
 21 22  1  0  0  0  0
 22 23  1  0  0  0  0
 23 37  1  0  0  0  0
 23 38  1  0  0  0  0
 23 39  1  0  0  0  0
 24 40  1  0  0  0  0
 24 41  1  0  0  0  0
 24 42  1  0  0  0  0
M  END
>  <DRUGBANK_ID>
DB08261

>  <COMMON_NAME>
2-hydroxy-7-methoxy-5-methyl-naphthalene-1-carboxylic acid meso-2,5-dihydroxy-cyclopent-3-enyl ester

$$$$
