
 OpenBabel10282417123D

 45 46  0  0  1  0  0  0  0  0999 V2000
   -9.6182   -0.4228   12.9043 C   0  0  0  0  0  0  0  0  0  0  0  0
  -10.3908   -0.5391   11.6280 C   0  0  0  0  0  0  0  0  0  0  0  0
  -10.5598   -1.7954   11.0714 C   0  0  0  0  0  0  0  0  0  0  0  0
  -11.2630   -1.9014    9.8801 C   0  0  0  0  0  0  0  0  0  0  0  0
  -11.7703   -3.1623    9.5380 N   0  0  0  0  0  0  0  0  0  0  0  0
  -11.6298   -0.7589    9.1922 C   0  0  0  0  0  0  0  0  0  0  0  0
  -12.0409   -0.8071    7.7569 C   0  0  0  0  0  0  0  0  0  0  0  0
  -10.9229   -1.0763    6.8226 N   0  3  0  0  0  0  0  0  0  0  0  0
  -10.7124   -0.1595    5.8744 C   0  0  0  0  0  0  0  0  0  0  0  0
   -9.8493   -0.8448    4.5906 S   0  0  0  0  0  0  0  0  0  0  0  0
   -9.3351   -2.1825    5.5555 C   0  0  0  0  0  0  0  0  0  0  0  0
   -8.2461   -3.2014    5.2523 C   0  0  0  0  0  0  0  0  0  0  0  0
   -8.2577   -3.6151    3.8130 C   0  0  0  0  0  0  0  0  0  0  0  0
   -8.0560   -2.4858    3.0102 O   0  0  0  0  0  0  0  0  0  0  0  0
   -6.6735   -1.6424    3.2160 P   0  0  2  0  0  0  0  0  0  0  0  0
   -6.2225   -2.2803    1.6724 O   0  0  0  0  0  0  0  0  0  0  0  0
   -5.5714   -2.4911    3.8651 O   0  0  0  0  0  0  0  0  0  0  0  0
   -7.1245   -1.0046    4.7595 O   0  0  0  0  0  0  0  0  0  0  0  0
   -6.1194    0.1233    5.6025 P   0  0  2  0  0  0  0  0  0  0  0  0
   -5.3213   -1.1864    6.4031 O   0  0  0  0  0  0  0  0  0  0  0  0
   -6.8774    0.2897    6.9387 O   0  5  0  0  0  0  0  0  0  0  0  0
   -6.8336    1.2954    4.8860 O   0  0  0  0  0  0  0  0  0  0  0  0
  -10.1125   -2.2084    6.6924 C   0  0  0  0  0  0  0  0  0  0  0  0
  -10.0104   -3.3813    7.5619 C   0  0  0  0  0  0  0  0  0  0  0  0
  -11.5590    0.4394    9.8935 C   0  0  0  0  0  0  0  0  0  0  0  0
  -10.9662    0.5606   11.1033 N   0  0  0  0  0  0  0  0  0  0  0  0
   -9.3465    0.6167   13.1019 H   0  0  0  0  0  0  0  0  0  0  0  0
   -8.6944   -1.0090   12.8393 H   0  0  0  0  0  0  0  0  0  0  0  0
  -10.2199   -0.8056   13.7335 H   0  0  0  0  0  0  0  0  0  0  0  0
  -10.1708   -2.6744   11.5656 H   0  0  0  0  0  0  0  0  0  0  0  0
  -12.1892   -3.2604    8.6235 H   0  0  0  0  0  0  0  0  0  0  0  0
  -11.1273   -3.9208    9.7647 H   0  0  0  0  0  0  0  0  0  0  0  0
  -12.8176   -1.5570    7.5724 H   0  0  0  0  0  0  0  0  0  0  0  0
  -12.5102    0.1493    7.4830 H   0  0  0  0  0  0  0  0  0  0  0  0
  -11.1473    0.8220    5.8204 H   0  0  0  0  0  0  0  0  0  0  0  0
   -7.2746   -2.8662    5.6316 H   0  0  0  0  0  0  0  0  0  0  0  0
   -8.3328   -4.1356    5.7974 H   0  0  0  0  0  0  0  0  0  0  0  0
   -7.5032   -4.3801    3.6102 H   0  0  0  0  0  0  0  0  0  0  0  0
   -9.2417   -4.0352    3.5837 H   0  0  0  0  0  0  0  0  0  0  0  0
   -5.7278   -1.6003    1.1835 H   0  0  0  0  0  0  0  0  0  0  0  0
   -5.1850   -1.8764    5.7216 H   0  0  0  0  0  0  0  0  0  0  0  0
   -9.6084   -3.1065    8.5309 H   0  0  0  0  0  0  0  0  0  0  0  0
  -10.9236   -3.9701    7.4906 H   0  0  0  0  0  0  0  0  0  0  0  0
   -9.2872   -4.1432    7.2765 H   0  0  0  0  0  0  0  0  0  0  0  0
  -12.0073    1.3560    9.5236 H   0  0  0  0  0  0  0  0  0  0  0  0
  1  2  1  0  0  0  0
  1 27  1  0  0  0  0
  1 28  1  0  0  0  0
  1 29  1  0  0  0  0
  2  3  2  0  0  0  0
  2 26  1  0  0  0  0
  3  4  1  0  0  0  0
  3 30  1  0  0  0  0
  4  5  1  0  0  0  0
  4  6  2  0  0  0  0
  5 31  1  0  0  0  0
  5 32  1  0  0  0  0
  6  7  1  0  0  0  0
  6 25  1  0  0  0  0
  7  8  1  0  0  0  0
  7 33  1  0  0  0  0
  7 34  1  0  0  0  0
  8  9  2  0  0  0  0
  8 23  1  0  0  0  0
  9 10  1  0  0  0  0
  9 35  1  0  0  0  0
 10 11  1  0  0  0  0
 11 12  1  0  0  0  0
 11 23  2  0  0  0  0
 12 13  1  0  0  0  0
 12 36  1  0  0  0  0
 12 37  1  0  0  0  0
 13 14  1  0  0  0  0
 13 38  1  0  0  0  0
 13 39  1  0  0  0  0
 15 17  2  1  0  0  0
 15 18  1  0  0  0  0
 15 16  1  0  0  0  0
 15 14  1  0  0  0  0
 16 40  1  0  0  0  0
 19 21  1  1  0  0  0
 19 22  2  0  0  0  0
 19 20  1  0  0  0  0
 19 18  1  0  0  0  0
 20 41  1  0  0  0  0
 23 24  1  0  0  0  0
 24 42  1  0  0  0  0
 24 43  1  0  0  0  0
 24 44  1  0  0  0  0
 25 26  2  0  0  0  0
 25 45  1  0  0  0  0
M  CHG  2   8   1  21  -1
M  END
>  <DRUGBANK_ID>
DB02814

>  <SECONDARY_ACCESSION_NUMBERS>
EXPT02276

>  <COMMON_NAME>
3'-Deazo-Thiamin Diphosphate

$$$$
