
 OpenBabel10282417223D

 72 76  0  0  1  0  0  0  0  0999 V2000
    3.0737    0.3404    1.1535 C   0  0  0  0  0  0  0  0  0  0  0  0
    2.6593    1.6897    1.3516 O   0  0  0  0  0  0  0  0  0  0  0  0
    1.2431    1.8634    1.2490 C   0  0  2  0  0  0  0  0  0  0  0  0
    0.8397    3.3699    1.2765 C   0  0  0  0  0  0  0  0  0  0  0  0
    1.1236    4.0404    2.5225 O   0  0  0  0  0  0  0  0  0  0  0  0
    0.4569    3.4291    3.6114 C   0  0  0  0  0  0  0  0  0  0  0  0
    0.9571    2.0040    3.7294 C   0  0  0  0  0  0  0  0  0  0  0  0
    0.5213    1.2524    2.4405 C   0  0  2  0  0  0  0  0  0  0  0  0
    0.5679   -0.2226    2.6164 N   0  0  0  0  0  0  0  0  0  0  0  0
   -0.5288   -0.4958    3.5020 C   0  0  2  0  0  0  0  0  0  0  0  0
   -0.4366   -1.5563    4.5448 C   0  0  0  0  0  0  0  0  0  0  0  0
   -1.8095   -1.3604    5.2108 C   0  0  0  0  0  0  0  0  0  0  0  0
   -2.7571   -0.5170    4.2379 C   0  0  2  0  0  0  0  0  0  0  0  0
   -1.9269   -0.4615    2.9358 C   0  0  0  0  0  0  0  0  0  0  0  0
   -3.1430    0.9023    4.8396 C   0  0  0  0  0  0  0  0  0  0  0  0
   -1.9864    1.8721    4.9458 C   0  0  0  0  0  0  0  0  0  0  0  0
   -4.2068    1.6464    4.0232 C   0  0  0  0  0  0  0  0  0  0  0  0
   -4.0245   -1.2842    3.8884 C   0  0  0  0  0  0  0  0  0  0  0  0
   -4.4912   -1.3344    2.7687 O   0  0  0  0  0  0  0  0  0  0  0  0
   -4.5591   -1.9664    4.9384 N   0  0  0  0  0  0  0  0  0  0  0  0
   -5.0538   -1.4181    6.2012 C   0  0  0  0  0  0  0  0  0  0  0  0
   -5.8136   -2.6420    6.7670 C   0  0  2  0  0  0  0  0  0  0  0  0
   -4.9047   -3.7857    6.2563 C   0  0  0  0  0  0  0  0  0  0  0  0
   -5.0428   -3.3347    4.7982 C   0  0  1  0  0  0  0  0  0  0  0  0
   -6.5798   -3.3454    4.6138 C   0  0  0  0  0  0  0  0  0  0  0  0
   -7.0067   -2.8931    5.9451 N   0  0  0  0  0  0  0  0  0  0  0  0
   -8.3068   -2.6531    6.2393 C   0  0  0  0  0  0  0  0  0  0  0  0
   -9.1792   -3.6624    6.0915 N   0  0  0  0  0  0  0  0  0  0  0  0
  -10.4577   -3.4248    6.4151 C   0  0  0  0  0  0  0  0  0  0  0  0
  -10.9579   -2.2582    6.8352 N   0  0  0  0  0  0  0  0  0  0  0  0
  -10.0718   -1.2386    6.9428 C   0  0  0  0  0  0  0  0  0  0  0  0
   -8.7249   -1.4116    6.6629 C   0  0  0  0  0  0  0  0  0  0  0  0
  -10.5673    0.1221    7.3964 C   0  0  0  0  0  0  0  0  0  0  0  0
  -11.5199    0.6521    6.5785 F   0  0  0  0  0  0  0  0  0  0  0  0
  -11.1093    0.0980    8.6471 F   0  0  0  0  0  0  0  0  0  0  0  0
   -9.5746    1.0615    7.4527 F   0  0  0  0  0  0  0  0  0  0  0  0
    2.6782   -0.0618    0.2171 H   0  0  0  0  0  0  0  0  0  0  0  0
    2.7977   -0.3187    1.9727 H   0  0  0  0  0  0  0  0  0  0  0  0
    4.1620    0.3134    1.1558 H   0  0  0  0  0  0  0  0  0  0  0  0
    0.8819    1.4311    0.3062 H   0  0  0  0  0  0  0  0  0  0  0  0
    1.3661    3.9252    0.5036 H   0  0  0  0  0  0  0  0  0  0  0  0
   -0.2425    3.4649    1.0871 H   0  0  0  0  0  0  0  0  0  0  0  0
   -0.6198    3.5133    3.4222 H   0  0  0  0  0  0  0  0  0  0  0  0
    0.6294    3.9567    4.5547 H   0  0  0  0  0  0  0  0  0  0  0  0
    0.5959    1.6021    4.6759 H   0  0  0  0  0  0  0  0  0  0  0  0
    2.0413    1.9468    3.8461 H   0  0  0  0  0  0  0  0  0  0  0  0
   -0.5192    1.4884    2.1971 H   0  0  0  0  0  0  0  0  0  0  0  0
    1.4161   -0.4434    3.1400 H   0  0  0  0  0  0  0  0  0  0  0  0
   -0.5054    0.3194    4.1813 H   0  0  0  0  0  0  0  0  0  0  0  0
   -0.2627   -2.5542    4.1401 H   0  0  0  0  0  0  0  0  0  0  0  0
    0.3777   -1.3216    5.2491 H   0  0  0  0  0  0  0  0  0  0  0  0
   -2.1903   -2.3521    5.4507 H   0  0  0  0  0  0  0  0  0  0  0  0
   -1.6727   -0.8196    6.1556 H   0  0  0  0  0  0  0  0  0  0  0  0
   -2.1646    0.4406    2.3640 H   0  0  0  0  0  0  0  0  0  0  0  0
   -2.0724   -1.3005    2.2448 H   0  0  0  0  0  0  0  0  0  0  0  0
   -3.5088    0.7772    5.8609 H   0  0  0  0  0  0  0  0  0  0  0  0
   -1.6280    1.9943    3.9306 H   0  0  0  0  0  0  0  0  0  0  0  0
   -2.2355    2.8789    5.2880 H   0  0  0  0  0  0  0  0  0  0  0  0
   -1.2146    1.4923    5.6168 H   0  0  0  0  0  0  0  0  0  0  0  0
   -5.1572    1.1142    4.0376 H   0  0  0  0  0  0  0  0  0  0  0  0
   -4.3811    2.6441    4.4451 H   0  0  0  0  0  0  0  0  0  0  0  0
   -3.8941    1.7908    2.9828 H   0  0  0  0  0  0  0  0  0  0  0  0
   -4.2091   -1.1218    6.8288 H   0  0  0  0  0  0  0  0  0  0  0  0
   -5.6989   -0.5555    6.0050 H   0  0  0  0  0  0  0  0  0  0  0  0
   -5.9856   -2.6282    7.8451 H   0  0  0  0  0  0  0  0  0  0  0  0
   -3.8779   -3.7180    6.6380 H   0  0  0  0  0  0  0  0  0  0  0  0
   -5.3033   -4.7879    6.4317 H   0  0  0  0  0  0  0  0  0  0  0  0
   -4.4818   -3.8913    4.0441 H   0  0  0  0  0  0  0  0  0  0  0  0
   -6.9390   -4.3555    4.4001 H   0  0  0  0  0  0  0  0  0  0  0  0
   -6.8938   -2.6448    3.8323 H   0  0  0  0  0  0  0  0  0  0  0  0
  -11.1516   -4.2549    6.3344 H   0  0  0  0  0  0  0  0  0  0  0  0
   -8.0296   -0.5847    6.7239 H   0  0  0  0  0  0  0  0  0  0  0  0
  1  2  1  0  0  0  0
  1 37  1  0  0  0  0
  1 38  1  0  0  0  0
  1 39  1  0  0  0  0
  3  4  1  0  0  0  0
  3  8  1  0  0  0  0
  3 40  1  6  0  0  0
  3  2  1  0  0  0  0
  4  5  1  0  0  0  0
  4 41  1  0  0  0  0
  4 42  1  0  0  0  0
  5  6  1  0  0  0  0
  6  7  1  0  0  0  0
  6 43  1  0  0  0  0
  6 44  1  0  0  0  0
  7 45  1  0  0  0  0
  7 46  1  0  0  0  0
  8  7  1  0  0  0  0
  8 47  1  6  0  0  0
  8  9  1  0  0  0  0
  9 48  1  0  0  0  0
 10  9  1  0  0  0  0
 10 11  1  0  0  0  0
 10 14  1  0  0  0  0
 10 49  1  1  0  0  0
 11 12  1  0  0  0  0
 11 50  1  0  0  0  0
 11 51  1  0  0  0  0
 12 52  1  0  0  0  0
 12 53  1  0  0  0  0
 13 12  1  0  0  0  0
 13 14  1  0  0  0  0
 13 18  1  6  0  0  0
 13 15  1  0  0  0  0
 14 54  1  0  0  0  0
 14 55  1  0  0  0  0
 15 16  1  0  0  0  0
 15 17  1  0  0  0  0
 15 56  1  0  0  0  0
 16 57  1  0  0  0  0
 16 58  1  0  0  0  0
 16 59  1  0  0  0  0
 17 60  1  0  0  0  0
 17 61  1  0  0  0  0
 17 62  1  0  0  0  0
 18 19  2  0  0  0  0
 18 20  1  0  0  0  0
 20 21  1  0  0  0  0
 21 63  1  0  0  0  0
 21 64  1  0  0  0  0
 22 21  1  0  0  0  0
 22 23  1  0  0  0  0
 22 26  1  0  0  0  0
 22 65  1  1  0  0  0
 23 66  1  0  0  0  0
 23 67  1  0  0  0  0
 24 23  1  0  0  0  0
 24 20  1  0  0  0  0
 24 25  1  0  0  0  0
 24 68  1  6  0  0  0
 25 26  1  0  0  0  0
 25 69  1  0  0  0  0
 25 70  1  0  0  0  0
 26 27  1  0  0  0  0
 27 28  2  0  0  0  0
 27 32  1  0  0  0  0
 28 29  1  0  0  0  0
 29 30  2  0  0  0  0
 29 71  1  0  0  0  0
 30 31  1  0  0  0  0
 31 32  2  0  0  0  0
 31 33  1  0  0  0  0
 32 72  1  0  0  0  0
 33 34  1  0  0  0  0
 33 35  1  0  0  0  0
 33 36  1  0  0  0  0
M  END
>  <DRUGBANK_ID>
DB14955

>  <COMMON_NAME>
PF-04634817

>  <CAS_NUMBER>
1228111-63-4

>  <UNII>
51M3FB9B9E

$$$$
