988
 OpenBabel10282417203D

 21 21  0  0  0  0  0  0  0  0999 V2000
    1.7033   -1.3509    0.0207 O   0  0  0  0  0  0  0  0  0  0  0  0
    1.7143    1.3721    0.0201 O   0  0  0  0  0  0  0  0  0  0  0  0
   -4.5038    0.2995    1.2856 O   0  0  0  0  0  0  0  0  0  0  0  0
   -3.2602   -1.3602   -0.0403 C   0  0  0  0  0  0  0  0  0  0  0  0
   -1.9167   -0.6588   -0.0485 C   0  0  0  0  0  0  0  0  0  0  0  0
   -4.1066   -1.0653    1.2057 C   0  0  0  0  0  0  0  0  0  0  0  0
   -0.7134   -1.3819   -0.0069 C   0  0  0  0  0  0  0  0  0  0  0  0
   -1.8608    0.7463   -0.1152 C   0  0  0  0  0  0  0  0  0  0  0  0
    0.5022   -0.6971    0.0045 C   0  0  0  0  0  0  0  0  0  0  0  0
   -0.6459    1.4234   -0.0484 C   0  0  0  0  0  0  0  0  0  0  0  0
    0.5283    0.6970   -0.0001 C   0  0  0  0  0  0  0  0  0  0  0  0
    1.5293   -2.3080    0.0007 H   0  0  0  0  0  0  0  0  0  0  0  0
    2.3987    0.6766   -0.0080 H   0  0  0  0  0  0  0  0  0  0  0  0
   -3.7260    0.7978    1.5949 H   0  0  0  0  0  0  0  0  0  0  0  0
   -3.8059   -1.0675   -0.9454 H   0  0  0  0  0  0  0  0  0  0  0  0
   -3.1085   -2.4458   -0.0981 H   0  0  0  0  0  0  0  0  0  0  0  0
   -5.0282   -1.6542    1.1665 H   0  0  0  0  0  0  0  0  0  0  0  0
   -3.5763   -1.3285    2.1267 H   0  0  0  0  0  0  0  0  0  0  0  0
   -0.7332   -2.4685    0.0070 H   0  0  0  0  0  0  0  0  0  0  0  0
   -2.7716    1.3312   -0.2210 H   0  0  0  0  0  0  0  0  0  0  0  0
   -0.6204    2.5091   -0.0487 H   0  0  0  0  0  0  0  0  0  0  0  0
  1  9  1  0  0  0  0
  1 12  1  0  0  0  0
  2 11  1  0  0  0  0
  2 13  1  0  0  0  0
  3  6  1  0  0  0  0
  3 14  1  0  0  0  0
  4  5  1  0  0  0  0
  4  6  1  0  0  0  0
  4 15  1  0  0  0  0
  4 16  1  0  0  0  0
  5  7  2  0  0  0  0
  5  8  1  0  0  0  0
  6 17  1  0  0  0  0
  6 18  1  0  0  0  0
  7  9  1  0  0  0  0
  7 19  1  0  0  0  0
  8 10  2  0  0  0  0
  8 20  1  0  0  0  0
  9 11  2  0  0  0  0
 10 11  1  0  0  0  0
 10 21  1  0  0  0  0
M  END
>  <DRUGBANK_ID>
DB12771

>  <COMMON_NAME>
Hydroxytyrosol

>  <CAS_NUMBER>
10597-60-1

>  <UNII>
QEU0NE4O90

$$$$
