T98
 OpenBabel10282417143D

 36 38  0  0  0  0  0  0  0  0999 V2000
    1.2245    0.0691   -0.0425 C   0  0  0  0  0  0  0  0  0  0  0  0
    0.5334    1.3135    0.5249 C   0  0  0  0  0  0  0  0  0  0  0  0
    0.7333    2.5672   -0.3072 C   0  0  0  0  0  0  0  0  0  0  0  0
    1.8869    3.3570   -0.1748 C   0  0  0  0  0  0  0  0  0  0  0  0
    2.0584    4.5246   -0.9039 C   0  0  0  0  0  0  0  0  0  0  0  0
    1.0720    4.8865   -1.8210 C   0  0  0  0  0  0  0  0  0  0  0  0
   -0.0929    4.1182   -1.9652 C   0  0  0  0  0  0  0  0  0  0  0  0
   -0.2686    2.9761   -1.1888 C   0  0  0  0  0  0  0  0  0  0  0  0
   -1.4059    2.1715   -1.3262 N   0  0  0  0  0  0  0  0  0  0  0  0
   -1.4347    0.9560   -0.7051 C   0  0  0  0  0  0  0  0  0  0  0  0
   -2.0348   -0.4310   -1.3960 S   0  0  0  0  0  0  0  0  0  0  0  0
   -0.8634    0.9305    0.5378 O   0  0  0  0  0  0  0  0  0  0  0  0
    3.2731    5.3083   -0.6900 C   0  0  0  0  0  0  0  0  0  0  0  0
    4.5907    4.8851   -0.7887 C   0  0  0  0  0  0  0  0  0  0  0  0
    5.4313    5.9812   -0.4946 C   0  0  0  0  0  0  0  0  0  0  0  0
    4.6188    7.0469   -0.1706 C   0  0  0  0  0  0  0  0  0  0  0  0
    3.3094    6.6229   -0.2640 N   0  0  0  0  0  0  0  0  0  0  0  0
    2.1635    7.4528    0.0498 C   0  0  0  0  0  0  0  0  0  0  0  0
    5.0393    8.3537    0.1922 C   0  0  0  0  0  0  0  0  0  0  0  0
    5.3698    9.4337    0.4870 N   0  0  0  0  0  0  0  0  0  0  0  0
    1.0901    1.6254    1.9350 C   0  0  0  0  0  0  0  0  0  0  0  0
    0.9488   -0.0794   -1.0925 H   0  0  0  0  0  0  0  0  0  0  0  0
    0.8639   -0.8206    0.4954 H   0  0  0  0  0  0  0  0  0  0  0  0
    2.3109    0.1067    0.0045 H   0  0  0  0  0  0  0  0  0  0  0  0
    2.6684    3.0965    0.5326 H   0  0  0  0  0  0  0  0  0  0  0  0
    1.2124    5.7712   -2.4341 H   0  0  0  0  0  0  0  0  0  0  0  0
   -0.8351    4.4148   -2.6991 H   0  0  0  0  0  0  0  0  0  0  0  0
   -2.0853    2.3554   -2.0539 H   0  0  0  0  0  0  0  0  0  0  0  0
    4.9097    3.8891   -1.0729 H   0  0  0  0  0  0  0  0  0  0  0  0
    6.5141    5.9910   -0.5193 H   0  0  0  0  0  0  0  0  0  0  0  0
    2.2514    7.7930    1.0843 H   0  0  0  0  0  0  0  0  0  0  0  0
    2.1584    8.2951   -0.6458 H   0  0  0  0  0  0  0  0  0  0  0  0
    1.2363    6.8890   -0.0542 H   0  0  0  0  0  0  0  0  0  0  0  0
    0.9070    0.8553    2.6826 H   0  0  0  0  0  0  0  0  0  0  0  0
    2.1835    1.7429    1.8965 H   0  0  0  0  0  0  0  0  0  0  0  0
    0.6945    2.5776    2.3180 H   0  0  0  0  0  0  0  0  0  0  0  0
  1  2  1  0  0  0  0
  1 22  1  0  0  0  0
  1 23  1  0  0  0  0
  1 24  1  0  0  0  0
  2  3  1  0  0  0  0
  2 12  1  0  0  0  0
  2 21  1  0  0  0  0
  3  4  2  0  0  0  0
  3  8  1  0  0  0  0
  4  5  1  0  0  0  0
  4 25  1  0  0  0  0
  5  6  2  0  0  0  0
  5 13  1  0  0  0  0
  6  7  1  0  0  0  0
  6 26  1  0  0  0  0
  7  8  2  0  0  0  0
  7 27  1  0  0  0  0
  8  9  1  0  0  0  0
  9 10  1  0  0  0  0
  9 28  1  0  0  0  0
 10 11  2  0  0  0  0
 10 12  1  0  0  0  0
 13 14  2  0  0  0  0
 13 17  1  0  0  0  0
 14 15  1  0  0  0  0
 14 29  1  0  0  0  0
 15 16  2  0  0  0  0
 15 30  1  0  0  0  0
 16 17  1  0  0  0  0
 16 19  1  0  0  0  0
 17 18  1  0  0  0  0
 18 31  1  0  0  0  0
 18 32  1  0  0  0  0
 18 33  1  0  0  0  0
 19 20  3  0  0  0  0
 21 34  1  0  0  0  0
 21 35  1  0  0  0  0
 21 36  1  0  0  0  0
M  END
>  <DRUGBANK_ID>
DB04787

>  <COMMON_NAME>
Tanaproget

>  <CAS_NUMBER>
304853-42-7

>  <UNII>
W9F9H8GXWR

>  <SYNONYMS>
Tanaproget

$$$$
