RMC
 OpenBabel10282417143D

 55 57  0  0  0  0  0  0  0  0999 V2000
    0.9279   -0.0521   -0.0873 O   0  0  0  0  0  0  0  0  0  0  0  0
    0.4715   -1.3385   -0.5172 C   0  0  0  0  0  0  0  0  0  0  0  0
    1.0177   -1.7232   -1.9194 C   0  0  1  0  0  0  0  0  0  0  0  0
    2.5626   -1.7548   -1.9069 C   0  0  0  0  0  0  0  0  0  0  0  0
    3.1494   -2.7414   -0.9007 C   0  0  0  0  0  0  0  0  0  0  0  0
    0.5050   -3.0233   -2.3707 N   0  0  0  0  0  0  0  0  0  0  0  0
   -0.3125   -3.1171   -3.4793 C   0  0  0  0  0  0  0  0  0  0  0  0
   -1.3693   -3.9600   -3.4153 N   0  0  0  0  0  0  0  0  0  0  0  0
   -2.0789   -4.0022   -4.5587 C   0  0  0  0  0  0  0  0  0  0  0  0
   -3.2408   -4.6883   -4.8484 N   0  0  0  0  0  0  0  0  0  0  0  0
   -4.0299   -5.5382   -3.9734 C   0  0  0  0  0  0  0  0  0  0  0  0
   -3.2317   -6.7548   -3.5280 C   0  0  0  0  0  0  0  0  0  0  0  0
   -4.6005   -4.7465   -2.8048 C   0  0  0  0  0  0  0  0  0  0  0  0
   -3.5823   -4.4460   -6.1487 C   0  0  0  0  0  0  0  0  0  0  0  0
   -1.7812   -3.3468   -5.7468 C   0  0  0  0  0  0  0  0  0  0  0  0
   -2.7123   -3.6491   -6.7211 N   0  0  0  0  0  0  0  0  0  0  0  0
    0.0594   -2.4338   -4.5812 N   0  0  0  0  0  0  0  0  0  0  0  0
   -0.6214   -2.5459   -5.7636 C   0  0  0  0  0  0  0  0  0  0  0  0
   -0.1311   -1.8970   -6.8876 N   0  0  0  0  0  0  0  0  0  0  0  0
   -0.8641   -1.8452   -8.1525 C   0  0  0  0  0  0  0  0  0  0  0  0
   -0.8016    0.7141   -8.0222 C   0  0  0  0  0  0  0  0  0  0  0  0
   -1.1877    1.9716   -8.4590 C   0  0  0  0  0  0  0  0  0  0  0  0
   -2.2230    2.0854   -9.3687 C   0  0  0  0  0  0  0  0  0  0  0  0
   -2.8632    0.9382   -9.8373 C   0  0  0  0  0  0  0  0  0  0  0  0
   -2.4409   -0.3299   -9.4231 C   0  0  0  0  0  0  0  0  0  0  0  0
   -1.3837   -0.4628   -8.5106 C   0  0  0  0  0  0  0  0  0  0  0  0
    1.1672   -1.2580   -6.7675 C   0  0  0  0  0  0  0  0  0  0  0  0
    0.7211   -0.9188   -2.6064 H   0  0  0  0  0  0  0  0  0  0  0  0
    1.8961   -0.0777    0.0036 H   0  0  0  0  0  0  0  0  0  0  0  0
    0.7537   -2.0681    0.2495 H   0  0  0  0  0  0  0  0  0  0  0  0
   -0.6213   -1.3049   -0.5235 H   0  0  0  0  0  0  0  0  0  0  0  0
    2.9345   -1.9993   -2.9084 H   0  0  0  0  0  0  0  0  0  0  0  0
    2.9514   -0.7544   -1.6775 H   0  0  0  0  0  0  0  0  0  0  0  0
    2.8215   -3.7622   -1.1163 H   0  0  0  0  0  0  0  0  0  0  0  0
    4.2421   -2.7185   -0.9364 H   0  0  0  0  0  0  0  0  0  0  0  0
    2.8604   -2.4991    0.1265 H   0  0  0  0  0  0  0  0  0  0  0  0
    0.3816   -3.7695   -1.7021 H   0  0  0  0  0  0  0  0  0  0  0  0
   -4.8797   -5.9013   -4.5711 H   0  0  0  0  0  0  0  0  0  0  0  0
   -2.3477   -6.4613   -2.9552 H   0  0  0  0  0  0  0  0  0  0  0  0
   -3.8421   -7.4122   -2.9028 H   0  0  0  0  0  0  0  0  0  0  0  0
   -2.8893   -7.3303   -4.3962 H   0  0  0  0  0  0  0  0  0  0  0  0
   -5.2201   -3.9167   -3.1652 H   0  0  0  0  0  0  0  0  0  0  0  0
   -5.2231   -5.3846   -2.1712 H   0  0  0  0  0  0  0  0  0  0  0  0
   -3.8047   -4.3218   -2.1865 H   0  0  0  0  0  0  0  0  0  0  0  0
   -4.4532   -4.8599   -6.6350 H   0  0  0  0  0  0  0  0  0  0  0  0
   -0.2101   -2.2053   -8.9567 H   0  0  0  0  0  0  0  0  0  0  0  0
   -1.7159   -2.5197   -8.1967 H   0  0  0  0  0  0  0  0  0  0  0  0
   -0.0273    0.7015   -7.2734 H   0  0  0  0  0  0  0  0  0  0  0  0
   -0.6687    2.8418   -8.0697 H   0  0  0  0  0  0  0  0  0  0  0  0
   -2.5334    3.0708   -9.6974 H   0  0  0  0  0  0  0  0  0  0  0  0
   -3.6911    1.0338  -10.5331 H   0  0  0  0  0  0  0  0  0  0  0  0
   -2.9493   -1.2111   -9.8121 H   0  0  0  0  0  0  0  0  0  0  0  0
    1.1283   -0.4602   -6.0134 H   0  0  0  0  0  0  0  0  0  0  0  0
    1.9605   -1.9541   -6.4886 H   0  0  0  0  0  0  0  0  0  0  0  0
    1.4700   -0.8032   -7.7189 H   0  0  0  0  0  0  0  0  0  0  0  0
  1  2  1  0  0  0  0
  1 29  1  0  0  0  0
  2  3  1  0  0  0  0
  2 30  1  0  0  0  0
  2 31  1  0  0  0  0
  3  4  1  0  0  0  0
  3  6  1  0  0  0  0
  3 28  1  6  0  0  0
  4  5  1  0  0  0  0
  4 32  1  0  0  0  0
  4 33  1  0  0  0  0
  5 34  1  0  0  0  0
  5 35  1  0  0  0  0
  5 36  1  0  0  0  0
  6  7  1  0  0  0  0
  6 37  1  0  0  0  0
  7  8  2  0  0  0  0
  7 17  1  0  0  0  0
  8  9  1  0  0  0  0
  9 10  1  0  0  0  0
  9 15  2  0  0  0  0
 10 11  1  0  0  0  0
 10 14  1  0  0  0  0
 11 12  1  0  0  0  0
 11 13  1  0  0  0  0
 11 38  1  0  0  0  0
 12 39  1  0  0  0  0
 12 40  1  0  0  0  0
 12 41  1  0  0  0  0
 13 42  1  0  0  0  0
 13 43  1  0  0  0  0
 13 44  1  0  0  0  0
 14 16  2  0  0  0  0
 14 45  1  0  0  0  0
 15 16  1  0  0  0  0
 15 18  1  0  0  0  0
 17 18  2  0  0  0  0
 18 19  1  0  0  0  0
 19 20  1  0  0  0  0
 19 27  1  0  0  0  0
 20 26  1  0  0  0  0
 20 46  1  0  0  0  0
 20 47  1  0  0  0  0
 21 22  2  0  0  0  0
 21 26  1  0  0  0  0
 21 48  1  0  0  0  0
 22 23  1  0  0  0  0
 22 49  1  0  0  0  0
 23 24  2  0  0  0  0
 23 50  1  0  0  0  0
 24 25  1  0  0  0  0
 24 51  1  0  0  0  0
 25 26  2  0  0  0  0
 25 52  1  0  0  0  0
 27 53  1  0  0  0  0
 27 54  1  0  0  0  0
 27 55  1  0  0  0  0
M  END
>  <DRUGBANK_ID>
DB04776

>  <COMMON_NAME>
(2R)-2-({6-[benzyl(methyl)amino]-9-isopropyl-9H-purin-2-yl}amino)butan-1-ol

>  <SYNONYMS>
(2R)-2-({6-[Benzyl(methyl)amino]-9-isopropyl-9H-purin-2-yl}amino)-1-butanol; Aftin-4

$$$$
