
 OpenBabel10282417223D

 64 67  0  0  0  0  0  0  0  0999 V2000
    0.9369   -0.1050    0.0865 F   0  0  0  0  0  0  0  0  0  0  0  0
    2.2828   -0.1175   -0.0509 C   0  0  0  0  0  0  0  0  0  0  0  0
    2.6164   -1.0594   -0.9508 F   0  0  0  0  0  0  0  0  0  0  0  0
    2.6408    1.1021   -0.5035 F   0  0  0  0  0  0  0  0  0  0  0  0
    2.8595   -0.4330    1.2053 O   0  0  0  0  0  0  0  0  0  0  0  0
    4.2210   -0.3576    1.3454 C   0  0  0  0  0  0  0  0  0  0  0  0
    5.0699    0.5005    0.6310 C   0  0  0  0  0  0  0  0  0  0  0  0
    6.3813    0.7612    1.0916 C   0  0  0  0  0  0  0  0  0  0  0  0
    7.1236    1.9864    0.5880 C   0  0  0  0  0  0  0  0  0  0  0  0
    7.5904    2.9814    1.6702 C   0  0  0  0  0  0  0  0  0  0  0  0
    8.8086    3.1430    1.8632 O   0  0  0  0  0  0  0  0  0  0  0  0
    6.7231    3.7910    2.3636 N   0  0  0  0  0  0  0  0  0  0  0  0
    5.3302    3.7821    2.3160 C   0  0  0  0  0  0  0  0  0  0  0  0
    4.6257    4.8845    2.0308 N   0  0  0  0  0  0  0  0  0  0  0  0
    3.2533    4.7800    1.8049 N   0  0  0  0  0  0  0  0  0  0  0  0
    2.6210    3.5906    1.9313 C   0  0  0  0  0  0  0  0  0  0  0  0
    1.1253    3.4438    1.8408 C   0  0  0  0  0  0  0  0  0  0  0  0
    0.5012    4.0407    3.1013 C   0  0  0  0  0  0  0  0  0  0  0  0
    0.7461    5.5606    3.2045 C   0  0  0  0  0  0  0  0  0  0  0  0
    0.3388    6.3479    1.9376 C   0  0  0  0  0  0  0  0  0  0  0  0
   -1.1335    6.2347    1.7420 C   0  0  0  0  0  0  0  0  0  0  0  0
   -1.7277    5.0650    1.6932 N   0  0  0  0  0  0  0  0  0  0  0  0
   -3.0616    5.1752    1.8853 N   0  0  0  0  0  0  0  0  0  0  0  0
   -3.4807    6.3984    1.6932 C   0  0  0  0  0  0  0  0  0  0  0  0
   -4.7757    6.8067    1.5207 N   0  0  0  0  0  0  0  0  0  0  0  0
   -5.8121    5.9315    1.2987 C   0  0  0  0  0  0  0  0  0  0  0  0
   -6.9610    6.3928    1.1732 O   0  0  0  0  0  0  0  0  0  0  0  0
   -5.5858    4.4243    1.2246 C   0  0  0  0  0  0  0  0  0  0  0  0
   -4.7726    4.0047    0.0157 C   0  0  0  0  0  0  0  0  0  0  0  0
   -4.1571    4.9818   -0.7027 N   0  0  0  0  0  0  0  0  0  0  0  0
   -3.2312    4.6244   -1.6098 C   0  0  0  0  0  0  0  0  0  0  0  0
   -2.9711    3.3130   -1.9427 C   0  0  0  0  0  0  0  0  0  0  0  0
   -3.6704    2.3158   -1.2704 C   0  0  0  0  0  0  0  0  0  0  0  0
   -4.5589    2.6581   -0.2522 C   0  0  0  0  0  0  0  0  0  0  0  0
   -2.2277    7.5626    1.6558 S   0  0  0  0  0  0  0  0  0  0  0  0
    3.3142    2.5008    2.3594 C   0  0  0  0  0  0  0  0  0  0  0  0
    4.6639    2.6246    2.6077 C   0  0  0  0  0  0  0  0  0  0  0  0
    6.8842    0.0350    2.1781 C   0  0  0  0  0  0  0  0  0  0  0  0
    6.0349   -0.8055    2.8999 C   0  0  0  0  0  0  0  0  0  0  0  0
    4.7120   -0.9970    2.4894 C   0  0  0  0  0  0  0  0  0  0  0  0
    4.6797    1.1699   -0.1321 H   0  0  0  0  0  0  0  0  0  0  0  0
    8.0093    1.6324    0.0443 H   0  0  0  0  0  0  0  0  0  0  0  0
    6.5262    2.5469   -0.1427 H   0  0  0  0  0  0  0  0  0  0  0  0
    7.1526    4.5822    2.8238 H   0  0  0  0  0  0  0  0  0  0  0  0
    0.7498    3.8698    0.9072 H   0  0  0  0  0  0  0  0  0  0  0  0
    0.8464    2.3804    1.7876 H   0  0  0  0  0  0  0  0  0  0  0  0
   -0.5673    3.8062    3.1235 H   0  0  0  0  0  0  0  0  0  0  0  0
    0.8945    3.5416    3.9970 H   0  0  0  0  0  0  0  0  0  0  0  0
    0.2204    5.9474    4.0833 H   0  0  0  0  0  0  0  0  0  0  0  0
    1.8059    5.7381    3.4139 H   0  0  0  0  0  0  0  0  0  0  0  0
    0.6703    7.3847    2.0256 H   0  0  0  0  0  0  0  0  0  0  0  0
    0.8421    5.9512    1.0471 H   0  0  0  0  0  0  0  0  0  0  0  0
   -4.9732    7.7860    1.3926 H   0  0  0  0  0  0  0  0  0  0  0  0
   -5.1244    4.0885    2.1632 H   0  0  0  0  0  0  0  0  0  0  0  0
   -6.5601    3.9238    1.1827 H   0  0  0  0  0  0  0  0  0  0  0  0
   -2.6824    5.4485   -2.0550 H   0  0  0  0  0  0  0  0  0  0  0  0
   -2.2402    3.0781   -2.7061 H   0  0  0  0  0  0  0  0  0  0  0  0
   -3.5031    1.2731   -1.5203 H   0  0  0  0  0  0  0  0  0  0  0  0
   -5.0531    1.8874    0.3297 H   0  0  0  0  0  0  0  0  0  0  0  0
    2.8026    1.5606    2.4989 H   0  0  0  0  0  0  0  0  0  0  0  0
    5.1922    1.7819    3.0152 H   0  0  0  0  0  0  0  0  0  0  0  0
    7.8893    0.2275    2.5503 H   0  0  0  0  0  0  0  0  0  0  0  0
    6.3761   -1.2330    3.8404 H   0  0  0  0  0  0  0  0  0  0  0  0
    4.0419   -1.5889    3.1113 H   0  0  0  0  0  0  0  0  0  0  0  0
  1  2  1  0  0  0  0
  2  3  1  0  0  0  0
  2  4  1  0  0  0  0
  2  5  1  0  0  0  0
  5  6  1  0  0  0  0
  6  7  2  0  0  0  0
  6 40  1  0  0  0  0
  7  8  1  0  0  0  0
  7 41  1  0  0  0  0
  8  9  1  0  0  0  0
  8 38  2  0  0  0  0
  9 10  1  0  0  0  0
  9 42  1  0  0  0  0
  9 43  1  0  0  0  0
 10 11  2  0  0  0  0
 10 12  1  0  0  0  0
 12 13  1  0  0  0  0
 12 44  1  0  0  0  0
 13 14  2  0  0  0  0
 13 37  1  0  0  0  0
 14 15  1  0  0  0  0
 15 16  2  0  0  0  0
 16 17  1  0  0  0  0
 16 36  1  0  0  0  0
 17 18  1  0  0  0  0
 17 45  1  0  0  0  0
 17 46  1  0  0  0  0
 18 19  1  0  0  0  0
 18 47  1  0  0  0  0
 18 48  1  0  0  0  0
 19 20  1  0  0  0  0
 19 49  1  0  0  0  0
 19 50  1  0  0  0  0
 20 21  1  0  0  0  0
 20 51  1  0  0  0  0
 20 52  1  0  0  0  0
 21 22  2  0  0  0  0
 21 35  1  0  0  0  0
 22 23  1  0  0  0  0
 23 24  2  0  0  0  0
 24 25  1  0  0  0  0
 24 35  1  0  0  0  0
 25 26  1  0  0  0  0
 25 53  1  0  0  0  0
 26 27  2  0  0  0  0
 26 28  1  0  0  0  0
 28 29  1  0  0  0  0
 28 54  1  0  0  0  0
 28 55  1  0  0  0  0
 29 30  2  0  0  0  0
 29 34  1  0  0  0  0
 30 31  1  0  0  0  0
 31 32  2  0  0  0  0
 31 56  1  0  0  0  0
 32 33  1  0  0  0  0
 32 57  1  0  0  0  0
 33 34  2  0  0  0  0
 33 58  1  0  0  0  0
 34 59  1  0  0  0  0
 36 37  2  0  0  0  0
 36 60  1  0  0  0  0
 37 61  1  0  0  0  0
 38 39  1  0  0  0  0
 38 62  1  0  0  0  0
 39 40  2  0  0  0  0
 39 63  1  0  0  0  0
 40 64  1  0  0  0  0
M  END
>  <DRUGBANK_ID>
DB15232

>  <COMMON_NAME>
Telaglenastat

>  <CAS_NUMBER>
1439399-58-2

>  <UNII>
U6CL98GLP4

>  <SYNONYMS>
Telaglenastat

$$$$
