
 OpenBabel10282417123D

 24 25  0  0  0  0  0  0  0  0999 V2000
    1.0770   -0.0932   -0.0615 O   0  0  0  0  0  0  0  0  0  0  0  0
    2.3055   -0.0581   -0.0910 C   0  0  0  0  0  0  0  0  0  0  0  0
    3.1043   -1.0070    0.7172 C   0  0  0  0  0  0  0  0  0  0  0  0
    2.7041   -2.3430    0.7964 C   0  0  0  0  0  0  0  0  0  0  0  0
    3.5415   -3.2756    1.4096 C   0  0  0  0  0  0  0  0  0  0  0  0
    4.7661   -2.8706    1.9451 C   0  0  0  0  0  0  0  0  0  0  0  0
    5.1421   -1.5283    1.9023 C   0  0  0  0  0  0  0  0  0  0  0  0
    4.2892   -0.5862    1.3322 C   0  0  0  0  0  0  0  0  0  0  0  0
    3.0034    0.9443   -0.9351 C   0  0  0  0  0  0  0  0  0  0  0  0
    2.5537    2.2643   -0.8840 C   0  0  0  0  0  0  0  0  0  0  0  0
    3.2138    3.2521   -1.6135 C   0  0  0  0  0  0  0  0  0  0  0  0
    4.3268    2.9239   -2.3884 C   0  0  0  0  0  0  0  0  0  0  0  0
    4.7866    1.6070   -2.4326 C   0  0  0  0  0  0  0  0  0  0  0  0
    4.1062    0.6059   -1.7338 C   0  0  0  0  0  0  0  0  0  0  0  0
    1.7608   -2.6602    0.3573 H   0  0  0  0  0  0  0  0  0  0  0  0
    3.2540   -4.3234    1.4441 H   0  0  0  0  0  0  0  0  0  0  0  0
    5.4280   -3.6021    2.4022 H   0  0  0  0  0  0  0  0  0  0  0  0
    6.1074   -1.2181    2.2938 H   0  0  0  0  0  0  0  0  0  0  0  0
    4.5611    0.4663    1.3574 H   0  0  0  0  0  0  0  0  0  0  0  0
    1.6964    2.5199   -0.2665 H   0  0  0  0  0  0  0  0  0  0  0  0
    2.8630    4.2796   -1.5689 H   0  0  0  0  0  0  0  0  0  0  0  0
    4.8309    3.6960   -2.9653 H   0  0  0  0  0  0  0  0  0  0  0  0
    5.6756    1.3658   -3.0115 H   0  0  0  0  0  0  0  0  0  0  0  0
    4.4394   -0.4254   -1.8261 H   0  0  0  0  0  0  0  0  0  0  0  0
  1  2  2  0  0  0  0
  2  3  1  0  0  0  0
  2  9  1  0  0  0  0
  3  4  2  0  0  0  0
  3  8  1  0  0  0  0
  4  5  1  0  0  0  0
  4 15  1  0  0  0  0
  5  6  2  0  0  0  0
  5 16  1  0  0  0  0
  6  7  1  0  0  0  0
  6 17  1  0  0  0  0
  7  8  2  0  0  0  0
  7 18  1  0  0  0  0
  8 19  1  0  0  0  0
  9 10  2  0  0  0  0
  9 14  1  0  0  0  0
 10 11  1  0  0  0  0
 10 20  1  0  0  0  0
 11 12  2  0  0  0  0
 11 21  1  0  0  0  0
 12 13  1  0  0  0  0
 12 22  1  0  0  0  0
 13 14  2  0  0  0  0
 13 23  1  0  0  0  0
 14 24  1  0  0  0  0
M  END
>  <DRUGBANK_ID>
DB01878

>  <SECONDARY_ACCESSION_NUMBERS>
EXPT00794

>  <COMMON_NAME>
Benzophenone

>  <CAS_NUMBER>
119-61-9

>  <UNII>
701M4TTV9O

>  <SYNONYMS>
Benzophenone; Benzoylbenzene; Diphenyl ketone; Diphenylmethanone; α-oxodiphenylmethane; α-oxoditane

$$$$
