LZJ
 OpenBabel10282417173D

 29 31  0  0  0  0  0  0  0  0999 V2000
   -2.9212   -0.3958    0.1942 Br  0  0  0  0  0  0  0  0  0  0  0  0
   -1.1982    0.4220    0.0883 C   0  0  0  0  0  0  0  0  0  0  0  0
   -1.2001    1.8230    0.0673 C   0  0  0  0  0  0  0  0  0  0  0  0
   -0.0027    2.5229   -0.0077 C   0  0  0  0  0  0  0  0  0  0  0  0
    1.1994    1.8258   -0.0464 C   0  0  0  0  0  0  0  0  0  0  0  0
    1.2091    0.4245   -0.0275 C   0  0  0  0  0  0  0  0  0  0  0  0
    2.9350   -0.3888   -0.1036 Br  0  0  0  0  0  0  0  0  0  0  0  0
    0.0083   -0.3209    0.0263 C   0  0  0  0  0  0  0  0  0  0  0  0
    0.0147   -1.8039    0.0041 C   0  0  0  0  0  0  0  0  0  0  0  0
    0.6002   -2.5195    1.0497 C   0  0  0  0  0  0  0  0  0  0  0  0
    0.6259   -3.9204    1.0162 C   0  0  0  0  0  0  0  0  0  0  0  0
    1.2453   -4.6727    1.9977 C   0  0  0  0  0  0  0  0  0  0  0  0
    1.2733   -6.0118    1.9929 N   0  0  0  0  0  0  0  0  0  0  0  0
   -0.5521   -2.5632   -1.0300 C   0  0  0  0  0  0  0  0  0  0  0  0
   -0.9987   -1.9281   -2.1967 N   0  0  0  0  0  0  0  0  0  0  0  0
   -0.5617   -3.9236   -1.0271 N   0  0  0  0  0  0  0  0  0  0  0  0
    0.0270   -4.6125   -0.0228 C   0  0  0  0  0  0  0  0  0  0  0  0
    0.0447   -5.9560   -0.0318 N   0  0  0  0  0  0  0  0  0  0  0  0
    0.6609   -6.6006    0.9695 C   0  0  0  0  0  0  0  0  0  0  0  0
    0.6738   -7.9686    0.9677 N   0  0  0  0  0  0  0  0  0  0  0  0
   -2.1359    2.3772    0.1069 H   0  0  0  0  0  0  0  0  0  0  0  0
   -0.0057    3.6095   -0.0358 H   0  0  0  0  0  0  0  0  0  0  0  0
    2.1324    2.3828   -0.1005 H   0  0  0  0  0  0  0  0  0  0  0  0
    1.0677   -1.9905    1.8755 H   0  0  0  0  0  0  0  0  0  0  0  0
    1.7545   -4.2088    2.8361 H   0  0  0  0  0  0  0  0  0  0  0  0
   -1.5754   -2.5367   -2.7668 H   0  0  0  0  0  0  0  0  0  0  0  0
   -1.3722   -0.9950   -2.0794 H   0  0  0  0  0  0  0  0  0  0  0  0
    1.1424   -8.4358    1.7259 H   0  0  0  0  0  0  0  0  0  0  0  0
    0.2279   -8.4576    0.2138 H   0  0  0  0  0  0  0  0  0  0  0  0
  1  2  1  0  0  0  0
  2  3  1  0  0  0  0
  2  8  2  0  0  0  0
  3  4  2  0  0  0  0
  3 21  1  0  0  0  0
  4  5  1  0  0  0  0
  4 22  1  0  0  0  0
  5  6  2  0  0  0  0
  5 23  1  0  0  0  0
  6  7  1  0  0  0  0
  6  8  1  0  0  0  0
  8  9  1  0  0  0  0
  9 10  1  0  0  0  0
  9 14  2  0  0  0  0
 10 11  2  0  0  0  0
 10 24  1  0  0  0  0
 11 12  1  0  0  0  0
 11 17  1  0  0  0  0
 12 13  2  0  0  0  0
 12 25  1  0  0  0  0
 13 19  1  0  0  0  0
 14 15  1  0  0  0  0
 14 16  1  0  0  0  0
 15 26  1  0  0  0  0
 15 27  1  0  0  0  0
 16 17  2  0  0  0  0
 17 18  1  0  0  0  0
 18 19  2  0  0  0  0
 19 20  1  0  0  0  0
 20 28  1  0  0  0  0
 20 29  1  0  0  0  0
M  END
>  <DRUGBANK_ID>
DB08144

>  <COMMON_NAME>
6-(2,6-dibromophenyl)pyrido[2,3-d]pyrimidine-2,7-diamine

$$$$
