
 OpenBabel10282417143D

 43 45  0  0  0  0  0  0  0  0999 V2000
    9.8028   -2.2305   -0.2896 C   0  0  0  0  0  0  0  0  0  0  0  0
   10.7185   -1.7149    0.5511 C   0  0  0  0  0  0  0  0  0  0  0  0
    9.4397   -3.6784   -0.2500 C   0  0  0  0  0  0  0  0  0  0  0  0
    8.1224   -3.8700    0.0119 F   0  0  0  0  0  0  0  0  0  0  0  0
   10.1245   -4.3646    0.7023 F   0  0  0  0  0  0  0  0  0  0  0  0
    9.7047   -4.2968   -1.4300 F   0  0  0  0  0  0  0  0  0  0  0  0
   10.5168    0.4788   -0.4407 N   0  0  0  0  0  0  0  0  0  0  0  0
   11.1324   -0.2970    0.4991 C   0  0  0  0  0  0  0  0  0  0  0  0
   11.9868    0.1348    1.2579 O   0  0  0  0  0  0  0  0  0  0  0  0
    9.1543   -1.3458   -1.2849 C   0  0  0  0  0  0  0  0  0  0  0  0
    9.5418    0.0006   -1.3238 C   0  0  0  0  0  0  0  0  0  0  0  0
    8.1659   -1.7868   -2.1915 C   0  0  0  0  0  0  0  0  0  0  0  0
    8.9612    0.8762   -2.2316 C   0  0  0  0  0  0  0  0  0  0  0  0
    7.9907    0.4058   -3.1198 C   0  0  0  0  0  0  0  0  0  0  0  0
    7.5745   -0.9298   -3.1321 C   0  0  0  0  0  0  0  0  0  0  0  0
    5.6046   -2.3774   -5.8541 C   0  0  0  0  0  0  0  0  0  0  0  0
    6.6474   -1.3241   -5.4383 C   0  0  2  0  0  0  0  0  0  0  0  0
    5.3402   -2.0101   -3.4957 C   0  0  1  0  0  0  0  0  0  0  0  0
    4.5277   -2.2343   -4.7895 C   0  0  0  0  0  0  0  0  0  0  0  0
    6.5699   -1.3501   -3.9726 N   0  0  0  0  0  0  0  0  0  0  0  0
    6.2590    0.0455   -5.9858 C   0  0  0  0  0  0  0  0  0  0  0  0
    4.6112   -1.1369   -2.4489 C   0  0  2  0  0  0  0  0  0  0  0  0
    4.8706   -1.6659   -1.0274 C   0  0  0  0  0  0  0  0  0  0  0  0
    5.5840   -0.7925   -0.2837 F   0  0  0  0  0  0  0  0  0  0  0  0
    3.6921   -1.8736   -0.3866 F   0  0  0  0  0  0  0  0  0  0  0  0
    5.5207   -2.8500   -1.0038 F   0  0  0  0  0  0  0  0  0  0  0  0
    3.2034   -0.9985   -2.7520 O   0  0  0  0  0  0  0  0  0  0  0  0
   11.2212   -2.3126    1.3047 H   0  0  0  0  0  0  0  0  0  0  0  0
   10.8104    1.4464   -0.4715 H   0  0  0  0  0  0  0  0  0  0  0  0
    7.8433   -2.8255   -2.1831 H   0  0  0  0  0  0  0  0  0  0  0  0
    9.2319    1.9278   -2.2541 H   0  0  0  0  0  0  0  0  0  0  0  0
    7.5126    1.1329   -3.7661 H   0  0  0  0  0  0  0  0  0  0  0  0
    5.2107   -2.2247   -6.8640 H   0  0  0  0  0  0  0  0  0  0  0  0
    6.0332   -3.3856   -5.8049 H   0  0  0  0  0  0  0  0  0  0  0  0
    7.6386   -1.6175   -5.8028 H   0  0  0  0  0  0  0  0  0  0  0  0
    5.5818   -3.0086   -3.1161 H   0  0  0  0  0  0  0  0  0  0  0  0
    3.8816   -1.3832   -5.0342 H   0  0  0  0  0  0  0  0  0  0  0  0
    3.8902   -3.1222   -4.7198 H   0  0  0  0  0  0  0  0  0  0  0  0
    6.9859    0.8097   -5.7092 H   0  0  0  0  0  0  0  0  0  0  0  0
    6.2190    0.0273   -7.0781 H   0  0  0  0  0  0  0  0  0  0  0  0
    5.2825    0.3705   -5.6100 H   0  0  0  0  0  0  0  0  0  0  0  0
    4.9951   -0.1092   -2.4971 H   0  0  0  0  0  0  0  0  0  0  0  0
    2.7774   -1.8536   -2.5665 H   0  0  0  0  0  0  0  0  0  0  0  0
  1  2  2  0  0  0  0
  1 10  1  0  0  0  0
  1  3  1  0  0  0  0
  2  8  1  0  0  0  0
  2 28  1  0  0  0  0
  3  4  1  0  0  0  0
  3  6  1  0  0  0  0
  3  5  1  0  0  0  0
  7 11  1  0  0  0  0
  7 29  1  0  0  0  0
  8  7  1  0  0  0  0
  8  9  2  0  0  0  0
 10 11  2  0  0  0  0
 11 13  1  0  0  0  0
 12 10  1  0  0  0  0
 12 15  2  0  0  0  0
 12 30  1  0  0  0  0
 13 14  2  0  0  0  0
 13 31  1  0  0  0  0
 14 15  1  0  0  0  0
 14 32  1  0  0  0  0
 15 20  1  0  0  0  0
 16 17  1  0  0  0  0
 16 19  1  0  0  0  0
 16 33  1  0  0  0  0
 16 34  1  0  0  0  0
 17 20  1  0  0  0  0
 17 21  1  0  0  0  0
 17 35  1  6  0  0  0
 18 20  1  0  0  0  0
 18 19  1  0  0  0  0
 18 36  1  1  0  0  0
 19 37  1  0  0  0  0
 19 38  1  0  0  0  0
 21 39  1  0  0  0  0
 21 40  1  0  0  0  0
 21 41  1  0  0  0  0
 22 27  1  0  0  0  0
 22 42  1  6  0  0  0
 22 23  1  0  0  0  0
 22 18  1  0  0  0  0
 23 26  1  0  0  0  0
 23 24  1  0  0  0  0
 23 25  1  0  0  0  0
 27 43  1  0  0  0  0
M  END
>  <DRUGBANK_ID>
DB05234

>  <COMMON_NAME>
LGD2941

>  <UNII>
27H8PR7JGK

$$$$
