
 OpenBabel10282417233D

 31 32  0  0  1  0  0  0  0  0999 V2000
    0.8580   -0.1978   -0.1728 N   0  0  0  0  0  0  0  0  0  0  0  0
    0.1657    0.6245   -1.0002 C   0  0  0  0  0  0  0  0  0  0  0  0
   -0.9467    1.1850   -0.6893 N   0  0  0  0  0  0  0  0  0  0  0  0
   -1.6002    1.9162   -1.6508 C   0  0  0  0  0  0  0  0  0  0  0  0
   -2.6050    2.5749   -1.3613 O   0  0  0  0  0  0  0  0  0  0  0  0
   -1.1452    1.8821   -2.9545 N   0  0  0  0  0  0  0  0  0  0  0  0
    0.0083    1.1280   -3.3248 C   0  0  0  0  0  0  0  0  0  0  0  0
    0.7577    0.7090   -2.1959 N   0  0  0  0  0  0  0  0  0  0  0  0
   -1.8754    2.5622   -4.0142 C   0  0  2  0  0  0  0  0  0  0  0  0
   -2.3300    1.5879   -4.9706 O   0  0  0  0  0  0  0  0  0  0  0  0
   -2.0974    2.0722   -6.3133 C   0  0  2  0  0  0  0  0  0  0  0  0
   -1.1052    1.1137   -6.9891 C   0  0  0  0  0  0  0  0  0  0  0  0
   -1.4332    0.9229   -8.3609 O   0  0  0  0  0  0  0  0  0  0  0  0
   -1.5753    3.5106   -6.1979 C   0  0  1  0  0  0  0  0  0  0  0  0
   -2.6259    4.4697   -6.3497 O   0  0  0  0  0  0  0  0  0  0  0  0
   -1.0150    3.5743   -4.7878 C   0  0  1  0  0  0  0  0  0  0  0  0
   -1.0115    4.8708   -4.2094 O   0  0  0  0  0  0  0  0  0  0  0  0
    0.4206   -0.3112    0.7360 H   0  0  0  0  0  0  0  0  0  0  0  0
    1.8475    0.0037   -0.0816 H   0  0  0  0  0  0  0  0  0  0  0  0
   -0.2979    0.2931   -3.9622 H   0  0  0  0  0  0  0  0  0  0  0  0
    0.6857    1.7614   -3.8927 H   0  0  0  0  0  0  0  0  0  0  0  0
    1.4840    0.0350   -2.3919 H   0  0  0  0  0  0  0  0  0  0  0  0
   -2.7739    3.0540   -3.6212 H   0  0  0  0  0  0  0  0  0  0  0  0
   -3.0555    2.0534   -6.8471 H   0  0  0  0  0  0  0  0  0  0  0  0
   -0.0833    1.5030   -6.9478 H   0  0  0  0  0  0  0  0  0  0  0  0
   -1.0956    0.1311   -6.5040 H   0  0  0  0  0  0  0  0  0  0  0  0
   -2.2971    0.4722   -8.3989 H   0  0  0  0  0  0  0  0  0  0  0  0
   -0.8149    3.7424   -6.9518 H   0  0  0  0  0  0  0  0  0  0  0  0
   -3.3294    4.2813   -5.7073 H   0  0  0  0  0  0  0  0  0  0  0  0
    0.0279    3.2660   -4.8459 H   0  0  0  0  0  0  0  0  0  0  0  0
   -1.9088    5.2404   -4.2855 H   0  0  0  0  0  0  0  0  0  0  0  0
  1  2  1  0  0  0  0
  1 18  1  0  0  0  0
  1 19  1  0  0  0  0
  2  3  2  0  0  0  0
  2  8  1  0  0  0  0
  3  4  1  0  0  0  0
  4  5  2  0  0  0  0
  4  6  1  0  0  0  0
  6  7  1  0  0  0  0
  7  8  1  0  0  0  0
  7 20  1  0  0  0  0
  7 21  1  0  0  0  0
  8 22  1  0  0  0  0
  9  6  1  0  0  0  0
  9 10  1  0  0  0  0
  9 23  1  1  0  0  0
 11 10  1  0  0  0  0
 11 24  1  6  0  0  0
 11 12  1  0  0  0  0
 12 13  1  0  0  0  0
 12 25  1  0  0  0  0
 12 26  1  0  0  0  0
 13 27  1  0  0  0  0
 14 11  1  0  0  0  0
 14 15  1  0  0  0  0
 14 16  1  0  0  0  0
 14 28  1  6  0  0  0
 15 29  1  0  0  0  0
 16  9  1  0  0  0  0
 16 17  1  0  0  0  0
 16 30  1  6  0  0  0
 17 31  1  0  0  0  0
M  END
>  <DRUGBANK_ID>
DB17151

>  <COMMON_NAME>
5,6-dihydro-5-azacytidine

>  <CAS_NUMBER>
62488-57-7

>  <UNII>
0627D8VG1C

>  <SYNONYMS>
1,3,5-triazin-2(1h)-one, 4-amino-5,6-dihydro-1-.beta.-d-ribofuranosyl-

$$$$
