
 OpenBabel10282417193D

 89 95  0  0  1  0  0  0  0  0999 V2000
    0.9178    0.1092   -0.1060 C   0  0  0  0  0  0  0  0  0  0  0  0
    0.5460   -1.3448   -0.1335 C   0  0  0  0  0  0  0  0  0  0  0  0
   -0.6724   -1.6247   -0.7712 C   0  0  0  0  0  0  0  0  0  0  0  0
   -1.0722   -2.9415   -0.9563 C   0  0  0  0  0  0  0  0  0  0  0  0
   -0.2865   -4.0154   -0.4607 C   0  0  0  0  0  0  0  0  0  0  0  0
    0.8975   -3.7459    0.2253 C   0  0  0  0  0  0  0  0  0  0  0  0
    1.3212   -2.4102    0.3959 C   0  0  0  0  0  0  0  0  0  0  0  0
    2.5633   -2.3336    0.9747 O   0  0  0  0  0  0  0  0  0  0  0  0
    3.0466   -1.0789    1.3890 C   0  0  0  0  0  0  0  0  0  0  0  0
    1.8009   -4.7393    0.5344 O   0  0  0  0  0  0  0  0  0  0  0  0
   -0.4549   -5.2903   -1.2641 C   0  0  2  0  0  0  0  0  0  0  0  0
   -1.9202   -5.9520   -0.9322 C   0  0  2  0  0  0  0  0  0  0  0  0
   -1.7011   -7.4021   -0.6234 C   0  0  0  0  0  0  0  0  0  0  0  0
   -2.8627   -8.2988   -0.4319 C   0  0  0  0  0  0  0  0  0  0  0  0
   -4.1004   -7.8188   -0.8446 C   0  0  0  0  0  0  0  0  0  0  0  0
   -5.2131   -8.5833   -0.6111 C   0  0  0  0  0  0  0  0  0  0  0  0
   -5.1360   -9.9039   -0.2939 C   0  0  0  0  0  0  0  0  0  0  0  0
   -3.9075  -10.4240    0.1840 C   0  0  0  0  0  0  0  0  0  0  0  0
   -2.7395   -9.5854    0.1091 C   0  0  0  0  0  0  0  0  0  0  0  0
   -1.4117  -10.0031    0.6576 O   0  0  0  0  0  0  0  0  0  0  0  0
   -0.0833   -9.5089    0.4249 C   0  0  0  0  0  0  0  0  0  0  0  0
    0.2921   -8.7159   -0.4428 O   0  0  0  0  0  0  0  0  0  0  0  0
    1.0145  -10.0365    1.2647 C   0  0  0  0  0  0  0  0  0  0  0  0
   -3.8648  -11.7159    0.9374 C   0  0  0  0  0  0  0  0  0  0  0  0
   -6.3743  -10.4710   -0.5138 O   0  0  0  0  0  0  0  0  0  0  0  0
   -7.2412   -9.3028   -0.6634 C   0  0  0  0  0  0  0  0  0  0  0  0
   -6.4756   -8.1053   -0.7379 O   0  0  0  0  0  0  0  0  0  0  0  0
   -4.2369   -6.5834   -1.6898 C   0  0  1  0  0  0  0  0  0  0  0  0
   -2.9626   -5.9211   -1.9452 N   0  0  3  0  0  0  0  0  0  0  0  0
   -2.5979   -5.4300   -3.2327 C   0  0  2  0  0  0  0  0  0  0  0  0
   -1.4741   -4.4325   -3.1399 C   0  0  2  0  0  0  0  0  0  0  0  0
   -2.0250   -3.2699   -2.1062 C   0  0  0  0  0  0  0  0  0  0  0  0
   -0.1698   -4.9114   -2.7043 N   0  0  0  0  0  0  0  0  0  0  0  0
    0.6653   -3.6671   -2.9585 C   0  0  0  0  0  0  0  0  0  0  0  0
   -3.5898   -4.5513   -3.7141 O   0  0  0  0  0  0  0  0  0  0  0  0
   -4.8892   -7.0421   -3.0330 C   0  0  0  0  0  0  0  0  0  0  0  0
   -6.3178   -7.2831   -3.0981 N   0  0  0  0  0  0  0  0  0  0  0  0
   -7.4370   -6.5142   -3.2128 C   0  0  0  0  0  0  0  0  0  0  0  0
   -8.5006   -6.9714   -2.8410 O   0  0  0  0  0  0  0  0  0  0  0  0
   -7.4330   -5.1567   -3.8206 C   0  0  0  0  0  0  0  0  0  0  0  0
   -6.3777   -4.5519   -4.2956 C   0  0  0  0  0  0  0  0  0  0  0  0
   -6.1291   -3.2721   -4.9120 C   0  0  0  0  0  0  0  0  0  0  0  0
   -6.7949   -2.1496   -4.4732 C   0  0  0  0  0  0  0  0  0  0  0  0
   -6.4897   -0.9401   -5.0671 C   0  0  0  0  0  0  0  0  0  0  0  0
   -5.4912   -0.8667   -6.0474 C   0  0  0  0  0  0  0  0  0  0  0  0
   -4.7508   -1.9924   -6.4269 C   0  0  0  0  0  0  0  0  0  0  0  0
   -5.0748   -3.2022   -5.8377 C   0  0  0  0  0  0  0  0  0  0  0  0
   -3.6543   -1.9360   -7.4515 C   0  0  0  0  0  0  0  0  0  0  0  0
   -2.4353   -2.2770   -6.9470 F   0  0  0  0  0  0  0  0  0  0  0  0
   -3.8750   -2.7818   -8.4963 F   0  0  0  0  0  0  0  0  0  0  0  0
   -3.5021   -0.6984   -7.9957 F   0  0  0  0  0  0  0  0  0  0  0  0
    0.6635    0.4991    0.8814 H   0  0  0  0  0  0  0  0  0  0  0  0
    0.3852    0.7044   -0.8551 H   0  0  0  0  0  0  0  0  0  0  0  0
    1.9645    0.2795   -0.3487 H   0  0  0  0  0  0  0  0  0  0  0  0
   -1.1882   -0.8371   -1.3222 H   0  0  0  0  0  0  0  0  0  0  0  0
    3.4646   -0.5447    0.5324 H   0  0  0  0  0  0  0  0  0  0  0  0
    2.2774   -0.5168    1.9230 H   0  0  0  0  0  0  0  0  0  0  0  0
    3.8717   -1.2276    2.0848 H   0  0  0  0  0  0  0  0  0  0  0  0
    1.5656   -5.5914    0.1403 H   0  0  0  0  0  0  0  0  0  0  0  0
    0.2819   -6.0505   -1.0016 H   0  0  0  0  0  0  0  0  0  0  0  0
   -2.3224   -5.4849   -0.0232 H   0  0  0  0  0  0  0  0  0  0  0  0
   -1.1725   -7.8168   -1.4892 H   0  0  0  0  0  0  0  0  0  0  0  0
   -1.1888   -7.3717    0.3414 H   0  0  0  0  0  0  0  0  0  0  0  0
    0.8054  -10.0584    2.3291 H   0  0  0  0  0  0  0  0  0  0  0  0
    1.3476  -10.9761    0.8292 H   0  0  0  0  0  0  0  0  0  0  0  0
    1.8481   -9.3186    1.1382 H   0  0  0  0  0  0  0  0  0  0  0  0
   -4.4996  -11.6400    1.8293 H   0  0  0  0  0  0  0  0  0  0  0  0
   -4.1786  -12.5683    0.3316 H   0  0  0  0  0  0  0  0  0  0  0  0
   -2.8514  -11.9094    1.2988 H   0  0  0  0  0  0  0  0  0  0  0  0
   -7.8862   -9.2359    0.2134 H   0  0  0  0  0  0  0  0  0  0  0  0
   -7.9056   -9.3186   -1.5492 H   0  0  0  0  0  0  0  0  0  0  0  0
   -4.8533   -5.8703   -1.1298 H   0  0  0  0  0  0  0  0  0  0  0  0
   -2.4432   -6.2302   -3.9704 H   0  0  0  0  0  0  0  0  0  0  0  0
   -1.3270   -4.1341   -4.1900 H   0  0  0  0  0  0  0  0  0  0  0  0
   -2.8989   -3.6011   -1.5328 H   0  0  0  0  0  0  0  0  0  0  0  0
   -2.3448   -2.4043   -2.6899 H   0  0  0  0  0  0  0  0  0  0  0  0
    0.0680   -2.7441   -2.8986 H   0  0  0  0  0  0  0  0  0  0  0  0
    1.5090   -3.5109   -2.2871 H   0  0  0  0  0  0  0  0  0  0  0  0
    0.9744   -3.5518   -3.9986 H   0  0  0  0  0  0  0  0  0  0  0  0
   -3.9697   -4.1085   -2.9359 H   0  0  0  0  0  0  0  0  0  0  0  0
   -4.6974   -6.3072   -3.7486 H   0  0  0  0  0  0  0  0  0  0  0  0
   -4.3690   -7.8963   -3.4776 H   0  0  0  0  0  0  0  0  0  0  0  0
   -6.5630   -8.1584   -2.6684 H   0  0  0  0  0  0  0  0  0  0  0  0
   -8.4177   -4.7069   -3.9160 H   0  0  0  0  0  0  0  0  0  0  0  0
   -5.4423   -5.0302   -4.3038 H   0  0  0  0  0  0  0  0  0  0  0  0
   -7.5236   -2.2239   -3.6716 H   0  0  0  0  0  0  0  0  0  0  0  0
   -7.0400   -0.0569   -4.7660 H   0  0  0  0  0  0  0  0  0  0  0  0
   -5.2892    0.0891   -6.5199 H   0  0  0  0  0  0  0  0  0  0  0  0
   -4.4818   -4.0916   -6.0797 H   0  0  0  0  0  0  0  0  0  0  0  0
  1  2  1  0  0  0  0
  1 52  1  0  0  0  0
  1 53  1  0  0  0  0
  1 54  1  0  0  0  0
  2  3  2  0  0  0  0
  2  7  1  0  0  0  0
  3  4  1  0  0  0  0
  3 55  1  0  0  0  0
  4  5  2  0  0  0  0
  4 32  1  0  0  0  0
  5  6  1  0  0  0  0
  5 11  1  0  0  0  0
  6  7  2  0  0  0  0
  6 10  1  0  0  0  0
  7  8  1  0  0  0  0
  8  9  1  0  0  0  0
  9 56  1  0  0  0  0
  9 57  1  0  0  0  0
  9 58  1  0  0  0  0
 10 59  1  0  0  0  0
 11 12  1  0  0  0  0
 11 33  1  0  0  0  0
 11 60  1  6  0  0  0
 12 13  1  0  0  0  0
 12 29  1  0  0  0  0
 12 61  1  1  0  0  0
 13 14  1  0  0  0  0
 13 62  1  0  0  0  0
 13 63  1  0  0  0  0
 14 15  2  0  0  0  0
 14 19  1  0  0  0  0
 15 16  1  0  0  0  0
 15 28  1  0  0  0  0
 16 17  2  0  0  0  0
 16 27  1  0  0  0  0
 17 18  1  0  0  0  0
 17 25  1  0  0  0  0
 18 19  2  0  0  0  0
 18 24  1  0  0  0  0
 19 20  1  0  0  0  0
 20 21  1  0  0  0  0
 21 22  2  0  0  0  0
 21 23  1  0  0  0  0
 23 64  1  0  0  0  0
 23 65  1  0  0  0  0
 23 66  1  0  0  0  0
 24 67  1  0  0  0  0
 24 68  1  0  0  0  0
 24 69  1  0  0  0  0
 25 26  1  0  0  0  0
 26 27  1  0  0  0  0
 26 70  1  0  0  0  0
 26 71  1  0  0  0  0
 28 29  1  0  0  0  0
 28 36  1  0  0  0  0
 28 72  1  1  0  0  0
 29 30  1  0  0  0  0
 30 31  1  0  0  0  0
 30 35  1  0  0  0  0
 30 73  1  6  0  0  0
 31 32  1  0  0  0  0
 31 33  1  0  0  0  0
 31 74  1  1  0  0  0
 32 75  1  0  0  0  0
 32 76  1  0  0  0  0
 33 34  1  0  0  0  0
 34 77  1  0  0  0  0
 34 78  1  0  0  0  0
 34 79  1  0  0  0  0
 35 80  1  0  0  0  0
 36 37  1  0  0  0  0
 36 81  1  0  0  0  0
 36 82  1  0  0  0  0
 37 38  1  0  0  0  0
 37 83  1  0  0  0  0
 38 39  2  0  0  0  0
 38 40  1  0  0  0  0
 40 41  2  0  0  0  0
 40 84  1  0  0  0  0
 41 42  1  0  0  0  0
 41 85  1  0  0  0  0
 42 43  2  0  0  0  0
 42 47  1  0  0  0  0
 43 44  1  0  0  0  0
 43 86  1  0  0  0  0
 44 45  2  0  0  0  0
 44 87  1  0  0  0  0
 45 46  1  0  0  0  0
 45 88  1  0  0  0  0
 46 47  2  0  0  0  0
 46 48  1  0  0  0  0
 47 89  1  0  0  0  0
 48 49  1  0  0  0  0
 48 50  1  0  0  0  0
 48 51  1  0  0  0  0
M  END
>  <DRUGBANK_ID>
DB12454

>  <COMMON_NAME>
Zalypsis

>  <CAS_NUMBER>
308359-57-1

>  <UNII>
C21EZR41AY

$$$$
