PRC
 OpenBabel10282417133D

 47 50  0  0  0  0  0  0  0  0999 V2000
    0.6874    1.2232   -0.0002 C   0  0  0  0  0  0  0  0  0  0  0  0
   -0.6932    1.1248   -0.0022 C   0  0  0  0  0  0  0  0  0  0  0  0
   -1.3597   -0.0481   -0.0065 N   0  0  0  0  0  0  0  0  0  0  0  0
   -0.6063   -1.1765   -0.0181 C   0  0  0  0  0  0  0  0  0  0  0  0
    0.7868   -1.1983    0.0010 C   0  0  0  0  0  0  0  0  0  0  0  0
    1.4324    0.0458   -0.0014 C   0  0  0  0  0  0  0  0  0  0  0  0
    1.5256   -2.4573    0.0567 C   0  0  0  0  0  0  0  0  0  0  0  0
    1.2566   -3.3440   -0.9130 N   0  0  0  0  0  0  0  0  0  0  0  0
    1.9367   -4.5050   -0.9424 C   0  0  0  0  0  0  0  0  0  0  0  0
    2.8562   -4.8375   -0.0264 N   0  0  0  0  0  0  0  0  0  0  0  0
    3.0719   -3.9427    0.9599 C   0  0  0  0  0  0  0  0  0  0  0  0
    2.4327   -2.7304    1.0508 C   0  0  0  0  0  0  0  0  0  0  0  0
    1.6666   -5.4060   -1.9739 N   0  0  0  0  0  0  0  0  0  0  0  0
    0.8840   -5.1314   -3.1105 C   0  0  0  0  0  0  0  0  0  0  0  0
   -0.2395   -5.9537   -3.3871 C   0  0  0  0  0  0  0  0  0  0  0  0
   -1.1516   -5.6176   -4.4032 C   0  0  0  0  0  0  0  0  0  0  0  0
   -0.8782   -4.4836   -5.1682 C   0  0  0  0  0  0  0  0  0  0  0  0
    0.2491   -3.7001   -4.9482 C   0  0  0  0  0  0  0  0  0  0  0  0
    1.1476   -4.0143   -3.9310 C   0  0  0  0  0  0  0  0  0  0  0  0
    2.3261   -3.0940   -3.7558 C   0  0  0  0  0  0  0  0  0  0  0  0
   -2.3310   -6.3958   -4.6157 N   0  0  0  0  0  0  0  0  0  0  0  0
   -3.2735   -6.1453   -5.6111 C   0  0  0  0  0  0  0  0  0  0  0  0
   -4.4279   -7.0485   -5.7340 C   0  0  0  0  0  0  0  0  0  0  0  0
   -5.2045   -7.4563   -4.6541 C   0  0  0  0  0  0  0  0  0  0  0  0
   -6.3538   -8.2106   -4.9018 C   0  0  0  0  0  0  0  0  0  0  0  0
   -6.6829   -8.5229   -6.2151 C   0  0  0  0  0  0  0  0  0  0  0  0
   -5.9547   -8.1335   -7.2812 N   0  0  0  0  0  0  0  0  0  0  0  0
   -4.8526   -7.3901   -7.0174 C   0  0  0  0  0  0  0  0  0  0  0  0
   -3.2486   -5.2407   -6.4458 O   0  0  0  0  0  0  0  0  0  0  0  0
    1.1727    2.1927    0.0036 H   0  0  0  0  0  0  0  0  0  0  0  0
   -1.3180    2.0133   -0.0026 H   0  0  0  0  0  0  0  0  0  0  0  0
   -1.1767   -2.1031   -0.0178 H   0  0  0  0  0  0  0  0  0  0  0  0
    2.5182    0.1041   -0.0121 H   0  0  0  0  0  0  0  0  0  0  0  0
    3.7975   -4.2379    1.7120 H   0  0  0  0  0  0  0  0  0  0  0  0
    2.6116   -2.0422    1.8650 H   0  0  0  0  0  0  0  0  0  0  0  0
    2.2384   -6.2351   -1.9614 H   0  0  0  0  0  0  0  0  0  0  0  0
   -0.4184   -6.8111   -2.7427 H   0  0  0  0  0  0  0  0  0  0  0  0
   -1.5308   -4.1459   -5.9618 H   0  0  0  0  0  0  0  0  0  0  0  0
    0.3956   -2.8201   -5.5701 H   0  0  0  0  0  0  0  0  0  0  0  0
    2.8936   -3.0257   -4.6888 H   0  0  0  0  0  0  0  0  0  0  0  0
    1.9788   -2.0946   -3.4705 H   0  0  0  0  0  0  0  0  0  0  0  0
    3.0334   -3.4359   -2.9987 H   0  0  0  0  0  0  0  0  0  0  0  0
   -2.4588   -7.2031   -4.0167 H   0  0  0  0  0  0  0  0  0  0  0  0
   -4.9643   -7.1486   -3.6421 H   0  0  0  0  0  0  0  0  0  0  0  0
   -6.9968   -8.5336   -4.0903 H   0  0  0  0  0  0  0  0  0  0  0  0
   -7.5719   -9.1018   -6.4517 H   0  0  0  0  0  0  0  0  0  0  0  0
   -4.3090   -7.0535   -7.8987 H   0  0  0  0  0  0  0  0  0  0  0  0
  1  2  2  0  0  0  0
  1  6  1  0  0  0  0
  1 30  1  0  0  0  0
  2  3  1  0  0  0  0
  2 31  1  0  0  0  0
  3  4  2  0  0  0  0
  4  5  1  0  0  0  0
  4 32  1  0  0  0  0
  5  6  2  0  0  0  0
  5  7  1  0  0  0  0
  6 33  1  0  0  0  0
  7  8  2  0  0  0  0
  7 12  1  0  0  0  0
  8  9  1  0  0  0  0
  9 10  2  0  0  0  0
  9 13  1  0  0  0  0
 10 11  1  0  0  0  0
 11 12  2  0  0  0  0
 11 34  1  0  0  0  0
 12 35  1  0  0  0  0
 13 14  1  0  0  0  0
 13 36  1  0  0  0  0
 14 15  2  0  0  0  0
 14 19  1  0  0  0  0
 15 16  1  0  0  0  0
 15 37  1  0  0  0  0
 16 17  2  0  0  0  0
 16 21  1  0  0  0  0
 17 18  1  0  0  0  0
 17 38  1  0  0  0  0
 18 19  2  0  0  0  0
 18 39  1  0  0  0  0
 19 20  1  0  0  0  0
 20 40  1  0  0  0  0
 20 41  1  0  0  0  0
 20 42  1  0  0  0  0
 21 22  1  0  0  0  0
 21 43  1  0  0  0  0
 22 23  1  0  0  0  0
 22 29  2  0  0  0  0
 23 24  2  0  0  0  0
 23 28  1  0  0  0  0
 24 25  1  0  0  0  0
 24 44  1  0  0  0  0
 25 26  2  0  0  0  0
 25 45  1  0  0  0  0
 26 27  1  0  0  0  0
 26 46  1  0  0  0  0
 27 28  2  0  0  0  0
 28 47  1  0  0  0  0
M  END
>  <DRUGBANK_ID>
DB03878

>  <SECONDARY_ACCESSION_NUMBERS>
EXPT02657

>  <COMMON_NAME>
N-[4-Methyl-3-[[4-(3-Pyridinyl)-2-Pyrimidinyl]Amino]Phenyl]-3-Pyridinecarboxamide

>  <UNII>
Q8SP783P3P

$$$$
