FRA
 OpenBabel10282417163D

 54 57  0  0  0  0  0  0  0  0999 V2000
    0.8542    0.0265    0.0331 C   0  0  0  0  0  0  0  0  0  0  0  0
    0.4230    0.1642    1.4747 C   0  0  0  0  0  0  0  0  0  0  0  0
   -0.2796    1.1098    1.8355 O   0  0  0  0  0  0  0  0  0  0  0  0
    0.7564   -0.8379    2.3606 N   0  0  0  0  0  0  0  0  0  0  0  0
    1.5958   -1.9485    2.1340 C   0  0  0  0  0  0  0  0  0  0  0  0
    2.7924   -1.8212    1.4294 C   0  0  0  0  0  0  0  0  0  0  0  0
    3.6687   -2.9030    1.2402 C   0  0  0  0  0  0  0  0  0  0  0  0
    3.4063   -4.1421    1.8317 C   0  0  0  0  0  0  0  0  0  0  0  0
    2.2030   -4.2671    2.5476 C   0  0  0  0  0  0  0  0  0  0  0  0
    1.2922   -3.1928    2.6817 C   0  0  0  0  0  0  0  0  0  0  0  0
    4.1081   -5.3051    1.4069 N   0  0  0  0  0  0  0  0  0  0  0  0
    5.3282   -5.8373    1.7793 C   0  0  0  0  0  0  0  0  0  0  0  0
    5.7366   -7.0682    0.7946 C   0  0  1  0  0  0  0  0  0  0  0  0
    4.7595   -6.7118   -0.2571 C   0  0  1  0  0  0  0  0  0  0  0  0
    3.6026   -6.0042    0.3712 C   0  0  0  0  0  0  0  0  0  0  0  0
    5.9911   -5.4662    2.7392 O   0  0  0  0  0  0  0  0  0  0  0  0
    2.4633   -5.9329   -0.0575 O   0  0  0  0  0  0  0  0  0  0  0  0
    5.1210   -8.6275    0.8260 C   0  0  1  0  0  0  0  0  0  0  0  0
    5.2924   -9.7198    1.7087 C   0  0  0  0  0  0  0  0  0  0  0  0
    4.1021   -9.5125    0.8508 C   0  0  0  0  0  0  0  0  0  0  0  0
    3.3177   -8.0937   -1.5601 C   0  0  0  0  0  0  0  0  0  0  0  0
    3.9199   -9.2456   -0.9120 C   0  0  0  0  0  0  0  0  0  0  0  0
    4.4747   -8.1125   -0.7537 C   0  0  2  0  0  0  0  0  0  0  0  0
    5.8980   -8.5761   -1.5248 N   0  0  0  0  0  0  0  0  0  0  0  0
    6.5321   -7.8781   -2.4803 C   0  0  0  0  0  0  0  0  0  0  0  0
    7.5655   -8.2474   -3.0047 O   0  0  0  0  0  0  0  0  0  0  0  0
    5.8763   -6.7296   -2.6901 O   0  0  0  0  0  0  0  0  0  0  0  0
    6.5167   -5.7559   -3.4753 C   0  0  0  0  0  0  0  0  0  0  0  0
    7.9265   -5.4050   -3.0396 C   0  0  0  0  0  0  0  0  0  0  0  0
    8.9322   -5.5742   -3.7086 O   0  0  0  0  0  0  0  0  0  0  0  0
    7.9922   -4.8501   -1.8059 O   0  0  0  0  0  0  0  0  0  0  0  0
    6.7965   -7.0236    0.5108 H   0  0  0  0  0  0  0  0  0  0  0  0
    5.1335   -5.9825   -0.9612 H   0  0  0  0  0  0  0  0  0  0  0  0
    4.6137   -8.0463    1.7049 H   0  0  0  0  0  0  0  0  0  0  0  0
    0.4351    0.8339   -0.5698 H   0  0  0  0  0  0  0  0  0  0  0  0
    0.5165   -0.9327   -0.3707 H   0  0  0  0  0  0  0  0  0  0  0  0
    1.9312    0.1300   -0.0702 H   0  0  0  0  0  0  0  0  0  0  0  0
    0.3172   -0.7491    3.2733 H   0  0  0  0  0  0  0  0  0  0  0  0
    3.1066   -0.8578    1.0505 H   0  0  0  0  0  0  0  0  0  0  0  0
    4.5393   -2.7358    0.6128 H   0  0  0  0  0  0  0  0  0  0  0  0
    1.9610   -5.2211    3.0061 H   0  0  0  0  0  0  0  0  0  0  0  0
    0.3285   -3.3702    3.1586 H   0  0  0  0  0  0  0  0  0  0  0  0
    6.0753  -10.4358    1.4705 H   0  0  0  0  0  0  0  0  0  0  0  0
    5.0315   -9.6337    2.7695 H   0  0  0  0  0  0  0  0  0  0  0  0
    3.9359  -10.5844    0.5146 H   0  0  0  0  0  0  0  0  0  0  0  0
    3.1329   -9.1450    1.2848 H   0  0  0  0  0  0  0  0  0  0  0  0
    3.2332   -8.1331   -2.6376 H   0  0  0  0  0  0  0  0  0  0  0  0
    2.4234   -7.7955   -1.0267 H   0  0  0  0  0  0  0  0  0  0  0  0
    4.3396  -10.0575   -1.5863 H   0  0  0  0  0  0  0  0  0  0  0  0
    2.9150   -9.7872   -0.7568 H   0  0  0  0  0  0  0  0  0  0  0  0
    6.2711   -9.5038   -1.3249 H   0  0  0  0  0  0  0  0  0  0  0  0
    6.5030   -6.1264   -4.4972 H   0  0  0  0  0  0  0  0  0  0  0  0
    5.9056   -4.8440   -3.4469 H   0  0  0  0  0  0  0  0  0  0  0  0
    8.9493   -4.6895   -1.6429 H   0  0  0  0  0  0  0  0  0  0  0  0
  1  2  1  0  0  0  0
  1 35  1  0  0  0  0
  1 36  1  0  0  0  0
  1 37  1  0  0  0  0
  2  3  2  0  0  0  0
  2  4  1  0  0  0  0
  4  5  1  0  0  0  0
  4 38  1  0  0  0  0
  5  6  2  0  0  0  0
  5 10  1  0  0  0  0
  6  7  1  0  0  0  0
  6 39  1  0  0  0  0
  7  8  2  0  0  0  0
  7 40  1  0  0  0  0
  8  9  1  0  0  0  0
  8 11  1  0  0  0  0
  9 10  2  0  0  0  0
  9 41  1  0  0  0  0
 10 42  1  0  0  0  0
 11 12  1  0  0  0  0
 11 15  1  0  0  0  0
 12 13  1  0  0  0  0
 12 16  2  0  0  0  0
 13 14  1  0  0  0  0
 13 18  1  0  0  0  0
 13 32  1  1  0  0  0
 14 15  1  0  0  0  0
 14 23  1  0  0  0  0
 14 33  1  1  0  0  0
 15 17  2  0  0  0  0
 18 19  1  0  0  0  0
 18 22  1  0  0  0  0
 18 34  1  6  0  0  0
 19 20  1  0  0  0  0
 19 43  1  0  0  0  0
 19 44  1  0  0  0  0
 20 23  1  0  0  0  0
 20 45  1  0  0  0  0
 20 46  1  0  0  0  0
 21 22  1  0  0  0  0
 21 23  1  0  0  0  0
 21 47  1  0  0  0  0
 21 48  1  0  0  0  0
 22 49  1  0  0  0  0
 22 50  1  0  0  0  0
 23 24  1  1  0  0  0
 24 25  1  0  0  0  0
 24 51  1  0  0  0  0
 25 26  2  0  0  0  0
 25 27  1  0  0  0  0
 27 28  1  0  0  0  0
 28 29  1  0  0  0  0
 28 52  1  0  0  0  0
 28 53  1  0  0  0  0
 29 30  2  0  0  0  0
 29 31  1  0  0  0  0
 31 54  1  0  0  0  0
M  END
>  <DRUGBANK_ID>
DB07784

>  <COMMON_NAME>
[4-(4-ACETYLAMINO-PHENYL)-3,5-DIOXO-4-AZA-TRICYCLO[5.2.2.0 2,6]UNDEC-1-YLCARBAMOYLOXY]-ACETIC ACID

$$$$
