HMDB01062.mol
 OpenBabel10282417133D

 35 35  0  0  0  0  0  0  0  0999 V2000
    0.7257    1.3337   -0.2314 C   0  0  1  0  0  0  0  0  0  0  0  0
    1.4499    0.0581    0.2296 C   0  0  1  0  0  0  0  0  0  0  0  0
    0.6959   -1.2322   -0.1317 C   0  0  2  0  0  0  0  0  0  0  0  0
   -0.6677   -1.1985    0.2941 O   0  0  0  0  0  0  0  0  0  0  0  0
   -1.3562   -0.0580   -0.2335 C   0  0  3  0  0  0  0  0  0  0  0  0
   -0.7473    1.2952    0.2334 C   0  0  2  0  0  0  0  0  0  0  0  0
   -1.5925    2.3958   -0.2648 N   0  0  0  0  0  0  0  0  0  0  0  0
    2.7776   -0.0083   -0.3049 O   0  0  0  0  0  0  0  0  0  0  0  0
    1.5222   -2.4127    0.4217 C   0  0  0  0  0  0  0  0  0  0  0  0
    1.4593    2.4552    0.2552 O   0  0  0  0  0  0  0  0  0  0  0  0
   -1.4630   -0.1427   -1.6542 O   0  0  0  0  0  0  0  0  0  0  0  0
   -1.5685    3.6891    0.1905 C   0  0  0  0  0  0  0  0  0  0  0  0
   -2.7736    4.5059   -0.2121 C   0  0  0  0  0  0  0  0  0  0  0  0
   -0.6827    4.1487    0.9184 O   0  0  0  0  0  0  0  0  0  0  0  0
    0.9015   -3.4105    1.1820 O   0  0  0  0  0  0  0  0  0  0  0  0
    0.0050   -3.1778    2.4768 P   0  0  0  0  0  0  0  0  0  0  0  0
   -1.4403   -3.3111    1.8227 O   0  0  0  0  0  0  0  0  0  0  0  0
    0.2698   -4.5998    3.1516 O   0  0  0  0  0  0  0  0  0  0  0  0
    0.2506   -1.9717    3.3100 O   0  0  0  0  0  0  0  0  0  0  0  0
    0.7793    1.4147   -1.3221 H   0  0  0  0  0  0  0  0  0  0  0  0
    1.5497    0.1020    1.3218 H   0  0  0  0  0  0  0  0  0  0  0  0
    0.7078   -1.3472   -1.2261 H   0  0  0  0  0  0  0  0  0  0  0  0
   -2.3874   -0.1163    0.1307 H   0  0  0  0  0  0  0  0  0  0  0  0
   -0.7637    1.3451    1.3313 H   0  0  0  0  0  0  0  0  0  0  0  0
   -2.3523    2.1339   -0.8843 H   0  0  0  0  0  0  0  0  0  0  0  0
    2.7506    0.1391   -1.2654 H   0  0  0  0  0  0  0  0  0  0  0  0
    1.9135   -2.9441   -0.4548 H   0  0  0  0  0  0  0  0  0  0  0  0
    2.4135   -2.0698    0.9553 H   0  0  0  0  0  0  0  0  0  0  0  0
    1.3012    2.5505    1.2127 H   0  0  0  0  0  0  0  0  0  0  0  0
   -0.6140    0.0899   -2.0621 H   0  0  0  0  0  0  0  0  0  0  0  0
   -3.2719    4.8644    0.6948 H   0  0  0  0  0  0  0  0  0  0  0  0
   -2.4745    5.3587   -0.8260 H   0  0  0  0  0  0  0  0  0  0  0  0
   -3.5006    3.9091   -0.7724 H   0  0  0  0  0  0  0  0  0  0  0  0
   -1.5786   -2.5184    1.2662 H   0  0  0  0  0  0  0  0  0  0  0  0
    1.1413   -4.9221    2.8538 H   0  0  0  0  0  0  0  0  0  0  0  0
  1  2  1  0  0  0  0
  1 10  1  0  0  0  0
  1 20  1  6  0  0  0
  2  3  1  0  0  0  0
  2  8  1  0  0  0  0
  2 21  1  1  0  0  0
  3  4  1  0  0  0  0
  3 22  1  6  0  0  0
  3  9  1  0  0  0  0
  4  5  1  0  0  0  0
  5  6  1  0  0  0  0
  5 11  1  0  0  0  0
  5 23  1  0  0  0  0
  6  1  1  0  0  0  0
  6 24  1  1  0  0  0
  6  7  1  0  0  0  0
  7 12  1  0  0  0  0
  7 25  1  0  0  0  0
  8 26  1  0  0  0  0
  9 15  1  0  0  0  0
  9 27  1  0  0  0  0
  9 28  1  0  0  0  0
 10 29  1  0  0  0  0
 11 30  1  0  0  0  0
 12 13  1  0  0  0  0
 12 14  2  0  0  0  0
 13 31  1  0  0  0  0
 13 32  1  0  0  0  0
 13 33  1  0  0  0  0
 15 16  1  0  0  0  0
 16 17  1  0  0  0  0
 16 18  1  0  0  0  0
 16 19  2  0  0  0  0
 17 34  1  0  0  0  0
 18 35  1  0  0  0  0
M  END
>  <DRUGBANK_ID>
DB03951

>  <SECONDARY_ACCESSION_NUMBERS>
EXPT00050

>  <COMMON_NAME>
N-acetyl-D-glucosamine-6-phosphate

>  <SYNONYMS>
2-acetamido-2-deoxy-6-O-phosphono-D-glucopyranose

$$$$
