HST
 OpenBabel10282417143D

 45 45  0  0  0  0  0  0  0  0999 V2000
    1.1054    1.1132   -0.0666 N   0  0  0  0  0  0  0  0  0  0  0  0
   -0.1327    1.6600   -0.0949 N   0  0  0  0  0  0  0  0  0  0  0  0
   -1.0022    0.6870   -0.1029 N   0  0  0  0  0  0  0  0  0  0  0  0
    1.1296   -0.2389   -0.0611 C   0  0  0  0  0  0  0  0  0  0  0  0
   -0.2501   -0.3891   -0.0117 C   0  0  0  0  0  0  0  0  0  0  0  0
   -0.8791   -1.5896    0.1865 C   0  0  0  0  0  0  0  0  0  0  0  0
   -1.7629   -1.8503    0.9164 O   0  0  0  0  0  0  0  0  0  0  0  0
    0.0682   -2.2625   -0.4579 O   0  0  0  0  0  0  0  0  0  0  0  0
    2.6503   -1.2077    0.0964 S   0  0  0  0  0  0  0  0  0  0  0  0
   -1.8593   -5.6817    1.3195 C   0  0  0  0  0  0  0  0  0  0  0  0
   -1.1701   -5.5327    0.0142 C   0  0  0  0  0  0  0  0  0  0  0  0
   -1.0200   -4.0987    0.0606 C   0  0  0  0  0  0  0  0  0  0  0  0
    0.0737   -3.6000    1.5134 C   0  0  0  0  0  0  0  0  0  0  0  0
    1.6387   -3.8611    1.3155 C   0  0  0  0  0  0  0  0  0  0  0  0
    2.4053   -3.1761   -0.0135 C   0  0  0  0  0  0  0  0  0  0  0  0
    1.8366   -3.6134   -1.4581 C   0  0  0  0  0  0  0  0  0  0  0  0
    2.5764   -3.2188   -2.6982 C   0  0  0  0  0  0  0  0  0  0  0  0
    3.8205   -4.0425   -2.7294 C   0  0  0  0  0  0  0  0  0  0  0  0
    3.4863   -5.5428   -2.6912 C   0  0  0  0  0  0  0  0  0  0  0  0
    2.5891   -5.9384   -3.8579 C   0  0  0  0  0  0  0  0  0  0  0  0
    1.8744    1.7360    0.0317 H   0  0  0  0  0  0  0  0  0  0  0  0
    0.4342   -3.0979   -0.1814 H   0  0  0  0  0  0  0  0  0  0  0  0
   -2.7207   -4.9939    1.3813 H   0  0  0  0  0  0  0  0  0  0  0  0
   -2.1097   -6.7088    1.4667 H   0  0  0  0  0  0  0  0  0  0  0  0
   -1.1971   -5.3961    2.1362 H   0  0  0  0  0  0  0  0  0  0  0  0
   -1.7431   -5.7450   -0.9005 H   0  0  0  0  0  0  0  0  0  0  0  0
   -0.1542   -5.9195   -0.0803 H   0  0  0  0  0  0  0  0  0  0  0  0
   -1.9806   -3.5608   -0.1504 H   0  0  0  0  0  0  0  0  0  0  0  0
   -0.6445   -3.9775   -0.9837 H   0  0  0  0  0  0  0  0  0  0  0  0
   -0.4242   -3.7659    2.4862 H   0  0  0  0  0  0  0  0  0  0  0  0
    0.2020   -2.5201    1.7461 H   0  0  0  0  0  0  0  0  0  0  0  0
    1.7784   -4.9464    1.3344 H   0  0  0  0  0  0  0  0  0  0  0  0
    2.1825   -3.4789    2.2070 H   0  0  0  0  0  0  0  0  0  0  0  0
    3.4257   -3.6089    0.0552 H   0  0  0  0  0  0  0  0  0  0  0  0
    1.5040   -4.6576   -1.4219 H   0  0  0  0  0  0  0  0  0  0  0  0
    0.9436   -3.1217   -1.8188 H   0  0  0  0  0  0  0  0  0  0  0  0
    1.9220   -3.4115   -3.5679 H   0  0  0  0  0  0  0  0  0  0  0  0
    2.7298   -2.1359   -2.7194 H   0  0  0  0  0  0  0  0  0  0  0  0
    4.3812   -3.7754   -3.6241 H   0  0  0  0  0  0  0  0  0  0  0  0
    4.4244   -3.7737   -1.8587 H   0  0  0  0  0  0  0  0  0  0  0  0
    4.4193   -6.1042   -2.7025 H   0  0  0  0  0  0  0  0  0  0  0  0
    2.9971   -5.8433   -1.7537 H   0  0  0  0  0  0  0  0  0  0  0  0
    3.0660   -5.6447   -4.7961 H   0  0  0  0  0  0  0  0  0  0  0  0
    2.4075   -7.0140   -3.8588 H   0  0  0  0  0  0  0  0  0  0  0  0
    1.6024   -5.4595   -3.8190 H   0  0  0  0  0  0  0  0  0  0  0  0
  1  2  1  0  0  0  0
  1  4  1  0  0  0  0
  1 21  1  0  0  0  0
  2  3  2  0  0  0  0
  3  5  1  0  0  0  0
  4  5  2  0  0  0  0
  4  9  1  0  0  0  0
  5  6  1  0  0  0  0
  6  7  2  0  0  0  0
  6  8  1  0  0  0  0
  8 22  1  0  0  0  0
  9 15  1  0  0  0  0
 10 11  1  0  0  0  0
 10 23  1  0  0  0  0
 10 24  1  0  0  0  0
 10 25  1  0  0  0  0
 11 12  1  0  0  0  0
 11 26  1  0  0  0  0
 11 27  1  0  0  0  0
 12 13  1  0  0  0  0
 12 28  1  0  0  0  0
 12 29  1  0  0  0  0
 13 14  1  0  0  0  0
 13 30  1  0  0  0  0
 13 31  1  0  0  0  0
 14 15  1  0  0  0  0
 14 32  1  0  0  0  0
 14 33  1  0  0  0  0
 15 16  1  0  0  0  0
 15 34  1  0  0  0  0
 16 17  1  0  0  0  0
 16 35  1  0  0  0  0
 16 36  1  0  0  0  0
 17 18  1  0  0  0  0
 17 37  1  0  0  0  0
 17 38  1  0  0  0  0
 18 19  1  0  0  0  0
 18 39  1  0  0  0  0
 18 40  1  0  0  0  0
 19 20  1  0  0  0  0
 19 41  1  0  0  0  0
 19 42  1  0  0  0  0
 20 43  1  0  0  0  0
 20 44  1  0  0  0  0
 20 45  1  0  0  0  0
M  END
>  <DRUGBANK_ID>
DB04374

>  <SECONDARY_ACCESSION_NUMBERS>
EXPT01787

>  <COMMON_NAME>
4-Carboxy-5-(1-Pentyl)Hexylsulfanyl-1,2,3-Triazole

>  <UNII>
QUK2CK0JPA

$$$$
