
 OpenBabel10282417193D

 72 76  0  0  1  0  0  0  0  0999 V2000
   -2.3119   -8.8381   -0.7775 C   0  0  0  0  0  0  0  0  0  0  0  0
   -3.2964   -8.3384   -2.1198 C   0  0  0  0  0  0  0  0  0  0  0  0
   -4.5392   -7.7949   -1.5138 C   0  0  0  0  0  0  0  0  0  0  0  0
   -4.2131   -6.4549   -0.8588 C   0  0  2  0  0  0  0  0  0  0  0  0
   -5.2043   -5.4403   -1.3168 N   0  0  0  0  0  0  0  0  0  0  0  0
   -4.4977   -4.2884   -1.9404 C   0  0  2  0  0  0  0  0  0  0  0  0
   -2.9644   -4.6972   -2.0890 C   0  0  1  0  0  0  0  0  0  0  0  0
   -2.6360   -5.8652   -1.1250 C   0  0  2  0  0  0  0  0  0  0  0  0
   -1.2511   -6.9248   -1.7403 C   0  0  0  0  0  0  0  0  0  0  0  0
   -1.0159   -7.7938   -2.5831 O   0  0  0  0  0  0  0  0  0  0  0  0
   -0.0808   -6.8611   -1.1712 N   0  0  0  0  0  0  0  0  0  0  0  0
   -0.1546   -6.0616   -0.1496 C   0  0  0  0  0  0  0  0  0  0  0  0
   -1.7650   -5.0851    0.0031 C   0  0  0  0  0  0  0  0  0  0  0  0
   -1.9442   -4.0899    1.6842 C   0  0  0  0  0  0  0  0  0  0  0  0
   -0.8688   -4.4388    3.1344 C   0  0  0  0  0  0  0  0  0  0  0  0
    0.6138   -5.4291    2.8170 C   0  0  0  0  0  0  0  0  0  0  0  0
    1.0132   -6.1364    1.1927 C   0  0  0  0  0  0  0  0  0  0  0  0
    1.6831   -5.6895    4.1079 Cl  0  0  0  0  0  0  0  0  0  0  0  0
   -2.3310   -4.3905   -3.3949 C   0  0  0  0  0  0  0  0  0  0  0  0
   -2.6261   -3.3026   -4.1485 C   0  0  0  0  0  0  0  0  0  0  0  0
   -2.0806   -3.3018   -5.4102 C   0  0  0  0  0  0  0  0  0  0  0  0
   -1.5745   -4.4965   -5.9298 C   0  0  0  0  0  0  0  0  0  0  0  0
   -1.3832   -5.5333   -5.0893 C   0  0  0  0  0  0  0  0  0  0  0  0
   -1.2437   -5.1060   -3.8236 C   0  0  0  0  0  0  0  0  0  0  0  0
   -1.9576   -1.8689   -6.2997 Cl  0  0  0  0  0  0  0  0  0  0  0  0
   -3.3275   -2.2887   -3.6251 F   0  0  0  0  0  0  0  0  0  0  0  0
   -4.9580   -2.8036   -1.2248 C   0  0  0  0  0  0  0  0  0  0  0  0
   -6.1139   -2.3945   -1.1655 O   0  0  0  0  0  0  0  0  0  0  0  0
   -3.9221   -2.0757   -0.5911 N   0  0  0  0  0  0  0  0  0  0  0  0
   -2.9001   -2.9482   -0.2318 C   0  0  1  0  0  0  0  0  0  0  0  0
   -1.2562   -2.6986   -0.1273 C   0  0  0  0  0  0  0  0  0  0  0  0
   -0.2016   -4.0495    0.1961 C   0  0  0  0  0  0  0  0  0  0  0  0
   -0.9781   -5.5860    1.4830 C   0  0  1  0  0  0  0  0  0  0  0  0
   -2.9304   -5.8238    1.4924 C   0  0  0  0  0  0  0  0  0  0  0  0
   -3.8181   -4.2754    0.7022 C   0  0  0  0  0  0  0  0  0  0  0  0
   -0.8644   -6.9668    1.9222 O   0  0  0  0  0  0  0  0  0  0  0  0
   -3.1036   -7.3087   -3.3811 C   0  0  0  0  0  0  0  0  0  0  0  0
   -3.2720   -9.5220   -2.9992 C   0  0  0  0  0  0  0  0  0  0  0  0
   -2.1177   -8.0517   -0.0502 H   0  0  0  0  0  0  0  0  0  0  0  0
   -1.3011   -9.2018   -1.0401 H   0  0  0  0  0  0  0  0  0  0  0  0
   -2.7076   -9.6237   -0.1332 H   0  0  0  0  0  0  0  0  0  0  0  0
   -5.2609   -7.6273   -2.3116 H   0  0  0  0  0  0  0  0  0  0  0  0
   -4.9456   -8.5074   -0.7911 H   0  0  0  0  0  0  0  0  0  0  0  0
   -4.5384   -6.6349    0.1877 H   0  0  0  0  0  0  0  0  0  0  0  0
   -5.9163   -5.8252   -1.9337 H   0  0  0  0  0  0  0  0  0  0  0  0
   -4.9215   -4.2325   -2.9408 H   0  0  0  0  0  0  0  0  0  0  0  0
   -2.1290   -4.1457   -1.7490 H   0  0  0  0  0  0  0  0  0  0  0  0
    0.4883   -7.6581   -1.4240 H   0  0  0  0  0  0  0  0  0  0  0  0
   -2.8807   -3.9972    2.3800 H   0  0  0  0  0  0  0  0  0  0  0  0
   -1.2135   -4.0857    4.0973 H   0  0  0  0  0  0  0  0  0  0  0  0
    1.6247   -7.0551    1.1386 H   0  0  0  0  0  0  0  0  0  0  0  0
   -1.2164   -4.6495   -6.9289 H   0  0  0  0  0  0  0  0  0  0  0  0
   -1.2642   -6.5636   -5.4053 H   0  0  0  0  0  0  0  0  0  0  0  0
   -0.6058   -5.6354   -3.1584 H   0  0  0  0  0  0  0  0  0  0  0  0
   -3.8913   -1.0851   -0.4053 H   0  0  0  0  0  0  0  0  0  0  0  0
   -2.8059   -2.8765   -1.3120 H   0  0  0  0  0  0  0  0  0  0  0  0
   -1.0819   -2.0272    0.6869 H   0  0  0  0  0  0  0  0  0  0  0  0
   -0.9101   -2.2847   -1.1044 H   0  0  0  0  0  0  0  0  0  0  0  0
    0.8622   -3.7361    0.2893 H   0  0  0  0  0  0  0  0  0  0  0  0
   -0.0718   -4.3063   -0.9800 H   0  0  0  0  0  0  0  0  0  0  0  0
   -0.1735   -4.4521    1.6091 H   0  0  0  0  0  0  0  0  0  0  0  0
   -2.9626   -6.7554    0.9185 H   0  0  0  0  0  0  0  0  0  0  0  0
   -3.2319   -6.1474    2.4851 H   0  0  0  0  0  0  0  0  0  0  0  0
   -4.1339   -3.5243    1.4490 H   0  0  0  0  0  0  0  0  0  0  0  0
   -4.8539   -4.5196    0.5077 H   0  0  0  0  0  0  0  0  0  0  0  0
   -0.6704   -7.5734    1.1938 H   0  0  0  0  0  0  0  0  0  0  0  0
   -2.2181   -7.4612   -3.9824 H   0  0  0  0  0  0  0  0  0  0  0  0
   -3.8694   -6.9203   -4.0586 H   0  0  0  0  0  0  0  0  0  0  0  0
   -2.9108   -6.3927   -2.9730 H   0  0  0  0  0  0  0  0  0  0  0  0
   -2.2390   -9.6476   -3.3646 H   0  0  0  0  0  0  0  0  0  0  0  0
   -3.5701  -10.3764   -2.4257 H   0  0  0  0  0  0  0  0  0  0  0  0
   -3.8955   -9.2931   -3.8645 H   0  0  0  0  0  0  0  0  0  0  0  0
  1  2  1  0  0  0  0
  1 39  1  0  0  0  0
  1 40  1  0  0  0  0
  1 41  1  0  0  0  0
  2  3  1  0  0  0  0
  2 37  1  0  0  0  0
  2 38  1  0  0  0  0
  3 42  1  0  0  0  0
  3 43  1  0  0  0  0
  4  3  1  0  0  0  0
  4  5  1  0  0  0  0
  4  8  1  0  0  0  0
  4 44  1  1  0  0  0
  5  6  1  0  0  0  0
  5 45  1  0  0  0  0
  6  7  1  0  0  0  0
  6 46  1  6  0  0  0
  6 27  1  0  0  0  0
  7  8  1  0  0  0  0
  7 19  1  0  0  0  0
  7 47  1  1  0  0  0
  8  9  1  6  0  0  0
  8 13  1  0  0  0  0
  9 10  2  0  0  0  0
  9 11  1  0  0  0  0
 11 12  1  0  0  0  0
 11 48  1  0  0  0  0
 12 13  2  0  0  0  0
 12 17  1  0  0  0  0
 13 14  1  0  0  0  0
 14 15  2  0  0  0  0
 14 49  1  0  0  0  0
 15 16  1  0  0  0  0
 15 50  1  0  0  0  0
 16 17  2  0  0  0  0
 16 18  1  0  0  0  0
 17 51  1  0  0  0  0
 19 20  2  0  0  0  0
 19 24  1  0  0  0  0
 20 21  1  0  0  0  0
 20 26  1  0  0  0  0
 21 22  2  0  0  0  0
 21 25  1  0  0  0  0
 22 23  1  0  0  0  0
 22 52  1  0  0  0  0
 23 24  2  0  0  0  0
 23 53  1  0  0  0  0
 24 54  1  0  0  0  0
 27 28  2  0  0  0  0
 27 29  1  0  0  0  0
 29 55  1  0  0  0  0
 30 31  1  0  0  0  0
 30 35  1  0  0  0  0
 30 56  1  6  0  0  0
 30 29  1  0  0  0  0
 31 32  1  0  0  0  0
 31 57  1  0  0  0  0
 31 58  1  0  0  0  0
 32 33  1  0  0  0  0
 32 59  1  0  0  0  0
 32 60  1  0  0  0  0
 33 34  1  0  0  0  0
 33 36  1  0  0  0  0
 33 61  1  1  0  0  0
 34 35  1  0  0  0  0
 34 62  1  0  0  0  0
 34 63  1  0  0  0  0
 35 64  1  0  0  0  0
 35 65  1  0  0  0  0
 36 66  1  0  0  0  0
 37 67  1  0  0  0  0
 37 68  1  0  0  0  0
 37 69  1  0  0  0  0
 38 70  1  0  0  0  0
 38 71  1  0  0  0  0
 38 72  1  0  0  0  0
M  END
>  <DRUGBANK_ID>
DB12541

>  <COMMON_NAME>
SAR-405838

>  <CAS_NUMBER>
1303607-60-4

>  <UNII>
8570LZ3RCA

$$$$
