
 OpenBabel10282417143D

112113  0  0  0  0  0  0  0  0999 V2000
    0.9922    0.8163   -0.5571 O   0  0  0  0  0  0  0  0  0  0  0  0
   -1.3614    3.8992  -12.8736 O   0  0  0  0  0  0  0  0  0  0  0  0
    3.5894   -1.1355   -5.8798 O   0  0  0  0  0  0  0  0  0  0  0  0
    1.8508   -2.9323    3.2549 O   0  0  0  0  0  0  0  0  0  0  0  0
   -0.9749   -3.3651   -1.4918 O   0  0  0  0  0  0  0  0  0  0  0  0
   -1.6570   -0.8916   -4.5465 O   0  0  0  0  0  0  0  0  0  0  0  0
    1.4635   -4.0240   -1.1481 O   0  0  0  0  0  0  0  0  0  0  0  0
   -1.4334   -1.4836   -6.7754 O   0  0  0  0  0  0  0  0  0  0  0  0
   -0.4519   -6.9839   -3.1973 O   0  0  0  0  0  0  0  0  0  0  0  0
    1.0855   -1.2144   -2.9811 O   0  0  0  0  0  0  0  0  0  0  0  0
    1.4548    0.8261   -3.0069 N   0  0  0  0  0  0  0  0  0  0  0  0
    2.4308   -1.4603    1.4898 N   0  0  0  0  0  0  0  0  0  0  0  0
    1.5004   -1.9408   -6.0465 N   0  0  0  0  0  0  0  0  0  0  0  0
    0.5568   -1.8372   -0.7569 N   0  0  0  0  0  0  0  0  0  0  0  0
    0.1811   -4.9115   -2.7414 N   0  0  0  0  0  0  0  0  0  0  0  0
    2.9313   -0.8843   -0.1425 C   0  0  1  0  0  0  0  0  0  0  0  0
    0.6987    0.3817   -4.8269 C   0  0  2  0  0  0  0  0  0  0  0  0
    3.3941   -2.2337   -0.6543 C   0  0  0  0  0  0  0  0  0  0  0  0
    1.9476    0.4793   -5.5819 C   0  0  1  0  0  0  0  0  0  0  0  0
    1.8394    0.3085   -1.3677 C   0  0  0  0  0  0  0  0  0  0  0  0
    1.3663   -3.7177    1.1369 C   0  0  2  0  0  0  0  0  0  0  0  0
   -0.4111    0.9144   -6.3568 C   0  0  0  0  0  0  0  0  0  0  0  0
    3.7362   -1.9971   -2.0375 C   0  0  0  0  0  0  0  0  0  0  0  0
    4.0669   -3.5099   -0.1371 C   0  0  0  0  0  0  0  0  0  0  0  0
    2.3629   -0.8911   -5.8632 C   0  0  0  0  0  0  0  0  0  0  0  0
    1.9351   -2.6950    2.0470 C   0  0  0  0  0  0  0  0  0  0  0  0
    0.3418   -2.8237    0.3696 C   0  0  2  0  0  0  0  0  0  0  0  0
    2.3506    1.2645   -6.7813 C   0  0  0  0  0  0  0  0  0  0  0  0
   -2.7674    2.9026  -11.0512 C   0  0  2  0  0  0  0  0  0  0  0  0
   -2.1213    4.2108  -11.6894 C   0  0  2  0  0  0  0  0  0  0  0  0
   -0.0501   -2.5756   -5.2994 C   0  0  2  0  0  0  0  0  0  0  0  0
   -0.6288   -4.1672   -5.6347 C   0  0  0  0  0  0  0  0  0  0  0  0
   -0.5711    0.8437   -7.9123 C   0  0  0  0  0  0  0  0  0  0  0  0
    0.9228   -5.0947    1.7149 C   0  0  0  0  0  0  0  0  0  0  0  0
   -3.1739    5.3189  -12.1066 C   0  0  0  0  0  0  0  0  0  0  0  0
   -1.8663    1.8020  -10.2472 C   0  0  0  0  0  0  0  0  0  0  0  0
   -1.7185    1.6412   -8.8743 C   0  0  0  0  0  0  0  0  0  0  0  0
   -3.8373    2.3798  -12.0363 C   0  0  0  0  0  0  0  0  0  0  0  0
    0.0118   -5.6693   -5.1312 C   0  0  0  0  0  0  0  0  0  0  0  0
    0.3441   -3.5646   -0.7734 C   0  0  0  0  0  0  0  0  0  0  0  0
   -3.9739    5.8741  -10.9441 C   0  0  0  0  0  0  0  0  0  0  0  0
   -1.1595   -1.6445   -5.5997 C   0  0  0  0  0  0  0  0  0  0  0  0
   -2.7215    2.3375   -8.0367 C   0  0  0  0  0  0  0  0  0  0  0  0
   -0.1177   -5.8895   -3.6482 C   0  0  0  0  0  0  0  0  0  0  0  0
    0.8481   -2.0542   -2.2412 C   0  0  0  0  0  0  0  0  0  0  0  0
    0.9991   -3.5510   -3.0502 C   0  0  0  0  0  0  0  0  0  0  0  0
   -4.6831    5.0384  -10.0729 C   0  0  0  0  0  0  0  0  0  0  0  0
   -3.9643    7.2292  -10.6449 C   0  0  0  0  0  0  0  0  0  0  0  0
   -0.3838    2.9149  -12.5882 C   0  0  0  0  0  0  0  0  0  0  0  0
   -0.0484   -5.6128   -1.1793 C   0  0  0  0  0  0  0  0  0  0  0  0
    1.9776   -3.3309   -4.0060 C   0  0  0  0  0  0  0  0  0  0  0  0
   -5.0911    5.4344   -8.8127 C   0  0  0  0  0  0  0  0  0  0  0  0
   -4.4182    7.6580   -9.3936 C   0  0  0  0  0  0  0  0  0  0  0  0
   -4.9948    6.7667   -8.4867 C   0  0  0  0  0  0  0  0  0  0  0  0
    2.0486   -4.1036   -5.2669 C   0  0  0  0  0  0  0  0  0  0  0  0
    1.7096    1.7809   -2.9305 H   0  0  0  0  0  0  0  0  0  0  0  0
    2.7785   -0.9303    2.2945 H   0  0  0  0  0  0  0  0  0  0  0  0
    2.3762   -2.4970   -5.9878 H   0  0  0  0  0  0  0  0  0  0  0  0
    0.7841   -0.9723   -0.2894 H   0  0  0  0  0  0  0  0  0  0  0  0
   -1.6852   -4.0160   -1.3052 H   0  0  0  0  0  0  0  0  0  0  0  0
   -1.3170   -0.9807   -3.6149 H   0  0  0  0  0  0  0  0  0  0  0  0
    3.9091   -0.4613    0.1577 H   0  0  0  0  0  0  0  0  0  0  0  0
    0.4921   -0.6224   -4.9054 H   0  0  0  0  0  0  0  0  0  0  0  0
    2.4428   -2.6067   -0.5724 H   0  0  0  0  0  0  0  0  0  0  0  0
    1.2684    1.2875   -5.5602 H   0  0  0  0  0  0  0  0  0  0  0  0
    2.1687   -4.2136    0.6040 H   0  0  0  0  0  0  0  0  0  0  0  0
   -1.4617    1.0401   -6.0853 H   0  0  0  0  0  0  0  0  0  0  0  0
    4.7597   -1.7488   -2.1921 H   0  0  0  0  0  0  0  0  0  0  0  0
    3.4528   -2.8819   -2.5630 H   0  0  0  0  0  0  0  0  0  0  0  0
    3.1800   -1.1287   -2.3285 H   0  0  0  0  0  0  0  0  0  0  0  0
    3.9029   -3.7514    0.9183 H   0  0  0  0  0  0  0  0  0  0  0  0
    3.6778   -4.3902   -0.7137 H   0  0  0  0  0  0  0  0  0  0  0  0
    5.1199   -3.4727   -0.3178 H   0  0  0  0  0  0  0  0  0  0  0  0
   -0.6483   -2.7629    0.7588 H   0  0  0  0  0  0  0  0  0  0  0  0
    2.6729    0.6880   -7.6481 H   0  0  0  0  0  0  0  0  0  0  0  0
    1.5935    1.9873   -7.1389 H   0  0  0  0  0  0  0  0  0  0  0  0
    3.1030    1.7976   -6.2203 H   0  0  0  0  0  0  0  0  0  0  0  0
   -3.2860    3.3242  -10.2333 H   0  0  0  0  0  0  0  0  0  0  0  0
   -1.4473    4.6748  -10.9566 H   0  0  0  0  0  0  0  0  0  0  0  0
   -0.2033   -2.4667   -4.2275 H   0  0  0  0  0  0  0  0  0  0  0  0
   -0.6374   -4.1783   -6.7227 H   0  0  0  0  0  0  0  0  0  0  0  0
   -1.6791   -4.1807   -5.2872 H   0  0  0  0  0  0  0  0  0  0  0  0
    0.0116    0.3136   -8.7237 H   0  0  0  0  0  0  0  0  0  0  0  0
    1.7599   -5.6150    2.2065 H   0  0  0  0  0  0  0  0  0  0  0  0
    0.0392   -4.9684    2.3130 H   0  0  0  0  0  0  0  0  0  0  0  0
    0.6686   -5.8888    1.0047 H   0  0  0  0  0  0  0  0  0  0  0  0
   -2.6212    6.1385  -12.5951 H   0  0  0  0  0  0  0  0  0  0  0  0
   -3.8518    4.9662  -12.8913 H   0  0  0  0  0  0  0  0  0  0  0  0
   -1.3243    1.1465  -10.9132 H   0  0  0  0  0  0  0  0  0  0  0  0
   -4.4288    1.5841  -11.5889 H   0  0  0  0  0  0  0  0  0  0  0  0
   -4.5756    3.1455  -12.3362 H   0  0  0  0  0  0  0  0  0  0  0  0
   -3.3719    2.0475  -12.9652 H   0  0  0  0  0  0  0  0  0  0  0  0
    1.1054   -5.9805   -5.1385 H   0  0  0  0  0  0  0  0  0  0  0  0
   -0.0985   -6.4105   -5.9174 H   0  0  0  0  0  0  0  0  0  0  0  0
   -3.3844    1.5787   -7.6216 H   0  0  0  0  0  0  0  0  0  0  0  0
   -2.1689    2.9243   -7.3181 H   0  0  0  0  0  0  0  0  0  0  0  0
   -3.3928    3.0364   -8.5228 H   0  0  0  0  0  0  0  0  0  0  0  0
   -4.9147    4.0139  -10.3248 H   0  0  0  0  0  0  0  0  0  0  0  0
   -3.6072    7.9520  -11.3740 H   0  0  0  0  0  0  0  0  0  0  0  0
    0.2269    3.2116  -11.7262 H   0  0  0  0  0  0  0  0  0  0  0  0
   -0.9013    1.9831  -12.4284 H   0  0  0  0  0  0  0  0  0  0  0  0
    0.2233    2.6605  -13.4509 H   0  0  0  0  0  0  0  0  0  0  0  0
    0.9531   -5.7338   -0.7454 H   0  0  0  0  0  0  0  0  0  0  0  0
   -0.6729   -5.0644   -0.3784 H   0  0  0  0  0  0  0  0  0  0  0  0
   -0.5167   -6.5582   -1.0881 H   0  0  0  0  0  0  0  0  0  0  0  0
    2.4523   -2.3421   -4.0429 H   0  0  0  0  0  0  0  0  0  0  0  0
   -5.4675    4.6893   -8.1175 H   0  0  0  0  0  0  0  0  0  0  0  0
   -4.2881    8.6926   -9.1001 H   0  0  0  0  0  0  0  0  0  0  0  0
   -5.4116    7.1135   -7.5493 H   0  0  0  0  0  0  0  0  0  0  0  0
    1.4089   -3.9167   -6.1697 H   0  0  0  0  0  0  0  0  0  0  0  0
    2.7986   -4.6863   -5.7330 H   0  0  0  0  0  0  0  0  0  0  0  0
    1.3427   -4.5611   -4.7157 H   0  0  0  0  0  0  0  0  0  0  0  0
  1 20  2  0  0  0  0
  2 49  1  0  0  0  0
  3 25  2  0  0  0  0
  4 26  2  0  0  0  0
  5 40  1  0  0  0  0
  5 60  1  0  0  0  0
  6 42  1  0  0  0  0
  6 61  1  0  0  0  0
  7 40  2  0  0  0  0
  8 42  2  0  0  0  0
  9 44  2  0  0  0  0
 10 45  2  0  0  0  0
 11 17  1  0  0  0  0
 11 20  1  0  0  0  0
 11 56  1  0  0  0  0
 12 16  1  0  0  0  0
 12 26  1  0  0  0  0
 12 57  1  0  0  0  0
 13 25  1  0  0  0  0
 13 31  1  0  0  0  0
 13 58  1  0  0  0  0
 14 27  1  0  0  0  0
 14 45  1  0  0  0  0
 14 59  1  0  0  0  0
 15 44  1  0  0  0  0
 15 46  1  0  0  0  0
 15 50  1  0  0  0  0
 16 18  1  0  0  0  0
 16 20  1  0  0  0  0
 16 62  1  1  0  0  0
 17 19  1  0  0  0  0
 17 22  1  0  0  0  0
 17 63  1  1  0  0  0
 18 23  1  0  0  0  0
 18 24  1  0  0  0  0
 18 64  1  0  0  0  0
 19 25  1  0  0  0  0
 19 65  1  1  0  0  0
 19 28  1  0  0  0  0
 21 26  1  0  0  0  0
 21 27  1  0  0  0  0
 21 66  1  6  0  0  0
 21 34  1  0  0  0  0
 22 33  2  0  0  0  0
 22 67  1  0  0  0  0
 23 68  1  0  0  0  0
 23 69  1  0  0  0  0
 23 70  1  0  0  0  0
 24 71  1  0  0  0  0
 24 72  1  0  0  0  0
 24 73  1  0  0  0  0
 27 40  1  0  0  0  0
 27 74  1  1  0  0  0
 28 75  1  0  0  0  0
 28 76  1  0  0  0  0
 28 77  1  0  0  0  0
 29 30  1  0  0  0  0
 29 36  1  0  0  0  0
 29 38  1  0  0  0  0
 29 78  1  1  0  0  0
 30  2  1  0  0  0  0
 30 35  1  0  0  0  0
 30 79  1  1  0  0  0
 31 32  1  0  0  0  0
 31 42  1  0  0  0  0
 31 80  1  1  0  0  0
 32 39  1  0  0  0  0
 32 81  1  0  0  0  0
 32 82  1  0  0  0  0
 33 37  1  0  0  0  0
 33 83  1  0  0  0  0
 34 84  1  0  0  0  0
 34 85  1  0  0  0  0
 34 86  1  0  0  0  0
 35 41  1  0  0  0  0
 35 87  1  0  0  0  0
 35 88  1  0  0  0  0
 36 37  2  0  0  0  0
 36 89  1  0  0  0  0
 37 43  1  0  0  0  0
 38 90  1  0  0  0  0
 38 91  1  0  0  0  0
 38 92  1  0  0  0  0
 39 44  1  0  0  0  0
 39 93  1  0  0  0  0
 39 94  1  0  0  0  0
 41 47  2  0  0  0  0
 41 48  1  0  0  0  0
 43 95  1  0  0  0  0
 43 96  1  0  0  0  0
 43 97  1  0  0  0  0
 45 46  1  0  0  0  0
 46 51  2  0  0  0  0
 47 52  1  0  0  0  0
 47 98  1  0  0  0  0
 48 53  2  0  0  0  0
 48 99  1  0  0  0  0
 49100  1  0  0  0  0
 49101  1  0  0  0  0
 49102  1  0  0  0  0
 50103  1  0  0  0  0
 50104  1  0  0  0  0
 50105  1  0  0  0  0
 51 55  1  0  0  0  0
 51106  1  0  0  0  0
 52 54  2  0  0  0  0
 52107  1  0  0  0  0
 53 54  1  0  0  0  0
 53108  1  0  0  0  0
 54109  1  0  0  0  0
 55110  1  0  0  0  0
 55111  1  0  0  0  0
 55112  1  0  0  0  0
M  END
>  <DRUGBANK_ID>
DB04738

>  <COMMON_NAME>
Motuporin

>  <CAS_NUMBER>
141672-08-4

>  <SYNONYMS>
(-)-Motuporin; Nodularin V

$$$$
