
 OpenBabel10282417143D

 98100  0  0  0  0  0  0  0  0999 V2000
    0.7995   -0.1827    0.0106 C   0  0  2  0  0  0  0  0  0  0  0  0
    0.4300    1.2626   -0.3787 C   0  0  0  0  0  0  0  0  0  0  0  0
    1.0055    1.7880   -1.6837 C   0  0  0  0  0  0  0  0  0  0  0  0
    0.7702    3.1078   -2.0714 C   0  0  0  0  0  0  0  0  0  0  0  0
    1.2412    3.5736   -3.3067 C   0  0  0  0  0  0  0  0  0  0  0  0
    1.8929    2.7177   -4.1966 C   0  0  0  0  0  0  0  0  0  0  0  0
    2.1697    1.4235   -3.8110 C   0  0  0  0  0  0  0  0  0  0  0  0
    1.7918    1.0071   -2.5440 C   0  0  0  0  0  0  0  0  0  0  0  0
    0.2741   -1.2478   -0.9749 C   0  0  0  0  0  0  0  0  0  0  0  0
   -0.4704   -2.2844   -0.5009 N   0  0  0  0  0  0  0  0  0  0  0  0
   -0.9812   -3.2548   -1.4624 C   0  0  1  0  0  0  0  0  0  0  0  0
   -0.3987   -4.6413   -1.1656 C   0  0  0  0  0  0  0  0  0  0  0  0
   -1.3141   -5.6481   -0.9692 N   0  0  0  0  0  0  0  0  0  0  0  0
   -0.9157   -7.0134   -0.6574 C   0  0  1  0  0  0  0  0  0  0  0  0
   -1.4227   -7.3695    0.7556 C   0  0  0  0  0  0  0  0  0  0  0  0
   -2.1890   -8.5072    0.8737 N   0  0  0  0  0  0  0  0  0  0  0  0
   -2.7135   -8.9412    2.1462 C   0  0  0  0  0  0  0  0  0  0  0  0
   -4.2163   -8.9585    2.1273 C   0  0  0  0  0  0  0  0  0  0  0  0
   -4.9358   -7.7592    2.1282 C   0  0  0  0  0  0  0  0  0  0  0  0
   -6.3200   -7.8135    2.1218 C   0  0  0  0  0  0  0  0  0  0  0  0
   -7.0245   -8.9643    2.1179 N   0  0  0  0  0  0  0  0  0  0  0  0
   -6.3139  -10.1117    2.1229 C   0  0  0  0  0  0  0  0  0  0  0  0
   -4.9281  -10.1611    2.1187 C   0  0  0  0  0  0  0  0  0  0  0  0
   -1.1680   -6.6506    1.7212 O   0  0  0  0  0  0  0  0  0  0  0  0
   -1.3880   -7.9477   -1.7730 C   0  0  0  0  0  0  0  0  0  0  0  0
   -0.8344   -7.5708   -3.1462 C   0  0  0  0  0  0  0  0  0  0  0  0
    0.6906   -7.5641   -3.1920 C   0  0  0  0  0  0  0  0  0  0  0  0
    1.1992   -8.9058   -2.9951 N   0  0  0  0  0  0  0  0  0  0  0  0
    1.9882   -9.6163   -3.8241 C   0  0  0  0  0  0  0  0  0  0  0  0
    2.4463  -10.7842   -3.5404 N   0  0  0  0  0  0  0  0  0  0  0  0
    2.2611   -9.0938   -5.0243 N   0  0  0  0  0  0  0  0  0  0  0  0
    0.8133   -4.8358   -1.1293 O   0  0  0  0  0  0  0  0  0  0  0  0
   -2.4982   -3.1326   -1.5444 C   0  0  0  0  0  0  0  0  0  0  0  0
   -2.9717   -1.7357   -1.9710 C   0  0  0  0  0  0  0  0  0  0  0  0
   -2.5080   -1.3167   -3.3695 C   0  0  0  0  0  0  0  0  0  0  0  0
   -2.9678   -2.2867   -4.4425 C   0  0  0  0  0  0  0  0  0  0  0  0
    0.4859   -1.2152   -2.1961 O   0  0  0  0  0  0  0  0  0  0  0  0
    0.3683   -0.4898    1.3862 N   0  0  0  0  0  0  0  0  0  0  0  0
    1.3296   -0.7022    2.3442 C   0  0  0  0  0  0  0  0  0  0  0  0
    0.8349   -1.1659    3.7497 C   0  0  1  0  0  0  0  0  0  0  0  0
    1.4637   -2.5416    4.0841 C   0  0  0  0  0  0  0  0  0  0  0  0
    2.9800   -2.5991    4.1634 C   0  0  0  0  0  0  0  0  0  0  0  0
    3.7744   -1.4402    4.2029 C   0  0  0  0  0  0  0  0  0  0  0  0
    5.1473   -1.4482    4.3339 C   0  0  0  0  0  0  0  0  0  0  0  0
    5.7880   -2.6604    4.4244 C   0  0  0  0  0  0  0  0  0  0  0  0
    5.0433   -3.8429    4.3736 C   0  0  0  0  0  0  0  0  0  0  0  0
    3.6501   -3.8209    4.2106 C   0  0  0  0  0  0  0  0  0  0  0  0
    1.0217   -0.1454    4.8212 N   0  0  0  0  0  0  0  0  0  0  0  0
    2.5082   -0.5677    2.0296 O   0  0  0  0  0  0  0  0  0  0  0  0
    1.8939   -0.2541   -0.0461 H   0  0  0  0  0  0  0  0  0  0  0  0
   -0.6662    1.3472   -0.3994 H   0  0  0  0  0  0  0  0  0  0  0  0
    0.7757    1.9378    0.4181 H   0  0  0  0  0  0  0  0  0  0  0  0
    0.2459    3.7908   -1.4073 H   0  0  0  0  0  0  0  0  0  0  0  0
    1.1053    4.6150   -3.5777 H   0  0  0  0  0  0  0  0  0  0  0  0
    2.2199    3.0592   -5.1720 H   0  0  0  0  0  0  0  0  0  0  0  0
    2.6955    0.7249   -4.4558 H   0  0  0  0  0  0  0  0  0  0  0  0
    2.1338    0.0140   -2.2807 H   0  0  0  0  0  0  0  0  0  0  0  0
   -0.5640   -2.4271    0.4954 H   0  0  0  0  0  0  0  0  0  0  0  0
   -0.5916   -3.0586   -2.4719 H   0  0  0  0  0  0  0  0  0  0  0  0
   -2.3027   -5.4478   -0.9822 H   0  0  0  0  0  0  0  0  0  0  0  0
    0.1745   -7.0629   -0.5729 H   0  0  0  0  0  0  0  0  0  0  0  0
   -2.4462   -9.0629    0.0706 H   0  0  0  0  0  0  0  0  0  0  0  0
   -2.3149   -9.9454    2.3251 H   0  0  0  0  0  0  0  0  0  0  0  0
   -2.3604   -8.2990    2.9583 H   0  0  0  0  0  0  0  0  0  0  0  0
   -4.4269   -6.8004    2.1455 H   0  0  0  0  0  0  0  0  0  0  0  0
   -6.9163   -6.9057    2.1241 H   0  0  0  0  0  0  0  0  0  0  0  0
   -6.9067  -11.0223    2.1359 H   0  0  0  0  0  0  0  0  0  0  0  0
   -4.4244  -11.1221    2.1231 H   0  0  0  0  0  0  0  0  0  0  0  0
   -1.0894   -8.9756   -1.5382 H   0  0  0  0  0  0  0  0  0  0  0  0
   -2.4843   -7.9428   -1.8301 H   0  0  0  0  0  0  0  0  0  0  0  0
   -1.2278   -8.2748   -3.8899 H   0  0  0  0  0  0  0  0  0  0  0  0
   -1.2069   -6.5805   -3.4357 H   0  0  0  0  0  0  0  0  0  0  0  0
    0.9807   -7.1275   -4.1480 H   0  0  0  0  0  0  0  0  0  0  0  0
    1.1287   -6.9083   -2.4391 H   0  0  0  0  0  0  0  0  0  0  0  0
    1.0515   -9.2994   -2.0753 H   0  0  0  0  0  0  0  0  0  0  0  0
    2.1273  -11.0771   -2.6182 H   0  0  0  0  0  0  0  0  0  0  0  0
    2.1094   -8.1283   -5.2541 H   0  0  0  0  0  0  0  0  0  0  0  0
    2.9389   -9.5939   -5.5808 H   0  0  0  0  0  0  0  0  0  0  0  0
   -2.8895   -3.8760   -2.2468 H   0  0  0  0  0  0  0  0  0  0  0  0
   -2.9302   -3.3700   -0.5665 H   0  0  0  0  0  0  0  0  0  0  0  0
   -4.0666   -1.7230   -1.9403 H   0  0  0  0  0  0  0  0  0  0  0  0
   -2.6389   -0.9886   -1.2395 H   0  0  0  0  0  0  0  0  0  0  0  0
   -2.8819   -0.3103   -3.5872 H   0  0  0  0  0  0  0  0  0  0  0  0
   -1.4225   -1.2413   -3.4259 H   0  0  0  0  0  0  0  0  0  0  0  0
   -4.0591   -2.3435   -4.4579 H   0  0  0  0  0  0  0  0  0  0  0  0
   -2.6127   -1.9644   -5.4242 H   0  0  0  0  0  0  0  0  0  0  0  0
   -2.5704   -3.2925   -4.2753 H   0  0  0  0  0  0  0  0  0  0  0  0
   -0.6108   -0.4707    1.6294 H   0  0  0  0  0  0  0  0  0  0  0  0
   -0.2515   -1.2922    3.6944 H   0  0  0  0  0  0  0  0  0  0  0  0
    1.0654   -2.8795    5.0527 H   0  0  0  0  0  0  0  0  0  0  0  0
    1.1052   -3.2685    3.3399 H   0  0  0  0  0  0  0  0  0  0  0  0
    3.3855   -0.4511    4.0188 H   0  0  0  0  0  0  0  0  0  0  0  0
    5.6701   -0.4968    4.3293 H   0  0  0  0  0  0  0  0  0  0  0  0
    6.8681   -2.6727    4.4993 H   0  0  0  0  0  0  0  0  0  0  0  0
    5.5619   -4.7916    4.4584 H   0  0  0  0  0  0  0  0  0  0  0  0
    3.1106   -4.7594    4.0977 H   0  0  0  0  0  0  0  0  0  0  0  0
    0.7805   -0.5741    5.7178 H   0  0  0  0  0  0  0  0  0  0  0  0
    2.0108    0.0537    4.9644 H   0  0  0  0  0  0  0  0  0  0  0  0
  1  2  1  0  0  0  0
  1  9  1  0  0  0  0
  1 38  1  0  0  0  0
  1 50  1  6  0  0  0
  2  3  1  0  0  0  0
  2 51  1  0  0  0  0
  2 52  1  0  0  0  0
  3  4  2  0  0  0  0
  3  8  1  0  0  0  0
  4  5  1  0  0  0  0
  4 53  1  0  0  0  0
  5  6  2  0  0  0  0
  5 54  1  0  0  0  0
  6 55  1  0  0  0  0
  7  6  1  0  0  0  0
  7 56  1  0  0  0  0
  8  7  2  0  0  0  0
  8 57  1  0  0  0  0
  9 10  1  0  0  0  0
  9 37  2  0  0  0  0
 10 11  1  0  0  0  0
 10 58  1  0  0  0  0
 11 12  1  0  0  0  0
 11 33  1  0  0  0  0
 11 59  1  6  0  0  0
 12 13  1  0  0  0  0
 12 32  2  0  0  0  0
 13 14  1  0  0  0  0
 13 60  1  0  0  0  0
 14 15  1  0  0  0  0
 14 25  1  0  0  0  0
 14 61  1  1  0  0  0
 15 16  1  0  0  0  0
 15 24  2  0  0  0  0
 16 17  1  0  0  0  0
 16 62  1  0  0  0  0
 17 18  1  0  0  0  0
 17 63  1  0  0  0  0
 17 64  1  0  0  0  0
 18 19  1  0  0  0  0
 18 23  2  0  0  0  0
 19 20  2  0  0  0  0
 19 65  1  0  0  0  0
 20 21  1  0  0  0  0
 20 66  1  0  0  0  0
 22 21  2  0  0  0  0
 22 67  1  0  0  0  0
 23 22  1  0  0  0  0
 23 68  1  0  0  0  0
 25 26  1  0  0  0  0
 25 69  1  0  0  0  0
 25 70  1  0  0  0  0
 26 27  1  0  0  0  0
 26 71  1  0  0  0  0
 26 72  1  0  0  0  0
 27 28  1  0  0  0  0
 27 73  1  0  0  0  0
 27 74  1  0  0  0  0
 28 29  1  0  0  0  0
 28 75  1  0  0  0  0
 29 30  2  0  0  0  0
 29 31  1  0  0  0  0
 30 76  1  0  0  0  0
 31 77  1  0  0  0  0
 31 78  1  0  0  0  0
 33 34  1  0  0  0  0
 33 79  1  0  0  0  0
 33 80  1  0  0  0  0
 34 35  1  0  0  0  0
 34 81  1  0  0  0  0
 34 82  1  0  0  0  0
 35 36  1  0  0  0  0
 35 83  1  0  0  0  0
 35 84  1  0  0  0  0
 36 85  1  0  0  0  0
 36 86  1  0  0  0  0
 36 87  1  0  0  0  0
 38 39  1  0  0  0  0
 38 88  1  0  0  0  0
 39 40  1  0  0  0  0
 39 49  2  0  0  0  0
 40 41  1  0  0  0  0
 40 48  1  0  0  0  0
 40 89  1  6  0  0  0
 41 42  1  0  0  0  0
 41 90  1  0  0  0  0
 41 91  1  0  0  0  0
 42 43  2  0  0  0  0
 42 47  1  0  0  0  0
 43 44  1  0  0  0  0
 43 92  1  0  0  0  0
 44 45  2  0  0  0  0
 44 93  1  0  0  0  0
 45 94  1  0  0  0  0
 46 45  1  0  0  0  0
 46 95  1  0  0  0  0
 47 46  2  0  0  0  0
 47 96  1  0  0  0  0
 48 97  1  0  0  0  0
 48 98  1  0  0  0  0
M  END
>  <DRUGBANK_ID>
DB05155

>  <COMMON_NAME>
CR665

>  <CAS_NUMBER>
228546-92-7

>  <UNII>
3BX9UG06GG

$$$$
