
 OpenBabel10282417203D

 27 29  0  0  0  0  0  0  0  0999 V2000
   -2.5846    0.7423    0.0149 C   0  0  0  0  0  0  0  0  0  0  0  0
   -2.6048   -0.6661    0.0186 C   0  0  0  0  0  0  0  0  0  0  0  0
   -1.3739    1.4424   -0.0062 C   0  0  0  0  0  0  0  0  0  0  0  0
   -1.4144   -1.3974    0.0089 C   0  0  0  0  0  0  0  0  0  0  0  0
    3.7656    1.0175   -1.7393 C   0  0  0  0  0  0  0  0  0  0  0  0
    2.7699   -1.0887   -2.3741 C   0  0  0  0  0  0  0  0  0  0  0  0
    4.4908    1.0289   -2.9337 C   0  0  0  0  0  0  0  0  0  0  0  0
    3.5031   -1.0819   -3.5594 C   0  0  0  0  0  0  0  0  0  0  0  0
    2.8857   -0.0404   -1.4432 C   0  0  0  0  0  0  0  0  0  0  0  0
    4.3545   -0.0225   -3.8303 C   0  0  0  0  0  0  0  0  0  0  0  0
   -0.2074    0.7006   -0.0082 C   0  0  0  0  0  0  0  0  0  0  0  0
   -0.2293   -0.6847    0.0079 C   0  0  0  0  0  0  0  0  0  0  0  0
    2.1070   -0.0322   -0.1375 C   0  0  0  0  0  0  0  0  0  0  0  0
    1.1770    1.1730   -0.0208 C   0  0  0  0  0  0  0  0  0  0  0  0
    1.1373   -1.1993    0.0243 C   0  0  0  0  0  0  0  0  0  0  0  0
    5.0550   -0.0177   -4.9713 F   0  0  0  0  0  0  0  0  0  0  0  0
    1.4855    2.3480    0.0643 O   0  0  0  0  0  0  0  0  0  0  0  0
    1.4023   -2.3830    0.1315 O   0  0  0  0  0  0  0  0  0  0  0  0
   -3.5249    1.2909    0.0308 H   0  0  0  0  0  0  0  0  0  0  0  0
   -3.5593   -1.1896    0.0349 H   0  0  0  0  0  0  0  0  0  0  0  0
   -1.3494    2.5279   -0.0180 H   0  0  0  0  0  0  0  0  0  0  0  0
   -1.4180   -2.4833    0.0044 H   0  0  0  0  0  0  0  0  0  0  0  0
    3.8884    1.8487   -1.0447 H   0  0  0  0  0  0  0  0  0  0  0  0
    2.1177   -1.9413   -2.1971 H   0  0  0  0  0  0  0  0  0  0  0  0
    5.1608    1.8498   -3.1686 H   0  0  0  0  0  0  0  0  0  0  0  0
    3.4136   -1.9022   -4.2639 H   0  0  0  0  0  0  0  0  0  0  0  0
    2.7862   -0.0403    0.7229 H   0  0  0  0  0  0  0  0  0  0  0  0
  1 19  1  0  0  0  0
  2  1  2  0  0  0  0
  2 20  1  0  0  0  0
  3  1  1  0  0  0  0
  3 21  1  0  0  0  0
  4  2  1  0  0  0  0
  4 22  1  0  0  0  0
  5 23  1  0  0  0  0
  6 24  1  0  0  0  0
  7  5  1  0  0  0  0
  7 25  1  0  0  0  0
  8  6  2  0  0  0  0
  8 26  1  0  0  0  0
  9  5  2  0  0  0  0
  9  6  1  0  0  0  0
 10  7  2  0  0  0  0
 10  8  1  0  0  0  0
 11  3  2  0  0  0  0
 12  4  2  0  0  0  0
 12 11  1  0  0  0  0
 13  9  1  0  0  0  0
 13 27  1  0  0  0  0
 14 11  1  0  0  0  0
 14 13  1  0  0  0  0
 15 12  1  0  0  0  0
 15 13  1  0  0  0  0
 16 10  1  0  0  0  0
 17 14  2  0  0  0  0
 18 15  2  0  0  0  0
M  END
>  <DRUGBANK_ID>
DB13136

>  <COMMON_NAME>
Fluindione

>  <CAS_NUMBER>
957-56-2

>  <UNII>
EQ35YMS20Q

>  <SYNONYMS>
Fluindione

$$$$
