
 OpenBabel10282417203D

 41 43  0  0  0  0  0  0  0  0999 V2000
    0.9061    0.1392    0.0459 C   0  0  0  0  0  0  0  0  0  0  0  0
    0.3200    1.3090   -0.2789 O   0  0  0  0  0  0  0  0  0  0  0  0
    0.1998   -0.8325    0.2705 O   0  0  0  0  0  0  0  0  0  0  0  0
    2.4311    0.1141    0.0348 C   0  0  0  0  0  0  0  0  0  0  0  0
    3.1467    1.2726   -0.1682 N   0  0  0  0  0  0  0  0  0  0  0  0
    3.1091   -1.0560    0.1938 C   0  0  0  0  0  0  0  0  0  0  0  0
    4.5872    1.3386   -0.4133 C   0  0  1  0  0  0  0  0  0  0  0  0
    3.0354    2.5464    0.2780 C   0  0  0  0  0  0  0  0  0  0  0  0
    2.5104   -2.4501    0.2254 C   0  0  0  0  0  0  0  0  0  0  0  0
    4.6173   -1.1428    0.3951 C   0  0  0  0  0  0  0  0  0  0  0  0
    4.4512    2.8758   -0.2692 C   0  0  1  0  0  0  0  0  0  0  0  0
    5.4062    0.4168    0.9014 S   0  0  0  0  0  0  0  0  0  0  0  0
    2.0995    3.1039    0.8075 O   0  0  0  0  0  0  0  0  0  0  0  0
    5.4391    3.6598    0.5421 N   0  0  0  0  0  0  0  0  0  0  0  0
    4.8869    1.0402   -1.4252 H   0  0  0  0  0  0  0  0  0  0  0  0
    6.0583    4.7636   -0.0575 C   0  0  0  0  0  0  0  0  0  0  0  0
    7.0742    5.5993    0.7690 C   0  0  0  0  0  0  0  0  0  0  0  0
    5.7657    5.0747   -1.2074 O   0  0  0  0  0  0  0  0  0  0  0  0
    7.6635    6.6900    0.3287 N   0  0  0  0  0  0  0  0  0  0  0  0
    7.3815    5.1991    2.1462 C   0  0  0  0  0  0  0  0  0  0  0  0
    7.4189    6.0710    3.2191 C   0  0  0  0  0  0  0  0  0  0  0  0
    7.5758    3.8585    2.4967 N   0  0  0  0  0  0  0  0  0  0  0  0
    7.7296    5.2162    4.6696 S   0  0  0  0  0  0  0  0  0  0  0  0
    7.8092    3.7478    3.7840 C   0  0  0  0  0  0  0  0  0  0  0  0
    8.0557    2.5861    4.3985 N   0  0  0  0  0  0  0  0  0  0  0  0
    7.2937    6.9889   -0.9972 O   0  0  0  0  0  0  0  0  0  0  0  0
    7.9620    8.1415   -1.4953 C   0  0  0  0  0  0  0  0  0  0  0  0
    0.8739    2.1086   -0.2055 H   0  0  0  0  0  0  0  0  0  0  0  0
    2.9455   -3.0429   -0.5873 H   0  0  0  0  0  0  0  0  0  0  0  0
    2.7380   -2.9447    1.1753 H   0  0  0  0  0  0  0  0  0  0  0  0
    1.4372   -2.5244    0.0820 H   0  0  0  0  0  0  0  0  0  0  0  0
    4.8357   -1.8536    1.1991 H   0  0  0  0  0  0  0  0  0  0  0  0
    5.0858   -1.5169   -0.5216 H   0  0  0  0  0  0  0  0  0  0  0  0
    4.3356    3.3361   -1.2609 H   0  0  0  0  0  0  0  0  0  0  0  0
    5.7414    3.3638    1.4714 H   0  0  0  0  0  0  0  0  0  0  0  0
    7.2440    7.1376    3.2222 H   0  0  0  0  0  0  0  0  0  0  0  0
    8.2103    2.5292    5.3975 H   0  0  0  0  0  0  0  0  0  0  0  0
    8.1431    1.7277    3.8695 H   0  0  0  0  0  0  0  0  0  0  0  0
    7.7154    9.0276   -0.9040 H   0  0  0  0  0  0  0  0  0  0  0  0
    9.0443    7.9874   -1.5312 H   0  0  0  0  0  0  0  0  0  0  0  0
    7.6133    8.3133   -2.5210 H   0  0  0  0  0  0  0  0  0  0  0  0
  1  2  1  0  0  0  0
  1  3  2  0  0  0  0
  1  4  1  0  0  0  0
  2 28  1  0  0  0  0
  4  5  1  0  0  0  0
  4  6  2  0  0  0  0
  5  8  1  0  0  0  0
  6  9  1  0  0  0  0
  6 10  1  0  0  0  0
  7  5  1  0  0  0  0
  7 12  1  0  0  0  0
  7 15  1  6  0  0  0
  8 13  2  0  0  0  0
  9 29  1  0  0  0  0
  9 30  1  0  0  0  0
  9 31  1  0  0  0  0
 10 12  1  0  0  0  0
 10 32  1  0  0  0  0
 10 33  1  0  0  0  0
 11  7  1  0  0  0  0
 11  8  1  0  0  0  0
 11 14  1  0  0  0  0
 11 34  1  6  0  0  0
 14 16  1  0  0  0  0
 14 35  1  0  0  0  0
 16 17  1  0  0  0  0
 16 18  2  0  0  0  0
 17 19  2  0  0  0  0
 17 20  1  0  0  0  0
 19 26  1  0  0  0  0
 21 20  2  0  0  0  0
 21 36  1  0  0  0  0
 22 20  1  0  0  0  0
 23 21  1  0  0  0  0
 24 22  2  0  0  0  0
 24 23  1  0  0  0  0
 24 25  1  0  0  0  0
 25 37  1  0  0  0  0
 25 38  1  0  0  0  0
 26 27  1  0  0  0  0
 27 39  1  0  0  0  0
 27 40  1  0  0  0  0
 27 41  1  0  0  0  0
M  END
>  <DRUGBANK_ID>
DB13504

>  <COMMON_NAME>
Cefetamet

>  <CAS_NUMBER>
65052-63-3

>  <UNII>
4R5TV783X3

>  <SYNONYMS>
Cefetamet; Céfétamet; Cefetametum

$$$$
