
 OpenBabel10282417223D

 65 62  0  0  0  0  0  0  0  0999 V2000
    1.3098   -0.1153    0.6683 C   0  0  0  0  0  0  0  0  0  0  0  0
    0.4788    1.1958   -0.9609 C   0  0  0  0  0  0  0  0  0  0  0  0
    1.3889   -1.8392   -0.7230 C   0  0  0  0  0  0  0  0  0  0  0  0
    1.0769    0.8481   -2.7420 C   0  0  0  0  0  0  0  0  0  0  0  0
    1.3139   -3.2857    0.4654 C   0  0  0  0  0  0  0  0  0  0  0  0
    0.4791   -0.5526   -3.2526 C   0  0  0  0  0  0  0  0  0  0  0  0
    0.2624   -2.9241    2.0976 C   0  0  0  0  0  0  0  0  0  0  0  0
   -1.0066   -0.6891   -2.9487 C   0  0  0  0  0  0  0  0  0  0  0  0
   -1.5915   -2.8369    1.4944 C   0  0  0  0  0  0  0  0  0  0  0  0
   -1.5840    0.3271   -3.7946 C   0  0  0  0  0  0  0  0  0  0  0  0
   -2.1548   -1.8022    0.9160 O   0  0  0  0  0  0  0  0  0  0  0  0
   -2.2546   -3.8235    1.8788 O   0  5  0  0  0  0  0  0  0  0  0  0
   -2.3166   -0.0886   -4.8087 C   0  0  0  0  0  0  0  0  0  0  0  0
    1.4842   -0.0452   -0.7678 C   0  0  0  0  0  0  0  0  0  0  0  0
    0.3250   -1.4657    0.4533 C   0  0  0  0  0  0  0  0  0  0  0  0
    0.7825    1.5000    0.7161 C   0  0  0  0  0  0  0  0  0  0  0  0
    1.6868   -1.6147    1.8408 C   0  0  0  0  0  0  0  0  0  0  0  0
    1.0888    2.9208    0.6631 C   0  0  0  0  0  0  0  0  0  0  0  0
    0.5652   -0.6517    3.1250 C   0  0  0  0  0  0  0  0  0  0  0  0
    0.3574    3.4201   -0.6129 C   0  0  0  0  0  0  0  0  0  0  0  0
   -1.0182   -0.7152    3.1071 C   0  0  0  0  0  0  0  0  0  0  0  0
   -1.2456    3.1655   -0.5903 C   0  0  0  0  0  0  0  0  0  0  0  0
   -1.3838   -2.1465    3.6746 C   0  0  0  0  0  0  0  0  0  0  0  0
   -1.8866    4.1564   -0.9604 O   0  0  0  0  0  0  0  0  0  0  0  0
   -1.7883    2.0347   -0.2828 O   0  5  0  0  0  0  0  0  0  0  0  0
   -2.4164   -2.4458    4.4255 C   0  0  0  0  0  0  0  0  0  0  0  0
   -1.8961    0.0466    0.0315 Ca  0  2  0  0  0  0  0  0  0  0  0  0
    0.4932   -0.0742    1.4240 H   0  0  0  0  0  0  0  0  0  0  0  0
    2.4136    0.2273    0.9189 H   0  0  0  0  0  0  0  0  0  0  0  0
   -0.5185    1.1003   -1.3221 H   0  0  0  0  0  0  0  0  0  0  0  0
    1.4457    1.8267   -1.0022 H   0  0  0  0  0  0  0  0  0  0  0  0
   -0.0249   -1.6092   -1.2453 H   0  0  0  0  0  0  0  0  0  0  0  0
    1.9921   -1.9347   -1.6094 H   0  0  0  0  0  0  0  0  0  0  0  0
    0.7202    1.6740   -3.3282 H   0  0  0  0  0  0  0  0  0  0  0  0
    2.1865    0.7992   -2.6293 H   0  0  0  0  0  0  0  0  0  0  0  0
    0.6636   -4.0912    0.1981 H   0  0  0  0  0  0  0  0  0  0  0  0
    2.4073   -3.0913    0.3912 H   0  0  0  0  0  0  0  0  0  0  0  0
    0.8833   -0.8653   -4.1877 H   0  0  0  0  0  0  0  0  0  0  0  0
    0.9240   -1.4332   -2.8190 H   0  0  0  0  0  0  0  0  0  0  0  0
    0.6422   -3.3264    3.1541 H   0  0  0  0  0  0  0  0  0  0  0  0
    1.1119   -2.3037    3.1495 H   0  0  0  0  0  0  0  0  0  0  0  0
   -1.3406   -1.7256   -3.0464 H   0  0  0  0  0  0  0  0  0  0  0  0
   -1.3963   -0.4418   -1.9661 H   0  0  0  0  0  0  0  0  0  0  0  0
   -1.2976    1.3666   -3.6510 H   0  0  0  0  0  0  0  0  0  0  0  0
   -2.6511    0.6362   -5.5219 H   0  0  0  0  0  0  0  0  0  0  0  0
   -2.5372   -1.1446   -4.9113 H   0  0  0  0  0  0  0  0  0  0  0  0
    0.7695   -0.3244   -1.4720 H   0  0  0  0  0  0  0  0  0  0  0  0
    2.6206   -0.2924   -0.7736 H   0  0  0  0  0  0  0  0  0  0  0  0
   -0.5918   -1.2578    0.6841 H   0  0  0  0  0  0  0  0  0  0  0  0
   -0.1285   -2.5963   -0.2215 H   0  0  0  0  0  0  0  0  0  0  0  0
   -0.3712    1.3464    1.0613 H   0  0  0  0  0  0  0  0  0  0  0  0
    1.0120    1.4255    1.8321 H   0  0  0  0  0  0  0  0  0  0  0  0
    1.9913   -2.9439    2.0754 H   0  0  0  0  0  0  0  0  0  0  0  0
    2.7740   -1.5927    1.7550 H   0  0  0  0  0  0  0  0  0  0  0  0
    0.6734    3.2998    1.6161 H   0  0  0  0  0  0  0  0  0  0  0  0
    2.1643    2.6742    0.7220 H   0  0  0  0  0  0  0  0  0  0  0  0
    0.6980   -1.0132    4.1204 H   0  0  0  0  0  0  0  0  0  0  0  0
    0.9143    0.3556    3.1482 H   0  0  0  0  0  0  0  0  0  0  0  0
    0.8504    4.3403   -0.8196 H   0  0  0  0  0  0  0  0  0  0  0  0
    0.7046    3.0618   -1.6463 H   0  0  0  0  0  0  0  0  0  0  0  0
   -1.5213    0.0246    3.7394 H   0  0  0  0  0  0  0  0  0  0  0  0
   -1.3816   -0.2954    2.1476 H   0  0  0  0  0  0  0  0  0  0  0  0
   -1.0208   -3.2099    3.3769 H   0  0  0  0  0  0  0  0  0  0  0  0
   -2.7295   -3.4951    4.4164 H   0  0  0  0  0  0  0  0  0  0  0  0
   -2.8437   -1.6127    4.9066 H   0  0  0  0  0  0  0  0  0  0  0  0
  1  2  1  0  0  0  0
  1  3  1  0  0  0  0
  1 28  1  0  0  0  0
  1 29  1  0  0  0  0
  2  4  1  0  0  0  0
  2 30  1  0  0  0  0
  2 31  1  0  0  0  0
  3  5  1  0  0  0  0
  3 32  1  0  0  0  0
  3 33  1  0  0  0  0
  4  6  1  0  0  0  0
  4 34  1  0  0  0  0
  4 35  1  0  0  0  0
  5  7  1  0  0  0  0
  5 36  1  0  0  0  0
  5 37  1  0  0  0  0
  6  8  1  0  0  0  0
  6 38  1  0  0  0  0
  6 39  1  0  0  0  0
  7  9  1  0  0  0  0
  7 40  1  0  0  0  0
  7 41  1  0  0  0  0
  8 10  1  0  0  0  0
  8 42  1  0  0  0  0
  8 43  1  0  0  0  0
  9 12  1  0  0  0  0
  9 11  2  0  0  0  0
 10 13  2  0  0  0  0
 10 44  1  0  0  0  0
 13 45  1  0  0  0  0
 13 46  1  0  0  0  0
 14 15  1  0  0  0  0
 14 16  1  0  0  0  0
 14 47  1  0  0  0  0
 14 48  1  0  0  0  0
 15 17  1  0  0  0  0
 15 49  1  0  0  0  0
 15 50  1  0  0  0  0
 16 18  1  0  0  0  0
 16 51  1  0  0  0  0
 16 52  1  0  0  0  0
 17 19  1  0  0  0  0
 17 53  1  0  0  0  0
 17 54  1  0  0  0  0
 18 20  1  0  0  0  0
 18 55  1  0  0  0  0
 18 56  1  0  0  0  0
 19 21  1  0  0  0  0
 19 57  1  0  0  0  0
 19 58  1  0  0  0  0
 20 22  1  0  0  0  0
 20 59  1  0  0  0  0
 20 60  1  0  0  0  0
 21 23  1  0  0  0  0
 21 61  1  0  0  0  0
 21 62  1  0  0  0  0
 22 24  2  0  0  0  0
 22 25  1  0  0  0  0
 23 26  2  0  0  0  0
 23 63  1  0  0  0  0
 26 64  1  0  0  0  0
 26 65  1  0  0  0  0
M  CHG  3  12  -1  25  -1  27   2
M  END
>  <DRUGBANK_ID>
DB15678

>  <COMMON_NAME>
Calcium undecylenate

>  <CAS_NUMBER>
1322-14-1

>  <UNII>
77YW1RTU8V

>  <SYNONYMS>
Calcium 10-undecenoate; Calcium diundec-10-enoate; Calcium undecylenate

$$$$
