LZQ
 OpenBabel10282417173D

 50 52  0  0  0  0  0  0  0  0999 V2000
    1.4291   -0.1894    0.0040 C   0  0  0  0  0  0  0  0  0  0  0  0
    1.8424    2.2620   -0.2377 C   0  0  0  0  0  0  0  0  0  0  0  0
    1.9039    4.5617    0.7040 C   0  0  0  0  0  0  0  0  0  0  0  0
    2.6751    5.7944    0.2400 C   0  0  0  0  0  0  0  0  0  0  0  0
   -4.0568    2.0951   -1.5993 C   0  0  0  0  0  0  0  0  0  0  0  0
   -3.3515   -1.5651   -1.4841 C   0  0  0  0  0  0  0  0  0  0  0  0
   -2.7583    0.4510   -0.1022 N   0  0  0  0  0  0  0  0  0  0  0  0
    2.7818    6.0921   -0.9431 O   0  0  0  0  0  0  0  0  0  0  0  0
    0.5622   -1.2713    0.0577 C   0  0  0  0  0  0  0  0  0  0  0  0
   -4.7474    1.1272   -2.3335 C   0  0  0  0  0  0  0  0  0  0  0  0
   -3.8325   -2.8722   -1.5692 C   0  0  0  0  0  0  0  0  0  0  0  0
    3.0485    2.0467   -0.3634 O   0  0  0  0  0  0  0  0  0  0  0  0
    1.7638    4.3855    1.9123 O   0  0  0  0  0  0  0  0  0  0  0  0
    3.1596    6.5228    1.2572 O   0  0  0  0  0  0  0  0  0  0  0  0
   -0.8149   -1.0511    0.0840 C   0  0  0  0  0  0  0  0  0  0  0  0
   -5.3981    1.3532   -3.5312 C   0  0  0  0  0  0  0  0  0  0  0  0
   -3.4937   -3.6702   -2.6654 C   0  0  0  0  0  0  0  0  0  0  0  0
   -1.3834    0.2384    0.0466 C   0  0  0  0  0  0  0  0  0  0  0  0
   -5.4967    2.6429   -3.9856 C   0  0  0  0  0  0  0  0  0  0  0  0
   -2.7779   -3.1423   -3.7430 C   0  0  0  0  0  0  0  0  0  0  0  0
   -0.4691    1.2939    0.0882 C   0  0  0  0  0  0  0  0  0  0  0  0
   -4.9075    3.6711   -3.2476 C   0  0  0  0  0  0  0  0  0  0  0  0
   -2.3486   -1.8249   -3.7116 C   0  0  0  0  0  0  0  0  0  0  0  0
    0.9143    1.1082   -0.0198 C   0  0  0  0  0  0  0  0  0  0  0  0
   -4.1452    3.4004   -2.0960 C   0  0  0  0  0  0  0  0  0  0  0  0
   -2.6160   -1.0561   -2.5851 C   0  0  0  0  0  0  0  0  0  0  0  0
    1.3187    3.6755   -0.3576 C   0  0  0  0  0  0  0  0  0  0  0  0
   -3.3745    1.7972   -0.2651 C   0  0  0  0  0  0  0  0  0  0  0  0
   -3.6374   -0.7302   -0.2185 C   0  0  0  0  0  0  0  0  0  0  0  0
    2.5007   -0.3686   -0.0180 H   0  0  0  0  0  0  0  0  0  0  0  0
    0.9379   -2.2914    0.0390 H   0  0  0  0  0  0  0  0  0  0  0  0
   -4.8165    0.1062   -2.0328 H   0  0  0  0  0  0  0  0  0  0  0  0
   -4.4551   -3.2803   -0.7777 H   0  0  0  0  0  0  0  0  0  0  0  0
    2.9548    6.1111    2.1274 H   0  0  0  0  0  0  0  0  0  0  0  0
   -1.4312   -1.9463    0.0849 H   0  0  0  0  0  0  0  0  0  0  0  0
   -5.8338    0.5023   -4.0474 H   0  0  0  0  0  0  0  0  0  0  0  0
   -3.7808   -4.7172   -2.6765 H   0  0  0  0  0  0  0  0  0  0  0  0
   -6.0456    2.8333   -4.8996 H   0  0  0  0  0  0  0  0  0  0  0  0
   -2.5575   -3.7577   -4.6098 H   0  0  0  0  0  0  0  0  0  0  0  0
   -0.8424    2.2930    0.2081 H   0  0  0  0  0  0  0  0  0  0  0  0
   -5.0590    4.6957   -3.5712 H   0  0  0  0  0  0  0  0  0  0  0  0
   -1.7944   -1.3928   -4.5410 H   0  0  0  0  0  0  0  0  0  0  0  0
   -3.6510    4.2281   -1.5909 H   0  0  0  0  0  0  0  0  0  0  0  0
   -2.2499   -0.0298   -2.5816 H   0  0  0  0  0  0  0  0  0  0  0  0
    1.5620    4.0321   -1.3644 H   0  0  0  0  0  0  0  0  0  0  0  0
    0.2362    3.7716   -0.2922 H   0  0  0  0  0  0  0  0  0  0  0  0
   -4.1060    1.9420    0.5387 H   0  0  0  0  0  0  0  0  0  0  0  0
   -2.6492    2.5998   -0.1106 H   0  0  0  0  0  0  0  0  0  0  0  0
   -3.5427   -1.3582    0.6753 H   0  0  0  0  0  0  0  0  0  0  0  0
   -4.6943   -0.4289   -0.1912 H   0  0  0  0  0  0  0  0  0  0  0  0
  1 30  1  0  0  0  0
  2 27  1  0  0  0  0
  2 12  2  0  0  0  0
  3  4  1  0  0  0  0
  3 13  2  0  0  0  0
  4 14  1  0  0  0  0
  5 10  1  0  0  0  0
  6 29  1  0  0  0  0
  6 26  1  0  0  0  0
  7 18  1  0  0  0  0
  8  4  2  0  0  0  0
  9  1  1  0  0  0  0
  9 31  1  0  0  0  0
 10 16  2  0  0  0  0
 10 32  1  0  0  0  0
 11  6  2  0  0  0  0
 11 33  1  0  0  0  0
 14 34  1  0  0  0  0
 15  9  2  0  0  0  0
 15 35  1  0  0  0  0
 16 36  1  0  0  0  0
 17 11  1  0  0  0  0
 17 20  2  0  0  0  0
 17 37  1  0  0  0  0
 18 15  1  0  0  0  0
 18 21  2  0  0  0  0
 19 16  1  0  0  0  0
 19 38  1  0  0  0  0
 20 23  1  0  0  0  0
 20 39  1  0  0  0  0
 21 24  1  0  0  0  0
 21 40  1  0  0  0  0
 22 19  2  0  0  0  0
 22 41  1  0  0  0  0
 23 26  2  0  0  0  0
 23 42  1  0  0  0  0
 24  1  2  0  0  0  0
 24  2  1  0  0  0  0
 25  5  2  0  0  0  0
 25 22  1  0  0  0  0
 25 43  1  0  0  0  0
 26 44  1  0  0  0  0
 27  3  1  0  0  0  0
 27 45  1  0  0  0  0
 27 46  1  0  0  0  0
 28  5  1  0  0  0  0
 28  7  1  0  0  0  0
 28 47  1  0  0  0  0
 28 48  1  0  0  0  0
 29  7  1  0  0  0  0
 29 49  1  0  0  0  0
 29 50  1  0  0  0  0
M  END
>  <DRUGBANK_ID>
DB08147

>  <COMMON_NAME>
4-[3-(dibenzylamino)phenyl]-2,4-dioxobutanoic acid

$$$$
