
 OpenBabel10282417213D

 21 11  0  0  0  0  0  0  0  0999 V2000
    0.9790   -0.0505    0.0837 O   0  0  0  0  0  0  0  0  0  0  0  0
    1.0646   -0.0500    0.0576 O   0  6  0  0  0  0  0  0  0  0  0  0
    1.0886    0.0386    0.0259 O   0  6  0  0  0  0  0  0  0  0  0  0
    0.9586    0.0768    0.0489 O   0  5  0  0  0  0  0  0  0  0  0  0
    2.7286    0.0768    0.0489 Si  0  0  0  0  0  0  0  0  0  0  0  0
    3.2566   -1.3619   -0.3524 O   0  0  0  0  0  0  0  0  0  0  0  0
    3.3186    1.2688   -1.1191 O   0  5  0  0  0  0  0  0  0  0  0  0
    0.9564    0.0416   -0.0798 O   0  5  0  0  0  0  0  0  0  0  0  0
    2.7264    0.0416   -0.0798 Si  0  0  0  0  0  0  0  0  0  0  0  0
    3.2545   -0.0719    1.4094 O   0  0  0  0  0  0  0  0  0  0  0  0
    3.3164   -1.3360   -1.0216 O   0  5  0  0  0  0  0  0  0  0  0  0
    1.0699   -0.0069   -0.0711 O   0  5  0  0  0  0  0  0  0  0  0  0
    2.8399   -0.0069   -0.0711 Si  0  0  0  0  0  0  0  0  0  0  0  0
    3.3680    0.0185    1.4222 O   0  0  0  0  0  0  0  0  0  0  0  0
    3.4299   -1.4661   -0.8808 O   0  5  0  0  0  0  0  0  0  0  0  0
    0.9406    0.0440   -0.0673 Mg  0  2  0  0  0  0  0  0  0  0  0  0
    1.0703   -0.0666   -0.0249 Mg  0  2  0  0  0  0  0  0  0  0  0  0
    1.0505   -0.0423   -0.0752 Al  0  1  0  0  0  0  0  0  0  0  0  0
    0.9985    0.0634    0.0773 Al  0  1  0  0  0  0  0  0  0  0  0  0
    0.6457    0.5905    0.7751 H   0  0  0  0  0  0  0  0  0  0  0  0
    1.9790   -0.0505    0.0837 H   0  0  0  0  0  0  0  0  0  0  0  0
  1 20  1  0  0  0  0
  1 21  1  0  0  0  0
  4  5  1  0  0  0  0
  5  6  2  0  0  0  0
  5  7  1  0  0  0  0
  8  9  1  0  0  0  0
  9 10  2  0  0  0  0
  9 11  1  0  0  0  0
 12 13  1  0  0  0  0
 13 14  2  0  0  0  0
 13 15  1  0  0  0  0
M  CHG  8   2  -2   3  -2   4  -1   7  -1   8  -1  11  -1  12  -1  15  -1
M  CHG  4  16   2  17   2  18   3  19   3
M  END
>  <DRUGBANK_ID>
DB14116

>  <COMMON_NAME>
Silodrate

>  <CAS_NUMBER>
12408-47-8

>  <UNII>
9T3UU8T0QK

>  <SYNONYMS>
Magnesium aluminometasilicate; Silodrate; Simaldrate

$$$$
