
 OpenBabel10282417213D

  4  0  0  0  0  0  0  0  0  0999 V2000
    1.0705   -0.0033    0.0708 Ga  0  1  0  0  0  0  0  0  0  0  0  0
    0.9831   -0.0788    0.0592 Cl  0  5  0  0  0  0  0  0  0  0  0  0
    0.9284    0.0574    0.0396 Cl  0  5  0  0  0  0  0  0  0  0  0  0
    0.9581   -0.0618    0.0665 Cl  0  5  0  0  0  0  0  0  0  0  0  0
M  ISO  1   1  67
M  CHG  4   1   3   2  -1   3  -1   4  -1
M  END
>  <DRUGBANK_ID>
DB14550

>  <COMMON_NAME>
Gallium chloride Ga-67

>  <UNII>
A04B19O2B0

>  <SYNONYMS>
Gallium (67Ga) chloride; Gallium (Ga-67) chloride; Gallium chloride Ga 67; Gallium chloride, Ga-67; Gallium chloride,Ga-67

$$$$
