
 OpenBabel10282417183D

 13  8  0  0  0  0  0  0  0  0999 V2000
    1.3570   -0.3829   -3.6743 Ca  0  2  0  0  0  0  0  0  0  0  0  0
   -0.6784    2.1634    0.4587 Ca  0  2  0  0  0  0  0  0  0  0  0  0
    2.2824   -1.3898    2.4555 Ca  0  2  0  0  0  0  0  0  0  0  0  0
    1.4317    1.9039    0.4285 O   0  5  0  0  0  0  0  0  0  0  0  0
    2.8010    1.7745   -1.1018 O   0  5  0  0  0  0  0  0  0  0  0  0
    2.6763    0.8419    1.6351 O   0  5  0  0  0  0  0  0  0  0  0  0
    4.4383    1.3976    0.4065 O   0  0  0  0  0  0  0  0  0  0  0  0
    2.9882    1.8670    0.4405 P   0  0  0  0  0  0  0  0  0  0  0  0
    1.4652   -0.6912   -0.1445 O   0  5  0  0  0  0  0  0  0  0  0  0
    2.3282   -2.8337    0.0549 O   0  5  0  0  0  0  0  0  0  0  0  0
    2.5303   -1.4176   -2.1769 O   0  5  0  0  0  0  0  0  0  0  0  0
    3.9264   -1.0478    0.0148 O   0  0  0  0  0  0  0  0  0  0  0  0
    2.6483   -1.5631   -0.6361 P   0  0  0  0  0  0  0  0  0  0  0  0
  8  4  1  0  0  0  0
  8  5  1  0  0  0  0
  8  6  1  0  0  0  0
  8  7  2  0  0  0  0
 13  9  1  0  0  0  0
 13 10  1  0  0  0  0
 13 11  1  0  0  0  0
 13 12  2  0  0  0  0
M  CHG  8   1   2   2   2   3   2   4  -1   5  -1   6  -1   9  -1  10  -1
M  CHG  1  11  -1
M  END
>  <DRUGBANK_ID>
DB11348

>  <SECONDARY_ACCESSION_NUMBERS>
DB11052; DB11053

>  <COMMON_NAME>
Calcium Phosphate

>  <CAS_NUMBER>
10103-46-5

>  <UNII>
97Z1WI3NDX

>  <SYNONYMS>
calcio fosfato; Calcium phosphates; Phosphoric acid, calcium salt

$$$$
