
 OpenBabel10282417123D

 34 35  0  0  1  0  0  0  0  0999 V2000
    1.0844    1.2458    0.1368 C   0  0  0  0  0  0  0  0  0  0  0  0
    1.1113   -1.2480    0.0276 C   0  0  0  0  0  0  0  0  0  0  0  0
   -0.2519    1.2566    0.1063 C   0  0  0  0  0  0  0  0  0  0  0  0
   -0.2284   -1.2696    0.0745 C   0  0  0  0  0  0  0  0  0  0  0  0
    4.0856    4.6011   -0.2453 C   0  0  0  0  0  0  0  0  0  0  0  0
    4.5479    5.4386   -1.4194 C   0  0  0  0  0  0  0  0  0  0  0  0
    2.5353    0.0953   -1.5159 C   0  0  0  0  0  0  0  0  0  0  0  0
    5.7530    2.3255    0.9682 C   0  0  0  0  0  0  0  0  0  0  0  0
    1.9215    0.0215   -0.1025 C   0  0  3  0  0  0  0  0  0  0  0  0
   -1.0063   -0.0094    0.0091 C   0  0  0  0  0  0  0  0  0  0  0  0
    3.5402    1.2276   -1.7491 C   0  0  1  0  0  0  0  0  0  0  0  0
    4.7815    2.1760   -0.1803 C   0  0  0  0  0  0  0  0  0  0  0  0
    3.1614    2.6995   -1.5680 C   0  0  0  0  0  0  0  0  0  0  0  0
    6.8439    3.1966    0.5340 N   0  0  0  0  0  0  0  0  0  0  0  0
    4.6405    1.0316   -0.7730 N   0  0  0  0  0  0  0  0  0  0  0  0
    4.0365    3.1948   -0.6343 N   0  0  0  0  0  0  0  0  0  0  0  0
    3.9888    6.4765   -1.7669 O   0  0  0  0  0  0  0  0  0  0  0  0
   -2.2273   -0.0152   -0.0690 O   0  0  0  0  0  0  0  0  0  0  0  0
    2.3018    3.3178   -2.1605 O   0  0  0  0  0  0  0  0  0  0  0  0
    3.9310    1.1427   -2.7683 H   0  0  0  0  0  0  0  0  0  0  0  0
    1.5905    2.1914    0.2825 H   0  0  0  0  0  0  0  0  0  0  0  0
    1.6587   -2.1878    0.0745 H   0  0  0  0  0  0  0  0  0  0  0  0
   -0.8172    2.1774    0.1645 H   0  0  0  0  0  0  0  0  0  0  0  0
   -0.7963   -2.1879    0.1529 H   0  0  0  0  0  0  0  0  0  0  0  0
    3.1029    4.9383    0.0901 H   0  0  0  0  0  0  0  0  0  0  0  0
    4.8085    4.7580    0.5601 H   0  0  0  0  0  0  0  0  0  0  0  0
    5.5013    5.1385   -1.8873 H   0  0  0  0  0  0  0  0  0  0  0  0
    3.0792   -0.8466   -1.6907 H   0  0  0  0  0  0  0  0  0  0  0  0
    1.7414    0.1233   -2.2751 H   0  0  0  0  0  0  0  0  0  0  0  0
    5.2354    2.7439    1.8380 H   0  0  0  0  0  0  0  0  0  0  0  0
    6.1385    1.3374    1.2447 H   0  0  0  0  0  0  0  0  0  0  0  0
    2.7080   -0.0233    0.6614 H   0  0  0  0  0  0  0  0  0  0  0  0
    7.5362    3.2426    1.2819 H   0  0  0  0  0  0  0  0  0  0  0  0
    7.3179    2.7382   -0.2476 H   0  0  0  0  0  0  0  0  0  0  0  0
  1 21  1  0  0  0  0
  2 22  1  0  0  0  0
  3  1  2  0  0  0  0
  3 23  1  0  0  0  0
  4  2  2  0  0  0  0
  4 24  1  0  0  0  0
  5 25  1  0  0  0  0
  5 26  1  0  0  0  0
  6  5  1  0  0  0  0
  6 27  1  0  0  0  0
  7 28  1  0  0  0  0
  7 29  1  0  0  0  0
  8 30  1  0  0  0  0
  8 31  1  0  0  0  0
  9  1  1  0  0  0  0
  9  2  1  0  0  0  0
  9  7  1  0  0  0  0
  9 32  1  0  0  0  0
 10  3  1  0  0  0  0
 10  4  1  0  0  0  0
 11  7  1  0  0  0  0
 11 20  1  6  0  0  0
 12  8  1  0  0  0  0
 13 11  1  0  0  0  0
 14  8  1  0  0  0  0
 14 33  1  0  0  0  0
 14 34  1  0  0  0  0
 15 11  1  0  0  0  0
 15 12  2  0  0  0  0
 16  5  1  0  0  0  0
 16 12  1  0  0  0  0
 16 13  1  0  0  0  0
 17  6  2  0  0  0  0
 18 10  2  0  0  0  0
 19 13  2  0  0  0  0
M  END
>  <DRUGBANK_ID>
DB02275

>  <SECONDARY_ACCESSION_NUMBERS>
EXPT02508

>  <COMMON_NAME>
[2-Aminomethyl-5-Oxo-4-(4-Oxo-Cyclohexa-2,5-Dienylmethyl)-4,5-Dihydro-Imidazol-1-Yl] -Acetaldehyde

$$$$
