
 OpenBabel10282417133D

 29 28  0  0  1  0  0  0  0  0999 V2000
    1.1514   -2.2157    1.4046 C   0  0  0  0  0  0  0  0  0  0  0  0
   -1.9169   -0.2393    1.6202 C   0  0  0  0  0  0  0  0  0  0  0  0
    2.5789   -1.5335    1.7807 C   0  0  1  0  0  0  0  0  0  0  0  0
   -1.6170   -0.4262    3.1425 C   0  0  1  0  0  0  0  0  0  0  0  0
    0.4091   -1.5647    0.1945 C   0  0  2  0  0  0  0  0  0  0  0  0
    3.5732   -2.0759    0.8084 C   0  0  0  0  0  0  0  0  0  0  0  0
   -0.2280   -0.0146    3.5459 C   0  0  0  0  0  0  0  0  0  0  0  0
    2.7011   -0.0499    1.8819 N   0  0  0  0  0  0  0  0  0  0  0  0
   -2.3620    0.4543    4.0557 N   0  0  0  0  0  0  0  0  0  0  0  0
    0.7977   -0.2279   -0.1073 O   0  0  0  0  0  0  0  0  0  0  0  0
    4.2029   -1.4520   -0.0263 O   0  0  0  0  0  0  0  0  0  0  0  0
    3.6444   -3.4139    0.9274 O   0  0  0  0  0  0  0  0  0  0  0  0
    0.2198    0.3279    4.5946 O   0  0  0  0  0  0  0  0  0  0  0  0
    0.5580   -0.2285    2.5474 O   0  0  0  0  0  0  0  0  0  0  0  0
   -1.4567   -1.6114    0.3760 S   0  0  0  0  0  0  0  0  0  0  0  0
    2.8686   -1.8592    2.7910 H   0  0  0  0  0  0  0  0  0  0  0  0
   -1.7436   -1.4836    3.4026 H   0  0  0  0  0  0  0  0  0  0  0  0
    0.6622   -2.1594   -0.6934 H   0  0  0  0  0  0  0  0  0  0  0  0
    0.4300   -2.2625    2.2374 H   0  0  0  0  0  0  0  0  0  0  0  0
    1.2604   -3.3099    1.3161 H   0  0  0  0  0  0  0  0  0  0  0  0
   -1.5642    0.7267    1.2400 H   0  0  0  0  0  0  0  0  0  0  0  0
   -3.0118   -0.2180    1.5393 H   0  0  0  0  0  0  0  0  0  0  0  0
    3.6261    0.3695    1.9408 H   0  0  0  0  0  0  0  0  0  0  0  0
    2.1547    0.4226    1.1480 H   0  0  0  0  0  0  0  0  0  0  0  0
   -1.9211    0.2657    4.9761 H   0  0  0  0  0  0  0  0  0  0  0  0
   -1.9766    1.3945    3.8746 H   0  0  0  0  0  0  0  0  0  0  0  0
    1.6238   -0.2529   -0.6198 H   0  0  0  0  0  0  0  0  0  0  0  0
    4.2267   -3.7049    0.2034 H   0  0  0  0  0  0  0  0  0  0  0  0
    1.3274   -0.5253    3.0773 H   0  0  0  0  0  0  0  0  0  0  0  0
  1 19  1  0  0  0  0
  1 20  1  0  0  0  0
  2 21  1  0  0  0  0
  2 22  1  0  0  0  0
  3  1  1  0  0  0  0
  3  8  1  0  0  0  0
  3 16  1  1  0  0  0
  4  2  1  0  0  0  0
  4  9  1  0  0  0  0
  4 17  1  1  0  0  0
  5 18  1  6  0  0  0
  5 10  1  0  0  0  0
  5  1  1  0  0  0  0
  6  3  1  0  0  0  0
  7  4  1  0  0  0  0
  8 23  1  0  0  0  0
  8 24  1  0  0  0  0
  9 25  1  0  0  0  0
  9 26  1  0  0  0  0
 10 27  1  0  0  0  0
 11  6  2  0  0  0  0
 12  6  1  0  0  0  0
 12 28  1  0  0  0  0
 13  7  2  0  0  0  0
 14  7  1  0  0  0  0
 14 29  1  0  0  0  0
 15  2  1  0  0  0  0
 15  5  1  0  0  0  0
M  END
>  <DRUGBANK_ID>
DB03502

>  <SECONDARY_ACCESSION_NUMBERS>
EXPT01789

>  <COMMON_NAME>
(4s)-4-{[(2s)-2-Amino-3-Oxopropyl]Sulfanyl}-L-Homoserinate

$$$$
