
 OpenBabel10282417163D

 37 38  0  0  0  0  0  0  0  0999 V2000
   -3.9828   -9.9038   -3.0642 C   0  0  0  0  0  0  0  0  0  0  0  0
   -3.0120   -8.9534   -2.4162 C   0  0  0  0  0  0  0  0  0  0  0  0
   -0.4082   -6.2001   -0.6347 O   0  0  0  0  0  0  0  0  0  0  0  0
   -0.0312   -6.2715    0.7628 C   0  0  2  0  0  0  0  0  0  0  0  0
   -4.4878  -10.8310   -2.2015 F   0  0  0  0  0  0  0  0  0  0  0  0
   -3.4350  -10.6069   -4.0912 F   0  0  0  0  0  0  0  0  0  0  0  0
   -5.0629   -9.2552   -3.5810 F   0  0  0  0  0  0  0  0  0  0  0  0
   -0.6448   -5.1035    1.5310 C   0  0  0  0  0  0  0  0  0  0  0  0
   -2.5183   -7.8407   -3.1111 C   0  0  0  0  0  0  0  0  0  0  0  0
   -2.6347   -9.1348   -1.0847 C   0  0  0  0  0  0  0  0  0  0  0  0
   -1.2951   -7.1149   -1.1384 C   0  0  0  0  0  0  0  0  0  0  0  0
    1.5102   -6.3827    0.8039 C   0  0  0  0  0  0  0  0  0  0  0  0
   -1.6624   -6.9310   -2.4769 C   0  0  0  0  0  0  0  0  0  0  0  0
   -1.8317   -8.1960   -0.4427 C   0  0  0  0  0  0  0  0  0  0  0  0
    1.5049   -7.8515    2.8294 N   0  0  0  0  0  0  0  0  0  0  0  0
    2.1215   -6.6978    2.1745 C   0  0  0  0  0  0  0  0  0  0  0  0
   -0.3268   -4.8187    2.8683 C   0  0  0  0  0  0  0  0  0  0  0  0
   -1.6275   -4.2997    0.9314 C   0  0  0  0  0  0  0  0  0  0  0  0
   -0.8292   -3.7002    3.5279 C   0  0  0  0  0  0  0  0  0  0  0  0
   -2.1632   -3.1990    1.5973 C   0  0  0  0  0  0  0  0  0  0  0  0
   -1.7539   -2.8858    2.8866 C   0  0  0  0  0  0  0  0  0  0  0  0
   -0.4177   -7.1692    1.2287 H   0  0  0  0  0  0  0  0  0  0  0  0
   -2.8069   -7.6768   -4.1487 H   0  0  0  0  0  0  0  0  0  0  0  0
   -2.9754  -10.0001   -0.5191 H   0  0  0  0  0  0  0  0  0  0  0  0
    1.8188   -7.1773    0.1091 H   0  0  0  0  0  0  0  0  0  0  0  0
    1.9593   -5.4627    0.4072 H   0  0  0  0  0  0  0  0  0  0  0  0
   -1.2978   -6.0680   -3.0313 H   0  0  0  0  0  0  0  0  0  0  0  0
   -1.6722   -8.3654    0.6134 H   0  0  0  0  0  0  0  0  0  0  0  0
    1.8159   -7.9053    3.7990 H   0  0  0  0  0  0  0  0  0  0  0  0
    0.4919   -7.7586    2.8854 H   0  0  0  0  0  0  0  0  0  0  0  0
    3.1918   -6.8945    2.0637 H   0  0  0  0  0  0  0  0  0  0  0  0
    2.0841   -5.8177    2.8197 H   0  0  0  0  0  0  0  0  0  0  0  0
    0.3073   -5.4631    3.4651 H   0  0  0  0  0  0  0  0  0  0  0  0
   -1.9962   -4.5275   -0.0650 H   0  0  0  0  0  0  0  0  0  0  0  0
   -0.5035   -3.4768    4.5391 H   0  0  0  0  0  0  0  0  0  0  0  0
   -2.9018   -2.5811    1.0925 H   0  0  0  0  0  0  0  0  0  0  0  0
   -2.1689   -2.0288    3.4038 H   0  0  0  0  0  0  0  0  0  0  0  0
  2  1  1  0  0  0  0
  3 11  1  0  0  0  0
  4 22  1  1  0  0  0
  4  8  1  0  0  0  0
  4  3  1  0  0  0  0
  5  1  1  0  0  0  0
  6  1  1  0  0  0  0
  7  1  1  0  0  0  0
  9  2  1  0  0  0  0
  9 23  1  0  0  0  0
 10  2  2  0  0  0  0
 10 24  1  0  0  0  0
 11 14  2  0  0  0  0
 12  4  1  0  0  0  0
 12 25  1  0  0  0  0
 12 26  1  0  0  0  0
 13  9  2  0  0  0  0
 13 11  1  0  0  0  0
 13 27  1  0  0  0  0
 14 10  1  0  0  0  0
 14 28  1  0  0  0  0
 15 16  1  0  0  0  0
 15 29  1  0  0  0  0
 15 30  1  0  0  0  0
 16 12  1  0  0  0  0
 16 31  1  0  0  0  0
 16 32  1  0  0  0  0
 17  8  2  0  0  0  0
 17 33  1  0  0  0  0
 18  8  1  0  0  0  0
 18 34  1  0  0  0  0
 19 17  1  0  0  0  0
 19 35  1  0  0  0  0
 20 18  2  0  0  0  0
 20 21  1  0  0  0  0
 20 36  1  0  0  0  0
 21 19  2  0  0  0  0
 21 37  1  0  0  0  0
M  END
>  <DRUGBANK_ID>
DB06731

>  <COMMON_NAME>
Seproxetine

>  <CAS_NUMBER>
126924-38-7

>  <UNII>
25CO3X0R31

>  <SYNONYMS>
(S)-norfluoxetine; Seproxetine

$$$$
