
 OpenBabel10282417203D

 15 15  0  0  0  0  0  0  0  0999 V2000
   -0.7172    1.1794    0.0012 C   0  0  0  0  0  0  0  0  0  0  0  0
   -1.4036    0.0294   -0.0010 C   0  0  0  0  0  0  0  0  0  0  0  0
    0.6583    1.1577    0.0012 N   0  0  0  0  0  0  0  0  0  0  0  0
   -1.3931    2.5155    0.0036 C   0  0  0  0  0  0  0  0  0  0  0  0
   -0.6759   -1.2533    0.0006 C   0  0  0  0  0  0  0  0  0  0  0  0
    1.3926    0.0035   -0.0015 C   0  0  0  0  0  0  0  0  0  0  0  0
    0.6887   -1.1658   -0.0000 N   0  0  0  0  0  0  0  0  0  0  0  0
   -1.2786   -2.3209    0.0027 O   0  0  0  0  0  0  0  0  0  0  0  0
    3.0544    0.0240   -0.0062 S   0  0  0  0  0  0  0  0  0  0  0  0
   -2.4842   -0.0211   -0.0027 H   0  0  0  0  0  0  0  0  0  0  0  0
    1.1790    2.0303    0.0017 H   0  0  0  0  0  0  0  0  0  0  0  0
   -1.1154    3.0874    0.8948 H   0  0  0  0  0  0  0  0  0  0  0  0
   -1.1150    3.0914   -0.8848 H   0  0  0  0  0  0  0  0  0  0  0  0
   -2.4840    2.4116    0.0033 H   0  0  0  0  0  0  0  0  0  0  0  0
    1.1981   -2.0371    0.0007 H   0  0  0  0  0  0  0  0  0  0  0  0
  1  2  2  0  0  0  0
  1  3  1  0  0  0  0
  1  4  1  0  0  0  0
  2  5  1  0  0  0  0
  2 10  1  0  0  0  0
  3  6  1  0  0  0  0
  3 11  1  0  0  0  0
  4 12  1  0  0  0  0
  4 13  1  0  0  0  0
  4 14  1  0  0  0  0
  5  7  1  0  0  0  0
  5  8  2  0  0  0  0
  6  9  2  0  0  0  0
  6  7  1  0  0  0  0
  7 15  1  0  0  0  0
M  END
>  <DRUGBANK_ID>
DB13644

>  <COMMON_NAME>
Methylthiouracil

>  <CAS_NUMBER>
56-04-2

>  <UNII>
QW24888U5F

>  <SYNONYMS>
Methylthiouracil; Methylthiouracile; Methylthiouracilum; Metiltiouracilo

$$$$
