
 OpenBabel10282417143D

 13 12  0  0  0  0  0  0  0  0999 V2000
    0.9054    0.0313    0.0404 C   0  0  2  0  0  0  0  0  0  0  0  0
    0.4188   -0.6389   -1.1276 O   0  0  0  0  0  0  0  0  0  0  0  0
    0.3990   -0.7201    1.2744 C   0  0  0  0  0  0  0  0  0  0  0  0
    0.8652   -2.0676    1.2490 O   0  0  0  0  0  0  0  0  0  0  0  0
    0.4143    1.4698    0.0401 C   0  0  0  0  0  0  0  0  0  0  0  0
    1.9998   -0.0066    0.0029 H   0  0  0  0  0  0  0  0  0  0  0  0
    0.7705   -0.1584   -1.9002 H   0  0  0  0  0  0  0  0  0  0  0  0
    0.7557   -0.2498    2.1955 H   0  0  0  0  0  0  0  0  0  0  0  0
   -0.6952   -0.7533    1.2935 H   0  0  0  0  0  0  0  0  0  0  0  0
    0.5928   -2.4110    0.3755 H   0  0  0  0  0  0  0  0  0  0  0  0
    0.7641    1.9991   -0.8523 H   0  0  0  0  0  0  0  0  0  0  0  0
   -0.6806    1.5066    0.0189 H   0  0  0  0  0  0  0  0  0  0  0  0
    0.7656    2.0075    0.9259 H   0  0  0  0  0  0  0  0  0  0  0  0
  1  5  1  0  0  0  0
  1  3  1  0  0  0  0
  1  6  1  6  0  0  0
  2  1  1  0  0  0  0
  2  7  1  0  0  0  0
  3  8  1  0  0  0  0
  3  9  1  0  0  0  0
  4  3  1  0  0  0  0
  4 10  1  0  0  0  0
  5 11  1  0  0  0  0
  5 12  1  0  0  0  0
  5 13  1  0  0  0  0
M  END
>  <DRUGBANK_ID>
DB04349

>  <SECONDARY_ACCESSION_NUMBERS>
EXPT02573

>  <COMMON_NAME>
(S)-propane-1,2-diol

>  <CAS_NUMBER>
4254-15-3

>  <UNII>
942194N4TD

>  <SYNONYMS>
(S)-1,2-Propanediol; (S)-propane-1,2-diol; (S)-Propylene glycol; S-1,2-Propanediol

$$$$
