
 OpenBabel10282417233D

 14 12  0  0  0  0  0  0  0  0999 V2000
   -0.0000    0.1310   -0.0020 Au  0  0  0  0  0  0  0  0  0  0  0  0
    0.9540   -0.6120    0.9350 O   0  0  0  0  0  0  0  0  0  0  0  0
   -0.9540   -0.6290   -0.9240 O   0  0  0  0  0  0  0  0  0  0  0  0
    1.2130    0.8770   -0.5590 S   0  0  0  0  0  0  0  0  0  0  0  0
   -1.2130    0.8870    0.5450 S   0  0  0  0  0  0  0  0  0  0  0  0
    2.0550   -0.3280   -0.1030 S   0  0  0  0  0  0  0  0  0  0  0  0
   -2.0550   -0.3260    0.1080 S   0  0  0  0  0  0  0  0  0  0  0  0
    3.5245   -0.1805    0.2985 O   0  0  0  0  0  0  0  0  0  0  0  0
    2.2337   -1.4199   -1.1604 O   0  0  0  0  0  0  0  0  0  0  0  0
   -3.5238   -0.1840   -0.2979 O   0  0  0  0  0  0  0  0  0  0  0  0
   -2.2353   -1.3995    1.1838 O   0  0  0  0  0  0  0  0  0  0  0  0
    1.0367   -0.0101   -0.0925 Na  0  3  0  0  0  0  0  0  0  0  0  0
    0.9684    0.0796    0.0516 Na  0  3  0  0  0  0  0  0  0  0  0  0
    0.9217   -0.0490    0.0384 Na  0  3  0  0  0  0  0  0  0  0  0  0
  1  2  1  0  0  0  0
  1  3  1  0  0  0  0
  1  4  1  0  0  0  0
  1  5  1  0  0  0  0
  2  6  1  0  0  0  0
  3  7  1  0  0  0  0
  4  6  1  0  0  0  0
  5  7  1  0  0  0  0
  6  8  2  0  0  0  0
  6  9  2  0  0  0  0
  7 10  2  0  0  0  0
  7 11  2  0  0  0  0
M  CHG  3  12   1  13   1  14   1
M  END
>  <DRUGBANK_ID>
DB15974

>  <COMMON_NAME>
Gold sodium thiosulfate

>  <CAS_NUMBER>
15283-45-1

>  <UNII>
6GKU52ZCI0

>  <SYNONYMS>
Gold sodium thiosulfate anhydrous; Sodium aurothiosulfate; Sodium aurothiosulfate anhydrous

$$$$
