
 OpenBabel10282417233D

 38 39  0  0  0  0  0  0  0  0999 V2000
    0.8334   -0.0536    0.1010 F   0  0  0  0  0  0  0  0  0  0  0  0
    2.1666   -0.0723    0.2656 C   0  0  0  0  0  0  0  0  0  0  0  0
    2.5417    0.8926    1.1148 F   0  0  0  0  0  0  0  0  0  0  0  0
    2.5551   -1.2901    0.6709 F   0  0  0  0  0  0  0  0  0  0  0  0
    2.8037    0.1764   -0.9134 O   0  0  0  0  0  0  0  0  0  0  0  0
    4.1583    0.3458   -0.6623 C   0  0  0  0  0  0  0  0  0  0  0  0
    5.3473   -0.3087    0.2551 C   0  0  0  0  0  0  0  0  0  0  0  0
    7.1172   -0.4502   -0.2586 C   0  0  0  0  0  0  0  0  0  0  0  0
    7.6118   -0.2185   -1.9575 C   0  0  0  0  0  0  0  0  0  0  0  0
    8.7905    0.2252   -2.4530 N   0  0  0  0  0  0  0  0  0  0  0  0
    8.9483    1.2588   -3.3636 C   0  0  0  0  0  0  0  0  0  0  0  0
   10.2049    1.3550   -3.7279 N   0  0  0  0  0  0  0  0  0  0  0  0
    7.9454    2.1686   -3.8795 N   0  0  0  0  0  0  0  0  0  0  0  0
    6.5401    2.4989   -3.8787 C   0  0  0  0  0  0  0  0  0  0  0  0
    5.8560    3.2983   -4.6435 N   0  0  0  0  0  0  0  0  0  0  0  0
    5.5887    1.8684   -3.0863 N   0  0  0  0  0  0  0  0  0  0  0  0
    6.2260    1.1263   -1.3706 C   0  0  0  0  0  0  0  0  0  0  0  0
    5.7530   -1.0535   -1.6621 C   0  0  0  0  0  0  0  0  0  0  0  0
    4.5920   -1.2782   -2.8698 C   0  0  0  0  0  0  0  0  0  0  0  0
    4.5404    0.3949   -3.9499 C   0  0  0  0  0  0  0  0  0  0  0  0
    6.3360    0.1192   -2.9370 C   0  0  0  0  0  0  0  0  0  0  0  0
    4.5983    0.5748   -2.0023 C   0  0  0  0  0  0  0  0  0  0  0  0
    4.7975   -1.3124    0.3886 H   0  0  0  0  0  0  0  0  0  0  0  0
    7.5803   -1.4487   -0.1037 H   0  0  0  0  0  0  0  0  0  0  0  0
    9.5034   -0.3769   -2.0796 H   0  0  0  0  0  0  0  0  0  0  0  0
   10.6923    0.6070   -3.2057 H   0  0  0  0  0  0  0  0  0  0  0  0
    8.4100    2.7411   -4.5833 H   0  0  0  0  0  0  0  0  0  0  0  0
    6.3536    3.8153   -5.3400 H   0  0  0  0  0  0  0  0  0  0  0  0
    5.7474    1.7067   -0.5312 H   0  0  0  0  0  0  0  0  0  0  0  0
    7.2520    1.5911   -1.2147 H   0  0  0  0  0  0  0  0  0  0  0  0
    6.5906   -1.7494   -2.2296 H   0  0  0  0  0  0  0  0  0  0  0  0
    5.7918   -1.9058   -0.9206 H   0  0  0  0  0  0  0  0  0  0  0  0
    4.8162   -2.2511   -3.2967 H   0  0  0  0  0  0  0  0  0  0  0  0
    3.7385   -1.4593   -2.1891 H   0  0  0  0  0  0  0  0  0  0  0  0
    4.9502   -0.0123   -4.8663 H   0  0  0  0  0  0  0  0  0  0  0  0
    3.4514    0.5903   -3.8367 H   0  0  0  0  0  0  0  0  0  0  0  0
    6.6093    0.3327   -3.9783 H   0  0  0  0  0  0  0  0  0  0  0  0
    3.9582    1.5410   -2.3086 H   0  0  0  0  0  0  0  0  0  0  0  0
  1  2  1  0  0  0  0
  2  3  1  0  0  0  0
  2  4  1  0  0  0  0
  2  5  1  0  0  0  0
  5  6  1  0  0  0  0
  6  7  2  0  0  0  0
  6 22  1  0  0  0  0
  7  8  1  0  0  0  0
  7 23  1  0  0  0  0
  8  9  2  0  0  0  0
  8 24  1  0  0  0  0
  9 10  1  0  0  0  0
  9 21  1  0  0  0  0
 10 11  1  0  0  0  0
 10 25  1  0  0  0  0
 11 12  2  0  0  0  0
 11 13  1  0  0  0  0
 12 26  1  0  0  0  0
 13 14  1  0  0  0  0
 13 27  1  0  0  0  0
 14 15  2  0  0  0  0
 14 16  1  0  0  0  0
 15 28  1  0  0  0  0
 16 17  1  0  0  0  0
 16 20  1  0  0  0  0
 17 18  1  0  0  0  0
 17 29  1  0  0  0  0
 17 30  1  0  0  0  0
 18 19  1  0  0  0  0
 18 31  1  0  0  0  0
 18 32  1  0  0  0  0
 19 20  1  0  0  0  0
 19 33  1  0  0  0  0
 19 34  1  0  0  0  0
 20 35  1  0  0  0  0
 20 36  1  0  0  0  0
 21 22  2  0  0  0  0
 21 37  1  0  0  0  0
 22 38  1  0  0  0  0
M  END
>  <DRUGBANK_ID>
DB17121

>  <COMMON_NAME>
IM-156 free base

>  <CAS_NUMBER>
1422365-93-2

>  <UNII>
4G3BUV6ZSK

>  <SYNONYMS>
1-pyrrolidinecarboximidamide, n-(imino((4-(trifluoromethoxy)phenyl)amino)methyl)-; Hl-156a free base; Hl156a free base; Im156 free base; N-(imino((4-(trifluoromethoxy)phenyl)amino)methyl)-1-pyrrolidinecarboximidamide

$$$$
