1299
 OpenBabel10282417113D

 35 36  0  0  0  0  0  0  0  0999 V2000
    0.8484   -0.0310    0.5321 S   0  0  0  0  0  0  0  0  0  0  0  0
    0.3367   -0.8154   -0.5722 O   0  0  0  0  0  0  0  0  0  0  0  0
    0.3951   -0.4010    1.8661 O   0  0  0  0  0  0  0  0  0  0  0  0
    2.2387    1.9646   -2.2749 O   0  0  0  0  0  0  0  0  0  0  0  0
    4.2400    3.8362   -1.7238 O   0  0  0  0  0  0  0  0  0  0  0  0
    0.3483    1.5644    0.2043 N   0  0  0  0  0  0  0  0  0  0  0  0
    1.0054    3.6773    0.7624 N   0  0  0  0  0  0  0  0  0  0  0  0
    6.8981   -0.0955   -0.1900 N   0  0  0  0  0  0  0  0  0  0  0  0
    2.9484    4.7443   -0.1086 N   0  0  0  0  0  0  0  0  0  0  0  0
    2.6961   -0.1395    0.5388 C   0  0  0  0  0  0  0  0  0  0  0  0
    1.1648    2.6849   -0.1417 C   0  0  0  0  0  0  0  0  0  0  0  0
    3.4840    1.0039    0.6709 C   0  0  0  0  0  0  0  0  0  0  0  0
    3.3681   -1.3233    0.2016 C   0  0  0  0  0  0  0  0  0  0  0  0
    2.0850    2.7608   -1.1888 C   0  0  0  0  0  0  0  0  0  0  0  0
    4.8499    1.0287    0.3574 C   0  0  0  0  0  0  0  0  0  0  0  0
    4.7866   -1.3224    0.0609 C   0  0  0  0  0  0  0  0  0  0  0  0
    5.5423   -0.1461    0.1434 C   0  0  0  0  0  0  0  0  0  0  0  0
    3.0387    3.7769   -1.0474 C   0  0  0  0  0  0  0  0  0  0  0  0
    1.8965    4.6820    0.7129 C   0  0  0  0  0  0  0  0  0  0  0  0
    1.5917    0.7328   -2.3735 C   0  0  0  0  0  0  0  0  0  0  0  0
    4.6107    2.7597   -2.5876 C   0  0  0  0  0  0  0  0  0  0  0  0
   -0.6553    1.7130    0.1135 H   0  0  0  0  0  0  0  0  0  0  0  0
    7.4322   -0.9244    0.0513 H   0  0  0  0  0  0  0  0  0  0  0  0
    7.3781    0.7601    0.0861 H   0  0  0  0  0  0  0  0  0  0  0  0
    3.0671    1.9515    0.9573 H   0  0  0  0  0  0  0  0  0  0  0  0
    2.8258   -2.2516    0.0331 H   0  0  0  0  0  0  0  0  0  0  0  0
    5.3545    1.9919    0.2703 H   0  0  0  0  0  0  0  0  0  0  0  0
    5.3056   -2.2593   -0.1299 H   0  0  0  0  0  0  0  0  0  0  0  0
    1.7825    5.4995    1.4226 H   0  0  0  0  0  0  0  0  0  0  0  0
    1.9884    0.1146   -1.5989 H   0  0  0  0  0  0  0  0  0  0  0  0
    0.5115    0.8704   -2.3629 H   0  0  0  0  0  0  0  0  0  0  0  0
    1.9110    0.1553   -3.2397 H   0  0  0  0  0  0  0  0  0  0  0  0
    4.6886    1.8008   -2.0663 H   0  0  0  0  0  0  0  0  0  0  0  0
    3.9234    2.6870   -3.4331 H   0  0  0  0  0  0  0  0  0  0  0  0
    5.5952    2.9572   -3.0172 H   0  0  0  0  0  0  0  0  0  0  0  0
  1  2  2  0  0  0  0
  1  3  2  0  0  0  0
  1  6  1  0  0  0  0
  1 10  1  0  0  0  0
  4 14  1  0  0  0  0
  4 20  1  0  0  0  0
  5 18  1  0  0  0  0
  5 21  1  0  0  0  0
  6 11  1  0  0  0  0
  6 22  1  0  0  0  0
  7 11  1  0  0  0  0
  7 19  2  0  0  0  0
  8 17  1  0  0  0  0
  8 23  1  0  0  0  0
  8 24  1  0  0  0  0
  9 18  2  0  0  0  0
  9 19  1  0  0  0  0
 10 12  2  0  0  0  0
 10 13  1  0  0  0  0
 11 14  2  0  0  0  0
 12 15  1  0  0  0  0
 12 25  1  0  0  0  0
 13 16  2  0  0  0  0
 13 26  1  0  0  0  0
 14 18  1  0  0  0  0
 15 17  2  0  0  0  0
 15 27  1  0  0  0  0
 16 17  1  0  0  0  0
 16 28  1  0  0  0  0
 19 29  1  0  0  0  0
 20 30  1  0  0  0  0
 20 31  1  0  0  0  0
 20 32  1  0  0  0  0
 21 33  1  0  0  0  0
 21 34  1  0  0  0  0
 21 35  1  0  0  0  0
M  END
>  <DRUGBANK_ID>
DB01299

>  <COMMON_NAME>
Sulfadoxine

>  <CAS_NUMBER>
2447-57-6

>  <UNII>
88463U4SM5

>  <SYNONYMS>
4-Sulfanilamido-5,6-dimethoxypyrimidine; Sulfadoxina; Sulfadoxine; Sulfadoxinum; Sulforthomidine; Sulphadoxine; Sulphormethoxine

$$$$
