IAV
 OpenBabel10282417173D

 38 39  0  0  0  0  0  0  0  0999 V2000
    4.8022    4.0291   -0.6607 O   0  0  0  0  0  0  0  0  0  0  0  0
    4.1086    3.1186   -0.1936 C   0  0  0  0  0  0  0  0  0  0  0  0
    4.7234    2.2623    0.6774 N   0  0  0  0  0  0  0  0  0  0  0  0
    4.4187    0.8406    0.9153 C   0  0  2  0  0  0  0  0  0  0  0  0
    2.9216    0.5507    1.0271 C   0  0  0  0  0  0  0  0  0  0  0  0
    2.2703   -0.1267    0.2530 O   0  0  0  0  0  0  0  0  0  0  0  0
    2.3475    1.2069    2.0582 O   0  0  0  0  0  0  0  0  0  0  0  0
    5.0453    0.3654    2.2489 C   0  0  0  0  0  0  0  0  0  0  0  0
    4.5715   -1.0577    2.5802 C   0  0  0  0  0  0  0  0  0  0  0  0
    6.5718    0.3968    2.2323 C   0  0  0  0  0  0  0  0  0  0  0  0
    2.6232    3.0007   -0.5203 C   0  0  0  0  0  0  0  0  0  0  0  0
    1.6842    3.7300    0.4000 C   0  0  0  0  0  0  0  0  0  0  0  0
    0.3765    3.3646    0.6896 C   0  0  0  0  0  0  0  0  0  0  0  0
   -0.1735    4.3181    1.5089 N   0  0  0  0  0  0  0  0  0  0  0  0
    0.7390    5.3208    1.7414 C   0  0  0  0  0  0  0  0  0  0  0  0
    0.6159    6.5271    2.4464 C   0  0  0  0  0  0  0  0  0  0  0  0
    1.9223    4.9528    1.0995 C   0  0  0  0  0  0  0  0  0  0  0  0
    3.0332    5.8080    1.2133 C   0  0  0  0  0  0  0  0  0  0  0  0
    2.9273    7.0188    1.8862 C   0  0  0  0  0  0  0  0  0  0  0  0
    1.7288    7.3779    2.4843 C   0  0  0  0  0  0  0  0  0  0  0  0
    4.8283    0.2707    0.0715 H   0  0  0  0  0  0  0  0  0  0  0  0
    5.7094    2.5013    0.7129 H   0  0  0  0  0  0  0  0  0  0  0  0
    1.3850    1.1942    1.8930 H   0  0  0  0  0  0  0  0  0  0  0  0
    4.7116    1.0382    3.0523 H   0  0  0  0  0  0  0  0  0  0  0  0
    4.8922   -1.7571    1.8015 H   0  0  0  0  0  0  0  0  0  0  0  0
    4.9607   -1.3868    3.5453 H   0  0  0  0  0  0  0  0  0  0  0  0
    3.4804   -1.1255    2.6512 H   0  0  0  0  0  0  0  0  0  0  0  0
    6.9585    1.4043    2.0542 H   0  0  0  0  0  0  0  0  0  0  0  0
    6.9638    0.0669    3.2005 H   0  0  0  0  0  0  0  0  0  0  0  0
    6.9685   -0.2666    1.4580 H   0  0  0  0  0  0  0  0  0  0  0  0
    2.4762    3.3217   -1.5547 H   0  0  0  0  0  0  0  0  0  0  0  0
    2.3234    1.9656   -0.5606 H   0  0  0  0  0  0  0  0  0  0  0  0
   -0.2164    2.5185    0.3631 H   0  0  0  0  0  0  0  0  0  0  0  0
   -1.1241    4.3130    1.8555 H   0  0  0  0  0  0  0  0  0  0  0  0
   -0.3127    6.8167    2.9260 H   0  0  0  0  0  0  0  0  0  0  0  0
    3.9847    5.5652    0.7605 H   0  0  0  0  0  0  0  0  0  0  0  0
    3.7933    7.6737    1.9129 H   0  0  0  0  0  0  0  0  0  0  0  0
    1.6630    8.3397    2.9842 H   0  0  0  0  0  0  0  0  0  0  0  0
  1  2  2  0  0  0  0
  2  3  1  0  0  0  0
  2 11  1  0  0  0  0
  3 22  1  0  0  0  0
  4  8  1  0  0  0  0
  4 21  1  6  0  0  0
  4  5  1  0  0  0  0
  4  3  1  0  0  0  0
  5  6  2  0  0  0  0
  5  7  1  0  0  0  0
  7 23  1  0  0  0  0
  8  9  1  0  0  0  0
  8 10  1  0  0  0  0
  8 24  1  0  0  0  0
  9 25  1  0  0  0  0
  9 26  1  0  0  0  0
  9 27  1  0  0  0  0
 10 28  1  0  0  0  0
 10 29  1  0  0  0  0
 10 30  1  0  0  0  0
 11 12  1  0  0  0  0
 11 31  1  0  0  0  0
 11 32  1  0  0  0  0
 12 13  2  0  0  0  0
 12 17  1  0  0  0  0
 13 14  1  0  0  0  0
 13 33  1  0  0  0  0
 14 15  1  0  0  0  0
 14 34  1  0  0  0  0
 15 16  2  0  0  0  0
 15 17  1  0  0  0  0
 16 20  1  0  0  0  0
 16 35  1  0  0  0  0
 17 18  2  0  0  0  0
 18 19  1  0  0  0  0
 18 36  1  0  0  0  0
 19 20  2  0  0  0  0
 19 37  1  0  0  0  0
 20 38  1  0  0  0  0
M  END
>  <DRUGBANK_ID>
DB07953

>  <COMMON_NAME>
N-[1H-INDOL-3-YL-ACETYL]VALINE ACID

$$$$
