
 OpenBabel10282417133D

127132  0  0  1  0  0  0  0  0999 V2000
    1.3671    0.5462    0.1451 C   0  0  0  0  0  0  0  0  0  0  0  0
   -2.7872   -0.4114   -1.2406 C   0  0  0  0  0  0  0  0  0  0  0  0
    2.3032   -1.7933    1.0741 C   0  0  0  0  0  0  0  0  0  0  0  0
   -1.4928   -2.8078   -0.9385 C   0  0  0  0  0  0  0  0  0  0  0  0
   -2.9609   -2.8821   -4.4137 C   0  0  0  0  0  0  0  0  0  0  0  0
   -4.7747   -1.5240    2.2223 C   0  0  0  0  0  0  0  0  0  0  0  0
    0.4195   -7.1754   -2.5151 C   0  0  0  0  0  0  0  0  0  0  0  0
    0.7555   -0.5009    0.8714 C   0  0  2  0  0  0  0  0  0  0  0  0
   -2.8675   -2.2837   -1.7604 C   0  0  2  0  0  0  0  0  0  0  0  0
    0.9706   -2.3495    1.3054 C   0  0  2  0  0  0  0  0  0  0  0  0
   -2.9085   -3.7567   -2.3576 C   0  0  0  0  0  0  0  0  0  0  0  0
   -1.3288   -2.6616    1.2659 C   0  0  1  0  0  0  0  0  0  0  0  0
   -3.7031   -0.6195    1.7624 C   0  0  2  0  0  0  0  0  0  0  0  0
    0.5056   -6.0449   -1.7414 C   0  0  2  0  0  0  0  0  0  0  0  0
    1.0299   -2.4561   -0.1999 C   0  0  2  0  0  0  0  0  0  0  0  0
   -4.5026   -3.3222   -1.2360 C   0  0  2  0  0  0  0  0  0  0  0  0
   -3.0429   -3.8799    2.2522 C   0  0  1  0  0  0  0  0  0  0  0  0
    0.9778   -1.9527   -2.2848 C   0  0  1  0  0  0  0  0  0  0  0  0
   -3.7422   -3.3112    0.8789 C   0  0  1  0  0  0  0  0  0  0  0  0
   -4.3813   -4.7542    0.5330 C   0  0  2  0  0  0  0  0  0  0  0  0
    0.8841   -3.9752   -1.6267 C   0  0  2  0  0  0  0  0  0  0  0  0
   -4.3671   -1.7008   -0.7714 C   0  0  2  0  0  0  0  0  0  0  0  0
   -0.3760   -6.9202    0.3118 C   0  0  2  0  0  0  0  0  0  0  0  0
   -0.0905   -3.2607   -2.4477 C   0  0  2  0  0  0  0  0  0  0  0  0
   -0.9393   -1.1242   -2.2963 C   0  0  2  0  0  0  0  0  0  0  0  0
   -1.6968   -4.3628    1.6722 C   0  0  2  0  0  0  0  0  0  0  0  0
   -2.9606   -3.4293   -0.7055 C   0  0  2  0  0  0  0  0  0  0  0  0
   -1.9708   -6.3270   -0.4871 C   0  0  2  0  0  0  0  0  0  0  0  0
    0.9847   -4.1744   -0.1886 C   0  0  2  0  0  0  0  0  0  0  0  0
   -4.1450   -5.0930   -1.2411 C   0  0  2  0  0  0  0  0  0  0  0  0
   -4.0272   -0.2350    0.1986 C   0  0  2  0  0  0  0  0  0  0  0  0
    0.6783   -6.1110   -0.2246 C   0  0  2  0  0  0  0  0  0  0  0  0
   -0.1929   -1.4686   -0.9924 C   0  0  2  0  0  0  0  0  0  0  0  0
   -1.0827    0.5334   -0.7758 C   0  0  2  0  0  0  0  0  0  0  0  0
   -0.5613   -3.8827    0.0475 C   0  0  2  0  0  0  0  0  0  0  0  0
   -2.2583   -3.6449    0.4521 C   0  0  2  0  0  0  0  0  0  0  0  0
   -2.0160   -6.1420   -1.7989 C   0  0  2  0  0  0  0  0  0  0  0  0
   -0.0105   -3.4775    1.5328 N   0  0  0  0  0  0  0  0  0  0  0  0
   -2.6529   -1.1933   -4.0022 O   0  0  0  0  0  0  0  0  0  0  0  0
   -4.5920   -2.2722    3.3881 O   0  0  0  0  0  0  0  0  0  0  0  0
    0.1320   -6.7032   -3.8307 O   0  0  0  0  0  0  0  0  0  0  0  0
   -4.7760   -4.2000   -2.7420 O   0  0  0  0  0  0  0  0  0  0  0  0
   -2.5089   -5.4283    2.6039 O   0  0  0  0  0  0  0  0  0  0  0  0
    1.8742   -1.0992   -2.6417 O   0  0  0  0  0  0  0  0  0  0  0  0
   -3.5716   -2.0802    0.7459 O   0  0  0  0  0  0  0  0  0  0  0  0
   -5.5523   -4.0625    0.9514 O   0  0  0  0  0  0  0  0  0  0  0  0
    2.1872   -3.6415   -1.7091 O   0  0  0  0  0  0  0  0  0  0  0  0
   -5.8094   -2.2776   -0.3708 O   0  0  0  0  0  0  0  0  0  0  0  0
   -0.6784   -8.1638   -0.0225 O   0  0  0  0  0  0  0  0  0  0  0  0
   -1.3726   -4.4036   -3.0098 O   0  0  0  0  0  0  0  0  0  0  0  0
   -2.0242   -1.5637   -0.4208 O   0  0  0  0  0  0  0  0  0  0  0  0
   -1.9229   -6.4874    1.4622 O   0  0  0  0  0  0  0  0  0  0  0  0
   -1.5891   -2.7121   -2.4388 O   0  0  0  0  0  0  0  0  0  0  0  0
   -2.5537   -5.4532    0.1265 O   0  0  0  0  0  0  0  0  0  0  0  0
    0.5705   -0.5072   -1.3343 O   0  0  0  0  0  0  0  0  0  0  0  0
   -0.3436   -1.4975    0.2578 O   0  0  0  0  0  0  0  0  0  0  0  0
   -0.7346    0.2613    0.8592 O   0  0  0  0  0  0  0  0  0  0  0  0
   -1.5731   -4.2433   -1.1883 O   0  0  0  0  0  0  0  0  0  0  0  0
   -2.5598   -2.1303    2.0243 O   0  0  0  0  0  0  0  0  0  0  0  0
   -0.7780   -5.8662   -2.2744 O   0  0  0  0  0  0  0  0  0  0  0  0
   -0.7337   -5.1702    0.5812 O   0  0  0  0  0  0  0  0  0  0  0  0
   -3.4233   -6.2721   -1.8644 O   0  0  0  0  0  0  0  0  0  0  0  0
   -2.8727    1.1145   -0.5147 O   0  0  0  0  0  0  0  0  0  0  0  0
    1.0357   -4.7019    1.1920 O   0  0  0  0  0  0  0  0  0  0  0  0
    0.8430   -0.8435    2.1387 H   0  0  0  0  0  0  0  0  0  0  0  0
   -2.5146   -2.7290   -3.2409 H   0  0  0  0  0  0  0  0  0  0  0  0
    0.0351   -2.2505    2.4391 H   0  0  0  0  0  0  0  0  0  0  0  0
   -1.2572   -1.4769    1.4936 H   0  0  0  0  0  0  0  0  0  0  0  0
   -2.8223   -0.1273    1.9383 H   0  0  0  0  0  0  0  0  0  0  0  0
    1.2742   -5.4503   -2.3169 H   0  0  0  0  0  0  0  0  0  0  0  0
    2.0470   -3.0024   -0.1001 H   0  0  0  0  0  0  0  0  0  0  0  0
   -5.0798   -2.7456   -1.8583 H   0  0  0  0  0  0  0  0  0  0  0  0
   -3.5627   -3.1488    2.4898 H   0  0  0  0  0  0  0  0  0  0  0  0
    1.2813   -2.8201   -2.9162 H   0  0  0  0  0  0  0  0  0  0  0  0
   -4.2782   -4.5429    1.9071 H   0  0  0  0  0  0  0  0  0  0  0  0
   -4.2872   -5.6530    0.1805 H   0  0  0  0  0  0  0  0  0  0  0  0
    0.0716   -4.4442   -1.9544 H   0  0  0  0  0  0  0  0  0  0  0  0
   -4.2917   -1.6490   -2.2476 H   0  0  0  0  0  0  0  0  0  0  0  0
   -0.2694   -6.6939    1.5578 H   0  0  0  0  0  0  0  0  0  0  0  0
   -0.3497   -2.7477   -3.4773 H   0  0  0  0  0  0  0  0  0  0  0  0
   -0.9954   -1.0871   -3.3068 H   0  0  0  0  0  0  0  0  0  0  0  0
   -1.1894   -4.1377    2.6581 H   0  0  0  0  0  0  0  0  0  0  0  0
   -2.8671   -4.5479   -1.0948 H   0  0  0  0  0  0  0  0  0  0  0  0
   -3.2358   -6.5441    0.3107 H   0  0  0  0  0  0  0  0  0  0  0  0
    1.8405   -5.4201    0.4103 H   0  0  0  0  0  0  0  0  0  0  0  0
   -5.3245   -4.6862   -1.1833 H   0  0  0  0  0  0  0  0  0  0  0  0
   -4.7921   -0.2678   -0.5458 H   0  0  0  0  0  0  0  0  0  0  0  0
    1.5614   -6.6762   -0.1264 H   0  0  0  0  0  0  0  0  0  0  0  0
   -1.4057   -0.6949   -1.2389 H   0  0  0  0  0  0  0  0  0  0  0  0
   -0.4697    0.8548   -1.4688 H   0  0  0  0  0  0  0  0  0  0  0  0
   -0.3704   -3.0008    0.1391 H   0  0  0  0  0  0  0  0  0  0  0  0
   -2.9816   -4.4777    0.9719 H   0  0  0  0  0  0  0  0  0  0  0  0
   -1.9123   -7.0867   -1.9097 H   0  0  0  0  0  0  0  0  0  0  0  0
    0.7879    1.2239    0.6151 H   0  0  0  0  0  0  0  0  0  0  0  0
    1.0242    0.8539   -0.8070 H   0  0  0  0  0  0  0  0  0  0  0  0
    2.3209    0.2040   -0.0355 H   0  0  0  0  0  0  0  0  0  0  0  0
   -2.0366    0.2744   -2.2284 H   0  0  0  0  0  0  0  0  0  0  0  0
   -3.4379   -0.6918   -1.7327 H   0  0  0  0  0  0  0  0  0  0  0  0
   -2.0461   -0.3736    0.1485 H   0  0  0  0  0  0  0  0  0  0  0  0
    2.2941   -0.8535    1.4063 H   0  0  0  0  0  0  0  0  0  0  0  0
    2.2897   -2.7743    1.4239 H   0  0  0  0  0  0  0  0  0  0  0  0
    2.3251   -1.4606   -0.0819 H   0  0  0  0  0  0  0  0  0  0  0  0
   -0.4682   -2.8428   -1.1442 H   0  0  0  0  0  0  0  0  0  0  0  0
   -1.6343   -3.2909   -4.4737 H   0  0  0  0  0  0  0  0  0  0  0  0
   -3.7083   -3.3083   -3.9759 H   0  0  0  0  0  0  0  0  0  0  0  0
   -5.6148   -1.2235    1.6954 H   0  0  0  0  0  0  0  0  0  0  0  0
   -5.0909   -2.2527    1.4997 H   0  0  0  0  0  0  0  0  0  0  0  0
    1.2953   -7.6282   -2.2252 H   0  0  0  0  0  0  0  0  0  0  0  0
   -0.4470   -7.6390   -2.1976 H   0  0  0  0  0  0  0  0  0  0  0  0
    0.5101   -4.0016    2.2960 H   0  0  0  0  0  0  0  0  0  0  0  0
   -3.2348   -0.8209   -3.3056 H   0  0  0  0  0  0  0  0  0  0  0  0
   -3.7432   -2.7710    3.6347 H   0  0  0  0  0  0  0  0  0  0  0  0
   -0.6860   -6.0813   -3.7210 H   0  0  0  0  0  0  0  0  0  0  0  0
   -4.4738   -5.1986   -2.7052 H   0  0  0  0  0  0  0  0  0  0  0  0
   -1.5701   -5.6125    1.4659 H   0  0  0  0  0  0  0  0  0  0  0  0
    1.4381   -0.4071   -2.1171 H   0  0  0  0  0  0  0  0  0  0  0  0
   -2.6403   -1.6248    0.8907 H   0  0  0  0  0  0  0  0  0  0  0  0
   -5.1643   -3.6330    1.8882 H   0  0  0  0  0  0  0  0  0  0  0  0
    2.1961   -2.6502   -1.4943 H   0  0  0  0  0  0  0  0  0  0  0  0
   -5.4355   -3.0463    0.1396 H   0  0  0  0  0  0  0  0  0  0  0  0
   -0.9392   -7.9154   -0.8931 H   0  0  0  0  0  0  0  0  0  0  0  0
   -1.5688   -3.8916   -2.1266 H   0  0  0  0  0  0  0  0  0  0  0  0
   -2.9401   -2.0512   -0.1994 H   0  0  0  0  0  0  0  0  0  0  0  0
   -2.3021   -7.2948    0.5382 H   0  0  0  0  0  0  0  0  0  0  0  0
   -2.1571   -1.7047   -2.9409 H   0  0  0  0  0  0  0  0  0  0  0  0
   -2.7592   -5.6842    1.1794 H   0  0  0  0  0  0  0  0  0  0  0  0
    1.0632   -1.1314   -0.8976 H   0  0  0  0  0  0  0  0  0  0  0  0
  1 94  1  0  0  0  0
  1 95  1  0  0  0  0
  1 96  1  0  0  0  0
  2 97  1  0  0  0  0
  2 98  1  0  0  0  0
  2 99  1  0  0  0  0
  3100  1  0  0  0  0
  3101  1  0  0  0  0
  3102  1  0  0  0  0
  4103  1  0  0  0  0
  5104  1  0  0  0  0
  5105  1  0  0  0  0
  6106  1  0  0  0  0
  6107  1  0  0  0  0
  7108  1  0  0  0  0
  7109  1  0  0  0  0
  8  1  1  0  0  0  0
  8 65  1  1  0  0  0
  9 66  1  6  0  0  0
  9  2  1  0  0  0  0
 10 67  1  1  0  0  0
 10  3  1  0  0  0  0
 11  4  2  0  0  0  0
 11  5  1  0  0  0  0
 12  4  1  0  0  0  0
 12 38  1  0  0  0  0
 12 68  1  1  0  0  0
 13 69  1  1  0  0  0
 13  6  1  0  0  0  0
 14 70  1  6  0  0  0
 14  7  1  0  0  0  0
 15  8  1  0  0  0  0
 15 71  1  1  0  0  0
 15 38  1  0  0  0  0
 16  9  1  0  0  0  0
 16 72  1  1  0  0  0
 16 42  1  0  0  0  0
 17 12  1  0  0  0  0
 17 73  1  1  0  0  0
 17 43  1  0  0  0  0
 18 15  1  0  0  0  0
 18 44  1  0  0  0  0
 18 74  1  6  0  0  0
 19 16  1  0  0  0  0
 19 45  1  0  0  0  0
 19 75  1  1  0  0  0
 20 17  1  0  0  0  0
 20 76  1  1  0  0  0
 20 46  1  0  0  0  0
 21 47  1  0  0  0  0
 21 77  1  6  0  0  0
 22 48  1  0  0  0  0
 22 78  1  6  0  0  0
 23 49  1  0  0  0  0
 23 79  1  1  0  0  0
 24 21  1  0  0  0  0
 24 80  1  6  0  0  0
 24 50  1  0  0  0  0
 25 18  1  0  0  0  0
 25 81  1  6  0  0  0
 25 51  1  0  0  0  0
 26 19  1  0  0  0  0
 26 82  1  1  0  0  0
 26 52  1  0  0  0  0
 27 22  1  0  0  0  0
 27 83  1  6  0  0  0
 27 53  1  0  0  0  0
 28 23  1  0  0  0  0
 28 84  1  1  0  0  0
 28 54  1  0  0  0  0
 29 10  1  0  0  0  0
 29 21  1  0  0  0  0
 29 61  1  0  0  0  0
 29 85  1  1  0  0  0
 30 11  1  0  0  0  0
 30 20  1  0  0  0  0
 30 62  1  0  0  0  0
 30 86  1  6  0  0  0
 31 13  1  0  0  0  0
 31 22  1  0  0  0  0
 31 63  1  0  0  0  0
 31 87  1  1  0  0  0
 32 14  1  0  0  0  0
 32 23  1  0  0  0  0
 32 88  1  1  0  0  0
 32 64  1  0  0  0  0
 33 24  1  0  0  0  0
 33 55  1  0  0  0  0
 33 89  1  6  0  0  0
 34 25  1  0  0  0  0
 34 90  1  6  0  0  0
 34 63  1  0  0  0  0
 35 26  1  0  0  0  0
 35 64  1  0  0  0  0
 35 91  1  1  0  0  0
 36 27  1  0  0  0  0
 36 92  1  1  0  0  0
 36 61  1  0  0  0  0
 37 28  1  0  0  0  0
 37 62  1  0  0  0  0
 37 93  1  6  0  0  0
 38110  1  0  0  0  0
 39  5  1  0  0  0  0
 39111  1  0  0  0  0
 40  6  1  0  0  0  0
 40112  1  0  0  0  0
 41  7  1  0  0  0  0
 41113  1  0  0  0  0
 42114  1  0  0  0  0
 43115  1  0  0  0  0
 44116  1  0  0  0  0
 45117  1  0  0  0  0
 46118  1  0  0  0  0
 47119  1  0  0  0  0
 48120  1  0  0  0  0
 49121  1  0  0  0  0
 50122  1  0  0  0  0
 51123  1  0  0  0  0
 52124  1  0  0  0  0
 53125  1  0  0  0  0
 54126  1  0  0  0  0
 55127  1  0  0  0  0
 56 10  1  0  0  0  0
 56 33  1  0  0  0  0
 57  8  1  0  0  0  0
 57 34  1  0  0  0  0
 58  9  1  0  0  0  0
 58 35  1  0  0  0  0
 59 13  1  0  0  0  0
 59 36  1  0  0  0  0
 60 14  1  0  0  0  0
 60 37  1  0  0  0  0
M  END
>  <DRUGBANK_ID>
DB03617

>  <SECONDARY_ACCESSION_NUMBERS>
EXPT00392

>  <COMMON_NAME>
Modified Acarbose Hexasaccharide

$$$$
