L1R
 OpenBabel10282417173D

 45 46  0  0  0  0  0  0  0  0999 V2000
    1.2591    0.1293    0.0644 C   0  0  0  0  0  0  0  0  0  0  0  0
    0.6116   -1.1596   -0.3390 C   0  0  0  0  0  0  0  0  0  0  0  0
    1.1650   -2.3651    0.4594 C   0  0  0  0  0  0  0  0  0  0  0  0
   -0.8332   -1.0377   -0.3616 O   0  0  0  0  0  0  0  0  0  0  0  0
   -1.5642   -0.9405    0.7820 C   0  0  0  0  0  0  0  0  0  0  0  0
   -1.3146   -0.0583    1.8026 C   0  0  0  0  0  0  0  0  0  0  0  0
   -2.1290   -0.0243    2.9292 C   0  0  0  0  0  0  0  0  0  0  0  0
   -3.2608   -0.8377    3.0156 C   0  0  0  0  0  0  0  0  0  0  0  0
   -3.6124   -1.6462    1.9327 C   0  0  0  0  0  0  0  0  0  0  0  0
   -4.8436   -2.3398    1.9695 N   0  0  0  0  0  0  0  0  0  0  0  0
   -5.4475   -3.1935    1.0500 C   0  0  0  0  0  0  0  0  0  0  0  0
   -6.6167   -3.5040    1.1653 O   0  0  0  0  0  0  0  0  0  0  0  0
   -4.6712   -3.8077   -0.0568 C   0  0  0  0  0  0  0  0  0  0  0  0
   -3.5004   -4.5061    0.2381 C   0  0  0  0  0  0  0  0  0  0  0  0
   -2.6932   -5.0418   -0.7786 C   0  0  0  0  0  0  0  0  0  0  0  0
   -1.2774   -5.8440   -0.1606 Cl  0  0  0  0  0  0  0  0  0  0  0  0
   -3.0216   -4.8230   -2.1387 C   0  0  0  0  0  0  0  0  0  0  0  0
   -2.2086   -4.9479   -3.2609 O   0  0  0  0  0  0  0  0  0  0  0  0
   -0.7627   -5.0005   -3.1688 C   0  0  0  0  0  0  0  0  0  0  0  0
   -0.0841   -3.7152   -2.6742 C   0  0  0  0  0  0  0  0  0  0  0  0
   -0.9248   -3.2509   -1.6256 N   0  0  0  0  0  0  0  0  0  0  0  0
   -4.2892   -4.2454   -2.4015 C   0  0  0  0  0  0  0  0  0  0  0  0
   -4.9406   -4.2418   -4.0081 Cl  0  0  0  0  0  0  0  0  0  0  0  0
   -5.0943   -3.7059   -1.3802 C   0  0  0  0  0  0  0  0  0  0  0  0
   -2.7530   -1.6571    0.8287 C   0  0  0  0  0  0  0  0  0  0  0  0
    1.2033    0.2336    1.1448 H   0  0  0  0  0  0  0  0  0  0  0  0
    0.7468    0.9657   -0.4205 H   0  0  0  0  0  0  0  0  0  0  0  0
    2.3171    0.1244   -0.1881 H   0  0  0  0  0  0  0  0  0  0  0  0
    0.8823   -1.3116   -1.3972 H   0  0  0  0  0  0  0  0  0  0  0  0
    0.7716   -2.3696    1.4768 H   0  0  0  0  0  0  0  0  0  0  0  0
    0.9105   -3.3550    0.0588 H   0  0  0  0  0  0  0  0  0  0  0  0
    2.2568   -2.3495    0.4647 H   0  0  0  0  0  0  0  0  0  0  0  0
   -0.5469    0.6894    1.7151 H   0  0  0  0  0  0  0  0  0  0  0  0
   -1.8839    0.6897    3.7085 H   0  0  0  0  0  0  0  0  0  0  0  0
   -3.8736   -0.7697    3.9107 H   0  0  0  0  0  0  0  0  0  0  0  0
   -5.4715   -2.1124    2.7361 H   0  0  0  0  0  0  0  0  0  0  0  0
   -3.1328   -4.5103    1.2643 H   0  0  0  0  0  0  0  0  0  0  0  0
   -0.4814   -5.8673   -2.5729 H   0  0  0  0  0  0  0  0  0  0  0  0
   -0.3661   -5.1961   -4.1707 H   0  0  0  0  0  0  0  0  0  0  0  0
    0.9437   -3.9238   -2.3410 H   0  0  0  0  0  0  0  0  0  0  0  0
   -0.0227   -2.9261   -3.4295 H   0  0  0  0  0  0  0  0  0  0  0  0
   -0.5500   -2.7511   -0.8529 H   0  0  0  0  0  0  0  0  0  0  0  0
   -1.7325   -2.7364   -1.9474 H   0  0  0  0  0  0  0  0  0  0  0  0
   -6.0213   -3.1874   -1.6202 H   0  0  0  0  0  0  0  0  0  0  0  0
   -2.9957   -2.1774   -0.0783 H   0  0  0  0  0  0  0  0  0  0  0  0
  1  2  1  0  0  0  0
  1 26  1  0  0  0  0
  1 27  1  0  0  0  0
  1 28  1  0  0  0  0
  2  3  1  0  0  0  0
  2  4  1  0  0  0  0
  2 29  1  0  0  0  0
  3 30  1  0  0  0  0
  3 31  1  0  0  0  0
  3 32  1  0  0  0  0
  4  5  1  0  0  0  0
  5  6  1  0  0  0  0
  5 25  2  0  0  0  0
  6  7  2  0  0  0  0
  6 33  1  0  0  0  0
  7  8  1  0  0  0  0
  7 34  1  0  0  0  0
  8  9  2  0  0  0  0
  8 35  1  0  0  0  0
  9 10  1  0  0  0  0
  9 25  1  0  0  0  0
 10 11  1  0  0  0  0
 10 36  1  0  0  0  0
 11 12  2  0  0  0  0
 11 13  1  0  0  0  0
 13 14  1  0  0  0  0
 13 24  2  0  0  0  0
 14 15  2  0  0  0  0
 14 37  1  0  0  0  0
 15 16  1  0  0  0  0
 15 17  1  0  0  0  0
 17 18  1  0  0  0  0
 17 22  2  0  0  0  0
 18 19  1  0  0  0  0
 19 20  1  0  0  0  0
 19 38  1  0  0  0  0
 19 39  1  0  0  0  0
 20 21  1  0  0  0  0
 20 40  1  0  0  0  0
 20 41  1  0  0  0  0
 21 42  1  0  0  0  0
 21 43  1  0  0  0  0
 22 23  1  0  0  0  0
 22 24  1  0  0  0  0
 24 44  1  0  0  0  0
 25 45  1  0  0  0  0
M  END
>  <DRUGBANK_ID>
DB08072

>  <COMMON_NAME>
4-(2-AMINOETHOXY)-3,5-DICHLORO-N-[3-(1-METHYLETHOXY)PHENYL]BENZAMIDE

$$$$
