
 OpenBabel10282417213D

 70 73  0  0  0  0  0  0  0  0999 V2000
   -1.3618    1.3421    5.9089 C   0  0  0  0  0  0  0  0  0  0  0  0
   -1.1132    1.7598    7.3007 C   0  0  0  0  0  0  0  0  0  0  0  0
   -2.5436    1.3717    5.4893 O   0  0  0  0  0  0  0  0  0  0  0  0
   -0.0114    1.0945    4.9894 C   0  0  2  0  0  0  0  0  0  0  0  0
   -1.9583    2.7640    7.8650 O   0  0  0  0  0  0  0  0  0  0  0  0
   -1.1089   -0.2528    5.1411 O   0  0  0  0  0  0  0  0  0  0  0  0
    2.0110    0.7581    4.6628 C   0  0  2  0  0  0  0  0  0  0  0  0
   -0.2292    2.4661    4.1890 C   0  0  0  0  0  0  0  0  0  0  0  0
   -2.0675    4.0379    7.3821 C   0  0  0  0  0  0  0  0  0  0  0  0
   -1.5459   -1.4956    4.7759 C   0  0  0  0  0  0  0  0  0  0  0  0
    2.8914    1.9175    3.5993 C   0  0  0  0  0  0  0  0  0  0  0  0
    0.8232    0.4116    4.0898 C   0  0  1  0  0  0  0  0  0  0  0  0
    2.7692   -0.5933    3.8828 C   0  0  0  0  0  0  0  0  0  0  0  0
    0.9505    2.1395    4.9216 C   0  0  0  0  0  0  0  0  0  0  0  0
   -1.8341    4.3206    5.9396 C   0  0  0  0  0  0  0  0  0  0  0  0
   -2.3842    4.9650    8.1196 O   0  0  0  0  0  0  0  0  0  0  0  0
   -3.0303   -1.6525    5.0387 C   0  0  0  0  0  0  0  0  0  0  0  0
   -0.9017   -2.3904    4.2941 O   0  0  0  0  0  0  0  0  0  0  0  0
    0.3901    0.1946    2.6734 C   0  0  1  0  0  0  0  0  0  0  0  0
    2.2476   -1.1350    2.3859 C   0  0  1  0  0  0  0  0  0  0  0  0
   -3.8160   -2.5129    4.0824 C   0  0  0  0  0  0  0  0  0  0  0  0
    0.6034   -1.2932    2.4434 C   0  0  2  0  0  0  0  0  0  0  0  0
   -1.0234    0.5397    2.5165 C   0  0  0  0  0  0  0  0  0  0  0  0
    2.7779   -0.3149    1.3309 O   0  0  0  0  0  0  0  0  0  0  0  0
   -0.7111   -2.1138    1.4460 C   0  0  2  0  0  0  0  0  0  0  0  0
   -1.7604    0.2799    1.2855 C   0  0  1  0  0  0  0  0  0  0  0  0
    0.3537   -2.9085    0.6669 C   0  0  0  0  0  0  0  0  0  0  0  0
   -1.3985   -1.0218    0.6195 C   0  0  0  0  0  0  0  0  0  0  0  0
   -2.1936   -3.2521    1.5649 C   0  0  0  0  0  0  0  0  0  0  0  0
   -3.1459    0.4001    1.9245 C   0  0  0  0  0  0  0  0  0  0  0  0
   -2.1288   -1.5516   -0.3967 C   0  0  0  0  0  0  0  0  0  0  0  0
   -3.2347   -3.3799    0.6461 C   0  0  0  0  0  0  0  0  0  0  0  0
   -3.4554   -2.0254    0.0998 C   0  0  0  0  0  0  0  0  0  0  0  0
   -4.4874   -1.3483    0.3408 O   0  0  0  0  0  0  0  0  0  0  0  0
    0.9405    0.8856    2.0577 H   0  0  0  0  0  0  0  0  0  0  0  0
    0.6827   -1.9619    3.2935 H   0  0  0  0  0  0  0  0  0  0  0  0
    0.8157   -0.5548    4.7911 H   0  0  0  0  0  0  0  0  0  0  0  0
   -1.0864    0.8265    7.8741 H   0  0  0  0  0  0  0  0  0  0  0  0
   -0.1379    2.1905    7.2918 H   0  0  0  0  0  0  0  0  0  0  0  0
    0.1171    2.5897    3.1433 H   0  0  0  0  0  0  0  0  0  0  0  0
   -0.3212    3.5113    4.4588 H   0  0  0  0  0  0  0  0  0  0  0  0
    2.4972    2.0049    2.5848 H   0  0  0  0  0  0  0  0  0  0  0  0
    2.9919    2.9661    3.9169 H   0  0  0  0  0  0  0  0  0  0  0  0
    3.9440    1.6320    3.5470 H   0  0  0  0  0  0  0  0  0  0  0  0
    3.8482   -0.3755    3.7948 H   0  0  0  0  0  0  0  0  0  0  0  0
    2.7162   -1.4292    4.5846 H   0  0  0  0  0  0  0  0  0  0  0  0
    1.6205    2.9835    4.8091 H   0  0  0  0  0  0  0  0  0  0  0  0
    1.0985    2.1157    6.0656 H   0  0  0  0  0  0  0  0  0  0  0  0
   -2.6983    4.6764    5.3814 H   0  0  0  0  0  0  0  0  0  0  0  0
   -0.9552    4.9508    5.7604 H   0  0  0  0  0  0  0  0  0  0  0  0
   -1.7019    3.3821    5.4817 H   0  0  0  0  0  0  0  0  0  0  0  0
   -3.0492   -2.1406    6.0018 H   0  0  0  0  0  0  0  0  0  0  0  0
   -3.5266   -0.6859    5.0096 H   0  0  0  0  0  0  0  0  0  0  0  0
    2.7413   -2.0952    2.2195 H   0  0  0  0  0  0  0  0  0  0  0  0
   -3.2402   -3.4060    3.8204 H   0  0  0  0  0  0  0  0  0  0  0  0
   -4.7899   -2.8530    4.4180 H   0  0  0  0  0  0  0  0  0  0  0  0
   -4.1155   -1.8998    3.2299 H   0  0  0  0  0  0  0  0  0  0  0  0
   -1.3402    1.5358    2.8003 H   0  0  0  0  0  0  0  0  0  0  0  0
   -1.4909   -0.0824    3.2260 H   0  0  0  0  0  0  0  0  0  0  0  0
    2.5880    0.6263    1.4446 H   0  0  0  0  0  0  0  0  0  0  0  0
   -1.5450    1.1035    0.6087 H   0  0  0  0  0  0  0  0  0  0  0  0
    0.6124   -3.8374    1.1814 H   0  0  0  0  0  0  0  0  0  0  0  0
    0.1756   -3.0175   -0.3949 H   0  0  0  0  0  0  0  0  0  0  0  0
    1.2855   -2.3430    0.6321 H   0  0  0  0  0  0  0  0  0  0  0  0
   -2.9868   -2.7932    2.1763 H   0  0  0  0  0  0  0  0  0  0  0  0
   -3.8561    0.5030    1.1386 H   0  0  0  0  0  0  0  0  0  0  0  0
   -3.2770   -0.4615    2.5709 H   0  0  0  0  0  0  0  0  0  0  0  0
   -3.3262    1.2359    2.6224 H   0  0  0  0  0  0  0  0  0  0  0  0
   -1.7017   -2.5253   -0.7141 H   0  0  0  0  0  0  0  0  0  0  0  0
   -3.4767   -4.1855   -0.0482 H   0  0  0  0  0  0  0  0  0  0  0  0
  1  2  1  0  0  0  0
  1  3  2  0  0  0  0
  2  5  1  0  0  0  0
  2 38  1  0  0  0  0
  2 39  1  0  0  0  0
  4  8  1  0  0  0  0
  4  6  1  6  0  0  0
  4  1  1  0  0  0  0
  5  9  1  0  0  0  0
  6 10  1  0  0  0  0
  7  4  1  0  0  0  0
  7 11  1  6  0  0  0
  7 13  1  0  0  0  0
  8 14  1  0  0  0  0
  8 40  1  0  0  0  0
  8 41  1  0  0  0  0
  9 15  1  0  0  0  0
  9 16  2  0  0  0  0
 10 17  1  0  0  0  0
 10 18  2  0  0  0  0
 11 42  1  0  0  0  0
 11 43  1  0  0  0  0
 11 44  1  0  0  0  0
 12  7  1  0  0  0  0
 12 14  1  0  0  0  0
 12 19  1  0  0  0  0
 12 37  1  1  0  0  0
 13 45  1  0  0  0  0
 13 46  1  0  0  0  0
 14 47  1  0  0  0  0
 14 48  1  0  0  0  0
 15 49  1  0  0  0  0
 15 50  1  0  0  0  0
 15 51  1  0  0  0  0
 17 21  1  0  0  0  0
 17 52  1  0  0  0  0
 17 53  1  0  0  0  0
 19 22  1  0  0  0  0
 19 23  1  0  0  0  0
 19 35  1  6  0  0  0
 20 13  1  0  0  0  0
 20 24  1  0  0  0  0
 20 54  1  6  0  0  0
 21 55  1  0  0  0  0
 21 56  1  0  0  0  0
 21 57  1  0  0  0  0
 22 20  1  0  0  0  0
 22 25  1  0  0  0  0
 22 36  1  1  0  0  0
 23 58  1  0  0  0  0
 23 59  1  0  0  0  0
 24 60  1  0  0  0  0
 25 27  1  6  0  0  0
 25 28  1  0  0  0  0
 25 29  1  0  0  0  0
 26 23  1  0  0  0  0
 26 28  1  0  0  0  0
 26 61  1  6  0  0  0
 26 30  1  0  0  0  0
 27 62  1  0  0  0  0
 27 63  1  0  0  0  0
 27 64  1  0  0  0  0
 28 31  2  0  0  0  0
 29 32  2  0  0  0  0
 29 65  1  0  0  0  0
 30 66  1  0  0  0  0
 30 67  1  0  0  0  0
 30 68  1  0  0  0  0
 31 33  1  0  0  0  0
 31 69  1  0  0  0  0
 32 33  1  0  0  0  0
 32 70  1  0  0  0  0
 33 34  2  0  0  0  0
M  END
>  <DRUGBANK_ID>
DB14643

>  <SECONDARY_ACCESSION_NUMBERS>
DBSALT002468

>  <COMMON_NAME>
Methylprednisolone aceponate

>  <CAS_NUMBER>
86401-95-8

>  <UNII>
ET54W9J4U2

>  <SYNONYMS>
Aceponato de metilprednisolona; Methylprednisolone aceponate; Methylprednisoloni aceponas

$$$$
