
 OpenBabel10282417113D

 33 33  0  0  0  0  0  0  0  0999 V2000
    1.0130    1.0392    0.3044 C   0  0  0  0  0  0  0  0  0  0  0  0
   -0.2594    1.3056    0.0535 C   0  0  0  0  0  0  0  0  0  0  0  0
   -0.8402    0.0959    0.1073 C   0  0  0  0  0  0  0  0  0  0  0  0
   -0.1611   -1.1754    0.5460 C   0  0  0  0  0  0  0  0  0  0  0  0
    1.0996   -1.3980    1.2373 C   0  0  0  0  0  0  0  0  0  0  0  0
    1.8572   -0.3507    1.0172 C   0  0  0  0  0  0  0  0  0  0  0  0
   -2.5318    0.0840   -0.1074 Cl  0  0  0  0  0  0  0  0  0  0  0  0
    3.7234   -0.5202    0.9642 N   0  0  0  0  0  0  0  0  0  0  0  0
    4.6279   -1.4814    0.3692 C   0  0  0  0  0  0  0  0  0  0  0  0
    5.8911   -1.3346    0.0485 N   0  0  0  0  0  0  0  0  0  0  0  0
    4.0124   -2.6208    0.0008 N   0  0  0  0  0  0  0  0  0  0  0  0
    2.7760   -2.7546   -0.5068 C   0  0  0  0  0  0  0  0  0  0  0  0
    1.9799   -3.7846   -0.3119 N   0  0  0  0  0  0  0  0  0  0  0  0
    2.2217   -1.5270   -1.0012 N   0  0  0  0  0  0  0  0  0  0  0  0
    2.7688    0.2779   -0.6397 C   0  0  0  0  0  0  0  0  0  0  0  0
    2.2050    0.9367   -1.8976 C   0  0  0  0  0  0  0  0  0  0  0  0
    2.8366    1.2978    1.1805 C   0  0  0  0  0  0  0  0  0  0  0  0
    1.5959    2.0098   -0.0024 H   0  0  0  0  0  0  0  0  0  0  0  0
   -0.5295    2.3289   -0.1582 H   0  0  0  0  0  0  0  0  0  0  0  0
   -0.6148   -2.0405    0.0589 H   0  0  0  0  0  0  0  0  0  0  0  0
    1.9690   -2.0097    1.1514 H   0  0  0  0  0  0  0  0  0  0  0  0
    4.2273    0.4010    0.5893 H   0  0  0  0  0  0  0  0  0  0  0  0
    6.3427   -0.4269    0.2117 H   0  0  0  0  0  0  0  0  0  0  0  0
    4.5751   -3.4448    0.0706 H   0  0  0  0  0  0  0  0  0  0  0  0
    2.3747   -4.6175    0.1586 H   0  0  0  0  0  0  0  0  0  0  0  0
    1.2386   -1.8278   -0.8646 H   0  0  0  0  0  0  0  0  0  0  0  0
    3.7365   -0.0349   -1.0581 H   0  0  0  0  0  0  0  0  0  0  0  0
    1.1139    1.0045   -1.9692 H   0  0  0  0  0  0  0  0  0  0  0  0
    2.7025    1.8945   -1.8401 H   0  0  0  0  0  0  0  0  0  0  0  0
    2.4699    0.2579   -2.7044 H   0  0  0  0  0  0  0  0  0  0  0  0
    2.8983    0.7121    2.3091 H   0  0  0  0  0  0  0  0  0  0  0  0
    3.0812    2.3667    1.3357 H   0  0  0  0  0  0  0  0  0  0  0  0
    1.7057    1.4361    1.9186 H   0  0  0  0  0  0  0  0  0  0  0  0
  1  2  1  0  0  0  0
  1  6  2  0  0  0  0
  1 18  1  0  0  0  0
  2  3  2  0  0  0  0
  2 19  1  0  0  0  0
  3  4  1  0  0  0  0
  3  7  1  0  0  0  0
  4  5  2  0  0  0  0
  4 20  1  0  0  0  0
  5  6  1  0  0  0  0
  5 21  1  0  0  0  0
  6  8  1  0  0  0  0
  8  9  1  0  0  0  0
  8 22  1  0  0  0  0
  9 10  2  0  0  0  0
  9 11  1  0  0  0  0
 10 23  1  0  0  0  0
 11 12  1  0  0  0  0
 11 24  1  0  0  0  0
 12 13  2  0  0  0  0
 12 14  1  0  0  0  0
 13 25  1  0  0  0  0
 14 15  1  0  0  0  0
 14 26  1  0  0  0  0
 15 16  1  0  0  0  0
 15 17  1  0  0  0  0
 15 27  1  0  0  0  0
 16 28  1  0  0  0  0
 16 29  1  0  0  0  0
 16 30  1  0  0  0  0
 17 31  1  0  0  0  0
 17 32  1  0  0  0  0
 17 33  1  0  0  0  0
M  END
>  <DRUGBANK_ID>
DB01131

>  <SECONDARY_ACCESSION_NUMBERS>
APRD00188

>  <COMMON_NAME>
Proguanil

>  <CAS_NUMBER>
500-92-5

>  <UNII>
S61K3P7B2V

>  <SYNONYMS>
1-(p-Chlorophenyl)-5-isopropylbiguanide; Chlorguanide; Chloroguanide; Proguanil; Proguanile; Proguanilo; Proguanilum

$$$$
