SC0
 OpenBabel10282417173D

 59 58  0  0  0  0  0  0  0  0999 V2000
    0.9607    0.0508   -0.0753 C   0  0  0  0  0  0  0  0  0  0  0  0
    0.5102   -0.5795   -1.3835 C   0  0  0  0  0  0  0  0  0  0  0  0
    0.9890   -2.0288   -1.4978 C   0  0  0  0  0  0  0  0  0  0  0  0
    0.4327   -2.9280   -0.3832 C   0  0  0  0  0  0  0  0  0  0  0  0
   -1.0959   -2.9303   -0.3129 C   0  0  0  0  0  0  0  0  0  0  0  0
   -1.6911   -3.4665   -1.5809 C   0  0  0  0  0  0  0  0  0  0  0  0
   -2.4586   -4.5285   -1.6202 C   0  0  0  0  0  0  0  0  0  0  0  0
   -2.8761   -5.1392   -2.9246 C   0  0  0  0  0  0  0  0  0  0  0  0
   -2.3722   -6.6074   -3.1167 C   0  0  0  0  0  0  0  0  0  0  0  0
   -2.9822   -7.3113   -4.6920 P   0  0  0  0  0  0  0  0  0  0  0  0
   -2.5855   -5.8964   -5.3980 O   0  0  0  0  0  0  0  0  0  0  0  0
   -1.6396   -8.2067   -4.9016 O   0  0  0  0  0  0  0  0  0  0  0  0
   -3.4983   -7.9068   -6.0248 O   0  0  0  0  0  0  0  0  0  0  0  0
   -0.4650   -6.5321   -3.0947 P   0  0  0  0  0  0  0  0  0  0  0  0
   -0.2843   -7.9472   -2.3453 O   0  0  0  0  0  0  0  0  0  0  0  0
    0.1208   -6.8711   -4.5501 O   0  0  0  0  0  0  0  0  0  0  0  0
    0.4108   -5.5872   -2.3500 O   0  0  0  0  0  0  0  0  0  0  0  0
   -2.9096   -7.4770   -1.9501 C   0  0  0  0  0  0  0  0  0  0  0  0
   -4.4060   -7.4595   -1.8815 C   0  0  0  0  0  0  0  0  0  0  0  0
   -5.1224   -8.5730   -2.0076 C   0  0  0  0  0  0  0  0  0  0  0  0
   -6.6159   -8.5696   -2.0832 C   0  0  0  0  0  0  0  0  0  0  0  0
   -7.0726   -9.1915   -3.4048 C   0  0  0  0  0  0  0  0  0  0  0  0
   -6.6488  -10.6606   -3.5583 C   0  0  0  0  0  0  0  0  0  0  0  0
   -7.1442  -11.5459   -2.4118 C   0  0  0  0  0  0  0  0  0  0  0  0
   -8.6627  -11.5597   -2.3400 C   0  0  0  0  0  0  0  0  0  0  0  0
    0.5638   -0.4840    0.7933 H   0  0  0  0  0  0  0  0  0  0  0  0
    0.6108    1.0828   -0.0047 H   0  0  0  0  0  0  0  0  0  0  0  0
    2.0527    0.0418   -0.0092 H   0  0  0  0  0  0  0  0  0  0  0  0
   -0.5814   -0.5209   -1.4638 H   0  0  0  0  0  0  0  0  0  0  0  0
    0.9009   -0.0004   -2.2265 H   0  0  0  0  0  0  0  0  0  0  0  0
    0.7086   -2.4243   -2.4817 H   0  0  0  0  0  0  0  0  0  0  0  0
    2.0842   -2.0600   -1.4726 H   0  0  0  0  0  0  0  0  0  0  0  0
    0.8071   -3.9481   -0.5229 H   0  0  0  0  0  0  0  0  0  0  0  0
    0.8284   -2.6118    0.5875 H   0  0  0  0  0  0  0  0  0  0  0  0
   -1.4123   -3.5393    0.5413 H   0  0  0  0  0  0  0  0  0  0  0  0
   -1.4953   -1.9290   -0.1373 H   0  0  0  0  0  0  0  0  0  0  0  0
   -1.3933   -2.9676   -2.5128 H   0  0  0  0  0  0  0  0  0  0  0  0
   -2.7505   -5.0158   -0.6846 H   0  0  0  0  0  0  0  0  0  0  0  0
   -3.9638   -5.0766   -3.0192 H   0  0  0  0  0  0  0  0  0  0  0  0
   -2.4841   -4.4976   -3.7215 H   0  0  0  0  0  0  0  0  0  0  0  0
   -3.4156   -5.5403   -5.7952 H   0  0  0  0  0  0  0  0  0  0  0  0
   -1.0251   -8.5051   -4.1885 H   0  0  0  0  0  0  0  0  0  0  0  0
   -0.0654   -7.6892   -1.4191 H   0  0  0  0  0  0  0  0  0  0  0  0
   -0.5607   -6.9589   -5.2733 H   0  0  0  0  0  0  0  0  0  0  0  0
   -2.5717   -8.5114   -2.0781 H   0  0  0  0  0  0  0  0  0  0  0  0
   -2.5153   -7.1498   -0.9830 H   0  0  0  0  0  0  0  0  0  0  0  0
   -4.9306   -6.5137   -1.7496 H   0  0  0  0  0  0  0  0  0  0  0  0
   -4.6128   -9.5326   -2.0921 H   0  0  0  0  0  0  0  0  0  0  0  0
   -7.0162   -9.1073   -1.2188 H   0  0  0  0  0  0  0  0  0  0  0  0
   -7.0107   -7.5496   -2.0131 H   0  0  0  0  0  0  0  0  0  0  0  0
   -8.1621   -9.1052   -3.4773 H   0  0  0  0  0  0  0  0  0  0  0  0
   -6.6746   -8.6128   -4.2484 H   0  0  0  0  0  0  0  0  0  0  0  0
   -7.0245  -11.0454   -4.5128 H   0  0  0  0  0  0  0  0  0  0  0  0
   -5.5565  -10.7352   -3.6238 H   0  0  0  0  0  0  0  0  0  0  0  0
   -6.7715  -12.5656   -2.5537 H   0  0  0  0  0  0  0  0  0  0  0  0
   -6.7332  -11.2113   -1.4523 H   0  0  0  0  0  0  0  0  0  0  0  0
   -9.0804  -11.9400   -3.2770 H   0  0  0  0  0  0  0  0  0  0  0  0
   -9.0035  -12.1930   -1.5183 H   0  0  0  0  0  0  0  0  0  0  0  0
   -9.0719  -10.5594   -2.1672 H   0  0  0  0  0  0  0  0  0  0  0  0
  1  2  1  0  0  0  0
  1 26  1  0  0  0  0
  1 27  1  0  0  0  0
  1 28  1  0  0  0  0
  2  3  1  0  0  0  0
  2 29  1  0  0  0  0
  2 30  1  0  0  0  0
  3  4  1  0  0  0  0
  3 31  1  0  0  0  0
  3 32  1  0  0  0  0
  4  5  1  0  0  0  0
  4 33  1  0  0  0  0
  4 34  1  0  0  0  0
  5  6  1  0  0  0  0
  5 35  1  0  0  0  0
  5 36  1  0  0  0  0
  6  7  2  0  0  0  0
  6 37  1  0  0  0  0
  7  8  1  0  0  0  0
  7 38  1  0  0  0  0
  8  9  1  0  0  0  0
  8 39  1  0  0  0  0
  8 40  1  0  0  0  0
  9 18  1  0  0  0  0
  9 10  1  0  0  0  0
  9 14  1  0  0  0  0
 10 11  1  0  0  0  0
 10 12  1  0  0  0  0
 10 13  2  0  0  0  0
 11 41  1  0  0  0  0
 12 42  1  0  0  0  0
 14 15  1  0  0  0  0
 14 16  1  0  0  0  0
 14 17  2  0  0  0  0
 15 43  1  0  0  0  0
 16 44  1  0  0  0  0
 18 19  1  0  0  0  0
 18 45  1  0  0  0  0
 18 46  1  0  0  0  0
 19 20  2  0  0  0  0
 19 47  1  0  0  0  0
 20 21  1  0  0  0  0
 20 48  1  0  0  0  0
 21 22  1  0  0  0  0
 21 49  1  0  0  0  0
 21 50  1  0  0  0  0
 22 23  1  0  0  0  0
 22 51  1  0  0  0  0
 22 52  1  0  0  0  0
 23 24  1  0  0  0  0
 23 53  1  0  0  0  0
 23 54  1  0  0  0  0
 24 25  1  0  0  0  0
 24 55  1  0  0  0  0
 24 56  1  0  0  0  0
 25 57  1  0  0  0  0
 25 58  1  0  0  0  0
 25 59  1  0  0  0  0
M  END
>  <DRUGBANK_ID>
DB08529

>  <COMMON_NAME>
(6E,11E)-HEPTADECA-6,11-DIENE-9,9-DIYLBIS(PHOSPHONIC ACID)

$$$$
