
 OpenBabel10282417173D

 52 51  0  0  0  0  0  0  0  0999 V2000
    0.9029   -0.0175    0.0162 C   0  0  0  0  0  0  0  0  0  0  0  0
    0.3962   -1.0617   -0.9654 C   0  0  0  0  0  0  0  0  0  0  0  0
    0.9029   -2.4338   -0.5519 C   0  0  0  0  0  0  0  0  0  0  0  0
   -1.1238   -1.0617   -0.9654 C   0  0  0  0  0  0  0  0  0  0  0  0
   -1.7752   -2.2184   -0.9349 C   0  0  0  0  0  0  0  0  0  0  0  0
   -3.1399   -2.2487   -0.7786 C   0  0  0  0  0  0  0  0  0  0  0  0
   -3.8693   -1.0928   -0.7426 C   0  0  0  0  0  0  0  0  0  0  0  0
   -3.1823    0.0342   -0.7005 C   0  0  0  0  0  0  0  0  0  0  0  0
   -1.8032    0.1449   -0.9972 C   0  0  0  0  0  0  0  0  0  0  0  0
   -1.1508    1.4243   -1.3106 N   0  0  0  0  0  0  0  0  0  0  0  0
   -1.9372    2.6662   -1.3256 C   0  0  0  0  0  0  0  0  0  0  0  0
   -1.3731    3.7723   -1.5966 O   0  0  0  0  0  0  0  0  0  0  0  0
   -3.4251    2.6273   -1.0169 C   0  0  0  0  0  0  0  0  0  0  0  0
   -4.1056    1.7642   -1.9930 N   0  0  0  0  0  0  0  0  0  0  0  0
   -5.5445    1.7266   -1.6945 C   0  0  0  0  0  0  0  0  0  0  0  0
   -6.1158    3.1328   -1.7765 C   0  0  0  0  0  0  0  0  0  0  0  0
   -7.0414    3.3952   -2.6069 O   0  0  0  0  0  0  0  0  0  0  0  0
   -5.6154    4.1532   -0.9252 O   0  0  0  0  0  0  0  0  0  0  0  0
   -3.8998    2.2986   -3.3469 C   0  0  0  0  0  0  0  0  0  0  0  0
   -4.4712    3.7047   -3.4289 C   0  0  0  0  0  0  0  0  0  0  0  0
   -3.7136    4.6824   -3.7212 O   0  0  0  0  0  0  0  0  0  0  0  0
   -5.8514    3.9260   -3.1789 O   0  0  0  0  0  0  0  0  0  0  0  0
   -3.9246    1.3006   -0.3060 C   0  0  0  0  0  0  0  0  0  0  0  0
   -3.2937    1.8887    0.9455 C   0  0  0  0  0  0  0  0  0  0  0  0
   -3.8404    2.3109   -1.4385 C   0  0  0  0  0  0  0  0  0  0  0  0
    1.0163   -0.0974   -0.0155 Tc  0  0  0  0  0  0  0  0  0  0  0  0
    0.5462   -0.2484    0.9982 H   0  0  0  0  0  0  0  0  0  0  0  0
    0.5462    0.9484   -0.2749 H   0  0  0  0  0  0  0  0  0  0  0  0
    1.9729   -0.0175    0.0162 H   0  0  0  0  0  0  0  0  0  0  0  0
    0.7529   -0.8308   -1.9474 H   0  0  0  0  0  0  0  0  0  0  0  0
    0.5462   -2.6647    0.4302 H   0  0  0  0  0  0  0  0  0  0  0  0
    0.5462   -3.1689   -1.2428 H   0  0  0  0  0  0  0  0  0  0  0  0
    1.9729   -2.4338   -0.5519 H   0  0  0  0  0  0  0  0  0  0  0  0
   -1.2323   -3.1353   -1.0329 H   0  0  0  0  0  0  0  0  0  0  0  0
   -3.6391   -3.1904   -0.6838 H   0  0  0  0  0  0  0  0  0  0  0  0
   -4.9393   -1.1009   -0.7482 H   0  0  0  0  0  0  0  0  0  0  0  0
   -0.1524    1.4504   -1.5178 H   0  0  0  0  0  0  0  0  0  0  0  0
   -3.5748    2.2384   -0.0315 H   0  0  0  0  0  0  0  0  0  0  0  0
   -3.8273    3.6172   -1.0746 H   0  0  0  0  0  0  0  0  0  0  0  0
   -6.0399    1.0984   -2.4050 H   0  0  0  0  0  0  0  0  0  0  0  0
   -5.6943    1.3377   -0.7091 H   0  0  0  0  0  0  0  0  0  0  0  0
   -5.9913    5.0783   -0.9792 H   0  0  0  0  0  0  0  0  0  0  0  0
   -2.8525    2.3259   -3.5642 H   0  0  0  0  0  0  0  0  0  0  0  0
   -4.3952    1.6703   -4.0574 H   0  0  0  0  0  0  0  0  0  0  0  0
   -6.2273    4.8511   -3.2328 H   0  0  0  0  0  0  0  0  0  0  0  0
   -4.9506    1.0669   -0.1122 H   0  0  0  0  0  0  0  0  0  0  0  0
   -2.2677    2.1224    0.7517 H   0  0  0  0  0  0  0  0  0  0  0  0
   -3.8162    2.7802    1.2233 H   0  0  0  0  0  0  0  0  0  0  0  0
   -3.3530    1.1775    1.7428 H   0  0  0  0  0  0  0  0  0  0  0  0
   -4.2845    1.8970   -2.3196 H   0  0  0  0  0  0  0  0  0  0  0  0
   -4.3629    3.2024   -1.1608 H   0  0  0  0  0  0  0  0  0  0  0  0
   -2.8143    2.5447   -1.6324 H   0  0  0  0  0  0  0  0  0  0  0  0
  1  2  1  0  0  0  0
  1 27  1  0  0  0  0
  1 28  1  0  0  0  0
  1 29  1  0  0  0  0
  2  3  1  0  0  0  0
  2  4  1  0  0  0  0
  2 30  1  0  0  0  0
  3 31  1  0  0  0  0
  3 32  1  0  0  0  0
  3 33  1  0  0  0  0
  4  5  2  0  0  0  0
  4  9  1  0  0  0  0
  5  6  1  0  0  0  0
  5 34  1  0  0  0  0
  6  7  2  0  0  0  0
  6 35  1  0  0  0  0
  7  8  1  0  0  0  0
  7 36  1  0  0  0  0
  8  9  2  0  0  0  0
  8 23  1  0  0  0  0
  9 10  1  0  0  0  0
 10 11  1  0  0  0  0
 10 37  1  0  0  0  0
 11 12  2  0  0  0  0
 11 13  1  0  0  0  0
 13 14  1  0  0  0  0
 13 38  1  0  0  0  0
 13 39  1  0  0  0  0
 14 15  1  0  0  0  0
 14 19  1  0  0  0  0
 15 16  1  0  0  0  0
 15 40  1  0  0  0  0
 15 41  1  0  0  0  0
 16 17  2  0  0  0  0
 16 18  1  0  0  0  0
 18 42  1  0  0  0  0
 19 20  1  0  0  0  0
 19 43  1  0  0  0  0
 19 44  1  0  0  0  0
 20 21  2  0  0  0  0
 20 22  1  0  0  0  0
 22 45  1  0  0  0  0
 23 24  1  0  0  0  0
 23 25  1  0  0  0  0
 23 46  1  0  0  0  0
 24 47  1  0  0  0  0
 24 48  1  0  0  0  0
 24 49  1  0  0  0  0
 25 50  1  0  0  0  0
 25 51  1  0  0  0  0
 25 52  1  0  0  0  0
M  ISO  1  26  99
M  END
>  <DRUGBANK_ID>
DB09164

>  <COMMON_NAME>
Technetium Tc-99m disofenin

>  <UNII>
QTJ2VIW97T

>  <SYNONYMS>
99mTc-DISIDA; 99mTc-Disofenin; Technetium (99mTc) disofenin; Technetium Tc 99m Disofenin; Technetium-99m-Diisopropyliminodiacetic Acid

$$$$
