APF
 OpenBabel10282417163D

 30 30  0  0  0  0  0  0  0  0999 V2000
    4.1720   -0.3581    1.3626 C   0  0  0  0  0  0  0  0  0  0  0  0
    4.1128   -0.2168    2.8588 C   0  0  0  0  0  0  0  0  0  0  0  0
    5.0961    0.1167    3.5260 O   0  0  0  0  0  0  0  0  0  0  0  0
    2.9346   -0.4840    3.4980 N   0  0  0  0  0  0  0  0  0  0  0  0
    1.6451   -0.7804    2.8734 C   0  0  2  0  0  0  0  0  0  0  0  0
    0.8498    0.5215    2.7140 C   0  0  0  0  0  0  0  0  0  0  0  0
    0.0729    1.0541    3.9256 C   0  0  0  0  0  0  0  0  0  0  0  0
    0.8857   -1.9029    3.5849 C   0  0  0  0  0  0  0  0  0  0  0  0
    0.8202    1.0763    1.6059 O   0  0  0  0  0  0  0  0  0  0  0  0
    0.3099    2.3722    4.1458 F   0  0  0  0  0  0  0  0  0  0  0  0
   -1.2832    0.9544    3.7979 F   0  0  0  0  0  0  0  0  0  0  0  0
    0.3773    0.4155    5.0866 F   0  0  0  0  0  0  0  0  0  0  0  0
   -0.3737   -2.3430    2.8657 C   0  0  0  0  0  0  0  0  0  0  0  0
   -0.6349   -3.7007    2.7041 C   0  0  0  0  0  0  0  0  0  0  0  0
   -1.8356   -4.1202    2.1210 C   0  0  0  0  0  0  0  0  0  0  0  0
   -2.8193   -3.2006    1.7555 C   0  0  0  0  0  0  0  0  0  0  0  0
   -2.5891   -1.8559    1.9313 C   0  0  0  0  0  0  0  0  0  0  0  0
   -1.3494   -1.4509    2.3954 C   0  0  0  0  0  0  0  0  0  0  0  0
    1.8484   -1.1528    1.8618 H   0  0  0  0  0  0  0  0  0  0  0  0
    5.1813   -0.1288    1.0086 H   0  0  0  0  0  0  0  0  0  0  0  0
    3.4753    0.3386    0.8895 H   0  0  0  0  0  0  0  0  0  0  0  0
    3.9368   -1.3863    1.0737 H   0  0  0  0  0  0  0  0  0  0  0  0
    2.9852   -0.3325    4.5019 H   0  0  0  0  0  0  0  0  0  0  0  0
    1.5671   -2.7602    3.6969 H   0  0  0  0  0  0  0  0  0  0  0  0
    0.6274   -1.6404    4.6158 H   0  0  0  0  0  0  0  0  0  0  0  0
    0.0983   -4.4438    3.0093 H   0  0  0  0  0  0  0  0  0  0  0  0
   -2.0130   -5.1779    1.9625 H   0  0  0  0  0  0  0  0  0  0  0  0
   -3.7534   -3.5196    1.3085 H   0  0  0  0  0  0  0  0  0  0  0  0
   -3.3357   -1.1023    1.6910 H   0  0  0  0  0  0  0  0  0  0  0  0
   -1.2193   -0.3894    2.3127 H   0  0  0  0  0  0  0  0  0  0  0  0
  1  2  1  0  0  0  0
  1 20  1  0  0  0  0
  1 21  1  0  0  0  0
  1 22  1  0  0  0  0
  2  3  2  0  0  0  0
  2  4  1  0  0  0  0
  4 23  1  0  0  0  0
  5  8  1  0  0  0  0
  5 19  1  6  0  0  0
  5  6  1  0  0  0  0
  5  4  1  0  0  0  0
  6  7  1  0  0  0  0
  6  9  2  0  0  0  0
  7 10  1  0  0  0  0
  7 11  1  0  0  0  0
  7 12  1  0  0  0  0
  8 13  1  0  0  0  0
  8 24  1  0  0  0  0
  8 25  1  0  0  0  0
 13 14  2  0  0  0  0
 13 18  1  0  0  0  0
 14 15  1  0  0  0  0
 14 26  1  0  0  0  0
 15 16  2  0  0  0  0
 15 27  1  0  0  0  0
 16 17  1  0  0  0  0
 16 28  1  0  0  0  0
 17 18  2  0  0  0  0
 17 29  1  0  0  0  0
 18 30  1  0  0  0  0
M  END
>  <DRUGBANK_ID>
DB07380

>  <COMMON_NAME>
1,1,1-TRIFLUORO-3-ACETAMIDO-4-PHENYL BUTAN-2-ONE(N-ACETYL-L-PHENYLALANYL TRIFLUOROMETHYL KETONE)

$$$$
