1153
 OpenBabel10282417113D

 42 45  0  0  1  0  0  0  0  0999 V2000
   -2.4165    1.1693    0.0153 Cl  0  0  0  0  0  0  0  0  0  0  0  0
   -8.1498    1.0741   -2.3521 Cl  0  0  0  0  0  0  0  0  0  0  0  0
    2.8245    0.7821    0.0073 Cl  0  0  0  0  0  0  0  0  0  0  0  0
   -4.7903    1.0440   -2.5757 S   0  0  0  0  0  0  0  0  0  0  0  0
   -2.5581   -3.0004   -1.1412 O   0  0  0  0  0  0  0  0  0  0  0  0
   -2.5825   -2.2365    2.5542 N   0  0  0  0  0  0  0  0  0  0  0  0
   -2.4432   -1.7489    4.7182 N   0  0  0  0  0  0  0  0  0  0  0  0
   -2.4670   -2.1405    0.0204 C   0  0  3  0  0  0  0  0  0  0  0  0
   -2.5932   -3.0013    1.3140 C   0  0  0  0  0  0  0  0  0  0  0  0
   -1.1597   -1.3515   -0.0170 C   0  0  0  0  0  0  0  0  0  0  0  0
   -2.5379   -2.2755   -2.3900 C   0  0  0  0  0  0  0  0  0  0  0  0
   -3.6288   -1.2526   -2.5081 C   0  0  0  0  0  0  0  0  0  0  0  0
   -5.0458   -1.5228   -2.4372 C   0  0  0  0  0  0  0  0  0  0  0  0
   -1.0810    0.0628   -0.0320 C   0  0  0  0  0  0  0  0  0  0  0  0
    0.0452   -2.0839   -0.0209 C   0  0  0  0  0  0  0  0  0  0  0  0
   -5.8019   -0.3411   -2.4448 C   0  0  0  0  0  0  0  0  0  0  0  0
   -3.3873    0.0953   -2.6654 C   0  0  0  0  0  0  0  0  0  0  0  0
   -2.6677   -0.8862    2.6773 C   0  0  0  0  0  0  0  0  0  0  0  0
   -2.4973   -2.7225    3.8269 C   0  0  0  0  0  0  0  0  0  0  0  0
   -5.7381   -2.7569   -2.3537 C   0  0  0  0  0  0  0  0  0  0  0  0
    0.1511    0.7041   -0.0315 C   0  0  0  0  0  0  0  0  0  0  0  0
    1.2747   -1.4288   -0.0107 C   0  0  0  0  0  0  0  0  0  0  0  0
   -7.2073   -0.3709   -2.3706 C   0  0  0  0  0  0  0  0  0  0  0  0
    1.3185   -0.0393   -0.0149 C   0  0  0  0  0  0  0  0  0  0  0  0
   -2.5211   -0.5911    4.0080 C   0  0  0  0  0  0  0  0  0  0  0  0
   -7.1340   -2.7864   -2.3366 C   0  0  0  0  0  0  0  0  0  0  0  0
   -7.8593   -1.6033   -2.3444 C   0  0  0  0  0  0  0  0  0  0  0  0
   -3.3417   -1.4856    0.0090 H   0  0  0  0  0  0  0  0  0  0  0  0
   -3.5332   -3.5685    1.2970 H   0  0  0  0  0  0  0  0  0  0  0  0
   -1.7902   -3.7487    1.3763 H   0  0  0  0  0  0  0  0  0  0  0  0
   -1.5542   -1.8061   -2.5129 H   0  0  0  0  0  0  0  0  0  0  0  0
   -2.6206   -3.0010   -3.2061 H   0  0  0  0  0  0  0  0  0  0  0  0
    0.0329   -3.1744   -0.0246 H   0  0  0  0  0  0  0  0  0  0  0  0
   -2.4265    0.5890   -2.7247 H   0  0  0  0  0  0  0  0  0  0  0  0
   -2.8166   -0.2309    1.8660 H   0  0  0  0  0  0  0  0  0  0  0  0
   -2.4789   -3.7753    4.0601 H   0  0  0  0  0  0  0  0  0  0  0  0
   -5.1825   -3.6931   -2.3369 H   0  0  0  0  0  0  0  0  0  0  0  0
    0.1866    1.7903   -0.0199 H   0  0  0  0  0  0  0  0  0  0  0  0
    2.1935   -2.0074    0.0095 H   0  0  0  0  0  0  0  0  0  0  0  0
   -2.5017    0.3977    4.4392 H   0  0  0  0  0  0  0  0  0  0  0  0
   -7.6536   -3.7410   -2.3245 H   0  0  0  0  0  0  0  0  0  0  0  0
   -8.9453   -1.6356   -2.3400 H   0  0  0  0  0  0  0  0  0  0  0  0
  1 14  1  0  0  0  0
  2 23  1  0  0  0  0
  3 24  1  0  0  0  0
  4 16  1  0  0  0  0
  4 17  1  0  0  0  0
  5  8  1  0  0  0  0
  5 11  1  0  0  0  0
  6  9  1  0  0  0  0
  6 18  1  0  0  0  0
  6 19  1  0  0  0  0
  7 19  2  0  0  0  0
  7 25  1  0  0  0  0
  8  9  1  0  0  0  0
  8 10  1  0  0  0  0
  8 28  1  0  0  0  0
  9 29  1  0  0  0  0
  9 30  1  0  0  0  0
 10 14  2  0  0  0  0
 10 15  1  0  0  0  0
 11 12  1  0  0  0  0
 11 31  1  0  0  0  0
 11 32  1  0  0  0  0
 12 13  1  0  0  0  0
 12 17  2  0  0  0  0
 13 16  2  0  0  0  0
 13 20  1  0  0  0  0
 14 21  1  0  0  0  0
 15 22  2  0  0  0  0
 15 33  1  0  0  0  0
 16 23  1  0  0  0  0
 17 34  1  0  0  0  0
 18 25  2  0  0  0  0
 18 35  1  0  0  0  0
 19 36  1  0  0  0  0
 20 26  2  0  0  0  0
 20 37  1  0  0  0  0
 21 24  2  0  0  0  0
 21 38  1  0  0  0  0
 22 24  1  0  0  0  0
 22 39  1  0  0  0  0
 23 27  2  0  0  0  0
 25 40  1  0  0  0  0
 26 27  1  0  0  0  0
 26 41  1  0  0  0  0
 27 42  1  0  0  0  0
M  END
>  <DRUGBANK_ID>
DB01153

>  <SECONDARY_ACCESSION_NUMBERS>
APRD00305

>  <COMMON_NAME>
Sertaconazole

>  <CAS_NUMBER>
99592-32-2

>  <UNII>
72W71I16EG

>  <SYNONYMS>
Sertaconazol; Sertaconazole; Sertaconazolum

$$$$
