
 OpenBabel10282417203D

217218  0  0  0  0  0  0  0  0999 V2000
  -42.8719  -27.9359  -12.4269 N   0  0  0  0  0  0  0  0  0  0  0  0
  -43.8479  -27.9127  -11.3295 C   0  0  1  0  0  0  0  0  0  0  0  0
  -43.6987  -29.1495  -10.4673 C   0  0  0  0  0  0  0  0  0  0  0  0
  -42.3402  -29.2761   -9.8663 C   0  0  0  0  0  0  0  0  0  0  0  0
  -42.3408  -29.2032   -8.4182 N   0  0  0  0  0  0  0  0  0  0  0  0
  -41.2630  -29.4022  -10.6510 O   0  0  0  0  0  0  0  0  0  0  0  0
  -43.6366  -26.6533  -10.4737 C   0  0  0  0  0  0  0  0  0  0  0  0
  -44.5544  -25.8170  -10.3615 O   0  0  0  0  0  0  0  0  0  0  0  0
  -42.3690  -26.4667   -9.8056 N   0  0  0  0  0  0  0  0  0  0  0  0
  -41.2562  -27.3881   -9.9184 C   0  0  1  0  0  0  0  0  0  0  0  0
  -40.0511  -26.7974  -10.5497 C   0  0  0  0  0  0  0  0  0  0  0  0
  -39.5457  -25.6492   -9.7173 C   0  0  0  0  0  0  0  0  0  0  0  0
  -38.2977  -25.7810   -9.1811 O   0  0  0  0  0  0  0  0  0  0  0  0
  -40.3009  -24.5952   -9.5216 O   0  0  0  0  0  0  0  0  0  0  0  0
  -40.8389  -27.9462   -8.5788 C   0  0  0  0  0  0  0  0  0  0  0  0
  -40.6561  -29.2787   -8.5597 O   0  0  0  0  0  0  0  0  0  0  0  0
  -40.3496  -27.0473   -7.4569 N   0  0  0  0  0  0  0  0  0  0  0  0
  -38.8993  -25.4577   -6.5765 C   0  0  1  0  0  0  0  0  0  0  0  0
  -41.1043  -24.8789   -6.7989 C   0  0  0  0  0  0  0  0  0  0  0  0
  -40.7782  -25.1537   -5.3864 C   0  0  0  0  0  0  0  0  0  0  0  0
  -39.4863  -24.6239   -5.0801 C   0  0  0  0  0  0  0  0  0  0  0  0
  -39.0116  -23.7316   -4.2682 O   0  0  0  0  0  0  0  0  0  0  0  0
  -38.6151  -25.2498   -5.3527 O   0  0  0  0  0  0  0  0  0  0  0  0
  -36.9215  -24.9867   -4.2005 C   0  0  0  0  0  0  0  0  0  0  0  0
  -37.4494  -24.8829   -6.2710 O   0  0  0  0  0  0  0  0  0  0  0  0
  -35.3252  -24.8741   -1.6233 N   0  0  0  0  0  0  0  0  0  0  0  0
  -33.3056  -24.5086    1.3004 C   0  0  1  0  0  0  0  0  0  0  0  0
  -31.1079  -24.1335    4.1679 C   0  0  0  0  0  0  0  0  0  0  0  0
  -28.8918  -23.4502    7.3526 S   0  0  0  0  0  0  0  0  0  0  0  0
  -35.6343  -24.7540   -0.5493 C   0  0  0  0  0  0  0  0  0  0  0  0
  -37.3088  -24.7788   -1.6284 O   0  0  0  0  0  0  0  0  0  0  0  0
  -37.0554  -24.6352   -2.4200 N   0  0  0  0  0  0  0  0  0  0  0  0
  -35.9143  -24.4159   -3.2837 C   0  0  1  0  0  0  0  0  0  0  0  0
  -35.6557  -23.7762   -4.5267 C   0  0  0  0  0  0  0  0  0  0  0  0
  -35.4721  -22.5957   -3.2509 C   0  0  0  0  0  0  0  0  0  0  0  0
  -34.3025  -23.3201   -1.9828 C   0  0  0  0  0  0  0  0  0  0  0  0
  -33.2474  -23.1385   -1.7140 O   0  0  0  0  0  0  0  0  0  0  0  0
  -34.3194  -24.0463   -1.0821 O   0  0  0  0  0  0  0  0  0  0  0  0
  -35.2092  -26.0142   -2.8735 C   0  0  0  0  0  0  0  0  0  0  0  0
  -35.4190  -27.1005   -2.8932 O   0  0  0  0  0  0  0  0  0  0  0  0
  -34.8982  -24.2422   -2.8773 N   0  0  0  0  0  0  0  0  0  0  0  0
  -35.2200  -22.8366   -0.7574 C   0  0  1  0  0  0  0  0  0  0  0  0
  -36.7307  -23.3256   -0.1538 C   0  0  0  0  0  0  0  0  0  0  0  0
  -36.0284  -23.8473    1.0922 C   0  0  0  0  0  0  0  0  0  0  0  0
  -34.9919  -23.1092    1.2048 C   0  0  0  0  0  0  0  0  0  0  0  0
  -36.9017  -23.6722    2.2523 C   0  0  0  0  0  0  0  0  0  0  0  0
  -33.6394  -21.6609    1.3011 C   0  0  0  0  0  0  0  0  0  0  0  0
  -33.9911  -21.7141   -0.7388 O   0  0  0  0  0  0  0  0  0  0  0  0
  -32.7690  -20.9849    3.9453 N   0  0  0  0  0  0  0  0  0  0  0  0
  -31.7695  -19.9882    6.8456 C   0  0  1  0  0  0  0  0  0  0  0  0
  -30.5549  -18.5578    9.7920 C   0  0  0  0  0  0  0  0  0  0  0  0
  -29.1881  -17.3118   12.7239 S   0  0  0  0  0  0  0  0  0  0  0  0
  -33.0668  -21.7452    5.1110 C   0  0  0  0  0  0  0  0  0  0  0  0
  -34.2154  -22.7901    3.9181 O   0  0  0  0  0  0  0  0  0  0  0  0
  -32.8577  -22.7719    3.2159 N   0  0  0  0  0  0  0  0  0  0  0  0
  -31.6842  -22.5963    2.2605 C   0  0  1  0  0  0  0  0  0  0  0  0
  -31.4058  -21.0788    2.0157 C   0  0  0  0  0  0  0  0  0  0  0  0
  -31.2859  -20.3027    3.2714 C   0  0  0  0  0  0  0  0  0  0  0  0
  -30.1161  -20.9598    1.3124 C   0  0  0  0  0  0  0  0  0  0  0  0
  -30.6455  -23.1777    3.0276 C   0  0  0  0  0  0  0  0  0  0  0  0
  -30.0000  -24.1641    2.6070 O   0  0  0  0  0  0  0  0  0  0  0  0
  -30.3730  -22.5728    4.3854 N   0  0  0  0  0  0  0  0  0  0  0  0
  -31.1002  -21.6476    5.0848 C   0  0  1  0  0  0  0  0  0  0  0  0
  -31.8235  -22.1081    6.3175 C   0  0  0  0  0  0  0  0  0  0  0  0
  -30.9816  -22.5234    7.3133 C   0  0  0  0  0  0  0  0  0  0  0  0
  -30.9977  -21.7092    8.5005 N   0  0  0  0  0  0  0  0  0  0  0  0
  -30.3649  -23.5733    7.1066 O   0  0  0  0  0  0  0  0  0  0  0  0
  -30.2020  -20.4053    5.3626 C   0  0  0  0  0  0  0  0  0  0  0  0
  -30.3726  -19.2935    4.7977 O   0  0  0  0  0  0  0  0  0  0  0  0
  -29.1753  -20.6093    6.2773 N   0  0  0  0  0  0  0  0  0  0  0  0
  -28.9542  -21.7767    6.8840 C   0  0  1  0  0  0  0  0  0  0  0  0
  -27.5404  -22.4016    6.5216 C   0  0  0  0  0  0  0  0  0  0  0  0
  -26.5191  -21.5487    7.0566 C   0  0  0  0  0  0  0  0  0  0  0  0
  -27.0710  -23.8546    6.6384 C   0  0  0  0  0  0  0  0  0  0  0  0
  -29.0877  -21.6664    8.4699 C   0  0  0  0  0  0  0  0  0  0  0  0
  -29.7891  -22.7183    9.0668 O   0  0  0  0  0  0  0  0  0  0  0  0
  -28.2463  -20.8450    9.1798 N   0  0  0  0  0  0  0  0  0  0  0  0
  -27.2010  -20.0531    8.5123 C   0  0  1  0  0  0  0  0  0  0  0  0
  -27.3775  -18.6324    8.6412 C   0  0  0  0  0  0  0  0  0  0  0  0
  -25.7553  -20.4859    9.0396 C   0  0  0  0  0  0  0  0  0  0  0  0
  -24.9140  -21.0274    8.2754 O   0  0  0  0  0  0  0  0  0  0  0  0
  -25.4827  -20.2679   10.3909 N   0  0  0  0  0  0  0  0  0  0  0  0
  -26.4763  -19.6943   11.3158 C   0  0  1  0  0  0  0  0  0  0  0  0
  -26.8279  -20.6316   12.4111 C   0  0  0  0  0  0  0  0  0  0  0  0
  -26.9090  -22.3252   10.4233 S   0  0  0  0  0  0  0  0  0  0  0  0
  -25.9509  -18.4493   11.8465 C   0  0  0  0  0  0  0  0  0  0  0  0
  -26.7862  -17.4945   11.4583 O   0  0  0  0  0  0  0  0  0  0  0  0
  -24.6912  -18.4523   12.6268 N   0  0  0  0  0  0  0  0  0  0  0  0
  -23.9871  -19.6657   12.9420 C   0  0  1  0  0  0  0  0  0  0  0  0
  -22.6026  -19.6267   12.3747 C   0  0  2  0  0  0  0  0  0  0  0  0
  -22.6411  -19.7093   10.9554 O   0  0  0  0  0  0  0  0  0  0  0  0
  -21.7754  -20.7595   12.9369 C   0  0  0  0  0  0  0  0  0  0  0  0
  -23.9464  -19.9455   14.4646 C   0  0  0  0  0  0  0  0  0  0  0  0
  -24.4763  -20.9678   14.9460 O   0  0  0  0  0  0  0  0  0  0  0  0
  -23.2733  -18.9930   15.3114 N   0  0  0  0  0  0  0  0  0  0  0  0
  -22.6488  -17.7824   14.7673 C   0  0  0  0  0  0  0  0  0  0  0  0
  -23.2876  -16.5313   15.3754 C   0  0  0  0  0  0  0  0  0  0  0  0
  -22.5815  -15.7246   16.0103 O   0  0  0  0  0  0  0  0  0  0  0  0
  -24.6988  -16.3140   15.1997 N   0  0  0  0  0  0  0  0  0  0  0  0
  -25.5641  -17.2460   14.4752 C   0  0  1  0  0  0  0  0  0  0  0  0
  -26.6204  -17.8317   15.3521 C   0  0  0  0  0  0  0  0  0  0  0  0
  -27.7853  -16.7874   15.8097 S   0  0  0  0  0  0  0  0  0  0  0  0
  -26.1913  -16.5129   13.3052 C   0  0  0  0  0  0  0  0  0  0  0  0
  -25.6497  -16.6880   12.2615 O   0  0  0  0  0  0  0  0  0  0  0  0
  -27.0426  -15.3974   13.4549 N   0  0  0  0  0  0  0  0  0  0  0  0
  -27.2996  -14.8100   14.7152 C   0  0  1  0  0  0  0  0  0  0  0  0
  -26.9084  -13.4847   14.9888 C   0  0  0  0  0  0  0  0  0  0  0  0
  -27.6685  -12.6281   14.0082 C   0  0  0  0  0  0  0  0  0  0  0  0
  -29.1311  -12.6386   14.2813 C   0  0  0  0  0  0  0  0  0  0  0  0
  -27.2264  -11.1985   14.1509 C   0  0  0  0  0  0  0  0  0  0  0  0
  -29.0816  -14.8481   15.1751 C   0  0  0  0  0  0  0  0  0  0  0  0
  -29.4530  -15.7651   16.1053 O   0  0  0  0  0  0  0  0  0  0  0  0
  -29.9698  -14.6451   14.3312 O   0  0  0  0  0  0  0  0  0  0  0  0
  -24.4795  -20.4386   12.4239 H   0  0  0  0  0  0  0  0  0  0  0  0
  -27.3785  -19.4803   10.7689 H   0  0  0  0  0  0  0  0  0  0  0  0
  -32.7311  -21.1539    5.6391 H   0  0  0  0  0  0  0  0  0  0  0  0
  -41.9286  -27.9637  -12.0360 H   0  0  0  0  0  0  0  0  0  0  0  0
  -43.0101  -28.7740  -12.9880 H   0  0  0  0  0  0  0  0  0  0  0  0
  -44.8448  -27.8883  -11.7496 H   0  0  0  0  0  0  0  0  0  0  0  0
  -44.4219  -29.1296   -9.6732 H   0  0  0  0  0  0  0  0  0  0  0  0
  -43.8523  -30.0295  -11.0674 H   0  0  0  0  0  0  0  0  0  0  0  0
  -41.3428  -29.1994   -7.7645 H   0  0  0  0  0  0  0  0  0  0  0  0
  -42.9649  -29.1536   -7.7791 H   0  0  0  0  0  0  0  0  0  0  0  0
  -42.2111  -25.6318   -9.2314 H   0  0  0  0  0  0  0  0  0  0  0  0
  -41.6272  -28.0474  -10.5851 H   0  0  0  0  0  0  0  0  0  0  0  0
  -39.2694  -27.5289  -10.6543 H   0  0  0  0  0  0  0  0  0  0  0  0
  -40.3063  -26.4110  -11.5220 H   0  0  0  0  0  0  0  0  0  0  0  0
  -37.6602  -26.4740   -9.3097 H   0  0  0  0  0  0  0  0  0  0  0  0
  -40.1965  -27.4890   -6.5973 H   0  0  0  0  0  0  0  0  0  0  0  0
  -40.3337  -25.5432   -8.2521 H   0  0  0  0  0  0  0  0  0  0  0  0
  -41.0750  -23.8313   -7.0312 H   0  0  0  0  0  0  0  0  0  0  0  0
  -42.1953  -25.1849   -6.9707 H   0  0  0  0  0  0  0  0  0  0  0  0
  -41.3878  -24.6154   -4.7230 H   0  0  0  0  0  0  0  0  0  0  0  0
  -40.8615  -26.2195   -5.1946 H   0  0  0  0  0  0  0  0  0  0  0  0
  -39.6930  -23.3527   -3.6885 H   0  0  0  0  0  0  0  0  0  0  0  0
  -36.2146  -25.3503   -3.4733 H   0  0  0  0  0  0  0  0  0  0  0  0
  -34.6489  -25.1806    0.2042 H   0  0  0  0  0  0  0  0  0  0  0  0
  -29.4788  -23.9817    5.9802 H   0  0  0  0  0  0  0  0  0  0  0  0
  -29.3892  -24.0075    5.8972 H   0  0  0  0  0  0  0  0  0  0  0  0
  -37.8150  -23.8344   -2.6330 H   0  0  0  0  0  0  0  0  0  0  0  0
  -36.3490  -25.9926   -4.5523 H   0  0  0  0  0  0  0  0  0  0  0  0
  -34.6860  -24.2104   -4.7718 H   0  0  0  0  0  0  0  0  0  0  0  0
  -36.1717  -23.3387   -5.2096 H   0  0  0  0  0  0  0  0  0  0  0  0
  -34.8124  -22.0142   -3.6115 H   0  0  0  0  0  0  0  0  0  0  0  0
  -36.4059  -22.3962   -2.9571 H   0  0  0  0  0  0  0  0  0  0  0  0
  -33.0085  -22.2994   -2.1280 H   0  0  0  0  0  0  0  0  0  0  0  0
  -34.5319  -25.1880   -1.5610 H   0  0  0  0  0  0  0  0  0  0  0  0
  -36.3120  -23.2888   -2.0991 H   0  0  0  0  0  0  0  0  0  0  0  0
  -36.9754  -22.3490   -0.1026 H   0  0  0  0  0  0  0  0  0  0  0  0
  -37.5869  -23.9713   -0.3278 H   0  0  0  0  0  0  0  0  0  0  0  0
  -35.7234  -24.8763    1.0127 H   0  0  0  0  0  0  0  0  0  0  0  0
  -35.0793  -21.9842    1.3686 H   0  0  0  0  0  0  0  0  0  0  0  0
  -34.2891  -22.8281    1.4834 H   0  0  0  0  0  0  0  0  0  0  0  0
  -34.2082  -23.3007    0.5008 H   0  0  0  0  0  0  0  0  0  0  0  0
  -37.7816  -24.2628    2.1180 H   0  0  0  0  0  0  0  0  0  0  0  0
  -36.4119  -23.9988    3.1530 H   0  0  0  0  0  0  0  0  0  0  0  0
  -37.1692  -22.6343    2.3526 H   0  0  0  0  0  0  0  0  0  0  0  0
  -32.7875  -21.7144    2.0991 H   0  0  0  0  0  0  0  0  0  0  0  0
  -29.9133  -17.5307   11.8108 H   0  0  0  0  0  0  0  0  0  0  0  0
  -29.7370  -17.4132   11.6788 H   0  0  0  0  0  0  0  0  0  0  0  0
  -32.8009  -21.9705    4.0949 H   0  0  0  0  0  0  0  0  0  0  0  0
  -31.8126  -23.0625    1.2909 H   0  0  0  0  0  0  0  0  0  0  0  0
  -32.2071  -20.6210    1.4365 H   0  0  0  0  0  0  0  0  0  0  0  0
  -30.5550  -20.8144    3.8504 H   0  0  0  0  0  0  0  0  0  0  0  0
  -31.1394  -19.3361    3.2103 H   0  0  0  0  0  0  0  0  0  0  0  0
  -32.1390  -19.9983    3.9521 H   0  0  0  0  0  0  0  0  0  0  0  0
  -30.1711  -21.4540    0.3605 H   0  0  0  0  0  0  0  0  0  0  0  0
  -29.8871  -19.9211    1.1652 H   0  0  0  0  0  0  0  0  0  0  0  0
  -29.3397  -21.4139    1.9047 H   0  0  0  0  0  0  0  0  0  0  0  0
  -29.6268  -23.0226    4.9492 H   0  0  0  0  0  0  0  0  0  0  0  0
  -31.6605  -21.3752    4.4452 H   0  0  0  0  0  0  0  0  0  0  0  0
  -32.5155  -21.3038    6.7211 H   0  0  0  0  0  0  0  0  0  0  0  0
  -32.5372  -22.8890    6.0463 H   0  0  0  0  0  0  0  0  0  0  0  0
  -30.2590  -21.8947    9.4291 H   0  0  0  0  0  0  0  0  0  0  0  0
  -31.4591  -21.0119    8.8006 H   0  0  0  0  0  0  0  0  0  0  0  0
  -28.5459  -19.8456    6.5059 H   0  0  0  0  0  0  0  0  0  0  0  0
  -29.6266  -22.4494    6.4712 H   0  0  0  0  0  0  0  0  0  0  0  0
  -27.5021  -22.5702    5.5465 H   0  0  0  0  0  0  0  0  0  0  0  0
  -26.6475  -21.4796    8.1444 H   0  0  0  0  0  0  0  0  0  0  0  0
  -25.5661  -21.8912    6.8883 H   0  0  0  0  0  0  0  0  0  0  0  0
  -26.6028  -20.5746    6.5496 H   0  0  0  0  0  0  0  0  0  0  0  0
  -28.0384  -24.8788    6.8817 H   0  0  0  0  0  0  0  0  0  0  0  0
  -26.3648  -24.2394    7.0950 H   0  0  0  0  0  0  0  0  0  0  0  0
  -26.7929  -23.1062    7.7200 H   0  0  0  0  0  0  0  0  0  0  0  0
  -28.3192  -20.7601   10.1868 H   0  0  0  0  0  0  0  0  0  0  0  0
  -27.3278  -20.2713    7.5156 H   0  0  0  0  0  0  0  0  0  0  0  0
  -27.3278  -18.3821    9.6750 H   0  0  0  0  0  0  0  0  0  0  0  0
  -26.6091  -18.0994    8.1152 H   0  0  0  0  0  0  0  0  0  0  0  0
  -28.3393  -18.3544    8.2588 H   0  0  0  0  0  0  0  0  0  0  0  0
  -24.5883  -20.5669   10.7792 H   0  0  0  0  0  0  0  0  0  0  0  0
  -27.5443  -20.2019   13.0952 H   0  0  0  0  0  0  0  0  0  0  0  0
  -27.2292  -21.5555   12.0571 H   0  0  0  0  0  0  0  0  0  0  0  0
  -24.3192  -17.5444   13.0351 H   0  0  0  0  0  0  0  0  0  0  0  0
  -22.1420  -18.6905   12.6475 H   0  0  0  0  0  0  0  0  0  0  0  0
  -23.2416  -20.2150   10.3586 H   0  0  0  0  0  0  0  0  0  0  0  0
  -20.7765  -20.7148   12.5439 H   0  0  0  0  0  0  0  0  0  0  0  0
  -21.7350  -20.6919   14.0112 H   0  0  0  0  0  0  0  0  0  0  0  0
  -22.2223  -21.6972   12.6597 H   0  0  0  0  0  0  0  0  0  0  0  0
  -23.2325  -19.1592   16.3241 H   0  0  0  0  0  0  0  0  0  0  0  0
  -21.5925  -17.7899   14.9802 H   0  0  0  0  0  0  0  0  0  0  0  0
  -22.7821  -17.7586   13.7058 H   0  0  0  0  0  0  0  0  0  0  0  0
  -25.1385  -15.4782   15.6116 H   0  0  0  0  0  0  0  0  0  0  0  0
  -24.9537  -18.0563   14.1633 H   0  0  0  0  0  0  0  0  0  0  0  0
  -27.2329  -18.5220   14.8029 H   0  0  0  0  0  0  0  0  0  0  0  0
  -26.1812  -18.3195   16.1909 H   0  0  0  0  0  0  0  0  0  0  0  0
  -27.5085  -14.9475   12.6824 H   0  0  0  0  0  0  0  0  0  0  0  0
  -26.6200  -15.5119   15.2441 H   0  0  0  0  0  0  0  0  0  0  0  0
  -27.1192  -13.1698   15.9970 H   0  0  0  0  0  0  0  0  0  0  0  0
  -25.8590  -13.4335   14.8047 H   0  0  0  0  0  0  0  0  0  0  0  0
  -27.4682  -12.9745   13.0039 H   0  0  0  0  0  0  0  0  0  0  0  0
  -29.3711  -12.3992   15.2802 H   0  0  0  0  0  0  0  0  0  0  0  0
  -29.7012  -12.1206   13.5743 H   0  0  0  0  0  0  0  0  0  0  0  0
  -29.3336  -13.4826   14.0588 H   0  0  0  0  0  0  0  0  0  0  0  0
  -26.1712  -11.1225   13.9589 H   0  0  0  0  0  0  0  0  0  0  0  0
  -27.7602  -10.5799   13.4505 H   0  0  0  0  0  0  0  0  0  0  0  0
  -27.4299  -10.8552   15.1516 H   0  0  0  0  0  0  0  0  0  0  0  0
  -30.7982  -14.3923   14.5158 H   0  0  0  0  0  0  0  0  0  0  0  0
  1117  1  0  0  0  0
  1118  1  0  0  0  0
  2  1  1  0  0  0  0
  2  3  1  0  0  0  0
  2  7  1  0  0  0  0
  2119  1  6  0  0  0
  3  4  1  0  0  0  0
  3120  1  0  0  0  0
  3121  1  0  0  0  0
  4  5  1  0  0  0  0
  4  6  2  0  0  0  0
  5122  1  0  0  0  0
  5123  1  0  0  0  0
  7  8  2  0  0  0  0
  7  9  1  0  0  0  0
  9124  1  0  0  0  0
 10  9  1  0  0  0  0
 10 11  1  0  0  0  0
 10 15  1  0  0  0  0
 10125  1  6  0  0  0
 11 12  1  0  0  0  0
 11126  1  0  0  0  0
 11127  1  0  0  0  0
 12 13  1  0  0  0  0
 12 14  2  0  0  0  0
 13128  1  0  0  0  0
 15 16  2  0  0  0  0
 15 17  1  0  0  0  0
 17129  1  0  0  0  0
 18 17  1  0  0  0  0
 18 19  1  0  0  0  0
 18 24  1  0  0  0  0
 18130  1  6  0  0  0
 19 20  1  0  0  0  0
 19131  1  0  0  0  0
 19132  1  0  0  0  0
 20 21  1  0  0  0  0
 20133  1  0  0  0  0
 20134  1  0  0  0  0
 21 22  1  0  0  0  0
 21 23  2  0  0  0  0
 22135  1  0  0  0  0
 24 25  2  0  0  0  0
 24 26  1  0  0  0  0
 26136  1  0  0  0  0
 27 26  1  0  0  0  0
 27 28  1  0  0  0  0
 27 30  1  0  0  0  0
 27137  1  1  0  0  0
 28 29  1  0  0  0  0
 28138  1  0  0  0  0
 28139  1  0  0  0  0
 29 85  1  0  0  0  0
 30 31  2  0  0  0  0
 30 32  1  0  0  0  0
 32 33  1  0  0  0  0
 32140  1  0  0  0  0
 33 34  1  0  0  0  0
 33 39  1  0  0  0  0
 33141  1  6  0  0  0
 34 35  1  0  0  0  0
 34142  1  0  0  0  0
 34143  1  0  0  0  0
 35 36  1  0  0  0  0
 35144  1  0  0  0  0
 35145  1  0  0  0  0
 36 37  1  0  0  0  0
 36 38  2  0  0  0  0
 37146  1  0  0  0  0
 39 40  2  0  0  0  0
 39 41  1  0  0  0  0
 41 42  1  0  0  0  0
 41147  1  0  0  0  0
 42 43  1  0  0  0  0
 42 47  1  0  0  0  0
 42148  1  6  0  0  0
 43 44  1  0  0  0  0
 43149  1  0  0  0  0
 43150  1  0  0  0  0
 44 45  1  0  0  0  0
 44 46  1  0  0  0  0
 44151  1  0  0  0  0
 45152  1  0  0  0  0
 45153  1  0  0  0  0
 45154  1  0  0  0  0
 46155  1  0  0  0  0
 46156  1  0  0  0  0
 46157  1  0  0  0  0
 47 48  2  0  0  0  0
 47 49  1  0  0  0  0
 49 50  1  0  0  0  0
 49158  1  0  0  0  0
 50 51  1  0  0  0  0
 50 53  1  0  0  0  0
 50116  1  6  0  0  0
 51 52  1  0  0  0  0
 51159  1  0  0  0  0
 51160  1  0  0  0  0
 52102  1  0  0  0  0
 53 54  2  0  0  0  0
 53 55  1  0  0  0  0
 55 56  1  0  0  0  0
 55161  1  0  0  0  0
 56 57  1  0  0  0  0
 56 60  1  0  0  0  0
 56162  1  6  0  0  0
 57 58  1  0  0  0  0
 57 59  1  0  0  0  0
 57163  1  0  0  0  0
 58164  1  0  0  0  0
 58165  1  0  0  0  0
 58166  1  0  0  0  0
 59167  1  0  0  0  0
 59168  1  0  0  0  0
 59169  1  0  0  0  0
 60 61  2  0  0  0  0
 60 62  1  0  0  0  0
 62 63  1  0  0  0  0
 62170  1  0  0  0  0
 63 64  1  0  0  0  0
 63 68  1  0  0  0  0
 63171  1  6  0  0  0
 64 65  1  0  0  0  0
 64172  1  0  0  0  0
 64173  1  0  0  0  0
 65 66  1  0  0  0  0
 65 67  2  0  0  0  0
 66174  1  0  0  0  0
 66175  1  0  0  0  0
 68 69  2  0  0  0  0
 68 70  1  0  0  0  0
 70 71  1  0  0  0  0
 70176  1  0  0  0  0
 71 72  1  0  0  0  0
 71 75  1  0  0  0  0
 71177  1  6  0  0  0
 72 73  1  0  0  0  0
 72 74  1  0  0  0  0
 72178  1  0  0  0  0
 73179  1  0  0  0  0
 73180  1  0  0  0  0
 73181  1  0  0  0  0
 74182  1  0  0  0  0
 74183  1  0  0  0  0
 74184  1  0  0  0  0
 75 76  2  0  0  0  0
 75 77  1  0  0  0  0
 77 78  1  0  0  0  0
 77185  1  0  0  0  0
 78 79  1  0  0  0  0
 78 80  1  0  0  0  0
 78186  1  6  0  0  0
 79187  1  0  0  0  0
 79188  1  0  0  0  0
 79189  1  0  0  0  0
 80 81  2  0  0  0  0
 80 82  1  0  0  0  0
 82 83  1  0  0  0  0
 82190  1  0  0  0  0
 83 84  1  0  0  0  0
 83 86  1  0  0  0  0
 83115  1  6  0  0  0
 84 85  1  0  0  0  0
 84191  1  0  0  0  0
 84192  1  0  0  0  0
 86 87  2  0  0  0  0
 86 88  1  0  0  0  0
 88 89  1  0  0  0  0
 88193  1  0  0  0  0
 89 93  1  0  0  0  0
 89114  1  6  0  0  0
 90 92  1  0  0  0  0
 90194  1  1  0  0  0
 90 91  1  0  0  0  0
 90 89  1  0  0  0  0
 91195  1  0  0  0  0
 92196  1  0  0  0  0
 92197  1  0  0  0  0
 92198  1  0  0  0  0
 93 94  2  0  0  0  0
 93 95  1  0  0  0  0
 95 96  1  0  0  0  0
 95199  1  0  0  0  0
 96 97  1  0  0  0  0
 96200  1  0  0  0  0
 96201  1  0  0  0  0
 97 98  2  0  0  0  0
 97 99  1  0  0  0  0
 99100  1  0  0  0  0
 99202  1  0  0  0  0
100101  1  0  0  0  0
100103  1  0  0  0  0
100203  1  6  0  0  0
101102  1  0  0  0  0
101204  1  0  0  0  0
101205  1  0  0  0  0
103104  2  0  0  0  0
103105  1  0  0  0  0
105206  1  0  0  0  0
106105  1  0  0  0  0
106107  1  0  0  0  0
106111  1  0  0  0  0
106207  1  1  0  0  0
107108  1  0  0  0  0
107208  1  0  0  0  0
107209  1  0  0  0  0
108109  1  0  0  0  0
108110  1  0  0  0  0
108210  1  0  0  0  0
109211  1  0  0  0  0
109212  1  0  0  0  0
109213  1  0  0  0  0
110214  1  0  0  0  0
110215  1  0  0  0  0
110216  1  0  0  0  0
111112  2  0  0  0  0
111113  1  0  0  0  0
113217  1  0  0  0  0
M  END
>  <DRUGBANK_ID>
DB13170

>  <SECONDARY_ACCESSION_NUMBERS>
DB06377

>  <COMMON_NAME>
Plecanatide

>  <CAS_NUMBER>
467426-54-6

>  <UNII>
7IK8Z952OK

>  <SYNONYMS>
Guanilib; Plecanatide

$$$$
