
 OpenBabel10282417133D

 36 37  0  0  0  0  0  0  0  0999 V2000
    0.9793   -0.0774   -0.0598 P   0  0  0  0  0  0  0  0  0  0  0  0
    0.9879   -1.5229    0.5702 O   0  0  0  0  0  0  0  0  0  0  0  0
   -2.5811    0.2583   -2.9110 O   0  0  0  0  0  0  0  0  0  0  0  0
    3.6657    0.6461    2.1050 O   0  0  0  0  0  0  0  0  0  0  0  0
    0.9458   -1.2503    3.0335 O   0  0  0  0  0  0  0  0  0  0  0  0
    1.4790    1.7457   -0.3271 O   0  0  0  0  0  0  0  0  0  0  0  0
   -0.7507   -0.0774   -0.0598 O   0  0  0  0  0  0  0  0  0  0  0  0
    2.5276   -0.0774   -0.0598 O   0  0  0  0  0  0  0  0  0  0  0  0
   -0.1240    1.5214    0.7575 N   0  0  0  0  0  0  0  0  0  0  0  0
   -2.0560   -3.3380   -2.4716 N   0  0  0  0  0  0  0  0  0  0  0  0
    3.0690   -0.5052    2.6051 N   0  0  0  0  0  0  0  0  0  0  0  0
   -0.6062   -0.6850   -1.9942 C   0  0  0  0  0  0  0  0  0  0  0  0
   -0.2485    1.1413   -1.2963 C   0  0  0  0  0  0  0  0  0  0  0  0
   -0.1666   -2.1338   -1.4700 C   0  0  0  0  0  0  0  0  0  0  0  0
   -1.8442   -0.8444   -2.6406 C   0  0  0  0  0  0  0  0  0  0  0  0
    0.9647   -2.4705   -0.4740 C   0  0  0  0  0  0  0  0  0  0  0  0
   -2.5042   -2.1158   -2.8633 C   0  0  0  0  0  0  0  0  0  0  0  0
   -0.9059   -3.3455   -1.7874 C   0  0  0  0  0  0  0  0  0  0  0  0
    1.2206    1.1124    1.9193 C   0  0  0  0  0  0  0  0  0  0  0  0
   -3.8247   -2.1361   -3.5927 C   0  0  0  0  0  0  0  0  0  0  0  0
    1.6779   -0.3562    2.6288 C   0  0  0  0  0  0  0  0  0  0  0  0
    2.5807    1.4406    1.7386 C   0  0  0  0  0  0  0  0  0  0  0  0
   -0.7711    0.7301    1.0957 H   0  0  0  0  0  0  0  0  0  0  0  0
    3.6068   -1.0027    3.3017 H   0  0  0  0  0  0  0  0  0  0  0  0
   -2.0544    1.0307   -2.7005 H   0  0  0  0  0  0  0  0  0  0  0  0
    0.9946    2.2693    0.4120 H   0  0  0  0  0  0  0  0  0  0  0  0
   -1.5907   -0.4230   -0.4319 H   0  0  0  0  0  0  0  0  0  0  0  0
    0.7430    1.0433   -1.8488 H   0  0  0  0  0  0  0  0  0  0  0  0
   -0.8784    1.8706   -1.7292 H   0  0  0  0  0  0  0  0  0  0  0  0
    1.9097   -2.4658   -1.0217 H   0  0  0  0  0  0  0  0  0  0  0  0
    0.9001   -3.4798   -0.0157 H   0  0  0  0  0  0  0  0  0  0  0  0
   -0.6316   -4.3683   -1.4646 H   0  0  0  0  0  0  0  0  0  0  0  0
   -3.7041   -2.6675   -4.5406 H   0  0  0  0  0  0  0  0  0  0  0  0
   -4.6130   -2.6205   -3.0057 H   0  0  0  0  0  0  0  0  0  0  0  0
   -4.1615   -1.1238   -3.8204 H   0  0  0  0  0  0  0  0  0  0  0  0
    3.0238    1.9209    0.8471 H   0  0  0  0  0  0  0  0  0  0  0  0
  1  2  1  0  0  0  0
  1  6  1  0  0  0  0
  1  7  1  0  0  0  0
  1  8  2  0  0  0  0
  2 16  1  0  0  0  0
  3 15  1  0  0  0  0
  3 25  1  0  0  0  0
  4 11  1  0  0  0  0
  4 22  1  0  0  0  0
  5 21  2  0  0  0  0
  6 26  1  0  0  0  0
  7 27  1  0  0  0  0
  9 13  1  0  0  0  0
  9 19  1  0  0  0  0
  9 23  1  0  0  0  0
 10 17  2  0  0  0  0
 10 18  1  0  0  0  0
 11 21  1  0  0  0  0
 11 24  1  0  0  0  0
 12 13  1  0  0  0  0
 12 14  1  0  0  0  0
 12 15  2  0  0  0  0
 13 28  1  0  0  0  0
 13 29  1  0  0  0  0
 14 16  1  0  0  0  0
 14 18  2  0  0  0  0
 15 17  1  0  0  0  0
 16 30  1  0  0  0  0
 16 31  1  0  0  0  0
 17 20  1  0  0  0  0
 18 32  1  0  0  0  0
 19 21  1  0  0  0  0
 19 22  2  0  0  0  0
 20 33  1  0  0  0  0
 20 34  1  0  0  0  0
 20 35  1  0  0  0  0
 22 36  1  0  0  0  0
M  END
>  <DRUGBANK_ID>
DB03097

>  <SECONDARY_ACCESSION_NUMBERS>
EXPT02617

>  <COMMON_NAME>
PMP-hydroxyisoxazole, pyridoxamine-5-phosphate-hydroxyisoxazole

$$$$
