
 OpenBabel10282417103D

 32 32  0  0  0  0  0  0  0  0999 V2000
    1.0755   -0.0796    0.0238 C   0  0  0  0  0  0  0  0  0  0  0  0
    0.5922    1.3292    0.2502 C   0  0  0  0  0  0  0  0  0  0  0  0
   -0.4920    1.5781    1.1019 C   0  0  0  0  0  0  0  0  0  0  0  0
   -0.9221    2.8886    1.3426 C   0  0  0  0  0  0  0  0  0  0  0  0
    0.6457   -0.6005   -1.1567 F   0  0  0  0  0  0  0  0  0  0  0  0
    0.6635   -0.9471    0.9911 F   0  0  0  0  0  0  0  0  0  0  0  0
   -1.9977    3.1680    2.3722 C   0  0  0  0  0  0  0  0  0  0  0  0
   -0.9196    5.2536    3.2824 N   0  0  0  0  0  0  0  0  0  0  0  0
    1.2520    2.4039   -0.3678 C   0  0  0  0  0  0  0  0  0  0  0  0
   -1.4757    3.9280    3.6274 C   0  0  3  0  0  0  0  0  0  0  0  0
    0.8350    3.7099   -0.1263 C   0  0  0  0  0  0  0  0  0  0  0  0
   -0.2860    3.9336    0.6562 C   0  0  0  0  0  0  0  0  0  0  0  0
   -2.6055    4.0675    4.6475 C   0  0  0  0  0  0  0  0  0  0  0  0
    2.4344   -0.1676    0.0045 F   0  0  0  0  0  0  0  0  0  0  0  0
   -0.3424    6.0093    4.3891 C   0  0  0  0  0  0  0  0  0  0  0  0
    0.8217    5.2659    5.0250 C   0  0  0  0  0  0  0  0  0  0  0  0
   -0.9919    0.7446    1.5956 H   0  0  0  0  0  0  0  0  0  0  0  0
   -2.8274    3.7043    1.8970 H   0  0  0  0  0  0  0  0  0  0  0  0
   -2.4134    2.2085    2.7143 H   0  0  0  0  0  0  0  0  0  0  0  0
   -0.1364    5.0884    2.6518 H   0  0  0  0  0  0  0  0  0  0  0  0
    2.0925    2.2308   -1.0323 H   0  0  0  0  0  0  0  0  0  0  0  0
   -0.6851    3.3001    4.0552 H   0  0  0  0  0  0  0  0  0  0  0  0
    1.3878    4.5518   -0.5360 H   0  0  0  0  0  0  0  0  0  0  0  0
   -0.6392    4.9599    0.7674 H   0  0  0  0  0  0  0  0  0  0  0  0
   -2.9873    3.0851    4.9400 H   0  0  0  0  0  0  0  0  0  0  0  0
   -2.2668    4.5548    5.5669 H   0  0  0  0  0  0  0  0  0  0  0  0
   -3.4331    4.6542    4.2353 H   0  0  0  0  0  0  0  0  0  0  0  0
    0.0300    6.9544    3.9750 H   0  0  0  0  0  0  0  0  0  0  0  0
   -1.1015    6.2866    5.1241 H   0  0  0  0  0  0  0  0  0  0  0  0
    1.6010    5.0586    4.2823 H   0  0  0  0  0  0  0  0  0  0  0  0
    1.2579    5.8619    5.8284 H   0  0  0  0  0  0  0  0  0  0  0  0
    0.5088    4.3122    5.4600 H   0  0  0  0  0  0  0  0  0  0  0  0
  1 14  1  0  0  0  0
  2  1  1  0  0  0  0
  3  2  2  0  0  0  0
  3 17  1  0  0  0  0
  4  3  1  0  0  0  0
  5  1  1  0  0  0  0
  6  1  1  0  0  0  0
  7  4  1  0  0  0  0
  7 18  1  0  0  0  0
  7 19  1  0  0  0  0
  8 15  1  0  0  0  0
  8 20  1  0  0  0  0
  9  2  1  0  0  0  0
  9 21  1  0  0  0  0
 10  7  1  0  0  0  0
 10  8  1  0  0  0  0
 10 22  1  0  0  0  0
 11  9  2  0  0  0  0
 11 23  1  0  0  0  0
 12  4  2  0  0  0  0
 12 11  1  0  0  0  0
 12 24  1  0  0  0  0
 13 10  1  0  0  0  0
 13 25  1  0  0  0  0
 13 26  1  0  0  0  0
 13 27  1  0  0  0  0
 15 16  1  0  0  0  0
 15 28  1  0  0  0  0
 15 29  1  0  0  0  0
 16 30  1  0  0  0  0
 16 31  1  0  0  0  0
 16 32  1  0  0  0  0
M  END
>  <DRUGBANK_ID>
DB00574

>  <SECONDARY_ACCESSION_NUMBERS>
APRD00319

>  <COMMON_NAME>
Fenfluramine

>  <CAS_NUMBER>
458-24-2

>  <UNII>
2DS058H2CF

>  <SYNONYMS>
(Â±)-fenfluramine; 1-(m-trifluoromethyl-phenyl)-2-ethylaminopropane; DL-Fenfluramine; Fenfluramina; Fenfluramine; Fenfluraminum

$$$$
