1157
 OpenBabel10282417113D

 50 52  0  0  0  0  0  0  0  0999 V2000
    0.9042   -0.0210   -0.0117 O   0  0  0  0  0  0  0  0  0  0  0  0
    0.3993   -3.2057    3.5896 O   0  0  0  0  0  0  0  0  0  0  0  0
    1.7685   -1.0056    2.4394 O   0  0  0  0  0  0  0  0  0  0  0  0
   -2.7038   -3.0869   -0.1359 N   0  0  0  0  0  0  0  0  0  0  0  0
   -3.1704   -6.9388   -5.0384 N   0  0  0  0  0  0  0  0  0  0  0  0
   -5.5279   -7.1146   -4.9999 N   0  0  0  0  0  0  0  0  0  0  0  0
   -6.8792   -5.6742   -3.8521 N   0  0  0  0  0  0  0  0  0  0  0  0
   -4.2784   -8.4639   -6.3763 N   0  0  0  0  0  0  0  0  0  0  0  0
   -3.2104   -3.7247   -2.3992 C   0  0  0  0  0  0  0  0  0  0  0  0
   -4.3987   -4.4359   -2.6108 C   0  0  0  0  0  0  0  0  0  0  0  0
   -3.1471   -2.5843   -1.4222 C   0  0  0  0  0  0  0  0  0  0  0  0
   -4.4381   -5.4786   -3.5934 C   0  0  0  0  0  0  0  0  0  0  0  0
   -3.2306   -5.9364   -4.1611 C   0  0  0  0  0  0  0  0  0  0  0  0
   -2.0449   -4.1287   -3.0593 C   0  0  0  0  0  0  0  0  0  0  0  0
   -2.0500   -5.2840   -3.8361 C   0  0  0  0  0  0  0  0  0  0  0  0
   -5.6144   -4.0893   -1.7918 C   0  0  0  0  0  0  0  0  0  0  0  0
   -1.5547   -2.6411    0.4861 C   0  0  0  0  0  0  0  0  0  0  0  0
   -5.5814   -6.1307   -4.0966 C   0  0  0  0  0  0  0  0  0  0  0  0
   -1.1519   -3.1998    1.7060 C   0  0  0  0  0  0  0  0  0  0  0  0
   -0.7960   -1.5886   -0.0275 C   0  0  0  0  0  0  0  0  0  0  0  0
    0.3340   -1.1016    0.6164 C   0  0  0  0  0  0  0  0  0  0  0  0
   -0.0257   -2.7132    2.3891 C   0  0  0  0  0  0  0  0  0  0  0  0
    0.7166   -1.6431    1.8463 C   0  0  0  0  0  0  0  0  0  0  0  0
   -4.3212   -7.4808   -5.4366 C   0  0  0  0  0  0  0  0  0  0  0  0
    2.3254   -0.0227   -0.0795 C   0  0  0  0  0  0  0  0  0  0  0  0
   -0.2898   -4.2676    4.2152 C   0  0  0  0  0  0  0  0  0  0  0  0
    2.3327   -1.5156    3.6276 C   0  0  0  0  0  0  0  0  0  0  0  0
   -3.1679   -3.9133    0.2250 H   0  0  0  0  0  0  0  0  0  0  0  0
   -7.0989   -5.3818   -2.9179 H   0  0  0  0  0  0  0  0  0  0  0  0
   -7.5567   -6.3357   -4.2120 H   0  0  0  0  0  0  0  0  0  0  0  0
   -3.3874   -8.7158   -6.7685 H   0  0  0  0  0  0  0  0  0  0  0  0
   -5.1567   -8.8138   -6.7181 H   0  0  0  0  0  0  0  0  0  0  0  0
   -4.1091   -2.0827   -1.2916 H   0  0  0  0  0  0  0  0  0  0  0  0
   -2.5368   -1.8033   -1.8725 H   0  0  0  0  0  0  0  0  0  0  0  0
   -1.1223   -3.5604   -2.9471 H   0  0  0  0  0  0  0  0  0  0  0  0
   -1.1029   -5.6609   -4.2231 H   0  0  0  0  0  0  0  0  0  0  0  0
   -6.3436   -3.5728   -2.4201 H   0  0  0  0  0  0  0  0  0  0  0  0
   -6.0109   -5.0007   -1.3342 H   0  0  0  0  0  0  0  0  0  0  0  0
   -5.4314   -3.4404   -0.9361 H   0  0  0  0  0  0  0  0  0  0  0  0
   -1.7411   -4.0103    2.1246 H   0  0  0  0  0  0  0  0  0  0  0  0
   -1.0575   -1.0925   -0.9528 H   0  0  0  0  0  0  0  0  0  0  0  0
    2.6263    0.8741   -0.6278 H   0  0  0  0  0  0  0  0  0  0  0  0
    2.8073    0.0649    0.8934 H   0  0  0  0  0  0  0  0  0  0  0  0
    2.6931   -0.9012   -0.6185 H   0  0  0  0  0  0  0  0  0  0  0  0
   -1.3095   -3.9729    4.4751 H   0  0  0  0  0  0  0  0  0  0  0  0
   -0.2663   -5.1693    3.5982 H   0  0  0  0  0  0  0  0  0  0  0  0
    0.2447   -4.4842    5.1462 H   0  0  0  0  0  0  0  0  0  0  0  0
    1.6381   -1.3851    4.4618 H   0  0  0  0  0  0  0  0  0  0  0  0
    2.6609   -2.5521    3.5013 H   0  0  0  0  0  0  0  0  0  0  0  0
    3.2224   -0.9211    3.8457 H   0  0  0  0  0  0  0  0  0  0  0  0
  1 21  1  0  0  0  0
  1 25  1  0  0  0  0
  2 22  1  0  0  0  0
  2 26  1  0  0  0  0
  3 23  1  0  0  0  0
  3 27  1  0  0  0  0
  4 11  1  0  0  0  0
  4 17  1  0  0  0  0
  4 28  1  0  0  0  0
  5 13  1  0  0  0  0
  5 24  2  0  0  0  0
  6 18  2  0  0  0  0
  6 24  1  0  0  0  0
  7 18  1  0  0  0  0
  7 29  1  0  0  0  0
  7 30  1  0  0  0  0
  8 24  1  0  0  0  0
  8 31  1  0  0  0  0
  8 32  1  0  0  0  0
  9 10  2  0  0  0  0
  9 11  1  0  0  0  0
  9 14  1  0  0  0  0
 10 12  1  0  0  0  0
 10 16  1  0  0  0  0
 11 33  1  0  0  0  0
 11 34  1  0  0  0  0
 12 13  2  0  0  0  0
 12 18  1  0  0  0  0
 13 15  1  0  0  0  0
 14 15  2  0  0  0  0
 14 35  1  0  0  0  0
 15 36  1  0  0  0  0
 16 37  1  0  0  0  0
 16 38  1  0  0  0  0
 16 39  1  0  0  0  0
 17 19  2  0  0  0  0
 17 20  1  0  0  0  0
 19 22  1  0  0  0  0
 19 40  1  0  0  0  0
 20 21  2  0  0  0  0
 20 41  1  0  0  0  0
 21 23  1  0  0  0  0
 22 23  2  0  0  0  0
 25 42  1  0  0  0  0
 25 43  1  0  0  0  0
 25 44  1  0  0  0  0
 26 45  1  0  0  0  0
 26 46  1  0  0  0  0
 26 47  1  0  0  0  0
 27 48  1  0  0  0  0
 27 49  1  0  0  0  0
 27 50  1  0  0  0  0
M  END
>  <DRUGBANK_ID>
DB01157

>  <SECONDARY_ACCESSION_NUMBERS>
APRD00268

>  <COMMON_NAME>
Trimetrexate

>  <CAS_NUMBER>
52128-35-5

>  <UNII>
UPN4ITI8T4

>  <SYNONYMS>
Trimetrexate; Trimetrexato; Trimetrexatum

$$$$
