
 OpenBabel10282417143D

 44 46  0  0  0  0  0  0  0  0999 V2000
    2.4502    0.0042    0.0581 C   0  0  0  0  0  0  0  0  0  0  0  0
    1.0384   -0.0037   -0.3012 N   0  0  0  0  0  0  0  0  0  0  0  0
    0.3686   -1.2092    0.2462 C   0  0  0  0  0  0  0  0  0  0  0  0
   -1.1113   -1.2660   -0.1771 C   0  0  0  0  0  0  0  0  0  0  0  0
   -1.7732   -0.0420    0.2601 N   0  0  0  0  0  0  0  0  0  0  0  0
   -1.1610    1.2190   -0.1730 C   0  0  0  0  0  0  0  0  0  0  0  0
    0.3419    1.1973    0.2272 C   0  0  0  0  0  0  0  0  0  0  0  0
   -3.0367   -0.1085    0.8041 C   0  0  0  0  0  0  0  0  0  0  0  0
   -3.2364   -0.6849    2.0598 C   0  0  0  0  0  0  0  0  0  0  0  0
   -4.4797   -0.7035    2.6646 C   0  0  0  0  0  0  0  0  0  0  0  0
   -5.5669   -0.1032    2.0245 C   0  0  0  0  0  0  0  0  0  0  0  0
   -5.4432    0.4851    0.7553 C   0  0  0  0  0  0  0  0  0  0  0  0
   -4.1701    0.3869    0.1463 C   0  0  0  0  0  0  0  0  0  0  0  0
   -4.0115    0.7159   -1.1490 F   0  0  0  0  0  0  0  0  0  0  0  0
   -6.5707    1.1317    0.1851 N   0  0  0  0  0  0  0  0  0  0  0  0
   -7.7963    1.0797    0.8575 C   0  0  0  0  0  0  0  0  0  0  0  0
   -8.0340    0.5002    2.0511 C   0  0  0  0  0  0  0  0  0  0  0  0
   -6.8715   -0.1327    2.7169 C   0  0  0  0  0  0  0  0  0  0  0  0
   -6.9383   -0.6892    3.8092 O   0  0  0  0  0  0  0  0  0  0  0  0
   -9.3963    0.5187    2.6330 C   0  0  0  0  0  0  0  0  0  0  0  0
  -10.3806    1.0257    2.1263 O   0  0  0  0  0  0  0  0  0  0  0  0
   -9.4757   -0.0967    3.8253 O   0  0  0  0  0  0  0  0  0  0  0  0
   -6.3844    1.8354   -1.1086 C   0  0  0  0  0  0  0  0  0  0  0  0
   -5.5107    3.1044   -1.0302 C   0  0  0  0  0  0  0  0  0  0  0  0
   -4.2508    2.8914   -0.5762 F   0  0  0  0  0  0  0  0  0  0  0  0
   -2.2034   -1.2379    2.7142 F   0  0  0  0  0  0  0  0  0  0  0  0
    2.9464    0.8835   -0.3660 H   0  0  0  0  0  0  0  0  0  0  0  0
    2.6044    0.0034    1.1422 H   0  0  0  0  0  0  0  0  0  0  0  0
    2.9512   -0.8737   -0.3651 H   0  0  0  0  0  0  0  0  0  0  0  0
    0.8676   -2.1169   -0.1083 H   0  0  0  0  0  0  0  0  0  0  0  0
    0.4242   -1.2046    1.3443 H   0  0  0  0  0  0  0  0  0  0  0  0
   -1.1852   -1.3490   -1.2691 H   0  0  0  0  0  0  0  0  0  0  0  0
   -1.5820   -2.1581    0.2506 H   0  0  0  0  0  0  0  0  0  0  0  0
   -1.2531    1.3411   -1.2592 H   0  0  0  0  0  0  0  0  0  0  0  0
   -1.6363    2.0841    0.3063 H   0  0  0  0  0  0  0  0  0  0  0  0
    0.4134    1.2126    1.3248 H   0  0  0  0  0  0  0  0  0  0  0  0
    0.8254    2.1087   -0.1427 H   0  0  0  0  0  0  0  0  0  0  0  0
   -4.5886   -1.1724    3.6380 H   0  0  0  0  0  0  0  0  0  0  0  0
   -8.6093    1.5636    0.3157 H   0  0  0  0  0  0  0  0  0  0  0  0
  -10.3976   -0.0417    4.1413 H   0  0  0  0  0  0  0  0  0  0  0  0
   -6.0228    1.1303   -1.8669 H   0  0  0  0  0  0  0  0  0  0  0  0
   -7.3629    2.1617   -1.4848 H   0  0  0  0  0  0  0  0  0  0  0  0
   -5.4068    3.5371   -2.0288 H   0  0  0  0  0  0  0  0  0  0  0  0
   -5.9552    3.8383   -0.3583 H   0  0  0  0  0  0  0  0  0  0  0  0
  1  2  1  0  0  0  0
  1 27  1  0  0  0  0
  1 28  1  0  0  0  0
  1 29  1  0  0  0  0
  2  3  1  0  0  0  0
  2  7  1  0  0  0  0
  3  4  1  0  0  0  0
  3 30  1  0  0  0  0
  3 31  1  0  0  0  0
  4  5  1  0  0  0  0
  4 32  1  0  0  0  0
  4 33  1  0  0  0  0
  5  6  1  0  0  0  0
  5  8  1  0  0  0  0
  6  7  1  0  0  0  0
  6 34  1  0  0  0  0
  6 35  1  0  0  0  0
  7 36  1  0  0  0  0
  7 37  1  0  0  0  0
  8  9  2  0  0  0  0
  8 13  1  0  0  0  0
  9 10  1  0  0  0  0
  9 26  1  0  0  0  0
 10 11  2  0  0  0  0
 10 38  1  0  0  0  0
 11 12  1  0  0  0  0
 11 18  1  0  0  0  0
 12 13  2  0  0  0  0
 12 15  1  0  0  0  0
 13 14  1  0  0  0  0
 15 16  1  0  0  0  0
 15 23  1  0  0  0  0
 16 17  2  0  0  0  0
 16 39  1  0  0  0  0
 17 18  1  0  0  0  0
 17 20  1  0  0  0  0
 18 19  2  0  0  0  0
 20 21  2  0  0  0  0
 20 22  1  0  0  0  0
 22 40  1  0  0  0  0
 23 24  1  0  0  0  0
 23 41  1  0  0  0  0
 23 42  1  0  0  0  0
 24 25  1  0  0  0  0
 24 43  1  0  0  0  0
 24 44  1  0  0  0  0
M  END
>  <DRUGBANK_ID>
DB04576

>  <COMMON_NAME>
Fleroxacin

>  <CAS_NUMBER>
79660-72-3

>  <UNII>
N804LDH51K

>  <SYNONYMS>
Fleroxacin; Fleroxacine; Fleroxacino; Fleroxacinum; Fleroxicin; FLRX

$$$$
