
 OpenBabel10282417103D

 20 20  0  0  1  0  0  0  0  0999 V2000
    3.5110    1.1796    1.7381 O   0  0  0  0  0  0  0  0  0  0  0  0
    3.0822    4.7378    1.4297 O   0  0  0  0  0  0  0  0  0  0  0  0
    5.0860    3.8276    3.6134 O   0  0  0  0  0  0  0  0  0  0  0  0
    4.3512    1.6136    2.7161 C   0  0  0  0  0  0  0  0  0  0  0  0
    5.0086    0.8887    3.4346 O   0  0  0  0  0  0  0  0  0  0  0  0
    4.3223    3.0951    2.7552 C   0  0  0  0  0  0  0  0  0  0  0  0
    3.4544    3.4820    1.8188 C   0  0  0  0  0  0  0  0  0  0  0  0
    1.0228    3.6884   -0.3776 O   0  0  0  0  0  0  0  0  0  0  0  0
    2.0512    3.1163   -1.1792 C   0  0  0  0  0  0  0  0  0  0  0  0
    3.1031    2.3051   -0.3952 C   0  0  2  0  0  0  0  0  0  0  0  0
    3.1365    0.9718   -0.9354 O   0  0  0  0  0  0  0  0  0  0  0  0
    2.8652    2.3023    1.1273 C   0  0  1  0  0  0  0  0  0  0  0  0
    1.8056    2.1898    1.3727 H   0  0  0  0  0  0  0  0  0  0  0  0
    3.5258    5.4367    1.9324 H   0  0  0  0  0  0  0  0  0  0  0  0
    4.9431    4.7731    3.4749 H   0  0  0  0  0  0  0  0  0  0  0  0
    0.5332    2.9777    0.0674 H   0  0  0  0  0  0  0  0  0  0  0  0
    2.5413    3.9397   -1.7076 H   0  0  0  0  0  0  0  0  0  0  0  0
    1.5610    2.4899   -1.9314 H   0  0  0  0  0  0  0  0  0  0  0  0
    4.1005    2.7098   -0.6150 H   0  0  0  0  0  0  0  0  0  0  0  0
    2.3178    0.5146   -0.6820 H   0  0  0  0  0  0  0  0  0  0  0  0
  1  4  1  0  0  0  0
  2 14  1  0  0  0  0
  3 15  1  0  0  0  0
  4  5  2  0  0  0  0
  4  6  1  0  0  0  0
  6  3  1  0  0  0  0
  6  7  2  0  0  0  0
  7  2  1  0  0  0  0
  8  9  1  0  0  0  0
  8 16  1  0  0  0  0
  9 17  1  0  0  0  0
  9 18  1  0  0  0  0
 10 11  1  0  0  0  0
 10 19  1  6  0  0  0
 10  9  1  0  0  0  0
 11 20  1  0  0  0  0
 12  1  1  0  0  0  0
 12  7  1  0  0  0  0
 12 10  1  0  0  0  0
 12 13  1  1  0  0  0
M  END
>  <DRUGBANK_ID>
DB00126

>  <SECONDARY_ACCESSION_NUMBERS>
NUTR00001; APRD00084; EXPT00568; DB11167; DB11316; DB11170; DB09541; DB11317

>  <COMMON_NAME>
Ascorbic acid

>  <CAS_NUMBER>
50-81-7

>  <UNII>
PQ6CK8PD0R

>  <SYNONYMS>
acide ascorbique; ácido ascórbico; Acidum ascorbicum; acidum ascorbinicum; Ascorbate; Ascorbic acid; Ascorbinsäure; L-(+)-ascorbic acid; L-Ascorbate; L-Ascorbic Acid; Vitamin C; Vitamina C

$$$$
