1156
 OpenBabel10282417113D

 34 34  0  0  1  0  0  0  0  0999 V2000
   -2.0912   -0.0745   -0.0260 Cl  0  0  0  0  0  0  0  0  0  0  0  0
    3.6990    2.4311   -0.0688 O   0  0  0  0  0  0  0  0  0  0  0  0
    0.8456    3.9666   -1.1470 N   0  0  0  0  0  0  0  0  0  0  0  0
    0.1078    5.2423   -1.2538 C   0  0  0  0  0  0  0  0  0  0  0  0
    1.7212    3.7954    0.0414 C   0  0  3  0  0  0  0  0  0  0  0  0
    1.0953    6.4158   -1.2869 C   0  0  0  0  0  0  0  0  0  0  0  0
   -0.6990    5.2301   -2.5691 C   0  0  0  0  0  0  0  0  0  0  0  0
   -0.9451    5.4366   -0.1520 C   0  0  0  0  0  0  0  0  0  0  0  0
    1.0596    3.8445    1.4214 C   0  0  0  0  0  0  0  0  0  0  0  0
    2.4736    2.4602   -0.0555 C   0  0  0  0  0  0  0  0  0  0  0  0
    1.7040    1.1749   -0.0598 C   0  0  0  0  0  0  0  0  0  0  0  0
    0.3052    1.1370   -0.0989 C   0  0  0  0  0  0  0  0  0  0  0  0
    2.4178   -0.0263   -0.0031 C   0  0  0  0  0  0  0  0  0  0  0  0
   -0.3712   -0.0734   -0.0495 C   0  0  0  0  0  0  0  0  0  0  0  0
    1.7338   -1.2436    0.0026 C   0  0  0  0  0  0  0  0  0  0  0  0
    0.3377   -1.2664   -0.0151 C   0  0  0  0  0  0  0  0  0  0  0  0
    1.4361    3.8672   -1.9815 H   0  0  0  0  0  0  0  0  0  0  0  0
    2.5079    4.5576    0.0103 H   0  0  0  0  0  0  0  0  0  0  0  0
    1.7735    6.3379   -2.1457 H   0  0  0  0  0  0  0  0  0  0  0  0
    0.5672    7.3704   -1.3530 H   0  0  0  0  0  0  0  0  0  0  0  0
    1.7098    6.4605   -0.3821 H   0  0  0  0  0  0  0  0  0  0  0  0
   -1.4194    4.4025   -2.5866 H   0  0  0  0  0  0  0  0  0  0  0  0
   -1.2775    6.1591   -2.6611 H   0  0  0  0  0  0  0  0  0  0  0  0
   -0.0634    5.1522   -3.4560 H   0  0  0  0  0  0  0  0  0  0  0  0
   -1.5456    4.5290   -0.0142 H   0  0  0  0  0  0  0  0  0  0  0  0
   -0.5213    5.7326    0.8014 H   0  0  0  0  0  0  0  0  0  0  0  0
   -1.6248    6.2596   -0.3909 H   0  0  0  0  0  0  0  0  0  0  0  0
    1.7387    3.4977    2.2035 H   0  0  0  0  0  0  0  0  0  0  0  0
    0.7985    4.8565    1.7134 H   0  0  0  0  0  0  0  0  0  0  0  0
    0.1548    3.2322    1.4819 H   0  0  0  0  0  0  0  0  0  0  0  0
   -0.2926    2.0385   -0.1709 H   0  0  0  0  0  0  0  0  0  0  0  0
    3.5065   -0.0188    0.0314 H   0  0  0  0  0  0  0  0  0  0  0  0
    2.2920   -2.1753    0.0219 H   0  0  0  0  0  0  0  0  0  0  0  0
   -0.1928   -2.2133   -0.0092 H   0  0  0  0  0  0  0  0  0  0  0  0
  1 14  1  0  0  0  0
  2 10  2  0  0  0  0
  3  4  1  0  0  0  0
  3  5  1  0  0  0  0
  3 17  1  0  0  0  0
  4  6  1  0  0  0  0
  4  7  1  0  0  0  0
  4  8  1  0  0  0  0
  5  9  1  0  0  0  0
  5 10  1  0  0  0  0
  5 18  1  0  0  0  0
  6 19  1  0  0  0  0
  6 20  1  0  0  0  0
  6 21  1  0  0  0  0
  7 22  1  0  0  0  0
  7 23  1  0  0  0  0
  7 24  1  0  0  0  0
  8 25  1  0  0  0  0
  8 26  1  0  0  0  0
  8 27  1  0  0  0  0
  9 28  1  0  0  0  0
  9 29  1  0  0  0  0
  9 30  1  0  0  0  0
 10 11  1  0  0  0  0
 11 12  2  0  0  0  0
 11 13  1  0  0  0  0
 12 14  1  0  0  0  0
 12 31  1  0  0  0  0
 13 15  2  0  0  0  0
 13 32  1  0  0  0  0
 14 16  2  0  0  0  0
 15 16  1  0  0  0  0
 15 33  1  0  0  0  0
 16 34  1  0  0  0  0
M  END
>  <DRUGBANK_ID>
DB01156

>  <SECONDARY_ACCESSION_NUMBERS>
APRD00621

>  <COMMON_NAME>
Bupropion

>  <CAS_NUMBER>
34911-55-2

>  <UNII>
01ZG3TPX31

>  <SYNONYMS>
Amfebutamone; Bupropion

$$$$
