
 OpenBabel10282417143D

 42 43  0  0  0  0  0  0  0  0999 V2000
   -4.4549   -3.7873    0.1365 C   0  0  0  0  0  0  0  0  0  0  0  0
   -2.7904   -7.3726   -3.3624 C   0  0  0  0  0  0  0  0  0  0  0  0
   -5.0845   -2.5544    0.0748 C   0  0  0  0  0  0  0  0  0  0  0  0
   -2.3470   -8.6829   -3.4341 C   0  0  0  0  0  0  0  0  0  0  0  0
   -3.0796   -3.8021    0.1576 C   0  0  0  0  0  0  0  0  0  0  0  0
   -1.9736   -6.4269   -2.7564 C   0  0  0  0  0  0  0  0  0  0  0  0
   -4.3368   -1.3386    0.0361 C   0  0  0  0  0  0  0  0  0  0  0  0
   -1.0943   -9.0319   -2.9057 C   0  0  0  0  0  0  0  0  0  0  0  0
    3.3067   -2.6072    0.8647 C   0  0  0  0  0  0  0  0  0  0  0  0
    1.9225   -2.6837    0.9549 C   0  0  0  0  0  0  0  0  0  0  0  0
    3.2605   -4.3046   -0.8621 C   0  0  0  0  0  0  0  0  0  0  0  0
   -0.9159   -2.7030    0.0864 C   0  0  0  0  0  0  0  0  0  0  0  0
    0.0175   -5.7269   -1.5252 C   0  0  0  0  0  0  0  0  0  0  0  0
    3.9925   -3.4708    0.0038 C   0  0  0  0  0  0  0  0  0  0  0  0
   -2.3636   -2.5936    0.1263 C   0  0  0  0  0  0  0  0  0  0  0  0
   -0.6924   -6.7888   -2.2753 C   0  0  0  0  0  0  0  0  0  0  0  0
    1.1946   -3.5876    0.1640 C   0  0  0  0  0  0  0  0  0  0  0  0
    1.8520   -4.3916   -0.7973 C   0  0  0  0  0  0  0  0  0  0  0  0
   -2.9193   -1.2782    0.0583 C   0  0  0  0  0  0  0  0  0  0  0  0
   -0.2100   -8.1153   -2.2983 C   0  0  0  0  0  0  0  0  0  0  0  0
    5.4746   -3.5836    0.0785 C   0  0  0  0  0  0  0  0  0  0  0  0
   -0.1827   -3.6891    0.4302 N   0  0  0  0  0  0  0  0  0  0  0  0
    1.2350   -5.3051   -1.6830 N   0  0  0  0  0  0  0  0  0  0  0  0
   -2.2397   -0.1848    0.0265 O   0  5  0  0  0  0  0  0  0  0  0  0
    0.8934   -8.5047   -1.7891 O   0  5  0  0  0  0  0  0  0  0  0  0
    6.1843   -4.3273   -0.5854 O   0  0  0  0  0  0  0  0  0  0  0  0
    6.0097   -2.7643    1.0050 O   0  0  0  0  0  0  0  0  0  0  0  0
   -0.4682    0.2916   -0.0720 Fe  0  0  0  0  0  0  0  0  0  0  0  0
   -0.3895   -1.8292   -0.2570 H   0  0  0  0  0  0  0  0  0  0  0  0
   -0.6726   -5.3106   -0.7952 H   0  0  0  0  0  0  0  0  0  0  0  0
   -5.0094   -4.7258    0.1670 H   0  0  0  0  0  0  0  0  0  0  0  0
   -3.7582   -7.1001   -3.7691 H   0  0  0  0  0  0  0  0  0  0  0  0
   -6.1759   -2.5486    0.0566 H   0  0  0  0  0  0  0  0  0  0  0  0
   -2.9629   -9.4527   -3.8882 H   0  0  0  0  0  0  0  0  0  0  0  0
   -2.5643   -4.7598    0.1818 H   0  0  0  0  0  0  0  0  0  0  0  0
   -2.3353   -5.4102   -2.6524 H   0  0  0  0  0  0  0  0  0  0  0  0
   -4.9506   -0.4344   -0.0128 H   0  0  0  0  0  0  0  0  0  0  0  0
   -0.7875  -10.0778   -2.9533 H   0  0  0  0  0  0  0  0  0  0  0  0
    3.8551   -1.9592    1.5438 H   0  0  0  0  0  0  0  0  0  0  0  0
    1.4122   -2.1516    1.7493 H   0  0  0  0  0  0  0  0  0  0  0  0
    3.7879   -4.9563   -1.5631 H   0  0  0  0  0  0  0  0  0  0  0  0
    6.9639   -3.0116    1.0183 H   0  0  0  0  0  0  0  0  0  0  0  0
  1 31  1  0  0  0  0
  2 32  1  0  0  0  0
  3  1  2  0  0  0  0
  3 33  1  0  0  0  0
  4  2  2  0  0  0  0
  4 34  1  0  0  0  0
  5  1  1  0  0  0  0
  5 35  1  0  0  0  0
  6  2  1  0  0  0  0
  6 36  1  0  0  0  0
  7  3  1  0  0  0  0
  7 37  1  0  0  0  0
  8  4  1  0  0  0  0
  8 38  1  0  0  0  0
  9 39  1  0  0  0  0
 10  9  2  0  0  0  0
 10 40  1  0  0  0  0
 11 41  1  0  0  0  0
 14  9  1  0  0  0  0
 14 11  2  0  0  0  0
 15  5  2  0  0  0  0
 15 12  1  0  0  0  0
 16  6  2  0  0  0  0
 16 13  1  0  0  0  0
 17 10  1  0  0  0  0
 18 11  1  0  0  0  0
 18 17  2  0  0  0  0
 19  7  2  0  0  0  0
 19 15  1  0  0  0  0
 20  8  2  0  0  0  0
 20 16  1  0  0  0  0
 21 14  1  0  0  0  0
 22 12  2  0  0  0  0
 22 17  1  0  0  0  0
 23 13  2  0  0  0  0
 23 18  1  0  0  0  0
 24 19  1  0  0  0  0
 25 20  1  0  0  0  0
 26 21  2  0  0  0  0
 27 21  1  0  0  0  0
 27 42  1  0  0  0  0
 29 12  1  0  0  0  0
 30 13  1  0  0  0  0
M  CHG  3  24  -1  25  -1  28   4
M  END
>  <DRUGBANK_ID>
DB04810

>  <COMMON_NAME>
Salophen-10-carboxylate iron chelate

$$$$
