
 OpenBabel10282417103D

124126  0  0  0  0  0  0  0  0999 V2000
    8.0622   10.8271   -6.5160 N   0  0  0  0  0  0  0  0  0  0  0  0
    6.6246   10.4093   -6.4839 C   0  0  0  0  0  0  0  0  0  0  0  0
    9.0429    9.7073   -6.8194 C   0  0  1  0  0  0  0  0  0  0  0  0
    6.1290    9.7818   -5.1809 C   0  0  1  0  0  0  0  0  0  0  0  0
    5.7430    8.3501   -5.3321 C   0  0  0  0  0  0  0  0  0  0  0  0
    5.3286    7.8959   -3.9599 C   0  0  2  0  0  0  0  0  0  0  0  0
    5.6747    6.3564   -3.9290 C   0  0  1  0  0  0  0  0  0  0  0  0
    7.2359    6.2868   -3.4893 C   0  0  2  0  0  0  0  0  0  0  0  0
    8.2055    5.0652   -3.7169 C   0  0  1  0  0  0  0  0  0  0  0  0
    9.6993    5.2301   -3.1203 C   0  0  2  0  0  0  0  0  0  0  0  0
   10.4972    5.6161   -4.3451 C   0  0  0  0  0  0  0  0  0  0  0  0
   10.9205    6.9207   -4.4303 O   0  0  0  0  0  0  0  0  0  0  0  0
   11.5125    7.2509   -5.7392 C   0  0  1  0  0  0  0  0  0  0  0  0
   11.4323    8.7688   -6.2256 C   0  0  2  0  0  0  0  0  0  0  0  0
   10.1978    9.5223   -5.7475 C   0  0  2  0  0  0  0  0  0  0  0  0
    8.5096   11.7100   -5.3890 C   0  0  0  0  0  0  0  0  0  0  0  0
    8.4753    8.3058   -7.1555 C   0  0  0  0  0  0  0  0  0  0  0  0
    9.8214    8.9560   -4.4947 O   0  0  0  0  0  0  0  0  0  0  0  0
   11.4430    8.8010   -7.6657 O   0  0  0  0  0  0  0  0  0  0  0  0
   10.3729    3.8799   -2.7416 C   0  0  0  0  0  0  0  0  0  0  0  0
    3.9080    8.1238   -4.0518 O   0  0  0  0  0  0  0  0  0  0  0  0
    7.2882    9.8296   -4.2514 C   0  0  0  0  0  0  0  0  0  0  0  0
    5.9396    8.8005   -2.6826 C   0  0  0  0  0  0  0  0  0  0  0  0
   12.6333    9.6248   -5.7700 C   0  0  0  0  0  0  0  0  0  0  0  0
   12.9885    6.8413   -5.7316 C   0  0  0  0  0  0  0  0  0  0  0  0
    7.5823    3.7975   -3.2934 O   0  0  0  0  0  0  0  0  0  0  0  0
    4.5725    5.4982   -3.2946 O   0  0  0  0  0  0  0  0  0  0  0  0
   10.6578    4.8068   -5.2030 O   0  0  0  0  0  0  0  0  0  0  0  0
   13.2518    5.4217   -5.3111 C   0  0  0  0  0  0  0  0  0  0  0  0
    7.5203    3.3759   -1.8683 C   0  0  1  0  0  0  0  0  0  0  0  0
    3.4170    7.0554   -1.7142 C   0  0  1  0  0  0  0  0  0  0  0  0
    4.0052    5.7126   -1.9409 C   0  0  1  0  0  0  0  0  0  0  0  0
    3.0490    4.7616   -1.4357 O   0  0  0  0  0  0  0  0  0  0  0  0
    2.6561    5.1302   -0.0807 C   0  0  1  0  0  0  0  0  0  0  0  0
    1.9905    6.4992    0.0306 C   0  0  0  0  0  0  0  0  0  0  0  0
    2.9627    7.5084   -0.3680 C   0  0  2  0  0  0  0  0  0  0  0  0
    6.7339    4.1146   -0.7435 C   0  0  0  0  0  0  0  0  0  0  0  0
    7.1539    2.0148   -1.7976 O   0  0  0  0  0  0  0  0  0  0  0  0
    7.1138    1.5370   -0.4349 C   0  0  2  0  0  0  0  0  0  0  0  0
    6.1398    2.3561    0.5149 C   0  0  1  0  0  0  0  0  0  0  0  0
    6.6562    3.8089    0.6928 C   0  0  1  0  0  0  0  0  0  0  0  0
    4.4730    7.8854   -1.6451 O   0  0  0  0  0  0  0  0  0  0  0  0
    8.5494    1.5134    0.0713 C   0  0  0  0  0  0  0  0  0  0  0  0
    8.0263    4.1422    1.3486 C   0  0  0  0  0  0  0  0  0  0  0  0
    1.5721    4.2283    0.4136 C   0  0  0  0  0  0  0  0  0  0  0  0
    2.5773    8.9392   -0.4380 N   0  0  0  0  0  0  0  0  0  0  0  0
    5.6896    4.7604    1.2915 O   0  0  0  0  0  0  0  0  0  0  0  0
    4.8165    2.2657   -0.0930 O   0  0  0  0  0  0  0  0  0  0  0  0
    6.0156    6.1807    1.3068 C   0  0  0  0  0  0  0  0  0  0  0  0
    2.2405    9.4451    0.8653 C   0  0  0  0  0  0  0  0  0  0  0  0
    1.5815    9.1780   -1.4751 C   0  0  0  0  0  0  0  0  0  0  0  0
    6.9880    6.0363   -2.1292 C   0  0  0  0  0  0  0  0  0  0  0  0
    5.9793   11.2650   -6.6997 H   0  0  0  0  0  0  0  0  0  0  0  0
    6.3952    9.7232   -7.3057 H   0  0  0  0  0  0  0  0  0  0  0  0
    9.4886   10.0758   -7.7462 H   0  0  0  0  0  0  0  0  0  0  0  0
    5.2682   10.3350   -4.7775 H   0  0  0  0  0  0  0  0  0  0  0  0
    4.9539    8.2283   -6.0849 H   0  0  0  0  0  0  0  0  0  0  0  0
    6.5187    7.6944   -5.6907 H   0  0  0  0  0  0  0  0  0  0  0  0
    5.7139    5.9223   -4.9400 H   0  0  0  0  0  0  0  0  0  0  0  0
    7.7962    7.2222   -3.4752 H   0  0  0  0  0  0  0  0  0  0  0  0
    8.2932    5.0922   -4.8131 H   0  0  0  0  0  0  0  0  0  0  0  0
    9.8128    5.9449   -2.2894 H   0  0  0  0  0  0  0  0  0  0  0  0
   10.9549    6.6743   -6.4879 H   0  0  0  0  0  0  0  0  0  0  0  0
   10.5205   10.5206   -5.4721 H   0  0  0  0  0  0  0  0  0  0  0  0
    8.8992   11.1702   -4.5060 H   0  0  0  0  0  0  0  0  0  0  0  0
    9.3771   12.3283   -5.5996 H   0  0  0  0  0  0  0  0  0  0  0  0
    7.6998   12.3434   -5.0050 H   0  0  0  0  0  0  0  0  0  0  0  0
    7.6702    8.3125   -7.8939 H   0  0  0  0  0  0  0  0  0  0  0  0
    9.2253    7.6129   -7.5336 H   0  0  0  0  0  0  0  0  0  0  0  0
    8.1496    7.8068   -6.2531 H   0  0  0  0  0  0  0  0  0  0  0  0
    9.5003    8.0555   -4.6871 H   0  0  0  0  0  0  0  0  0  0  0  0
   12.2477    8.3746   -7.9970 H   0  0  0  0  0  0  0  0  0  0  0  0
   10.0430    3.1144   -3.4546 H   0  0  0  0  0  0  0  0  0  0  0  0
   11.4622    3.9268   -2.7568 H   0  0  0  0  0  0  0  0  0  0  0  0
   10.1858    3.4994   -1.7393 H   0  0  0  0  0  0  0  0  0  0  0  0
    3.5594    7.8318   -4.9061 H   0  0  0  0  0  0  0  0  0  0  0  0
    7.2503   10.8223   -3.8070 H   0  0  0  0  0  0  0  0  0  0  0  0
    7.7836    9.2762   -3.4406 H   0  0  0  0  0  0  0  0  0  0  0  0
    7.9575    9.3203   -4.8775 H   0  0  0  0  0  0  0  0  0  0  0  0
    6.5267    8.2285   -1.9605 H   0  0  0  0  0  0  0  0  0  0  0  0
    6.5379    9.6811   -2.4673 H   0  0  0  0  0  0  0  0  0  0  0  0
    5.1234    9.4552   -2.3760 H   0  0  0  0  0  0  0  0  0  0  0  0
   12.9287    9.3816   -4.7473 H   0  0  0  0  0  0  0  0  0  0  0  0
   13.4694    9.5113   -6.4633 H   0  0  0  0  0  0  0  0  0  0  0  0
   12.4169   10.7007   -5.7689 H   0  0  0  0  0  0  0  0  0  0  0  0
   13.4138    7.0238   -6.7219 H   0  0  0  0  0  0  0  0  0  0  0  0
   13.5245    7.4515   -5.0011 H   0  0  0  0  0  0  0  0  0  0  0  0
   12.7228    4.7363   -5.9749 H   0  0  0  0  0  0  0  0  0  0  0  0
   14.3106    5.1849   -5.3605 H   0  0  0  0  0  0  0  0  0  0  0  0
   12.9475    5.2859   -4.2680 H   0  0  0  0  0  0  0  0  0  0  0  0
    8.5059    3.5218   -1.5247 H   0  0  0  0  0  0  0  0  0  0  0  0
    2.6804    7.2116   -2.5032 H   0  0  0  0  0  0  0  0  0  0  0  0
    4.8014    5.6516   -1.2328 H   0  0  0  0  0  0  0  0  0  0  0  0
    3.5299    5.0776    0.5745 H   0  0  0  0  0  0  0  0  0  0  0  0
    1.1561    6.5469   -0.6664 H   0  0  0  0  0  0  0  0  0  0  0  0
    1.6813    6.7195    1.0505 H   0  0  0  0  0  0  0  0  0  0  0  0
    3.7978    7.4818    0.3571 H   0  0  0  0  0  0  0  0  0  0  0  0
    7.1830    5.0474   -0.5043 H   0  0  0  0  0  0  0  0  0  0  0  0
    5.7099    4.1553   -1.0784 H   0  0  0  0  0  0  0  0  0  0  0  0
    6.7258    0.5213   -0.5180 H   0  0  0  0  0  0  0  0  0  0  0  0
    6.0231    1.8887    1.4860 H   0  0  0  0  0  0  0  0  0  0  0  0
    5.0295    7.8141   -0.8646 H   0  0  0  0  0  0  0  0  0  0  0  0
    8.5844    1.4179    1.1545 H   0  0  0  0  0  0  0  0  0  0  0  0
    9.1596    0.7775   -0.4461 H   0  0  0  0  0  0  0  0  0  0  0  0
    9.0987    2.4097   -0.1890 H   0  0  0  0  0  0  0  0  0  0  0  0
    8.2400    5.2181    1.3515 H   0  0  0  0  0  0  0  0  0  0  0  0
    8.0681    3.8091    2.3807 H   0  0  0  0  0  0  0  0  0  0  0  0
    8.9095    3.8432    0.8019 H   0  0  0  0  0  0  0  0  0  0  0  0
    1.9111    3.2009    0.4640 H   0  0  0  0  0  0  0  0  0  0  0  0
    1.2495    4.5731    1.4039 H   0  0  0  0  0  0  0  0  0  0  0  0
    0.7281    4.3090   -0.2781 H   0  0  0  0  0  0  0  0  0  0  0  0
    4.4030    3.1388   -0.2328 H   0  0  0  0  0  0  0  0  0  0  0  0
    6.9452    6.4315    1.8168 H   0  0  0  0  0  0  0  0  0  0  0  0
    6.0800    6.6236    0.3184 H   0  0  0  0  0  0  0  0  0  0  0  0
    5.2306    6.7406    1.8191 H   0  0  0  0  0  0  0  0  0  0  0  0
    1.8995   10.4790    0.8122 H   0  0  0  0  0  0  0  0  0  0  0  0
    1.4638    8.8318    1.3172 H   0  0  0  0  0  0  0  0  0  0  0  0
    3.1306    9.4235    1.5082 H   0  0  0  0  0  0  0  0  0  0  0  0
    1.2115   10.2012   -1.4766 H   0  0  0  0  0  0  0  0  0  0  0  0
    1.9960    9.0376   -2.4825 H   0  0  0  0  0  0  0  0  0  0  0  0
    0.7437    8.4902   -1.3583 H   0  0  0  0  0  0  0  0  0  0  0  0
    7.9459    5.9123   -1.6492 H   0  0  0  0  0  0  0  0  0  0  0  0
    6.3703    6.6120   -1.5027 H   0  0  0  0  0  0  0  0  0  0  0  0
    6.3777    5.1639   -2.3373 H   0  0  0  0  0  0  0  0  0  0  0  0
  1  2  1  0  0  0  0
  1  3  1  0  0  0  0
  1 16  1  0  0  0  0
  2  4  1  0  0  0  0
  2 53  1  0  0  0  0
  2 54  1  0  0  0  0
  3 17  1  0  0  0  0
  3 55  1  6  0  0  0
  4  5  1  0  0  0  0
  4 22  1  0  0  0  0
  4 56  1  1  0  0  0
  5  6  1  0  0  0  0
  5 57  1  0  0  0  0
  5 58  1  0  0  0  0
  6  7  1  0  0  0  0
  6 23  1  0  0  0  0
  6 21  1  1  0  0  0
  7  8  1  0  0  0  0
  7 27  1  0  0  0  0
  7 59  1  6  0  0  0
  8  9  1  0  0  0  0
  8 60  1  6  0  0  0
  8 52  1  0  0  0  0
  9 10  1  0  0  0  0
  9 26  1  0  0  0  0
  9 61  1  6  0  0  0
 10 11  1  0  0  0  0
 10 62  1  1  0  0  0
 10 20  1  0  0  0  0
 11 12  1  0  0  0  0
 11 28  2  0  0  0  0
 12 13  1  0  0  0  0
 13 14  1  0  0  0  0
 13 25  1  0  0  0  0
 13 63  1  6  0  0  0
 14 15  1  0  0  0  0
 14 24  1  0  0  0  0
 14 19  1  6  0  0  0
 15  3  1  0  0  0  0
 15 18  1  0  0  0  0
 15 64  1  1  0  0  0
 16 65  1  0  0  0  0
 16 66  1  0  0  0  0
 16 67  1  0  0  0  0
 17 68  1  0  0  0  0
 17 69  1  0  0  0  0
 17 70  1  0  0  0  0
 18 71  1  0  0  0  0
 19 72  1  0  0  0  0
 20 73  1  0  0  0  0
 20 74  1  0  0  0  0
 20 75  1  0  0  0  0
 21 76  1  0  0  0  0
 22 77  1  0  0  0  0
 22 78  1  0  0  0  0
 22 79  1  0  0  0  0
 23 80  1  0  0  0  0
 23 81  1  0  0  0  0
 23 82  1  0  0  0  0
 24 83  1  0  0  0  0
 24 84  1  0  0  0  0
 24 85  1  0  0  0  0
 25 29  1  0  0  0  0
 25 86  1  0  0  0  0
 25 87  1  0  0  0  0
 29 88  1  0  0  0  0
 29 89  1  0  0  0  0
 29 90  1  0  0  0  0
 30 38  1  0  0  0  0
 30 91  1  1  0  0  0
 30 26  1  0  0  0  0
 31 32  1  0  0  0  0
 31 36  1  0  0  0  0
 31 42  1  0  0  0  0
 31 92  1  6  0  0  0
 32 33  1  0  0  0  0
 32 93  1  1  0  0  0
 32 27  1  0  0  0  0
 33 34  1  0  0  0  0
 34 35  1  0  0  0  0
 34 45  1  0  0  0  0
 34 94  1  1  0  0  0
 35 36  1  0  0  0  0
 35 95  1  0  0  0  0
 35 96  1  0  0  0  0
 36 97  1  1  0  0  0
 36 46  1  0  0  0  0
 37 30  1  0  0  0  0
 37 41  1  0  0  0  0
 37 98  1  0  0  0  0
 37 99  1  0  0  0  0
 38 39  1  0  0  0  0
 39 40  1  0  0  0  0
 39 43  1  0  0  0  0
 39100  1  6  0  0  0
 40 41  1  0  0  0  0
 40101  1  1  0  0  0
 40 48  1  0  0  0  0
 41 44  1  0  0  0  0
 41 47  1  1  0  0  0
 42102  1  0  0  0  0
 43103  1  0  0  0  0
 43104  1  0  0  0  0
 43105  1  0  0  0  0
 44106  1  0  0  0  0
 44107  1  0  0  0  0
 44108  1  0  0  0  0
 45109  1  0  0  0  0
 45110  1  0  0  0  0
 45111  1  0  0  0  0
 46 50  1  0  0  0  0
 46 51  1  0  0  0  0
 47 49  1  0  0  0  0
 48112  1  0  0  0  0
 49113  1  0  0  0  0
 49114  1  0  0  0  0
 49115  1  0  0  0  0
 50116  1  0  0  0  0
 50117  1  0  0  0  0
 50118  1  0  0  0  0
 51119  1  0  0  0  0
 51120  1  0  0  0  0
 51121  1  0  0  0  0
 52122  1  0  0  0  0
 52123  1  0  0  0  0
 52124  1  0  0  0  0
M  END
>  <DRUGBANK_ID>
DB00207

>  <SECONDARY_ACCESSION_NUMBERS>
APRD00397

>  <COMMON_NAME>
Azithromycin

>  <CAS_NUMBER>
83905-01-5

>  <UNII>
J2KLZ20U1M

>  <SYNONYMS>
Azithromycin; Azithromycine; Azithromycinum; Azitromicina

$$$$
