
 OpenBabel10282417213D

 52 53  0  0  0  0  0  0  0  0999 V2000
    0.9333    0.0535   -0.2653 C   0  0  0  0  0  0  0  0  0  0  0  0
    0.3393    0.1397    1.1368 C   0  0  1  0  0  0  0  0  0  0  0  0
    0.6843    1.3364    1.9635 C   0  0  0  0  0  0  0  0  0  0  0  0
    0.2926    2.6445    1.4575 C   0  0  0  0  0  0  0  0  0  0  0  0
    0.8592    3.8224    1.8979 C   0  0  0  0  0  0  0  0  0  0  0  0
    0.3447    5.1411    0.9484 S   0  0  0  0  0  0  0  0  0  0  0  0
   -0.6184    4.1358   -0.0375 C   0  0  0  0  0  0  0  0  0  0  0  0
   -0.5753    2.8321    0.3596 C   0  0  0  0  0  0  0  0  0  0  0  0
   -1.0549   -0.1806    1.2375 N   0  0  0  0  0  0  0  0  0  0  0  0
   -1.6340   -1.2277    1.7959 C   0  0  0  0  0  0  0  0  0  0  0  0
   -2.8795   -1.2314    1.8855 O   0  0  0  0  0  0  0  0  0  0  0  0
   -0.9683   -2.2908    2.2230 N   0  0  0  0  0  0  0  0  0  0  0  0
    0.4380   -2.6900    2.4258 C   0  0  0  0  0  0  0  0  0  0  0  0
    0.9540   -2.6034    3.8952 C   0  0  1  0  0  0  0  0  0  0  0  0
    0.4888   -3.8173    4.6353 N   0  0  0  0  0  0  0  0  0  0  0  0
    0.9975   -3.8655    6.0021 C   0  0  0  0  0  0  0  0  0  0  0  0
   -0.9767   -3.8891    4.7025 C   0  0  0  0  0  0  0  0  0  0  0  0
    2.5293   -2.4837    3.8638 C   0  0  0  0  0  0  0  0  0  0  0  0
    3.0964   -1.1799    3.3274 C   0  0  0  0  0  0  0  0  0  0  0  0
    3.9104   -1.1420    2.1806 C   0  0  0  0  0  0  0  0  0  0  0  0
    4.3203    0.0820    1.6299 C   0  0  0  0  0  0  0  0  0  0  0  0
    3.9789    1.2663    2.2729 C   0  0  0  0  0  0  0  0  0  0  0  0
    3.2680    1.2396    3.4749 C   0  0  0  0  0  0  0  0  0  0  0  0
    2.7946    0.0234    3.9764 C   0  0  0  0  0  0  0  0  0  0  0  0
    4.1233    2.4842    1.6671 O   0  0  0  0  0  0  0  0  0  0  0  0
    0.6831    0.9008   -0.9034 H   0  0  0  0  0  0  0  0  0  0  0  0
    0.6095   -0.8621   -0.7687 H   0  0  0  0  0  0  0  0  0  0  0  0
    2.0268    0.0217   -0.2006 H   0  0  0  0  0  0  0  0  0  0  0  0
    0.9023   -0.5668    1.6879 H   0  0  0  0  0  0  0  0  0  0  0  0
    0.4162    1.1857    3.0191 H   0  0  0  0  0  0  0  0  0  0  0  0
    1.7471    1.3539    1.8557 H   0  0  0  0  0  0  0  0  0  0  0  0
    1.5970    3.9396    2.6863 H   0  0  0  0  0  0  0  0  0  0  0  0
   -1.1689    4.5025   -0.8858 H   0  0  0  0  0  0  0  0  0  0  0  0
   -1.0751    2.0409   -0.1833 H   0  0  0  0  0  0  0  0  0  0  0  0
   -1.7301    0.5472    1.0456 H   0  0  0  0  0  0  0  0  0  0  0  0
   -1.6596   -2.9997    2.4046 H   0  0  0  0  0  0  0  0  0  0  0  0
    0.5393   -3.6992    2.0220 H   0  0  0  0  0  0  0  0  0  0  0  0
    1.1240   -2.1692    1.7842 H   0  0  0  0  0  0  0  0  0  0  0  0
    0.5511   -1.7065    4.3908 H   0  0  0  0  0  0  0  0  0  0  0  0
    0.6783   -2.9933    6.5815 H   0  0  0  0  0  0  0  0  0  0  0  0
    0.6393   -4.7748    6.4950 H   0  0  0  0  0  0  0  0  0  0  0  0
    2.0860   -3.9383    6.0280 H   0  0  0  0  0  0  0  0  0  0  0  0
   -1.4188   -2.9586    5.0797 H   0  0  0  0  0  0  0  0  0  0  0  0
   -1.3993   -4.1395    3.7328 H   0  0  0  0  0  0  0  0  0  0  0  0
   -1.3139   -4.7218    5.3246 H   0  0  0  0  0  0  0  0  0  0  0  0
    2.9525   -2.5531    4.8713 H   0  0  0  0  0  0  0  0  0  0  0  0
    2.9370   -3.3309    3.2987 H   0  0  0  0  0  0  0  0  0  0  0  0
    4.1840   -2.0638    1.6711 H   0  0  0  0  0  0  0  0  0  0  0  0
    4.8353    0.0923    0.6734 H   0  0  0  0  0  0  0  0  0  0  0  0
    2.8714    2.1671    3.8855 H   0  0  0  0  0  0  0  0  0  0  0  0
    2.0928    0.0383    4.8084 H   0  0  0  0  0  0  0  0  0  0  0  0
    4.4293    2.3650    0.7521 H   0  0  0  0  0  0  0  0  0  0  0  0
  1 26  1  0  0  0  0
  1 27  1  0  0  0  0
  1 28  1  0  0  0  0
  2  1  1  0  0  0  0
  2  3  1  0  0  0  0
  2  9  1  0  0  0  0
  2 29  1  1  0  0  0
  3  4  1  0  0  0  0
  3 30  1  0  0  0  0
  3 31  1  0  0  0  0
  4  5  2  0  0  0  0
  4  8  1  0  0  0  0
  5  6  1  0  0  0  0
  5 32  1  0  0  0  0
  6  7  1  0  0  0  0
  7  8  2  0  0  0  0
  7 33  1  0  0  0  0
  8 34  1  0  0  0  0
  9 10  1  0  0  0  0
  9 35  1  0  0  0  0
 10 11  2  0  0  0  0
 10 12  1  0  0  0  0
 12 13  1  0  0  0  0
 12 36  1  0  0  0  0
 13 37  1  0  0  0  0
 13 38  1  0  0  0  0
 14 13  1  0  0  0  0
 14 15  1  0  0  0  0
 14 18  1  0  0  0  0
 14 39  1  1  0  0  0
 15 16  1  0  0  0  0
 15 17  1  0  0  0  0
 16 40  1  0  0  0  0
 16 41  1  0  0  0  0
 16 42  1  0  0  0  0
 17 43  1  0  0  0  0
 17 44  1  0  0  0  0
 17 45  1  0  0  0  0
 18 19  1  0  0  0  0
 18 46  1  0  0  0  0
 18 47  1  0  0  0  0
 19 20  2  0  0  0  0
 19 24  1  0  0  0  0
 20 21  1  0  0  0  0
 20 48  1  0  0  0  0
 21 22  2  0  0  0  0
 21 49  1  0  0  0  0
 22 23  1  0  0  0  0
 22 25  1  0  0  0  0
 23 24  2  0  0  0  0
 23 50  1  0  0  0  0
 24 51  1  0  0  0  0
 25 52  1  0  0  0  0
M  END
>  <DRUGBANK_ID>
DB14030

>  <COMMON_NAME>
PZM21

>  <CAS_NUMBER>
1997387-43-5

>  <UNII>
M8GB23F27E

$$$$
