
 OpenBabel10282417143D

 48 49  0  0  1  0  0  0  0  0999 V2000
    2.7057    0.3511   -4.7756 N   0  0  0  0  0  0  0  0  0  0  0  0
    1.9492    1.0466   -3.7386 C   0  0  0  0  0  0  0  0  0  0  0  0
    1.6889   -0.0319   -2.6870 C   0  0  1  0  0  0  0  0  0  0  0  0
    0.4646   -1.1743   -3.7926 O   0  0  0  0  0  0  0  0  0  0  0  0
   -0.4982   -2.3628   -2.6233 C   0  0  2  0  0  0  0  0  0  0  0  0
   -1.4899   -1.2277   -1.3928 O   0  0  0  0  0  0  0  0  0  0  0  0
   -0.6686   -0.3540   -0.2615 C   0  0  2  0  0  0  0  0  0  0  0  0
   -0.1683    0.8169   -1.1295 C   0  0  1  0  0  0  0  0  0  0  0  0
    1.0979    1.6654   -0.6204 N   0  0  0  0  0  0  0  0  0  0  0  0
   -0.0787   -0.1730   -2.5199 C   0  0  0  0  0  0  0  0  0  0  0  0
    1.4741   -1.6430   -2.6073 C   0  0  1  0  0  0  0  0  0  0  0  0
    3.3261   -0.9188   -3.0463 N   0  0  0  0  0  0  0  0  0  0  0  0
    0.4493   -1.8381   -1.0558 C   0  0  2  0  0  0  0  0  0  0  0  0
   -1.0233   -2.9902   -0.8889 O   0  0  0  0  0  0  0  0  0  0  0  0
    0.3115   -1.2810    0.3337 C   0  0  1  0  0  0  0  0  0  0  0  0
    1.2650   -0.6248    1.1715 O   0  0  0  0  0  0  0  0  0  0  0  0
    0.6478   -3.7241   -1.4407 C   0  0  2  0  0  0  0  0  0  0  0  0
    0.1593   -4.4886   -0.1107 N   0  0  0  0  0  0  0  0  0  0  0  0
    2.1294   -2.7152   -0.4365 C   0  0  1  0  0  0  0  0  0  0  0  0
    3.1406   -3.4809   -0.0042 O   0  0  0  0  0  0  0  0  0  0  0  0
    2.7402   -1.1698   -1.2312 C   0  0  2  0  0  0  0  0  0  0  0  0
    3.4636   -0.1968   -0.4978 O   0  0  0  0  0  0  0  0  0  0  0  0
    3.4883   -0.0034   -4.1846 H   0  0  0  0  0  0  0  0  0  0  0  0
    2.2895   -0.6210   -4.7992 H   0  0  0  0  0  0  0  0  0  0  0  0
    2.2672    1.9216   -3.1994 H   0  0  0  0  0  0  0  0  0  0  0  0
    1.0961    1.3711   -4.3373 H   0  0  0  0  0  0  0  0  0  0  0  0
    1.3863    0.1183   -1.6547 H   0  0  0  0  0  0  0  0  0  0  0  0
   -1.4716   -2.6132   -3.1035 H   0  0  0  0  0  0  0  0  0  0  0  0
   -1.0758    0.0667    0.6660 H   0  0  0  0  0  0  0  0  0  0  0  0
   -0.8963    1.5668   -1.4404 H   0  0  0  0  0  0  0  0  0  0  0  0
    1.8578    1.7366   -1.3201 H   0  0  0  0  0  0  0  0  0  0  0  0
    1.6938    1.2084    0.0699 H   0  0  0  0  0  0  0  0  0  0  0  0
   -1.1409   -0.2981   -2.9897 H   0  0  0  0  0  0  0  0  0  0  0  0
   -0.0511    0.5174   -3.4559 H   0  0  0  0  0  0  0  0  0  0  0  0
    1.7034   -2.3818   -3.5922 H   0  0  0  0  0  0  0  0  0  0  0  0
    3.5034    0.0203   -2.3007 H   0  0  0  0  0  0  0  0  0  0  0  0
    4.2226   -1.3206   -2.7086 H   0  0  0  0  0  0  0  0  0  0  0  0
    1.4476   -2.4642   -1.8704 H   0  0  0  0  0  0  0  0  0  0  0  0
   -1.8745   -2.5347   -1.0907 H   0  0  0  0  0  0  0  0  0  0  0  0
    0.0890   -2.1547    0.9711 H   0  0  0  0  0  0  0  0  0  0  0  0
    1.8837   -0.1819    0.5885 H   0  0  0  0  0  0  0  0  0  0  0  0
    1.1042   -4.3607   -2.1734 H   0  0  0  0  0  0  0  0  0  0  0  0
    0.9315   -4.6366    0.5189 H   0  0  0  0  0  0  0  0  0  0  0  0
   -0.4641   -3.7692    0.3717 H   0  0  0  0  0  0  0  0  0  0  0  0
    2.0312   -1.7684    0.0228 H   0  0  0  0  0  0  0  0  0  0  0  0
    2.7222   -4.2471   -0.4136 H   0  0  0  0  0  0  0  0  0  0  0  0
    3.3845   -2.0521   -1.6584 H   0  0  0  0  0  0  0  0  0  0  0  0
    3.5518   -0.4087    0.4461 H   0  0  0  0  0  0  0  0  0  0  0  0
  1  2  1  0  0  0  0
  1 23  1  0  0  0  0
  1 24  1  0  0  0  0
  2 25  1  0  0  0  0
  2 26  1  0  0  0  0
  3  4  1  0  0  0  0
  3 21  1  0  0  0  0
  3 27  1  1  0  0  0
  3  2  1  0  0  0  0
  4  5  1  0  0  0  0
  5  6  1  0  0  0  0
  5 17  1  0  0  0  0
  5 28  1  6  0  0  0
  7  6  1  0  0  0  0
  7  8  1  0  0  0  0
  7 15  1  0  0  0  0
  7 29  1  1  0  0  0
  8 10  1  0  0  0  0
  8 30  1  6  0  0  0
  8  9  1  0  0  0  0
  9 31  1  0  0  0  0
  9 32  1  0  0  0  0
 10 11  1  0  0  0  0
 10 33  1  0  0  0  0
 10 34  1  0  0  0  0
 11 13  1  0  0  0  0
 11 35  1  6  0  0  0
 11 12  1  0  0  0  0
 12 36  1  0  0  0  0
 12 37  1  0  0  0  0
 13 14  1  0  0  0  0
 13 15  1  0  0  0  0
 13 38  1  1  0  0  0
 14 39  1  0  0  0  0
 15 16  1  0  0  0  0
 15 40  1  1  0  0  0
 16 41  1  0  0  0  0
 17 18  1  0  0  0  0
 17 19  1  0  0  0  0
 17 42  1  6  0  0  0
 18 43  1  0  0  0  0
 18 44  1  0  0  0  0
 19 21  1  0  0  0  0
 19 45  1  1  0  0  0
 19 20  1  0  0  0  0
 20 46  1  0  0  0  0
 21 47  1  6  0  0  0
 21 22  1  0  0  0  0
 22 48  1  0  0  0  0
M  END
>  <DRUGBANK_ID>
DB04808

>  <COMMON_NAME>
Neamine

>  <CAS_NUMBER>
3947-65-7

>  <UNII>
5981U00LY0

>  <SYNONYMS>
2-desoxy-4-O-(2,6-diamino-2,6-didesoxy-α-D-glucopyranosyl)-D-streptamin; 4-O-(2,6-diamino-2,6-dideoxy-α-D-glucopyranosyl)-2-deoxy-D-streptamine; Dekamycin V; Nebramycin X; Negamicin; Neomycin A

$$$$
