
 OpenBabel10282417233D

 80 82  0  0  1  0  0  0  0  0999 V2000
    1.4352   -0.0963   -0.0437 C   0  0  0  0  0  0  0  0  0  0  0  0
    0.8040    0.2485    1.2756 C   0  0  0  0  0  0  0  0  0  0  0  0
    1.1796    1.6852    1.6865 C   0  0  0  0  0  0  0  0  0  0  0  0
   -0.6988    0.1474    1.2340 C   0  0  0  0  0  0  0  0  0  0  0  0
   -1.5018   -1.1177    0.9373 C   0  0  0  0  0  0  0  0  0  0  0  0
   -2.8199   -0.8520    1.5760 N   0  0  0  0  0  0  0  0  0  0  0  0
   -2.8132   -0.5923    2.9481 C   0  0  0  0  0  0  0  0  0  0  0  0
   -1.9880   -1.1049    3.7035 O   0  0  0  0  0  0  0  0  0  0  0  0
   -3.7411    0.5620    3.3859 C   0  0  1  0  0  0  0  0  0  0  0  0
   -3.8837    0.6101    4.9120 C   0  0  0  0  0  0  0  0  0  0  0  0
   -3.3913    1.9315    2.9213 N   0  0  0  0  0  0  0  0  0  0  0  0
   -2.0384    2.3666    2.6765 C   0  0  0  0  0  0  0  0  0  0  0  0
   -4.4150    2.8608    2.8836 C   0  0  0  0  0  0  0  0  0  0  0  0
   -5.5890    2.4994    2.9547 O   0  0  0  0  0  0  0  0  0  0  0  0
   -3.9722    4.3363    2.7108 C   0  0  0  0  0  0  0  0  0  0  0  0
   -4.0680    4.6083    1.2869 N   0  0  0  0  0  0  0  0  0  0  0  0
   -2.8661    5.1580    0.6540 C   0  0  0  0  0  0  0  0  0  0  0  0
   -3.1577    5.6658   -0.7840 C   0  0  0  0  0  0  0  0  0  0  0  0
   -4.4990    6.4008   -0.8159 C   0  0  0  0  0  0  0  0  0  0  0  0
   -3.1917    4.5401   -1.6808 O   0  0  0  0  0  0  0  0  0  0  0  0
   -2.5250    4.7419   -2.8639 C   0  0  0  0  0  0  0  0  0  0  0  0
   -1.5599    3.8068   -3.2643 C   0  0  0  0  0  0  0  0  0  0  0  0
   -1.1623    2.6614   -2.3809 C   0  0  0  0  0  0  0  0  0  0  0  0
   -1.2492    1.3072   -3.1096 C   0  0  0  0  0  0  0  0  0  0  0  0
   -2.0973    0.2487   -2.3821 C   0  0  2  0  0  0  0  0  0  0  0  0
   -3.3517    0.8268   -1.7130 C   0  0  0  0  0  0  0  0  0  0  0  0
   -1.2599   -0.3617   -1.3852 N   0  0  0  0  0  0  0  0  0  0  0  0
   -1.7133   -1.3876   -0.5744 C   0  0  0  0  0  0  0  0  0  0  0  0
   -2.3753   -2.3123   -1.0034 O   0  0  0  0  0  0  0  0  0  0  0  0
   -0.9120    3.9604   -4.4999 C   0  0  0  0  0  0  0  0  0  0  0  0
   -1.2253    5.0270   -5.3303 C   0  0  0  0  0  0  0  0  0  0  0  0
   -2.1827    5.9516   -4.9296 C   0  0  0  0  0  0  0  0  0  0  0  0
   -2.8380    5.8036   -3.7081 C   0  0  0  0  0  0  0  0  0  0  0  0
   -4.7347    5.3330    3.5325 C   0  0  0  0  0  0  0  0  0  0  0  0
   -4.6353    5.2312    5.0404 C   0  0  0  0  0  0  0  0  0  0  0  0
   -5.9516    4.9978    4.3557 C   0  0  0  0  0  0  0  0  0  0  0  0
    1.2215    0.6857   -0.7802 H   0  0  0  0  0  0  0  0  0  0  0  0
    1.0571   -1.0588   -0.3970 H   0  0  0  0  0  0  0  0  0  0  0  0
    2.5156   -0.1657    0.0514 H   0  0  0  0  0  0  0  0  0  0  0  0
    1.1508   -0.4396    2.0547 H   0  0  0  0  0  0  0  0  0  0  0  0
    0.7675    2.4240    0.9858 H   0  0  0  0  0  0  0  0  0  0  0  0
    0.7987    1.9417    2.6824 H   0  0  0  0  0  0  0  0  0  0  0  0
    2.2634    1.8012    1.7152 H   0  0  0  0  0  0  0  0  0  0  0  0
   -0.8686    0.2842    2.2803 H   0  0  0  0  0  0  0  0  0  0  0  0
   -1.1422    0.9934    0.6946 H   0  0  0  0  0  0  0  0  0  0  0  0
   -1.0392   -1.9883    1.4077 H   0  0  0  0  0  0  0  0  0  0  0  0
   -3.4847   -0.3147    1.0283 H   0  0  0  0  0  0  0  0  0  0  0  0
   -4.7225    0.3096    2.9632 H   0  0  0  0  0  0  0  0  0  0  0  0
   -3.4441   -0.2545    5.4131 H   0  0  0  0  0  0  0  0  0  0  0  0
   -3.4214    1.5106    5.3357 H   0  0  0  0  0  0  0  0  0  0  0  0
   -4.9448    0.6419    5.1798 H   0  0  0  0  0  0  0  0  0  0  0  0
   -1.9508    2.5508    1.6009 H   0  0  0  0  0  0  0  0  0  0  0  0
   -1.7376    3.2728    3.1934 H   0  0  0  0  0  0  0  0  0  0  0  0
   -1.3325    1.6837    3.0968 H   0  0  0  0  0  0  0  0  0  0  0  0
   -2.9569    4.5198    3.0445 H   0  0  0  0  0  0  0  0  0  0  0  0
   -4.8800    5.2020    1.1640 H   0  0  0  0  0  0  0  0  0  0  0  0
   -2.4729    5.9876    1.2529 H   0  0  0  0  0  0  0  0  0  0  0  0
   -2.0795    4.3958    0.5951 H   0  0  0  0  0  0  0  0  0  0  0  0
   -2.3392    6.3471   -1.0514 H   0  0  0  0  0  0  0  0  0  0  0  0
   -4.5046    7.2108   -0.0801 H   0  0  0  0  0  0  0  0  0  0  0  0
   -4.7316    6.8129   -1.7935 H   0  0  0  0  0  0  0  0  0  0  0  0
   -5.3323    5.7183   -0.6107 H   0  0  0  0  0  0  0  0  0  0  0  0
   -0.1480    2.8429   -2.0052 H   0  0  0  0  0  0  0  0  0  0  0  0
   -1.7666    2.6909   -1.4797 H   0  0  0  0  0  0  0  0  0  0  0  0
   -1.6600    1.4116   -4.1195 H   0  0  0  0  0  0  0  0  0  0  0  0
   -0.2171    0.9457   -3.2452 H   0  0  0  0  0  0  0  0  0  0  0  0
   -2.3807   -0.5415   -3.0827 H   0  0  0  0  0  0  0  0  0  0  0  0
   -3.9790    1.3376   -2.4450 H   0  0  0  0  0  0  0  0  0  0  0  0
   -3.9345    0.0430   -1.2240 H   0  0  0  0  0  0  0  0  0  0  0  0
   -3.1255    1.5261   -0.8987 H   0  0  0  0  0  0  0  0  0  0  0  0
   -0.5998    0.2873   -1.0134 H   0  0  0  0  0  0  0  0  0  0  0  0
   -0.1657    3.2362   -4.8213 H   0  0  0  0  0  0  0  0  0  0  0  0
   -0.7224    5.1317   -6.2865 H   0  0  0  0  0  0  0  0  0  0  0  0
   -2.4312    6.7902   -5.5717 H   0  0  0  0  0  0  0  0  0  0  0  0
   -3.5998    6.5240   -3.4452 H   0  0  0  0  0  0  0  0  0  0  0  0
   -4.6296    6.3364    3.1346 H   0  0  0  0  0  0  0  0  0  0  0  0
   -4.1181    4.3778    5.4716 H   0  0  0  0  0  0  0  0  0  0  0  0
   -4.5128    6.1435    5.6106 H   0  0  0  0  0  0  0  0  0  0  0  0
   -6.7319    5.7433    4.4149 H   0  0  0  0  0  0  0  0  0  0  0  0
   -6.3549    3.9932    4.3668 H   0  0  0  0  0  0  0  0  0  0  0  0
  1  2  1  0  0  0  0
  1 37  1  0  0  0  0
  1 38  1  0  0  0  0
  1 39  1  0  0  0  0
  2  3  1  0  0  0  0
  2  4  1  0  0  0  0
  2 40  1  0  0  0  0
  3 41  1  0  0  0  0
  3 42  1  0  0  0  0
  3 43  1  0  0  0  0
  4 44  1  0  0  0  0
  4 45  1  0  0  0  0
  5  4  1  0  0  0  0
  5  6  1  0  0  0  0
  5 28  1  0  0  0  0
  5 46  1  0  0  0  0
  6  7  1  0  0  0  0
  6 47  1  0  0  0  0
  7  8  2  0  0  0  0
  9  7  1  0  0  0  0
  9 11  1  0  0  0  0
  9 48  1  6  0  0  0
  9 10  1  0  0  0  0
 10 49  1  0  0  0  0
 10 50  1  0  0  0  0
 10 51  1  0  0  0  0
 11 12  1  0  0  0  0
 11 13  1  0  0  0  0
 12 52  1  0  0  0  0
 12 53  1  0  0  0  0
 12 54  1  0  0  0  0
 13 14  2  0  0  0  0
 15 13  1  0  0  0  0
 15 16  1  0  0  0  0
 15 34  1  0  0  0  0
 15 55  1  0  0  0  0
 16 17  1  0  0  0  0
 16 56  1  0  0  0  0
 17 57  1  0  0  0  0
 17 58  1  0  0  0  0
 18 17  1  0  0  0  0
 18 19  1  0  0  0  0
 18 20  1  0  0  0  0
 18 59  1  0  0  0  0
 19 60  1  0  0  0  0
 19 61  1  0  0  0  0
 19 62  1  0  0  0  0
 20 21  1  0  0  0  0
 21 22  2  0  0  0  0
 21 33  1  0  0  0  0
 22 23  1  0  0  0  0
 22 30  1  0  0  0  0
 23 24  1  0  0  0  0
 23 63  1  0  0  0  0
 23 64  1  0  0  0  0
 24 65  1  0  0  0  0
 24 66  1  0  0  0  0
 25 24  1  0  0  0  0
 25 26  1  0  0  0  0
 25 27  1  0  0  0  0
 25 67  1  6  0  0  0
 26 68  1  0  0  0  0
 26 69  1  0  0  0  0
 26 70  1  0  0  0  0
 27 28  1  0  0  0  0
 27 71  1  0  0  0  0
 28 29  2  0  0  0  0
 30 31  2  0  0  0  0
 30 72  1  0  0  0  0
 31 32  1  0  0  0  0
 31 73  1  0  0  0  0
 32 33  2  0  0  0  0
 32 74  1  0  0  0  0
 33 75  1  0  0  0  0
 34 35  1  0  0  0  0
 34 36  1  0  0  0  0
 34 76  1  0  0  0  0
 35 36  1  0  0  0  0
 35 77  1  0  0  0  0
 35 78  1  0  0  0  0
 36 79  1  0  0  0  0
 36 80  1  0  0  0  0
M  END
>  <DRUGBANK_ID>
DB16129

>  <COMMON_NAME>
TZP-102

>  <CAS_NUMBER>
1008993-65-4

>  <UNII>
9NFY3MS3SL

$$$$
