103
 OpenBabel10282417163D

 35 37  0  0  0  0  0  0  0  0999 V2000
    1.0659   -0.0351    0.0665 P   0  0  0  0  0  0  0  0  0  0  0  0
    0.9689    0.0619    1.5789 O   0  0  0  0  0  0  0  0  0  0  0  0
    1.0120    1.3842   -0.7148 O   0  0  0  0  0  0  0  0  0  0  0  0
   -0.6641   -0.0351    0.0665 O   0  0  0  0  0  0  0  0  0  0  0  0
    2.6866    2.0391    2.9340 C   0  0  0  0  0  0  0  0  0  0  0  0
    2.5006    2.1986    1.4292 C   0  0  1  0  0  0  0  0  0  0  0  0
    2.8243    3.5378    1.0258 O   0  0  0  0  0  0  0  0  0  0  0  0
    3.3734    1.2021    0.5915 C   0  0  1  0  0  0  0  0  0  0  0  0
    2.7959   -0.0351    0.0665 O   0  0  0  0  0  0  0  0  0  0  0  0
    3.8587    2.0737   -0.5537 C   0  0  0  0  0  0  0  0  0  0  0  0
    3.8251    3.4889    0.0071 C   0  0  2  0  0  0  0  0  0  0  0  0
    5.0683    3.9069    0.6144 N   0  0  0  0  0  0  0  0  0  0  0  0
    5.2630    4.2675    1.9209 C   0  0  0  0  0  0  0  0  0  0  0  0
    6.5296    4.5049    2.1807 N   0  0  0  0  0  0  0  0  0  0  0  0
    7.1611    4.3470    0.9687 C   0  0  0  0  0  0  0  0  0  0  0  0
    8.4999    4.4730    0.5896 C   0  0  0  0  0  0  0  0  0  0  0  0
    9.4792    4.7958    1.5009 N   0  0  0  0  0  0  0  0  0  0  0  0
    8.8320    4.2605   -0.7028 N   0  0  0  0  0  0  0  0  0  0  0  0
    7.8489    3.9268   -1.5703 C   0  0  0  0  0  0  0  0  0  0  0  0
    6.5311    3.7682   -1.3229 N   0  0  0  0  0  0  0  0  0  0  0  0
    6.2659    3.9964   -0.0295 C   0  0  0  0  0  0  0  0  0  0  0  0
    1.4270    2.1711    1.2653 H   0  0  0  0  0  0  0  0  0  0  0  0
    4.2375    0.8983    1.1924 H   0  0  0  0  0  0  0  0  0  0  0  0
    3.5772    4.2293   -0.7629 H   0  0  0  0  0  0  0  0  0  0  0  0
    1.1600    1.2705   -1.6711 H   0  0  0  0  0  0  0  0  0  0  0  0
   -0.8872    0.5381    0.8278 H   0  0  0  0  0  0  0  0  0  0  0  0
    2.0029    2.7115    3.4653 H   0  0  0  0  0  0  0  0  0  0  0  0
    2.4815    1.0172    3.2639 H   0  0  0  0  0  0  0  0  0  0  0  0
    3.6988    2.2968    3.2471 H   0  0  0  0  0  0  0  0  0  0  0  0
    4.8400    1.7485   -0.9111 H   0  0  0  0  0  0  0  0  0  0  0  0
    3.2021    2.0085   -1.4272 H   0  0  0  0  0  0  0  0  0  0  0  0
    4.4572    4.3293    2.6402 H   0  0  0  0  0  0  0  0  0  0  0  0
    9.1926    5.0060    2.4475 H   0  0  0  0  0  0  0  0  0  0  0  0
   10.4153    4.9494    1.1697 H   0  0  0  0  0  0  0  0  0  0  0  0
    8.1613    3.7608   -2.5963 H   0  0  0  0  0  0  0  0  0  0  0  0
  1  2  2  0  0  0  0
  1  3  1  0  0  0  0
  1  4  1  0  0  0  0
  1  9  1  0  0  0  0
  3 25  1  0  0  0  0
  4 26  1  0  0  0  0
  5 27  1  0  0  0  0
  5 28  1  0  0  0  0
  5 29  1  0  0  0  0
  6  5  1  0  0  0  0
  6  7  1  0  0  0  0
  6  8  1  0  0  0  0
  6 22  1  6  0  0  0
  7 11  1  0  0  0  0
  8  9  1  0  0  0  0
  8 10  1  0  0  0  0
  8 23  1  1  0  0  0
 10 11  1  0  0  0  0
 10 30  1  0  0  0  0
 10 31  1  0  0  0  0
 11 12  1  0  0  0  0
 11 24  1  6  0  0  0
 12 13  1  0  0  0  0
 12 21  1  0  0  0  0
 13 14  2  0  0  0  0
 13 32  1  0  0  0  0
 14 15  1  0  0  0  0
 15 16  1  0  0  0  0
 15 21  2  0  0  0  0
 16 17  1  0  0  0  0
 16 18  2  0  0  0  0
 17 33  1  0  0  0  0
 17 34  1  0  0  0  0
 18 19  1  0  0  0  0
 19 20  2  0  0  0  0
 19 35  1  0  0  0  0
 20 21  1  0  0  0  0
M  END
>  <DRUGBANK_ID>
DB06843

>  <COMMON_NAME>
2',5'-DIDEOXY-ADENOSINE 3'-MONOPHOSPHATE

$$$$
