
 OpenBabel10282417123D

153152  0  0  0  0  0  0  0  0999 V2000
    1.0749    0.0045   -0.0838 C   0  0  0  0  0  0  0  0  0  0  0  0
    1.0859    0.6913    2.2517 C   0  0  0  0  0  0  0  0  0  0  0  0
   -1.0519    1.7373    9.4425 C   0  0  0  0  0  0  0  0  0  0  0  0
   -3.4973    1.7071    8.7560 C   0  0  0  0  0  0  0  0  0  0  0  0
   -3.0234   -3.2026    1.8781 C   0  0  0  0  0  0  0  0  0  0  0  0
   -2.7953   -3.7789   11.2177 C   0  0  0  0  0  0  0  0  0  0  0  0
    1.4920   -5.7051    5.2880 C   0  0  0  0  0  0  0  0  0  0  0  0
   -5.5697   -4.5482    4.8097 C   0  0  0  0  0  0  0  0  0  0  0  0
    0.0151   -0.2866    7.9828 C   0  0  0  0  0  0  0  0  0  0  0  0
   -2.3237    0.8540    4.4991 C   0  0  0  0  0  0  0  0  0  0  0  0
   -1.4821   -1.3741    0.2631 C   0  0  0  0  0  0  0  0  0  0  0  0
   -0.5367   -1.5523    9.2114 C   0  0  0  0  0  0  0  0  0  0  0  0
    0.6487   -4.6192    2.2925 C   0  0  0  0  0  0  0  0  0  0  0  0
   -3.5902   -5.2963    8.5425 C   0  0  0  0  0  0  0  0  0  0  0  0
    1.7993   -1.4169    6.0334 C   0  0  0  0  0  0  0  0  0  0  0  0
   -4.1603   -0.5654    7.1298 C   0  0  0  0  0  0  0  0  0  0  0  0
   -0.9588   -0.3486    1.2566 C   0  0  0  0  0  0  0  0  0  0  0  0
   -1.7927    0.1086    8.6405 C   0  0  0  0  0  0  0  0  0  0  0  0
   -0.9791   -2.7714    0.4981 C   0  0  0  0  0  0  0  0  0  0  0  0
   -0.9780   -2.1923   10.3535 C   0  0  0  0  0  0  0  0  0  0  0  0
   -0.8591   -4.6134    2.1007 C   0  0  0  0  0  0  0  0  0  0  0  0
   -1.9667   -4.2499    9.1827 C   0  0  0  0  0  0  0  0  0  0  0  0
    1.4821   -3.7357    3.1596 C   0  0  0  0  0  0  0  0  0  0  0  0
   -4.9695   -4.6226    8.2312 C   0  0  0  0  0  0  0  0  0  0  0  0
    2.1132   -3.1745    6.4328 C   0  0  0  0  0  0  0  0  0  0  0  0
   -5.4750   -1.4945    5.8927 C   0  0  0  0  0  0  0  0  0  0  0  0
    0.3148   -1.3503    6.2418 C   0  0  0  0  0  0  0  0  0  0  0  0
   -2.2166   -0.6742    5.9946 C   0  0  0  0  0  0  0  0  0  0  0  0
   -2.8131   -2.4770    6.6410 C   0  0  0  0  0  0  0  0  0  0  0  0
    0.0518   -0.7106    4.3436 C   0  0  0  0  0  0  0  0  0  0  0  0
   -4.0655   -3.2802    4.7359 C   0  0  0  0  0  0  0  0  0  0  0  0
    0.6634   -2.4768    4.7033 C   0  0  0  0  0  0  0  0  0  0  0  0
   -4.3439   -2.4329    6.1262 C   0  0  0  0  0  0  0  0  0  0  0  0
   -3.6068   -3.1168    8.5717 C   0  0  0  0  0  0  0  0  0  0  0  0
   -1.7972   -4.9351    4.8093 C   0  0  0  0  0  0  0  0  0  0  0  0
   -1.7399   -2.4801    3.7760 C   0  0  0  0  0  0  0  0  0  0  0  0
    0.5596   -0.3344    1.2850 C   0  0  0  0  0  0  0  0  0  0  0  0
   -2.3455    1.0400    9.4747 C   0  0  0  0  0  0  0  0  0  0  0  0
   -1.5009   -3.3061    1.7195 C   0  0  3  0  0  0  0  0  0  0  0  0
   -2.2060   -2.9476   10.2638 C   0  0  3  0  0  0  0  0  0  0  0  0
    1.5241   -4.3365    4.9108 C   0  0  2  0  0  0  0  0  0  0  0  0
   -5.0485   -3.7845    6.2889 C   0  0  2  0  0  0  0  0  0  0  0  0
   -0.5401   -2.0717    7.1326 C   0  0  2  0  0  0  0  0  0  0  0  0
   -1.9278   -0.4218    4.4680 C   0  0  2  0  0  0  0  0  0  0  0  0
   -5.2126   -2.7549    7.6815 C   0  0  2  0  0  0  0  0  0  0  0  0
   -1.3366   -3.7066    4.1820 C   0  0  1  0  0  0  0  0  0  0  0  0
   -6.3324   -4.3041    7.0911 O   0  0  0  0  0  0  0  0  0  0  0  0
   -1.9726   -5.6755    7.5579 O   0  5  0  0  0  0  0  0  0  0  0  0
   -0.5175   -5.5250    5.7993 O   0  5  0  0  0  0  0  0  0  0  0  0
   -0.5075   -4.4847    7.5695 O   0  0  0  0  0  0  0  0  0  0  0  0
   -2.8044    0.5825    6.9939 O   0  0  0  0  0  0  0  0  0  0  0  0
   -1.8639   -2.1931    5.4976 O   0  0  0  0  0  0  0  0  0  0  0  0
   -3.5215   -5.1746    4.9292 O   0  0  0  0  0  0  0  0  0  0  0  0
   -0.1811   -3.1578    3.9164 O   0  0  0  0  0  0  0  0  0  0  0  0
   -3.0547   -3.8343    5.6109 O   0  0  0  0  0  0  0  0  0  0  0  0
   -2.5597   -2.1156    8.6158 O   0  0  0  0  0  0  0  0  0  0  0  0
   -1.2586   -1.8060    5.3415 O   0  0  0  0  0  0  0  0  0  0  0  0
   -1.7106   -4.1775    6.6445 P   0  0  0  0  0  0  0  0  0  0  0  0
   -1.9891   -1.2929    7.4380 P   0  0  3  0  0  0  0  0  0  0  0  0
   -0.9097   -2.5505    2.1622 H   0  0  0  0  0  0  0  0  0  0  0  0
   -3.2770   -2.0485   10.0699 H   0  0  0  0  0  0  0  0  0  0  0  0
    0.4944   -4.4559    4.7623 H   0  0  0  0  0  0  0  0  0  0  0  0
   -3.9817   -4.0261    6.8152 H   0  0  0  0  0  0  0  0  0  0  0  0
   -0.2375   -2.9012    7.6186 H   0  0  0  0  0  0  0  0  0  0  0  0
   -2.7436   -1.2284    4.5195 H   0  0  0  0  0  0  0  0  0  0  0  0
   -5.5686   -1.9404    8.2197 H   0  0  0  0  0  0  0  0  0  0  0  0
   -1.8534   -4.5240    3.8726 H   0  0  0  0  0  0  0  0  0  0  0  0
    0.7064    0.9908   -0.3699 H   0  0  0  0  0  0  0  0  0  0  0  0
    0.7377   -0.7221   -0.8206 H   0  0  0  0  0  0  0  0  0  0  0  0
    2.1609    0.0015   -0.0901 H   0  0  0  0  0  0  0  0  0  0  0  0
    0.7056    1.6721    2.0334 H   0  0  0  0  0  0  0  0  0  0  0  0
    0.7560    0.5620    3.2438 H   0  0  0  0  0  0  0  0  0  0  0  0
    2.1649    0.6620    2.3117 H   0  0  0  0  0  0  0  0  0  0  0  0
   -0.7980    2.1890    8.4629 H   0  0  0  0  0  0  0  0  0  0  0  0
   -1.2087    2.3945   10.2037 H   0  0  0  0  0  0  0  0  0  0  0  0
   -0.1669    1.1280    9.7295 H   0  0  0  0  0  0  0  0  0  0  0  0
   -4.3522    1.0512    8.5680 H   0  0  0  0  0  0  0  0  0  0  0  0
   -3.7388    2.4039    9.4668 H   0  0  0  0  0  0  0  0  0  0  0  0
   -3.2697    2.2406    7.7997 H   0  0  0  0  0  0  0  0  0  0  0  0
   -3.4399   -3.9131    1.2415 H   0  0  0  0  0  0  0  0  0  0  0  0
   -3.4189   -3.5508    2.8170 H   0  0  0  0  0  0  0  0  0  0  0  0
   -3.4028   -2.1713    1.7684 H   0  0  0  0  0  0  0  0  0  0  0  0
   -1.9169   -4.3793   11.1577 H   0  0  0  0  0  0  0  0  0  0  0  0
   -3.0777   -2.8660   11.6726 H   0  0  0  0  0  0  0  0  0  0  0  0
   -3.6736   -4.3104   10.8288 H   0  0  0  0  0  0  0  0  0  0  0  0
    2.4860   -5.4762    5.2511 H   0  0  0  0  0  0  0  0  0  0  0  0
    1.0483   -5.6278    6.3126 H   0  0  0  0  0  0  0  0  0  0  0  0
    0.8788   -6.1431    4.4609 H   0  0  0  0  0  0  0  0  0  0  0  0
   -6.4788   -4.1741    5.1339 H   0  0  0  0  0  0  0  0  0  0  0  0
   -5.2579   -3.9296    3.8681 H   0  0  0  0  0  0  0  0  0  0  0  0
   -5.1419   -5.4723    4.8513 H   0  0  0  0  0  0  0  0  0  0  0  0
   -0.1366    0.7569    7.8649 H   0  0  0  0  0  0  0  0  0  0  0  0
   -0.5598   -0.1122    9.3989 H   0  0  0  0  0  0  0  0  0  0  0  0
    0.9564   -0.4993    7.7966 H   0  0  0  0  0  0  0  0  0  0  0  0
   -3.1487    0.1500    4.4069 H   0  0  0  0  0  0  0  0  0  0  0  0
   -1.9497    1.0975    5.4698 H   0  0  0  0  0  0  0  0  0  0  0  0
   -1.4295    0.8047    3.9361 H   0  0  0  0  0  0  0  0  0  0  0  0
   -2.5658   -1.3562    0.2582 H   0  0  0  0  0  0  0  0  0  0  0  0
   -1.1523   -1.1185   -0.7270 H   0  0  0  0  0  0  0  0  0  0  0  0
    0.4993   -0.9659    9.5324 H   0  0  0  0  0  0  0  0  0  0  0  0
    0.3303   -2.0346    8.6212 H   0  0  0  0  0  0  0  0  0  0  0  0
    0.9300   -5.5802    2.6316 H   0  0  0  0  0  0  0  0  0  0  0  0
    0.9866   -4.3187    1.3492 H   0  0  0  0  0  0  0  0  0  0  0  0
   -3.7456   -5.6642    9.4644 H   0  0  0  0  0  0  0  0  0  0  0  0
   -3.6444   -5.8354    7.5125 H   0  0  0  0  0  0  0  0  0  0  0  0
    1.8573   -0.5344    6.5747 H   0  0  0  0  0  0  0  0  0  0  0  0
    1.9617   -1.1122    4.8416 H   0  0  0  0  0  0  0  0  0  0  0  0
   -4.1716   -0.9596    8.2500 H   0  0  0  0  0  0  0  0  0  0  0  0
   -4.4173    0.4245    7.0262 H   0  0  0  0  0  0  0  0  0  0  0  0
   -1.3517   -0.5505    2.2309 H   0  0  0  0  0  0  0  0  0  0  0  0
   -1.3452    0.6371    1.0246 H   0  0  0  0  0  0  0  0  0  0  0  0
   -1.2778    0.7162    7.2792 H   0  0  0  0  0  0  0  0  0  0  0  0
   -2.7935   -0.3465    8.6832 H   0  0  0  0  0  0  0  0  0  0  0  0
   -1.3267   -3.5116   -0.1689 H   0  0  0  0  0  0  0  0  0  0  0  0
    0.1081   -2.7758    0.5878 H   0  0  0  0  0  0  0  0  0  0  0  0
   -1.3174   -1.2530   10.7132 H   0  0  0  0  0  0  0  0  0  0  0  0
   -0.1380   -2.8278   10.1813 H   0  0  0  0  0  0  0  0  0  0  0  0
   -1.2095   -5.2164    2.8857 H   0  0  0  0  0  0  0  0  0  0  0  0
   -1.3199   -5.3449    1.5196 H   0  0  0  0  0  0  0  0  0  0  0  0
   -1.1095   -4.8756    9.2165 H   0  0  0  0  0  0  0  0  0  0  0  0
   -1.6023   -3.5149    8.4174 H   0  0  0  0  0  0  0  0  0  0  0  0
    2.4765   -3.5046    3.2408 H   0  0  0  0  0  0  0  0  0  0  0  0
    1.0636   -2.6296    2.8911 H   0  0  0  0  0  0  0  0  0  0  0  0
   -5.1887   -3.8137    9.0487 H   0  0  0  0  0  0  0  0  0  0  0  0
   -6.0509   -5.0234    8.4613 H   0  0  0  0  0  0  0  0  0  0  0  0
    1.4698   -3.2970    7.3938 H   0  0  0  0  0  0  0  0  0  0  0  0
    3.0813   -3.0016    6.2291 H   0  0  0  0  0  0  0  0  0  0  0  0
   -6.1464   -1.0725    6.3819 H   0  0  0  0  0  0  0  0  0  0  0  0
   -4.5054   -0.9870    4.7317 H   0  0  0  0  0  0  0  0  0  0  0  0
   -0.4181   -0.1337    5.6918 H   0  0  0  0  0  0  0  0  0  0  0  0
   -0.2909   -2.5669    6.0012 H   0  0  0  0  0  0  0  0  0  0  0  0
   -1.6487   -2.3334    6.6619 H   0  0  0  0  0  0  0  0  0  0  0  0
   -1.1630   -0.3734    6.5661 H   0  0  0  0  0  0  0  0  0  0  0  0
   -3.4915   -2.1099    7.4251 H   0  0  0  0  0  0  0  0  0  0  0  0
   -3.5078   -1.0397    6.0130 H   0  0  0  0  0  0  0  0  0  0  0  0
    0.7316    0.1705    5.2365 H   0  0  0  0  0  0  0  0  0  0  0  0
    0.3989   -0.9970    3.4470 H   0  0  0  0  0  0  0  0  0  0  0  0
   -5.6467   -2.9825    5.2493 H   0  0  0  0  0  0  0  0  0  0  0  0
   -3.5207   -2.7723    4.1271 H   0  0  0  0  0  0  0  0  0  0  0  0
    0.6667   -3.2490    5.9448 H   0  0  0  0  0  0  0  0  0  0  0  0
    1.7952   -2.6073    4.6496 H   0  0  0  0  0  0  0  0  0  0  0  0
   -5.0265   -2.1803    4.6463 H   0  0  0  0  0  0  0  0  0  0  0  0
   -3.7713   -1.9934    5.4806 H   0  0  0  0  0  0  0  0  0  0  0  0
   -3.0609   -3.7977    7.9404 H   0  0  0  0  0  0  0  0  0  0  0  0
   -3.7569   -3.5895    9.4709 H   0  0  0  0  0  0  0  0  0  0  0  0
   -0.6672   -4.0666    5.4787 H   0  0  0  0  0  0  0  0  0  0  0  0
   -1.9416   -5.8344    5.9088 H   0  0  0  0  0  0  0  0  0  0  0  0
   -1.1699   -1.7343    3.3478 H   0  0  0  0  0  0  0  0  0  0  0  0
   -2.5915   -2.0929    3.3653 H   0  0  0  0  0  0  0  0  0  0  0  0
    0.9436   -1.3151    1.5633 H   0  0  0  0  0  0  0  0  0  0  0  0
   -2.6219    0.2540   10.1695 H   0  0  0  0  0  0  0  0  0  0  0  0
   -5.3140   -5.2062    6.7816 H   0  0  0  0  0  0  0  0  0  0  0  0
   -2.3529    1.3052    7.3255 H   0  0  0  0  0  0  0  0  0  0  0  0
  1 68  1  0  0  0  0
  1 69  1  0  0  0  0
  1 70  1  0  0  0  0
  2 71  1  0  0  0  0
  2 72  1  0  0  0  0
  2 73  1  0  0  0  0
  3 74  1  0  0  0  0
  3 75  1  0  0  0  0
  3 76  1  0  0  0  0
  4 77  1  0  0  0  0
  4 78  1  0  0  0  0
  4 79  1  0  0  0  0
  5 80  1  0  0  0  0
  5 81  1  0  0  0  0
  5 82  1  0  0  0  0
  6 83  1  0  0  0  0
  6 84  1  0  0  0  0
  6 85  1  0  0  0  0
  7 86  1  0  0  0  0
  7 87  1  0  0  0  0
  7 88  1  0  0  0  0
  8 89  1  0  0  0  0
  8 90  1  0  0  0  0
  8 91  1  0  0  0  0
  9 92  1  0  0  0  0
  9 93  1  0  0  0  0
  9 94  1  0  0  0  0
 10 95  1  0  0  0  0
 10 96  1  0  0  0  0
 10 97  1  0  0  0  0
 11 98  1  0  0  0  0
 11 99  1  0  0  0  0
 12100  1  0  0  0  0
 12101  1  0  0  0  0
 13102  1  0  0  0  0
 13103  1  0  0  0  0
 14104  1  0  0  0  0
 14105  1  0  0  0  0
 15106  1  0  0  0  0
 15107  1  0  0  0  0
 16108  1  0  0  0  0
 16109  1  0  0  0  0
 17 11  1  0  0  0  0
 17110  1  0  0  0  0
 17111  1  0  0  0  0
 18 12  1  0  0  0  0
 18112  1  0  0  0  0
 18113  1  0  0  0  0
 19 11  1  0  0  0  0
 19114  1  0  0  0  0
 19115  1  0  0  0  0
 20 12  1  0  0  0  0
 20116  1  0  0  0  0
 20117  1  0  0  0  0
 21 13  1  0  0  0  0
 21118  1  0  0  0  0
 21119  1  0  0  0  0
 22 14  1  0  0  0  0
 22120  1  0  0  0  0
 22121  1  0  0  0  0
 23 13  1  0  0  0  0
 23122  1  0  0  0  0
 23123  1  0  0  0  0
 24 14  1  0  0  0  0
 24124  1  0  0  0  0
 24125  1  0  0  0  0
 25 15  1  0  0  0  0
 25126  1  0  0  0  0
 25127  1  0  0  0  0
 26 16  1  0  0  0  0
 26128  1  0  0  0  0
 26129  1  0  0  0  0
 27 15  1  0  0  0  0
 27130  1  0  0  0  0
 27131  1  0  0  0  0
 28 16  1  0  0  0  0
 28132  1  0  0  0  0
 28133  1  0  0  0  0
 29134  1  0  0  0  0
 29135  1  0  0  0  0
 30136  1  0  0  0  0
 30137  1  0  0  0  0
 31 29  1  0  0  0  0
 31138  1  0  0  0  0
 31139  1  0  0  0  0
 32 30  1  0  0  0  0
 32140  1  0  0  0  0
 32141  1  0  0  0  0
 33142  1  0  0  0  0
 33143  1  0  0  0  0
 34144  1  0  0  0  0
 34145  1  0  0  0  0
 35146  1  0  0  0  0
 35147  1  0  0  0  0
 36148  1  0  0  0  0
 36149  1  0  0  0  0
 37  1  1  0  0  0  0
 37  2  1  0  0  0  0
 37 17  1  0  0  0  0
 37150  1  0  0  0  0
 38  3  1  0  0  0  0
 38  4  1  0  0  0  0
 38 18  1  0  0  0  0
 38151  1  0  0  0  0
 39  5  1  0  0  0  0
 39 19  1  0  0  0  0
 39 21  1  0  0  0  0
 40  6  1  0  0  0  0
 40 20  1  0  0  0  0
 40 22  1  0  0  0  0
 41  7  1  0  0  0  0
 41 23  1  0  0  0  0
 41 25  1  0  0  0  0
 41 62  1  1  0  0  0
 42 26  1  0  0  0  0
 42 63  1  6  0  0  0
 42 24  1  0  0  0  0
 42  8  1  0  0  0  0
 43  9  1  0  0  0  0
 43 27  1  0  0  0  0
 43 29  1  0  0  0  0
 43 64  1  1  0  0  0
 44 30  1  0  0  0  0
 44 65  1  6  0  0  0
 44 28  1  0  0  0  0
 44 10  1  0  0  0  0
 45 33  1  0  0  0  0
 45 34  1  0  0  0  0
 45 47  1  0  0  0  0
 45 66  1  1  0  0  0
 46 35  1  0  0  0  0
 46 36  1  0  0  0  0
 46 54  1  0  0  0  0
 46 67  1  6  0  0  0
 47152  1  0  0  0  0
 51153  1  0  0  0  0
 53 31  1  0  0  0  0
 53 35  1  0  0  0  0
 54 32  1  0  0  0  0
 55 33  1  0  0  0  0
 56 34  1  0  0  0  0
 57 36  1  0  0  0  0
 58 48  1  0  0  0  0
 58 49  1  0  0  0  0
 58 50  2  0  0  0  0
 58 55  1  0  0  0  0
 59 51  1  0  0  0  0
 59 52  2  0  0  0  0
 59 56  1  0  0  0  0
 59 57  1  0  0  0  0
 60 39  1  0  0  0  0
 61 40  1  0  0  0  0
M  CHG  2  48  -1  49  -1
M  END
>  <DRUGBANK_ID>
DB02293

>  <SECONDARY_ACCESSION_NUMBERS>
EXPT01993

>  <COMMON_NAME>
(2S)-2,3-bis{[(3R,7R)-3,7,11,15-tetramethylhexadecyl]oxy}propyl (2R)-2-hydroxy-3-[(hydroxyphosphinato)oxy]propyl phosphate

$$$$
