
 OpenBabel10282417233D

 40 42  0  0  0  0  0  0  0  0999 V2000
    0.8758   -0.1938   -0.0395 C   0  0  0  0  0  0  0  0  0  0  0  0
    0.3774   -1.5405    0.2590 N   0  0  0  0  0  0  0  0  0  0  0  0
   -0.4356   -1.6686    1.4656 C   0  0  0  0  0  0  0  0  0  0  0  0
    0.8668   -2.6284   -0.5033 C   0  0  0  0  0  0  0  0  0  0  0  0
    1.6623   -2.5193   -1.4391 O   0  0  0  0  0  0  0  0  0  0  0  0
    0.4464   -3.9339   -0.1381 N   0  0  0  0  0  0  0  0  0  0  0  0
   -0.8510   -4.1745    0.2035 N   0  0  0  0  0  0  0  0  0  0  0  0
   -0.9780   -5.4844    0.3231 N   0  0  0  0  0  0  0  0  0  0  0  0
    0.1994   -6.1154    0.0697 N   0  0  0  0  0  0  0  0  0  0  0  0
    1.0899   -5.1774   -0.2067 C   0  0  0  0  0  0  0  0  0  0  0  0
    2.5352   -5.4514   -0.4901 C   0  0  0  0  0  0  0  0  0  0  0  0
    3.3062   -6.1152    0.6525 C   0  0  0  0  0  0  0  0  0  0  0  0
    2.9205   -7.3637    1.1770 C   0  0  0  0  0  0  0  0  0  0  0  0
    3.6838   -8.0144    2.1606 C   0  0  0  0  0  0  0  0  0  0  0  0
    4.8673   -7.4441    2.6363 C   0  0  0  0  0  0  0  0  0  0  0  0
    5.2887   -6.2349    2.0574 C   0  0  0  0  0  0  0  0  0  0  0  0
    4.5024   -5.5560    1.1182 C   0  0  0  0  0  0  0  0  0  0  0  0
    5.6641   -8.0484    3.7150 C   0  0  0  0  0  0  0  0  0  0  0  0
    6.1619   -9.3554    3.6264 C   0  0  0  0  0  0  0  0  0  0  0  0
    7.0428   -9.8490    4.5937 C   0  0  0  0  0  0  0  0  0  0  0  0
    7.4402   -9.0414    5.6585 C   0  0  0  0  0  0  0  0  0  0  0  0
    6.9391   -7.7489    5.7737 C   0  0  0  0  0  0  0  0  0  0  0  0
    6.0195   -7.2775    4.8373 C   0  0  0  0  0  0  0  0  0  0  0  0
    0.5286    0.5398    0.6993 H   0  0  0  0  0  0  0  0  0  0  0  0
    0.5231    0.1245   -1.0247 H   0  0  0  0  0  0  0  0  0  0  0  0
    1.9705   -0.1865   -0.0309 H   0  0  0  0  0  0  0  0  0  0  0  0
   -1.4327   -2.0182    1.1929 H   0  0  0  0  0  0  0  0  0  0  0  0
    0.0485   -2.3651    2.1543 H   0  0  0  0  0  0  0  0  0  0  0  0
   -0.5536   -0.7043    1.9707 H   0  0  0  0  0  0  0  0  0  0  0  0
    2.6014   -6.1545   -1.3337 H   0  0  0  0  0  0  0  0  0  0  0  0
    3.0596   -4.5489   -0.8152 H   0  0  0  0  0  0  0  0  0  0  0  0
    2.0140   -7.8533    0.8249 H   0  0  0  0  0  0  0  0  0  0  0  0
    3.3425   -8.9712    2.5521 H   0  0  0  0  0  0  0  0  0  0  0  0
    6.2587   -5.8217    2.3338 H   0  0  0  0  0  0  0  0  0  0  0  0
    4.8549   -4.5964    0.7482 H   0  0  0  0  0  0  0  0  0  0  0  0
    5.8932   -9.9871    2.7831 H   0  0  0  0  0  0  0  0  0  0  0  0
    7.4447  -10.8540    4.4966 H   0  0  0  0  0  0  0  0  0  0  0  0
    8.1400   -9.4186    6.3992 H   0  0  0  0  0  0  0  0  0  0  0  0
    7.2764   -7.0987    6.5764 H   0  0  0  0  0  0  0  0  0  0  0  0
    5.5891   -6.2866    4.9735 H   0  0  0  0  0  0  0  0  0  0  0  0
  1  2  1  0  0  0  0
  1 24  1  0  0  0  0
  1 25  1  0  0  0  0
  1 26  1  0  0  0  0
  2  3  1  0  0  0  0
  2  4  1  0  0  0  0
  3 27  1  0  0  0  0
  3 28  1  0  0  0  0
  3 29  1  0  0  0  0
  4  5  2  0  0  0  0
  4  6  1  0  0  0  0
  6  7  1  0  0  0  0
  6 10  1  0  0  0  0
  7  8  2  0  0  0  0
  8  9  1  0  0  0  0
  9 10  2  0  0  0  0
 10 11  1  0  0  0  0
 11 12  1  0  0  0  0
 11 30  1  0  0  0  0
 11 31  1  0  0  0  0
 12 13  2  0  0  0  0
 12 17  1  0  0  0  0
 13 14  1  0  0  0  0
 13 32  1  0  0  0  0
 14 15  2  0  0  0  0
 14 33  1  0  0  0  0
 15 16  1  0  0  0  0
 15 18  1  0  0  0  0
 16 17  2  0  0  0  0
 16 34  1  0  0  0  0
 17 35  1  0  0  0  0
 18 19  2  0  0  0  0
 18 23  1  0  0  0  0
 19 20  1  0  0  0  0
 19 36  1  0  0  0  0
 20 21  2  0  0  0  0
 20 37  1  0  0  0  0
 21 22  1  0  0  0  0
 21 38  1  0  0  0  0
 22 23  2  0  0  0  0
 22 39  1  0  0  0  0
 23 40  1  0  0  0  0
M  END
>  <DRUGBANK_ID>
DB17035

>  <COMMON_NAME>
LY-2183240

>  <CAS_NUMBER>
874902-19-9

>  <UNII>
2WBU91OKM7

>  <SYNONYMS>
1h-tetrazole-1-carboxamide, 5-((1,1'-biphenyl)-4-ylmethyl)-n,n-dimethyl-; 5-(biphenyl-4-ylmethyl)-n,n-dimethyl-1h-tetrazole-1-carboxamide

$$$$
