RS7
 OpenBabel10282417173D

 39 39  0  0  0  0  0  0  0  0999 V2000
    0.9874   -0.1389    0.1293 C   0  0  0  0  0  0  0  0  0  0  0  0
    0.4009   -1.2084    0.1364 O   0  0  0  0  0  0  0  0  0  0  0  0
    2.3349   -0.0572    0.0835 O   0  0  0  0  0  0  0  0  0  0  0  0
    0.3060    1.1743    0.0938 C   0  0  0  0  0  0  0  0  0  0  0  0
   -1.0379    1.2374    0.0106 C   0  0  0  0  0  0  0  0  0  0  0  0
   -1.7873    2.5073   -0.1289 C   0  0  0  0  0  0  0  0  0  0  0  0
   -2.9015    2.7139    0.7023 C   0  0  0  0  0  0  0  0  0  0  0  0
   -3.6207    3.9144    0.6519 C   0  0  0  0  0  0  0  0  0  0  0  0
   -3.2552    4.9138   -0.2466 C   0  0  0  0  0  0  0  0  0  0  0  0
   -2.1802    4.7098   -1.1085 C   0  0  0  0  0  0  0  0  0  0  0  0
   -1.4550    3.5141   -1.0620 C   0  0  0  0  0  0  0  0  0  0  0  0
   -0.3836    3.3410   -2.0017 C   0  0  0  0  0  0  0  0  0  0  0  0
    0.5129    3.0607   -2.7423 C   0  0  0  0  0  0  0  0  0  0  0  0
    1.5700    2.5154   -3.6061 C   0  0  0  0  0  0  0  0  0  0  0  0
    2.0976    1.1899   -3.0500 C   0  0  0  0  0  0  0  0  0  0  0  0
    0.9954    0.1243   -2.9597 C   0  0  0  0  0  0  0  0  0  0  0  0
    0.3654   -0.2039   -4.3046 C   0  0  0  0  0  0  0  0  0  0  0  0
    1.4037   -0.7431   -5.2773 C   0  0  0  0  0  0  0  0  0  0  0  0
    2.0206   -2.0268   -4.7439 C   0  0  0  0  0  0  0  0  0  0  0  0
    2.7356    0.8270    0.0065 H   0  0  0  0  0  0  0  0  0  0  0  0
    0.9117    2.0681    0.0331 H   0  0  0  0  0  0  0  0  0  0  0  0
   -1.6385    0.3275    0.0218 H   0  0  0  0  0  0  0  0  0  0  0  0
   -3.2127    1.9497    1.4125 H   0  0  0  0  0  0  0  0  0  0  0  0
   -4.4642    4.0741    1.3201 H   0  0  0  0  0  0  0  0  0  0  0  0
   -3.8097    5.8482   -0.2838 H   0  0  0  0  0  0  0  0  0  0  0  0
   -1.9069    5.4863   -1.8193 H   0  0  0  0  0  0  0  0  0  0  0  0
    1.1712    2.3672   -4.6138 H   0  0  0  0  0  0  0  0  0  0  0  0
    2.3942    3.2255   -3.6970 H   0  0  0  0  0  0  0  0  0  0  0  0
    2.9213    0.8286   -3.6763 H   0  0  0  0  0  0  0  0  0  0  0  0
    2.5489    1.3518   -2.0668 H   0  0  0  0  0  0  0  0  0  0  0  0
    1.3911   -0.7796   -2.4845 H   0  0  0  0  0  0  0  0  0  0  0  0
    0.1833    0.4572   -2.3191 H   0  0  0  0  0  0  0  0  0  0  0  0
   -0.4394   -0.9332   -4.1566 H   0  0  0  0  0  0  0  0  0  0  0  0
   -0.1192    0.6869   -4.7184 H   0  0  0  0  0  0  0  0  0  0  0  0
    0.9314   -0.9207   -6.2465 H   0  0  0  0  0  0  0  0  0  0  0  0
    2.1905   -0.0016   -5.4549 H   0  0  0  0  0  0  0  0  0  0  0  0
    1.2412   -2.7788   -4.5882 H   0  0  0  0  0  0  0  0  0  0  0  0
    2.7645   -2.4129   -5.4408 H   0  0  0  0  0  0  0  0  0  0  0  0
    2.5341   -1.8749   -3.7886 H   0  0  0  0  0  0  0  0  0  0  0  0
  1  4  1  0  0  0  0
  2  1  2  0  0  0  0
  3  1  1  0  0  0  0
  3 20  1  0  0  0  0
  4  5  2  0  0  0  0
  4 21  1  0  0  0  0
  5  6  1  0  0  0  0
  5 22  1  0  0  0  0
  6 11  1  0  0  0  0
  7  6  2  0  0  0  0
  7  8  1  0  0  0  0
  7 23  1  0  0  0  0
  8  9  2  0  0  0  0
  8 24  1  0  0  0  0
  9 10  1  0  0  0  0
  9 25  1  0  0  0  0
 10 26  1  0  0  0  0
 11 12  1  0  0  0  0
 11 10  2  0  0  0  0
 12 13  3  0  0  0  0
 13 14  1  0  0  0  0
 14 15  1  0  0  0  0
 14 27  1  0  0  0  0
 14 28  1  0  0  0  0
 15 29  1  0  0  0  0
 15 30  1  0  0  0  0
 16 15  1  0  0  0  0
 16 31  1  0  0  0  0
 16 32  1  0  0  0  0
 17 16  1  0  0  0  0
 17 33  1  0  0  0  0
 17 34  1  0  0  0  0
 18 17  1  0  0  0  0
 18 35  1  0  0  0  0
 18 36  1  0  0  0  0
 19 18  1  0  0  0  0
 19 37  1  0  0  0  0
 19 38  1  0  0  0  0
 19 39  1  0  0  0  0
M  END
>  <DRUGBANK_ID>
DB08492

>  <COMMON_NAME>
(2E)-3-(2-OCT-1-YN-1-YLPHENYL)ACRYLIC ACID

$$$$
