
 OpenBabel10282417203D

 34 36  0  0  0  0  0  0  0  0999 V2000
    1.0715    0.3979    0.6869 C   0  0  0  0  0  0  0  0  0  0  0  0
    0.5354    1.7676    0.7615 C   0  0  0  0  0  0  0  0  0  0  0  0
    1.9604    5.5459   -3.7539 C   0  0  0  0  0  0  0  0  0  0  0  0
    1.4457    6.3976   -2.7762 C   0  0  0  0  0  0  0  0  0  0  0  0
    2.0678    4.1574   -3.5345 C   0  0  0  0  0  0  0  0  0  0  0  0
    1.0405    5.8904   -1.5435 C   0  0  0  0  0  0  0  0  0  0  0  0
    0.4967   -1.0621   -1.8139 C   0  0  0  0  0  0  0  0  0  0  0  0
    2.9077   -1.1950   -1.5972 C   0  0  0  0  0  0  0  0  0  0  0  0
    1.7692   -0.4641   -2.0052 C   0  0  0  0  0  0  0  0  0  0  0  0
    1.6368    3.6053   -2.3070 C   0  0  0  0  0  0  0  0  0  0  0  0
    0.3726   -2.2047   -0.9801 C   0  0  0  0  0  0  0  0  0  0  0  0
    2.7680   -2.4149   -0.8962 C   0  0  0  0  0  0  0  0  0  0  0  0
    0.9984    2.5271   -0.4422 C   0  0  0  0  0  0  0  0  0  0  0  0
    1.1555    4.5089   -1.3687 C   0  0  0  0  0  0  0  0  0  0  0  0
    1.5292    2.2551   -1.7265 C   0  0  0  0  0  0  0  0  0  0  0  0
    1.9417    0.9827   -2.4560 C   0  0  0  0  0  0  0  0  0  0  0  0
    1.5042   -2.8885   -0.5247 C   0  0  0  0  0  0  0  0  0  0  0  0
   -1.5286   -2.6172   -0.1228 I   0  0  0  0  0  0  0  0  0  0  0  0
    4.4881   -3.4857   -0.3568 I   0  0  0  0  0  0  0  0  0  0  0  0
    2.5435    1.0696   -3.5446 O   0  0  0  0  0  0  0  0  0  0  0  0
    1.3483   -3.9685    0.3058 O   0  0  0  0  0  0  0  0  0  0  0  0
    0.7931    3.8577   -0.2503 O   0  0  0  0  0  0  0  0  0  0  0  0
    0.6218    0.2034   -0.2488 H   0  0  0  0  0  0  0  0  0  0  0  0
    0.6526   -0.3772    1.3183 H   0  0  0  0  0  0  0  0  0  0  0  0
    2.1598    0.3373    0.5962 H   0  0  0  0  0  0  0  0  0  0  0  0
   -0.5618    1.7123    0.7105 H   0  0  0  0  0  0  0  0  0  0  0  0
    0.8214    2.2054    1.7168 H   0  0  0  0  0  0  0  0  0  0  0  0
    2.2775    5.9627   -4.7078 H   0  0  0  0  0  0  0  0  0  0  0  0
    1.3568    7.4646   -2.9735 H   0  0  0  0  0  0  0  0  0  0  0  0
    2.4670    3.5192   -4.3168 H   0  0  0  0  0  0  0  0  0  0  0  0
    0.6403    6.5293   -0.7634 H   0  0  0  0  0  0  0  0  0  0  0  0
   -0.3988   -0.4796   -2.0310 H   0  0  0  0  0  0  0  0  0  0  0  0
    3.9008   -0.7775   -1.7588 H   0  0  0  0  0  0  0  0  0  0  0  0
    2.2073   -4.4130    0.4201 H   0  0  0  0  0  0  0  0  0  0  0  0
  1 23  1  0  0  0  0
  1 24  1  0  0  0  0
  1 25  1  0  0  0  0
  2  1  1  0  0  0  0
  2 26  1  0  0  0  0
  2 27  1  0  0  0  0
  3 28  1  0  0  0  0
  4  3  2  0  0  0  0
  4 29  1  0  0  0  0
  5  3  1  0  0  0  0
  5 30  1  0  0  0  0
  6  4  1  0  0  0  0
  6 31  1  0  0  0  0
  7 32  1  0  0  0  0
  8 33  1  0  0  0  0
  9  7  2  0  0  0  0
  9  8  1  0  0  0  0
 10  5  2  0  0  0  0
 11  7  1  0  0  0  0
 12  8  2  0  0  0  0
 13  2  1  0  0  0  0
 14  6  2  0  0  0  0
 14 10  1  0  0  0  0
 15 10  1  0  0  0  0
 15 13  2  0  0  0  0
 16  9  1  0  0  0  0
 16 15  1  0  0  0  0
 17 11  2  0  0  0  0
 17 12  1  0  0  0  0
 18 11  1  0  0  0  0
 19 12  1  0  0  0  0
 20 16  2  0  0  0  0
 21 17  1  0  0  0  0
 21 34  1  0  0  0  0
 22 13  1  0  0  0  0
 22 14  1  0  0  0  0
M  END
>  <DRUGBANK_ID>
DB13277

>  <COMMON_NAME>
Benziodarone

>  <CAS_NUMBER>
68-90-6

>  <UNII>
75CL65GTYR

>  <SYNONYMS>
Benziodarone

$$$$
