
 OpenBabel10282417103D

 52 54  0  0  0  0  0  0  0  0999 V2000
    1.5421    1.2417   -0.0834 C   0  0  0  0  0  0  0  0  0  0  0  0
    0.1384    1.1496   -0.1467 C   0  0  0  0  0  0  0  0  0  0  0  0
   -0.5378   -0.0656   -0.0855 C   0  0  0  0  0  0  0  0  0  0  0  0
    0.1893   -1.2421   -0.0408 C   0  0  0  0  0  0  0  0  0  0  0  0
    1.5863   -1.1877    0.0060 C   0  0  0  0  0  0  0  0  0  0  0  0
    2.2591    0.0462    0.0205 C   0  0  0  0  0  0  0  0  0  0  0  0
    0.6512    4.1070    0.9427 C   0  0  0  0  0  0  0  0  0  0  0  0
   -0.1383    5.2671    0.7386 C   0  0  0  0  0  0  0  0  0  0  0  0
    0.0454    6.0692   -0.2980 N   0  0  0  0  0  0  0  0  0  0  0  0
    1.0027    5.7014   -1.1571 C   0  0  0  0  0  0  0  0  0  0  0  0
    1.7695    4.5955   -1.1007 N   0  0  0  0  0  0  0  0  0  0  0  0
    1.5520    3.7713   -0.0650 C   0  0  0  0  0  0  0  0  0  0  0  0
   -1.4057    4.7595    2.7004 C   0  0  0  0  0  0  0  0  0  0  0  0
   -1.1721    5.5778    1.5981 C   0  0  0  0  0  0  0  0  0  0  0  0
    0.5487    3.3245    2.0969 C   0  0  0  0  0  0  0  0  0  0  0  0
   -0.4015    3.6546    3.0334 C   0  0  0  0  0  0  0  0  0  0  0  0
    2.1838    2.5020   -0.0402 N   0  0  0  0  0  0  0  0  0  0  0  0
   -1.9871   -0.0712   -0.0476 C   0  0  0  0  0  0  0  0  0  0  0  0
   -3.1597   -0.0250    0.0195 C   0  0  0  0  0  0  0  0  0  0  0  0
   -0.1470    2.9231    4.2156 O   0  0  0  0  0  0  0  0  0  0  0  0
   -0.8555    3.1325    5.4428 C   0  0  0  0  0  0  0  0  0  0  0  0
   -2.6605    5.0723    3.2920 O   0  0  0  0  0  0  0  0  0  0  0  0
   -3.2019    4.3339    4.4046 C   0  0  0  0  0  0  0  0  0  0  0  0
   -3.7441    2.7944    4.2432 C   0  0  0  0  0  0  0  0  0  0  0  0
   -3.0755    1.7656    3.4394 O   0  0  0  0  0  0  0  0  0  0  0  0
   -2.6890    2.3257    2.2170 C   0  0  0  0  0  0  0  0  0  0  0  0
   -0.6897    4.5128    6.3002 C   0  0  0  0  0  0  0  0  0  0  0  0
   -0.5907    5.8580    5.7141 O   0  0  0  0  0  0  0  0  0  0  0  0
    0.2869    5.8287    4.6214 C   0  0  0  0  0  0  0  0  0  0  0  0
   -0.4611    2.0513   -0.2182 H   0  0  0  0  0  0  0  0  0  0  0  0
   -0.3242   -2.1994   -0.0435 H   0  0  0  0  0  0  0  0  0  0  0  0
    2.1500   -2.1168    0.0353 H   0  0  0  0  0  0  0  0  0  0  0  0
    3.3433    0.0491    0.1027 H   0  0  0  0  0  0  0  0  0  0  0  0
    1.1551    6.3713   -1.9947 H   0  0  0  0  0  0  0  0  0  0  0  0
   -1.7818    6.4693    1.4358 H   0  0  0  0  0  0  0  0  0  0  0  0
    1.1558    2.4296    2.2547 H   0  0  0  0  0  0  0  0  0  0  0  0
    3.1862    2.5381   -0.1529 H   0  0  0  0  0  0  0  0  0  0  0  0
   -4.2380    0.0383    0.1026 H   0  0  0  0  0  0  0  0  0  0  0  0
   -1.8313    2.9008    5.1219 H   0  0  0  0  0  0  0  0  0  0  0  0
   -0.8681    2.2726    6.1411 H   0  0  0  0  0  0  0  0  0  0  0  0
   -2.4194    4.4782    5.0926 H   0  0  0  0  0  0  0  0  0  0  0  0
   -3.9035    4.8889    5.0583 H   0  0  0  0  0  0  0  0  0  0  0  0
   -3.7835    2.3288    5.2415 H   0  0  0  0  0  0  0  0  0  0  0  0
   -4.7301    2.8484    3.8073 H   0  0  0  0  0  0  0  0  0  0  0  0
   -3.3783    2.9572    1.6538 H   0  0  0  0  0  0  0  0  0  0  0  0
   -2.2472    3.0734    2.7458 H   0  0  0  0  0  0  0  0  0  0  0  0
   -1.7831    1.9949    1.6990 H   0  0  0  0  0  0  0  0  0  0  0  0
   -1.5616    4.6062    6.9670 H   0  0  0  0  0  0  0  0  0  0  0  0
    0.2241    4.4234    6.8677 H   0  0  0  0  0  0  0  0  0  0  0  0
    1.2292    5.2804    4.6884 H   0  0  0  0  0  0  0  0  0  0  0  0
   -0.2757    5.0594    4.2655 H   0  0  0  0  0  0  0  0  0  0  0  0
    0.1619    6.4921    3.7512 H   0  0  0  0  0  0  0  0  0  0  0  0
  1  2  2  0  0  0  0
  2  3  1  0  0  0  0
  2 30  1  0  0  0  0
  3  4  2  0  0  0  0
  3 18  1  0  0  0  0
  4  5  1  0  0  0  0
  4 31  1  0  0  0  0
  5  6  2  0  0  0  0
  5 32  1  0  0  0  0
  6  1  1  0  0  0  0
  6 33  1  0  0  0  0
  7 15  1  0  0  0  0
  7  8  2  0  0  0  0
  8  9  1  0  0  0  0
  9 10  2  0  0  0  0
 10 11  1  0  0  0  0
 10 34  1  0  0  0  0
 11 12  2  0  0  0  0
 12 17  1  0  0  0  0
 12  7  1  0  0  0  0
 13 22  1  0  0  0  0
 13 14  2  0  0  0  0
 14  8  1  0  0  0  0
 14 35  1  0  0  0  0
 15 16  2  0  0  0  0
 15 36  1  0  0  0  0
 16 13  1  0  0  0  0
 16 20  1  0  0  0  0
 17  1  1  0  0  0  0
 17 37  1  0  0  0  0
 18 19  3  0  0  0  0
 19 38  1  0  0  0  0
 20 21  1  0  0  0  0
 21 27  1  0  0  0  0
 21 39  1  0  0  0  0
 21 40  1  0  0  0  0
 22 23  1  0  0  0  0
 23 24  1  0  0  0  0
 23 41  1  0  0  0  0
 23 42  1  0  0  0  0
 24 25  1  0  0  0  0
 24 43  1  0  0  0  0
 24 44  1  0  0  0  0
 25 26  1  0  0  0  0
 26 45  1  0  0  0  0
 26 46  1  0  0  0  0
 26 47  1  0  0  0  0
 27 28  1  0  0  0  0
 27 48  1  0  0  0  0
 27 49  1  0  0  0  0
 28 29  1  0  0  0  0
 29 50  1  0  0  0  0
 29 51  1  0  0  0  0
 29 52  1  0  0  0  0
M  END
>  <DRUGBANK_ID>
DB00530

>  <SECONDARY_ACCESSION_NUMBERS>
APRD00951

>  <COMMON_NAME>
Erlotinib

>  <CAS_NUMBER>
183321-74-6

>  <UNII>
J4T82NDH7E

>  <SYNONYMS>
[6,7-Bis-(2-methoxy-ethoxy)-quinazolin-4-yl]-(3-ethynyl-phenyl)-amine; Erlotinib

$$$$
