
 OpenBabel10282417193D

 21 22  0  0  0  0  0  0  0  0999 V2000
    2.3785    1.1337   -0.0196 C   0  0  0  0  0  0  0  0  0  0  0  0
    2.7745   -0.2045   -0.0003 C   0  0  0  0  0  0  0  0  0  0  0  0
    1.0234    1.4582   -0.0169 C   0  0  0  0  0  0  0  0  0  0  0  0
    1.8190   -1.2252    0.0185 C   0  0  0  0  0  0  0  0  0  0  0  0
    0.0712    0.4340    0.0001 C   0  0  0  0  0  0  0  0  0  0  0  0
    0.4565   -0.9155    0.0169 C   0  0  0  0  0  0  0  0  0  0  0  0
   -2.3287   -0.3790   -0.0330 C   0  0  0  0  0  0  0  0  0  0  0  0
   -1.3738    0.7536   -0.0041 C   0  0  0  0  0  0  0  0  0  0  0  0
   -1.8640   -1.6419   -0.0179 C   0  0  0  0  0  0  0  0  0  0  0  0
   -0.5122   -1.9335    0.0169 N   0  0  0  0  0  0  0  0  0  0  0  0
   -1.7763    1.9107    0.0144 O   0  0  0  0  0  0  0  0  0  0  0  0
   -2.9284   -2.7042   -0.0439 C   0  0  0  0  0  0  0  0  0  0  0  0
   -2.4800   -3.9767   -0.0285 O   0  0  0  0  0  0  0  0  0  0  0  0
   -4.1266   -2.4595   -0.0771 O   0  0  0  0  0  0  0  0  0  0  0  0
    3.1254    1.9241   -0.0382 H   0  0  0  0  0  0  0  0  0  0  0  0
    3.8330   -0.4544   -0.0022 H   0  0  0  0  0  0  0  0  0  0  0  0
    0.7111    2.5004   -0.0321 H   0  0  0  0  0  0  0  0  0  0  0  0
    2.1536   -2.2587    0.0303 H   0  0  0  0  0  0  0  0  0  0  0  0
   -3.3794   -0.1135   -0.0628 H   0  0  0  0  0  0  0  0  0  0  0  0
   -0.1704   -2.8783    0.0466 H   0  0  0  0  0  0  0  0  0  0  0  0
   -1.5242   -4.1192   -0.0069 H   0  0  0  0  0  0  0  0  0  0  0  0
  1  3  1  0  0  0  0
  1 15  1  0  0  0  0
  2  1  2  0  0  0  0
  2  4  1  0  0  0  0
  2 16  1  0  0  0  0
  3  5  2  0  0  0  0
  3 17  1  0  0  0  0
  4 18  1  0  0  0  0
  5  6  1  0  0  0  0
  5  8  1  0  0  0  0
  6  4  2  0  0  0  0
  6 10  1  0  0  0  0
  7  9  2  0  0  0  0
  7 19  1  0  0  0  0
  8  7  1  0  0  0  0
  8 11  2  0  0  0  0
  9 12  1  0  0  0  0
  9 10  1  0  0  0  0
 10 20  1  0  0  0  0
 12 13  1  0  0  0  0
 12 14  2  0  0  0  0
 13 21  1  0  0  0  0
M  END
>  <DRUGBANK_ID>
DB11937

>  <COMMON_NAME>
Kynurenic Acid

>  <CAS_NUMBER>
492-27-3

>  <UNII>
H030S2S85J

$$$$
