
 OpenBabel10282417123D

 25 24  0  0  0  0  0  0  0  0999 V2000
   -2.7253    1.7372    1.0052 C   0  0  0  0  0  0  0  0  0  0  0  0
   -1.3265    1.3719    0.5345 C   0  0  2  0  0  0  0  0  0  0  0  0
   -0.4515    2.4315    0.9499 O   0  0  0  0  0  0  0  0  0  0  0  0
   -1.1300    1.1117   -0.9980 C   0  0  2  0  0  0  0  0  0  0  0  0
    0.2894    0.9147   -1.2553 O   0  0  0  0  0  0  0  0  0  0  0  0
   -1.6268    2.2050   -1.9889 C   0  0  1  0  0  0  0  0  0  0  0  0
   -0.9702    2.0369   -3.2782 O   0  0  0  0  0  0  0  0  0  0  0  0
   -3.1474    2.1908   -2.3224 C   0  0  1  0  0  0  0  0  0  0  0  0
   -4.0291    2.2535   -1.2213 O   0  0  0  0  0  0  0  0  0  0  0  0
   -3.5219    3.3871   -3.2105 C   0  0  0  0  0  0  0  0  0  0  0  0
   -2.9865    3.2818   -4.5203 O   0  0  0  0  0  0  0  0  0  0  0  0
   -2.9891    2.7249    0.6150 H   0  0  0  0  0  0  0  0  0  0  0  0
   -2.7848    1.8722    2.0898 H   0  0  0  0  0  0  0  0  0  0  0  0
   -3.4559    0.9698    0.7389 H   0  0  0  0  0  0  0  0  0  0  0  0
   -1.0204    0.4678    1.0788 H   0  0  0  0  0  0  0  0  0  0  0  0
   -0.8936    2.9227    1.6674 H   0  0  0  0  0  0  0  0  0  0  0  0
   -1.5914    0.1546   -1.2602 H   0  0  0  0  0  0  0  0  0  0  0  0
    0.7140    1.7928   -1.2342 H   0  0  0  0  0  0  0  0  0  0  0  0
   -1.3061    3.1852   -1.6181 H   0  0  0  0  0  0  0  0  0  0  0  0
   -0.0325    1.8194   -3.1200 H   0  0  0  0  0  0  0  0  0  0  0  0
   -3.3632    1.2682   -2.8746 H   0  0  0  0  0  0  0  0  0  0  0  0
   -4.3213    1.3412   -1.0243 H   0  0  0  0  0  0  0  0  0  0  0  0
   -4.6122    3.4609   -3.2881 H   0  0  0  0  0  0  0  0  0  0  0  0
   -3.1783    4.3236   -2.7555 H   0  0  0  0  0  0  0  0  0  0  0  0
   -2.0813    2.9174   -4.4166 H   0  0  0  0  0  0  0  0  0  0  0  0
  1 12  1  0  0  0  0
  1 13  1  0  0  0  0
  1 14  1  0  0  0  0
  2 15  1  1  0  0  0
  2  3  1  0  0  0  0
  2  1  1  0  0  0  0
  3 16  1  0  0  0  0
  4  6  1  0  0  0  0
  4 17  1  6  0  0  0
  4  5  1  0  0  0  0
  4  2  1  0  0  0  0
  5 18  1  0  0  0  0
  6  7  1  0  0  0  0
  6  8  1  0  0  0  0
  6 19  1  1  0  0  0
  7 20  1  0  0  0  0
  8  9  1  0  0  0  0
  8 10  1  0  0  0  0
  8 21  1  6  0  0  0
  9 22  1  0  0  0  0
 10 11  1  0  0  0  0
 10 23  1  0  0  0  0
 10 24  1  0  0  0  0
 11 25  1  0  0  0  0
M  END
>  <DRUGBANK_ID>
DB02399

>  <SECONDARY_ACCESSION_NUMBERS>
EXPT02796

>  <COMMON_NAME>
L-Rhamnitol

>  <CAS_NUMBER>
488-28-8

>  <UNII>
IHI9UGC58P

>  <SYNONYMS>
(2S,3S,4S,5S)-hexane-1,2,3,4,5-pentol; 1-deoxy-L-mannitol; 6-deoxy-L-mannitol

$$$$
