
 OpenBabel10282417133D

 51 53  0  0  0  0  0  0  0  0999 V2000
    1.5062    2.0289    1.7411 S   0  0  0  0  0  0  0  0  0  0  0  0
   -2.4680   -0.1316    0.3012 O   0  0  0  0  0  0  0  0  0  0  0  0
   -0.7862   -1.5228    3.2250 O   0  0  0  0  0  0  0  0  0  0  0  0
   -2.0723    0.9471    3.3227 O   0  0  0  0  0  0  0  0  0  0  0  0
    0.6165    1.2021    0.6012 O   0  0  0  0  0  0  0  0  0  0  0  0
    2.8290    1.5057    1.7069 O   0  0  0  0  0  0  0  0  0  0  0  0
    0.8912    2.0531    3.0665 O   0  0  0  0  0  0  0  0  0  0  0  0
    2.8773    1.7450   -2.2386 O   0  0  0  0  0  0  0  0  0  0  0  0
    1.7980    5.5574    0.3142 O   0  0  0  0  0  0  0  0  0  0  0  0
   -1.6083   -2.2973    0.1861 N   0  0  0  0  0  0  0  0  0  0  0  0
   -1.6403   -4.1960   -0.9484 N   0  0  0  0  0  0  0  0  0  0  0  0
    0.2770   -1.1850   -0.8536 N   0  0  0  0  0  0  0  0  0  0  0  0
    1.3321    3.6042    1.3150 N   0  0  0  0  0  0  0  0  0  0  0  0
    1.2245   -2.5020   -2.6278 N   0  0  0  0  0  0  0  0  0  0  0  0
    0.3829   -4.5985   -3.2542 N   0  0  0  0  0  0  0  0  0  0  0  0
    3.9882    2.9526    0.1098 N   0  0  0  0  0  0  0  0  0  0  0  0
   -0.8852   -0.8072    2.0058 C   0  0  2  0  0  0  0  0  0  0  0  0
   -1.3556    0.6141    2.1664 C   0  0  1  0  0  0  0  0  0  0  0  0
   -2.0052   -1.2636    1.0926 C   0  0  1  0  0  0  0  0  0  0  0  0
   -1.8634    1.0606    0.8290 C   0  0  1  0  0  0  0  0  0  0  0  0
   -0.6597    1.5720   -0.0103 C   0  0  0  0  0  0  0  0  0  0  0  0
   -0.5799   -2.2022   -0.7013 C   0  0  0  0  0  0  0  0  0  0  0  0
   -2.2019   -3.5137    0.0289 C   0  0  0  0  0  0  0  0  0  0  0  0
   -0.6231   -3.3775   -1.4138 C   0  0  0  0  0  0  0  0  0  0  0  0
    0.3286   -3.5005   -2.4338 C   0  0  0  0  0  0  0  0  0  0  0  0
    2.9477    3.6386   -0.6316 C   0  0  2  0  0  0  0  0  0  0  0  0
    1.1592   -1.4183   -1.8328 C   0  0  0  0  0  0  0  0  0  0  0  0
    2.0105    4.3492    0.3577 C   0  0  0  0  0  0  0  0  0  0  0  0
    2.1121    2.7216   -1.5471 C   0  0  1  0  0  0  0  0  0  0  0  0
    1.2255    3.4581   -2.5248 C   0  0  0  0  0  0  0  0  0  0  0  0
    0.6929    4.1004    1.9329 H   0  0  0  0  0  0  0  0  0  0  0  0
   -0.2805   -5.3433   -3.1004 H   0  0  0  0  0  0  0  0  0  0  0  0
    1.0925   -4.6254   -3.9659 H   0  0  0  0  0  0  0  0  0  0  0  0
    4.5607    2.2304   -0.2942 H   0  0  0  0  0  0  0  0  0  0  0  0
    4.4536    3.4665    0.8487 H   0  0  0  0  0  0  0  0  0  0  0  0
   -1.3178   -1.0472    3.8856 H   0  0  0  0  0  0  0  0  0  0  0  0
   -2.9022    0.4684    3.3520 H   0  0  0  0  0  0  0  0  0  0  0  0
    3.7486    1.7199   -1.8153 H   0  0  0  0  0  0  0  0  0  0  0  0
    0.1039   -0.8786    1.5330 H   0  0  0  0  0  0  0  0  0  0  0  0
   -0.5472    1.2242    2.2994 H   0  0  0  0  0  0  0  0  0  0  0  0
   -2.8423   -1.6083    1.7083 H   0  0  0  0  0  0  0  0  0  0  0  0
   -2.6183    1.8495    0.8831 H   0  0  0  0  0  0  0  0  0  0  0  0
   -0.7044    2.6561   -0.1691 H   0  0  0  0  0  0  0  0  0  0  0  0
   -0.7224    1.1443   -1.0301 H   0  0  0  0  0  0  0  0  0  0  0  0
   -3.0358   -3.8403    0.6387 H   0  0  0  0  0  0  0  0  0  0  0  0
    3.4451    4.3930   -1.2375 H   0  0  0  0  0  0  0  0  0  0  0  0
    1.8974   -0.6393   -1.9993 H   0  0  0  0  0  0  0  0  0  0  0  0
    1.4217    2.1540   -0.9715 H   0  0  0  0  0  0  0  0  0  0  0  0
    0.5979    2.7394   -3.0657 H   0  0  0  0  0  0  0  0  0  0  0  0
    0.5611    4.1610   -2.0126 H   0  0  0  0  0  0  0  0  0  0  0  0
    1.8412    3.9848   -3.2528 H   0  0  0  0  0  0  0  0  0  0  0  0
  1  5  1  0  0  0  0
  1  6  2  0  0  0  0
  1  7  2  0  0  0  0
  1 13  1  0  0  0  0
  2 19  1  0  0  0  0
  2 20  1  0  0  0  0
  3 36  1  0  0  0  0
  4 37  1  0  0  0  0
  5 21  1  0  0  0  0
  8 38  1  0  0  0  0
  9 28  2  0  0  0  0
 10 22  1  0  0  0  0
 10 23  1  0  0  0  0
 11 23  2  0  0  0  0
 11 24  1  0  0  0  0
 12 22  2  0  0  0  0
 12 27  1  0  0  0  0
 13 28  1  0  0  0  0
 13 31  1  0  0  0  0
 14 25  1  0  0  0  0
 14 27  2  0  0  0  0
 15 25  1  0  0  0  0
 15 32  1  0  0  0  0
 15 33  1  0  0  0  0
 16 34  1  0  0  0  0
 16 35  1  0  0  0  0
 17  3  1  0  0  0  0
 17 18  1  0  0  0  0
 17 19  1  0  0  0  0
 17 39  1  6  0  0  0
 18  4  1  0  0  0  0
 18 20  1  0  0  0  0
 18 40  1  1  0  0  0
 19 41  1  1  0  0  0
 19 10  1  0  0  0  0
 20 21  1  0  0  0  0
 20 42  1  1  0  0  0
 21 43  1  0  0  0  0
 21 44  1  0  0  0  0
 22 24  1  0  0  0  0
 23 45  1  0  0  0  0
 24 25  2  0  0  0  0
 26 16  1  0  0  0  0
 26 28  1  0  0  0  0
 26 46  1  6  0  0  0
 27 47  1  0  0  0  0
 29 30  1  0  0  0  0
 29 48  1  1  0  0  0
 29 26  1  0  0  0  0
 29  8  1  0  0  0  0
 30 49  1  0  0  0  0
 30 50  1  0  0  0  0
 30 51  1  0  0  0  0
M  END
>  <DRUGBANK_ID>
DB03355

>  <SECONDARY_ACCESSION_NUMBERS>
EXPT03121

>  <COMMON_NAME>
5'-O-(L-Threonylsulfamoyl)adenosine

$$$$
