
 OpenBabel10282417233D

210216  0  0  1  0  0  0  0  0999 V2000
    3.5885   11.2842    9.3224 H   0  0  0  0  0  0  0  0  0  0  0  0
    2.2928   11.3258    8.1875 C   0  0  1  0  0  0  0  0  0  0  0  0
    4.2109   12.4136    9.7002 C   0  0  0  0  0  0  0  0  0  0  0  0
    5.4558   12.9229   11.5321 C   0  0  0  0  0  0  0  0  0  0  0  0
    5.0903   11.8163   11.8885 C   0  0  0  0  0  0  0  0  0  0  0  0
    4.0509   11.6485   12.5578 C   0  0  0  0  0  0  0  0  0  0  0  0
    3.6481   12.1955   13.6287 C   0  0  0  0  0  0  0  0  0  0  0  0
    2.4033   11.8629   14.2761 N   0  0  0  0  0  0  0  0  0  0  0  0
    2.0516   12.5456   15.4826 C   0  0  0  0  0  0  0  0  0  0  0  0
    0.8237   12.2185   16.1143 N   0  0  0  0  0  0  0  0  0  0  0  0
    2.7768   13.4035   15.9947 O   0  0  0  0  0  0  0  0  0  0  0  0
    4.5423   13.1058   14.0580 C   0  0  0  0  0  0  0  0  0  0  0  0
    5.5180   13.5995   13.1922 C   0  0  0  0  0  0  0  0  0  0  0  0
    0.1872   10.8409    6.7251 N   0  0  0  0  0  0  0  0  0  0  0  0
   -2.1485   10.4997    5.6734 C   0  0  0  0  0  0  0  0  0  0  0  0
   -3.4277   10.2956    4.4882 O   0  0  0  0  0  0  0  0  0  0  0  0
   -4.5784    9.8350    5.1855 C   0  0  2  0  0  0  0  0  0  0  0  0
   -5.6835   10.6691    6.1007 C   0  0  0  0  0  0  0  0  0  0  0  0
   -6.5381   11.6752    6.0067 C   0  0  0  0  0  0  0  0  0  0  0  0
   -6.1510   12.8236    6.6046 C   0  0  0  0  0  0  0  0  0  0  0  0
   -6.9907   13.8827    6.5079 C   0  0  0  0  0  0  0  0  0  0  0  0
   -8.1875   13.7819    5.8631 C   0  0  0  0  0  0  0  0  0  0  0  0
   -9.1725   14.8160    5.8486 N   0  0  0  0  0  0  0  0  0  0  0  0
  -10.4478   14.6897    5.2611 C   0  0  0  0  0  0  0  0  0  0  0  0
  -11.2571   15.6318    5.2586 O   0  0  0  0  0  0  0  0  0  0  0  0
  -10.8279   13.4542    4.4146 C   0  0  2  0  0  0  0  0  0  0  0  0
  -10.6649   14.3442    3.2208 C   0  0  0  0  0  0  0  0  0  0  0  0
  -11.8374   15.3137    3.1299 C   0  0  0  0  0  0  0  0  0  0  0  0
  -11.7189   16.4574    2.7008 O   0  0  0  0  0  0  0  0  0  0  0  0
  -13.0382   14.7970    3.5701 N   0  0  0  0  0  0  0  0  0  0  0  0
  -13.2271   13.5405    4.0791 C   0  0  0  0  0  0  0  0  0  0  0  0
  -14.3418   13.0564    4.2258 O   0  0  0  0  0  0  0  0  0  0  0  0
  -12.1161   12.8510    4.4144 N   0  0  0  0  0  0  0  0  0  0  0  0
   -8.3762   12.5891    5.2332 C   0  0  0  0  0  0  0  0  0  0  0  0
   -7.6875   11.4483    5.4097 C   0  0  0  0  0  0  0  0  0  0  0  0
   -4.8979    8.3818    4.8197 N   0  0  0  0  0  0  0  0  0  0  0  0
   -3.2731    8.4138    5.6085 C   0  0  0  0  0  0  0  0  0  0  0  0
   -2.8208    9.3702    6.6011 O   0  0  0  0  0  0  0  0  0  0  0  0
   -2.8839    7.1267    5.8721 C   0  0  0  0  0  0  0  0  0  0  0  0
   -1.5431    7.5509    5.4363 C   0  0  0  0  0  0  0  0  0  0  0  0
   -0.2487    9.2057    5.9324 S   0  0  0  0  0  0  0  0  0  0  0  0
   -0.7656   11.3946    7.9770 S   0  0  0  0  0  0  0  0  0  0  0  0
   -1.7169   12.1820    7.2088 C   0  0  0  0  0  0  0  0  0  0  0  0
   -1.3379   11.5629    8.9473 C   0  0  2  0  0  0  0  0  0  0  0  0
   -0.1925   10.1298    9.3875 N   0  0  0  0  0  0  0  0  0  0  0  0
    0.9589   10.4326    9.8236 C   0  0  0  0  0  0  0  0  0  0  0  0
    1.2093   11.5362   10.2669 O   0  0  0  0  0  0  0  0  0  0  0  0
    1.8695    9.2541    9.8145 C   0  0  1  0  0  0  0  0  0  0  0  0
    1.4669    8.3953    9.3628 H   0  0  0  0  0  0  0  0  0  0  0  0
    3.1394    9.4616    9.1866 N   0  0  0  0  0  0  0  0  0  0  0  0
    4.3123    9.2351    9.9675 C   0  0  0  0  0  0  0  0  0  0  0  0
    4.4149    9.2714   11.2027 O   0  0  0  0  0  0  0  0  0  0  0  0
    5.5978    9.6750    9.0595 C   0  0  0  0  0  0  0  0  0  0  0  0
    5.5386   10.2819    7.7852 C   0  0  0  0  0  0  0  0  0  0  0  0
    6.8654   10.6756    7.2957 C   0  0  0  0  0  0  0  0  0  0  0  0
    7.7921    9.4902    7.3802 C   0  0  0  0  0  0  0  0  0  0  0  0
    7.2035    8.3237    6.6182 C   0  0  0  0  0  0  0  0  0  0  0  0
    7.0069    8.6937    5.2230 N   0  0  0  0  0  0  0  0  0  0  0  0
    6.2802   11.0415    9.6076 N   0  0  0  0  0  0  0  0  0  0  0  0
    4.4811   11.0314    9.3563 C   0  0  0  0  0  0  0  0  0  0  0  0
    5.9659   10.6211   10.2816 O   0  0  0  0  0  0  0  0  0  0  0  0
    1.9994    8.8097   11.2095 C   0  0  1  0  0  0  0  0  0  0  0  0
    2.9250    7.6243   11.3129 C   0  0  0  0  0  0  0  0  0  0  0  0
    2.4686    9.8487   11.9094 O   0  0  0  0  0  0  0  0  0  0  0  0
   -2.6247   11.1404    9.5435 C   0  0  0  0  0  0  0  0  0  0  0  0
   -3.0703   11.7680   10.4716 O   0  0  0  0  0  0  0  0  0  0  0  0
   -3.2031   10.0842    9.0896 N   0  0  0  0  0  0  0  0  0  0  0  0
   -2.7302    9.0647    8.3865 C   0  0  2  0  0  0  0  0  0  0  0  0
   -1.5247    8.9702    7.8094 C   0  0  0  0  0  0  0  0  0  0  0  0
   -0.6551    7.8227    7.8680 C   0  0  0  0  0  0  0  0  0  0  0  0
   -1.0043    6.7431    7.3139 C   0  0  0  0  0  0  0  0  0  0  0  0
   -0.5854    5.5794    6.8044 C   0  0  0  0  0  0  0  0  0  0  0  0
    0.6912    5.5428    6.9676 C   0  0  0  0  0  0  0  0  0  0  0  0
    1.3257    4.3579    6.9337 O   0  0  0  0  0  0  0  0  0  0  0  0
    1.3238    6.7201    7.2854 C   0  0  0  0  0  0  0  0  0  0  0  0
    0.6700    7.8211    7.7434 C   0  0  0  0  0  0  0  0  0  0  0  0
   -4.4811    9.0506    6.8520 C   0  0  0  0  0  0  0  0  0  0  0  0
   -5.1782    7.7467    6.5759 N   0  0  0  0  0  0  0  0  0  0  0  0
   -4.1038   10.1540    6.5629 O   0  0  0  0  0  0  0  0  0  0  0  0
   -3.4638    6.0088    5.3798 N   0  0  0  0  0  0  0  0  0  0  0  0
   -3.8086    4.9771    6.0131 C   0  0  0  0  0  0  0  0  0  0  0  0
   -3.5655    3.9087    5.1079 O   0  0  0  0  0  0  0  0  0  0  0  0
   -3.6201    4.8986    7.9177 C   0  0  2  0  0  0  0  0  0  0  0  0
   -4.8409    5.0808    8.5729 C   0  0  0  0  0  0  0  0  0  0  0  0
   -4.9962    6.3968    8.6612 C   0  0  0  0  0  0  0  0  0  0  0  0
   -5.7548    7.1019    9.4064 C   0  0  0  0  0  0  0  0  0  0  0  0
   -5.8230    8.4758    9.4759 C   0  0  0  0  0  0  0  0  0  0  0  0
   -5.3492    9.2384    8.6393 C   0  0  0  0  0  0  0  0  0  0  0  0
   -5.2552   11.1036    8.6853 Cl  0  0  0  0  0  0  0  0  0  0  0  0
   -4.4190    8.3443    8.4336 C   0  0  0  0  0  0  0  0  0  0  0  0
   -4.2340    7.1101    8.1352 C   0  0  0  0  0  0  0  0  0  0  0  0
   -2.3287    5.2808    8.2994 N   0  0  0  0  0  0  0  0  0  0  0  0
   -1.1379    4.7436    8.7668 C   0  0  0  0  0  0  0  0  0  0  0  0
   -0.1663    5.4536    9.0594 O   0  0  0  0  0  0  0  0  0  0  0  0
   -1.0461    3.2980    8.8966 C   0  0  0  0  0  0  0  0  0  0  0  0
   -2.1101    2.8690    9.8862 C   0  0  0  0  0  0  0  0  0  0  0  0
   -3.4578    3.0823    9.4700 C   0  0  3  0  0  0  0  0  0  0  0  0
   -3.2503    2.3566    8.1480 N   0  0  0  0  0  0  0  0  0  0  0  0
   -2.7099    1.1752    7.9742 C   0  0  0  0  0  0  0  0  0  0  0  0
   -3.2653    0.3144    6.9466 C   0  0  0  0  0  0  0  0  0  0  0  0
   -4.6086   -0.1978    7.2451 N   0  0  0  0  0  0  0  0  0  0  0  0
   -5.1456    0.4672    8.4342 C   0  0  0  0  0  0  0  0  0  0  0  0
   -5.5073    1.8813    8.2669 C   0  0  0  0  0  0  0  0  0  0  0  0
   -6.6587    2.5230    8.3628 O   0  0  0  0  0  0  0  0  0  0  0  0
   -4.9730    2.7747    7.7583 O   0  0  0  0  0  0  0  0  0  0  0  0
   -5.5785   -0.0248    6.1580 C   0  0  0  0  0  0  0  0  0  0  0  0
   -6.0762    1.3672    5.9070 C   0  0  0  0  0  0  0  0  0  0  0  0
   -5.1726    2.2455    5.2880 N   0  0  0  0  0  0  0  0  0  0  0  0
   -5.6264    2.6406    3.9750 C   0  0  0  0  0  0  0  0  0  0  0  0
   -6.8943    3.5028    4.1006 C   0  0  0  0  0  0  0  0  0  0  0  0
   -6.8777    4.7716    3.5559 O   0  0  0  0  0  0  0  0  0  0  0  0
   -7.8713    3.0836    4.7223 O   0  0  0  0  0  0  0  0  0  0  0  0
   -5.1409    3.4443    5.9997 C   0  0  0  0  0  0  0  0  0  0  0  0
   -3.4141    3.0895    6.7927 C   0  0  0  0  0  0  0  0  0  0  0  0
   -4.6131    2.8065   10.3190 C   0  0  0  0  0  0  0  0  0  0  0  0
   -5.4747    3.7724   10.7893 O   0  0  0  0  0  0  0  0  0  0  0  0
   -4.7558    1.6369   10.6199 O   0  0  0  0  0  0  0  0  0  0  0  0
    5.6570   13.0396   10.5901 H   0  0  0  0  0  0  0  0  0  0  0  0
    5.8584   13.0756   10.0357 H   0  0  0  0  0  0  0  0  0  0  0  0
    4.7434   11.3785   11.0929 H   0  0  0  0  0  0  0  0  0  0  0  0
    3.5177   10.9512   12.2319 H   0  0  0  0  0  0  0  0  0  0  0  0
    1.7993   11.1556   13.8411 H   0  0  0  0  0  0  0  0  0  0  0  0
    0.5461   12.6971   16.9959 H   0  0  0  0  0  0  0  0  0  0  0  0
    0.1688   11.5288   15.7582 H   0  0  0  0  0  0  0  0  0  0  0  0
    4.4115   13.4107   15.0552 H   0  0  0  0  0  0  0  0  0  0  0  0
    6.0782   14.5293   13.5881 H   0  0  0  0  0  0  0  0  0  0  0  0
   -1.4616   10.5936    6.4002 H   0  0  0  0  0  0  0  0  0  0  0  0
   -6.3494    9.2527    5.6572 H   0  0  0  0  0  0  0  0  0  0  0  0
   -5.6166   10.2323    7.0711 H   0  0  0  0  0  0  0  0  0  0  0  0
   -4.7319   11.2800    5.8072 H   0  0  0  0  0  0  0  0  0  0  0  0
   -5.2314   12.8822    7.1714 H   0  0  0  0  0  0  0  0  0  0  0  0
   -6.6842   14.8079    6.9297 H   0  0  0  0  0  0  0  0  0  0  0  0
   -8.9672   15.6932    6.3566 H   0  0  0  0  0  0  0  0  0  0  0  0
  -10.3889   12.4956    4.6577 H   0  0  0  0  0  0  0  0  0  0  0  0
  -10.6894   13.7737    2.3348 H   0  0  0  0  0  0  0  0  0  0  0  0
   -9.7510   14.9443    3.3257 H   0  0  0  0  0  0  0  0  0  0  0  0
  -13.8462   15.4043    3.5076 H   0  0  0  0  0  0  0  0  0  0  0  0
  -12.2193   11.8702    4.6709 H   0  0  0  0  0  0  0  0  0  0  0  0
   -9.0301   12.5743    4.4522 H   0  0  0  0  0  0  0  0  0  0  0  0
   -8.0281   10.4693    5.0953 H   0  0  0  0  0  0  0  0  0  0  0  0
   -5.4270    7.2337    4.6647 H   0  0  0  0  0  0  0  0  0  0  0  0
   -2.9022    6.9255    7.3824 H   0  0  0  0  0  0  0  0  0  0  0  0
   -1.7136    7.7489    4.5076 H   0  0  0  0  0  0  0  0  0  0  0  0
   -0.9178    6.6853    5.4826 H   0  0  0  0  0  0  0  0  0  0  0  0
   -2.2715   12.9332    7.3687 H   0  0  0  0  0  0  0  0  0  0  0  0
   -0.6073   12.3279    6.9096 H   0  0  0  0  0  0  0  0  0  0  0  0
   -0.8616   12.4015    9.5329 H   0  0  0  0  0  0  0  0  0  0  0  0
   -0.2553    9.3988    8.6994 H   0  0  0  0  0  0  0  0  0  0  0  0
    3.2234    9.8071    8.1973 H   0  0  0  0  0  0  0  0  0  0  0  0
    6.3633    9.0075    9.3996 H   0  0  0  0  0  0  0  0  0  0  0  0
    5.0684    9.4761    7.3477 H   0  0  0  0  0  0  0  0  0  0  0  0
    4.8652   11.1612    7.7653 H   0  0  0  0  0  0  0  0  0  0  0  0
    6.7182   10.9761    6.2781 H   0  0  0  0  0  0  0  0  0  0  0  0
    7.2855   11.5190    7.8415 H   0  0  0  0  0  0  0  0  0  0  0  0
    8.7519    9.7556    6.9633 H   0  0  0  0  0  0  0  0  0  0  0  0
    7.9476    9.2092    8.4209 H   0  0  0  0  0  0  0  0  0  0  0  0
    7.8638    7.4711    6.6879 H   0  0  0  0  0  0  0  0  0  0  0  0
    6.2484    8.0427    7.0580 H   0  0  0  0  0  0  0  0  0  0  0  0
    6.6030    7.9169    4.7094 H   0  0  0  0  0  0  0  0  0  0  0  0
    6.3756    9.4911    5.1591 H   0  0  0  0  0  0  0  0  0  0  0  0
    6.1395   11.8920    9.9555 H   0  0  0  0  0  0  0  0  0  0  0  0
    1.0695    8.5876   11.6506 H   0  0  0  0  0  0  0  0  0  0  0  0
    3.8888    7.7479   10.8615 H   0  0  0  0  0  0  0  0  0  0  0  0
    3.1178    7.3809   12.3372 H   0  0  0  0  0  0  0  0  0  0  0  0
    2.5446    6.8174   10.7498 H   0  0  0  0  0  0  0  0  0  0  0  0
    3.3661    9.9732   11.4075 H   0  0  0  0  0  0  0  0  0  0  0  0
   -4.1080    9.9063    9.4807 H   0  0  0  0  0  0  0  0  0  0  0  0
   -2.7315    7.9914    8.6195 H   0  0  0  0  0  0  0  0  0  0  0  0
   -1.5241    9.4315    6.9490 H   0  0  0  0  0  0  0  0  0  0  0  0
   -1.4309    9.8237    8.2063 H   0  0  0  0  0  0  0  0  0  0  0  0
   -1.8316    6.8928    6.9698 H   0  0  0  0  0  0  0  0  0  0  0  0
   -1.2489    4.8077    6.4874 H   0  0  0  0  0  0  0  0  0  0  0  0
    0.8024    3.5442    6.7646 H   0  0  0  0  0  0  0  0  0  0  0  0
    2.3566    6.7338    7.1903 H   0  0  0  0  0  0  0  0  0  0  0  0
    1.1427    8.7514    7.9797 H   0  0  0  0  0  0  0  0  0  0  0  0
   -5.3692    7.6638    5.7296 H   0  0  0  0  0  0  0  0  0  0  0  0
   -5.0141    6.8053    6.6468 H   0  0  0  0  0  0  0  0  0  0  0  0
   -3.7124    6.0200    4.4778 H   0  0  0  0  0  0  0  0  0  0  0  0
   -3.1661    3.9786    8.1166 H   0  0  0  0  0  0  0  0  0  0  0  0
   -5.5949    4.5622    8.1250 H   0  0  0  0  0  0  0  0  0  0  0  0
   -4.6618    4.7931    9.5176 H   0  0  0  0  0  0  0  0  0  0  0  0
   -6.3462    6.5365    9.9959 H   0  0  0  0  0  0  0  0  0  0  0  0
   -6.3651    8.9850   10.1578 H   0  0  0  0  0  0  0  0  0  0  0  0
   -3.6241    8.5562    7.6369 H   0  0  0  0  0  0  0  0  0  0  0  0
   -3.9255    6.5026    7.0015 H   0  0  0  0  0  0  0  0  0  0  0  0
   -2.2572    6.2166    8.2936 H   0  0  0  0  0  0  0  0  0  0  0  0
   -1.1263    2.8542    7.9248 H   0  0  0  0  0  0  0  0  0  0  0  0
   -0.0851    3.0150    9.2721 H   0  0  0  0  0  0  0  0  0  0  0  0
   -2.0714    1.8174   10.0449 H   0  0  0  0  0  0  0  0  0  0  0  0
   -1.9974    3.3879   10.7932 H   0  0  0  0  0  0  0  0  0  0  0  0
   -3.4092    4.1406    9.4747 H   0  0  0  0  0  0  0  0  0  0  0  0
   -1.8066    1.5728    7.7159 H   0  0  0  0  0  0  0  0  0  0  0  0
   -2.8199    0.8554    8.9576 H   0  0  0  0  0  0  0  0  0  0  0  0
   -3.2508    0.8094    5.9876 H   0  0  0  0  0  0  0  0  0  0  0  0
   -2.5440   -0.4893    6.9644 H   0  0  0  0  0  0  0  0  0  0  0  0
   -6.0650    0.0385    8.7335 H   0  0  0  0  0  0  0  0  0  0  0  0
   -4.4305    0.3532    9.2354 H   0  0  0  0  0  0  0  0  0  0  0  0
   -7.3929    1.9662    8.5427 H   0  0  0  0  0  0  0  0  0  0  0  0
   -5.1264   -0.3401    5.2337 H   0  0  0  0  0  0  0  0  0  0  0  0
   -6.4559   -0.6392    6.3902 H   0  0  0  0  0  0  0  0  0  0  0  0
   -6.9333    1.3297    5.3021 H   0  0  0  0  0  0  0  0  0  0  0  0
   -6.4051    1.7623    6.7941 H   0  0  0  0  0  0  0  0  0  0  0  0
   -4.8604    3.1748    3.4215 H   0  0  0  0  0  0  0  0  0  0  0  0
   -5.8528    1.7254    3.4539 H   0  0  0  0  0  0  0  0  0  0  0  0
   -6.1015    5.1180    3.0605 H   0  0  0  0  0  0  0  0  0  0  0  0
   -5.0530    4.4366    5.0812 H   0  0  0  0  0  0  0  0  0  0  0  0
   -5.7798    3.9626    6.6535 H   0  0  0  0  0  0  0  0  0  0  0  0
   -2.8497    4.0944    6.8254 H   0  0  0  0  0  0  0  0  0  0  0  0
   -2.5727    3.0780    6.2213 H   0  0  0  0  0  0  0  0  0  0  0  0
   -5.4323    4.7444   10.6048 H   0  0  0  0  0  0  0  0  0  0  0  0
  2 14  1  0  0  0  0
  2 60  1  0  0  0  0
  2  3  1  0  0  0  0
  2  1  1  1  0  0  0
  3  4  1  0  0  0  0
  3118  1  0  0  0  0
  3119  1  0  0  0  0
  4  5  2  0  0  0  0
  4 13  1  0  0  0  0
  5  6  1  0  0  0  0
  5120  1  0  0  0  0
  6  7  2  0  0  0  0
  6121  1  0  0  0  0
  7  8  1  0  0  0  0
  7 12  1  0  0  0  0
  8  9  1  0  0  0  0
  8122  1  0  0  0  0
  9 10  1  0  0  0  0
  9 11  2  0  0  0  0
 10123  1  0  0  0  0
 10124  1  0  0  0  0
 12 13  2  0  0  0  0
 12125  1  0  0  0  0
 13126  1  0  0  0  0
 14 15  1  0  0  0  0
 14127  1  0  0  0  0
 15 16  2  0  0  0  0
 17 15  1  0  0  0  0
 17 36  1  0  0  0  0
 17128  1  6  0  0  0
 17 18  1  0  0  0  0
 18 19  1  0  0  0  0
 18129  1  0  0  0  0
 18130  1  0  0  0  0
 19 20  2  0  0  0  0
 19 35  1  0  0  0  0
 20 21  1  0  0  0  0
 20131  1  0  0  0  0
 21 22  2  0  0  0  0
 21132  1  0  0  0  0
 22 23  1  0  0  0  0
 22 34  1  0  0  0  0
 23 24  1  0  0  0  0
 23133  1  0  0  0  0
 24 25  2  0  0  0  0
 26 24  1  0  0  0  0
 26 27  1  0  0  0  0
 26 33  1  0  0  0  0
 26134  1  1  0  0  0
 27 28  1  0  0  0  0
 27135  1  0  0  0  0
 27136  1  0  0  0  0
 28 29  2  0  0  0  0
 28 30  1  0  0  0  0
 30 31  1  0  0  0  0
 30137  1  0  0  0  0
 31 32  2  0  0  0  0
 31 33  1  0  0  0  0
 33138  1  0  0  0  0
 34 35  2  0  0  0  0
 34139  1  0  0  0  0
 35140  1  0  0  0  0
 36 37  1  0  0  0  0
 36141  1  0  0  0  0
 37 38  2  0  0  0  0
 39 37  1  0  0  0  0
 39 40  1  0  0  0  0
 39 80  1  0  0  0  0
 39142  1  0  0  0  0
 40 41  1  0  0  0  0
 40143  1  0  0  0  0
 40144  1  0  0  0  0
 41 42  1  0  0  0  0
 42 43  1  0  0  0  0
 43145  1  0  0  0  0
 43146  1  0  0  0  0
 44 43  1  0  0  0  0
 44 45  1  0  0  0  0
 44 65  1  0  0  0  0
 44147  1  1  0  0  0
 45 46  1  0  0  0  0
 45148  1  0  0  0  0
 46 47  2  0  0  0  0
 48 46  1  0  0  0  0
 48 49  1  6  0  0  0
 48 50  1  0  0  0  0
 48 62  1  0  0  0  0
 50 51  1  0  0  0  0
 50149  1  0  0  0  0
 51 52  2  0  0  0  0
 53 51  1  0  0  0  0
 53 54  1  0  0  0  0
 53 59  1  0  0  0  0
 53150  1  0  0  0  0
 54 55  1  0  0  0  0
 54151  1  0  0  0  0
 54152  1  0  0  0  0
 55 56  1  0  0  0  0
 55153  1  0  0  0  0
 55154  1  0  0  0  0
 56 57  1  0  0  0  0
 56155  1  0  0  0  0
 56156  1  0  0  0  0
 57 58  1  0  0  0  0
 57157  1  0  0  0  0
 57158  1  0  0  0  0
 58159  1  0  0  0  0
 58160  1  0  0  0  0
 59 60  1  0  0  0  0
 59161  1  0  0  0  0
 60 61  2  0  0  0  0
 62 63  1  0  0  0  0
 62 64  1  0  0  0  0
 62162  1  1  0  0  0
 63163  1  0  0  0  0
 63164  1  0  0  0  0
 63165  1  0  0  0  0
 64166  1  0  0  0  0
 65 66  2  0  0  0  0
 65 67  1  0  0  0  0
 67167  1  0  0  0  0
 68 77  1  0  0  0  0
 68168  1  1  0  0  0
 68 69  1  0  0  0  0
 68 67  1  0  0  0  0
 69 70  1  0  0  0  0
 69169  1  0  0  0  0
 69170  1  0  0  0  0
 70 71  2  0  0  0  0
 70 76  1  0  0  0  0
 71 72  1  0  0  0  0
 71171  1  0  0  0  0
 72 73  2  0  0  0  0
 72172  1  0  0  0  0
 73 74  1  0  0  0  0
 73 75  1  0  0  0  0
 74173  1  0  0  0  0
 75 76  2  0  0  0  0
 75174  1  0  0  0  0
 76175  1  0  0  0  0
 77 78  1  0  0  0  0
 77 79  2  0  0  0  0
 78176  1  0  0  0  0
 78177  1  0  0  0  0
 80 81  1  0  0  0  0
 80178  1  0  0  0  0
 81 82  2  0  0  0  0
 83 92  1  0  0  0  0
 83179  1  1  0  0  0
 83 84  1  0  0  0  0
 83 81  1  0  0  0  0
 84 85  1  0  0  0  0
 84180  1  0  0  0  0
 84181  1  0  0  0  0
 85 86  2  0  0  0  0
 85 91  1  0  0  0  0
 86 87  1  0  0  0  0
 86182  1  0  0  0  0
 87 88  2  0  0  0  0
 87183  1  0  0  0  0
 88 89  1  0  0  0  0
 88 90  1  0  0  0  0
 90 91  2  0  0  0  0
 90184  1  0  0  0  0
 91185  1  0  0  0  0
 92 93  1  0  0  0  0
 92186  1  0  0  0  0
 93 94  2  0  0  0  0
 93 95  1  0  0  0  0
 95 96  1  0  0  0  0
 95187  1  0  0  0  0
 95188  1  0  0  0  0
 96 97  1  0  0  0  0
 96189  1  0  0  0  0
 96190  1  0  0  0  0
 97 98  1  0  0  0  0
 97115  1  0  0  0  0
 97191  1  0  0  0  0
 98 99  1  0  0  0  0
 98114  1  0  0  0  0
 99100  1  0  0  0  0
 99192  1  0  0  0  0
 99193  1  0  0  0  0
100101  1  0  0  0  0
100194  1  0  0  0  0
100195  1  0  0  0  0
101102  1  0  0  0  0
101106  1  0  0  0  0
102103  1  0  0  0  0
102196  1  0  0  0  0
102197  1  0  0  0  0
103104  1  0  0  0  0
103105  2  0  0  0  0
104198  1  0  0  0  0
106107  1  0  0  0  0
106199  1  0  0  0  0
106200  1  0  0  0  0
107108  1  0  0  0  0
107201  1  0  0  0  0
107202  1  0  0  0  0
108109  1  0  0  0  0
108113  1  0  0  0  0
109110  1  0  0  0  0
109203  1  0  0  0  0
109204  1  0  0  0  0
110111  1  0  0  0  0
110112  2  0  0  0  0
111205  1  0  0  0  0
113114  1  0  0  0  0
113206  1  0  0  0  0
113207  1  0  0  0  0
114208  1  0  0  0  0
114209  1  0  0  0  0
115116  1  0  0  0  0
115117  2  0  0  0  0
116210  1  0  0  0  0
M  END
>  <DRUGBANK_ID>
DB17158

>  <COMMON_NAME>
Satoreotide trizoxetan

>  <CAS_NUMBER>
1638746-88-9

>  <UNII>
3M7TX701A4

$$$$
