
 OpenBabel10282417123D

 44 46  0  0  0  0  0  0  0  0999 V2000
    1.5430    0.3115   -0.9610 C   0  0  0  0  0  0  0  0  0  0  0  0
    0.7858   -0.7935   -1.2736 C   0  0  0  0  0  0  0  0  0  0  0  0
    0.8928    1.4557   -0.5223 C   0  0  0  0  0  0  0  0  0  0  0  0
   -0.6228   -0.7432   -1.1884 C   0  0  0  0  0  0  0  0  0  0  0  0
   -0.5037    1.4510   -0.3110 C   0  0  0  0  0  0  0  0  0  0  0  0
    0.4659   -2.5170    1.2494 C   0  0  0  0  0  0  0  0  0  0  0  0
   -2.0958   -2.5393    1.0126 C   0  0  0  0  0  0  0  0  0  0  0  0
   -3.7711   -0.0303    0.6861 C   0  0  0  0  0  0  0  0  0  0  0  0
   -1.5138   -5.0119   -0.3862 C   0  0  0  0  0  0  0  0  0  0  0  0
   -1.3282    0.3494   -0.6385 C   0  0  0  0  0  0  0  0  0  0  0  0
   -0.8601   -3.3030    1.4607 C   0  0  3  0  0  0  0  0  0  0  0  0
   -2.8580    0.4448   -0.4314 C   0  0  3  0  0  0  0  0  0  0  0  0
    0.5988   -1.0756    1.8476 C   0  0  3  0  0  0  0  0  0  0  0  0
   -3.8588   -0.6856   -0.6598 C   0  0  3  0  0  0  0  0  0  0  0  0
   -2.7713   -2.8905   -0.2878 C   0  0  0  0  0  0  0  0  0  0  0  0
   -0.6738   -4.6291    0.7629 C   0  0  0  0  0  0  0  0  0  0  0  0
   -2.4890   -4.2464   -0.8837 C   0  0  0  0  0  0  0  0  0  0  0  0
    0.2090   -0.9638    3.2972 C   0  0  0  0  0  0  0  0  0  0  0  0
    1.9304   -0.4431    1.7743 N   0  0  0  0  0  0  0  0  0  0  0  0
   -3.5363   -2.0577   -0.9315 N   0  0  0  0  0  0  0  0  0  0  0  0
    0.2344   -5.3923    1.0938 O   0  0  0  0  0  0  0  0  0  0  0  0
   -3.2154   -4.6325   -2.0005 O   0  0  0  0  0  0  0  0  0  0  0  0
    0.8439   -0.3917    4.1959 O   0  0  0  0  0  0  0  0  0  0  0  0
   -1.0019   -1.4460    3.5765 O   0  0  0  0  0  0  0  0  0  0  0  0
    2.6210    0.1936   -0.8543 H   0  0  0  0  0  0  0  0  0  0  0  0
    1.3183   -1.7430   -1.3736 H   0  0  0  0  0  0  0  0  0  0  0  0
    1.4984    2.2966   -0.1979 H   0  0  0  0  0  0  0  0  0  0  0  0
   -1.1390   -1.6618   -1.4240 H   0  0  0  0  0  0  0  0  0  0  0  0
   -0.9396    2.3112    0.1931 H   0  0  0  0  0  0  0  0  0  0  0  0
    1.3414   -3.0998    1.5450 H   0  0  0  0  0  0  0  0  0  0  0  0
    0.5482   -2.5643    0.1670 H   0  0  0  0  0  0  0  0  0  0  0  0
   -2.8696   -2.5516    1.7856 H   0  0  0  0  0  0  0  0  0  0  0  0
   -1.7962   -1.5090    0.9320 H   0  0  0  0  0  0  0  0  0  0  0  0
   -3.4469   -0.5231    1.5876 H   0  0  0  0  0  0  0  0  0  0  0  0
   -4.6481    0.5736    0.9424 H   0  0  0  0  0  0  0  0  0  0  0  0
   -1.2401   -5.9636   -0.8299 H   0  0  0  0  0  0  0  0  0  0  0  0
   -0.9672   -3.5233    2.5243 H   0  0  0  0  0  0  0  0  0  0  0  0
   -3.1844    1.4358   -0.7496 H   0  0  0  0  0  0  0  0  0  0  0  0
   -0.1207   -0.4062    1.3830 H   0  0  0  0  0  0  0  0  0  0  0  0
   -4.6891   -0.3672   -1.2910 H   0  0  0  0  0  0  0  0  0  0  0  0
    1.8370    0.5422    1.5181 H   0  0  0  0  0  0  0  0  0  0  0  0
    2.6254   -0.9017    1.2072 H   0  0  0  0  0  0  0  0  0  0  0  0
   -2.9699   -5.5336   -2.2691 H   0  0  0  0  0  0  0  0  0  0  0  0
   -1.0264   -1.3123    4.5434 H   0  0  0  0  0  0  0  0  0  0  0  0
  1 25  1  0  0  0  0
  2  1  2  0  0  0  0
  2 26  1  0  0  0  0
  3  1  1  0  0  0  0
  3 27  1  0  0  0  0
  4  2  1  0  0  0  0
  4 28  1  0  0  0  0
  5  3  2  0  0  0  0
  5 29  1  0  0  0  0
  6 30  1  0  0  0  0
  6 31  1  0  0  0  0
  7 32  1  0  0  0  0
  7 33  1  0  0  0  0
  8 34  1  0  0  0  0
  8 35  1  0  0  0  0
  9 36  1  0  0  0  0
 10  4  2  0  0  0  0
 10  5  1  0  0  0  0
 11  6  1  0  0  0  0
 11  7  1  0  0  0  0
 11 37  1  0  0  0  0
 12  8  1  0  0  0  0
 12 10  1  0  0  0  0
 12 38  1  0  0  0  0
 13  6  1  0  0  0  0
 13 39  1  0  0  0  0
 14  8  1  0  0  0  0
 14 12  1  0  0  0  0
 14 40  1  0  0  0  0
 15  7  1  0  0  0  0
 16  9  1  0  0  0  0
 16 11  1  0  0  0  0
 17  9  2  0  0  0  0
 17 15  1  0  0  0  0
 18 13  1  0  0  0  0
 19 13  1  0  0  0  0
 19 41  1  0  0  0  0
 19 42  1  0  0  0  0
 20 14  1  0  0  0  0
 20 15  2  0  0  0  0
 21 16  2  0  0  0  0
 22 17  1  0  0  0  0
 22 43  1  0  0  0  0
 23 18  2  0  0  0  0
 24 18  1  0  0  0  0
 24 44  1  0  0  0  0
M  END
>  <DRUGBANK_ID>
DB01657

>  <SECONDARY_ACCESSION_NUMBERS>
EXPT03142

>  <COMMON_NAME>
2-amino-3-[4-hydroxy-6-oxo-3-(2-phenyl-cyclopropylimino)-cyclohexa-1,4-dienyl]-propionic acid

$$$$
