
 OpenBabel10282417233D

 54 57  0  0  0  0  0  0  0  0999 V2000
    5.4603    0.5597    2.5901 F   0  0  0  0  0  0  0  0  0  0  0  0
    4.8899    1.4084    3.4888 C   0  0  0  0  0  0  0  0  0  0  0  0
    3.5629    1.4421    3.1766 F   0  0  0  0  0  0  0  0  0  0  0  0
    4.9750    0.7950    4.6996 F   0  0  0  0  0  0  0  0  0  0  0  0
    5.5151    2.7757    3.4533 C   0  0  0  0  0  0  0  0  0  0  0  0
    5.4695    3.5053    2.2544 C   0  0  0  0  0  0  0  0  0  0  0  0
    5.9945    4.8016    2.1693 C   0  0  0  0  0  0  0  0  0  0  0  0
    5.8655    5.6874    0.9426 C   0  0  0  0  0  0  0  0  0  0  0  0
    4.9635    6.9006    1.1535 C   0  0  0  0  0  0  0  0  0  0  0  0
    3.7751    7.0925    0.5445 C   0  0  0  0  0  0  0  0  0  0  0  0
    3.0743    8.2596    0.7621 N   0  0  0  0  0  0  0  0  0  0  0  0
    3.4052    9.2292    1.6458 C   0  0  0  0  0  0  0  0  0  0  0  0
    2.7194   10.2324    1.7816 O   0  0  0  0  0  0  0  0  0  0  0  0
    4.5454    9.0079    2.3355 N   0  0  0  0  0  0  0  0  0  0  0  0
    5.4265    8.0185    2.0364 C   0  0  0  0  0  0  0  0  0  0  0  0
    6.5752    8.1005    2.4738 O   0  0  0  0  0  0  0  0  0  0  0  0
    3.1619    6.0694   -0.3982 C   0  0  1  0  0  0  0  0  0  0  0  0
    2.9245    4.6963    0.2542 C   0  0  0  0  0  0  0  0  0  0  0  0
    1.8936    4.7478    1.3662 C   0  0  0  0  0  0  0  0  0  0  0  0
    0.5430    5.1488    0.7575 C   0  0  1  0  0  0  0  0  0  0  0  0
    0.6843    6.5043    0.0500 C   0  0  0  0  0  0  0  0  0  0  0  0
    1.8354    6.5389   -0.9907 C   0  0  0  0  0  0  0  0  0  0  0  0
    0.0326    4.0554   -0.1636 C   0  0  0  0  0  0  0  0  0  0  0  0
   -0.1213    2.7696    0.3612 C   0  0  0  0  0  0  0  0  0  0  0  0
   -0.4918    1.7152   -0.4631 C   0  0  0  0  0  0  0  0  0  0  0  0
   -0.7206    1.9314   -1.8204 C   0  0  0  0  0  0  0  0  0  0  0  0
   -0.6102    3.2063   -2.3523 C   0  0  0  0  0  0  0  0  0  0  0  0
   -0.2422    4.2563   -1.5269 C   0  0  0  0  0  0  0  0  0  0  0  0
    6.6368    5.3033    3.2990 C   0  0  0  0  0  0  0  0  0  0  0  0
    6.6412    4.6267    4.5081 C   0  0  0  0  0  0  0  0  0  0  0  0
    6.1197    3.3448    4.5779 C   0  0  0  0  0  0  0  0  0  0  0  0
    5.0104    3.0116    1.3988 H   0  0  0  0  0  0  0  0  0  0  0  0
    6.8530    6.0035    0.5950 H   0  0  0  0  0  0  0  0  0  0  0  0
    5.5161    5.0729    0.1024 H   0  0  0  0  0  0  0  0  0  0  0  0
    2.2125    8.4767    0.2804 H   0  0  0  0  0  0  0  0  0  0  0  0
    4.8776    9.7610    2.9138 H   0  0  0  0  0  0  0  0  0  0  0  0
    3.8630    5.9327   -1.2338 H   0  0  0  0  0  0  0  0  0  0  0  0
    2.6675    3.9472   -0.5049 H   0  0  0  0  0  0  0  0  0  0  0  0
    3.8148    4.3045    0.6921 H   0  0  0  0  0  0  0  0  0  0  0  0
    1.8629    3.7757    1.8739 H   0  0  0  0  0  0  0  0  0  0  0  0
    2.2052    5.4595    2.1429 H   0  0  0  0  0  0  0  0  0  0  0  0
   -0.1768    5.2598    1.5783 H   0  0  0  0  0  0  0  0  0  0  0  0
   -0.2556    6.8015   -0.4237 H   0  0  0  0  0  0  0  0  0  0  0  0
    0.8404    7.2420    0.8436 H   0  0  0  0  0  0  0  0  0  0  0  0
    1.9177    7.5328   -1.4438 H   0  0  0  0  0  0  0  0  0  0  0  0
    1.6577    5.8849   -1.8456 H   0  0  0  0  0  0  0  0  0  0  0  0
    0.0696    2.5805    1.4155 H   0  0  0  0  0  0  0  0  0  0  0  0
   -0.6028    0.7246   -0.0367 H   0  0  0  0  0  0  0  0  0  0  0  0
   -0.9986    1.1066   -2.4653 H   0  0  0  0  0  0  0  0  0  0  0  0
   -0.8134    3.4015   -3.4010 H   0  0  0  0  0  0  0  0  0  0  0  0
   -0.1619    5.2260   -2.0057 H   0  0  0  0  0  0  0  0  0  0  0  0
    7.1662    6.2446    3.2578 H   0  0  0  0  0  0  0  0  0  0  0  0
    7.0669    5.1185    5.3771 H   0  0  0  0  0  0  0  0  0  0  0  0
    6.2147    2.7886    5.5060 H   0  0  0  0  0  0  0  0  0  0  0  0
  1  2  1  0  0  0  0
  2  3  1  0  0  0  0
  2  4  1  0  0  0  0
  2  5  1  0  0  0  0
  5  6  2  0  0  0  0
  5 31  1  0  0  0  0
  6  7  1  0  0  0  0
  6 32  1  0  0  0  0
  7  8  1  0  0  0  0
  7 29  2  0  0  0  0
  8  9  1  0  0  0  0
  8 33  1  0  0  0  0
  8 34  1  0  0  0  0
  9 10  2  0  0  0  0
  9 15  1  0  0  0  0
 10 11  1  0  0  0  0
 11 12  1  0  0  0  0
 11 35  1  0  0  0  0
 12 13  2  0  0  0  0
 12 14  1  0  0  0  0
 14 15  1  0  0  0  0
 14 36  1  0  0  0  0
 15 16  2  0  0  0  0
 17 18  1  0  0  0  0
 17 22  1  0  0  0  0
 17 37  1  6  0  0  0
 17 10  1  0  0  0  0
 18 19  1  0  0  0  0
 18 38  1  0  0  0  0
 18 39  1  0  0  0  0
 19 40  1  0  0  0  0
 19 41  1  0  0  0  0
 20 19  1  0  0  0  0
 20 21  1  0  0  0  0
 20 23  1  0  0  0  0
 20 42  1  1  0  0  0
 21 22  1  0  0  0  0
 21 43  1  0  0  0  0
 21 44  1  0  0  0  0
 22 45  1  0  0  0  0
 22 46  1  0  0  0  0
 23 24  2  0  0  0  0
 23 28  1  0  0  0  0
 24 25  1  0  0  0  0
 24 47  1  0  0  0  0
 25 26  2  0  0  0  0
 25 48  1  0  0  0  0
 26 27  1  0  0  0  0
 26 49  1  0  0  0  0
 27 28  2  0  0  0  0
 27 50  1  0  0  0  0
 28 51  1  0  0  0  0
 29 30  1  0  0  0  0
 29 52  1  0  0  0  0
 30 31  2  0  0  0  0
 30 53  1  0  0  0  0
 31 54  1  0  0  0  0
M  END
>  <DRUGBANK_ID>
DB16234

>  <COMMON_NAME>
Miricorilant

>  <CAS_NUMBER>
1400902-13-7

>  <UNII>
311Y5GV21M

>  <SYNONYMS>
Miricorilant

$$$$
