
 OpenBabel10282417223D

 58 61  0  0  0  0  0  0  0  0999 V2000
    1.0929    0.1489   -0.0281 C   0  0  0  0  0  0  0  0  0  0  0  0
    0.5908    0.5540   -1.3298 N   0  0  0  0  0  0  0  0  0  0  0  0
   -0.3277   -0.3705   -1.9473 C   0  0  0  0  0  0  0  0  0  0  0  0
   -1.7159    0.1839   -2.0939 C   0  0  0  0  0  0  0  0  0  0  0  0
   -2.8950   -0.4447   -2.4356 C   0  0  0  0  0  0  0  0  0  0  0  0
   -3.0769   -1.9031   -2.5679 C   0  0  0  0  0  0  0  0  0  0  0  0
   -3.8598    0.5874   -2.6348 C   0  0  0  0  0  0  0  0  0  0  0  0
   -5.2169    0.6291   -2.9887 C   0  0  0  0  0  0  0  0  0  0  0  0
   -5.8463    1.8758   -3.1080 C   0  0  0  0  0  0  0  0  0  0  0  0
   -5.1293    3.0654   -2.9530 C   0  0  0  0  0  0  0  0  0  0  0  0
   -3.7669    3.0494   -2.6340 C   0  0  0  0  0  0  0  0  0  0  0  0
   -3.1971    1.7904   -2.4310 C   0  0  0  0  0  0  0  0  0  0  0  0
   -1.9190    1.5396   -2.0396 O   0  0  0  0  0  0  0  0  0  0  0  0
    0.9871    1.7740   -1.8572 C   0  0  0  0  0  0  0  0  0  0  0  0
    1.7010    2.5520   -1.2142 O   0  0  0  0  0  0  0  0  0  0  0  0
    0.5207    2.2475   -3.2145 C   0  0  0  0  0  0  0  0  0  0  0  0
   -0.1658    1.5744   -4.1564 C   0  0  0  0  0  0  0  0  0  0  0  0
   -0.7853    2.1345   -5.3350 C   0  0  0  0  0  0  0  0  0  0  0  0
   -2.1228    1.9563   -5.6946 C   0  0  0  0  0  0  0  0  0  0  0  0
   -2.6741    2.4393   -6.8340 N   0  0  0  0  0  0  0  0  0  0  0  0
   -1.8596    3.1426   -7.6375 C   0  0  0  0  0  0  0  0  0  0  0  0
   -2.3609    3.6517   -8.8550 N   0  0  0  0  0  0  0  0  0  0  0  0
   -3.6440    3.1571   -9.4064 C   0  0  0  0  0  0  0  0  0  0  0  0
   -3.5746    1.7577   -9.8251 O   0  0  0  0  0  0  0  0  0  0  0  0
   -2.6155    1.4037  -11.0656 P   0  0  0  0  0  0  0  0  0  0  0  0
   -3.1037    2.4440  -12.1626 O   0  0  0  0  0  0  0  0  0  0  0  0
   -1.2910    1.9546  -10.4283 O   0  0  0  0  0  0  0  0  0  0  0  0
   -2.4048    0.0173  -11.5512 O   0  0  0  0  0  0  0  0  0  0  0  0
   -1.5646    4.5423   -9.5772 C   0  0  0  0  0  0  0  0  0  0  0  0
   -2.0286    5.5219  -10.1925 O   0  0  0  0  0  0  0  0  0  0  0  0
   -0.0747    4.2138   -9.6397 C   0  0  0  0  0  0  0  0  0  0  0  0
    0.4801    3.9707   -8.2738 C   0  0  0  0  0  0  0  0  0  0  0  0
   -0.4927    3.2942   -7.3720 C   0  0  0  0  0  0  0  0  0  0  0  0
    0.0447    2.7627   -6.2181 C   0  0  0  0  0  0  0  0  0  0  0  0
    0.7665   -0.8685    0.2169 H   0  0  0  0  0  0  0  0  0  0  0  0
    0.7164    0.8290    0.7385 H   0  0  0  0  0  0  0  0  0  0  0  0
    2.1856    0.1583   -0.0396 H   0  0  0  0  0  0  0  0  0  0  0  0
    0.1321   -0.6971   -2.8872 H   0  0  0  0  0  0  0  0  0  0  0  0
   -0.3822   -1.3035   -1.3810 H   0  0  0  0  0  0  0  0  0  0  0  0
   -3.7636   -2.2419   -1.7899 H   0  0  0  0  0  0  0  0  0  0  0  0
   -3.4681   -2.1688   -3.5527 H   0  0  0  0  0  0  0  0  0  0  0  0
   -2.1282   -2.4338   -2.4335 H   0  0  0  0  0  0  0  0  0  0  0  0
   -5.7723   -0.2893   -3.1429 H   0  0  0  0  0  0  0  0  0  0  0  0
   -6.9118    1.9131   -3.3224 H   0  0  0  0  0  0  0  0  0  0  0  0
   -5.6436    4.0184   -3.0666 H   0  0  0  0  0  0  0  0  0  0  0  0
   -3.1906    3.9640   -2.5432 H   0  0  0  0  0  0  0  0  0  0  0  0
    0.7337    3.3070   -3.3583 H   0  0  0  0  0  0  0  0  0  0  0  0
   -0.4190    0.5362   -4.1207 H   0  0  0  0  0  0  0  0  0  0  0  0
   -2.8134    1.3875   -5.0797 H   0  0  0  0  0  0  0  0  0  0  0  0
   -4.4594    3.2488   -8.6800 H   0  0  0  0  0  0  0  0  0  0  0  0
   -3.9179    3.7493  -10.2846 H   0  0  0  0  0  0  0  0  0  0  0  0
   -3.8345    2.0278  -12.6592 H   0  0  0  0  0  0  0  0  0  0  0  0
   -1.4718    1.8832   -9.4687 H   0  0  0  0  0  0  0  0  0  0  0  0
    0.1366    3.3316  -10.2449 H   0  0  0  0  0  0  0  0  0  0  0  0
    0.4902    4.9773  -10.1755 H   0  0  0  0  0  0  0  0  0  0  0  0
    1.3761    3.3365   -8.3590 H   0  0  0  0  0  0  0  0  0  0  0  0
    0.7728    4.9179   -7.8189 H   0  0  0  0  0  0  0  0  0  0  0  0
    1.1130    2.8071   -6.0247 H   0  0  0  0  0  0  0  0  0  0  0  0
  1  2  1  0  0  0  0
  1 35  1  0  0  0  0
  1 36  1  0  0  0  0
  1 37  1  0  0  0  0
  2  3  1  0  0  0  0
  2 14  1  0  0  0  0
  3  4  1  0  0  0  0
  3 38  1  0  0  0  0
  3 39  1  0  0  0  0
  4  5  2  0  0  0  0
  4 13  1  0  0  0  0
  5  6  1  0  0  0  0
  5  7  1  0  0  0  0
  6 40  1  0  0  0  0
  6 41  1  0  0  0  0
  6 42  1  0  0  0  0
  7  8  2  0  0  0  0
  7 12  1  0  0  0  0
  8  9  1  0  0  0  0
  8 43  1  0  0  0  0
  9 10  2  0  0  0  0
  9 44  1  0  0  0  0
 10 11  1  0  0  0  0
 10 45  1  0  0  0  0
 11 12  2  0  0  0  0
 11 46  1  0  0  0  0
 12 13  1  0  0  0  0
 14 15  2  0  0  0  0
 14 16  1  0  0  0  0
 16 17  2  0  0  0  0
 16 47  1  0  0  0  0
 17 18  1  0  0  0  0
 17 48  1  0  0  0  0
 18 19  2  0  0  0  0
 18 34  1  0  0  0  0
 19 20  1  0  0  0  0
 19 49  1  0  0  0  0
 20 21  2  0  0  0  0
 21 22  1  0  0  0  0
 21 33  1  0  0  0  0
 22 23  1  0  0  0  0
 22 29  1  0  0  0  0
 23 24  1  0  0  0  0
 23 50  1  0  0  0  0
 23 51  1  0  0  0  0
 24 25  1  0  0  0  0
 25 26  1  0  0  0  0
 25 27  1  0  0  0  0
 25 28  2  0  0  0  0
 26 52  1  0  0  0  0
 27 53  1  0  0  0  0
 29 30  2  0  0  0  0
 29 31  1  0  0  0  0
 31 32  1  0  0  0  0
 31 54  1  0  0  0  0
 31 55  1  0  0  0  0
 32 33  1  0  0  0  0
 32 56  1  0  0  0  0
 32 57  1  0  0  0  0
 33 34  2  0  0  0  0
 34 58  1  0  0  0  0
M  END
>  <DRUGBANK_ID>
DB15268

>  <COMMON_NAME>
Afabicin

>  <CAS_NUMBER>
1518800-35-5

>  <UNII>
DMM8663H2R

>  <SYNONYMS>
Afabicin

$$$$
