1340
 OpenBabel10282417113D

 61 63  0  0  1  0  0  0  0  0999 V2000
    1.5465    0.1651    1.2316 O   0  0  0  0  0  0  0  0  0  0  0  0
    0.9400   -2.9910    2.8382 O   0  0  0  0  0  0  0  0  0  0  0  0
    3.1455   -3.3332    2.7406 O   0  0  0  0  0  0  0  0  0  0  0  0
   -0.7032    2.9397   -3.4191 O   0  0  0  0  0  0  0  0  0  0  0  0
   -0.7707    3.6859   -1.4248 O   0  0  0  0  0  0  0  0  0  0  0  0
    4.2854   -1.3878    0.7826 N   0  0  3  0  0  0  0  0  0  0  0  0
    2.9616   -1.1971    0.4661 N   0  0  0  0  0  0  0  0  0  0  0  0
    1.8267    2.1512   -0.8678 N   0  0  0  0  0  0  0  0  0  0  0  0
    2.0803   -2.3440    0.7520 C   0  0  1  0  0  0  0  0  0  0  0  0
    2.9125    1.1469   -0.5738 C   0  0  1  0  0  0  0  0  0  0  0  0
    4.8457   -2.1947   -0.2767 C   0  0  0  0  0  0  0  0  0  0  0  0
    5.0035   -0.2457    1.3372 C   0  0  0  0  0  0  0  0  0  0  0  0
    2.5007   -3.3390   -0.3260 C   0  0  0  0  0  0  0  0  0  0  0  0
    4.0500    1.8326    0.1917 C   0  0  0  0  0  0  0  0  0  0  0  0
    4.0390   -3.5279   -0.3009 C   0  0  0  0  0  0  0  0  0  0  0  0
    5.2496    0.8876    0.3403 C   0  0  0  0  0  0  0  0  0  0  0  0
    2.4192    0.0257    0.3870 C   0  0  0  0  0  0  0  0  0  0  0  0
    0.6693    1.6494   -1.6991 C   0  0  1  0  0  0  0  0  0  0  0  0
    2.1335   -2.9159    2.1916 C   0  0  0  0  0  0  0  0  0  0  0  0
   -0.1083    0.5023   -1.0510 C   0  0  0  0  0  0  0  0  0  0  0  0
   -0.5904    0.7951    0.3870 C   0  0  0  0  0  0  0  0  0  0  0  0
   -0.2978    2.8107   -2.1565 C   0  0  0  0  0  0  0  0  0  0  0  0
   -1.6719    1.7764    0.5597 C   0  0  0  0  0  0  0  0  0  0  0  0
   -2.9570    1.3370    0.3543 C   0  0  0  0  0  0  0  0  0  0  0  0
   -1.3722    3.1259    0.8340 C   0  0  0  0  0  0  0  0  0  0  0  0
    0.1144    2.5226   -4.4831 C   0  0  0  0  0  0  0  0  0  0  0  0
   -3.9567    2.2791    0.2972 C   0  0  0  0  0  0  0  0  0  0  0  0
   -2.3651    4.0749    0.6770 C   0  0  0  0  0  0  0  0  0  0  0  0
    1.5395    3.0234   -4.3419 C   0  0  0  0  0  0  0  0  0  0  0  0
   -3.6524    3.6428    0.3838 C   0  0  0  0  0  0  0  0  0  0  0  0
    0.1666   -2.5771    2.4137 H   0  0  0  0  0  0  0  0  0  0  0  0
    1.4689    2.4803    0.0322 H   0  0  0  0  0  0  0  0  0  0  0  0
    1.0339   -2.0685    0.5540 H   0  0  0  0  0  0  0  0  0  0  0  0
    3.2970    0.7880   -1.5401 H   0  0  0  0  0  0  0  0  0  0  0  0
    5.9051   -2.3907   -0.1082 H   0  0  0  0  0  0  0  0  0  0  0  0
    4.7217   -1.6743   -1.2346 H   0  0  0  0  0  0  0  0  0  0  0  0
    4.4544    0.1484    2.2104 H   0  0  0  0  0  0  0  0  0  0  0  0
    5.9573   -0.5905    1.7497 H   0  0  0  0  0  0  0  0  0  0  0  0
    1.9676   -4.2874   -0.2235 H   0  0  0  0  0  0  0  0  0  0  0  0
    2.2231   -2.9123   -1.3037 H   0  0  0  0  0  0  0  0  0  0  0  0
    4.3813    2.7454   -0.3176 H   0  0  0  0  0  0  0  0  0  0  0  0
    3.6906    2.1406    1.1845 H   0  0  0  0  0  0  0  0  0  0  0  0
    4.2829   -4.1008    0.6005 H   0  0  0  0  0  0  0  0  0  0  0  0
    4.3420   -4.1182   -1.1664 H   0  0  0  0  0  0  0  0  0  0  0  0
    5.5069    0.4710   -0.6394 H   0  0  0  0  0  0  0  0  0  0  0  0
    6.1155    1.4654    0.6757 H   0  0  0  0  0  0  0  0  0  0  0  0
    1.1170    1.2033   -2.5889 H   0  0  0  0  0  0  0  0  0  0  0  0
   -0.9360    0.1788   -1.6903 H   0  0  0  0  0  0  0  0  0  0  0  0
    0.5605   -0.3730   -1.0794 H   0  0  0  0  0  0  0  0  0  0  0  0
   -0.8431   -0.1513    0.8812 H   0  0  0  0  0  0  0  0  0  0  0  0
    0.1311    1.3104    1.0098 H   0  0  0  0  0  0  0  0  0  0  0  0
   -3.1351    0.2803    0.1861 H   0  0  0  0  0  0  0  0  0  0  0  0
   -0.3325    3.4750    0.8511 H   0  0  0  0  0  0  0  0  0  0  0  0
   -0.0000    1.4412   -4.5437 H   0  0  0  0  0  0  0  0  0  0  0  0
   -0.3391    2.9775   -5.3682 H   0  0  0  0  0  0  0  0  0  0  0  0
   -4.9676    1.9427    0.1242 H   0  0  0  0  0  0  0  0  0  0  0  0
   -2.0869    5.1242    0.5959 H   0  0  0  0  0  0  0  0  0  0  0  0
    2.0577    2.6644   -3.4535 H   0  0  0  0  0  0  0  0  0  0  0  0
    2.1225    2.6905   -5.1961 H   0  0  0  0  0  0  0  0  0  0  0  0
    1.5631    4.1120   -4.2318 H   0  0  0  0  0  0  0  0  0  0  0  0
   -4.4137    4.3768    0.1574 H   0  0  0  0  0  0  0  0  0  0  0  0
  1 17  2  0  0  0  0
  2 19  1  0  0  0  0
  2 31  1  0  0  0  0
  3 19  2  0  0  0  0
  4 22  1  0  0  0  0
  4 26  1  0  0  0  0
  5 22  2  0  0  0  0
  6  7  1  0  0  0  0
  6 11  1  0  0  0  0
  6 12  1  0  0  0  0
  7  9  1  0  0  0  0
  7 17  1  0  0  0  0
  8 32  1  0  0  0  0
  9 13  1  0  0  0  0
  9 19  1  0  0  0  0
  9 33  1  6  0  0  0
 10  8  1  0  0  0  0
 10 14  1  0  0  0  0
 10 17  1  0  0  0  0
 10 34  1  6  0  0  0
 11 15  1  0  0  0  0
 11 35  1  0  0  0  0
 11 36  1  0  0  0  0
 12 16  1  0  0  0  0
 12 37  1  0  0  0  0
 12 38  1  0  0  0  0
 13 15  1  0  0  0  0
 13 39  1  0  0  0  0
 13 40  1  0  0  0  0
 14 16  1  0  0  0  0
 14 41  1  0  0  0  0
 14 42  1  0  0  0  0
 15 43  1  0  0  0  0
 15 44  1  0  0  0  0
 16 45  1  0  0  0  0
 16 46  1  0  0  0  0
 18  8  1  0  0  0  0
 18 20  1  0  0  0  0
 18 22  1  0  0  0  0
 18 47  1  6  0  0  0
 20 21  1  0  0  0  0
 20 48  1  0  0  0  0
 20 49  1  0  0  0  0
 21 23  1  0  0  0  0
 21 50  1  0  0  0  0
 21 51  1  0  0  0  0
 23 24  2  0  0  0  0
 23 25  1  0  0  0  0
 24 27  1  0  0  0  0
 24 52  1  0  0  0  0
 25 28  2  0  0  0  0
 25 53  1  0  0  0  0
 26 29  1  0  0  0  0
 26 54  1  0  0  0  0
 26 55  1  0  0  0  0
 27 30  2  0  0  0  0
 27 56  1  0  0  0  0
 28 30  1  0  0  0  0
 28 57  1  0  0  0  0
 29 58  1  0  0  0  0
 29 59  1  0  0  0  0
 29 60  1  0  0  0  0
 30 61  1  0  0  0  0
M  END
>  <DRUGBANK_ID>
DB01340

>  <COMMON_NAME>
Cilazapril

>  <CAS_NUMBER>
88768-40-5

>  <UNII>
8Q9454114Q

>  <SYNONYMS>
Cilazapril; Cilazapril anhydrous; Cilazaprilum

$$$$
