
 OpenBabel10282417123D

 13 12  0  0  1  0  0  0  0  0999 V2000
    1.0373    0.7259   -2.4372 N   0  3  0  0  0  0  0  0  0  0  0  0
    0.5552    1.0417   -1.0319 C   0  0  2  0  0  0  0  0  0  0  0  0
    1.0734    0.0024   -0.0312 C   0  0  0  0  0  0  0  0  0  0  0  0
    2.4700   -0.9419   -0.6646 Cl  0  0  0  0  0  0  0  0  0  0  0  0
   -0.9887    1.0251   -0.9724 C   0  0  0  0  0  0  0  0  0  0  0  0
   -1.5191    2.1285   -0.6859 O   0  5  0  0  0  0  0  0  0  0  0  0
   -1.4719   -0.0480   -1.4254 O   0  0  0  0  0  0  0  0  0  0  0  0
    0.6498   -0.2058   -2.6567 H   0  0  0  0  0  0  0  0  0  0  0  0
    2.0572    0.7087   -2.4966 H   0  0  0  0  0  0  0  0  0  0  0  0
    0.6096    1.3817   -3.0993 H   0  0  0  0  0  0  0  0  0  0  0  0
    0.9474    2.0374   -0.8016 H   0  0  0  0  0  0  0  0  0  0  0  0
    1.4469    0.5118    0.8621 H   0  0  0  0  0  0  0  0  0  0  0  0
    0.3202   -0.7207    0.2951 H   0  0  0  0  0  0  0  0  0  0  0  0
  1  8  1  0  0  0  0
  1  9  1  0  0  0  0
  1 10  1  0  0  0  0
  2  5  1  0  0  0  0
  2 11  1  1  0  0  0
  2  3  1  0  0  0  0
  2  1  1  0  0  0  0
  3  4  1  0  0  0  0
  3 12  1  0  0  0  0
  3 13  1  0  0  0  0
  5  6  1  0  0  0  0
  5  7  2  0  0  0  0
M  CHG  2   1   1   6  -1
M  END
>  <DRUGBANK_ID>
DB01735

>  <SECONDARY_ACCESSION_NUMBERS>
EXPT00806

>  <COMMON_NAME>
3-Chloroalaninate

>  <UNII>
PJ3SK4HU57

$$$$
