1464
 OpenBabel10282417113D

 57 59  0  0  1  0  0  0  0  0999 V2000
    0.7335   -0.5193   -0.2881 O   0  0  0  0  0  0  0  0  0  0  0  0
    0.9139    3.9602   -1.1231 O   0  0  0  0  0  0  0  0  0  0  0  0
    1.7491    1.0429    1.2050 O   0  0  0  0  0  0  0  0  0  0  0  0
    0.7415   -0.8852    2.0713 O   0  0  0  0  0  0  0  0  0  0  0  0
   -2.0868    2.7554    0.2924 N   0  0  0  0  0  0  0  0  0  0  0  0
   -1.4088   -0.0906    1.1297 C   0  0  3  0  0  0  0  0  0  0  0  0
   -2.1438    0.1692   -0.1915 C   0  0  0  0  0  0  0  0  0  0  0  0
   -1.7602    1.0986    2.1389 C   0  0  0  0  0  0  0  0  0  0  0  0
   -1.8785    1.5950   -0.5800 C   0  0  0  0  0  0  0  0  0  0  0  0
   -1.7062    2.5661    1.6837 C   0  0  0  0  0  0  0  0  0  0  0  0
   -1.9376   -1.4350    1.6240 C   0  0  0  0  0  0  0  0  0  0  0  0
   -1.6137    4.0792   -0.2515 C   0  0  0  0  0  0  0  0  0  0  0  0
    0.1501   -0.4995    1.0171 C   0  0  0  0  0  0  0  0  0  0  0  0
   -0.0919    4.5769   -0.2731 C   0  0  0  0  0  0  0  0  0  0  0  0
   -1.5340   -2.5651    0.8733 C   0  0  0  0  0  0  0  0  0  0  0  0
   -2.5262   -1.5941    2.8743 C   0  0  0  0  0  0  0  0  0  0  0  0
    1.4548    2.2952    0.6694 C   0  0  3  0  0  0  0  0  0  0  0  0
    2.6280    3.0843    1.0936 C   0  0  0  0  0  0  0  0  0  0  0  0
    1.0216    2.5798   -0.8090 C   0  0  0  0  0  0  0  0  0  0  0  0
    3.3087    2.2714    2.1874 C   0  0  0  0  0  0  0  0  0  0  0  0
    2.9580    0.8654    1.9159 C   0  0  0  0  0  0  0  0  0  0  0  0
   -1.6736   -3.8302    1.3868 C   0  0  0  0  0  0  0  0  0  0  0  0
   -2.6631   -2.8705    3.3851 C   0  0  0  0  0  0  0  0  0  0  0  0
   -2.2601   -3.9789    2.6355 C   0  0  0  0  0  0  0  0  0  0  0  0
    2.2222   -0.5900   -0.5155 C   0  0  0  0  0  0  0  0  0  0  0  0
    2.8607   -0.4138   -1.8883 C   0  0  0  0  0  0  0  0  0  0  0  0
   -1.6802   -0.4578   -0.9732 H   0  0  0  0  0  0  0  0  0  0  0  0
   -3.2068   -0.0702   -0.1834 H   0  0  0  0  0  0  0  0  0  0  0  0
   -2.8232    1.0001    2.4004 H   0  0  0  0  0  0  0  0  0  0  0  0
   -1.1927    1.0091    3.0746 H   0  0  0  0  0  0  0  0  0  0  0  0
   -0.8479    1.3465   -0.5529 H   0  0  0  0  0  0  0  0  0  0  0  0
   -2.1485    1.8050   -1.6188 H   0  0  0  0  0  0  0  0  0  0  0  0
   -2.3659    3.1688    2.3265 H   0  0  0  0  0  0  0  0  0  0  0  0
   -0.7753    3.0528    1.9620 H   0  0  0  0  0  0  0  0  0  0  0  0
   -2.0551    4.2201   -1.2446 H   0  0  0  0  0  0  0  0  0  0  0  0
   -2.1125    4.8283    0.3858 H   0  0  0  0  0  0  0  0  0  0  0  0
   -0.0826    5.6266   -0.5766 H   0  0  0  0  0  0  0  0  0  0  0  0
    0.2883    4.5648    0.7476 H   0  0  0  0  0  0  0  0  0  0  0  0
   -0.9749   -2.4479   -0.0575 H   0  0  0  0  0  0  0  0  0  0  0  0
   -2.8066   -0.7504    3.4974 H   0  0  0  0  0  0  0  0  0  0  0  0
    0.5919    2.4562    1.2556 H   0  0  0  0  0  0  0  0  0  0  0  0
    3.2551    3.1649    0.2047 H   0  0  0  0  0  0  0  0  0  0  0  0
    2.3034    4.0612    1.4367 H   0  0  0  0  0  0  0  0  0  0  0  0
    0.0105    2.4613   -1.0415 H   0  0  0  0  0  0  0  0  0  0  0  0
    1.3434    1.8794   -1.5841 H   0  0  0  0  0  0  0  0  0  0  0  0
    4.3865    2.3839    2.1586 H   0  0  0  0  0  0  0  0  0  0  0  0
    2.8863    2.4958    3.1671 H   0  0  0  0  0  0  0  0  0  0  0  0
    3.7300    0.3546    1.3214 H   0  0  0  0  0  0  0  0  0  0  0  0
    2.7857    0.1937    2.7672 H   0  0  0  0  0  0  0  0  0  0  0  0
   -1.2756   -4.6694    0.8283 H   0  0  0  0  0  0  0  0  0  0  0  0
   -3.0434   -2.9903    4.3929 H   0  0  0  0  0  0  0  0  0  0  0  0
   -2.3883   -4.9729    3.0403 H   0  0  0  0  0  0  0  0  0  0  0  0
    2.6494    0.3693   -0.2668 H   0  0  0  0  0  0  0  0  0  0  0  0
    2.7082   -1.3407    0.1163 H   0  0  0  0  0  0  0  0  0  0  0  0
    2.5729    0.5344   -2.3607 H   0  0  0  0  0  0  0  0  0  0  0  0
    3.9546   -0.3013   -1.7451 H   0  0  0  0  0  0  0  0  0  0  0  0
    2.6597   -1.2369   -2.5539 H   0  0  0  0  0  0  0  0  0  0  0  0
  1 13  1  0  0  0  0
  1 25  1  0  0  0  0
  2 14  1  0  0  0  0
  2 19  1  0  0  0  0
  3 17  1  0  0  0  0
  3 21  1  0  0  0  0
  4 13  2  0  0  0  0
  5  9  1  0  0  0  0
  5 10  1  0  0  0  0
  5 12  1  0  0  0  0
  6  7  1  0  0  0  0
  6  8  1  0  0  0  0
  6 11  1  0  0  0  0
  6 13  1  0  0  0  0
  7  9  1  0  0  0  0
  7 27  1  0  0  0  0
  7 28  1  0  0  0  0
  8 10  1  0  0  0  0
  8 29  1  0  0  0  0
  8 30  1  0  0  0  0
  9 31  1  0  0  0  0
  9 32  1  0  0  0  0
 10 33  1  0  0  0  0
 10 34  1  0  0  0  0
 11 15  2  0  0  0  0
 11 16  1  0  0  0  0
 12 14  1  0  0  0  0
 12 35  1  0  0  0  0
 12 36  1  0  0  0  0
 14 37  1  0  0  0  0
 14 38  1  0  0  0  0
 15 22  1  0  0  0  0
 15 39  1  0  0  0  0
 16 23  2  0  0  0  0
 16 40  1  0  0  0  0
 17 18  1  0  0  0  0
 17 19  1  0  0  0  0
 17 41  1  0  0  0  0
 18 20  1  0  0  0  0
 18 42  1  0  0  0  0
 18 43  1  0  0  0  0
 19 44  1  0  0  0  0
 19 45  1  0  0  0  0
 20 21  1  0  0  0  0
 20 46  1  0  0  0  0
 20 47  1  0  0  0  0
 21 48  1  0  0  0  0
 21 49  1  0  0  0  0
 22 24  2  0  0  0  0
 22 50  1  0  0  0  0
 23 24  1  0  0  0  0
 23 51  1  0  0  0  0
 24 52  1  0  0  0  0
 25 26  1  0  0  0  0
 25 53  1  0  0  0  0
 25 54  1  0  0  0  0
 26 55  1  0  0  0  0
 26 56  1  0  0  0  0
 26 57  1  0  0  0  0
M  END
>  <DRUGBANK_ID>
DB01464

>  <COMMON_NAME>
Furethidine

>  <CAS_NUMBER>
2385-81-1

>  <UNII>
6U9XA4JOD4

>  <SYNONYMS>
Furethidine

$$$$
