
 OpenBabel10282417163D

 50 51  0  0  0  0  0  0  0  0999 V2000
    7.4631    4.9592   -1.2111 C   0  0  0  0  0  0  0  0  0  0  0  0
    6.4263    4.0380   -0.9885 C   0  0  0  0  0  0  0  0  0  0  0  0
    6.7100    2.6727   -0.9946 C   0  0  0  0  0  0  0  0  0  0  0  0
    8.0007    2.2314   -1.3383 C   0  0  0  0  0  0  0  0  0  0  0  0
    9.0315    3.1444   -1.6017 C   0  0  0  0  0  0  0  0  0  0  0  0
    8.7550    4.5093   -1.5246 C   0  0  0  0  0  0  0  0  0  0  0  0
   10.2559    2.6049   -1.9024 O   0  0  0  0  0  0  0  0  0  0  0  0
   11.3279    3.5306   -2.0893 C   0  0  0  0  0  0  0  0  0  0  0  0
    4.7283    4.6219   -0.7708 S   0  0  0  0  0  0  0  0  0  0  0  0
    3.8726    4.0551   -2.2383 N   0  0  0  0  0  0  0  0  0  0  0  0
    4.1630    3.9266    0.3769 O   0  0  0  0  0  0  0  0  0  0  0  0
    4.7841    6.0567   -0.7843 O   0  0  0  0  0  0  0  0  0  0  0  0
    4.6055    4.5635   -3.4402 C   0  0  0  0  0  0  0  0  0  0  0  0
    4.6047    6.0513   -3.6058 C   0  0  0  0  0  0  0  0  0  0  0  0
    3.5406    6.8725   -3.2247 C   0  0  0  0  0  0  0  0  0  0  0  0
    3.4278    8.2010   -3.5121 C   0  0  0  0  0  0  0  0  0  0  0  0
    4.5859    8.7696   -3.9349 C   0  0  0  0  0  0  0  0  0  0  0  0
    5.7249    8.0751   -4.2074 N   0  0  0  0  0  0  0  0  0  0  0  0
    5.6957    6.7277   -4.0774 C   0  0  0  0  0  0  0  0  0  0  0  0
    2.3227    4.3224   -2.2636 C   0  0  2  0  0  0  0  0  0  0  0  0
    1.4576    3.1055   -1.8620 C   0  0  0  0  0  0  0  0  0  0  0  0
    0.0367    3.2596   -2.4511 C   0  0  0  0  0  0  0  0  0  0  0  0
    2.0612    1.7505   -2.2077 C   0  0  0  0  0  0  0  0  0  0  0  0
    1.6896    4.9446   -3.5865 C   0  0  0  0  0  0  0  0  0  0  0  0
    0.9355    5.9277   -3.5400 O   0  0  0  0  0  0  0  0  0  0  0  0
    1.9227    4.3988   -4.8097 N   0  0  0  0  0  0  0  0  0  0  0  0
    2.3443    3.0817   -5.0046 O   0  0  0  0  0  0  0  0  0  0  0  0
    7.2931    6.0326   -1.1488 H   0  0  0  0  0  0  0  0  0  0  0  0
    5.9417    1.9501   -0.7328 H   0  0  0  0  0  0  0  0  0  0  0  0
    8.2031    1.1631   -1.4012 H   0  0  0  0  0  0  0  0  0  0  0  0
    9.5242    5.2534   -1.7110 H   0  0  0  0  0  0  0  0  0  0  0  0
   11.1457    4.1638   -2.9646 H   0  0  0  0  0  0  0  0  0  0  0  0
   11.4891    4.1395   -1.1921 H   0  0  0  0  0  0  0  0  0  0  0  0
   12.2496    2.9695   -2.2738 H   0  0  0  0  0  0  0  0  0  0  0  0
    5.6124    4.1305   -3.4391 H   0  0  0  0  0  0  0  0  0  0  0  0
    4.2293    4.1124   -4.3533 H   0  0  0  0  0  0  0  0  0  0  0  0
    2.7846    6.5644   -2.5279 H   0  0  0  0  0  0  0  0  0  0  0  0
    2.5104    8.7228   -3.2637 H   0  0  0  0  0  0  0  0  0  0  0  0
    4.6411    9.8467   -3.9896 H   0  0  0  0  0  0  0  0  0  0  0  0
    6.6222    6.2022   -4.2848 H   0  0  0  0  0  0  0  0  0  0  0  0
    2.1420    5.0609   -1.4611 H   0  0  0  0  0  0  0  0  0  0  0  0
    1.3486    3.1258   -0.7683 H   0  0  0  0  0  0  0  0  0  0  0  0
    0.0459    3.2768   -3.5474 H   0  0  0  0  0  0  0  0  0  0  0  0
   -0.6252    2.4410   -2.1829 H   0  0  0  0  0  0  0  0  0  0  0  0
   -0.4125    4.2056   -2.1163 H   0  0  0  0  0  0  0  0  0  0  0  0
    3.0603    1.6462   -1.7742 H   0  0  0  0  0  0  0  0  0  0  0  0
    1.4286    0.9469   -1.8302 H   0  0  0  0  0  0  0  0  0  0  0  0
    2.1354    1.5568   -3.2739 H   0  0  0  0  0  0  0  0  0  0  0  0
    1.5733    4.8808   -5.6325 H   0  0  0  0  0  0  0  0  0  0  0  0
    2.8617    2.8812   -4.2066 H   0  0  0  0  0  0  0  0  0  0  0  0
  1  2  2  0  0  0  0
  1 28  1  0  0  0  0
  2  9  1  0  0  0  0
  2  3  1  0  0  0  0
  3  4  2  0  0  0  0
  3 29  1  0  0  0  0
  4  5  1  0  0  0  0
  4 30  1  0  0  0  0
  5  6  2  0  0  0  0
  5  7  1  0  0  0  0
  6  1  1  0  0  0  0
  6 31  1  0  0  0  0
  7  8  1  0  0  0  0
  8 32  1  0  0  0  0
  8 33  1  0  0  0  0
  8 34  1  0  0  0  0
  9 10  1  0  0  0  0
  9 11  2  0  0  0  0
  9 12  2  0  0  0  0
 10 13  1  0  0  0  0
 13 14  1  0  0  0  0
 13 35  1  0  0  0  0
 13 36  1  0  0  0  0
 14 15  2  0  0  0  0
 15 16  1  0  0  0  0
 15 37  1  0  0  0  0
 16 17  2  0  0  0  0
 16 38  1  0  0  0  0
 17 18  1  0  0  0  0
 17 39  1  0  0  0  0
 18 19  2  0  0  0  0
 19 14  1  0  0  0  0
 19 40  1  0  0  0  0
 20 24  1  0  0  0  0
 20 41  1  1  0  0  0
 20 21  1  0  0  0  0
 20 10  1  0  0  0  0
 21 22  1  0  0  0  0
 21 23  1  0  0  0  0
 21 42  1  0  0  0  0
 22 43  1  0  0  0  0
 22 44  1  0  0  0  0
 22 45  1  0  0  0  0
 23 46  1  0  0  0  0
 23 47  1  0  0  0  0
 23 48  1  0  0  0  0
 24 25  2  0  0  0  0
 24 26  1  0  0  0  0
 26 27  1  0  0  0  0
 26 49  1  0  0  0  0
 27 50  1  0  0  0  0
M  END
>  <DRUGBANK_ID>
DB07556

>  <COMMON_NAME>
CGS-27023

>  <CAS_NUMBER>
161314-70-1

>  <UNII>
80AXY59IT2

$$$$
