CAH
 OpenBabel10282417123D

 28 29  0  0  0  0  0  0  0  0999 V2000
   -0.0482    1.0709   -0.3993 C   0  0  2  0  0  0  0  0  0  0  0  0
    1.0490    0.6070    0.5418 C   0  0  0  0  0  0  0  0  0  0  0  0
    1.5682    1.3034    1.4285 O   0  0  0  0  0  0  0  0  0  0  0  0
    1.1549   -0.8959    0.4706 C   0  0  0  0  0  0  0  0  0  0  0  0
   -0.1899   -1.1791   -0.3767 C   0  0  1  0  0  0  0  0  0  0  0  0
   -1.2770   -0.7622    0.6897 C   0  0  2  0  0  0  0  0  0  0  0  0
   -2.5902   -1.2551    0.8336 O   0  0  0  0  0  0  0  0  0  0  0  0
   -1.2845    0.7783    0.5450 C   0  0  0  0  0  0  0  0  0  0  0  0
   -0.1590   -0.0546   -1.5019 C   0  0  0  0  0  0  0  0  0  0  0  0
    0.8556   -0.3925   -2.6542 C   0  0  0  0  0  0  0  0  0  0  0  0
   -1.3512    0.3122   -2.4226 C   0  0  0  0  0  0  0  0  0  0  0  0
    0.0318    2.5075   -0.8737 C   0  0  0  0  0  0  0  0  0  0  0  0
   -0.2048   -2.2101   -0.7409 H   0  0  0  0  0  0  0  0  0  0  0  0
   -0.8519   -1.0060    1.6665 H   0  0  0  0  0  0  0  0  0  0  0  0
    2.1127   -1.1862    0.0394 H   0  0  0  0  0  0  0  0  0  0  0  0
    1.0912   -1.3206    1.4851 H   0  0  0  0  0  0  0  0  0  0  0  0
   -2.8112   -2.0648    0.3550 H   0  0  0  0  0  0  0  0  0  0  0  0
   -2.2401    1.1636    0.1758 H   0  0  0  0  0  0  0  0  0  0  0  0
   -1.1451    1.2073    1.5471 H   0  0  0  0  0  0  0  0  0  0  0  0
    1.3556    0.5006   -3.0422 H   0  0  0  0  0  0  0  0  0  0  0  0
    1.5406   -1.2309   -2.5163 H   0  0  0  0  0  0  0  0  0  0  0  0
    0.2866   -0.7744   -3.5366 H   0  0  0  0  0  0  0  0  0  0  0  0
   -0.9631    0.8066   -3.3420 H   0  0  0  0  0  0  0  0  0  0  0  0
   -1.8656   -0.5916   -2.7409 H   0  0  0  0  0  0  0  0  0  0  0  0
   -2.0452    1.0703   -2.0664 H   0  0  0  0  0  0  0  0  0  0  0  0
    0.9237    2.6721   -1.4850 H   0  0  0  0  0  0  0  0  0  0  0  0
   -0.8380    2.7782   -1.4811 H   0  0  0  0  0  0  0  0  0  0  0  0
    0.0584    3.2190   -0.0411 H   0  0  0  0  0  0  0  0  0  0  0  0
  1  2  1  0  0  0  0
  1  8  1  0  0  0  0
  1  9  1  0  0  0  0
  1 12  1  6  0  0  0
  2  4  1  0  0  0  0
  2  3  2  0  0  0  0
  4  5  1  0  0  0  0
  4 15  1  0  0  0  0
  4 16  1  0  0  0  0
  5  6  1  0  0  0  0
  5  9  1  0  0  0  0
  5 13  1  6  0  0  0
  6  8  1  0  0  0  0
  6  7  1  0  0  0  0
  6 14  1  1  0  0  0
  7 17  1  0  0  0  0
  8 18  1  0  0  0  0
  8 19  1  0  0  0  0
  9 10  1  0  0  0  0
  9 11  1  0  0  0  0
 10 20  1  0  0  0  0
 10 21  1  0  0  0  0
 10 22  1  0  0  0  0
 11 23  1  0  0  0  0
 11 24  1  0  0  0  0
 11 25  1  0  0  0  0
 12 26  1  0  0  0  0
 12 27  1  0  0  0  0
 12 28  1  0  0  0  0
M  END
>  <DRUGBANK_ID>
DB02817

>  <SECONDARY_ACCESSION_NUMBERS>
EXPT00826

>  <COMMON_NAME>
5-Exo-Hydroxycamphor

$$$$
