B3H
 OpenBabel10282417163D

 51 50  0  0  0  0  0  0  0  0999 V2000
    0.9634   -0.7385    0.3049 O   0  0  0  0  0  0  0  0  0  0  0  0
    2.1899   -0.6405    0.2571 C   0  0  0  0  0  0  0  0  0  0  0  0
    2.8574    0.3330    1.1839 C   0  0  0  0  0  0  0  0  0  0  0  0
    3.7581    0.0928    2.3785 C   0  0  0  0  0  0  0  0  0  0  0  0
    4.9919   -0.6536    1.9634 C   0  0  0  0  0  0  0  0  0  0  0  0
    5.8768    0.1318    0.9883 C   0  0  0  0  0  0  0  0  0  0  0  0
    6.8228    1.2812    1.2925 C   0  0  0  0  0  0  0  0  0  0  0  0
    7.8229    0.7700    2.2538 C   0  0  0  0  0  0  0  0  0  0  0  0
    8.7304   -0.2233    1.5512 C   0  0  0  0  0  0  0  0  0  0  0  0
    9.5253    0.4466    0.4379 C   0  0  0  0  0  0  0  0  0  0  0  0
    2.1291    1.3752   -1.8423 O   0  0  0  0  0  0  0  0  0  0  0  0
    2.9818    1.9199   -1.2030 C   0  0  0  0  0  0  0  0  0  0  0  0
    2.6095    3.0824   -0.0649 C   0  0  0  0  0  0  0  0  0  0  0  0
    2.9980    3.2614    1.4696 C   0  0  0  0  0  0  0  0  0  0  0  0
    4.4776    3.2896    1.6350 C   0  0  0  0  0  0  0  0  0  0  0  0
    4.2475   -1.1369   -1.1357 C   0  0  0  0  0  0  0  0  0  0  0  0
    2.8711   -1.2575   -0.7272 O   0  0  0  0  0  0  0  0  0  0  0  0
    4.7421    0.1754   -1.8871 C   0  0  1  0  0  0  0  0  0  0  0  0
    4.3177    1.5300   -1.2971 O   0  0  0  0  0  0  0  0  0  0  0  0
    6.3384    0.1261   -1.9887 C   0  0  0  0  0  0  0  0  0  0  0  0
    6.8550   -1.1355   -2.4104 O   0  0  0  0  0  0  0  0  0  0  0  0
    4.3660    0.1165   -2.9092 H   0  0  0  0  0  0  0  0  0  0  0  0
    3.4654    0.9415    0.5704 H   0  0  0  0  0  0  0  0  0  0  0  0
    2.0143    0.9609    1.4791 H   0  0  0  0  0  0  0  0  0  0  0  0
    4.1253    1.0321    2.8090 H   0  0  0  0  0  0  0  0  0  0  0  0
    3.1922   -0.4039    3.1587 H   0  0  0  0  0  0  0  0  0  0  0  0
    5.5851   -1.0361    2.7849 H   0  0  0  0  0  0  0  0  0  0  0  0
    4.5830   -1.5555    1.4950 H   0  0  0  0  0  0  0  0  0  0  0  0
    6.4421   -0.6505    0.4843 H   0  0  0  0  0  0  0  0  0  0  0  0
    5.2594    0.5842    0.2564 H   0  0  0  0  0  0  0  0  0  0  0  0
    7.2512    1.6927    0.3620 H   0  0  0  0  0  0  0  0  0  0  0  0
    6.4191    2.1712    1.7395 H   0  0  0  0  0  0  0  0  0  0  0  0
    8.3643    1.6210    2.6688 H   0  0  0  0  0  0  0  0  0  0  0  0
    7.2593    0.3127    3.0718 H   0  0  0  0  0  0  0  0  0  0  0  0
    9.3813   -0.6563    2.3061 H   0  0  0  0  0  0  0  0  0  0  0  0
    8.1801   -1.0694    1.1234 H   0  0  0  0  0  0  0  0  0  0  0  0
   10.0674    1.3059    0.8386 H   0  0  0  0  0  0  0  0  0  0  0  0
   10.2193   -0.2677   -0.0029 H   0  0  0  0  0  0  0  0  0  0  0  0
    8.9090    0.8172   -0.3892 H   0  0  0  0  0  0  0  0  0  0  0  0
    2.8617    4.0326   -0.5330 H   0  0  0  0  0  0  0  0  0  0  0  0
    1.5108    3.0160   -0.0134 H   0  0  0  0  0  0  0  0  0  0  0  0
    2.5741    4.1722    1.9074 H   0  0  0  0  0  0  0  0  0  0  0  0
    2.6058    2.5184    2.1742 H   0  0  0  0  0  0  0  0  0  0  0  0
    4.9629    4.1497    1.1843 H   0  0  0  0  0  0  0  0  0  0  0  0
    4.8139    3.1658    2.6755 H   0  0  0  0  0  0  0  0  0  0  0  0
    4.7856    2.4335    1.0643 H   0  0  0  0  0  0  0  0  0  0  0  0
    4.8804   -1.4650   -0.3261 H   0  0  0  0  0  0  0  0  0  0  0  0
    4.4236   -2.0038   -1.7880 H   0  0  0  0  0  0  0  0  0  0  0  0
    6.7328    0.9379   -2.6056 H   0  0  0  0  0  0  0  0  0  0  0  0
    6.8770    0.3235   -1.0732 H   0  0  0  0  0  0  0  0  0  0  0  0
    6.8122   -1.7582   -1.6586 H   0  0  0  0  0  0  0  0  0  0  0  0
  1  2  2  0  0  0  0
  2  3  1  0  0  0  0
  2 17  1  0  0  0  0
  3  4  1  0  0  0  0
  3 23  1  0  0  0  0
  3 24  1  0  0  0  0
  4  5  1  0  0  0  0
  4 25  1  0  0  0  0
  4 26  1  0  0  0  0
  5  6  1  0  0  0  0
  5 27  1  0  0  0  0
  5 28  1  0  0  0  0
  6  7  1  0  0  0  0
  6 29  1  0  0  0  0
  6 30  1  0  0  0  0
  7  8  1  0  0  0  0
  7 31  1  0  0  0  0
  7 32  1  0  0  0  0
  8  9  1  0  0  0  0
  8 33  1  0  0  0  0
  8 34  1  0  0  0  0
  9 10  1  0  0  0  0
  9 35  1  0  0  0  0
  9 36  1  0  0  0  0
 10 37  1  0  0  0  0
 10 38  1  0  0  0  0
 10 39  1  0  0  0  0
 11 12  2  0  0  0  0
 12 13  1  0  0  0  0
 12 19  1  0  0  0  0
 13 14  1  0  0  0  0
 13 40  1  0  0  0  0
 13 41  1  0  0  0  0
 14 15  1  0  0  0  0
 14 42  1  0  0  0  0
 14 43  1  0  0  0  0
 15 44  1  0  0  0  0
 15 45  1  0  0  0  0
 15 46  1  0  0  0  0
 16 17  1  0  0  0  0
 16 18  1  0  0  0  0
 16 47  1  0  0  0  0
 16 48  1  0  0  0  0
 18 19  1  0  0  0  0
 18 20  1  0  0  0  0
 18 22  1  6  0  0  0
 20 21  1  0  0  0  0
 20 49  1  0  0  0  0
 20 50  1  0  0  0  0
 21 51  1  0  0  0  0
M  END
>  <DRUGBANK_ID>
DB07416

>  <COMMON_NAME>
(2S)-2-(BUTYRYLOXY)-3-HYDROXYPROPYL NONANOATE

$$$$
