b-D-Glucose.mol
 OpenBabel10282417123D

 24 24  0  0  0  0  0  0  0  0999 V2000
    2.7208   -0.4243   -0.3331 O   0  0  0  0  0  0  0  0  0  0  0  0
    1.4363   -0.4544    0.2717 C   0  0  1  0  0  0  0  0  0  0  0  0
    0.6925    0.8396   -0.1267 C   0  0  2  0  0  0  0  0  0  0  0  0
    1.2276    1.9728    0.5868 O   0  0  0  0  0  0  0  0  0  0  0  0
   -0.8140    0.7455    0.1338 C   0  0  1  0  0  0  0  0  0  0  0  0
   -1.5026    1.7944   -0.5679 O   0  0  0  0  0  0  0  0  0  0  0  0
   -1.4083   -0.6075   -0.2614 C   0  0  2  0  0  0  0  0  0  0  0  0
   -2.7440   -0.7106    0.2472 O   0  0  0  0  0  0  0  0  0  0  0  0
   -0.5585   -1.7693    0.2599 C   0  0  2  0  0  0  0  0  0  0  0  0
    0.7971   -1.6385   -0.1860 O   0  0  0  0  0  0  0  0  0  0  0  0
   -1.1347   -3.0957   -0.2757 C   0  0  0  0  0  0  0  0  0  0  0  0
   -1.0306   -4.1230    0.7096 O   0  0  0  0  0  0  0  0  0  0  0  0
    3.1495   -1.2600   -0.0758 H   0  0  0  0  0  0  0  0  0  0  0  0
    1.5841   -0.4971    1.3574 H   0  0  0  0  0  0  0  0  0  0  0  0
    0.8705    1.0553   -1.1869 H   0  0  0  0  0  0  0  0  0  0  0  0
    0.9949    1.8888    1.5274 H   0  0  0  0  0  0  0  0  0  0  0  0
   -1.0202    0.9396    1.1926 H   0  0  0  0  0  0  0  0  0  0  0  0
   -1.3645    1.6635   -1.5238 H   0  0  0  0  0  0  0  0  0  0  0  0
   -1.4810   -0.6626   -1.3543 H   0  0  0  0  0  0  0  0  0  0  0  0
   -2.7194   -0.6246    1.2175 H   0  0  0  0  0  0  0  0  0  0  0  0
   -0.5645   -1.7938    1.3582 H   0  0  0  0  0  0  0  0  0  0  0  0
   -2.1990   -3.0079   -0.5142 H   0  0  0  0  0  0  0  0  0  0  0  0
   -0.6132   -3.4295   -1.1794 H   0  0  0  0  0  0  0  0  0  0  0  0
   -0.1212   -4.4684    0.6733 H   0  0  0  0  0  0  0  0  0  0  0  0
  1 13  1  0  0  0  0
  2  1  1  0  0  0  0
  2  3  1  0  0  0  0
  2 10  1  0  0  0  0
  2 14  1  1  0  0  0
  3  4  1  0  0  0  0
  3  5  1  0  0  0  0
  3 15  1  6  0  0  0
  4 16  1  0  0  0  0
  5  6  1  0  0  0  0
  5  7  1  0  0  0  0
  5 17  1  1  0  0  0
  6 18  1  0  0  0  0
  7  8  1  0  0  0  0
  7  9  1  0  0  0  0
  7 19  1  6  0  0  0
  8 20  1  0  0  0  0
  9 10  1  0  0  0  0
  9 21  1  1  0  0  0
  9 11  1  0  0  0  0
 11 12  1  0  0  0  0
 11 22  1  0  0  0  0
 11 23  1  0  0  0  0
 12 24  1  0  0  0  0
M  END
>  <DRUGBANK_ID>
DB02379

>  <SECONDARY_ACCESSION_NUMBERS>
EXPT00685; EXPT00455; EXPT01603

>  <COMMON_NAME>
Beta-D-Glucose

>  <CAS_NUMBER>
492-61-5

>  <UNII>
J4R00M814D

>  <SYNONYMS>
beta-D-glucopyranose; Beta-D-glucose anhydrous; Beta-D-glucose, anhydrous; Glucoside; Î²-D-glucose

$$$$
