434
 OpenBabel10282417103D

 43 46  0  0  0  0  0  0  0  0999 V2000
    0.7032    1.2727   -0.2728 N   0  0  0  0  0  0  0  0  0  0  0  0
   -0.7585   -1.2440    0.2013 C   0  0  0  0  0  0  0  0  0  0  0  0
    0.7054   -1.2381   -0.2415 C   0  0  0  0  0  0  0  0  0  0  0  0
   -1.4860    0.0028   -0.2428 C   0  0  0  0  0  0  0  0  0  0  0  0
    1.4005    0.0589    0.1908 C   0  0  0  0  0  0  0  0  0  0  0  0
   -0.6967    1.2446    0.2063 C   0  0  0  0  0  0  0  0  0  0  0  0
   -1.3035   -2.2056    0.9852 C   0  0  0  0  0  0  0  0  0  0  0  0
   -2.6763   -2.1822    1.5224 C   0  0  0  0  0  0  0  0  0  0  0  0
   -0.4349   -3.2954    1.4394 C   0  0  0  0  0  0  0  0  0  0  0  0
    0.7591    1.3717   -1.7336 C   0  0  0  0  0  0  0  0  0  0  0  0
   -2.8778   -2.0868    2.9162 C   0  0  0  0  0  0  0  0  0  0  0  0
   -0.0746   -3.3801    2.7954 C   0  0  0  0  0  0  0  0  0  0  0  0
   -3.7503   -2.4615    0.6682 C   0  0  0  0  0  0  0  0  0  0  0  0
    0.0134   -4.2263    0.4921 C   0  0  0  0  0  0  0  0  0  0  0  0
   -1.7665   -1.8456    3.8618 C   0  0  0  0  0  0  0  0  0  0  0  0
   -0.5434   -2.4042    3.8057 C   0  0  0  0  0  0  0  0  0  0  0  0
   -4.1763   -2.2274    3.4206 C   0  0  0  0  0  0  0  0  0  0  0  0
    0.7971   -4.4038    3.1672 C   0  0  0  0  0  0  0  0  0  0  0  0
   -5.0317   -2.6188    1.1880 C   0  0  0  0  0  0  0  0  0  0  0  0
    0.8847   -5.2274    0.8781 C   0  0  0  0  0  0  0  0  0  0  0  0
   -5.2450   -2.4989    2.5608 C   0  0  0  0  0  0  0  0  0  0  0  0
    1.2711   -5.3181    2.2146 C   0  0  0  0  0  0  0  0  0  0  0  0
    0.7420   -1.3651   -1.3298 H   0  0  0  0  0  0  0  0  0  0  0  0
    1.3051   -2.0574    0.1604 H   0  0  0  0  0  0  0  0  0  0  0  0
   -1.5860   -0.0203   -1.3342 H   0  0  0  0  0  0  0  0  0  0  0  0
   -2.5041    0.0698    0.1495 H   0  0  0  0  0  0  0  0  0  0  0  0
    2.4376    0.0574   -0.1680 H   0  0  0  0  0  0  0  0  0  0  0  0
    1.4734    0.0792    1.2880 H   0  0  0  0  0  0  0  0  0  0  0  0
   -0.6925    1.2885    1.3056 H   0  0  0  0  0  0  0  0  0  0  0  0
   -1.2168    2.1511   -0.1223 H   0  0  0  0  0  0  0  0  0  0  0  0
    0.3018    0.5225   -2.2520 H   0  0  0  0  0  0  0  0  0  0  0  0
    0.2451    2.2745   -2.0742 H   0  0  0  0  0  0  0  0  0  0  0  0
    1.7980    1.4330   -2.0722 H   0  0  0  0  0  0  0  0  0  0  0  0
   -3.5757   -2.6028   -0.3955 H   0  0  0  0  0  0  0  0  0  0  0  0
   -0.2885   -4.1259   -0.5486 H   0  0  0  0  0  0  0  0  0  0  0  0
   -1.9919   -1.1512    4.6698 H   0  0  0  0  0  0  0  0  0  0  0  0
    0.1876   -2.1301    4.5644 H   0  0  0  0  0  0  0  0  0  0  0  0
   -4.3606   -2.1676    4.4909 H   0  0  0  0  0  0  0  0  0  0  0  0
    1.1070   -4.5076    4.2034 H   0  0  0  0  0  0  0  0  0  0  0  0
   -5.8575   -2.8592    0.5242 H   0  0  0  0  0  0  0  0  0  0  0  0
    1.2627   -5.9223    0.1350 H   0  0  0  0  0  0  0  0  0  0  0  0
   -6.2436   -2.6372    2.9662 H   0  0  0  0  0  0  0  0  0  0  0  0
    1.9458   -6.1115    2.5194 H   0  0  0  0  0  0  0  0  0  0  0  0
  1  5  1  0  0  0  0
  1  6  1  0  0  0  0
  1 10  1  0  0  0  0
  2  3  1  0  0  0  0
  2  4  1  0  0  0  0
  2  7  2  0  0  0  0
  3  5  1  0  0  0  0
  3 23  1  0  0  0  0
  3 24  1  0  0  0  0
  4  6  1  0  0  0  0
  4 25  1  0  0  0  0
  4 26  1  0  0  0  0
  5 27  1  0  0  0  0
  5 28  1  0  0  0  0
  6 29  1  0  0  0  0
  6 30  1  0  0  0  0
  7  8  1  0  0  0  0
  7  9  1  0  0  0  0
  8 11  1  0  0  0  0
  8 13  2  0  0  0  0
  9 12  1  0  0  0  0
  9 14  2  0  0  0  0
 10 31  1  0  0  0  0
 10 32  1  0  0  0  0
 10 33  1  0  0  0  0
 11 15  1  0  0  0  0
 11 17  2  0  0  0  0
 12 16  1  0  0  0  0
 12 18  2  0  0  0  0
 13 19  1  0  0  0  0
 13 34  1  0  0  0  0
 14 20  1  0  0  0  0
 14 35  1  0  0  0  0
 15 16  2  0  0  0  0
 15 36  1  0  0  0  0
 16 37  1  0  0  0  0
 17 21  1  0  0  0  0
 17 38  1  0  0  0  0
 18 22  1  0  0  0  0
 18 39  1  0  0  0  0
 19 21  2  0  0  0  0
 19 40  1  0  0  0  0
 20 22  2  0  0  0  0
 20 41  1  0  0  0  0
 21 42  1  0  0  0  0
 22 43  1  0  0  0  0
M  END
>  <DRUGBANK_ID>
DB00434

>  <SECONDARY_ACCESSION_NUMBERS>
APRD00033

>  <COMMON_NAME>
Cyproheptadine

>  <CAS_NUMBER>
129-03-3

>  <UNII>
2YHB6175DO

>  <SYNONYMS>
1-methyl-4-(5-dibenzo(a,e)cycloheptatrienylidene)piperidine; 1-Methyl-4-(5H-dibenzo(a,d)cycloheptenylidene)piperidine; 4-(5-dibenzo(a,d)cyclohepten-5-ylidine)-1-methylpiperidine; 4-(5H-dibenzo(a,d)cyclohepten-5-ylidene)-1-methylpiperidine; 4-Dibenzo[a,d]cyclohepten-5-ylidene-1-methyl-piperidine; 5-(1-methylpiperidylidene-4)-5H-dibenzo(a,d)cyclopheptene; Ciproheptadina; Cyproheptadin; Cyproheptadine; Cyproheptadinum

$$$$
