Coproporphyrin I.mol
 OpenBabel10282417133D

 86 90  0  0  0  0  0  0  0  0999 V2000
    4.2349    0.8063   -0.0846 C   0  0  0  0  0  0  0  0  0  0  0  0
    4.2803   -0.5303   -0.2048 C   0  0  0  0  0  0  0  0  0  0  0  0
    2.8726   -0.8692    0.1246 C   0  0  0  0  0  0  0  0  0  0  0  0
    2.0527    0.1338    0.1650 N   0  0  0  0  0  0  0  0  0  0  0  0
    2.8429    1.2407    0.0234 C   0  0  0  0  0  0  0  0  0  0  0  0
   -0.8746    4.1375    0.1405 C   0  0  0  0  0  0  0  0  0  0  0  0
    0.5454    4.2222    0.0946 C   0  0  0  0  0  0  0  0  0  0  0  0
    1.0355    2.9269    0.0722 C   0  0  0  0  0  0  0  0  0  0  0  0
   -0.0471    2.0704    0.1189 N   0  0  0  0  0  0  0  0  0  0  0  0
   -1.2055    2.7978    0.2963 C   0  0  0  0  0  0  0  0  0  0  0  0
    2.3902    2.4975    0.0032 C   0  0  0  0  0  0  0  0  0  0  0  0
   -4.2129   -0.8757    0.0281 C   0  0  0  0  0  0  0  0  0  0  0  0
   -4.2387    0.4661    0.0816 C   0  0  0  0  0  0  0  0  0  0  0  0
   -2.8724    0.9682    0.2258 C   0  0  0  0  0  0  0  0  0  0  0  0
   -2.0053   -0.0816    0.1770 N   0  0  0  0  0  0  0  0  0  0  0  0
   -2.7670   -1.1310    0.2040 C   0  0  0  0  0  0  0  0  0  0  0  0
   -2.5027    2.2288    0.4556 C   0  0  0  0  0  0  0  0  0  0  0  0
    0.8659   -4.1262    0.1990 C   0  0  0  0  0  0  0  0  0  0  0  0
   -0.4888   -4.1990    0.2293 C   0  0  0  0  0  0  0  0  0  0  0  0
   -1.0087   -2.8307    0.2358 C   0  0  0  0  0  0  0  0  0  0  0  0
    0.0815   -2.0305    0.0098 N   0  0  0  0  0  0  0  0  0  0  0  0
    1.2493   -2.7099    0.2256 C   0  0  0  0  0  0  0  0  0  0  0  0
    2.4955   -2.2585    0.4146 C   0  0  0  0  0  0  0  0  0  0  0  0
   -2.2885   -2.4989    0.4270 C   0  0  0  0  0  0  0  0  0  0  0  0
   -5.3266   -1.8507   -0.1527 C   0  0  0  0  0  0  0  0  0  0  0  0
   -5.3193   -2.6583   -1.4569 C   0  0  0  0  0  0  0  0  0  0  0  0
   -4.1501   -3.5688   -1.6545 C   0  0  0  0  0  0  0  0  0  0  0  0
   -4.1071   -4.7541   -1.3247 O   0  0  0  0  0  0  0  0  0  0  0  0
   -3.0751   -2.9293   -2.1404 O   0  0  0  0  0  0  0  0  0  0  0  0
   -1.3172   -5.4352    0.1619 C   0  0  0  0  0  0  0  0  0  0  0  0
    5.4374    1.7055   -0.0871 C   0  0  0  0  0  0  0  0  0  0  0  0
    6.2977    1.5822    1.1842 C   0  0  0  0  0  0  0  0  0  0  0  0
    6.9170    0.2391    1.4697 C   0  0  0  0  0  0  0  0  0  0  0  0
    8.0133   -0.1372    1.0880 O   0  0  0  0  0  0  0  0  0  0  0  0
    6.0613   -0.6062    2.0946 O   0  0  0  0  0  0  0  0  0  0  0  0
    1.8310   -5.2626    0.0761 C   0  0  0  0  0  0  0  0  0  0  0  0
    2.6179   -5.3515   -1.2385 C   0  0  0  0  0  0  0  0  0  0  0  0
    3.5588   -4.2350   -1.5406 C   0  0  0  0  0  0  0  0  0  0  0  0
    4.7483   -4.2291   -1.2358 O   0  0  0  0  0  0  0  0  0  0  0  0
    2.9568   -3.1814   -2.1175 O   0  0  0  0  0  0  0  0  0  0  0  0
   -1.8498    5.2715    0.0674 C   0  0  0  0  0  0  0  0  0  0  0  0
   -2.6414    5.3464   -1.2403 C   0  0  0  0  0  0  0  0  0  0  0  0
   -3.5777    4.2126   -1.5249 C   0  0  0  0  0  0  0  0  0  0  0  0
   -4.7588    4.1804   -1.2006 O   0  0  0  0  0  0  0  0  0  0  0  0
   -2.9812    3.1692   -2.1292 O   0  0  0  0  0  0  0  0  0  0  0  0
    5.4194   -1.4199   -0.5609 C   0  0  0  0  0  0  0  0  0  0  0  0
    1.3840    5.4503    0.0882 C   0  0  0  0  0  0  0  0  0  0  0  0
   -5.4806    1.2951   -0.0548 C   0  0  0  0  0  0  0  0  0  0  0  0
    0.0063    1.0599    0.0556 H   0  0  0  0  0  0  0  0  0  0  0  0
    3.1133    3.3010   -0.0621 H   0  0  0  0  0  0  0  0  0  0  0  0
   -3.2941    2.9411    0.6542 H   0  0  0  0  0  0  0  0  0  0  0  0
    0.0261   -1.0206    0.1236 H   0  0  0  0  0  0  0  0  0  0  0  0
    3.2981   -2.9357    0.6648 H   0  0  0  0  0  0  0  0  0  0  0  0
   -3.0338   -3.2458    0.6505 H   0  0  0  0  0  0  0  0  0  0  0  0
   -5.3691   -2.5069    0.7237 H   0  0  0  0  0  0  0  0  0  0  0  0
   -6.2811   -1.3033   -0.1442 H   0  0  0  0  0  0  0  0  0  0  0  0
   -6.2101   -3.2979   -1.4755 H   0  0  0  0  0  0  0  0  0  0  0  0
   -5.3849   -2.0029   -2.3306 H   0  0  0  0  0  0  0  0  0  0  0  0
   -2.2760   -3.4637   -1.9302 H   0  0  0  0  0  0  0  0  0  0  0  0
   -1.1069   -6.0055   -0.7504 H   0  0  0  0  0  0  0  0  0  0  0  0
   -1.1208   -6.0631    1.0330 H   0  0  0  0  0  0  0  0  0  0  0  0
   -2.3861   -5.2320    0.1674 H   0  0  0  0  0  0  0  0  0  0  0  0
    6.0280    1.5333   -0.9961 H   0  0  0  0  0  0  0  0  0  0  0  0
    5.1289    2.7555   -0.1506 H   0  0  0  0  0  0  0  0  0  0  0  0
    7.1310    2.2885    1.1092 H   0  0  0  0  0  0  0  0  0  0  0  0
    5.7169    1.8638    2.0672 H   0  0  0  0  0  0  0  0  0  0  0  0
    6.3931   -1.5184    1.9418 H   0  0  0  0  0  0  0  0  0  0  0  0
    2.4965   -5.2490    0.9461 H   0  0  0  0  0  0  0  0  0  0  0  0
    1.2717   -6.2045    0.1512 H   0  0  0  0  0  0  0  0  0  0  0  0
    3.2449   -6.2495   -1.1960 H   0  0  0  0  0  0  0  0  0  0  0  0
    1.9566   -5.4621   -2.1016 H   0  0  0  0  0  0  0  0  0  0  0  0
    3.4869   -2.3732   -1.9641 H   0  0  0  0  0  0  0  0  0  0  0  0
   -2.5051    5.2312    0.9454 H   0  0  0  0  0  0  0  0  0  0  0  0
   -1.3040    6.2164    0.1548 H   0  0  0  0  0  0  0  0  0  0  0  0
   -3.2689    6.2434   -1.2037 H   0  0  0  0  0  0  0  0  0  0  0  0
   -1.9780    5.4507   -2.1032 H   0  0  0  0  0  0  0  0  0  0  0  0
   -3.4840    2.3596   -1.8999 H   0  0  0  0  0  0  0  0  0  0  0  0
    5.6487   -1.3544   -1.6267 H   0  0  0  0  0  0  0  0  0  0  0  0
    6.3826   -1.2280   -0.1142 H   0  0  0  0  0  0  0  0  0  0  0  0
    5.2311   -2.4307   -0.2339 H   0  0  0  0  0  0  0  0  0  0  0  0
    2.0283    5.4524    0.9743 H   0  0  0  0  0  0  0  0  0  0  0  0
    2.0160    5.4843   -0.8044 H   0  0  0  0  0  0  0  0  0  0  0  0
    0.7884    6.3628    0.1146 H   0  0  0  0  0  0  0  0  0  0  0  0
   -5.9971    1.1047   -1.0055 H   0  0  0  0  0  0  0  0  0  0  0  0
   -6.1772    1.0857    0.7619 H   0  0  0  0  0  0  0  0  0  0  0  0
   -5.2874    2.3618   -0.0093 H   0  0  0  0  0  0  0  0  0  0  0  0
  1  2  2  0  0  0  0
  1  5  1  0  0  0  0
  2  3  1  0  0  0  0
  2 46  1  0  0  0  0
  3  4  2  0  0  0  0
  3 23  1  0  0  0  0
  4  5  1  0  0  0  0
  5 11  2  0  0  0  0
  6  7  1  0  0  0  0
  6 10  2  0  0  0  0
  6 41  1  0  0  0  0
  7  8  2  0  0  0  0
  7 47  1  0  0  0  0
  8  9  1  0  0  0  0
  8 11  1  0  0  0  0
  9 10  1  0  0  0  0
  9 49  1  0  0  0  0
 10 17  1  0  0  0  0
 11 50  1  0  0  0  0
 12 13  2  0  0  0  0
 12 16  1  0  0  0  0
 12 25  1  0  0  0  0
 13 14  1  0  0  0  0
 13 48  1  0  0  0  0
 14 15  1  0  0  0  0
 14 17  2  0  0  0  0
 15 16  2  0  0  0  0
 16 24  1  0  0  0  0
 17 51  1  0  0  0  0
 18 19  2  0  0  0  0
 18 22  1  0  0  0  0
 18 36  1  0  0  0  0
 19 20  1  0  0  0  0
 19 30  1  0  0  0  0
 20 21  1  0  0  0  0
 20 24  2  0  0  0  0
 21 22  1  0  0  0  0
 21 52  1  0  0  0  0
 22 23  2  0  0  0  0
 23 53  1  0  0  0  0
 24 54  1  0  0  0  0
 25 26  1  0  0  0  0
 25 55  1  0  0  0  0
 25 56  1  0  0  0  0
 26 27  1  0  0  0  0
 26 57  1  0  0  0  0
 26 58  1  0  0  0  0
 27 28  2  0  0  0  0
 27 29  1  0  0  0  0
 29 59  1  0  0  0  0
 30 60  1  0  0  0  0
 30 61  1  0  0  0  0
 30 62  1  0  0  0  0
 31 32  1  0  0  0  0
 31  1  1  0  0  0  0
 31 63  1  0  0  0  0
 31 64  1  0  0  0  0
 32 33  1  0  0  0  0
 32 65  1  0  0  0  0
 32 66  1  0  0  0  0
 33 34  2  0  0  0  0
 33 35  1  0  0  0  0
 35 67  1  0  0  0  0
 36 37  1  0  0  0  0
 36 68  1  0  0  0  0
 36 69  1  0  0  0  0
 37 38  1  0  0  0  0
 37 70  1  0  0  0  0
 37 71  1  0  0  0  0
 38 39  2  0  0  0  0
 38 40  1  0  0  0  0
 40 72  1  0  0  0  0
 41 42  1  0  0  0  0
 41 73  1  0  0  0  0
 41 74  1  0  0  0  0
 42 43  1  0  0  0  0
 42 75  1  0  0  0  0
 42 76  1  0  0  0  0
 43 44  2  0  0  0  0
 43 45  1  0  0  0  0
 45 77  1  0  0  0  0
 46 78  1  0  0  0  0
 46 79  1  0  0  0  0
 46 80  1  0  0  0  0
 47 81  1  0  0  0  0
 47 82  1  0  0  0  0
 47 83  1  0  0  0  0
 48 84  1  0  0  0  0
 48 85  1  0  0  0  0
 48 86  1  0  0  0  0
M  END
>  <DRUGBANK_ID>
DB03727

>  <SECONDARY_ACCESSION_NUMBERS>
EXPT00070

>  <COMMON_NAME>
Coproporphyrin I

>  <UNII>
BW4SWA9YWC

$$$$
