PE7
 OpenBabel10282417123D

 52 51  0  0  0  0  0  0  0  0999 V2000
    0.6524   -0.7652    0.1353 S   0  0  0  0  0  0  0  0  0  0  0  0
    0.5775   -0.6143   -1.7274 C   0  0  0  0  0  0  0  0  0  0  0  0
    1.4362    0.3041   -2.6214 C   0  0  0  0  0  0  0  0  0  0  0  0
    2.7871    0.6827   -2.5062 O   0  0  0  0  0  0  0  0  0  0  0  0
    3.1063    0.9129   -1.1141 C   0  0  0  0  0  0  0  0  0  0  0  0
    2.1486    1.8690   -0.1292 C   0  0  0  0  0  0  0  0  0  0  0  0
    0.7244    2.1847   -0.3893 O   0  0  0  0  0  0  0  0  0  0  0  0
    0.0840    2.4604   -1.7150 C   0  0  0  0  0  0  0  0  0  0  0  0
    1.0546    3.0159   -2.8500 C   0  0  0  0  0  0  0  0  0  0  0  0
    2.3778    3.6748   -2.9486 O   0  0  0  0  0  0  0  0  0  0  0  0
    3.0060    3.9159   -1.6754 C   0  0  0  0  0  0  0  0  0  0  0  0
    2.1603    4.7238   -0.3647 C   0  0  0  0  0  0  0  0  0  0  0  0
    0.7948    5.1728   -0.5684 O   0  0  0  0  0  0  0  0  0  0  0  0
    0.2999    5.5623   -1.9057 C   0  0  0  0  0  0  0  0  0  0  0  0
    0.9586    6.1244   -3.3072 C   0  0  0  0  0  0  0  0  0  0  0  0
    2.3689    6.6291   -3.2689 O   0  0  0  0  0  0  0  0  0  0  0  0
    3.0332    6.8152   -1.9680 C   0  0  0  0  0  0  0  0  0  0  0  0
    2.5187    7.7596   -0.6718 C   0  0  0  0  0  0  0  0  0  0  0  0
    1.1194    8.0694   -0.4384 O   0  0  0  0  0  0  0  0  0  0  0  0
    0.4458    8.2199   -1.6617 C   0  0  0  0  0  0  0  0  0  0  0  0
    0.9054    9.0992   -2.8319 C   0  0  0  0  0  0  0  0  0  0  0  0
    2.2801    9.0839   -3.2018 O   0  0  0  0  0  0  0  0  0  0  0  0
    1.9298   -0.4535    0.4118 H   0  0  0  0  0  0  0  0  0  0  0  0
    0.7021   -1.5939   -2.1382 H   0  0  0  0  0  0  0  0  0  0  0  0
   -0.4733   -0.2888   -1.8574 H   0  0  0  0  0  0  0  0  0  0  0  0
    0.9634    0.6101   -3.5779 H   0  0  0  0  0  0  0  0  0  0  0  0
    1.2197    1.0858   -2.0058 H   0  0  0  0  0  0  0  0  0  0  0  0
    3.1293   -0.0960   -0.7635 H   0  0  0  0  0  0  0  0  0  0  0  0
    4.1463    1.2653   -1.0851 H   0  0  0  0  0  0  0  0  0  0  0  0
    2.3503    1.7107    0.9469 H   0  0  0  0  0  0  0  0  0  0  0  0
    2.6822    2.7841    0.0240 H   0  0  0  0  0  0  0  0  0  0  0  0
   -0.3854    1.6337   -2.2436 H   0  0  0  0  0  0  0  0  0  0  0  0
   -0.8968    2.9406   -1.5357 H   0  0  0  0  0  0  0  0  0  0  0  0
    0.5028    3.3301   -3.7452 H   0  0  0  0  0  0  0  0  0  0  0  0
    0.8698    3.6089   -2.0388 H   0  0  0  0  0  0  0  0  0  0  0  0
    3.1014    2.8930   -1.5594 H   0  0  0  0  0  0  0  0  0  0  0  0
    4.0987    4.0812   -1.6277 H   0  0  0  0  0  0  0  0  0  0  0  0
    2.4194    4.4023    0.6606 H   0  0  0  0  0  0  0  0  0  0  0  0
    2.6716    5.6345   -0.1083 H   0  0  0  0  0  0  0  0  0  0  0  0
    1.0971    4.9709   -2.3186 H   0  0  0  0  0  0  0  0  0  0  0  0
   -0.6805    5.1430   -2.0440 H   0  0  0  0  0  0  0  0  0  0  0  0
    0.8012    5.5340   -4.2269 H   0  0  0  0  0  0  0  0  0  0  0  0
    0.2403    6.8875   -3.5642 H   0  0  0  0  0  0  0  0  0  0  0  0
    2.7879    5.8614   -1.7442 H   0  0  0  0  0  0  0  0  0  0  0  0
    4.1266    6.6092   -1.9034 H   0  0  0  0  0  0  0  0  0  0  0  0
    2.9007    7.3926    0.2953 H   0  0  0  0  0  0  0  0  0  0  0  0
    2.9750    8.7303   -0.7422 H   0  0  0  0  0  0  0  0  0  0  0  0
    0.9391    7.3965   -1.9817 H   0  0  0  0  0  0  0  0  0  0  0  0
   -0.6021    7.8595   -1.7050 H   0  0  0  0  0  0  0  0  0  0  0  0
    0.4111    8.7623   -3.7558 H   0  0  0  0  0  0  0  0  0  0  0  0
    0.6401   10.1030   -2.5878 H   0  0  0  0  0  0  0  0  0  0  0  0
    2.8403    9.1824   -2.4232 H   0  0  0  0  0  0  0  0  0  0  0  0
  1  2  1  0  0  0  0
  1 23  1  0  0  0  0
  2  3  1  0  0  0  0
  2 24  1  0  0  0  0
  2 25  1  0  0  0  0
  3  4  1  0  0  0  0
  3 26  1  0  0  0  0
  3 27  1  0  0  0  0
  4  5  1  0  0  0  0
  5  6  1  0  0  0  0
  5 28  1  0  0  0  0
  5 29  1  0  0  0  0
  6  7  1  0  0  0  0
  6 30  1  0  0  0  0
  6 31  1  0  0  0  0
  7  8  1  0  0  0  0
  8  9  1  0  0  0  0
  8 32  1  0  0  0  0
  8 33  1  0  0  0  0
  9 10  1  0  0  0  0
  9 34  1  0  0  0  0
  9 35  1  0  0  0  0
 10 11  1  0  0  0  0
 11 12  1  0  0  0  0
 11 36  1  0  0  0  0
 11 37  1  0  0  0  0
 12 13  1  0  0  0  0
 12 38  1  0  0  0  0
 12 39  1  0  0  0  0
 13 14  1  0  0  0  0
 14 15  1  0  0  0  0
 14 40  1  0  0  0  0
 14 41  1  0  0  0  0
 15 16  1  0  0  0  0
 15 42  1  0  0  0  0
 15 43  1  0  0  0  0
 16 17  1  0  0  0  0
 17 18  1  0  0  0  0
 17 44  1  0  0  0  0
 17 45  1  0  0  0  0
 18 19  1  0  0  0  0
 18 46  1  0  0  0  0
 18 47  1  0  0  0  0
 19 20  1  0  0  0  0
 20 21  1  0  0  0  0
 20 48  1  0  0  0  0
 20 49  1  0  0  0  0
 21 22  1  0  0  0  0
 21 50  1  0  0  0  0
 21 51  1  0  0  0  0
 22 52  1  0  0  0  0
M  END
>  <DRUGBANK_ID>
DB02404

>  <SECONDARY_ACCESSION_NUMBERS>
EXPT02540

>  <COMMON_NAME>
1-Deoxy-1-Thio-Heptaethylene Glycol

$$$$
