
 OpenBabel10282417133D

 34 35  0  0  1  0  0  0  0  0999 V2000
   -0.2097   -1.3661    0.0696 N   0  0  0  0  0  0  0  0  0  0  0  0
   -0.2193   -2.8497    0.2264 C   0  0  2  0  0  0  0  0  0  0  0  0
    0.8242   -0.6038    0.5855 C   0  0  0  0  0  0  0  0  0  0  0  0
   -1.3888   -0.6582   -0.1405 C   0  0  0  0  0  0  0  0  0  0  0  0
    0.3609   -3.2384    1.5014 O   0  0  0  0  0  0  0  0  0  0  0  0
    0.4569   -3.6750   -0.8689 C   0  0  0  0  0  0  0  0  0  0  0  0
    0.9740    0.7046    0.2084 N   0  0  0  0  0  0  0  0  0  0  0  0
    1.6543   -1.0241    1.4148 O   0  0  0  0  0  0  0  0  0  0  0  0
   -1.4219    0.6671    0.0719 C   0  0  0  0  0  0  0  0  0  0  0  0
    1.3763   -4.2582    1.3090 C   0  0  1  0  0  0  0  0  0  0  0  0
    1.0548   -4.8637   -0.0790 C   0  0  1  0  0  0  0  0  0  0  0  0
   -0.1213    1.3672    0.0276 C   0  0  0  0  0  0  0  0  0  0  0  0
    2.9192   -3.7935    1.6011 C   0  0  0  0  0  0  0  0  0  0  0  0
    0.0800   -5.9191   -0.0240 O   0  0  0  0  0  0  0  0  0  0  0  0
   -0.0381    2.7068   -0.2136 N   0  0  0  0  0  0  0  0  0  0  0  0
    3.5601   -2.6157    1.0035 O   0  0  0  0  0  0  0  0  0  0  0  0
    3.8915   -2.2534   -0.5448 P   0  0  0  0  0  0  0  0  0  0  0  0
    2.8595   -3.4501   -0.6559 O   0  0  0  0  0  0  0  0  0  0  0  0
    3.1148   -0.8641   -0.5612 O   0  0  0  0  0  0  0  0  0  0  0  0
    3.8714   -2.5697   -2.0144 O   0  0  0  0  0  0  0  0  0  0  0  0
   -1.2626   -3.1823    0.2526 H   0  0  0  0  0  0  0  0  0  0  0  0
   -2.2889   -1.2328   -0.3151 H   0  0  0  0  0  0  0  0  0  0  0  0
    1.1278   -2.9799   -1.3758 H   0  0  0  0  0  0  0  0  0  0  0  0
   -0.1746   -4.0034   -1.6988 H   0  0  0  0  0  0  0  0  0  0  0  0
   -2.3121    1.2563    0.2085 H   0  0  0  0  0  0  0  0  0  0  0  0
    1.1662   -5.0314    2.0677 H   0  0  0  0  0  0  0  0  0  0  0  0
    1.9219   -5.3956   -0.4874 H   0  0  0  0  0  0  0  0  0  0  0  0
    3.0206   -3.6652    2.6905 H   0  0  0  0  0  0  0  0  0  0  0  0
    3.5822   -4.6319    1.3531 H   0  0  0  0  0  0  0  0  0  0  0  0
   -0.7688   -5.5426    0.2490 H   0  0  0  0  0  0  0  0  0  0  0  0
   -0.8433    3.3135   -0.2315 H   0  0  0  0  0  0  0  0  0  0  0  0
    0.8766    3.1337   -0.3224 H   0  0  0  0  0  0  0  0  0  0  0  0
    3.2554   -4.1279   -1.2296 H   0  0  0  0  0  0  0  0  0  0  0  0
    2.9227   -0.5410    0.3471 H   0  0  0  0  0  0  0  0  0  0  0  0
  1  3  1  0  0  0  0
  1  4  1  0  0  0  0
  2  1  1  0  0  0  0
  2  5  1  0  0  0  0
  2  6  1  0  0  0  0
  2 21  1  1  0  0  0
  3  7  1  0  0  0  0
  3  8  2  0  0  0  0
  4  9  2  0  0  0  0
  4 22  1  0  0  0  0
  5 10  1  0  0  0  0
  6 11  1  0  0  0  0
  6 23  1  0  0  0  0
  6 24  1  0  0  0  0
  7 12  2  0  0  0  0
  9 12  1  0  0  0  0
  9 25  1  0  0  0  0
 10 11  1  0  0  0  0
 10 26  1  1  0  0  0
 10 13  1  0  0  0  0
 11 14  1  0  0  0  0
 11 27  1  6  0  0  0
 12 15  1  0  0  0  0
 13 16  1  0  0  0  0
 13 28  1  0  0  0  0
 13 29  1  0  0  0  0
 14 30  1  0  0  0  0
 15 31  1  0  0  0  0
 15 32  1  0  0  0  0
 16 17  1  0  0  0  0
 17 18  1  0  0  0  0
 17 19  1  0  0  0  0
 17 20  2  0  0  0  0
 18 33  1  0  0  0  0
 19 34  1  0  0  0  0
M  END
>  <DRUGBANK_ID>
DB03798

>  <SECONDARY_ACCESSION_NUMBERS>
EXPT01134

>  <COMMON_NAME>
2'-Deoxycytidine-5'-Monophosphate

>  <CAS_NUMBER>
1032-65-1

>  <UNII>
W7A9174XQL

$$$$
