2GG
 OpenBabel10282417163D

 44 46  0  0  0  0  0  0  0  0999 V2000
    1.0541   -0.0192   -0.0110 C   0  0  0  0  0  0  0  0  0  0  0  0
    0.5217   -0.7495   -1.1234 O   0  0  0  0  0  0  0  0  0  0  0  0
    1.0708   -0.5376   -2.3631 C   0  0  0  0  0  0  0  0  0  0  0  0
    2.3914   -0.1512   -2.6005 C   0  0  0  0  0  0  0  0  0  0  0  0
    2.7732    0.3292   -3.8654 C   0  0  0  0  0  0  0  0  0  0  0  0
    0.1735   -0.5640   -3.4430 C   0  0  0  0  0  0  0  0  0  0  0  0
    0.5806   -0.2071   -4.7457 C   0  0  0  0  0  0  0  0  0  0  0  0
    1.8534    0.3639   -4.9302 C   0  0  0  0  0  0  0  0  0  0  0  0
    2.1091    1.2815   -6.0680 C   0  0  0  0  0  0  0  0  0  0  0  0
    1.6757    2.6109   -6.5210 C   0  0  0  0  0  0  0  0  0  0  0  0
    0.6877    3.6770   -6.0527 C   0  0  0  0  0  0  0  0  0  0  0  0
    0.4860    4.7007   -6.6888 O   0  0  0  0  0  0  0  0  0  0  0  0
   -0.0556    3.5763   -4.8719 N   0  0  0  0  0  0  0  0  0  0  0  0
   -0.0174    2.5097   -3.9571 C   0  0  0  0  0  0  0  0  0  0  0  0
    0.6380    2.7220   -2.6264 C   0  0  0  0  0  0  0  0  0  0  0  0
    2.3860    2.9190   -7.6379 N   0  0  0  0  0  0  0  0  0  0  0  0
    3.0794    0.9160   -6.9625 C   0  0  0  0  0  0  0  0  0  0  0  0
    3.8511   -0.3017   -7.0425 C   0  0  0  0  0  0  0  0  0  0  0  0
    3.1232   -1.5079   -7.0649 C   0  0  0  0  0  0  0  0  0  0  0  0
    3.7711   -2.7298   -6.9889 C   0  0  0  0  0  0  0  0  0  0  0  0
    2.8359   -4.1751   -6.9948 Cl  0  0  0  0  0  0  0  0  0  0  0  0
    5.1601   -2.7579   -6.9212 C   0  0  0  0  0  0  0  0  0  0  0  0
    5.8525   -3.9331   -6.8319 O   0  0  0  0  0  0  0  0  0  0  0  0
    5.8954   -1.5721   -6.9091 C   0  0  0  0  0  0  0  0  0  0  0  0
    5.2375   -0.3439   -6.8986 C   0  0  0  0  0  0  0  0  0  0  0  0
    6.0022    0.7615   -6.6429 O   0  0  0  0  0  0  0  0  0  0  0  0
    3.2517    1.8755   -7.8920 O   0  0  0  0  0  0  0  0  0  0  0  0
    0.6796   -0.4849    0.9073 H   0  0  0  0  0  0  0  0  0  0  0  0
    0.6952    1.0173   -0.0102 H   0  0  0  0  0  0  0  0  0  0  0  0
    2.1445   -0.0386    0.0490 H   0  0  0  0  0  0  0  0  0  0  0  0
    3.1007   -0.0452   -1.7871 H   0  0  0  0  0  0  0  0  0  0  0  0
    3.7446    0.8137   -3.9585 H   0  0  0  0  0  0  0  0  0  0  0  0
   -0.8972   -0.6163   -3.2314 H   0  0  0  0  0  0  0  0  0  0  0  0
   -0.1812   -0.0757   -5.5163 H   0  0  0  0  0  0  0  0  0  0  0  0
   -0.7419    4.3009   -4.7172 H   0  0  0  0  0  0  0  0  0  0  0  0
   -0.9386    1.9217   -3.9765 H   0  0  0  0  0  0  0  0  0  0  0  0
    0.7109    1.9539   -4.4386 H   0  0  0  0  0  0  0  0  0  0  0  0
   -0.0148    3.2418   -1.9412 H   0  0  0  0  0  0  0  0  0  0  0  0
    0.8487    1.7745   -2.1494 H   0  0  0  0  0  0  0  0  0  0  0  0
    1.6194    3.1927   -2.7400 H   0  0  0  0  0  0  0  0  0  0  0  0
    2.0344   -1.4858   -7.0780 H   0  0  0  0  0  0  0  0  0  0  0  0
    5.1994   -4.6533   -6.7487 H   0  0  0  0  0  0  0  0  0  0  0  0
    6.9793   -1.6071   -6.8792 H   0  0  0  0  0  0  0  0  0  0  0  0
    5.4353    1.5373   -6.4839 H   0  0  0  0  0  0  0  0  0  0  0  0
  1  2  1  0  0  0  0
  1 28  1  0  0  0  0
  1 29  1  0  0  0  0
  1 30  1  0  0  0  0
  2  3  1  0  0  0  0
  3  4  1  0  0  0  0
  3  6  2  0  0  0  0
  4  5  2  0  0  0  0
  4 31  1  0  0  0  0
  5  8  1  0  0  0  0
  5 32  1  0  0  0  0
  6  7  1  0  0  0  0
  6 33  1  0  0  0  0
  7  8  2  0  0  0  0
  7 34  1  0  0  0  0
  8  9  1  0  0  0  0
  9 10  1  0  0  0  0
  9 17  2  0  0  0  0
 10 11  1  0  0  0  0
 10 16  2  0  0  0  0
 11 12  2  0  0  0  0
 11 13  1  0  0  0  0
 13 14  1  0  0  0  0
 13 35  1  0  0  0  0
 14 15  1  0  0  0  0
 14 36  1  0  0  0  0
 14 37  1  0  0  0  0
 15 38  1  0  0  0  0
 15 39  1  0  0  0  0
 15 40  1  0  0  0  0
 16 27  1  0  0  0  0
 17 18  1  0  0  0  0
 17 27  1  0  0  0  0
 18 19  1  0  0  0  0
 18 25  2  0  0  0  0
 19 20  2  0  0  0  0
 19 41  1  0  0  0  0
 20 21  1  0  0  0  0
 20 22  1  0  0  0  0
 22 23  1  0  0  0  0
 22 24  2  0  0  0  0
 23 42  1  0  0  0  0
 24 25  1  0  0  0  0
 24 43  1  0  0  0  0
 25 26  1  0  0  0  0
 26 44  1  0  0  0  0
M  END
>  <DRUGBANK_ID>
DB06964

>  <COMMON_NAME>
5-(5-CHLORO-2,4-DIHYDROXYPHENYL)-N-ETHYL-4-(4-METHOXYPHENYL)ISOXAZOLE-3-CARBOXAMIDE

>  <UNII>
H4E4ND635H

$$$$
