25295
 OpenBabel10282417173D

 40 41  0  0  1  0  0  0  0  0999 V2000
   -2.1363    0.0039    0.0163 Cl  0  0  0  0  0  0  0  0  0  0  0  0
    4.0536   -0.8564    1.4361 N   0  0  0  0  0  0  0  0  0  0  0  0
    6.7397   -1.0741    3.1906 N   0  0  0  0  0  0  0  0  0  0  0  0
    4.1011   -0.9674    3.8114 N   0  0  0  0  0  0  0  0  0  0  0  0
    5.1441   -1.8816    1.3230 C   0  0  0  0  0  0  0  0  0  0  0  0
    6.6175   -1.5818    1.8266 C   0  0  0  0  0  0  0  0  0  0  0  0
    3.8235   -0.0471    0.2126 C   0  0  0  0  0  0  0  0  0  0  0  0
    3.4567   -0.5845    2.6883 C   0  0  0  0  0  0  0  0  0  0  0  0
    2.3566    0.0002   -0.1327 C   0  0  0  0  0  0  0  0  0  0  0  0
    7.9907   -1.1912    3.9085 C   0  0  0  0  0  0  0  0  0  0  0  0
    6.3604    0.3341    3.2149 C   0  0  0  0  0  0  0  0  0  0  0  0
    1.6655    1.2219   -0.1777 C   0  0  0  0  0  0  0  0  0  0  0  0
    1.6486   -1.2133   -0.1625 C   0  0  0  0  0  0  0  0  0  0  0  0
    2.3242    0.1800    2.9111 C   0  0  0  0  0  0  0  0  0  0  0  0
    0.2704    1.2179   -0.1404 C   0  0  0  0  0  0  0  0  0  0  0  0
    0.2610   -1.2109   -0.1255 C   0  0  0  0  0  0  0  0  0  0  0  0
    1.9770    0.7004    4.1745 C   0  0  0  0  0  0  0  0  0  0  0  0
   -0.4213    0.0037   -0.1045 C   0  0  0  0  0  0  0  0  0  0  0  0
    3.9032   -0.2877    4.9804 C   0  0  0  0  0  0  0  0  0  0  0  0
    2.8674    0.5583    5.2213 C   0  0  0  0  0  0  0  0  0  0  0  0
    4.7761   -2.8168    1.7566 H   0  0  0  0  0  0  0  0  0  0  0  0
    5.2712   -2.1138    0.2522 H   0  0  0  0  0  0  0  0  0  0  0  0
    7.1688   -2.5314    1.7225 H   0  0  0  0  0  0  0  0  0  0  0  0
    7.1136   -0.8874    1.1364 H   0  0  0  0  0  0  0  0  0  0  0  0
    4.3195   -0.4948   -0.6641 H   0  0  0  0  0  0  0  0  0  0  0  0
    4.2614    0.9571    0.2967 H   0  0  0  0  0  0  0  0  0  0  0  0
    8.6928   -0.4134    3.5952 H   0  0  0  0  0  0  0  0  0  0  0  0
    7.7738   -1.0241    4.9752 H   0  0  0  0  0  0  0  0  0  0  0  0
    8.4721   -2.1697    3.8463 H   0  0  0  0  0  0  0  0  0  0  0  0
    7.0388    0.9980    2.6871 H   0  0  0  0  0  0  0  0  0  0  0  0
    5.4367    0.5128    2.6942 H   0  0  0  0  0  0  0  0  0  0  0  0
    6.2273    0.6601    4.2484 H   0  0  0  0  0  0  0  0  0  0  0  0
    2.2024    2.1658   -0.0968 H   0  0  0  0  0  0  0  0  0  0  0  0
    2.1915   -2.1535   -0.0704 H   0  0  0  0  0  0  0  0  0  0  0  0
    1.6138    0.4033    2.1319 H   0  0  0  0  0  0  0  0  0  0  0  0
   -0.2673    2.1592   -0.0660 H   0  0  0  0  0  0  0  0  0  0  0  0
   -0.2676   -2.1560   -0.0470 H   0  0  0  0  0  0  0  0  0  0  0  0
    1.0454    1.2271    4.3177 H   0  0  0  0  0  0  0  0  0  0  0  0
    4.7128   -0.3926    5.7076 H   0  0  0  0  0  0  0  0  0  0  0  0
    2.7383    1.0587    6.1736 H   0  0  0  0  0  0  0  0  0  0  0  0
  1 18  1  0  0  0  0
  2  5  1  0  0  0  0
  2  7  1  0  0  0  0
  2  8  1  0  0  0  0
  3  6  1  0  0  0  0
  3 10  1  0  0  0  0
  3 11  1  0  0  0  0
  4  8  1  0  0  0  0
  4 19  2  0  0  0  0
  5  6  1  0  0  0  0
  5 21  1  0  0  0  0
  5 22  1  0  0  0  0
  6 23  1  0  0  0  0
  6 24  1  0  0  0  0
  7  9  1  0  0  0  0
  7 25  1  0  0  0  0
  7 26  1  0  0  0  0
  8 14  2  0  0  0  0
  9 12  2  0  0  0  0
  9 13  1  0  0  0  0
 10 27  1  0  0  0  0
 10 28  1  0  0  0  0
 10 29  1  0  0  0  0
 11 30  1  0  0  0  0
 11 31  1  0  0  0  0
 11 32  1  0  0  0  0
 12 15  1  0  0  0  0
 12 33  1  0  0  0  0
 13 16  2  0  0  0  0
 13 34  1  0  0  0  0
 14 17  1  0  0  0  0
 14 35  1  0  0  0  0
 15 18  2  0  0  0  0
 15 36  1  0  0  0  0
 16 18  1  0  0  0  0
 16 37  1  0  0  0  0
 17 20  2  0  0  0  0
 17 38  1  0  0  0  0
 19 20  1  0  0  0  0
 19 39  1  0  0  0  0
 20 40  1  0  0  0  0
M  END
>  <DRUGBANK_ID>
DB08800

>  <SECONDARY_ACCESSION_NUMBERS>
DB07523

>  <COMMON_NAME>
Chloropyramine

>  <CAS_NUMBER>
59-32-5

>  <UNII>
2K3L8O9SOV

>  <SYNONYMS>
Chloropyramine; Chloropyraminum; Chlorpyramine; Cloropiramina; Halopyramine

$$$$
