AP9
 OpenBabel10282417163D

 54 56  0  0  0  0  0  0  0  0999 V2000
    2.9644   -3.3055   -1.8973 O   0  0  0  0  0  0  0  0  0  0  0  0
    2.5132   -2.4053   -0.8960 C   0  0  0  0  0  0  0  0  0  0  0  0
    0.9659   -2.3359   -0.8007 C   0  0  2  0  0  0  0  0  0  0  0  0
    0.5101   -1.3271    0.3278 C   0  0  0  0  0  0  0  0  0  0  0  0
    1.6680   -0.7656    1.1777 C   0  0  0  0  0  0  0  0  0  0  0  0
   -0.2376   -0.1230   -0.2702 C   0  0  0  0  0  0  0  0  0  0  0  0
    0.4559   -3.7044   -0.5513 N   0  0  0  0  0  0  0  0  0  0  0  0
   -0.3859   -4.3372   -1.4553 C   0  0  0  0  0  0  0  0  0  0  0  0
   -1.3854   -5.0897   -0.9339 N   0  0  0  0  0  0  0  0  0  0  0  0
   -2.0907   -5.7595   -1.8647 C   0  0  0  0  0  0  0  0  0  0  0  0
   -1.8490   -5.7761   -3.2286 C   0  0  0  0  0  0  0  0  0  0  0  0
   -2.7206   -6.6205   -3.8795 N   0  0  0  0  0  0  0  0  0  0  0  0
   -3.5398   -7.0623   -2.9575 C   0  0  0  0  0  0  0  0  0  0  0  0
   -3.1978   -6.5724   -1.7286 N   0  0  0  0  0  0  0  0  0  0  0  0
   -3.9300   -6.9009   -0.5188 C   0  0  0  0  0  0  0  0  0  0  0  0
   -3.0408   -7.6548    0.4578 C   0  0  0  0  0  0  0  0  0  0  0  0
   -4.5653   -5.6614    0.0964 C   0  0  0  0  0  0  0  0  0  0  0  0
   -0.8033   -4.9693   -3.6995 C   0  0  0  0  0  0  0  0  0  0  0  0
   -0.0893   -4.2549   -2.7761 N   0  0  0  0  0  0  0  0  0  0  0  0
   -0.4557   -4.8988   -5.0620 N   0  0  0  0  0  0  0  0  0  0  0  0
   -1.0618   -5.5826   -6.1352 C   0  0  0  0  0  0  0  0  0  0  0  0
   -2.4395   -5.4400   -6.4025 C   0  0  0  0  0  0  0  0  0  0  0  0
   -3.0949   -6.1783   -7.3966 C   0  0  0  0  0  0  0  0  0  0  0  0
   -4.4162   -5.8827   -7.7435 N   0  0  0  0  0  0  0  0  0  0  0  0
   -2.3342   -7.0424   -8.1797 C   0  0  0  0  0  0  0  0  0  0  0  0
   -0.9724   -7.2125   -7.9179 C   0  0  0  0  0  0  0  0  0  0  0  0
   -0.0623   -8.3152   -8.8814 Cl  0  0  0  0  0  0  0  0  0  0  0  0
   -0.3364   -6.4983   -6.8988 C   0  0  0  0  0  0  0  0  0  0  0  0
    0.5829   -1.9825   -1.7665 H   0  0  0  0  0  0  0  0  0  0  0  0
    2.4824   -4.1356   -1.7218 H   0  0  0  0  0  0  0  0  0  0  0  0
    2.9487   -2.7473    0.0490 H   0  0  0  0  0  0  0  0  0  0  0  0
    2.9247   -1.4194   -1.1342 H   0  0  0  0  0  0  0  0  0  0  0  0
   -0.1870   -1.8252    1.0145 H   0  0  0  0  0  0  0  0  0  0  0  0
    2.3771   -0.2019    0.5595 H   0  0  0  0  0  0  0  0  0  0  0  0
    1.3157   -0.0728    1.9486 H   0  0  0  0  0  0  0  0  0  0  0  0
    2.2065   -1.5686    1.6890 H   0  0  0  0  0  0  0  0  0  0  0  0
   -1.1694   -0.4331   -0.7520 H   0  0  0  0  0  0  0  0  0  0  0  0
   -0.4968    0.6052    0.5094 H   0  0  0  0  0  0  0  0  0  0  0  0
    0.3795    0.3976   -1.0108 H   0  0  0  0  0  0  0  0  0  0  0  0
    0.3031   -3.9961    0.4051 H   0  0  0  0  0  0  0  0  0  0  0  0
   -4.3742   -7.7227   -3.1423 H   0  0  0  0  0  0  0  0  0  0  0  0
   -4.7455   -7.5763   -0.8185 H   0  0  0  0  0  0  0  0  0  0  0  0
   -2.1875   -7.0453    0.7682 H   0  0  0  0  0  0  0  0  0  0  0  0
   -3.6010   -7.9407    1.3518 H   0  0  0  0  0  0  0  0  0  0  0  0
   -2.6457   -8.5663   -0.0064 H   0  0  0  0  0  0  0  0  0  0  0  0
   -5.2445   -5.1784   -0.6163 H   0  0  0  0  0  0  0  0  0  0  0  0
   -5.1406   -5.9243    0.9886 H   0  0  0  0  0  0  0  0  0  0  0  0
   -3.8078   -4.9260    0.3819 H   0  0  0  0  0  0  0  0  0  0  0  0
    0.4693   -4.5176   -5.2053 H   0  0  0  0  0  0  0  0  0  0  0  0
   -3.0214   -4.7576   -5.7869 H   0  0  0  0  0  0  0  0  0  0  0  0
   -4.9019   -6.5610   -8.3196 H   0  0  0  0  0  0  0  0  0  0  0  0
   -4.9860   -5.4641   -7.0152 H   0  0  0  0  0  0  0  0  0  0  0  0
   -2.8017   -7.5936   -8.9899 H   0  0  0  0  0  0  0  0  0  0  0  0
    0.7124   -6.6807   -6.6857 H   0  0  0  0  0  0  0  0  0  0  0  0
  1  2  1  0  0  0  0
  1 30  1  0  0  0  0
  2 31  1  0  0  0  0
  2 32  1  0  0  0  0
  3  7  1  0  0  0  0
  3 29  1  6  0  0  0
  3  4  1  0  0  0  0
  3  2  1  0  0  0  0
  4  5  1  0  0  0  0
  4  6  1  0  0  0  0
  4 33  1  0  0  0  0
  5 34  1  0  0  0  0
  5 35  1  0  0  0  0
  5 36  1  0  0  0  0
  6 37  1  0  0  0  0
  6 38  1  0  0  0  0
  6 39  1  0  0  0  0
  7  8  1  0  0  0  0
  7 40  1  0  0  0  0
  8  9  2  0  0  0  0
  8 19  1  0  0  0  0
  9 10  1  0  0  0  0
 10 11  2  0  0  0  0
 10 14  1  0  0  0  0
 11 12  1  0  0  0  0
 11 18  1  0  0  0  0
 12 13  2  0  0  0  0
 13 14  1  0  0  0  0
 13 41  1  0  0  0  0
 14 15  1  0  0  0  0
 15 16  1  0  0  0  0
 15 17  1  0  0  0  0
 15 42  1  0  0  0  0
 16 43  1  0  0  0  0
 16 44  1  0  0  0  0
 16 45  1  0  0  0  0
 17 46  1  0  0  0  0
 17 47  1  0  0  0  0
 17 48  1  0  0  0  0
 18 19  2  0  0  0  0
 18 20  1  0  0  0  0
 20 21  1  0  0  0  0
 20 49  1  0  0  0  0
 21 22  1  0  0  0  0
 21 28  2  0  0  0  0
 22 23  2  0  0  0  0
 22 50  1  0  0  0  0
 23 24  1  0  0  0  0
 23 25  1  0  0  0  0
 24 51  1  0  0  0  0
 24 52  1  0  0  0  0
 25 26  2  0  0  0  0
 25 53  1  0  0  0  0
 26 27  1  0  0  0  0
 26 28  1  0  0  0  0
 28 54  1  0  0  0  0
M  END
>  <DRUGBANK_ID>
DB07379

>  <COMMON_NAME>
(2S)-2-({6-[(3-Amino-5-chlorophenyl)amino]-9-isopropyl-9H-purin-2-yl}amino)-3-methyl-1-butanol

$$$$
