
 OpenBabel10282417203D

 30 30  0  0  1  0  0  0  0  0999 V2000
    2.2876    1.0374   -0.0780 C   0  0  0  0  0  0  0  0  0  0  0  0
    0.8446    0.6357   -0.0702 C   0  0  0  0  0  0  0  0  0  0  0  0
   -0.1167    1.5259    0.2063 C   0  0  0  0  0  0  0  0  0  0  0  0
   -1.5702    1.1935    0.2211 C   0  0  0  0  0  0  0  0  0  0  0  0
   -1.8828   -0.3150    0.2227 C   0  0  2  0  0  0  0  0  0  0  0  0
   -0.9340   -1.0340   -0.7619 C   0  0  0  0  0  0  0  0  0  0  0  0
    0.5431   -0.7945   -0.4419 C   0  0  2  0  0  0  0  0  0  0  0  0
    0.9586   -1.6411    0.6202 O   0  0  0  0  0  0  0  0  0  0  0  0
   -3.3847   -0.5867   -0.0857 C   0  0  0  0  0  0  0  0  0  0  0  0
   -4.2947    0.4278    0.6208 C   0  0  0  0  0  0  0  0  0  0  0  0
   -3.6840   -0.5921   -1.5890 C   0  0  0  0  0  0  0  0  0  0  0  0
   -3.7035   -1.8871    0.4236 O   0  0  0  0  0  0  0  0  0  0  0  0
    2.8522    0.4432    0.6449 H   0  0  0  0  0  0  0  0  0  0  0  0
    2.7123    0.8897   -1.0753 H   0  0  0  0  0  0  0  0  0  0  0  0
    2.4130    2.0939    0.1832 H   0  0  0  0  0  0  0  0  0  0  0  0
    0.1326    2.5628    0.4264 H   0  0  0  0  0  0  0  0  0  0  0  0
   -2.0056    1.6533    1.1162 H   0  0  0  0  0  0  0  0  0  0  0  0
   -2.0249    1.6731   -0.6528 H   0  0  0  0  0  0  0  0  0  0  0  0
   -1.6731   -0.7076    1.2301 H   0  0  0  0  0  0  0  0  0  0  0  0
   -1.1498   -2.1089   -0.7775 H   0  0  0  0  0  0  0  0  0  0  0  0
   -1.1065   -0.6408   -1.7719 H   0  0  0  0  0  0  0  0  0  0  0  0
    1.1258   -1.0733   -1.3272 H   0  0  0  0  0  0  0  0  0  0  0  0
    0.3676   -1.4680    1.3716 H   0  0  0  0  0  0  0  0  0  0  0  0
   -4.1318    1.4455    0.2499 H   0  0  0  0  0  0  0  0  0  0  0  0
   -5.3520    0.1949    0.4661 H   0  0  0  0  0  0  0  0  0  0  0  0
   -4.1174    0.4189    1.7023 H   0  0  0  0  0  0  0  0  0  0  0  0
   -3.1600   -1.4101   -2.0971 H   0  0  0  0  0  0  0  0  0  0  0  0
   -4.7467   -0.7666   -1.7809 H   0  0  0  0  0  0  0  0  0  0  0  0
   -3.3944    0.3538   -2.0563 H   0  0  0  0  0  0  0  0  0  0  0  0
   -4.6504   -2.0488    0.2651 H   0  0  0  0  0  0  0  0  0  0  0  0
  1  2  1  0  0  0  0
  1 13  1  0  0  0  0
  1 14  1  0  0  0  0
  1 15  1  0  0  0  0
  2  3  2  0  0  0  0
  2  7  1  0  0  0  0
  3  4  1  0  0  0  0
  3 16  1  0  0  0  0
  4  5  1  0  0  0  0
  4 17  1  0  0  0  0
  4 18  1  0  0  0  0
  5  6  1  0  0  0  0
  5 19  1  1  0  0  0
  5  9  1  0  0  0  0
  6  7  1  0  0  0  0
  6 20  1  0  0  0  0
  6 21  1  0  0  0  0
  7  8  1  0  0  0  0
  7 22  1  6  0  0  0
  8 23  1  0  0  0  0
  9 10  1  0  0  0  0
  9 11  1  0  0  0  0
  9 12  1  0  0  0  0
 10 24  1  0  0  0  0
 10 25  1  0  0  0  0
 10 26  1  0  0  0  0
 11 27  1  0  0  0  0
 11 28  1  0  0  0  0
 11 29  1  0  0  0  0
 12 30  1  0  0  0  0
M  END
>  <DRUGBANK_ID>
DB13315

>  <COMMON_NAME>
Sobrerol

>  <CAS_NUMBER>
42370-41-2

>  <UNII>
AI0NX02O35

$$$$
