
 OpenBabel10282417233D

 32 32  0  0  0  0  0  0  0  0999 V2000
    0.9752    0.0072   -0.0230 N   0  0  0  0  0  0  0  0  0  0  0  0
    0.3516    0.5786    1.0180 C   0  0  0  0  0  0  0  0  0  0  0  0
   -0.9224    0.6394    1.1105 N   0  0  0  0  0  0  0  0  0  0  0  0
    1.1075    1.0880    2.0060 N   0  0  0  0  0  0  0  0  0  0  0  0
    2.5342    1.2051    2.1432 C   0  0  0  0  0  0  0  0  0  0  0  0
    3.0031    2.6356    2.2732 C   0  0  0  0  0  0  0  0  0  0  0  0
    2.1131    3.6844    2.5058 C   0  0  0  0  0  0  0  0  0  0  0  0
    2.5771    4.9506    2.8518 C   0  0  0  0  0  0  0  0  0  0  0  0
    1.3322    6.0177    3.8326 Br  0  0  0  0  0  0  0  0  0  0  0  0
    3.8976    5.2897    2.5608 C   0  0  0  0  0  0  0  0  0  0  0  0
    4.4046    6.5367    2.3258 O   0  0  0  0  0  0  0  0  0  0  0  0
    3.4868    7.6027    2.0788 C   0  0  0  0  0  0  0  0  0  0  0  0
    2.6232    7.5498    0.7905 C   0  0  0  0  0  0  0  0  0  0  0  0
    1.8786    6.3013    0.3089 C   0  0  0  0  0  0  0  0  0  0  0  0
    0.7767    6.0410    1.0521 F   0  0  0  0  0  0  0  0  0  0  0  0
    4.8131    4.2506    2.3498 C   0  0  0  0  0  0  0  0  0  0  0  0
    4.3746    2.9241    2.2835 C   0  0  0  0  0  0  0  0  0  0  0  0
    0.4516   -0.3766   -0.7928 H   0  0  0  0  0  0  0  0  0  0  0  0
    1.9743    0.0006   -0.1094 H   0  0  0  0  0  0  0  0  0  0  0  0
   -1.3419    0.2058    0.2843 H   0  0  0  0  0  0  0  0  0  0  0  0
    0.5494    1.4676    2.7639 H   0  0  0  0  0  0  0  0  0  0  0  0
    2.8344    0.6757    3.0535 H   0  0  0  0  0  0  0  0  0  0  0  0
    3.0680    0.7434    1.3090 H   0  0  0  0  0  0  0  0  0  0  0  0
    1.0384    3.5366    2.4250 H   0  0  0  0  0  0  0  0  0  0  0  0
    2.9462    7.8506    2.9936 H   0  0  0  0  0  0  0  0  0  0  0  0
    4.1199    8.4966    1.9650 H   0  0  0  0  0  0  0  0  0  0  0  0
    1.8982    8.3707    0.8573 H   0  0  0  0  0  0  0  0  0  0  0  0
    3.3083    7.7834   -0.0290 H   0  0  0  0  0  0  0  0  0  0  0  0
    1.4965    6.4545   -0.7020 H   0  0  0  0  0  0  0  0  0  0  0  0
    2.5163    5.4161    0.2616 H   0  0  0  0  0  0  0  0  0  0  0  0
    5.8739    4.4698    2.2370 H   0  0  0  0  0  0  0  0  0  0  0  0
    5.1069    2.1231    2.2048 H   0  0  0  0  0  0  0  0  0  0  0  0
  1  2  1  0  0  0  0
  1 18  1  0  0  0  0
  1 19  1  0  0  0  0
  2  3  2  0  0  0  0
  2  4  1  0  0  0  0
  3 20  1  0  0  0  0
  4  5  1  0  0  0  0
  4 21  1  0  0  0  0
  5  6  1  0  0  0  0
  5 22  1  0  0  0  0
  5 23  1  0  0  0  0
  6  7  2  0  0  0  0
  6 17  1  0  0  0  0
  7  8  1  0  0  0  0
  7 24  1  0  0  0  0
  8  9  1  0  0  0  0
  8 10  2  0  0  0  0
 10 11  1  0  0  0  0
 10 16  1  0  0  0  0
 11 12  1  0  0  0  0
 12 13  1  0  0  0  0
 12 25  1  0  0  0  0
 12 26  1  0  0  0  0
 13 14  1  0  0  0  0
 13 27  1  0  0  0  0
 13 28  1  0  0  0  0
 14 15  1  0  0  0  0
 14 29  1  0  0  0  0
 14 30  1  0  0  0  0
 16 17  2  0  0  0  0
 16 31  1  0  0  0  0
 17 32  1  0  0  0  0
M  ISO  1  15  18
M  END
>  <DRUGBANK_ID>
DB17261

>  <COMMON_NAME>
Flubrobenguane F18

>  <CAS_NUMBER>
1037359-47-9

>  <UNII>
8LF7W971UM

>  <SYNONYMS>
Flubrobenguane (18f); Flubrobenguane F-18; N-((3-bromo-4-(3-(fluoro-18f)propoxy)phenyl)methyl)guanidine

$$$$
