
 OpenBabel10282417213D

 33 33  0  0  0  0  0  0  0  0999 V2000
    1.2681   -0.2676   -0.0178 C   0  0  0  0  0  0  0  0  0  0  0  0
    0.6481    0.9482   -0.2796 C   0  0  0  0  0  0  0  0  0  0  0  0
   -0.6898    1.1819   -0.0349 C   0  0  0  0  0  0  0  0  0  0  0  0
   -1.5174    0.0886    0.0414 C   0  0  0  0  0  0  0  0  0  0  0  0
   -0.9601   -1.1933    0.0244 C   0  0  0  0  0  0  0  0  0  0  0  0
    0.4317   -1.3751    0.0554 C   0  0  0  0  0  0  0  0  0  0  0  0
    2.7302   -0.3668    0.1274 C   0  0  0  0  0  0  0  0  0  0  0  0
    3.6217    0.6314    0.3211 C   0  0  0  0  0  0  0  0  0  0  0  0
    5.1117    0.3077    0.3807 C   0  0  0  0  0  0  0  0  0  0  0  0
    5.9175    0.8367   -0.8248 C   0  0  0  0  0  0  0  0  0  0  0  0
    5.8857    2.3624   -0.9796 C   0  0  0  0  0  0  0  0  0  0  0  0
    6.3379    3.0843    0.3093 C   0  0  0  0  0  0  0  0  0  0  0  0
    7.7999    2.8320    0.5747 C   0  0  0  0  0  0  0  0  0  0  0  0
    3.2748    2.1011    0.5393 C   0  0  0  0  0  0  0  0  0  0  0  0
    2.2337    2.6585    0.7872 O   0  0  0  0  0  0  0  0  0  0  0  0
    1.1982    1.7702   -0.7117 H   0  0  0  0  0  0  0  0  0  0  0  0
   -1.0472    2.2065    0.0086 H   0  0  0  0  0  0  0  0  0  0  0  0
   -2.5890    0.2483    0.0335 H   0  0  0  0  0  0  0  0  0  0  0  0
   -1.6180   -2.0540   -0.0011 H   0  0  0  0  0  0  0  0  0  0  0  0
    0.8409   -2.3814    0.0876 H   0  0  0  0  0  0  0  0  0  0  0  0
    3.1098   -1.3918    0.1280 H   0  0  0  0  0  0  0  0  0  0  0  0
    5.5230    0.6828    1.3253 H   0  0  0  0  0  0  0  0  0  0  0  0
    5.2819   -0.7772    0.4342 H   0  0  0  0  0  0  0  0  0  0  0  0
    6.9617    0.5150   -0.7274 H   0  0  0  0  0  0  0  0  0  0  0  0
    5.5535    0.3693   -1.7476 H   0  0  0  0  0  0  0  0  0  0  0  0
    6.5136    2.6825   -1.8164 H   0  0  0  0  0  0  0  0  0  0  0  0
    4.8802    2.6640   -1.3011 H   0  0  0  0  0  0  0  0  0  0  0  0
    6.1202    4.1551    0.2322 H   0  0  0  0  0  0  0  0  0  0  0  0
    5.8155    2.7489    1.2140 H   0  0  0  0  0  0  0  0  0  0  0  0
    8.3878    3.1937   -0.2688 H   0  0  0  0  0  0  0  0  0  0  0  0
    8.1092    3.3373    1.4913 H   0  0  0  0  0  0  0  0  0  0  0  0
    7.9906    1.7633    0.7118 H   0  0  0  0  0  0  0  0  0  0  0  0
    4.1097    2.7780    0.4823 H   0  0  0  0  0  0  0  0  0  0  0  0
  1  2  1  0  0  0  0
  2  3  2  0  0  0  0
  2 16  1  0  0  0  0
  3  4  1  0  0  0  0
  3 17  1  0  0  0  0
  4  5  2  0  0  0  0
  4 18  1  0  0  0  0
  5  6  1  0  0  0  0
  5 19  1  0  0  0  0
  6  1  2  0  0  0  0
  6 20  1  0  0  0  0
  7  8  2  0  0  0  0
  7  1  1  0  0  0  0
  7 21  1  0  0  0  0
  8  9  1  0  0  0  0
  8 14  1  0  0  0  0
  9 10  1  0  0  0  0
  9 22  1  0  0  0  0
  9 23  1  0  0  0  0
 10 11  1  0  0  0  0
 10 24  1  0  0  0  0
 10 25  1  0  0  0  0
 11 12  1  0  0  0  0
 11 26  1  0  0  0  0
 11 27  1  0  0  0  0
 12 13  1  0  0  0  0
 12 28  1  0  0  0  0
 12 29  1  0  0  0  0
 13 30  1  0  0  0  0
 13 31  1  0  0  0  0
 13 32  1  0  0  0  0
 14 15  2  0  0  0  0
 14 33  1  0  0  0  0
M  END
>  <DRUGBANK_ID>
DB14175

>  <COMMON_NAME>
alpha-Amyl cinnamaldehyde

>  <CAS_NUMBER>
122-40-7

>  <UNII>
06T2G22P2C

>  <SYNONYMS>
2-(Phenylmethylene)heptanal; 2-Pentylcinnamaldehyde; alpha-Amyl cinnamaldehyde; alpha-Amylcinnamaldehyde; alpha-Pentyl-beta-phenylacrolein; Amyl cinnamal; Flomine; Jasminal; Jasminaldehyde; Jasmine aldehyde

$$$$
