
 OpenBabel10282417233D

 45 46  0  0  0  0  0  0  0  0999 V2000
    0.9352   -0.0709   -0.0993 C   0  0  0  0  0  0  0  0  0  0  0  0
    0.2172    0.9110   -0.9587 C   0  0  0  0  0  0  0  0  0  0  0  0
   -1.1300    0.9418   -0.9893 C   0  0  0  0  0  0  0  0  0  0  0  0
    0.3368   -0.8289    0.6450 O   0  0  0  0  0  0  0  0  0  0  0  0
    2.2954   -0.1526   -0.1514 N   0  0  0  0  0  0  0  0  0  0  0  0
    3.2500    0.6507   -0.8569 C   0  0  0  0  0  0  0  0  0  0  0  0
    3.9312    1.6137    0.0670 C   0  0  0  0  0  0  0  0  0  0  0  0
    5.0699    0.8753    0.7730 C   0  0  0  0  0  0  0  0  0  0  0  0
    6.0467    0.1882   -0.2099 C   0  0  0  0  0  0  0  0  0  0  0  0
    6.7790    1.1754   -1.0950 C   0  0  0  0  0  0  0  0  0  0  0  0
    6.5435    2.5572   -0.9977 C   0  0  0  0  0  0  0  0  0  0  0  0
    7.0589    3.4801   -1.8843 C   0  0  0  0  0  0  0  0  0  0  0  0
    8.0369    3.0637   -2.7574 C   0  0  0  0  0  0  0  0  0  0  0  0
    8.4190    1.7190   -2.7772 C   0  0  0  0  0  0  0  0  0  0  0  0
    7.7336    0.7594   -2.0193 C   0  0  0  0  0  0  0  0  0  0  0  0
   -1.9134    1.8716   -1.8312 C   0  0  0  0  0  0  0  0  0  0  0  0
   -1.6378    2.0658   -3.2006 C   0  0  0  0  0  0  0  0  0  0  0  0
   -2.3677    2.9908   -3.9417 C   0  0  0  0  0  0  0  0  0  0  0  0
   -3.4175    3.6790   -3.3476 C   0  0  0  0  0  0  0  0  0  0  0  0
   -3.7517    3.4446   -2.0211 C   0  0  0  0  0  0  0  0  0  0  0  0
   -2.9742    2.5752   -1.2504 C   0  0  0  0  0  0  0  0  0  0  0  0
   -4.1314    4.6101   -4.0449 O   0  0  0  0  0  0  0  0  0  0  0  0
   -2.0842    3.2379   -5.2565 O   0  0  0  0  0  0  0  0  0  0  0  0
    0.9772    1.8856   -1.8435 C   0  0  0  0  0  0  0  0  0  0  0  0
    1.6077    2.6941   -2.5776 N   0  0  0  0  0  0  0  0  0  0  0  0
   -1.7081    0.2736   -0.3532 H   0  0  0  0  0  0  0  0  0  0  0  0
    2.6764   -0.8242    0.5045 H   0  0  0  0  0  0  0  0  0  0  0  0
    3.8623    0.0131   -1.4866 H   0  0  0  0  0  0  0  0  0  0  0  0
    2.8601    1.2604   -1.6255 H   0  0  0  0  0  0  0  0  0  0  0  0
    4.2222    2.4453   -0.5800 H   0  0  0  0  0  0  0  0  0  0  0  0
    3.2653    2.1011    0.7905 H   0  0  0  0  0  0  0  0  0  0  0  0
    5.6235    1.5634    1.4209 H   0  0  0  0  0  0  0  0  0  0  0  0
    4.6237    0.1254    1.4347 H   0  0  0  0  0  0  0  0  0  0  0  0
    6.7610   -0.4091    0.3625 H   0  0  0  0  0  0  0  0  0  0  0  0
    5.5221   -0.5497   -0.8324 H   0  0  0  0  0  0  0  0  0  0  0  0
    5.9431    2.9873   -0.2074 H   0  0  0  0  0  0  0  0  0  0  0  0
    6.7241    4.5110   -1.8223 H   0  0  0  0  0  0  0  0  0  0  0  0
    8.5251    3.7997   -3.3851 H   0  0  0  0  0  0  0  0  0  0  0  0
    9.2710    1.4245   -3.3809 H   0  0  0  0  0  0  0  0  0  0  0  0
    7.9896   -0.2924   -2.1277 H   0  0  0  0  0  0  0  0  0  0  0  0
   -0.8325    1.5215   -3.6856 H   0  0  0  0  0  0  0  0  0  0  0  0
   -4.6098    3.9461   -1.5859 H   0  0  0  0  0  0  0  0  0  0  0  0
   -3.1966    2.4707   -0.1907 H   0  0  0  0  0  0  0  0  0  0  0  0
   -3.6700    4.7039   -4.9009 H   0  0  0  0  0  0  0  0  0  0  0  0
   -1.3442    2.6645   -5.5262 H   0  0  0  0  0  0  0  0  0  0  0  0
  1  2  1  0  0  0  0
  1  4  2  0  0  0  0
  1  5  1  0  0  0  0
  2  3  2  0  0  0  0
  2 24  1  0  0  0  0
  3 16  1  0  0  0  0
  3 26  1  0  0  0  0
  5  6  1  0  0  0  0
  5 27  1  0  0  0  0
  6  7  1  0  0  0  0
  6 28  1  0  0  0  0
  6 29  1  0  0  0  0
  7  8  1  0  0  0  0
  7 30  1  0  0  0  0
  7 31  1  0  0  0  0
  8  9  1  0  0  0  0
  8 32  1  0  0  0  0
  8 33  1  0  0  0  0
  9 10  1  0  0  0  0
  9 34  1  0  0  0  0
  9 35  1  0  0  0  0
 10 11  1  0  0  0  0
 10 15  2  0  0  0  0
 11 12  2  0  0  0  0
 11 36  1  0  0  0  0
 12 13  1  0  0  0  0
 12 37  1  0  0  0  0
 13 14  2  0  0  0  0
 13 38  1  0  0  0  0
 14 15  1  0  0  0  0
 14 39  1  0  0  0  0
 15 40  1  0  0  0  0
 16 17  1  0  0  0  0
 16 21  2  0  0  0  0
 17 18  2  0  0  0  0
 17 41  1  0  0  0  0
 18 19  1  0  0  0  0
 18 23  1  0  0  0  0
 19 20  2  0  0  0  0
 19 22  1  0  0  0  0
 20 21  1  0  0  0  0
 20 42  1  0  0  0  0
 21 43  1  0  0  0  0
 22 44  1  0  0  0  0
 23 45  1  0  0  0  0
 24 25  3  0  0  0  0
M  END
>  <DRUGBANK_ID>
DB16775

>  <COMMON_NAME>
Tyrphostin B56

>  <CAS_NUMBER>
149092-35-3

>  <SYNONYMS>
AG 556; AG-556; AG556; Tyrphostin AG-556; Tyrphostin AG556

$$$$
