
 OpenBabel10282417173D

 46 48  0  0  0  0  0  0  0  0999 V2000
    2.2589   -0.8431    0.0065 C   0  0  0  0  0  0  0  0  0  0  0  0
    2.3205    0.5568   -0.0397 C   0  0  0  0  0  0  0  0  0  0  0  0
    1.1474    1.2605   -0.1810 C   0  0  0  0  0  0  0  0  0  0  0  0
    1.0320   -1.5578   -0.0102 C   0  0  0  0  0  0  0  0  0  0  0  0
   -0.1549   -0.8556   -0.1234 C   0  0  0  0  0  0  0  0  0  0  0  0
   -0.0208    0.5156   -0.2851 C   0  0  0  0  0  0  0  0  0  0  0  0
   -1.3468    1.1271   -0.3579 C   0  0  0  0  0  0  0  0  0  0  0  0
   -2.3025   -0.0260   -0.1413 C   0  0  0  0  0  0  0  0  0  0  0  0
   -1.6096   -1.2030   -0.0485 C   0  0  0  0  0  0  0  0  0  0  0  0
   -3.8115    0.2517   -0.1545 C   0  0  0  0  0  0  0  0  0  0  0  0
   -4.5013    0.7523    1.1938 C   0  0  0  0  0  0  0  0  0  0  0  0
   -4.3647    2.2020    1.4461 N   0  0  0  0  0  0  0  0  0  0  0  0
   -2.9660    2.5157    1.4499 C   0  0  0  0  0  0  0  0  0  0  0  0
   -4.8689    2.6928    2.7096 C   0  0  0  0  0  0  0  0  0  0  0  0
   -2.1449   -2.6259    0.0439 C   0  0  3  0  0  0  0  0  0  0  0  0
   -2.9659   -2.9619    1.3065 C   0  0  0  0  0  0  0  0  0  0  0  0
   -2.9155   -2.9732   -1.2437 C   0  0  0  0  0  0  0  0  0  0  0  0
   -4.2158   -2.3798    1.5481 C   0  0  0  0  0  0  0  0  0  0  0  0
   -4.8958   -2.5674    2.7489 C   0  0  0  0  0  0  0  0  0  0  0  0
   -4.4099   -3.4797    3.6328 C   0  0  0  0  0  0  0  0  0  0  0  0
   -3.2319   -4.1381    3.2946 C   0  0  0  0  0  0  0  0  0  0  0  0
   -2.4903   -3.8727    2.1757 N   0  0  0  0  0  0  0  0  0  0  0  0
    3.1964   -1.3892    0.0795 H   0  0  0  0  0  0  0  0  0  0  0  0
    3.2571    1.0993    0.0352 H   0  0  0  0  0  0  0  0  0  0  0  0
    1.1174    2.3472   -0.1556 H   0  0  0  0  0  0  0  0  0  0  0  0
    1.0357   -2.6335    0.0838 H   0  0  0  0  0  0  0  0  0  0  0  0
   -1.2077    1.7898    0.4858 H   0  0  0  0  0  0  0  0  0  0  0  0
   -1.5359    1.6854   -1.2767 H   0  0  0  0  0  0  0  0  0  0  0  0
   -4.0661    0.9392   -0.9694 H   0  0  0  0  0  0  0  0  0  0  0  0
   -4.3274   -0.6412   -0.5050 H   0  0  0  0  0  0  0  0  0  0  0  0
   -5.5733    0.5144    1.1388 H   0  0  0  0  0  0  0  0  0  0  0  0
   -4.1008    0.1900    2.0478 H   0  0  0  0  0  0  0  0  0  0  0  0
   -2.3975    1.7859    2.0569 H   0  0  0  0  0  0  0  0  0  0  0  0
   -2.8017    2.5180    0.3841 H   0  0  0  0  0  0  0  0  0  0  0  0
   -2.6281    3.5144    1.7196 H   0  0  0  0  0  0  0  0  0  0  0  0
   -4.4227    2.1791    3.5672 H   0  0  0  0  0  0  0  0  0  0  0  0
   -4.5925    3.7556    2.7822 H   0  0  0  0  0  0  0  0  0  0  0  0
   -5.9546    2.6461    2.7427 H   0  0  0  0  0  0  0  0  0  0  0  0
   -1.2785   -3.3035    0.0579 H   0  0  0  0  0  0  0  0  0  0  0  0
   -2.3056   -2.7755   -2.1332 H   0  0  0  0  0  0  0  0  0  0  0  0
   -3.2106   -4.0262   -1.2553 H   0  0  0  0  0  0  0  0  0  0  0  0
   -3.8368   -2.3970   -1.3623 H   0  0  0  0  0  0  0  0  0  0  0  0
   -4.7137   -1.7805    0.8310 H   0  0  0  0  0  0  0  0  0  0  0  0
   -5.8089   -1.9986    2.9319 H   0  0  0  0  0  0  0  0  0  0  0  0
   -4.9486   -3.7029    4.5497 H   0  0  0  0  0  0  0  0  0  0  0  0
   -2.8466   -4.9208    3.9304 H   0  0  0  0  0  0  0  0  0  0  0  0
  1  2  2  0  0  0  0
  1 23  1  0  0  0  0
  2  3  1  0  0  0  0
  2 24  1  0  0  0  0
  3  6  2  0  0  0  0
  3 25  1  0  0  0  0
  4  1  1  0  0  0  0
  4 26  1  0  0  0  0
  5  6  1  0  0  0  0
  5  4  2  0  0  0  0
  6  7  1  0  0  0  0
  7  8  1  0  0  0  0
  7 27  1  0  0  0  0
  7 28  1  0  0  0  0
  8  9  2  0  0  0  0
  8 10  1  0  0  0  0
  9 15  1  0  0  0  0
  9  5  1  0  0  0  0
 10 11  1  0  0  0  0
 10 29  1  0  0  0  0
 10 30  1  0  0  0  0
 11 12  1  0  0  0  0
 11 31  1  0  0  0  0
 11 32  1  0  0  0  0
 12 14  1  0  0  0  0
 12 13  1  0  0  0  0
 13 33  1  0  0  0  0
 13 34  1  0  0  0  0
 13 35  1  0  0  0  0
 14 36  1  0  0  0  0
 14 37  1  0  0  0  0
 14 38  1  0  0  0  0
 15 16  1  0  0  0  0
 15 17  1  0  0  0  0
 15 39  1  0  0  0  0
 16 18  2  0  0  0  0
 17 40  1  0  0  0  0
 17 41  1  0  0  0  0
 17 42  1  0  0  0  0
 18 19  1  0  0  0  0
 18 43  1  0  0  0  0
 19 20  2  0  0  0  0
 19 44  1  0  0  0  0
 20 21  1  0  0  0  0
 20 45  1  0  0  0  0
 21 22  2  0  0  0  0
 21 46  1  0  0  0  0
 22 16  1  0  0  0  0
M  END
>  <DRUGBANK_ID>
DB08801

>  <COMMON_NAME>
Dimetindene

>  <CAS_NUMBER>
5636-83-9

>  <UNII>
661FH77Z3P

>  <SYNONYMS>
Dimethindene; Dimetindene; Dimetindeno

$$$$
