
 OpenBabel10282417143D

 53 56  0  0  1  0  0  0  0  0999 V2000
    1.4715    1.4165   -0.1438 O   0  0  0  0  0  0  0  0  0  0  0  0
   -2.8251   -0.6306   -0.1630 O   0  0  0  0  0  0  0  0  0  0  0  0
    3.3879   -2.1341   -0.8454 O   0  0  0  0  0  0  0  0  0  0  0  0
    1.0412   -3.3740   -0.5138 O   0  0  0  0  0  0  0  0  0  0  0  0
    1.2268   -4.4652    1.4834 O   0  0  0  0  0  0  0  0  0  0  0  0
    3.5756    0.1287   -0.2462 C   0  0  1  0  0  0  0  0  0  0  0  0
    2.8261   -1.1642    0.0370 C   0  0  1  0  0  0  0  0  0  0  0  0
    2.8435    1.3700    0.2394 C   0  0  1  0  0  0  0  0  0  0  0  0
    1.3430   -1.0111   -0.1621 C   0  0  0  0  0  0  0  0  0  0  0  0
    0.7528    0.2515   -0.1181 C   0  0  0  0  0  0  0  0  0  0  0  0
   -0.6485    0.3828   -0.1385 C   0  0  0  0  0  0  0  0  0  0  0  0
    0.4871   -2.1208   -0.2675 C   0  0  0  0  0  0  0  0  0  0  0  0
   -0.9165   -2.0345   -0.1584 C   0  0  0  0  0  0  0  0  0  0  0  0
   -1.4665   -0.7568   -0.1247 C   0  0  0  0  0  0  0  0  0  0  0  0
    4.9912    0.0991    0.3514 C   0  0  0  0  0  0  0  0  0  0  0  0
   -3.4083    0.5407    0.4138 C   0  0  0  0  0  0  0  0  0  0  0  0
    3.5478    2.5955   -0.3849 C   0  0  0  0  0  0  0  0  0  0  0  0
   -1.6512   -3.3183    0.0140 C   0  0  0  0  0  0  0  0  0  0  0  0
   -1.3074    1.6895   -0.2148 C   0  0  0  0  0  0  0  0  0  0  0  0
   -2.6207    1.7627    0.0359 C   0  0  0  0  0  0  0  0  0  0  0  0
   -3.1585   -3.4035   -0.0800 C   0  0  0  0  0  0  0  0  0  0  0  0
   -4.8361    0.6072   -0.1431 C   0  0  0  0  0  0  0  0  0  0  0  0
   -3.4820    0.3653    1.9361 C   0  0  0  0  0  0  0  0  0  0  0  0
   -0.8828   -4.3760    0.3554 C   0  0  0  0  0  0  0  0  0  0  0  0
    0.5621   -4.1172    0.5181 C   0  0  0  0  0  0  0  0  0  0  0  0
   -3.6365   -4.0404   -1.3774 C   0  0  0  0  0  0  0  0  0  0  0  0
   -3.2866   -5.5122   -1.4185 C   0  0  0  0  0  0  0  0  0  0  0  0
    3.0081   -1.9575   -1.7233 H   0  0  0  0  0  0  0  0  0  0  0  0
    3.6572    0.2115   -1.3406 H   0  0  0  0  0  0  0  0  0  0  0  0
    3.0045   -1.4984    1.0693 H   0  0  0  0  0  0  0  0  0  0  0  0
    2.8830    1.4463    1.3343 H   0  0  0  0  0  0  0  0  0  0  0  0
    5.0958   -0.6569    1.1337 H   0  0  0  0  0  0  0  0  0  0  0  0
    5.7216   -0.1010   -0.4363 H   0  0  0  0  0  0  0  0  0  0  0  0
    5.2645    1.0552    0.8141 H   0  0  0  0  0  0  0  0  0  0  0  0
    3.8334    3.3081    0.3938 H   0  0  0  0  0  0  0  0  0  0  0  0
    4.4841    2.3195   -0.8889 H   0  0  0  0  0  0  0  0  0  0  0  0
    2.9348    3.1075   -1.1317 H   0  0  0  0  0  0  0  0  0  0  0  0
   -0.7203    2.5591   -0.4772 H   0  0  0  0  0  0  0  0  0  0  0  0
   -3.1346    2.7145   -0.0199 H   0  0  0  0  0  0  0  0  0  0  0  0
   -3.5707   -3.9105    0.8019 H   0  0  0  0  0  0  0  0  0  0  0  0
   -3.6639   -2.4476   -0.0415 H   0  0  0  0  0  0  0  0  0  0  0  0
   -5.3983   -0.3013    0.1115 H   0  0  0  0  0  0  0  0  0  0  0  0
   -5.3829    1.4668    0.2572 H   0  0  0  0  0  0  0  0  0  0  0  0
   -4.8378    0.6690   -1.2375 H   0  0  0  0  0  0  0  0  0  0  0  0
   -2.4853    0.2555    2.3787 H   0  0  0  0  0  0  0  0  0  0  0  0
   -3.9752    1.2192    2.4104 H   0  0  0  0  0  0  0  0  0  0  0  0
   -4.0326   -0.5468    2.1978 H   0  0  0  0  0  0  0  0  0  0  0  0
   -1.2393   -5.3769    0.5613 H   0  0  0  0  0  0  0  0  0  0  0  0
   -4.7243   -3.9194   -1.4473 H   0  0  0  0  0  0  0  0  0  0  0  0
   -3.2039   -3.5173   -2.2394 H   0  0  0  0  0  0  0  0  0  0  0  0
   -3.6106   -6.0007   -0.4931 H   0  0  0  0  0  0  0  0  0  0  0  0
   -3.7614   -6.0031   -2.2675 H   0  0  0  0  0  0  0  0  0  0  0  0
   -2.2081   -5.6510   -1.5272 H   0  0  0  0  0  0  0  0  0  0  0  0
  1  8  1  0  0  0  0
  1 10  1  0  0  0  0
  2 14  1  0  0  0  0
  2 16  1  0  0  0  0
  3 28  1  0  0  0  0
  4 12  1  0  0  0  0
  4 25  1  0  0  0  0
  5 25  2  0  0  0  0
  6  7  1  0  0  0  0
  6  8  1  0  0  0  0
  6 29  1  6  0  0  0
  6 15  1  0  0  0  0
  7  3  1  0  0  0  0
  7  9  1  0  0  0  0
  7 30  1  1  0  0  0
  8 31  1  1  0  0  0
  8 17  1  0  0  0  0
  9 10  2  0  0  0  0
  9 12  1  0  0  0  0
 10 11  1  0  0  0  0
 11 14  2  0  0  0  0
 11 19  1  0  0  0  0
 12 13  2  0  0  0  0
 13 14  1  0  0  0  0
 13 18  1  0  0  0  0
 15 32  1  0  0  0  0
 15 33  1  0  0  0  0
 15 34  1  0  0  0  0
 16 20  1  0  0  0  0
 16 22  1  0  0  0  0
 16 23  1  0  0  0  0
 17 35  1  0  0  0  0
 17 36  1  0  0  0  0
 17 37  1  0  0  0  0
 18 21  1  0  0  0  0
 18 24  2  0  0  0  0
 19 20  2  0  0  0  0
 19 38  1  0  0  0  0
 20 39  1  0  0  0  0
 21 26  1  0  0  0  0
 21 40  1  0  0  0  0
 21 41  1  0  0  0  0
 22 42  1  0  0  0  0
 22 43  1  0  0  0  0
 22 44  1  0  0  0  0
 23 45  1  0  0  0  0
 23 46  1  0  0  0  0
 23 47  1  0  0  0  0
 24 25  1  0  0  0  0
 24 48  1  0  0  0  0
 26 27  1  0  0  0  0
 26 49  1  0  0  0  0
 26 50  1  0  0  0  0
 27 51  1  0  0  0  0
 27 52  1  0  0  0  0
 27 53  1  0  0  0  0
M  END
>  <DRUGBANK_ID>
DB04886

>  <COMMON_NAME>
Calanolide A

>  <CAS_NUMBER>
142632-32-4

>  <UNII>
S5A9TQN46W

>  <SYNONYMS>
(+)-calanolide A

$$$$
