
 OpenBabel10282417193D

 48 50  0  0  0  0  0  0  0  0999 V2000
    1.0076    0.0466    0.1620 C   0  0  0  0  0  0  0  0  0  0  0  0
    0.4563    0.8956   -0.9806 C   0  0  0  0  0  0  0  0  0  0  0  0
    0.9585    0.5917   -2.3852 C   0  0  0  0  0  0  0  0  0  0  0  0
    1.3623    1.5444   -3.2040 N   0  0  0  0  0  0  0  0  0  0  0  0
    1.6909    0.9466   -4.4047 C   0  0  0  0  0  0  0  0  0  0  0  0
    1.5249   -0.4298   -4.3386 C   0  0  0  0  0  0  0  0  0  0  0  0
    0.9818   -0.6490   -3.0447 N   0  0  0  0  0  0  0  0  0  0  0  0
    0.5172   -1.8661   -2.3818 C   0  0  0  0  0  0  0  0  0  0  0  0
   -0.7414   -2.5853   -2.8846 C   0  0  0  0  0  0  0  0  0  0  0  0
   -0.5092   -3.2806   -4.1893 C   0  0  0  0  0  0  0  0  0  0  0  0
    0.6089   -4.3173   -4.0617 C   0  0  0  0  0  0  0  0  0  0  0  0
    0.4495   -5.5576   -3.3445 N   0  0  0  0  0  0  0  0  0  0  0  0
    1.9314   -6.4625   -3.3579 S   0  0  0  0  0  0  0  0  0  0  0  0
    2.9436   -5.5919   -2.7562 O   0  0  0  0  0  0  0  0  0  0  0  0
    1.6039   -7.7242   -2.7829 O   0  0  0  0  0  0  0  0  0  0  0  0
    2.3932   -6.6756   -5.0952 C   0  0  0  0  0  0  0  0  0  0  0  0
    1.8958   -1.1414   -5.5561 C   0  0  0  0  0  0  0  0  0  0  0  0
    1.9542   -2.5039   -5.6061 C   0  0  0  0  0  0  0  0  0  0  0  0
    1.9913   -3.3144   -6.7439 C   0  0  0  0  0  0  0  0  0  0  0  0
    2.3304   -2.7252   -7.9173 C   0  0  0  0  0  0  0  0  0  0  0  0
    2.5215   -1.3407   -7.8876 C   0  0  0  0  0  0  0  0  0  0  0  0
    2.2734   -0.5266   -6.7381 C   0  0  0  0  0  0  0  0  0  0  0  0
    2.4142    0.7961   -6.7296 N   0  0  0  0  0  0  0  0  0  0  0  0
    2.1560    1.5303   -5.6097 C   0  0  0  0  0  0  0  0  0  0  0  0
    2.3498    2.8795   -5.7265 N   0  0  0  0  0  0  0  0  0  0  0  0
    0.6598   -0.9848    0.1780 H   0  0  0  0  0  0  0  0  0  0  0  0
    0.6711    0.4386    1.1272 H   0  0  0  0  0  0  0  0  0  0  0  0
    2.0989    0.0168    0.1402 H   0  0  0  0  0  0  0  0  0  0  0  0
   -0.6409    0.8942   -0.9697 H   0  0  0  0  0  0  0  0  0  0  0  0
    0.7499    1.9315   -0.7528 H   0  0  0  0  0  0  0  0  0  0  0  0
    1.3893   -2.4967   -2.1853 H   0  0  0  0  0  0  0  0  0  0  0  0
    0.1653   -1.6053   -1.3960 H   0  0  0  0  0  0  0  0  0  0  0  0
   -1.0552   -3.3496   -2.1637 H   0  0  0  0  0  0  0  0  0  0  0  0
   -1.5617   -1.8632   -2.9656 H   0  0  0  0  0  0  0  0  0  0  0  0
   -1.3964   -3.7050   -4.6533 H   0  0  0  0  0  0  0  0  0  0  0  0
   -0.2768   -2.4488   -4.8680 H   0  0  0  0  0  0  0  0  0  0  0  0
    0.8541   -4.6292   -5.0624 H   0  0  0  0  0  0  0  0  0  0  0  0
    1.4601   -3.9096   -3.5110 H   0  0  0  0  0  0  0  0  0  0  0  0
    0.2538   -5.3610   -2.3582 H   0  0  0  0  0  0  0  0  0  0  0  0
    1.5544   -7.0733   -5.6665 H   0  0  0  0  0  0  0  0  0  0  0  0
    2.7652   -5.7438   -5.5231 H   0  0  0  0  0  0  0  0  0  0  0  0
    3.2303   -7.3785   -5.1257 H   0  0  0  0  0  0  0  0  0  0  0  0
    2.0063   -2.8560   -4.6210 H   0  0  0  0  0  0  0  0  0  0  0  0
    1.8002   -4.3822   -6.7343 H   0  0  0  0  0  0  0  0  0  0  0  0
    2.4889   -3.3521   -8.7918 H   0  0  0  0  0  0  0  0  0  0  0  0
    2.8692   -0.8767   -8.8022 H   0  0  0  0  0  0  0  0  0  0  0  0
    2.2134    3.4502   -4.9079 H   0  0  0  0  0  0  0  0  0  0  0  0
    2.7411    3.1948   -6.5970 H   0  0  0  0  0  0  0  0  0  0  0  0
  1  2  1  0  0  0  0
  1 26  1  0  0  0  0
  1 27  1  0  0  0  0
  1 28  1  0  0  0  0
  2  3  1  0  0  0  0
  2 29  1  0  0  0  0
  2 30  1  0  0  0  0
  3  4  2  0  0  0  0
  3  7  1  0  0  0  0
  4  5  1  0  0  0  0
  5  6  2  0  0  0  0
  5 24  1  0  0  0  0
  6  7  1  0  0  0  0
  6 17  1  0  0  0  0
  7  8  1  0  0  0  0
  8  9  1  0  0  0  0
  8 31  1  0  0  0  0
  8 32  1  0  0  0  0
  9 10  1  0  0  0  0
  9 33  1  0  0  0  0
  9 34  1  0  0  0  0
 10 11  1  0  0  0  0
 10 35  1  0  0  0  0
 10 36  1  0  0  0  0
 11 12  1  0  0  0  0
 11 37  1  0  0  0  0
 11 38  1  0  0  0  0
 12 13  1  0  0  0  0
 12 39  1  0  0  0  0
 13 14  2  0  0  0  0
 13 15  2  0  0  0  0
 13 16  1  0  0  0  0
 16 40  1  0  0  0  0
 16 41  1  0  0  0  0
 16 42  1  0  0  0  0
 17 18  2  0  0  0  0
 17 22  1  0  0  0  0
 18 19  1  0  0  0  0
 18 43  1  0  0  0  0
 19 20  2  0  0  0  0
 19 44  1  0  0  0  0
 20 21  1  0  0  0  0
 20 45  1  0  0  0  0
 21 22  2  0  0  0  0
 21 46  1  0  0  0  0
 22 23  1  0  0  0  0
 23 24  2  0  0  0  0
 24 25  1  0  0  0  0
 25 47  1  0  0  0  0
 25 48  1  0  0  0  0
M  END
>  <DRUGBANK_ID>
DB12476

>  <COMMON_NAME>
CPG-52852

>  <CAS_NUMBER>
532959-63-0

>  <UNII>
6PJC3KPK6S

>  <SYNONYMS>
N-[4-(4-amino-2-ethylimidazo[4,5-c]quinolin-1-yl)butyl]methanesulfonamide

$$$$
