
 OpenBabel10282417213D

 96 99  0  0  0  0  0  0  0  0999 V2000
   -2.8062    0.7490   -0.3859 C   0  0  0  0  0  0  0  0  0  0  0  0
   -3.0550   -0.5631   -0.0725 C   0  0  0  0  0  0  0  0  0  0  0  0
   -1.9476   -1.4324    0.0867 C   0  0  0  0  0  0  0  0  0  0  0  0
   -1.4238    1.0559   -0.6061 C   0  0  0  0  0  0  0  0  0  0  0  0
   -0.2641    0.3482   -0.1818 C   0  0  0  0  0  0  0  0  0  0  0  0
   -0.5791   -0.9826    0.0706 C   0  0  0  0  0  0  0  0  0  0  0  0
    1.7920   -1.5131   -0.4830 C   0  0  0  0  0  0  0  0  0  0  0  0
    2.1966   -0.1842   -0.0256 C   0  0  0  0  0  0  0  0  0  0  0  0
    1.1849    0.7695   -0.1094 N   0  0  0  0  0  0  0  0  0  0  0  0
    3.3816    0.0547    0.2145 O   0  0  0  0  0  0  0  0  0  0  0  0
   -3.8745    1.6633   -0.3587 O   0  0  0  0  0  0  0  0  0  0  0  0
   -3.7749    3.1472   -0.3225 C   0  0  0  0  0  0  0  0  0  0  0  0
   -3.1900    3.7953    0.9647 C   0  0  0  0  0  0  0  0  0  0  0  0
   -1.8813    3.1687    0.9867 C   0  0  0  0  0  0  0  0  0  0  0  0
   -1.1066    3.8768   -0.2069 C   0  0  0  0  0  0  0  0  0  0  0  0
   -0.1427    4.8480    0.1791 N   0  0  0  0  0  0  0  0  0  0  0  0
    0.5644    4.1359    1.2049 C   0  0  0  0  0  0  0  0  0  0  0  0
    0.1531    4.2143    2.6238 C   0  0  0  0  0  0  0  0  0  0  0  0
    0.4905    5.5533    2.8277 N   0  0  0  0  0  0  0  0  0  0  0  0
   -0.4488    6.4321    2.0975 C   0  0  0  0  0  0  0  0  0  0  0  0
   -0.1897    6.2353    0.5637 C   0  0  0  0  0  0  0  0  0  0  0  0
    1.2523    5.5829    3.9413 C   0  0  0  0  0  0  0  0  0  0  0  0
    2.5945    5.0774    3.9562 C   0  0  0  0  0  0  0  0  0  0  0  0
    3.3276    5.1594    5.1199 C   0  0  0  0  0  0  0  0  0  0  0  0
    2.7250    5.7020    6.2469 C   0  0  0  0  0  0  0  0  0  0  0  0
    1.3752    6.0655    6.2562 C   0  0  0  0  0  0  0  0  0  0  0  0
    0.6239    5.9617    5.1115 C   0  0  0  0  0  0  0  0  0  0  0  0
    3.3969    4.3824    2.5683 Cl  0  0  0  0  0  0  0  0  0  0  0  0
    4.9892    4.6897    5.2070 Cl  0  0  0  0  0  0  0  0  0  0  0  0
    0.5600   -1.9460    0.2806 C   0  0  0  0  0  0  0  0  0  0  0  0
    1.8450    2.0224    0.2012 C   0  0  0  0  0  0  0  0  0  0  0  0
    1.6320    3.1321   -0.6798 O   0  0  0  0  0  0  0  0  0  0  0  0
    1.0121    1.8109   -4.6164 C   0  0  0  0  0  0  0  0  0  0  0  0
    3.4239    2.0306   -8.4607 C   0  0  0  0  0  0  0  0  0  0  0  0
    2.2012    2.5687   -5.2271 C   0  0  0  0  0  0  0  0  0  0  0  0
    2.2600    1.2746   -7.8111 C   0  0  0  0  0  0  0  0  0  0  0  0
    3.3100    1.5642   -5.5699 C   0  0  0  0  0  0  0  0  0  0  0  0
    2.7531    0.5424   -6.5604 C   0  0  0  0  0  0  0  0  0  0  0  0
    2.3163    1.9878   -2.5370 C   0  0  0  0  0  0  0  0  0  0  0  0
    3.9930    0.0115   -9.8633 C   0  0  0  0  0  0  0  0  0  0  0  0
    1.4879    1.0618   -3.3823 C   0  0  0  0  0  0  0  0  0  0  0  0
    4.5270    1.0531   -8.8795 C   0  0  0  0  0  0  0  0  0  0  0  0
    1.4565    3.0770   -2.0089 C   0  0  0  0  0  0  0  0  0  0  0  0
    0.7929    3.8336   -2.6387 O   0  0  0  0  0  0  0  0  0  0  0  0
    3.4646    0.6930  -11.1148 C   0  0  0  0  0  0  0  0  0  0  0  0
   -4.0826   -0.9151   -0.0032 H   0  0  0  0  0  0  0  0  0  0  0  0
   -2.1586   -2.4930    0.2111 H   0  0  0  0  0  0  0  0  0  0  0  0
   -1.3532    1.9169   -1.2201 H   0  0  0  0  0  0  0  0  0  0  0  0
    1.6254   -1.4098   -1.5607 H   0  0  0  0  0  0  0  0  0  0  0  0
    2.6508   -2.1594   -0.3002 H   0  0  0  0  0  0  0  0  0  0  0  0
   -3.2574    3.4535   -1.2332 H   0  0  0  0  0  0  0  0  0  0  0  0
   -4.7555    3.6109   -0.4359 H   0  0  0  0  0  0  0  0  0  0  0  0
   -3.0165    4.8798    0.9136 H   0  0  0  0  0  0  0  0  0  0  0  0
   -3.7182    3.5748    1.8928 H   0  0  0  0  0  0  0  0  0  0  0  0
   -1.3545    2.9234    1.8949 H   0  0  0  0  0  0  0  0  0  0  0  0
   -2.1324    2.1238    1.0490 H   0  0  0  0  0  0  0  0  0  0  0  0
   -0.4352    3.1150   -0.5614 H   0  0  0  0  0  0  0  0  0  0  0  0
   -1.5503    4.0366   -1.1964 H   0  0  0  0  0  0  0  0  0  0  0  0
    0.3546    3.1012    1.0803 H   0  0  0  0  0  0  0  0  0  0  0  0
    1.6032    4.3862    1.0339 H   0  0  0  0  0  0  0  0  0  0  0  0
   -0.8986    4.1430    2.9076 H   0  0  0  0  0  0  0  0  0  0  0  0
    0.6434    3.3735    3.1442 H   0  0  0  0  0  0  0  0  0  0  0  0
   -1.4900    6.1264    2.2731 H   0  0  0  0  0  0  0  0  0  0  0  0
   -0.3021    7.4626    2.3916 H   0  0  0  0  0  0  0  0  0  0  0  0
    0.8489    6.5724    0.3938 H   0  0  0  0  0  0  0  0  0  0  0  0
   -0.7945    6.8608   -0.0957 H   0  0  0  0  0  0  0  0  0  0  0  0
    3.3234    5.8565    7.1324 H   0  0  0  0  0  0  0  0  0  0  0  0
    0.9081    6.4675    7.1442 H   0  0  0  0  0  0  0  0  0  0  0  0
   -0.4468    6.1599    5.0999 H   0  0  0  0  0  0  0  0  0  0  0  0
    0.2854   -2.9310   -0.0940 H   0  0  0  0  0  0  0  0  0  0  0  0
    0.7792   -1.9970    1.3536 H   0  0  0  0  0  0  0  0  0  0  0  0
    1.6722    2.1609    1.2781 H   0  0  0  0  0  0  0  0  0  0  0  0
    2.9346    2.0617    0.3016 H   0  0  0  0  0  0  0  0  0  0  0  0
    0.5495    1.1028   -5.3075 H   0  0  0  0  0  0  0  0  0  0  0  0
    0.1993    2.5025   -4.3847 H   0  0  0  0  0  0  0  0  0  0  0  0
    3.0571    2.6160   -9.3065 H   0  0  0  0  0  0  0  0  0  0  0  0
    3.8422    2.7901   -7.7913 H   0  0  0  0  0  0  0  0  0  0  0  0
    1.8669    3.1563   -6.0822 H   0  0  0  0  0  0  0  0  0  0  0  0
    2.6037    3.3470   -4.5715 H   0  0  0  0  0  0  0  0  0  0  0  0
    1.7888    0.5636   -8.4926 H   0  0  0  0  0  0  0  0  0  0  0  0
    1.4476    1.9742   -7.5891 H   0  0  0  0  0  0  0  0  0  0  0  0
    4.1864    2.0938   -5.9518 H   0  0  0  0  0  0  0  0  0  0  0  0
    3.7046    1.0428   -4.6910 H   0  0  0  0  0  0  0  0  0  0  0  0
    3.5106   -0.2118   -6.7836 H   0  0  0  0  0  0  0  0  0  0  0  0
    1.9376   -0.0470   -6.1301 H   0  0  0  0  0  0  0  0  0  0  0  0
    3.1845    2.4852   -2.9612 H   0  0  0  0  0  0  0  0  0  0  0  0
    2.7757    1.4084   -1.7616 H   0  0  0  0  0  0  0  0  0  0  0  0
    4.7868   -0.6952  -10.1182 H   0  0  0  0  0  0  0  0  0  0  0  0
    3.1989   -0.5943   -9.4102 H   0  0  0  0  0  0  0  0  0  0  0  0
    2.1295    0.2084   -3.6261 H   0  0  0  0  0  0  0  0  0  0  0  0
    0.6322    0.6372   -2.8503 H   0  0  0  0  0  0  0  0  0  0  0  0
    5.3607    1.6067   -9.3203 H   0  0  0  0  0  0  0  0  0  0  0  0
    4.9538    0.5444   -8.0061 H   0  0  0  0  0  0  0  0  0  0  0  0
    4.2655    1.2694  -11.5867 H   0  0  0  0  0  0  0  0  0  0  0  0
    3.0785   -0.0409  -11.8220 H   0  0  0  0  0  0  0  0  0  0  0  0
    2.6413    1.3806  -10.8947 H   0  0  0  0  0  0  0  0  0  0  0  0
  1 11  1  0  0  0  0
  1  2  2  0  0  0  0
  2  3  1  0  0  0  0
  2 46  1  0  0  0  0
  3  6  2  0  0  0  0
  3 47  1  0  0  0  0
  4  1  1  0  0  0  0
  4 48  1  0  0  0  0
  5  4  2  0  0  0  0
  5  6  1  0  0  0  0
  6 30  1  0  0  0  0
  7  8  1  0  0  0  0
  7 49  1  0  0  0  0
  7 50  1  0  0  0  0
  8  9  1  0  0  0  0
  8 10  2  0  0  0  0
  9  5  1  0  0  0  0
  9 31  1  0  0  0  0
 11 12  1  0  0  0  0
 12 13  1  0  0  0  0
 12 51  1  0  0  0  0
 12 52  1  0  0  0  0
 13 14  1  0  0  0  0
 13 53  1  0  0  0  0
 13 54  1  0  0  0  0
 14 15  1  0  0  0  0
 14 55  1  0  0  0  0
 14 56  1  0  0  0  0
 15 16  1  0  0  0  0
 15 57  1  0  0  0  0
 15 58  1  0  0  0  0
 16 17  1  0  0  0  0
 17 18  1  0  0  0  0
 17 59  1  0  0  0  0
 17 60  1  0  0  0  0
 18 19  1  0  0  0  0
 18 61  1  0  0  0  0
 18 62  1  0  0  0  0
 19 20  1  0  0  0  0
 19 22  1  0  0  0  0
 20 21  1  0  0  0  0
 20 63  1  0  0  0  0
 20 64  1  0  0  0  0
 21 16  1  0  0  0  0
 21 65  1  0  0  0  0
 21 66  1  0  0  0  0
 22 23  2  0  0  0  0
 23 24  1  0  0  0  0
 23 28  1  0  0  0  0
 24 25  2  0  0  0  0
 24 29  1  0  0  0  0
 25 26  1  0  0  0  0
 25 67  1  0  0  0  0
 26 27  2  0  0  0  0
 26 68  1  0  0  0  0
 27 22  1  0  0  0  0
 27 69  1  0  0  0  0
 30  7  1  0  0  0  0
 30 70  1  0  0  0  0
 30 71  1  0  0  0  0
 31 32  1  0  0  0  0
 31 72  1  0  0  0  0
 31 73  1  0  0  0  0
 33 41  1  0  0  0  0
 33 74  1  0  0  0  0
 33 75  1  0  0  0  0
 34 42  1  0  0  0  0
 34 76  1  0  0  0  0
 34 77  1  0  0  0  0
 35 33  1  0  0  0  0
 35 78  1  0  0  0  0
 35 79  1  0  0  0  0
 36 34  1  0  0  0  0
 36 80  1  0  0  0  0
 36 81  1  0  0  0  0
 37 35  1  0  0  0  0
 37 82  1  0  0  0  0
 37 83  1  0  0  0  0
 38 36  1  0  0  0  0
 38 37  1  0  0  0  0
 38 84  1  0  0  0  0
 38 85  1  0  0  0  0
 39 43  1  0  0  0  0
 39 86  1  0  0  0  0
 39 87  1  0  0  0  0
 40 45  1  0  0  0  0
 40 88  1  0  0  0  0
 40 89  1  0  0  0  0
 41 39  1  0  0  0  0
 41 90  1  0  0  0  0
 41 91  1  0  0  0  0
 42 40  1  0  0  0  0
 42 92  1  0  0  0  0
 42 93  1  0  0  0  0
 43 32  1  0  0  0  0
 43 44  2  0  0  0  0
 45 94  1  0  0  0  0
 45 95  1  0  0  0  0
 45 96  1  0  0  0  0
M  END
>  <DRUGBANK_ID>
DB14185

>  <SECONDARY_ACCESSION_NUMBERS>
DBSALT001351

>  <COMMON_NAME>
Aripiprazole lauroxil

>  <CAS_NUMBER>
1259305-29-7

>  <UNII>
B786J7A343

>  <SYNONYMS>
Aripiprazole lauroxil

$$$$
