1223
 OpenBabel10282417113D

 54 55  0  0  0  0  0  0  0  0999 V2000
    0.3450   -2.7030   -0.0290 O   0  0  0  0  0  0  0  0  0  0  0  0
    0.3450   -2.7030   -0.0290 O   0  0  0  0  0  0  0  0  0  0  0  0
    2.4640    1.3770   -0.0170 O   0  0  0  0  0  0  0  0  0  0  0  0
    2.4640    1.3770   -0.0170 O   0  0  0  0  0  0  0  0  0  0  0  0
    0.2000    1.3930   -0.0170 N   0  0  0  0  0  0  0  0  0  0  0  0
    0.2000    1.3930   -0.0170 N   0  0  0  0  0  0  0  0  0  0  0  0
    1.3960   -0.6460   -0.0070 N   0  0  0  0  0  0  0  0  0  0  0  0
    1.3960   -0.6460   -0.0070 N   0  0  0  0  0  0  0  0  0  0  0  0
   -2.2820   -1.0890    0.0000 N   0  0  0  0  0  0  0  0  0  0  0  0
   -2.2820   -1.0890    0.0000 N   0  0  0  0  0  0  0  0  0  0  0  0
   -2.2190    1.1460    0.0100 N   0  0  0  0  0  0  0  0  0  0  0  0
   -2.2190    1.1460    0.0100 N   0  0  0  0  0  0  0  0  0  0  0  0
    1.0089   -0.4009    3.0088 N   0  0  0  0  0  0  0  0  0  0  0  0
    2.0478    2.9106    2.4277 N   0  0  0  0  0  0  0  0  0  0  0  0
   -0.9620    0.6520    0.0010 C   0  0  0  0  0  0  0  0  0  0  0  0
   -0.9620    0.6520    0.0010 C   0  0  0  0  0  0  0  0  0  0  0  0
   -0.9450   -0.7190    0.0000 C   0  0  0  0  0  0  0  0  0  0  0  0
   -0.9450   -0.7190    0.0000 C   0  0  0  0  0  0  0  0  0  0  0  0
    0.2540   -1.4700   -0.0120 C   0  0  0  0  0  0  0  0  0  0  0  0
    0.2540   -1.4700   -0.0120 C   0  0  0  0  0  0  0  0  0  0  0  0
    1.4060    0.7490   -0.0050 C   0  0  0  0  0  0  0  0  0  0  0  0
    1.4060    0.7490   -0.0050 C   0  0  0  0  0  0  0  0  0  0  0  0
    0.1660    2.8590    0.0040 C   0  0  0  0  0  0  0  0  0  0  0  0
    0.1660    2.8590    0.0040 C   0  0  0  0  0  0  0  0  0  0  0  0
    2.7120   -1.2990    0.0680 C   0  0  0  0  0  0  0  0  0  0  0  0
    2.7120   -1.2990    0.0680 C   0  0  0  0  0  0  0  0  0  0  0  0
   -2.9840    0.0560    0.0210 C   0  0  0  0  0  0  0  0  0  0  0  0
   -2.9840    0.0560    0.0210 C   0  0  0  0  0  0  0  0  0  0  0  0
    0.4532    0.8977    3.3626 C   0  0  0  0  0  0  0  0  0  0  0  0
    1.4657    2.0704    3.4469 C   0  0  0  0  0  0  0  0  0  0  0  0
   -2.6560   -2.0379   -0.0133 H   0  0  0  0  0  0  0  0  0  0  0  0
   -2.6560   -2.0379   -0.0133 H   0  0  0  0  0  0  0  0  0  0  0  0
    0.4513   -0.7962    2.2754 H   0  0  0  0  0  0  0  0  0  0  0  0
    1.9570   -0.2891    2.6572 H   0  0  0  0  0  0  0  0  0  0  0  0
    1.4809    3.7010    2.1553 H   0  0  0  0  0  0  0  0  0  0  0  0
    2.4320    2.4445    1.5955 H   0  0  0  0  0  0  0  0  0  0  0  0
   -0.3676    3.2157   -0.8521 H   0  0  0  0  0  0  0  0  0  0  0  0
   -0.3252    3.1917    0.8945 H   0  0  0  0  0  0  0  0  0  0  0  0
    1.1660    3.2393   -0.0150 H   0  0  0  0  0  0  0  0  0  0  0  0
   -0.3676    3.2157   -0.8521 H   0  0  0  0  0  0  0  0  0  0  0  0
   -0.3252    3.1917    0.8945 H   0  0  0  0  0  0  0  0  0  0  0  0
    1.1660    3.2393   -0.0150 H   0  0  0  0  0  0  0  0  0  0  0  0
    2.7754   -1.8711    0.9700 H   0  0  0  0  0  0  0  0  0  0  0  0
    2.8374   -1.9465   -0.7746 H   0  0  0  0  0  0  0  0  0  0  0  0
    3.4804   -0.5544    0.0631 H   0  0  0  0  0  0  0  0  0  0  0  0
    2.7754   -1.8711    0.9700 H   0  0  0  0  0  0  0  0  0  0  0  0
    2.8374   -1.9465   -0.7746 H   0  0  0  0  0  0  0  0  0  0  0  0
    3.4804   -0.5544    0.0631 H   0  0  0  0  0  0  0  0  0  0  0  0
   -4.0532    0.0891    0.0443 H   0  0  0  0  0  0  0  0  0  0  0  0
   -4.0532    0.0891    0.0443 H   0  0  0  0  0  0  0  0  0  0  0  0
   -0.4890    1.1096    2.8440 H   0  0  0  0  0  0  0  0  0  0  0  0
    0.1525    0.7026    4.3930 H   0  0  0  0  0  0  0  0  0  0  0  0
    0.9980    2.7877    4.1204 H   0  0  0  0  0  0  0  0  0  0  0  0
    2.3549    1.6459    3.9053 H   0  0  0  0  0  0  0  0  0  0  0  0
  1 19  2  0  0  0  0
  2 20  2  0  0  0  0
  3 21  2  0  0  0  0
  4 22  2  0  0  0  0
  5 15  1  0  0  0  0
  5 21  1  0  0  0  0
  5 23  1  0  0  0  0
  6 16  1  0  0  0  0
  6 22  1  0  0  0  0
  6 24  1  0  0  0  0
  7 19  1  0  0  0  0
  7 21  1  0  0  0  0
  7 25  1  0  0  0  0
  8 20  1  0  0  0  0
  8 22  1  0  0  0  0
  8 26  1  0  0  0  0
  9 17  1  0  0  0  0
  9 27  1  0  0  0  0
  9 31  1  0  0  0  0
 10 18  1  0  0  0  0
 10 28  1  0  0  0  0
 10 32  1  0  0  0  0
 11 15  1  0  0  0  0
 11 27  2  0  0  0  0
 12 16  1  0  0  0  0
 12 28  2  0  0  0  0
 13 29  1  0  0  0  0
 13 33  1  0  0  0  0
 13 34  1  0  0  0  0
 14 30  1  0  0  0  0
 14 35  1  0  0  0  0
 14 36  1  0  0  0  0
 15 17  2  0  0  0  0
 16 18  2  0  0  0  0
 17 19  1  0  0  0  0
 18 20  1  0  0  0  0
 23 37  1  0  0  0  0
 23 38  1  0  0  0  0
 23 39  1  0  0  0  0
 24 40  1  0  0  0  0
 24 41  1  0  0  0  0
 24 42  1  0  0  0  0
 25 43  1  0  0  0  0
 25 44  1  0  0  0  0
 25 45  1  0  0  0  0
 26 46  1  0  0  0  0
 26 47  1  0  0  0  0
 26 48  1  0  0  0  0
 27 49  1  0  0  0  0
 28 50  1  0  0  0  0
 29 30  1  0  0  0  0
 29 51  1  0  0  0  0
 29 52  1  0  0  0  0
 30 53  1  0  0  0  0
 30 54  1  0  0  0  0
M  END
>  <DRUGBANK_ID>
DB01223

>  <SECONDARY_ACCESSION_NUMBERS>
APRD00329

>  <COMMON_NAME>
Aminophylline

>  <CAS_NUMBER>
317-34-0

>  <UNII>
27Y3KJK423

>  <SYNONYMS>
Aminofilina; Aminophyllin; Aminophylline; Aminophyllinum; Theophyline ethylenediamine; Theophylline ethylenediamine

$$$$
