
 OpenBabel10282417213D

 35 37  0  0  0  0  0  0  0  0999 V2000
   -1.2283    1.3775    0.0426 O   0  0  0  0  0  0  0  0  0  0  0  0
   -0.0316    0.6721    0.0106 C   0  0  0  0  0  0  0  0  0  0  0  0
    0.0399   -0.7305   -0.0303 C   0  0  0  0  0  0  0  0  0  0  0  0
   -2.4089    0.6190   -0.3510 C   0  0  2  0  0  0  0  0  0  0  0  0
   -1.1983   -1.5408   -0.0706 C   0  0  0  0  0  0  0  0  0  0  0  0
    1.2849   -1.3781   -0.0667 C   0  0  0  0  0  0  0  0  0  0  0  0
   -3.7479    1.3876   -0.1668 C   0  0  0  0  0  0  0  0  0  0  0  0
   -2.4072   -0.7601    0.3607 C   0  0  2  0  0  0  0  0  0  0  0  0
    1.1643    1.3980    0.0611 C   0  0  0  0  0  0  0  0  0  0  0  0
    2.4649   -0.6570   -0.0328 C   0  0  0  0  0  0  0  0  0  0  0  0
   -3.9801    2.6491   -0.7443 C   0  0  0  0  0  0  0  0  0  0  0  0
   -5.2965    3.1411   -0.8447 C   0  0  0  0  0  0  0  0  0  0  0  0
    2.3959    0.7283    0.0341 C   0  0  0  0  0  0  0  0  0  0  0  0
   -6.3824    2.3878   -0.3934 C   0  0  0  0  0  0  0  0  0  0  0  0
   -4.8714    0.7304    0.3919 C   0  0  0  0  0  0  0  0  0  0  0  0
   -6.1749    1.1883    0.2323 C   0  0  0  0  0  0  0  0  0  0  0  0
    1.4166   -2.7387   -0.1322 O   0  0  0  0  0  0  0  0  0  0  0  0
   -3.4894   -1.6322    0.0084 O   0  0  0  0  0  0  0  0  0  0  0  0
   -5.5864    4.3473   -1.4218 O   0  0  0  0  0  0  0  0  0  0  0  0
   -7.6699    2.8102   -0.5553 O   0  0  0  0  0  0  0  0  0  0  0  0
    3.5433    1.4690    0.0706 O   0  0  0  0  0  0  0  0  0  0  0  0
   -2.3389    0.4592   -1.4376 H   0  0  0  0  0  0  0  0  0  0  0  0
   -1.1271   -2.4152    0.5862 H   0  0  0  0  0  0  0  0  0  0  0  0
   -1.3402   -1.9140   -1.0938 H   0  0  0  0  0  0  0  0  0  0  0  0
   -2.4027   -0.5996    1.4487 H   0  0  0  0  0  0  0  0  0  0  0  0
    1.1552    2.4824    0.1151 H   0  0  0  0  0  0  0  0  0  0  0  0
    3.4087   -1.1922   -0.0585 H   0  0  0  0  0  0  0  0  0  0  0  0
   -3.1492    3.2206   -1.1510 H   0  0  0  0  0  0  0  0  0  0  0  0
   -4.7893   -0.2078    0.9208 H   0  0  0  0  0  0  0  0  0  0  0  0
   -7.0083    0.5800    0.5739 H   0  0  0  0  0  0  0  0  0  0  0  0
    0.5490   -3.1636   -0.2174 H   0  0  0  0  0  0  0  0  0  0  0  0
   -3.5990   -2.2578    0.7467 H   0  0  0  0  0  0  0  0  0  0  0  0
   -4.7487    4.7752   -1.6669 H   0  0  0  0  0  0  0  0  0  0  0  0
   -7.6000    3.6751   -0.9969 H   0  0  0  0  0  0  0  0  0  0  0  0
    4.3035    0.8622    0.0319 H   0  0  0  0  0  0  0  0  0  0  0  0
  2  1  1  0  0  0  0
  3  2  1  0  0  0  0
  3  5  1  0  0  0  0
  4  1  1  0  0  0  0
  4 22  1  6  0  0  0
  4  7  1  0  0  0  0
  5  8  1  0  0  0  0
  5 23  1  0  0  0  0
  5 24  1  0  0  0  0
  6  3  2  0  0  0  0
  8  4  1  0  0  0  0
  8 25  1  1  0  0  0
  8 18  1  0  0  0  0
  9  2  2  0  0  0  0
  9 26  1  0  0  0  0
 10 13  2  0  0  0  0
 10  6  1  0  0  0  0
 10 27  1  0  0  0  0
 11  7  1  0  0  0  0
 11 28  1  0  0  0  0
 12 11  2  0  0  0  0
 12 14  1  0  0  0  0
 13  9  1  0  0  0  0
 14 16  2  0  0  0  0
 15  7  2  0  0  0  0
 15 29  1  0  0  0  0
 16 15  1  0  0  0  0
 16 30  1  0  0  0  0
 17  6  1  0  0  0  0
 17 31  1  0  0  0  0
 18 32  1  0  0  0  0
 19 12  1  0  0  0  0
 19 33  1  0  0  0  0
 20 14  1  0  0  0  0
 20 34  1  0  0  0  0
 21 13  1  0  0  0  0
 21 35  1  0  0  0  0
M  END
>  <DRUGBANK_ID>
DB14086

>  <COMMON_NAME>
Cianidanol

>  <CAS_NUMBER>
154-23-4

>  <UNII>
8R1V1STN48

>  <SYNONYMS>
(+)-catechin; (+)-Catechol; (+)-Cyanidan-3-ol; (+)-Cyanidanol; (2R,3S)-(+)-Catechin; (2R,3S)-catechin; Catechin; Catechuic acid; Cianidanol; Cianidanolum; D-(+)-Catechin; d-Catechin; D-Catechol

$$$$
