
 OpenBabel10282417143D

 39 38  0  0  0  0  0  0  0  0999 V2000
    1.0643    0.1700   -0.0427 C   0  0  0  0  0  0  0  0  0  0  0  0
   -0.3134    0.3770    2.1308 C   0  0  0  0  0  0  0  0  0  0  0  0
    3.2306   -5.2365    2.8854 C   0  0  0  0  0  0  0  0  0  0  0  0
    1.7364   -2.6616    0.7647 C   0  0  0  0  0  0  0  0  0  0  0  0
    0.7887   -1.7448    1.4988 C   0  0  0  0  0  0  0  0  0  0  0  0
    3.0093   -3.0213    1.5644 C   0  0  0  0  0  0  0  0  0  0  0  0
    2.0530   -3.2891    3.8445 C   0  0  0  0  0  0  0  0  0  0  0  0
    1.5806   -4.0328    5.0388 C   0  0  0  0  0  0  0  0  0  0  0  0
    0.5366   -0.4523    1.2095 C   0  0  0  0  0  0  0  0  0  0  0  0
    2.7490   -3.8165    2.8248 C   0  0  0  0  0  0  0  0  0  0  0  0
    7.6238   -2.3818    4.7227 O   0  0  0  0  0  0  0  0  0  0  0  0
    7.3489   -4.5319    5.8761 O   0  0  0  0  0  0  0  0  0  0  0  0
    7.0449   -4.3371    3.5451 O   0  0  0  0  0  0  0  0  0  0  0  0
    4.2656   -1.7456    7.4458 O   0  0  0  0  0  0  0  0  0  0  0  0
    4.3801   -4.2871    6.9989 O   0  0  0  0  0  0  0  0  0  0  0  0
    5.9620   -2.7767    6.2171 O   0  0  0  0  0  0  0  0  0  0  0  0
    6.5334   -3.6001    4.8071 P   0  0  0  0  0  0  0  0  0  0  0  0
    4.2417   -2.9300    6.3170 P   0  0  3  0  0  0  0  0  0  0  0  0
    2.1336   -3.1180    6.4395 S   0  0  0  0  0  0  0  0  0  0  0  0
    1.7401   -2.2454    3.8071 H   0  0  0  0  0  0  0  0  0  0  0  0
    0.7018    1.1905   -0.1821 H   0  0  0  0  0  0  0  0  0  0  0  0
    0.7208   -0.4152   -0.9045 H   0  0  0  0  0  0  0  0  0  0  0  0
    2.1584    0.1878   -0.0391 H   0  0  0  0  0  0  0  0  0  0  0  0
   -1.2819   -0.1011    2.3096 H   0  0  0  0  0  0  0  0  0  0  0  0
    0.1891    0.5115    3.0971 H   0  0  0  0  0  0  0  0  0  0  0  0
   -0.5026    1.3741    1.7225 H   0  0  0  0  0  0  0  0  0  0  0  0
    3.8586   -5.3702    3.7746 H   0  0  0  0  0  0  0  0  0  0  0  0
    2.3804   -5.9242    2.9451 H   0  0  0  0  0  0  0  0  0  0  0  0
    3.8315   -5.5109    2.0175 H   0  0  0  0  0  0  0  0  0  0  0  0
    1.1932   -3.5728    0.4911 H   0  0  0  0  0  0  0  0  0  0  0  0
    2.0658   -2.2072   -0.1754 H   0  0  0  0  0  0  0  0  0  0  0  0
    0.2686   -2.1726    2.3511 H   0  0  0  0  0  0  0  0  0  0  0  0
    3.6663   -3.5979    0.9016 H   0  0  0  0  0  0  0  0  0  0  0  0
    3.5719   -2.1127    1.8179 H   0  0  0  0  0  0  0  0  0  0  0  0
    0.4852   -4.0608    5.0395 H   0  0  0  0  0  0  0  0  0  0  0  0
    1.9369   -5.0611    5.1010 H   0  0  0  0  0  0  0  0  0  0  0  0
    7.4485   -1.7727    3.9888 H   0  0  0  0  0  0  0  0  0  0  0  0
    6.7709   -4.7623    6.6322 H   0  0  0  0  0  0  0  0  0  0  0  0
    4.1784   -0.8492    7.0768 H   0  0  0  0  0  0  0  0  0  0  0  0
  1 21  1  0  0  0  0
  1 22  1  0  0  0  0
  1 23  1  0  0  0  0
  2 24  1  0  0  0  0
  2 25  1  0  0  0  0
  2 26  1  0  0  0  0
  3 27  1  0  0  0  0
  3 28  1  0  0  0  0
  3 29  1  0  0  0  0
  4 30  1  0  0  0  0
  4 31  1  0  0  0  0
  5  4  1  0  0  0  0
  5 32  1  0  0  0  0
  6  4  1  0  0  0  0
  6 33  1  0  0  0  0
  6 34  1  0  0  0  0
  8  7  1  0  0  0  0
  8 35  1  0  0  0  0
  8 36  1  0  0  0  0
  9  1  1  0  0  0  0
  9  2  1  0  0  0  0
  9  5  2  0  0  0  0
 10  3  1  0  0  0  0
 10  6  1  0  0  0  0
 10  7  2  0  0  0  0
 11 37  1  0  0  0  0
 12 38  1  0  0  0  0
 14 39  1  0  0  0  0
 17 11  1  0  0  0  0
 17 12  1  0  0  0  0
 17 13  2  0  0  0  0
 17 16  1  0  0  0  0
 18 14  1  0  0  0  0
 18 15  2  0  0  0  0
 18 16  1  0  0  0  0
 19  8  1  0  0  0  0
 19 18  1  0  0  0  0
 20  7  1  0  0  0  0
M  END
>  <DRUGBANK_ID>
DB04702

>  <COMMON_NAME>
S-[(2E)-3,7-DIMETHYLOCTA-2,6-DIENYL] TRIHYDROGENTHIODIPHOSPHATE

$$$$
