
 OpenBabel10282417123D

 16 15  0  0  0  0  0  0  0  0999 V2000
    0.8931    0.0396    0.1464 O   0  0  0  0  0  0  0  0  0  0  0  0
    0.4494   -0.1157   -1.1919 C   0  0  0  0  0  0  0  0  0  0  0  0
    1.0191    0.9807   -2.0871 C   0  0  0  0  0  0  0  0  0  0  0  0
    2.5509    0.9661   -2.1833 C   0  0  0  0  0  0  0  0  0  0  0  0
    3.1206   -0.3458   -2.7147 C   0  0  0  0  0  0  0  0  0  0  0  0
    2.6769   -0.5927   -4.0392 O   0  0  0  0  0  0  0  0  0  0  0  0
    1.8633   -0.0418    0.1629 H   0  0  0  0  0  0  0  0  0  0  0  0
    0.7201   -1.1161   -1.5429 H   0  0  0  0  0  0  0  0  0  0  0  0
   -0.6436   -0.0624   -1.1880 H   0  0  0  0  0  0  0  0  0  0  0  0
    0.5820    0.8956   -3.0885 H   0  0  0  0  0  0  0  0  0  0  0  0
    0.7144    1.9578   -1.6925 H   0  0  0  0  0  0  0  0  0  0  0  0
    2.8556    1.7831   -2.8489 H   0  0  0  0  0  0  0  0  0  0  0  0
    2.9880    1.1806   -1.2015 H   0  0  0  0  0  0  0  0  0  0  0  0
    4.2136   -0.2960   -2.7343 H   0  0  0  0  0  0  0  0  0  0  0  0
    2.8499   -1.1978   -2.0840 H   0  0  0  0  0  0  0  0  0  0  0  0
    1.7067   -0.6754   -4.0309 H   0  0  0  0  0  0  0  0  0  0  0  0
  1  2  1  0  0  0  0
  1  7  1  0  0  0  0
  2  3  1  0  0  0  0
  2  8  1  0  0  0  0
  2  9  1  0  0  0  0
  3  4  1  0  0  0  0
  3 10  1  0  0  0  0
  3 11  1  0  0  0  0
  4  5  1  0  0  0  0
  4 12  1  0  0  0  0
  4 13  1  0  0  0  0
  5  6  1  0  0  0  0
  5 14  1  0  0  0  0
  5 15  1  0  0  0  0
  6 16  1  0  0  0  0
M  END
>  <DRUGBANK_ID>
DB01955

>  <SECONDARY_ACCESSION_NUMBERS>
EXPT00771

>  <COMMON_NAME>
1,4-Butanediol

>  <CAS_NUMBER>
110-63-4

>  <UNII>
7XOO2LE6G3

$$$$
