4PI
 OpenBabel10282417163D

 45 47  0  0  0  0  0  0  0  0999 V2000
    0.9896   -0.0110   -0.0034 C   0  0  0  0  0  0  0  0  0  0  0  0
    0.2535   -1.2047   -0.0039 C   0  0  0  0  0  0  0  0  0  0  0  0
   -1.1497   -1.1814   -0.0073 C   0  0  0  0  0  0  0  0  0  0  0  0
   -4.7359    1.9247    0.8868 C   0  0  0  0  0  0  0  0  0  0  0  0
   -6.0654    2.3733    0.3130 C   0  0  0  0  0  0  0  0  0  0  0  0
   -5.8682    3.2914   -0.9254 C   0  0  0  0  0  0  0  0  0  0  0  0
   -4.9965    2.5709   -1.9622 C   0  0  0  0  0  0  0  0  0  0  0  0
   -3.6835    2.1296   -1.3333 C   0  0  0  0  0  0  0  0  0  0  0  0
   -8.0762    4.5585   -0.6260 C   0  0  0  0  0  0  0  0  0  0  0  0
   -9.3847    4.8783   -0.9979 C   0  0  0  0  0  0  0  0  0  0  0  0
   -9.7336    5.9915    1.1315 C   0  0  0  0  0  0  0  0  0  0  0  0
    2.4884   -0.0219   -0.0164 C   0  0  0  0  0  0  0  0  0  0  0  0
   -3.3292    0.0819    0.0171 C   0  0  0  0  0  0  0  0  0  0  0  0
   -3.9139    1.3266   -0.1451 N   0  0  0  0  0  0  0  0  0  0  0  0
  -10.1987    5.6116   -0.1289 C   0  0  0  0  0  0  0  0  0  0  0  0
   -8.4395    5.6827    1.5109 C   0  0  0  0  0  0  0  0  0  0  0  0
   -7.6094    5.0333    0.6113 C   0  0  0  0  0  0  0  0  0  0  0  0
   -3.9873   -0.9411    0.2079 O   0  0  0  0  0  0  0  0  0  0  0  0
   -7.2161    3.7122   -1.5416 C   0  0  0  0  0  0  0  0  0  0  0  0
   -1.8297    0.0407   -0.0026 C   0  0  0  0  0  0  0  0  0  0  0  0
   -1.0811    1.2245    0.0473 C   0  0  0  0  0  0  0  0  0  0  0  0
    0.3088    1.2036    0.0191 C   0  0  0  0  0  0  0  0  0  0  0  0
    0.7707   -2.1621   -0.0014 H   0  0  0  0  0  0  0  0  0  0  0  0
   -1.7030   -2.1188   -0.0044 H   0  0  0  0  0  0  0  0  0  0  0  0
   -4.1870    2.8039    1.2554 H   0  0  0  0  0  0  0  0  0  0  0  0
   -4.8775    1.2564    1.7425 H   0  0  0  0  0  0  0  0  0  0  0  0
   -6.6060    2.8569    1.1288 H   0  0  0  0  0  0  0  0  0  0  0  0
   -6.6737    1.5087    0.0300 H   0  0  0  0  0  0  0  0  0  0  0  0
   -5.3193    4.2008   -0.6372 H   0  0  0  0  0  0  0  0  0  0  0  0
   -5.5341    1.7004   -2.3540 H   0  0  0  0  0  0  0  0  0  0  0  0
   -4.7755    3.2364   -2.8042 H   0  0  0  0  0  0  0  0  0  0  0  0
   -3.0925    1.5597   -2.0548 H   0  0  0  0  0  0  0  0  0  0  0  0
   -3.1188    3.0163   -1.0266 H   0  0  0  0  0  0  0  0  0  0  0  0
   -9.7778    4.5657   -1.9634 H   0  0  0  0  0  0  0  0  0  0  0  0
  -10.3696    6.5430    1.8152 H   0  0  0  0  0  0  0  0  0  0  0  0
    2.8732   -0.5413    0.8659 H   0  0  0  0  0  0  0  0  0  0  0  0
    2.8546   -0.5105   -0.9237 H   0  0  0  0  0  0  0  0  0  0  0  0
    2.8905    0.9981   -0.0025 H   0  0  0  0  0  0  0  0  0  0  0  0
  -11.2057    5.8823   -0.4307 H   0  0  0  0  0  0  0  0  0  0  0  0
   -8.0557    5.9431    2.4928 H   0  0  0  0  0  0  0  0  0  0  0  0
   -6.5855    4.8811    0.9349 H   0  0  0  0  0  0  0  0  0  0  0  0
   -7.7690    2.8052   -1.8252 H   0  0  0  0  0  0  0  0  0  0  0  0
   -7.0390    4.2779   -2.4665 H   0  0  0  0  0  0  0  0  0  0  0  0
   -1.5589    2.1927    0.1202 H   0  0  0  0  0  0  0  0  0  0  0  0
    0.8470    2.1480    0.0247 H   0  0  0  0  0  0  0  0  0  0  0  0
  1 12  1  0  0  0  0
  1 22  2  0  0  0  0
  1  2  1  0  0  0  0
  2  3  2  0  0  0  0
  2 23  1  0  0  0  0
  3 20  1  0  0  0  0
  3 24  1  0  0  0  0
  4 14  1  0  0  0  0
  4  5  1  0  0  0  0
  4 25  1  0  0  0  0
  4 26  1  0  0  0  0
  5  6  1  0  0  0  0
  5 27  1  0  0  0  0
  5 28  1  0  0  0  0
  6  7  1  0  0  0  0
  6 19  1  0  0  0  0
  6 29  1  0  0  0  0
  7  8  1  0  0  0  0
  7 30  1  0  0  0  0
  7 31  1  0  0  0  0
  8 14  1  0  0  0  0
  8 32  1  0  0  0  0
  8 33  1  0  0  0  0
  9 17  1  0  0  0  0
  9 19  1  0  0  0  0
  9 10  2  0  0  0  0
 10 15  1  0  0  0  0
 10 34  1  0  0  0  0
 11 16  1  0  0  0  0
 11 15  2  0  0  0  0
 11 35  1  0  0  0  0
 12 36  1  0  0  0  0
 12 37  1  0  0  0  0
 12 38  1  0  0  0  0
 13 18  2  0  0  0  0
 13 20  1  0  0  0  0
 13 14  1  0  0  0  0
 15 39  1  0  0  0  0
 16 17  2  0  0  0  0
 16 40  1  0  0  0  0
 17 41  1  0  0  0  0
 19 42  1  0  0  0  0
 19 43  1  0  0  0  0
 20 21  2  0  0  0  0
 21 22  1  0  0  0  0
 21 44  1  0  0  0  0
 22 45  1  0  0  0  0
M  END
>  <DRUGBANK_ID>
DB07123

>  <COMMON_NAME>
N-(4-METHYLBENZOYL)-4-BENZYLPIPERIDINE

$$$$
