
 OpenBabel10282417213D

506540  0  0  1  0  0  0  0  0999 V2000
    0.9341   -0.0337   -0.0615 C   0  0  0  0  0  0  0  0  0  0  0  0
    0.4373    1.3593    0.2363 C   0  0  0  0  0  0  0  0  0  0  0  0
    0.9360    2.3191   -0.8218 C   0  0  0  0  0  0  0  0  0  0  0  0
    0.4281    1.8906   -2.1810 C   0  0  0  0  0  0  0  0  0  0  0  0
   -1.0850    1.8889   -2.1756 C   0  0  0  0  0  0  0  0  0  0  0  0
   -1.5898    3.2862   -1.8597 C   0  0  0  0  0  0  0  0  0  0  0  0
   -1.0510    4.2551   -2.7650 C   0  0  0  0  0  0  0  0  0  0  0  0
   -1.5759    3.6012   -3.7162 C   0  0  0  0  0  0  0  0  0  0  0  0
   -3.0806    3.5595   -3.8377 C   0  0  0  0  0  0  0  0  0  0  0  0
   -3.7762    4.9090   -3.4512 C   0  0  0  0  0  0  0  0  0  0  0  0
   -3.5935    5.9129   -4.4021 C   0  0  0  0  0  0  0  0  0  0  0  0
   -4.7664    6.2714   -6.5233 C   0  0  0  0  0  0  0  0  0  0  0  0
   -5.8429    6.3336   -6.0923 C   0  0  0  0  0  0  0  0  0  0  0  0
   -6.3730    7.3142   -5.7675 C   0  0  0  0  0  0  0  0  0  0  0  0
   -5.5495    8.6811   -7.5489 C   0  0  0  0  0  0  0  0  0  0  0  0
   -6.1528    7.8993   -8.4189 C   0  0  0  0  0  0  0  0  0  0  0  0
   -6.6291    8.5896   -9.0384 O   0  0  0  0  0  0  0  0  0  0  0  0
   -5.9521    5.6867   -8.8526 N   0  0  0  0  0  0  0  0  0  0  0  0
   -5.1322    5.2203   -8.6508 C   0  0  0  0  0  0  0  0  0  0  0  0
   -5.2579    4.1593   -8.1490 C   0  0  3  0  0  0  0  0  0  0  0  0
   -5.9774    2.4097   -9.1597 O   0  0  0  0  0  0  0  0  0  0  0  0
   -5.0034    2.7324   -7.0932 C   0  0  0  0  0  0  0  0  0  0  0  0
   -3.9931    3.8550   -5.9496 O   0  0  0  0  0  0  0  0  0  0  0  0
   -3.1281    5.3181   -6.2721 P   0  0  3  0  0  0  0  0  0  0  0  0
   -1.8028    4.2619   -5.8745 S   0  0  0  0  0  0  0  0  0  0  0  0
   -3.5043    6.7446   -7.7941 O   0  0  0  0  0  0  0  0  0  0  0  0
   -2.2631    6.7811   -6.5947 O   0  0  0  0  0  0  0  0  0  0  0  0
   -2.7198    8.6405   -6.1434 C   0  0  0  0  0  0  0  0  0  0  0  0
   -4.4602    7.7970   -7.9395 C   0  0  3  0  0  0  0  0  0  0  0  0
   -3.5601    8.8353   -9.4006 O   0  0  0  0  0  0  0  0  0  0  0  0
   -2.6960    7.2274  -11.0391 C   0  0  3  0  0  0  0  0  0  0  0  0
   -3.0035    6.2009  -10.9001 C   0  0  0  0  0  0  0  0  0  0  0  0
   -2.7302    6.0323   -8.4891 C   0  0  3  0  0  0  0  0  0  0  0  0
   -2.2164    5.5283   -8.0675 N   0  0  0  0  0  0  0  0  0  0  0  0
   -1.8486    3.8639   -8.5804 P   0  0  3  0  0  0  0  0  0  0  0  0
   -0.2301    3.0459   -5.5961 S   0  0  0  0  0  0  0  0  0  0  0  0
   -2.7313    3.0269   -9.4567 O   0  0  0  0  0  0  0  0  0  0  0  0
   -1.4912    2.2463   -9.0789 O   0  0  0  0  0  0  0  0  0  0  0  0
   -1.1796    0.5348   -7.9095 C   0  0  0  0  0  0  0  0  0  0  0  0
   -0.0393    1.4741   -6.5392 C   0  0  3  0  0  0  0  0  0  0  0  0
    1.0628    0.8976   -7.1930 O   0  0  0  0  0  0  0  0  0  0  0  0
    2.7510    2.2493   -7.1521 C   0  0  3  0  0  0  0  0  0  0  0  0
    2.4446    3.3410   -6.8092 C   0  0  0  0  0  0  0  0  0  0  0  0
    0.3310    3.6338   -7.1838 C   0  0  3  0  0  0  0  0  0  0  0  0
   -0.0013    2.8816   -9.4120 N   0  0  0  0  0  0  0  0  0  0  0  0
    1.4954    4.9948   -8.8561 P   0  0  3  0  0  0  0  0  0  0  0  0
    0.4134    6.4519   -8.6858 S   0  0  0  0  0  0  0  0  0  0  0  0
    2.5040    5.4373   -8.1876 O   0  0  0  0  0  0  0  0  0  0  0  0
    0.8539    6.6993  -10.1158 O   0  0  0  0  0  0  0  0  0  0  0  0
    1.9955    8.1611   -8.4865 C   0  0  0  0  0  0  0  0  0  0  0  0
    0.4644    8.7778   -6.7769 C   0  0  3  0  0  0  0  0  0  0  0  0
   -0.9343   10.3490   -7.1207 O   0  0  0  0  0  0  0  0  0  0  0  0
   -2.6100   10.3152   -8.5492 C   0  0  3  0  0  0  0  0  0  0  0  0
   -2.4236    8.3842   -7.5039 C   0  0  0  0  0  0  0  0  0  0  0  0
   -0.8964    7.3890   -8.3449 C   0  0  3  0  0  0  0  0  0  0  0  0
   -0.9925    6.2166   -9.5940 N   0  0  0  0  0  0  0  0  0  0  0  0
   -2.1877    4.9769  -10.0447 P   0  0  3  0  0  0  0  0  0  0  0  0
   -3.3780    5.8367  -12.5282 S   0  0  0  0  0  0  0  0  0  0  0  0
   -0.9552    4.1028  -11.2301 O   0  0  0  0  0  0  0  0  0  0  0  0
   -3.3493    3.7721  -10.4827 O   0  0  0  0  0  0  0  0  0  0  0  0
   -4.3280    2.2927   -9.4205 C   0  0  0  0  0  0  0  0  0  0  0  0
   -3.6659    2.0722   -8.4157 C   0  0  3  0  0  0  0  0  0  0  0  0
   -3.8120    1.0636   -8.0852 O   0  0  0  0  0  0  0  0  0  0  0  0
   -2.7535    0.6383   -8.3633 C   0  0  3  0  0  0  0  0  0  0  0  0
   -2.1423    1.6456   -7.9905 C   0  0  0  0  0  0  0  0  0  0  0  0
   -2.5998    2.4811   -8.1640 C   0  0  3  0  0  0  0  0  0  0  0  0
   -1.2738    3.4165   -9.9828 N   0  0  0  0  0  0  0  0  0  0  0  0
    0.8160    4.1294  -10.5856 P   0  0  3  0  0  0  0  0  0  0  0  0
    1.5057    3.0256   -8.5481 S   0  0  0  0  0  0  0  0  0  0  0  0
    0.6503    3.6184  -11.7061 O   0  0  0  0  0  0  0  0  0  0  0  0
    2.2763    4.5213  -10.0738 O   0  0  0  0  0  0  0  0  0  0  0  0
    3.1024    4.1988   -8.5904 C   0  0  0  0  0  0  0  0  0  0  0  0
    2.2369    5.2017   -6.6368 C   0  0  3  0  0  0  0  0  0  0  0  0
    2.2532    6.3242   -6.5679 O   0  0  0  0  0  0  0  0  0  0  0  0
    1.3510    7.0993   -6.2109 C   0  0  3  0  0  0  0  0  0  0  0  0
   -0.4113    6.0143   -5.8747 C   0  0  0  0  0  0  0  0  0  0  0  0
    0.8421    5.2915   -6.7283 C   0  0  3  0  0  0  0  0  0  0  0  0
   -0.3308    4.2694   -8.3937 N   0  0  0  0  0  0  0  0  0  0  0  0
   -2.0727    3.9072   -8.3389 P   0  0  3  0  0  0  0  0  0  0  0  0
   -2.5437    1.8910  -10.5995 S   0  0  0  0  0  0  0  0  0  0  0  0
   -2.6739    2.9717   -6.6145 O   0  0  0  0  0  0  0  0  0  0  0  0
   -3.7657    3.5552   -8.2855 O   0  0  0  0  0  0  0  0  0  0  0  0
   -4.0663    3.7045   -9.1025 C   0  0  0  0  0  0  0  0  0  0  0  0
   -4.6866    4.9091  -10.7195 C   0  0  3  0  0  0  0  0  0  0  0  0
   -5.4937    6.5278  -10.9087 O   0  0  0  0  0  0  0  0  0  0  0  0
   -5.7558    8.1554   -9.9784 C   0  0  3  0  0  0  0  0  0  0  0  0
   -3.7769    7.3836   -9.4194 C   0  0  0  0  0  0  0  0  0  0  0  0
   -3.5316    6.4512   -9.5743 C   0  0  3  0  0  0  0  0  0  0  0  0
   -4.1480    5.4512   -7.4109 N   0  0  0  0  0  0  0  0  0  0  0  0
   -3.4664    6.3517   -6.0350 P   0  0  3  0  0  0  0  0  0  0  0  0
   -4.0514    7.5582   -5.2230 S   0  0  0  0  0  0  0  0  0  0  0  0
   -3.2862    4.6304   -4.9257 O   0  0  0  0  0  0  0  0  0  0  0  0
   -2.8039    7.2269   -4.6978 O   0  0  0  0  0  0  0  0  0  0  0  0
   -3.1906    6.8442   -3.0613 C   0  0  0  0  0  0  0  0  0  0  0  0
   -5.1048    6.6751   -3.1670 C   0  0  3  0  0  0  0  0  0  0  0  0
   -6.2133    8.3533   -3.3569 O   0  0  0  0  0  0  0  0  0  0  0  0
   -6.5951    8.5066   -4.5893 C   0  0  3  0  0  0  0  0  0  0  0  0
   -7.1580    6.7345   -4.4459 C   0  0  0  0  0  0  0  0  0  0  0  0
   -5.9268    5.4950   -3.7178 C   0  0  3  0  0  0  0  0  0  0  0  0
   -4.5554    5.5642   -5.6040 N   0  0  0  0  0  0  0  0  0  0  0  0
   -5.3818    4.4717   -6.7407 P   0  0  3  0  0  0  0  0  0  0  0  0
   -3.8776    1.9895   -5.7434 S   0  0  0  0  0  0  0  0  0  0  0  0
   -6.7277    3.7647   -5.5933 O   0  0  0  0  0  0  0  0  0  0  0  0
   -6.1851    3.4100   -7.8454 O   0  0  0  0  0  0  0  0  0  0  0  0
   -6.7413    3.6772   -8.8262 C   0  0  0  0  0  0  0  0  0  0  0  0
   -6.1806    4.5268   -9.8939 C   0  0  3  0  0  0  0  0  0  0  0  0
   -7.3143    5.1293   -8.4143 O   0  0  0  0  0  0  0  0  0  0  0  0
   -7.0221    6.5877   -8.1132 C   0  0  3  0  0  0  0  0  0  0  0  0
   -5.1226    7.0433   -9.2793 C   0  0  0  0  0  0  0  0  0  0  0  0
   -4.8342    6.1083   -9.7764 C   0  0  3  0  0  0  0  0  0  0  0  0
   -3.6724    5.3311   -8.8613 N   0  0  0  0  0  0  0  0  0  0  0  0
   -1.9701    7.3690   -9.6565 P   0  0  3  0  0  0  0  0  0  0  0  0
   -1.1116    5.5955  -11.6426 S   0  0  0  0  0  0  0  0  0  0  0  0
   -3.3889    8.0808   -8.3376 O   0  0  0  0  0  0  0  0  0  0  0  0
   -0.2839    7.4128   -9.5373 O   0  0  0  0  0  0  0  0  0  0  0  0
    1.1845    7.1689   -7.5628 C   0  0  0  0  0  0  0  0  0  0  0  0
   -0.0318    7.2307   -5.4245 C   0  0  3  0  0  0  0  0  0  0  0  0
   -1.0886    7.8218   -5.4850 O   0  0  0  0  0  0  0  0  0  0  0  0
   -1.4840    6.8623   -5.0631 C   0  0  3  0  0  0  0  0  0  0  0  0
   -1.3228    5.4102   -4.6033 C   0  0  0  0  0  0  0  0  0  0  0  0
   -0.0226    4.8114   -5.4963 C   0  0  3  0  0  0  0  0  0  0  0  0
   -0.8500    4.5941   -7.5619 N   0  0  0  0  0  0  0  0  0  0  0  0
   -1.2145    2.8872   -7.2127 P   0  0  3  0  0  0  0  0  0  0  0  0
    0.6139    1.3521   -8.8573 S   0  0  0  0  0  0  0  0  0  0  0  0
   -1.9891    2.6890   -5.1879 O   0  0  0  0  0  0  0  0  0  0  0  0
   -1.5687    1.2282   -6.8733 O   0  0  0  0  0  0  0  0  0  0  0  0
   -0.8983    0.4265   -5.5214 C   0  0  0  0  0  0  0  0  0  0  0  0
    0.8372    0.4228   -5.6742 C   0  0  3  0  0  0  0  0  0  0  0  0
    1.2060   -0.6283   -6.9246 O   0  0  0  0  0  0  0  0  0  0  0  0
    1.9684   -0.1139   -8.1932 C   0  0  3  0  0  0  0  0  0  0  0  0
    2.3542    1.1228   -8.0767 C   0  0  0  0  0  0  0  0  0  0  0  0
    1.3715    2.0682   -6.5538 C   0  0  3  0  0  0  0  0  0  0  0  0
   -0.2757    2.6267   -7.7497 N   0  0  0  0  0  0  0  0  0  0  0  0
    0.0994    4.0770   -8.7111 P   0  0  3  0  0  0  0  0  0  0  0  0
   -0.8095    5.6357   -8.5540 S   0  0  0  0  0  0  0  0  0  0  0  0
    1.3859    4.3151   -7.5797 O   0  0  0  0  0  0  0  0  0  0  0  0
    0.4640    5.4866   -9.6455 O   0  0  0  0  0  0  0  0  0  0  0  0
    1.8321    6.6374   -9.0041 C   0  0  0  0  0  0  0  0  0  0  0  0
   -0.1275    7.0886   -7.2569 C   0  0  3  0  0  0  0  0  0  0  0  0
   -0.1011    9.4042   -7.8770 O   0  0  0  0  0  0  0  0  0  0  0  0
   -1.6503    9.4244   -7.9798 C   0  0  3  0  0  0  0  0  0  0  0  0
   -2.1121    7.0672   -7.8175 C   0  0  0  0  0  0  0  0  0  0  0  0
   -1.1202    6.5196   -7.3583 C   0  0  3  0  0  0  0  0  0  0  0  0
   -1.5665    5.5730   -9.6169 N   0  0  0  0  0  0  0  0  0  0  0  0
   -3.0377    4.6254   -9.9425 P   0  0  3  0  0  0  0  0  0  0  0  0
   -1.5991    2.7409  -12.0641 S   0  0  0  0  0  0  0  0  0  0  0  0
   -3.0912    4.5204   -7.8312 O   0  0  0  0  0  0  0  0  0  0  0  0
   -4.4675    3.7045  -10.2590 O   0  0  0  0  0  0  0  0  0  0  0  0
   -5.4274    4.0412  -11.7441 C   0  0  0  0  0  0  0  0  0  0  0  0
   -6.2659    5.4664  -11.5869 C   0  0  3  0  0  0  0  0  0  0  0  0
   -4.9331    6.9519  -12.1212 O   0  0  0  0  0  0  0  0  0  0  0  0
   -5.7892    8.0575  -12.0289 C   0  0  3  0  0  0  0  0  0  0  0  0
   -7.2479    7.6101  -11.6764 C   0  0  0  0  0  0  0  0  0  0  0  0
   -7.2688    6.2448  -11.7275 C   0  0  3  0  0  0  0  0  0  0  0  0
   -6.9638    5.7317  -12.7012 N   0  0  0  0  0  0  0  0  0  0  0  0
   -8.4177    6.3638  -13.5105 P   0  0  3  0  0  0  0  0  0  0  0  0
   -7.8103    5.3509  -15.3143 S   0  0  0  0  0  0  0  0  0  0  0  0
   -9.1342    5.9799  -12.3726 O   0  0  0  0  0  0  0  0  0  0  0  0
   -9.8307    6.9782  -14.2971 O   0  0  0  0  0  0  0  0  0  0  0  0
  -10.8046    7.3394  -13.3245 C   0  0  0  0  0  0  0  0  0  0  0  0
  -11.2025    6.1067  -12.5100 C   0  0  3  0  0  0  0  0  0  0  0  0
  -12.5542    5.7715  -12.7806 O   0  0  0  0  0  0  0  0  0  0  0  0
  -12.6436    4.3590  -13.0737 C   0  0  3  0  0  0  0  0  0  0  0  0
  -11.3341    3.7276  -12.6875 C   0  0  0  0  0  0  0  0  0  0  0  0
  -10.4384    4.7909  -12.9210 C   0  0  3  0  0  0  0  0  0  0  0  0
   -9.9012    4.8636  -14.2628 N   0  0  0  0  0  0  0  0  0  0  0  0
  -12.9528    4.1293  -14.4765 N   0  0  0  0  0  0  0  0  0  0  0  0
  -13.2016    5.0792  -15.3985 C   0  0  0  0  0  0  0  0  0  0  0  0
  -13.4944    4.5551  -16.5678 N   0  0  0  0  0  0  0  0  0  0  0  0
  -13.4366    3.2048  -16.4270 C   0  0  0  0  0  0  0  0  0  0  0  0
  -13.0930    2.9087  -15.1120 C   0  0  0  0  0  0  0  0  0  0  0  0
  -12.9553    1.6235  -14.6593 N   0  0  0  0  0  0  0  0  0  0  0  0
  -13.1778    0.6422  -15.5662 C   0  0  0  0  0  0  0  0  0  0  0  0
  -13.5091    0.8566  -16.8559 N   0  0  0  0  0  0  0  0  0  0  0  0
  -13.6549    2.1344  -17.3379 C   0  0  0  0  0  0  0  0  0  0  0  0
  -14.0126    2.3568  -18.7034 N   0  0  0  0  0  0  0  0  0  0  0  0
   -4.9586    8.1971  -12.9324 N   0  0  0  0  0  0  0  0  0  0  0  0
   -4.0289    7.6609  -13.4930 C   0  0  0  0  0  0  0  0  0  0  0  0
   -3.7124    8.0460  -14.5527 N   0  0  0  0  0  0  0  0  0  0  0  0
   -4.6186    8.9963  -14.7347 C   0  0  0  0  0  0  0  0  0  0  0  0
   -5.4556    9.1381  -13.5950 C   0  0  0  0  0  0  0  0  0  0  0  0
   -6.2543   10.2374  -13.3451 N   0  0  0  0  0  0  0  0  0  0  0  0
   -6.3779   11.0890  -14.3697 C   0  0  0  0  0  0  0  0  0  0  0  0
   -5.6784   10.9894  -15.5162 N   0  0  0  0  0  0  0  0  0  0  0  0
   -4.7489    9.9980  -15.7205 C   0  0  0  0  0  0  0  0  0  0  0  0
   -4.0005    9.9155  -16.9136 N   0  0  0  0  0  0  0  0  0  0  0  0
   -2.3947    9.2060   -9.9345 N   0  0  0  0  0  0  0  0  0  0  0  0
   -4.5108    9.8214   -9.7371 C   0  0  0  0  0  0  0  0  0  0  0  0
   -4.9775   10.2623  -11.5744 C   0  0  0  0  0  0  0  0  0  0  0  0
   -3.2348    9.5197  -12.9542 C   0  0  0  0  0  0  0  0  0  0  0  0
   -3.6523   10.3806  -13.5485 N   0  0  0  0  0  0  0  0  0  0  0  0
   -1.7897    8.9852  -12.4619 N   0  0  0  0  0  0  0  0  0  0  0  0
   -1.3819    9.4366  -11.2606 C   0  0  0  0  0  0  0  0  0  0  0  0
   -0.5046    9.6642  -10.6683 O   0  0  0  0  0  0  0  0  0  0  0  0
    1.2423   -0.5420   -9.2835 N   0  0  0  0  0  0  0  0  0  0  0  0
   -0.4691   -1.3586   -9.3409 C   0  0  0  0  0  0  0  0  0  0  0  0
   -0.4765   -0.0518  -10.9357 N   0  0  0  0  0  0  0  0  0  0  0  0
    0.2057    0.2535  -11.7869 C   0  0  0  0  0  0  0  0  0  0  0  0
    1.1732    0.3324  -11.0980 C   0  0  0  0  0  0  0  0  0  0  0  0
    1.8965    1.0802  -11.7497 N   0  0  0  0  0  0  0  0  0  0  0  0
    2.2843    1.3943  -12.7588 C   0  0  0  0  0  0  0  0  0  0  0  0
    1.3496    1.0526  -13.4631 N   0  0  0  0  0  0  0  0  0  0  0  0
    0.2417    0.4476  -13.0068 C   0  0  0  0  0  0  0  0  0  0  0  0
   -0.8194    0.1100  -13.8512 N   0  0  0  0  0  0  0  0  0  0  0  0
   -2.0835    5.6651   -6.7555 N   0  0  0  0  0  0  0  0  0  0  0  0
   -4.2635    4.7911   -6.4315 C   0  0  0  0  0  0  0  0  0  0  0  0
   -5.6981    5.7303   -7.3922 N   0  0  0  0  0  0  0  0  0  0  0  0
   -5.5083    6.6049   -7.8533 C   0  0  0  0  0  0  0  0  0  0  0  0
   -3.6336    7.5995   -6.9514 C   0  0  0  0  0  0  0  0  0  0  0  0
   -2.3620    8.4286   -8.8083 N   0  0  0  0  0  0  0  0  0  0  0  0
   -3.4640    8.3389  -10.5759 C   0  0  0  0  0  0  0  0  0  0  0  0
   -2.6004    8.6029  -11.1814 N   0  0  0  0  0  0  0  0  0  0  0  0
   -4.5078    7.6450  -10.6374 N   0  0  0  0  0  0  0  0  0  0  0  0
   -6.3846    6.8612   -9.6281 C   0  0  0  0  0  0  0  0  0  0  0  0
   -7.0855    6.4986  -10.2482 O   0  0  0  0  0  0  0  0  0  0  0  0
   -6.7907    6.9524   -7.0814 N   0  0  0  0  0  0  0  0  0  0  0  0
   -6.9507    5.4787   -5.6116 C   0  0  0  0  0  0  0  0  0  0  0  0
   -5.4944    6.4015   -4.6529 N   0  0  0  0  0  0  0  0  0  0  0  0
   -4.9709    8.2623   -4.1633 C   0  0  0  0  0  0  0  0  0  0  0  0
   -5.2955    8.1379   -6.1685 C   0  0  0  0  0  0  0  0  0  0  0  0
   -5.3811   10.2468   -6.3201 N   0  0  0  0  0  0  0  0  0  0  0  0
   -4.8049   10.7784   -5.2682 C   0  0  0  0  0  0  0  0  0  0  0  0
   -4.4224   10.0460   -4.0920 N   0  0  0  0  0  0  0  0  0  0  0  0
   -4.1129    8.8604   -3.5979 C   0  0  0  0  0  0  0  0  0  0  0  0
   -4.2303    8.2723   -2.4689 N   0  0  0  0  0  0  0  0  0  0  0  0
   -6.2185    9.2401   -5.6594 N   0  0  0  0  0  0  0  0  0  0  0  0
   -6.8140    8.9120   -6.9661 C   0  0  0  0  0  0  0  0  0  0  0  0
   -6.0180    9.8975   -8.6364 C   0  0  0  0  0  0  0  0  0  0  0  0
   -7.1619    9.4764  -10.2713 C   0  0  0  0  0  0  0  0  0  0  0  0
   -4.7562   10.4834   -8.2432 C   0  0  0  0  0  0  0  0  0  0  0  0
   -4.3603   11.2495   -9.4552 O   0  0  0  0  0  0  0  0  0  0  0  0
   -3.9854   10.2092   -7.2598 N   0  0  0  0  0  0  0  0  0  0  0  0
   -4.0712    9.5561   -5.9912 C   0  0  0  0  0  0  0  0  0  0  0  0
   -3.2940    9.4999   -5.0486 O   0  0  0  0  0  0  0  0  0  0  0  0
   -7.7751    7.5909   -9.3382 N   0  0  0  0  0  0  0  0  0  0  0  0
   -7.8162    9.2483   -8.2500 C   0  0  0  0  0  0  0  0  0  0  0  0
   -8.4867    9.0271   -6.9615 C   0  0  0  0  0  0  0  0  0  0  0  0
   -7.9849    9.9643   -6.0497 C   0  0  0  0  0  0  0  0  0  0  0  0
   -8.7970    7.5077   -6.9501 C   0  0  0  0  0  0  0  0  0  0  0  0
   -9.5639    7.5132   -6.1186 O   0  0  0  0  0  0  0  0  0  0  0  0
   -8.6422    6.4421   -7.7133 N   0  0  0  0  0  0  0  0  0  0  0  0
   -8.3326    6.3831   -9.0385 C   0  0  0  0  0  0  0  0  0  0  0  0
   -8.0334    5.1371   -9.7164 O   0  0  0  0  0  0  0  0  0  0  0  0
    0.3699    8.1488   -8.1313 N   0  0  0  0  0  0  0  0  0  0  0  0
   -0.9343    8.3903   -7.2357 C   0  0  0  0  0  0  0  0  0  0  0  0
   -0.8478    8.6182   -8.9526 N   0  0  0  0  0  0  0  0  0  0  0  0
    0.2282    9.1424   -9.4408 C   0  0  0  0  0  0  0  0  0  0  0  0
    0.7271    8.3102   -9.1629 C   0  0  0  0  0  0  0  0  0  0  0  0
    2.5673    7.7154   -9.8540 N   0  0  0  0  0  0  0  0  0  0  0  0
    2.6532    8.4615  -10.6840 C   0  0  0  0  0  0  0  0  0  0  0  0
    3.7534    7.7682  -11.2261 N   0  0  0  0  0  0  0  0  0  0  0  0
    1.7261    9.0781  -11.6509 N   0  0  0  0  0  0  0  0  0  0  0  0
    0.5603    9.2358  -11.5796 C   0  0  0  0  0  0  0  0  0  0  0  0
   -0.2095    9.4726  -12.3302 O   0  0  0  0  0  0  0  0  0  0  0  0
   -1.8200    0.4064   -9.4224 N   0  0  0  0  0  0  0  0  0  0  0  0
   -0.5463    0.2606   -9.4957 C   0  0  0  0  0  0  0  0  0  0  0  0
    0.3412   -1.1053  -10.5255 N   0  0  0  0  0  0  0  0  0  0  0  0
   -1.7179   -0.8772  -10.9814 C   0  0  0  0  0  0  0  0  0  0  0  0
   -2.3714   -0.0322  -10.3212 C   0  0  0  0  0  0  0  0  0  0  0  0
   -3.5544    0.2892  -10.7289 N   0  0  0  0  0  0  0  0  0  0  0  0
   -3.7569   -0.0492  -11.9324 C   0  0  0  0  0  0  0  0  0  0  0  0
   -5.0216    0.1551  -12.4795 N   0  0  0  0  0  0  0  0  0  0  0  0
   -2.8303   -0.7639  -12.6657 N   0  0  0  0  0  0  0  0  0  0  0  0
   -1.6423   -1.1412  -12.2161 C   0  0  0  0  0  0  0  0  0  0  0  0
   -0.7291   -1.6878  -12.8416 O   0  0  0  0  0  0  0  0  0  0  0  0
   -2.7593   10.6426   -9.8376 N   0  0  0  0  0  0  0  0  0  0  0  0
   -3.5332   10.0946  -10.8436 C   0  0  0  0  0  0  0  0  0  0  0  0
   -3.8410    9.3063  -11.7094 N   0  0  0  0  0  0  0  0  0  0  0  0
   -2.5579   10.7473  -11.7255 C   0  0  0  0  0  0  0  0  0  0  0  0
   -1.8786   10.9731  -10.6363 C   0  0  0  0  0  0  0  0  0  0  0  0
   -0.3550   11.1344  -10.5482 N   0  0  0  0  0  0  0  0  0  0  0  0
    0.3069   11.0737  -11.6202 C   0  0  0  0  0  0  0  0  0  0  0  0
    1.6140   11.0401  -11.5826 N   0  0  0  0  0  0  0  0  0  0  0  0
   -0.4830   11.0185  -12.8552 N   0  0  0  0  0  0  0  0  0  0  0  0
   -1.6849   10.6949  -12.9534 C   0  0  0  0  0  0  0  0  0  0  0  0
   -2.0359   10.7997  -14.0849 O   0  0  0  0  0  0  0  0  0  0  0  0
    3.4217    1.6832   -9.1972 N   0  0  0  0  0  0  0  0  0  0  0  0
    2.4609    1.1733   -9.9907 C   0  0  0  0  0  0  0  0  0  0  0  0
    3.2737    1.1654  -10.7540 N   0  0  0  0  0  0  0  0  0  0  0  0
    3.7105    2.2664  -10.9441 C   0  0  0  0  0  0  0  0  0  0  0  0
    3.7854    2.6857   -9.7719 C   0  0  0  0  0  0  0  0  0  0  0  0
    4.5717    3.5184   -9.2104 N   0  0  0  0  0  0  0  0  0  0  0  0
    5.3527    4.0422  -10.0719 C   0  0  0  0  0  0  0  0  0  0  0  0
    5.4130    3.6474  -11.3539 N   0  0  0  0  0  0  0  0  0  0  0  0
    4.5796    2.7095  -11.8455 C   0  0  0  0  0  0  0  0  0  0  0  0
    4.6976    2.2696  -13.2074 N   0  0  0  0  0  0  0  0  0  0  0  0
   -1.4142    7.4337  -11.2676 N   0  0  0  0  0  0  0  0  0  0  0  0
   -0.8526    7.2416  -12.3727 C   0  0  0  0  0  0  0  0  0  0  0  0
    0.3465    6.6848  -12.1909 C   0  0  0  0  0  0  0  0  0  0  0  0
    0.9419    5.8176  -13.0191 C   0  0  0  0  0  0  0  0  0  0  0  0
    1.1257    7.2942  -11.5807 C   0  0  0  0  0  0  0  0  0  0  0  0
    2.1976    7.0488  -11.7553 O   0  0  0  0  0  0  0  0  0  0  0  0
    0.7263    8.0191  -10.7616 N   0  0  0  0  0  0  0  0  0  0  0  0
   -0.7388    8.2769  -10.5510 C   0  0  0  0  0  0  0  0  0  0  0  0
   -1.0587    9.8630   -9.4268 O   0  0  0  0  0  0  0  0  0  0  0  0
    0.5778   -0.3549   -1.0294 H   0  0  0  0  0  0  0  0  0  0  0  0
    0.5777   -0.7235    0.6844 H   0  0  0  0  0  0  0  0  0  0  0  0
    2.0141   -0.0409   -0.0669 H   0  0  0  0  0  0  0  0  0  0  0  0
   -0.6449    1.3613    0.2474 H   0  0  0  0  0  0  0  0  0  0  0  0
    0.7882    1.6707    1.2072 H   0  0  0  0  0  0  0  0  0  0  0  0
    0.5861    3.3183   -0.6018 H   0  0  0  0  0  0  0  0  0  0  0  0
    2.0148    2.3279   -0.8218 H   0  0  0  0  0  0  0  0  0  0  0  0
    0.7959    2.5668   -2.9372 H   0  0  0  0  0  0  0  0  0  0  0  0
    0.7900    0.9019   -2.4109 H   0  0  0  0  0  0  0  0  0  0  0  0
   -1.4538    1.5632   -3.1345 H   0  0  0  0  0  0  0  0  0  0  0  0
   -1.4552    1.2045   -1.4411 H   0  0  0  0  0  0  0  0  0  0  0  0
   -2.6715    3.2884   -1.8639 H   0  0  0  0  0  0  0  0  0  0  0  0
   -1.2464    3.6012   -0.9093 H   0  0  0  0  0  0  0  0  0  0  0  0
   -1.4366    5.2389   -2.6757 H   0  0  0  0  0  0  0  0  0  0  0  0
   -0.0046    4.2623   -2.9283 H   0  0  0  0  0  0  0  0  0  0  0  0
   -0.9955    4.0413   -4.3580 H   0  0  0  0  0  0  0  0  0  0  0  0
   -1.1245    2.7444   -4.0785 H   0  0  0  0  0  0  0  0  0  0  0  0
   -3.3400    3.2817   -4.8076 H   0  0  0  0  0  0  0  0  0  0  0  0
   -3.5593    3.0124   -3.4446 H   0  0  0  0  0  0  0  0  0  0  0  0
   -4.5381    5.0900   -3.8526 H   0  0  0  0  0  0  0  0  0  0  0  0
   -3.4668    5.2396   -2.6434 H   0  0  0  0  0  0  0  0  0  0  0  0
   -3.9396    6.6645   -4.1328 H   0  0  0  0  0  0  0  0  0  0  0  0
   -2.5565    5.8805   -4.6665 H   0  0  0  0  0  0  0  0  0  0  0  0
   -3.0966    6.1139   -7.1618 H   0  0  0  0  0  0  0  0  0  0  0  0
   -3.4362    4.3945   -6.8557 H   0  0  0  0  0  0  0  0  0  0  0  0
   -6.8249    5.4960   -7.2749 H   0  0  0  0  0  0  0  0  0  0  0  0
   -5.6998    4.9013   -5.3004 H   0  0  0  0  0  0  0  0  0  0  0  0
   -7.1364    7.4819   -5.9375 H   0  0  0  0  0  0  0  0  0  0  0  0
   -5.8814    7.4727   -5.1137 H   0  0  0  0  0  0  0  0  0  0  0  0
   -5.4705    9.3500   -7.3200 H   0  0  0  0  0  0  0  0  0  0  0  0
   -4.6159    8.8250   -7.1600 H   0  0  0  0  0  0  0  0  0  0  0  0
   -5.8588    5.8268  -10.3103 H   0  0  0  0  0  0  0  0  0  0  0  0
   -4.3785    5.0079   -9.6231 H   0  0  0  0  0  0  0  0  0  0  0  0
   -4.5243    6.7097   -7.4582 H   0  0  0  0  0  0  0  0  0  0  0  0
   -6.6375    4.4192   -7.4597 H   0  0  0  0  0  0  0  0  0  0  0  0
   -6.7050    3.4756  -10.0156 H   0  0  0  0  0  0  0  0  0  0  0  0
   -5.0834    1.9854   -6.9344 H   0  0  0  0  0  0  0  0  0  0  0  0
   -3.8770    2.4783   -7.2197 H   0  0  0  0  0  0  0  0  0  0  0  0
   -0.9119    3.8878   -5.5160 H   0  0  0  0  0  0  0  0  0  0  0  0
   -3.3041    8.4724   -5.8679 H   0  0  0  0  0  0  0  0  0  0  0  0
   -2.9725    9.0745   -6.6289 H   0  0  0  0  0  0  0  0  0  0  0  0
   -5.0413    7.6644   -7.7374 H   0  0  0  0  0  0  0  0  0  0  0  0
   -3.4275    7.5852  -11.7675 H   0  0  0  0  0  0  0  0  0  0  0  0
   -2.8234    5.4326  -11.2051 H   0  0  0  0  0  0  0  0  0  0  0  0
   -4.7684    5.7355  -11.5574 H   0  0  0  0  0  0  0  0  0  0  0  0
   -4.1596    4.5933   -8.1052 H   0  0  0  0  0  0  0  0  0  0  0  0
   -1.6982    6.0456   -8.5321 H   0  0  0  0  0  0  0  0  0  0  0  0
    1.2353    4.0035   -6.6533 H   0  0  0  0  0  0  0  0  0  0  0  0
   -2.7342    1.2661   -6.9368 H   0  0  0  0  0  0  0  0  0  0  0  0
   -1.1793   -0.1698   -7.9201 H   0  0  0  0  0  0  0  0  0  0  0  0
   -0.5014    1.6834   -5.8681 H   0  0  0  0  0  0  0  0  0  0  0  0
    3.0541    1.5802   -6.6169 H   0  0  0  0  0  0  0  0  0  0  0  0
    2.5885    3.9836   -7.3107 H   0  0  0  0  0  0  0  0  0  0  0  0
    2.1691    3.5235   -6.0298 H   0  0  0  0  0  0  0  0  0  0  0  0
   -0.1563    4.0441   -6.6722 H   0  0  0  0  0  0  0  0  0  0  0  0
    0.6233    2.9656   -9.7643 H   0  0  0  0  0  0  0  0  0  0  0  0
   -1.8116    6.2851   -9.3668 H   0  0  0  0  0  0  0  0  0  0  0  0
    2.4379    7.5480   -7.8888 H   0  0  0  0  0  0  0  0  0  0  0  0
    1.6715    9.0357   -8.5738 H   0  0  0  0  0  0  0  0  0  0  0  0
    0.1341    8.0451   -6.4898 H   0  0  0  0  0  0  0  0  0  0  0  0
   -3.1454    9.5351   -8.1462 H   0  0  0  0  0  0  0  0  0  0  0  0
   -2.7850    7.1898   -8.6708 H   0  0  0  0  0  0  0  0  0  0  0  0
   -2.5236    7.8572   -7.1270 H   0  0  0  0  0  0  0  0  0  0  0  0
   -0.0908    5.7782   -7.4194 H   0  0  0  0  0  0  0  0  0  0  0  0
   -0.6344    6.7476  -10.3100 H   0  0  0  0  0  0  0  0  0  0  0  0
   -4.1857    6.8592  -10.8078 H   0  0  0  0  0  0  0  0  0  0  0  0
   -5.2270    3.9525   -9.2751 H   0  0  0  0  0  0  0  0  0  0  0  0
   -4.8411    2.1833  -10.0646 H   0  0  0  0  0  0  0  0  0  0  0  0
   -4.0690    3.4984   -7.2057 H   0  0  0  0  0  0  0  0  0  0  0  0
   -2.4347    0.0864   -7.1421 H   0  0  0  0  0  0  0  0  0  0  0  0
   -0.4111    1.4016   -7.7133 H   0  0  0  0  0  0  0  0  0  0  0  0
   -1.7861    2.0910   -6.2171 H   0  0  0  0  0  0  0  0  0  0  0  0
   -2.2209    4.0544   -7.1242 H   0  0  0  0  0  0  0  0  0  0  0  0
   -1.3916    2.7158  -10.3048 H   0  0  0  0  0  0  0  0  0  0  0  0
    0.4041    2.7230   -6.6610 H   0  0  0  0  0  0  0  0  0  0  0  0
    2.9500    3.3233   -8.3552 H   0  0  0  0  0  0  0  0  0  0  0  0
    3.6738    4.6769   -8.0796 H   0  0  0  0  0  0  0  0  0  0  0  0
    2.2926    4.7197   -5.8703 H   0  0  0  0  0  0  0  0  0  0  0  0
    0.9403    8.1052   -5.6065 H   0  0  0  0  0  0  0  0  0  0  0  0
   -1.2574    5.8967   -5.8738 H   0  0  0  0  0  0  0  0  0  0  0  0
   -0.0690    5.9361   -4.9204 H   0  0  0  0  0  0  0  0  0  0  0  0
    0.9987    3.9145   -5.7097 H   0  0  0  0  0  0  0  0  0  0  0  0
   -0.4352    5.1126   -9.4167 H   0  0  0  0  0  0  0  0  0  0  0  0
   -2.3208    3.6273  -11.2489 H   0  0  0  0  0  0  0  0  0  0  0  0
   -3.9196    2.6594  -10.6637 H   0  0  0  0  0  0  0  0  0  0  0  0
   -5.5591    3.3797  -10.0252 H   0  0  0  0  0  0  0  0  0  0  0  0
   -3.9236    4.8273  -11.2611 H   0  0  0  0  0  0  0  0  0  0  0  0
   -5.6832    8.2696  -10.6369 H   0  0  0  0  0  0  0  0  0  0  0  0
   -4.1376    8.9304   -8.2733 H   0  0  0  0  0  0  0  0  0  0  0  0
   -3.2119    7.4876   -9.6745 H   0  0  0  0  0  0  0  0  0  0  0  0
   -2.9876    6.0340   -9.6486 H   0  0  0  0  0  0  0  0  0  0  0  0
   -4.8225    5.4618   -7.5385 H   0  0  0  0  0  0  0  0  0  0  0  0
   -5.1760    9.2342   -6.0860 H   0  0  0  0  0  0  0  0  0  0  0  0
   -2.6620    6.0296   -3.2545 H   0  0  0  0  0  0  0  0  0  0  0  0
   -2.7941    7.3364   -2.5478 H   0  0  0  0  0  0  0  0  0  0  0  0
   -5.3986    6.6528   -2.3916 H   0  0  0  0  0  0  0  0  0  0  0  0
   -7.2486    8.8403   -4.6311 H   0  0  0  0  0  0  0  0  0  0  0  0
   -7.7747    6.4660   -5.8624 H   0  0  0  0  0  0  0  0  0  0  0  0
   -7.8330    6.4765   -4.1586 H   0  0  0  0  0  0  0  0  0  0  0  0
   -5.8722    4.6825   -3.9919 H   0  0  0  0  0  0  0  0  0  0  0  0
   -4.7374    6.5942   -5.3102 H   0  0  0  0  0  0  0  0  0  0  0  0
   -3.0801    3.3583   -7.2426 H   0  0  0  0  0  0  0  0  0  0  0  0
   -5.1247    2.9760   -8.5303 H   0  0  0  0  0  0  0  0  0  0  0  0
   -6.6411    2.5490  -10.1967 H   0  0  0  0  0  0  0  0  0  0  0  0
   -6.5677    4.5848  -10.5924 H   0  0  0  0  0  0  0  0  0  0  0  0
   -7.4724    7.4858   -8.0764 H   0  0  0  0  0  0  0  0  0  0  0  0
   -4.7790    7.9424   -9.1781 H   0  0  0  0  0  0  0  0  0  0  0  0
   -6.2654    7.3606  -10.7678 H   0  0  0  0  0  0  0  0  0  0  0  0
   -4.1628    5.9539  -10.7648 H   0  0  0  0  0  0  0  0  0  0  0  0
   -3.4090    5.3026   -7.8597 H   0  0  0  0  0  0  0  0  0  0  0  0
   -0.7022    4.9515  -10.5000 H   0  0  0  0  0  0  0  0  0  0  0  0
    1.2265    6.2732   -7.5375 H   0  0  0  0  0  0  0  0  0  0  0  0
    1.3640    7.9249   -7.2773 H   0  0  0  0  0  0  0  0  0  0  0  0
    0.7548    6.8675   -5.0390 H   0  0  0  0  0  0  0  0  0  0  0  0
   -1.7383    6.7058   -3.9960 H   0  0  0  0  0  0  0  0  0  0  0  0
   -2.0761    4.6195   -4.5611 H   0  0  0  0  0  0  0  0  0  0  0  0
   -0.8971    5.4201   -3.9859 H   0  0  0  0  0  0  0  0  0  0  0  0
    0.7729    4.9670   -5.4526 H   0  0  0  0  0  0  0  0  0  0  0  0
   -1.4977    5.0121   -7.6891 H   0  0  0  0  0  0  0  0  0  0  0  0
    0.4147    1.9492   -9.6989 H   0  0  0  0  0  0  0  0  0  0  0  0
   -0.9715    1.2460   -4.8171 H   0  0  0  0  0  0  0  0  0  0  0  0
   -1.0011   -0.4105   -5.5918 H   0  0  0  0  0  0  0  0  0  0  0  0
    1.4075    0.9337   -5.1753 H   0  0  0  0  0  0  0  0  0  0  0  0
    2.8088   -0.3149   -8.4029 H   0  0  0  0  0  0  0  0  0  0  0  0
    2.2502    2.1003   -9.0493 H   0  0  0  0  0  0  0  0  0  0  0  0
    3.5590    1.7398   -7.9156 H   0  0  0  0  0  0  0  0  0  0  0  0
    1.3502    2.6611   -5.9545 H   0  0  0  0  0  0  0  0  0  0  0  0
   -0.4863    2.0735   -8.6402 H   0  0  0  0  0  0  0  0  0  0  0  0
   -1.9961    3.8245   -9.7440 H   0  0  0  0  0  0  0  0  0  0  0  0
    2.1643    6.5569   -8.4111 H   0  0  0  0  0  0  0  0  0  0  0  0
    1.4895    7.2405   -9.3865 H   0  0  0  0  0  0  0  0  0  0  0  0
    0.1532    6.5701   -6.8103 H   0  0  0  0  0  0  0  0  0  0  0  0
   -2.1424    9.6081   -7.1922 H   0  0  0  0  0  0  0  0  0  0  0  0
   -4.0823    6.4749   -8.5484 H   0  0  0  0  0  0  0  0  0  0  0  0
   -2.8010    7.4819   -6.0608 H   0  0  0  0  0  0  0  0  0  0  0  0
   -0.9577    5.5768   -6.8666 H   0  0  0  0  0  0  0  0  0  0  0  0
   -1.5396    6.2352  -10.5753 H   0  0  0  0  0  0  0  0  0  0  0  0
   -1.8342    3.6903  -12.4887 H   0  0  0  0  0  0  0  0  0  0  0  0
   -4.7659    4.5276  -12.2411 H   0  0  0  0  0  0  0  0  0  0  0  0
   -6.2289    3.7090  -11.4896 H   0  0  0  0  0  0  0  0  0  0  0  0
   -6.7152    5.5330   -9.7842 H   0  0  0  0  0  0  0  0  0  0  0  0
   -5.5873    9.3217  -10.7204 H   0  0  0  0  0  0  0  0  0  0  0  0
   -7.4765    8.3303  -12.0830 H   0  0  0  0  0  0  0  0  0  0  0  0
   -7.4707    7.8872  -10.6826 H   0  0  0  0  0  0  0  0  0  0  0  0
   -7.9373    5.8258  -11.0187 H   0  0  0  0  0  0  0  0  0  0  0  0
   -6.1372    6.0546  -13.2183 H   0  0  0  0  0  0  0  0  0  0  0  0
   -7.0879    6.1770  -16.0473 H   0  0  0  0  0  0  0  0  0  0  0  0
  -10.3876    8.0999  -12.6759 H   0  0  0  0  0  0  0  0  0  0  0  0
  -11.6759    7.7259  -13.8138 H   0  0  0  0  0  0  0  0  0  0  0  0
  -11.0097    6.3568  -11.4590 H   0  0  0  0  0  0  0  0  0  0  0  0
  -13.4513    3.9305  -12.4971 H   0  0  0  0  0  0  0  0  0  0  0  0
  -11.0653    2.8568  -13.2518 H   0  0  0  0  0  0  0  0  0  0  0  0
  -11.3171    3.4205  -11.6521 H   0  0  0  0  0  0  0  0  0  0  0  0
   -9.5528    4.5313  -12.2204 H   0  0  0  0  0  0  0  0  0  0  0  0
   -9.2934    4.1023  -14.4813 H   0  0  0  0  0  0  0  0  0  0  0  0
  -10.5899    5.0632  -14.9342 H   0  0  0  0  0  0  0  0  0  0  0  0
  -13.1624    6.1329  -15.1877 H   0  0  0  0  0  0  0  0  0  0  0  0
  -13.0837   -0.3979  -15.2310 H   0  0  0  0  0  0  0  0  0  0  0  0
  -14.1205    3.3117  -19.0578 H   0  0  0  0  0  0  0  0  0  0  0  0
  -14.1647    1.5753  -19.3400 H   0  0  0  0  0  0  0  0  0  0  0  0
   -3.4983    6.9662  -13.4388 H   0  0  0  0  0  0  0  0  0  0  0  0
   -7.1012   11.8982  -14.2734 H   0  0  0  0  0  0  0  0  0  0  0  0
   -3.2991    9.1775  -17.0377 H   0  0  0  0  0  0  0  0  0  0  0  0
   -4.1561   10.5777  -17.6710 H   0  0  0  0  0  0  0  0  0  0  0  0
   -4.8572    9.0647   -9.1230 H   0  0  0  0  0  0  0  0  0  0  0  0
   -5.4483    9.4522  -11.8138 H   0  0  0  0  0  0  0  0  0  0  0  0
   -2.9897   10.2162  -14.1516 H   0  0  0  0  0  0  0  0  0  0  0  0
   -4.4905   10.3162  -13.6707 H   0  0  0  0  0  0  0  0  0  0  0  0
   -0.8115   -1.0721   -8.5104 H   0  0  0  0  0  0  0  0  0  0  0  0
    3.0745    1.9303  -12.9850 H   0  0  0  0  0  0  0  0  0  0  0  0
   -1.6399   -0.3795  -13.5260 H   0  0  0  0  0  0  0  0  0  0  0  0
   -0.7784    0.2469  -14.8049 H   0  0  0  0  0  0  0  0  0  0  0  0
   -4.6690    4.3084   -4.9112 H   0  0  0  0  0  0  0  0  0  0  0  0
   -1.6057    9.3789   -9.9618 H   0  0  0  0  0  0  0  0  0  0  0  0
   -2.7262    9.2235  -11.6026 H   0  0  0  0  0  0  0  0  0  0  0  0
   -4.7032    7.7974  -11.2904 H   0  0  0  0  0  0  0  0  0  0  0  0
   -6.7200    5.0472   -6.3215 H   0  0  0  0  0  0  0  0  0  0  0  0
   -4.2457   11.2930   -5.9300 H   0  0  0  0  0  0  0  0  0  0  0  0
   -4.2853    7.2583   -2.1254 H   0  0  0  0  0  0  0  0  0  0  0  0
   -3.7885    8.7777   -1.9057 H   0  0  0  0  0  0  0  0  0  0  0  0
   -7.3878    8.1114   -7.1188 H   0  0  0  0  0  0  0  0  0  0  0  0
   -6.8252   10.2384  -10.3623 H   0  0  0  0  0  0  0  0  0  0  0  0
   -6.6785    8.8822  -10.8137 H   0  0  0  0  0  0  0  0  0  0  0  0
   -7.9511    8.8298   -9.7688 H   0  0  0  0  0  0  0  0  0  0  0  0
   -3.0713   10.3531   -7.2251 H   0  0  0  0  0  0  0  0  0  0  0  0
   -6.5352   10.0738   -7.5316 H   0  0  0  0  0  0  0  0  0  0  0  0
   -8.8328   10.2736   -6.3286 H   0  0  0  0  0  0  0  0  0  0  0  0
   -7.9706    9.6072   -5.1298 H   0  0  0  0  0  0  0  0  0  0  0  0
   -7.1164   10.5758   -6.2921 H   0  0  0  0  0  0  0  0  0  0  0  0
   -9.0014    5.6361   -7.7144 H   0  0  0  0  0  0  0  0  0  0  0  0
   -1.4296    8.1846   -6.6692 H   0  0  0  0  0  0  0  0  0  0  0  0
    4.1911    7.0333  -10.7240 H   0  0  0  0  0  0  0  0  0  0  0  0
    3.8403    7.9591  -12.1987 H   0  0  0  0  0  0  0  0  0  0  0  0
    1.7374    9.0589  -12.5293 H   0  0  0  0  0  0  0  0  0  0  0  0
    0.2199    0.0398   -8.1675 H   0  0  0  0  0  0  0  0  0  0  0  0
   -5.7333    0.6790  -11.9524 H   0  0  0  0  0  0  0  0  0  0  0  0
   -5.2750   -0.2167  -13.3917 H   0  0  0  0  0  0  0  0  0  0  0  0
   -3.0567   -1.1316  -13.5480 H   0  0  0  0  0  0  0  0  0  0  0  0
   -4.6328    8.8440  -10.3914 H   0  0  0  0  0  0  0  0  0  0  0  0
    2.1072   10.8323  -10.7198 H   0  0  0  0  0  0  0  0  0  0  0  0
    2.0207   11.3735  -12.3970 H   0  0  0  0  0  0  0  0  0  0  0  0
   -0.0562   11.1667  -13.6301 H   0  0  0  0  0  0  0  0  0  0  0  0
    1.6005    0.7952   -9.8425 H   0  0  0  0  0  0  0  0  0  0  0  0
    6.0499    4.7905   -9.7215 H   0  0  0  0  0  0  0  0  0  0  0  0
    4.1013    1.5138  -13.6280 H   0  0  0  0  0  0  0  0  0  0  0  0
    5.3374    2.6693  -13.8387 H   0  0  0  0  0  0  0  0  0  0  0  0
   -1.7069    6.1814  -12.8781 H   0  0  0  0  0  0  0  0  0  0  0  0
    1.4351    6.4881  -13.6776 H   0  0  0  0  0  0  0  0  0  0  0  0
    1.6471    5.1684  -12.5380 H   0  0  0  0  0  0  0  0  0  0  0  0
    0.1868    5.2627  -13.5145 H   0  0  0  0  0  0  0  0  0  0  0  0
    1.3753    9.0255   -9.9911 H   0  0  0  0  0  0  0  0  0  0  0  0
  1  2  1  0  0  0  0
  1296  1  0  0  0  0
  1297  1  0  0  0  0
  1298  1  0  0  0  0
  2  3  1  0  0  0  0
  2299  1  0  0  0  0
  2300  1  0  0  0  0
  3  4  1  0  0  0  0
  3301  1  0  0  0  0
  3302  1  0  0  0  0
  4  5  1  0  0  0  0
  4303  1  0  0  0  0
  4304  1  0  0  0  0
  5  6  1  0  0  0  0
  5305  1  0  0  0  0
  5306  1  0  0  0  0
  6  7  1  0  0  0  0
  6307  1  0  0  0  0
  6308  1  0  0  0  0
  7  8  1  0  0  0  0
  7309  1  0  0  0  0
  7310  1  0  0  0  0
  8  9  1  0  0  0  0
  8311  1  0  0  0  0
  8312  1  0  0  0  0
  9 10  1  0  0  0  0
  9313  1  0  0  0  0
  9314  1  0  0  0  0
 10 11  1  0  0  0  0
 10315  1  0  0  0  0
 10316  1  0  0  0  0
 11 12  1  0  0  0  0
 11317  1  0  0  0  0
 11318  1  0  0  0  0
 12 13  1  0  0  0  0
 12319  1  0  0  0  0
 12320  1  0  0  0  0
 13 14  1  0  0  0  0
 13321  1  0  0  0  0
 13322  1  0  0  0  0
 14 15  1  0  0  0  0
 14323  1  0  0  0  0
 14324  1  0  0  0  0
 15 16  1  0  0  0  0
 15325  1  0  0  0  0
 15326  1  0  0  0  0
 16 17  2  0  0  0  0
 16 18  1  0  0  0  0
 18 19  1  0  0  0  0
 18327  1  0  0  0  0
 19 20  1  0  0  0  0
 19328  1  0  0  0  0
 19329  1  0  0  0  0
 20 21  1  0  0  0  0
 20 22  1  0  0  0  0
 20330  1  0  0  0  0
 21331  1  0  0  0  0
 22 23  1  0  0  0  0
 22332  1  0  0  0  0
 22333  1  0  0  0  0
 23 24  1  0  0  0  0
 24 25  1  0  0  0  0
 24 26  2  0  0  0  0
 24 27  1  0  0  0  0
 25334  1  0  0  0  0
 27 28  1  0  0  0  0
 28 29  1  0  0  0  0
 28335  1  0  0  0  0
 28336  1  0  0  0  0
 29 30  1  0  0  0  0
 29 33  1  0  0  0  0
 29337  1  0  0  0  0
 30 31  1  0  0  0  0
 31 32  1  0  0  0  0
 31287  1  0  0  0  0
 31338  1  0  0  0  0
 32 33  1  0  0  0  0
 32339  1  0  0  0  0
 32340  1  0  0  0  0
 33 34  1  0  0  0  0
 33341  1  0  0  0  0
 34 35  1  0  0  0  0
 34342  1  0  0  0  0
 35 36  1  0  0  0  0
 35 37  2  0  0  0  0
 35 38  1  0  0  0  0
 36343  1  0  0  0  0
 38 39  1  0  0  0  0
 39 40  1  0  0  0  0
 39344  1  0  0  0  0
 39345  1  0  0  0  0
 40 41  1  0  0  0  0
 40 44  1  0  0  0  0
 40346  1  0  0  0  0
 41 42  1  0  0  0  0
 42 43  1  0  0  0  0
 42277  1  0  0  0  0
 42347  1  0  0  0  0
 43 44  1  0  0  0  0
 43348  1  0  0  0  0
 43349  1  0  0  0  0
 44 45  1  0  0  0  0
 44350  1  0  0  0  0
 45 46  1  0  0  0  0
 45351  1  0  0  0  0
 46 47  1  0  0  0  0
 46 48  2  0  0  0  0
 46 49  1  0  0  0  0
 47352  1  0  0  0  0
 49 50  1  0  0  0  0
 50 51  1  0  0  0  0
 50353  1  0  0  0  0
 50354  1  0  0  0  0
 51 52  1  0  0  0  0
 51 55  1  0  0  0  0
 51355  1  0  0  0  0
 52 53  1  0  0  0  0
 53 54  1  0  0  0  0
 53266  1  0  0  0  0
 53356  1  0  0  0  0
 54 55  1  0  0  0  0
 54357  1  0  0  0  0
 54358  1  0  0  0  0
 55 56  1  0  0  0  0
 55359  1  0  0  0  0
 56 57  1  0  0  0  0
 56360  1  0  0  0  0
 57 58  1  0  0  0  0
 57 59  2  0  0  0  0
 57 60  1  0  0  0  0
 58361  1  0  0  0  0
 60 61  1  0  0  0  0
 61 62  1  0  0  0  0
 61362  1  0  0  0  0
 61363  1  0  0  0  0
 62 63  1  0  0  0  0
 62 66  1  0  0  0  0
 62364  1  0  0  0  0
 63 64  1  0  0  0  0
 64 65  1  0  0  0  0
 64255  1  0  0  0  0
 64365  1  0  0  0  0
 65 66  1  0  0  0  0
 65366  1  0  0  0  0
 65367  1  0  0  0  0
 66 67  1  0  0  0  0
 66368  1  0  0  0  0
 67 68  1  0  0  0  0
 67369  1  0  0  0  0
 68 69  1  0  0  0  0
 68 70  2  0  0  0  0
 68 71  1  0  0  0  0
 69370  1  0  0  0  0
 71 72  1  0  0  0  0
 72 73  1  0  0  0  0
 72371  1  0  0  0  0
 72372  1  0  0  0  0
 73 74  1  0  0  0  0
 73 77  1  0  0  0  0
 73373  1  0  0  0  0
 74 75  1  0  0  0  0
 75 76  1  0  0  0  0
 75244  1  0  0  0  0
 75374  1  0  0  0  0
 76 77  1  0  0  0  0
 76375  1  0  0  0  0
 76376  1  0  0  0  0
 77 78  1  0  0  0  0
 77377  1  0  0  0  0
 78 79  1  0  0  0  0
 78378  1  0  0  0  0
 79 80  1  0  0  0  0
 79 81  2  0  0  0  0
 79 82  1  0  0  0  0
 80379  1  0  0  0  0
 82 83  1  0  0  0  0
 83 84  1  0  0  0  0
 83380  1  0  0  0  0
 83381  1  0  0  0  0
 84 85  1  0  0  0  0
 84 88  1  0  0  0  0
 84382  1  0  0  0  0
 85 86  1  0  0  0  0
 86 87  1  0  0  0  0
 86235  1  0  0  0  0
 86383  1  0  0  0  0
 87 88  1  0  0  0  0
 87384  1  0  0  0  0
 87385  1  0  0  0  0
 88 89  1  0  0  0  0
 88386  1  0  0  0  0
 89 90  1  0  0  0  0
 89387  1  0  0  0  0
 90 91  1  0  0  0  0
 90 92  2  0  0  0  0
 90 93  1  0  0  0  0
 91388  1  0  0  0  0
 93 94  1  0  0  0  0
 94 95  1  0  0  0  0
 94389  1  0  0  0  0
 94390  1  0  0  0  0
 95 96  1  0  0  0  0
 95 99  1  0  0  0  0
 95391  1  0  0  0  0
 96 97  1  0  0  0  0
 97 98  1  0  0  0  0
 97226  1  0  0  0  0
 97392  1  0  0  0  0
 98 99  1  0  0  0  0
 98393  1  0  0  0  0
 98394  1  0  0  0  0
 99100  1  0  0  0  0
 99395  1  0  0  0  0
100101  1  0  0  0  0
100396  1  0  0  0  0
101102  1  0  0  0  0
101103  2  0  0  0  0
101104  1  0  0  0  0
102397  1  0  0  0  0
104105  1  0  0  0  0
105106  1  0  0  0  0
105398  1  0  0  0  0
105399  1  0  0  0  0
106107  1  0  0  0  0
106110  1  0  0  0  0
106400  1  0  0  0  0
107108  1  0  0  0  0
108109  1  0  0  0  0
108216  1  0  0  0  0
108401  1  0  0  0  0
109110  1  0  0  0  0
109402  1  0  0  0  0
109403  1  0  0  0  0
110111  1  0  0  0  0
110404  1  0  0  0  0
111112  1  0  0  0  0
111405  1  0  0  0  0
112113  1  0  0  0  0
112114  2  0  0  0  0
112115  1  0  0  0  0
113406  1  0  0  0  0
115116  1  0  0  0  0
116117  1  0  0  0  0
116407  1  0  0  0  0
116408  1  0  0  0  0
117118  1  0  0  0  0
117121  1  0  0  0  0
117409  1  0  0  0  0
118119  1  0  0  0  0
119120  1  0  0  0  0
119205  1  0  0  0  0
119410  1  0  0  0  0
120121  1  0  0  0  0
120411  1  0  0  0  0
120412  1  0  0  0  0
121122  1  0  0  0  0
121413  1  0  0  0  0
122123  1  0  0  0  0
122414  1  0  0  0  0
123124  1  0  0  0  0
123125  2  0  0  0  0
123126  1  0  0  0  0
124415  1  0  0  0  0
126127  1  0  0  0  0
127128  1  0  0  0  0
127416  1  0  0  0  0
127417  1  0  0  0  0
128129  1  0  0  0  0
128132  1  0  0  0  0
128418  1  0  0  0  0
129130  1  0  0  0  0
130131  1  0  0  0  0
130195  1  0  0  0  0
130419  1  0  0  0  0
131132  1  0  0  0  0
131420  1  0  0  0  0
131421  1  0  0  0  0
132133  1  0  0  0  0
132422  1  0  0  0  0
133134  1  0  0  0  0
133423  1  0  0  0  0
134135  1  0  0  0  0
134136  2  0  0  0  0
134137  1  0  0  0  0
135424  1  0  0  0  0
137138  1  0  0  0  0
138139  1  0  0  0  0
138425  1  0  0  0  0
138426  1  0  0  0  0
139140  1  0  0  0  0
139143  1  0  0  0  0
139427  1  0  0  0  0
140141  1  0  0  0  0
141142  1  0  0  0  0
141187  1  0  0  0  0
141428  1  0  0  0  0
142143  1  0  0  0  0
142429  1  0  0  0  0
142430  1  0  0  0  0
143144  1  0  0  0  0
143431  1  0  0  0  0
144145  1  0  0  0  0
144432  1  0  0  0  0
145146  1  0  0  0  0
145147  2  0  0  0  0
145148  1  0  0  0  0
146433  1  0  0  0  0
148149  1  0  0  0  0
149150  1  0  0  0  0
149434  1  0  0  0  0
149435  1  0  0  0  0
150151  1  0  0  0  0
150154  1  0  0  0  0
150436  1  0  0  0  0
151152  1  0  0  0  0
152153  1  0  0  0  0
152177  1  0  0  0  0
152437  1  0  0  0  0
153154  1  0  0  0  0
153438  1  0  0  0  0
153439  1  0  0  0  0
154155  1  0  0  0  0
154440  1  0  0  0  0
155156  1  0  0  0  0
155441  1  0  0  0  0
156157  1  0  0  0  0
156158  2  0  0  0  0
156159  1  0  0  0  0
157442  1  0  0  0  0
159160  1  0  0  0  0
160161  1  0  0  0  0
160443  1  0  0  0  0
160444  1  0  0  0  0
161162  1  0  0  0  0
161165  1  0  0  0  0
161445  1  0  0  0  0
162163  1  0  0  0  0
163164  1  0  0  0  0
163167  1  0  0  0  0
163446  1  0  0  0  0
164165  1  0  0  0  0
164447  1  0  0  0  0
164448  1  0  0  0  0
165166  1  0  0  0  0
165449  1  0  0  0  0
166450  1  0  0  0  0
166451  1  0  0  0  0
167168  1  0  0  0  0
167171  1  0  0  0  0
168169  2  0  0  0  0
168452  1  0  0  0  0
169170  1  0  0  0  0
170171  2  0  0  0  0
170175  1  0  0  0  0
171172  1  0  0  0  0
172173  2  0  0  0  0
173174  1  0  0  0  0
173453  1  0  0  0  0
174175  2  0  0  0  0
175176  1  0  0  0  0
176454  1  0  0  0  0
176455  1  0  0  0  0
177178  1  0  0  0  0
177181  1  0  0  0  0
178179  2  0  0  0  0
178456  1  0  0  0  0
179180  1  0  0  0  0
180181  2  0  0  0  0
180185  1  0  0  0  0
181182  1  0  0  0  0
182183  2  0  0  0  0
183184  1  0  0  0  0
183457  1  0  0  0  0
184185  2  0  0  0  0
185186  1  0  0  0  0
186458  1  0  0  0  0
186459  1  0  0  0  0
187188  1  0  0  0  0
187193  1  0  0  0  0
188189  2  0  0  0  0
188460  1  0  0  0  0
189190  1  0  0  0  0
189461  1  0  0  0  0
190191  1  0  0  0  0
190192  2  0  0  0  0
191462  1  0  0  0  0
191463  1  0  0  0  0
192193  1  0  0  0  0
193194  2  0  0  0  0
195196  1  0  0  0  0
195199  1  0  0  0  0
196197  2  0  0  0  0
196464  1  0  0  0  0
197198  1  0  0  0  0
198199  2  0  0  0  0
198203  1  0  0  0  0
199200  1  0  0  0  0
200201  2  0  0  0  0
201202  1  0  0  0  0
201465  1  0  0  0  0
202203  2  0  0  0  0
203204  1  0  0  0  0
204466  1  0  0  0  0
204467  1  0  0  0  0
205206  1  0  0  0  0
205209  1  0  0  0  0
206207  2  0  0  0  0
206468  1  0  0  0  0
207208  1  0  0  0  0
208209  2  0  0  0  0
208214  1  0  0  0  0
209210  1  0  0  0  0
210211  2  0  0  0  0
211212  1  0  0  0  0
211213  1  0  0  0  0
212469  1  0  0  0  0
212470  1  0  0  0  0
213214  1  0  0  0  0
213471  1  0  0  0  0
214215  2  0  0  0  0
216217  1  0  0  0  0
216220  1  0  0  0  0
217218  2  0  0  0  0
217472  1  0  0  0  0
218219  1  0  0  0  0
219220  2  0  0  0  0
219224  1  0  0  0  0
220221  1  0  0  0  0
221222  2  0  0  0  0
222223  1  0  0  0  0
222473  1  0  0  0  0
223224  2  0  0  0  0
224225  1  0  0  0  0
225474  1  0  0  0  0
225475  1  0  0  0  0
226227  1  0  0  0  0
226233  1  0  0  0  0
227228  2  0  0  0  0
227476  1  0  0  0  0
228229  1  0  0  0  0
228230  1  0  0  0  0
229477  1  0  0  0  0
229478  1  0  0  0  0
229479  1  0  0  0  0
230231  2  0  0  0  0
230232  1  0  0  0  0
232233  1  0  0  0  0
232480  1  0  0  0  0
233234  2  0  0  0  0
235236  1  0  0  0  0
235242  1  0  0  0  0
236237  2  0  0  0  0
236481  1  0  0  0  0
237238  1  0  0  0  0
237239  1  0  0  0  0
238482  1  0  0  0  0
238483  1  0  0  0  0
238484  1  0  0  0  0
239240  2  0  0  0  0
239241  1  0  0  0  0
241242  1  0  0  0  0
241485  1  0  0  0  0
242243  2  0  0  0  0
244245  1  0  0  0  0
244248  1  0  0  0  0
245246  2  0  0  0  0
245486  1  0  0  0  0
246247  1  0  0  0  0
247248  2  0  0  0  0
247253  1  0  0  0  0
248249  1  0  0  0  0
249250  2  0  0  0  0
250251  1  0  0  0  0
250252  1  0  0  0  0
251487  1  0  0  0  0
251488  1  0  0  0  0
252253  1  0  0  0  0
252489  1  0  0  0  0
253254  2  0  0  0  0
255256  1  0  0  0  0
255259  1  0  0  0  0
256257  2  0  0  0  0
256490  1  0  0  0  0
257258  1  0  0  0  0
258259  2  0  0  0  0
258264  1  0  0  0  0
259260  1  0  0  0  0
260261  2  0  0  0  0
261262  1  0  0  0  0
261263  1  0  0  0  0
262491  1  0  0  0  0
262492  1  0  0  0  0
263264  1  0  0  0  0
263493  1  0  0  0  0
264265  2  0  0  0  0
266267  1  0  0  0  0
266270  1  0  0  0  0
267268  2  0  0  0  0
267494  1  0  0  0  0
268269  1  0  0  0  0
269270  2  0  0  0  0
269275  1  0  0  0  0
270271  1  0  0  0  0
271272  2  0  0  0  0
272273  1  0  0  0  0
272274  1  0  0  0  0
273495  1  0  0  0  0
273496  1  0  0  0  0
274275  1  0  0  0  0
274497  1  0  0  0  0
275276  2  0  0  0  0
277278  1  0  0  0  0
277281  1  0  0  0  0
278279  2  0  0  0  0
278498  1  0  0  0  0
279280  1  0  0  0  0
280281  2  0  0  0  0
280285  1  0  0  0  0
281282  1  0  0  0  0
282283  2  0  0  0  0
283284  1  0  0  0  0
283499  1  0  0  0  0
284285  2  0  0  0  0
285286  1  0  0  0  0
286500  1  0  0  0  0
286501  1  0  0  0  0
287288  1  0  0  0  0
287294  1  0  0  0  0
288289  2  0  0  0  0
288502  1  0  0  0  0
289290  1  0  0  0  0
289291  1  0  0  0  0
290503  1  0  0  0  0
290504  1  0  0  0  0
290505  1  0  0  0  0
291292  2  0  0  0  0
291293  1  0  0  0  0
293294  1  0  0  0  0
293506  1  0  0  0  0
294295  2  0  0  0  0
M  END
>  <DRUGBANK_ID>
DB14909

>  <COMMON_NAME>
Imetelstat

>  <CAS_NUMBER>
868169-64-6

>  <UNII>
F60NE4XB53

>  <SYNONYMS>
Imetelstat

$$$$
