
 OpenBabel10282417123D

 23 24  0  0  0  0  0  0  0  0999 V2000
    1.0119   -0.0242   -0.1002 C   0  0  0  0  0  0  0  0  0  0  0  0
    1.7608    4.7902    0.0313 C   0  0  0  0  0  0  0  0  0  0  0  0
   -0.9636    2.7582   -1.5138 C   0  0  0  0  0  0  0  0  0  0  0  0
   -0.5721    1.5229   -1.1633 C   0  0  0  0  0  0  0  0  0  0  0  0
   -0.2047    3.9408   -1.1110 C   0  0  0  0  0  0  0  0  0  0  0  0
   -2.3167    1.3470   -2.6365 C   0  0  0  0  0  0  0  0  0  0  0  0
    1.3614    2.3806    0.0016 C   0  0  0  0  0  0  0  0  0  0  0  0
   -3.0720    0.8143   -3.5195 N   0  0  0  0  0  0  0  0  0  0  0  0
   -2.0536    2.6725   -2.3627 N   0  0  0  0  0  0  0  0  0  0  0  0
   -1.4784    0.6669   -1.7691 N   0  0  0  0  0  0  0  0  0  0  0  0
    0.5621    1.3156   -0.4294 N   0  0  0  0  0  0  0  0  0  0  0  0
    0.9382    3.6626   -0.3678 N   0  0  0  0  0  0  0  0  0  0  0  0
   -0.5783    5.0656   -1.4476 O   0  0  0  0  0  0  0  0  0  0  0  0
    2.3847    2.1913    0.6613 O   0  0  0  0  0  0  0  0  0  0  0  0
    0.6552   -0.7598   -0.8252 H   0  0  0  0  0  0  0  0  0  0  0  0
    0.6554   -0.2748    0.9032 H   0  0  0  0  0  0  0  0  0  0  0  0
    2.1073   -0.0643   -0.0934 H   0  0  0  0  0  0  0  0  0  0  0  0
    2.0918    5.3283   -0.8630 H   0  0  0  0  0  0  0  0  0  0  0  0
    1.1605    5.4691    0.6441 H   0  0  0  0  0  0  0  0  0  0  0  0
    2.6434    4.4886    0.6023 H   0  0  0  0  0  0  0  0  0  0  0  0
   -3.5019    1.5323   -4.1087 H   0  0  0  0  0  0  0  0  0  0  0  0
   -2.5473    3.4924   -2.6800 H   0  0  0  0  0  0  0  0  0  0  0  0
   -1.4668   -0.3346   -1.6893 H   0  0  0  0  0  0  0  0  0  0  0  0
  1 15  1  0  0  0  0
  1 16  1  0  0  0  0
  1 17  1  0  0  0  0
  2 18  1  0  0  0  0
  2 19  1  0  0  0  0
  2 20  1  0  0  0  0
  4  3  2  0  0  0  0
  5  3  1  0  0  0  0
  8  6  2  0  0  0  0
  8 21  1  0  0  0  0
  9  3  1  0  0  0  0
  9  6  1  0  0  0  0
  9 22  1  0  0  0  0
 10  4  1  0  0  0  0
 10  6  1  0  0  0  0
 10 23  1  0  0  0  0
 11  1  1  0  0  0  0
 11  4  1  0  0  0  0
 11  7  1  0  0  0  0
 12  2  1  0  0  0  0
 12  5  1  0  0  0  0
 12  7  1  0  0  0  0
 13  5  2  0  0  0  0
 14  7  2  0  0  0  0
M  END
>  <DRUGBANK_ID>
DB01778

>  <SECONDARY_ACCESSION_NUMBERS>
EXPT00087

>  <COMMON_NAME>
8-Aminotheophylline

>  <CAS_NUMBER>
19410-53-8

>  <SYNONYMS>
8-Amino-1,3-dimethyl-3,7-dihydropurine-2,6-dione

$$$$
