
 OpenBabel10282417143D

 32 33  0  0  0  0  0  0  0  0999 V2000
   -0.3929    2.6326   -2.7209 C   0  0  0  0  0  0  0  0  0  0  0  0
   -0.2972    2.9404   -1.2314 C   0  0  0  0  0  0  0  0  0  0  0  0
    0.8754    2.2305   -0.5331 C   0  0  1  0  0  0  0  0  0  0  0  0
    1.9816    1.9324   -1.5247 C   0  0  0  0  0  0  0  0  0  0  0  0
    2.1412    0.8870   -2.1467 O   0  0  0  0  0  0  0  0  0  0  0  0
    2.6802    3.0871   -1.7757 N   0  0  0  0  0  0  0  0  0  0  0  0
    2.8704    3.9286   -0.6147 C   0  0  0  0  0  0  0  0  0  0  0  0
    1.6173    3.4220    0.6078 S   0  0  0  0  0  0  0  0  0  0  0  0
    2.6725    5.4007   -0.9539 C   0  0  0  0  0  0  0  0  0  0  0  0
    3.8723    5.9081   -1.7468 C   0  0  0  0  0  0  0  0  0  0  0  0
    5.1478    5.6466   -1.0587 N   0  0  0  0  0  0  0  0  0  0  0  0
    5.3379    4.2075   -0.8159 C   0  0  0  0  0  0  0  0  0  0  0  0
    4.2185    3.6184    0.0320 C   0  0  0  0  0  0  0  0  0  0  0  0
    5.2341    6.4050    0.1964 C   0  0  0  0  0  0  0  0  0  0  0  0
    0.4536    3.0632   -3.2708 H   0  0  0  0  0  0  0  0  0  0  0  0
   -1.2985    3.0660   -3.1473 H   0  0  0  0  0  0  0  0  0  0  0  0
   -0.4017    1.5523   -2.8882 H   0  0  0  0  0  0  0  0  0  0  0  0
   -0.2536    4.0350   -1.1313 H   0  0  0  0  0  0  0  0  0  0  0  0
   -1.2222    2.6343   -0.7329 H   0  0  0  0  0  0  0  0  0  0  0  0
    0.5862    1.3386    0.0234 H   0  0  0  0  0  0  0  0  0  0  0  0
    3.3255    3.0903   -2.5578 H   0  0  0  0  0  0  0  0  0  0  0  0
    2.5683    5.9938   -0.0368 H   0  0  0  0  0  0  0  0  0  0  0  0
    1.7503    5.5691   -1.5250 H   0  0  0  0  0  0  0  0  0  0  0  0
    3.7585    6.9806   -1.9440 H   0  0  0  0  0  0  0  0  0  0  0  0
    3.8865    5.4314   -2.7368 H   0  0  0  0  0  0  0  0  0  0  0  0
    5.3923    3.6769   -1.7766 H   0  0  0  0  0  0  0  0  0  0  0  0
    6.3020    4.0226   -0.3288 H   0  0  0  0  0  0  0  0  0  0  0  0
    4.2681    4.0390    1.0438 H   0  0  0  0  0  0  0  0  0  0  0  0
    4.3730    2.5371    0.1491 H   0  0  0  0  0  0  0  0  0  0  0  0
    4.4599    6.1403    0.9249 H   0  0  0  0  0  0  0  0  0  0  0  0
    6.1995    6.2341    0.6807 H   0  0  0  0  0  0  0  0  0  0  0  0
    5.1366    7.4766    0.0033 H   0  0  0  0  0  0  0  0  0  0  0  0
  1  2  1  0  0  0  0
  1 15  1  0  0  0  0
  1 16  1  0  0  0  0
  1 17  1  0  0  0  0
  2 18  1  0  0  0  0
  2 19  1  0  0  0  0
  3  4  1  0  0  0  0
  3  8  1  0  0  0  0
  3 20  1  1  0  0  0
  3  2  1  0  0  0  0
  4  5  2  0  0  0  0
  4  6  1  0  0  0  0
  6  7  1  0  0  0  0
  6 21  1  0  0  0  0
  7  8  1  0  0  0  0
  7  9  1  0  0  0  0
  7 13  1  0  0  0  0
  9 10  1  0  0  0  0
  9 22  1  0  0  0  0
  9 23  1  0  0  0  0
 10 11  1  0  0  0  0
 10 24  1  0  0  0  0
 10 25  1  0  0  0  0
 11 12  1  0  0  0  0
 11 14  1  0  0  0  0
 12 13  1  0  0  0  0
 12 26  1  0  0  0  0
 12 27  1  0  0  0  0
 13 28  1  0  0  0  0
 13 29  1  0  0  0  0
 14 30  1  0  0  0  0
 14 31  1  0  0  0  0
 14 32  1  0  0  0  0
M  END
>  <DRUGBANK_ID>
DB05152

>  <COMMON_NAME>
NGX267

>  <CAS_NUMBER>
503431-81-0

>  <UNII>
8D3PZX7G73

$$$$
