
 OpenBabel10282417243D

 69 71  0  0  1  0  0  0  0  0999 V2000
    4.6375    3.7201    0.6394 C   0  0  0  0  0  0  0  0  0  0  0  0
    3.5949    4.3830   -0.2877 C   0  0  1  0  0  0  0  0  0  0  0  0
    2.3088    3.7982   -0.1365 O   0  0  0  0  0  0  0  0  0  0  0  0
    2.2665    2.4099   -0.4747 C   0  0  0  0  0  0  0  0  0  0  0  0
    2.7557    2.0498   -1.9039 C   0  0  2  0  0  0  0  0  0  0  0  0
    2.2511    0.7658   -2.2852 O   0  0  0  0  0  0  0  0  0  0  0  0
    4.2828    1.9151   -1.9544 C   0  0  0  0  0  0  0  0  0  0  0  0
    4.8678    1.6769   -3.2702 N   0  0  0  0  0  0  0  0  0  0  0  0
    6.3504    1.7530   -3.2344 C   0  0  0  0  0  0  0  0  0  0  0  0
    6.9023    0.7051   -2.2560 C   0  0  0  0  0  0  0  0  0  0  0  0
    6.9216    1.3858   -4.6285 C   0  0  0  0  0  0  0  0  0  0  0  0
    6.8671    3.1625   -2.7779 C   0  0  0  0  0  0  0  0  0  0  0  0
    6.5056    4.3296   -3.6536 C   0  0  0  0  0  0  0  0  0  0  0  0
    5.8154    4.1695   -4.8504 C   0  0  0  0  0  0  0  0  0  0  0  0
    6.0251    5.0650   -5.8805 C   0  0  0  0  0  0  0  0  0  0  0  0
    6.6812    6.2733   -5.6160 C   0  0  0  0  0  0  0  0  0  0  0  0
    6.9188    7.4914   -6.8223 Cl  0  0  0  0  0  0  0  0  0  0  0  0
    7.0259    6.5739   -4.3067 C   0  0  0  0  0  0  0  0  0  0  0  0
    7.2455    7.8436   -3.9376 F   0  0  0  0  0  0  0  0  0  0  0  0
    7.0071    5.5897   -3.3353 C   0  0  0  0  0  0  0  0  0  0  0  0
    3.5373    5.8751   -0.1168 C   0  0  0  0  0  0  0  0  0  0  0  0
    3.6250    6.3897    1.1861 C   0  0  0  0  0  0  0  0  0  0  0  0
    3.7979    7.7428    1.3948 C   0  0  0  0  0  0  0  0  0  0  0  0
    3.9129    8.5881    0.2996 C   0  0  0  0  0  0  0  0  0  0  0  0
    3.8168    8.0865   -1.0051 C   0  0  0  0  0  0  0  0  0  0  0  0
    3.5226    6.7353   -1.2476 C   0  0  0  0  0  0  0  0  0  0  0  0
    3.1215    6.2942   -2.6224 C   0  0  0  0  0  0  0  0  0  0  0  0
    1.9149    5.6288   -2.8624 C   0  0  0  0  0  0  0  0  0  0  0  0
    1.5299    5.2197   -4.1615 C   0  0  0  0  0  0  0  0  0  0  0  0
    2.3049    5.5004   -5.2929 C   0  0  0  0  0  0  0  0  0  0  0  0
    1.8924    4.9472   -6.6318 C   0  0  0  0  0  0  0  0  0  0  0  0
    2.7236    4.9598   -7.6944 O   0  0  0  0  0  0  0  0  0  0  0  0
    0.7791    4.4176   -6.7594 O   0  0  0  0  0  0  0  0  0  0  0  0
    3.3476    6.3940   -5.0917 C   0  0  0  0  0  0  0  0  0  0  0  0
    3.8432    7.1880   -6.2539 C   0  0  0  0  0  0  0  0  0  0  0  0
    3.8204    6.6667   -3.7706 C   0  0  0  0  0  0  0  0  0  0  0  0
    4.3526    3.8088    1.6899 H   0  0  0  0  0  0  0  0  0  0  0  0
    5.6329    4.1476    0.4880 H   0  0  0  0  0  0  0  0  0  0  0  0
    4.7291    2.6413    0.4914 H   0  0  0  0  0  0  0  0  0  0  0  0
    3.8912    4.2909   -1.3267 H   0  0  0  0  0  0  0  0  0  0  0  0
    2.8127    1.8329    0.2802 H   0  0  0  0  0  0  0  0  0  0  0  0
    1.2242    2.1005   -0.3502 H   0  0  0  0  0  0  0  0  0  0  0  0
    2.4123    2.8033   -2.6194 H   0  0  0  0  0  0  0  0  0  0  0  0
    1.4076    0.6273   -1.8272 H   0  0  0  0  0  0  0  0  0  0  0  0
    4.7573    2.8108   -1.6147 H   0  0  0  0  0  0  0  0  0  0  0  0
    4.5674    1.1298   -1.2506 H   0  0  0  0  0  0  0  0  0  0  0  0
    4.5232    0.7791   -3.6084 H   0  0  0  0  0  0  0  0  0  0  0  0
    6.5341   -0.2902   -2.5249 H   0  0  0  0  0  0  0  0  0  0  0  0
    7.9955    0.6918   -2.2815 H   0  0  0  0  0  0  0  0  0  0  0  0
    6.6197    0.9115   -1.2192 H   0  0  0  0  0  0  0  0  0  0  0  0
    6.6641    2.0599   -5.4457 H   0  0  0  0  0  0  0  0  0  0  0  0
    8.0158    1.3835   -4.6017 H   0  0  0  0  0  0  0  0  0  0  0  0
    6.5631    0.4055   -4.9508 H   0  0  0  0  0  0  0  0  0  0  0  0
    6.5948    3.4033   -1.7433 H   0  0  0  0  0  0  0  0  0  0  0  0
    7.9660    3.1299   -2.7684 H   0  0  0  0  0  0  0  0  0  0  0  0
    5.1722    3.3099   -5.0407 H   0  0  0  0  0  0  0  0  0  0  0  0
    5.5499    4.8128   -6.8237 H   0  0  0  0  0  0  0  0  0  0  0  0
    7.3676    5.8163   -2.3392 H   0  0  0  0  0  0  0  0  0  0  0  0
    3.5665    5.7252    2.0442 H   0  0  0  0  0  0  0  0  0  0  0  0
    3.8606    8.1194    2.4103 H   0  0  0  0  0  0  0  0  0  0  0  0
    4.0350    9.6543    0.4610 H   0  0  0  0  0  0  0  0  0  0  0  0
    3.9355    8.7803   -1.8341 H   0  0  0  0  0  0  0  0  0  0  0  0
    1.2441    5.4286   -2.0286 H   0  0  0  0  0  0  0  0  0  0  0  0
    0.5686    4.7270   -4.2896 H   0  0  0  0  0  0  0  0  0  0  0  0
    3.6268    5.3142   -7.6634 H   0  0  0  0  0  0  0  0  0  0  0  0
    4.2258    8.1527   -5.9274 H   0  0  0  0  0  0  0  0  0  0  0  0
    4.5842    6.6496   -6.8185 H   0  0  0  0  0  0  0  0  0  0  0  0
    3.0633    7.3600   -6.9948 H   0  0  0  0  0  0  0  0  0  0  0  0
    4.7366    7.2266   -3.6159 H   0  0  0  0  0  0  0  0  0  0  0  0
  1 37  1  0  0  0  0
  1 38  1  0  0  0  0
  1 39  1  0  0  0  0
  2  1  1  0  0  0  0
  2  3  1  0  0  0  0
  2 21  1  0  0  0  0
  2 40  1  6  0  0  0
  3  4  1  0  0  0  0
  4 41  1  0  0  0  0
  4 42  1  0  0  0  0
  5  7  1  0  0  0  0
  5 43  1  6  0  0  0
  5  6  1  0  0  0  0
  5  4  1  0  0  0  0
  6 44  1  0  0  0  0
  7  8  1  0  0  0  0
  7 45  1  0  0  0  0
  7 46  1  0  0  0  0
  8  9  1  0  0  0  0
  8 47  1  0  0  0  0
  9 10  1  0  0  0  0
  9 11  1  0  0  0  0
  9 12  1  0  0  0  0
 10 48  1  0  0  0  0
 10 49  1  0  0  0  0
 10 50  1  0  0  0  0
 11 51  1  0  0  0  0
 11 52  1  0  0  0  0
 11 53  1  0  0  0  0
 12 13  1  0  0  0  0
 12 54  1  0  0  0  0
 12 55  1  0  0  0  0
 13 14  2  0  0  0  0
 13 20  1  0  0  0  0
 14 15  1  0  0  0  0
 14 56  1  0  0  0  0
 15 16  2  0  0  0  0
 15 57  1  0  0  0  0
 16 17  1  0  0  0  0
 16 18  1  0  0  0  0
 18 19  1  0  0  0  0
 18 20  2  0  0  0  0
 20 58  1  0  0  0  0
 21 22  2  0  0  0  0
 21 26  1  0  0  0  0
 22 23  1  0  0  0  0
 22 59  1  0  0  0  0
 23 24  2  0  0  0  0
 23 60  1  0  0  0  0
 24 25  1  0  0  0  0
 24 61  1  0  0  0  0
 25 26  2  0  0  0  0
 25 62  1  0  0  0  0
 26 27  1  0  0  0  0
 27 28  2  0  0  0  0
 27 36  1  0  0  0  0
 28 29  1  0  0  0  0
 28 63  1  0  0  0  0
 29 30  2  0  0  0  0
 29 64  1  0  0  0  0
 30 31  1  0  0  0  0
 30 34  1  0  0  0  0
 31 32  1  0  0  0  0
 31 33  2  0  0  0  0
 32 65  1  0  0  0  0
 34 35  1  0  0  0  0
 34 36  2  0  0  0  0
 35 66  1  0  0  0  0
 35 67  1  0  0  0  0
 35 68  1  0  0  0  0
 36 69  1  0  0  0  0
M  END
>  <DRUGBANK_ID>
DB18096

>  <COMMON_NAME>
Encaleret

>  <CAS_NUMBER>
787583-71-5

>  <UNII>
EF8081AQ6G

>  <SYNONYMS>
(1,1'-biphenyl)-4-carboxylic acid, 2'-((1r)-1-((2r)-3-((2-(4-chloro-3-fluorophenyl)-1,1-dimethylethyl)amino)-2-hydroxypropoxy)ethyl)-3-methyl-; 2'-((1r)-1-(((1-(4-chloro-3-fluorophenyl)-2-methylpropan-2-yl)amino)-(2r)-2-hydroxypropoxy)ethyl)-3-methyl(1,1'-biphenyl)-4-carboxylic acid; 2'-((1r)-1-(((2r)-3-((1-(4-chloro-3-fluorophenyl)-2-methylpropan-2-yl)amino)-2-hydroxypropyl)oxy)ethyl)-3-methyl-1,1'-biphenyl-4-carboxylic acid; 2'-((1r)-1-((2r)-3-((1-(4-chloro-3-fluorophenyl)-2-methylpropan-2-yl)amino)-2-hydroxypropoxy)ethyl)-3-methyl(1,1'-biphenyl)-4-carboxylic acid; Encaleret

$$$$
