
 OpenBabel10282417233D

 22 22  0  0  0  0  0  0  0  0999 V2000
    1.0689   -0.0216   -0.0692 P   0  0  3  0  0  0  0  0  0  0  0  0
    1.1881    1.7724   -0.7201 C   0  0  0  0  0  0  0  0  0  0  0  0
    2.2694    2.5543   -0.7622 C   0  0  0  0  0  0  0  0  0  0  0  0
    2.3068    3.9266   -1.3320 C   0  0  0  0  0  0  0  0  0  0  0  0
    1.0405    4.4188   -1.8495 N   0  0  0  0  0  0  0  0  0  0  0  0
   -0.1020    3.9009   -1.0993 C   0  0  0  0  0  0  0  0  0  0  0  0
   -0.1594    2.3721   -1.1259 C   0  0  0  0  0  0  0  0  0  0  0  0
    1.2519   -0.8583   -1.4928 O   0  0  0  0  0  0  0  0  0  0  0  0
   -0.4795   -0.0216   -0.0692 O   0  0  0  0  0  0  0  0  0  0  0  0
    2.8989   -0.0216   -0.0692 C   0  0  0  0  0  0  0  0  0  0  0  0
    3.2393    2.2598   -0.3782 H   0  0  0  0  0  0  0  0  0  0  0  0
    3.0391    3.9237   -2.1467 H   0  0  0  0  0  0  0  0  0  0  0  0
    2.6838    4.5839   -0.5442 H   0  0  0  0  0  0  0  0  0  0  0  0
    1.0462    5.4337   -1.7871 H   0  0  0  0  0  0  0  0  0  0  0  0
   -0.0594    4.2459   -0.0569 H   0  0  0  0  0  0  0  0  0  0  0  0
   -1.0274    4.3007   -1.5263 H   0  0  0  0  0  0  0  0  0  0  0  0
   -0.9488    2.1049   -0.4156 H   0  0  0  0  0  0  0  0  0  0  0  0
   -0.4638    2.0001   -2.1120 H   0  0  0  0  0  0  0  0  0  0  0  0
    1.6730   -1.7356   -1.4076 H   0  0  0  0  0  0  0  0  0  0  0  0
    3.4220    0.3977   -0.9330 H   0  0  0  0  0  0  0  0  0  0  0  0
    3.2760    0.3655    0.8831 H   0  0  0  0  0  0  0  0  0  0  0  0
    3.2220   -1.0727   -0.0823 H   0  0  0  0  0  0  0  0  0  0  0  0
  1  2  1  0  0  0  0
  1  8  1  0  0  0  0
  1  9  2  0  0  0  0
  1 10  1  0  0  0  0
  2  3  2  0  0  0  0
  2  7  1  0  0  0  0
  3  4  1  0  0  0  0
  3 11  1  0  0  0  0
  4  5  1  0  0  0  0
  4 12  1  0  0  0  0
  4 13  1  0  0  0  0
  5 14  1  0  0  0  0
  6  5  1  0  0  0  0
  6 15  1  0  0  0  0
  6 16  1  0  0  0  0
  7  6  1  0  0  0  0
  7 17  1  0  0  0  0
  7 18  1  0  0  0  0
  8 19  1  0  0  0  0
 10 20  1  0  0  0  0
 10 21  1  0  0  0  0
 10 22  1  0  0  0  0
M  END
>  <DRUGBANK_ID>
DB16754

>  <COMMON_NAME>
TPMPA

>  <CAS_NUMBER>
182485-36-5

>  <UNII>
TR7I0800L2

>  <SYNONYMS>
(1,2,5,6-tetrahydropyridine-4-yl)methylphosphinic acid; P-Methyl-P-(1,2,3,6-tetrahydro-4-pyridinyl)phosphinic acid; Phosphinic acid, P-methyl-P-(1,2,3,6-tetrahydro-4-pyridinyl)-

$$$$
