
 OpenBabel10282417233D

 35 37  0  0  0  0  0  0  0  0999 V2000
    0.8738   -0.0282    0.0139 C   0  0  0  0  0  0  0  0  0  0  0  0
    1.3885   -4.9783    0.7781 C   0  0  0  0  0  0  0  0  0  0  0  0
    2.4054   -4.0239    0.5665 C   0  0  0  0  0  0  0  0  0  0  0  0
   -0.1672   -3.2002    1.1069 C   0  0  0  0  0  0  0  0  0  0  0  0
   -3.6208   -9.8629    1.6597 C   0  0  0  0  0  0  0  0  0  0  0  0
   -1.3657   -9.0372    2.0783 C   0  0  0  0  0  0  0  0  0  0  0  0
    0.0632   -4.5913    1.0423 C   0  0  0  0  0  0  0  0  0  0  0  0
   -2.3670   -9.9944    2.2624 C   0  0  0  0  0  0  0  0  0  0  0  0
    2.1209   -2.6583    0.6106 C   0  0  0  0  0  0  0  0  0  0  0  0
   -3.8913   -8.7130    0.9134 C   0  0  0  0  0  0  0  0  0  0  0  0
    0.8248   -2.2372    0.8706 C   0  0  0  0  0  0  0  0  0  0  0  0
   -1.6393   -7.8943    1.3339 C   0  0  0  0  0  0  0  0  0  0  0  0
   -2.9184   -7.7079    0.8135 C   0  0  0  0  0  0  0  0  0  0  0  0
   -3.2163   -6.3409    0.3571 C   0  0  0  0  0  0  0  0  0  0  0  0
   -2.3528   -5.2807    0.9718 C   0  0  0  0  0  0  0  0  0  0  0  0
   -1.0493   -5.6060    1.0877 C   0  0  0  0  0  0  0  0  0  0  0  0
   -2.0669  -11.0515    3.0733 O   0  0  0  0  0  0  0  0  0  0  0  0
    3.1164   -1.7404    0.4435 O   0  0  0  0  0  0  0  0  0  0  0  0
   -5.1174   -8.5438    0.3361 O   0  0  0  0  0  0  0  0  0  0  0  0
   -4.0744   -6.0592   -0.4560 O   0  0  0  0  0  0  0  0  0  0  0  0
   -2.8732   -4.0228    1.1954 O   0  0  0  0  0  0  0  0  0  0  0  0
    0.4102   -0.9374    1.0074 O   0  0  0  0  0  0  0  0  0  0  0  0
   -0.6429   -6.9517    1.1452 O   0  0  0  0  0  0  0  0  0  0  0  0
    0.4482    0.9536    0.2453 H   0  0  0  0  0  0  0  0  0  0  0  0
    0.5273   -0.3216   -0.9825 H   0  0  0  0  0  0  0  0  0  0  0  0
    1.9553    0.1108    0.0238 H   0  0  0  0  0  0  0  0  0  0  0  0
    1.6539   -6.0314    0.7011 H   0  0  0  0  0  0  0  0  0  0  0  0
    3.4161   -4.3674    0.3666 H   0  0  0  0  0  0  0  0  0  0  0  0
   -1.1498   -2.7947    1.3125 H   0  0  0  0  0  0  0  0  0  0  0  0
   -4.3893  -10.6151    1.8106 H   0  0  0  0  0  0  0  0  0  0  0  0
   -0.4039   -9.1599    2.5663 H   0  0  0  0  0  0  0  0  0  0  0  0
   -2.8217  -11.6606    3.1265 H   0  0  0  0  0  0  0  0  0  0  0  0
    3.9468   -2.1796    0.2103 H   0  0  0  0  0  0  0  0  0  0  0  0
   -5.6823   -9.3239    0.4530 H   0  0  0  0  0  0  0  0  0  0  0  0
   -3.8097   -4.1040    1.4448 H   0  0  0  0  0  0  0  0  0  0  0  0
  1 24  1  0  0  0  0
  1 25  1  0  0  0  0
  1 26  1  0  0  0  0
  2 27  1  0  0  0  0
  3  2  2  0  0  0  0
  3 28  1  0  0  0  0
  4 29  1  0  0  0  0
  5 30  1  0  0  0  0
  6 31  1  0  0  0  0
  7  2  1  0  0  0  0
  7  4  2  0  0  0  0
  8  5  2  0  0  0  0
  8  6  1  0  0  0  0
  9  3  1  0  0  0  0
 10  5  1  0  0  0  0
 11  4  1  0  0  0  0
 11  9  2  0  0  0  0
 12  6  2  0  0  0  0
 13 10  2  0  0  0  0
 13 12  1  0  0  0  0
 14 13  1  0  0  0  0
 15 14  1  0  0  0  0
 16  7  1  0  0  0  0
 16 15  2  0  0  0  0
 17  8  1  0  0  0  0
 17 32  1  0  0  0  0
 18  9  1  0  0  0  0
 18 33  1  0  0  0  0
 19 10  1  0  0  0  0
 19 34  1  0  0  0  0
 20 14  2  0  0  0  0
 21 15  1  0  0  0  0
 21 35  1  0  0  0  0
 22  1  1  0  0  0  0
 22 11  1  0  0  0  0
 23 12  1  0  0  0  0
 23 16  1  0  0  0  0
M  END
>  <DRUGBANK_ID>
DB16767

>  <COMMON_NAME>
Isorhamnetin

>  <CAS_NUMBER>
480-19-3

>  <UNII>
07X3IB4R4Z

>  <SYNONYMS>
3-Methylquercetin; 3-Methylquercetine; 3'-Methoxy-3,4',5,7-tetrahydroxyflavone; 3'-Methoxyquercetin; 3'-Methylquercetin; 3'-O-Methylquercetin; Isorhamnetol; Quercetin 3'-methyl ether

$$$$
