
 OpenBabel10282417193D

 30 30  0  0  0  0  0  0  0  0999 V2000
    0.6924    1.2330   -0.1693 C   0  0  0  0  0  0  0  0  0  0  0  0
    1.3518   -0.1122    0.2089 C   0  0  0  0  0  0  0  0  0  0  0  0
    0.6361   -1.3560   -0.3107 C   0  0  0  0  0  0  0  0  0  0  0  0
   -0.7888   -1.3739    0.1840 C   0  0  0  0  0  0  0  0  0  0  0  0
   -1.4903   -0.1421   -0.3297 C   0  0  0  0  0  0  0  0  0  0  0  0
   -0.7975    1.1028    0.2095 C   0  0  0  0  0  0  0  0  0  0  0  0
   -0.9124    1.1115    1.5555 F   0  0  0  0  0  0  0  0  0  0  0  0
   -1.4774    2.1791   -0.2501 F   0  0  0  0  0  0  0  0  0  0  0  0
   -1.4953   -0.1198   -1.6859 F   0  0  0  0  0  0  0  0  0  0  0  0
   -2.7941   -0.1438    0.0558 F   0  0  0  0  0  0  0  0  0  0  0  0
   -1.4280   -2.4975   -0.2289 F   0  0  0  0  0  0  0  0  0  0  0  0
   -0.8155   -1.3996    1.5423 F   0  0  0  0  0  0  0  0  0  0  0  0
    0.6722   -1.3804   -1.6667 F   0  0  0  0  0  0  0  0  0  0  0  0
    1.2935   -2.4715    0.1063 F   0  0  0  0  0  0  0  0  0  0  0  0
    2.6207   -0.1422   -0.2636 F   0  0  0  0  0  0  0  0  0  0  0  0
    1.4337   -0.1981    1.5549 F   0  0  0  0  0  0  0  0  0  0  0  0
    1.4230    2.5432    0.3506 C   0  0  0  0  0  0  0  0  0  0  0  0
    2.8274    2.6408   -0.1532 C   0  0  0  0  0  0  0  0  0  0  0  0
    2.8789    2.5211   -1.4948 F   0  0  0  0  0  0  0  0  0  0  0  0
    3.4365    3.8004    0.1573 F   0  0  0  0  0  0  0  0  0  0  0  0
    3.6155    1.6783    0.3612 F   0  0  0  0  0  0  0  0  0  0  0  0
    0.7585    3.7926   -0.1353 C   0  0  0  0  0  0  0  0  0  0  0  0
   -0.4613    3.9617    0.4094 F   0  0  0  0  0  0  0  0  0  0  0  0
    1.4345    4.9186    0.1604 F   0  0  0  0  0  0  0  0  0  0  0  0
    0.5971    3.7755   -1.4735 F   0  0  0  0  0  0  0  0  0  0  0  0
    1.5185    2.6957    1.8279 C   0  0  0  0  0  0  0  0  0  0  0  0
    0.3064    2.7247    2.4115 F   0  0  0  0  0  0  0  0  0  0  0  0
    2.1959    1.6821    2.3970 F   0  0  0  0  0  0  0  0  0  0  0  0
    2.1437    3.8241    2.2117 F   0  0  0  0  0  0  0  0  0  0  0  0
    0.7241    1.2901   -1.5431 F   0  0  0  0  0  0  0  0  0  0  0  0
  1  2  1  0  0  0  0
  1  6  1  0  0  0  0
  1 17  1  0  0  0  0
  1 30  1  0  0  0  0
  2  3  1  0  0  0  0
  2 15  1  0  0  0  0
  2 16  1  0  0  0  0
  3  4  1  0  0  0  0
  3 13  1  0  0  0  0
  3 14  1  0  0  0  0
  4  5  1  0  0  0  0
  4 11  1  0  0  0  0
  4 12  1  0  0  0  0
  5  6  1  0  0  0  0
  5  9  1  0  0  0  0
  5 10  1  0  0  0  0
  6  7  1  0  0  0  0
  6  8  1  0  0  0  0
 17 18  1  0  0  0  0
 17 22  1  0  0  0  0
 17 26  1  0  0  0  0
 18 19  1  0  0  0  0
 18 20  1  0  0  0  0
 18 21  1  0  0  0  0
 22 23  1  0  0  0  0
 22 24  1  0  0  0  0
 22 25  1  0  0  0  0
 26 27  1  0  0  0  0
 26 28  1  0  0  0  0
 26 29  1  0  0  0  0
M  END
>  <DRUGBANK_ID>
DB12477

>  <COMMON_NAME>
Perfluoro tert-butylcyclohexane

>  <CAS_NUMBER>
84808-64-0

>  <UNII>
3ZX1Z33VUU

>  <SYNONYMS>
Oxycyte

$$$$
