
 OpenBabel10282417103D

266273  0  0  0  0  0  0  0  0999 V2000
    0.3701    0.4262    0.6625 C   0  0  2  0  0  0  0  0  0  0  0  0
   -0.8572    2.0453   -0.8567 O   0  0  0  0  0  0  0  0  0  0  0  0
   -0.1512    1.7886    0.1184 C   0  0  0  0  0  0  0  0  0  0  0  0
   -0.2796   -0.9122    0.6228 C   0  0  0  0  0  0  0  0  0  0  0  0
    1.3101   -1.8108    1.0463 C   0  0  0  0  0  0  0  0  0  0  0  0
   -2.0868   -1.1265    0.0964 C   0  0  0  0  0  0  0  0  0  0  0  0
    1.5653    2.9084    1.4112 C   0  0  0  0  0  0  0  0  0  0  0  0
    3.1809    4.7329    1.5788 O   0  0  0  0  0  0  0  0  0  0  0  0
    2.8169    3.6591    1.1303 C   0  0  0  0  0  0  0  0  0  0  0  0
    3.4807    2.2109   -0.8005 C   0  0  1  0  0  0  0  0  0  0  0  0
    2.9029    2.8069   -3.4751 O   0  0  0  0  0  0  0  0  0  0  0  0
    3.4334    2.1695   -2.5829 C   0  0  0  0  0  0  0  0  0  0  0  0
    4.6991    1.4542   -0.4536 C   0  0  0  0  0  0  0  0  0  0  0  0
    5.7634    1.4347   -1.4226 C   0  0  0  0  0  0  0  0  0  0  0  0
    6.0166    2.1986   -2.6273 C   0  0  0  0  0  0  0  0  0  0  0  0
    6.9263    0.6308   -1.3834 C   0  0  0  0  0  0  0  0  0  0  0  0
    5.8073    0.1702   -3.3762 C   0  0  1  0  0  0  0  0  0  0  0  0
    7.5970    1.0060   -4.4262 O   0  0  0  0  0  0  0  0  0  0  0  0
    5.5498   -1.1399   -4.2406 C   0  0  0  0  0  0  0  0  0  0  0  0
    7.1653    0.0661   -3.7927 C   0  0  0  0  0  0  0  0  0  0  0  0
    7.7240   -1.9941   -2.2124 C   0  0  1  0  0  0  0  0  0  0  0  0
    8.6955   -3.9467   -2.7430 O   0  0  0  0  0  0  0  0  0  0  0  0
    7.9740   -3.0437   -3.1415 C   0  0  0  0  0  0  0  0  0  0  0  0
    8.3790   -2.1346   -0.8393 C   0  0  0  0  0  0  0  0  0  0  0  0
    8.1865   -1.0173    0.1113 C   0  0  0  0  0  0  0  0  0  0  0  0
    7.9007   -3.4100   -0.0822 C   0  0  0  0  0  0  0  0  0  0  0  0
    6.5768   -2.5427   -5.5324 C   0  0  2  0  0  0  0  0  0  0  0  0
    4.1702   -2.5716   -6.9294 O   0  0  0  0  0  0  0  0  0  0  0  0
    4.7304   -2.7228   -5.8243 C   0  0  0  0  0  0  0  0  0  0  0  0
    6.9203   -1.7373   -6.7396 C   0  0  0  0  0  0  0  0  0  0  0  0
    8.1234   -0.9008   -6.4095 C   0  0  0  0  0  0  0  0  0  0  0  0
    7.2524   -2.6386   -7.8431 C   0  0  0  0  0  0  0  0  0  0  0  0
    4.0171   -2.9848   -3.4528 C   0  0  1  0  0  0  0  0  0  0  0  0
    2.5070   -2.0741   -2.5962 O   0  0  0  0  0  0  0  0  0  0  0  0
    3.0611   -1.9960   -3.6639 C   0  0  0  0  0  0  0  0  0  0  0  0
    3.6558   -3.5170   -2.0504 C   0  0  0  0  0  0  0  0  0  0  0  0
    5.2739   -4.5397   -2.4607 C   0  0  0  0  0  0  0  0  0  0  0  0
    3.6573   -3.4808    0.1223 C   0  0  0  0  0  0  0  0  0  0  0  0
    3.6079    0.1350   -5.8286 C   0  0  2  0  0  0  0  0  0  0  0  0
    6.1606    0.7416   -6.3197 O   0  0  0  0  0  0  0  0  0  0  0  0
    5.1030    1.2116   -5.9044 C   0  0  0  0  0  0  0  0  0  0  0  0
    2.6269   -0.0273   -6.8714 C   0  0  0  0  0  0  0  0  0  0  0  0
    1.6212    2.1848   -6.7215 C   0  0  0  0  0  0  0  0  0  0  0  0
    1.3676    0.8711   -6.7347 C   0  0  0  0  0  0  0  0  0  0  0  0
   -0.3459    0.5783   -6.0852 C   0  0  0  0  0  0  0  0  0  0  0  0
   -0.6293    1.7170   -5.4364 C   0  0  0  0  0  0  0  0  0  0  0  0
   -1.5240    1.8913   -3.9711 C   0  0  0  0  0  0  0  0  0  0  0  0
   -2.1434    0.9179   -3.3125 C   0  0  0  0  0  0  0  0  0  0  0  0
   -1.8041   -0.2543   -3.9071 C   0  0  0  0  0  0  0  0  0  0  0  0
   -1.0332   -0.4747   -5.0758 C   0  0  0  0  0  0  0  0  0  0  0  0
    4.4152    3.5748   -5.6203 C   0  0  1  0  0  0  0  0  0  0  0  0
    4.4124    6.0911   -5.3568 O   0  0  0  0  0  0  0  0  0  0  0  0
    4.4225    5.0409   -4.7137 C   0  0  0  0  0  0  0  0  0  0  0  0
    4.5022    3.8809   -7.1194 C   0  0  0  0  0  0  0  0  0  0  0  0
    4.7189    2.6783   -8.0991 C   0  0  0  0  0  0  0  0  0  0  0  0
    3.5491    1.8245   -8.3341 C   0  0  0  0  0  0  0  0  0  0  0  0
    4.9456    3.0535   -9.4724 C   0  0  0  0  0  0  0  0  0  0  0  0
    3.9445    4.2952   -2.4028 C   0  0  2  0  0  0  0  0  0  0  0  0
    1.6349    4.3514   -0.8797 O   0  0  0  0  0  0  0  0  0  0  0  0
    2.0761    3.9052   -1.9370 C   0  0  0  0  0  0  0  0  0  0  0  0
    5.3204    4.2821   -1.4646 C   0  0  0  0  0  0  0  0  0  0  0  0
    7.3452    3.9144   -3.3055 C   0  0  0  0  0  0  0  0  0  0  0  0
    6.9533    4.0575   -1.9423 C   0  0  0  0  0  0  0  0  0  0  0  0
    7.9405    3.1820   -1.2118 C   0  0  0  0  0  0  0  0  0  0  0  0
    8.8101    2.5759   -2.2234 C   0  0  0  0  0  0  0  0  0  0  0  0
    9.7507    1.5503   -1.9610 C   0  0  0  0  0  0  0  0  0  0  0  0
    9.9332    1.2787   -0.5948 C   0  0  0  0  0  0  0  0  0  0  0  0
    9.0286    1.7510    0.4312 C   0  0  0  0  0  0  0  0  0  0  0  0
    7.9313    2.5957    0.1313 C   0  0  0  0  0  0  0  0  0  0  0  0
    0.9730    2.0837   -3.9626 C   0  0  1  0  0  0  0  0  0  0  0  0
    1.0632   -0.6984   -5.3378 O   0  0  0  0  0  0  0  0  0  0  0  0
    1.0332    0.2217   -4.4106 C   0  0  0  0  0  0  0  0  0  0  0  0
   -0.1155    3.5992   -4.5205 C   0  0  0  0  0  0  0  0  0  0  0  0
    0.5273    4.8970   -4.5262 C   0  0  0  0  0  0  0  0  0  0  0  0
    1.8700    5.0438   -5.1037 C   0  0  0  0  0  0  0  0  0  0  0  0
   -0.3295    5.5823   -5.5468 C   0  0  0  0  0  0  0  0  0  0  0  0
    2.4905   -0.1290   -2.5518 C   0  0  2  0  0  0  0  0  0  0  0  0
    4.1604   -0.0134   -3.8730 O   0  0  0  0  0  0  0  0  0  0  0  0
    3.9204   -0.4700   -2.7334 C   0  0  0  0  0  0  0  0  0  0  0  0
    2.3077   -0.4451   -1.2368 C   0  0  0  0  0  0  0  0  0  0  0  0
    0.2371   -0.0524   -1.8061 C   0  0  0  0  0  0  0  0  0  0  0  0
    1.0999   -1.0540   -1.4618 C   0  0  0  0  0  0  0  0  0  0  0  0
    0.7511   -2.5058   -1.6289 C   0  0  0  0  0  0  0  0  0  0  0  0
   -0.9183   -2.3070   -1.8874 C   0  0  0  0  0  0  0  0  0  0  0  0
   -2.0663   -3.7039   -1.5173 C   0  0  0  0  0  0  0  0  0  0  0  0
   -1.4218   -5.1939   -0.6841 C   0  0  0  0  0  0  0  0  0  0  0  0
    0.2829   -5.4591   -0.2063 C   0  0  0  0  0  0  0  0  0  0  0  0
    1.4889   -4.1119   -0.6999 C   0  0  0  0  0  0  0  0  0  0  0  0
    4.9133   -2.7720   -1.0131 C   0  0  1  0  0  0  0  0  0  0  0  0
    4.4170   -5.7464   -0.2221 O   0  0  0  0  0  0  0  0  0  0  0  0
    4.0857   -4.8961   -1.0332 C   0  0  0  0  0  0  0  0  0  0  0  0
    5.4000   -2.1052    0.3496 C   0  0  0  0  0  0  0  0  0  0  0  0
    5.1933   -0.7610    0.8348 C   0  0  0  0  0  0  0  0  0  0  0  0
    3.8697   -0.3284    1.2347 C   0  0  0  0  0  0  0  0  0  0  0  0
    5.9856   -0.5499    2.0272 C   0  0  0  0  0  0  0  0  0  0  0  0
    2.1309   -4.5741   -3.9896 C   0  0  2  0  0  0  0  0  0  0  0  0
    0.3951   -3.4906   -5.3118 O   0  0  0  0  0  0  0  0  0  0  0  0
    0.6458   -4.1918   -4.3337 C   0  0  0  0  0  0  0  0  0  0  0  0
    2.8997   -4.6878   -5.6204 C   0  0  0  0  0  0  0  0  0  0  0  0
    4.6589   -5.1938   -5.6846 C   0  0  0  0  0  0  0  0  0  0  0  0
    5.4809   -5.9978   -4.8057 C   0  0  0  0  0  0  0  0  0  0  0  0
    6.8547   -5.6996   -4.8675 C   0  0  0  0  0  0  0  0  0  0  0  0
    7.7962   -6.0337   -3.8721 C   0  0  0  0  0  0  0  0  0  0  0  0
    7.3495   -6.6856   -2.7405 C   0  0  0  0  0  0  0  0  0  0  0  0
    6.0650   -7.1411   -2.6938 C   0  0  0  0  0  0  0  0  0  0  0  0
    5.1784   -6.8102   -3.7230 C   0  0  0  0  0  0  0  0  0  0  0  0
    1.2289    0.0590    2.8724 C   0  0  0  0  0  0  0  0  0  0  0  0
    0.9758   -0.2335    4.0178 O   0  0  0  0  0  0  0  0  0  0  0  0
   -0.3094   -4.3483   -3.3397 N   0  0  0  0  0  0  0  0  0  0  0  0
    5.7401   -4.7029   -6.4279 C   0  0  0  0  0  0  0  0  0  0  0  0
    0.0515   -4.5333   -2.0757 C   0  0  0  0  0  0  0  0  0  0  0  0
   -0.2528   -3.5164    0.0469 C   0  0  0  0  0  0  0  0  0  0  0  0
   -1.2902   -3.2785    0.6740 O   0  0  0  0  0  0  0  0  0  0  0  0
    0.2546    0.4437    2.0275 N   0  0  0  0  0  0  0  0  0  0  0  0
    0.4614    2.8889    0.5282 N   0  0  0  0  0  0  0  0  0  0  0  0
    3.6701    3.1180    0.2843 N   0  0  0  0  0  0  0  0  0  0  0  0
    4.3113    1.5393   -3.3476 N   0  0  0  0  0  0  0  0  0  0  0  0
    7.9384   -0.9206   -3.2028 N   0  0  0  0  0  0  0  0  0  0  0  0
    7.4400   -3.1162   -4.3664 N   0  0  0  0  0  0  0  0  0  0  0  0
    3.8777   -3.0527   -4.8023 N   0  0  0  0  0  0  0  0  0  0  0  0
    2.9328   -0.7595   -4.7902 N   0  0  0  0  0  0  0  0  0  0  0  0
    0.5099    2.5750   -6.2214 N   0  0  0  0  0  0  0  0  0  0  0  0
    5.3303    2.5122   -5.4868 N   0  0  0  0  0  0  0  0  0  0  0  0
    4.1187    5.2534   -3.3517 N   0  0  0  0  0  0  0  0  0  0  0  0
    8.3362    2.9462   -3.4756 N   0  0  0  0  0  0  0  0  0  0  0  0
    1.1122    2.7358   -2.5114 N   0  0  0  0  0  0  0  0  0  0  0  0
    1.3788   -0.5893   -3.5180 N   0  0  0  0  0  0  0  0  0  0  0  0
   -0.9456   -0.5777   -1.7059 N   0  0  0  0  0  0  0  0  0  0  0  0
    4.8628   -1.5667   -2.0110 N   0  0  0  0  0  0  0  0  0  0  0  0
    2.9445   -5.3226   -2.4745 N   0  0  0  0  0  0  0  0  0  0  0  0
    7.0324   -4.9641   -5.9934 N   0  0  0  0  0  0  0  0  0  0  0  0
    1.4453    0.3175    0.5580 H   0  0  0  0  0  0  0  0  0  0  0  0
   -0.2162   -1.2690   -0.2797 H   0  0  0  0  0  0  0  0  0  0  0  0
    1.2861   -2.4409    1.9078 H   0  0  0  0  0  0  0  0  0  0  0  0
    1.7214   -2.5611    0.3746 H   0  0  0  0  0  0  0  0  0  0  0  0
    2.1410   -1.5889    0.3904 H   0  0  0  0  0  0  0  0  0  0  0  0
   -2.7122   -0.6053   -0.7855 H   0  0  0  0  0  0  0  0  0  0  0  0
   -2.5292   -1.8335   -0.6670 H   0  0  0  0  0  0  0  0  0  0  0  0
   -2.4532   -1.1016    1.0562 H   0  0  0  0  0  0  0  0  0  0  0  0
    1.1250    3.3092    2.2899 H   0  0  0  0  0  0  0  0  0  0  0  0
    1.9399    1.9031    1.5246 H   0  0  0  0  0  0  0  0  0  0  0  0
    2.4825    1.9155   -0.5327 H   0  0  0  0  0  0  0  0  0  0  0  0
    5.2820    1.6234    0.4187 H   0  0  0  0  0  0  0  0  0  0  0  0
    4.3033    0.4813   -0.5130 H   0  0  0  0  0  0  0  0  0  0  0  0
    4.9330    0.9124   -1.7803 H   0  0  0  0  0  0  0  0  0  0  0  0
    5.5833    2.9872   -3.1673 H   0  0  0  0  0  0  0  0  0  0  0  0
    6.0130    1.8773   -3.6713 H   0  0  0  0  0  0  0  0  0  0  0  0
    5.1480    2.5344   -2.2132 H   0  0  0  0  0  0  0  0  0  0  0  0
    6.8257   -0.4098   -1.3177 H   0  0  0  0  0  0  0  0  0  0  0  0
    7.6205    0.6877   -2.1754 H   0  0  0  0  0  0  0  0  0  0  0  0
    7.6674    1.0939   -0.9605 H   0  0  0  0  0  0  0  0  0  0  0  0
    5.7261   -0.1784   -2.3872 H   0  0  0  0  0  0  0  0  0  0  0  0
    5.8226   -2.1221   -3.9449 H   0  0  0  0  0  0  0  0  0  0  0  0
    4.6064   -1.4372   -4.4998 H   0  0  0  0  0  0  0  0  0  0  0  0
    5.5274   -0.8947   -5.2485 H   0  0  0  0  0  0  0  0  0  0  0  0
    6.8003   -2.3061   -1.8383 H   0  0  0  0  0  0  0  0  0  0  0  0
    9.4145   -2.0784   -1.0801 H   0  0  0  0  0  0  0  0  0  0  0  0
    7.2020   -0.7023    0.2419 H   0  0  0  0  0  0  0  0  0  0  0  0
    8.5669   -0.9112    1.0988 H   0  0  0  0  0  0  0  0  0  0  0  0
    8.4841   -0.1936   -0.4196 H   0  0  0  0  0  0  0  0  0  0  0  0
    7.9850   -4.2819   -0.6983 H   0  0  0  0  0  0  0  0  0  0  0  0
    8.2805   -3.3388    0.9247 H   0  0  0  0  0  0  0  0  0  0  0  0
    6.8702   -3.6473    0.2057 H   0  0  0  0  0  0  0  0  0  0  0  0
    6.9415   -1.6664   -5.0487 H   0  0  0  0  0  0  0  0  0  0  0  0
    6.0189   -1.1520   -7.0045 H   0  0  0  0  0  0  0  0  0  0  0  0
    8.8450   -1.4800   -5.8378 H   0  0  0  0  0  0  0  0  0  0  0  0
    8.3496   -0.3002   -7.2551 H   0  0  0  0  0  0  0  0  0  0  0  0
    7.9748   -0.1408   -5.7066 H   0  0  0  0  0  0  0  0  0  0  0  0
    6.5198   -3.3350   -8.2353 H   0  0  0  0  0  0  0  0  0  0  0  0
    7.4199   -2.0542   -8.7111 H   0  0  0  0  0  0  0  0  0  0  0  0
    8.0940   -3.2028   -7.4717 H   0  0  0  0  0  0  0  0  0  0  0  0
    4.9970   -3.0106   -3.2385 H   0  0  0  0  0  0  0  0  0  0  0  0
    2.6630   -3.6834   -2.0429 H   0  0  0  0  0  0  0  0  0  0  0  0
    6.2156   -4.1746   -2.1032 H   0  0  0  0  0  0  0  0  0  0  0  0
    5.2301   -5.5276   -2.0740 H   0  0  0  0  0  0  0  0  0  0  0  0
    4.9877   -4.6691   -3.4391 H   0  0  0  0  0  0  0  0  0  0  0  0
    3.4995   -2.5512    0.6044 H   0  0  0  0  0  0  0  0  0  0  0  0
    3.7444   -4.1686    0.9832 H   0  0  0  0  0  0  0  0  0  0  0  0
    4.9290   -3.9076    0.2697 H   0  0  0  0  0  0  0  0  0  0  0  0
    4.1491   -0.7012   -6.0610 H   0  0  0  0  0  0  0  0  0  0  0  0
    3.5705    0.0881   -7.3745 H   0  0  0  0  0  0  0  0  0  0  0  0
    2.4259   -1.0683   -6.7847 H   0  0  0  0  0  0  0  0  0  0  0  0
    2.3430    3.0042   -6.8908 H   0  0  0  0  0  0  0  0  0  0  0  0
   -1.5875    2.8400   -3.2875 H   0  0  0  0  0  0  0  0  0  0  0  0
   -2.4216    1.1004   -2.2677 H   0  0  0  0  0  0  0  0  0  0  0  0
   -1.4266   -1.0774   -3.3375 H   0  0  0  0  0  0  0  0  0  0  0  0
   -0.3985   -1.3680   -4.6038 H   0  0  0  0  0  0  0  0  0  0  0  0
    3.5292    3.0058   -5.4317 H   0  0  0  0  0  0  0  0  0  0  0  0
    3.6252    4.4407   -7.4359 H   0  0  0  0  0  0  0  0  0  0  0  0
    5.3747    4.5169   -7.1794 H   0  0  0  0  0  0  0  0  0  0  0  0
    5.5574    2.0615   -7.7962 H   0  0  0  0  0  0  0  0  0  0  0  0
    2.5796    2.2083   -8.6523 H   0  0  0  0  0  0  0  0  0  0  0  0
    3.6567    0.8150   -8.7599 H   0  0  0  0  0  0  0  0  0  0  0  0
    3.5078    1.7688   -7.2800 H   0  0  0  0  0  0  0  0  0  0  0  0
    5.8244    3.6646   -9.4380 H   0  0  0  0  0  0  0  0  0  0  0  0
    5.0826    2.1076  -10.0112 H   0  0  0  0  0  0  0  0  0  0  0  0
    4.0294    3.5595   -9.7743 H   0  0  0  0  0  0  0  0  0  0  0  0
    4.2579    3.7276   -3.2424 H   0  0  0  0  0  0  0  0  0  0  0  0
    5.1713    5.0227   -0.7556 H   0  0  0  0  0  0  0  0  0  0  0  0
    5.3370    3.3875   -0.8756 H   0  0  0  0  0  0  0  0  0  0  0  0
    6.6159    3.8856   -4.1052 H   0  0  0  0  0  0  0  0  0  0  0  0
   10.2287    0.9663   -2.7642 H   0  0  0  0  0  0  0  0  0  0  0  0
   10.6479    0.5013   -0.3305 H   0  0  0  0  0  0  0  0  0  0  0  0
    9.0099    1.2325    1.3938 H   0  0  0  0  0  0  0  0  0  0  0  0
    6.9994    2.4451    0.7312 H   0  0  0  0  0  0  0  0  0  0  0  0
    1.9066    2.0579   -4.5607 H   0  0  0  0  0  0  0  0  0  0  0  0
   -0.7213    3.5922   -5.6670 H   0  0  0  0  0  0  0  0  0  0  0  0
   -1.2473    3.6324   -4.6271 H   0  0  0  0  0  0  0  0  0  0  0  0
    0.5169    5.0768   -3.4607 H   0  0  0  0  0  0  0  0  0  0  0  0
    2.0706    4.8897   -6.1664 H   0  0  0  0  0  0  0  0  0  0  0  0
    2.2430    6.0224   -4.8469 H   0  0  0  0  0  0  0  0  0  0  0  0
    2.4122    4.2628   -4.6609 H   0  0  0  0  0  0  0  0  0  0  0  0
   -1.3788    5.3173   -5.3889 H   0  0  0  0  0  0  0  0  0  0  0  0
   -0.1206    6.6192   -5.4638 H   0  0  0  0  0  0  0  0  0  0  0  0
   -0.0927    5.2270   -6.5803 H   0  0  0  0  0  0  0  0  0  0  0  0
    2.4536    0.8360   -2.3971 H   0  0  0  0  0  0  0  0  0  0  0  0
    3.2438   -0.7929   -1.1099 H   0  0  0  0  0  0  0  0  0  0  0  0
    2.4263    0.3935   -0.6569 H   0  0  0  0  0  0  0  0  0  0  0  0
    0.5859    0.9590   -1.7270 H   0  0  0  0  0  0  0  0  0  0  0  0
   -2.9594   -3.4026   -0.7574 H   0  0  0  0  0  0  0  0  0  0  0  0
   -2.0644   -5.7527   -0.0204 H   0  0  0  0  0  0  0  0  0  0  0  0
    0.7343   -6.4045   -0.2338 H   0  0  0  0  0  0  0  0  0  0  0  0
    2.3121   -4.4829   -0.4005 H   0  0  0  0  0  0  0  0  0  0  0  0
    3.9974   -2.1312   -0.9217 H   0  0  0  0  0  0  0  0  0  0  0  0
    5.2313   -2.6239    1.2786 H   0  0  0  0  0  0  0  0  0  0  0  0
    6.3585   -2.1122    0.0305 H   0  0  0  0  0  0  0  0  0  0  0  0
    5.5948   -0.3258   -0.0253 H   0  0  0  0  0  0  0  0  0  0  0  0
    3.2685   -1.0101    1.7655 H   0  0  0  0  0  0  0  0  0  0  0  0
    3.6416    0.7339    1.2783 H   0  0  0  0  0  0  0  0  0  0  0  0
    3.4277   -0.6234    0.3757 H   0  0  0  0  0  0  0  0  0  0  0  0
    6.8719   -1.1536    1.9566 H   0  0  0  0  0  0  0  0  0  0  0  0
    6.1435    0.5245    2.0168 H   0  0  0  0  0  0  0  0  0  0  0  0
    5.3793   -1.0396    2.7723 H   0  0  0  0  0  0  0  0  0  0  0  0
    2.0363   -3.5427   -3.6949 H   0  0  0  0  0  0  0  0  0  0  0  0
    2.3618   -5.1175   -6.4390 H   0  0  0  0  0  0  0  0  0  0  0  0
    2.5442   -3.6073   -6.1517 H   0  0  0  0  0  0  0  0  0  0  0  0
    8.8320   -5.6937   -3.9184 H   0  0  0  0  0  0  0  0  0  0  0  0
    7.9612   -6.8785   -1.8766 H   0  0  0  0  0  0  0  0  0  0  0  0
    5.6142   -7.3229   -1.7017 H   0  0  0  0  0  0  0  0  0  0  0  0
    4.2042   -6.8079   -3.3439 H   0  0  0  0  0  0  0  0  0  0  0  0
    2.2510    0.1381    2.5241 H   0  0  0  0  0  0  0  0  0  0  0  0
   -1.0957   -3.7615   -3.4333 H   0  0  0  0  0  0  0  0  0  0  0  0
    5.6999   -3.8314   -7.0027 H   0  0  0  0  0  0  0  0  0  0  0  0
    0.6887   -5.4772   -2.0034 H   0  0  0  0  0  0  0  0  0  0  0  0
    1.0009   -4.2024   -2.3824 H   0  0  0  0  0  0  0  0  0  0  0  0
    0.4457   -3.8296    0.8890 H   0  0  0  0  0  0  0  0  0  0  0  0
    0.2095   -2.6659   -0.0455 H   0  0  0  0  0  0  0  0  0  0  0  0
   -1.3017   -3.1431   -0.2420 H   0  0  0  0  0  0  0  0  0  0  0  0
   -0.6742    0.1047    2.1861 H   0  0  0  0  0  0  0  0  0  0  0  0
    0.4305    3.5584   -0.2423 H   0  0  0  0  0  0  0  0  0  0  0  0
    4.5177    3.6290    0.4219 H   0  0  0  0  0  0  0  0  0  0  0  0
    4.0970    1.7149   -4.2868 H   0  0  0  0  0  0  0  0  0  0  0  0
    8.8860   -0.7075   -3.4109 H   0  0  0  0  0  0  0  0  0  0  0  0
    7.9212   -3.9249   -4.5555 H   0  0  0  0  0  0  0  0  0  0  0  0
    2.9774   -2.6528   -5.1289 H   0  0  0  0  0  0  0  0  0  0  0  0
    2.9074    0.2411   -4.2934 H   0  0  0  0  0  0  0  0  0  0  0  0
    0.7226    3.5495   -6.1103 H   0  0  0  0  0  0  0  0  0  0  0  0
    6.3051    2.8181   -5.5725 H   0  0  0  0  0  0  0  0  0  0  0  0
    3.4874    5.9183   -2.9759 H   0  0  0  0  0  0  0  0  0  0  0  0
    8.3029    2.2707   -4.2703 H   0  0  0  0  0  0  0  0  0  0  0  0
    0.1721    2.5777   -2.1416 H   0  0  0  0  0  0  0  0  0  0  0  0
    1.4789   -1.4283   -4.1769 H   0  0  0  0  0  0  0  0  0  0  0  0
   -1.4834    0.1253   -1.1221 H   0  0  0  0  0  0  0  0  0  0  0  0
    5.7110   -1.6932   -2.4951 H   0  0  0  0  0  0  0  0  0  0  0  0
    3.0911   -5.9655   -3.1872 H   0  0  0  0  0  0  0  0  0  0  0  0
    7.8411   -4.3125   -6.0820 H   0  0  0  0  0  0  0  0  0  0  0  0
  1  3  1  0  0  0  0
  1  4  1  0  0  0  0
  1132  1  6  0  0  0
  3  2  2  0  0  0  0
  3115  1  0  0  0  0
  4  5  1  0  0  0  0
  4  6  1  0  0  0  0
  4133  1  0  0  0  0
  5134  1  0  0  0  0
  5135  1  0  0  0  0
  5136  1  0  0  0  0
  6137  1  0  0  0  0
  6138  1  0  0  0  0
  6139  1  0  0  0  0
  7  9  1  0  0  0  0
  7140  1  0  0  0  0
  7141  1  0  0  0  0
  9  8  2  0  0  0  0
  9116  1  0  0  0  0
 10142  1  1  0  0  0
 10 12  1  0  0  0  0
 10 13  1  0  0  0  0
 12 11  2  0  0  0  0
 12117  1  0  0  0  0
 13 14  1  0  0  0  0
 13143  1  0  0  0  0
 13144  1  0  0  0  0
 14 15  1  0  0  0  0
 14 16  1  0  0  0  0
 14145  1  0  0  0  0
 15146  1  0  0  0  0
 15147  1  0  0  0  0
 15148  1  0  0  0  0
 16149  1  0  0  0  0
 16150  1  0  0  0  0
 16151  1  0  0  0  0
 17152  1  1  0  0  0
 17 19  1  0  0  0  0
 17 20  1  0  0  0  0
 19153  1  0  0  0  0
 19154  1  0  0  0  0
 19155  1  0  0  0  0
 20 18  2  0  0  0  0
 20118  1  0  0  0  0
 21 23  1  0  0  0  0
 21 24  1  0  0  0  0
 21156  1  1  0  0  0
 23 22  2  0  0  0  0
 23119  1  0  0  0  0
 24 25  1  0  0  0  0
 24 26  1  0  0  0  0
 24157  1  0  0  0  0
 25158  1  0  0  0  0
 25159  1  0  0  0  0
 25160  1  0  0  0  0
 26161  1  0  0  0  0
 26162  1  0  0  0  0
 26163  1  0  0  0  0
 27164  1  1  0  0  0
 27 30  1  0  0  0  0
 27 29  1  0  0  0  0
 29 28  2  0  0  0  0
 29120  1  0  0  0  0
 30 31  1  0  0  0  0
 30 32  1  0  0  0  0
 30165  1  0  0  0  0
 31166  1  0  0  0  0
 31167  1  0  0  0  0
 31168  1  0  0  0  0
 32169  1  0  0  0  0
 32170  1  0  0  0  0
 32171  1  0  0  0  0
 33 35  1  0  0  0  0
 33 36  1  0  0  0  0
 33172  1  1  0  0  0
 35 34  2  0  0  0  0
 35121  1  0  0  0  0
 36 37  1  0  0  0  0
 36 38  1  0  0  0  0
 36173  1  0  0  0  0
 37174  1  0  0  0  0
 37175  1  0  0  0  0
 37176  1  0  0  0  0
 38177  1  0  0  0  0
 38178  1  0  0  0  0
 38179  1  0  0  0  0
 39180  1  6  0  0  0
 39 42  1  0  0  0  0
 39 41  1  0  0  0  0
 41 40  2  0  0  0  0
 41123  1  0  0  0  0
 42 44  1  0  0  0  0
 42181  1  0  0  0  0
 42182  1  0  0  0  0
 43 44  2  0  0  0  0
 43183  1  0  0  0  0
 44 45  1  0  0  0  0
 45 46  2  0  0  0  0
 46 47  1  0  0  0  0
 46122  1  0  0  0  0
 47 48  2  0  0  0  0
 47184  1  0  0  0  0
 48 49  1  0  0  0  0
 48185  1  0  0  0  0
 49 50  2  0  0  0  0
 49186  1  0  0  0  0
 50 45  1  0  0  0  0
 50187  1  0  0  0  0
 51 53  1  0  0  0  0
 51 54  1  0  0  0  0
 51188  1  1  0  0  0
 53 52  2  0  0  0  0
 53124  1  0  0  0  0
 54 55  1  0  0  0  0
 54189  1  0  0  0  0
 54190  1  0  0  0  0
 55 56  1  0  0  0  0
 55 57  1  0  0  0  0
 55191  1  0  0  0  0
 56192  1  0  0  0  0
 56193  1  0  0  0  0
 56194  1  0  0  0  0
 57195  1  0  0  0  0
 57196  1  0  0  0  0
 57197  1  0  0  0  0
 58198  1  6  0  0  0
 58 61  1  0  0  0  0
 58 60  1  0  0  0  0
 60 59  2  0  0  0  0
 60126  1  0  0  0  0
 61 63  1  0  0  0  0
 61199  1  0  0  0  0
 61200  1  0  0  0  0
 62 63  2  0  0  0  0
 62201  1  0  0  0  0
 63 64  1  0  0  0  0
 64 65  2  0  0  0  0
 65 66  1  0  0  0  0
 65125  1  0  0  0  0
 66 67  2  0  0  0  0
 66202  1  0  0  0  0
 67 68  1  0  0  0  0
 67203  1  0  0  0  0
 68 69  2  0  0  0  0
 68204  1  0  0  0  0
 69 64  1  0  0  0  0
 69205  1  0  0  0  0
 70 72  1  0  0  0  0
 70 73  1  0  0  0  0
 70206  1  6  0  0  0
 72 71  2  0  0  0  0
 72127  1  0  0  0  0
 73 74  1  0  0  0  0
 73207  1  0  0  0  0
 73208  1  0  0  0  0
 74 75  1  0  0  0  0
 74 76  1  0  0  0  0
 74209  1  0  0  0  0
 75210  1  0  0  0  0
 75211  1  0  0  0  0
 75212  1  0  0  0  0
 76213  1  0  0  0  0
 76214  1  0  0  0  0
 76215  1  0  0  0  0
 77216  1  6  0  0  0
 77 80  1  0  0  0  0
 77 79  1  0  0  0  0
 79 78  2  0  0  0  0
 79129  1  0  0  0  0
 80 82  1  0  0  0  0
 80217  1  0  0  0  0
 80218  1  0  0  0  0
 81 82  2  0  0  0  0
 81219  1  0  0  0  0
 82 83  1  0  0  0  0
 83 84  2  0  0  0  0
 84 85  1  0  0  0  0
 84128  1  0  0  0  0
 85 86  2  0  0  0  0
 85220  1  0  0  0  0
 86 87  1  0  0  0  0
 86221  1  0  0  0  0
 87 88  2  0  0  0  0
 87222  1  0  0  0  0
 88 83  1  0  0  0  0
 88223  1  0  0  0  0
 89 91  1  0  0  0  0
 89 92  1  0  0  0  0
 89224  1  1  0  0  0
 91 90  2  0  0  0  0
 91130  1  0  0  0  0
 92 93  1  0  0  0  0
 92225  1  0  0  0  0
 92226  1  0  0  0  0
 93 94  1  0  0  0  0
 93 95  1  0  0  0  0
 93227  1  0  0  0  0
 94228  1  0  0  0  0
 94229  1  0  0  0  0
 94230  1  0  0  0  0
 95231  1  0  0  0  0
 95232  1  0  0  0  0
 95233  1  0  0  0  0
 96234  1  1  0  0  0
 96 99  1  0  0  0  0
 96 98  1  0  0  0  0
 98 97  2  0  0  0  0
 98109  1  0  0  0  0
 99100  1  0  0  0  0
 99235  1  0  0  0  0
 99236  1  0  0  0  0
100101  1  0  0  0  0
101102  2  0  0  0  0
102103  1  0  0  0  0
102131  1  0  0  0  0
103104  2  0  0  0  0
103237  1  0  0  0  0
104105  1  0  0  0  0
104238  1  0  0  0  0
105106  2  0  0  0  0
105239  1  0  0  0  0
106101  1  0  0  0  0
106240  1  0  0  0  0
107108  2  0  0  0  0
107241  1  0  0  0  0
109111  1  0  0  0  0
109242  1  0  0  0  0
110100  2  0  0  0  0
110243  1  0  0  0  0
111112  1  0  0  0  0
111244  1  0  0  0  0
111245  1  0  0  0  0
112113  1  0  0  0  0
112246  1  0  0  0  0
112247  1  0  0  0  0
113248  1  0  0  0  0
114107  1  0  0  0  0
114  1  1  0  0  0  0
114249  1  0  0  0  0
115  7  1  0  0  0  0
115250  1  0  0  0  0
116 10  1  0  0  0  0
116251  1  0  0  0  0
117 17  1  0  0  0  0
117252  1  0  0  0  0
118 21  1  0  0  0  0
118253  1  0  0  0  0
119 27  1  0  0  0  0
119254  1  0  0  0  0
120 33  1  0  0  0  0
120255  1  0  0  0  0
121 39  1  0  0  0  0
121256  1  0  0  0  0
122 43  1  0  0  0  0
122257  1  0  0  0  0
123 51  1  0  0  0  0
123258  1  0  0  0  0
124 58  1  0  0  0  0
124259  1  0  0  0  0
125 62  1  0  0  0  0
125260  1  0  0  0  0
126 70  1  0  0  0  0
126261  1  0  0  0  0
127 77  1  0  0  0  0
127262  1  0  0  0  0
128 81  1  0  0  0  0
128263  1  0  0  0  0
129 89  1  0  0  0  0
129264  1  0  0  0  0
130 96  1  0  0  0  0
130265  1  0  0  0  0
131110  1  0  0  0  0
131266  1  0  0  0  0
M  END
>  <DRUGBANK_ID>
DB00027

>  <SECONDARY_ACCESSION_NUMBERS>
BTD00036; BIOD00036

>  <COMMON_NAME>
Gramicidin D

>  <CAS_NUMBER>
1405-97-6

>  <UNII>
5IE62321P4

>  <SYNONYMS>
Bacillus brevis gramicidin D; Gramicidin; Gramicidin A; Gramicidin B; Gramicidin C; Gramicidina; Gramicidine

$$$$
