
 OpenBabel10282417223D

 48 49  0  0  0  0  0  0  0  0999 V2000
    0.7601   -0.0861   -0.3432 C   0  0  0  0  0  0  0  0  0  0  0  0
    0.3428    0.6673   -1.5594 C   0  0  0  0  0  0  0  0  0  0  0  0
   -0.1255   -1.5198   -0.2455 C   0  0  0  0  0  0  0  0  0  0  0  0
    0.3519    0.9557    0.9505 C   0  0  0  0  0  0  0  0  0  0  0  0
    2.2112   -0.2191   -0.5291 O   0  0  0  0  0  0  0  0  0  0  0  0
   -0.3454   -0.0342   -2.5464 C   0  0  0  0  0  0  0  0  0  0  0  0
    0.6766    2.0188   -1.7045 C   0  0  0  0  0  0  0  0  0  0  0  0
    0.6178   -2.6685   -0.4307 C   0  0  0  0  0  0  0  0  0  0  0  0
   -1.3344   -1.7945    0.3963 C   0  0  0  0  0  0  0  0  0  0  0  0
    1.3405    1.5104    1.7459 O   0  0  0  0  0  0  0  0  0  0  0  0
   -0.8192    1.2370    1.2410 O   0  0  0  0  0  0  0  0  0  0  0  0
    2.9989   -0.7578   -1.6273 C   0  0  0  0  0  0  0  0  0  0  0  0
   -0.7838    0.6136   -3.6592 C   0  0  0  0  0  0  0  0  0  0  0  0
    0.1848    2.6837   -2.8033 C   0  0  0  0  0  0  0  0  0  0  0  0
    0.3711   -3.9903   -0.0586 C   0  0  0  0  0  0  0  0  0  0  0  0
   -1.6079   -3.1331    0.8591 C   0  0  0  0  0  0  0  0  0  0  0  0
    2.7718    1.1919    1.8074 C   0  0  0  0  0  0  0  0  0  0  0  0
    3.0348   -2.2359   -1.9388 C   0  0  0  0  0  0  0  0  0  0  0  0
   -0.5126    1.9694   -3.7860 C   0  0  0  0  0  0  0  0  0  0  0  0
   -0.8079   -4.2434    0.5573 C   0  0  0  0  0  0  0  0  0  0  0  0
    3.2686   -0.2748    2.1483 C   0  0  0  0  0  0  0  0  0  0  0  0
    2.8488   -3.4005   -2.0887 C   0  0  0  0  0  0  0  0  0  0  0  0
    2.4780   -1.3603    1.5890 N   0  0  0  0  0  0  0  0  0  0  0  0
    3.1314   -2.6462    1.4456 C   0  0  0  0  0  0  0  0  0  0  0  0
    1.2162   -1.3501    2.2877 C   0  0  0  0  0  0  0  0  0  0  0  0
   -0.5488   -1.0974   -2.4620 H   0  0  0  0  0  0  0  0  0  0  0  0
    1.2940    2.5378   -0.9673 H   0  0  0  0  0  0  0  0  0  0  0  0
    1.6213   -2.3994   -0.5449 H   0  0  0  0  0  0  0  0  0  0  0  0
   -1.9273   -0.9809    0.8006 H   0  0  0  0  0  0  0  0  0  0  0  0
    2.7706   -0.2288   -2.5431 H   0  0  0  0  0  0  0  0  0  0  0  0
    4.0324   -0.5365   -1.3215 H   0  0  0  0  0  0  0  0  0  0  0  0
   -1.3367    0.0304   -4.3836 H   0  0  0  0  0  0  0  0  0  0  0  0
    0.3359    3.7537   -2.8868 H   0  0  0  0  0  0  0  0  0  0  0  0
    1.1786   -4.7245   -0.0486 H   0  0  0  0  0  0  0  0  0  0  0  0
   -2.3602   -3.2864    1.6280 H   0  0  0  0  0  0  0  0  0  0  0  0
    3.1927    1.5881    0.8853 H   0  0  0  0  0  0  0  0  0  0  0  0
    3.1794    1.8123    2.6238 H   0  0  0  0  0  0  0  0  0  0  0  0
   -0.8432    2.4716   -4.6817 H   0  0  0  0  0  0  0  0  0  0  0  0
   -0.9980   -5.2537    0.9050 H   0  0  0  0  0  0  0  0  0  0  0  0
    4.3198   -0.3402    1.8503 H   0  0  0  0  0  0  0  0  0  0  0  0
    3.2291   -0.4428    3.2307 H   0  0  0  0  0  0  0  0  0  0  0  0
    2.3545   -4.3678   -2.0039 H   0  0  0  0  0  0  0  0  0  0  0  0
    2.9712   -3.2488    2.3305 H   0  0  0  0  0  0  0  0  0  0  0  0
    2.7480   -3.2673    0.6386 H   0  0  0  0  0  0  0  0  0  0  0  0
    4.1812   -2.5587    1.1438 H   0  0  0  0  0  0  0  0  0  0  0  0
    1.0500   -1.9073    3.1854 H   0  0  0  0  0  0  0  0  0  0  0  0
    1.0822   -0.3384    2.5956 H   0  0  0  0  0  0  0  0  0  0  0  0
    0.3181   -1.3830    1.7327 H   0  0  0  0  0  0  0  0  0  0  0  0
  1  2  1  0  0  0  0
  1  3  1  0  0  0  0
  1  4  1  0  0  0  0
  1  5  1  0  0  0  0
  2  6  2  0  0  0  0
  2  7  1  0  0  0  0
  3  8  2  0  0  0  0
  3  9  1  0  0  0  0
  4 10  1  0  0  0  0
  4 11  2  0  0  0  0
  5 12  1  0  0  0  0
  6 13  1  0  0  0  0
  6 26  1  0  0  0  0
  7 14  2  0  0  0  0
  7 27  1  0  0  0  0
  8 15  1  0  0  0  0
  8 28  1  0  0  0  0
  9 16  2  0  0  0  0
  9 29  1  0  0  0  0
 10 17  1  0  0  0  0
 12 18  1  0  0  0  0
 12 30  1  0  0  0  0
 12 31  1  0  0  0  0
 13 19  2  0  0  0  0
 13 32  1  0  0  0  0
 14 19  1  0  0  0  0
 14 33  1  0  0  0  0
 15 20  2  0  0  0  0
 15 34  1  0  0  0  0
 16 20  1  0  0  0  0
 16 35  1  0  0  0  0
 17 21  1  0  0  0  0
 17 36  1  0  0  0  0
 17 37  1  0  0  0  0
 18 22  3  0  0  0  0
 19 38  1  0  0  0  0
 20 39  1  0  0  0  0
 21 23  1  0  0  0  0
 21 40  1  0  0  0  0
 21 41  1  0  0  0  0
 22 42  1  0  0  0  0
 23 24  1  0  0  0  0
 23 25  1  0  0  0  0
 24 43  1  0  0  0  0
 24 44  1  0  0  0  0
 24 45  1  0  0  0  0
 25 46  1  0  0  0  0
 25 47  1  0  0  0  0
 25 48  1  0  0  0  0
M  END
>  <DRUGBANK_ID>
DB15783

>  <COMMON_NAME>
Pargeverine

>  <CAS_NUMBER>
13479-13-5

>  <UNII>
UC61HM8FX0

>  <SYNONYMS>
Pargeverina; Pargeverine; Pargeverinum

$$$$
