
 OpenBabel10282417133D

 16 15  0  0  0  0  0  0  0  0999 V2000
    0.9725    0.0137    0.0212 C   0  0  0  0  0  0  0  0  0  0  0  0
    2.3260    0.0382    0.0267 O   0  0  0  0  0  0  0  0  0  0  0  0
    0.3844   -1.0254   -0.2607 O   0  0  0  0  0  0  0  0  0  0  0  0
    0.2469    1.3481    0.3816 C   0  0  0  0  0  0  0  0  0  0  0  0
   -0.6150    1.7533   -0.7496 N   0  0  0  0  0  0  0  0  0  0  0  0
   -0.6545    1.0918    1.5964 C   0  0  0  0  0  0  0  0  0  0  0  0
    1.1961    2.5067    0.6977 C   0  0  0  0  0  0  0  0  0  0  0  0
    2.7665    0.8759    0.2469 H   0  0  0  0  0  0  0  0  0  0  0  0
   -1.1257    2.6059   -0.5295 H   0  0  0  0  0  0  0  0  0  0  0  0
   -0.0604    1.9332   -1.5841 H   0  0  0  0  0  0  0  0  0  0  0  0
   -0.0604    0.7860    2.4651 H   0  0  0  0  0  0  0  0  0  0  0  0
   -1.2177    1.9903    1.8772 H   0  0  0  0  0  0  0  0  0  0  0  0
   -1.3801    0.2930    1.4023 H   0  0  0  0  0  0  0  0  0  0  0  0
    1.8393    2.2606    1.5508 H   0  0  0  0  0  0  0  0  0  0  0  0
    1.8436    2.7358   -0.1569 H   0  0  0  0  0  0  0  0  0  0  0  0
    0.6509    3.4217    0.9548 H   0  0  0  0  0  0  0  0  0  0  0  0
  1  3  2  0  0  0  0
  1  2  1  0  0  0  0
  2  8  1  0  0  0  0
  4  1  1  0  0  0  0
  4  5  1  0  0  0  0
  5  9  1  0  0  0  0
  5 10  1  0  0  0  0
  6  4  1  0  0  0  0
  6 11  1  0  0  0  0
  6 12  1  0  0  0  0
  6 13  1  0  0  0  0
  7  4  1  0  0  0  0
  7 14  1  0  0  0  0
  7 15  1  0  0  0  0
  7 16  1  0  0  0  0
M  END
>  <DRUGBANK_ID>
DB02952

>  <SECONDARY_ACCESSION_NUMBERS>
EXPT00471

>  <COMMON_NAME>
2-aminoisobutyric acid

>  <CAS_NUMBER>
62-57-7

>  <UNII>
1E7ZW41IQU

>  <SYNONYMS>
2-Amino-2-methylpropanoic acid; 2-aminoisobutyric acid; alpha-Aminoisobutyric acid; alpha-Methylalanine; α-aminoisobutanoic acid; α-aminoisobutyric acid; α-methylalanine; α,α-dimethylglycine

$$$$
