
 OpenBabel10282417203D

 55 58  0  0  1  0  0  0  0  0999 V2000
    0.2814    4.9536    0.6525 C   0  0  0  0  0  0  0  0  0  0  0  0
    1.7040    4.9478    1.2763 C   0  0  1  0  0  0  0  0  0  0  0  0
    2.9895    4.2200    0.5236 C   0  0  0  0  0  0  0  0  0  0  0  0
    4.0190    4.8797    0.3468 O   0  0  0  0  0  0  0  0  0  0  0  0
    2.9097    2.7312    0.0836 C   0  0  1  0  0  0  0  0  0  0  0  0
    4.3094    2.3919   -1.3133 C   0  0  0  0  0  0  0  0  0  0  0  0
    5.2800    1.2538   -0.8941 C   0  0  0  0  0  0  0  0  0  0  0  0
    4.5869    1.4571    0.3558 C   0  0  2  0  0  0  0  0  0  0  0  0
    3.0704    1.3635   -0.3064 C   0  0  2  0  0  0  0  0  0  0  0  0
    2.6831   -0.0875   -0.0433 C   0  0  0  0  0  0  0  0  0  0  0  0
    3.1159   -0.7831    1.3856 C   0  0  0  0  0  0  0  0  0  0  0  0
    4.6216   -0.7965    1.9647 C   0  0  0  0  0  0  0  0  0  0  0  0
    5.5415   -1.7096    2.6299 C   0  0  0  0  0  0  0  0  0  0  0  0
    6.0300   -3.3465    3.4272 C   0  0  0  0  0  0  0  0  0  0  0  0
    7.2184   -4.2473    2.6882 C   0  0  0  0  0  0  0  0  0  0  0  0
    7.0042   -3.4863    1.5013 C   0  0  0  0  0  0  0  0  0  0  0  0
    5.9901   -3.7428    0.7679 O   0  0  0  0  0  0  0  0  0  0  0  0
    7.6514   -2.1856    1.6426 C   0  0  0  0  0  0  0  0  0  0  0  0
    6.8823   -1.2570    2.2345 C   0  0  0  0  0  0  0  0  0  0  0  0
    7.4051    0.1325    2.1385 C   0  0  0  0  0  0  0  0  0  0  0  0
    6.4652    1.2452    1.8356 C   0  0  0  0  0  0  0  0  0  0  0  0
    5.0181    0.7610    1.6605 C   0  0  1  0  0  0  0  0  0  0  0  0
    2.0493    2.1574   -1.6903 C   0  0  0  0  0  0  0  0  0  0  0  0
    1.5134    2.1595    0.8344 C   0  0  0  0  0  0  0  0  0  0  0  0
    2.0147    6.3453    1.3490 O   0  0  0  0  0  0  0  0  0  0  0  0
    0.3610    5.1133   -0.4216 H   0  0  0  0  0  0  0  0  0  0  0  0
   -0.3306    5.7586    1.0843 H   0  0  0  0  0  0  0  0  0  0  0  0
   -0.3543    4.0681    0.7915 H   0  0  0  0  0  0  0  0  0  0  0  0
    1.6461    4.6111    2.3262 H   0  0  0  0  0  0  0  0  0  0  0  0
    4.8367    2.9826   -2.0877 H   0  0  0  0  0  0  0  0  0  0  0  0
    3.8746    1.8802   -2.1817 H   0  0  0  0  0  0  0  0  0  0  0  0
    6.3436    1.4840   -0.9879 H   0  0  0  0  0  0  0  0  0  0  0  0
    5.0907    0.2470   -1.2917 H   0  0  0  0  0  0  0  0  0  0  0  0
    4.9094    2.5067    0.6341 H   0  0  0  0  0  0  0  0  0  0  0  0
    1.6043   -0.1791   -0.2089 H   0  0  0  0  0  0  0  0  0  0  0  0
    3.1240   -0.6610   -0.8724 H   0  0  0  0  0  0  0  0  0  0  0  0
    2.5296   -0.2110    2.1138 H   0  0  0  0  0  0  0  0  0  0  0  0
    2.7136   -1.7901    1.3262 H   0  0  0  0  0  0  0  0  0  0  0  0
    5.2926   -4.1475    3.5964 H   0  0  0  0  0  0  0  0  0  0  0  0
    6.4457   -3.1684    4.4493 H   0  0  0  0  0  0  0  0  0  0  0  0
    7.0817   -5.3056    2.3985 H   0  0  0  0  0  0  0  0  0  0  0  0
    8.2771   -4.1429    3.0199 H   0  0  0  0  0  0  0  0  0  0  0  0
    8.6885   -2.1227    1.9569 H   0  0  0  0  0  0  0  0  0  0  0  0
    8.0840    0.1294    1.2711 H   0  0  0  0  0  0  0  0  0  0  0  0
    7.9694    0.4020    3.0242 H   0  0  0  0  0  0  0  0  0  0  0  0
    6.8710    1.7736    0.9495 H   0  0  0  0  0  0  0  0  0  0  0  0
    6.5347    2.0656    2.5660 H   0  0  0  0  0  0  0  0  0  0  0  0
    4.4527    1.3506    2.4130 H   0  0  0  0  0  0  0  0  0  0  0  0
    0.9865    2.3155   -1.4820 H   0  0  0  0  0  0  0  0  0  0  0  0
    2.3484    3.2521   -1.8455 H   0  0  0  0  0  0  0  0  0  0  0  0
    2.1446    1.7249   -2.6852 H   0  0  0  0  0  0  0  0  0  0  0  0
    0.7479    1.6868    0.1936 H   0  0  0  0  0  0  0  0  0  0  0  0
    1.6167    1.5280    1.7222 H   0  0  0  0  0  0  0  0  0  0  0  0
    0.9247    2.9244    1.2808 H   0  0  0  0  0  0  0  0  0  0  0  0
    2.2817    6.5780    0.4410 H   0  0  0  0  0  0  0  0  0  0  0  0
  1  2  1  0  0  0  0
  1 26  1  0  0  0  0
  1 27  1  0  0  0  0
  1 28  1  0  0  0  0
  2  3  1  0  0  0  0
  2 25  1  0  0  0  0
  2 29  1  1  0  0  0
  3  4  2  0  0  0  0
  5  6  1  0  0  0  0
  5  9  1  0  0  0  0
  5 24  1  0  0  0  0
  5  3  1  1  0  0  0
  6  7  1  0  0  0  0
  6 30  1  0  0  0  0
  6 31  1  0  0  0  0
  7 32  1  0  0  0  0
  7 33  1  0  0  0  0
  8  7  1  0  0  0  0
  8  9  1  0  0  0  0
  8 22  1  0  0  0  0
  8 34  1  6  0  0  0
  9 10  1  0  0  0  0
  9 23  1  1  0  0  0
 10 11  1  0  0  0  0
 10 35  1  0  0  0  0
 10 36  1  0  0  0  0
 11 12  1  0  0  0  0
 11 37  1  0  0  0  0
 11 38  1  0  0  0  0
 12 13  2  0  0  0  0
 12 22  1  0  0  0  0
 13 14  1  0  0  0  0
 13 19  1  0  0  0  0
 14 15  1  0  0  0  0
 14 39  1  0  0  0  0
 14 40  1  0  0  0  0
 15 16  1  0  0  0  0
 15 41  1  0  0  0  0
 15 42  1  0  0  0  0
 16 17  2  0  0  0  0
 16 18  1  0  0  0  0
 18 19  2  0  0  0  0
 18 43  1  0  0  0  0
 19 20  1  0  0  0  0
 20 21  1  0  0  0  0
 20 44  1  0  0  0  0
 20 45  1  0  0  0  0
 21 46  1  0  0  0  0
 21 47  1  0  0  0  0
 22 21  1  0  0  0  0
 22 48  1  1  0  0  0
 23 49  1  0  0  0  0
 23 50  1  0  0  0  0
 23 51  1  0  0  0  0
 24 52  1  0  0  0  0
 24 53  1  0  0  0  0
 24 54  1  0  0  0  0
 25 55  1  0  0  0  0
M  END
>  <DRUGBANK_ID>
DB13129

>  <COMMON_NAME>
Trimegestone

>  <CAS_NUMBER>
74513-62-5

>  <UNII>
4658K0H08W

>  <SYNONYMS>
Trimegestone

$$$$
