715
 OpenBabel10282417103D

 44 47  0  0  1  0  0  0  0  0999 V2000
   -5.4559   -5.4814    0.2563 F   0  0  0  0  0  0  0  0  0  0  0  0
   -2.6062   -1.2123   -2.6107 O   0  0  0  0  0  0  0  0  0  0  0  0
   -1.2913   -5.4760   -0.6477 O   0  0  0  0  0  0  0  0  0  0  0  0
   -1.7851   -4.6595    1.5509 O   0  0  0  0  0  0  0  0  0  0  0  0
   -4.2588    2.9716    0.0363 N   0  0  0  0  0  0  0  0  0  0  0  0
   -4.1888    0.1652    0.0273 C   0  0  1  0  0  0  0  0  0  0  0  0
   -4.0757    0.8436   -1.3363 C   0  0  1  0  0  0  0  0  0  0  0  0
   -4.3375    0.9293    1.3476 C   0  0  0  0  0  0  0  0  0  0  0  0
   -3.6846    2.3397   -1.1580 C   0  0  0  0  0  0  0  0  0  0  0  0
   -3.7543    2.3373    1.2514 C   0  0  0  0  0  0  0  0  0  0  0  0
   -2.9987    0.2111   -2.3959 C   0  0  0  0  0  0  0  0  0  0  0  0
   -4.9185   -1.3107   -0.0799 C   0  0  0  0  0  0  0  0  0  0  0  0
   -4.8747   -2.2117   -1.2177 C   0  0  0  0  0  0  0  0  0  0  0  0
   -5.3545   -1.9156    1.1007 C   0  0  0  0  0  0  0  0  0  0  0  0
   -4.9628   -3.6226   -1.0926 C   0  0  0  0  0  0  0  0  0  0  0  0
   -5.6136   -3.3025    1.1763 C   0  0  0  0  0  0  0  0  0  0  0  0
   -1.9238   -2.0145   -1.6756 C   0  0  0  0  0  0  0  0  0  0  0  0
   -5.3598   -4.1524    0.1079 C   0  0  0  0  0  0  0  0  0  0  0  0
   -1.7212   -3.3520   -1.8537 C   0  0  0  0  0  0  0  0  0  0  0  0
   -2.0053   -1.6665   -0.3379 C   0  0  0  0  0  0  0  0  0  0  0  0
   -1.5770   -4.1496   -0.6935 C   0  0  0  0  0  0  0  0  0  0  0  0
   -1.7952   -3.6784    0.6082 C   0  0  0  0  0  0  0  0  0  0  0  0
   -2.0480   -2.4183    0.8393 C   0  0  0  0  0  0  0  0  0  0  0  0
   -1.0613   -5.6153    0.7792 C   0  0  0  0  0  0  0  0  0  0  0  0
   -4.0022    3.9585    0.0525 H   0  0  0  0  0  0  0  0  0  0  0  0
   -3.1030    0.2171    0.2545 H   0  0  0  0  0  0  0  0  0  0  0  0
   -5.0937    0.8079   -1.7405 H   0  0  0  0  0  0  0  0  0  0  0  0
   -5.3752    0.9335    1.6533 H   0  0  0  0  0  0  0  0  0  0  0  0
   -3.7543    0.4024    2.1340 H   0  0  0  0  0  0  0  0  0  0  0  0
   -2.5920    2.4612   -1.1286 H   0  0  0  0  0  0  0  0  0  0  0  0
   -4.0259    2.8888   -2.0423 H   0  0  0  0  0  0  0  0  0  0  0  0
   -4.0628    2.8939    2.1418 H   0  0  0  0  0  0  0  0  0  0  0  0
   -2.6498    2.3444    1.2634 H   0  0  0  0  0  0  0  0  0  0  0  0
   -3.4259    0.5277   -3.3632 H   0  0  0  0  0  0  0  0  0  0  0  0
   -2.0502    0.7446   -2.3129 H   0  0  0  0  0  0  0  0  0  0  0  0
   -4.5767   -1.9302   -2.2241 H   0  0  0  0  0  0  0  0  0  0  0  0
   -5.3938   -1.3476    2.0212 H   0  0  0  0  0  0  0  0  0  0  0  0
   -4.6132   -4.2987   -1.8796 H   0  0  0  0  0  0  0  0  0  0  0  0
   -5.9258   -3.7416    2.1145 H   0  0  0  0  0  0  0  0  0  0  0  0
   -1.8531   -3.8004   -2.8291 H   0  0  0  0  0  0  0  0  0  0  0  0
   -2.8077   -1.0723   -0.4086 H   0  0  0  0  0  0  0  0  0  0  0  0
   -2.5859   -2.0789    1.7395 H   0  0  0  0  0  0  0  0  0  0  0  0
   -1.3529   -6.6130    1.0959 H   0  0  0  0  0  0  0  0  0  0  0  0
    0.0061   -5.4454    0.9885 H   0  0  0  0  0  0  0  0  0  0  0  0
  1 18  1  0  0  0  0
  2 11  1  0  0  0  0
  2 17  1  0  0  0  0
  3 21  1  0  0  0  0
  3 24  1  0  0  0  0
  4 22  1  0  0  0  0
  4 24  1  0  0  0  0
  5  9  1  0  0  0  0
  5 10  1  0  0  0  0
  5 25  1  0  0  0  0
  6  7  1  0  0  0  0
  6  8  1  0  0  0  0
  6 26  1  1  0  0  0
  6 12  1  0  0  0  0
  7  9  1  0  0  0  0
  7 11  1  0  0  0  0
  7 27  1  6  0  0  0
  8 10  1  0  0  0  0
  8 28  1  0  0  0  0
  8 29  1  0  0  0  0
  9 30  1  0  0  0  0
  9 31  1  0  0  0  0
 10 32  1  0  0  0  0
 10 33  1  0  0  0  0
 11 34  1  0  0  0  0
 11 35  1  0  0  0  0
 12 13  2  0  0  0  0
 12 14  1  0  0  0  0
 13 15  1  0  0  0  0
 13 36  1  0  0  0  0
 14 16  2  0  0  0  0
 14 37  1  0  0  0  0
 15 18  2  0  0  0  0
 15 38  1  0  0  0  0
 16 18  1  0  0  0  0
 16 39  1  0  0  0  0
 17 19  2  0  0  0  0
 17 20  1  0  0  0  0
 19 21  1  0  0  0  0
 19 40  1  0  0  0  0
 20 23  2  0  0  0  0
 20 41  1  0  0  0  0
 21 22  2  0  0  0  0
 22 23  1  0  0  0  0
 23 42  1  0  0  0  0
 24 43  1  0  0  0  0
 24 44  1  0  0  0  0
M  END
>  <DRUGBANK_ID>
DB00715

>  <COMMON_NAME>
Paroxetine

>  <CAS_NUMBER>
61869-08-7

>  <UNII>
41VRH5220H

>  <SYNONYMS>
(âˆ’)-(3S,4R)-4-(p-fluorophenyl)-3-((3,4-(methylenedioxy)phenoxy)methyl)piperidine; (3S-trans)-3-((1,3-benzodioxol-5-yloxy)methyl)-4-(4-fluorophenyl)piperidine; Paroxetina; Paroxetine; Paroxetinum

$$$$
