1149
 OpenBabel10282417113D

 65 68  0  0  0  0  0  0  0  0999 V2000
   -2.2103   -0.1421   -0.0345 Cl  0  0  0  0  0  0  0  0  0  0  0  0
    8.1564    4.4621   -0.6062 O   0  0  0  0  0  0  0  0  0  0  0  0
    7.6619    5.9552   -4.7141 O   0  0  0  0  0  0  0  0  0  0  0  0
    3.0950    4.9947   -0.4313 N   0  0  0  0  0  0  0  0  0  0  0  0
    1.8859    2.4597    0.0031 N   0  0  0  0  0  0  0  0  0  0  0  0
    7.1137    2.3242   -0.6024 N   0  0  0  0  0  0  0  0  0  0  0  0
    8.4635    2.9255   -2.3870 N   0  0  0  0  0  0  0  0  0  0  0  0
    7.0873    1.3183   -1.5760 N   0  0  0  0  0  0  0  0  0  0  0  0
    1.9597    4.9046    0.4404 C   0  0  0  0  0  0  0  0  0  0  0  0
    2.7925    3.8635   -1.6066 C   0  0  0  0  0  0  0  0  0  0  0  0
    1.9495    3.4998    1.0507 C   0  0  0  0  0  0  0  0  0  0  0  0
    2.8298    2.4958   -1.0394 C   0  0  0  0  0  0  0  0  0  0  0  0
    4.5232    5.0513    0.4553 C   0  0  0  0  0  0  0  0  0  0  0  0
    5.3306    3.7675    1.0038 C   0  0  0  0  0  0  0  0  0  0  0  0
    5.7764    2.5226    0.1045 C   0  0  0  0  0  0  0  0  0  0  0  0
    1.4713    1.1760    0.2026 C   0  0  0  0  0  0  0  0  0  0  0  0
    8.0291    3.3470   -1.0948 C   0  0  0  0  0  0  0  0  0  0  0  0
    7.9462    1.6866   -2.4837 C   0  0  0  0  0  0  0  0  0  0  0  0
    0.1002    1.1005    0.1373 C   0  0  0  0  0  0  0  0  0  0  0  0
    2.2749    0.0167    0.1444 C   0  0  0  0  0  0  0  0  0  0  0  0
    9.1826    3.7902   -3.5499 C   0  0  0  0  0  0  0  0  0  0  0  0
    8.5591    0.6984   -3.4034 C   0  0  0  0  0  0  0  0  0  0  0  0
   -0.5032   -0.1198    0.0479 C   0  0  0  0  0  0  0  0  0  0  0  0
    1.6610   -1.2238    0.0523 C   0  0  0  0  0  0  0  0  0  0  0  0
    8.3983    4.6402   -4.8589 C   0  0  0  0  0  0  0  0  0  0  0  0
    0.2656   -1.2823    0.0117 C   0  0  0  0  0  0  0  0  0  0  0  0
    8.3349    0.8836   -4.8784 C   0  0  0  0  0  0  0  0  0  0  0  0
    6.4532    5.7392   -4.1337 C   0  0  0  0  0  0  0  0  0  0  0  0
    6.6232    4.6962   -3.2811 C   0  0  0  0  0  0  0  0  0  0  0  0
    5.3225    6.5445   -3.9562 C   0  0  0  0  0  0  0  0  0  0  0  0
    5.7669    4.2562   -2.4922 C   0  0  0  0  0  0  0  0  0  0  0  0
    4.5129    6.3294   -2.8876 C   0  0  0  0  0  0  0  0  0  0  0  0
    4.8757    5.2034   -2.2566 C   0  0  0  0  0  0  0  0  0  0  0  0
    2.0419    5.7232    1.1571 H   0  0  0  0  0  0  0  0  0  0  0  0
    1.0701    5.0849   -0.1766 H   0  0  0  0  0  0  0  0  0  0  0  0
    1.8832    4.1344   -2.1722 H   0  0  0  0  0  0  0  0  0  0  0  0
    3.4438    3.7224   -2.4878 H   0  0  0  0  0  0  0  0  0  0  0  0
    2.8527    3.3728    1.6402 H   0  0  0  0  0  0  0  0  0  0  0  0
    1.1221    3.4404    1.7442 H   0  0  0  0  0  0  0  0  0  0  0  0
    3.6732    2.2972   -0.4488 H   0  0  0  0  0  0  0  0  0  0  0  0
    2.9009    1.7023   -1.8120 H   0  0  0  0  0  0  0  0  0  0  0  0
    5.3324    5.6068   -0.0796 H   0  0  0  0  0  0  0  0  0  0  0  0
    4.3907    5.8676    1.1952 H   0  0  0  0  0  0  0  0  0  0  0  0
    6.2413    4.1019    1.5063 H   0  0  0  0  0  0  0  0  0  0  0  0
    4.7105    3.4042    1.8270 H   0  0  0  0  0  0  0  0  0  0  0  0
    5.4631    1.5821    0.5912 H   0  0  0  0  0  0  0  0  0  0  0  0
    5.1871    2.5332   -0.7954 H   0  0  0  0  0  0  0  0  0  0  0  0
   -0.4392    2.0402    0.0394 H   0  0  0  0  0  0  0  0  0  0  0  0
    3.3665    0.0583    0.0971 H   0  0  0  0  0  0  0  0  0  0  0  0
    9.7852    4.5316   -3.0303 H   0  0  0  0  0  0  0  0  0  0  0  0
    9.8128    3.0765   -4.0820 H   0  0  0  0  0  0  0  0  0  0  0  0
    9.6287    0.7798   -3.1736 H   0  0  0  0  0  0  0  0  0  0  0  0
    8.2386   -0.2986   -3.0848 H   0  0  0  0  0  0  0  0  0  0  0  0
    2.2580   -2.1310   -0.0096 H   0  0  0  0  0  0  0  0  0  0  0  0
    9.1969    4.9511   -5.5246 H   0  0  0  0  0  0  0  0  0  0  0  0
    7.7295    3.9643   -5.4143 H   0  0  0  0  0  0  0  0  0  0  0  0
   -0.2294   -2.2407   -0.0592 H   0  0  0  0  0  0  0  0  0  0  0  0
    8.6656    1.8508   -5.2520 H   0  0  0  0  0  0  0  0  0  0  0  0
    8.9162    0.1263   -5.4116 H   0  0  0  0  0  0  0  0  0  0  0  0
    7.2780    0.7856   -5.1317 H   0  0  0  0  0  0  0  0  0  0  0  0
    7.5704    4.8171   -2.7831 H   0  0  0  0  0  0  0  0  0  0  0  0
    5.0795    7.3717   -4.5846 H   0  0  0  0  0  0  0  0  0  0  0  0
    6.0709    3.8889   -1.5319 H   0  0  0  0  0  0  0  0  0  0  0  0
    3.6755    6.8770   -2.4636 H   0  0  0  0  0  0  0  0  0  0  0  0
    4.5412    4.7583   -1.4150 H   0  0  0  0  0  0  0  0  0  0  0  0
  1 23  1  0  0  0  0
  2 17  2  0  0  0  0
  3 25  1  0  0  0  0
  3 28  1  0  0  0  0
  4  9  1  0  0  0  0
  4 10  1  0  0  0  0
  4 13  1  0  0  0  0
  5 11  1  0  0  0  0
  5 12  1  0  0  0  0
  5 16  1  0  0  0  0
  6  8  1  0  0  0  0
  6 15  1  0  0  0  0
  6 17  1  0  0  0  0
  7 17  1  0  0  0  0
  7 18  1  0  0  0  0
  7 21  1  0  0  0  0
  8 18  2  0  0  0  0
  9 11  1  0  0  0  0
  9 34  1  0  0  0  0
  9 35  1  0  0  0  0
 10 12  1  0  0  0  0
 10 36  1  0  0  0  0
 10 37  1  0  0  0  0
 11 38  1  0  0  0  0
 11 39  1  0  0  0  0
 12 40  1  0  0  0  0
 12 41  1  0  0  0  0
 13 14  1  0  0  0  0
 13 42  1  0  0  0  0
 13 43  1  0  0  0  0
 14 15  1  0  0  0  0
 14 44  1  0  0  0  0
 14 45  1  0  0  0  0
 15 46  1  0  0  0  0
 15 47  1  0  0  0  0
 16 19  2  0  0  0  0
 16 20  1  0  0  0  0
 18 22  1  0  0  0  0
 19 23  1  0  0  0  0
 19 48  1  0  0  0  0
 20 24  2  0  0  0  0
 20 49  1  0  0  0  0
 21 25  1  0  0  0  0
 21 50  1  0  0  0  0
 21 51  1  0  0  0  0
 22 27  1  0  0  0  0
 22 52  1  0  0  0  0
 22 53  1  0  0  0  0
 23 26  2  0  0  0  0
 24 26  1  0  0  0  0
 24 54  1  0  0  0  0
 25 55  1  0  0  0  0
 25 56  1  0  0  0  0
 26 57  1  0  0  0  0
 27 58  1  0  0  0  0
 27 59  1  0  0  0  0
 27 60  1  0  0  0  0
 28 29  2  0  0  0  0
 28 30  1  0  0  0  0
 29 31  1  0  0  0  0
 29 61  1  0  0  0  0
 30 32  2  0  0  0  0
 30 62  1  0  0  0  0
 31 33  2  0  0  0  0
 31 63  1  0  0  0  0
 32 33  1  0  0  0  0
 32 64  1  0  0  0  0
 33 65  1  0  0  0  0
M  END
>  <DRUGBANK_ID>
DB01149

>  <SECONDARY_ACCESSION_NUMBERS>
APRD00402

>  <COMMON_NAME>
Nefazodone

>  <CAS_NUMBER>
83366-66-9

>  <UNII>
59H4FCV1TF

>  <SYNONYMS>
1-(3-(4-(m-Chlorophenyl)-1-piperazinyl)propyl)-3-ethyl-4-(2-phenoxyethyl)-delta2-1,2,4-triazolin-5-one; Nefazodona; Nefazodone; Nefazodonum

$$$$
