
 OpenBabel10282417123D

 60 62  0  0  0  0  0  0  0  0999 V2000
    2.2762   -0.3622   -2.7878 C   0  0  1  0  0  0  0  0  0  0  0  0
    0.5181   -1.8733   -1.9665 C   0  0  0  0  0  0  0  0  0  0  0  0
    2.1870   -2.4154   -1.6227 C   0  0  0  0  0  0  0  0  0  0  0  0
   -0.5360   -1.8100   -0.0157 C   0  0  1  0  0  0  0  0  0  0  0  0
    1.6353   -2.2705   -0.1743 C   0  0  2  0  0  0  0  0  0  0  0  0
    0.5819   -2.2765    0.8266 O   0  0  0  0  0  0  0  0  0  0  0  0
    3.6598    1.5736   -3.4507 O   0  0  0  0  0  0  0  0  0  0  0  0
    5.0402    3.2080   -4.1254 C   0  0  0  0  0  0  0  0  0  0  0  0
    5.8764    4.6726   -3.8610 O   0  0  0  0  0  0  0  0  0  0  0  0
    1.5386   -0.9326   -1.2014 C   0  0  0  0  0  0  0  0  0  0  0  0
    1.7101    0.2729   -0.8387 C   0  0  0  0  0  0  0  0  0  0  0  0
    5.5535    0.7867   -3.0234 C   0  0  0  0  0  0  0  0  0  0  0  0
    7.4120    1.2827   -4.5329 C   0  0  0  0  0  0  0  0  0  0  0  0
    6.4179    1.7066   -3.3894 C   0  0  0  0  0  0  0  0  0  0  0  0
    2.9457    0.1779   -0.3315 C   0  0  1  0  0  0  0  0  0  0  0  0
    4.7151    1.0111   -1.8519 C   0  0  0  0  0  0  0  0  0  0  0  0
    3.9475    0.0239   -1.4000 C   0  0  0  0  0  0  0  0  0  0  0  0
    6.7333    4.4928   -5.0549 C   0  0  0  0  0  0  0  0  0  0  0  0
    7.0476    1.8911   -6.1725 C   0  0  0  0  0  0  0  0  0  0  0  0
    7.1360    3.3520   -5.2765 C   0  0  0  0  0  0  0  0  0  0  0  0
   -0.7676   -0.4750    0.4465 C   0  0  2  0  0  0  0  0  0  0  0  0
   -1.5451    0.3764   -0.4250 C   0  0  0  0  0  0  0  0  0  0  0  0
    0.4044   -0.2299    0.1332 N   0  0  0  0  0  0  0  0  0  0  0  0
   -0.8528    1.9075   -1.1062 S   0  0  0  0  0  0  0  0  0  0  0  0
    0.6366    1.5878   -0.6942 C   0  0  0  0  0  0  0  0  0  0  0  0
    1.7571    1.9618   -1.4270 O   0  0  0  0  0  0  0  0  0  0  0  0
    6.4892    3.2643   -6.4384 C   0  0  0  0  0  0  0  0  0  0  0  0
    3.0136    1.8410    0.3419 C   0  0  0  0  0  0  0  0  0  0  0  0
   -1.7786   -1.9561    1.2249 O   0  0  0  0  0  0  0  0  0  0  0  0
   -0.6421   -0.2229    1.4836 H   0  0  0  0  0  0  0  0  0  0  0  0
    1.1032   -1.1198   -3.2917 H   0  0  0  0  0  0  0  0  0  0  0  0
   -0.8281   -2.5519   -1.4207 H   0  0  0  0  0  0  0  0  0  0  0  0
   -0.0509   -2.9721   -0.8582 H   0  0  0  0  0  0  0  0  0  0  0  0
    1.5350   -3.5542   -0.7448 H   0  0  0  0  0  0  0  0  0  0  0  0
    1.9952   -3.5296   -1.9753 H   0  0  0  0  0  0  0  0  0  0  0  0
    2.5761   -2.2089    0.1676 H   0  0  0  0  0  0  0  0  0  0  0  0
    1.8896   -1.3078   -2.1495 H   0  0  0  0  0  0  0  0  0  0  0  0
    0.0532   -0.5437   -1.7897 H   0  0  0  0  0  0  0  0  0  0  0  0
    0.9946    0.6442   -2.0550 H   0  0  0  0  0  0  0  0  0  0  0  0
    0.9658    0.9322    0.5406 H   0  0  0  0  0  0  0  0  0  0  0  0
    5.3861   -0.0341   -3.7151 H   0  0  0  0  0  0  0  0  0  0  0  0
    8.3097    1.8262   -4.4360 H   0  0  0  0  0  0  0  0  0  0  0  0
    7.1176    0.4851   -5.1316 H   0  0  0  0  0  0  0  0  0  0  0  0
    6.3749    2.7450   -2.9238 H   0  0  0  0  0  0  0  0  0  0  0  0
    3.0284   -0.4612    0.4944 H   0  0  0  0  0  0  0  0  0  0  0  0
    4.5349    2.0650   -1.4896 H   0  0  0  0  0  0  0  0  0  0  0  0
    3.5113    0.6739   -0.7478 H   0  0  0  0  0  0  0  0  0  0  0  0
    8.0399    4.8982   -6.1268 H   0  0  0  0  0  0  0  0  0  0  0  0
    6.7860    1.0741   -6.8786 H   0  0  0  0  0  0  0  0  0  0  0  0
    5.8795    1.4346   -5.6354 H   0  0  0  0  0  0  0  0  0  0  0  0
   -1.9599   -0.2103   -1.2336 H   0  0  0  0  0  0  0  0  0  0  0  0
   -2.3208    0.7260    0.2115 H   0  0  0  0  0  0  0  0  0  0  0  0
    1.3836   -0.8122    0.4584 H   0  0  0  0  0  0  0  0  0  0  0  0
    6.5626    2.7468   -5.0261 H   0  0  0  0  0  0  0  0  0  0  0  0
    5.9722    4.1307   -6.9349 H   0  0  0  0  0  0  0  0  0  0  0  0
    7.7121    3.6364   -6.6303 H   0  0  0  0  0  0  0  0  0  0  0  0
    2.2799    1.9181    1.0913 H   0  0  0  0  0  0  0  0  0  0  0  0
    4.0393    1.8882    0.5386 H   0  0  0  0  0  0  0  0  0  0  0  0
    2.8675    2.6448   -0.4234 H   0  0  0  0  0  0  0  0  0  0  0  0
   -2.7307   -1.8173    1.0324 H   0  0  0  0  0  0  0  0  0  0  0  0
  1  7  1  0  0  0  0
  1 31  1  1  0  0  0
  2  1  1  0  0  0  0
  2 32  1  0  0  0  0
  2 33  1  0  0  0  0
  3  1  1  0  0  0  0
  3 34  1  0  0  0  0
  3 35  1  0  0  0  0
  4  2  1  0  0  0  0
  4 29  1  1  0  0  0
  5  3  1  0  0  0  0
  5 10  1  0  0  0  0
  5 36  1  1  0  0  0
  6  4  1  0  0  0  0
  6  5  1  0  0  0  0
  8  7  1  0  0  0  0
  8  9  2  0  0  0  0
 10 37  1  0  0  0  0
 10 38  1  0  0  0  0
 11 10  1  0  0  0  0
 11 39  1  0  0  0  0
 11 40  1  0  0  0  0
 12 41  1  0  0  0  0
 13 42  1  0  0  0  0
 13 43  1  0  0  0  0
 14 12  2  0  0  0  0
 14 13  1  0  0  0  0
 14 44  1  0  0  0  0
 15 11  1  0  0  0  0
 15 28  1  0  0  0  0
 15 45  1  1  0  0  0
 16 12  1  0  0  0  0
 16 46  1  0  0  0  0
 17 15  1  0  0  0  0
 17 16  2  0  0  0  0
 17 47  1  0  0  0  0
 18  8  1  0  0  0  0
 18 48  1  0  0  0  0
 19 13  1  0  0  0  0
 19 49  1  0  0  0  0
 19 50  1  0  0  0  0
 20 18  2  0  0  0  0
 20 19  1  0  0  0  0
 20 27  1  0  0  0  0
 21 30  1  1  0  0  0
 21  4  1  0  0  0  0
 22 21  1  0  0  0  0
 22 51  1  0  0  0  0
 22 52  1  0  0  0  0
 23 21  1  0  0  0  0
 23 53  1  0  0  0  0
 24 22  1  0  0  0  0
 25 23  1  0  0  0  0
 25 24  1  0  0  0  0
 25 26  2  0  0  0  0
 27 54  1  0  0  0  0
 27 55  1  0  0  0  0
 27 56  1  0  0  0  0
 28 57  1  0  0  0  0
 28 58  1  0  0  0  0
 28 59  1  0  0  0  0
 29 60  1  0  0  0  0
M  END
>  <DRUGBANK_ID>
DB02621

>  <SECONDARY_ACCESSION_NUMBERS>
EXPT02004

>  <COMMON_NAME>
Latrunculin A

>  <CAS_NUMBER>
76343-93-6

>  <UNII>
SRQ9WWM084

>  <SYNONYMS>
(+)-latrunculin A; (4R)-4-[(1R,4Z,8E,10Z,12S,15R,17R)-17-hydroxy-5,12-dimethyl-3-oxo-2,16-dioxabicyclo[13.3.1]nonadeca-4,8,10-trien-17-yl]-1,3-thiazolidin-2-one; LAT-A; LatA

$$$$
