
 OpenBabel10282417133D

 52 52  0  0  0  0  0  0  0  0999 V2000
    1.3557   -0.0076   -0.3051 N   0  0  0  0  0  0  0  0  0  0  0  0
    0.8685   -1.1981   -1.1126 C   0  0  1  0  0  0  0  0  0  0  0  0
    1.2380   -2.4945   -0.4904 C   0  0  0  0  0  0  0  0  0  0  0  0
    0.6226   -2.6938    0.9052 C   0  0  0  0  0  0  0  0  0  0  0  0
   -0.9153   -2.6219    1.1316 C   0  0  0  0  0  0  0  0  0  0  0  0
   -1.5505   -3.6787    1.2537 O   0  0  0  0  0  0  0  0  0  0  0  0
   -1.6685   -1.4202    1.1030 N   0  0  0  0  0  0  0  0  0  0  0  0
   -1.3082    0.0068    0.6443 C   0  0  1  0  0  0  0  0  0  0  0  0
   -1.5388    0.7247   -0.9001 C   0  0  0  0  0  0  0  0  0  0  0  0
   -3.2269    0.7633   -1.8458 S   0  0  0  0  0  0  0  0  0  0  0  0
   -1.5182    1.1365    1.6217 C   0  0  0  0  0  0  0  0  0  0  0  0
   -0.5772    1.6637    2.2088 O   0  0  0  0  0  0  0  0  0  0  0  0
   -2.8007    1.5800    1.7518 N   0  0  0  0  0  0  0  0  0  0  0  0
   -3.9291    1.0466    1.0421 C   0  0  0  0  0  0  0  0  0  0  0  0
   -4.9737    0.1902    1.6922 C   0  0  0  0  0  0  0  0  0  0  0  0
   -6.1699    0.2475    1.4687 O   0  0  0  0  0  0  0  0  0  0  0  0
   -4.4231   -0.8686    2.3296 O   0  0  0  0  0  0  0  0  0  0  0  0
   -0.4846   -1.5267   -1.7745 C   0  0  0  0  0  0  0  0  0  0  0  0
   -0.6305   -1.3730   -3.0042 O   0  0  0  0  0  0  0  0  0  0  0  0
   -1.4805   -2.1052   -1.1197 O   0  0  0  0  0  0  0  0  0  0  0  0
   -4.2471   -0.8487   -1.3899 C   0  0  0  0  0  0  0  0  0  0  0  0
   -4.0084   -2.0109   -2.3091 C   0  0  0  0  0  0  0  0  0  0  0  0
   -3.2467   -1.8333   -3.4606 C   0  0  0  0  0  0  0  0  0  0  0  0
   -2.7280   -2.9089   -4.1481 C   0  0  0  0  0  0  0  0  0  0  0  0
   -3.1463   -4.1833   -3.8082 C   0  0  0  0  0  0  0  0  0  0  0  0
   -3.9458   -4.4069   -2.6785 C   0  0  0  0  0  0  0  0  0  0  0  0
   -4.3741   -3.3142   -1.9206 C   0  0  0  0  0  0  0  0  0  0  0  0
   -2.8835   -5.2484   -4.7654 N   0  3  0  0  0  0  0  0  0  0  0  0
   -3.4312   -6.3404   -4.5680 O   0  0  0  0  0  0  0  0  0  0  0  0
   -2.1923   -4.9758   -5.7593 O   0  5  0  0  0  0  0  0  0  0  0  0
    1.2994   -0.0983    0.7231 H   0  0  0  0  0  0  0  0  0  0  0  0
    2.3823   -0.0001   -0.3390 H   0  0  0  0  0  0  0  0  0  0  0  0
    1.3985   -0.9552   -2.0326 H   0  0  0  0  0  0  0  0  0  0  0  0
    0.9154   -3.2896   -1.1772 H   0  0  0  0  0  0  0  0  0  0  0  0
    2.3296   -2.5302   -0.4626 H   0  0  0  0  0  0  0  0  0  0  0  0
    0.9441   -3.7074    1.1934 H   0  0  0  0  0  0  0  0  0  0  0  0
    1.0791   -2.0189    1.6299 H   0  0  0  0  0  0  0  0  0  0  0  0
   -2.6248   -1.6318    1.3932 H   0  0  0  0  0  0  0  0  0  0  0  0
   -0.2905   -0.1640    0.7827 H   0  0  0  0  0  0  0  0  0  0  0  0
   -1.1324    1.7579   -0.8673 H   0  0  0  0  0  0  0  0  0  0  0  0
   -0.8580    0.4593   -1.7109 H   0  0  0  0  0  0  0  0  0  0  0  0
   -2.9224    2.4030    2.3169 H   0  0  0  0  0  0  0  0  0  0  0  0
   -4.3594    1.7746    0.3512 H   0  0  0  0  0  0  0  0  0  0  0  0
   -3.4764    0.2813    0.4518 H   0  0  0  0  0  0  0  0  0  0  0  0
   -5.1841   -1.3783    2.6830 H   0  0  0  0  0  0  0  0  0  0  0  0
   -2.0948   -1.5034   -0.6433 H   0  0  0  0  0  0  0  0  0  0  0  0
   -4.0308   -1.2364   -0.3879 H   0  0  0  0  0  0  0  0  0  0  0  0
   -5.3081   -0.5762   -1.3681 H   0  0  0  0  0  0  0  0  0  0  0  0
   -2.8814   -0.8564   -3.7584 H   0  0  0  0  0  0  0  0  0  0  0  0
   -1.9699   -2.7139   -4.9033 H   0  0  0  0  0  0  0  0  0  0  0  0
   -4.2320   -5.4135   -2.3834 H   0  0  0  0  0  0  0  0  0  0  0  0
   -4.9656   -3.4909   -1.0215 H   0  0  0  0  0  0  0  0  0  0  0  0
  1 31  1  0  0  0  0
  1 32  1  0  0  0  0
  2  1  1  0  0  0  0
  2  3  1  0  0  0  0
  2 18  1  0  0  0  0
  2 33  1  6  0  0  0
  3  4  1  0  0  0  0
  3 34  1  0  0  0  0
  3 35  1  0  0  0  0
  4  5  1  0  0  0  0
  4 36  1  0  0  0  0
  4 37  1  0  0  0  0
  5  6  2  0  0  0  0
  5  7  1  0  0  0  0
  7  8  1  0  0  0  0
  7 38  1  0  0  0  0
  8  9  1  0  0  0  0
  8 11  1  0  0  0  0
  8 39  1  1  0  0  0
  9 10  1  0  0  0  0
  9 40  1  0  0  0  0
  9 41  1  0  0  0  0
 10 21  1  0  0  0  0
 11 12  2  0  0  0  0
 11 13  1  0  0  0  0
 13 14  1  0  0  0  0
 13 42  1  0  0  0  0
 14 15  1  0  0  0  0
 14 43  1  0  0  0  0
 14 44  1  0  0  0  0
 15 16  2  0  0  0  0
 15 17  1  0  0  0  0
 17 45  1  0  0  0  0
 18 19  2  0  0  0  0
 18 20  1  0  0  0  0
 20 46  1  0  0  0  0
 21 22  1  0  0  0  0
 21 47  1  0  0  0  0
 21 48  1  0  0  0  0
 22 23  1  0  0  0  0
 23 24  2  0  0  0  0
 23 49  1  0  0  0  0
 24 25  1  0  0  0  0
 24 50  1  0  0  0  0
 25 26  2  0  0  0  0
 25 28  1  0  0  0  0
 26 27  1  0  0  0  0
 26 51  1  0  0  0  0
 27 22  2  0  0  0  0
 27 52  1  0  0  0  0
 28 29  2  0  0  0  0
 28 30  1  0  0  0  0
M  CHG  2  28   1  30  -1
M  END
>  <DRUGBANK_ID>
DB03686

>  <SECONDARY_ACCESSION_NUMBERS>
EXPT01653

>  <COMMON_NAME>
S-(4-nitrobenzyl)glutathione

>  <CAS_NUMBER>
6803-19-6

>  <SYNONYMS>
S-(p-nitrobenzyl)glutathione

$$$$
