
 OpenBabel10282417143D

 56 57  0  0  0  0  0  0  0  0999 V2000
    1.4254   -0.7818    0.1601 C   0  0  0  0  0  0  0  0  0  0  0  0
    0.8639   -1.4984    1.3923 C   0  0  0  0  0  0  0  0  0  0  0  0
    1.2091   -0.9224    2.7630 C   0  0  0  0  0  0  0  0  0  0  0  0
    0.5244    0.3822    3.0559 C   0  0  0  0  0  0  0  0  0  0  0  0
   -1.0218    0.4245    2.9421 C   0  0  0  0  0  0  0  0  0  0  0  0
   -1.7517    0.9894    3.9043 N   0  0  0  0  0  0  0  0  0  0  0  0
   -3.0334    1.0831    3.4328 C   0  0  0  0  0  0  0  0  0  0  0  0
   -3.1178    0.6025    2.1389 C   0  0  0  0  0  0  0  0  0  0  0  0
   -1.8083    0.3828    1.7685 N   0  0  0  0  0  0  0  0  0  0  0  0
   -1.4721    0.3340    0.3550 C   0  0  0  0  0  0  0  0  0  0  0  0
   -0.7240    1.5328   -0.3116 C   0  0  0  0  0  0  0  0  0  0  0  0
    0.3933    2.1523    0.4220 N   0  0  0  0  0  0  0  0  0  0  0  0
    1.4739    2.7791   -0.3089 C   0  0  0  0  0  0  0  0  0  0  0  0
    0.9275    4.1060   -0.7553 C   0  0  0  0  0  0  0  0  0  0  0  0
    0.0875    2.8764    1.6373 C   0  0  0  0  0  0  0  0  0  0  0  0
   -1.0280    3.8503    1.7802 C   0  0  0  0  0  0  0  0  0  0  0  0
   -4.3126    0.4672    1.4340 C   0  0  0  0  0  0  0  0  0  0  0  0
   -5.4632    0.7957    2.1217 C   0  0  0  0  0  0  0  0  0  0  0  0
   -5.4095    1.3309    3.4211 C   0  0  0  0  0  0  0  0  0  0  0  0
   -4.1887    1.5353    4.0720 C   0  0  0  0  0  0  0  0  0  0  0  0
   -6.6988    1.5864    4.0462 C   0  0  0  0  0  0  0  0  0  0  0  0
   -6.9383    2.0770    5.2709 C   0  0  0  0  0  0  0  0  0  0  0  0
   -8.2337    2.3446    5.9333 C   0  0  0  0  0  0  0  0  0  0  0  0
   -8.1733    2.8200    7.0955 O   0  0  0  0  0  0  0  0  0  0  0  0
   -9.4425    2.1315    5.4017 N   0  0  0  0  0  0  0  0  0  0  0  0
   -9.8456    1.6288    4.1658 O   0  0  0  0  0  0  0  0  0  0  0  0
    1.1271    0.2349    0.1448 H   0  0  0  0  0  0  0  0  0  0  0  0
    1.0320   -1.1793   -0.7849 H   0  0  0  0  0  0  0  0  0  0  0  0
    2.5099   -0.6913    0.1236 H   0  0  0  0  0  0  0  0  0  0  0  0
   -0.2206   -1.5669    1.3957 H   0  0  0  0  0  0  0  0  0  0  0  0
    1.1715   -2.5338    1.3200 H   0  0  0  0  0  0  0  0  0  0  0  0
    0.9138   -1.6172    3.5467 H   0  0  0  0  0  0  0  0  0  0  0  0
    2.2922   -0.7558    2.8126 H   0  0  0  0  0  0  0  0  0  0  0  0
    0.8070    0.8275    4.0279 H   0  0  0  0  0  0  0  0  0  0  0  0
    1.0708    1.0257    2.3784 H   0  0  0  0  0  0  0  0  0  0  0  0
   -1.0427   -0.6298    0.1127 H   0  0  0  0  0  0  0  0  0  0  0  0
   -2.4054    0.2196   -0.2098 H   0  0  0  0  0  0  0  0  0  0  0  0
   -0.3442    1.1177   -1.2605 H   0  0  0  0  0  0  0  0  0  0  0  0
   -1.4604    2.2806   -0.6104 H   0  0  0  0  0  0  0  0  0  0  0  0
    2.3386    2.9037    0.3652 H   0  0  0  0  0  0  0  0  0  0  0  0
    1.8467    2.1562   -1.1317 H   0  0  0  0  0  0  0  0  0  0  0  0
    0.7395    4.7305    0.1195 H   0  0  0  0  0  0  0  0  0  0  0  0
    1.6137    4.6575   -1.3848 H   0  0  0  0  0  0  0  0  0  0  0  0
   -0.0244    3.9506   -1.2732 H   0  0  0  0  0  0  0  0  0  0  0  0
   -0.4119    2.1354    2.1592 H   0  0  0  0  0  0  0  0  0  0  0  0
    0.9598    3.0713    2.2790 H   0  0  0  0  0  0  0  0  0  0  0  0
   -1.8594    3.5496    1.1422 H   0  0  0  0  0  0  0  0  0  0  0  0
   -1.3774    3.7923    2.8201 H   0  0  0  0  0  0  0  0  0  0  0  0
   -0.6857    4.8523    1.5733 H   0  0  0  0  0  0  0  0  0  0  0  0
   -4.3708    0.0670    0.4286 H   0  0  0  0  0  0  0  0  0  0  0  0
   -6.4120    0.6055    1.6205 H   0  0  0  0  0  0  0  0  0  0  0  0
   -4.1181    1.9526    5.0678 H   0  0  0  0  0  0  0  0  0  0  0  0
   -7.4661    1.2933    3.3661 H   0  0  0  0  0  0  0  0  0  0  0  0
   -6.1036    2.3372    5.9185 H   0  0  0  0  0  0  0  0  0  0  0  0
  -10.2247    2.3801    5.9979 H   0  0  0  0  0  0  0  0  0  0  0  0
   -9.0468    1.4220    3.6842 H   0  0  0  0  0  0  0  0  0  0  0  0
  1  2  1  0  0  0  0
  1 27  1  0  0  0  0
  1 28  1  0  0  0  0
  1 29  1  0  0  0  0
  2  3  1  0  0  0  0
  2 30  1  0  0  0  0
  2 31  1  0  0  0  0
  3  4  1  0  0  0  0
  3 32  1  0  0  0  0
  3 33  1  0  0  0  0
  4  5  1  0  0  0  0
  4 34  1  0  0  0  0
  4 35  1  0  0  0  0
  5  6  2  0  0  0  0
  6  7  1  0  0  0  0
  7  8  2  0  0  0  0
  8  9  1  0  0  0  0
  8 17  1  0  0  0  0
  9  5  1  0  0  0  0
  9 10  1  0  0  0  0
 10 11  1  0  0  0  0
 10 36  1  0  0  0  0
 10 37  1  0  0  0  0
 11 12  1  0  0  0  0
 11 38  1  0  0  0  0
 11 39  1  0  0  0  0
 12 13  1  0  0  0  0
 12 15  1  0  0  0  0
 13 14  1  0  0  0  0
 13 40  1  0  0  0  0
 13 41  1  0  0  0  0
 14 42  1  0  0  0  0
 14 43  1  0  0  0  0
 14 44  1  0  0  0  0
 15 16  1  0  0  0  0
 15 45  1  0  0  0  0
 15 46  1  0  0  0  0
 16 47  1  0  0  0  0
 16 48  1  0  0  0  0
 16 49  1  0  0  0  0
 17 18  2  0  0  0  0
 17 50  1  0  0  0  0
 18 19  1  0  0  0  0
 18 51  1  0  0  0  0
 19 20  2  0  0  0  0
 20  7  1  0  0  0  0
 20 52  1  0  0  0  0
 21 19  1  0  0  0  0
 21 22  2  0  0  0  0
 21 53  1  0  0  0  0
 22 23  1  0  0  0  0
 22 54  1  0  0  0  0
 23 24  2  0  0  0  0
 23 25  1  0  0  0  0
 25 26  1  0  0  0  0
 25 55  1  0  0  0  0
 26 56  1  0  0  0  0
M  END
>  <DRUGBANK_ID>
DB05223

>  <COMMON_NAME>
Pracinostat

>  <CAS_NUMBER>
929016-96-6

>  <UNII>
GPO2JN4UON

>  <SYNONYMS>
Pracinostat; Pracinostatum

$$$$
