
 OpenBabel10282417193D

124128  0  0  1  0  0  0  0  0999 V2000
    1.3934    0.4709    2.6864 C   0  0  0  0  0  0  0  0  0  0  0  0
    0.8737   -0.6415    1.9743 C   0  0  2  0  0  0  0  0  0  0  0  0
    1.2489   -0.4731   -0.0529 C   0  0  1  0  0  0  0  0  0  0  0  0
   -0.0842    0.4829   -1.0134 C   0  0  0  0  0  0  0  0  0  0  0  0
    0.2737    1.3629   -1.7367 O   0  0  0  0  0  0  0  0  0  0  0  0
   -1.3819    0.3106   -0.9447 N   0  0  0  0  0  0  0  0  0  0  0  0
    3.0290   -0.1811    0.0501 N   0  0  0  0  0  0  0  0  0  0  0  0
    3.9542   -0.7879   -0.6367 C   0  0  0  0  0  0  0  0  0  0  0  0
    4.9663   -0.1208   -0.7692 O   0  0  0  0  0  0  0  0  0  0  0  0
    3.3245   -2.1003   -1.1867 C   0  0  2  0  0  0  0  0  0  0  0  0
    2.3931   -2.1537   -2.4363 C   0  0  0  0  0  0  0  0  0  0  0  0
    3.1989   -1.4366   -4.0333 S   0  0  0  0  0  0  0  0  0  0  0  0
    1.6351    0.0375   -5.4303 S   0  0  0  0  0  0  0  0  0  0  0  0
    1.1859    2.2650   -4.2784 C   0  0  0  0  0  0  0  0  0  0  0  0
   -0.3276    2.6907   -3.2577 C   0  0  1  0  0  0  0  0  0  0  0  0
    0.0820    3.3325   -2.0674 C   0  0  0  0  0  0  0  0  0  0  0  0
    1.2162    3.6850   -2.5431 O   0  0  0  0  0  0  0  0  0  0  0  0
   -0.7910    3.9944   -0.3495 N   0  0  0  0  0  0  0  0  0  0  0  0
   -0.5291    3.9334    0.9880 C   0  0  2  0  0  0  0  0  0  0  0  0
   -1.5778    3.2470    2.1331 C   0  0  0  0  0  0  0  0  0  0  0  0
   -2.7753    3.4923    1.9440 O   0  0  0  0  0  0  0  0  0  0  0  0
   -1.2207    2.4068    3.2649 N   0  0  0  0  0  0  0  0  0  0  0  0
   -0.0477    1.4032    3.3803 C   0  0  1  0  0  0  0  0  0  0  0  0
    0.7022   -0.2334    4.3403 C   0  0  0  0  0  0  0  0  0  0  0  0
    0.3555    0.1404    5.4493 O   0  0  0  0  0  0  0  0  0  0  0  0
    2.2257   -1.0239    3.6485 N   0  0  0  0  0  0  0  0  0  0  0  0
    1.8531   -2.1916    2.2284 C   0  0  2  0  0  0  0  0  0  0  0  0
    3.0420   -2.4302    1.2722 C   0  0  0  0  0  0  0  0  0  0  0  0
    4.1917   -2.2029    1.6222 O   0  0  0  0  0  0  0  0  0  0  0  0
    2.6663   -2.7794   -0.0417 N   0  0  0  0  0  0  0  0  0  0  0  0
    0.1298   -1.7575    1.1616 C   0  0  0  0  0  0  0  0  0  0  0  0
   -0.3249    0.3398    2.1113 C   0  0  0  0  0  0  0  0  0  0  0  0
    1.4658    1.8737    1.9837 C   0  0  0  0  0  0  0  0  0  0  0  0
    2.2112    2.0731    0.7350 C   0  0  0  0  0  0  0  0  0  0  0  0
    1.8291    1.7535   -0.5578 N   0  0  0  0  0  0  0  0  0  0  0  0
    0.1859    1.2598    1.0473 C   0  0  0  0  0  0  0  0  0  0  0  0
   -0.2600    2.2535    0.3285 C   0  0  0  0  0  0  0  0  0  0  0  0
   -2.0055    2.6138   -0.1695 C   0  0  0  0  0  0  0  0  0  0  0  0
   -1.8258    3.8780   -1.6567 N   0  0  0  0  0  0  0  0  0  0  0  0
   -0.1904    5.0357   -1.4758 C   0  0  0  0  0  0  0  0  0  0  0  0
    0.9613    3.7703   -0.5284 C   0  0  0  0  0  0  0  0  0  0  0  0
    2.6585    3.6787   -0.7511 C   0  0  0  0  0  0  0  0  0  0  0  0
    3.2943    4.4887   -1.4994 C   0  0  0  0  0  0  0  0  0  0  0  0
    2.3272    5.4971   -1.9474 C   0  0  0  0  0  0  0  0  0  0  0  0
    0.7042    5.7664   -2.2226 C   0  0  0  0  0  0  0  0  0  0  0  0
    0.9952    3.9808    1.4618 C   0  0  0  0  0  0  0  0  0  0  0  0
    1.2856    5.2302    1.6803 C   0  0  0  0  0  0  0  0  0  0  0  0
    0.4086    5.4412    2.6278 C   0  0  0  0  0  0  0  0  0  0  0  0
    0.4119    6.7133    2.6978 C   0  0  0  0  0  0  0  0  0  0  0  0
    1.2521    7.4845    1.8648 C   0  0  0  0  0  0  0  0  0  0  0  0
    2.0801    7.0477    0.8839 C   0  0  0  0  0  0  0  0  0  0  0  0
    2.1791    5.7892    0.8761 C   0  0  0  0  0  0  0  0  0  0  0  0
    1.3593    8.7896    2.0279 O   0  0  0  0  0  0  0  0  0  0  0  0
   -1.3130    3.1322   -4.0122 N   0  0  0  0  0  0  0  0  0  0  0  0
   -2.4442    2.3811   -4.0901 C   0  0  0  0  0  0  0  0  0  0  0  0
   -3.2672    2.8269   -4.8623 O   0  0  0  0  0  0  0  0  0  0  0  0
   -2.8624    1.1390   -3.2273 C   0  0  1  0  0  0  0  0  0  0  0  0
   -2.0581   -0.1580   -3.3576 C   0  0  0  0  0  0  0  0  0  0  0  0
   -0.6464   -0.1670   -3.3535 C   0  0  0  0  0  0  0  0  0  0  0  0
    0.2032   -0.7877   -2.6088 C   0  0  0  0  0  0  0  0  0  0  0  0
    1.7852   -0.0317   -2.2805 C   0  0  0  0  0  0  0  0  0  0  0  0
    2.8080    0.8069   -2.4771 C   0  0  0  0  0  0  0  0  0  0  0  0
    2.0666    0.8633   -3.4568 C   0  0  0  0  0  0  0  0  0  0  0  0
    0.2321    0.6129   -3.8439 C   0  0  0  0  0  0  0  0  0  0  0  0
   -3.0940    1.6222   -1.9114 N   0  0  0  0  0  0  0  0  0  0  0  0
   -1.2587   -0.9539    1.7111 O   0  0  0  0  0  0  0  0  0  0  0  0
    2.5068    0.3549    2.0628 H   0  0  0  0  0  0  0  0  0  0  0  0
    1.7998    0.9418    3.7982 H   0  0  0  0  0  0  0  0  0  0  0  0
    0.2394    1.7389    2.2380 H   0  0  0  0  0  0  0  0  0  0  0  0
    0.4497   -1.3165    2.7729 H   0  0  0  0  0  0  0  0  0  0  0  0
    0.9117   -1.3033   -0.6553 H   0  0  0  0  0  0  0  0  0  0  0  0
   -1.9058   -0.3653   -0.4915 H   0  0  0  0  0  0  0  0  0  0  0  0
   -1.8265    0.7120   -1.7051 H   0  0  0  0  0  0  0  0  0  0  0  0
    3.4792    0.8265   -0.0764 H   0  0  0  0  0  0  0  0  0  0  0  0
    4.1860   -2.5387   -1.5362 H   0  0  0  0  0  0  0  0  0  0  0  0
    2.1221   -2.9517   -3.0376 H   0  0  0  0  0  0  0  0  0  0  0  0
    1.3533   -2.1282   -2.0638 H   0  0  0  0  0  0  0  0  0  0  0  0
    2.1452    2.6093   -3.3609 H   0  0  0  0  0  0  0  0  0  0  0  0
    1.3212    2.8440   -5.0661 H   0  0  0  0  0  0  0  0  0  0  0  0
   -0.8749    2.0146   -2.7072 H   0  0  0  0  0  0  0  0  0  0  0  0
   -1.5391    4.6594   -0.2715 H   0  0  0  0  0  0  0  0  0  0  0  0
   -0.6478    3.3214   -0.4632 H   0  0  0  0  0  0  0  0  0  0  0  0
   -0.8428    2.9218    4.0142 H   0  0  0  0  0  0  0  0  0  0  0  0
    1.0638    2.2394    3.7853 H   0  0  0  0  0  0  0  0  0  0  0  0
    3.1330   -0.3833    3.3536 H   0  0  0  0  0  0  0  0  0  0  0  0
    1.3909   -2.8026    2.9032 H   0  0  0  0  0  0  0  0  0  0  0  0
    1.7948   -3.2929   -0.2046 H   0  0  0  0  0  0  0  0  0  0  0  0
    1.0802   -1.8946    0.6702 H   0  0  0  0  0  0  0  0  0  0  0  0
   -0.5902   -2.4811    0.9036 H   0  0  0  0  0  0  0  0  0  0  0  0
   -1.3228    0.5961    0.9641 H   0  0  0  0  0  0  0  0  0  0  0  0
   -0.8538   -0.1620    3.1437 H   0  0  0  0  0  0  0  0  0  0  0  0
    0.7994    2.9012    2.6224 H   0  0  0  0  0  0  0  0  0  0  0  0
    2.5667    1.7868    2.7389 H   0  0  0  0  0  0  0  0  0  0  0  0
    3.1155    2.1960    1.2327 H   0  0  0  0  0  0  0  0  0  0  0  0
    2.2459    1.1903    0.3812 H   0  0  0  0  0  0  0  0  0  0  0  0
    1.7090    2.2026   -1.4623 H   0  0  0  0  0  0  0  0  0  0  0  0
    0.8517    1.9589   -0.7402 H   0  0  0  0  0  0  0  0  0  0  0  0
    1.1003    0.6854    0.9707 H   0  0  0  0  0  0  0  0  0  0  0  0
   -0.0744    0.2865    0.5711 H   0  0  0  0  0  0  0  0  0  0  0  0
   -2.6045    1.7339    0.0272 H   0  0  0  0  0  0  0  0  0  0  0  0
   -2.5012    3.8245   -2.3758 H   0  0  0  0  0  0  0  0  0  0  0  0
    3.4194    3.1043   -0.0970 H   0  0  0  0  0  0  0  0  0  0  0  0
    4.2463    4.4800   -0.9548 H   0  0  0  0  0  0  0  0  0  0  0  0
    2.8476    5.8587   -2.7824 H   0  0  0  0  0  0  0  0  0  0  0  0
    0.3156    5.5201   -3.2137 H   0  0  0  0  0  0  0  0  0  0  0  0
    1.8562    3.6526    2.1003 H   0  0  0  0  0  0  0  0  0  0  0  0
    1.8246    3.7135    0.9484 H   0  0  0  0  0  0  0  0  0  0  0  0
   -0.1650    4.6493    3.0812 H   0  0  0  0  0  0  0  0  0  0  0  0
   -0.2545    6.9990    3.4447 H   0  0  0  0  0  0  0  0  0  0  0  0
    2.7124    7.5227    0.1860 H   0  0  0  0  0  0  0  0  0  0  0  0
    2.8054    5.3146    0.2161 H   0  0  0  0  0  0  0  0  0  0  0  0
    0.7850    9.0028    2.7622 H   0  0  0  0  0  0  0  0  0  0  0  0
   -0.8566    3.7998   -4.5924 H   0  0  0  0  0  0  0  0  0  0  0  0
   -3.8800    0.8507   -3.2858 H   0  0  0  0  0  0  0  0  0  0  0  0
   -2.2355   -0.8899   -2.5492 H   0  0  0  0  0  0  0  0  0  0  0  0
   -2.0489   -0.4976   -4.3443 H   0  0  0  0  0  0  0  0  0  0  0  0
   -0.3953   -1.2844   -1.6473 H   0  0  0  0  0  0  0  0  0  0  0  0
    2.1745   -0.5014   -1.4988 H   0  0  0  0  0  0  0  0  0  0  0  0
    3.7207    1.2324   -2.1710 H   0  0  0  0  0  0  0  0  0  0  0  0
    2.7758    1.4772   -4.3953 H   0  0  0  0  0  0  0  0  0  0  0  0
   -0.2558    1.3156   -4.7982 H   0  0  0  0  0  0  0  0  0  0  0  0
   -3.2474    0.9066   -1.1690 H   0  0  0  0  0  0  0  0  0  0  0  0
   -2.1672    2.0232   -1.7139 H   0  0  0  0  0  0  0  0  0  0  0  0
   -2.0323    0.0160    1.8278 H   0  0  0  0  0  0  0  0  0  0  0  0
  1 67  1  0  0  0  0
  1 68  1  0  0  0  0
  1 69  1  0  0  0  0
  2 66  1  0  0  0  0
  2 70  1  1  0  0  0
  2  3  1  0  0  0  0
  2  1  1  0  0  0  0
  3  4  1  0  0  0  0
  3  7  1  0  0  0  0
  3 71  1  6  0  0  0
  4  5  2  0  0  0  0
  4  6  1  0  0  0  0
  6 72  1  0  0  0  0
  6 73  1  0  0  0  0
  7  8  1  0  0  0  0
  7 74  1  0  0  0  0
  8  9  2  0  0  0  0
 10  8  1  0  0  0  0
 10 11  1  0  0  0  0
 10 30  1  0  0  0  0
 10 75  1  6  0  0  0
 11 12  1  0  0  0  0
 11 76  1  0  0  0  0
 11 77  1  0  0  0  0
 12 13  1  0  0  0  0
 13 14  1  0  0  0  0
 14 15  1  0  0  0  0
 14 78  1  0  0  0  0
 14 79  1  0  0  0  0
 15 16  1  0  0  0  0
 15 54  1  0  0  0  0
 15 80  1  1  0  0  0
 16 17  2  0  0  0  0
 16 18  1  0  0  0  0
 18 19  1  0  0  0  0
 18 81  1  0  0  0  0
 19 20  1  0  0  0  0
 19 82  1  6  0  0  0
 19 46  1  0  0  0  0
 20 21  2  0  0  0  0
 20 22  1  0  0  0  0
 22 23  1  0  0  0  0
 22 83  1  0  0  0  0
 23 24  1  0  0  0  0
 23 36  1  0  0  0  0
 23 84  1  1  0  0  0
 24 25  2  0  0  0  0
 24 26  1  0  0  0  0
 26 27  1  0  0  0  0
 26 85  1  0  0  0  0
 27 28  1  0  0  0  0
 27 86  1  1  0  0  0
 27 31  1  0  0  0  0
 28 29  2  0  0  0  0
 28 30  1  0  0  0  0
 30 87  1  0  0  0  0
 31 32  1  0  0  0  0
 31 88  1  0  0  0  0
 31 89  1  0  0  0  0
 32 33  1  0  0  0  0
 32 90  1  0  0  0  0
 32 91  1  0  0  0  0
 33 34  1  0  0  0  0
 33 92  1  0  0  0  0
 33 93  1  0  0  0  0
 34 35  1  0  0  0  0
 34 94  1  0  0  0  0
 34 95  1  0  0  0  0
 35 96  1  0  0  0  0
 35 97  1  0  0  0  0
 36 37  1  0  0  0  0
 36 98  1  0  0  0  0
 36 99  1  0  0  0  0
 37 38  2  0  0  0  0
 37 41  1  0  0  0  0
 38 39  1  0  0  0  0
 38100  1  0  0  0  0
 39 40  1  0  0  0  0
 39101  1  0  0  0  0
 40 41  1  0  0  0  0
 40 45  2  0  0  0  0
 41 42  2  0  0  0  0
 42 43  1  0  0  0  0
 42102  1  0  0  0  0
 43 44  2  0  0  0  0
 43103  1  0  0  0  0
 44 45  1  0  0  0  0
 44104  1  0  0  0  0
 45105  1  0  0  0  0
 46 47  1  0  0  0  0
 46106  1  0  0  0  0
 46107  1  0  0  0  0
 47 48  2  0  0  0  0
 47 52  1  0  0  0  0
 48 49  1  0  0  0  0
 48108  1  0  0  0  0
 49 50  2  0  0  0  0
 49109  1  0  0  0  0
 50 51  1  0  0  0  0
 50 53  1  0  0  0  0
 51 52  2  0  0  0  0
 51110  1  0  0  0  0
 52111  1  0  0  0  0
 53112  1  0  0  0  0
 54 55  1  0  0  0  0
 54113  1  0  0  0  0
 55 56  2  0  0  0  0
 55 57  1  0  0  0  0
 57 58  1  0  0  0  0
 57 65  1  0  0  0  0
 57114  1  6  0  0  0
 58 59  1  0  0  0  0
 58115  1  0  0  0  0
 58116  1  0  0  0  0
 59 60  2  0  0  0  0
 59 64  1  0  0  0  0
 60 61  1  0  0  0  0
 60117  1  0  0  0  0
 61 62  2  0  0  0  0
 61118  1  0  0  0  0
 62 63  1  0  0  0  0
 62119  1  0  0  0  0
 63 64  2  0  0  0  0
 63120  1  0  0  0  0
 64121  1  0  0  0  0
 65122  1  0  0  0  0
 65123  1  0  0  0  0
 66124  1  0  0  0  0
M  END
>  <DRUGBANK_ID>
DB12088

>  <COMMON_NAME>
TT-232

>  <CAS_NUMBER>
147159-51-1

>  <UNII>
49D4Q4254Z

>  <SYNONYMS>
D-Phe-Cys-Tyr-D-Trp-Lys-Cys-Thr-NH2 (disulfide bridge: 2-6)

$$$$
