
 OpenBabel10282417133D

 30 29  0  0  1  0  0  0  0  0999 V2000
    0.9179   -0.3935   -0.0581 C   0  0  0  0  0  0  0  0  0  0  0  0
   -1.0653    0.0370   -1.3251 C   0  0  0  0  0  0  0  0  0  0  0  0
    0.9231    2.5632    0.4844 C   0  0  0  0  0  0  0  0  0  0  0  0
    0.4071    2.5743   -0.9565 C   0  0  0  0  0  0  0  0  0  0  0  0
    2.4521    2.5370    0.5319 C   0  0  0  0  0  0  0  0  0  0  0  0
    0.8745    1.3714   -1.7994 C   0  0  0  0  0  0  0  0  0  0  0  0
    3.0160    3.8312   -0.0521 C   0  0  1  0  0  0  0  0  0  0  0  0
    2.5785    5.0486    0.7903 C   0  0  0  0  0  0  0  0  0  0  0  0
    4.4864    3.7213   -0.0932 N   0  0  0  0  0  0  0  0  0  0  0  0
    0.3953    0.0533   -1.3485 N   0  0  0  0  0  0  0  0  0  0  0  0
    3.2937    5.7188    1.5015 O   0  0  0  0  0  0  0  0  0  0  0  0
    1.2538    5.3141    0.7079 O   0  0  0  0  0  0  0  0  0  0  0  0
    2.6955    3.9795   -1.0867 H   0  0  0  0  0  0  0  0  0  0  0  0
    0.6960   -1.4447    0.1322 H   0  0  0  0  0  0  0  0  0  0  0  0
    0.4355    0.0909    0.7847 H   0  0  0  0  0  0  0  0  0  0  0  0
    2.0025   -0.2706    0.0207 H   0  0  0  0  0  0  0  0  0  0  0  0
   -1.4843    0.7927   -0.6520 H   0  0  0  0  0  0  0  0  0  0  0  0
   -1.4563    0.2163   -2.3314 H   0  0  0  0  0  0  0  0  0  0  0  0
   -1.4368   -0.9310   -0.9840 H   0  0  0  0  0  0  0  0  0  0  0  0
    0.5055    3.4021    1.0316 H   0  0  0  0  0  0  0  0  0  0  0  0
    0.4973    1.7848    1.1014 H   0  0  0  0  0  0  0  0  0  0  0  0
    0.7207    3.4950   -1.4629 H   0  0  0  0  0  0  0  0  0  0  0  0
   -0.6836    2.6546   -0.9508 H   0  0  0  0  0  0  0  0  0  0  0  0
    2.7882    2.3660    1.5617 H   0  0  0  0  0  0  0  0  0  0  0  0
    2.8562    1.6873   -0.0344 H   0  0  0  0  0  0  0  0  0  0  0  0
    1.9680    1.3630   -1.9031 H   0  0  0  0  0  0  0  0  0  0  0  0
    0.5317    1.5317   -2.8326 H   0  0  0  0  0  0  0  0  0  0  0  0
    4.8519    4.6143   -0.4248 H   0  0  0  0  0  0  0  0  0  0  0  0
    4.8275    3.6338    0.8647 H   0  0  0  0  0  0  0  0  0  0  0  0
    1.0295    5.8968    1.4615 H   0  0  0  0  0  0  0  0  0  0  0  0
  1 14  1  0  0  0  0
  1 15  1  0  0  0  0
  1 16  1  0  0  0  0
  2 17  1  0  0  0  0
  2 18  1  0  0  0  0
  2 19  1  0  0  0  0
  3 20  1  0  0  0  0
  3 21  1  0  0  0  0
  4  3  1  0  0  0  0
  4 22  1  0  0  0  0
  4 23  1  0  0  0  0
  5  3  1  0  0  0  0
  5 24  1  0  0  0  0
  5 25  1  0  0  0  0
  6  4  1  0  0  0  0
  6 26  1  0  0  0  0
  6 27  1  0  0  0  0
  7  5  1  0  0  0  0
  7  9  1  0  0  0  0
  7 13  1  6  0  0  0
  8  7  1  0  0  0  0
  9 28  1  0  0  0  0
  9 29  1  0  0  0  0
 10  1  1  0  0  0  0
 10  2  1  0  0  0  0
 10  6  1  0  0  0  0
 11  8  2  0  0  0  0
 12  8  1  0  0  0  0
 12 30  1  0  0  0  0
M  END
>  <DRUGBANK_ID>
DB03362

>  <SECONDARY_ACCESSION_NUMBERS>
EXPT02189

>  <COMMON_NAME>
N-Dimethyl-Lysine

$$$$
