
 OpenBabel10282417233D

 43 44  0  0  1  0  0  0  0  0999 V2000
    0.6771    0.8598    0.3127 N   0  0  0  0  0  0  0  0  0  0  0  0
    0.2328    1.6426   -0.7967 C   0  0  1  0  0  0  0  0  0  0  0  0
    0.9147    1.2462   -2.0945 C   0  0  0  0  0  0  0  0  0  0  0  0
    0.5124   -0.0863   -2.7310 C   0  0  0  0  0  0  0  0  0  0  0  0
   -0.1726   -0.0730   -3.7599 O   0  0  0  0  0  0  0  0  0  0  0  0
    1.0484   -1.3137   -2.2888 N   0  0  0  0  0  0  0  0  0  0  0  0
    1.7195   -1.7186   -1.1347 C   0  0  0  0  0  0  0  0  0  0  0  0
    1.2514   -1.4169    0.0047 N   0  0  0  0  0  0  0  0  0  0  0  0
    2.0637   -1.3953    1.1163 C   0  0  0  0  0  0  0  0  0  0  0  0
    1.6295   -0.9084    2.1295 O   0  0  0  0  0  0  0  0  0  0  0  0
    3.4069   -1.7171    0.9688 N   0  0  0  0  0  0  0  0  0  0  0  0
    3.8394   -2.2729   -0.2351 C   0  0  0  0  0  0  0  0  0  0  0  0
    2.9929   -2.4384   -1.2737 C   0  0  0  0  0  0  0  0  0  0  0  0
    4.2489   -1.6393    2.1957 C   0  0  2  0  0  0  0  0  0  0  0  0
    3.6049   -2.3645    3.2793 O   0  0  0  0  0  0  0  0  0  0  0  0
    3.2914   -1.4341    4.3684 C   0  0  2  0  0  0  0  0  0  0  0  0
    1.8660   -1.6725    4.9043 C   0  0  0  0  0  0  0  0  0  0  0  0
    1.8969   -2.5437    6.0408 O   0  0  0  0  0  0  0  0  0  0  0  0
    3.4983   -0.0064    3.8484 C   0  0  1  0  0  0  0  0  0  0  0  0
    3.8474    0.9436    4.8557 O   0  0  0  0  0  0  0  0  0  0  0  0
    4.5593   -0.2297    2.7698 C   0  0  2  0  0  0  0  0  0  0  0  0
    4.6083    0.7874    1.7775 O   0  0  0  0  0  0  0  0  0  0  0  0
   -1.2866    1.4741   -0.7948 C   0  0  0  0  0  0  0  0  0  0  0  0
   -1.9123    2.4339   -0.0748 O   0  0  0  0  0  0  0  0  0  0  0  0
   -1.8674    0.4914   -1.2333 O   0  0  0  0  0  0  0  0  0  0  0  0
    0.2485   -0.0888    0.1672 H   0  0  0  0  0  0  0  0  0  0  0  0
    1.6514    0.6119    0.1603 H   0  0  0  0  0  0  0  0  0  0  0  0
    0.5452    2.6484   -0.5038 H   0  0  0  0  0  0  0  0  0  0  0  0
    0.6644    2.0489   -2.8070 H   0  0  0  0  0  0  0  0  0  0  0  0
    2.0098    1.2709   -2.0169 H   0  0  0  0  0  0  0  0  0  0  0  0
    0.6770   -2.0610   -2.8628 H   0  0  0  0  0  0  0  0  0  0  0  0
    4.8576   -2.6477   -0.2724 H   0  0  0  0  0  0  0  0  0  0  0  0
    3.1679   -3.0812   -2.1222 H   0  0  0  0  0  0  0  0  0  0  0  0
    5.1910   -2.1595    1.9832 H   0  0  0  0  0  0  0  0  0  0  0  0
    4.0097   -1.6560    5.1662 H   0  0  0  0  0  0  0  0  0  0  0  0
    1.4020   -0.7393    5.2386 H   0  0  0  0  0  0  0  0  0  0  0  0
    1.2136   -2.1431    4.1619 H   0  0  0  0  0  0  0  0  0  0  0  0
    2.2407   -3.3995    5.7338 H   0  0  0  0  0  0  0  0  0  0  0  0
    2.5980    0.4349    3.4266 H   0  0  0  0  0  0  0  0  0  0  0  0
    4.6557    0.6777    5.3178 H   0  0  0  0  0  0  0  0  0  0  0  0
    5.5423   -0.2455    3.2609 H   0  0  0  0  0  0  0  0  0  0  0  0
    3.7097    0.8552    1.4093 H   0  0  0  0  0  0  0  0  0  0  0  0
   -1.2689    2.9840    0.4147 H   0  0  0  0  0  0  0  0  0  0  0  0
  1 26  1  0  0  0  0
  1 27  1  0  0  0  0
  2  1  1  0  0  0  0
  2  3  1  0  0  0  0
  2 23  1  0  0  0  0
  2 28  1  1  0  0  0
  3  4  1  0  0  0  0
  3 29  1  0  0  0  0
  3 30  1  0  0  0  0
  4  5  2  0  0  0  0
  4  6  1  0  0  0  0
  6  7  1  0  0  0  0
  6 31  1  0  0  0  0
  7  8  2  0  0  0  0
  7 13  1  0  0  0  0
  8  9  1  0  0  0  0
  9 10  2  0  0  0  0
  9 11  1  0  0  0  0
 11 12  1  0  0  0  0
 12 13  2  0  0  0  0
 12 32  1  0  0  0  0
 13 33  1  0  0  0  0
 14 11  1  0  0  0  0
 14 15  1  0  0  0  0
 14 34  1  6  0  0  0
 16 15  1  0  0  0  0
 16 35  1  1  0  0  0
 16 17  1  0  0  0  0
 17 18  1  0  0  0  0
 17 36  1  0  0  0  0
 17 37  1  0  0  0  0
 18 38  1  0  0  0  0
 19 16  1  0  0  0  0
 19 20  1  0  0  0  0
 19 21  1  0  0  0  0
 19 39  1  6  0  0  0
 20 40  1  0  0  0  0
 21 14  1  0  0  0  0
 21 22  1  0  0  0  0
 21 41  1  1  0  0  0
 22 42  1  0  0  0  0
 23 24  1  0  0  0  0
 23 25  2  0  0  0  0
 24 43  1  0  0  0  0
M  END
>  <DRUGBANK_ID>
DB17226

>  <COMMON_NAME>
Aspacytarabine

>  <CAS_NUMBER>
2098942-53-9

>  <UNII>
JL7V54Z2BR

>  <SYNONYMS>
Astarabine; L-asparagine, n-(1-.beta.-d-arabinofuranosyl-1,2-dihydro-2-oxo-4-pyrimidinyl)-; N4-(1-.beta.-d-arabinofuranosyl-2-oxo-1,2-dihydropyrimidin-4-yl)-l-asparagine

$$$$
