BL6
 OpenBabel10282417163D

 38 41  0  0  0  0  0  0  0  0999 V2000
   -1.2943    0.0091    0.2993 C   0  0  0  0  0  0  0  0  0  0  0  0
   -0.3911   -0.1322    1.5003 C   0  0  0  0  0  0  0  0  0  0  0  0
    1.0632    0.1806    1.0912 C   0  0  2  0  0  0  0  0  0  0  0  0
    2.4944    0.5338    1.5269 C   0  0  0  0  0  0  0  0  0  0  0  0
    3.4898   -0.2297    0.6281 C   0  0  0  0  0  0  0  0  0  0  0  0
   -2.4369    0.8200    0.2708 C   0  0  0  0  0  0  0  0  0  0  0  0
   -2.9579   -0.0484   -1.9324 C   0  0  0  0  0  0  0  0  0  0  0  0
   -0.8466   -0.6329   -0.8545 C   0  0  0  0  0  0  0  0  0  0  0  0
    1.3526   -0.8097   -0.1124 C   0  0  0  0  0  0  0  0  0  0  0  0
    3.2338   -2.3866   -0.5819 C   0  0  0  0  0  0  0  0  0  0  0  0
    3.9336   -3.2899    0.2423 C   0  0  0  0  0  0  0  0  0  0  0  0
    4.5800   -4.4246   -0.2783 C   0  0  0  0  0  0  0  0  0  0  0  0
    3.0975   -2.7498   -1.9289 C   0  0  0  0  0  0  0  0  0  0  0  0
   -0.8506   -0.4283    2.5774 O   0  0  0  0  0  0  0  0  0  0  0  0
    0.5925    1.5479    1.1213 O   0  0  0  0  0  0  0  0  0  0  0  0
    2.6731   -1.2129   -0.0586 N   0  0  0  0  0  0  0  0  0  0  0  0
    3.6789   -3.9244   -2.4411 C   0  0  0  0  0  0  0  0  0  0  0  0
    4.4684   -4.7321   -1.6288 C   0  0  0  0  0  0  0  0  0  0  0  0
    0.4465   -1.1790   -0.9676 N   0  0  0  0  0  0  0  0  0  0  0  0
   -1.7201   -0.7139   -1.9429 C   0  0  0  0  0  0  0  0  0  0  0  0
   -3.9390   -0.2308   -3.0549 C   0  0  0  0  0  0  0  0  0  0  0  0
   -3.2722    0.7864   -0.8520 C   0  0  0  0  0  0  0  0  0  0  0  0
    2.7600    0.4962    2.5856 H   0  0  0  0  0  0  0  0  0  0  0  0
    2.6740    1.5973    1.2665 H   0  0  0  0  0  0  0  0  0  0  0  0
    4.3434   -0.6186    1.1895 H   0  0  0  0  0  0  0  0  0  0  0  0
    3.9004    0.4709   -0.1220 H   0  0  0  0  0  0  0  0  0  0  0  0
   -2.6709    1.4849    1.0984 H   0  0  0  0  0  0  0  0  0  0  0  0
    3.9442   -3.1497    1.3208 H   0  0  0  0  0  0  0  0  0  0  0  0
    5.1556   -5.0785    0.3736 H   0  0  0  0  0  0  0  0  0  0  0  0
    2.5416   -2.1099   -2.6087 H   0  0  0  0  0  0  0  0  0  0  0  0
    0.6649    1.8777    0.2219 H   0  0  0  0  0  0  0  0  0  0  0  0
    3.5147   -4.2068   -3.4786 H   0  0  0  0  0  0  0  0  0  0  0  0
    4.9734   -5.6042   -2.0400 H   0  0  0  0  0  0  0  0  0  0  0  0
   -1.4366   -1.3281   -2.7947 H   0  0  0  0  0  0  0  0  0  0  0  0
   -4.9071   -0.5552   -2.6554 H   0  0  0  0  0  0  0  0  0  0  0  0
   -4.0744    0.7020   -3.6093 H   0  0  0  0  0  0  0  0  0  0  0  0
   -3.6035   -1.0031   -3.7553 H   0  0  0  0  0  0  0  0  0  0  0  0
   -4.1922    1.3710   -0.8629 H   0  0  0  0  0  0  0  0  0  0  0  0
  1  2  1  0  0  0  0
  1  6  2  0  0  0  0
  1  8  1  0  0  0  0
  2  3  1  0  0  0  0
  2 14  2  0  0  0  0
  3  4  1  0  0  0  0
  3  9  1  0  0  0  0
  3 15  1  1  0  0  0
  4  5  1  0  0  0  0
  4 23  1  0  0  0  0
  4 24  1  0  0  0  0
  5 16  1  0  0  0  0
  5 25  1  0  0  0  0
  5 26  1  0  0  0  0
  6 22  1  0  0  0  0
  6 27  1  0  0  0  0
  7 20  1  0  0  0  0
  7 22  2  0  0  0  0
  7 21  1  0  0  0  0
  8 19  1  0  0  0  0
  8 20  2  0  0  0  0
  9 16  1  0  0  0  0
  9 19  2  0  0  0  0
 10 11  2  0  0  0  0
 10 13  1  0  0  0  0
 10 16  1  0  0  0  0
 11 12  1  0  0  0  0
 11 28  1  0  0  0  0
 12 18  2  0  0  0  0
 12 29  1  0  0  0  0
 13 17  2  0  0  0  0
 13 30  1  0  0  0  0
 15 31  1  0  0  0  0
 17 18  1  0  0  0  0
 17 32  1  0  0  0  0
 18 33  1  0  0  0  0
 20 34  1  0  0  0  0
 21 35  1  0  0  0  0
 21 36  1  0  0  0  0
 21 37  1  0  0  0  0
 22 38  1  0  0  0  0
M  END
>  <DRUGBANK_ID>
DB07469

>  <COMMON_NAME>
(3aS)-3a-hydroxy-7-methyl-1-phenyl-1,2,3,3a-tetrahydro-4H-pyrrolo[2,3-b]quinolin-4-one

$$$$
