
 OpenBabel10282417153D

 34 34  0  0  0  0  0  0  0  0999 V2000
    0.9326    0.3780   -0.3018 O   0  0  0  0  0  0  0  0  0  0  0  0
   -1.9455   -1.6745   -0.1436 O   0  0  0  0  0  0  0  0  0  0  0  0
    0.6908    2.6728    0.0853 O   0  0  0  0  0  0  0  0  0  0  0  0
    8.5805   -1.0255    0.1582 O   0  0  0  0  0  0  0  0  0  0  0  0
   -0.4621   -0.8047    1.3663 O   0  5  0  0  0  0  0  0  0  0  0  0
   -2.1435   -2.0817    2.0129 O   0  0  0  0  0  0  0  0  0  0  0  0
    6.5184   -0.1235    0.2081 N   0  0  0  0  0  0  0  0  0  0  0  0
   -1.4594   -1.5039    1.1823 N   0  3  0  0  0  0  0  0  0  0  0  0
   -1.7813    0.5200   -1.3022 C   0  0  0  0  0  0  0  0  0  0  0  0
   -1.2945    1.3830   -0.1568 C   0  0  0  0  0  0  0  0  0  0  0  0
   -1.3432   -0.9457   -1.2098 C   0  0  0  0  0  0  0  0  0  0  0  0
    0.2101    1.5643   -0.1119 C   0  0  0  0  0  0  0  0  0  0  0  0
    2.3308    0.2429   -0.1623 C   0  0  0  0  0  0  0  0  0  0  0  0
    5.1111   -0.0456    0.1620 C   0  0  0  0  0  0  0  0  0  0  0  0
    3.1597    1.3502   -0.0774 C   0  0  0  0  0  0  0  0  0  0  0  0
    2.8770   -1.0285   -0.0747 C   0  0  0  0  0  0  0  0  0  0  0  0
    4.5367    1.2180    0.0771 C   0  0  0  0  0  0  0  0  0  0  0  0
    4.2479   -1.1461    0.1545 C   0  0  0  0  0  0  0  0  0  0  0  0
    7.3618   -1.2042    0.1949 C   0  0  0  0  0  0  0  0  0  0  0  0
    6.8002   -2.5952    0.2268 C   0  0  0  0  0  0  0  0  0  0  0  0
    7.0292    0.7542    0.1609 H   0  0  0  0  0  0  0  0  0  0  0  0
   -2.8786    0.5596   -1.3189 H   0  0  0  0  0  0  0  0  0  0  0  0
   -1.4372    0.9644   -2.2463 H   0  0  0  0  0  0  0  0  0  0  0  0
   -1.7057    1.0533    0.8001 H   0  0  0  0  0  0  0  0  0  0  0  0
   -1.7067    2.3916   -0.2791 H   0  0  0  0  0  0  0  0  0  0  0  0
   -1.7325   -1.4150   -2.1234 H   0  0  0  0  0  0  0  0  0  0  0  0
   -0.2683   -1.1131   -1.3095 H   0  0  0  0  0  0  0  0  0  0  0  0
    2.7621    2.3502   -0.1389 H   0  0  0  0  0  0  0  0  0  0  0  0
    2.3009   -1.9481   -0.1510 H   0  0  0  0  0  0  0  0  0  0  0  0
    5.1142    2.1363    0.1305 H   0  0  0  0  0  0  0  0  0  0  0  0
    4.5671   -2.1538    0.3465 H   0  0  0  0  0  0  0  0  0  0  0  0
    6.2583   -2.7364    1.1680 H   0  0  0  0  0  0  0  0  0  0  0  0
    6.1762   -2.7587   -0.6584 H   0  0  0  0  0  0  0  0  0  0  0  0
    7.5848   -3.3497    0.1990 H   0  0  0  0  0  0  0  0  0  0  0  0
  1 12  1  0  0  0  0
  1 13  1  0  0  0  0
  2  8  1  0  0  0  0
  2 11  1  0  0  0  0
  3 12  2  0  0  0  0
  4 19  2  0  0  0  0
  5  8  1  0  0  0  0
  6  8  2  0  0  0  0
  7 14  1  0  0  0  0
  7 19  1  0  0  0  0
  7 21  1  0  0  0  0
  9 10  1  0  0  0  0
  9 11  1  0  0  0  0
  9 22  1  0  0  0  0
  9 23  1  0  0  0  0
 10 12  1  0  0  0  0
 10 24  1  0  0  0  0
 10 25  1  0  0  0  0
 11 26  1  0  0  0  0
 11 27  1  0  0  0  0
 13 15  2  0  0  0  0
 13 16  1  0  0  0  0
 14 17  2  0  0  0  0
 14 18  1  0  0  0  0
 15 17  1  0  0  0  0
 15 28  1  0  0  0  0
 16 18  2  0  0  0  0
 16 29  1  0  0  0  0
 17 30  1  0  0  0  0
 18 31  1  0  0  0  0
 19 20  1  0  0  0  0
 20 32  1  0  0  0  0
 20 33  1  0  0  0  0
 20 34  1  0  0  0  0
M  CHG  2   5  -1   8   1
M  END
>  <DRUGBANK_ID>
DB05409

>  <COMMON_NAME>
NCX 701

>  <UNII>
F8Y1ZV5V9P

$$$$
