CEP
 OpenBabel10282417133D

 44 45  0  0  0  0  0  0  0  0999 V2000
    0.4510    1.7275    0.5570 S   0  0  0  0  0  0  0  0  0  0  0  0
   -1.1517    1.0767    0.1779 C   0  0  0  0  0  0  0  0  0  0  0  0
   -1.3961   -0.3939    0.3296 C   0  0  0  0  0  0  0  0  0  0  0  0
   -2.8973   -0.6489    0.2567 C   0  0  0  0  0  0  0  0  0  0  0  0
   -3.5959   -0.0217    1.4204 C   0  0  0  0  0  0  0  0  0  0  0  0
   -4.4884    0.8242    1.3073 O   0  0  0  0  0  0  0  0  0  0  0  0
   -3.0746   -0.4837    2.5790 O   0  0  0  0  0  0  0  0  0  0  0  0
   -3.6575    0.0976    3.7326 C   0  0  0  0  0  0  0  0  0  0  0  0
   -0.4107   -1.3159    0.4229 C   0  0  0  0  0  0  0  0  0  0  0  0
   -0.7591   -2.8085    0.5240 C   0  0  0  0  0  0  0  0  0  0  0  0
   -1.8582   -3.3195    0.6145 O   0  0  0  0  0  0  0  0  0  0  0  0
    0.3212   -3.6031    0.3273 O   0  0  0  0  0  0  0  0  0  0  0  0
    0.9312   -0.9605    0.2965 N   0  0  0  0  0  0  0  0  0  0  0  0
    1.5186    0.3613    0.0949 C   0  0  1  0  0  0  0  0  0  0  0  0
    2.1482    0.5688   -1.3057 C   0  0  1  0  0  0  0  0  0  0  0  0
    2.7259    1.9741   -1.4984 C   0  0  0  0  0  0  0  0  0  0  0  0
    3.9161    2.2368   -1.6426 O   0  0  0  0  0  0  0  0  0  0  0  0
    3.1634   -0.4503   -1.5724 N   0  0  0  0  0  0  0  0  0  0  0  0
    3.1621   -1.3993   -2.5494 C   0  0  0  0  0  0  0  0  0  0  0  0
    4.1102   -2.1862   -2.5901 O   0  0  0  0  0  0  0  0  0  0  0  0
    2.0639   -1.4319   -3.6038 C   0  0  0  0  0  0  0  0  0  0  0  0
    0.7246   -1.8707   -3.0995 C   0  0  0  0  0  0  0  0  0  0  0  0
    0.3359   -3.1455   -2.7408 C   0  0  0  0  0  0  0  0  0  0  0  0
   -1.0286   -3.2046   -2.3557 C   0  0  0  0  0  0  0  0  0  0  0  0
   -1.6265   -1.9701   -2.4067 C   0  0  0  0  0  0  0  0  0  0  0  0
   -0.6146   -0.7919   -3.0955 S   0  0  0  0  0  0  0  0  0  0  0  0
    2.3248    0.4335    0.8301 H   0  0  0  0  0  0  0  0  0  0  0  0
    1.3996    0.5157   -2.0847 H   0  0  0  0  0  0  0  0  0  0  0  0
   -1.7482    1.5862    0.9354 H   0  0  0  0  0  0  0  0  0  0  0  0
   -1.5095    1.4261   -0.7982 H   0  0  0  0  0  0  0  0  0  0  0  0
   -3.2875   -0.1705   -0.6530 H   0  0  0  0  0  0  0  0  0  0  0  0
   -3.2237   -1.6841    0.2078 H   0  0  0  0  0  0  0  0  0  0  0  0
   -3.5009    1.1807    3.7335 H   0  0  0  0  0  0  0  0  0  0  0  0
   -4.7218   -0.1483    3.7679 H   0  0  0  0  0  0  0  0  0  0  0  0
   -3.1611   -0.3330    4.6034 H   0  0  0  0  0  0  0  0  0  0  0  0
   -0.0914   -4.4855    0.1824 H   0  0  0  0  0  0  0  0  0  0  0  0
    1.5321   -1.7585    0.0658 H   0  0  0  0  0  0  0  0  0  0  0  0
    1.9728    2.7838   -1.5487 H   0  0  0  0  0  0  0  0  0  0  0  0
    4.0019   -0.4378   -0.9971 H   0  0  0  0  0  0  0  0  0  0  0  0
    2.0203   -0.4629   -4.1096 H   0  0  0  0  0  0  0  0  0  0  0  0
    2.3644   -2.1714   -4.3543 H   0  0  0  0  0  0  0  0  0  0  0  0
    1.0092   -3.9932   -2.7296 H   0  0  0  0  0  0  0  0  0  0  0  0
   -1.5248   -4.0733   -1.9401 H   0  0  0  0  0  0  0  0  0  0  0  0
   -2.6025   -1.7176   -2.0265 H   0  0  0  0  0  0  0  0  0  0  0  0
  1  2  1  0  0  0  0
  1 14  1  0  0  0  0
  2  3  1  0  0  0  0
  2 29  1  0  0  0  0
  2 30  1  0  0  0  0
  3  4  1  0  0  0  0
  3  9  2  0  0  0  0
  4  5  1  0  0  0  0
  4 31  1  0  0  0  0
  4 32  1  0  0  0  0
  5  6  2  0  0  0  0
  5  7  1  0  0  0  0
  7  8  1  0  0  0  0
  8 33  1  0  0  0  0
  8 34  1  0  0  0  0
  8 35  1  0  0  0  0
  9 10  1  0  0  0  0
  9 13  1  0  0  0  0
 10 11  2  0  0  0  0
 10 12  1  0  0  0  0
 12 36  1  0  0  0  0
 13 14  1  0  0  0  0
 13 37  1  0  0  0  0
 14 15  1  0  0  0  0
 14 27  1  1  0  0  0
 15 16  1  0  0  0  0
 15 18  1  0  0  0  0
 15 28  1  6  0  0  0
 16 17  2  0  0  0  0
 16 38  1  0  0  0  0
 18 19  1  0  0  0  0
 18 39  1  0  0  0  0
 19 20  2  0  0  0  0
 19 21  1  0  0  0  0
 21 22  1  0  0  0  0
 21 40  1  0  0  0  0
 21 41  1  0  0  0  0
 22 23  2  0  0  0  0
 22 26  1  0  0  0  0
 23 24  1  0  0  0  0
 23 42  1  0  0  0  0
 24 25  2  0  0  0  0
 24 43  1  0  0  0  0
 25 26  1  0  0  0  0
 25 44  1  0  0  0  0
M  END
>  <DRUGBANK_ID>
DB03450

>  <SECONDARY_ACCESSION_NUMBERS>
EXPT00891

>  <COMMON_NAME>
Cephalothin Group

$$$$
