1477
 OpenBabel10282417113D

 48 51  0  0  1  0  0  0  0  0999 V2000
    1.0426   -0.1151   -0.0223 Br  0  5  0  0  0  0  0  0  0  0  0  0
   -4.1413    4.7596    2.6536 O   0  0  0  0  0  0  0  0  0  0  0  0
   -0.9501    3.2630    0.8498 O   0  0  0  0  0  0  0  0  0  0  0  0
   -6.9906    5.2651    1.8797 O   0  0  0  0  0  0  0  0  0  0  0  0
   -2.2168    1.2048    6.4827 N   0  3  0  0  0  0  0  0  0  0  0  0
   -3.7484    2.9451    4.4010 C   0  0  2  0  0  0  0  0  0  0  0  0
   -2.0096    3.0348    4.5680 C   0  0  2  0  0  0  0  0  0  0  0  0
   -2.1533    1.6692    4.9303 C   0  0  1  0  0  0  0  0  0  0  0  0
   -4.3384    1.3179    5.1590 C   0  0  0  0  0  0  0  0  0  0  0  0
   -3.1262    3.8636    3.1226 C   0  0  2  0  0  0  0  0  0  0  0  0
   -4.7950    2.7445    3.3499 C   0  0  0  0  0  0  0  0  0  0  0  0
   -3.7905    1.1656    6.5577 C   0  0  0  0  0  0  0  0  0  0  0  0
   -3.0007    1.0267    3.2437 C   0  0  0  0  0  0  0  0  0  0  0  0
   -4.4021    1.8075    2.4301 C   0  0  0  0  0  0  0  0  0  0  0  0
   -0.6275    2.7942    3.9480 C   0  0  0  0  0  0  0  0  0  0  0  0
   -1.5955    3.2338    2.1194 C   0  0  2  0  0  0  0  0  0  0  0  0
   -5.3874    3.9698    2.9660 C   0  0  0  0  0  0  0  0  0  0  0  0
   -1.9597    0.5736    7.8586 C   0  0  0  0  0  0  0  0  0  0  0  0
   -0.7510    0.8234    6.0533 C   0  0  0  0  0  0  0  0  0  0  0  0
   -0.4226    3.5657    2.9628 C   0  0  0  0  0  0  0  0  0  0  0  0
   -4.7837    2.2602    1.0571 C   0  0  0  0  0  0  0  0  0  0  0  0
   -6.1581    4.1892    1.8476 C   0  0  0  0  0  0  0  0  0  0  0  0
   -5.7437    3.3845    0.8070 C   0  0  0  0  0  0  0  0  0  0  0  0
   -7.0930    6.0111    0.6724 C   0  0  0  0  0  0  0  0  0  0  0  0
   -1.7748    3.9842    5.1237 H   0  0  0  0  0  0  0  0  0  0  0  0
   -2.4428    2.4944    5.6443 H   0  0  0  0  0  0  0  0  0  0  0  0
   -2.8903    4.6394    3.8853 H   0  0  0  0  0  0  0  0  0  0  0  0
   -0.1793    2.5795    0.8910 H   0  0  0  0  0  0  0  0  0  0  0  0
   -5.4165    1.1252    5.0969 H   0  0  0  0  0  0  0  0  0  0  0  0
   -3.9610    0.3358    4.7708 H   0  0  0  0  0  0  0  0  0  0  0  0
   -4.1963    1.9840    7.1858 H   0  0  0  0  0  0  0  0  0  0  0  0
   -4.0796    0.2498    7.0789 H   0  0  0  0  0  0  0  0  0  0  0  0
   -2.6287    1.2459    2.2518 H   0  0  0  0  0  0  0  0  0  0  0  0
   -2.4990    0.0757    3.0208 H   0  0  0  0  0  0  0  0  0  0  0  0
   -0.4111    1.7018    3.7236 H   0  0  0  0  0  0  0  0  0  0  0  0
   -1.4613    2.1516    2.1604 H   0  0  0  0  0  0  0  0  0  0  0  0
   -2.3567   -0.4415    7.8134 H   0  0  0  0  0  0  0  0  0  0  0  0
   -0.9288    0.5144    8.2238 H   0  0  0  0  0  0  0  0  0  0  0  0
   -2.4516    1.1781    8.6352 H   0  0  0  0  0  0  0  0  0  0  0  0
   -0.0229    0.5246    6.8033 H   0  0  0  0  0  0  0  0  0  0  0  0
   -0.8039    0.0832    5.2588 H   0  0  0  0  0  0  0  0  0  0  0  0
   -0.2272    1.7804    5.8577 H   0  0  0  0  0  0  0  0  0  0  0  0
   -0.3996    4.6721    2.9037 H   0  0  0  0  0  0  0  0  0  0  0  0
   -4.3540    1.9185    0.1034 H   0  0  0  0  0  0  0  0  0  0  0  0
   -6.0862    3.6520   -0.1957 H   0  0  0  0  0  0  0  0  0  0  0  0
   -6.1355    6.4929    0.4519 H   0  0  0  0  0  0  0  0  0  0  0  0
   -7.4248    5.3833   -0.1560 H   0  0  0  0  0  0  0  0  0  0  0  0
   -7.8463    6.8014    0.7925 H   0  0  0  0  0  0  0  0  0  0  0  0
  2 10  1  0  0  0  0
  2 17  1  0  0  0  0
  3 28  1  0  0  0  0
  4 24  1  0  0  0  0
  4 22  1  0  0  0  0
  5  8  1  0  0  0  0
  5 12  1  0  0  0  0
  5 18  1  0  0  0  0
  5 19  1  0  0  0  0
  6  7  1  0  0  0  0
  6  9  1  0  0  0  0
  6 10  1  0  0  0  0
  6 11  1  1  0  0  0
  7  8  1  0  0  0  0
  7 15  1  0  0  0  0
  7 25  1  6  0  0  0
  8 13  1  0  0  0  0
  8 26  1  1  0  0  0
  9 12  1  0  0  0  0
  9 29  1  0  0  0  0
  9 30  1  0  0  0  0
 10 16  1  0  0  0  0
 10 27  1  6  0  0  0
 11 14  2  0  0  0  0
 11 17  1  0  0  0  0
 12 31  1  0  0  0  0
 12 32  1  0  0  0  0
 13 14  1  0  0  0  0
 13 33  1  0  0  0  0
 13 34  1  0  0  0  0
 14 21  1  0  0  0  0
 15 20  2  0  0  0  0
 15 35  1  0  0  0  0
 16 20  1  0  0  0  0
 16  3  1  0  0  0  0
 16 36  1  1  0  0  0
 17 22  2  0  0  0  0
 18 37  1  0  0  0  0
 18 38  1  0  0  0  0
 18 39  1  0  0  0  0
 19 40  1  0  0  0  0
 19 41  1  0  0  0  0
 19 42  1  0  0  0  0
 20 43  1  0  0  0  0
 21 23  2  0  0  0  0
 21 44  1  0  0  0  0
 22 23  1  0  0  0  0
 23 45  1  0  0  0  0
 24 46  1  0  0  0  0
 24 47  1  0  0  0  0
 24 48  1  0  0  0  0
M  CHG  2   1  -1   5   1
M  END
>  <DRUGBANK_ID>
DB01477

>  <COMMON_NAME>
Codeine methylbromide

>  <CAS_NUMBER>
125-27-9

>  <UNII>
25007U9T7H

$$$$
