
 OpenBabel10282417153D

 45 48  0  0  0  0  0  0  0  0999 V2000
    2.6642    0.4679   -0.6283 N   0  0  0  0  0  0  0  0  0  0  0  0
    2.1127   -0.8815   -0.9283 C   0  0  0  0  0  0  0  0  0  0  0  0
    1.0520   -1.5945    0.0220 C   0  0  0  0  0  0  0  0  0  0  0  0
   -0.2731   -0.8924    0.0702 C   0  0  0  0  0  0  0  0  0  0  0  0
   -0.3963    0.4682    0.4154 C   0  0  0  0  0  0  0  0  0  0  0  0
    0.8088    1.3175    0.8404 C   0  0  2  0  0  0  0  0  0  0  0  0
    1.6910    1.5353   -0.4048 C   0  0  0  0  0  0  0  0  0  0  0  0
   -1.6482    1.0945    0.2463 C   0  0  0  0  0  0  0  0  0  0  0  0
   -2.7607    0.3689   -0.1818 C   0  0  0  0  0  0  0  0  0  0  0  0
   -2.6444   -1.0049   -0.3987 C   0  0  0  0  0  0  0  0  0  0  0  0
   -1.4075   -1.6400   -0.2519 C   0  0  0  0  0  0  0  0  0  0  0  0
   -3.9044    1.0988   -0.3675 O   0  0  0  0  0  0  0  0  0  0  0  0
   -3.7730   -1.8224   -0.8341 N   0  3  0  0  0  0  0  0  0  0  0  0
   -4.8620   -1.2284   -1.0180 O   0  0  0  0  0  0  0  0  0  0  0  0
   -3.6002   -3.0248   -1.0069 O   0  5  0  0  0  0  0  0  0  0  0  0
    3.7549    0.9240   -1.4748 C   0  0  0  0  0  0  0  0  0  0  0  0
    0.7877    2.5738    3.5075 O   0  0  0  0  0  0  0  0  0  0  0  0
    1.2948    3.0422    4.7670 C   0  0  0  0  0  0  0  0  0  0  0  0
    2.1076    1.9498    5.4706 C   0  0  0  0  0  0  0  0  0  0  0  0
    2.1838    0.9438    4.3974 C   0  0  0  0  0  0  0  0  0  0  0  0
    1.4528    1.4031    3.3014 C   0  0  0  0  0  0  0  0  0  0  0  0
    2.9463   -0.2183    4.3462 C   0  0  0  0  0  0  0  0  0  0  0  0
    2.9240   -0.9310    3.1862 C   0  0  0  0  0  0  0  0  0  0  0  0
    2.4590   -0.2603    2.0771 C   0  0  0  0  0  0  0  0  0  0  0  0
    1.5611    0.8150    2.0751 C   0  0  0  0  0  0  0  0  0  0  0  0
    1.6848   -0.8629   -1.9313 H   0  0  0  0  0  0  0  0  0  0  0  0
    2.9781   -1.5588   -0.9443 H   0  0  0  0  0  0  0  0  0  0  0  0
    0.9644   -2.6401   -0.3006 H   0  0  0  0  0  0  0  0  0  0  0  0
    1.3022   -1.7927    1.0666 H   0  0  0  0  0  0  0  0  0  0  0  0
    0.4150    2.3160    1.0896 H   0  0  0  0  0  0  0  0  0  0  0  0
    2.2189    2.4876   -0.2396 H   0  0  0  0  0  0  0  0  0  0  0  0
    1.0856    1.6850   -1.3091 H   0  0  0  0  0  0  0  0  0  0  0  0
   -1.7556    2.1660    0.4144 H   0  0  0  0  0  0  0  0  0  0  0  0
   -1.3004   -2.7098   -0.4164 H   0  0  0  0  0  0  0  0  0  0  0  0
   -4.6272    0.5086   -0.6675 H   0  0  0  0  0  0  0  0  0  0  0  0
    3.4192    1.1138   -2.4963 H   0  0  0  0  0  0  0  0  0  0  0  0
    4.1853    1.8590   -1.0829 H   0  0  0  0  0  0  0  0  0  0  0  0
    4.5808    0.2072   -1.4798 H   0  0  0  0  0  0  0  0  0  0  0  0
    1.9238    3.9174    4.5746 H   0  0  0  0  0  0  0  0  0  0  0  0
    0.4298    3.3601    5.3544 H   0  0  0  0  0  0  0  0  0  0  0  0
    3.1212    2.2812    5.7109 H   0  0  0  0  0  0  0  0  0  0  0  0
    1.6017    1.6161    6.3784 H   0  0  0  0  0  0  0  0  0  0  0  0
    3.6506   -0.5346    5.1026 H   0  0  0  0  0  0  0  0  0  0  0  0
    3.3681   -1.9113    3.0414 H   0  0  0  0  0  0  0  0  0  0  0  0
    2.8764   -0.6855    1.1863 H   0  0  0  0  0  0  0  0  0  0  0  0
  1  2  1  0  0  0  0
  1  7  1  0  0  0  0
  1 16  1  0  0  0  0
  2  3  1  0  0  0  0
  2 26  1  0  0  0  0
  2 27  1  0  0  0  0
  3  4  1  0  0  0  0
  3 28  1  0  0  0  0
  3 29  1  0  0  0  0
  4  5  1  0  0  0  0
  4 11  2  0  0  0  0
  5  6  1  0  0  0  0
  5  8  2  0  0  0  0
  6  7  1  0  0  0  0
  6 30  1  1  0  0  0
  6 25  1  0  0  0  0
  7 31  1  0  0  0  0
  7 32  1  0  0  0  0
  8  9  1  0  0  0  0
  8 33  1  0  0  0  0
  9 10  2  0  0  0  0
  9 12  1  0  0  0  0
 10 11  1  0  0  0  0
 10 13  1  0  0  0  0
 11 34  1  0  0  0  0
 12 35  1  0  0  0  0
 13 14  2  0  0  0  0
 13 15  1  0  0  0  0
 16 36  1  0  0  0  0
 16 37  1  0  0  0  0
 16 38  1  0  0  0  0
 17 18  1  0  0  0  0
 17 21  1  0  0  0  0
 18 19  1  0  0  0  0
 18 39  1  0  0  0  0
 18 40  1  0  0  0  0
 19 20  1  0  0  0  0
 19 41  1  0  0  0  0
 19 42  1  0  0  0  0
 20 21  1  0  0  0  0
 20 22  2  0  0  0  0
 21 25  2  0  0  0  0
 22 23  1  0  0  0  0
 22 43  1  0  0  0  0
 23 24  2  0  0  0  0
 23 44  1  0  0  0  0
 24 25  1  0  0  0  0
 24 45  1  0  0  0  0
M  CHG  2  13   1  15  -1
M  END
>  <DRUGBANK_ID>
DB05419

>  <COMMON_NAME>
ADX-10061

>  <CAS_NUMBER>
128022-68-4

>  <UNII>
K389NU4SEV

$$$$
