U55
 OpenBabel10282417133D

 29 30  0  0  0  0  0  0  0  0999 V2000
    2.3137    0.1183    0.1390 N   0  0  0  0  0  0  0  0  0  0  0  0
    0.9352    0.0870    0.0198 C   0  0  0  0  0  0  0  0  0  0  0  0
    0.3804   -1.1289    0.0119 N   0  0  0  0  0  0  0  0  0  0  0  0
   -0.9549   -1.1646    0.0173 C   0  0  0  0  0  0  0  0  0  0  0  0
   -1.7655   -0.1077   -0.0035 N   0  0  0  0  0  0  0  0  0  0  0  0
    0.1822    1.2467    0.0406 C   0  0  0  0  0  0  0  0  0  0  0  0
   -1.1941    1.1070   -0.0074 C   0  0  0  0  0  0  0  0  0  0  0  0
   -2.0265    2.2232   -0.1902 N   0  0  0  0  0  0  0  0  0  0  0  0
   -3.4345    2.2109   -0.1527 C   0  0  0  0  0  0  0  0  0  0  0  0
   -4.1417    1.5784    0.8809 C   0  0  0  0  0  0  0  0  0  0  0  0
   -5.5414    1.5359    0.8861 C   0  0  0  0  0  0  0  0  0  0  0  0
   -4.1603    2.8356   -1.1716 C   0  0  0  0  0  0  0  0  0  0  0  0
   -5.5608    2.8318   -1.1575 C   0  0  0  0  0  0  0  0  0  0  0  0
   -6.2482    2.1479   -0.1481 C   0  0  0  0  0  0  0  0  0  0  0  0
   -8.0140    2.0445   -0.2675 S   0  0  0  0  0  0  0  0  0  0  0  0
   -8.5601    3.3564   -0.0463 O   0  0  0  0  0  0  0  0  0  0  0  0
   -8.3366    1.2589   -1.4431 O   0  0  0  0  0  0  0  0  0  0  0  0
   -8.5058    1.1238    1.0584 N   0  0  0  0  0  0  0  0  0  0  0  0
    2.7290   -0.7892   -0.0543 H   0  0  0  0  0  0  0  0  0  0  0  0
    2.8263    0.9280   -0.1736 H   0  0  0  0  0  0  0  0  0  0  0  0
   -1.4332   -2.1364    0.0418 H   0  0  0  0  0  0  0  0  0  0  0  0
    0.6596    2.2162    0.0655 H   0  0  0  0  0  0  0  0  0  0  0  0
   -1.6053    3.1358   -0.0883 H   0  0  0  0  0  0  0  0  0  0  0  0
   -3.5951    1.0783    1.6777 H   0  0  0  0  0  0  0  0  0  0  0  0
   -6.0437    1.0042    1.6874 H   0  0  0  0  0  0  0  0  0  0  0  0
   -3.6367    3.2662   -2.0222 H   0  0  0  0  0  0  0  0  0  0  0  0
   -6.1068    3.3401   -1.9492 H   0  0  0  0  0  0  0  0  0  0  0  0
   -8.3558    1.6259    1.9321 H   0  0  0  0  0  0  0  0  0  0  0  0
   -9.4961    0.8945    0.9375 H   0  0  0  0  0  0  0  0  0  0  0  0
  1  2  1  0  0  0  0
  1 19  1  0  0  0  0
  1 20  1  0  0  0  0
  2  3  2  0  0  0  0
  2  6  1  0  0  0  0
  3  4  1  0  0  0  0
  4  5  2  0  0  0  0
  4 21  1  0  0  0  0
  5  7  1  0  0  0  0
  6  7  2  0  0  0  0
  6 22  1  0  0  0  0
  7  8  1  0  0  0  0
  8  9  1  0  0  0  0
  8 23  1  0  0  0  0
  9 10  2  0  0  0  0
  9 12  1  0  0  0  0
 10 11  1  0  0  0  0
 10 24  1  0  0  0  0
 11 14  2  0  0  0  0
 11 25  1  0  0  0  0
 12 13  2  0  0  0  0
 12 26  1  0  0  0  0
 13 14  1  0  0  0  0
 13 27  1  0  0  0  0
 14 15  1  0  0  0  0
 15 16  2  0  0  0  0
 15 17  2  0  0  0  0
 15 18  1  0  0  0  0
 18 28  1  0  0  0  0
 18 29  1  0  0  0  0
M  END
>  <DRUGBANK_ID>
DB03307

>  <SECONDARY_ACCESSION_NUMBERS>
EXPT03161

>  <COMMON_NAME>
4-[(6-Amino-4-Pyrimidinyl)Amino]Benzenesulfonamide

$$$$
