
 OpenBabel10282417113D

 87 93  0  0  1  0  0  0  0  0999 V2000
   -1.1852    1.0082    0.5817 C   0  0  0  0  0  0  0  0  0  0  0  0
   -1.8404    0.2376   -0.4511 N   0  0  0  0  0  0  0  0  0  0  0  0
   -2.8249   -0.6847   -0.2675 C   0  0  0  0  0  0  0  0  0  0  0  0
   -3.0385   -1.3302   -1.3899 N   0  0  0  0  0  0  0  0  0  0  0  0
   -2.1126   -0.7934   -2.2365 C   0  0  0  0  0  0  0  0  0  0  0  0
   -1.3518    0.1570   -1.7003 N   0  0  0  0  0  0  0  0  0  0  0  0
    0.3143    1.2986    0.3064 C   0  0  1  0  0  0  0  0  0  0  0  0
    0.4230    2.1596   -0.8452 O   0  0  0  0  0  0  0  0  0  0  0  0
    0.5731    3.5026   -0.3609 C   0  0  2  0  0  0  0  0  0  0  0  0
    0.2555    3.4464    1.0985 C   0  0  0  0  0  0  0  0  0  0  0  0
    0.7297    2.1160    1.4408 O   0  0  0  0  0  0  0  0  0  0  0  0
   -0.0836    4.5531   -1.2650 C   0  0  0  0  0  0  0  0  0  0  0  0
    0.4687    4.6809   -2.6080 O   0  0  0  0  0  0  0  0  0  0  0  0
    1.8015    4.9731   -2.7344 C   0  0  0  0  0  0  0  0  0  0  0  0
    2.8047    4.2346   -2.1279 C   0  0  0  0  0  0  0  0  0  0  0  0
    4.1550    4.5625   -2.1846 C   0  0  0  0  0  0  0  0  0  0  0  0
    4.5970    5.5391   -3.0531 C   0  0  0  0  0  0  0  0  0  0  0  0
    3.6075    6.1640   -3.8340 C   0  0  0  0  0  0  0  0  0  0  0  0
    2.2214    5.9279   -3.6459 C   0  0  0  0  0  0  0  0  0  0  0  0
    5.9370    5.8195   -3.1796 N   0  0  0  0  0  0  0  0  0  0  0  0
    6.9505    4.7651   -3.3499 C   0  0  0  0  0  0  0  0  0  0  0  0
    7.9907    4.7562   -2.2061 C   0  0  0  0  0  0  0  0  0  0  0  0
    8.5449    6.0937   -1.9352 N   0  0  0  0  0  0  0  0  0  0  0  0
    7.5226    7.1461   -1.7502 C   0  0  0  0  0  0  0  0  0  0  0  0
    6.4785    7.1603   -2.9138 C   0  0  0  0  0  0  0  0  0  0  0  0
    9.8757    6.4004   -2.1389 C   0  0  0  0  0  0  0  0  0  0  0  0
   10.5254    6.1524   -3.3595 C   0  0  0  0  0  0  0  0  0  0  0  0
   11.8768    6.4885   -3.5843 C   0  0  0  0  0  0  0  0  0  0  0  0
   12.6247    7.0467   -2.5569 C   0  0  0  0  0  0  0  0  0  0  0  0
   12.0006    7.2934   -1.3246 C   0  0  0  0  0  0  0  0  0  0  0  0
   10.6512    6.9648   -1.1178 C   0  0  0  0  0  0  0  0  0  0  0  0
   14.0123    7.1902   -2.6485 N   0  0  0  0  0  0  0  0  0  0  0  0
   14.8642    6.5354   -1.7938 C   0  0  0  0  0  0  0  0  0  0  0  0
   14.5732    5.6490   -1.0234 O   0  0  0  0  0  0  0  0  0  0  0  0
   16.1338    7.0597   -2.0695 N   0  0  0  0  0  0  0  0  0  0  0  0
   16.0744    7.8572   -3.1990 N   0  0  0  0  0  0  0  0  0  0  0  0
   14.8062    7.8603   -3.5035 C   0  0  0  0  0  0  0  0  0  0  0  0
   17.3451    6.7943   -1.3020 C   0  0  3  0  0  0  0  0  0  0  0  0
   17.2541    7.3606    0.1396 C   0  0  0  0  0  0  0  0  0  0  0  0
   16.1283    6.7802    0.9896 C   0  0  0  0  0  0  0  0  0  0  0  0
   17.6602    5.2974   -1.2909 C   0  0  0  0  0  0  0  0  0  0  0  0
    1.0529   -0.0822    0.2174 C   0  0  0  0  0  0  0  0  0  0  0  0
    2.3000   -0.3289   -0.3642 C   0  0  0  0  0  0  0  0  0  0  0  0
    3.2992    0.8944   -1.0338 Cl  0  0  0  0  0  0  0  0  0  0  0  0
    2.8167   -1.6459   -0.4445 C   0  0  0  0  0  0  0  0  0  0  0  0
    2.0976   -2.7437    0.0253 C   0  0  0  0  0  0  0  0  0  0  0  0
    0.8744   -2.5509    0.6083 C   0  0  0  0  0  0  0  0  0  0  0  0
    0.3866   -1.2573    0.6939 C   0  0  0  0  0  0  0  0  0  0  0  0
    2.6881   -4.3467   -0.1210 Cl  0  0  0  0  0  0  0  0  0  0  0  0
   -1.2429    0.4744    1.5434 H   0  0  0  0  0  0  0  0  0  0  0  0
   -1.7999    1.8881    0.7602 H   0  0  0  0  0  0  0  0  0  0  0  0
   -3.2916   -0.8716    0.6884 H   0  0  0  0  0  0  0  0  0  0  0  0
   -1.9800   -1.0984   -3.2664 H   0  0  0  0  0  0  0  0  0  0  0  0
    1.6203    3.7364   -0.2708 H   0  0  0  0  0  0  0  0  0  0  0  0
    0.8144    4.2069    1.6542 H   0  0  0  0  0  0  0  0  0  0  0  0
   -0.8055    3.5609    1.3223 H   0  0  0  0  0  0  0  0  0  0  0  0
   -1.1428    4.2897   -1.4068 H   0  0  0  0  0  0  0  0  0  0  0  0
   -0.0704    5.5428   -0.7931 H   0  0  0  0  0  0  0  0  0  0  0  0
    2.5967    3.3064   -1.6340 H   0  0  0  0  0  0  0  0  0  0  0  0
    4.8388    3.9973   -1.5591 H   0  0  0  0  0  0  0  0  0  0  0  0
    3.9174    6.8010   -4.6579 H   0  0  0  0  0  0  0  0  0  0  0  0
    1.4939    6.4631   -4.2505 H   0  0  0  0  0  0  0  0  0  0  0  0
    6.5002    3.7703   -3.4500 H   0  0  0  0  0  0  0  0  0  0  0  0
    7.4629    4.9753   -4.2955 H   0  0  0  0  0  0  0  0  0  0  0  0
    7.4915    4.4283   -1.2854 H   0  0  0  0  0  0  0  0  0  0  0  0
    8.7778    4.0244   -2.4181 H   0  0  0  0  0  0  0  0  0  0  0  0
    6.9992    6.9321   -0.8095 H   0  0  0  0  0  0  0  0  0  0  0  0
    7.9723    8.1410   -1.6543 H   0  0  0  0  0  0  0  0  0  0  0  0
    6.9726    7.4945   -3.8321 H   0  0  0  0  0  0  0  0  0  0  0  0
    5.6834    7.8785   -2.6815 H   0  0  0  0  0  0  0  0  0  0  0  0
    9.9736    5.6792   -4.1654 H   0  0  0  0  0  0  0  0  0  0  0  0
   12.3436    6.2240   -4.5281 H   0  0  0  0  0  0  0  0  0  0  0  0
   12.5680    7.7380   -0.5068 H   0  0  0  0  0  0  0  0  0  0  0  0
   10.2336    7.0981   -0.1214 H   0  0  0  0  0  0  0  0  0  0  0  0
   14.3609    8.3869   -4.3575 H   0  0  0  0  0  0  0  0  0  0  0  0
   18.1749    7.3103   -1.8063 H   0  0  0  0  0  0  0  0  0  0  0  0
   18.2025    7.1780    0.6601 H   0  0  0  0  0  0  0  0  0  0  0  0
   17.1209    8.4486    0.0952 H   0  0  0  0  0  0  0  0  0  0  0  0
   16.1581    5.6861    1.0028 H   0  0  0  0  0  0  0  0  0  0  0  0
   16.1696    7.1260    2.0229 H   0  0  0  0  0  0  0  0  0  0  0  0
   15.1587    7.1161    0.6166 H   0  0  0  0  0  0  0  0  0  0  0  0
   17.7834    4.9205   -2.3108 H   0  0  0  0  0  0  0  0  0  0  0  0
   18.5738    5.0898   -0.7259 H   0  0  0  0  0  0  0  0  0  0  0  0
   16.8550    4.7134   -0.8367 H   0  0  0  0  0  0  0  0  0  0  0  0
    3.7945   -1.8168   -0.8860 H   0  0  0  0  0  0  0  0  0  0  0  0
    0.2617   -3.3660    0.9861 H   0  0  0  0  0  0  0  0  0  0  0  0
   -0.6156   -1.2625    1.0994 H   0  0  0  0  0  0  0  0  0  0  0  0
  1  2  1  0  0  0  0
  1 50  1  0  0  0  0
  1 51  1  0  0  0  0
  2  3  1  0  0  0  0
  2  6  1  0  0  0  0
  3  4  2  0  0  0  0
  3 52  1  0  0  0  0
  4  5  1  0  0  0  0
  5 53  1  0  0  0  0
  6  5  2  0  0  0  0
  7  8  1  0  0  0  0
  7 11  1  0  0  0  0
  7 42  1  0  0  0  0
  7  1  1  1  0  0  0
  8  9  1  0  0  0  0
  9 10  1  0  0  0  0
  9 54  1  6  0  0  0
  9 12  1  0  0  0  0
 10 55  1  0  0  0  0
 10 56  1  0  0  0  0
 11 10  1  0  0  0  0
 12 13  1  0  0  0  0
 12 57  1  0  0  0  0
 12 58  1  0  0  0  0
 13 14  1  0  0  0  0
 14 15  2  0  0  0  0
 14 19  1  0  0  0  0
 15 16  1  0  0  0  0
 15 59  1  0  0  0  0
 16 17  2  0  0  0  0
 16 60  1  0  0  0  0
 17 20  1  0  0  0  0
 18 17  1  0  0  0  0
 18 61  1  0  0  0  0
 19 18  2  0  0  0  0
 19 62  1  0  0  0  0
 20 21  1  0  0  0  0
 20 25  1  0  0  0  0
 21 22  1  0  0  0  0
 21 63  1  0  0  0  0
 21 64  1  0  0  0  0
 22 23  1  0  0  0  0
 22 65  1  0  0  0  0
 22 66  1  0  0  0  0
 23 26  1  0  0  0  0
 24 23  1  0  0  0  0
 24 67  1  0  0  0  0
 24 68  1  0  0  0  0
 25 24  1  0  0  0  0
 25 69  1  0  0  0  0
 25 70  1  0  0  0  0
 26 27  2  0  0  0  0
 26 31  1  0  0  0  0
 27 28  1  0  0  0  0
 27 71  1  0  0  0  0
 28 29  2  0  0  0  0
 28 72  1  0  0  0  0
 29 32  1  0  0  0  0
 30 29  1  0  0  0  0
 30 73  1  0  0  0  0
 31 30  2  0  0  0  0
 31 74  1  0  0  0  0
 32 33  1  0  0  0  0
 32 37  1  0  0  0  0
 33 34  2  0  0  0  0
 33 35  1  0  0  0  0
 35 36  1  0  0  0  0
 35 38  1  0  0  0  0
 37 36  2  0  0  0  0
 37 75  1  0  0  0  0
 38 39  1  0  0  0  0
 38 41  1  0  0  0  0
 38 76  1  0  0  0  0
 39 40  1  0  0  0  0
 39 77  1  0  0  0  0
 39 78  1  0  0  0  0
 40 79  1  0  0  0  0
 40 80  1  0  0  0  0
 40 81  1  0  0  0  0
 41 82  1  0  0  0  0
 41 83  1  0  0  0  0
 41 84  1  0  0  0  0
 42 43  2  0  0  0  0
 42 48  1  0  0  0  0
 43 44  1  0  0  0  0
 43 45  1  0  0  0  0
 45 46  2  0  0  0  0
 45 85  1  0  0  0  0
 46 49  1  0  0  0  0
 47 46  1  0  0  0  0
 47 86  1  0  0  0  0
 48 47  2  0  0  0  0
 48 87  1  0  0  0  0
M  END
>  <DRUGBANK_ID>
DB01167

>  <SECONDARY_ACCESSION_NUMBERS>
APRD00040

>  <COMMON_NAME>
Itraconazole

>  <CAS_NUMBER>
84625-61-6

>  <UNII>
304NUG5GF4

>  <SYNONYMS>
(Â±)-1-SEC-BUTYL-4-(P-(4-(P-(((2R*,4S*)-2-(2,4-DICHLOROPHENYL)-2-(1H-1,2,4-TRIAZOL-1-YLMETHYL)-1,3-DIOXOLAN-4-YL)METHOXY)PHENYL)-1-PIPERAZINYL)PHENYL)-.DELTA.(SUP 2)-1,2,4-TRIAZOLIN-5-ONE; 3H-1,2,4-TRIAZOL-3-ONE, 4-(4-(4-(4-((2-(2,4-DICHLOROPHENYL)-2-(1H-1,2,4-TRIAZOL-1-YLMETHYL)-1,3-DIOXOLAN-4-YL)METHOXY)PHENYL)-1-PIPERAZINYL)PHENYL)-2,4-DIHYDRO-2-(1-METHYLPROPYL)-; Itraconazol; Itraconazole; ITRACONAZOLE COMPONENT OF SUBA-ITRACONAZOLE; Itraconazolum; Oriconazole

$$$$
