4820
 OpenBabel10282417143D

 40 41  0  0  0  0  0  0  0  0999 V2000
    1.1579   -0.0500    0.1267 O   0  0  0  0  0  0  0  0  0  0  0  0
   -0.3099    1.7952   -5.0515 O   0  0  0  0  0  0  0  0  0  0  0  0
    3.1313   -1.0614    0.3681 N   0  0  0  0  0  0  0  0  0  0  0  0
    1.2807    2.0239   -1.8486 N   0  0  0  0  0  0  0  0  0  0  0  0
    0.8631    2.2622   -3.1624 N   0  0  0  0  0  0  0  0  0  0  0  0
   -1.5967   -2.1062   -2.2124 N   0  0  0  0  0  0  0  0  0  0  0  0
    3.0622    1.3321   -0.3311 C   0  0  0  0  0  0  0  0  0  0  0  0
    2.7073    1.7149   -1.7657 C   0  0  0  0  0  0  0  0  0  0  0  0
    4.5713   -1.2013    0.4151 C   0  0  0  0  0  0  0  0  0  0  0  0
    2.3877    0.0359    0.0789 C   0  0  0  0  0  0  0  0  0  0  0  0
    5.0197   -1.4880    1.8179 C   0  0  0  0  0  0  0  0  0  0  0  0
    5.3114   -0.4318    2.6938 C   0  0  0  0  0  0  0  0  0  0  0  0
    5.0579   -2.8040    2.2931 C   0  0  0  0  0  0  0  0  0  0  0  0
    5.6150   -0.6878    4.0293 C   0  0  0  0  0  0  0  0  0  0  0  0
    5.3085   -3.0524    3.6411 C   0  0  0  0  0  0  0  0  0  0  0  0
   -0.0447    1.5023   -3.8825 C   0  0  0  0  0  0  0  0  0  0  0  0
    5.6044   -1.9977    4.5038 C   0  0  0  0  0  0  0  0  0  0  0  0
   -0.6471    0.2825   -3.2917 C   0  0  0  0  0  0  0  0  0  0  0  0
   -1.2293    0.2681   -2.0243 C   0  0  0  0  0  0  0  0  0  0  0  0
   -0.6071   -0.8899   -4.0437 C   0  0  0  0  0  0  0  0  0  0  0  0
   -1.6587   -0.9470   -1.5225 C   0  0  0  0  0  0  0  0  0  0  0  0
   -1.0849   -2.0486   -3.4607 C   0  0  0  0  0  0  0  0  0  0  0  0
    2.5747   -1.8568    0.6654 H   0  0  0  0  0  0  0  0  0  0  0  0
    0.7950    1.2138   -1.4471 H   0  0  0  0  0  0  0  0  0  0  0  0
    1.2209    3.0836   -3.6463 H   0  0  0  0  0  0  0  0  0  0  0  0
    2.7537    2.1069    0.3802 H   0  0  0  0  0  0  0  0  0  0  0  0
    4.1451    1.2846   -0.2615 H   0  0  0  0  0  0  0  0  0  0  0  0
    3.2881    2.5983   -2.0520 H   0  0  0  0  0  0  0  0  0  0  0  0
    2.9693    0.8950   -2.4463 H   0  0  0  0  0  0  0  0  0  0  0  0
    4.8436   -2.0118   -0.2670 H   0  0  0  0  0  0  0  0  0  0  0  0
    5.0828   -0.3121    0.0533 H   0  0  0  0  0  0  0  0  0  0  0  0
    5.2907    0.5974    2.3423 H   0  0  0  0  0  0  0  0  0  0  0  0
    4.8735   -3.6385    1.6202 H   0  0  0  0  0  0  0  0  0  0  0  0
    5.8325    0.1356    4.7045 H   0  0  0  0  0  0  0  0  0  0  0  0
    5.2539   -4.0681    4.0234 H   0  0  0  0  0  0  0  0  0  0  0  0
    5.8231   -2.1978    5.5490 H   0  0  0  0  0  0  0  0  0  0  0  0
   -1.3073    1.1608   -1.4133 H   0  0  0  0  0  0  0  0  0  0  0  0
   -0.1981   -0.9015   -5.0479 H   0  0  0  0  0  0  0  0  0  0  0  0
   -2.0600   -1.0236   -0.5154 H   0  0  0  0  0  0  0  0  0  0  0  0
   -1.0570   -2.9953   -3.9917 H   0  0  0  0  0  0  0  0  0  0  0  0
  1 10  2  0  0  0  0
  2 16  2  0  0  0  0
  3  9  1  0  0  0  0
  3 10  1  0  0  0  0
  3 23  1  0  0  0  0
  4  5  1  0  0  0  0
  4  8  1  0  0  0  0
  4 24  1  0  0  0  0
  5 16  1  0  0  0  0
  5 25  1  0  0  0  0
  6 21  2  0  0  0  0
  6 22  1  0  0  0  0
  7  8  1  0  0  0  0
  7 10  1  0  0  0  0
  7 26  1  0  0  0  0
  7 27  1  0  0  0  0
  8 28  1  0  0  0  0
  8 29  1  0  0  0  0
  9 11  1  0  0  0  0
  9 30  1  0  0  0  0
  9 31  1  0  0  0  0
 11 12  2  0  0  0  0
 11 13  1  0  0  0  0
 12 14  1  0  0  0  0
 12 32  1  0  0  0  0
 13 15  2  0  0  0  0
 13 33  1  0  0  0  0
 14 17  2  0  0  0  0
 14 34  1  0  0  0  0
 15 17  1  0  0  0  0
 15 35  1  0  0  0  0
 16 18  1  0  0  0  0
 17 36  1  0  0  0  0
 18 19  2  0  0  0  0
 18 20  1  0  0  0  0
 19 21  1  0  0  0  0
 19 37  1  0  0  0  0
 20 22  2  0  0  0  0
 20 38  1  0  0  0  0
 21 39  1  0  0  0  0
 22 40  1  0  0  0  0
M  END
>  <DRUGBANK_ID>
DB04820

>  <COMMON_NAME>
Nialamide

>  <CAS_NUMBER>
51-12-7

>  <UNII>
T2Q0RYM725

>  <SYNONYMS>
1-(2-(Benzylcarbamoyl)ethyl)-2-isonicotinoylhydrazine; 2-(2-(Benzylcarbamoyl)ethyl)hydrazide isonicotinic acid; 2-(2-(Benzylcarbamyl)ethyl)hydrazide isonicotinic acid; BEIH; Isonicotinic acid 2-((2-benzylcarbamoyl)ethyl)hydrazide; Isonicotinic acid, 2-(2-(benzylcarbamoyl)ethyl)hydrazide; N-(2-(Benzylcarbamyl)ethylamino)isonicotinamide; N-benzyl-beta-(isonicotinoylhydrazine)propionamide; N-benzyl-beta-(isonicotinylhydrazino)propionamide; N-Isonicotinoyl-N'(beta-N-benzylcarboxamidoethyl)hydrazine; Nialamida; Nialamide; Nialamidum

$$$$
