1102
 OpenBabel10282417113D

 46 47  0  0  1  0  0  0  0  0999 V2000
    0.9304   -0.0853   -0.0332 O   0  0  0  0  0  0  0  0  0  0  0  0
    2.7054    3.4458   -3.2143 O   0  0  0  0  0  0  0  0  0  0  0  0
    1.8418    5.8459   -2.2524 O   0  0  0  0  0  0  0  0  0  0  0  0
    6.3891   -1.0715    8.9319 O   0  0  0  0  0  0  0  0  0  0  0  0
    2.4159    1.2065    2.1268 N   0  0  0  0  0  0  0  0  0  0  0  0
    2.4234   -0.0381    4.2759 C   0  0  0  0  0  0  0  0  0  0  0  0
    2.9767   -1.3261    3.6429 C   0  0  0  0  0  0  0  0  0  0  0  0
    2.8453    1.2285    3.5180 C   0  0  0  0  0  0  0  0  0  0  0  0
    0.9482    1.1586    2.0346 C   0  0  0  0  0  0  0  0  0  0  0  0
    4.5096   -1.3570    3.6040 C   0  0  0  0  0  0  0  0  0  0  0  0
    0.4730    1.1303    0.5725 C   0  0  1  0  0  0  0  0  0  0  0  0
    5.0878   -1.2915    4.9964 C   0  0  0  0  0  0  0  0  0  0  0  0
    0.9087    2.3630   -0.1922 C   0  0  0  0  0  0  0  0  0  0  0  0
    1.6687    2.2940   -1.3705 C   0  0  0  0  0  0  0  0  0  0  0  0
    0.5237    3.6276    0.2992 C   0  0  0  0  0  0  0  0  0  0  0  0
    5.3048   -2.4673    5.7151 C   0  0  0  0  0  0  0  0  0  0  0  0
    5.3126   -0.0550    5.6290 C   0  0  0  0  0  0  0  0  0  0  0  0
    1.9888    3.4646   -2.0497 C   0  0  0  0  0  0  0  0  0  0  0  0
    0.8554    4.7932   -0.3821 C   0  0  0  0  0  0  0  0  0  0  0  0
    5.7537   -2.4142    7.0369 C   0  0  0  0  0  0  0  0  0  0  0  0
    5.7172   -0.0001    6.9585 C   0  0  0  0  0  0  0  0  0  0  0  0
    1.5688    4.7010   -1.5623 C   0  0  0  0  0  0  0  0  0  0  0  0
    5.9531   -1.1746    7.6444 C   0  0  0  0  0  0  0  0  0  0  0  0
    1.8996   -0.0487   -0.0007 H   0  0  0  0  0  0  0  0  0  0  0  0
    2.9268    2.5196   -3.4150 H   0  0  0  0  0  0  0  0  0  0  0  0
    2.3083    5.5427   -3.0547 H   0  0  0  0  0  0  0  0  0  0  0  0
    6.5880   -1.9602    9.2611 H   0  0  0  0  0  0  0  0  0  0  0  0
    2.8237    0.3974    1.6677 H   0  0  0  0  0  0  0  0  0  0  0  0
    2.7331    0.0430    5.3213 H   0  0  0  0  0  0  0  0  0  0  0  0
    1.3327   -0.1085    4.3407 H   0  0  0  0  0  0  0  0  0  0  0  0
    2.5928   -2.1883    4.2011 H   0  0  0  0  0  0  0  0  0  0  0  0
    2.5911   -1.4467    2.6222 H   0  0  0  0  0  0  0  0  0  0  0  0
    3.9320    1.3398    3.4973 H   0  0  0  0  0  0  0  0  0  0  0  0
    2.4743    2.1251    4.0253 H   0  0  0  0  0  0  0  0  0  0  0  0
    0.5305    2.0167    2.5732 H   0  0  0  0  0  0  0  0  0  0  0  0
    0.5611    0.2499    2.5040 H   0  0  0  0  0  0  0  0  0  0  0  0
    4.8410   -2.2758    3.1042 H   0  0  0  0  0  0  0  0  0  0  0  0
    4.9109   -0.5416    2.9914 H   0  0  0  0  0  0  0  0  0  0  0  0
   -0.6216    1.0868    0.5646 H   0  0  0  0  0  0  0  0  0  0  0  0
    1.9959    1.3327   -1.7547 H   0  0  0  0  0  0  0  0  0  0  0  0
   -0.0404    3.7135    1.2250 H   0  0  0  0  0  0  0  0  0  0  0  0
    5.1119   -3.4332    5.2512 H   0  0  0  0  0  0  0  0  0  0  0  0
    5.1306    0.8829    5.1196 H   0  0  0  0  0  0  0  0  0  0  0  0
    0.5473    5.7600    0.0023 H   0  0  0  0  0  0  0  0  0  0  0  0
    5.9256   -3.3389    7.5717 H   0  0  0  0  0  0  0  0  0  0  0  0
    5.8402    0.9626    7.4496 H   0  0  0  0  0  0  0  0  0  0  0  0
  1 24  1  0  0  0  0
  2 18  1  0  0  0  0
  2 25  1  0  0  0  0
  3 22  1  0  0  0  0
  3 26  1  0  0  0  0
  4 23  1  0  0  0  0
  4 27  1  0  0  0  0
  5  8  1  0  0  0  0
  5  9  1  0  0  0  0
  5 28  1  0  0  0  0
  6  7  1  0  0  0  0
  6  8  1  0  0  0  0
  6 29  1  0  0  0  0
  6 30  1  0  0  0  0
  7 10  1  0  0  0  0
  7 31  1  0  0  0  0
  7 32  1  0  0  0  0
  8 33  1  0  0  0  0
  8 34  1  0  0  0  0
  9 11  1  0  0  0  0
  9 35  1  0  0  0  0
  9 36  1  0  0  0  0
 10 12  1  0  0  0  0
 10 37  1  0  0  0  0
 10 38  1  0  0  0  0
 11  1  1  0  0  0  0
 11 13  1  0  0  0  0
 11 39  1  1  0  0  0
 12 16  2  0  0  0  0
 12 17  1  0  0  0  0
 13 14  2  0  0  0  0
 13 15  1  0  0  0  0
 14 18  1  0  0  0  0
 14 40  1  0  0  0  0
 15 19  2  0  0  0  0
 15 41  1  0  0  0  0
 16 20  1  0  0  0  0
 16 42  1  0  0  0  0
 17 21  2  0  0  0  0
 17 43  1  0  0  0  0
 18 22  2  0  0  0  0
 19 22  1  0  0  0  0
 19 44  1  0  0  0  0
 20 23  2  0  0  0  0
 20 45  1  0  0  0  0
 21 23  1  0  0  0  0
 21 46  1  0  0  0  0
M  END
>  <DRUGBANK_ID>
DB01102

>  <SECONDARY_ACCESSION_NUMBERS>
APRD00802

>  <COMMON_NAME>
Arbutamine

>  <CAS_NUMBER>
128470-16-6

>  <UNII>
B07L15YAEV

>  <SYNONYMS>
Arbutamina; Arbutamine; Arbutaminum

$$$$
