
 OpenBabel10282417183D

 72 74  0  0  0  0  0  0  0  0999 V2000
    0.9935   -0.1086    0.0838 Si  0  0  0  0  0  0  0  0  0  0  0  0
    1.0012    1.6019   -2.4695 Si  0  0  0  0  0  0  0  0  0  0  0  0
    1.0085   -3.1166   -0.1405 Si  0  0  0  0  0  0  0  0  0  0  0  0
    0.5342    0.2856   -1.5013 O   0  0  0  0  0  0  0  0  0  0  0  0
    0.5075   -1.6475    0.5280 O   0  0  0  0  0  0  0  0  0  0  0  0
    2.2005    4.1925    3.8010 O   0  0  0  0  0  0  0  0  0  0  0  0
    2.3595    6.4242    2.2477 N   0  0  0  0  0  0  0  0  0  0  0  0
    1.5158    7.2210    1.5428 N   0  0  0  0  0  0  0  0  0  0  0  0
    2.7307    6.8378    3.4726 N   0  0  0  0  0  0  0  0  0  0  0  0
    0.4107    1.2547    1.1952 C   0  0  0  0  0  0  0  0  0  0  0  0
    0.9244    1.3244    2.6271 C   0  0  3  0  0  0  0  0  0  0  0  0
    2.4897    1.5527    2.7156 C   0  0  0  0  0  0  0  0  0  0  0  0
    2.8549   -0.1979    0.0233 C   0  0  0  0  0  0  0  0  0  0  0  0
    0.0964    2.4136    3.3245 C   0  0  0  0  0  0  0  0  0  0  0  0
    3.0504    2.8123    2.0526 C   0  0  0  0  0  0  0  0  0  0  0  0
    0.4240    3.1858   -1.6468 C   0  0  0  0  0  0  0  0  0  0  0  0
    2.8706    1.6296   -2.6588 C   0  0  0  0  0  0  0  0  0  0  0  0
    0.3401    1.5719   -4.2009 C   0  0  0  0  0  0  0  0  0  0  0  0
    0.4222   -3.0286   -1.9138 C   0  0  0  0  0  0  0  0  0  0  0  0
    2.8941   -3.2763   -0.0960 C   0  0  0  0  0  0  0  0  0  0  0  0
    0.3484   -4.5886    0.7595 C   0  0  0  0  0  0  0  0  0  0  0  0
    2.7118    4.0653    2.5410 C   0  0  0  0  0  0  0  0  0  0  0  0
    3.8700    2.8109    0.9048 C   0  0  0  0  0  0  0  0  0  0  0  0
    2.8465    5.2064    1.7434 C   0  0  0  0  0  0  0  0  0  0  0  0
    4.0541    3.9516    0.0933 C   0  0  0  0  0  0  0  0  0  0  0  0
    3.4657    5.1516    0.4912 C   0  0  0  0  0  0  0  0  0  0  0  0
    4.8925    3.8954   -1.1580 C   0  0  0  0  0  0  0  0  0  0  0  0
    1.1901    8.1557    2.4506 C   0  0  0  0  0  0  0  0  0  0  0  0
    1.9858    7.9351    3.6560 C   0  0  0  0  0  0  0  0  0  0  0  0
    0.2856    9.2341    2.3626 C   0  0  0  0  0  0  0  0  0  0  0  0
    1.9497    8.7685    4.7743 C   0  0  0  0  0  0  0  0  0  0  0  0
    0.2711   10.0756    3.4959 C   0  0  0  0  0  0  0  0  0  0  0  0
    1.0750    9.8594    4.6486 C   0  0  0  0  0  0  0  0  0  0  0  0
    2.2956    3.3582    4.2816 H   0  0  0  0  0  0  0  0  0  0  0  0
    0.7102    2.1956    0.7505 H   0  0  0  0  0  0  0  0  0  0  0  0
   -0.6881    1.2746    1.1618 H   0  0  0  0  0  0  0  0  0  0  0  0
    0.6866    0.3735    3.1230 H   0  0  0  0  0  0  0  0  0  0  0  0
    2.7914    1.5250    3.7666 H   0  0  0  0  0  0  0  0  0  0  0  0
    2.9898    0.6753    2.3144 H   0  0  0  0  0  0  0  0  0  0  0  0
    3.2333   -0.6612   -0.8851 H   0  0  0  0  0  0  0  0  0  0  0  0
    3.1438    0.8190   -0.0675 H   0  0  0  0  0  0  0  0  0  0  0  0
    3.3492   -0.6393    0.8898 H   0  0  0  0  0  0  0  0  0  0  0  0
   -0.9793    2.2166    3.2749 H   0  0  0  0  0  0  0  0  0  0  0  0
    0.3712    2.4902    4.3781 H   0  0  0  0  0  0  0  0  0  0  0  0
    0.2224    3.3820    2.8295 H   0  0  0  0  0  0  0  0  0  0  0  0
    0.9290    3.3523   -0.6972 H   0  0  0  0  0  0  0  0  0  0  0  0
    0.6468    4.0616   -2.2541 H   0  0  0  0  0  0  0  0  0  0  0  0
   -0.6536    3.1323   -1.4600 H   0  0  0  0  0  0  0  0  0  0  0  0
    3.2487    0.6929   -3.0782 H   0  0  0  0  0  0  0  0  0  0  0  0
    3.1967    2.4641   -3.2794 H   0  0  0  0  0  0  0  0  0  0  0  0
    3.3442    1.7657   -1.6964 H   0  0  0  0  0  0  0  0  0  0  0  0
    0.7125    0.7037   -4.7499 H   0  0  0  0  0  0  0  0  0  0  0  0
   -0.7504    1.5695   -4.2117 H   0  0  0  0  0  0  0  0  0  0  0  0
    0.6902    2.4724   -4.7166 H   0  0  0  0  0  0  0  0  0  0  0  0
    0.8202   -2.1324   -2.4019 H   0  0  0  0  0  0  0  0  0  0  0  0
    0.7430   -3.8946   -2.4874 H   0  0  0  0  0  0  0  0  0  0  0  0
   -0.6691   -2.9480   -1.9305 H   0  0  0  0  0  0  0  0  0  0  0  0
    3.2707   -3.1355    0.9236 H   0  0  0  0  0  0  0  0  0  0  0  0
    3.2142   -4.2492   -0.4666 H   0  0  0  0  0  0  0  0  0  0  0  0
    3.3846   -2.5528   -0.7432 H   0  0  0  0  0  0  0  0  0  0  0  0
    0.7196   -4.6161    1.7889 H   0  0  0  0  0  0  0  0  0  0  0  0
   -0.7424   -4.5889    0.7815 H   0  0  0  0  0  0  0  0  0  0  0  0
    0.6914   -5.4961    0.2552 H   0  0  0  0  0  0  0  0  0  0  0  0
    4.4005    1.9107    0.6084 H   0  0  0  0  0  0  0  0  0  0  0  0
    3.5966    6.0526   -0.1037 H   0  0  0  0  0  0  0  0  0  0  0  0
    4.3396    4.2961   -2.0162 H   0  0  0  0  0  0  0  0  0  0  0  0
    5.8124    4.4706   -1.0259 H   0  0  0  0  0  0  0  0  0  0  0  0
    5.1887    2.8709   -1.4111 H   0  0  0  0  0  0  0  0  0  0  0  0
   -0.3311    9.4109    1.4924 H   0  0  0  0  0  0  0  0  0  0  0  0
    2.5636    8.5888    5.6467 H   0  0  0  0  0  0  0  0  0  0  0  0
   -0.3829   10.9487    3.4879 H   0  0  0  0  0  0  0  0  0  0  0  0
    1.0176   10.5692    5.4722 H   0  0  0  0  0  0  0  0  0  0  0  0
  1  4  1  0  0  0  0
  1  5  1  0  0  0  0
  1 10  1  0  0  0  0
  1 13  1  0  0  0  0
  2  4  1  0  0  0  0
  2 16  1  0  0  0  0
  2 17  1  0  0  0  0
  2 18  1  0  0  0  0
  3  5  1  0  0  0  0
  3 19  1  0  0  0  0
  3 20  1  0  0  0  0
  3 21  1  0  0  0  0
  6 22  1  0  0  0  0
  6 34  1  0  0  0  0
  7  8  1  0  0  0  0
  7  9  1  0  0  0  0
  7 24  1  0  0  0  0
  8 28  2  0  0  0  0
  9 29  2  0  0  0  0
 10 11  1  0  0  0  0
 10 35  1  0  0  0  0
 10 36  1  0  0  0  0
 11 12  1  0  0  0  0
 11 14  1  0  0  0  0
 11 37  1  0  0  0  0
 12 15  1  0  0  0  0
 12 38  1  0  0  0  0
 12 39  1  0  0  0  0
 13 40  1  0  0  0  0
 13 41  1  0  0  0  0
 13 42  1  0  0  0  0
 14 43  1  0  0  0  0
 14 44  1  0  0  0  0
 14 45  1  0  0  0  0
 15 22  2  0  0  0  0
 15 23  1  0  0  0  0
 16 46  1  0  0  0  0
 16 47  1  0  0  0  0
 16 48  1  0  0  0  0
 17 49  1  0  0  0  0
 17 50  1  0  0  0  0
 17 51  1  0  0  0  0
 18 52  1  0  0  0  0
 18 53  1  0  0  0  0
 18 54  1  0  0  0  0
 19 55  1  0  0  0  0
 19 56  1  0  0  0  0
 19 57  1  0  0  0  0
 20 58  1  0  0  0  0
 20 59  1  0  0  0  0
 20 60  1  0  0  0  0
 21 61  1  0  0  0  0
 21 62  1  0  0  0  0
 21 63  1  0  0  0  0
 22 24  1  0  0  0  0
 23 25  2  0  0  0  0
 23 64  1  0  0  0  0
 24 26  2  0  0  0  0
 25 26  1  0  0  0  0
 25 27  1  0  0  0  0
 26 65  1  0  0  0  0
 27 66  1  0  0  0  0
 27 67  1  0  0  0  0
 27 68  1  0  0  0  0
 28 29  1  0  0  0  0
 28 30  1  0  0  0  0
 29 31  1  0  0  0  0
 30 32  2  0  0  0  0
 30 69  1  0  0  0  0
 31 33  2  0  0  0  0
 31 70  1  0  0  0  0
 32 33  1  0  0  0  0
 32 71  1  0  0  0  0
 33 72  1  0  0  0  0
M  END
>  <DRUGBANK_ID>
DB11585

>  <COMMON_NAME>
Drometrizole trisiloxane

>  <CAS_NUMBER>
155633-54-8

>  <UNII>
HC22845I1X

>  <SYNONYMS>
Silatrizole

$$$$
