
 OpenBabel10282417233D

 39 39  0  0  0  0  0  0  0  0999 V2000
   -0.4924    1.0316    0.8192 C   0  0  0  0  0  0  0  0  0  0  0  0
   -2.1345    0.4025   -0.3674 C   0  0  0  0  0  0  0  0  0  0  0  0
   -2.0035   -0.7222    0.3474 C   0  0  2  0  0  0  0  0  0  0  0  0
   -0.3128   -0.9664    1.1197 N   0  0  0  0  0  0  0  0  0  0  0  0
    0.5455    0.0095    0.5955 C   0  0  0  0  0  0  0  0  0  0  0  0
   -2.7503   -1.4918   -1.3035 C   0  0  0  0  0  0  0  0  0  0  0  0
   -2.4156   -2.8936   -1.7634 O   0  0  0  0  0  0  0  0  0  0  0  0
   -3.7032   -0.9667   -1.8797 O   0  0  0  0  0  0  0  0  0  0  0  0
    1.2089   -0.0072   -0.7196 O   0  0  0  0  0  0  0  0  0  0  0  0
    2.5600   -0.7760    0.3032 C   0  0  0  0  0  0  0  0  0  0  0  0
    2.4071    1.0241    0.3330 C   0  0  0  0  0  0  0  0  0  0  0  0
    1.0691    1.8805   -0.4657 C   0  0  0  0  0  0  0  0  0  0  0  0
   -0.4522    0.9125   -1.0312 C   0  0  0  0  0  0  0  0  0  0  0  0
   -0.2705   -1.0943   -0.9666 C   0  0  0  0  0  0  0  0  0  0  0  0
    1.2891   -1.8316   -0.3711 N   0  0  0  0  0  0  0  0  0  0  0  0
   -1.3357   -2.4537    0.0558 C   0  0  0  0  0  0  0  0  0  0  0  0
   -1.7314    1.8404    0.1691 O   0  0  0  0  0  0  0  0  0  0  0  0
    0.6495    3.4453    0.0045 C   0  0  0  0  0  0  0  0  0  0  0  0
    1.0595    3.7502    1.3062 O   0  0  0  0  0  0  0  0  0  0  0  0
    3.4722    1.9718    0.2141 C   0  0  0  0  0  0  0  0  0  0  0  0
    4.0916    1.7201    1.4277 O   0  0  0  0  0  0  0  0  0  0  0  0
   -0.3868    1.5518    1.8065 H   0  0  0  0  0  0  0  0  0  0  0  0
   -0.4781    2.2278   -0.1552 H   0  0  0  0  0  0  0  0  0  0  0  0
   -3.1920    0.9441   -0.2855 H   0  0  0  0  0  0  0  0  0  0  0  0
   -2.0539    0.8861   -1.6448 H   0  0  0  0  0  0  0  0  0  0  0  0
   -2.4725   -0.6603    1.2922 H   0  0  0  0  0  0  0  0  0  0  0  0
    0.2776   -1.8476    0.7582 H   0  0  0  0  0  0  0  0  0  0  0  0
   -1.7612   -3.6135   -1.4417 H   0  0  0  0  0  0  0  0  0  0  0  0
    3.5158   -1.1595   -0.0197 H   0  0  0  0  0  0  0  0  0  0  0  0
   -0.7787   -2.8276   -0.7226 H   0  0  0  0  0  0  0  0  0  0  0  0
   -1.1934   -2.7231    1.1364 H   0  0  0  0  0  0  0  0  0  0  0  0
   -2.6369   -2.3591    0.2792 H   0  0  0  0  0  0  0  0  0  0  0  0
   -2.2018    2.6399   -0.0303 H   0  0  0  0  0  0  0  0  0  0  0  0
    0.9720    3.8508   -0.9372 H   0  0  0  0  0  0  0  0  0  0  0  0
   -0.4699    3.7316    0.0305 H   0  0  0  0  0  0  0  0  0  0  0  0
    0.4893    3.2555    1.9346 H   0  0  0  0  0  0  0  0  0  0  0  0
    3.8205    1.6527   -0.7739 H   0  0  0  0  0  0  0  0  0  0  0  0
    2.9997    2.9609    0.1513 H   0  0  0  0  0  0  0  0  0  0  0  0
    3.3706    1.7560    2.0961 H   0  0  0  0  0  0  0  0  0  0  0  0
  1  2  1  0  0  0  0
  1 22  1  0  0  0  0
  1 23  1  0  0  0  0
  2  3  1  0  0  0  0
  2 24  1  0  0  0  0
  2 25  1  0  0  0  0
  3  4  1  0  0  0  0
  3 26  1  1  0  0  0
  3  6  1  0  0  0  0
  4  5  1  0  0  0  0
  4 27  1  0  0  0  0
  5  1  1  0  0  0  0
  5  9  2  0  0  0  0
  6  7  1  0  0  0  0
  6  8  2  0  0  0  0
  7 28  1  0  0  0  0
 10 11  2  0  0  0  0
 10 29  1  0  0  0  0
 11 12  1  0  0  0  0
 11 20  1  0  0  0  0
 12 13  2  0  0  0  0
 12 18  1  0  0  0  0
 13 14  1  0  0  0  0
 13 17  1  0  0  0  0
 14 15  2  0  0  0  0
 14 16  1  0  0  0  0
 15 10  1  0  0  0  0
 16 30  1  0  0  0  0
 16 31  1  0  0  0  0
 16 32  1  0  0  0  0
 17 33  1  0  0  0  0
 18 19  1  0  0  0  0
 18 34  1  0  0  0  0
 18 35  1  0  0  0  0
 19 36  1  0  0  0  0
 20 21  1  0  0  0  0
 20 37  1  0  0  0  0
 20 38  1  0  0  0  0
 21 39  1  0  0  0  0
M  END
>  <DRUGBANK_ID>
DB16554

>  <COMMON_NAME>
Metadoxine

>  <CAS_NUMBER>
74536-44-0

>  <UNII>
EJQ7M98H5J

>  <SYNONYMS>
Pyridoxine mixture with Pyrrolidonecarboxylic Acid; Pyridoxine pyroglutamate

$$$$
