610
 OpenBabel10282417103D

 25 25  0  0  1  0  0  0  0  0999 V2000
    0.9598   -0.0599    0.0717 O   0  0  0  0  0  0  0  0  0  0  0  0
    3.0176    2.8589    4.7025 O   0  0  0  0  0  0  0  0  0  0  0  0
    2.4601   -1.3275    2.2154 N   0  0  0  0  0  0  0  0  0  0  0  0
    0.5273    0.0720    1.4321 C   0  0  1  0  0  0  0  0  0  0  0  0
    0.9860   -1.1909    2.2225 C   0  0  2  0  0  0  0  0  0  0  0  0
    0.9846    1.4151    1.9881 C   0  0  0  0  0  0  0  0  0  0  0  0
    0.4096   -1.1897    3.6459 C   0  0  0  0  0  0  0  0  0  0  0  0
    1.9162    1.5379    3.0390 C   0  0  0  0  0  0  0  0  0  0  0  0
    0.4126    2.5849    1.4813 C   0  0  0  0  0  0  0  0  0  0  0  0
    2.1826    2.7675    3.6273 C   0  0  0  0  0  0  0  0  0  0  0  0
    0.7126    3.8261    2.0543 C   0  0  0  0  0  0  0  0  0  0  0  0
    1.5835    3.9092    3.1428 C   0  0  0  0  0  0  0  0  0  0  0  0
    1.9144    0.1217    0.0823 H   0  0  0  0  0  0  0  0  0  0  0  0
    3.3289    1.9677    4.9321 H   0  0  0  0  0  0  0  0  0  0  0  0
    2.7472   -2.1626    2.7179 H   0  0  0  0  0  0  0  0  0  0  0  0
    2.7804   -1.4314    1.2526 H   0  0  0  0  0  0  0  0  0  0  0  0
   -0.5715    0.0674    1.4093 H   0  0  0  0  0  0  0  0  0  0  0  0
    0.5987   -2.0772    1.7045 H   0  0  0  0  0  0  0  0  0  0  0  0
   -0.6851   -1.2031    3.6095 H   0  0  0  0  0  0  0  0  0  0  0  0
    0.7495   -2.0587    4.2143 H   0  0  0  0  0  0  0  0  0  0  0  0
    0.6790   -0.3077    4.2329 H   0  0  0  0  0  0  0  0  0  0  0  0
    2.4195    0.6729    3.4491 H   0  0  0  0  0  0  0  0  0  0  0  0
   -0.2853    2.5322    0.6470 H   0  0  0  0  0  0  0  0  0  0  0  0
    0.2521    4.7251    1.6618 H   0  0  0  0  0  0  0  0  0  0  0  0
    1.7942    4.8664    3.6111 H   0  0  0  0  0  0  0  0  0  0  0  0
  1 13  1  0  0  0  0
  2 10  1  0  0  0  0
  2 14  1  0  0  0  0
  3 15  1  0  0  0  0
  3 16  1  0  0  0  0
  4  1  1  0  0  0  0
  4  5  1  0  0  0  0
  4  6  1  0  0  0  0
  4 17  1  6  0  0  0
  5  3  1  0  0  0  0
  5  7  1  0  0  0  0
  5 18  1  6  0  0  0
  6  8  2  0  0  0  0
  6  9  1  0  0  0  0
  7 19  1  0  0  0  0
  7 20  1  0  0  0  0
  7 21  1  0  0  0  0
  8 10  1  0  0  0  0
  8 22  1  0  0  0  0
  9 11  2  0  0  0  0
  9 23  1  0  0  0  0
 10 12  2  0  0  0  0
 11 12  1  0  0  0  0
 11 24  1  0  0  0  0
 12 25  1  0  0  0  0
M  END
>  <DRUGBANK_ID>
DB00610

>  <SECONDARY_ACCESSION_NUMBERS>
APRD00555

>  <COMMON_NAME>
Metaraminol

>  <CAS_NUMBER>
54-49-9

>  <UNII>
818U2PZ2EH

>  <SYNONYMS>
(-)-Erythro-metaraminol; 1-(m-Hydroxyphenyl)-2-amino-1-propanol; 1-Metaraminol; 2-Amino-1-(m-hydroxyphenyl)-1-propanol; 3-Hydroxyphenylisopropanolamine; alpha-(1-Aminoethyl)-3-hydroxybenzenemethanol; alpha-(m-Hydroxyphenyl)-beta-aminopropanol; Hydroxynorephedrine; L-Metaraminol; m-Hydroxy norephedrine; m-Hydroxyphenylpropanolamine; m-Hydroxypropadrine; Metaraminol; MÃ©taraminol; Metaraminolum

$$$$
