B32
 OpenBabel10282417163D

 70 72  0  0  0  0  0  0  0  0999 V2000
    1.2333    0.4830   -0.3259 C   0  0  0  0  0  0  0  0  0  0  0  0
    0.9055   -0.9721   -1.0753 C   0  0  0  0  0  0  0  0  0  0  0  0
    1.4009   -2.1991   -0.1078 C   0  0  0  0  0  0  0  0  0  0  0  0
    0.6012   -2.5194    1.6959 C   0  0  0  0  0  0  0  0  0  0  0  0
   -1.4377   -3.1318    1.7336 C   0  0  0  0  0  0  0  0  0  0  0  0
   -2.3846   -3.8166    0.7558 C   0  0  0  0  0  0  0  0  0  0  0  0
   -1.8225   -4.8985    1.4654 C   0  0  0  0  0  0  0  0  0  0  0  0
   -2.1505   -4.7965    3.4309 C   0  0  0  0  0  0  0  0  0  0  0  0
   -3.5274   -4.6244    3.6127 N   0  0  0  0  0  0  0  0  0  0  0  0
   -3.7991   -4.4177    4.9705 C   0  0  0  0  0  0  0  0  0  0  0  0
   -3.2016   -3.0859    5.4364 C   0  0  0  0  0  0  0  0  0  0  0  0
   -3.8041   -1.5328    4.6103 S   0  0  0  0  0  0  0  0  0  0  0  0
   -3.0568   -1.5121    2.9304 C   0  0  0  0  0  0  0  0  0  0  0  0
   -1.2147   -1.4658    2.6062 C   0  0  1  0  0  0  0  0  0  0  0  0
   -0.3499   -2.8646    3.5108 O   0  0  0  0  0  0  0  0  0  0  0  0
   -0.8134   -1.8885    0.6303 C   0  0  1  0  0  0  0  0  0  0  0  0
   -0.1241   -0.7764    0.7140 O   0  0  0  0  0  0  0  0  0  0  0  0
   -0.0416   -3.8159    0.5446 C   0  0  1  0  0  0  0  0  0  0  0  0
    1.0706   -4.5742   -0.0244 O   0  0  0  0  0  0  0  0  0  0  0  0
    0.1077   -4.3674    2.4865 C   0  0  2  0  0  0  0  0  0  0  0  0
   -0.4109   -6.0180    2.8452 N   0  0  0  0  0  0  0  0  0  0  0  0
    0.4280   -7.0734    2.9458 C   0  0  0  0  0  0  0  0  0  0  0  0
   -0.2360   -8.2296    2.9387 N   0  0  0  0  0  0  0  0  0  0  0  0
   -1.6211   -8.0370    2.6852 C   0  0  0  0  0  0  0  0  0  0  0  0
   -1.8404   -6.7741    2.4788 C   0  0  0  0  0  0  0  0  0  0  0  0
   -3.1077   -6.2967    2.0394 N   0  0  0  0  0  0  0  0  0  0  0  0
   -4.2010   -6.9082    1.9226 C   0  0  0  0  0  0  0  0  0  0  0  0
   -4.1020   -8.1561    2.2048 N   0  0  0  0  0  0  0  0  0  0  0  0
   -2.8520   -8.6882    2.5280 C   0  0  0  0  0  0  0  0  0  0  0  0
   -2.8161  -10.0119    2.7154 N   0  0  0  0  0  0  0  0  0  0  0  0
    1.1634    2.0168    2.0488 C   0  0  0  0  0  0  0  0  0  0  0  0
    0.6395    0.9118    1.3067 C   0  0  0  0  0  0  0  0  0  0  0  0
   -0.8429   -0.5713    3.1363 H   0  0  0  0  0  0  0  0  0  0  0  0
   -1.6338   -1.6212   -0.0770 H   0  0  0  0  0  0  0  0  0  0  0  0
   -0.6735   -4.3197   -0.2081 H   0  0  0  0  0  0  0  0  0  0  0  0
    1.1322   -4.5312    2.8776 H   0  0  0  0  0  0  0  0  0  0  0  0
    0.7803    1.2147   -0.9809 H   0  0  0  0  0  0  0  0  0  0  0  0
    2.3032    0.3765   -0.2019 H   0  0  0  0  0  0  0  0  0  0  0  0
   -0.1899   -1.0540   -1.3170 H   0  0  0  0  0  0  0  0  0  0  0  0
    1.2637   -1.1564   -2.0929 H   0  0  0  0  0  0  0  0  0  0  0  0
    1.1084   -2.9258   -0.8869 H   0  0  0  0  0  0  0  0  0  0  0  0
    2.4776   -2.2953    0.0133 H   0  0  0  0  0  0  0  0  0  0  0  0
    1.5040   -3.1065    2.0383 H   0  0  0  0  0  0  0  0  0  0  0  0
    0.8853   -1.7132    2.4400 H   0  0  0  0  0  0  0  0  0  0  0  0
   -1.9185   -3.1629    2.6999 H   0  0  0  0  0  0  0  0  0  0  0  0
   -2.2459   -2.3465    1.3930 H   0  0  0  0  0  0  0  0  0  0  0  0
   -3.4599   -3.7680    0.8704 H   0  0  0  0  0  0  0  0  0  0  0  0
   -2.1963   -3.5425   -0.2900 H   0  0  0  0  0  0  0  0  0  0  0  0
   -2.0030   -5.6941    0.7074 H   0  0  0  0  0  0  0  0  0  0  0  0
   -0.8301   -5.3504    1.1855 H   0  0  0  0  0  0  0  0  0  0  0  0
   -1.8310   -5.5924    4.1639 H   0  0  0  0  0  0  0  0  0  0  0  0
   -1.5211   -4.1421    4.0512 H   0  0  0  0  0  0  0  0  0  0  0  0
   -3.8951   -4.0437    2.8942 H   0  0  0  0  0  0  0  0  0  0  0  0
   -4.8771   -4.5034    4.9977 H   0  0  0  0  0  0  0  0  0  0  0  0
   -3.3797   -5.2823    5.5213 H   0  0  0  0  0  0  0  0  0  0  0  0
   -3.4746   -3.0267    6.4846 H   0  0  0  0  0  0  0  0  0  0  0  0
   -2.1044   -3.0573    5.4527 H   0  0  0  0  0  0  0  0  0  0  0  0
   -3.5824   -2.3790    2.4818 H   0  0  0  0  0  0  0  0  0  0  0  0
   -3.5425   -0.7839    2.2547 H   0  0  0  0  0  0  0  0  0  0  0  0
    0.8089   -0.9248    0.9823 H   0  0  0  0  0  0  0  0  0  0  0  0
    1.8677   -4.3336    0.4556 H   0  0  0  0  0  0  0  0  0  0  0  0
    1.4853   -6.8471    2.9966 H   0  0  0  0  0  0  0  0  0  0  0  0
   -5.0854   -6.3109    1.6481 H   0  0  0  0  0  0  0  0  0  0  0  0
   -1.9027  -10.3164    3.0030 H   0  0  0  0  0  0  0  0  0  0  0  0
   -3.7024  -10.4643    2.6798 H   0  0  0  0  0  0  0  0  0  0  0  0
    0.7621    2.8279    1.4732 H   0  0  0  0  0  0  0  0  0  0  0  0
    0.7177    1.8764    3.0517 H   0  0  0  0  0  0  0  0  0  0  0  0
    2.2265    1.7929    2.0478 H   0  0  0  0  0  0  0  0  0  0  0  0
   -0.4886    0.9283    1.3780 H   0  0  0  0  0  0  0  0  0  0  0  0
    0.9904    0.1675    2.0707 H   0  0  0  0  0  0  0  0  0  0  0  0
  1  2  1  0  0  0  0
  1 32  1  0  0  0  0
  1 37  1  0  0  0  0
  1 38  1  0  0  0  0
  2  3  1  0  0  0  0
  2 39  1  0  0  0  0
  2 40  1  0  0  0  0
  3  4  1  0  0  0  0
  3 41  1  0  0  0  0
  3 42  1  0  0  0  0
  4  5  1  0  0  0  0
  4 43  1  0  0  0  0
  4 44  1  0  0  0  0
  5  6  1  0  0  0  0
  5 45  1  0  0  0  0
  5 46  1  0  0  0  0
  6  7  1  0  0  0  0
  6 47  1  0  0  0  0
  6 48  1  0  0  0  0
  7  8  1  0  0  0  0
  7 49  1  0  0  0  0
  7 50  1  0  0  0  0
  8  9  1  0  0  0  0
  8 51  1  0  0  0  0
  8 52  1  0  0  0  0
  9 10  1  0  0  0  0
  9 53  1  0  0  0  0
 10 11  1  0  0  0  0
 10 54  1  0  0  0  0
 10 55  1  0  0  0  0
 11 12  1  0  0  0  0
 11 56  1  0  0  0  0
 11 57  1  0  0  0  0
 13 12  1  0  0  0  0
 13 58  1  0  0  0  0
 13 59  1  0  0  0  0
 14 13  1  0  0  0  0
 14 16  1  0  0  0  0
 14 33  1  1  0  0  0
 15 14  1  0  0  0  0
 15 20  1  0  0  0  0
 16 18  1  0  0  0  0
 16 17  1  0  0  0  0
 16 34  1  6  0  0  0
 17 60  1  0  0  0  0
 18 19  1  0  0  0  0
 18 35  1  6  0  0  0
 19 61  1  0  0  0  0
 20 18  1  0  0  0  0
 20 36  1  1  0  0  0
 20 21  1  0  0  0  0
 21 25  1  0  0  0  0
 22 21  1  0  0  0  0
 22 62  1  0  0  0  0
 23 22  2  0  0  0  0
 23 24  1  0  0  0  0
 24 29  2  0  0  0  0
 24 25  1  0  0  0  0
 25 26  2  0  0  0  0
 26 27  1  0  0  0  0
 27 63  1  0  0  0  0
 28 27  2  0  0  0  0
 29 28  1  0  0  0  0
 30 29  1  0  0  0  0
 30 64  1  0  0  0  0
 30 65  1  0  0  0  0
 31 32  1  0  0  0  0
 31 66  1  0  0  0  0
 31 67  1  0  0  0  0
 31 68  1  0  0  0  0
 32 69  1  0  0  0  0
 32 70  1  0  0  0  0
M  END
>  <DRUGBANK_ID>
DB07413

>  <COMMON_NAME>
5'-S-[2-(decylamino)ethyl]-5'-thioadenosine

$$$$
