
 OpenBabel10282417113D

 50 50  0  0  0  0  0  0  0  0999 V2000
    1.0798   -0.1889    0.6839 C   0  0  0  0  0  0  0  0  0  0  0  0
    0.2638    0.9839    1.1551 C   0  0  0  0  0  0  0  0  0  0  0  0
   -0.9615    0.8353    1.7450 C   0  0  0  0  0  0  0  0  0  0  0  0
   -1.6898    2.0050    1.9435 C   0  0  0  0  0  0  0  0  0  0  0  0
   -1.1181    3.1901    1.4730 C   0  0  0  0  0  0  0  0  0  0  0  0
    0.5054   -1.1898    0.3458 O   0  0  0  0  0  0  0  0  0  0  0  0
    0.4744    2.2369    0.6277 C   0  0  0  0  0  0  0  0  0  0  0  0
    0.1938    3.4029    1.2156 C   0  0  0  0  0  0  0  0  0  0  0  0
    2.4363   -0.0251    0.4304 O   0  0  0  0  0  0  0  0  0  0  0  0
   -1.8732    4.1110    0.7242 N   0  0  0  0  0  0  0  0  0  0  0  0
    1.8081    2.5793   -1.2892 N   0  0  0  0  0  0  0  0  0  0  0  0
   -2.8754    1.9615    2.5931 O   0  0  0  0  0  0  0  0  0  0  0  0
    3.2061    1.2112    0.5000 C   0  0  0  0  0  0  0  0  0  0  0  0
    3.1043    2.2769   -0.6811 C   0  0  0  0  0  0  0  0  0  0  0  0
    1.4369    3.9390   -1.6664 C   0  0  0  0  0  0  0  0  0  0  0  0
    0.9926    1.4375   -1.7453 C   0  0  0  0  0  0  0  0  0  0  0  0
   -3.5629    3.1674    3.0051 C   0  0  0  0  0  0  0  0  0  0  0  0
   -2.8301    4.2955    3.8319 C   0  0  0  0  0  0  0  0  0  0  0  0
   -1.9010    5.3155    3.1039 C   0  0  0  0  0  0  0  0  0  0  0  0
    1.5942    3.8713   -3.1366 C   0  0  0  0  0  0  0  0  0  0  0  0
    1.1885    0.7080   -2.9939 C   0  0  0  0  0  0  0  0  0  0  0  0
   -2.6308    6.1797    1.9056 C   0  0  0  0  0  0  0  0  0  0  0  0
   -1.3374   -0.1481    1.9632 H   0  0  0  0  0  0  0  0  0  0  0  0
   -0.1911    2.4409   -0.2972 H   0  0  0  0  0  0  0  0  0  0  0  0
    0.4231    4.3181    0.6285 H   0  0  0  0  0  0  0  0  0  0  0  0
   -2.7348    4.1062    1.2268 H   0  0  0  0  0  0  0  0  0  0  0  0
   -1.3130    4.9480    0.9051 H   0  0  0  0  0  0  0  0  0  0  0  0
    3.0117    1.6449    1.4838 H   0  0  0  0  0  0  0  0  0  0  0  0
    4.2582    0.8892    0.5113 H   0  0  0  0  0  0  0  0  0  0  0  0
    3.6001    3.1855   -0.2963 H   0  0  0  0  0  0  0  0  0  0  0  0
    3.7079    1.9426   -1.5251 H   0  0  0  0  0  0  0  0  0  0  0  0
    0.3748    4.1889   -1.4965 H   0  0  0  0  0  0  0  0  0  0  0  0
    1.9795    4.7529   -1.1502 H   0  0  0  0  0  0  0  0  0  0  0  0
    1.3155    0.6540   -1.1250 H   0  0  0  0  0  0  0  0  0  0  0  0
   -0.1053    1.4277   -1.6121 H   0  0  0  0  0  0  0  0  0  0  0  0
   -4.1241    3.5672    2.1547 H   0  0  0  0  0  0  0  0  0  0  0  0
   -4.3545    2.7780    3.6534 H   0  0  0  0  0  0  0  0  0  0  0  0
   -3.5855    4.9297    4.2951 H   0  0  0  0  0  0  0  0  0  0  0  0
   -2.2713    3.7859    4.6334 H   0  0  0  0  0  0  0  0  0  0  0  0
   -1.2859    5.9932    3.7084 H   0  0  0  0  0  0  0  0  0  0  0  0
   -1.0442    4.6689    2.9040 H   0  0  0  0  0  0  0  0  0  0  0  0
    0.8118    3.1925   -3.4726 H   0  0  0  0  0  0  0  0  0  0  0  0
    1.3910    4.8036   -3.6408 H   0  0  0  0  0  0  0  0  0  0  0  0
    2.5830    3.4603   -3.3590 H   0  0  0  0  0  0  0  0  0  0  0  0
    2.2590    0.5620   -3.0698 H   0  0  0  0  0  0  0  0  0  0  0  0
    0.6642   -0.2496   -2.8564 H   0  0  0  0  0  0  0  0  0  0  0  0
    0.6891    1.2702   -3.7659 H   0  0  0  0  0  0  0  0  0  0  0  0
   -3.0476    7.1232    2.2315 H   0  0  0  0  0  0  0  0  0  0  0  0
   -1.9805    6.4753    1.0493 H   0  0  0  0  0  0  0  0  0  0  0  0
   -3.4793    5.6611    1.4095 H   0  0  0  0  0  0  0  0  0  0  0  0
  2  1  1  0  0  0  0
  3  2  1  0  0  0  0
  3 23  1  0  0  0  0
  4  3  2  0  0  0  0
  5  8  2  0  0  0  0
  5  4  1  0  0  0  0
  6  1  2  0  0  0  0
  7  2  2  0  0  0  0
  7 24  1  0  0  0  0
  8  7  1  0  0  0  0
  8 25  1  0  0  0  0
  9  1  1  0  0  0  0
 10  5  1  0  0  0  0
 10 26  1  0  0  0  0
 10 27  1  0  0  0  0
 11 14  1  0  0  0  0
 12  4  1  0  0  0  0
 13  9  1  0  0  0  0
 13 28  1  0  0  0  0
 13 29  1  0  0  0  0
 14 13  1  0  0  0  0
 14 30  1  0  0  0  0
 14 31  1  0  0  0  0
 15 11  1  0  0  0  0
 15 32  1  0  0  0  0
 15 33  1  0  0  0  0
 16 11  1  0  0  0  0
 16 34  1  0  0  0  0
 16 35  1  0  0  0  0
 17 12  1  0  0  0  0
 17 36  1  0  0  0  0
 17 37  1  0  0  0  0
 18 17  1  0  0  0  0
 18 38  1  0  0  0  0
 18 39  1  0  0  0  0
 19 18  1  0  0  0  0
 19 40  1  0  0  0  0
 19 41  1  0  0  0  0
 20 15  1  0  0  0  0
 20 42  1  0  0  0  0
 20 43  1  0  0  0  0
 20 44  1  0  0  0  0
 21 16  1  0  0  0  0
 21 45  1  0  0  0  0
 21 46  1  0  0  0  0
 21 47  1  0  0  0  0
 22 19  1  0  0  0  0
 22 48  1  0  0  0  0
 22 49  1  0  0  0  0
 22 50  1  0  0  0  0
M  END
>  <DRUGBANK_ID>
DB00892

>  <SECONDARY_ACCESSION_NUMBERS>
APRD00817

>  <COMMON_NAME>
Oxybuprocaine

>  <CAS_NUMBER>
99-43-4

>  <UNII>
AXQ0JYM303

>  <SYNONYMS>
4-Amino-3-butoxy-2-(diethylamino)ethyl ester benzoic acid; 4-Amino-3-butoxy-benzoic acid 2-diethylamino-ethyl ester; 4-Amino-3-n-butoxy-benzoesäure-diäthylaminoäthylester; Benoxinate; BNX; Butoxyaminobenzoyldiethylaminoethanol; Oxibuprocaina; Oxybucaine; Oxybuprocaine; Oxybuprocainum; Oxyriprocaine

$$$$
