
 OpenBabel10282417143D

 80 81  0  0  0  0  0  0  0  0999 V2000
   -1.0834    5.3308   -2.9751 C   0  0  0  0  0  0  0  0  0  0  0  0
   -1.2215    6.7182   -3.2464 C   0  0  0  0  0  0  0  0  0  0  0  0
   -0.4991    7.6560   -2.4789 C   0  0  0  0  0  0  0  0  0  0  0  0
    0.0092    7.1848   -1.2937 C   0  0  0  0  0  0  0  0  0  0  0  0
   -0.2636    5.8738   -0.9230 C   0  0  0  0  0  0  0  0  0  0  0  0
   -0.4432    4.8808   -1.8527 C   0  0  0  0  0  0  0  0  0  0  0  0
   -2.1741    6.9145   -4.3524 C   0  0  0  0  0  0  0  0  0  0  0  0
   -2.3761    6.0822   -5.2367 O   0  0  0  0  0  0  0  0  0  0  0  0
   -2.8311    8.0726   -4.3195 O   0  0  0  0  0  0  0  0  0  0  0  0
   -0.2024    8.9880   -2.5933 O   0  0  0  0  0  0  0  0  0  0  0  0
   -0.7799    9.6800   -3.6662 C   0  0  0  0  0  0  0  0  0  0  0  0
   -0.2547    9.1899   -5.0151 C   0  0  0  0  0  0  0  0  0  0  0  0
   -0.9387    8.7156   -5.9116 O   0  0  0  0  0  0  0  0  0  0  0  0
    1.0770    9.2544   -5.1713 O   0  0  0  0  0  0  0  0  0  0  0  0
   -0.1043    3.4307   -1.5719 C   0  0  0  0  0  0  0  0  0  0  0  0
    1.4019    2.9592   -1.5782 C   0  0  1  0  0  0  0  0  0  0  0  0
    2.4264    4.0984   -1.7848 C   0  0  0  0  0  0  0  0  0  0  0  0
    2.9955    4.2864   -2.8618 O   0  0  0  0  0  0  0  0  0  0  0  0
    2.6524    4.9866   -0.7685 N   0  0  0  0  0  0  0  0  0  0  0  0
    1.9507    5.0550    0.4868 C   0  0  0  0  0  0  0  0  0  0  0  0
    2.8012    5.1515    1.7011 C   0  0  0  0  0  0  0  0  0  0  0  0
    3.4862    6.5215    1.6867 C   0  0  0  0  0  0  0  0  0  0  0  0
    2.5373    7.7416    1.7244 C   0  0  0  0  0  0  0  0  0  0  0  0
    1.5735    7.7050    2.8981 C   0  0  0  0  0  0  0  0  0  0  0  0
    1.7189    2.1430   -0.3672 N   0  0  0  0  0  0  0  0  0  0  0  0
    1.5340    0.7730   -0.3280 C   0  0  0  0  0  0  0  0  0  0  0  0
    1.1041    0.1606   -1.3028 O   0  0  0  0  0  0  0  0  0  0  0  0
    1.8129    0.0737    1.0419 C   0  0  2  0  0  0  0  0  0  0  0  0
    0.5865   -1.9960    1.7888 C   0  0  0  0  0  0  0  0  0  0  0  0
    3.0295   -0.8559    0.8871 C   0  0  0  0  0  0  0  0  0  0  0  0
    4.2873   -0.1631    0.5003 C   0  0  0  0  0  0  0  0  0  0  0  0
    5.9818    1.4598    0.9865 C   0  0  0  0  0  0  0  0  0  0  0  0
    6.5278    1.2408   -0.2790 C   0  0  0  0  0  0  0  0  0  0  0  0
    5.9571    0.3157   -1.1538 C   0  0  0  0  0  0  0  0  0  0  0  0
    4.8275   -0.3843   -0.7674 C   0  0  0  0  0  0  0  0  0  0  0  0
    4.8924    0.7145    1.4006 C   0  0  0  0  0  0  0  0  0  0  0  0
    0.5884   -0.6502    1.4874 N   0  0  0  0  0  0  0  0  0  0  0  0
    1.6009   -2.6721    1.9142 O   0  0  0  0  0  0  0  0  0  0  0  0
   -0.7193   -2.6823    2.0699 C   0  0  0  0  0  0  0  0  0  0  0  0
   -1.0415   -3.7655    1.0343 C   0  0  0  0  0  0  0  0  0  0  0  0
    0.0324   -4.8286    0.8051 C   0  0  0  0  0  0  0  0  0  0  0  0
    1.1052   -4.6259    0.2592 O   0  0  0  0  0  0  0  0  0  0  0  0
   -0.3224   -6.0839    1.1630 O   0  0  0  0  0  0  0  0  0  0  0  0
   -1.5820    4.6027   -3.6099 H   0  0  0  0  0  0  0  0  0  0  0  0
    0.5436    7.8639   -0.6341 H   0  0  0  0  0  0  0  0  0  0  0  0
   -0.2808    5.6021    0.1205 H   0  0  0  0  0  0  0  0  0  0  0  0
   -2.5854    8.4919   -5.1818 H   0  0  0  0  0  0  0  0  0  0  0  0
   -1.8528    9.6303   -3.4997 H   0  0  0  0  0  0  0  0  0  0  0  0
   -0.6225   10.7600   -3.6086 H   0  0  0  0  0  0  0  0  0  0  0  0
    1.2260    8.7993   -6.0306 H   0  0  0  0  0  0  0  0  0  0  0  0
   -0.5506    3.1737   -0.6038 H   0  0  0  0  0  0  0  0  0  0  0  0
   -0.6310    2.8057   -2.3030 H   0  0  0  0  0  0  0  0  0  0  0  0
    1.5420    2.2939   -2.4409 H   0  0  0  0  0  0  0  0  0  0  0  0
    3.1185    5.8260   -1.1069 H   0  0  0  0  0  0  0  0  0  0  0  0
    1.4344    5.9967    0.4964 H   0  0  0  0  0  0  0  0  0  0  0  0
    1.2083    4.2698    0.6050 H   0  0  0  0  0  0  0  0  0  0  0  0
    2.1381    5.0521    2.5689 H   0  0  0  0  0  0  0  0  0  0  0  0
    3.4970    4.3118    1.7151 H   0  0  0  0  0  0  0  0  0  0  0  0
    4.1630    6.5645    2.5384 H   0  0  0  0  0  0  0  0  0  0  0  0
    4.0911    6.6002    0.7747 H   0  0  0  0  0  0  0  0  0  0  0  0
    3.1310    8.6600    1.7462 H   0  0  0  0  0  0  0  0  0  0  0  0
    1.9585    7.8359    0.8044 H   0  0  0  0  0  0  0  0  0  0  0  0
    2.1371    7.6901    3.8333 H   0  0  0  0  0  0  0  0  0  0  0  0
    0.9184    8.5810    2.8902 H   0  0  0  0  0  0  0  0  0  0  0  0
    0.9212    6.8257    2.8704 H   0  0  0  0  0  0  0  0  0  0  0  0
    2.2112    2.5850    0.3979 H   0  0  0  0  0  0  0  0  0  0  0  0
    2.0094    0.8419    1.8030 H   0  0  0  0  0  0  0  0  0  0  0  0
    3.2627   -1.3463    1.8397 H   0  0  0  0  0  0  0  0  0  0  0  0
    2.8001   -1.6318    0.1441 H   0  0  0  0  0  0  0  0  0  0  0  0
    6.4006    2.2114    1.6466 H   0  0  0  0  0  0  0  0  0  0  0  0
    7.4115    1.7898   -0.5845 H   0  0  0  0  0  0  0  0  0  0  0  0
    6.3737    0.1529   -2.1428 H   0  0  0  0  0  0  0  0  0  0  0  0
    4.3615   -1.0961   -1.4487 H   0  0  0  0  0  0  0  0  0  0  0  0
    4.5080    0.8129    2.4136 H   0  0  0  0  0  0  0  0  0  0  0  0
   -0.2679   -0.1147    1.5478 H   0  0  0  0  0  0  0  0  0  0  0  0
   -0.5893   -3.1472    3.0560 H   0  0  0  0  0  0  0  0  0  0  0  0
   -1.5326   -1.9560    2.1591 H   0  0  0  0  0  0  0  0  0  0  0  0
   -1.9748   -4.2583    1.3304 H   0  0  0  0  0  0  0  0  0  0  0  0
   -1.2339   -3.3033    0.0595 H   0  0  0  0  0  0  0  0  0  0  0  0
   -1.2379   -6.2166    1.4606 H   0  0  0  0  0  0  0  0  0  0  0  0
  1  2  2  0  0  0  0
  1  6  1  0  0  0  0
  1 44  1  0  0  0  0
  2  3  1  0  0  0  0
  2  7  1  0  0  0  0
  3  4  2  0  0  0  0
  3 10  1  0  0  0  0
  4  5  1  0  0  0  0
  4 45  1  0  0  0  0
  5  6  2  0  0  0  0
  5 46  1  0  0  0  0
  6 15  1  0  0  0  0
  7  9  1  0  0  0  0
  7  8  2  0  0  0  0
  9 47  1  0  0  0  0
 10 11  1  0  0  0  0
 11 12  1  0  0  0  0
 11 48  1  0  0  0  0
 11 49  1  0  0  0  0
 12 13  2  0  0  0  0
 12 14  1  0  0  0  0
 14 50  1  0  0  0  0
 15 51  1  0  0  0  0
 15 52  1  0  0  0  0
 16 17  1  0  0  0  0
 16 53  1  6  0  0  0
 16 25  1  0  0  0  0
 16 15  1  0  0  0  0
 17 18  2  0  0  0  0
 17 19  1  0  0  0  0
 19 20  1  0  0  0  0
 19 54  1  0  0  0  0
 20 21  1  0  0  0  0
 20 55  1  0  0  0  0
 20 56  1  0  0  0  0
 21 22  1  0  0  0  0
 21 57  1  0  0  0  0
 21 58  1  0  0  0  0
 22 23  1  0  0  0  0
 22 59  1  0  0  0  0
 22 60  1  0  0  0  0
 23 24  1  0  0  0  0
 23 61  1  0  0  0  0
 23 62  1  0  0  0  0
 24 63  1  0  0  0  0
 24 64  1  0  0  0  0
 24 65  1  0  0  0  0
 25 26  1  0  0  0  0
 25 66  1  0  0  0  0
 26 28  1  0  0  0  0
 26 27  2  0  0  0  0
 28 37  1  0  0  0  0
 28 30  1  0  0  0  0
 28 67  1  1  0  0  0
 29 37  1  0  0  0  0
 29 39  1  0  0  0  0
 29 38  2  0  0  0  0
 30 31  1  0  0  0  0
 30 68  1  0  0  0  0
 30 69  1  0  0  0  0
 31 35  1  0  0  0  0
 31 36  2  0  0  0  0
 32 33  2  0  0  0  0
 32 36  1  0  0  0  0
 32 70  1  0  0  0  0
 33 34  1  0  0  0  0
 33 71  1  0  0  0  0
 34 35  2  0  0  0  0
 34 72  1  0  0  0  0
 35 73  1  0  0  0  0
 36 74  1  0  0  0  0
 37 75  1  0  0  0  0
 39 40  1  0  0  0  0
 39 76  1  0  0  0  0
 39 77  1  0  0  0  0
 40 41  1  0  0  0  0
 40 78  1  0  0  0  0
 40 79  1  0  0  0  0
 41 43  1  0  0  0  0
 41 42  2  0  0  0  0
 43 80  1  0  0  0  0
M  END
>  <DRUGBANK_ID>
DB04525

>  <SECONDARY_ACCESSION_NUMBERS>
EXPT01897

>  <COMMON_NAME>
N-(3-Carboxypropanoyl)-L-phenylalanyl-3-carboxy-O-(carboxymethyl)-N-pentyl-L-tyrosinamide

$$$$
