
 OpenBabel10282417203D

 52 55  0  0  1  0  0  0  0  0999 V2000
   -0.8427  -28.2513  -14.8825 C   0  0  0  0  0  0  0  0  0  0  0  0
   -3.7202  -20.4927  -16.2824 C   0  0  0  0  0  0  0  0  0  0  0  0
   -2.6894  -26.2782  -13.4568 C   0  0  0  0  0  0  0  0  0  0  0  0
   -6.1308  -18.2812  -13.5451 C   0  0  0  0  0  0  0  0  0  0  0  0
   -1.6741  -21.7564  -14.1776 C   0  0  0  0  0  0  0  0  0  0  0  0
   -2.7553  -23.9343  -13.2734 C   0  0  0  0  0  0  0  0  0  0  0  0
   -4.4025  -18.7937  -13.9568 C   0  0  0  0  0  0  0  0  0  0  0  0
   -0.9502  -23.1293  -13.1487 C   0  0  0  0  0  0  0  0  0  0  0  0
   -1.4392  -24.2679  -14.8093 C   0  0  0  0  0  0  0  0  0  0  0  0
   -6.3234  -19.6574  -15.4243 C   0  0  0  0  0  0  0  0  0  0  0  0
   -5.4266  -22.9782  -14.5589 C   0  0  0  0  0  0  0  0  0  0  0  0
   -1.1646  -26.8589  -15.4204 C   0  0  0  0  0  0  0  0  0  0  0  0
   -7.0601  -19.1648  -14.2918 C   0  0  0  0  0  0  0  0  0  0  0  0
   -3.9438  -22.8938  -14.7325 C   0  0  2  0  0  0  0  0  0  0  0  0
   -3.3056  -21.5710  -14.0481 C   0  0  1  0  0  0  0  0  0  0  0  0
   -3.4631  -24.2703  -14.4006 C   0  0  1  0  0  0  0  0  0  0  0  0
   -5.6110  -20.6476  -14.8483 C   0  0  0  0  0  0  0  0  0  0  0  0
   -6.2094  -21.9036  -14.5448 C   0  0  0  0  0  0  0  0  0  0  0  0
   -4.1183  -20.3650  -14.7262 C   0  0  1  0  0  0  0  0  0  0  0  0
   -1.9125  -24.8506  -13.7011 C   0  0  2  0  0  0  0  0  0  0  0  0
   -0.8438  -25.5739  -14.4648 C   0  0  2  0  0  0  0  0  0  0  0  0
   -7.9105  -22.1729  -14.4952 Cl  0  0  0  0  0  0  0  0  0  0  0  0
   -1.8404  -26.7828  -16.4551 O   0  0  0  0  0  0  0  0  0  0  0  0
   -8.3412  -19.2272  -14.3089 O   0  0  0  0  0  0  0  0  0  0  0  0
    0.1073  -25.6907  -13.4240 O   0  0  0  0  0  0  0  0  0  0  0  0
   -3.7458  -22.9209  -15.8011 H   0  0  0  0  0  0  0  0  0  0  0  0
   -3.5191  -21.4866  -12.9741 H   0  0  0  0  0  0  0  0  0  0  0  0
   -4.3089  -24.9214  -14.1840 H   0  0  0  0  0  0  0  0  0  0  0  0
   -0.0289  -28.2342  -14.1611 H   0  0  0  0  0  0  0  0  0  0  0  0
   -0.5578  -28.8927  -15.7185 H   0  0  0  0  0  0  0  0  0  0  0  0
   -1.7228  -28.6873  -14.3904 H   0  0  0  0  0  0  0  0  0  0  0  0
   -4.5897  -20.7412  -16.9203 H   0  0  0  0  0  0  0  0  0  0  0  0
   -3.1667  -19.6684  -16.7120 H   0  0  0  0  0  0  0  0  0  0  0  0
   -3.0847  -21.3632  -16.5045 H   0  0  0  0  0  0  0  0  0  0  0  0
   -2.0428  -27.0241  -13.0456 H   0  0  0  0  0  0  0  0  0  0  0  0
   -3.7182  -26.3929  -13.1076 H   0  0  0  0  0  0  0  0  0  0  0  0
   -3.0030  -26.4712  -14.5184 H   0  0  0  0  0  0  0  0  0  0  0  0
   -6.2823  -17.5328  -12.7381 H   0  0  0  0  0  0  0  0  0  0  0  0
   -6.5683  -17.4916  -14.1938 H   0  0  0  0  0  0  0  0  0  0  0  0
   -1.1420  -20.8148  -14.0079 H   0  0  0  0  0  0  0  0  0  0  0  0
   -1.4674  -21.9914  -15.2381 H   0  0  0  0  0  0  0  0  0  0  0  0
   -2.8190  -23.0741  -12.5589 H   0  0  0  0  0  0  0  0  0  0  0  0
   -3.2970  -24.5909  -12.4705 H   0  0  0  0  0  0  0  0  0  0  0  0
   -3.6884  -18.2354  -13.3186 H   0  0  0  0  0  0  0  0  0  0  0  0
   -4.0617  -18.2652  -14.8485 H   0  0  0  0  0  0  0  0  0  0  0  0
   -1.0543  -22.7467  -12.1190 H   0  0  0  0  0  0  0  0  0  0  0  0
    0.1349  -23.1991  -13.3387 H   0  0  0  0  0  0  0  0  0  0  0  0
   -0.4700  -23.7144  -14.9972 H   0  0  0  0  0  0  0  0  0  0  0  0
   -1.8515  -24.3351  -15.8448 H   0  0  0  0  0  0  0  0  0  0  0  0
   -5.7828  -18.7622  -15.7917 H   0  0  0  0  0  0  0  0  0  0  0  0
   -5.9351  -23.9339  -14.5553 H   0  0  0  0  0  0  0  0  0  0  0  0
    0.5337  -26.5590  -13.4657 H   0  0  0  0  0  0  0  0  0  0  0  0
  1 29  1  0  0  0  0
  1 30  1  0  0  0  0
  1 31  1  0  0  0  0
  2 32  1  0  0  0  0
  2 33  1  0  0  0  0
  2 34  1  0  0  0  0
  3 35  1  0  0  0  0
  3 36  1  0  0  0  0
  3 37  1  0  0  0  0
  4 38  1  0  0  0  0
  4 39  1  0  0  0  0
  5 40  1  0  0  0  0
  5 41  1  0  0  0  0
  6 42  1  0  0  0  0
  6 43  1  0  0  0  0
  7  4  1  0  0  0  0
  7 44  1  0  0  0  0
  7 45  1  0  0  0  0
  8  5  1  0  0  0  0
  8 46  1  0  0  0  0
  8 47  1  0  0  0  0
  9  6  1  0  0  0  0
  9 48  1  0  0  0  0
  9 49  1  0  0  0  0
 10 50  1  0  0  0  0
 11 51  1  0  0  0  0
 12  1  1  0  0  0  0
 13  4  1  0  0  0  0
 13 10  1  0  0  0  0
 14 11  1  0  0  0  0
 14 26  1  1  0  0  0
 15  5  1  0  0  0  0
 15 14  1  0  0  0  0
 15 27  1  6  0  0  0
 16  6  1  0  0  0  0
 16 14  1  0  0  0  0
 16 28  1  1  0  0  0
 17 10  2  0  0  0  0
 18 11  2  0  0  0  0
 18 17  1  0  0  0  0
 19  7  1  0  0  0  0
 19 15  1  0  0  0  0
 19 17  1  0  0  0  0
 19  2  1  1  0  0  0
 20  8  1  0  0  0  0
 20 16  1  0  0  0  0
 20  3  1  1  0  0  0
 21  9  1  0  0  0  0
 21 20  1  0  0  0  0
 21 25  1  1  0  0  0
 21 12  1  0  0  0  0
 22 18  1  0  0  0  0
 23 12  2  0  0  0  0
 24 13  2  0  0  0  0
 25 52  1  0  0  0  0
M  END
>  <DRUGBANK_ID>
DB13528

>  <COMMON_NAME>
Chlormadinone

>  <CAS_NUMBER>
1961-77-9

>  <UNII>
SDS4N642GG

>  <SYNONYMS>
Chlormadinone

$$$$
