839
 OpenBabel10282417113D

 42 43  0  0  0  0  0  0  0  0999 V2000
    0.6492   -0.2794   -0.5523 S   0  0  0  0  0  0  0  0  0  0  0  0
    0.4687    4.0451   -0.1098 O   0  0  0  0  0  0  0  0  0  0  0  0
   -0.0491   -1.0828   -1.7193 O   0  0  0  0  0  0  0  0  0  0  0  0
    0.1309   -0.7332    0.7726 O   0  0  0  0  0  0  0  0  0  0  0  0
    2.7171    1.6957    1.3194 N   0  0  0  0  0  0  0  0  0  0  0  0
    2.3008    2.8276    0.4805 N   0  0  0  0  0  0  0  0  0  0  0  0
    0.0461    1.6752   -0.4326 N   0  0  0  0  0  0  0  0  0  0  0  0
    4.7138   -1.6408    1.6479 C   0  0  0  0  0  0  0  0  0  0  0  0
    3.6106   -2.3132    0.8335 C   0  0  0  0  0  0  0  0  0  0  0  0
    4.9550   -0.0251    1.7816 C   0  0  0  0  0  0  0  0  0  0  0  0
    2.3864   -1.2987    1.0303 C   0  0  0  0  0  0  0  0  0  0  0  0
    3.8861    1.1732    1.9460 C   0  0  0  0  0  0  0  0  0  0  0  0
    2.1155    0.5468    0.7278 C   0  0  0  0  0  0  0  0  0  0  0  0
    0.9481    2.8995   -0.0229 C   0  0  0  0  0  0  0  0  0  0  0  0
    2.8161   -0.1772   -1.1876 C   0  0  0  0  0  0  0  0  0  0  0  0
    3.9013    1.0045   -0.9748 C   0  0  0  0  0  0  0  0  0  0  0  0
    3.6051   -1.2905   -1.5151 C   0  0  0  0  0  0  0  0  0  0  0  0
    5.9268   -0.0790   -0.9619 C   0  0  0  0  0  0  0  0  0  0  0  0
    5.3028    1.1230   -0.9273 C   0  0  0  0  0  0  0  0  0  0  0  0
    5.1035   -1.2206   -1.2413 C   0  0  0  0  0  0  0  0  0  0  0  0
    7.3069   -0.1403   -0.3526 C   0  0  0  0  0  0  0  0  0  0  0  0
    2.9504    3.5785    0.2084 H   0  0  0  0  0  0  0  0  0  0  0  0
   -0.8670    1.7593    0.0489 H   0  0  0  0  0  0  0  0  0  0  0  0
    5.6759   -2.1493    1.4483 H   0  0  0  0  0  0  0  0  0  0  0  0
    4.4139   -1.9267    2.6510 H   0  0  0  0  0  0  0  0  0  0  0  0
    3.9234   -2.7811   -0.1449 H   0  0  0  0  0  0  0  0  0  0  0  0
    3.3323   -3.3915    1.0445 H   0  0  0  0  0  0  0  0  0  0  0  0
    5.6489    0.0259    2.6356 H   0  0  0  0  0  0  0  0  0  0  0  0
    5.7066    0.3989    1.1502 H   0  0  0  0  0  0  0  0  0  0  0  0
    1.6286   -2.0035    0.5585 H   0  0  0  0  0  0  0  0  0  0  0  0
    2.1301   -1.2721    2.0868 H   0  0  0  0  0  0  0  0  0  0  0  0
    3.3404    0.7591    2.7879 H   0  0  0  0  0  0  0  0  0  0  0  0
    4.4559    2.0799    2.0614 H   0  0  0  0  0  0  0  0  0  0  0  0
    1.8939    1.0736   -0.4915 H   0  0  0  0  0  0  0  0  0  0  0  0
    1.2010    0.8468    1.2285 H   0  0  0  0  0  0  0  0  0  0  0  0
    3.7234    1.9751   -0.5479 H   0  0  0  0  0  0  0  0  0  0  0  0
    2.9324   -2.1272   -1.5073 H   0  0  0  0  0  0  0  0  0  0  0  0
    5.7639    2.0170   -0.4371 H   0  0  0  0  0  0  0  0  0  0  0  0
    5.5989   -2.1282   -0.8426 H   0  0  0  0  0  0  0  0  0  0  0  0
    7.3869   -0.6532    0.6225 H   0  0  0  0  0  0  0  0  0  0  0  0
    7.8920   -0.6580   -1.0939 H   0  0  0  0  0  0  0  0  0  0  0  0
    7.6742    0.8821   -0.1571 H   0  0  0  0  0  0  0  0  0  0  0  0
  1  3  2  0  0  0  0
  1  4  2  0  0  0  0
  1  7  1  0  0  0  0
  1 15  1  0  0  0  0
  2 14  2  0  0  0  0
  5  6  1  0  0  0  0
  5 12  1  0  0  0  0
  5 13  1  0  0  0  0
  6 14  1  0  0  0  0
  6 22  1  0  0  0  0
  7 14  1  0  0  0  0
  7 23  1  0  0  0  0
  8  9  1  0  0  0  0
  8 10  1  0  0  0  0
  8 24  1  0  0  0  0
  8 25  1  0  0  0  0
  9 11  1  0  0  0  0
  9 26  1  0  0  0  0
  9 27  1  0  0  0  0
 10 12  1  0  0  0  0
 10 28  1  0  0  0  0
 10 29  1  0  0  0  0
 11 13  1  0  0  0  0
 11 30  1  0  0  0  0
 11 31  1  0  0  0  0
 12 32  1  0  0  0  0
 12 33  1  0  0  0  0
 13 34  1  0  0  0  0
 13 35  1  0  0  0  0
 15 16  2  0  0  0  0
 15 17  1  0  0  0  0
 16 19  1  0  0  0  0
 16 36  1  0  0  0  0
 17 20  2  0  0  0  0
 17 37  1  0  0  0  0
 18 19  2  0  0  0  0
 18 20  1  0  0  0  0
 18 21  1  0  0  0  0
 19 38  1  0  0  0  0
 20 39  1  0  0  0  0
 21 40  1  0  0  0  0
 21 41  1  0  0  0  0
 21 42  1  0  0  0  0
M  END
>  <DRUGBANK_ID>
DB00839

>  <SECONDARY_ACCESSION_NUMBERS>
APRD01267

>  <COMMON_NAME>
Tolazamide

>  <CAS_NUMBER>
1156-19-0

>  <UNII>
9LT1BRO48Q

>  <SYNONYMS>
1-(Hexahydro-1-azepinyl)-3-p-tolylsulfonylurea; 1-(Hexahydro-1H-azepin-1-yl)-3-(p-tolylsulfonyl)urea; 4-(p-Tolylsulfonyl)-1,1-hexamethylenesemicarbazide; N-(p-Toluenesulfonyl)-N'-hexamethyleniminourea; Tolazamid; Tolazamida; Tolazamide; Tolazamidum

$$$$
