
 OpenBabel10282417233D

 24 24  0  0  0  0  0  0  0  0999 V2000
    1.0136    0.2243    0.0050 C   0  0  0  0  0  0  0  0  0  0  0  0
    0.5737   -0.7851    1.0679 C   0  0  0  0  0  0  0  0  0  0  0  0
   -0.9446   -0.6573    1.2568 C   0  0  0  0  0  0  0  0  0  0  0  0
    0.9903   -2.2227    0.7673 C   0  0  0  0  0  0  0  0  0  0  0  0
    0.8258   -3.2094    1.6686 C   0  0  0  0  0  0  0  0  0  0  0  0
    1.1936   -4.6231    1.4110 C   0  0  0  0  0  0  0  0  0  0  0  0
    1.0596   -5.4658    2.2889 O   0  0  0  0  0  0  0  0  0  0  0  0
    1.7081   -4.9573    0.0639 C   0  0  0  0  0  0  0  0  0  0  0  0
    2.0253   -6.3638   -0.3091 C   0  0  0  0  0  0  0  0  0  0  0  0
    1.8985   -3.9828   -0.8261 C   0  0  0  0  0  0  0  0  0  0  0  0
    1.6167   -2.5781   -0.5442 C   0  0  0  0  0  0  0  0  0  0  0  0
    1.9241   -1.7790   -1.4229 O   0  0  0  0  0  0  0  0  0  0  0  0
    0.6886    1.2417    0.2301 H   0  0  0  0  0  0  0  0  0  0  0  0
    0.5744   -0.0268   -0.9678 H   0  0  0  0  0  0  0  0  0  0  0  0
    2.1068    0.2346   -0.0775 H   0  0  0  0  0  0  0  0  0  0  0  0
    1.0506   -0.4831    2.0119 H   0  0  0  0  0  0  0  0  0  0  0  0
   -1.3024   -1.2578    2.0998 H   0  0  0  0  0  0  0  0  0  0  0  0
   -1.2216    0.3836    1.4629 H   0  0  0  0  0  0  0  0  0  0  0  0
   -1.4831   -0.9760    0.3579 H   0  0  0  0  0  0  0  0  0  0  0  0
    0.3979   -3.0270    2.6506 H   0  0  0  0  0  0  0  0  0  0  0  0
    1.4230   -6.6611   -1.1756 H   0  0  0  0  0  0  0  0  0  0  0  0
    3.0823   -6.4461   -0.5868 H   0  0  0  0  0  0  0  0  0  0  0  0
    1.8289   -7.0718    0.4974 H   0  0  0  0  0  0  0  0  0  0  0  0
    2.2902   -4.1760   -1.8188 H   0  0  0  0  0  0  0  0  0  0  0  0
  1  2  1  0  0  0  0
  1 13  1  0  0  0  0
  1 14  1  0  0  0  0
  1 15  1  0  0  0  0
  2  3  1  0  0  0  0
  2  4  1  0  0  0  0
  2 16  1  0  0  0  0
  3 17  1  0  0  0  0
  3 18  1  0  0  0  0
  3 19  1  0  0  0  0
  4  5  2  0  0  0  0
  4 11  1  0  0  0  0
  5  6  1  0  0  0  0
  5 20  1  0  0  0  0
  6  7  2  0  0  0  0
  6  8  1  0  0  0  0
  8  9  1  0  0  0  0
  8 10  2  0  0  0  0
  9 21  1  0  0  0  0
  9 22  1  0  0  0  0
  9 23  1  0  0  0  0
 10 11  1  0  0  0  0
 10 24  1  0  0  0  0
 11 12  2  0  0  0  0
M  END
>  <DRUGBANK_ID>
DB16447

>  <COMMON_NAME>
Thymoquinone

>  <CAS_NUMBER>
490-91-5

>  <UNII>
O60IE26NUF

>  <SYNONYMS>
2-Isopropyl-5-methyl-p-benzoquinone; p-Cymene-2,5-dione; p-Mentha-3,6-diene-2,5-dione; Thymoquinon

$$$$
