770
 OpenBabel10282417163D

 40 44  0  0  0  0  0  0  0  0999 V2000
   -2.1095   -0.1359   -0.0627 Cl  0  0  0  0  0  0  0  0  0  0  0  0
   -0.3803   -0.0163   -0.0181 C   0  0  0  0  0  0  0  0  0  0  0  0
    0.3343   -1.2190   -0.0170 C   0  0  0  0  0  0  0  0  0  0  0  0
    1.7266   -1.2097    0.0064 C   0  0  0  0  0  0  0  0  0  0  0  0
    2.4080    0.0024    0.0248 C   0  0  0  0  0  0  0  0  0  0  0  0
    1.6956    1.2061    0.0257 C   0  0  0  0  0  0  0  0  0  0  0  0
    0.2850    1.2260    0.0056 C   0  0  0  0  0  0  0  0  0  0  0  0
   -0.4393    2.5029    0.0249 C   0  0  0  0  0  0  0  0  0  0  0  0
   -0.3218    3.3892   -1.0587 C   0  0  0  0  0  0  0  0  0  0  0  0
    0.4462    3.2550   -2.2818 C   0  0  0  0  0  0  0  0  0  0  0  0
    1.3925    2.5600   -2.6244 O   0  0  0  0  0  0  0  0  0  0  0  0
   -0.0578    4.2360   -3.0871 N   0  0  0  0  0  0  0  0  0  0  0  0
   -1.0051    4.6169   -1.1578 C   0  0  0  0  0  0  0  0  0  0  0  0
   -0.6522    5.2397   -2.3975 C   0  0  0  0  0  0  0  0  0  0  0  0
   -0.6983    6.3790   -2.8576 O   0  0  0  0  0  0  0  0  0  0  0  0
   -1.8694    4.9166   -0.0772 C   0  0  0  0  0  0  0  0  0  0  0  0
   -2.0518    4.0780    0.9779 C   0  0  0  0  0  0  0  0  0  0  0  0
   -1.3444    2.8677    1.0678 C   0  0  0  0  0  0  0  0  0  0  0  0
   -2.6383    6.0527   -0.0237 C   0  0  0  0  0  0  0  0  0  0  0  0
   -3.3787    5.9719    1.1550 C   0  0  0  0  0  0  0  0  0  0  0  0
   -3.0154    4.7469    1.7512 N   0  0  0  0  0  0  0  0  0  0  0  0
   -4.2677    7.0320    1.4889 C   0  0  0  0  0  0  0  0  0  0  0  0
   -4.3635    8.1536    0.6013 C   0  0  0  0  0  0  0  0  0  0  0  0
   -2.7925    7.1545   -0.8474 C   0  0  0  0  0  0  0  0  0  0  0  0
   -3.6188    8.2152   -0.5731 C   0  0  0  0  0  0  0  0  0  0  0  0
   -3.6630    9.2899   -1.4851 N   0  0  0  0  0  0  0  0  0  0  0  0
   -2.9339    9.3937   -2.6528 C   0  0  0  0  0  0  0  0  0  0  0  0
   -3.0094   10.3474   -3.4192 O   0  0  0  0  0  0  0  0  0  0  0  0
   -0.1952   -2.1679   -0.0365 H   0  0  0  0  0  0  0  0  0  0  0  0
    2.2773   -2.1466    0.0046 H   0  0  0  0  0  0  0  0  0  0  0  0
    3.4958    0.0149    0.0329 H   0  0  0  0  0  0  0  0  0  0  0  0
    2.2607    2.1380    0.0214 H   0  0  0  0  0  0  0  0  0  0  0  0
    0.3459    4.4295   -3.9887 H   0  0  0  0  0  0  0  0  0  0  0  0
   -1.4961    2.1864    1.9014 H   0  0  0  0  0  0  0  0  0  0  0  0
   -3.3988    4.3949    2.6194 H   0  0  0  0  0  0  0  0  0  0  0  0
   -4.8718    7.0239    2.3945 H   0  0  0  0  0  0  0  0  0  0  0  0
   -5.0344    8.9753    0.8501 H   0  0  0  0  0  0  0  0  0  0  0  0
   -2.2140    7.1463   -1.7351 H   0  0  0  0  0  0  0  0  0  0  0  0
   -4.2668   10.0777   -1.3013 H   0  0  0  0  0  0  0  0  0  0  0  0
   -2.2562    8.5622   -2.8885 H   0  0  0  0  0  0  0  0  0  0  0  0
  1  2  1  0  0  0  0
  2  7  1  0  0  0  0
  2  3  2  0  0  0  0
  3  4  1  0  0  0  0
  3 29  1  0  0  0  0
  4  5  2  0  0  0  0
  4 30  1  0  0  0  0
  5  6  1  0  0  0  0
  5 31  1  0  0  0  0
  6  7  2  0  0  0  0
  6 32  1  0  0  0  0
  7  8  1  0  0  0  0
  8 18  2  0  0  0  0
  8  9  1  0  0  0  0
  9 13  2  0  0  0  0
  9 10  1  0  0  0  0
 10 12  1  0  0  0  0
 10 11  2  0  0  0  0
 12 14  1  0  0  0  0
 12 33  1  0  0  0  0
 13 16  1  0  0  0  0
 13 14  1  0  0  0  0
 14 15  2  0  0  0  0
 16 19  1  0  0  0  0
 16 17  2  0  0  0  0
 17 21  1  0  0  0  0
 17 18  1  0  0  0  0
 18 34  1  0  0  0  0
 19 20  2  0  0  0  0
 19 24  1  0  0  0  0
 20 22  1  0  0  0  0
 20 21  1  0  0  0  0
 21 35  1  0  0  0  0
 22 23  2  0  0  0  0
 22 36  1  0  0  0  0
 23 25  1  0  0  0  0
 23 37  1  0  0  0  0
 24 25  2  0  0  0  0
 24 38  1  0  0  0  0
 25 26  1  0  0  0  0
 26 27  1  0  0  0  0
 26 39  1  0  0  0  0
 27 28  2  0  0  0  0
 27 40  1  0  0  0  0
M  END
>  <DRUGBANK_ID>
DB07226

>  <COMMON_NAME>
N-[4-(2-CHLOROPHENYL)-1,3-DIOXO-1,2,3,6-TETRAHYDROPYRROLO[3,4-C]CARBAZOL-9-YL]FORMAMIDE

$$$$
