RO4
 OpenBabel10282417173D

 63 62  0  0  0  0  0  0  0  0999 V2000
    2.9519    2.0766    0.5472 O   0  0  0  0  0  0  0  0  0  0  0  0
    5.3450   -2.5801   -1.0134 O   0  0  0  0  0  0  0  0  0  0  0  0
    2.7013   -0.8544   -6.2404 O   0  0  0  0  0  0  0  0  0  0  0  0
    4.4194    1.0155   -1.7534 O   0  0  0  0  0  0  0  0  0  0  0  0
    2.9791   -1.0461   -2.4159 O   0  0  0  0  0  0  0  0  0  0  0  0
    4.2170   -0.1040    3.0020 O   0  0  0  0  0  0  0  0  0  0  0  0
    3.6097    0.9628    2.3395 N   0  0  0  0  0  0  0  0  0  0  0  0
    4.1635   -0.0492   -4.8768 N   0  0  0  0  0  0  0  0  0  0  0  0
    3.9145   -2.6811   -3.0691 N   0  0  0  0  0  0  0  0  0  0  0  0
    3.6231    1.1611    1.0182 C   0  0  0  0  0  0  0  0  0  0  0  0
    4.4220   -1.9130   -1.6002 C   0  0  0  0  0  0  0  0  0  0  0  0
    3.2195   -1.0127   -5.1243 C   0  0  0  0  0  0  0  0  0  0  0  0
    4.1275    0.1465   -2.5997 C   0  0  0  0  0  0  0  0  0  0  0  0
    3.3762   -0.4187   -0.7239 C   0  0  1  0  0  0  0  0  0  0  0  0
    2.6602   -2.2300   -4.1919 C   0  0  2  0  0  0  0  0  0  0  0  0
    4.8659    0.4885   -3.7652 C   0  0  2  0  0  0  0  0  0  0  0  0
    1.0330    0.3096   -2.5351 C   0  0  0  0  0  0  0  0  0  0  0  0
   -0.0923   -1.2053   -4.2915 C   0  0  0  0  0  0  0  0  0  0  0  0
    4.3913    0.1624    0.2394 C   0  0  0  0  0  0  0  0  0  0  0  0
    2.4303   -2.3400   -1.1010 C   0  0  0  0  0  0  0  0  0  0  0  0
    2.1442    0.8198   -1.6407 C   0  0  0  0  0  0  0  0  0  0  0  0
    1.0595   -2.2080   -3.6251 C   0  0  0  0  0  0  0  0  0  0  0  0
    2.8096   -2.2975    0.6060 C   0  0  0  0  0  0  0  0  0  0  0  0
   -0.0017   -0.5842   -1.5309 C   0  0  0  0  0  0  0  0  0  0  0  0
    0.6881    1.3746   -3.7548 C   0  0  0  0  0  0  0  0  0  0  0  0
   -0.7709   -2.0438   -5.2747 C   0  0  0  0  0  0  0  0  0  0  0  0
   -1.4066   -0.2488   -3.5216 C   0  0  0  0  0  0  0  0  0  0  0  0
    4.8600    2.1558   -3.6039 C   0  0  0  0  0  0  0  0  0  0  0  0
    2.3929   -0.5733   -0.2452 H   0  0  0  0  0  0  0  0  0  0  0  0
    2.5260   -3.0585   -4.9011 H   0  0  0  0  0  0  0  0  0  0  0  0
    5.8907    0.1226   -3.5815 H   0  0  0  0  0  0  0  0  0  0  0  0
    4.5438   -0.7238    2.3310 H   0  0  0  0  0  0  0  0  0  0  0  0
    3.0058    1.5800    2.8616 H   0  0  0  0  0  0  0  0  0  0  0  0
    4.4064    0.4721   -5.6995 H   0  0  0  0  0  0  0  0  0  0  0  0
    4.3943   -3.5012   -3.4242 H   0  0  0  0  0  0  0  0  0  0  0  0
    1.5802   -0.2240   -3.2967 H   0  0  0  0  0  0  0  0  0  0  0  0
    0.5058   -0.5604   -4.9374 H   0  0  0  0  0  0  0  0  0  0  0  0
    5.3163    0.5642   -0.1851 H   0  0  0  0  0  0  0  0  0  0  0  0
    4.8447   -0.6962    0.7104 H   0  0  0  0  0  0  0  0  0  0  0  0
    1.3805   -2.3300   -1.0784 H   0  0  0  0  0  0  0  0  0  0  0  0
    2.6218   -3.3594   -1.4828 H   0  0  0  0  0  0  0  0  0  0  0  0
    1.6392    1.5227   -1.0092 H   0  0  0  0  0  0  0  0  0  0  0  0
    2.5883    1.4205   -2.4421 H   0  0  0  0  0  0  0  0  0  0  0  0
    0.6776   -3.1385   -3.1769 H   0  0  0  0  0  0  0  0  0  0  0  0
    1.2341   -1.7957   -2.6947 H   0  0  0  0  0  0  0  0  0  0  0  0
    2.7335   -1.3328    1.1424 H   0  0  0  0  0  0  0  0  0  0  0  0
    2.0445   -2.7938    1.1920 H   0  0  0  0  0  0  0  0  0  0  0  0
    3.8395   -2.5937    0.8252 H   0  0  0  0  0  0  0  0  0  0  0  0
   -0.5878    0.0986   -0.9436 H   0  0  0  0  0  0  0  0  0  0  0  0
   -0.5750   -1.4059   -2.0134 H   0  0  0  0  0  0  0  0  0  0  0  0
    0.2890   -1.2376   -0.7148 H   0  0  0  0  0  0  0  0  0  0  0  0
    1.5740    1.4792   -4.4195 H   0  0  0  0  0  0  0  0  0  0  0  0
   -0.0416    1.1319   -4.5546 H   0  0  0  0  0  0  0  0  0  0  0  0
    0.3507    2.2985   -3.3333 H   0  0  0  0  0  0  0  0  0  0  0  0
   -1.2498   -2.8219   -4.6891 H   0  0  0  0  0  0  0  0  0  0  0  0
   -1.4487   -1.3803   -5.8053 H   0  0  0  0  0  0  0  0  0  0  0  0
    0.0242   -2.4072   -5.9273 H   0  0  0  0  0  0  0  0  0  0  0  0
   -1.1310    0.5914   -2.8351 H   0  0  0  0  0  0  0  0  0  0  0  0
   -1.9958    0.3532   -4.2161 H   0  0  0  0  0  0  0  0  0  0  0  0
   -2.0893   -0.8289   -2.8881 H   0  0  0  0  0  0  0  0  0  0  0  0
    5.2573    2.5411   -2.6215 H   0  0  0  0  0  0  0  0  0  0  0  0
    5.4684    2.6872   -4.3152 H   0  0  0  0  0  0  0  0  0  0  0  0
    3.8261    2.5446   -3.5897 H   0  0  0  0  0  0  0  0  0  0  0  0
  1 10  2  0  0  0  0
  2 11  2  0  0  0  0
  3 12  2  0  0  0  0
  4 13  2  0  0  0  0
  5 13  1  0  0  0  0
  5 20  1  0  0  0  0
  6  7  1  0  0  0  0
  6 32  1  0  0  0  0
  7 10  1  0  0  0  0
  7 33  1  0  0  0  0
  8 12  1  0  0  0  0
  8 34  1  0  0  0  0
  9 11  1  0  0  0  0
  9 35  1  0  0  0  0
 10 19  1  0  0  0  0
 14 21  1  0  0  0  0
 14 29  1  1  0  0  0
 14 19  1  0  0  0  0
 14 11  1  0  0  0  0
 15 22  1  0  0  0  0
 15 30  1  6  0  0  0
 15 12  1  0  0  0  0
 15  9  1  0  0  0  0
 16 28  1  0  0  0  0
 16 31  1  1  0  0  0
 16 13  1  0  0  0  0
 16  8  1  0  0  0  0
 17 21  1  0  0  0  0
 17 24  1  0  0  0  0
 17 25  1  0  0  0  0
 17 36  1  0  0  0  0
 18 22  1  0  0  0  0
 18 26  1  0  0  0  0
 18 27  1  0  0  0  0
 18 37  1  0  0  0  0
 19 38  1  0  0  0  0
 19 39  1  0  0  0  0
 20 23  1  0  0  0  0
 20 40  1  0  0  0  0
 20 41  1  0  0  0  0
 21 42  1  0  0  0  0
 21 43  1  0  0  0  0
 22 44  1  0  0  0  0
 22 45  1  0  0  0  0
 23 46  1  0  0  0  0
 23 47  1  0  0  0  0
 23 48  1  0  0  0  0
 24 49  1  0  0  0  0
 24 50  1  0  0  0  0
 24 51  1  0  0  0  0
 25 52  1  0  0  0  0
 25 53  1  0  0  0  0
 25 54  1  0  0  0  0
 26 55  1  0  0  0  0
 26 56  1  0  0  0  0
 26 57  1  0  0  0  0
 27 58  1  0  0  0  0
 27 59  1  0  0  0  0
 27 60  1  0  0  0  0
 28 61  1  0  0  0  0
 28 62  1  0  0  0  0
 28 63  1  0  0  0  0
M  END
>  <DRUGBANK_ID>
DB08482

>  <COMMON_NAME>
[[1-[N-HYDROXY-ACETAMIDYL]-3-METHYL-BUTYL]-CARBONYL-LEUCINYL]-ALANINE ETHYL ESTER

$$$$
