
 OpenBabel10282417173D

 41 43  0  0  0  0  0  0  0  0999 V2000
    1.0783    0.0842    0.0350 C   0  0  0  0  0  0  0  0  0  0  0  0
    0.5341   -0.6648    1.2688 C   0  0  1  0  0  0  0  0  0  0  0  0
   -0.8606   -1.2057    0.8899 C   0  0  0  0  0  0  0  0  0  0  0  0
   -1.3959   -2.2117    1.7718 N   0  0  0  0  0  0  0  0  0  0  0  0
   -2.4175   -2.1023    2.7236 C   0  0  0  0  0  0  0  0  0  0  0  0
   -3.1692   -0.7316    3.2794 S   0  0  0  0  0  0  0  0  0  0  0  0
   -2.6318   -3.4002    3.2305 N   0  0  0  0  0  0  0  0  0  0  0  0
   -1.6690   -4.2678    2.6765 C   0  0  0  0  0  0  0  0  0  0  0  0
   -0.8528   -3.5114    1.8377 C   0  0  0  0  0  0  0  0  0  0  0  0
    0.4154   -3.9411    1.4419 C   0  0  0  0  0  0  0  0  0  0  0  0
    0.7571   -5.2663    1.7665 C   0  0  0  0  0  0  0  0  0  0  0  0
    2.2755   -5.9666    1.3061 Cl  0  0  0  0  0  0  0  0  0  0  0  0
   -0.0856   -6.0471    2.5851 C   0  0  0  0  0  0  0  0  0  0  0  0
   -1.3228   -5.5567    3.0370 C   0  0  0  0  0  0  0  0  0  0  0  0
    1.4359   -2.9494    0.9399 C   0  0  0  0  0  0  0  0  0  0  0  0
    1.5177   -1.6767    1.6818 N   0  0  0  0  0  0  0  0  0  0  0  0
    1.7941   -1.7391    3.1299 C   0  0  0  0  0  0  0  0  0  0  0  0
    0.7048   -2.2506    4.0620 C   0  0  0  0  0  0  0  0  0  0  0  0
    0.7113   -3.3807    4.7840 C   0  0  0  0  0  0  0  0  0  0  0  0
   -0.4847   -3.9021    5.5634 C   0  0  0  0  0  0  0  0  0  0  0  0
    1.9031   -4.2941    4.7712 C   0  0  0  0  0  0  0  0  0  0  0  0
   -3.1555   -3.5520    4.0815 H   0  0  0  0  0  0  0  0  0  0  0  0
    0.6631    1.0973   -0.0017 H   0  0  0  0  0  0  0  0  0  0  0  0
    0.8005   -0.4164   -0.9009 H   0  0  0  0  0  0  0  0  0  0  0  0
    2.1695    0.1745    0.0453 H   0  0  0  0  0  0  0  0  0  0  0  0
    0.4293    0.0791    2.0690 H   0  0  0  0  0  0  0  0  0  0  0  0
   -1.5643   -0.3728    0.8095 H   0  0  0  0  0  0  0  0  0  0  0  0
   -0.8370   -1.6817   -0.0984 H   0  0  0  0  0  0  0  0  0  0  0  0
    0.2915   -6.9920    2.9783 H   0  0  0  0  0  0  0  0  0  0  0  0
   -1.8879   -6.1293    3.7645 H   0  0  0  0  0  0  0  0  0  0  0  0
    1.2170   -2.7679   -0.1198 H   0  0  0  0  0  0  0  0  0  0  0  0
    2.4467   -3.3683    0.9350 H   0  0  0  0  0  0  0  0  0  0  0  0
    2.7233   -2.2981    3.2821 H   0  0  0  0  0  0  0  0  0  0  0  0
    2.0382   -0.7268    3.4785 H   0  0  0  0  0  0  0  0  0  0  0  0
   -0.1773   -1.6094    4.0943 H   0  0  0  0  0  0  0  0  0  0  0  0
   -0.7279   -4.9242    5.2613 H   0  0  0  0  0  0  0  0  0  0  0  0
   -0.3111   -3.9716    6.6340 H   0  0  0  0  0  0  0  0  0  0  0  0
   -1.3810   -3.2963    5.4061 H   0  0  0  0  0  0  0  0  0  0  0  0
    2.3047   -4.4149    3.7633 H   0  0  0  0  0  0  0  0  0  0  0  0
    2.6861   -3.8592    5.3917 H   0  0  0  0  0  0  0  0  0  0  0  0
    1.6572   -5.2941    5.1351 H   0  0  0  0  0  0  0  0  0  0  0  0
  1 23  1  0  0  0  0
  1 24  1  0  0  0  0
  1 25  1  0  0  0  0
  2  1  1  0  0  0  0
  2  3  1  0  0  0  0
  2 16  1  0  0  0  0
  2 26  1  1  0  0  0
  3  4  1  0  0  0  0
  3 27  1  0  0  0  0
  3 28  1  0  0  0  0
  4  5  1  0  0  0  0
  4  9  1  0  0  0  0
  5  6  2  0  0  0  0
  5  7  1  0  0  0  0
  7  8  1  0  0  0  0
  7 22  1  0  0  0  0
  8  9  2  0  0  0  0
  8 14  1  0  0  0  0
  9 10  1  0  0  0  0
 10 11  2  0  0  0  0
 10 15  1  0  0  0  0
 11 12  1  0  0  0  0
 11 13  1  0  0  0  0
 13 14  2  0  0  0  0
 13 29  1  0  0  0  0
 14 30  1  0  0  0  0
 15 16  1  0  0  0  0
 15 31  1  0  0  0  0
 15 32  1  0  0  0  0
 16 17  1  0  0  0  0
 17 18  1  0  0  0  0
 17 33  1  0  0  0  0
 17 34  1  0  0  0  0
 18 19  2  0  0  0  0
 18 35  1  0  0  0  0
 19 20  1  0  0  0  0
 19 21  1  0  0  0  0
 20 36  1  0  0  0  0
 20 37  1  0  0  0  0
 20 38  1  0  0  0  0
 21 39  1  0  0  0  0
 21 40  1  0  0  0  0
 21 41  1  0  0  0  0
M  END
>  <DRUGBANK_ID>
DB08600

>  <COMMON_NAME>
Tivirapine

>  <CAS_NUMBER>
137332-54-8

>  <UNII>
7WP69N3Y3Y

>  <SYNONYMS>
Tivirapine

$$$$
