
 OpenBabel10282417223D

 44 47  0  0  1  0  0  0  0  0999 V2000
    0.0648    0.4553   -3.6990 O   0  0  0  0  0  0  0  0  0  0  0  0
    0.2375   -0.7614   -4.4458 C   0  0  2  0  0  0  0  0  0  0  0  0
   -1.0545   -1.5714   -4.4651 C   0  0  0  0  0  0  0  0  0  0  0  0
   -1.7700   -1.5638   -5.8149 C   0  0  2  0  0  0  0  0  0  0  0  0
   -3.2115   -1.6514   -5.5879 N   0  0  0  0  0  0  0  0  0  0  0  0
   -4.1439   -0.9319   -4.9391 C   0  0  0  0  0  0  0  0  0  0  0  0
   -5.3040   -1.5626   -4.9801 N   0  0  0  0  0  0  0  0  0  0  0  0
   -5.0767   -2.7452   -5.6713 C   0  0  0  0  0  0  0  0  0  0  0  0
   -3.7714   -2.8163   -6.0405 C   0  0  0  0  0  0  0  0  0  0  0  0
   -2.7634   -3.6033   -6.6809 C   0  0  0  0  0  0  0  0  0  0  0  0
   -2.8406   -4.8431   -7.2807 C   0  0  0  0  0  0  0  0  0  0  0  0
   -1.6655   -5.3845   -7.8126 C   0  0  0  0  0  0  0  0  0  0  0  0
   -0.4510   -4.6828   -7.7225 C   0  0  0  0  0  0  0  0  0  0  0  0
   -0.4022   -3.4284   -7.1095 C   0  0  0  0  0  0  0  0  0  0  0  0
    0.7627   -2.7815   -7.0226 F   0  0  0  0  0  0  0  0  0  0  0  0
   -1.5558   -2.8780   -6.5865 C   0  0  0  0  0  0  0  0  0  0  0  0
    1.4144   -1.4935   -3.7585 C   0  0  1  0  0  0  0  0  0  0  0  0
    1.1586   -2.9461   -3.2963 C   0  0  0  0  0  0  0  0  0  0  0  0
    2.3911   -3.5516   -2.6513 C   0  0  0  0  0  0  0  0  0  0  0  0
    3.5516   -3.5135   -3.6384 C   0  0  2  0  0  0  0  0  0  0  0  0
    4.7144   -4.0459   -3.0242 O   0  0  0  0  0  0  0  0  0  0  0  0
    3.8341   -2.0879   -4.1060 C   0  0  0  0  0  0  0  0  0  0  0  0
    2.6077   -1.4452   -4.7187 C   0  0  0  0  0  0  0  0  0  0  0  0
   -0.7921    0.8650   -3.8941 H   0  0  0  0  0  0  0  0  0  0  0  0
    0.5113   -0.4422   -5.4594 H   0  0  0  0  0  0  0  0  0  0  0  0
   -0.8665   -2.6245   -4.2783 H   0  0  0  0  0  0  0  0  0  0  0  0
   -1.6908   -1.2451   -3.6360 H   0  0  0  0  0  0  0  0  0  0  0  0
   -1.5885   -0.6891   -6.4477 H   0  0  0  0  0  0  0  0  0  0  0  0
   -3.9557    0.0129   -4.4446 H   0  0  0  0  0  0  0  0  0  0  0  0
   -5.8729   -3.4601   -5.8399 H   0  0  0  0  0  0  0  0  0  0  0  0
   -3.7783   -5.3853   -7.3384 H   0  0  0  0  0  0  0  0  0  0  0  0
   -1.6918   -6.3572   -8.2998 H   0  0  0  0  0  0  0  0  0  0  0  0
    0.4585   -5.1189   -8.1298 H   0  0  0  0  0  0  0  0  0  0  0  0
    1.6936   -0.9329   -2.8545 H   0  0  0  0  0  0  0  0  0  0  0  0
    0.8910   -3.5848   -4.1492 H   0  0  0  0  0  0  0  0  0  0  0  0
    0.3337   -2.9808   -2.5730 H   0  0  0  0  0  0  0  0  0  0  0  0
    2.1856   -4.5839   -2.3427 H   0  0  0  0  0  0  0  0  0  0  0  0
    2.6402   -3.0058   -1.7329 H   0  0  0  0  0  0  0  0  0  0  0  0
    3.3088   -4.1455   -4.5020 H   0  0  0  0  0  0  0  0  0  0  0  0
    5.0009   -3.4092   -2.3474 H   0  0  0  0  0  0  0  0  0  0  0  0
    4.1683   -1.4777   -3.2579 H   0  0  0  0  0  0  0  0  0  0  0  0
    4.6537   -2.0845   -4.8312 H   0  0  0  0  0  0  0  0  0  0  0  0
    2.3575   -1.9633   -5.6500 H   0  0  0  0  0  0  0  0  0  0  0  0
    2.8302   -0.4050   -4.9852 H   0  0  0  0  0  0  0  0  0  0  0  0
  1 24  1  0  0  0  0
  2 25  1  6  0  0  0
  2  3  1  0  0  0  0
  2  1  1  0  0  0  0
  3 26  1  0  0  0  0
  3 27  1  0  0  0  0
  4  5  1  0  0  0  0
  4 16  1  0  0  0  0
  4 28  1  6  0  0  0
  4  3  1  0  0  0  0
  5  6  1  0  0  0  0
  5  9  1  0  0  0  0
  6  7  2  0  0  0  0
  6 29  1  0  0  0  0
  7  8  1  0  0  0  0
  8  9  2  0  0  0  0
  8 30  1  0  0  0  0
  9 10  1  0  0  0  0
 10 11  2  0  0  0  0
 10 16  1  0  0  0  0
 11 12  1  0  0  0  0
 11 31  1  0  0  0  0
 12 13  2  0  0  0  0
 12 32  1  0  0  0  0
 13 14  1  0  0  0  0
 13 33  1  0  0  0  0
 14 15  1  0  0  0  0
 14 16  2  0  0  0  0
 17 18  1  0  0  0  0
 17 23  1  0  0  0  0
 17 34  1  1  0  0  0
 17  2  1  0  0  0  0
 18 19  1  0  0  0  0
 18 35  1  0  0  0  0
 18 36  1  0  0  0  0
 19 37  1  0  0  0  0
 19 38  1  0  0  0  0
 20 19  1  0  0  0  0
 20 21  1  0  0  0  0
 20 22  1  0  0  0  0
 20 39  1  6  0  0  0
 21 40  1  0  0  0  0
 22 23  1  0  0  0  0
 22 41  1  0  0  0  0
 22 42  1  0  0  0  0
 23 43  1  0  0  0  0
 23 44  1  0  0  0  0
M  END
>  <DRUGBANK_ID>
DB15439

>  <COMMON_NAME>
Navoximod

>  <CAS_NUMBER>
1402837-78-8

>  <UNII>
926SHL95NC

>  <SYNONYMS>
Navoximod

$$$$
