
 OpenBabel10282417123D

 30 31  0  0  1  0  0  0  0  0999 V2000
    1.0898    1.4513   -1.6430 O   0  0  0  0  0  0  0  0  0  0  0  0
    2.3523    0.1742    0.3448 O   0  0  0  0  0  0  0  0  0  0  0  0
   -3.1453   -3.2795   -0.0920 O   0  0  0  0  0  0  0  0  0  0  0  0
   -1.2572   -7.2461   -1.3367 N   0  0  0  0  0  0  0  0  0  0  0  0
    0.0271   -5.6322   -0.3077 N   0  0  0  0  0  0  0  0  0  0  0  0
    1.4227   -4.1092    0.8877 N   0  0  0  0  0  0  0  0  0  0  0  0
   -0.5884   -2.1328    0.1496 N   0  0  0  0  0  0  0  0  0  0  0  0
   -2.2653   -5.2787   -0.7779 N   0  0  0  0  0  0  0  0  0  0  0  0
    0.5418    0.1664   -1.3028 C   0  0  2  0  0  0  0  0  0  0  0  0
    0.9984   -0.2562    0.1476 C   0  0  1  0  0  0  0  0  0  0  0  0
    1.0159   -0.7909   -2.4033 C   0  0  0  0  0  0  0  0  0  0  0  0
    0.8468   -1.7948    0.2945 C   0  0  1  0  0  0  0  0  0  0  0  0
    1.4598   -2.6760    1.3890 C   0  0  0  0  0  0  0  0  0  0  0  0
   -1.1920   -6.0082   -0.7973 C   0  0  0  0  0  0  0  0  0  0  0  0
    0.3221   -4.4193    0.2683 C   0  0  0  0  0  0  0  0  0  0  0  0
   -2.1620   -4.0010   -0.2535 C   0  0  0  0  0  0  0  0  0  0  0  0
   -0.7978   -3.4146    0.1006 C   0  0  0  0  0  0  0  0  0  0  0  0
    1.4069   -2.1740   -0.5612 H   0  0  0  0  0  0  0  0  0  0  0  0
    1.0464    2.0278   -0.8617 H   0  0  0  0  0  0  0  0  0  0  0  0
    2.5618    0.7981   -0.3814 H   0  0  0  0  0  0  0  0  0  0  0  0
   -2.1549   -7.5486   -1.7070 H   0  0  0  0  0  0  0  0  0  0  0  0
   -0.4973   -7.9060   -1.4049 H   0  0  0  0  0  0  0  0  0  0  0  0
    0.7840   -6.3004   -0.3325 H   0  0  0  0  0  0  0  0  0  0  0  0
   -0.5529    0.2303   -1.3426 H   0  0  0  0  0  0  0  0  0  0  0  0
    0.3846    0.2979    0.8718 H   0  0  0  0  0  0  0  0  0  0  0  0
    0.6117   -1.8012   -2.2840 H   0  0  0  0  0  0  0  0  0  0  0  0
    0.6983   -0.4601   -3.3940 H   0  0  0  0  0  0  0  0  0  0  0  0
    2.1109   -0.8456   -2.4094 H   0  0  0  0  0  0  0  0  0  0  0  0
    2.5082   -2.4164    1.5735 H   0  0  0  0  0  0  0  0  0  0  0  0
    0.9130   -2.6341    2.3360 H   0  0  0  0  0  0  0  0  0  0  0  0
  1 19  1  0  0  0  0
  2 20  1  0  0  0  0
  3 16  2  0  0  0  0
  4 14  1  0  0  0  0
  4 21  1  0  0  0  0
  4 22  1  0  0  0  0
  5 14  1  0  0  0  0
  5 15  1  0  0  0  0
  5 23  1  0  0  0  0
  6 13  1  0  0  0  0
  6 15  2  0  0  0  0
  7 12  1  0  0  0  0
  7 17  2  0  0  0  0
  8 14  2  0  0  0  0
  8 16  1  0  0  0  0
  9 11  1  0  0  0  0
  9 24  1  6  0  0  0
  9 10  1  0  0  0  0
  9  1  1  0  0  0  0
 10 25  1  1  0  0  0
 10 12  1  0  0  0  0
 10  2  1  0  0  0  0
 11 26  1  0  0  0  0
 11 27  1  0  0  0  0
 11 28  1  0  0  0  0
 12 13  1  0  0  0  0
 12 18  1  6  0  0  0
 13 29  1  0  0  0  0
 13 30  1  0  0  0  0
 15 17  1  0  0  0  0
 16 17  1  0  0  0  0
M  END
>  <DRUGBANK_ID>
DB02562

>  <SECONDARY_ACCESSION_NUMBERS>
EXPT01676

>  <COMMON_NAME>
Quinonoid 7,8-Tetrahydrobiopterin

>  <CAS_NUMBER>
79647-29-3

$$$$
