
 OpenBabel10282417193D

 71 75  0  0  0  0  0  0  0  0999 V2000
    0.8124   -0.5502    0.4369 C   0  0  0  0  0  0  0  0  0  0  0  0
   -0.9500   -0.2525    0.1188 C   0  0  0  0  0  0  0  0  0  0  0  0
   -1.0856    1.0733    0.5189 N   0  0  0  0  0  0  0  0  0  0  0  0
    0.2460    1.6282    0.1793 C   0  0  0  0  0  0  0  0  0  0  0  0
    1.4140    0.6689   -0.0441 C   0  0  0  0  0  0  0  0  0  0  0  0
   -1.5254    0.7744    1.8828 C   0  0  0  0  0  0  0  0  0  0  0  0
   -0.5777   -0.2358    2.6216 C   0  0  0  0  0  0  0  0  0  0  0  0
   -0.4395   -1.6535    2.2984 N   0  0  0  0  0  0  0  0  0  0  0  0
   -0.5289   -2.6270    1.0203 C   0  0  0  0  0  0  0  0  0  0  0  0
   -2.4930   -3.2479   -5.9303 C   0  0  1  0  0  0  0  0  0  0  0  0
   -2.6787   -4.6725   -6.2841 C   0  0  2  0  0  0  0  0  0  0  0  0
   -3.8112   -3.8629   -7.5908 C   0  0  1  0  0  0  0  0  0  0  0  0
   -3.0229   -3.0143   -8.6767 C   0  0  0  0  0  0  0  0  0  0  0  0
   -1.7431   -2.6994   -8.4550 C   0  0  0  0  0  0  0  0  0  0  0  0
   -1.3195   -2.9770   -7.0616 C   0  0  0  0  0  0  0  0  0  0  0  0
   -1.7990   -3.1423   -3.6907 C   0  0  0  0  0  0  0  0  0  0  0  0
   -1.8550   -4.6272   -3.5056 C   0  0  2  0  0  0  0  0  0  0  0  0
   -2.7737   -5.3096   -4.6404 C   0  0  0  0  0  0  0  0  0  0  0  0
   -2.0003   -2.4813   -4.8519 C   0  0  0  0  0  0  0  0  0  0  0  0
   -1.3850   -2.9914   -1.3213 C   0  0  0  0  0  0  0  0  0  0  0  0
   -1.7571   -4.2318   -0.9431 C   0  0  0  0  0  0  0  0  0  0  0  0
   -2.3522   -5.0416   -2.0388 C   0  0  0  0  0  0  0  0  0  0  0  0
   -1.6908   -2.3076   -2.5696 C   0  0  0  0  0  0  0  0  0  0  0  0
   -1.0014   -3.8532    1.4060 C   0  0  0  0  0  0  0  0  0  0  0  0
   -1.5385   -4.6602    0.3978 C   0  0  0  0  0  0  0  0  0  0  0  0
   -0.4845   -2.4254   -0.5151 C   0  0  0  0  0  0  0  0  0  0  0  0
    0.1518    0.2408    3.5061 O   0  0  0  0  0  0  0  0  0  0  0  0
   -0.8276   -2.2293   -9.5395 C   0  0  0  0  0  0  0  0  0  0  0  0
   -1.4013   -1.8153  -10.7107 N   0  0  0  0  0  0  0  0  0  0  0  0
    0.3849   -2.2663   -9.4462 O   0  0  0  0  0  0  0  0  0  0  0  0
   -5.0985   -4.4953   -7.9486 N   0  0  0  0  0  0  0  0  0  0  0  0
   -1.8957   -5.9007    0.7386 F   0  0  0  0  0  0  0  0  0  0  0  0
    0.3063   -1.6124   -1.4235 O   0  0  0  0  0  0  0  0  0  0  0  0
   -1.7335   -1.0428   -2.6381 O   0  0  0  0  0  0  0  0  0  0  0  0
   -2.1580   -1.1152   -5.0055 O   0  0  0  0  0  0  0  0  0  0  0  0
   -0.1322   -3.1673   -6.7962 O   0  0  0  0  0  0  0  0  0  0  0  0
   -3.8491   -3.1161   -5.4178 O   0  0  0  0  0  0  0  0  0  0  0  0
   -3.6681   -2.3275   -9.7299 O   0  0  0  0  0  0  0  0  0  0  0  0
   -6.0991   -4.5577   -6.8593 C   0  0  0  0  0  0  0  0  0  0  0  0
   -5.8555   -3.8674   -9.0570 C   0  0  0  0  0  0  0  0  0  0  0  0
   -1.7611   -5.1360   -6.7014 H   0  0  0  0  0  0  0  0  0  0  0  0
   -0.8014   -4.9546   -3.5626 H   0  0  0  0  0  0  0  0  0  0  0  0
    1.1802   -0.7086    1.4521 H   0  0  0  0  0  0  0  0  0  0  0  0
    1.3958   -1.4168    0.0456 H   0  0  0  0  0  0  0  0  0  0  0  0
   -1.4353   -0.2517   -0.8449 H   0  0  0  0  0  0  0  0  0  0  0  0
   -1.7367   -0.9141    0.5858 H   0  0  0  0  0  0  0  0  0  0  0  0
    0.5208    2.3241    0.9520 H   0  0  0  0  0  0  0  0  0  0  0  0
    0.1466    2.1169   -0.7951 H   0  0  0  0  0  0  0  0  0  0  0  0
    2.3031    0.8231    0.5696 H   0  0  0  0  0  0  0  0  0  0  0  0
    1.7231    0.4925   -1.0828 H   0  0  0  0  0  0  0  0  0  0  0  0
   -1.6651    1.7316    2.3750 H   0  0  0  0  0  0  0  0  0  0  0  0
   -2.5324    0.3070    1.8849 H   0  0  0  0  0  0  0  0  0  0  0  0
    0.2498   -2.0209    2.9548 H   0  0  0  0  0  0  0  0  0  0  0  0
   -4.1977   -2.8868   -7.2199 H   0  0  0  0  0  0  0  0  0  0  0  0
   -3.7911   -5.2274   -4.2416 H   0  0  0  0  0  0  0  0  0  0  0  0
   -2.5316   -6.3811   -4.5826 H   0  0  0  0  0  0  0  0  0  0  0  0
   -2.0515   -6.0675   -1.8230 H   0  0  0  0  0  0  0  0  0  0  0  0
   -3.4309   -4.9049   -1.9327 H   0  0  0  0  0  0  0  0  0  0  0  0
   -0.9963   -4.1594    2.4490 H   0  0  0  0  0  0  0  0  0  0  0  0
   -0.8065   -1.6011  -11.4974 H   0  0  0  0  0  0  0  0  0  0  0  0
   -2.4075   -1.8326  -10.8442 H   0  0  0  0  0  0  0  0  0  0  0  0
   -0.1912   -0.8414   -1.8411 H   0  0  0  0  0  0  0  0  0  0  0  0
   -2.5346   -0.9139   -5.8838 H   0  0  0  0  0  0  0  0  0  0  0  0
   -4.3274   -3.9697   -5.5135 H   0  0  0  0  0  0  0  0  0  0  0  0
   -4.5672   -2.0212   -9.5126 H   0  0  0  0  0  0  0  0  0  0  0  0
   -6.5993   -3.5964   -6.6396 H   0  0  0  0  0  0  0  0  0  0  0  0
   -6.8638   -5.2632   -7.1878 H   0  0  0  0  0  0  0  0  0  0  0  0
   -5.7472   -4.9768   -5.9169 H   0  0  0  0  0  0  0  0  0  0  0  0
   -6.3331   -2.8996   -8.8042 H   0  0  0  0  0  0  0  0  0  0  0  0
   -5.2841   -3.7541   -9.9775 H   0  0  0  0  0  0  0  0  0  0  0  0
   -6.6545   -4.5463   -9.3531 H   0  0  0  0  0  0  0  0  0  0  0  0
  1  2  1  0  0  0  0
  1 43  1  0  0  0  0
  1 44  1  0  0  0  0
  2  3  1  0  0  0  0
  2 45  1  0  0  0  0
  2 46  1  0  0  0  0
  3  6  1  0  0  0  0
  3  4  1  0  0  0  0
  4  5  1  0  0  0  0
  4 47  1  0  0  0  0
  4 48  1  0  0  0  0
  5  1  1  0  0  0  0
  5 49  1  0  0  0  0
  5 50  1  0  0  0  0
  6  7  1  0  0  0  0
  6 51  1  0  0  0  0
  6 52  1  0  0  0  0
  7 27  2  0  0  0  0
  7  8  1  0  0  0  0
  8  9  1  0  0  0  0
  8 53  1  0  0  0  0
  9 24  2  0  0  0  0
 10 15  1  0  0  0  0
 10 37  1  1  0  0  0
 10 19  1  0  0  0  0
 10 11  1  0  0  0  0
 11 12  1  0  0  0  0
 11 41  1  6  0  0  0
 12 13  1  0  0  0  0
 12 31  1  0  0  0  0
 12 54  1  1  0  0  0
 13 14  2  0  0  0  0
 13 38  1  0  0  0  0
 14 28  1  0  0  0  0
 14 15  1  0  0  0  0
 15 36  2  0  0  0  0
 16 23  1  0  0  0  0
 16 17  1  0  0  0  0
 16 19  2  0  0  0  0
 17 18  1  0  0  0  0
 17 42  1  6  0  0  0
 18 11  1  0  0  0  0
 18 55  1  0  0  0  0
 18 56  1  0  0  0  0
 19 35  1  0  0  0  0
 20 23  1  0  0  0  0
 20 26  2  0  0  0  0
 20 21  1  0  0  0  0
 21 22  1  0  0  0  0
 22 17  1  0  0  0  0
 22 57  1  0  0  0  0
 22 58  1  0  0  0  0
 23 34  2  0  0  0  0
 24 25  1  0  0  0  0
 24 59  1  0  0  0  0
 25 21  2  0  0  0  0
 25 32  1  0  0  0  0
 26  9  1  0  0  0  0
 26 33  1  0  0  0  0
 28 29  1  0  0  0  0
 28 30  2  0  0  0  0
 29 60  1  0  0  0  0
 29 61  1  0  0  0  0
 31 39  1  0  0  0  0
 31 40  1  0  0  0  0
 33 62  1  0  0  0  0
 35 63  1  0  0  0  0
 37 64  1  0  0  0  0
 38 65  1  0  0  0  0
 39 66  1  0  0  0  0
 39 67  1  0  0  0  0
 39 68  1  0  0  0  0
 40 69  1  0  0  0  0
 40 70  1  0  0  0  0
 40 71  1  0  0  0  0
M  END
>  <DRUGBANK_ID>
DB12329

>  <COMMON_NAME>
Eravacycline

>  <CAS_NUMBER>
1207283-85-9

>  <UNII>
07896928ZC

>  <SYNONYMS>
Eravacyclina; Eravacycline; Eravacyclinum

$$$$
