
 OpenBabel10282417193D

120126  0  0  1  0  0  0  0  0999 V2000
    1.7965   -0.0662    0.1219 C   0  0  2  0  0  0  0  0  0  0  0  0
   -0.1129   -0.4029    0.3720 C   0  0  0  0  0  0  0  0  0  0  0  0
   -1.2358    1.0180    1.1066 C   0  0  2  0  0  0  0  0  0  0  0  0
   -0.9714    0.3162    2.4921 C   0  0  2  0  0  0  0  0  0  0  0  0
    1.0700    0.6009    2.6378 C   0  0  2  0  0  0  0  0  0  0  0  0
    1.7000    0.6233    1.3578 C   0  0  1  0  0  0  0  0  0  0  0  0
    0.6185    1.4109    1.2484 O   0  0  0  0  0  0  0  0  0  0  0  0
   -0.1781    1.9268    2.8290 C   0  0  0  0  0  0  0  0  0  0  0  0
    0.0190    0.9120    4.4843 C   0  0  2  0  0  0  0  0  0  0  0  0
   -0.4437   -0.5943    4.4975 N   0  0  0  0  0  0  0  0  0  0  0  0
   -0.5630    2.1243    5.3997 C   0  0  0  0  0  0  0  0  0  0  0  0
   -0.4790    1.3144    6.6386 C   0  0  0  0  0  0  0  0  0  0  0  0
    0.2682    3.5331    5.5720 C   0  0  0  0  0  0  0  0  0  0  0  0
   -2.0186    2.5756    5.0862 C   0  0  0  0  0  0  0  0  0  0  0  0
    1.6775    0.3049    5.0743 C   0  0  0  0  0  0  0  0  0  0  0  0
    1.5637    2.4493    3.3421 C   0  0  0  0  0  0  0  0  0  0  0  0
    0.2365    3.6908    2.7103 O   0  0  0  0  0  0  0  0  0  0  0  0
   -0.6695    2.9952    1.1663 C   0  0  0  0  0  0  0  0  0  0  0  0
    3.0030    0.6934    2.9456 C   0  0  0  0  0  0  0  0  0  0  0  0
   -2.6333   -0.3951    3.1679 C   0  0  0  0  0  0  0  0  0  0  0  0
   -4.0569    0.1262    2.5016 C   0  0  0  0  0  0  0  0  0  0  0  0
   -3.8579    0.2296    0.8180 C   0  0  1  0  0  0  0  0  0  0  0  0
   -2.5956    0.9607    0.5798 C   0  0  0  0  0  0  0  0  0  0  0  0
   -2.5310    1.8965   -0.3117 C   0  0  0  0  0  0  0  0  0  0  0  0
   -3.3796    2.1184   -1.3823 C   0  0  0  0  0  0  0  0  0  0  0  0
   -4.6242    1.4066   -1.1831 C   0  0  2  0  0  0  0  0  0  0  0  0
   -5.2768    0.3316   -0.4357 C   0  0  2  0  0  0  0  0  0  0  0  0
   -6.4606    1.2720   -1.7924 C   0  0  0  0  0  0  0  0  0  0  0  0
   -7.4801    0.5369   -1.2631 C   0  0  0  0  0  0  0  0  0  0  0  0
   -7.2216    1.5409    0.1171 C   0  0  1  0  0  0  0  0  0  0  0  0
   -5.7764    2.5834   -0.2797 C   0  0  1  0  0  0  0  0  0  0  0  0
   -4.7180    3.3360    0.6169 C   0  0  0  0  0  0  0  0  0  0  0  0
   -4.1260    2.9906    1.6244 O   0  0  0  0  0  0  0  0  0  0  0  0
   -4.1932    4.3524   -0.1309 O   0  0  0  0  0  0  0  0  0  0  0  0
   -8.6628    1.6008    0.6376 C   0  0  1  0  0  0  0  0  0  0  0  0
   -9.4965    0.3679    0.0558 C   0  0  0  0  0  0  0  0  0  0  0  0
   -8.8354   -1.0391    0.2147 C   0  0  0  0  0  0  0  0  0  0  0  0
  -10.8439    0.3362    0.6895 C   0  0  0  0  0  0  0  0  0  0  0  0
   -8.7059    1.4142    2.1674 C   0  0  0  0  0  0  0  0  0  0  0  0
   -6.4979    1.1214    1.3611 C   0  0  0  0  0  0  0  0  0  0  0  0
   -5.5152   -1.3088    0.2874 C   0  0  0  0  0  0  0  0  0  0  0  0
   -4.5013    0.4579   -2.4395 C   0  0  0  0  0  0  0  0  0  0  0  0
   -3.4573   -0.7949    0.6312 H   0  0  0  0  0  0  0  0  0  0  0  0
   -1.6557    1.0234    3.2217 H   0  0  0  0  0  0  0  0  0  0  0  0
    3.1854    0.7252   -0.4430 N   0  0  0  0  0  0  0  0  0  0  0  0
    3.9395    1.9808   -0.1818 C   0  0  0  0  0  0  0  0  0  0  0  0
    5.1843    1.9220   -0.6537 N   0  0  0  0  0  0  0  0  0  0  0  0
    5.3321    0.6633   -1.1059 C   0  0  0  0  0  0  0  0  0  0  0  0
    4.2735   -0.1410   -0.8765 N   0  0  0  0  0  0  0  0  0  0  0  0
    3.4975    3.2285    0.4276 C   0  0  0  0  0  0  0  0  0  0  0  0
    3.2325    4.3590   -0.2821 C   0  0  0  0  0  0  0  0  0  0  0  0
    2.6196    5.4063    0.3991 C   0  0  0  0  0  0  0  0  0  0  0  0
    2.3326    5.4478    1.7194 N   0  0  0  0  0  0  0  0  0  0  0  0
    2.8240    4.4419    2.4187 C   0  0  0  0  0  0  0  0  0  0  0  0
    3.4743    3.3949    1.7860 C   0  0  0  0  0  0  0  0  0  0  0  0
    2.3978   -1.0026    0.2791 H   0  0  0  0  0  0  0  0  0  0  0  0
   -0.8195   -1.1446    0.9832 H   0  0  0  0  0  0  0  0  0  0  0  0
    0.2883   -1.2269    1.1723 H   0  0  0  0  0  0  0  0  0  0  0  0
    1.6430   -0.4060    1.6910 H   0  0  0  0  0  0  0  0  0  0  0  0
    0.8149    2.4699    1.9598 H   0  0  0  0  0  0  0  0  0  0  0  0
   -1.1901    2.4386    2.7817 H   0  0  0  0  0  0  0  0  0  0  0  0
    0.3415   -1.2305    4.5922 H   0  0  0  0  0  0  0  0  0  0  0  0
   -0.5316   -0.9656    3.5424 H   0  0  0  0  0  0  0  0  0  0  0  0
    0.5681    1.0711    6.8040 H   0  0  0  0  0  0  0  0  0  0  0  0
   -0.8444    1.8563    7.4778 H   0  0  0  0  0  0  0  0  0  0  0  0
   -1.0263    0.3740    6.4875 H   0  0  0  0  0  0  0  0  0  0  0  0
    0.2745    4.2217    4.7086 H   0  0  0  0  0  0  0  0  0  0  0  0
   -0.1239    4.1402    6.3740 H   0  0  0  0  0  0  0  0  0  0  0  0
    1.3427    3.4224    5.8063 H   0  0  0  0  0  0  0  0  0  0  0  0
   -2.1730    3.1126    4.1365 H   0  0  0  0  0  0  0  0  0  0  0  0
   -2.6925    1.7221    5.1087 H   0  0  0  0  0  0  0  0  0  0  0  0
   -2.3658    3.2966    5.8280 H   0  0  0  0  0  0  0  0  0  0  0  0
    1.6662   -0.2805    5.9677 H   0  0  0  0  0  0  0  0  0  0  0  0
    2.0417   -0.4608    4.3527 H   0  0  0  0  0  0  0  0  0  0  0  0
    2.4704    1.0899    5.1730 H   0  0  0  0  0  0  0  0  0  0  0  0
    1.4519    2.5087    4.4175 H   0  0  0  0  0  0  0  0  0  0  0  0
    1.4678    1.4725    3.7344 H   0  0  0  0  0  0  0  0  0  0  0  0
   -1.3922    3.8003    1.0060 H   0  0  0  0  0  0  0  0  0  0  0  0
    0.0931    3.0796    0.3841 H   0  0  0  0  0  0  0  0  0  0  0  0
    3.6054    0.7273    2.0185 H   0  0  0  0  0  0  0  0  0  0  0  0
    3.3483    1.6143    3.5139 H   0  0  0  0  0  0  0  0  0  0  0  0
    3.5607   -0.0134    3.5082 H   0  0  0  0  0  0  0  0  0  0  0  0
   -2.9181   -0.3739    4.2736 H   0  0  0  0  0  0  0  0  0  0  0  0
   -2.4626   -1.4535    3.0790 H   0  0  0  0  0  0  0  0  0  0  0  0
   -4.8816   -0.5296    2.9033 H   0  0  0  0  0  0  0  0  0  0  0  0
   -4.4704    1.0481    2.9743 H   0  0  0  0  0  0  0  0  0  0  0  0
   -1.7072    2.5334   -0.4355 H   0  0  0  0  0  0  0  0  0  0  0  0
   -3.7027    3.0832   -1.6922 H   0  0  0  0  0  0  0  0  0  0  0  0
   -2.6055    1.9507   -2.1295 H   0  0  0  0  0  0  0  0  0  0  0  0
   -7.3992    2.0228   -1.9196 H   0  0  0  0  0  0  0  0  0  0  0  0
   -6.1963    2.0475   -2.6337 H   0  0  0  0  0  0  0  0  0  0  0  0
   -8.3225    0.5243   -1.9858 H   0  0  0  0  0  0  0  0  0  0  0  0
   -6.9803   -0.3880   -1.5145 H   0  0  0  0  0  0  0  0  0  0  0  0
   -6.2804    3.4619   -0.6862 H   0  0  0  0  0  0  0  0  0  0  0  0
   -3.2201    4.3205    0.0123 H   0  0  0  0  0  0  0  0  0  0  0  0
   -9.1122    2.5480    0.3392 H   0  0  0  0  0  0  0  0  0  0  0  0
   -9.7473    0.5457   -0.9980 H   0  0  0  0  0  0  0  0  0  0  0  0
   -8.6122   -1.2723    1.2505 H   0  0  0  0  0  0  0  0  0  0  0  0
   -9.4160   -1.8305   -0.2495 H   0  0  0  0  0  0  0  0  0  0  0  0
   -7.8845   -1.1854   -0.2729 H   0  0  0  0  0  0  0  0  0  0  0  0
  -11.3008    1.3152    0.5373 H   0  0  0  0  0  0  0  0  0  0  0  0
  -11.4384   -0.4496    0.2319 H   0  0  0  0  0  0  0  0  0  0  0  0
  -10.7407    0.1132    1.7463 H   0  0  0  0  0  0  0  0  0  0  0  0
   -8.0874    2.1986    2.6221 H   0  0  0  0  0  0  0  0  0  0  0  0
   -9.6457    1.4383    2.6756 H   0  0  0  0  0  0  0  0  0  0  0  0
   -8.3364    0.3886    2.4104 H   0  0  0  0  0  0  0  0  0  0  0  0
   -5.6923    1.7504    1.6100 H   0  0  0  0  0  0  0  0  0  0  0  0
   -6.7408    1.0843    2.3929 H   0  0  0  0  0  0  0  0  0  0  0  0
   -6.4087    0.1003    1.3014 H   0  0  0  0  0  0  0  0  0  0  0  0
   -6.4576   -1.5425    0.8209 H   0  0  0  0  0  0  0  0  0  0  0  0
   -4.9631   -2.1492   -0.1069 H   0  0  0  0  0  0  0  0  0  0  0  0
   -5.0543   -1.4125    1.3206 H   0  0  0  0  0  0  0  0  0  0  0  0
   -4.2882   -0.5737   -2.1252 H   0  0  0  0  0  0  0  0  0  0  0  0
   -5.3564    0.3774   -3.1063 H   0  0  0  0  0  0  0  0  0  0  0  0
   -3.7241    0.8101   -3.0900 H   0  0  0  0  0  0  0  0  0  0  0  0
    6.2657    0.3556   -1.6132 H   0  0  0  0  0  0  0  0  0  0  0  0
    3.4925    4.4044   -1.3280 H   0  0  0  0  0  0  0  0  0  0  0  0
    2.3143    6.2888   -0.1331 H   0  0  0  0  0  0  0  0  0  0  0  0
    2.5865    4.4029    3.4879 H   0  0  0  0  0  0  0  0  0  0  0  0
    3.9780    2.6445    2.3301 H   0  0  0  0  0  0  0  0  0  0  0  0
  1  2  1  0  0  0  0
  1  6  1  0  0  0  0
  1 45  1  0  0  0  0
  1 56  1  1  0  0  0
  2 57  1  0  0  0  0
  2 58  1  0  0  0  0
  3  2  1  0  0  0  0
  3 18  1  0  0  0  0
  3 23  1  1  0  0  0
  4  3  1  0  0  0  0
  4 20  1  0  0  0  0
  4 44  1  1  0  0  0
  5  4  1  0  0  0  0
  5 16  1  0  0  0  0
  5 19  1  6  0  0  0
  6  5  1  0  0  0  0
  6  7  1  0  0  0  0
  6 59  1  6  0  0  0
  7  8  1  0  0  0  0
  8 60  1  0  0  0  0
  8 61  1  0  0  0  0
  9 11  1  1  0  0  0
  9 15  1  0  0  0  0
  9 10  1  0  0  0  0
  9  8  1  0  0  0  0
 10 62  1  0  0  0  0
 10 63  1  0  0  0  0
 11 12  1  0  0  0  0
 11 13  1  0  0  0  0
 11 14  1  0  0  0  0
 12 64  1  0  0  0  0
 12 65  1  0  0  0  0
 12 66  1  0  0  0  0
 13 67  1  0  0  0  0
 13 68  1  0  0  0  0
 13 69  1  0  0  0  0
 14 70  1  0  0  0  0
 14 71  1  0  0  0  0
 14 72  1  0  0  0  0
 15 73  1  0  0  0  0
 15 74  1  0  0  0  0
 15 75  1  0  0  0  0
 16 17  1  0  0  0  0
 16 76  1  0  0  0  0
 16 77  1  0  0  0  0
 17 18  1  0  0  0  0
 18 78  1  0  0  0  0
 18 79  1  0  0  0  0
 19 80  1  0  0  0  0
 19 81  1  0  0  0  0
 19 82  1  0  0  0  0
 20 21  1  0  0  0  0
 20 83  1  0  0  0  0
 20 84  1  0  0  0  0
 21 22  1  0  0  0  0
 21 85  1  0  0  0  0
 21 86  1  0  0  0  0
 22 23  1  0  0  0  0
 22 27  1  0  0  0  0
 22 43  1  1  0  0  0
 23 24  2  0  0  0  0
 24 87  1  0  0  0  0
 25 24  1  0  0  0  0
 25 88  1  0  0  0  0
 25 89  1  0  0  0  0
 26 25  1  0  0  0  0
 26 31  1  0  0  0  0
 26 42  1  1  0  0  0
 27 26  1  0  0  0  0
 27 28  1  0  0  0  0
 27 41  1  6  0  0  0
 28 29  1  0  0  0  0
 28 90  1  0  0  0  0
 28 91  1  0  0  0  0
 29 30  1  0  0  0  0
 29 92  1  0  0  0  0
 29 93  1  0  0  0  0
 30 31  1  0  0  0  0
 30 35  1  0  0  0  0
 30 40  1  1  0  0  0
 31 94  1  6  0  0  0
 31 32  1  0  0  0  0
 32 33  2  0  0  0  0
 32 34  1  0  0  0  0
 34 95  1  0  0  0  0
 35 36  1  0  0  0  0
 35 39  1  0  0  0  0
 35 96  1  6  0  0  0
 36 37  1  0  0  0  0
 36 38  1  0  0  0  0
 36 97  1  0  0  0  0
 37 98  1  0  0  0  0
 37 99  1  0  0  0  0
 37100  1  0  0  0  0
 38101  1  0  0  0  0
 38102  1  0  0  0  0
 38103  1  0  0  0  0
 39104  1  0  0  0  0
 39105  1  0  0  0  0
 39106  1  0  0  0  0
 40107  1  0  0  0  0
 40108  1  0  0  0  0
 40109  1  0  0  0  0
 41110  1  0  0  0  0
 41111  1  0  0  0  0
 41112  1  0  0  0  0
 42113  1  0  0  0  0
 42114  1  0  0  0  0
 42115  1  0  0  0  0
 46 45  1  0  0  0  0
 46 47  2  0  0  0  0
 46 50  1  0  0  0  0
 47 48  1  0  0  0  0
 48 49  2  0  0  0  0
 48116  1  0  0  0  0
 49 45  1  0  0  0  0
 50 55  1  0  0  0  0
 51 50  2  0  0  0  0
 51117  1  0  0  0  0
 52 51  1  0  0  0  0
 52118  1  0  0  0  0
 53 52  2  0  0  0  0
 54 53  1  0  0  0  0
 54119  1  0  0  0  0
 55 54  2  0  0  0  0
 55120  1  0  0  0  0
M  END
>  <DRUGBANK_ID>
DB12471

>  <COMMON_NAME>
Ibrexafungerp

>  <CAS_NUMBER>
1207753-03-4

>  <UNII>
A92JFM5XNU

>  <SYNONYMS>
(1S,4AR,6AS,7R,8R,10AR,10BR,12AR,14R,15R)-15-((2R)- 2-AMINO-2,3,3-TRIMETHYLBUTOXY)-1,6A,8,10A-TETRAMETHYL-8- ((2R)-3-METHYLBUTAN-2-YL)-14-(5-(PYRIDIN-4-YL)-1H-1,2,4- TRIAZOL-1-YL)-1,6,6A,7,8,9,10,10A,10B,11,12,12A-DODECAHYDRO-2H,4H-1,4A-PROPANOPHENANTHRO; enfumafungin derivative B-(1,3)-D-glucan synthestis inhibitor; Ibrexafungerp

$$$$
