
 OpenBabel10282417243D

 75 78  0  0  0  0  0  0  0  0999 V2000
    1.0489    0.0581   -0.0632 Fe  0  2  0  0  0  0  0  0  0  0  0  0
  -12.2833    7.0068   -1.6281 C   0  0  0  0  0  0  0  0  0  0  0  0
  -10.5581    6.2848   -2.5009 C   0  0  0  0  0  0  0  0  0  0  0  0
   -9.6838    6.9858   -1.7211 C   0  0  0  0  0  0  0  0  0  0  0  0
  -10.0149    7.6864   -3.1017 C   0  0  0  0  0  0  0  0  0  0  0  0
   -8.8032    8.4248   -2.9499 C   0  0  0  0  0  0  0  0  0  0  0  0
   -7.2913    7.8958   -2.1515 C   0  0  0  0  0  0  0  0  0  0  0  0
   -5.9377    7.8360   -3.0086 O   0  0  0  0  0  0  0  0  0  0  0  0
   -7.1233    7.1318   -1.2115 O   0  0  0  0  0  0  0  0  0  0  0  0
   -8.8946    5.7900   -1.3564 C   0  0  0  0  0  0  0  0  0  0  0  0
   -7.8312    5.1582   -1.8784 C   0  0  0  0  0  0  0  0  0  0  0  0
   -7.3398    5.8495   -3.2327 C   0  0  0  0  0  0  0  0  0  0  0  0
   -7.5607    7.0405   -3.8510 N   0  0  0  0  0  0  0  0  0  0  0  0
   -6.9405    7.4428   -4.9484 C   0  0  0  0  0  0  0  0  0  0  0  0
   -6.9428    8.6994   -5.4319 C   0  0  0  0  0  0  0  0  0  0  0  0
   -6.3647    8.8291   -6.6816 C   0  0  0  0  0  0  0  0  0  0  0  0
   -5.2129    9.3352   -6.8707 C   0  0  0  0  0  0  0  0  0  0  0  0
   -4.3281    9.9646   -6.0601 C   0  0  0  0  0  0  0  0  0  0  0  0
   -4.9470    9.1442   -8.0885 C   0  0  0  0  0  0  0  0  0  0  0  0
   -3.4200    9.3994   -8.3574 C   0  0  0  0  0  0  0  0  0  0  0  0
   -2.6516   10.4081   -8.3834 C   0  0  0  0  0  0  0  0  0  0  0  0
   -6.1400    8.3409   -8.8655 C   0  0  0  0  0  0  0  0  0  0  0  0
   -7.0420    8.9813   -7.8259 N   0  5  0  0  0  0  0  0  0  0  0  0
   -6.3860    7.9204  -10.3053 C   0  0  0  0  0  0  0  0  0  0  0  0
   -5.4925    8.2568  -11.2743 C   0  0  0  0  0  0  0  0  0  0  0  0
   -6.4014    6.8791   -9.9535 N   0  0  0  0  0  0  0  0  0  0  0  0
   -6.8183    6.8805   -8.0090 C   0  0  0  0  0  0  0  0  0  0  0  0
   -8.2348    6.4795   -6.0527 C   0  0  0  0  0  0  0  0  0  0  0  0
   -9.2407    5.9533   -4.1745 C   0  0  0  0  0  0  0  0  0  0  0  0
   -9.6487    5.3285   -2.4060 N   0  5  0  0  0  0  0  0  0  0  0  0
   -4.8204    7.4550   -9.4799 C   0  0  0  0  0  0  0  0  0  0  0  0
   -3.4928    8.4054  -11.0285 C   0  0  0  0  0  0  0  0  0  0  0  0
   -2.1944    9.7071  -11.3016 C   0  0  0  0  0  0  0  0  0  0  0  0
   -5.1812    9.0164  -10.3967 C   0  0  0  0  0  0  0  0  0  0  0  0
   -4.3011    9.9046  -10.0920 C   0  0  0  0  0  0  0  0  0  0  0  0
   -6.3964    6.1287   -5.1097 C   0  0  0  0  0  0  0  0  0  0  0  0
   -5.8190    5.8505   -6.3206 C   0  0  0  0  0  0  0  0  0  0  0  0
   -6.8175    5.1580   -4.2924 C   0  0  0  0  0  0  0  0  0  0  0  0
   -6.8907    3.7616   -4.4654 C   0  0  0  0  0  0  0  0  0  0  0  0
   -7.7919    3.3099   -5.5897 C   0  0  0  0  0  0  0  0  0  0  0  0
   -7.5389    3.8533   -6.9254 C   0  0  0  0  0  0  0  0  0  0  0  0
   -6.9636    3.2483   -7.9484 O   0  0  0  0  0  0  0  0  0  0  0  0
   -7.9852    4.9357   -7.1714 O   0  0  0  0  0  0  0  0  0  0  0  0
  -12.9684    6.5497   -2.3195 H   0  0  0  0  0  0  0  0  0  0  0  0
  -12.2768    8.1013   -1.7618 H   0  0  0  0  0  0  0  0  0  0  0  0
  -13.0429    7.0061   -0.6354 H   0  0  0  0  0  0  0  0  0  0  0  0
  -10.1480    7.3698   -4.2247 H   0  0  0  0  0  0  0  0  0  0  0  0
  -11.0660    7.7805   -3.3664 H   0  0  0  0  0  0  0  0  0  0  0  0
   -8.7314    8.7583   -3.9529 H   0  0  0  0  0  0  0  0  0  0  0  0
   -9.1087    9.0076   -2.1744 H   0  0  0  0  0  0  0  0  0  0  0  0
   -6.0828    8.2293   -3.8717 H   0  0  0  0  0  0  0  0  0  0  0  0
   -7.1796    4.7505   -1.1605 H   0  0  0  0  0  0  0  0  0  0  0  0
   -7.0601    9.5721   -4.7900 H   0  0  0  0  0  0  0  0  0  0  0  0
   -4.7617   10.8609   -5.7605 H   0  0  0  0  0  0  0  0  0  0  0  0
   -3.8345    9.2885   -5.4468 H   0  0  0  0  0  0  0  0  0  0  0  0
   -3.5421   10.3515   -6.5417 H   0  0  0  0  0  0  0  0  0  0  0  0
   -2.6013    9.1212   -9.4790 H   0  0  0  0  0  0  0  0  0  0  0  0
   -1.9475   10.6669   -9.0645 H   0  0  0  0  0  0  0  0  0  0  0  0
   -2.6609   10.7742   -7.5131 H   0  0  0  0  0  0  0  0  0  0  0  0
   -6.2128    8.2164   -9.2918 H   0  0  0  0  0  0  0  0  0  0  0  0
   -9.3281    6.1041   -4.7886 H   0  0  0  0  0  0  0  0  0  0  0  0
   -2.9670    9.1852  -12.3402 H   0  0  0  0  0  0  0  0  0  0  0  0
   -1.1319   10.7405  -11.7094 H   0  0  0  0  0  0  0  0  0  0  0  0
   -1.9304   10.4510  -10.5425 H   0  0  0  0  0  0  0  0  0  0  0  0
   -4.8587   10.5345   -9.5109 H   0  0  0  0  0  0  0  0  0  0  0  0
   -3.7258    8.5167   -9.5612 H   0  0  0  0  0  0  0  0  0  0  0  0
   -3.4391   10.4213  -10.1785 H   0  0  0  0  0  0  0  0  0  0  0  0
   -6.6425    5.9170   -6.8732 H   0  0  0  0  0  0  0  0  0  0  0  0
   -5.1490    6.5225   -6.7269 H   0  0  0  0  0  0  0  0  0  0  0  0
   -5.8637    4.9012   -6.7065 H   0  0  0  0  0  0  0  0  0  0  0  0
   -5.8633    3.5377   -4.6726 H   0  0  0  0  0  0  0  0  0  0  0  0
   -7.1995    3.3013   -3.5334 H   0  0  0  0  0  0  0  0  0  0  0  0
   -7.7182    2.2541   -5.7047 H   0  0  0  0  0  0  0  0  0  0  0  0
   -8.8321    3.5880   -5.3631 H   0  0  0  0  0  0  0  0  0  0  0  0
   -6.9382    2.2915   -7.9113 H   0  0  0  0  0  0  0  0  0  0  0  0
  2  3  1  0  0  0  0
  2 44  1  0  0  0  0
  2 45  1  0  0  0  0
  2 46  1  0  0  0  0
  3  4  2  0  0  0  0
  3 29  1  0  0  0  0
  4  5  1  0  0  0  0
  4 10  1  0  0  0  0
  5  6  1  0  0  0  0
  5 47  1  0  0  0  0
  5 48  1  0  0  0  0
  6  7  1  0  0  0  0
  6 49  1  0  0  0  0
  6 50  1  0  0  0  0
  7  8  1  0  0  0  0
  7  9  2  0  0  0  0
  8 51  1  0  0  0  0
 10 11  2  0  0  0  0
 10 30  1  0  0  0  0
 11 12  1  0  0  0  0
 11 52  1  0  0  0  0
 12 13  2  0  0  0  0
 12 38  1  0  0  0  0
 13 14  1  0  0  0  0
 14 15  2  0  0  0  0
 14 36  1  0  0  0  0
 15 16  1  0  0  0  0
 15 53  1  0  0  0  0
 16 17  2  0  0  0  0
 16 23  1  0  0  0  0
 17 18  1  0  0  0  0
 17 19  1  0  0  0  0
 18 54  1  0  0  0  0
 18 55  1  0  0  0  0
 18 56  1  0  0  0  0
 19 20  1  0  0  0  0
 19 22  2  0  0  0  0
 20 21  2  0  0  0  0
 20 57  1  0  0  0  0
 21 58  1  0  0  0  0
 21 59  1  0  0  0  0
 22 23  1  0  0  0  0
 22 24  1  0  0  0  0
 24 25  2  0  0  0  0
 24 60  1  0  0  0  0
 25 26  1  0  0  0  0
 25 34  1  0  0  0  0
 26 27  2  0  0  0  0
 27 28  1  0  0  0  0
 27 31  1  0  0  0  0
 28 29  2  0  0  0  0
 28 61  1  0  0  0  0
 29 30  1  0  0  0  0
 31 32  1  0  0  0  0
 31 34  2  0  0  0  0
 32 33  2  0  0  0  0
 32 62  1  0  0  0  0
 33 63  1  0  0  0  0
 33 64  1  0  0  0  0
 34 35  1  0  0  0  0
 35 65  1  0  0  0  0
 35 66  1  0  0  0  0
 35 67  1  0  0  0  0
 36 37  1  0  0  0  0
 36 38  2  0  0  0  0
 37 68  1  0  0  0  0
 37 69  1  0  0  0  0
 37 70  1  0  0  0  0
 38 39  1  0  0  0  0
 39 40  1  0  0  0  0
 39 71  1  0  0  0  0
 39 72  1  0  0  0  0
 40 41  1  0  0  0  0
 40 73  1  0  0  0  0
 40 74  1  0  0  0  0
 41 42  1  0  0  0  0
 41 43  2  0  0  0  0
 42 75  1  0  0  0  0
M  CHG  3   1   2  23  -1  30  -1
M  END
>  <DRUGBANK_ID>
DB18267

>  <COMMON_NAME>
Ferroheme

>  <CAS_NUMBER>
14875-96-8

>  <UNII>
42VZT0U6YR

>  <SYNONYMS>
Heme; HEME B; HEME IRON; PROTOHEME; PROTOHEME IX

$$$$
