
 OpenBabel10282417223D

 57 57  0  0  1  0  0  0  0  0999 V2000
   -0.8269    1.4226   -0.2185 O   0  0  0  0  0  0  0  0  0  0  0  0
   -1.5092    1.2977    0.9381 C   0  0  0  0  0  0  0  0  0  0  0  0
   -2.3188    2.1133    1.2917 O   0  0  0  0  0  0  0  0  0  0  0  0
   -1.1766    0.0043    1.6560 C   0  0  0  0  0  0  0  0  0  0  0  0
   -1.8998   -1.2455    1.1146 C   0  0  0  0  0  0  0  0  0  0  0  0
   -1.4239   -1.6303   -0.2792 C   0  0  2  0  0  0  0  0  0  0  0  0
   -1.7824   -0.6733   -1.3206 N   0  0  0  0  0  0  0  0  0  0  0  0
   -1.1634   -0.1943   -2.4152 C   0  0  0  0  0  0  0  0  0  0  0  0
   -1.7074    0.7056   -3.0537 O   0  0  0  0  0  0  0  0  0  0  0  0
    0.0455   -0.6160   -2.7967 N   0  0  0  0  0  0  0  0  0  0  0  0
    0.9568   -1.5426   -2.1825 C   0  0  1  0  0  0  0  0  0  0  0  0
    1.0370   -2.8168   -3.0204 C   0  0  0  0  0  0  0  0  0  0  0  0
    1.7468   -2.6605   -4.3460 C   0  0  0  0  0  0  0  0  0  0  0  0
    3.1593   -2.2354   -4.1358 C   0  0  0  0  0  0  0  0  0  0  0  0
    3.8377   -3.1044   -3.1272 C   0  0  0  0  0  0  0  0  0  0  0  0
    4.2369   -4.4054   -3.5606 N   0  0  0  0  0  0  0  0  0  0  0  0
    5.5104   -4.8492   -3.7007 C   0  0  0  0  0  0  0  0  0  0  0  0
    5.6901   -5.8509   -4.3956 O   0  0  0  0  0  0  0  0  0  0  0  0
    6.5800   -4.1714   -3.1688 N   0  0  0  0  0  0  0  0  0  0  0  0
    6.6373   -3.0695   -2.2735 C   0  0  0  0  0  0  0  0  0  0  0  0
    5.7691   -2.9854   -1.1757 C   0  0  0  0  0  0  0  0  0  0  0  0
    5.4069   -1.7257   -0.6718 C   0  0  0  0  0  0  0  0  0  0  0  0
    6.0810   -0.5817   -1.0846 C   0  0  0  0  0  0  0  0  0  0  0  0
    5.5070    1.2967   -0.3788 I   0  0  0  0  0  0  0  0  0  0  0  0
    7.1267   -0.6989   -1.9962 C   0  0  0  0  0  0  0  0  0  0  0  0
    7.3758   -1.9320   -2.6302 C   0  0  0  0  0  0  0  0  0  0  0  0
    2.1242   -0.7885   -1.5020 C   0  0  0  0  0  0  0  0  0  0  0  0
    2.2731   -0.9694   -0.1671 O   0  0  0  0  0  0  0  0  0  0  0  0
    2.8639   -0.0035   -2.0824 O   0  0  0  0  0  0  0  0  0  0  0  0
   -1.9389   -3.0049   -0.7265 C   0  0  0  0  0  0  0  0  0  0  0  0
   -1.0121   -3.9581   -0.9713 O   0  0  0  0  0  0  0  0  0  0  0  0
   -3.1263   -3.2347   -0.9050 O   0  0  0  0  0  0  0  0  0  0  0  0
   -1.3401    2.0244   -0.8090 H   0  0  0  0  0  0  0  0  0  0  0  0
   -0.0861   -0.1277    1.6530 H   0  0  0  0  0  0  0  0  0  0  0  0
   -1.4565    0.1391    2.7046 H   0  0  0  0  0  0  0  0  0  0  0  0
   -1.6339   -2.0839    1.7773 H   0  0  0  0  0  0  0  0  0  0  0  0
   -2.9850   -1.1397    1.1404 H   0  0  0  0  0  0  0  0  0  0  0  0
   -0.3695   -1.6234   -0.0689 H   0  0  0  0  0  0  0  0  0  0  0  0
   -2.6800   -0.2176   -1.2020 H   0  0  0  0  0  0  0  0  0  0  0  0
    0.3988   -0.1148   -3.6082 H   0  0  0  0  0  0  0  0  0  0  0  0
    0.5107   -1.9939   -1.3459 H   0  0  0  0  0  0  0  0  0  0  0  0
    1.4610   -3.6283   -2.4139 H   0  0  0  0  0  0  0  0  0  0  0  0
    0.0211   -3.1693   -3.2435 H   0  0  0  0  0  0  0  0  0  0  0  0
    1.7361   -3.6130   -4.8802 H   0  0  0  0  0  0  0  0  0  0  0  0
    1.2416   -1.9097   -4.9558 H   0  0  0  0  0  0  0  0  0  0  0  0
    3.7516   -2.1742   -5.0474 H   0  0  0  0  0  0  0  0  0  0  0  0
    3.1673   -1.2136   -3.7681 H   0  0  0  0  0  0  0  0  0  0  0  0
    4.6878   -2.4790   -3.0058 H   0  0  0  0  0  0  0  0  0  0  0  0
    3.3467   -3.2296   -2.1545 H   0  0  0  0  0  0  0  0  0  0  0  0
    3.5444   -4.9983   -4.0074 H   0  0  0  0  0  0  0  0  0  0  0  0
    7.4387   -4.4331   -3.6346 H   0  0  0  0  0  0  0  0  0  0  0  0
    5.1790   -3.8542   -0.8918 H   0  0  0  0  0  0  0  0  0  0  0  0
    4.5216   -1.6471   -0.0510 H   0  0  0  0  0  0  0  0  0  0  0  0
    7.7075    0.1795   -2.2649 H   0  0  0  0  0  0  0  0  0  0  0  0
    8.0505   -1.9414   -3.4820 H   0  0  0  0  0  0  0  0  0  0  0  0
    1.5657   -1.3414    0.3833 H   0  0  0  0  0  0  0  0  0  0  0  0
   -0.0664   -3.7741   -0.8631 H   0  0  0  0  0  0  0  0  0  0  0  0
  1  2  1  0  0  0  0
  1 33  1  0  0  0  0
  2  3  2  0  0  0  0
  2  4  1  0  0  0  0
  4  5  1  0  0  0  0
  4 34  1  0  0  0  0
  4 35  1  0  0  0  0
  5 36  1  0  0  0  0
  5 37  1  0  0  0  0
  6 30  1  0  0  0  0
  6 38  1  1  0  0  0
  6  7  1  0  0  0  0
  6  5  1  0  0  0  0
  7  8  1  0  0  0  0
  7 39  1  0  0  0  0
  8  9  2  0  0  0  0
  8 10  1  0  0  0  0
 10 40  1  0  0  0  0
 11 10  1  0  0  0  0
 11 12  1  0  0  0  0
 11 27  1  0  0  0  0
 11 41  1  1  0  0  0
 12 13  1  0  0  0  0
 12 42  1  0  0  0  0
 12 43  1  0  0  0  0
 13 14  1  0  0  0  0
 13 44  1  0  0  0  0
 13 45  1  0  0  0  0
 14 15  1  0  0  0  0
 14 46  1  0  0  0  0
 14 47  1  0  0  0  0
 15 16  1  0  0  0  0
 15 48  1  0  0  0  0
 15 49  1  0  0  0  0
 16 17  1  0  0  0  0
 16 50  1  0  0  0  0
 17 18  2  0  0  0  0
 17 19  1  0  0  0  0
 19 20  1  0  0  0  0
 19 51  1  0  0  0  0
 20 21  2  0  0  0  0
 20 26  1  0  0  0  0
 21 22  1  0  0  0  0
 21 52  1  0  0  0  0
 22 23  2  0  0  0  0
 22 53  1  0  0  0  0
 23 24  1  0  0  0  0
 23 25  1  0  0  0  0
 25 26  2  0  0  0  0
 25 54  1  0  0  0  0
 26 55  1  0  0  0  0
 27 28  1  0  0  0  0
 27 29  2  0  0  0  0
 28 56  1  0  0  0  0
 30 31  1  0  0  0  0
 30 32  2  0  0  0  0
 31 57  1  0  0  0  0
M  ISO  1  24 131
M  END
>  <DRUGBANK_ID>
DB14978

>  <COMMON_NAME>
MIP-1095 I-131

>  <CAS_NUMBER>
1258980-67-4

>  <UNII>
7DM27RQ9V0

>  <SYNONYMS>
131I-MIP-1095

$$$$
