
 OpenBabel10282417223D

 51 54  0  0  1  0  0  0  0  0999 V2000
   -2.1730   -0.0714    0.0982 C   0  0  0  0  0  0  0  0  0  0  0  0
   -0.7653   -0.0394   -0.2033 N   0  0  0  0  0  0  0  0  0  0  0  0
   -0.0007   -1.2285    0.1213 C   0  0  0  0  0  0  0  0  0  0  0  0
    1.4525   -0.8039   -0.0816 C   0  0  0  0  0  0  0  0  0  0  0  0
    1.4592    0.7397   -0.0676 C   0  0  2  0  0  0  0  0  0  0  0  0
   -0.0061    1.1390    0.2414 C   0  0  2  0  0  0  0  0  0  0  0  0
   -0.2264    1.4905    1.7335 C   0  0  0  0  0  0  0  0  0  0  0  0
    0.4141    0.5916    2.6326 O   0  0  0  0  0  0  0  0  0  0  0  0
    1.9948    1.3184   -1.3824 C   0  0  0  0  0  0  0  0  0  0  0  0
    1.3813    1.0352   -2.6189 C   0  0  0  0  0  0  0  0  0  0  0  0
    0.2891    0.2225   -2.6671 O   0  0  0  0  0  0  0  0  0  0  0  0
    1.8671    1.5371   -3.8196 C   0  0  0  0  0  0  0  0  0  0  0  0
    3.0031    2.3342   -3.8155 C   0  0  0  0  0  0  0  0  0  0  0  0
    3.4731    2.8024   -5.0078 O   0  0  0  0  0  0  0  0  0  0  0  0
    3.6409    2.6530   -2.6116 C   0  0  0  0  0  0  0  0  0  0  0  0
    3.1359    2.1519   -1.3991 C   0  0  0  0  0  0  0  0  0  0  0  0
    3.7215    2.4588   -0.1879 O   0  0  0  0  0  0  0  0  0  0  0  0
    4.8015    3.3182   -0.1662 C   0  0  0  0  0  0  0  0  0  0  0  0
    5.3663    3.8588   -1.2502 C   0  0  0  0  0  0  0  0  0  0  0  0
    4.8285    3.5330   -2.5728 C   0  0  0  0  0  0  0  0  0  0  0  0
    5.3786    4.0136   -3.5594 O   0  0  0  0  0  0  0  0  0  0  0  0
    5.3488    3.6081    1.1687 C   0  0  0  0  0  0  0  0  0  0  0  0
    5.3828    4.9419    1.6161 C   0  0  0  0  0  0  0  0  0  0  0  0
    5.9130    5.2648    2.8676 C   0  0  0  0  0  0  0  0  0  0  0  0
    6.4137    4.2599    3.7059 C   0  0  0  0  0  0  0  0  0  0  0  0
    6.3884    2.9300    3.2612 C   0  0  0  0  0  0  0  0  0  0  0  0
    5.8659    2.6056    2.0049 C   0  0  0  0  0  0  0  0  0  0  0  0
    5.9339    0.9448    1.5234 Cl  0  0  0  0  0  0  0  0  0  0  0  0
    6.9641    4.6129    5.0645 C   0  0  0  0  0  0  0  0  0  0  0  0
    8.0145    5.4751    4.9905 F   0  0  0  0  0  0  0  0  0  0  0  0
    6.0361    5.2168    5.8558 F   0  0  0  0  0  0  0  0  0  0  0  0
    7.4115    3.5353    5.7657 F   0  0  0  0  0  0  0  0  0  0  0  0
   -2.3654   -0.1486    1.1703 H   0  0  0  0  0  0  0  0  0  0  0  0
   -2.6613    0.8327   -0.2852 H   0  0  0  0  0  0  0  0  0  0  0  0
   -2.6535   -0.9235   -0.3914 H   0  0  0  0  0  0  0  0  0  0  0  0
   -0.1738   -1.5541    1.1493 H   0  0  0  0  0  0  0  0  0  0  0  0
   -0.2562   -2.0785   -0.5181 H   0  0  0  0  0  0  0  0  0  0  0  0
    2.0908   -1.2025    0.7154 H   0  0  0  0  0  0  0  0  0  0  0  0
    1.8374   -1.2088   -1.0244 H   0  0  0  0  0  0  0  0  0  0  0  0
    2.1024    1.0715    0.7564 H   0  0  0  0  0  0  0  0  0  0  0  0
   -0.3079    2.0152   -0.3489 H   0  0  0  0  0  0  0  0  0  0  0  0
    0.1674    2.4879    1.9410 H   0  0  0  0  0  0  0  0  0  0  0  0
   -1.2918    1.5212    1.9830 H   0  0  0  0  0  0  0  0  0  0  0  0
    0.0131   -0.2804    2.4947 H   0  0  0  0  0  0  0  0  0  0  0  0
   -0.1037    0.1884   -3.5505 H   0  0  0  0  0  0  0  0  0  0  0  0
    1.3613    1.2965   -4.7480 H   0  0  0  0  0  0  0  0  0  0  0  0
    2.9279    2.4827   -5.7424 H   0  0  0  0  0  0  0  0  0  0  0  0
    6.2184    4.5251   -1.2213 H   0  0  0  0  0  0  0  0  0  0  0  0
    4.9946    5.7450    0.9901 H   0  0  0  0  0  0  0  0  0  0  0  0
    5.9315    6.3062    3.1896 H   0  0  0  0  0  0  0  0  0  0  0  0
    6.7836    2.1390    3.8976 H   0  0  0  0  0  0  0  0  0  0  0  0
  1  2  1  0  0  0  0
  1 33  1  0  0  0  0
  1 34  1  0  0  0  0
  1 35  1  0  0  0  0
  2  3  1  0  0  0  0
  3  4  1  0  0  0  0
  3 36  1  0  0  0  0
  3 37  1  0  0  0  0
  4 38  1  0  0  0  0
  4 39  1  0  0  0  0
  5  4  1  0  0  0  0
  5  6  1  0  0  0  0
  5 40  1  1  0  0  0
  5  9  1  0  0  0  0
  6  2  1  0  0  0  0
  6 41  1  6  0  0  0
  6  7  1  0  0  0  0
  7  8  1  0  0  0  0
  7 42  1  0  0  0  0
  7 43  1  0  0  0  0
  8 44  1  0  0  0  0
  9 10  2  0  0  0  0
  9 16  1  0  0  0  0
 10 11  1  0  0  0  0
 10 12  1  0  0  0  0
 11 45  1  0  0  0  0
 12 13  2  0  0  0  0
 12 46  1  0  0  0  0
 13 14  1  0  0  0  0
 13 15  1  0  0  0  0
 14 47  1  0  0  0  0
 15 16  2  0  0  0  0
 15 20  1  0  0  0  0
 16 17  1  0  0  0  0
 17 18  1  0  0  0  0
 18 19  2  0  0  0  0
 18 22  1  0  0  0  0
 19 20  1  0  0  0  0
 19 48  1  0  0  0  0
 20 21  2  0  0  0  0
 22 23  2  0  0  0  0
 22 27  1  0  0  0  0
 23 24  1  0  0  0  0
 23 49  1  0  0  0  0
 24 25  2  0  0  0  0
 24 50  1  0  0  0  0
 25 26  1  0  0  0  0
 25 29  1  0  0  0  0
 26 27  2  0  0  0  0
 26 51  1  0  0  0  0
 27 28  1  0  0  0  0
 29 30  1  0  0  0  0
 29 31  1  0  0  0  0
 29 32  1  0  0  0  0
M  END
>  <DRUGBANK_ID>
DB15157

>  <COMMON_NAME>
Voruciclib

>  <CAS_NUMBER>
1000023-04-0

>  <UNII>
W66XP666AM

>  <SYNONYMS>
Voruciclib

$$$$
