LT3
 OpenBabel10282417173D

 28 30  0  0  0  0  0  0  0  0999 V2000
    1.2673    1.1456    0.3268 C   0  0  2  0  0  0  0  0  0  0  0  0
    3.1685    0.0279    1.6212 N   0  0  0  0  0  0  0  0  0  0  0  0
    1.9740   -0.7813   -0.9854 C   0  0  0  0  0  0  0  0  0  0  0  0
   -1.3541   -1.4212    0.0179 C   0  0  0  0  0  0  0  0  0  0  0  0
   -2.5380   -0.6802   -0.1474 C   0  0  0  0  0  0  0  0  0  0  0  0
   -0.1789    0.7144    0.1746 C   0  0  0  0  0  0  0  0  0  0  0  0
    1.9802    0.7761   -0.9955 C   0  0  0  0  0  0  0  0  0  0  0  0
    1.2629   -1.1261    0.3436 C   0  0  1  0  0  0  0  0  0  0  0  0
    1.7429    0.0167    1.2861 C   0  0  0  0  0  0  0  0  0  0  0  0
   -0.1850   -0.6946    0.1835 C   0  0  0  0  0  0  0  0  0  0  0  0
   -2.5287    0.7297   -0.1526 C   0  0  0  0  0  0  0  0  0  0  0  0
   -1.3371    1.4412    0.0050 C   0  0  0  0  0  0  0  0  0  0  0  0
   -1.3574   -2.9231    0.0111 C   0  0  0  0  0  0  0  0  0  0  0  0
   -0.8789   -3.4519    1.1719 F   0  0  0  0  0  0  0  0  0  0  0  0
   -0.5847   -3.4436   -0.9828 F   0  0  0  0  0  0  0  0  0  0  0  0
   -2.5962   -3.4650   -0.1596 F   0  0  0  0  0  0  0  0  0  0  0  0
    1.4060    2.1675    0.6834 H   0  0  0  0  0  0  0  0  0  0  0  0
    1.4058   -2.1410    0.7172 H   0  0  0  0  0  0  0  0  0  0  0  0
    1.1789    0.0264    2.2297 H   0  0  0  0  0  0  0  0  0  0  0  0
    3.3980   -0.8098    2.1557 H   0  0  0  0  0  0  0  0  0  0  0  0
    3.7516   -0.0056    0.7874 H   0  0  0  0  0  0  0  0  0  0  0  0
    1.4516   -1.1841   -1.8602 H   0  0  0  0  0  0  0  0  0  0  0  0
    3.0003   -1.1645   -0.9980 H   0  0  0  0  0  0  0  0  0  0  0  0
   -3.4889   -1.1963   -0.2809 H   0  0  0  0  0  0  0  0  0  0  0  0
    1.4656    1.1707   -1.8783 H   0  0  0  0  0  0  0  0  0  0  0  0
    3.0103    1.1490   -1.0087 H   0  0  0  0  0  0  0  0  0  0  0  0
   -3.4652    1.2674   -0.2878 H   0  0  0  0  0  0  0  0  0  0  0  0
   -1.3317    2.5262   -0.0103 H   0  0  0  0  0  0  0  0  0  0  0  0
  1  6  1  0  0  0  0
  1 17  1  1  0  0  0
  2 20  1  0  0  0  0
  2 21  1  0  0  0  0
  3 22  1  0  0  0  0
  3 23  1  0  0  0  0
  4  5  1  0  0  0  0
  5 11  2  0  0  0  0
  5 24  1  0  0  0  0
  6 12  2  0  0  0  0
  7  1  1  0  0  0  0
  7  3  1  0  0  0  0
  7 25  1  0  0  0  0
  7 26  1  0  0  0  0
  8  3  1  0  0  0  0
  8 10  1  0  0  0  0
  8 18  1  1  0  0  0
  9  2  1  0  0  0  0
  9  1  1  0  0  0  0
  9  8  1  0  0  0  0
  9 19  1  0  0  0  0
 10  4  2  0  0  0  0
 10  6  1  0  0  0  0
 11 27  1  0  0  0  0
 12 11  1  0  0  0  0
 12 28  1  0  0  0  0
 13  4  1  0  0  0  0
 13 15  1  0  0  0  0
 14 13  1  0  0  0  0
 16 13  1  0  0  0  0
M  END
>  <DRUGBANK_ID>
DB08128

>  <COMMON_NAME>
(1S,4R,9S)-5-(trifluoromethyl)-1,2,3,4-tetrahydro-1,4-methanonaphthalen-9-amine

$$$$
