
 OpenBabel10282417183D

 63 63  0  0  0  0  0  0  0  0999 V2000
   -1.6772    6.3763   -3.4913 O   0  0  0  0  0  0  0  0  0  0  0  0
    2.7848    7.2537   -2.6010 O   0  0  0  0  0  0  0  0  0  0  0  0
   -1.8118    1.3088   -1.0788 O   0  0  0  0  0  0  0  0  0  0  0  0
    9.9484    3.8636   -2.5155 O   0  0  0  0  0  0  0  0  0  0  0  0
    8.4069    4.4586   -4.0058 O   0  0  0  0  0  0  0  0  0  0  0  0
   -0.0486    5.0891   -2.2033 C   0  0  2  0  0  0  0  0  0  0  0  0
    1.3268    5.4393   -1.5715 C   0  0  2  0  0  0  0  0  0  0  0  0
   -0.7170    6.4385   -2.4463 C   0  0  1  0  0  0  0  0  0  0  0  0
    1.5798    6.9234   -1.9468 C   0  0  2  0  0  0  0  0  0  0  0  0
    0.4493    7.2925   -2.8879 C   0  0  0  0  0  0  0  0  0  0  0  0
   -0.8549    4.1651   -1.3481 C   0  0  0  0  0  0  0  0  0  0  0  0
    2.3677    4.3551   -1.9014 C   0  0  0  0  0  0  0  0  0  0  0  0
   -2.6621    2.4593   -1.0071 C   0  0  1  0  0  0  0  0  0  0  0  0
   -1.9587    3.5358   -1.7862 C   0  0  0  0  0  0  0  0  0  0  0  0
    3.2612    4.6289   -3.0675 C   0  0  0  0  0  0  0  0  0  0  0  0
   -4.0025    2.0717   -1.6845 C   0  0  0  0  0  0  0  0  0  0  0  0
   -2.7438    2.8788    0.4692 C   0  0  0  0  0  0  0  0  0  0  0  0
    4.5518    4.7884   -2.9327 C   0  0  0  0  0  0  0  0  0  0  0  0
   -4.6941    0.8486   -1.0473 C   0  0  0  0  0  0  0  0  0  0  0  0
    5.8076    4.9827   -2.7183 C   0  0  0  0  0  0  0  0  0  0  0  0
   -5.1816    1.0666    0.3866 C   0  0  0  0  0  0  0  0  0  0  0  0
    6.5767    4.3614   -1.5887 C   0  0  0  0  0  0  0  0  0  0  0  0
    7.5794    3.3129   -2.0620 C   0  0  0  0  0  0  0  0  0  0  0  0
    8.6651    3.9168   -2.9336 C   0  0  0  0  0  0  0  0  0  0  0  0
   -5.9788    2.3631    0.5263 C   0  0  0  0  0  0  0  0  0  0  0  0
   -7.2963    2.1813   -0.1955 C   0  0  0  0  0  0  0  0  0  0  0  0
   10.3455    3.1860   -1.3226 C   0  0  0  0  0  0  0  0  0  0  0  0
   -1.1901    6.2242   -4.3208 H   0  0  0  0  0  0  0  0  0  0  0  0
    3.5274    7.0614   -2.0038 H   0  0  0  0  0  0  0  0  0  0  0  0
   -2.1088    0.7801   -1.8393 H   0  0  0  0  0  0  0  0  0  0  0  0
    0.1033    4.5677   -3.1582 H   0  0  0  0  0  0  0  0  0  0  0  0
    1.2041    5.4252   -0.4760 H   0  0  0  0  0  0  0  0  0  0  0  0
   -1.1974    6.8205   -1.5371 H   0  0  0  0  0  0  0  0  0  0  0  0
    1.5306    7.5395   -1.0430 H   0  0  0  0  0  0  0  0  0  0  0  0
    0.2183    8.3599   -2.8691 H   0  0  0  0  0  0  0  0  0  0  0  0
    0.7280    7.0596   -3.9252 H   0  0  0  0  0  0  0  0  0  0  0  0
   -0.4525    3.9292   -0.3660 H   0  0  0  0  0  0  0  0  0  0  0  0
    2.9780    4.1860   -1.0043 H   0  0  0  0  0  0  0  0  0  0  0  0
    1.8659    3.3977   -2.0942 H   0  0  0  0  0  0  0  0  0  0  0  0
   -2.3436    3.7792   -2.7739 H   0  0  0  0  0  0  0  0  0  0  0  0
    2.8031    4.9633   -3.9931 H   0  0  0  0  0  0  0  0  0  0  0  0
   -4.6795    2.9321   -1.7571 H   0  0  0  0  0  0  0  0  0  0  0  0
   -3.8114    1.7992   -2.7353 H   0  0  0  0  0  0  0  0  0  0  0  0
   -2.9276    2.0421    1.1310 H   0  0  0  0  0  0  0  0  0  0  0  0
   -1.7919    3.2129    0.8849 H   0  0  0  0  0  0  0  0  0  0  0  0
   -3.4672    3.6821    0.6312 H   0  0  0  0  0  0  0  0  0  0  0  0
   -5.5504    0.5671   -1.6722 H   0  0  0  0  0  0  0  0  0  0  0  0
   -4.0298   -0.0223   -1.0755 H   0  0  0  0  0  0  0  0  0  0  0  0
    6.3609    5.5811   -3.4414 H   0  0  0  0  0  0  0  0  0  0  0  0
   -5.7859    0.2136    0.7104 H   0  0  0  0  0  0  0  0  0  0  0  0
   -4.3599    1.0235    1.0937 H   0  0  0  0  0  0  0  0  0  0  0  0
    7.0867    5.1473   -1.0199 H   0  0  0  0  0  0  0  0  0  0  0  0
    5.8713    3.8822   -0.8952 H   0  0  0  0  0  0  0  0  0  0  0  0
    7.9806    2.8146   -1.1783 H   0  0  0  0  0  0  0  0  0  0  0  0
    7.0822    2.5265   -2.6425 H   0  0  0  0  0  0  0  0  0  0  0  0
   -6.1302    2.6051    1.5824 H   0  0  0  0  0  0  0  0  0  0  0  0
   -5.4701    3.2355    0.1041 H   0  0  0  0  0  0  0  0  0  0  0  0
   -7.8263    1.3284    0.2362 H   0  0  0  0  0  0  0  0  0  0  0  0
   -7.9118    3.0765   -0.1192 H   0  0  0  0  0  0  0  0  0  0  0  0
   -7.1372    1.9787   -1.2600 H   0  0  0  0  0  0  0  0  0  0  0  0
    9.9018    3.6716   -0.4497 H   0  0  0  0  0  0  0  0  0  0  0  0
   10.0783    2.1274   -1.3814 H   0  0  0  0  0  0  0  0  0  0  0  0
   11.4329    3.2627   -1.2452 H   0  0  0  0  0  0  0  0  0  0  0  0
  1 28  1  0  0  0  0
  2 29  1  0  0  0  0
  3 30  1  0  0  0  0
  4 24  1  0  0  0  0
  4 27  1  0  0  0  0
  5 24  2  0  0  0  0
  6  7  1  0  0  0  0
  6  8  1  0  0  0  0
  6 31  1  6  0  0  0
  6 11  1  0  0  0  0
  7  9  1  0  0  0  0
  7 32  1  1  0  0  0
  7 12  1  0  0  0  0
  8 10  1  0  0  0  0
  8 33  1  1  0  0  0
  8  1  1  0  0  0  0
  9 10  1  0  0  0  0
  9 34  1  1  0  0  0
  9  2  1  0  0  0  0
 10 35  1  0  0  0  0
 10 36  1  0  0  0  0
 11 14  2  0  0  0  0
 11 37  1  0  0  0  0
 12 15  1  0  0  0  0
 12 38  1  0  0  0  0
 12 39  1  0  0  0  0
 13 16  1  0  0  0  0
 13 17  1  0  0  0  0
 13 14  1  6  0  0  0
 13  3  1  0  0  0  0
 14 40  1  0  0  0  0
 15 18  2  0  0  0  0
 15 41  1  0  0  0  0
 16 19  1  0  0  0  0
 16 42  1  0  0  0  0
 16 43  1  0  0  0  0
 17 44  1  0  0  0  0
 17 45  1  0  0  0  0
 17 46  1  0  0  0  0
 18 20  2  0  0  0  0
 19 21  1  0  0  0  0
 19 47  1  0  0  0  0
 19 48  1  0  0  0  0
 20 22  1  0  0  0  0
 20 49  1  0  0  0  0
 21 25  1  0  0  0  0
 21 50  1  0  0  0  0
 21 51  1  0  0  0  0
 22 23  1  0  0  0  0
 22 52  1  0  0  0  0
 22 53  1  0  0  0  0
 23 24  1  0  0  0  0
 23 54  1  0  0  0  0
 23 55  1  0  0  0  0
 25 26  1  0  0  0  0
 25 56  1  0  0  0  0
 25 57  1  0  0  0  0
 26 58  1  0  0  0  0
 26 59  1  0  0  0  0
 26 60  1  0  0  0  0
 27 61  1  0  0  0  0
 27 62  1  0  0  0  0
 27 63  1  0  0  0  0
M  END
>  <DRUGBANK_ID>
DB11454

>  <COMMON_NAME>
Prostalene

>  <CAS_NUMBER>
54120-61-5

>  <UNII>
O02SWY8981

>  <SYNONYMS>
Prostalene; Prostaleno

$$$$
