
 OpenBabel10282417133D

 43 45  0  0  0  0  0  0  0  0999 V2000
    1.5777   -0.0773   -0.1217 N   0  0  0  0  0  0  0  0  0  0  0  0
    0.8459   -1.3137    0.7263 S   0  0  0  0  0  0  0  0  0  0  0  0
    1.5949   -1.5274    1.9497 O   0  0  0  0  0  0  0  0  0  0  0  0
   -0.4156   -0.6534    0.7120 O   0  0  0  0  0  0  0  0  0  0  0  0
    0.9514   -2.7831   -0.3055 C   0  0  0  0  0  0  0  0  0  0  0  0
    2.0046   -2.7846   -1.2517 C   0  0  0  0  0  0  0  0  0  0  0  0
    2.4267   -3.9539   -1.9109 C   0  0  0  0  0  0  0  0  0  0  0  0
    1.8121   -5.1567   -1.5770 C   0  0  0  0  0  0  0  0  0  0  0  0
    0.8005   -5.2267   -0.5903 C   0  0  0  0  0  0  0  0  0  0  0  0
    0.4365   -6.5022   -0.1851 N   0  0  0  0  0  0  0  0  0  0  0  0
    1.3795   -7.4960    0.3375 C   0  0  0  0  0  0  0  0  0  0  0  0
    0.7692   -8.8129   -0.1285 C   0  0  0  0  0  0  0  0  0  0  0  0
   -0.7277   -8.5589    0.0104 C   0  0  0  0  0  0  0  0  0  0  0  0
   -0.9140   -7.0461   -0.2263 C   0  0  0  0  0  0  0  0  0  0  0  0
    0.2786   -4.0002   -0.0268 C   0  0  0  0  0  0  0  0  0  0  0  0
   -0.7947   -4.1920    0.8279 O   0  0  0  0  0  0  0  0  0  0  0  0
   -1.6326   -3.1807    1.2329 C   0  0  0  0  0  0  0  0  0  0  0  0
   -2.2693   -2.2613    0.3913 C   0  0  0  0  0  0  0  0  0  0  0  0
   -2.9061   -1.1305    0.9598 C   0  0  0  0  0  0  0  0  0  0  0  0
   -3.0258   -1.0039    2.3444 C   0  0  0  0  0  0  0  0  0  0  0  0
   -2.5536   -2.0242    3.1635 C   0  0  0  0  0  0  0  0  0  0  0  0
   -1.8116   -3.0750    2.6150 C   0  0  0  0  0  0  0  0  0  0  0  0
    3.5809   -3.8478   -2.8615 C   0  0  0  0  0  0  0  0  0  0  0  0
    3.9989   -4.9731   -3.4774 O   0  0  0  0  0  0  0  0  0  0  0  0
    4.1393   -2.7788   -3.0587 O   0  0  0  0  0  0  0  0  0  0  0  0
    0.9164    0.6900    0.0952 H   0  0  0  0  0  0  0  0  0  0  0  0
    2.5279    0.1439    0.1353 H   0  0  0  0  0  0  0  0  0  0  0  0
    2.5447   -1.8612   -1.4580 H   0  0  0  0  0  0  0  0  0  0  0  0
    2.0876   -6.0859   -2.0668 H   0  0  0  0  0  0  0  0  0  0  0  0
    1.3808   -7.4558    1.4345 H   0  0  0  0  0  0  0  0  0  0  0  0
    2.4118   -7.3903   -0.0111 H   0  0  0  0  0  0  0  0  0  0  0  0
    1.0281   -8.9982   -1.1782 H   0  0  0  0  0  0  0  0  0  0  0  0
    1.1076   -9.6749    0.4575 H   0  0  0  0  0  0  0  0  0  0  0  0
   -1.3113   -9.1641   -0.6915 H   0  0  0  0  0  0  0  0  0  0  0  0
   -1.0571   -8.8244    1.0221 H   0  0  0  0  0  0  0  0  0  0  0  0
   -1.3806   -6.8675   -1.1994 H   0  0  0  0  0  0  0  0  0  0  0  0
   -1.5394   -6.6261    0.5654 H   0  0  0  0  0  0  0  0  0  0  0  0
   -2.0354   -2.2313   -0.6713 H   0  0  0  0  0  0  0  0  0  0  0  0
   -3.0843   -0.2483    0.3403 H   0  0  0  0  0  0  0  0  0  0  0  0
   -3.3969   -0.0801    2.7850 H   0  0  0  0  0  0  0  0  0  0  0  0
   -2.7046   -1.9682    4.2366 H   0  0  0  0  0  0  0  0  0  0  0  0
   -1.3035   -3.7715    3.2763 H   0  0  0  0  0  0  0  0  0  0  0  0
    3.5485   -5.8143   -3.3016 H   0  0  0  0  0  0  0  0  0  0  0  0
  1  2  1  0  0  0  0
  1 26  1  0  0  0  0
  1 27  1  0  0  0  0
  2  3  2  0  0  0  0
  2  4  2  0  0  0  0
  2  5  1  0  0  0  0
  5  6  2  0  0  0  0
  5 15  1  0  0  0  0
  6  7  1  0  0  0  0
  6 28  1  0  0  0  0
  7  8  2  0  0  0  0
  7 23  1  0  0  0  0
  8  9  1  0  0  0  0
  8 29  1  0  0  0  0
  9 10  1  0  0  0  0
  9 15  2  0  0  0  0
 10 11  1  0  0  0  0
 10 14  1  0  0  0  0
 11 12  1  0  0  0  0
 11 30  1  0  0  0  0
 11 31  1  0  0  0  0
 12 13  1  0  0  0  0
 12 32  1  0  0  0  0
 12 33  1  0  0  0  0
 13 14  1  0  0  0  0
 13 34  1  0  0  0  0
 13 35  1  0  0  0  0
 14 36  1  0  0  0  0
 14 37  1  0  0  0  0
 15 16  1  0  0  0  0
 16 17  1  0  0  0  0
 17 18  2  0  0  0  0
 17 22  1  0  0  0  0
 18 19  1  0  0  0  0
 18 38  1  0  0  0  0
 19 20  2  0  0  0  0
 19 39  1  0  0  0  0
 20 21  1  0  0  0  0
 20 40  1  0  0  0  0
 21 22  2  0  0  0  0
 21 41  1  0  0  0  0
 22 42  1  0  0  0  0
 23 24  1  0  0  0  0
 23 25  2  0  0  0  0
 24 43  1  0  0  0  0
M  END
>  <DRUGBANK_ID>
DB02925

>  <SECONDARY_ACCESSION_NUMBERS>
EXPT03308

>  <COMMON_NAME>
Piretanide

>  <CAS_NUMBER>
55837-27-9

>  <UNII>
DQ6KK6GV93

>  <SYNONYMS>
Piretanida; Piretanide

$$$$
