5281613
 OpenBabel10282417173D

 75 79  0  0  1  0  0  0  0  0999 V2000
   -0.0959    7.3700   -0.4122 O   0  0  0  0  0  0  0  0  0  0  0  0
   -1.7866    5.0473    1.3416 O   0  0  0  0  0  0  0  0  0  0  0  0
   -0.3791    4.4693   -0.5041 O   0  0  0  0  0  0  0  0  0  0  0  0
   -3.1353    7.0894   -2.4124 O   0  0  0  0  0  0  0  0  0  0  0  0
   -2.8072    9.9556   -2.0367 O   0  0  0  0  0  0  0  0  0  0  0  0
    0.8033    8.9035    1.1808 O   0  0  0  0  0  0  0  0  0  0  0  0
   -1.4392   10.7052    0.4102 O   0  0  0  0  0  0  0  0  0  0  0  0
   -1.5069    2.5604    2.4672 O   0  0  0  0  0  0  0  0  0  0  0  0
    1.1487    2.8976    3.2063 O   0  0  0  0  0  0  0  0  0  0  0  0
    1.1683    5.8375    3.4073 O   0  0  0  0  0  0  0  0  0  0  0  0
    5.2946    8.2009   -0.0210 O   0  0  0  0  0  0  0  0  0  0  0  0
    2.6346   11.6648   -2.1441 O   0  0  0  0  0  0  0  0  0  0  0  0
    5.2251   11.2676   -2.7067 O   0  0  0  0  0  0  0  0  0  0  0  0
   11.1029    5.6086   -0.0092 O   0  0  0  0  0  0  0  0  0  0  0  0
   10.9201    8.6858    0.5473 O   0  0  0  0  0  0  0  0  0  0  0  0
   -1.2989    6.7472   -0.8929 C   0  0  1  0  0  0  0  0  0  0  0  0
   -1.9660    7.6911   -1.8652 C   0  0  2  0  0  0  0  0  0  0  0  0
   -2.3051    8.9940   -1.1092 C   0  0  1  0  0  0  0  0  0  0  0  0
   -1.0703    9.6070   -0.4361 C   0  0  2  0  0  0  0  0  0  0  0  0
   -0.5628    3.0364    1.4803 C   0  0  1  0  0  0  0  0  0  0  0  0
   -1.2683    4.0048    0.5117 C   0  0  1  0  0  0  0  0  0  0  0  0
    0.5802    3.7628    2.2215 C   0  0  1  0  0  0  0  0  0  0  0  0
    0.0830    5.0256    2.9434 C   0  0  2  0  0  0  0  0  0  0  0  0
   -0.3137    8.5527    0.3507 C   0  0  1  0  0  0  0  0  0  0  0  0
   -0.7651    5.8112    1.9842 C   0  0  2  0  0  0  0  0  0  0  0  0
   -0.9563    5.3634   -1.4773 C   0  0  0  0  0  0  0  0  0  0  0  0
   -1.4875    6.9674    2.6488 C   0  0  0  0  0  0  0  0  0  0  0  0
    1.8886    9.2719    0.4651 C   0  0  0  0  0  0  0  0  0  0  0  0
    3.0659    8.5580    0.6089 C   0  0  0  0  0  0  0  0  0  0  0  0
    1.8074   10.3794   -0.3665 C   0  0  0  0  0  0  0  0  0  0  0  0
    4.1428    8.9268   -0.1854 C   0  0  0  0  0  0  0  0  0  0  0  0
    2.8353   10.6853   -1.2218 C   0  0  0  0  0  0  0  0  0  0  0  0
    4.0234    9.9800   -1.1079 C   0  0  0  0  0  0  0  0  0  0  0  0
    5.1993   10.3668   -1.9043 C   0  0  0  0  0  0  0  0  0  0  0  0
    6.3888    8.5903   -0.7593 C   0  0  0  0  0  0  0  0  0  0  0  0
    6.4137    9.5873   -1.6467 C   0  0  0  0  0  0  0  0  0  0  0  0
    7.6051    7.8265   -0.5140 C   0  0  0  0  0  0  0  0  0  0  0  0
    8.7411    8.4949   -0.0608 C   0  0  0  0  0  0  0  0  0  0  0  0
    7.6710    6.4607   -0.7719 C   0  0  0  0  0  0  0  0  0  0  0  0
    9.9478    7.8269    0.1250 C   0  0  0  0  0  0  0  0  0  0  0  0
    8.8801    5.7852   -0.5868 C   0  0  0  0  0  0  0  0  0  0  0  0
   10.0345    6.4536   -0.1316 C   0  0  0  0  0  0  0  0  0  0  0  0
   12.3229    6.1322    0.4743 C   0  0  0  0  0  0  0  0  0  0  0  0
   -3.7954    6.9744   -1.7052 H   0  0  0  0  0  0  0  0  0  0  0  0
   -2.0669   10.1806   -2.6300 H   0  0  0  0  0  0  0  0  0  0  0  0
   -2.0331   10.3810    1.1140 H   0  0  0  0  0  0  0  0  0  0  0  0
   -1.9848    3.3430    2.8048 H   0  0  0  0  0  0  0  0  0  0  0  0
    0.4238    2.7042    3.8312 H   0  0  0  0  0  0  0  0  0  0  0  0
    1.7812    5.9971    2.6658 H   0  0  0  0  0  0  0  0  0  0  0  0
    1.7276   12.0077   -2.0928 H   0  0  0  0  0  0  0  0  0  0  0  0
   11.7721    8.2619    0.6661 H   0  0  0  0  0  0  0  0  0  0  0  0
   -2.0290    6.6058   -0.0970 H   0  0  0  0  0  0  0  0  0  0  0  0
   -1.2762    7.9114   -2.6851 H   0  0  0  0  0  0  0  0  0  0  0  0
   -3.1014    8.8201   -0.3709 H   0  0  0  0  0  0  0  0  0  0  0  0
   -0.4548    9.9857   -1.2473 H   0  0  0  0  0  0  0  0  0  0  0  0
   -0.1723    2.1660    0.9455 H   0  0  0  0  0  0  0  0  0  0  0  0
   -2.1330    3.5138    0.0480 H   0  0  0  0  0  0  0  0  0  0  0  0
    1.3766    4.0180    1.5105 H   0  0  0  0  0  0  0  0  0  0  0  0
   -0.5238    4.7744    3.8157 H   0  0  0  0  0  0  0  0  0  0  0  0
   -1.0307    8.3935    1.1161 H   0  0  0  0  0  0  0  0  0  0  0  0
   -0.0379    6.1571    1.2558 H   0  0  0  0  0  0  0  0  0  0  0  0
   -1.8212    4.8819   -1.9470 H   0  0  0  0  0  0  0  0  0  0  0  0
   -0.1904    5.4990   -2.2497 H   0  0  0  0  0  0  0  0  0  0  0  0
   -0.7760    7.7258    2.9958 H   0  0  0  0  0  0  0  0  0  0  0  0
   -2.2182    7.3967    1.9484 H   0  0  0  0  0  0  0  0  0  0  0  0
   -2.1161    6.6634    3.4777 H   0  0  0  0  0  0  0  0  0  0  0  0
    3.1460    7.7405    1.3203 H   0  0  0  0  0  0  0  0  0  0  0  0
    0.9335   11.0142   -0.3479 H   0  0  0  0  0  0  0  0  0  0  0  0
    7.2884    9.8802   -2.2095 H   0  0  0  0  0  0  0  0  0  0  0  0
    8.7039    9.5632    0.1457 H   0  0  0  0  0  0  0  0  0  0  0  0
    6.7972    5.9240   -1.1354 H   0  0  0  0  0  0  0  0  0  0  0  0
    8.9217    4.7198   -0.8095 H   0  0  0  0  0  0  0  0  0  0  0  0
   12.7222    6.8679   -0.2320 H   0  0  0  0  0  0  0  0  0  0  0  0
   12.1934    6.5406    1.4827 H   0  0  0  0  0  0  0  0  0  0  0  0
   13.0591    5.3290    0.5454 H   0  0  0  0  0  0  0  0  0  0  0  0
  1 16  1  0  0  0  0
  1 24  1  0  0  0  0
  2 21  1  0  0  0  0
  2 25  1  0  0  0  0
  3 26  1  0  0  0  0
  4 44  1  0  0  0  0
  5 45  1  0  0  0  0
  6 28  1  0  0  0  0
  7 46  1  0  0  0  0
  8 47  1  0  0  0  0
  9 48  1  0  0  0  0
 10 49  1  0  0  0  0
 11 31  1  0  0  0  0
 11 35  1  0  0  0  0
 12 32  1  0  0  0  0
 12 50  1  0  0  0  0
 13 34  2  0  0  0  0
 14 42  1  0  0  0  0
 14 43  1  0  0  0  0
 15 40  1  0  0  0  0
 15 51  1  0  0  0  0
 16 17  1  0  0  0  0
 16 26  1  0  0  0  0
 16 52  1  1  0  0  0
 17  4  1  0  0  0  0
 17 18  1  0  0  0  0
 17 53  1  6  0  0  0
 18  5  1  0  0  0  0
 18 19  1  0  0  0  0
 18 54  1  1  0  0  0
 19  7  1  0  0  0  0
 19 24  1  0  0  0  0
 19 55  1  6  0  0  0
 20  8  1  0  0  0  0
 20 21  1  0  0  0  0
 20 22  1  0  0  0  0
 20 56  1  6  0  0  0
 21 57  1  6  0  0  0
 21  3  1  0  0  0  0
 22  9  1  0  0  0  0
 22 23  1  0  0  0  0
 22 58  1  6  0  0  0
 23 10  1  0  0  0  0
 23 25  1  0  0  0  0
 23 59  1  1  0  0  0
 24  6  1  0  0  0  0
 24 60  1  1  0  0  0
 25 27  1  0  0  0  0
 25 61  1  6  0  0  0
 26 62  1  0  0  0  0
 26 63  1  0  0  0  0
 27 64  1  0  0  0  0
 27 65  1  0  0  0  0
 27 66  1  0  0  0  0
 28 29  1  0  0  0  0
 28 30  2  0  0  0  0
 29 31  2  0  0  0  0
 29 67  1  0  0  0  0
 30 32  1  0  0  0  0
 30 68  1  0  0  0  0
 31 33  1  0  0  0  0
 32 33  2  0  0  0  0
 33 34  1  0  0  0  0
 34 36  1  0  0  0  0
 35 36  2  0  0  0  0
 35 37  1  0  0  0  0
 36 69  1  0  0  0  0
 37 38  2  0  0  0  0
 37 39  1  0  0  0  0
 38 40  1  0  0  0  0
 38 70  1  0  0  0  0
 39 41  2  0  0  0  0
 39 71  1  0  0  0  0
 40 42  2  0  0  0  0
 41 42  1  0  0  0  0
 41 72  1  0  0  0  0
 43 73  1  0  0  0  0
 43 74  1  0  0  0  0
 43 75  1  0  0  0  0
M  END
>  <DRUGBANK_ID>
DB08995

>  <COMMON_NAME>
Diosmin

>  <CAS_NUMBER>
520-27-4

>  <UNII>
7QM776WJ5N

>  <SYNONYMS>
3',5,7-trihydroxy-4'-methoxyflavone 7-rhamnoglucoside; 3',5,7-trihydroxy-4'-methoxyflavone-7-rutinoside; diosmetin 7-neohesperidoside; Diosmetin 7-O-rutinoside; Diosmin; Diosmina; Diosmine; Diosminum

$$$$
