HM5
 OpenBabel10282417163D

 37 38  0  0  0  0  0  0  0  0999 V2000
   -0.8944    0.1340   -0.9431 S   0  0  0  0  0  0  0  0  0  0  0  0
    1.7513   -0.3829   -0.4481 N   0  0  0  0  0  0  0  0  0  0  0  0
    0.5881   -2.9484    0.0068 N   0  0  0  0  0  0  0  0  0  0  0  0
   -2.4744   -5.4240   -0.9033 N   0  0  0  0  0  0  0  0  0  0  0  0
    0.0475   -4.8419    1.7974 N   0  0  0  0  0  0  0  0  0  0  0  0
    0.0657    1.3803   -0.2106 C   0  0  0  0  0  0  0  0  0  0  0  0
    1.3768    0.9413   -0.1790 C   0  0  0  0  0  0  0  0  0  0  0  0
    0.7185   -1.1616   -0.4295 C   0  0  0  0  0  0  0  0  0  0  0  0
   -1.1771   -3.7418   -0.1760 C   0  0  0  0  0  0  0  0  0  0  0  0
   -1.5217   -5.0206   -0.0238 C   0  0  0  0  0  0  0  0  0  0  0  0
   -2.6162   -6.7066   -0.9144 C   0  0  0  0  0  0  0  0  0  0  0  0
   -1.8278   -7.4854   -0.0845 C   0  0  0  0  0  0  0  0  0  0  0  0
   -0.8901   -6.9228    0.8274 C   0  0  0  0  0  0  0  0  0  0  0  0
   -0.7516   -5.5831    0.9055 C   0  0  0  0  0  0  0  0  0  0  0  0
    0.0877   -3.4253    1.9770 C   0  0  0  0  0  0  0  0  0  0  0  0
   -0.8899   -2.1811    0.8493 C   0  0  0  0  0  0  0  0  0  0  0  0
   -2.3297   -2.5093    1.5580 C   0  0  0  0  0  0  0  0  0  0  0  0
   -0.5102   -2.4637   -1.3410 C   0  0  0  0  0  0  0  0  0  0  0  0
   -0.3142   -1.0355    1.6883 C   0  0  0  0  0  0  0  0  0  0  0  0
   -2.2507   -3.1070   -0.6287 O   0  0  0  0  0  0  0  0  0  0  0  0
    1.0351   -3.0497    2.6991 O   0  0  0  0  0  0  0  0  0  0  0  0
    1.4623   -3.3816    0.1262 H   0  0  0  0  0  0  0  0  0  0  0  0
    0.7178   -5.3704    2.3548 H   0  0  0  0  0  0  0  0  0  0  0  0
   -0.3081    2.3754    0.0400 H   0  0  0  0  0  0  0  0  0  0  0  0
    2.2041    1.5728    0.0713 H   0  0  0  0  0  0  0  0  0  0  0  0
   -3.3491   -7.0628   -1.6171 H   0  0  0  0  0  0  0  0  0  0  0  0
   -1.9601   -8.5474   -0.1424 H   0  0  0  0  0  0  0  0  0  0  0  0
   -0.3056   -7.5482    1.4721 H   0  0  0  0  0  0  0  0  0  0  0  0
   -2.3143   -2.3429    2.6373 H   0  0  0  0  0  0  0  0  0  0  0  0
   -3.0209   -1.8527    1.0541 H   0  0  0  0  0  0  0  0  0  0  0  0
   -2.6742   -3.5640    1.5011 H   0  0  0  0  0  0  0  0  0  0  0  0
   -0.2154   -3.7801   -1.6191 H   0  0  0  0  0  0  0  0  0  0  0  0
   -1.0900   -2.0363   -2.0867 H   0  0  0  0  0  0  0  0  0  0  0  0
    0.6783   -2.6235   -1.7780 H   0  0  0  0  0  0  0  0  0  0  0  0
   -0.6244   -0.7341    2.6761 H   0  0  0  0  0  0  0  0  0  0  0  0
    0.7801   -0.9247    1.6410 H   0  0  0  0  0  0  0  0  0  0  0  0
   -0.8846   -0.3327    1.1820 H   0  0  0  0  0  0  0  0  0  0  0  0
  1  8  1  0  0  0  0
  1  6  1  0  0  0  0
  2  8  2  0  0  0  0
  2  7  1  0  0  0  0
  3  9  1  0  0  0  0
  3  8  1  0  0  0  0
  3 22  1  0  0  0  0
  4 11  2  0  0  0  0
  4 10  1  0  0  0  0
  5 14  1  0  0  0  0
  5 15  1  0  0  0  0
  5 23  1  0  0  0  0
  6  7  2  0  0  0  0
  6 24  1  0  0  0  0
  7 25  1  0  0  0  0
  9 10  1  0  0  0  0
  9 20  2  0  0  0  0
 10 14  2  0  0  0  0
 11 12  1  0  0  0  0
 11 26  1  0  0  0  0
 12 13  2  0  0  0  0
 12 27  1  0  0  0  0
 13 14  1  0  0  0  0
 13 28  1  0  0  0  0
 15 21  2  0  0  0  0
 15 16  1  0  0  0  0
 16 18  1  0  0  0  0
 16 17  1  0  0  0  0
 16 19  1  0  0  0  0
 17 29  1  0  0  0  0
 17 30  1  0  0  0  0
 17 31  1  0  0  0  0
 18 32  1  0  0  0  0
 18 33  1  0  0  0  0
 18 34  1  0  0  0  0
 19 35  1  0  0  0  0
 19 36  1  0  0  0  0
 19 37  1  0  0  0  0
M  END
>  <DRUGBANK_ID>
DB07903

>  <COMMON_NAME>
3-[(2,2-DIMETHYLPROPANOYL)AMINO]-N-1,3-THIAZOL-2-YLPYRIDINE-2-CARBOXAMIDE

$$$$
