
 OpenBabel10282417183D

  8  6  0  0  0  0  0  0  0  0999 V2000
   -0.4801   -1.0510   -0.1063 Na  0  3  0  0  0  0  0  0  0  0  0  0
    1.0692    0.0559    0.0455 O   0  0  0  0  0  0  0  0  0  0  0  0
    2.6176    0.0559    0.0455 P   0  0  0  0  0  0  0  0  0  0  0  0
    2.7608   -0.1460   -1.4557 O   0  5  0  0  0  0  0  0  0  0  0  0
    2.6782    1.6354    0.3904 O   0  0  0  0  0  0  0  0  0  0  0  0
    4.3476    0.0559    0.0455 O   0  0  0  0  0  0  0  0  0  0  0  0
    1.7783    1.9489    0.2920 H   0  0  0  0  0  0  0  0  0  0  0  0
    4.4918   -0.2093   -0.8883 H   0  0  0  0  0  0  0  0  0  0  0  0
  2  3  2  0  0  0  0
  3  4  1  0  0  0  0
  3  5  1  0  0  0  0
  3  6  1  0  0  0  0
  5  7  1  0  0  0  0
  6  8  1  0  0  0  0
M  CHG  2   1   1   4  -1
M  END
>  <DRUGBANK_ID>
DB09449

>  <SECONDARY_ACCESSION_NUMBERS>
DB09127; DB11083; DB09524; DB09542; DB09468; DB11084; DB09482; DB09469; DB09525; DBSALT001969

>  <COMMON_NAME>
Sodium phosphate, monobasic

>  <CAS_NUMBER>
7558-80-7

>  <UNII>
KH7I04HPUU

>  <SYNONYMS>
Disodium hydrogen phosphate anhydrous; Monosodium dihydrogen monophosphate; Monosodium dihydrogen orthophosphate; Monosodium monophosphate; Monosodium phosphate, anhydrous; Phosphoric acid, monosodium salt, anhydrous; Sodium acid phosphate; Sodium biphosphate, anhydrous; Sodium dihydrogen phosphate; Sodium dihydrogen phosphate, anhydrous; Sodium orthophosphate; Sodium orthophosphate monobasic; Sodium phosphate monobasic; Sodium phosphate monobasic (anhydrate); Sodium phosphate monobasic (anhydrous); Sodium phosphate, monobasic; Sodium phosphate, monobasic anhydrous; Sodium phosphate,monobasic; Sodium primary phosphate

$$$$
