
 OpenBabel10282417203D

 33 34  0  0  0  0  0  0  0  0999 V2000
    2.0105    0.1145    0.9298 C   0  0  0  0  0  0  0  0  0  0  0  0
    1.1961    1.6089    2.6782 C   0  0  0  0  0  0  0  0  0  0  0  0
   -1.2878   -0.7804   -1.7217 C   0  0  0  0  0  0  0  0  0  0  0  0
   -2.2472    4.3071    1.2409 C   0  0  0  0  0  0  0  0  0  0  0  0
    0.0573   -0.3687   -0.3877 C   0  0  0  0  0  0  0  0  0  0  0  0
   -0.2961    4.1279   -0.5114 C   0  0  0  0  0  0  0  0  0  0  0  0
   -0.6490   -0.7414    0.7265 C   0  0  0  0  0  0  0  0  0  0  0  0
    0.2943    3.1177   -1.2101 C   0  0  0  0  0  0  0  0  0  0  0  0
   -1.6539    1.2954    1.3135 C   0  0  0  0  0  0  0  0  0  0  0  0
    0.8635    0.3162    2.0436 C   0  0  0  0  0  0  0  0  0  0  0  0
   -0.3801    0.5647   -1.4265 C   0  0  0  0  0  0  0  0  0  0  0  0
   -1.3274    3.5840    0.3508 C   0  0  0  0  0  0  0  0  0  0  0  0
   -0.7092    0.3474    1.6465 C   0  0  0  0  0  0  0  0  0  0  0  0
   -0.4648    1.8574   -0.9131 C   0  0  0  0  0  0  0  0  0  0  0  0
   -1.2465    2.2006    0.2769 C   0  0  0  0  0  0  0  0  0  0  0  0
    1.7869    0.8713    0.1706 H   0  0  0  0  0  0  0  0  0  0  0  0
    2.0210   -0.9293    0.5611 H   0  0  0  0  0  0  0  0  0  0  0  0
    3.0740    0.3216    1.0396 H   0  0  0  0  0  0  0  0  0  0  0  0
    0.8299    2.4166    2.0451 H   0  0  0  0  0  0  0  0  0  0  0  0
    0.7292    1.6421    3.6576 H   0  0  0  0  0  0  0  0  0  0  0  0
    2.2804    1.6820    2.7362 H   0  0  0  0  0  0  0  0  0  0  0  0
   -1.2989   -1.1168   -2.7486 H   0  0  0  0  0  0  0  0  0  0  0  0
   -0.8778   -1.7898   -1.3238 H   0  0  0  0  0  0  0  0  0  0  0  0
   -2.2502   -0.6903   -1.2113 H   0  0  0  0  0  0  0  0  0  0  0  0
   -3.2721    4.0748    0.9173 H   0  0  0  0  0  0  0  0  0  0  0  0
   -2.1509    3.9905    2.2842 H   0  0  0  0  0  0  0  0  0  0  0  0
   -2.1314    5.3950    1.1859 H   0  0  0  0  0  0  0  0  0  0  0  0
    0.8441   -0.9398   -0.8783 H   0  0  0  0  0  0  0  0  0  0  0  0
    0.0390    5.1645   -0.4269 H   0  0  0  0  0  0  0  0  0  0  0  0
   -0.5429   -1.6793    1.2573 H   0  0  0  0  0  0  0  0  0  0  0  0
    1.2230    3.2427   -1.7495 H   0  0  0  0  0  0  0  0  0  0  0  0
   -2.6841    1.0081    1.0550 H   0  0  0  0  0  0  0  0  0  0  0  0
    0.9636   -0.5456    2.7303 H   0  0  0  0  0  0  0  0  0  0  0  0
  1 16  1  0  0  0  0
  1 17  1  0  0  0  0
  1 18  1  0  0  0  0
  2 19  1  0  0  0  0
  2 20  1  0  0  0  0
  2 21  1  0  0  0  0
  3 22  1  0  0  0  0
  3 23  1  0  0  0  0
  3 24  1  0  0  0  0
  4 25  1  0  0  0  0
  4 26  1  0  0  0  0
  4 27  1  0  0  0  0
  5 28  1  0  0  0  0
  6 29  1  0  0  0  0
  7  5  2  0  0  0  0
  7 30  1  0  0  0  0
  8  6  2  0  0  0  0
  8 31  1  0  0  0  0
  9 32  1  0  0  0  0
 10  1  1  0  0  0  0
 10  2  1  0  0  0  0
 10 33  1  0  0  0  0
 11  3  1  0  0  0  0
 11  5  1  0  0  0  0
 12  4  1  0  0  0  0
 12  6  1  0  0  0  0
 13  7  1  0  0  0  0
 13  9  2  0  0  0  0
 13 10  1  0  0  0  0
 14  8  1  0  0  0  0
 14 11  2  0  0  0  0
 15  9  1  0  0  0  0
 15 12  2  0  0  0  0
 15 14  1  0  0  0  0
M  END
>  <DRUGBANK_ID>
DB13329

>  <COMMON_NAME>
Guaiazulen

>  <CAS_NUMBER>
489-84-9

>  <UNII>
2OZ1K9JKQC

>  <SYNONYMS>
Guaiazulene

$$$$
