
 OpenBabel10282417143D

 54 57  0  0  0  0  0  0  0  0999 V2000
   -0.9995   -0.0222   -0.1558 H   0  0  0  0  0  0  0  0  0  0  0  0
   -2.0912    0.0152   -0.0728 C   0  0  1  0  0  0  0  0  0  0  0  0
   -2.2976    0.5135    1.3517 C   0  0  0  0  0  0  0  0  0  0  0  0
   -2.1521    2.0285    1.4697 C   0  0  0  0  0  0  0  0  0  0  0  0
   -2.9616    2.8860    0.4273 C   0  0  1  0  0  0  0  0  0  0  0  0
   -2.4158    2.4452   -0.9528 C   0  0  1  0  0  0  0  0  0  0  0  0
   -1.3783    2.7804   -1.0639 H   0  0  0  0  0  0  0  0  0  0  0  0
   -3.3465    3.1281   -1.9425 C   0  0  0  0  0  0  0  0  0  0  0  0
   -4.7315    2.6788   -1.3674 C   0  0  0  0  0  0  0  0  0  0  0  0
   -4.5531    2.6536    0.2442 C   0  0  2  0  0  0  0  0  0  0  0  0
   -5.4047    3.7227    0.6764 O   0  0  0  0  0  0  0  0  0  0  0  0
   -4.9849    1.6045    1.2071 C   0  0  0  0  0  0  0  0  0  0  0  0
   -5.1738    1.0960    2.3186 C   0  0  0  0  0  0  0  0  0  0  0  0
   -2.5473    0.9170   -1.2078 C   0  0  2  0  0  0  0  0  0  0  0  0
   -1.8465    0.4731   -2.5170 C   0  0  1  0  0  0  0  0  0  0  0  0
   -0.4452    0.7054   -2.4614 O   0  0  0  0  0  0  0  0  0  0  0  0
   -2.0382   -0.9929   -2.7611 C   0  0  0  0  0  0  0  0  0  0  0  0
   -2.3732   -1.8614   -1.7881 C   0  0  0  0  0  0  0  0  0  0  0  0
   -2.6550   -3.3248   -2.0541 C   0  0  0  0  0  0  0  0  0  0  0  0
   -4.1424   -3.4731   -1.6758 C   0  0  2  0  0  0  0  0  0  0  0  0
   -4.4229   -3.1903   -0.1816 C   0  0  0  0  0  0  0  0  0  0  0  0
   -4.1623   -1.6756    0.0017 C   0  0  0  0  0  0  0  0  0  0  0  0
   -2.6282   -1.4310   -0.3233 C   0  0  2  0  0  0  0  0  0  0  0  0
   -1.8207   -2.3122    0.6662 C   0  0  0  0  0  0  0  0  0  0  0  0
   -4.7932   -4.6254   -2.1719 O   0  0  0  0  0  0  0  0  0  0  0  0
   -3.5987    0.6593   -1.3358 H   0  0  0  0  0  0  0  0  0  0  0  0
   -2.5910    4.3805    0.6335 C   0  0  0  0  0  0  0  0  0  0  0  0
   -3.2156    0.1475    1.7826 H   0  0  0  0  0  0  0  0  0  0  0  0
   -1.5716    0.0156    2.0060 H   0  0  0  0  0  0  0  0  0  0  0  0
   -2.3570    2.3599    2.4948 H   0  0  0  0  0  0  0  0  0  0  0  0
   -1.0746    2.2082    1.3228 H   0  0  0  0  0  0  0  0  0  0  0  0
   -3.2896    4.2243   -2.0107 H   0  0  0  0  0  0  0  0  0  0  0  0
   -3.0587    2.8083   -2.9507 H   0  0  0  0  0  0  0  0  0  0  0  0
   -5.4803    3.4002   -1.7158 H   0  0  0  0  0  0  0  0  0  0  0  0
   -5.0170    1.7402   -1.8612 H   0  0  0  0  0  0  0  0  0  0  0  0
   -6.2217    3.2839    1.0069 H   0  0  0  0  0  0  0  0  0  0  0  0
   -5.1061    0.7288    3.3172 H   0  0  0  0  0  0  0  0  0  0  0  0
   -2.2307    1.0169   -3.3847 H   0  0  0  0  0  0  0  0  0  0  0  0
   -0.2585    1.2822   -1.7035 H   0  0  0  0  0  0  0  0  0  0  0  0
   -1.9254   -1.3272   -3.7901 H   0  0  0  0  0  0  0  0  0  0  0  0
   -2.4794   -3.6698   -3.0801 H   0  0  0  0  0  0  0  0  0  0  0  0
   -1.9248   -3.9004   -1.4728 H   0  0  0  0  0  0  0  0  0  0  0  0
   -4.6296   -2.6664   -2.2341 H   0  0  0  0  0  0  0  0  0  0  0  0
   -5.4203   -3.5155    0.1315 H   0  0  0  0  0  0  0  0  0  0  0  0
   -3.7614   -3.7635    0.4780 H   0  0  0  0  0  0  0  0  0  0  0  0
   -4.9329   -1.1535   -0.5972 H   0  0  0  0  0  0  0  0  0  0  0  0
   -4.3644   -1.2986    1.0038 H   0  0  0  0  0  0  0  0  0  0  0  0
   -1.7666   -3.3644    0.3938 H   0  0  0  0  0  0  0  0  0  0  0  0
   -0.7869   -1.9773    0.7550 H   0  0  0  0  0  0  0  0  0  0  0  0
   -2.2882   -2.2794    1.6572 H   0  0  0  0  0  0  0  0  0  0  0  0
   -5.3545   -4.2958   -2.9051 H   0  0  0  0  0  0  0  0  0  0  0  0
   -1.9355    4.7495   -0.1661 H   0  0  0  0  0  0  0  0  0  0  0  0
   -3.4627    5.0375    0.6462 H   0  0  0  0  0  0  0  0  0  0  0  0
   -2.0380    4.5404    1.5645 H   0  0  0  0  0  0  0  0  0  0  0  0
  2 23  1  0  0  0  0
  2  1  1  1  0  0  0
  3  2  1  0  0  0  0
  3 28  1  0  0  0  0
  3 29  1  0  0  0  0
  4  3  1  0  0  0  0
  4 30  1  0  0  0  0
  4 31  1  0  0  0  0
  5  4  1  0  0  0  0
  5 27  1  1  0  0  0
  6  5  1  0  0  0  0
  6 14  1  0  0  0  0
  6  7  1  1  0  0  0
  8  6  1  0  0  0  0
  8 32  1  0  0  0  0
  8 33  1  0  0  0  0
  9  8  1  0  0  0  0
  9 34  1  0  0  0  0
  9 35  1  0  0  0  0
 10  9  1  0  0  0  0
 10  5  1  0  0  0  0
 10 11  1  0  0  0  0
 10 12  1  1  0  0  0
 11 36  1  0  0  0  0
 12 13  3  0  0  0  0
 13 37  1  0  0  0  0
 14 15  1  0  0  0  0
 14  2  1  0  0  0  0
 14 26  1  1  0  0  0
 15 17  1  0  0  0  0
 15 38  1  6  0  0  0
 15 16  1  0  0  0  0
 16 39  1  0  0  0  0
 17 18  2  0  0  0  0
 17 40  1  0  0  0  0
 18 23  1  0  0  0  0
 19 18  1  0  0  0  0
 19 41  1  0  0  0  0
 19 42  1  0  0  0  0
 20 19  1  0  0  0  0
 20 21  1  0  0  0  0
 20 25  1  0  0  0  0
 20 43  1  6  0  0  0
 21 22  1  0  0  0  0
 21 44  1  0  0  0  0
 21 45  1  0  0  0  0
 22 23  1  0  0  0  0
 22 46  1  0  0  0  0
 22 47  1  0  0  0  0
 23 24  1  1  0  0  0
 24 48  1  0  0  0  0
 24 49  1  0  0  0  0
 24 50  1  0  0  0  0
 25 51  1  0  0  0  0
 27 52  1  0  0  0  0
 27 53  1  0  0  0  0
 27 54  1  0  0  0  0
M  END
>  <DRUGBANK_ID>
DB05212

>  <COMMON_NAME>
HE3286

>  <CAS_NUMBER>
1001100-69-1

>  <UNII>
PH8858757I

$$$$
