BDE
 OpenBabel10282417163D

 30 31  0  0  0  0  0  0  0  0999 V2000
    1.0229    0.2716   -0.3276 C   0  0  0  0  0  0  0  0  0  0  0  0
    0.1855    1.3741   -0.1380 C   0  0  0  0  0  0  0  0  0  0  0  0
   -1.1443    1.1218    0.0114 C   0  0  0  0  0  0  0  0  0  0  0  0
   -1.6216   -0.1388    0.0595 N   0  0  0  0  0  0  0  0  0  0  0  0
   -0.7223   -1.1883    0.0043 C   0  0  0  0  0  0  0  0  0  0  0  0
    0.6562   -1.0640   -0.1522 C   0  0  0  0  0  0  0  0  0  0  0  0
    1.5460   -2.3315   -0.1034 C   0  0  0  0  0  0  0  0  0  0  0  0
    0.9586   -3.4030   -0.0146 O   0  0  0  0  0  0  0  0  0  0  0  0
    2.9749   -2.4090   -0.1064 N   0  0  0  0  0  0  0  0  0  0  0  0
    3.9591   -1.4332   -0.3118 N   0  0  0  0  0  0  0  0  0  0  0  0
    3.6807   -0.3297    0.3124 C   0  0  0  0  0  0  0  0  0  0  0  0
    4.2001    1.0506    0.1806 C   0  0  0  0  0  0  0  0  0  0  0  0
    5.1185    1.3758   -0.8160 C   0  0  0  0  0  0  0  0  0  0  0  0
    5.6412    2.6740   -0.8641 C   0  0  0  0  0  0  0  0  0  0  0  0
    7.0430    3.0370   -2.0869 Br  0  0  0  0  0  0  0  0  0  0  0  0
    5.1875    3.6727    0.0079 C   0  0  0  0  0  0  0  0  0  0  0  0
    5.7538    4.9197    0.0241 O   0  0  0  0  0  0  0  0  0  0  0  0
    4.1540    3.3936    0.8980 C   0  0  0  0  0  0  0  0  0  0  0  0
    3.4625    4.7763    2.0225 Br  0  0  0  0  0  0  0  0  0  0  0  0
    3.6505    2.0864    0.9852 C   0  0  0  0  0  0  0  0  0  0  0  0
    2.6090    1.9286    1.8693 O   0  0  0  0  0  0  0  0  0  0  0  0
    1.9919    0.5805   -0.6493 H   0  0  0  0  0  0  0  0  0  0  0  0
    0.5948    2.3822   -0.1537 H   0  0  0  0  0  0  0  0  0  0  0  0
   -1.8512    1.9463    0.0549 H   0  0  0  0  0  0  0  0  0  0  0  0
   -1.2046   -2.1611    0.0696 H   0  0  0  0  0  0  0  0  0  0  0  0
    3.3249   -3.3751   -0.1233 H   0  0  0  0  0  0  0  0  0  0  0  0
    2.8350   -0.4080    0.9826 H   0  0  0  0  0  0  0  0  0  0  0  0
    5.4229    0.6306   -1.5482 H   0  0  0  0  0  0  0  0  0  0  0  0
    6.5253    4.9186   -0.5687 H   0  0  0  0  0  0  0  0  0  0  0  0
    2.1203    1.0954    1.8232 H   0  0  0  0  0  0  0  0  0  0  0  0
  1  2  2  0  0  0  0
  1  6  1  0  0  0  0
  1 22  1  0  0  0  0
  2  3  1  0  0  0  0
  2 23  1  0  0  0  0
  3  4  2  0  0  0  0
  3 24  1  0  0  0  0
  4  5  1  0  0  0  0
  5  6  2  0  0  0  0
  5 25  1  0  0  0  0
  6  7  1  0  0  0  0
  7  8  2  0  0  0  0
  7  9  1  0  0  0  0
  9 10  1  0  0  0  0
  9 26  1  0  0  0  0
 10 11  2  0  0  0  0
 11 12  1  0  0  0  0
 11 27  1  0  0  0  0
 12 13  2  0  0  0  0
 12 20  1  0  0  0  0
 13 14  1  0  0  0  0
 13 28  1  0  0  0  0
 14 15  1  0  0  0  0
 14 16  2  0  0  0  0
 16 17  1  0  0  0  0
 16 18  1  0  0  0  0
 17 29  1  0  0  0  0
 18 19  1  0  0  0  0
 18 20  2  0  0  0  0
 20 21  1  0  0  0  0
 21 30  1  0  0  0  0
M  END
>  <DRUGBANK_ID>
DB07445

>  <COMMON_NAME>
N'-[(1E)-(3,5-DIBROMO-2,4-DIHYDROXYPHENYL)METHYLENE]NICOTINOHYDRAZIDE

$$$$
