27U
 OpenBabel10282417163D

 54 56  0  0  0  0  0  0  0  0999 V2000
    0.8887   -0.0491    0.0913 C   0  0  0  0  0  0  0  0  0  0  0  0
    0.6060   -0.9007   -1.1369 C   0  0  0  0  0  0  0  0  0  0  0  0
    1.1797   -2.3117   -1.2429 C   0  0  0  0  0  0  0  0  0  0  0  0
    0.4251   -3.2392   -1.5584 O   0  0  0  0  0  0  0  0  0  0  0  0
    2.5227   -2.5458   -1.0751 N   0  0  0  0  0  0  0  0  0  0  0  0
    3.5188   -1.8558   -0.2726 C   0  0  0  0  0  0  0  0  0  0  0  0
    4.7358   -1.9148   -1.1562 C   0  0  0  0  0  0  0  0  0  0  0  0
    4.6670   -3.3350   -1.7029 C   0  0  0  0  0  0  0  0  0  0  0  0
    3.1605   -3.6788   -1.7556 C   0  0  1  0  0  0  0  0  0  0  0  0
    2.8836   -5.0380   -1.0707 C   0  0  0  0  0  0  0  0  0  0  0  0
    1.9386   -5.8179   -1.6981 N   0  0  0  0  0  0  0  0  0  0  0  0
    1.4391   -7.0454   -1.1161 C   0  0  0  0  0  0  0  0  0  0  0  0
   -0.0363   -6.9462   -0.8241 C   0  0  0  0  0  0  0  0  0  0  0  0
   -0.4961   -6.5041    0.4211 C   0  0  0  0  0  0  0  0  0  0  0  0
   -1.8687   -6.3756    0.6686 C   0  0  0  0  0  0  0  0  0  0  0  0
   -2.8084   -6.6669   -0.3309 C   0  0  0  0  0  0  0  0  0  0  0  0
   -2.3396   -7.0473   -1.5945 C   0  0  0  0  0  0  0  0  0  0  0  0
   -0.9726   -7.2303   -1.8235 C   0  0  0  0  0  0  0  0  0  0  0  0
   -4.2807   -6.6289   -0.0309 C   0  0  0  0  0  0  0  0  0  0  0  0
   -5.2027   -6.9286   -0.8948 N   0  0  0  0  0  0  0  0  0  0  0  0
   -4.7470   -6.3001    1.2006 N   0  0  0  0  0  0  0  0  0  0  0  0
    3.4411   -5.3817   -0.0199 O   0  0  0  0  0  0  0  0  0  0  0  0
    0.5171   -0.6750    1.4146 C   0  0  0  0  0  0  0  0  0  0  0  0
    0.5857   -2.0585    1.6447 C   0  0  0  0  0  0  0  0  0  0  0  0
    0.3662   -2.6239    2.8892 C   0  0  0  0  0  0  0  0  0  0  0  0
    0.0987   -1.7990    3.9616 C   0  0  0  0  0  0  0  0  0  0  0  0
    0.0385   -0.4173    3.7728 C   0  0  0  0  0  0  0  0  0  0  0  0
    0.2057    0.1430    2.5020 C   0  0  0  0  0  0  0  0  0  0  0  0
    2.8020   -3.7015   -2.7910 H   0  0  0  0  0  0  0  0  0  0  0  0
    0.3779    0.9161   -0.0347 H   0  0  0  0  0  0  0  0  0  0  0  0
    1.9309    0.2569    0.1336 H   0  0  0  0  0  0  0  0  0  0  0  0
   -0.4877   -0.9956   -1.2127 H   0  0  0  0  0  0  0  0  0  0  0  0
    0.9265   -0.3756   -2.0445 H   0  0  0  0  0  0  0  0  0  0  0  0
    3.6644   -2.4285    0.6533 H   0  0  0  0  0  0  0  0  0  0  0  0
    3.3133   -0.8360   -0.0022 H   0  0  0  0  0  0  0  0  0  0  0  0
    4.6221   -1.1858   -1.9690 H   0  0  0  0  0  0  0  0  0  0  0  0
    5.6592   -1.6904   -0.6172 H   0  0  0  0  0  0  0  0  0  0  0  0
    5.1293   -3.3935   -2.6918 H   0  0  0  0  0  0  0  0  0  0  0  0
    5.2249   -4.0017   -1.0372 H   0  0  0  0  0  0  0  0  0  0  0  0
    1.3818   -5.3906   -2.4317 H   0  0  0  0  0  0  0  0  0  0  0  0
    1.6178   -7.8450   -1.8436 H   0  0  0  0  0  0  0  0  0  0  0  0
    1.9903   -7.3065   -0.2069 H   0  0  0  0  0  0  0  0  0  0  0  0
    0.2127   -6.2606    1.2105 H   0  0  0  0  0  0  0  0  0  0  0  0
   -2.1728   -6.0357    1.6522 H   0  0  0  0  0  0  0  0  0  0  0  0
   -3.0091   -7.2082   -2.4312 H   0  0  0  0  0  0  0  0  0  0  0  0
   -0.6454   -7.5980   -2.7933 H   0  0  0  0  0  0  0  0  0  0  0  0
   -4.8221   -7.1813   -1.8046 H   0  0  0  0  0  0  0  0  0  0  0  0
   -4.1696   -6.1255    2.0054 H   0  0  0  0  0  0  0  0  0  0  0  0
   -5.7463   -6.3790    1.3402 H   0  0  0  0  0  0  0  0  0  0  0  0
    0.8304   -2.7837    0.8866 H   0  0  0  0  0  0  0  0  0  0  0  0
    0.4423   -3.7028    2.9905 H   0  0  0  0  0  0  0  0  0  0  0  0
   -0.0540   -2.2384    4.9403 H   0  0  0  0  0  0  0  0  0  0  0  0
   -0.1205    0.2293    4.6293 H   0  0  0  0  0  0  0  0  0  0  0  0
    0.1097    1.2196    2.3758 H   0  0  0  0  0  0  0  0  0  0  0  0
  1  2  1  0  0  0  0
  1 23  1  0  0  0  0
  1 30  1  0  0  0  0
  1 31  1  0  0  0  0
  2  3  1  0  0  0  0
  2 32  1  0  0  0  0
  2 33  1  0  0  0  0
  3  4  2  0  0  0  0
  3  5  1  0  0  0  0
  5  6  1  0  0  0  0
  5  9  1  0  0  0  0
  6  7  1  0  0  0  0
  6 34  1  0  0  0  0
  6 35  1  0  0  0  0
  7  8  1  0  0  0  0
  7 36  1  0  0  0  0
  7 37  1  0  0  0  0
  8  9  1  0  0  0  0
  8 38  1  0  0  0  0
  8 39  1  0  0  0  0
  9 29  1  6  0  0  0
  9 10  1  0  0  0  0
 10 11  1  0  0  0  0
 10 22  2  0  0  0  0
 11 12  1  0  0  0  0
 11 40  1  0  0  0  0
 12 13  1  0  0  0  0
 12 41  1  0  0  0  0
 12 42  1  0  0  0  0
 13 14  2  0  0  0  0
 13 18  1  0  0  0  0
 14 15  1  0  0  0  0
 14 43  1  0  0  0  0
 15 16  2  0  0  0  0
 15 44  1  0  0  0  0
 16 17  1  0  0  0  0
 16 19  1  0  0  0  0
 17 18  2  0  0  0  0
 17 45  1  0  0  0  0
 18 46  1  0  0  0  0
 19 20  2  0  0  0  0
 19 21  1  0  0  0  0
 20 47  1  0  0  0  0
 21 48  1  0  0  0  0
 21 49  1  0  0  0  0
 23 24  2  0  0  0  0
 23 28  1  0  0  0  0
 24 25  1  0  0  0  0
 24 50  1  0  0  0  0
 25 26  2  0  0  0  0
 25 51  1  0  0  0  0
 26 27  1  0  0  0  0
 26 52  1  0  0  0  0
 27 28  2  0  0  0  0
 27 53  1  0  0  0  0
 28 54  1  0  0  0  0
M  END
>  <DRUGBANK_ID>
DB06942

>  <COMMON_NAME>
N-(4-carbamimidoylbenzyl)-1-(3-phenylpropanoyl)-L-prolinamide

$$$$
