
 OpenBabel10282417163D

 52 53  0  0  0  0  0  0  0  0999 V2000
    0.9506   -0.0274   -0.0562 C   0  0  0  0  0  0  0  0  0  0  0  0
   -0.3238   -1.3415   -2.5543 C   0  0  0  0  0  0  0  0  0  0  0  0
    0.9927    4.3518   -2.1165 C   0  0  0  0  0  0  0  0  0  0  0  0
    3.2957    4.8993   -6.7279 C   0  0  0  0  0  0  0  0  0  0  0  0
   -0.0765    6.1083   -4.1662 C   0  0  0  0  0  0  0  0  0  0  0  0
    3.3739    3.5575   -6.3464 C   0  0  0  0  0  0  0  0  0  0  0  0
    2.0580    5.4723   -6.7603 C   0  0  0  0  0  0  0  0  0  0  0  0
   -1.2944    5.2122   -3.8426 C   0  0  0  0  0  0  0  0  0  0  0  0
   -0.3090    7.0342   -5.3675 C   0  0  0  0  0  0  0  0  0  0  0  0
    2.2682    2.8685   -5.7808 C   0  0  0  0  0  0  0  0  0  0  0  0
    0.9721    4.6760   -6.4068 C   0  0  0  0  0  0  0  0  0  0  0  0
   -1.4732    4.0536   -4.8231 C   0  0  0  0  0  0  0  0  0  0  0  0
   -1.4353    7.9857   -5.1545 C   0  0  0  0  0  0  0  0  0  0  0  0
    0.5027    0.6738   -1.2967 C   0  0  0  0  0  0  0  0  0  0  0  0
   -0.0015    0.1109   -2.4007 C   0  0  0  0  0  0  0  0  0  0  0  0
    0.5155    2.9502   -2.4314 C   0  0  0  0  0  0  0  0  0  0  0  0
    1.0391    3.4989   -5.6901 C   0  0  0  0  0  0  0  0  0  0  0  0
   -0.2388    3.0433   -4.9557 C   0  0  3  0  0  0  0  0  0  0  0  0
   -0.9673    8.9709   -4.1548 C   0  0  0  0  0  0  0  0  0  0  0  0
    0.0526    2.3934   -3.5861 C   0  0  0  0  0  0  0  0  0  0  0  0
    0.6943    2.1264   -1.2125 C   0  0  0  0  0  0  0  0  0  0  0  0
   -0.2300    0.9181   -3.6239 C   0  0  0  0  0  0  0  0  0  0  0  0
   -0.5765   10.1117   -4.4267 O   0  0  0  0  0  0  0  0  0  0  0  0
   -0.8325    8.4677   -2.9196 O   0  0  0  0  0  0  0  0  0  0  0  0
    1.0127    2.6322   -0.1392 O   0  0  0  0  0  0  0  0  0  0  0  0
   -0.5829    0.3529   -4.6562 O   0  0  0  0  0  0  0  0  0  0  0  0
    0.6321   -1.0646   -0.0049 H   0  0  0  0  0  0  0  0  0  0  0  0
    0.5680    0.4691    0.8412 H   0  0  0  0  0  0  0  0  0  0  0  0
    2.0463   -0.0047   -0.0256 H   0  0  0  0  0  0  0  0  0  0  0  0
   -1.3742   -1.4589   -2.8414 H   0  0  0  0  0  0  0  0  0  0  0  0
    0.3117   -1.7938   -3.3207 H   0  0  0  0  0  0  0  0  0  0  0  0
   -0.1880   -1.9101   -1.6346 H   0  0  0  0  0  0  0  0  0  0  0  0
    1.7849    4.6437   -2.8016 H   0  0  0  0  0  0  0  0  0  0  0  0
    0.2062    5.0913   -2.0285 H   0  0  0  0  0  0  0  0  0  0  0  0
    1.4112    4.4934   -1.1193 H   0  0  0  0  0  0  0  0  0  0  0  0
    4.1521    5.4778   -7.0609 H   0  0  0  0  0  0  0  0  0  0  0  0
    0.2742    6.6911   -3.3122 H   0  0  0  0  0  0  0  0  0  0  0  0
    0.8245    5.5214   -4.3099 H   0  0  0  0  0  0  0  0  0  0  0  0
    4.3164    3.0449   -6.4964 H   0  0  0  0  0  0  0  0  0  0  0  0
    1.9217    6.5136   -7.0447 H   0  0  0  0  0  0  0  0  0  0  0  0
   -2.1857    5.8314   -3.7357 H   0  0  0  0  0  0  0  0  0  0  0  0
   -1.3094    4.7355   -2.8628 H   0  0  0  0  0  0  0  0  0  0  0  0
    0.6257    7.5535   -5.6124 H   0  0  0  0  0  0  0  0  0  0  0  0
   -0.6426    6.5499   -6.2800 H   0  0  0  0  0  0  0  0  0  0  0  0
    2.3872    1.8409   -5.4534 H   0  0  0  0  0  0  0  0  0  0  0  0
   -0.0216    5.0212   -6.5466 H   0  0  0  0  0  0  0  0  0  0  0  0
   -1.7887    4.4584   -5.7920 H   0  0  0  0  0  0  0  0  0  0  0  0
   -2.3525    3.4868   -4.4786 H   0  0  0  0  0  0  0  0  0  0  0  0
   -1.6329    8.4616   -6.1199 H   0  0  0  0  0  0  0  0  0  0  0  0
   -2.3496    7.4626   -4.8721 H   0  0  0  0  0  0  0  0  0  0  0  0
   -0.6551    2.3115   -5.6639 H   0  0  0  0  0  0  0  0  0  0  0  0
   -0.2057    9.0483   -2.4425 H   0  0  0  0  0  0  0  0  0  0  0  0
  1 27  1  0  0  0  0
  1 28  1  0  0  0  0
  1 29  1  0  0  0  0
  2 30  1  0  0  0  0
  2 31  1  0  0  0  0
  2 32  1  0  0  0  0
  3 33  1  0  0  0  0
  3 34  1  0  0  0  0
  3 35  1  0  0  0  0
  4 36  1  0  0  0  0
  5 37  1  0  0  0  0
  5 38  1  0  0  0  0
  6  4  2  0  0  0  0
  6 39  1  0  0  0  0
  7  4  1  0  0  0  0
  7 40  1  0  0  0  0
  8  5  1  0  0  0  0
  8 41  1  0  0  0  0
  8 42  1  0  0  0  0
  9  5  1  0  0  0  0
  9 43  1  0  0  0  0
  9 44  1  0  0  0  0
 10  6  1  0  0  0  0
 10 45  1  0  0  0  0
 11  7  2  0  0  0  0
 11 46  1  0  0  0  0
 12  8  1  0  0  0  0
 12 47  1  0  0  0  0
 12 48  1  0  0  0  0
 13  9  1  0  0  0  0
 13 49  1  0  0  0  0
 13 50  1  0  0  0  0
 14  1  1  0  0  0  0
 15  2  1  0  0  0  0
 15 14  2  0  0  0  0
 16  3  1  0  0  0  0
 17 10  2  0  0  0  0
 17 11  1  0  0  0  0
 18 12  1  0  0  0  0
 18 17  1  0  0  0  0
 18 51  1  0  0  0  0
 19 13  1  0  0  0  0
 20 16  2  0  0  0  0
 20 18  1  0  0  0  0
 21 14  1  0  0  0  0
 21 16  1  0  0  0  0
 22 15  1  0  0  0  0
 22 20  1  0  0  0  0
 23 19  2  0  0  0  0
 24 19  1  0  0  0  0
 24 52  1  0  0  0  0
 25 21  2  0  0  0  0
 26 22  2  0  0  0  0
M  END
>  <DRUGBANK_ID>
DB06739

>  <COMMON_NAME>
Seratrodast

>  <CAS_NUMBER>
112665-43-7

>  <UNII>
4U58JM421N

>  <SYNONYMS>
Seratrodast

$$$$
