
 OpenBabel10282417193D

 50 53  0  0  0  0  0  0  0  0999 V2000
    0.9361   -0.0655   -0.0242 C   0  0  0  0  0  0  0  0  0  0  0  0
    0.4768   -0.4979    1.2650 O   0  0  0  0  0  0  0  0  0  0  0  0
    0.8999   -1.7810    1.5186 C   0  0  0  0  0  0  0  0  0  0  0  0
    2.2774   -2.0734    1.4323 C   0  0  0  0  0  0  0  0  0  0  0  0
    2.7823   -3.3229    1.6870 C   0  0  0  0  0  0  0  0  0  0  0  0
    1.9132   -4.3666    1.8008 C   0  0  0  0  0  0  0  0  0  0  0  0
    0.5067   -4.0788    1.9130 C   0  0  0  0  0  0  0  0  0  0  0  0
   -0.0158   -2.7547    1.9374 C   0  0  0  0  0  0  0  0  0  0  0  0
   -1.3513   -2.3375    2.3589 N   0  0  0  0  0  0  0  0  0  0  0  0
   -2.4221   -2.8593    3.0814 C   0  0  0  0  0  0  0  0  0  0  0  0
   -3.4919   -2.3035    3.0729 O   0  0  0  0  0  0  0  0  0  0  0  0
   -2.3035   -4.0066    3.8241 N   0  0  0  0  0  0  0  0  0  0  0  0
   -1.1462   -4.5530    4.3747 C   0  0  0  0  0  0  0  0  0  0  0  0
   -0.1855   -3.6403    4.8433 C   0  0  0  0  0  0  0  0  0  0  0  0
    1.1144   -4.0541    4.9175 C   0  0  0  0  0  0  0  0  0  0  0  0
    1.4510   -5.3873    4.5619 C   0  0  0  0  0  0  0  0  0  0  0  0
    0.4939   -6.3700    4.0748 C   0  0  0  0  0  0  0  0  0  0  0  0
   -0.8627   -5.9345    4.0548 C   0  0  0  0  0  0  0  0  0  0  0  0
   -1.6310   -6.9445    3.3985 C   0  0  0  0  0  0  0  0  0  0  0  0
   -0.7810   -7.9456    3.0154 C   0  0  0  0  0  0  0  0  0  0  0  0
    0.5234   -7.6367    3.4007 N   0  0  0  0  0  0  0  0  0  0  0  0
    1.5843   -8.6299    3.0556 C   0  0  0  0  0  0  0  0  0  0  0  0
    1.5863   -9.8128    3.9941 C   0  0  0  0  0  0  0  0  0  0  0  0
    0.5434  -10.7344    3.9682 C   0  0  0  0  0  0  0  0  0  0  0  0
    0.4948  -11.7027    4.9474 C   0  0  0  0  0  0  0  0  0  0  0  0
    1.3846  -11.7932    5.9586 N   0  0  0  0  0  0  0  0  0  0  0  0
    2.4295  -10.9478    5.9436 C   0  0  0  0  0  0  0  0  0  0  0  0
    2.6080  -10.0104    4.9315 C   0  0  0  0  0  0  0  0  0  0  0  0
    3.3943  -11.1267    6.9221 N   0  0  0  0  0  0  0  0  0  0  0  0
    2.9881   -5.9581    1.8779 Br  0  0  0  0  0  0  0  0  0  0  0  0
    0.5431    0.9353   -0.2160 H   0  0  0  0  0  0  0  0  0  0  0  0
    0.5664   -0.7389   -0.8060 H   0  0  0  0  0  0  0  0  0  0  0  0
    2.0286    0.0070   -0.0783 H   0  0  0  0  0  0  0  0  0  0  0  0
    3.0215   -1.3290    1.1977 H   0  0  0  0  0  0  0  0  0  0  0  0
    3.8513   -3.4901    1.7887 H   0  0  0  0  0  0  0  0  0  0  0  0
   -0.2238   -4.8505    2.0818 H   0  0  0  0  0  0  0  0  0  0  0  0
   -1.5894   -1.3791    2.0988 H   0  0  0  0  0  0  0  0  0  0  0  0
   -3.1810   -4.4256    4.1094 H   0  0  0  0  0  0  0  0  0  0  0  0
   -0.3867   -2.5649    4.8662 H   0  0  0  0  0  0  0  0  0  0  0  0
    1.8924   -3.2801    4.9553 H   0  0  0  0  0  0  0  0  0  0  0  0
    2.5195   -5.4553    4.3902 H   0  0  0  0  0  0  0  0  0  0  0  0
   -2.6881   -6.9337    3.1617 H   0  0  0  0  0  0  0  0  0  0  0  0
   -1.0139   -8.8735    2.5051 H   0  0  0  0  0  0  0  0  0  0  0  0
    1.3985   -9.0026    2.0258 H   0  0  0  0  0  0  0  0  0  0  0  0
    2.5849   -8.2108    3.0299 H   0  0  0  0  0  0  0  0  0  0  0  0
   -0.2300  -10.7058    3.2113 H   0  0  0  0  0  0  0  0  0  0  0  0
   -0.2937  -12.4483    4.9331 H   0  0  0  0  0  0  0  0  0  0  0  0
    3.5201   -9.4234    4.9009 H   0  0  0  0  0  0  0  0  0  0  0  0
    3.0284  -11.6553    7.7094 H   0  0  0  0  0  0  0  0  0  0  0  0
    3.9906  -10.3460    7.1512 H   0  0  0  0  0  0  0  0  0  0  0  0
  1  2  1  0  0  0  0
  1 31  1  0  0  0  0
  1 32  1  0  0  0  0
  1 33  1  0  0  0  0
  2  3  1  0  0  0  0
  3  4  2  0  0  0  0
  3  8  1  0  0  0  0
  4  5  1  0  0  0  0
  4 34  1  0  0  0  0
  5  6  2  0  0  0  0
  5 35  1  0  0  0  0
  6  7  1  0  0  0  0
  6 30  1  0  0  0  0
  7  8  2  0  0  0  0
  7 36  1  0  0  0  0
  8  9  1  0  0  0  0
  9 10  1  0  0  0  0
  9 37  1  0  0  0  0
 10 11  2  0  0  0  0
 10 12  1  0  0  0  0
 12 13  1  0  0  0  0
 12 38  1  0  0  0  0
 13 14  1  0  0  0  0
 13 18  2  0  0  0  0
 14 15  2  0  0  0  0
 14 39  1  0  0  0  0
 15 16  1  0  0  0  0
 15 40  1  0  0  0  0
 16 17  2  0  0  0  0
 16 41  1  0  0  0  0
 17 18  1  0  0  0  0
 17 21  1  0  0  0  0
 18 19  1  0  0  0  0
 19 20  2  0  0  0  0
 19 42  1  0  0  0  0
 20 21  1  0  0  0  0
 20 43  1  0  0  0  0
 21 22  1  0  0  0  0
 22 23  1  0  0  0  0
 22 44  1  0  0  0  0
 22 45  1  0  0  0  0
 23 24  2  0  0  0  0
 23 28  1  0  0  0  0
 24 25  1  0  0  0  0
 24 46  1  0  0  0  0
 25 26  2  0  0  0  0
 25 47  1  0  0  0  0
 26 27  1  0  0  0  0
 27 28  2  0  0  0  0
 27 29  1  0  0  0  0
 28 48  1  0  0  0  0
 29 49  1  0  0  0  0
 29 50  1  0  0  0  0
M  END
>  <DRUGBANK_ID>
DB12744

>  <COMMON_NAME>
CGI-1842

>  <CAS_NUMBER>
900573-88-8

>  <UNII>
980M4N37DH

$$$$
