668
 OpenBabel10282417103D

 26 26  0  0  1  0  0  0  0  0999 V2000
    0.9974   -0.9462    2.0695 O   0  0  0  0  0  0  0  0  0  0  0  0
    0.4337   -1.8591   -3.2461 O   0  0  0  0  0  0  0  0  0  0  0  0
    2.4740   -0.2597   -4.0879 O   0  0  0  0  0  0  0  0  0  0  0  0
    0.5600    2.6793    1.2677 N   0  0  0  0  0  0  0  0  0  0  0  0
    0.6148    0.1704    1.2669 C   0  0  2  0  0  0  0  0  0  0  0  0
    1.1774   -0.0185   -0.1363 C   0  0  0  0  0  0  0  0  0  0  0  0
    1.0484    1.4854    1.9710 C   0  0  0  0  0  0  0  0  0  0  0  0
    0.5627   -0.9220   -1.0220 C   0  0  0  0  0  0  0  0  0  0  0  0
    2.2776    0.7308   -0.6022 C   0  0  0  0  0  0  0  0  0  0  0  0
    1.0091   -1.0090   -2.3426 C   0  0  0  0  0  0  0  0  0  0  0  0
    2.6982    0.6591   -1.9282 C   0  0  0  0  0  0  0  0  0  0  0  0
    2.0570   -0.2068   -2.7885 C   0  0  0  0  0  0  0  0  0  0  0  0
    1.1249    3.8897    1.8381 C   0  0  0  0  0  0  0  0  0  0  0  0
    0.6453   -0.7810    2.9615 H   0  0  0  0  0  0  0  0  0  0  0  0
   -0.2520   -2.3701   -2.7829 H   0  0  0  0  0  0  0  0  0  0  0  0
    1.9020   -0.9322   -4.5029 H   0  0  0  0  0  0  0  0  0  0  0  0
    0.8178    2.6279    0.2796 H   0  0  0  0  0  0  0  0  0  0  0  0
   -0.4820    0.1665    1.2050 H   0  0  0  0  0  0  0  0  0  0  0  0
    0.6612    1.4860    2.9970 H   0  0  0  0  0  0  0  0  0  0  0  0
    2.1421    1.4956    2.0770 H   0  0  0  0  0  0  0  0  0  0  0  0
   -0.2660   -1.5325   -0.6741 H   0  0  0  0  0  0  0  0  0  0  0  0
    2.8120    1.4176    0.0461 H   0  0  0  0  0  0  0  0  0  0  0  0
    3.5135    1.2845   -2.2776 H   0  0  0  0  0  0  0  0  0  0  0  0
    2.2193    3.8801    1.8035 H   0  0  0  0  0  0  0  0  0  0  0  0
    0.7769    4.7525    1.2631 H   0  0  0  0  0  0  0  0  0  0  0  0
    0.7938    4.0160    2.8722 H   0  0  0  0  0  0  0  0  0  0  0  0
  1 14  1  0  0  0  0
  2 10  1  0  0  0  0
  2 15  1  0  0  0  0
  3 12  1  0  0  0  0
  3 16  1  0  0  0  0
  4  7  1  0  0  0  0
  4 13  1  0  0  0  0
  4 17  1  0  0  0  0
  5  7  1  0  0  0  0
  5 18  1  6  0  0  0
  5  6  1  0  0  0  0
  5  1  1  0  0  0  0
  6  8  2  0  0  0  0
  6  9  1  0  0  0  0
  7 19  1  0  0  0  0
  7 20  1  0  0  0  0
  8 10  1  0  0  0  0
  8 21  1  0  0  0  0
  9 11  2  0  0  0  0
  9 22  1  0  0  0  0
 10 12  2  0  0  0  0
 11 12  1  0  0  0  0
 11 23  1  0  0  0  0
 13 24  1  0  0  0  0
 13 25  1  0  0  0  0
 13 26  1  0  0  0  0
M  END
>  <DRUGBANK_ID>
DB00668

>  <SECONDARY_ACCESSION_NUMBERS>
APRD00450; EXPT00496

>  <COMMON_NAME>
Epinephrine

>  <CAS_NUMBER>
51-43-4

>  <UNII>
YKH834O4BH

>  <SYNONYMS>
(−)-(R)-epinephrine; (−)-3,4-dihydroxy-α-((methylamino)methyl)benzyl alcohol; (−)-adrenaline; (R)-(-)-Adnephrine; (R)-(-)-Adrenaline; (R)-(-)-Epinephrine; (R)-(-)-Epirenamine; (R)-(−)-adrenaline; 4-[(1R)-1-Hydroxy-2-(methylamino)ethyl]-1,2-benzenediol; Adrénaline; Adrenaline; Epinefrin; Epinefrina; Epinephrin; Epinephrine; Epinephrinum; L-Adrenaline; Levoepinephrine

$$$$
