
 OpenBabel10282417203D

 44 43  0  0  1  0  0  0  0  0999 V2000
   -0.6870    0.3000   -0.3495 C   0  0  0  0  0  0  0  0  0  0  0  0
   -2.0680    0.0162    0.0841 C   0  0  3  0  0  0  0  0  0  0  0  0
   -2.0789   -1.4513    0.3392 N   0  0  0  0  0  0  0  0  0  0  0  0
   -1.0617   -2.1863   -0.4703 C   0  0  3  0  0  0  0  0  0  0  0  0
    0.3340   -1.2275   -0.3428 S   0  0  0  0  0  0  0  0  0  0  0  0
   -0.4248   -3.4483    0.1697 C   0  0  0  0  0  0  0  0  0  0  0  0
    0.1887   -4.3091   -0.4256 O   0  0  0  0  0  0  0  0  0  0  0  0
   -0.2833   -3.3181    1.5339 O   0  0  0  0  0  0  0  0  0  0  0  0
   -2.8770    0.6538   -1.0291 C   0  0  0  0  0  0  0  0  0  0  0  0
   -3.4080    1.7387   -0.9706 O   0  0  0  0  0  0  0  0  0  0  0  0
   -2.6024    0.0908   -2.2328 O   0  0  0  0  0  0  0  0  0  0  0  0
    1.7622    1.0055    0.0078 C   0  0  0  0  0  0  0  0  0  0  0  0
    1.1000    0.4664    1.5805 C   0  0  0  0  0  0  0  0  0  0  0  0
    1.3651    1.3852    2.7189 C   0  0  1  0  0  0  0  0  0  0  0  0
    0.6298    2.7003    2.4293 C   0  0  0  0  0  0  0  0  0  0  0  0
   -0.4751    2.9909    2.7980 O   0  0  0  0  0  0  0  0  0  0  0  0
    1.2607    3.4491    1.5034 O   0  0  0  0  0  0  0  0  0  0  0  0
    0.7529    0.7554    3.9185 N   0  0  0  0  0  0  0  0  0  0  0  0
    1.2370    2.2768   -0.7677 C   0  0  0  0  0  0  0  0  0  0  0  0
    1.2619    2.1160   -2.2195 N   0  0  0  0  0  0  0  0  0  0  0  0
    0.3004    2.2521   -3.1664 C   0  0  0  0  0  0  0  0  0  0  0  0
    0.5924    2.1963   -4.4198 N   0  0  0  0  0  0  0  0  0  0  0  0
   -0.9841    2.4898   -2.8618 N   0  0  0  0  0  0  0  0  0  0  0  0
   -0.5479    0.5913   -1.3689 H   0  0  0  0  0  0  0  0  0  0  0  0
   -0.4759    1.1788    0.2688 H   0  0  0  0  0  0  0  0  0  0  0  0
   -2.2849    0.6156    0.9970 H   0  0  0  0  0  0  0  0  0  0  0  0
   -1.6512   -1.5031    1.2789 H   0  0  0  0  0  0  0  0  0  0  0  0
   -1.0271   -2.0645   -1.5575 H   0  0  0  0  0  0  0  0  0  0  0  0
    0.4973   -3.8681    1.7665 H   0  0  0  0  0  0  0  0  0  0  0  0
   -2.8735    0.7289   -2.9234 H   0  0  0  0  0  0  0  0  0  0  0  0
    1.6543    0.3350   -0.8558 H   0  0  0  0  0  0  0  0  0  0  0  0
    2.8387    0.8601    0.0445 H   0  0  0  0  0  0  0  0  0  0  0  0
   -0.0003    0.3034    1.6970 H   0  0  0  0  0  0  0  0  0  0  0  0
    1.4302   -0.5572    1.8633 H   0  0  0  0  0  0  0  0  0  0  0  0
    2.4467    1.4207    2.7809 H   0  0  0  0  0  0  0  0  0  0  0  0
    0.5511    3.9567    1.0488 H   0  0  0  0  0  0  0  0  0  0  0  0
    0.8560    1.4028    4.6962 H   0  0  0  0  0  0  0  0  0  0  0  0
   -0.2663    0.6953    3.7863 H   0  0  0  0  0  0  0  0  0  0  0  0
    0.2250    2.6252   -0.5342 H   0  0  0  0  0  0  0  0  0  0  0  0
    1.9534    3.0351   -0.5064 H   0  0  0  0  0  0  0  0  0  0  0  0
    2.1700    1.8241   -2.5544 H   0  0  0  0  0  0  0  0  0  0  0  0
    1.6073    2.1213   -4.4860 H   0  0  0  0  0  0  0  0  0  0  0  0
   -1.3863    2.1729   -2.0011 H   0  0  0  0  0  0  0  0  0  0  0  0
   -1.6004    2.3730   -3.6609 H   0  0  0  0  0  0  0  0  0  0  0  0
  1  2  1  0  0  0  0
  1  5  1  0  0  0  0
  1 24  1  0  0  0  0
  1 25  1  0  0  0  0
  2  3  1  0  0  0  0
  2  9  1  0  0  0  0
  2 26  1  0  0  0  0
  3  4  1  0  0  0  0
  3 27  1  0  0  0  0
  4  5  1  0  0  0  0
  4  6  1  0  0  0  0
  4 28  1  0  0  0  0
  6  7  2  0  0  0  0
  6  8  1  0  0  0  0
  8 29  1  0  0  0  0
  9 10  2  0  0  0  0
  9 11  1  0  0  0  0
 11 30  1  0  0  0  0
 12 13  1  0  0  0  0
 12 19  1  0  0  0  0
 12 31  1  0  0  0  0
 12 32  1  0  0  0  0
 13 14  1  0  0  0  0
 13 33  1  0  0  0  0
 13 34  1  0  0  0  0
 14 15  1  0  0  0  0
 14 18  1  0  0  0  0
 14 35  1  1  0  0  0
 15 16  2  0  0  0  0
 15 17  1  0  0  0  0
 17 36  1  0  0  0  0
 18 37  1  0  0  0  0
 18 38  1  0  0  0  0
 19 20  1  0  0  0  0
 19 39  1  0  0  0  0
 19 40  1  0  0  0  0
 20 21  1  0  0  0  0
 20 41  1  0  0  0  0
 21 22  2  0  0  0  0
 21 23  1  0  0  0  0
 22 42  1  0  0  0  0
 23 43  1  0  0  0  0
 23 44  1  0  0  0  0
M  END
>  <DRUGBANK_ID>
DB13748

>  <COMMON_NAME>
Tidiacic arginine

>  <CAS_NUMBER>
30986-62-0

>  <UNII>
A9539XWW0P

$$$$
