
 OpenBabel10282417113D

 29 29  0  0  0  0  0  0  0  0999 V2000
    1.1344    0.0818   -0.0737 C   0  0  0  0  0  0  0  0  0  0  0  0
    0.5014    1.4063    0.3844 C   0  0  0  0  0  0  0  0  0  0  0  0
    1.0763    2.5191   -0.5058 C   0  0  0  0  0  0  0  0  0  0  0  0
   -1.0776    1.3764    0.4053 C   0  0  0  0  0  0  0  0  0  0  0  0
   -1.6223    0.8911    1.7818 C   0  0  0  0  0  0  0  0  0  0  0  0
   -1.1894   -0.4877    2.1961 C   0  0  0  0  0  0  0  0  0  0  0  0
   -1.6160    0.4465   -0.6871 C   0  0  0  0  0  0  0  0  0  0  0  0
   -1.5314   -0.7821   -0.6679 O   0  0  0  0  0  0  0  0  0  0  0  0
   -2.1694    1.0021   -1.7907 N   0  0  0  0  0  0  0  0  0  0  0  0
   -2.5063    2.3019   -1.9534 C   0  0  0  0  0  0  0  0  0  0  0  0
   -3.1194    2.6813   -2.9387 O   0  0  0  0  0  0  0  0  0  0  0  0
   -2.1585    3.1479   -0.9498 N   0  0  0  0  0  0  0  0  0  0  0  0
   -1.5930    2.8087    0.2462 C   0  0  0  0  0  0  0  0  0  0  0  0
   -1.4429    3.6764    1.1079 O   0  0  0  0  0  0  0  0  0  0  0  0
   -0.4297   -0.7533    3.2626 C   0  0  0  0  0  0  0  0  0  0  0  0
    0.8717   -0.1339   -1.1151 H   0  0  0  0  0  0  0  0  0  0  0  0
    0.8143   -0.7624    0.5400 H   0  0  0  0  0  0  0  0  0  0  0  0
    2.2258    0.1194   -0.0233 H   0  0  0  0  0  0  0  0  0  0  0  0
    0.8587    1.6085    1.4055 H   0  0  0  0  0  0  0  0  0  0  0  0
    0.7287    2.4072   -1.5370 H   0  0  0  0  0  0  0  0  0  0  0  0
    0.7929    3.5142   -0.1491 H   0  0  0  0  0  0  0  0  0  0  0  0
    2.1704    2.4960   -0.5044 H   0  0  0  0  0  0  0  0  0  0  0  0
   -1.3299    1.6054    2.5651 H   0  0  0  0  0  0  0  0  0  0  0  0
   -2.7208    0.9127    1.7615 H   0  0  0  0  0  0  0  0  0  0  0  0
   -1.4704   -1.3220    1.5550 H   0  0  0  0  0  0  0  0  0  0  0  0
   -2.4800    0.3492   -2.4964 H   0  0  0  0  0  0  0  0  0  0  0  0
   -2.4374    4.1121   -1.0651 H   0  0  0  0  0  0  0  0  0  0  0  0
   -0.0986   -1.7699    3.4501 H   0  0  0  0  0  0  0  0  0  0  0  0
   -0.1062    0.0289    3.9391 H   0  0  0  0  0  0  0  0  0  0  0  0
  1  2  1  0  0  0  0
  1 16  1  0  0  0  0
  1 17  1  0  0  0  0
  1 18  1  0  0  0  0
  2  3  1  0  0  0  0
  2  4  1  0  0  0  0
  2 19  1  0  0  0  0
  3 20  1  0  0  0  0
  3 21  1  0  0  0  0
  3 22  1  0  0  0  0
  4  5  1  0  0  0  0
  4  7  1  0  0  0  0
  4 13  1  0  0  0  0
  5  6  1  0  0  0  0
  5 23  1  0  0  0  0
  5 24  1  0  0  0  0
  6 25  1  0  0  0  0
  7  8  2  0  0  0  0
  7  9  1  0  0  0  0
  9 10  1  0  0  0  0
  9 26  1  0  0  0  0
 10 11  2  0  0  0  0
 10 12  1  0  0  0  0
 12 13  1  0  0  0  0
 12 27  1  0  0  0  0
 13 14  2  0  0  0  0
 15  6  2  0  0  0  0
 15 28  1  0  0  0  0
 15 29  1  0  0  0  0
M  END
>  <DRUGBANK_ID>
DB01352

>  <COMMON_NAME>
Aprobarbital

>  <CAS_NUMBER>
77-02-1

>  <UNII>
Q0YKG9L6RF

>  <SYNONYMS>
5-(1-methylethyl)-5-(2-propenyl)-2,4,6(1H,3H,5H)-pyrimidinetrione; 5-allyl-5-isopropylbarbituric acid; 5-allyl-5-isopropylpyrimidine-2,4,6(1H,3H,5H)-trione; 5-isopropyl-5-allylbarbituric acid; Allypropymal; Aprobarbital; Aprobarbitale; Aprobarbitalum

$$$$
