
 OpenBabel10282417143D

 58 62  0  0  0  0  0  0  0  0999 V2000
   -0.9798   -1.4355    0.0178 C   0  0  0  0  0  0  0  0  0  0  0  0
   -1.9772    0.6465   -0.0064 C   0  0  0  0  0  0  0  0  0  0  0  0
   -2.1011   -0.6981   -0.0065 N   0  0  0  0  0  0  0  0  0  0  0  0
   -0.8527    1.3897    0.0061 N   0  0  0  0  0  0  0  0  0  0  0  0
   -1.0866   -2.8064    0.0273 N   0  0  0  0  0  0  0  0  0  0  0  0
    0.2508   -0.7741    0.0384 C   0  0  0  0  0  0  0  0  0  0  0  0
    0.2416    0.6108    0.0261 C   0  0  0  0  0  0  0  0  0  0  0  0
    2.3606   -0.0124    0.0321 C   0  0  0  0  0  0  0  0  0  0  0  0
    1.5378    1.0838    0.0354 O   0  0  0  0  0  0  0  0  0  0  0  0
    1.6084   -1.1636    0.0690 C   0  0  0  0  0  0  0  0  0  0  0  0
    2.1623   -2.4895    0.0141 C   0  0  0  0  0  0  0  0  0  0  0  0
    2.2450   -4.5823   -1.1298 C   0  0  0  0  0  0  0  0  0  0  0  0
    3.0447   -5.1643   -0.1405 C   0  0  0  0  0  0  0  0  0  0  0  0
    3.4079   -4.3574    0.9511 C   0  0  0  0  0  0  0  0  0  0  0  0
    2.9582   -3.0223    1.0309 C   0  0  0  0  0  0  0  0  0  0  0  0
    1.8315   -3.2666   -1.0799 C   0  0  0  0  0  0  0  0  0  0  0  0
    3.8040    0.1632   -0.0392 C   0  0  0  0  0  0  0  0  0  0  0  0
    6.6231    0.1019   -0.0216 C   0  0  0  0  0  0  0  0  0  0  0  0
    5.9165    0.7120    1.0185 C   0  0  0  0  0  0  0  0  0  0  0  0
    4.5147    0.7418    1.0122 C   0  0  0  0  0  0  0  0  0  0  0  0
    4.5208   -0.4627   -1.0735 C   0  0  0  0  0  0  0  0  0  0  0  0
    5.9168   -0.4940   -1.0641 C   0  0  0  0  0  0  0  0  0  0  0  0
    7.9849    0.0159   -0.1227 O   0  0  0  0  0  0  0  0  0  0  0  0
    8.7329    0.6460    0.9101 C   0  0  0  0  0  0  0  0  0  0  0  0
    3.4779   -6.5252   -0.2534 N   0  0  0  0  0  0  0  0  0  0  0  0
    3.1330   -7.3509   -1.3177 C   0  0  0  0  0  0  0  0  0  0  0  0
    2.3752   -7.0237   -2.2358 O   0  0  0  0  0  0  0  0  0  0  0  0
    3.6773   -8.6186   -1.3109 N   0  0  0  0  0  0  0  0  0  0  0  0
    3.3688   -9.5342   -2.3726 C   0  0  0  0  0  0  0  0  0  0  0  0
    3.0837  -10.0329   -4.7627 C   0  0  0  0  0  0  0  0  0  0  0  0
    3.3280   -9.1215   -3.7178 C   0  0  0  0  0  0  0  0  0  0  0  0
    3.1124  -10.8779   -2.0936 C   0  0  0  0  0  0  0  0  0  0  0  0
    2.8435  -11.7939   -3.1151 C   0  0  0  0  0  0  0  0  0  0  0  0
    2.8475  -11.3777   -4.4474 C   0  0  0  0  0  0  0  0  0  0  0  0
    3.0672  -11.2994   -0.8210 F   0  0  0  0  0  0  0  0  0  0  0  0
    3.1095   -9.5951   -6.2084 C   0  0  0  0  0  0  0  0  0  0  0  0
    3.3514   -8.2677   -6.3831 F   0  0  0  0  0  0  0  0  0  0  0  0
    1.9399   -9.8549   -6.8555 F   0  0  0  0  0  0  0  0  0  0  0  0
    4.0763  -10.2447   -6.9168 F   0  0  0  0  0  0  0  0  0  0  0  0
   -2.9173    1.1922   -0.0138 H   0  0  0  0  0  0  0  0  0  0  0  0
   -0.2673   -3.3905    0.0961 H   0  0  0  0  0  0  0  0  0  0  0  0
   -1.9971   -3.2336    0.0053 H   0  0  0  0  0  0  0  0  0  0  0  0
    1.8825   -5.1106   -1.9973 H   0  0  0  0  0  0  0  0  0  0  0  0
    4.0293   -4.7274    1.7625 H   0  0  0  0  0  0  0  0  0  0  0  0
    3.2213   -2.4007    1.8861 H   0  0  0  0  0  0  0  0  0  0  0  0
    1.2032   -2.8917   -1.8860 H   0  0  0  0  0  0  0  0  0  0  0  0
    6.4277    1.1599    1.8636 H   0  0  0  0  0  0  0  0  0  0  0  0
    3.9880    1.1738    1.8596 H   0  0  0  0  0  0  0  0  0  0  0  0
    3.9946   -0.9754   -1.8769 H   0  0  0  0  0  0  0  0  0  0  0  0
    6.4486   -1.0011   -1.8661 H   0  0  0  0  0  0  0  0  0  0  0  0
    8.5159    1.7186    0.9578 H   0  0  0  0  0  0  0  0  0  0  0  0
    8.5457    0.1614    1.8740 H   0  0  0  0  0  0  0  0  0  0  0  0
    9.7960    0.5317    0.6799 H   0  0  0  0  0  0  0  0  0  0  0  0
    4.0759   -6.8825    0.4793 H   0  0  0  0  0  0  0  0  0  0  0  0
    3.9410   -9.0265   -0.4243 H   0  0  0  0  0  0  0  0  0  0  0  0
    3.5120   -8.0783   -3.9756 H   0  0  0  0  0  0  0  0  0  0  0  0
    2.6357  -12.8318   -2.8718 H   0  0  0  0  0  0  0  0  0  0  0  0
    2.6712  -12.1008   -5.2441 H   0  0  0  0  0  0  0  0  0  0  0  0
  1  3  1  0  0  0  0
  1  6  2  0  0  0  0
  1  5  1  0  0  0  0
  2  3  2  0  0  0  0
  2  4  1  0  0  0  0
  2 40  1  0  0  0  0
  4  7  2  0  0  0  0
  5 41  1  0  0  0  0
  5 42  1  0  0  0  0
  6 10  1  0  0  0  0
  6  7  1  0  0  0  0
  7  9  1  0  0  0  0
  8 10  2  0  0  0  0
  8  9  1  0  0  0  0
  8 17  1  0  0  0  0
 10 11  1  0  0  0  0
 11 15  1  0  0  0  0
 11 16  2  0  0  0  0
 12 13  2  0  0  0  0
 12 16  1  0  0  0  0
 12 43  1  0  0  0  0
 13 14  1  0  0  0  0
 13 25  1  0  0  0  0
 14 15  2  0  0  0  0
 14 44  1  0  0  0  0
 15 45  1  0  0  0  0
 16 46  1  0  0  0  0
 17 20  1  0  0  0  0
 17 21  2  0  0  0  0
 18 19  1  0  0  0  0
 18 22  2  0  0  0  0
 18 23  1  0  0  0  0
 19 20  2  0  0  0  0
 19 47  1  0  0  0  0
 20 48  1  0  0  0  0
 21 22  1  0  0  0  0
 21 49  1  0  0  0  0
 22 50  1  0  0  0  0
 23 24  1  0  0  0  0
 24 51  1  0  0  0  0
 24 52  1  0  0  0  0
 24 53  1  0  0  0  0
 25 26  1  0  0  0  0
 25 54  1  0  0  0  0
 26 28  1  0  0  0  0
 26 27  2  0  0  0  0
 28 29  1  0  0  0  0
 28 55  1  0  0  0  0
 29 31  1  0  0  0  0
 29 32  2  0  0  0  0
 30 31  2  0  0  0  0
 30 34  1  0  0  0  0
 30 36  1  0  0  0  0
 31 56  1  0  0  0  0
 32 33  1  0  0  0  0
 32 35  1  0  0  0  0
 33 34  2  0  0  0  0
 33 57  1  0  0  0  0
 34 58  1  0  0  0  0
 36 39  1  0  0  0  0
 36 38  1  0  0  0  0
 36 37  1  0  0  0  0
M  END
>  <DRUGBANK_ID>
DB04727

>  <COMMON_NAME>
1-{4-[4-Amino-6-(4-methoxyphenyl)furo[2,3-d]pyrimidin-5-yl]phenyl}-3-[2-fluoro-5-(trifluoromethyl)phenyl]urea

$$$$
