
 OpenBabel10282417223D

 48 52  0  0  1  0  0  0  0  0999 V2000
    1.3722   -0.0053    0.1231 C   0  0  3  0  0  0  0  0  0  0  0  0
    0.8094    1.4032   -0.2868 C   0  0  1  0  0  0  0  0  0  0  0  0
   -0.7508    1.3396   -0.3822 C   0  0  2  0  0  0  0  0  0  0  0  0
   -1.2279   -0.0774    0.0528 C   0  0  3  0  0  0  0  0  0  0  0  0
   -0.7507   -0.4169    1.4661 C   0  0  0  0  0  0  0  0  0  0  0  0
    0.7834   -0.4810    1.4792 C   0  0  0  0  0  0  0  0  0  0  0  0
   -0.5741   -1.1767   -0.7976 C   0  0  0  0  0  0  0  0  0  0  0  0
    0.9318   -1.0459   -0.8930 C   0  0  0  0  0  0  0  0  0  0  0  0
   -1.4220    1.7250   -1.6865 N   0  0  0  0  0  0  0  0  0  0  0  0
   -1.1134    1.1347   -2.9236 C   0  0  0  0  0  0  0  0  0  0  0  0
   -0.1920    1.6960   -3.7262 N   0  0  0  0  0  0  0  0  0  0  0  0
    0.2188    0.9393   -4.7767 C   0  0  0  0  0  0  0  0  0  0  0  0
   -0.0934   -0.3474   -5.0118 N   0  0  0  0  0  0  0  0  0  0  0  0
   -1.0532   -0.8354   -4.2255 C   0  0  0  0  0  0  0  0  0  0  0  0
   -1.7197   -0.0655   -3.2967 C   0  0  0  0  0  0  0  0  0  0  0  0
   -2.6866   -0.6289   -2.5503 F   0  0  0  0  0  0  0  0  0  0  0  0
    0.9713    1.5728   -5.8305 C   0  0  0  0  0  0  0  0  0  0  0  0
    2.2157    2.1417   -5.6567 C   0  0  0  0  0  0  0  0  0  0  0  0
    2.6374    2.6038   -6.8782 N   0  0  0  0  0  0  0  0  0  0  0  0
    1.6874    2.3449   -7.8341 C   0  0  0  0  0  0  0  0  0  0  0  0
    0.6282    1.6908   -7.2106 C   0  0  0  0  0  0  0  0  0  0  0  0
   -0.4731    1.3247   -8.0057 C   0  0  0  0  0  0  0  0  0  0  0  0
   -0.4204    1.6488   -9.3537 C   0  0  0  0  0  0  0  0  0  0  0  0
    0.6949    2.3010   -9.8578 C   0  0  0  0  0  0  0  0  0  0  0  0
    1.7880    2.6758   -9.1390 N   0  0  0  0  0  0  0  0  0  0  0  0
   -1.4458    1.3331  -10.1563 F   0  0  0  0  0  0  0  0  0  0  0  0
    1.2998    2.4640    0.7202 C   0  0  0  0  0  0  0  0  0  0  0  0
    1.0215    3.6387    0.7144 O   0  0  0  0  0  0  0  0  0  0  0  0
    2.1336    1.9786    1.6733 O   0  0  0  0  0  0  0  0  0  0  0  0
    2.4678    0.0131    0.1434 H   0  0  0  0  0  0  0  0  0  0  0  0
    1.2412    1.7041   -1.2483 H   0  0  0  0  0  0  0  0  0  0  0  0
   -1.1588    2.0607    0.3437 H   0  0  0  0  0  0  0  0  0  0  0  0
   -2.3228   -0.1166    0.0023 H   0  0  0  0  0  0  0  0  0  0  0  0
   -1.1252    0.2981    2.2051 H   0  0  0  0  0  0  0  0  0  0  0  0
   -1.1504   -1.4009    1.7465 H   0  0  0  0  0  0  0  0  0  0  0  0
    1.1467    0.0908    2.3316 H   0  0  0  0  0  0  0  0  0  0  0  0
    1.1105   -1.5125    1.6617 H   0  0  0  0  0  0  0  0  0  0  0  0
   -0.9528   -2.1723   -0.5555 H   0  0  0  0  0  0  0  0  0  0  0  0
   -0.8284   -1.1046   -1.8097 H   0  0  0  0  0  0  0  0  0  0  0  0
    1.2292   -0.7305   -1.9032 H   0  0  0  0  0  0  0  0  0  0  0  0
    1.3839   -2.0282   -0.7291 H   0  0  0  0  0  0  0  0  0  0  0  0
   -1.5371    2.7298   -1.7875 H   0  0  0  0  0  0  0  0  0  0  0  0
   -1.2056   -1.9114   -4.2656 H   0  0  0  0  0  0  0  0  0  0  0  0
    2.8276    2.2387   -4.7701 H   0  0  0  0  0  0  0  0  0  0  0  0
    3.5148    3.0666   -7.0643 H   0  0  0  0  0  0  0  0  0  0  0  0
   -1.3336    0.8147   -7.5899 H   0  0  0  0  0  0  0  0  0  0  0  0
    0.7290    2.5484  -10.9158 H   0  0  0  0  0  0  0  0  0  0  0  0
    2.3169    2.6932    2.3159 H   0  0  0  0  0  0  0  0  0  0  0  0
  1  2  1  0  0  0  0
  1  6  1  0  0  0  0
  1  8  1  0  0  0  0
  1 30  1  0  0  0  0
  2  3  1  0  0  0  0
  2 31  1  6  0  0  0
  2 27  1  0  0  0  0
  3  4  1  0  0  0  0
  3 32  1  1  0  0  0
  3  9  1  0  0  0  0
  4  5  1  0  0  0  0
  4  7  1  0  0  0  0
  4 33  1  0  0  0  0
  5  6  1  0  0  0  0
  5 34  1  0  0  0  0
  5 35  1  0  0  0  0
  6 36  1  0  0  0  0
  6 37  1  0  0  0  0
  7 38  1  0  0  0  0
  7 39  1  0  0  0  0
  8  7  1  0  0  0  0
  8 40  1  0  0  0  0
  8 41  1  0  0  0  0
  9 10  1  0  0  0  0
  9 42  1  0  0  0  0
 10 15  1  0  0  0  0
 11 10  2  0  0  0  0
 12 11  1  0  0  0  0
 12 13  2  0  0  0  0
 12 17  1  0  0  0  0
 14 13  1  0  0  0  0
 14 43  1  0  0  0  0
 15 14  2  0  0  0  0
 15 16  1  0  0  0  0
 17 18  2  0  0  0  0
 18 44  1  0  0  0  0
 19 18  1  0  0  0  0
 19 45  1  0  0  0  0
 20 19  1  0  0  0  0
 20 21  1  0  0  0  0
 20 25  2  0  0  0  0
 21 22  2  0  0  0  0
 21 17  1  0  0  0  0
 22 23  1  0  0  0  0
 22 46  1  0  0  0  0
 23 24  2  0  0  0  0
 23 26  1  0  0  0  0
 24 25  1  0  0  0  0
 24 47  1  0  0  0  0
 27 28  2  0  0  0  0
 27 29  1  0  0  0  0
 29 48  1  0  0  0  0
M  END
>  <DRUGBANK_ID>
DB14974

>  <COMMON_NAME>
Pimodivir

>  <CAS_NUMBER>
1629869-44-8

>  <UNII>
DFC121MXC3

>  <SYNONYMS>
JNJ-63623872; Pimodivir

$$$$
