
 OpenBabel10282417143D

 82 84  0  0  1  0  0  0  0  0999 V2000
   -9.0041   -8.2259    0.3527 N   0  0  0  0  0  0  0  0  0  0  0  0
   -8.5698   -7.7904   -0.7788 C   0  0  0  0  0  0  0  0  0  0  0  0
   -8.5144   -8.5580   -1.9044 N   0  0  0  0  0  0  0  0  0  0  0  0
   -8.0643   -6.4079   -0.8228 C   0  0  0  0  0  0  0  0  0  0  0  0
   -7.2625   -5.9621    0.2377 C   0  0  0  0  0  0  0  0  0  0  0  0
   -6.5746   -4.7833    0.1466 C   0  0  0  0  0  0  0  0  0  0  0  0
   -6.5581   -4.1522   -1.0674 C   0  0  0  0  0  0  0  0  0  0  0  0
   -5.7741   -2.9095   -1.0574 C   0  0  0  0  0  0  0  0  0  0  0  0
   -4.9912   -2.6172   -2.2109 N   0  0  0  0  0  0  0  0  0  0  0  0
   -5.2610   -1.6308   -3.0646 C   0  0  0  0  0  0  0  0  0  0  0  0
   -4.7124   -1.3764   -4.1351 O   0  0  0  0  0  0  0  0  0  0  0  0
   -6.3836   -0.8819   -2.4518 C   0  0  2  0  0  0  0  0  0  0  0  0
   -6.3503    0.8808   -2.8827 C   0  0  0  0  0  0  0  0  0  0  0  0
   -7.8982    1.9625   -1.6154 C   0  0  0  0  0  0  0  0  0  0  0  0
   -8.3117    1.6672   -0.1072 C   0  0  0  0  0  0  0  0  0  0  0  0
   -7.7203    2.5204    0.7525 N   0  0  0  0  0  0  0  0  0  0  0  0
   -8.7780    0.6474    0.3777 O   0  0  0  0  0  0  0  0  0  0  0  0
   -7.9067   -1.1808   -1.0746 N   0  0  0  0  0  0  0  0  0  0  0  0
   -9.7715   -1.0433   -1.2881 C   0  0  0  0  0  0  0  0  0  0  0  0
  -10.4507   -1.2805   -0.2755 O   0  0  0  0  0  0  0  0  0  0  0  0
  -10.5896   -1.4299   -3.1440 C   0  0  1  0  0  0  0  0  0  0  0  0
  -10.4757   -0.1839   -3.8604 C   0  0  0  0  0  0  0  0  0  0  0  0
   -9.1267   -0.4500   -3.3529 C   0  0  0  0  0  0  0  0  0  0  0  0
   -8.8484   -2.1317   -2.5652 C   0  0  0  0  0  0  0  0  0  0  0  0
   -8.0326   -1.4322   -3.2125 N   0  0  0  0  0  0  0  0  0  0  0  0
   -8.0335    0.1395   -2.4099 C   0  0  0  0  0  0  0  0  0  0  0  0
   -8.4172    1.0630   -3.5600 C   0  0  0  0  0  0  0  0  0  0  0  0
   -7.3206    2.5405   -3.3940 C   0  0  0  0  0  0  0  0  0  0  0  0
   -6.0032    2.7380   -2.0803 C   0  0  0  0  0  0  0  0  0  0  0  0
   -5.0997    3.7071   -1.9500 O   0  0  0  0  0  0  0  0  0  0  0  0
   -5.2358    4.4505   -3.1099 C   0  0  0  0  0  0  0  0  0  0  0  0
   -4.7463    3.7741   -4.4325 C   0  0  0  0  0  0  0  0  0  0  0  0
   -5.5138    2.6579   -5.0916 C   0  0  0  0  0  0  0  0  0  0  0  0
   -5.7444    1.6980   -0.9247 C   0  0  0  0  0  0  0  0  0  0  0  0
   -6.6642    0.4956   -1.0154 C   0  0  0  0  0  0  0  0  0  0  0  0
   -9.6385   -2.5009   -4.5193 N   0  0  0  0  0  0  0  0  0  0  0  0
  -10.0725   -2.6445   -6.0999 S   0  0  0  0  0  0  0  0  0  0  0  0
  -10.0679   -1.3097   -6.6351 O   0  0  0  0  0  0  0  0  0  0  0  0
   -9.1319   -3.6236   -6.6025 O   0  0  0  0  0  0  0  0  0  0  0  0
  -11.6101   -3.3009   -5.6597 C   0  0  0  0  0  0  0  0  0  0  0  0
  -11.4618   -4.6022   -4.8904 C   0  0  0  0  0  0  0  0  0  0  0  0
   -7.4299   -4.5530   -2.1091 C   0  0  0  0  0  0  0  0  0  0  0  0
   -8.2760   -5.6291   -1.9458 C   0  0  0  0  0  0  0  0  0  0  0  0
   -9.3137   -9.1911    0.2836 H   0  0  0  0  0  0  0  0  0  0  0  0
   -8.0519   -8.2273   -2.7465 H   0  0  0  0  0  0  0  0  0  0  0  0
   -8.7579   -9.5368   -1.8867 H   0  0  0  0  0  0  0  0  0  0  0  0
   -7.1247   -6.5538    1.1283 H   0  0  0  0  0  0  0  0  0  0  0  0
   -5.9957   -4.3664    0.9635 H   0  0  0  0  0  0  0  0  0  0  0  0
   -6.6613   -2.3996   -1.1350 H   0  0  0  0  0  0  0  0  0  0  0  0
   -5.4684   -2.3938   -0.1345 H   0  0  0  0  0  0  0  0  0  0  0  0
   -4.1624   -3.1054   -2.4239 H   0  0  0  0  0  0  0  0  0  0  0  0
   -6.6227   -0.8404   -3.7835 H   0  0  0  0  0  0  0  0  0  0  0  0
   -5.2416    0.9648   -2.8258 H   0  0  0  0  0  0  0  0  0  0  0  0
   -6.4975    0.8314   -4.0376 H   0  0  0  0  0  0  0  0  0  0  0  0
   -7.8444    3.0836   -1.5617 H   0  0  0  0  0  0  0  0  0  0  0  0
   -8.9584    2.0402   -2.0112 H   0  0  0  0  0  0  0  0  0  0  0  0
   -7.3311    1.8982    1.4509 H   0  0  0  0  0  0  0  0  0  0  0  0
   -7.0763    3.1673    0.3151 H   0  0  0  0  0  0  0  0  0  0  0  0
   -7.8155   -0.7809   -0.1330 H   0  0  0  0  0  0  0  0  0  0  0  0
  -11.5033   -1.9814   -3.0680 H   0  0  0  0  0  0  0  0  0  0  0  0
  -10.4116   -0.1028   -4.9422 H   0  0  0  0  0  0  0  0  0  0  0  0
  -10.8133    0.7480   -3.4245 H   0  0  0  0  0  0  0  0  0  0  0  0
   -8.7836   -2.6710   -1.4956 H   0  0  0  0  0  0  0  0  0  0  0  0
   -8.4331   -2.0264   -3.8581 H   0  0  0  0  0  0  0  0  0  0  0  0
   -7.6604    3.4393   -3.8918 H   0  0  0  0  0  0  0  0  0  0  0  0
   -6.2646    4.8213   -3.1189 H   0  0  0  0  0  0  0  0  0  0  0  0
   -4.5806    5.2783   -2.8828 H   0  0  0  0  0  0  0  0  0  0  0  0
   -4.7470    4.5443   -5.1787 H   0  0  0  0  0  0  0  0  0  0  0  0
   -3.7754    3.3147   -4.2148 H   0  0  0  0  0  0  0  0  0  0  0  0
   -6.5518    2.9251   -5.3065 H   0  0  0  0  0  0  0  0  0  0  0  0
   -5.2722    2.0083   -5.9263 H   0  0  0  0  0  0  0  0  0  0  0  0
   -5.2624    1.9384   -4.3514 H   0  0  0  0  0  0  0  0  0  0  0  0
   -5.1442    1.7314   -0.0211 H   0  0  0  0  0  0  0  0  0  0  0  0
   -6.1929   -0.3339   -0.4471 H   0  0  0  0  0  0  0  0  0  0  0  0
   -8.6935   -2.2484   -5.0394 H   0  0  0  0  0  0  0  0  0  0  0  0
  -12.1138   -2.5492   -5.0448 H   0  0  0  0  0  0  0  0  0  0  0  0
  -12.1083   -3.4067   -6.6060 H   0  0  0  0  0  0  0  0  0  0  0  0
  -10.9767   -4.4841   -3.9085 H   0  0  0  0  0  0  0  0  0  0  0  0
  -12.4507   -5.0179   -4.7167 H   0  0  0  0  0  0  0  0  0  0  0  0
  -10.8572   -5.3166   -5.4564 H   0  0  0  0  0  0  0  0  0  0  0  0
   -7.5226   -3.9799   -3.0267 H   0  0  0  0  0  0  0  0  0  0  0  0
   -9.0367   -5.8656   -2.6850 H   0  0  0  0  0  0  0  0  0  0  0  0
  1  2  2  0  0  0  0
  1 44  1  0  0  0  0
  2  3  1  0  0  0  0
  2  4  1  0  0  0  0
  3 45  1  0  0  0  0
  3 46  1  0  0  0  0
  4  5  2  0  0  0  0
  4 43  1  0  0  0  0
  5  6  1  0  0  0  0
  5 47  1  0  0  0  0
  6  7  2  0  0  0  0
  6 48  1  0  0  0  0
  7  8  1  0  0  0  0
  7 42  1  0  0  0  0
  8  9  1  0  0  0  0
  8 49  1  0  0  0  0
  8 50  1  0  0  0  0
  9 10  1  0  0  0  0
  9 51  1  0  0  0  0
 10 11  2  0  0  0  0
 12 18  1  0  0  0  0
 12 52  1  6  0  0  0
 12 13  1  0  0  0  0
 12 10  1  0  0  0  0
 13 14  1  0  0  0  0
 13 53  1  0  0  0  0
 13 54  1  0  0  0  0
 14 15  1  0  0  0  0
 14 55  1  0  0  0  0
 14 56  1  0  0  0  0
 15 16  1  0  0  0  0
 15 17  2  0  0  0  0
 16 57  1  0  0  0  0
 16 58  1  0  0  0  0
 18 19  1  0  0  0  0
 18 59  1  0  0  0  0
 19 20  2  0  0  0  0
 19 21  1  0  0  0  0
 21 22  1  0  0  0  0
 21 36  1  0  0  0  0
 21 60  1  1  0  0  0
 22 23  1  0  0  0  0
 22 61  1  0  0  0  0
 22 62  1  0  0  0  0
 23 24  2  0  0  0  0
 23 27  1  0  0  0  0
 24 25  1  0  0  0  0
 24 63  1  0  0  0  0
 25 26  1  0  0  0  0
 25 64  1  0  0  0  0
 26 27  2  0  0  0  0
 26 35  1  0  0  0  0
 27 28  1  0  0  0  0
 28 29  2  0  0  0  0
 28 65  1  0  0  0  0
 29 30  1  0  0  0  0
 29 34  1  0  0  0  0
 30 31  1  0  0  0  0
 31 32  1  0  0  0  0
 31 66  1  0  0  0  0
 31 67  1  0  0  0  0
 32 33  1  0  0  0  0
 32 68  1  0  0  0  0
 32 69  1  0  0  0  0
 33 70  1  0  0  0  0
 33 71  1  0  0  0  0
 33 72  1  0  0  0  0
 34 35  2  0  0  0  0
 34 73  1  0  0  0  0
 35 74  1  0  0  0  0
 36 37  1  0  0  0  0
 36 75  1  0  0  0  0
 37 38  2  0  0  0  0
 37 39  2  0  0  0  0
 37 40  1  0  0  0  0
 40 41  1  0  0  0  0
 40 76  1  0  0  0  0
 40 77  1  0  0  0  0
 41 78  1  0  0  0  0
 41 79  1  0  0  0  0
 41 80  1  0  0  0  0
 42 43  2  0  0  0  0
 42 81  1  0  0  0  0
 43 82  1  0  0  0  0
M  END
>  <DRUGBANK_ID>
DB04606

>  <COMMON_NAME>
2-[2-ETHANESULFONYLAMINO-3-(5-PROPOXY-1H-INDOL-3-YL)-PROPIONYLAMINO]-PENTANEDIOIC ACID 5-AMIDE 1-(4-CARBAMIMIDOYL-BENZYLAMIDE)

$$$$
