
 OpenBabel10282417213D

 34 36  0  0  0  0  0  0  0  0999 V2000
    2.4807    0.7092    0.0204 C   0  0  0  0  0  0  0  0  0  0  0  0
    2.4928   -0.6767   -0.0569 C   0  0  0  0  0  0  0  0  0  0  0  0
    1.2661    1.3867    0.0539 C   0  0  0  0  0  0  0  0  0  0  0  0
    1.2916   -1.3851   -0.1036 C   0  0  0  0  0  0  0  0  0  0  0  0
   -1.4951    1.1034    2.6618 C   0  0  0  0  0  0  0  0  0  0  0  0
   -2.4536    0.6640   -0.3719 C   0  0  0  0  0  0  0  0  0  0  0  0
   -1.8794    1.5225    3.9310 C   0  0  0  0  0  0  0  0  0  0  0  0
   -2.5174   -0.7378    0.2272 C   0  0  0  0  0  0  0  0  0  0  0  0
   -1.6492    3.3533    1.8310 C   0  0  0  0  0  0  0  0  0  0  0  0
   -1.4561    1.9866    1.5742 C   0  0  0  0  0  0  0  0  0  0  0  0
   -1.2423    1.4745    0.1481 C   0  0  1  0  0  0  0  0  0  0  0  0
    0.0469    0.6824    0.0295 C   0  0  0  0  0  0  0  0  0  0  0  0
    0.0491   -0.7269   -0.0356 C   0  0  0  0  0  0  0  0  0  0  0  0
   -2.1893    2.8624    4.1490 C   0  0  0  0  0  0  0  0  0  0  0  0
   -2.0373    3.7842    3.1093 C   0  0  0  0  0  0  0  0  0  0  0  0
   -1.2418   -1.5339   -0.0921 C   0  0  1  0  0  0  0  0  0  0  0  0
   -2.7585    3.2978    5.7192 Cl  0  0  0  0  0  0  0  0  0  0  0  0
   -2.3508    5.4701    3.3275 Cl  0  0  0  0  0  0  0  0  0  0  0  0
   -1.2114   -2.6862    0.8155 N   0  0  0  0  0  0  0  0  0  0  0  0
   -1.1577    2.3427   -0.5229 H   0  0  0  0  0  0  0  0  0  0  0  0
   -1.3414   -1.9051   -1.1200 H   0  0  0  0  0  0  0  0  0  0  0  0
    3.4145    1.2631    0.0585 H   0  0  0  0  0  0  0  0  0  0  0  0
    3.4376   -1.2129   -0.0815 H   0  0  0  0  0  0  0  0  0  0  0  0
    1.2699    2.4732    0.1195 H   0  0  0  0  0  0  0  0  0  0  0  0
    1.3417   -2.4672   -0.1876 H   0  0  0  0  0  0  0  0  0  0  0  0
   -1.2440    0.0532    2.5346 H   0  0  0  0  0  0  0  0  0  0  0  0
   -2.3766    0.5570   -1.4629 H   0  0  0  0  0  0  0  0  0  0  0  0
   -3.3913    1.1981   -0.1756 H   0  0  0  0  0  0  0  0  0  0  0  0
   -1.9505    0.7908    4.7296 H   0  0  0  0  0  0  0  0  0  0  0  0
   -2.6990   -0.6788    1.3041 H   0  0  0  0  0  0  0  0  0  0  0  0
   -3.3969   -1.2719   -0.1543 H   0  0  0  0  0  0  0  0  0  0  0  0
   -1.5099    4.0845    1.0386 H   0  0  0  0  0  0  0  0  0  0  0  0
   -0.4657   -3.3181    0.5342 H   0  0  0  0  0  0  0  0  0  0  0  0
   -0.9585   -2.3612    1.7482 H   0  0  0  0  0  0  0  0  0  0  0  0
  1 22  1  0  0  0  0
  2  1  2  0  0  0  0
  2 23  1  0  0  0  0
  3  1  1  0  0  0  0
  3 24  1  0  0  0  0
  4  2  1  0  0  0  0
  4 25  1  0  0  0  0
  5 26  1  0  0  0  0
  6 27  1  0  0  0  0
  6 28  1  0  0  0  0
  7  5  2  0  0  0  0
  7 29  1  0  0  0  0
  8  6  1  0  0  0  0
  8 30  1  0  0  0  0
  8 31  1  0  0  0  0
  9 32  1  0  0  0  0
 10  5  1  0  0  0  0
 10  9  2  0  0  0  0
 11  6  1  0  0  0  0
 11 12  1  0  0  0  0
 11 20  1  6  0  0  0
 11 10  1  0  0  0  0
 12  3  2  0  0  0  0
 13  4  2  0  0  0  0
 13 12  1  0  0  0  0
 14  7  1  0  0  0  0
 15  9  1  0  0  0  0
 15 14  2  0  0  0  0
 16  8  1  0  0  0  0
 16 13  1  0  0  0  0
 16 19  1  0  0  0  0
 16 21  1  6  0  0  0
 17 14  1  0  0  0  0
 18 15  1  0  0  0  0
 19 33  1  0  0  0  0
 19 34  1  0  0  0  0
M  END
>  <DRUGBANK_ID>
DB14071

>  <COMMON_NAME>
Desmethylsertraline

>  <CAS_NUMBER>
87857-41-8

>  <UNII>
CJJ71O9BE8

>  <SYNONYMS>
Demethylsertraline; N-Demethylsertraline; N-Desmethylsertraline; Norsertraline

$$$$
