167
 OpenBabel10282417163D

 57 59  0  0  0  0  0  0  0  0999 V2000
    0.9671   -0.4626    2.6398 C   0  0  0  0  0  0  0  0  0  0  0  0
    2.4207   -0.9076    2.8677 C   0  0  0  0  0  0  0  0  0  0  0  0
    2.6827   -2.4060    2.7500 C   0  0  0  0  0  0  0  0  0  0  0  0
    2.4657   -3.0415    1.3769 C   0  0  0  0  0  0  0  0  0  0  0  0
    3.2345   -2.3775    0.2266 C   0  0  0  0  0  0  0  0  0  0  0  0
    3.6291   -3.1245   -0.8304 N   0  0  0  0  0  0  0  0  0  0  0  0
    3.5107   -1.1216    0.2293 N   0  0  0  0  0  0  0  0  0  0  0  0
   -1.7906   -1.7815    1.1706 O   0  0  0  0  0  0  0  0  0  0  0  0
   -1.7561    0.4136    1.5471 O   0  0  0  0  0  0  0  0  0  0  0  0
    2.6750    1.7137    1.0709 O   0  0  0  0  0  0  0  0  0  0  0  0
    0.8991    0.1998    0.1179 C   0  0  1  0  0  0  0  0  0  0  0  0
    0.2168    1.8062   -1.4486 C   0  0  0  0  0  0  0  0  0  0  0  0
   -0.0192    0.5011   -1.0212 C   0  0  0  0  0  0  0  0  0  0  0  0
    1.3591    1.6070    0.5551 C   0  0  2  0  0  0  0  0  0  0  0  0
    1.3349    2.4475   -0.7082 C   0  0  0  0  0  0  0  0  0  0  0  0
   -0.9231   -0.3380   -1.6501 C   0  0  0  0  0  0  0  0  0  0  0  0
   -1.7052    0.2121   -2.6467 C   0  0  0  0  0  0  0  0  0  0  0  0
   -1.5298    1.5585   -3.0323 C   0  0  0  0  0  0  0  0  0  0  0  0
   -0.5267    2.3473   -2.4567 C   0  0  0  0  0  0  0  0  0  0  0  0
   -2.3521    2.1087   -4.0894 C   0  0  0  0  0  0  0  0  0  0  0  0
   -1.7305    2.5636   -5.2549 C   0  0  0  0  0  0  0  0  0  0  0  0
   -2.4823    3.0005   -6.3350 C   0  0  0  0  0  0  0  0  0  0  0  0
   -3.8753    2.9832   -6.2377 C   0  0  0  0  0  0  0  0  0  0  0  0
   -4.5065    2.5259   -5.0769 C   0  0  0  0  0  0  0  0  0  0  0  0
   -3.7440    2.1290   -3.9868 C   0  0  0  0  0  0  0  0  0  0  0  0
   -0.5285    3.3495   -7.6198 C   0  0  0  0  0  0  0  0  0  0  0  0
   -1.9511    3.4244   -7.5225 O   0  0  0  0  0  0  0  0  0  0  0  0
    0.3545   -0.6735    1.2426 C   0  0  2  0  0  0  0  0  0  0  0  0
   -1.1499   -0.7648    1.3275 C   0  0  0  0  0  0  0  0  0  0  0  0
    1.6833   -0.3285   -0.4107 H   0  0  0  0  0  0  0  0  0  0  0  0
    0.6507    2.0190    1.2821 H   0  0  0  0  0  0  0  0  0  0  0  0
    0.5501   -1.6633    0.8715 H   0  0  0  0  0  0  0  0  0  0  0  0
    0.8948    0.6011    2.9004 H   0  0  0  0  0  0  0  0  0  0  0  0
    0.3459   -0.9561    3.3946 H   0  0  0  0  0  0  0  0  0  0  0  0
    3.1334   -0.3998    2.2287 H   0  0  0  0  0  0  0  0  0  0  0  0
    2.7262   -0.5615    3.8641 H   0  0  0  0  0  0  0  0  0  0  0  0
    3.7295   -2.5828    3.0196 H   0  0  0  0  0  0  0  0  0  0  0  0
    2.0632   -2.9126    3.4978 H   0  0  0  0  0  0  0  0  0  0  0  0
    2.7439   -4.0966    1.4112 H   0  0  0  0  0  0  0  0  0  0  0  0
    1.4020   -3.1273    1.1553 H   0  0  0  0  0  0  0  0  0  0  0  0
    4.3805   -2.7028   -1.3645 H   0  0  0  0  0  0  0  0  0  0  0  0
    3.8107   -4.0957   -0.6103 H   0  0  0  0  0  0  0  0  0  0  0  0
    3.9059   -0.7825   -0.6500 H   0  0  0  0  0  0  0  0  0  0  0  0
   -2.7017    0.2048    1.3960 H   0  0  0  0  0  0  0  0  0  0  0  0
    2.6941    1.3025    1.9449 H   0  0  0  0  0  0  0  0  0  0  0  0
    1.1532    3.4902   -0.4456 H   0  0  0  0  0  0  0  0  0  0  0  0
    2.2842    2.3625   -1.2524 H   0  0  0  0  0  0  0  0  0  0  0  0
   -1.0446   -1.3812   -1.3713 H   0  0  0  0  0  0  0  0  0  0  0  0
   -2.4488   -0.4104   -3.1407 H   0  0  0  0  0  0  0  0  0  0  0  0
   -0.3418    3.3672   -2.7750 H   0  0  0  0  0  0  0  0  0  0  0  0
   -0.6456    2.5353   -5.2891 H   0  0  0  0  0  0  0  0  0  0  0  0
   -4.4797    3.3223   -7.0732 H   0  0  0  0  0  0  0  0  0  0  0  0
   -5.5889    2.4605   -5.0256 H   0  0  0  0  0  0  0  0  0  0  0  0
   -4.2270    1.8223   -3.0610 H   0  0  0  0  0  0  0  0  0  0  0  0
   -0.0520    4.0224   -6.8972 H   0  0  0  0  0  0  0  0  0  0  0  0
   -0.1716    2.3202   -7.4876 H   0  0  0  0  0  0  0  0  0  0  0  0
   -0.2350    3.6732   -8.6208 H   0  0  0  0  0  0  0  0  0  0  0  0
  1  2  1  0  0  0  0
  1 33  1  0  0  0  0
  1 34  1  0  0  0  0
  2  3  1  0  0  0  0
  2 35  1  0  0  0  0
  2 36  1  0  0  0  0
  3  4  1  0  0  0  0
  3 37  1  0  0  0  0
  3 38  1  0  0  0  0
  4  5  1  0  0  0  0
  4 39  1  0  0  0  0
  4 40  1  0  0  0  0
  5  6  1  0  0  0  0
  5  7  2  0  0  0  0
  6 41  1  0  0  0  0
  6 42  1  0  0  0  0
  7 43  1  0  0  0  0
  8 29  2  0  0  0  0
  9 29  1  0  0  0  0
  9 44  1  0  0  0  0
 10 45  1  0  0  0  0
 11 13  1  0  0  0  0
 11 14  1  0  0  0  0
 11 30  1  6  0  0  0
 12 13  2  0  0  0  0
 12 15  1  0  0  0  0
 12 19  1  0  0  0  0
 13 16  1  0  0  0  0
 14 15  1  0  0  0  0
 14 31  1  1  0  0  0
 14 10  1  0  0  0  0
 15 46  1  0  0  0  0
 15 47  1  0  0  0  0
 16 17  2  0  0  0  0
 16 48  1  0  0  0  0
 17 18  1  0  0  0  0
 17 49  1  0  0  0  0
 18 19  2  0  0  0  0
 18 20  1  0  0  0  0
 19 50  1  0  0  0  0
 20 21  2  0  0  0  0
 20 25  1  0  0  0  0
 21 22  1  0  0  0  0
 21 51  1  0  0  0  0
 22 23  2  0  0  0  0
 22 27  1  0  0  0  0
 23 24  1  0  0  0  0
 23 52  1  0  0  0  0
 24 25  2  0  0  0  0
 24 53  1  0  0  0  0
 25 54  1  0  0  0  0
 26 27  1  0  0  0  0
 26 55  1  0  0  0  0
 26 56  1  0  0  0  0
 26 57  1  0  0  0  0
 28 29  1  0  0  0  0
 28 32  1  6  0  0  0
 28 11  1  0  0  0  0
 28  1  1  0  0  0  0
M  END
>  <DRUGBANK_ID>
DB06866

>  <COMMON_NAME>
6-CARBAMIMIDOYL-2-[2-HYDROXY-5-(3-METHOXY-PHENYL)-INDAN-1-YL]-HEXANOIC ACID

$$$$
