877
 OpenBabel10282417163D

 46 47  0  0  0  0  0  0  0  0999 V2000
    1.0140   -1.2455   -0.0069 C   0  0  0  0  0  0  0  0  0  0  0  0
    2.4073   -1.2386    0.0058 C   0  0  0  0  0  0  0  0  0  0  0  0
    3.0836   -0.0076    0.0122 C   0  0  0  0  0  0  0  0  0  0  0  0
    2.3153    1.1829    0.0095 C   0  0  0  0  0  0  0  0  0  0  0  0
    0.8983    1.1693   -0.0002 C   0  0  0  0  0  0  0  0  0  0  0  0
    0.2548   -0.0746   -0.0066 C   0  0  0  0  0  0  0  0  0  0  0  0
    4.6045    0.0784    0.0017 C   0  0  0  0  0  0  0  0  0  0  0  0
    5.1436    0.7409   -1.2791 C   0  0  0  0  0  0  0  0  0  0  0  0
    5.9524    1.8580   -1.0990 N   0  0  0  0  0  0  0  0  0  0  0  0
    6.5009    2.6001   -2.1797 C   0  0  0  0  0  0  0  0  0  0  0  0
    4.9004    0.2371   -2.3745 O   0  0  0  0  0  0  0  0  0  0  0  0
    5.7528    2.8816   -3.2685 N   0  0  0  0  0  0  0  0  0  0  0  0
    6.3095    3.6222   -4.2664 C   0  0  0  0  0  0  0  0  0  0  0  0
    7.6021    4.1278   -4.2213 C   0  0  0  0  0  0  0  0  0  0  0  0
    8.3762    3.8467   -3.0895 C   0  0  0  0  0  0  0  0  0  0  0  0
    7.8025    3.0872   -2.0551 C   0  0  0  0  0  0  0  0  0  0  0  0
    0.3453    2.4267   -0.0012 O   0  0  0  0  0  0  0  0  0  0  0  0
   -1.0727    2.5152   -0.0097 C   0  0  0  0  0  0  0  0  0  0  0  0
    3.1424   -2.3977    0.0138 O   0  0  0  0  0  0  0  0  0  0  0  0
    2.4009   -3.6219   -0.0227 C   0  0  0  0  0  0  0  0  0  0  0  0
    9.6686    4.3449   -2.9431 N   0  0  0  0  0  0  0  0  0  0  0  0
    8.1270    4.9179   -5.2920 C   0  0  0  0  0  0  0  0  0  0  0  0
    5.5917    3.9016   -5.4193 O   0  0  0  0  0  0  0  0  0  0  0  0
    4.2599    3.3993   -5.5082 C   0  0  0  0  0  0  0  0  0  0  0  0
    4.2093    1.8849   -5.5835 C   0  0  0  0  0  0  0  0  0  0  0  0
   -1.6171   -0.4716   -0.0047 Br  0  0  0  0  0  0  0  0  0  0  0  0
    8.6311    5.5772   -6.1118 N   0  0  0  0  0  0  0  0  0  0  0  0
    0.4659   -2.1806   -0.0196 H   0  0  0  0  0  0  0  0  0  0  0  0
    2.8351    2.1431   -0.0031 H   0  0  0  0  0  0  0  0  0  0  0  0
    4.9532    0.5767    0.9147 H   0  0  0  0  0  0  0  0  0  0  0  0
    5.0431   -0.9292    0.0428 H   0  0  0  0  0  0  0  0  0  0  0  0
    6.3165    2.0523   -0.1769 H   0  0  0  0  0  0  0  0  0  0  0  0
    8.4020    2.8400   -1.1855 H   0  0  0  0  0  0  0  0  0  0  0  0
   -1.4771    2.0738   -0.9269 H   0  0  0  0  0  0  0  0  0  0  0  0
   -1.4847    2.0730    0.9035 H   0  0  0  0  0  0  0  0  0  0  0  0
   -1.3886    3.5605   -0.0094 H   0  0  0  0  0  0  0  0  0  0  0  0
    1.7717   -3.7284    0.8701 H   0  0  0  0  0  0  0  0  0  0  0  0
    1.7952   -3.6977   -0.9349 H   0  0  0  0  0  0  0  0  0  0  0  0
    3.1066   -4.4556   -0.0273 H   0  0  0  0  0  0  0  0  0  0  0  0
   10.2502    4.0946   -2.1557 H   0  0  0  0  0  0  0  0  0  0  0  0
   10.1092    4.8763   -3.6905 H   0  0  0  0  0  0  0  0  0  0  0  0
    3.6321    3.8101   -4.7103 H   0  0  0  0  0  0  0  0  0  0  0  0
    3.8522    3.7902   -6.4516 H   0  0  0  0  0  0  0  0  0  0  0  0
    4.5971    1.4249   -4.6759 H   0  0  0  0  0  0  0  0  0  0  0  0
    3.1831    1.5349   -5.7130 H   0  0  0  0  0  0  0  0  0  0  0  0
    4.8311    1.5195   -6.4060 H   0  0  0  0  0  0  0  0  0  0  0  0
  1  2  2  0  0  0  0
  1  6  1  0  0  0  0
  1 28  1  0  0  0  0
  2  3  1  0  0  0  0
  2 19  1  0  0  0  0
  3  4  2  0  0  0  0
  3  7  1  0  0  0  0
  4  5  1  0  0  0  0
  4 29  1  0  0  0  0
  5  6  2  0  0  0  0
  5 17  1  0  0  0  0
  6 26  1  0  0  0  0
  7  8  1  0  0  0  0
  7 30  1  0  0  0  0
  7 31  1  0  0  0  0
  8  9  1  0  0  0  0
  8 11  2  0  0  0  0
  9 10  1  0  0  0  0
  9 32  1  0  0  0  0
 10 12  1  0  0  0  0
 10 16  2  0  0  0  0
 12 13  2  0  0  0  0
 13 14  1  0  0  0  0
 13 23  1  0  0  0  0
 14 15  2  0  0  0  0
 14 22  1  0  0  0  0
 15 16  1  0  0  0  0
 15 21  1  0  0  0  0
 16 33  1  0  0  0  0
 17 18  1  0  0  0  0
 18 34  1  0  0  0  0
 18 35  1  0  0  0  0
 18 36  1  0  0  0  0
 19 20  1  0  0  0  0
 20 37  1  0  0  0  0
 20 38  1  0  0  0  0
 20 39  1  0  0  0  0
 21 40  1  0  0  0  0
 21 41  1  0  0  0  0
 22 27  3  0  0  0  0
 23 24  1  0  0  0  0
 24 25  1  0  0  0  0
 24 42  1  0  0  0  0
 24 43  1  0  0  0  0
 25 44  1  0  0  0  0
 25 45  1  0  0  0  0
 25 46  1  0  0  0  0
M  END
>  <DRUGBANK_ID>
DB07272

>  <COMMON_NAME>
N-(4-AMINO-5-CYANO-6-ETHOXYPYRIDIN-2-YL)-2-(4-BROMO-2,5-DIMETHOXYPHENYL)ACETAMIDE

$$$$
