AES
 OpenBabel10282417163D

 23 23  0  0  0  0  0  0  0  0999 V2000
    1.3803   -0.2448    0.0088 C   0  0  0  0  0  0  0  0  0  0  0  0
    0.5182   -1.3432    0.0112 C   0  0  0  0  0  0  0  0  0  0  0  0
   -0.8645   -1.1394   -0.0023 C   0  0  0  0  0  0  0  0  0  0  0  0
   -1.9673   -2.5214   -0.0035 S   0  0  0  0  0  0  0  0  0  0  0  0
   -2.8518   -2.3719    1.3052 F   0  0  0  0  0  0  0  0  0  0  0  0
   -2.8811   -2.3628   -1.1209 O   0  0  0  0  0  0  0  0  0  0  0  0
   -1.1911   -3.7255    0.1910 O   0  0  0  0  0  0  0  0  0  0  0  0
   -1.3963    0.1444    0.0665 C   0  0  0  0  0  0  0  0  0  0  0  0
   -0.5251    1.2236    0.1659 C   0  0  0  0  0  0  0  0  0  0  0  0
    0.8600    1.0535    0.0064 C   0  0  0  0  0  0  0  0  0  0  0  0
    1.7523    2.2498   -0.2716 C   0  0  0  0  0  0  0  0  0  0  0  0
    1.4017    2.9679   -1.5999 C   0  0  0  0  0  0  0  0  0  0  0  0
    0.0551    3.5498   -1.6225 N   0  0  0  0  0  0  0  0  0  0  0  0
    2.4554   -0.4122   -0.0026 H   0  0  0  0  0  0  0  0  0  0  0  0
    0.9322   -2.3484    0.0023 H   0  0  0  0  0  0  0  0  0  0  0  0
   -2.4686    0.3236    0.0264 H   0  0  0  0  0  0  0  0  0  0  0  0
   -0.9403    2.2209    0.3051 H   0  0  0  0  0  0  0  0  0  0  0  0
    1.7112    2.9510    0.5693 H   0  0  0  0  0  0  0  0  0  0  0  0
    2.7974    1.9163   -0.3457 H   0  0  0  0  0  0  0  0  0  0  0  0
    2.1203    3.7759   -1.7732 H   0  0  0  0  0  0  0  0  0  0  0  0
    1.4922    2.2657   -2.4378 H   0  0  0  0  0  0  0  0  0  0  0  0
   -0.1226    3.9884   -2.5234 H   0  0  0  0  0  0  0  0  0  0  0  0
   -0.6165    2.7827   -1.5959 H   0  0  0  0  0  0  0  0  0  0  0  0
  1  2  2  0  0  0  0
  1 10  1  0  0  0  0
  1 14  1  0  0  0  0
  2  3  1  0  0  0  0
  2 15  1  0  0  0  0
  3  4  1  0  0  0  0
  3  8  2  0  0  0  0
  4  5  1  0  0  0  0
  4  6  2  0  0  0  0
  4  7  2  0  0  0  0
  8  9  1  0  0  0  0
  8 16  1  0  0  0  0
  9 10  2  0  0  0  0
  9 17  1  0  0  0  0
 10 11  1  0  0  0  0
 11 12  1  0  0  0  0
 11 18  1  0  0  0  0
 11 19  1  0  0  0  0
 12 13  1  0  0  0  0
 12 20  1  0  0  0  0
 12 21  1  0  0  0  0
 13 22  1  0  0  0  0
 13 23  1  0  0  0  0
M  END
>  <DRUGBANK_ID>
DB07347

>  <COMMON_NAME>
4-(2-Aminoethyl)Benzenesulfonyl Fluoride

>  <CAS_NUMBER>
34284-75-8

>  <UNII>
F5D36L5354

$$$$
