
 OpenBabel10282417183D

 56 59  0  0  1  0  0  0  0  0999 V2000
    0.7549   -0.1018    0.1617 C   0  0  0  0  0  0  0  0  0  0  0  0
    5.1584   -0.1826   -2.1193 C   0  0  0  0  0  0  0  0  0  0  0  0
   -0.6947    2.0994   -4.4343 C   0  0  0  0  0  0  0  0  0  0  0  0
    3.6653    3.2602    0.0776 C   0  0  0  0  0  0  0  0  0  0  0  0
    2.8290    3.7530   -0.9974 C   0  0  0  0  0  0  0  0  0  0  0  0
   -1.0569    2.7207   -2.1113 C   0  0  0  0  0  0  0  0  0  0  0  0
    0.3452    3.6805   -2.9421 C   0  0  0  0  0  0  0  0  0  0  0  0
    6.6480    1.8473    0.0068 C   0  0  0  0  0  0  0  0  0  0  0  0
    5.3137    0.4546   -0.0369 C   0  0  0  0  0  0  0  0  0  0  0  0
    5.4050    2.8182   -1.8029 C   0  0  0  0  0  0  0  0  0  0  0  0
    1.2722    0.6072   -3.7373 C   0  0  0  0  0  0  0  0  0  0  0  0
    0.0151    1.1050   -0.3615 C   0  0  0  0  0  0  0  0  0  0  0  0
    4.5471    2.2870   -0.7021 C   0  0  1  0  0  0  0  0  0  0  0  0
    6.4115    3.3230   -0.9051 C   0  0  2  0  0  0  0  0  0  0  0  0
    2.3141    2.4119   -1.5441 C   0  0  1  0  0  0  0  0  0  0  0  0
   -0.5035    1.2158   -1.8814 C   0  0  2  0  0  0  0  0  0  0  0  0
    1.0829    2.6850   -2.2535 C   0  0  1  0  0  0  0  0  0  0  0  0
    2.2584    0.1409   -2.6959 C   0  0  0  0  0  0  0  0  0  0  0  0
    3.1652    1.2743   -2.1355 C   0  0  2  0  0  0  0  0  0  0  0  0
    4.3962    0.8669   -1.2522 C   0  0  2  0  0  0  0  0  0  0  0  0
    0.3548    1.5577   -3.0562 C   0  0  1  0  0  0  0  0  0  0  0  0
   -0.0713    2.0632    0.4242 O   0  0  0  0  0  0  0  0  0  0  0  0
    7.4255    3.9086   -1.7010 O   0  0  0  0  0  0  0  0  0  0  0  0
    2.2455   -0.9876   -2.3294 O   0  0  0  0  0  0  0  0  0  0  0  0
    4.8631    2.2281    0.3480 H   0  0  0  0  0  0  0  0  0  0  0  0
    5.9824    4.1500   -0.3262 H   0  0  0  0  0  0  0  0  0  0  0  0
    2.0472    1.9107   -0.6136 H   0  0  0  0  0  0  0  0  0  0  0  0
   -1.0867    0.3190   -2.1068 H   0  0  0  0  0  0  0  0  0  0  0  0
    0.6834    3.1729   -1.3242 H   0  0  0  0  0  0  0  0  0  0  0  0
    3.5618    1.7110   -3.0713 H   0  0  0  0  0  0  0  0  0  0  0  0
    0.4814   -0.9960   -0.3842 H   0  0  0  0  0  0  0  0  0  0  0  0
    0.4883   -0.2064    1.2207 H   0  0  0  0  0  0  0  0  0  0  0  0
    1.8424    0.0341    0.1410 H   0  0  0  0  0  0  0  0  0  0  0  0
    5.9013   -0.7747   -1.5577 H   0  0  0  0  0  0  0  0  0  0  0  0
    4.4861   -0.9873   -2.4317 H   0  0  0  0  0  0  0  0  0  0  0  0
    5.6555    0.2160   -2.9940 H   0  0  0  0  0  0  0  0  0  0  0  0
   -1.3989    1.3212   -4.7157 H   0  0  0  0  0  0  0  0  0  0  0  0
   -1.3394    2.9970   -4.2510 H   0  0  0  0  0  0  0  0  0  0  0  0
   -0.1155    2.4909   -5.2810 H   0  0  0  0  0  0  0  0  0  0  0  0
    4.2333    4.0460    0.6042 H   0  0  0  0  0  0  0  0  0  0  0  0
    3.1103    2.7644    0.9061 H   0  0  0  0  0  0  0  0  0  0  0  0
    3.3899    4.3417   -1.7202 H   0  0  0  0  0  0  0  0  0  0  0  0
    2.1011    4.4167   -0.5223 H   0  0  0  0  0  0  0  0  0  0  0  0
   -1.9946    2.5711   -2.6462 H   0  0  0  0  0  0  0  0  0  0  0  0
   -1.3218    3.1343   -1.1443 H   0  0  0  0  0  0  0  0  0  0  0  0
    0.7078    4.6680   -2.6682 H   0  0  0  0  0  0  0  0  0  0  0  0
    0.8968    3.4524   -3.9074 H   0  0  0  0  0  0  0  0  0  0  0  0
    7.6620    2.0423    0.3607 H   0  0  0  0  0  0  0  0  0  0  0  0
    6.4158    1.9823    1.0727 H   0  0  0  0  0  0  0  0  0  0  0  0
    4.2437    0.1695    0.2482 H   0  0  0  0  0  0  0  0  0  0  0  0
    5.2108    0.3417    1.0682 H   0  0  0  0  0  0  0  0  0  0  0  0
    5.9491    2.0587   -2.3798 H   0  0  0  0  0  0  0  0  0  0  0  0
    4.9015    3.3862   -2.5840 H   0  0  0  0  0  0  0  0  0  0  0  0
    0.6886   -0.2158   -4.1532 H   0  0  0  0  0  0  0  0  0  0  0  0
    1.7870    1.1011   -4.5748 H   0  0  0  0  0  0  0  0  0  0  0  0
    7.5745    3.3976   -2.5150 H   0  0  0  0  0  0  0  0  0  0  0  0
  1 31  1  0  0  0  0
  1 32  1  0  0  0  0
  1 33  1  0  0  0  0
  2 34  1  0  0  0  0
  2 35  1  0  0  0  0
  2 36  1  0  0  0  0
  3 37  1  0  0  0  0
  3 38  1  0  0  0  0
  3 39  1  0  0  0  0
  4 40  1  0  0  0  0
  4 41  1  0  0  0  0
  5  4  1  0  0  0  0
  5 42  1  0  0  0  0
  5 43  1  0  0  0  0
  6 44  1  0  0  0  0
  6 45  1  0  0  0  0
  7  6  1  0  0  0  0
  7 46  1  0  0  0  0
  7 47  1  0  0  0  0
  8 48  1  0  0  0  0
  8 49  1  0  0  0  0
  9  8  1  0  0  0  0
  9 50  1  0  0  0  0
  9 51  1  0  0  0  0
 10 52  1  0  0  0  0
 10 53  1  0  0  0  0
 11 54  1  0  0  0  0
 11 55  1  0  0  0  0
 12  1  1  0  0  0  0
 13  4  1  0  0  0  0
 13 10  1  0  0  0  0
 13 25  1  6  0  0  0
 14  8  1  0  0  0  0
 14 10  1  0  0  0  0
 14 23  1  0  0  0  0
 14 26  1  1  0  0  0
 15  5  1  0  0  0  0
 15 27  1  1  0  0  0
 16  6  1  0  0  0  0
 16 12  1  0  0  0  0
 16 28  1  6  0  0  0
 17  7  1  0  0  0  0
 17 15  1  0  0  0  0
 17 29  1  6  0  0  0
 18 11  1  0  0  0  0
 19 15  1  0  0  0  0
 19 18  1  0  0  0  0
 19 30  1  6  0  0  0
 20  2  1  1  0  0  0
 20  9  1  0  0  0  0
 20 13  1  0  0  0  0
 20 19  1  0  0  0  0
 21  3  1  1  0  0  0
 21 11  1  0  0  0  0
 21 16  1  0  0  0  0
 21 17  1  0  0  0  0
 22 12  2  0  0  0  0
 23 56  1  0  0  0  0
 24 18  2  0  0  0  0
M  END
>  <DRUGBANK_ID>
DB11371

>  <COMMON_NAME>
Alfaxalone

>  <CAS_NUMBER>
23930-19-0

>  <UNII>
BD07M97B2A

>  <SYNONYMS>
Alfaxalone

$$$$
