
 OpenBabel10282417143D

 30 32  0  0  1  0  0  0  0  0999 V2000
    2.2125   -0.0218    0.1289 O   0  0  0  0  0  0  0  0  0  0  0  0
    0.8556    0.0687    0.0159 C   0  0  0  0  0  0  0  0  0  0  0  0
    0.0224   -1.0273   -0.1018 C   0  0  0  0  0  0  0  0  0  0  0  0
   -1.3315   -0.7910   -0.4449 C   0  0  0  0  0  0  0  0  0  0  0  0
   -1.8284    0.5353   -0.7273 C   0  0  0  0  0  0  0  0  0  0  0  0
   -1.0534    1.5762   -0.2603 C   0  0  0  0  0  0  0  0  0  0  0  0
    0.3003    1.3475    0.0304 C   0  0  0  0  0  0  0  0  0  0  0  0
   -3.0325    0.8094   -1.6856 C   0  0  2  0  0  0  0  0  0  0  0  0
   -3.1746    1.8653   -3.0271 C   0  0  0  0  0  0  0  0  0  0  0  0
   -4.6370    2.1037   -2.9862 C   0  0  0  0  0  0  0  0  0  0  0  0
   -5.1229    3.1001   -2.3944 O   0  0  0  0  0  0  0  0  0  0  0  0
   -5.3188    0.8116   -3.2450 C   0  0  0  0  0  0  0  0  0  0  0  0
   -5.3612    0.1996   -4.5214 C   0  0  0  0  0  0  0  0  0  0  0  0
   -5.3205   -1.2070   -4.6344 C   0  0  0  0  0  0  0  0  0  0  0  0
   -5.1152   -2.0019   -3.5020 C   0  0  0  0  0  0  0  0  0  0  0  0
   -4.9537   -1.4001   -2.2562 C   0  0  0  0  0  0  0  0  0  0  0  0
   -5.0741   -0.0109   -2.1328 C   0  0  0  0  0  0  0  0  0  0  0  0
   -4.3516    0.5746   -1.0708 O   0  0  0  0  0  0  0  0  0  0  0  0
    2.5131   -0.9329   -0.0224 H   0  0  0  0  0  0  0  0  0  0  0  0
    0.4082   -2.0399    0.0304 H   0  0  0  0  0  0  0  0  0  0  0  0
   -1.9717   -1.6736   -0.5132 H   0  0  0  0  0  0  0  0  0  0  0  0
   -1.4754    2.5697   -0.1756 H   0  0  0  0  0  0  0  0  0  0  0  0
    0.9471    2.1967    0.2171 H   0  0  0  0  0  0  0  0  0  0  0  0
   -2.8674   -0.1369   -2.1898 H   0  0  0  0  0  0  0  0  0  0  0  0
   -2.6385    2.8222   -3.0988 H   0  0  0  0  0  0  0  0  0  0  0  0
   -3.1183    1.4479   -4.0664 H   0  0  0  0  0  0  0  0  0  0  0  0
   -5.2826    0.7793   -5.4424 H   0  0  0  0  0  0  0  0  0  0  0  0
   -5.3853   -1.6901   -5.6111 H   0  0  0  0  0  0  0  0  0  0  0  0
   -5.0157   -3.0826   -3.5920 H   0  0  0  0  0  0  0  0  0  0  0  0
   -4.5459   -1.9696   -1.4239 H   0  0  0  0  0  0  0  0  0  0  0  0
  1  2  1  0  0  0  0
  1 19  1  0  0  0  0
  2  3  2  0  0  0  0
  2  7  1  0  0  0  0
  3  4  1  0  0  0  0
  3 20  1  0  0  0  0
  4  5  2  0  0  0  0
  4 21  1  0  0  0  0
  5  6  1  0  0  0  0
  6  7  2  0  0  0  0
  6 22  1  0  0  0  0
  7 23  1  0  0  0  0
  8  5  1  0  0  0  0
  8  9  1  0  0  0  0
  8 18  1  0  0  0  0
  8 24  1  6  0  0  0
  9 10  1  0  0  0  0
  9 25  1  0  0  0  0
  9 26  1  0  0  0  0
 10 11  2  0  0  0  0
 10 12  1  0  0  0  0
 12 13  2  0  0  0  0
 12 17  1  0  0  0  0
 13 14  1  0  0  0  0
 13 27  1  0  0  0  0
 14 15  2  0  0  0  0
 14 28  1  0  0  0  0
 15 16  1  0  0  0  0
 15 29  1  0  0  0  0
 16 17  2  0  0  0  0
 16 30  1  0  0  0  0
 17 18  1  0  0  0  0
M  END
>  <DRUGBANK_ID>
DB04429

>  <SECONDARY_ACCESSION_NUMBERS>
EXPT01169

>  <COMMON_NAME>
4'-Hydroxyflavanone

>  <UNII>
5K6L8O868Y

$$$$
