
 OpenBabel10282417243D

 48 51  0  0  0  0  0  0  0  0999 V2000
    0.9215    0.2627   -0.1211 S   0  0  0  0  0  0  0  0  0  0  0  0
    2.5571   -0.0724    0.1329 C   0  0  0  0  0  0  0  0  0  0  0  0
    3.4899    0.9380   -0.0972 N   0  0  0  0  0  0  0  0  0  0  0  0
    4.9116    1.0907   -0.1564 N   0  0  0  0  0  0  0  0  0  0  0  0
    5.8289    0.1357   -0.3482 C   0  0  0  0  0  0  0  0  0  0  0  0
    5.5381   -1.2718   -0.5544 C   0  0  0  0  0  0  0  0  0  0  0  0
    6.1559   -1.9205    0.6754 C   0  0  0  0  0  0  0  0  0  0  0  0
    7.5678   -2.2245    0.5334 C   0  0  0  0  0  0  0  0  0  0  0  0
    8.0955   -0.8873    0.1643 C   0  0  0  0  0  0  0  0  0  0  0  0
    7.3154    0.2637   -0.2354 C   0  0  0  0  0  0  0  0  0  0  0  0
    7.8766    1.4064   -0.6208 N   0  0  0  0  0  0  0  0  0  0  0  0
    9.2235    1.3705   -0.6423 C   0  0  0  0  0  0  0  0  0  0  0  0
   10.0376    0.3040   -0.2419 C   0  0  0  0  0  0  0  0  0  0  0  0
    9.4560   -0.8436    0.2163 C   0  0  0  0  0  0  0  0  0  0  0  0
    2.8991   -1.2811    0.7184 N   0  0  0  0  0  0  0  0  0  0  0  0
    2.8158   -2.5716   -0.0820 C   0  0  0  0  0  0  0  0  0  0  0  0
    3.0123   -3.8536    0.7366 C   0  0  0  0  0  0  0  0  0  0  0  0
    4.1686   -3.8199    1.6356 N   0  0  0  0  0  0  0  0  0  0  0  0
    4.1707   -2.6139    2.5593 C   0  0  0  0  0  0  0  0  0  0  0  0
    3.7865   -1.2290    1.8782 C   0  0  0  0  0  0  0  0  0  0  0  0
    5.1897   -4.7998    1.4981 C   0  0  0  0  0  0  0  0  0  0  0  0
    5.7480   -5.3784    2.6284 C   0  0  0  0  0  0  0  0  0  0  0  0
    6.5780   -6.5116    2.5309 C   0  0  0  0  0  0  0  0  0  0  0  0
    7.1084   -6.8889    1.3119 C   0  0  0  0  0  0  0  0  0  0  0  0
    6.7017   -6.1422    0.2270 C   0  0  0  0  0  0  0  0  0  0  0  0
    5.7059   -5.1832    0.2811 N   0  0  0  0  0  0  0  0  0  0  0  0
    3.0277    1.8465   -0.2252 H   0  0  0  0  0  0  0  0  0  0  0  0
    5.8823   -1.7415   -1.4764 H   0  0  0  0  0  0  0  0  0  0  0  0
    4.4952   -1.2303   -0.6981 H   0  0  0  0  0  0  0  0  0  0  0  0
    6.1765   -1.3465    1.6196 H   0  0  0  0  0  0  0  0  0  0  0  0
    5.7378   -2.8585    0.8090 H   0  0  0  0  0  0  0  0  0  0  0  0
    7.9420   -2.5813    1.5091 H   0  0  0  0  0  0  0  0  0  0  0  0
    7.7079   -3.0165   -0.2050 H   0  0  0  0  0  0  0  0  0  0  0  0
    9.6765    2.2676   -1.0406 H   0  0  0  0  0  0  0  0  0  0  0  0
   11.1096    0.3336   -0.3080 H   0  0  0  0  0  0  0  0  0  0  0  0
   10.0045   -1.7169    0.5603 H   0  0  0  0  0  0  0  0  0  0  0  0
    1.8635   -2.5840   -0.6202 H   0  0  0  0  0  0  0  0  0  0  0  0
    3.5271   -2.6223   -0.9166 H   0  0  0  0  0  0  0  0  0  0  0  0
    2.1333   -3.9246    1.3778 H   0  0  0  0  0  0  0  0  0  0  0  0
    3.0220   -4.7301    0.0796 H   0  0  0  0  0  0  0  0  0  0  0  0
    3.4152   -2.7647    3.3286 H   0  0  0  0  0  0  0  0  0  0  0  0
    5.1356   -2.5139    3.0790 H   0  0  0  0  0  0  0  0  0  0  0  0
    4.6267   -0.6434    1.5553 H   0  0  0  0  0  0  0  0  0  0  0  0
    3.4656   -0.4620    2.5982 H   0  0  0  0  0  0  0  0  0  0  0  0
    5.4977   -4.9937    3.6047 H   0  0  0  0  0  0  0  0  0  0  0  0
    6.7907   -7.0995    3.4189 H   0  0  0  0  0  0  0  0  0  0  0  0
    7.8137   -7.7144    1.2295 H   0  0  0  0  0  0  0  0  0  0  0  0
    7.1839   -6.3157   -0.7390 H   0  0  0  0  0  0  0  0  0  0  0  0
  1  2  2  0  0  0  0
  2  3  1  0  0  0  0
  2 15  1  0  0  0  0
  3  4  1  0  0  0  0
  3 27  1  0  0  0  0
  4  5  2  0  0  0  0
  5  6  1  0  0  0  0
  5 10  1  0  0  0  0
  6  7  1  0  0  0  0
  6 28  1  0  0  0  0
  6 29  1  0  0  0  0
  7  8  1  0  0  0  0
  7 30  1  0  0  0  0
  7 31  1  0  0  0  0
  8  9  1  0  0  0  0
  8 32  1  0  0  0  0
  8 33  1  0  0  0  0
  9 10  2  0  0  0  0
  9 14  1  0  0  0  0
 10 11  1  0  0  0  0
 11 12  2  0  0  0  0
 12 13  1  0  0  0  0
 12 34  1  0  0  0  0
 13 14  2  0  0  0  0
 13 35  1  0  0  0  0
 14 36  1  0  0  0  0
 15 16  1  0  0  0  0
 15 20  1  0  0  0  0
 16 17  1  0  0  0  0
 16 37  1  0  0  0  0
 16 38  1  0  0  0  0
 17 18  1  0  0  0  0
 17 39  1  0  0  0  0
 17 40  1  0  0  0  0
 18 19  1  0  0  0  0
 18 21  1  0  0  0  0
 19 20  1  0  0  0  0
 19 41  1  0  0  0  0
 19 42  1  0  0  0  0
 20 43  1  0  0  0  0
 20 44  1  0  0  0  0
 21 22  2  0  0  0  0
 21 26  1  0  0  0  0
 22 23  1  0  0  0  0
 22 45  1  0  0  0  0
 23 24  2  0  0  0  0
 23 46  1  0  0  0  0
 24 25  1  0  0  0  0
 24 47  1  0  0  0  0
 25 26  2  0  0  0  0
 25 48  1  0  0  0  0
M  END
>  <DRUGBANK_ID>
DB17507

>  <COMMON_NAME>
COTI-2

>  <CAS_NUMBER>
1039455-84-9

>  <UNII>
2BTA1O65BR

>  <SYNONYMS>
1-piperazinecarbothioic acid, 4-(2-pyridinyl)-, 2-(6,7-dihydro-8(5h)-quinolinylidene)hydrazide

$$$$
