
 OpenBabel10282417163D

 45 47  0  0  0  0  0  0  0  0999 V2000
   -3.7760    0.1736    0.0204 Cl  0  0  0  0  0  0  0  0  0  0  0  0
    0.7540    3.5216   -0.0280 S   0  0  2  0  0  0  0  0  0  0  0  0
   -0.7279    3.7097   -0.0869 O   0  0  0  0  0  0  0  0  0  0  0  0
    4.0730   -0.3735   -0.4847 O   0  0  0  0  0  0  0  0  0  0  0  0
    1.9690   -0.9969   -0.0592 N   0  0  0  0  0  0  0  0  0  0  0  0
    1.4345    4.2616   -1.5820 C   0  0  0  0  0  0  0  0  0  0  0  0
    0.9607    3.5842   -2.8626 C   0  0  0  0  0  0  0  0  0  0  0  0
    2.9392    4.2619   -1.5256 C   0  0  0  0  0  0  0  0  0  0  0  0
    1.7431    4.1238   -4.0753 C   0  0  0  0  0  0  0  0  0  0  0  0
    3.7413    4.7292   -2.6983 C   0  0  0  0  0  0  0  0  0  0  0  0
    3.2597    3.9786   -3.9246 C   0  0  0  0  0  0  0  0  0  0  0  0
    1.2185    1.7398   -0.0749 C   0  0  0  0  0  0  0  0  0  0  0  0
    2.5228    1.3758    0.0802 C   0  0  0  0  0  0  0  0  0  0  0  0
    0.1965    0.6506   -0.0655 C   0  0  0  0  0  0  0  0  0  0  0  0
    3.6776    2.3034    0.3792 C   0  0  0  0  0  0  0  0  0  0  0  0
    0.6135   -0.6941   -0.0249 C   0  0  0  0  0  0  0  0  0  0  0  0
    2.9233   -0.0471   -0.1783 C   0  0  0  0  0  0  0  0  0  0  0  0
    4.4970    2.2216    1.6391 C   0  0  0  0  0  0  0  0  0  0  0  0
   -1.1820    0.8691   -0.0352 C   0  0  0  0  0  0  0  0  0  0  0  0
   -0.2914   -1.7601    0.0157 C   0  0  0  0  0  0  0  0  0  0  0  0
   -2.0938   -0.1832    0.0031 C   0  0  0  0  0  0  0  0  0  0  0  0
    5.3000    0.9566    1.6765 C   0  0  0  0  0  0  0  0  0  0  0  0
   -1.6559   -1.4984    0.0267 C   0  0  0  0  0  0  0  0  0  0  0  0
    2.2908   -1.9544   -0.1329 H   0  0  0  0  0  0  0  0  0  0  0  0
    1.0873    5.3023   -1.5725 H   0  0  0  0  0  0  0  0  0  0  0  0
    1.1017    2.4984   -2.8029 H   0  0  0  0  0  0  0  0  0  0  0  0
   -0.1123    3.7544   -3.0063 H   0  0  0  0  0  0  0  0  0  0  0  0
    3.2998    4.7748   -0.6306 H   0  0  0  0  0  0  0  0  0  0  0  0
    3.1707    3.2068   -1.5503 H   0  0  0  0  0  0  0  0  0  0  0  0
    1.4218    3.6002   -4.9789 H   0  0  0  0  0  0  0  0  0  0  0  0
    1.5112    5.1878   -4.2021 H   0  0  0  0  0  0  0  0  0  0  0  0
    4.7943    4.4829   -2.4987 H   0  0  0  0  0  0  0  0  0  0  0  0
    3.6583    5.8117   -2.7994 H   0  0  0  0  0  0  0  0  0  0  0  0
    3.5154    2.9124   -3.8319 H   0  0  0  0  0  0  0  0  0  0  0  0
    3.7896    4.3593   -4.8005 H   0  0  0  0  0  0  0  0  0  0  0  0
    4.3800    2.3013   -0.4671 H   0  0  0  0  0  0  0  0  0  0  0  0
    3.2629    3.2917    0.5266 H   0  0  0  0  0  0  0  0  0  0  0  0
    5.1757    3.0883    1.6328 H   0  0  0  0  0  0  0  0  0  0  0  0
    3.8413    2.3269    2.5065 H   0  0  0  0  0  0  0  0  0  0  0  0
   -1.6071    1.8597   -0.0256 H   0  0  0  0  0  0  0  0  0  0  0  0
    0.0557   -2.7899    0.0343 H   0  0  0  0  0  0  0  0  0  0  0  0
    5.8820    0.8527    0.7523 H   0  0  0  0  0  0  0  0  0  0  0  0
    5.9794    0.9526    2.5241 H   0  0  0  0  0  0  0  0  0  0  0  0
    4.6255    0.1063    1.7834 H   0  0  0  0  0  0  0  0  0  0  0  0
   -2.3711   -2.3134    0.0548 H   0  0  0  0  0  0  0  0  0  0  0  0
  1 21  1  0  0  0  0
  2 12  1  0  0  0  0
  2  6  1  0  0  0  0
  2  3  2  6  0  0  0
  4 17  2  0  0  0  0
  5 16  1  0  0  0  0
  5 17  1  0  0  0  0
  5 24  1  0  0  0  0
  6  7  1  0  0  0  0
  6  8  1  0  0  0  0
  6 25  1  0  0  0  0
  7  9  1  0  0  0  0
  7 26  1  0  0  0  0
  7 27  1  0  0  0  0
  8 10  1  0  0  0  0
  8 28  1  0  0  0  0
  8 29  1  0  0  0  0
  9 11  1  0  0  0  0
  9 30  1  0  0  0  0
  9 31  1  0  0  0  0
 10 11  1  0  0  0  0
 10 32  1  0  0  0  0
 10 33  1  0  0  0  0
 11 34  1  0  0  0  0
 11 35  1  0  0  0  0
 12 13  2  0  0  0  0
 12 14  1  0  0  0  0
 13 15  1  0  0  0  0
 13 17  1  0  0  0  0
 14 16  2  0  0  0  0
 14 19  1  0  0  0  0
 15 18  1  0  0  0  0
 15 36  1  0  0  0  0
 15 37  1  0  0  0  0
 16 20  1  0  0  0  0
 18 22  1  0  0  0  0
 18 38  1  0  0  0  0
 18 39  1  0  0  0  0
 19 21  2  0  0  0  0
 19 40  1  0  0  0  0
 20 23  2  0  0  0  0
 20 41  1  0  0  0  0
 21 23  1  0  0  0  0
 22 42  1  0  0  0  0
 22 43  1  0  0  0  0
 22 44  1  0  0  0  0
 23 45  1  0  0  0  0
M  END
>  <DRUGBANK_ID>
DB07869

>  <COMMON_NAME>
6-Chloro-4-[(R)-cyclohexylsulfinyl]-3-propyl-2(1H)-quinolinone

$$$$
