
 OpenBabel10282417203D

 48 50  0  0  0  0  0  0  0  0999 V2000
    1.4716   -0.3105    0.2119 C   0  0  0  0  0  0  0  0  0  0  0  0
    0.9959   -1.6501   -0.1063 O   0  0  0  0  0  0  0  0  0  0  0  0
    0.9112   -1.8780   -1.4750 C   0  0  0  0  0  0  0  0  0  0  0  0
    2.1682   -1.8204   -2.0208 C   0  0  0  0  0  0  0  0  0  0  0  0
    2.4040   -2.4455   -3.2080 C   0  0  0  0  0  0  0  0  0  0  0  0
    1.4038   -2.8965   -4.0521 C   0  0  0  0  0  0  0  0  0  0  0  0
    0.0926   -2.8932   -3.5357 C   0  0  0  0  0  0  0  0  0  0  0  0
   -0.2047   -2.3550   -2.2402 C   0  0  0  0  0  0  0  0  0  0  0  0
   -1.7185   -2.2445   -1.9357 C   0  0  0  0  0  0  0  0  0  0  0  0
   -2.5351   -2.7278   -2.7311 O   0  0  0  0  0  0  0  0  0  0  0  0
   -2.2676   -1.5461   -0.8715 N   0  0  0  0  0  0  0  0  0  0  0  0
   -1.5335   -0.7823    0.0594 C   0  0  0  0  0  0  0  0  0  0  0  0
   -1.6630    0.6936    0.1278 C   0  0  0  0  0  0  0  0  0  0  0  0
   -2.3108    1.2621    1.2019 C   0  0  0  0  0  0  0  0  0  0  0  0
   -2.2517    2.6363    1.3538 C   0  0  0  0  0  0  0  0  0  0  0  0
   -1.4624    3.3814    0.4865 C   0  0  0  0  0  0  0  0  0  0  0  0
   -0.7824    2.8589   -0.5488 N   0  0  0  0  0  0  0  0  0  0  0  0
   -0.9470    1.5383   -0.7404 C   0  0  0  0  0  0  0  0  0  0  0  0
    1.7212   -3.3287   -5.4517 C   0  0  0  0  0  0  0  0  0  0  0  0
    0.8290   -3.8513   -6.1446 O   0  0  0  0  0  0  0  0  0  0  0  0
    2.9489   -3.1335   -6.0470 N   0  0  0  0  0  0  0  0  0  0  0  0
    4.2089   -2.5818   -5.5687 C   0  0  0  0  0  0  0  0  0  0  0  0
    5.2396   -3.6270   -5.2433 C   0  0  0  0  0  0  0  0  0  0  0  0
    6.5493   -3.2314   -4.9512 C   0  0  0  0  0  0  0  0  0  0  0  0
    7.5317   -4.1896   -4.7226 C   0  0  0  0  0  0  0  0  0  0  0  0
    7.1657   -5.5233   -4.7543 C   0  0  0  0  0  0  0  0  0  0  0  0
    5.9016   -5.9456   -4.9568 N   0  0  0  0  0  0  0  0  0  0  0  0
    4.9687   -4.9931   -5.1895 C   0  0  0  0  0  0  0  0  0  0  0  0
    0.9555    0.0110    1.1233 H   0  0  0  0  0  0  0  0  0  0  0  0
    1.2399    0.3957   -0.5893 H   0  0  0  0  0  0  0  0  0  0  0  0
    2.5467   -0.2600    0.3759 H   0  0  0  0  0  0  0  0  0  0  0  0
    3.0118   -1.4333   -1.4618 H   0  0  0  0  0  0  0  0  0  0  0  0
    3.4446   -2.6664   -3.3195 H   0  0  0  0  0  0  0  0  0  0  0  0
   -0.7013   -3.3524   -4.1346 H   0  0  0  0  0  0  0  0  0  0  0  0
   -3.2766   -1.5330   -0.8110 H   0  0  0  0  0  0  0  0  0  0  0  0
   -1.3707   -1.3098    1.0091 H   0  0  0  0  0  0  0  0  0  0  0  0
   -0.6286   -0.7592   -0.4494 H   0  0  0  0  0  0  0  0  0  0  0  0
   -2.8288    0.6277    1.9135 H   0  0  0  0  0  0  0  0  0  0  0  0
   -2.8181    3.1152    2.1387 H   0  0  0  0  0  0  0  0  0  0  0  0
   -1.3734    4.4566    0.5922 H   0  0  0  0  0  0  0  0  0  0  0  0
   -0.3946    1.1562   -1.6005 H   0  0  0  0  0  0  0  0  0  0  0  0
    2.9804   -3.4952   -6.9947 H   0  0  0  0  0  0  0  0  0  0  0  0
    4.5784   -1.8786   -6.3190 H   0  0  0  0  0  0  0  0  0  0  0  0
    4.0803   -1.9243   -4.7222 H   0  0  0  0  0  0  0  0  0  0  0  0
    6.8105   -2.1767   -4.9109 H   0  0  0  0  0  0  0  0  0  0  0  0
    8.5603   -3.9025   -4.5372 H   0  0  0  0  0  0  0  0  0  0  0  0
    7.9001   -6.3106   -4.6134 H   0  0  0  0  0  0  0  0  0  0  0  0
    3.9658   -5.3881   -5.3367 H   0  0  0  0  0  0  0  0  0  0  0  0
  1  2  1  0  0  0  0
  1 29  1  0  0  0  0
  1 30  1  0  0  0  0
  1 31  1  0  0  0  0
  2  3  1  0  0  0  0
  3  4  2  0  0  0  0
  3  8  1  0  0  0  0
  4  5  1  0  0  0  0
  4 32  1  0  0  0  0
  5  6  2  0  0  0  0
  5 33  1  0  0  0  0
  6  7  1  0  0  0  0
  6 19  1  0  0  0  0
  7  8  2  0  0  0  0
  7 34  1  0  0  0  0
  8  9  1  0  0  0  0
  9 10  2  0  0  0  0
  9 11  1  0  0  0  0
 11 12  1  0  0  0  0
 11 35  1  0  0  0  0
 12 13  1  0  0  0  0
 12 36  1  0  0  0  0
 12 37  1  0  0  0  0
 13 14  2  0  0  0  0
 13 18  1  0  0  0  0
 14 15  1  0  0  0  0
 14 38  1  0  0  0  0
 15 16  2  0  0  0  0
 15 39  1  0  0  0  0
 16 17  1  0  0  0  0
 16 40  1  0  0  0  0
 17 18  2  0  0  0  0
 18 41  1  0  0  0  0
 19 20  2  0  0  0  0
 19 21  1  0  0  0  0
 21 22  1  0  0  0  0
 21 42  1  0  0  0  0
 22 23  1  0  0  0  0
 22 43  1  0  0  0  0
 22 44  1  0  0  0  0
 23 24  2  0  0  0  0
 23 28  1  0  0  0  0
 24 25  1  0  0  0  0
 24 45  1  0  0  0  0
 25 26  2  0  0  0  0
 25 46  1  0  0  0  0
 26 27  1  0  0  0  0
 26 47  1  0  0  0  0
 27 28  2  0  0  0  0
 28 48  1  0  0  0  0
M  END
>  <DRUGBANK_ID>
DB13327

>  <COMMON_NAME>
Picotamide

>  <CAS_NUMBER>
32828-81-2

>  <UNII>
654G2VCI4Q

$$$$
