
 OpenBabel10282417223D

159164  0  0  1  0  0  0  0  0999 V2000
   10.6780  -18.5966    1.1694 C   0  0  0  0  0  0  0  0  0  0  0  0
   11.1376  -19.9320    1.1498 O   0  0  0  0  0  0  0  0  0  0  0  0
   10.1783  -20.8191    1.6994 C   0  0  2  0  0  0  0  0  0  0  0  0
   10.1321  -20.4435    3.1628 C   0  0  0  0  0  0  0  0  0  0  0  0
   12.2052  -19.9673    3.5000 C   0  0  2  0  0  0  0  0  0  0  0  0
   14.0373  -18.2669    2.7179 C   0  0  0  0  0  0  0  0  0  0  0  0
   16.4199  -16.7294    1.9705 C   0  0  1  0  0  0  0  0  0  0  0  0
   13.8717  -17.4976    3.3161 C   0  0  0  0  0  0  0  0  0  0  0  0
   19.3468  -15.4469    0.7462 C   0  0  2  0  0  0  0  0  0  0  0  0
   22.3232  -14.4044   -0.4791 C   0  0  0  0  0  0  0  0  0  0  0  0
   25.2255  -13.5277   -1.6750 C   0  0  0  0  0  0  0  0  0  0  0  0
   26.9818  -13.3025   -2.7137 O   0  0  0  0  0  0  0  0  0  0  0  0
   28.0084  -13.4451   -2.1054 C   0  0  2  0  0  0  0  0  0  0  0  0
   29.9390  -14.1269   -1.0817 C   0  0  0  0  0  0  0  0  0  0  0  0
   29.9767  -14.6321   -2.8169 C   0  0  0  0  0  0  0  0  0  0  0  0
   29.2574  -15.7954   -2.7146 C   0  0  0  0  0  0  0  0  0  0  0  0
   27.9338  -15.5663   -2.0667 C   0  0  0  0  0  0  0  0  0  0  0  0
   29.7201  -17.1519   -3.0656 C   0  0  1  0  0  0  0  0  0  0  0  0
   30.4341  -16.7849   -1.9076 O   0  0  0  0  0  0  0  0  0  0  0  0
   28.7319  -17.6538   -4.1336 C   0  0  1  0  0  0  0  0  0  0  0  0
   29.2405  -18.5338   -5.1442 O   0  0  0  0  0  0  0  0  0  0  0  0
   28.2468  -19.3998   -5.6214 C   0  0  0  0  0  0  0  0  0  0  0  0
   27.3078  -17.7076   -3.6842 C   0  0  0  0  0  0  0  0  0  0  0  0
   26.6378  -16.8427   -4.3010 O   0  0  0  0  0  0  0  0  0  0  0  0
   26.5338  -18.9809   -3.5471 C   0  0  2  0  0  0  0  0  0  0  0  0
   26.9735  -20.4091   -3.3169 C   0  0  0  0  0  0  0  0  0  0  0  0
   25.2715  -18.8445   -4.3699 C   0  0  0  0  0  0  0  0  0  0  0  0
   24.4143  -17.7455   -3.8340 C   0  0  2  0  0  0  0  0  0  0  0  0
   24.2069  -16.4152   -3.4305 C   0  0  0  0  0  0  0  0  0  0  0  0
   24.0183  -18.0771   -2.4066 C   0  0  2  0  0  0  0  0  0  0  0  0
   23.2504  -19.3435   -2.3654 C   0  0  0  0  0  0  0  0  0  0  0  0
   22.7764  -19.6132   -0.9353 C   0  0  0  0  0  0  0  0  0  0  0  0
   21.9671  -18.4356   -0.4505 C   0  0  1  0  0  0  0  0  0  0  0  0
   22.7500  -17.2569   -0.4859 O   0  0  0  0  0  0  0  0  0  0  0  0
   23.1085  -16.9545   -1.7064 N   0  0  0  0  0  0  0  0  0  0  0  0
   23.6656  -15.6393   -1.6364 C   0  0  0  0  0  0  0  0  0  0  0  0
   25.0768  -15.7455   -0.9441 C   0  0  0  0  0  0  0  0  0  0  0  0
   26.0825  -14.9479   -0.7399 C   0  0  0  0  0  0  0  0  0  0  0  0
   25.1370  -14.7256   -1.1362 C   0  0  0  0  0  0  0  0  0  0  0  0
   24.3246  -13.7105   -2.8378 C   0  0  0  0  0  0  0  0  0  0  0  0
   23.4832  -14.4854   -2.5358 C   0  0  0  0  0  0  0  0  0  0  0  0
   20.7179  -18.2895   -1.2581 C   0  0  0  0  0  0  0  0  0  0  0  0
   19.5394  -18.7387   -0.8100 C   0  0  0  0  0  0  0  0  0  0  0  0
   19.4768  -19.4103    0.5485 C   0  0  0  0  0  0  0  0  0  0  0  0
   18.2915  -18.5881   -1.6537 C   0  0  2  0  0  0  0  0  0  0  0  0
   17.2638  -17.7685   -0.8952 C   0  0  0  0  0  0  0  0  0  0  0  0
   16.8990  -18.4844    0.3883 C   0  0  2  0  0  0  0  0  0  0  0  0
   16.3356  -19.8451    0.1501 C   0  0  0  0  0  0  0  0  0  0  0  0
   15.9322  -20.4836    1.4377 C   0  0  0  0  0  0  0  0  0  0  0  0
   15.0504  -19.7952    2.1258 C   0  0  1  0  0  0  0  0  0  0  0  0
   14.0080  -20.7389    2.2724 C   0  0  0  0  0  0  0  0  0  0  0  0
   15.7043  -18.4754    2.4073 C   0  0  1  0  0  0  0  0  0  0  0  0
   16.7578  -18.5594    3.1496 O   0  0  0  0  0  0  0  0  0  0  0  0
   15.8496  -17.8990    0.9196 O   0  0  0  0  0  0  0  0  0  0  0  0
   15.1176  -16.9727    3.3281 C   0  0  0  0  0  0  0  0  0  0  0  0
   13.6878  -16.5567    2.1732 O   0  0  0  0  0  0  0  0  0  0  0  0
   14.3421  -17.6964    4.8208 C   0  0  0  0  0  0  0  0  0  0  0  0
   15.1262  -18.1976    5.3926 O   0  0  0  0  0  0  0  0  0  0  0  0
   13.2176  -16.8376    5.3552 N   0  0  0  0  0  0  0  0  0  0  0  0
   12.4174  -17.3126    6.6088 C   0  0  0  0  0  0  0  0  0  0  0  0
   12.7345  -16.2482    7.5752 C   0  0  0  0  0  0  0  0  0  0  0  0
   12.2583  -14.9369    7.0450 C   0  0  0  0  0  0  0  0  0  0  0  0
   12.8895  -14.6652    5.7355 C   0  0  0  0  0  0  0  0  0  0  0  0
   13.0547  -15.5834    4.3027 C   0  0  1  0  0  0  0  0  0  0  0  0
   14.9023  -15.3207    2.7080 C   0  0  0  0  0  0  0  0  0  0  0  0
   14.4751  -14.5961    3.7817 O   0  0  0  0  0  0  0  0  0  0  0  0
   17.0013  -15.3432    1.6909 O   0  0  0  0  0  0  0  0  0  0  0  0
   18.1078  -19.6634   -2.5729 O   0  0  0  0  0  0  0  0  0  0  0  0
   18.2958  -20.9050   -1.9534 C   0  0  0  0  0  0  0  0  0  0  0  0
   11.8725  -22.1641    3.6219 C   0  0  0  0  0  0  0  0  0  0  0  0
   11.8669  -22.6209    2.1805 C   0  0  0  0  0  0  0  0  0  0  0  0
   10.5644  -22.2722    1.5118 C   0  0  1  0  0  0  0  0  0  0  0  0
    9.5448  -23.0793    2.0982 O   0  0  0  0  0  0  0  0  0  0  0  0
   10.4288  -18.2902    2.1700 H   0  0  0  0  0  0  0  0  0  0  0  0
    9.7983  -18.5338    0.5571 H   0  0  0  0  0  0  0  0  0  0  0  0
   11.4382  -17.9394    0.7848 H   0  0  0  0  0  0  0  0  0  0  0  0
    9.2454  -20.6883    1.1712 H   0  0  0  0  0  0  0  0  0  0  0  0
    9.8280  -19.4407    3.3153 H   0  0  0  0  0  0  0  0  0  0  0  0
    9.3122  -21.0663    3.6518 H   0  0  0  0  0  0  0  0  0  0  0  0
   11.3910  -20.5470    4.8598 H   0  0  0  0  0  0  0  0  0  0  0  0
   13.5602  -19.7539    3.8479 H   0  0  0  0  0  0  0  0  0  0  0  0
   12.6849  -19.6262    2.2016 H   0  0  0  0  0  0  0  0  0  0  0  0
   14.6341  -17.5146    2.1391 H   0  0  0  0  0  0  0  0  0  0  0  0
   13.0851  -18.3283    4.9330 H   0  0  0  0  0  0  0  0  0  0  0  0
   12.1929  -17.2592    4.4361 H   0  0  0  0  0  0  0  0  0  0  0  0
   12.3308  -18.2438    4.4360 H   0  0  0  0  0  0  0  0  0  0  0  0
   17.8096  -16.0569    1.0462 H   0  0  0  0  0  0  0  0  0  0  0  0
   24.1323  -13.4457   -1.1362 H   0  0  0  0  0  0  0  0  0  0  0  0
   24.0787  -13.3406   -1.1160 H   0  0  0  0  0  0  0  0  0  0  0  0
   29.2422  -12.4234   -2.0406 H   0  0  0  0  0  0  0  0  0  0  0  0
   30.9977  -13.9337   -0.6775 H   0  0  0  0  0  0  0  0  0  0  0  0
   29.2756  -13.9527   -0.3258 H   0  0  0  0  0  0  0  0  0  0  0  0
   29.9966  -15.1972   -1.2011 H   0  0  0  0  0  0  0  0  0  0  0  0
   31.1358  -14.9005   -3.1723 H   0  0  0  0  0  0  0  0  0  0  0  0
   27.1782  -16.0996   -2.5579 H   0  0  0  0  0  0  0  0  0  0  0  0
   27.9227  -15.8104   -1.0113 H   0  0  0  0  0  0  0  0  0  0  0  0
   27.6207  -14.6268   -2.1336 H   0  0  0  0  0  0  0  0  0  0  0  0
   30.3876  -17.9827   -2.9796 H   0  0  0  0  0  0  0  0  0  0  0  0
   31.3864  -16.5071   -1.8650 H   0  0  0  0  0  0  0  0  0  0  0  0
   28.6399  -16.9404   -4.9494 H   0  0  0  0  0  0  0  0  0  0  0  0
   27.9762  -19.9264   -4.8299 H   0  0  0  0  0  0  0  0  0  0  0  0
   27.3907  -18.8748   -5.9913 H   0  0  0  0  0  0  0  0  0  0  0  0
   28.6284  -20.0730   -6.3499 H   0  0  0  0  0  0  0  0  0  0  0  0
   26.5464  -18.9744   -2.4820 H   0  0  0  0  0  0  0  0  0  0  0  0
   26.2086  -21.1099   -3.0477 H   0  0  0  0  0  0  0  0  0  0  0  0
   27.3957  -20.8626   -4.1600 H   0  0  0  0  0  0  0  0  0  0  0  0
   27.7190  -20.3585   -2.5404 H   0  0  0  0  0  0  0  0  0  0  0  0
   25.2461  -19.6991   -5.0573 H   0  0  0  0  0  0  0  0  0  0  0  0
   24.7374  -18.6157   -5.2773 H   0  0  0  0  0  0  0  0  0  0  0  0
   24.1544  -17.5259   -4.8559 H   0  0  0  0  0  0  0  0  0  0  0  0
   24.8194  -16.2710   -2.5565 H   0  0  0  0  0  0  0  0  0  0  0  0
   24.3139  -15.5481   -3.9732 H   0  0  0  0  0  0  0  0  0  0  0  0
   23.0790  -16.4550   -3.2292 H   0  0  0  0  0  0  0  0  0  0  0  0
   24.9211  -18.1426   -1.8196 H   0  0  0  0  0  0  0  0  0  0  0  0
   23.2110  -20.2358   -2.9861 H   0  0  0  0  0  0  0  0  0  0  0  0
   22.7158  -18.9947   -3.2469 H   0  0  0  0  0  0  0  0  0  0  0  0
   22.9808  -20.6620   -0.7140 H   0  0  0  0  0  0  0  0  0  0  0  0
   23.0204  -19.6089    0.1260 H   0  0  0  0  0  0  0  0  0  0  0  0
   21.7066  -18.5917    0.6026 H   0  0  0  0  0  0  0  0  0  0  0  0
   25.2224  -16.6712   -0.5187 H   0  0  0  0  0  0  0  0  0  0  0  0
   26.8901  -14.8112   -0.4101 H   0  0  0  0  0  0  0  0  0  0  0  0
   26.1805  -13.1269   -0.8727 H   0  0  0  0  0  0  0  0  0  0  0  0
   24.5003  -12.6561   -3.1228 H   0  0  0  0  0  0  0  0  0  0  0  0
   22.5795  -14.2977   -2.8909 H   0  0  0  0  0  0  0  0  0  0  0  0
   20.7791  -17.8215   -2.2332 H   0  0  0  0  0  0  0  0  0  0  0  0
   19.8280  -20.4187    0.4993 H   0  0  0  0  0  0  0  0  0  0  0  0
   20.0463  -18.8532    1.2733 H   0  0  0  0  0  0  0  0  0  0  0  0
   18.5064  -19.5212    0.8999 H   0  0  0  0  0  0  0  0  0  0  0  0
   18.2185  -17.9450   -2.5046 H   0  0  0  0  0  0  0  0  0  0  0  0
   16.4875  -17.7115   -1.6523 H   0  0  0  0  0  0  0  0  0  0  0  0
   17.5208  -16.7822   -0.5555 H   0  0  0  0  0  0  0  0  0  0  0  0
   17.7266  -18.4595    1.0308 H   0  0  0  0  0  0  0  0  0  0  0  0
   16.1605  -20.6583   -0.5441 H   0  0  0  0  0  0  0  0  0  0  0  0
   16.3141  -19.2901   -0.7666 H   0  0  0  0  0  0  0  0  0  0  0  0
   16.0026  -21.5556    1.5946 H   0  0  0  0  0  0  0  0  0  0  0  0
   16.7164  -20.5881    2.1671 H   0  0  0  0  0  0  0  0  0  0  0  0
   14.7343  -19.0814    2.2137 H   0  0  0  0  0  0  0  0  0  0  0  0
   13.9213  -21.6387    2.7973 H   0  0  0  0  0  0  0  0  0  0  0  0
   13.5375  -20.1578    2.7674 H   0  0  0  0  0  0  0  0  0  0  0  0
   13.4277  -20.6885    1.3751 H   0  0  0  0  0  0  0  0  0  0  0  0
   16.6562  -17.9902    3.9361 H   0  0  0  0  0  0  0  0  0  0  0  0
   11.9501  -18.3199    6.7338 H   0  0  0  0  0  0  0  0  0  0  0  0
   11.3780  -17.6320    6.8257 H   0  0  0  0  0  0  0  0  0  0  0  0
   12.8585  -16.9499    8.3927 H   0  0  0  0  0  0  0  0  0  0  0  0
   13.4044  -15.5276    8.0115 H   0  0  0  0  0  0  0  0  0  0  0  0
   11.3457  -15.0421    7.5811 H   0  0  0  0  0  0  0  0  0  0  0  0
   12.3937  -13.8481    7.1404 H   0  0  0  0  0  0  0  0  0  0  0  0
   13.9129  -14.9048    5.5681 H   0  0  0  0  0  0  0  0  0  0  0  0
   12.6457  -13.6064    5.7428 H   0  0  0  0  0  0  0  0  0  0  0  0
   11.5334  -15.6269    4.5810 H   0  0  0  0  0  0  0  0  0  0  0  0
   19.2952  -20.9749   -1.5574 H   0  0  0  0  0  0  0  0  0  0  0  0
   17.6036  -21.0118   -1.1518 H   0  0  0  0  0  0  0  0  0  0  0  0
   18.1383  -21.6979   -2.6600 H   0  0  0  0  0  0  0  0  0  0  0  0
   12.8141  -22.3804    4.0687 H   0  0  0  0  0  0  0  0  0  0  0  0
   11.1188  -22.8637    4.1515 H   0  0  0  0  0  0  0  0  0  0  0  0
   12.6536  -22.0962    1.6936 H   0  0  0  0  0  0  0  0  0  0  0  0
   12.0607  -23.6777    2.0904 H   0  0  0  0  0  0  0  0  0  0  0  0
   10.6532  -22.4713    0.4491 H   0  0  0  0  0  0  0  0  0  0  0  0
    9.4895  -22.8754    3.0589 H   0  0  0  0  0  0  0  0  0  0  0  0
  1  2  1  0  0  0  0
  1 74  1  0  0  0  0
  1 75  1  0  0  0  0
  1 76  1  0  0  0  0
  3  4  1  0  0  0  0
  3 72  1  0  0  0  0
  3 77  1  6  0  0  0
  3  2  1  0  0  0  0
  4 78  1  0  0  0  0
  4 79  1  0  0  0  0
  5  4  1  0  0  0  0
  5  6  1  0  0  0  0
  5 70  1  0  0  0  0
  5 80  1  1  0  0  0
  6 81  1  0  0  0  0
  6 82  1  0  0  0  0
  7  6  1  0  0  0  0
  7  8  1  0  0  0  0
  7 83  1  6  0  0  0
  8 84  1  0  0  0  0
  8 85  1  0  0  0  0
  8 86  1  0  0  0  0
  9 10  1  0  0  0  0
  9 67  1  0  0  0  0
  9 87  1  6  0  0  0
  9  7  1  0  0  0  0
 10 11  1  0  0  0  0
 10 88  1  0  0  0  0
 10 89  1  0  0  0  0
 11 12  2  0  0  0  0
 13 11  1  0  0  0  0
 13 15  1  0  0  0  0
 13 14  1  0  0  0  0
 13 90  1  1  0  0  0
 14 91  1  0  0  0  0
 14 92  1  0  0  0  0
 14 93  1  0  0  0  0
 15 16  2  0  0  0  0
 15 94  1  0  0  0  0
 16 17  1  0  0  0  0
 17 95  1  0  0  0  0
 17 96  1  0  0  0  0
 17 97  1  0  0  0  0
 18 16  1  0  0  0  0
 18 20  1  0  0  0  0
 18 98  1  6  0  0  0
 18 19  1  0  0  0  0
 19 99  1  0  0  0  0
 20 23  1  0  0  0  0
 20 21  1  0  0  0  0
 20100  1  6  0  0  0
 21 22  1  0  0  0  0
 22101  1  0  0  0  0
 22102  1  0  0  0  0
 22103  1  0  0  0  0
 23 24  2  0  0  0  0
 25 23  1  0  0  0  0
 25 27  1  0  0  0  0
 25 26  1  0  0  0  0
 25104  1  1  0  0  0
 26105  1  0  0  0  0
 26106  1  0  0  0  0
 26107  1  0  0  0  0
 27108  1  0  0  0  0
 27109  1  0  0  0  0
 28 27  1  0  0  0  0
 28 30  1  0  0  0  0
 28110  1  6  0  0  0
 28 29  1  0  0  0  0
 29111  1  0  0  0  0
 29112  1  0  0  0  0
 29113  1  0  0  0  0
 30 31  1  0  0  0  0
 30 35  1  0  0  0  0
 30114  1  1  0  0  0
 31 32  1  0  0  0  0
 31115  1  0  0  0  0
 31116  1  0  0  0  0
 32117  1  0  0  0  0
 32118  1  0  0  0  0
 33 32  1  0  0  0  0
 33 34  1  0  0  0  0
 33 42  1  0  0  0  0
 33119  1  1  0  0  0
 34 35  1  0  0  0  0
 35 36  1  0  0  0  0
 36 37  2  0  0  0  0
 36 41  1  0  0  0  0
 37 38  1  0  0  0  0
 37120  1  0  0  0  0
 38 39  2  0  0  0  0
 38121  1  0  0  0  0
 39 40  1  0  0  0  0
 39122  1  0  0  0  0
 40 41  2  0  0  0  0
 40123  1  0  0  0  0
 41124  1  0  0  0  0
 42 43  2  0  0  0  0
 42125  1  0  0  0  0
 43 44  1  0  0  0  0
 44126  1  0  0  0  0
 44127  1  0  0  0  0
 44128  1  0  0  0  0
 45 43  1  0  0  0  0
 45 46  1  0  0  0  0
 45 68  1  0  0  0  0
 45129  1  6  0  0  0
 46130  1  0  0  0  0
 46131  1  0  0  0  0
 47 46  1  0  0  0  0
 47 48  1  0  0  0  0
 47 54  1  0  0  0  0
 47132  1  1  0  0  0
 48 49  1  0  0  0  0
 48133  1  0  0  0  0
 48134  1  0  0  0  0
 49135  1  0  0  0  0
 49136  1  0  0  0  0
 50 49  1  0  0  0  0
 50 52  1  0  0  0  0
 50 51  1  0  0  0  0
 50137  1  6  0  0  0
 51138  1  0  0  0  0
 51139  1  0  0  0  0
 51140  1  0  0  0  0
 52 54  1  0  0  0  0
 52 55  1  0  0  0  0
 52 53  1  1  0  0  0
 53141  1  0  0  0  0
 55 57  1  0  0  0  0
 55 56  2  0  0  0  0
 57 59  1  0  0  0  0
 57 58  2  0  0  0  0
 59 60  1  0  0  0  0
 60 61  1  0  0  0  0
 60142  1  0  0  0  0
 60143  1  0  0  0  0
 61 62  1  0  0  0  0
 61144  1  0  0  0  0
 61145  1  0  0  0  0
 62 63  1  0  0  0  0
 62146  1  0  0  0  0
 62147  1  0  0  0  0
 63148  1  0  0  0  0
 63149  1  0  0  0  0
 64 63  1  0  0  0  0
 64 59  1  0  0  0  0
 64 65  1  0  0  0  0
 64150  1  6  0  0  0
 65 67  1  0  0  0  0
 65 66  2  0  0  0  0
 68 69  1  0  0  0  0
 69151  1  0  0  0  0
 69152  1  0  0  0  0
 69153  1  0  0  0  0
 70 71  1  0  0  0  0
 70154  1  0  0  0  0
 70155  1  0  0  0  0
 71156  1  0  0  0  0
 71157  1  0  0  0  0
 72 71  1  0  0  0  0
 72 73  1  0  0  0  0
 72158  1  6  0  0  0
 73159  1  0  0  0  0
M  END
>  <DRUGBANK_ID>
DB15422

>  <COMMON_NAME>
ILS-920

>  <CAS_NUMBER>
892494-07-4

>  <UNII>
F2D5P81X82

$$$$
