
 OpenBabel10282417233D

  5  4  0  0  0  0  0  0  0  0999 V2000
    1.0397    0.0803    0.0444 C   0  0  0  0  0  0  0  0  0  0  0  0
    0.6756    0.1230   -0.9844 H   0  0  0  0  0  0  0  0  0  0  0  0
    0.6756   -0.8321    0.5218 H   0  0  0  0  0  0  0  0  0  0  0  0
    0.6756    0.9500    0.5959 H   0  0  0  0  0  0  0  0  0  0  0  0
    2.1319    0.0803    0.0444 H   0  0  0  0  0  0  0  0  0  0  0  0
  1  2  1  0  0  0  0
  1  3  1  0  0  0  0
  1  4  1  0  0  0  0
  1  5  1  0  0  0  0
M  END
>  <DRUGBANK_ID>
DB15994

>  <COMMON_NAME>
Methane

>  <CAS_NUMBER>
74-82-8

>  <UNII>
OP0UW79H66

$$$$
