I38
 OpenBabel10282417173D

 22 21  0  0  0  0  0  0  0  0999 V2000
    5.3222   -2.2986    0.5979 S   0  0  0  0  0  0  0  0  0  0  0  0
    5.5526   -2.0797   -1.1667 C   0  0  0  0  0  0  0  0  0  0  0  0
    4.5027   -1.5257   -2.1631 C   0  0  0  0  0  0  0  0  0  0  0  0
    3.7558   -0.2651   -1.7869 C   0  0  0  0  0  0  0  0  0  0  0  0
    4.0099    0.7911   -2.3718 O   0  0  0  0  0  0  0  0  0  0  0  0
    2.7158   -0.2818   -0.8970 N   0  0  0  0  0  0  0  0  0  0  0  0
    2.1646   -1.3182    0.0305 C   0  0  2  0  0  0  0  0  0  0  0  0
    2.6115   -1.0495    1.5120 C   0  0  0  0  0  0  0  0  0  0  0  0
    2.0621   -2.8104   -0.5750 C   0  0  0  0  0  0  0  0  0  0  0  0
    1.0558   -3.3880   -0.8757 O   0  0  0  0  0  0  0  0  0  0  0  0
    3.2585   -3.3749   -0.8634 O   0  0  0  0  0  0  0  0  0  0  0  0
    1.0969   -1.0575    0.0742 H   0  0  0  0  0  0  0  0  0  0  0  0
    4.4388   -1.3275    0.4944 H   0  0  0  0  0  0  0  0  0  0  0  0
    6.3503   -1.3465   -1.1211 H   0  0  0  0  0  0  0  0  0  0  0  0
    5.9068   -3.0544   -1.4989 H   0  0  0  0  0  0  0  0  0  0  0  0
    5.0798   -1.3203   -3.0755 H   0  0  0  0  0  0  0  0  0  0  0  0
    3.7482   -2.2095   -2.5719 H   0  0  0  0  0  0  0  0  0  0  0  0
    2.3544    0.6596   -0.7614 H   0  0  0  0  0  0  0  0  0  0  0  0
    2.7384   -1.9696    2.0914 H   0  0  0  0  0  0  0  0  0  0  0  0
    3.5290   -0.4451    1.6122 H   0  0  0  0  0  0  0  0  0  0  0  0
    1.9172   -0.3973    2.0550 H   0  0  0  0  0  0  0  0  0  0  0  0
    3.2614   -4.1365   -1.4805 H   0  0  0  0  0  0  0  0  0  0  0  0
  1  2  1  0  0  0  0
  1 13  1  0  0  0  0
  2  3  1  0  0  0  0
  2 14  1  0  0  0  0
  2 15  1  0  0  0  0
  3  4  1  0  0  0  0
  3 16  1  0  0  0  0
  3 17  1  0  0  0  0
  4  5  2  0  0  0  0
  4  6  1  0  0  0  0
  6 18  1  0  0  0  0
  7  9  1  0  0  0  0
  7 12  1  1  0  0  0
  7  8  1  0  0  0  0
  7  6  1  0  0  0  0
  8 19  1  0  0  0  0
  8 20  1  0  0  0  0
  8 21  1  0  0  0  0
  9 10  2  0  0  0  0
  9 11  1  0  0  0  0
 11 22  1  0  0  0  0
M  END
>  <DRUGBANK_ID>
DB07939

>  <COMMON_NAME>
N-(3-MERCAPTOPROPANOYL)-D-ALANINE

$$$$
