
 OpenBabel10282417153D

 63 67  0  0  1  0  0  0  0  0999 V2000
    3.4189    2.1729    3.5094 C   0  0  0  0  0  0  0  0  0  0  0  0
    2.7333    1.0493    2.7064 C   0  0  0  0  0  0  0  0  0  0  0  0
    2.6590   -0.3498    3.2890 C   0  0  0  0  0  0  0  0  0  0  0  0
    1.7661   -1.4470    2.8448 C   0  0  0  0  0  0  0  0  0  0  0  0
    1.2984   -0.9840    1.4882 C   0  0  0  0  0  0  0  0  0  0  0  0
    1.3973    0.3588    0.7857 C   0  0  0  0  0  0  0  0  0  0  0  0
    2.0655    1.3927    1.4960 C   0  0  0  0  0  0  0  0  0  0  0  0
    2.0893    2.7295    1.1923 O   0  0  0  0  0  0  0  0  0  0  0  0
    1.3418    3.0565    0.0483 C   0  0  2  0  0  0  0  0  0  0  0  0
   -0.1881    2.6217    0.2213 C   0  0  0  0  0  0  0  0  0  0  0  0
   -0.9053    3.1917   -0.9988 C   0  0  0  0  0  0  0  0  0  0  0  0
   -2.0348    2.5774   -1.5211 C   0  0  0  0  0  0  0  0  0  0  0  0
   -2.7786    3.2093   -2.5157 C   0  0  0  0  0  0  0  0  0  0  0  0
   -2.3785    4.4354   -3.0328 C   0  0  0  0  0  0  0  0  0  0  0  0
   -1.2374    5.0338   -2.5528 C   0  0  0  0  0  0  0  0  0  0  0  0
   -0.4481    4.3525   -1.6528 C   0  0  0  0  0  0  0  0  0  0  0  0
    2.2446    2.8362   -1.3168 C   0  0  0  0  0  0  0  0  0  0  0  0
    2.3768    3.6504   -2.2222 O   0  0  0  0  0  0  0  0  0  0  0  0
    2.9328    1.6581   -1.4266 O   0  0  0  0  0  0  0  0  0  0  0  0
    0.7007    0.4393   -0.6739 C   0  0  0  0  0  0  0  0  0  0  0  0
    1.7290   -3.1845    3.3407 C   0  0  0  0  0  0  0  0  0  0  0  0
    1.0550   -4.5906    4.4595 C   0  0  0  0  0  0  0  0  0  0  0  0
    0.3749   -5.9485    5.5651 C   0  0  0  0  0  0  0  0  0  0  0  0
    0.7266   -6.1730    6.9239 C   0  0  0  0  0  0  0  0  0  0  0  0
    1.9442   -5.9226    6.4260 C   0  0  0  0  0  0  0  0  0  0  0  0
    2.0875   -4.6046    5.9656 C   0  0  0  0  0  0  0  0  0  0  0  0
    2.3138   -4.7323    4.6501 C   0  0  0  0  0  0  0  0  0  0  0  0
    2.7942   -5.6076    3.6610 C   0  0  0  0  0  0  0  0  0  0  0  0
    2.9649   -4.9121    2.5182 C   0  0  0  0  0  0  0  0  0  0  0  0
    2.7626   -3.5916    2.3201 C   0  0  0  0  0  0  0  0  0  0  0  0
    3.5872   -3.1375    1.0623 C   0  0  0  0  0  0  0  0  0  0  0  0
    4.1426   -4.2229    0.3622 C   0  0  0  0  0  0  0  0  0  0  0  0
    2.7925   -5.6465    1.0863 S   0  0  0  0  0  0  0  0  0  0  0  0
    4.7022   -5.5041   -0.0059 C   0  0  0  0  0  0  0  0  0  0  0  0
    3.9112   -1.6826    0.5125 C   0  0  0  0  0  0  0  0  0  0  0  0
    3.3823   -7.4261    3.7136 Br  0  0  0  0  0  0  0  0  0  0  0  0
    4.1668    2.7279    2.9240 H   0  0  0  0  0  0  0  0  0  0  0  0
    2.6733    2.8996    3.8717 H   0  0  0  0  0  0  0  0  0  0  0  0
    3.9246    1.7691    4.3907 H   0  0  0  0  0  0  0  0  0  0  0  0
    3.3768   -0.4867    4.1008 H   0  0  0  0  0  0  0  0  0  0  0  0
    0.9818   -1.7265    0.7495 H   0  0  0  0  0  0  0  0  0  0  0  0
    1.2403    4.1521    0.0954 H   0  0  0  0  0  0  0  0  0  0  0  0
   -0.4611    1.5588    0.5752 H   0  0  0  0  0  0  0  0  0  0  0  0
   -0.6155    2.9930    1.1473 H   0  0  0  0  0  0  0  0  0  0  0  0
   -2.3201    1.5888   -1.1808 H   0  0  0  0  0  0  0  0  0  0  0  0
   -3.7115    2.7699   -2.8432 H   0  0  0  0  0  0  0  0  0  0  0  0
   -2.9396    4.9297   -3.8144 H   0  0  0  0  0  0  0  0  0  0  0  0
   -0.9748    6.0471   -2.8305 H   0  0  0  0  0  0  0  0  0  0  0  0
    0.5363    4.7941   -1.5185 H   0  0  0  0  0  0  0  0  0  0  0  0
    2.9793    1.3163   -2.3565 H   0  0  0  0  0  0  0  0  0  0  0  0
    0.0277    1.1876   -1.1331 H   0  0  0  0  0  0  0  0  0  0  0  0
    1.3466    0.7455   -1.4421 H   0  0  0  0  0  0  0  0  0  0  0  0
    0.2071   -0.4653   -0.9531 H   0  0  0  0  0  0  0  0  0  0  0  0
    0.8329   -7.3594    5.9645 H   0  0  0  0  0  0  0  0  0  0  0  0
    0.2447   -5.7652    7.8338 H   0  0  0  0  0  0  0  0  0  0  0  0
    2.1176   -6.7944    5.4402 H   0  0  0  0  0  0  0  0  0  0  0  0
    1.1005   -3.9085    6.3172 H   0  0  0  0  0  0  0  0  0  0  0  0
    5.1560   -5.7476    1.0023 H   0  0  0  0  0  0  0  0  0  0  0  0
    3.8293   -5.8012   -0.6615 H   0  0  0  0  0  0  0  0  0  0  0  0
    5.3671   -5.9976   -0.6757 H   0  0  0  0  0  0  0  0  0  0  0  0
    3.0103   -1.2395    0.1241 H   0  0  0  0  0  0  0  0  0  0  0  0
    4.3315   -1.0450    1.2977 H   0  0  0  0  0  0  0  0  0  0  0  0
    4.5451   -1.5239   -0.3840 H   0  0  0  0  0  0  0  0  0  0  0  0
  1  2  1  0  0  0  0
  1 37  1  0  0  0  0
  1 38  1  0  0  0  0
  1 39  1  0  0  0  0
  2  3  2  0  0  0  0
  2  7  1  0  0  0  0
  3  4  1  0  0  0  0
  3 40  1  0  0  0  0
  4  5  2  0  0  0  0
  4 21  1  0  0  0  0
  5  6  1  0  0  0  0
  5 41  1  0  0  0  0
  6  7  2  0  0  0  0
  6 20  1  0  0  0  0
  7  8  1  0  0  0  0
  9 17  1  0  0  0  0
  9 42  1  1  0  0  0
  9 10  1  0  0  0  0
  9  8  1  0  0  0  0
 10 11  1  0  0  0  0
 10 43  1  0  0  0  0
 10 44  1  0  0  0  0
 11 12  2  0  0  0  0
 11 16  1  0  0  0  0
 12 13  1  0  0  0  0
 12 45  1  0  0  0  0
 13 14  2  0  0  0  0
 13 46  1  0  0  0  0
 14 15  1  0  0  0  0
 14 47  1  0  0  0  0
 15 16  2  0  0  0  0
 15 48  1  0  0  0  0
 16 49  1  0  0  0  0
 17 18  2  0  0  0  0
 17 19  1  0  0  0  0
 19 50  1  0  0  0  0
 20 51  1  0  0  0  0
 20 52  1  0  0  0  0
 20 53  1  0  0  0  0
 21 22  1  0  0  0  0
 21 30  2  0  0  0  0
 22 23  2  0  0  0  0
 22 27  1  0  0  0  0
 23 24  1  0  0  0  0
 23 54  1  0  0  0  0
 24 25  2  0  0  0  0
 24 55  1  0  0  0  0
 25 26  1  0  0  0  0
 25 56  1  0  0  0  0
 26 27  2  0  0  0  0
 26 57  1  0  0  0  0
 27 28  1  0  0  0  0
 28 29  2  0  0  0  0
 28 36  1  0  0  0  0
 29 30  1  0  0  0  0
 29 33  1  0  0  0  0
 30 31  1  0  0  0  0
 31 32  2  0  0  0  0
 31 35  1  0  0  0  0
 32 33  1  0  0  0  0
 32 34  1  0  0  0  0
 34 58  1  0  0  0  0
 34 59  1  0  0  0  0
 34 60  1  0  0  0  0
 35 61  1  0  0  0  0
 35 62  1  0  0  0  0
 35 63  1  0  0  0  0
M  END
>  <DRUGBANK_ID>
DB06521

>  <COMMON_NAME>
Ertiprotafib

>  <CAS_NUMBER>
251303-04-5

>  <UNII>
5TPM2EB426

>  <SYNONYMS>
Ertiprotafib

$$$$
