
 OpenBabel10282417183D

 62 67  0  0  0  0  0  0  0  0999 V2000
    0.9834    0.0320   -0.0580 C   0  0  0  0  0  0  0  0  0  0  0  0
    2.7030    1.6717   -7.1659 C   0  0  0  0  0  0  0  0  0  0  0  0
    3.1459    2.2488   -5.9674 C   0  0  0  0  0  0  0  0  0  0  0  0
    1.7450    2.2993   -7.9646 C   0  0  0  0  0  0  0  0  0  0  0  0
    1.3642    4.1368    2.2194 C   0  0  0  0  0  0  0  0  0  0  0  0
   -0.5282    4.6655    0.8273 C   0  0  0  0  0  0  0  0  0  0  0  0
    2.0030    3.2579    1.1292 C   0  0  0  0  0  0  0  0  0  0  0  0
   -0.0086    3.6722   -0.2289 C   0  0  0  0  0  0  0  0  0  0  0  0
    6.9124    5.8232   -3.2007 C   0  0  0  0  0  0  0  0  0  0  0  0
    6.7157    4.2245   -1.3340 C   0  0  0  0  0  0  0  0  0  0  0  0
    8.1416    5.0431   -3.6842 C   0  0  0  0  0  0  0  0  0  0  0  0
    7.9400    3.4918   -1.9062 C   0  0  0  0  0  0  0  0  0  0  0  0
    1.5564    5.9424   -1.4979 C   0  0  0  0  0  0  0  0  0  0  0  0
    0.9107    5.3162   -6.2631 C   0  0  0  0  0  0  0  0  0  0  0  0
    1.3424    6.3520    1.0769 C   0  0  0  0  0  0  0  0  0  0  0  0
    2.0837    6.1098   -0.2281 C   0  0  0  0  0  0  0  0  0  0  0  0
    2.6403    3.4797   -5.4977 C   0  0  0  0  0  0  0  0  0  0  0  0
    1.6661    4.1165   -6.3147 C   0  0  0  0  0  0  0  0  0  0  0  0
    1.2545    3.5236   -7.5086 C   0  0  0  0  0  0  0  0  0  0  0  0
    2.4261    5.1763   -2.3308 C   0  0  0  0  0  0  0  0  0  0  0  0
    3.7331    5.2400   -1.8887 C   0  0  0  0  0  0  0  0  0  0  0  0
    3.0419    4.0805   -4.2121 C   0  0  0  0  0  0  0  0  0  0  0  0
    4.7395    4.7587   -2.7315 C   0  0  0  0  0  0  0  0  0  0  0  0
    0.1043    5.4801   -7.3155 N   0  0  0  0  0  0  0  0  0  0  0  0
    2.0395    4.5230   -3.4474 N   0  0  0  0  0  0  0  0  0  0  0  0
    4.3586    4.2038   -3.9205 N   0  0  0  0  0  0  0  0  0  0  0  0
    0.3304    4.3799   -8.0511 N   0  0  0  0  0  0  0  0  0  0  0  0
    0.5479    5.2405    1.6712 N   0  0  0  0  0  0  0  0  0  0  0  0
    6.0617    4.9258   -2.4301 N   0  0  0  0  0  0  0  0  0  0  0  0
    0.9263    2.6494    0.3008 N   0  0  0  0  0  0  0  0  0  0  0  0
   -1.1752    1.3140    0.7092 O   0  0  0  0  0  0  0  0  0  0  0  0
    0.7836    1.1090    2.3005 O   0  0  0  0  0  0  0  0  0  0  0  0
    8.8255    4.4044   -2.5854 O   0  0  0  0  0  0  0  0  0  0  0  0
    3.8030    6.0220   -0.3370 S   0  0  0  0  0  0  0  0  0  0  0  0
    0.2374    1.2772    0.9606 S   0  0  0  0  0  0  0  0  0  0  0  0
    0.6193    0.1253   -1.0821 H   0  0  0  0  0  0  0  0  0  0  0  0
    0.6836   -0.9231    0.3736 H   0  0  0  0  0  0  0  0  0  0  0  0
    2.0720    0.1258   -0.0197 H   0  0  0  0  0  0  0  0  0  0  0  0
    3.1073    0.7115   -7.4811 H   0  0  0  0  0  0  0  0  0  0  0  0
    3.8853    1.7180   -5.3709 H   0  0  0  0  0  0  0  0  0  0  0  0
    1.4008    1.8519   -8.8926 H   0  0  0  0  0  0  0  0  0  0  0  0
    2.1184    4.5119    2.9153 H   0  0  0  0  0  0  0  0  0  0  0  0
    0.6919    3.5180    2.8304 H   0  0  0  0  0  0  0  0  0  0  0  0
   -1.2506    4.1362    1.4673 H   0  0  0  0  0  0  0  0  0  0  0  0
   -1.1018    5.4788    0.3641 H   0  0  0  0  0  0  0  0  0  0  0  0
    2.6626    3.8284    0.4908 H   0  0  0  0  0  0  0  0  0  0  0  0
    2.6718    2.4941    1.5330 H   0  0  0  0  0  0  0  0  0  0  0  0
    0.6545    4.1899   -0.8665 H   0  0  0  0  0  0  0  0  0  0  0  0
   -0.7510    3.3504   -0.9641 H   0  0  0  0  0  0  0  0  0  0  0  0
    7.2455    6.6268   -2.5293 H   0  0  0  0  0  0  0  0  0  0  0  0
    6.3887    6.2932   -4.0398 H   0  0  0  0  0  0  0  0  0  0  0  0
    7.0488    4.9627   -0.5932 H   0  0  0  0  0  0  0  0  0  0  0  0
    6.0504    3.5134   -0.8328 H   0  0  0  0  0  0  0  0  0  0  0  0
    7.8515    4.2771   -4.4119 H   0  0  0  0  0  0  0  0  0  0  0  0
    8.8512    5.7223   -4.1660 H   0  0  0  0  0  0  0  0  0  0  0  0
    8.5041    3.0142   -1.1000 H   0  0  0  0  0  0  0  0  0  0  0  0
    7.6293    2.7133   -2.6132 H   0  0  0  0  0  0  0  0  0  0  0  0
    0.4972    6.0217   -1.7132 H   0  0  0  0  0  0  0  0  0  0  0  0
    0.9243    6.0776   -5.4945 H   0  0  0  0  0  0  0  0  0  0  0  0
    0.6593    7.1929    0.9110 H   0  0  0  0  0  0  0  0  0  0  0  0
    2.0460    6.6928    1.8470 H   0  0  0  0  0  0  0  0  0  0  0  0
   -0.1789    4.2703   -8.9212 H   0  0  0  0  0  0  0  0  0  0  0  0
  1 36  1  0  0  0  0
  1 37  1  0  0  0  0
  1 38  1  0  0  0  0
  2 39  1  0  0  0  0
  3  2  2  0  0  0  0
  3 40  1  0  0  0  0
  4  2  1  0  0  0  0
  4 41  1  0  0  0  0
  5 42  1  0  0  0  0
  5 43  1  0  0  0  0
  6 44  1  0  0  0  0
  6 45  1  0  0  0  0
  7  5  1  0  0  0  0
  7 46  1  0  0  0  0
  7 47  1  0  0  0  0
  8  6  1  0  0  0  0
  8 48  1  0  0  0  0
  8 49  1  0  0  0  0
  9 50  1  0  0  0  0
  9 51  1  0  0  0  0
 10 52  1  0  0  0  0
 10 53  1  0  0  0  0
 11  9  1  0  0  0  0
 11 54  1  0  0  0  0
 11 55  1  0  0  0  0
 12 10  1  0  0  0  0
 12 56  1  0  0  0  0
 12 57  1  0  0  0  0
 13 58  1  0  0  0  0
 14 59  1  0  0  0  0
 15 60  1  0  0  0  0
 15 61  1  0  0  0  0
 16 13  2  0  0  0  0
 16 15  1  0  0  0  0
 17  3  1  0  0  0  0
 18 14  1  0  0  0  0
 18 17  2  0  0  0  0
 19  4  2  0  0  0  0
 19 18  1  0  0  0  0
 20 13  1  0  0  0  0
 21 20  2  0  0  0  0
 22 17  1  0  0  0  0
 23 21  1  0  0  0  0
 24 14  2  0  0  0  0
 25 20  1  0  0  0  0
 25 22  2  0  0  0  0
 26 22  1  0  0  0  0
 26 23  2  0  0  0  0
 27 19  1  0  0  0  0
 27 24  1  0  0  0  0
 27 62  1  0  0  0  0
 28  5  1  0  0  0  0
 28  6  1  0  0  0  0
 28 15  1  0  0  0  0
 29  9  1  0  0  0  0
 29 10  1  0  0  0  0
 29 23  1  0  0  0  0
 30  7  1  0  0  0  0
 30  8  1  0  0  0  0
 33 11  1  0  0  0  0
 33 12  1  0  0  0  0
 34 16  1  0  0  0  0
 34 21  1  0  0  0  0
 35  1  1  0  0  0  0
 35 30  1  0  0  0  0
 35 31  2  0  0  0  0
 35 32  2  0  0  0  0
M  END
>  <DRUGBANK_ID>
DB11663

>  <COMMON_NAME>
Pictilisib

>  <CAS_NUMBER>
957054-30-7

>  <UNII>
ICY00EMP8P

>  <SYNONYMS>
Pictilisib

$$$$
