
 OpenBabel10282417133D

 37 38  0  0  0  0  0  0  0  0999 V2000
    3.0536   -0.5801   -1.2319 N   0  0  0  0  0  0  0  0  0  0  0  0
    2.2533   -1.0113   -2.1304 N   0  3  0  0  0  0  0  0  0  0  0  0
    1.5458   -1.3730   -2.9422 N   0  5  0  0  0  0  0  0  0  0  0  0
    1.7046   -1.5108    2.8947 N   0  0  0  0  0  0  0  0  0  0  0  0
    0.8760   -0.6074    3.5554 C   0  0  0  0  0  0  0  0  0  0  0  0
    1.3166   -2.8311    2.7323 C   0  0  0  0  0  0  0  0  0  0  0  0
   -0.2684   -1.1419    4.0843 N   0  0  0  0  0  0  0  0  0  0  0  0
    1.0432    0.5996    3.6915 O   0  0  0  0  0  0  0  0  0  0  0  0
    0.0963   -3.2711    3.0425 C   0  0  0  0  0  0  0  0  0  0  0  0
   -0.8086   -2.3456    3.7502 C   0  0  0  0  0  0  0  0  0  0  0  0
   -0.4185   -4.6251    2.7003 C   0  0  0  0  0  0  0  0  0  0  0  0
   -1.9629   -2.6450    4.0199 O   0  0  0  0  0  0  0  0  0  0  0  0
    3.0098   -1.1385    2.3184 C   0  0  2  0  0  0  0  0  0  0  0  0
    3.2435    0.2633    2.3945 O   0  0  0  0  0  0  0  0  0  0  0  0
    3.1319   -1.5606    0.8707 C   0  0  0  0  0  0  0  0  0  0  0  0
    3.0232    0.8256    1.0943 C   0  0  1  0  0  0  0  0  0  0  0  0
    2.5695   -0.3938    0.1803 C   0  0  1  0  0  0  0  0  0  0  0  0
    2.0094    2.0606    1.2370 C   0  0  0  0  0  0  0  0  0  0  0  0
    0.8395    1.9068    0.4078 O   0  0  0  0  0  0  0  0  0  0  0  0
    1.2573    1.6638   -1.2533 P   0  0  0  0  0  0  0  0  0  0  0  0
    2.8220    1.8148   -0.9407 O   0  0  0  0  0  0  0  0  0  0  0  0
    0.4213    0.3018   -1.0576 O   0  0  0  0  0  0  0  0  0  0  0  0
    1.6312    1.4462   -2.7399 O   0  0  0  0  0  0  0  0  0  0  0  0
    2.0350   -3.4985    2.2619 H   0  0  0  0  0  0  0  0  0  0  0  0
   -0.8699   -0.4890    4.5601 H   0  0  0  0  0  0  0  0  0  0  0  0
   -0.7040   -5.1659    3.6056 H   0  0  0  0  0  0  0  0  0  0  0  0
   -1.2950   -4.5372    2.0489 H   0  0  0  0  0  0  0  0  0  0  0  0
    0.3281   -5.2204    2.1638 H   0  0  0  0  0  0  0  0  0  0  0  0
    3.7924   -1.6351    2.8873 H   0  0  0  0  0  0  0  0  0  0  0  0
    4.1645   -1.6874    0.5418 H   0  0  0  0  0  0  0  0  0  0  0  0
    2.5444   -2.4229    0.5386 H   0  0  0  0  0  0  0  0  0  0  0  0
    4.0070    1.2349    0.8131 H   0  0  0  0  0  0  0  0  0  0  0  0
    1.4999   -0.5112    0.3228 H   0  0  0  0  0  0  0  0  0  0  0  0
    1.7002    2.2877    2.2584 H   0  0  0  0  0  0  0  0  0  0  0  0
    2.4765    3.0109    0.9132 H   0  0  0  0  0  0  0  0  0  0  0  0
    3.2150    2.6499   -1.2516 H   0  0  0  0  0  0  0  0  0  0  0  0
   -0.2721    0.4205   -0.3777 H   0  0  0  0  0  0  0  0  0  0  0  0
  1  2  2  0  0  0  0
  2  3  2  0  0  0  0
  4  5  1  0  0  0  0
  4  6  1  0  0  0  0
  5  7  1  0  0  0  0
  5  8  2  0  0  0  0
  6  9  2  0  0  0  0
  6 24  1  0  0  0  0
  7 10  1  0  0  0  0
  7 25  1  0  0  0  0
  9 11  1  0  0  0  0
  9 10  1  0  0  0  0
 10 12  2  0  0  0  0
 11 26  1  0  0  0  0
 11 27  1  0  0  0  0
 11 28  1  0  0  0  0
 13  4  1  0  0  0  0
 13 14  1  0  0  0  0
 13 15  1  0  0  0  0
 13 29  1  1  0  0  0
 14 16  1  0  0  0  0
 15 17  1  0  0  0  0
 15 30  1  0  0  0  0
 15 31  1  0  0  0  0
 16 17  1  0  0  0  0
 16 32  1  6  0  0  0
 16 18  1  0  0  0  0
 17 33  1  1  0  0  0
 17  1  1  0  0  0  0
 18 19  1  0  0  0  0
 18 34  1  0  0  0  0
 18 35  1  0  0  0  0
 19 20  1  0  0  0  0
 20 21  1  0  0  0  0
 20 22  1  0  0  0  0
 20 23  2  0  0  0  0
 21 36  1  0  0  0  0
 22 37  1  0  0  0  0
M  CHG  2   2   1   3  -1
M  END
>  <DRUGBANK_ID>
DB03666

>  <SECONDARY_ACCESSION_NUMBERS>
EXPT00583

>  <COMMON_NAME>
Zidovudine monophosphate

>  <CAS_NUMBER>
29706-85-2

>  <UNII>
97YMU05VPJ

>  <SYNONYMS>
3'-Azido-2',3'-deoxythymidine 5'-monophosphate; 3'-Azido-3'-deoxythymidine 5'-phosphate; AZTMP; Zdv 5'-monophosphate; ZDVMP; Zidovudine 5'-monophosphate

$$$$
