
 OpenBabel10282417153D

 87 90  0  0  0  0  0  0  0  0999 V2000
    1.1775   -0.0449    0.4306 C   0  0  0  0  0  0  0  0  0  0  0  0
    0.4763    0.9910    1.2979 C   0  0  0  0  0  0  0  0  0  0  0  0
    0.8637    0.0322   -0.9262 O   0  0  0  0  0  0  0  0  0  0  0  0
    0.7682    1.2206   -1.5163 C   0  0  0  0  0  0  0  0  0  0  0  0
    1.7155    2.4293   -1.1148 C   0  0  0  0  0  0  0  0  0  0  0  0
    2.9311    2.8641   -1.9597 C   0  0  0  0  0  0  0  0  0  0  0  0
    2.6833    3.5693   -3.2326 N   0  0  0  0  0  0  0  0  0  0  0  0
    3.1931    4.8516   -3.4714 C   0  0  0  0  0  0  0  0  0  0  0  0
    2.7564    5.5611   -4.7101 C   0  0  0  0  0  0  0  0  0  0  0  0
    3.9123    5.4633   -2.6814 O   0  0  0  0  0  0  0  0  0  0  0  0
    3.7034    6.2470   -5.4620 C   0  0  0  0  0  0  0  0  0  0  0  0
    3.2521    6.8314   -6.6473 C   0  0  0  0  0  0  0  0  0  0  0  0
    1.9226    6.7276   -7.0468 C   0  0  0  0  0  0  0  0  0  0  0  0
    0.9666    6.0486   -6.3256 C   0  0  0  0  0  0  0  0  0  0  0  0
    1.4092    5.5232   -5.1234 C   0  0  0  0  0  0  0  0  0  0  0  0
   -0.1752    1.2426   -2.2624 O   0  0  0  0  0  0  0  0  0  0  0  0
    3.9564    7.5341   -7.5607 N   0  0  0  0  0  0  0  0  0  0  0  0
    3.0815    7.9054   -8.4758 C   0  0  0  0  0  0  0  0  0  0  0  0
    1.8340    7.4326   -8.2151 N   0  0  0  0  0  0  0  0  0  0  0  0
    0.6133    7.6618   -8.9474 C   0  0  0  0  0  0  0  0  0  0  0  0
    3.4102    8.8899   -9.5140 C   0  0  0  0  0  0  0  0  0  0  0  0
    3.8817   10.0700   -8.7940 N   0  0  0  0  0  0  0  0  0  0  0  0
    4.9336   10.8028   -9.2864 C   0  0  0  0  0  0  0  0  0  0  0  0
    5.0898   11.0068  -10.6242 C   0  0  0  0  0  0  0  0  0  0  0  0
    5.8458   12.1218  -11.1721 C   0  0  0  0  0  0  0  0  0  0  0  0
    6.8863   12.8297  -10.5085 C   0  0  0  0  0  0  0  0  0  0  0  0
    6.5485   12.6870   -9.1116 C   0  0  0  0  0  0  0  0  0  0  0  0
    5.6775   11.6507   -8.5034 C   0  0  0  0  0  0  0  0  0  0  0  0
    8.5685   13.1968  -11.2879 C   0  0  0  0  0  0  0  0  0  0  0  0
    9.6790   14.0049  -10.5726 N   0  0  0  0  0  0  0  0  0  0  0  0
    9.1934   12.5725  -12.3131 N   0  0  0  0  0  0  0  0  0  0  0  0
    9.0537   11.5447  -13.2941 C   0  0  0  0  0  0  0  0  0  0  0  0
    8.5819   10.2830  -12.8958 O   0  0  0  0  0  0  0  0  0  0  0  0
    9.4931   11.6138  -14.4094 O   0  0  0  0  0  0  0  0  0  0  0  0
    7.6321   10.3597  -11.8870 C   0  0  0  0  0  0  0  0  0  0  0  0
    8.0660    9.9164  -10.4701 C   0  0  0  0  0  0  0  0  0  0  0  0
    9.4091   10.4507  -10.0277 C   0  0  0  0  0  0  0  0  0  0  0  0
    9.4749   11.7572   -9.2746 C   0  0  0  0  0  0  0  0  0  0  0  0
    8.9923   12.1649   -7.9216 C   0  0  0  0  0  0  0  0  0  0  0  0
   10.0006   11.6999   -6.9990 C   0  0  0  0  0  0  0  0  0  0  0  0
    1.9616    2.8807   -4.2348 C   0  0  0  0  0  0  0  0  0  0  0  0
    2.4008    2.7344   -5.4893 N   0  0  0  0  0  0  0  0  0  0  0  0
    1.5323    2.1783   -6.3818 C   0  0  0  0  0  0  0  0  0  0  0  0
    0.3173    1.6073   -6.0561 C   0  0  0  0  0  0  0  0  0  0  0  0
   -0.1332    1.8404   -4.7917 C   0  0  0  0  0  0  0  0  0  0  0  0
    0.6349    2.6546   -3.9698 C   0  0  0  0  0  0  0  0  0  0  0  0
    0.8288   -1.0390    0.7165 H   0  0  0  0  0  0  0  0  0  0  0  0
    2.2632   -0.0061    0.4459 H   0  0  0  0  0  0  0  0  0  0  0  0
    0.7217    2.0297    1.0684 H   0  0  0  0  0  0  0  0  0  0  0  0
   -0.6113    0.9522    1.1762 H   0  0  0  0  0  0  0  0  0  0  0  0
    0.7705    0.8232    2.3302 H   0  0  0  0  0  0  0  0  0  0  0  0
    1.0867    3.3119   -0.9156 H   0  0  0  0  0  0  0  0  0  0  0  0
    2.1832    2.2039   -0.1534 H   0  0  0  0  0  0  0  0  0  0  0  0
    3.5345    3.5376   -1.3207 H   0  0  0  0  0  0  0  0  0  0  0  0
    3.5807    2.0015   -2.1397 H   0  0  0  0  0  0  0  0  0  0  0  0
    4.7429    6.3196   -5.1614 H   0  0  0  0  0  0  0  0  0  0  0  0
   -0.0543    5.9341   -6.6621 H   0  0  0  0  0  0  0  0  0  0  0  0
    0.6618    5.0128   -4.5351 H   0  0  0  0  0  0  0  0  0  0  0  0
    0.2199    6.6920   -9.2592 H   0  0  0  0  0  0  0  0  0  0  0  0
   -0.0970    8.1781   -8.2956 H   0  0  0  0  0  0  0  0  0  0  0  0
    0.7852    8.2716   -9.8336 H   0  0  0  0  0  0  0  0  0  0  0  0
    4.1810    8.4182  -10.1354 H   0  0  0  0  0  0  0  0  0  0  0  0
    2.5815    9.1269  -10.1936 H   0  0  0  0  0  0  0  0  0  0  0  0
    3.1154   10.6795   -8.5141 H   0  0  0  0  0  0  0  0  0  0  0  0
    4.7094   10.2277  -11.2931 H   0  0  0  0  0  0  0  0  0  0  0  0
    5.7327   12.1532  -12.2468 H   0  0  0  0  0  0  0  0  0  0  0  0
    6.9425   13.3460   -8.3481 H   0  0  0  0  0  0  0  0  0  0  0  0
    5.6501   11.4694   -7.4160 H   0  0  0  0  0  0  0  0  0  0  0  0
   10.6470   13.6341  -10.7538 H   0  0  0  0  0  0  0  0  0  0  0  0
    9.7197   14.0732   -9.5447 H   0  0  0  0  0  0  0  0  0  0  0  0
    7.4348   11.3875  -12.0092 H   0  0  0  0  0  0  0  0  0  0  0  0
    6.6874    9.9101  -12.2039 H   0  0  0  0  0  0  0  0  0  0  0  0
    7.3934   10.0997   -9.6327 H   0  0  0  0  0  0  0  0  0  0  0  0
    8.0925    8.8316  -10.5403 H   0  0  0  0  0  0  0  0  0  0  0  0
    9.9633    9.7629   -9.4066 H   0  0  0  0  0  0  0  0  0  0  0  0
    9.9892   10.5419  -10.9502 H   0  0  0  0  0  0  0  0  0  0  0  0
   10.4757   12.1129   -9.5062 H   0  0  0  0  0  0  0  0  0  0  0  0
    8.7641   12.4175   -9.6298 H   0  0  0  0  0  0  0  0  0  0  0  0
    8.8558   13.2714   -7.8239 H   0  0  0  0  0  0  0  0  0  0  0  0
    8.0558   11.6829   -7.6703 H   0  0  0  0  0  0  0  0  0  0  0  0
   10.9280   12.2112   -7.2624 H   0  0  0  0  0  0  0  0  0  0  0  0
    9.6018   11.9528   -6.0263 H   0  0  0  0  0  0  0  0  0  0  0  0
   10.0235   10.6322   -7.2061 H   0  0  0  0  0  0  0  0  0  0  0  0
    1.8374    2.2347   -7.4174 H   0  0  0  0  0  0  0  0  0  0  0  0
   -0.2959    1.0524   -6.7515 H   0  0  0  0  0  0  0  0  0  0  0  0
   -1.0479    1.3822   -4.4201 H   0  0  0  0  0  0  0  0  0  0  0  0
    0.2096    3.0862   -3.0687 H   0  0  0  0  0  0  0  0  0  0  0  0
  1  2  1  0  0  0  0
  1  3  1  0  0  0  0
  1 47  1  0  0  0  0
  1 48  1  0  0  0  0
  2 49  1  0  0  0  0
  2 50  1  0  0  0  0
  2 51  1  0  0  0  0
  3  4  1  0  0  0  0
  4  5  1  0  0  0  0
  4 16  2  0  0  0  0
  5  6  1  0  0  0  0
  5 52  1  0  0  0  0
  5 53  1  0  0  0  0
  6  7  1  0  0  0  0
  6 54  1  0  0  0  0
  6 55  1  0  0  0  0
  7  8  1  0  0  0  0
  7 41  1  0  0  0  0
  8  9  1  0  0  0  0
  8 10  2  0  0  0  0
  9 11  2  0  0  0  0
  9 15  1  0  0  0  0
 11 12  1  0  0  0  0
 11 56  1  0  0  0  0
 12 13  2  0  0  0  0
 12 17  1  0  0  0  0
 13 14  1  0  0  0  0
 13 19  1  0  0  0  0
 14 15  2  0  0  0  0
 14 57  1  0  0  0  0
 15 58  1  0  0  0  0
 17 18  2  0  0  0  0
 18 19  1  0  0  0  0
 18 21  1  0  0  0  0
 19 20  1  0  0  0  0
 20 59  1  0  0  0  0
 20 60  1  0  0  0  0
 20 61  1  0  0  0  0
 21 22  1  0  0  0  0
 21 62  1  0  0  0  0
 21 63  1  0  0  0  0
 22 23  1  0  0  0  0
 22 64  1  0  0  0  0
 23 24  2  0  0  0  0
 23 28  1  0  0  0  0
 24 25  1  0  0  0  0
 24 65  1  0  0  0  0
 25 26  2  0  0  0  0
 25 66  1  0  0  0  0
 26 27  1  0  0  0  0
 26 29  1  0  0  0  0
 27 28  2  0  0  0  0
 27 67  1  0  0  0  0
 28 68  1  0  0  0  0
 29 30  1  0  0  0  0
 29 31  2  0  0  0  0
 30 69  1  0  0  0  0
 30 70  1  0  0  0  0
 31 32  1  0  0  0  0
 32 33  1  0  0  0  0
 32 34  2  0  0  0  0
 33 35  1  0  0  0  0
 35 36  1  0  0  0  0
 35 71  1  0  0  0  0
 35 72  1  0  0  0  0
 36 37  1  0  0  0  0
 36 73  1  0  0  0  0
 36 74  1  0  0  0  0
 37 38  1  0  0  0  0
 37 75  1  0  0  0  0
 37 76  1  0  0  0  0
 38 39  1  0  0  0  0
 38 77  1  0  0  0  0
 38 78  1  0  0  0  0
 39 40  1  0  0  0  0
 39 79  1  0  0  0  0
 39 80  1  0  0  0  0
 40 81  1  0  0  0  0
 40 82  1  0  0  0  0
 40 83  1  0  0  0  0
 41 42  2  0  0  0  0
 41 46  1  0  0  0  0
 42 43  1  0  0  0  0
 43 44  2  0  0  0  0
 43 84  1  0  0  0  0
 44 45  1  0  0  0  0
 44 85  1  0  0  0  0
 45 46  2  0  0  0  0
 45 86  1  0  0  0  0
 46 87  1  0  0  0  0
M  END
>  <DRUGBANK_ID>
DB06695

>  <COMMON_NAME>
Dabigatran etexilate

>  <CAS_NUMBER>
211915-06-9

>  <UNII>
2E18WX195X

>  <SYNONYMS>
Dabigatran etexilate

$$$$
