
 OpenBabel10282417143D

 58 60  0  0  1  0  0  0  0  0999 V2000
    1.0757   -0.4273    0.0862 N   0  0  0  0  0  0  0  0  0  0  0  0
    0.3741   -0.1068    1.2508 C   0  0  0  0  0  0  0  0  0  0  0  0
    0.7694    1.0090    1.9611 C   0  0  0  0  0  0  0  0  0  0  0  0
   -0.0827    1.5484    2.9142 C   0  0  0  0  0  0  0  0  0  0  0  0
   -1.2186    0.9001    3.4034 C   0  0  0  0  0  0  0  0  0  0  0  0
   -1.6426   -0.2004    2.6590 C   0  0  0  0  0  0  0  0  0  0  0  0
   -0.8497   -0.6965    1.6030 C   0  0  0  0  0  0  0  0  0  0  0  0
   -1.9800    1.2691    4.6554 C   0  0  0  0  0  0  0  0  0  0  0  0
   -3.0125    0.6585    4.9349 O   0  0  0  0  0  0  0  0  0  0  0  0
   -1.5385    2.2158    5.5561 N   0  0  0  0  0  0  0  0  0  0  0  0
   -0.3196    3.0171    5.5901 C   0  0  1  0  0  0  0  0  0  0  0  0
   -0.6429    4.5063    5.4169 C   0  0  0  0  0  0  0  0  0  0  0  0
   -1.3056    5.1401    6.6278 C   0  0  0  0  0  0  0  0  0  0  0  0
   -0.4741    5.0920    7.8872 C   0  0  0  0  0  0  0  0  0  0  0  0
    0.2131    6.2150    8.1700 O   0  0  0  0  0  0  0  0  0  0  0  0
   -0.4361    4.1326    8.6162 O   0  0  0  0  0  0  0  0  0  0  0  0
    0.7902    2.4880    6.5292 C   0  0  0  0  0  0  0  0  0  0  0  0
    2.0157    2.3829    5.9385 O   0  0  0  0  0  0  0  0  0  0  0  0
    0.6260    2.0721    7.6555 O   0  0  0  0  0  0  0  0  0  0  0  0
    0.3266   -0.4512   -1.1834 C   0  0  0  0  0  0  0  0  0  0  0  0
    0.6176    0.6915   -2.1918 C   0  0  3  0  0  0  0  0  0  0  0  0
    0.1839    2.0724   -1.8123 N   0  0  0  0  0  0  0  0  0  0  0  0
    0.5634    3.1359   -2.6845 C   0  0  0  0  0  0  0  0  0  0  0  0
    1.5100    2.9826   -3.6568 C   0  0  0  0  0  0  0  0  0  0  0  0
    2.2034    1.7751   -3.7417 N   0  0  0  0  0  0  0  0  0  0  0  0
    2.0964    0.7751   -2.6612 C   0  0  0  0  0  0  0  0  0  0  0  0
   -0.0911    4.5209   -2.5724 C   0  0  0  0  0  0  0  0  0  0  0  0
    0.2819    5.5075   -3.4524 N   0  0  0  0  0  0  0  0  0  0  0  0
    1.1652    5.2350   -4.3496 C   0  0  0  0  0  0  0  0  0  0  0  0
    1.7676    4.0309   -4.5040 N   0  0  0  0  0  0  0  0  0  0  0  0
    1.5308    6.2074   -5.2077 N   0  0  0  0  0  0  0  0  0  0  0  0
   -0.9262    4.7530   -1.7018 O   0  0  0  0  0  0  0  0  0  0  0  0
   -0.5755    2.3191   -0.6007 C   0  0  0  0  0  0  0  0  0  0  0  0
    1.9969   -0.0016    0.0351 H   0  0  0  0  0  0  0  0  0  0  0  0
    1.6396    1.5948    1.6743 H   0  0  0  0  0  0  0  0  0  0  0  0
    0.1564    2.5802    3.0952 H   0  0  0  0  0  0  0  0  0  0  0  0
   -2.6128   -0.6564    2.8576 H   0  0  0  0  0  0  0  0  0  0  0  0
   -1.2148   -1.5434    1.0308 H   0  0  0  0  0  0  0  0  0  0  0  0
   -2.1010    2.2363    6.4051 H   0  0  0  0  0  0  0  0  0  0  0  0
    0.1868    2.8356    4.6875 H   0  0  0  0  0  0  0  0  0  0  0  0
    0.2477    5.0629    5.0995 H   0  0  0  0  0  0  0  0  0  0  0  0
   -1.3485    4.6044    4.5670 H   0  0  0  0  0  0  0  0  0  0  0  0
   -1.5956    6.1707    6.4050 H   0  0  0  0  0  0  0  0  0  0  0  0
   -2.2345    4.6016    6.8429 H   0  0  0  0  0  0  0  0  0  0  0  0
   -0.2059    7.0281    7.8439 H   0  0  0  0  0  0  0  0  0  0  0  0
    2.0041    2.0988    5.0048 H   0  0  0  0  0  0  0  0  0  0  0  0
    0.5686   -1.4084   -1.6551 H   0  0  0  0  0  0  0  0  0  0  0  0
   -0.7595   -0.4780   -1.0238 H   0  0  0  0  0  0  0  0  0  0  0  0
    0.0288    0.4305   -3.0861 H   0  0  0  0  0  0  0  0  0  0  0  0
    2.6853    1.5379   -4.5992 H   0  0  0  0  0  0  0  0  0  0  0  0
    2.7274    1.1236   -1.8335 H   0  0  0  0  0  0  0  0  0  0  0  0
    2.4791   -0.1969   -2.9877 H   0  0  0  0  0  0  0  0  0  0  0  0
    2.5010    3.9066   -5.1805 H   0  0  0  0  0  0  0  0  0  0  0  0
    1.0707    7.1047   -5.0941 H   0  0  0  0  0  0  0  0  0  0  0  0
    2.2205    6.1164   -5.9329 H   0  0  0  0  0  0  0  0  0  0  0  0
    0.0241    2.9230    0.0907 H   0  0  0  0  0  0  0  0  0  0  0  0
   -1.5354    2.8004   -0.7841 H   0  0  0  0  0  0  0  0  0  0  0  0
   -0.8779    1.4147   -0.0989 H   0  0  0  0  0  0  0  0  0  0  0  0
  1  2  1  0  0  0  0
  1 20  1  0  0  0  0
  1 34  1  0  0  0  0
  2  3  2  0  0  0  0
  2  7  1  0  0  0  0
  3  4  1  0  0  0  0
  3 35  1  0  0  0  0
  4  5  2  0  0  0  0
  4 36  1  0  0  0  0
  5  6  1  0  0  0  0
  5  8  1  0  0  0  0
  6  7  2  0  0  0  0
  6 37  1  0  0  0  0
  7 38  1  0  0  0  0
  8  9  2  0  0  0  0
  8 10  1  0  0  0  0
 10 39  1  0  0  0  0
 11 10  1  0  0  0  0
 11 12  1  0  0  0  0
 11 17  1  0  0  0  0
 11 40  1  6  0  0  0
 12 13  1  0  0  0  0
 12 41  1  0  0  0  0
 12 42  1  0  0  0  0
 13 14  1  0  0  0  0
 13 43  1  0  0  0  0
 13 44  1  0  0  0  0
 14 15  1  0  0  0  0
 14 16  2  0  0  0  0
 15 45  1  0  0  0  0
 17 18  1  0  0  0  0
 17 19  2  0  0  0  0
 18 46  1  0  0  0  0
 20 21  1  0  0  0  0
 20 47  1  0  0  0  0
 20 48  1  0  0  0  0
 21 26  1  0  0  0  0
 21 22  1  0  0  0  0
 21 49  1  0  0  0  0
 22 23  1  0  0  0  0
 22 33  1  0  0  0  0
 23 24  2  0  0  0  0
 23 27  1  0  0  0  0
 24 25  1  0  0  0  0
 24 30  1  0  0  0  0
 25 26  1  0  0  0  0
 25 50  1  0  0  0  0
 26 51  1  0  0  0  0
 26 52  1  0  0  0  0
 27 32  2  0  0  0  0
 27 28  1  0  0  0  0
 28 29  2  0  0  0  0
 29 30  1  0  0  0  0
 29 31  1  0  0  0  0
 30 53  1  0  0  0  0
 31 54  1  0  0  0  0
 31 55  1  0  0  0  0
 33 56  1  0  0  0  0
 33 57  1  0  0  0  0
 33 58  1  0  0  0  0
M  END
>  <DRUGBANK_ID>
DB04789

>  <COMMON_NAME>
5-methyltetrahydrofolic acid

>  <CAS_NUMBER>
134-35-0

>  <UNII>
TYK22LML8F

>  <SYNONYMS>
5-Methyl-5,6,7,8-tetrahydrofolic acid; 5-Methyl-5,6,7,8-tetrahydropteroyl-L-glutamic acid; 5-Methyltetrahydropteroyl monoglutamate; 5-Methyltetrahydropteroylglutamic acid; N-Methyltetrahydrofolate; N-Methyltetrahydrofolic acid; N5-Methyltetrahydrofolate; N5-Methyltetrahydrofolic acid; N5-Methyltetrahydropteroylglutamate

$$$$
