1162
 OpenBabel10282417113D

 53 56  0  0  1  0  0  0  0  0999 V2000
    1.0951   -0.0099    0.0442 O   0  0  0  0  0  0  0  0  0  0  0  0
    0.8519   -2.8107    1.8747 O   0  0  0  0  0  0  0  0  0  0  0  0
    0.3182    7.7624    7.7594 O   0  0  0  0  0  0  0  0  0  0  0  0
   -1.7153    6.8861    9.6127 O   0  0  0  0  0  0  0  0  0  0  0  0
    0.0495   -0.8321    2.7059 N   0  0  0  0  0  0  0  0  0  0  0  0
   -0.1619    1.5321    4.2608 N   0  0  0  0  0  0  0  0  0  0  0  0
    0.0846    3.5731    5.4504 N   0  0  0  0  0  0  0  0  0  0  0  0
   -1.4977    1.9343    6.0637 N   0  0  0  0  0  0  0  0  0  0  0  0
   -2.9885    2.2075    7.7779 N   0  0  0  0  0  0  0  0  0  0  0  0
    0.2392   -1.1549    0.2073 C   0  0  3  0  0  0  0  0  0  0  0  0
   -1.2759   -0.2883    3.0213 C   0  0  0  0  0  0  0  0  0  0  0  0
    1.0323   -0.5688    3.7657 C   0  0  0  0  0  0  0  0  0  0  0  0
   -1.1846    1.2405    3.2696 C   0  0  0  0  0  0  0  0  0  0  0  0
    1.1634    0.9763    3.9818 C   0  0  0  0  0  0  0  0  0  0  0  0
   -1.1364   -0.7472   -0.2800 C   0  0  0  0  0  0  0  0  0  0  0  0
    0.3439   -1.6984    1.6654 C   0  0  0  0  0  0  0  0  0  0  0  0
   -1.1524    0.7412   -0.0701 C   0  0  0  0  0  0  0  0  0  0  0  0
    0.2967    1.1517   -0.1918 C   0  0  0  0  0  0  0  0  0  0  0  0
   -0.4971    2.3680    5.2887 C   0  0  0  0  0  0  0  0  0  0  0  0
   -0.3707    4.3886    6.4436 C   0  0  0  0  0  0  0  0  0  0  0  0
   -1.3807    3.9776    7.3141 C   0  0  0  0  0  0  0  0  0  0  0  0
   -1.9038    2.7086    7.0738 C   0  0  0  0  0  0  0  0  0  0  0  0
    0.1321    5.6862    6.6639 C   0  0  0  0  0  0  0  0  0  0  0  0
   -1.8232    4.8106    8.3764 C   0  0  0  0  0  0  0  0  0  0  0  0
   -0.3092    6.5352    7.7163 C   0  0  0  0  0  0  0  0  0  0  0  0
   -1.3002    6.0793    8.5931 C   0  0  0  0  0  0  0  0  0  0  0  0
   -0.0589    8.6686    8.7985 C   0  0  0  0  0  0  0  0  0  0  0  0
   -2.7157    6.4469   10.5183 C   0  0  0  0  0  0  0  0  0  0  0  0
   -3.2104    2.5424    8.6998 H   0  0  0  0  0  0  0  0  0  0  0  0
   -3.1686    1.2303    7.5794 H   0  0  0  0  0  0  0  0  0  0  0  0
    0.6300   -1.9412   -0.4528 H   0  0  0  0  0  0  0  0  0  0  0  0
   -2.0090   -0.5678    2.2632 H   0  0  0  0  0  0  0  0  0  0  0  0
   -1.6151   -0.7821    3.9417 H   0  0  0  0  0  0  0  0  0  0  0  0
    0.6618   -1.0439    4.6833 H   0  0  0  0  0  0  0  0  0  0  0  0
    1.9957   -1.0190    3.5076 H   0  0  0  0  0  0  0  0  0  0  0  0
   -0.8288    1.7712    2.3851 H   0  0  0  0  0  0  0  0  0  0  0  0
   -2.1760    1.6507    3.4885 H   0  0  0  0  0  0  0  0  0  0  0  0
    1.5412    1.4131    3.0465 H   0  0  0  0  0  0  0  0  0  0  0  0
    1.8806    1.1928    4.7761 H   0  0  0  0  0  0  0  0  0  0  0  0
   -1.2433   -0.9395   -1.3527 H   0  0  0  0  0  0  0  0  0  0  0  0
   -1.9402   -1.2807    0.2327 H   0  0  0  0  0  0  0  0  0  0  0  0
   -1.8333    1.3129   -0.7004 H   0  0  0  0  0  0  0  0  0  0  0  0
   -1.5286    0.9237    0.9189 H   0  0  0  0  0  0  0  0  0  0  0  0
    0.5101    1.5212   -1.1984 H   0  0  0  0  0  0  0  0  0  0  0  0
    0.5923    1.9267    0.5234 H   0  0  0  0  0  0  0  0  0  0  0  0
    0.9019    6.0593    5.9884 H   0  0  0  0  0  0  0  0  0  0  0  0
   -2.5918    4.4402    9.0414 H   0  0  0  0  0  0  0  0  0  0  0  0
   -1.1133    8.9573    8.7092 H   0  0  0  0  0  0  0  0  0  0  0  0
    0.1723    8.2552    9.7878 H   0  0  0  0  0  0  0  0  0  0  0  0
    0.5247    9.5883    8.7018 H   0  0  0  0  0  0  0  0  0  0  0  0
   -3.6630    6.2655   10.0022 H   0  0  0  0  0  0  0  0  0  0  0  0
   -2.3839    5.5659   11.0757 H   0  0  0  0  0  0  0  0  0  0  0  0
   -2.8816    7.2528   11.2412 H   0  0  0  0  0  0  0  0  0  0  0  0
  1 10  1  0  0  0  0
  1 18  1  0  0  0  0
  2 16  2  0  0  0  0
  3 25  1  0  0  0  0
  3 27  1  0  0  0  0
  4 26  1  0  0  0  0
  4 28  1  0  0  0  0
  5 11  1  0  0  0  0
  5 12  1  0  0  0  0
  5 16  1  0  0  0  0
  6 13  1  0  0  0  0
  6 14  1  0  0  0  0
  6 19  1  0  0  0  0
  7 19  2  0  0  0  0
  7 20  1  0  0  0  0
  8 19  1  0  0  0  0
  8 22  2  0  0  0  0
  9 22  1  0  0  0  0
  9 29  1  0  0  0  0
  9 30  1  0  0  0  0
 10 15  1  0  0  0  0
 10 16  1  0  0  0  0
 10 31  1  0  0  0  0
 11 13  1  0  0  0  0
 11 32  1  0  0  0  0
 11 33  1  0  0  0  0
 12 14  1  0  0  0  0
 12 34  1  0  0  0  0
 12 35  1  0  0  0  0
 13 36  1  0  0  0  0
 13 37  1  0  0  0  0
 14 38  1  0  0  0  0
 14 39  1  0  0  0  0
 15 17  1  0  0  0  0
 15 40  1  0  0  0  0
 15 41  1  0  0  0  0
 17 18  1  0  0  0  0
 17 42  1  0  0  0  0
 17 43  1  0  0  0  0
 18 44  1  0  0  0  0
 18 45  1  0  0  0  0
 20 21  1  0  0  0  0
 20 23  2  0  0  0  0
 21 22  1  0  0  0  0
 21 24  2  0  0  0  0
 23 25  1  0  0  0  0
 23 46  1  0  0  0  0
 24 26  1  0  0  0  0
 24 47  1  0  0  0  0
 25 26  2  0  0  0  0
 27 48  1  0  0  0  0
 27 49  1  0  0  0  0
 27 50  1  0  0  0  0
 28 51  1  0  0  0  0
 28 52  1  0  0  0  0
 28 53  1  0  0  0  0
M  END
>  <DRUGBANK_ID>
DB01162

>  <SECONDARY_ACCESSION_NUMBERS>
APRD00667

>  <COMMON_NAME>
Terazosin

>  <CAS_NUMBER>
63590-64-7

>  <UNII>
8L5014XET7

>  <SYNONYMS>
1-(4-Amino-6,7-dimethoxy-2-quinazolinyl)-4-((tetrahydro-2-furanyl)carbonyl)piperazine; Terazosin; Terazosina; Terazosine; TÃ©razosine; Terazosinum

$$$$
