550
 OpenBabel10282417103D

 21 21  0  0  0  0  0  0  0  0999 V2000
    2.3636   -0.4742   -0.0391 S   0  0  0  0  0  0  0  0  0  0  0  0
   -2.4882   -1.3522   -0.0005 O   0  0  0  0  0  0  0  0  0  0  0  0
    0.4354    1.3240   -0.1505 N   0  0  0  0  0  0  0  0  0  0  0  0
   -0.2580   -0.8802   -0.0289 N   0  0  0  0  0  0  0  0  0  0  0  0
   -1.0635    3.2890    0.0183 C   0  0  0  0  0  0  0  0  0  0  0  0
   -0.8538    1.7947   -0.0580 C   0  0  0  0  0  0  0  0  0  0  0  0
   -0.4956    3.9347    1.2945 C   0  0  0  0  0  0  0  0  0  0  0  0
   -1.8688    0.9207   -0.0295 C   0  0  0  0  0  0  0  0  0  0  0  0
    1.0168    3.8149    1.4231 C   0  0  0  0  0  0  0  0  0  0  0  0
    0.7734    0.0067   -0.0773 C   0  0  0  0  0  0  0  0  0  0  0  0
   -1.5790   -0.5276   -0.0264 C   0  0  0  0  0  0  0  0  0  0  0  0
    1.2130    1.9720   -0.2161 H   0  0  0  0  0  0  0  0  0  0  0  0
   -0.0445   -1.8659   -0.0053 H   0  0  0  0  0  0  0  0  0  0  0  0
   -0.6343    3.7685   -0.8696 H   0  0  0  0  0  0  0  0  0  0  0  0
   -2.1398    3.5113   -0.0106 H   0  0  0  0  0  0  0  0  0  0  0  0
   -0.7578    4.9999    1.2940 H   0  0  0  0  0  0  0  0  0  0  0  0
   -0.9695    3.4929    2.1795 H   0  0  0  0  0  0  0  0  0  0  0  0
   -2.9090    1.2157    0.0084 H   0  0  0  0  0  0  0  0  0  0  0  0
    1.5100    4.1788    0.5154 H   0  0  0  0  0  0  0  0  0  0  0  0
    1.3901    4.3817    2.2780 H   0  0  0  0  0  0  0  0  0  0  0  0
    1.3206    2.7815    1.6054 H   0  0  0  0  0  0  0  0  0  0  0  0
  1 10  2  0  0  0  0
  2 11  2  0  0  0  0
  3  6  1  0  0  0  0
  3 10  1  0  0  0  0
  3 12  1  0  0  0  0
  4 10  1  0  0  0  0
  4 11  1  0  0  0  0
  4 13  1  0  0  0  0
  5  6  1  0  0  0  0
  5  7  1  0  0  0  0
  5 14  1  0  0  0  0
  5 15  1  0  0  0  0
  6  8  2  0  0  0  0
  7  9  1  0  0  0  0
  7 16  1  0  0  0  0
  7 17  1  0  0  0  0
  8 11  1  0  0  0  0
  8 18  1  0  0  0  0
  9 19  1  0  0  0  0
  9 20  1  0  0  0  0
  9 21  1  0  0  0  0
M  END
>  <DRUGBANK_ID>
DB00550

>  <SECONDARY_ACCESSION_NUMBERS>
APRD00297

>  <COMMON_NAME>
Propylthiouracil

>  <CAS_NUMBER>
51-52-5

>  <UNII>
721M9407IY

>  <SYNONYMS>
2-Mercapto-6-propyl-4-pyrimidone; 2-Mercapto-6-propylpyrimid-4-one; 2-Thio-4-oxo-6-propyl-1,3-pyrimidine; 2-Thio-6-propyl-1,3-pyrimidin-4-one; 4-propyl-2-thiouracil; 6-Propyl-2-thio-2,4(1H,3H)pyrimidinedione; 6-propyl-2-thiouracil; 6-propyl-2-thioxo-2,3-dihydropyrimidin-4(1H)-one; 6-Propylthiouracil; 6-Thio-4-propyluracil; Propiltiouracilo; Propylthiouracil; Propylthiouracile; Propylthiouracilum

$$$$
