
 OpenBabel10282417193D

 52 57  0  0  0  0  0  0  0  0999 V2000
   -0.3379    0.5748   -0.0537 C   0  0  0  0  0  0  0  0  0  0  0  0
    0.8980    1.3517   -0.0389 C   0  0  0  0  0  0  0  0  0  0  0  0
   -0.2860   -0.7883   -0.0320 N   0  0  0  0  0  0  0  0  0  0  0  0
    2.0527    0.6982   -0.0490 N   0  0  0  0  0  0  0  0  0  0  0  0
    2.0532   -0.7046   -0.0799 C   0  0  0  0  0  0  0  0  0  0  0  0
    0.9267   -1.4403   -0.0453 C   0  0  0  0  0  0  0  0  0  0  0  0
   -1.5787    1.0123   -0.0963 N   0  0  0  0  0  0  0  0  0  0  0  0
   -2.3592   -0.1023   -0.0381 C   0  0  0  0  0  0  0  0  0  0  0  0
   -1.5798   -1.2362   -0.0050 C   0  0  0  0  0  0  0  0  0  0  0  0
    0.9176    2.7415   -0.0431 N   0  0  0  0  0  0  0  0  0  0  0  0
   -0.2055    3.5844    0.0601 C   0  0  0  0  0  0  0  0  0  0  0  0
   -1.0931    3.4870    1.1374 C   0  0  0  0  0  0  0  0  0  0  0  0
   -2.2687    4.2514    1.1895 C   0  0  0  0  0  0  0  0  0  0  0  0
   -2.5912    5.1650    0.1823 C   0  0  0  0  0  0  0  0  0  0  0  0
   -1.6786    5.2932   -0.8716 C   0  0  0  0  0  0  0  0  0  0  0  0
   -0.5075    4.5117   -0.9406 C   0  0  0  0  0  0  0  0  0  0  0  0
   -3.7394    5.9209    0.2329 N   0  0  0  0  0  0  0  0  0  0  0  0
   -4.0900    6.6978    1.4224 C   0  0  0  0  0  0  0  0  0  0  0  0
   -5.4689    6.2751    1.9445 C   0  0  0  0  0  0  0  0  0  0  0  0
   -6.4723    6.3690    0.9176 O   0  0  0  0  0  0  0  0  0  0  0  0
   -6.1315    5.5092   -0.1872 C   0  0  0  0  0  0  0  0  0  0  0  0
   -4.7703    5.8882   -0.8126 C   0  0  0  0  0  0  0  0  0  0  0  0
    5.4402   -4.2232   -1.4933 N   0  0  0  0  0  0  0  0  0  0  0  0
    6.6731   -4.5522   -1.0548 N   0  0  0  0  0  0  0  0  0  0  0  0
    6.8444   -3.7576    0.0024 C   0  0  0  0  0  0  0  0  0  0  0  0
    5.7443   -2.9032    0.2185 C   0  0  0  0  0  0  0  0  0  0  0  0
    5.4048   -1.9443    1.1809 C   0  0  0  0  0  0  0  0  0  0  0  0
    4.2108   -1.2260    1.0354 C   0  0  0  0  0  0  0  0  0  0  0  0
    3.3502   -1.4415   -0.0499 C   0  0  0  0  0  0  0  0  0  0  0  0
    3.6907   -2.4106   -1.0283 C   0  0  0  0  0  0  0  0  0  0  0  0
    4.8766   -3.1518   -0.8386 C   0  0  0  0  0  0  0  0  0  0  0  0
    0.9027   -2.5230   -0.0196 H   0  0  0  0  0  0  0  0  0  0  0  0
   -3.4379   -0.0149   -0.0298 H   0  0  0  0  0  0  0  0  0  0  0  0
   -1.8366   -2.2832    0.0270 H   0  0  0  0  0  0  0  0  0  0  0  0
    1.8192    3.1882   -0.1218 H   0  0  0  0  0  0  0  0  0  0  0  0
   -0.9144    2.7538    1.9200 H   0  0  0  0  0  0  0  0  0  0  0  0
   -2.9567    4.0787    2.0123 H   0  0  0  0  0  0  0  0  0  0  0  0
   -1.8630    6.0343   -1.6454 H   0  0  0  0  0  0  0  0  0  0  0  0
    0.1318    4.6037   -1.8144 H   0  0  0  0  0  0  0  0  0  0  0  0
   -4.1315    7.7511    1.1185 H   0  0  0  0  0  0  0  0  0  0  0  0
   -3.3378    6.6168    2.2138 H   0  0  0  0  0  0  0  0  0  0  0  0
   -5.4500    5.2484    2.3280 H   0  0  0  0  0  0  0  0  0  0  0  0
   -5.7703    6.9348    2.7643 H   0  0  0  0  0  0  0  0  0  0  0  0
   -6.9298    5.6046   -0.9311 H   0  0  0  0  0  0  0  0  0  0  0  0
   -6.1304    4.4712    0.1664 H   0  0  0  0  0  0  0  0  0  0  0  0
   -4.8501    6.8942   -1.2418 H   0  0  0  0  0  0  0  0  0  0  0  0
   -4.5315    5.1907   -1.6230 H   0  0  0  0  0  0  0  0  0  0  0  0
    5.0306   -4.8129   -2.2092 H   0  0  0  0  0  0  0  0  0  0  0  0
    7.7559   -3.8221    0.5830 H   0  0  0  0  0  0  0  0  0  0  0  0
    6.0549   -1.7753    2.0326 H   0  0  0  0  0  0  0  0  0  0  0  0
    3.9533   -0.4906    1.7949 H   0  0  0  0  0  0  0  0  0  0  0  0
    3.0604   -2.5747   -1.8982 H   0  0  0  0  0  0  0  0  0  0  0  0
  1  2  1  0  0  0  0
  1  3  1  0  0  0  0
  2  4  2  0  0  0  0
  2 10  1  0  0  0  0
  3  6  1  0  0  0  0
  4  5  1  0  0  0  0
  5  6  2  0  0  0  0
  5 29  1  0  0  0  0
  6 32  1  0  0  0  0
  7  8  1  0  0  0  0
  7  1  2  0  0  0  0
  8  9  2  0  0  0  0
  8 33  1  0  0  0  0
  9  3  1  0  0  0  0
  9 34  1  0  0  0  0
 10 11  1  0  0  0  0
 10 35  1  0  0  0  0
 11 12  1  0  0  0  0
 11 16  2  0  0  0  0
 12 13  2  0  0  0  0
 12 36  1  0  0  0  0
 13 14  1  0  0  0  0
 13 37  1  0  0  0  0
 14 15  2  0  0  0  0
 14 17  1  0  0  0  0
 15 16  1  0  0  0  0
 15 38  1  0  0  0  0
 16 39  1  0  0  0  0
 17 18  1  0  0  0  0
 17 22  1  0  0  0  0
 18 19  1  0  0  0  0
 18 40  1  0  0  0  0
 18 41  1  0  0  0  0
 19 20  1  0  0  0  0
 19 42  1  0  0  0  0
 19 43  1  0  0  0  0
 20 21  1  0  0  0  0
 21 22  1  0  0  0  0
 21 44  1  0  0  0  0
 21 45  1  0  0  0  0
 22 46  1  0  0  0  0
 22 47  1  0  0  0  0
 23 24  1  0  0  0  0
 23 31  1  0  0  0  0
 23 48  1  0  0  0  0
 24 25  2  0  0  0  0
 25 26  1  0  0  0  0
 25 49  1  0  0  0  0
 26 27  1  0  0  0  0
 26 31  2  0  0  0  0
 27 28  2  0  0  0  0
 27 50  1  0  0  0  0
 28 29  1  0  0  0  0
 28 51  1  0  0  0  0
 29 30  2  0  0  0  0
 30 31  1  0  0  0  0
 30 52  1  0  0  0  0
M  END
>  <DRUGBANK_ID>
DB12121

>  <COMMON_NAME>
Entospletinib

>  <CAS_NUMBER>
1229208-44-9

>  <UNII>
6I3O3W6O3B

>  <SYNONYMS>
Entospletinib

$$$$
