057
 OpenBabel10282417163D

 49 52  0  0  0  0  0  0  0  0999 V2000
    1.0937   -0.0967   -0.1199 O   0  0  0  0  0  0  0  0  0  0  0  0
    2.3020    0.0273    0.0044 C   0  0  0  0  0  0  0  0  0  0  0  0
    3.1265   -0.2540   -1.0859 N   0  0  0  0  0  0  0  0  0  0  0  0
    4.6053   -0.3761   -1.3179 C   0  0  0  0  0  0  0  0  0  0  0  0
    4.9748   -1.8057   -1.7538 C   0  0  0  0  0  0  0  0  0  0  0  0
    5.0001    0.6061   -2.4430 C   0  0  0  0  0  0  0  0  0  0  0  0
    5.5045   -0.1321   -0.0961 C   0  0  0  0  0  0  0  0  0  0  0  0
    5.9190    1.2130    0.0109 O   0  0  0  0  0  0  0  0  0  0  0  0
    2.8464    0.4535    1.3320 C   0  0  0  0  0  0  0  0  0  0  0  0
    2.5799   -0.3056    2.4707 C   0  0  0  0  0  0  0  0  0  0  0  0
    3.2829   -0.0579    3.6617 C   0  0  0  0  0  0  0  0  0  0  0  0
    4.3454    0.8716    3.6308 C   0  0  0  0  0  0  0  0  0  0  0  0
    5.2675    1.2359    4.5921 N   0  0  0  0  0  0  0  0  0  0  0  0
    5.1678    0.8966    5.9926 C   0  0  0  0  0  0  0  0  0  0  0  0
    6.2461    2.0239    4.0508 C   0  0  0  0  0  0  0  0  0  0  0  0
    3.6873    1.5761    1.4286 C   0  0  0  0  0  0  0  0  0  0  0  0
    4.6038    1.6794    2.5146 C   0  0  0  0  0  0  0  0  0  0  0  0
    5.8955    2.3043    2.7494 C   0  0  0  0  0  0  0  0  0  0  0  0
    6.8256    3.0766    1.8503 C   0  0  0  0  0  0  0  0  0  0  0  0
    6.4740    4.1204    1.0348 N   0  0  0  0  0  0  0  0  0  0  0  0
    8.1823    2.8421    1.6373 C   0  0  0  0  0  0  0  0  0  0  0  0
    8.6617    3.8033    0.6940 C   0  0  0  0  0  0  0  0  0  0  0  0
    9.8895    4.0978    0.0655 C   0  0  0  0  0  0  0  0  0  0  0  0
    9.9335    5.1972   -0.7966 C   0  0  0  0  0  0  0  0  0  0  0  0
    7.5745    4.6093    0.3759 C   0  0  0  0  0  0  0  0  0  0  0  0
    7.5651    5.6814   -0.4419 N   0  0  0  0  0  0  0  0  0  0  0  0
    8.7757    5.9382   -0.9941 C   0  0  0  0  0  0  0  0  0  0  0  0
    2.5556   -0.5167   -1.8865 H   0  0  0  0  0  0  0  0  0  0  0  0
    4.5762   -2.0675   -2.7358 H   0  0  0  0  0  0  0  0  0  0  0  0
    6.0691   -1.9013   -1.8214 H   0  0  0  0  0  0  0  0  0  0  0  0
    4.6316   -2.5435   -1.0210 H   0  0  0  0  0  0  0  0  0  0  0  0
    4.5973    1.6106   -2.2589 H   0  0  0  0  0  0  0  0  0  0  0  0
    6.0932    0.6878   -2.5020 H   0  0  0  0  0  0  0  0  0  0  0  0
    4.6291    0.3035   -3.4242 H   0  0  0  0  0  0  0  0  0  0  0  0
    5.0520   -0.5455    0.8106 H   0  0  0  0  0  0  0  0  0  0  0  0
    6.4563   -0.6552   -0.1655 H   0  0  0  0  0  0  0  0  0  0  0  0
    5.3750    1.8098   -0.5231 H   0  0  0  0  0  0  0  0  0  0  0  0
    1.8285   -1.0941    2.4433 H   0  0  0  0  0  0  0  0  0  0  0  0
    3.0599   -0.6264    4.5602 H   0  0  0  0  0  0  0  0  0  0  0  0
    4.2039    1.2702    6.3488 H   0  0  0  0  0  0  0  0  0  0  0  0
    5.2292   -0.1878    6.1026 H   0  0  0  0  0  0  0  0  0  0  0  0
    5.9742    1.3815    6.5487 H   0  0  0  0  0  0  0  0  0  0  0  0
    7.0833    2.3808    4.6373 H   0  0  0  0  0  0  0  0  0  0  0  0
    3.7703    2.2273    0.5698 H   0  0  0  0  0  0  0  0  0  0  0  0
    5.5607    4.5377    0.9852 H   0  0  0  0  0  0  0  0  0  0  0  0
    8.7670    2.0359    2.0631 H   0  0  0  0  0  0  0  0  0  0  0  0
   10.7805    3.5036    0.2439 H   0  0  0  0  0  0  0  0  0  0  0  0
   10.8541    5.4744   -1.3021 H   0  0  0  0  0  0  0  0  0  0  0  0
    8.7970    6.8090   -1.6472 H   0  0  0  0  0  0  0  0  0  0  0  0
  1  2  2  0  0  0  0
  2  3  1  0  0  0  0
  2  9  1  0  0  0  0
  3  4  1  0  0  0  0
  3 28  1  0  0  0  0
  4  5  1  0  0  0  0
  4  6  1  0  0  0  0
  4  7  1  0  0  0  0
  5 29  1  0  0  0  0
  5 30  1  0  0  0  0
  5 31  1  0  0  0  0
  6 32  1  0  0  0  0
  6 33  1  0  0  0  0
  6 34  1  0  0  0  0
  7  8  1  0  0  0  0
  7 35  1  0  0  0  0
  7 36  1  0  0  0  0
  8 37  1  0  0  0  0
  9 10  2  0  0  0  0
  9 16  1  0  0  0  0
 10 11  1  0  0  0  0
 10 38  1  0  0  0  0
 11 12  2  0  0  0  0
 11 39  1  0  0  0  0
 12 13  1  0  0  0  0
 12 17  1  0  0  0  0
 13 14  1  0  0  0  0
 13 15  1  0  0  0  0
 14 40  1  0  0  0  0
 14 41  1  0  0  0  0
 14 42  1  0  0  0  0
 15 18  2  0  0  0  0
 15 43  1  0  0  0  0
 16 17  2  0  0  0  0
 16 44  1  0  0  0  0
 17 18  1  0  0  0  0
 18 19  1  0  0  0  0
 19 20  1  0  0  0  0
 19 21  2  0  0  0  0
 20 25  1  0  0  0  0
 20 45  1  0  0  0  0
 21 22  1  0  0  0  0
 21 46  1  0  0  0  0
 22 23  2  0  0  0  0
 22 25  1  0  0  0  0
 23 24  1  0  0  0  0
 23 47  1  0  0  0  0
 24 27  2  0  0  0  0
 24 48  1  0  0  0  0
 25 26  2  0  0  0  0
 26 27  1  0  0  0  0
 27 49  1  0  0  0  0
M  END
>  <DRUGBANK_ID>
DB06834

>  <COMMON_NAME>
N-(2-hydroxy-1,1-dimethylethyl)-1-methyl-3-(1H-pyrrolo[2,3-b]pyridin-2-yl)-1H-indole-5-carboxamide

$$$$
