
 OpenBabel10282417123D

 21 20  0  0  1  0  0  0  0  0999 V2000
    1.0274    0.1245    0.0513 C   0  0  0  0  0  0  0  0  0  0  0  0
    0.5551   -1.1745   -0.6333 C   0  0  0  0  0  0  0  0  0  0  0  0
    1.0404   -2.3797    0.1988 C   0  0  0  0  0  0  0  0  0  0  0  0
   -0.9962   -1.1984   -0.6270 C   0  0  0  0  0  0  0  0  0  0  0  0
   -1.5819   -0.1279   -1.3690 O   0  0  0  0  0  0  0  0  0  0  0  0
    1.0971   -1.2894   -2.0888 C   0  0  1  0  0  0  0  0  0  0  0  0
    0.5839   -0.2165   -2.9190 O   0  0  0  0  0  0  0  0  0  0  0  0
    2.6646   -1.3561   -2.1766 C   0  0  0  0  0  0  0  0  0  0  0  0
    3.1180   -2.4701   -2.5871 O   0  5  0  0  0  0  0  0  0  0  0  0
    3.3058   -0.3426   -1.7823 O   0  0  0  0  0  0  0  0  0  0  0  0
    0.5860    0.2239    1.0488 H   0  0  0  0  0  0  0  0  0  0  0  0
    0.7594    1.0135   -0.5280 H   0  0  0  0  0  0  0  0  0  0  0  0
    2.1101    0.1436    0.1968 H   0  0  0  0  0  0  0  0  0  0  0  0
    0.6669   -2.3256    1.2278 H   0  0  0  0  0  0  0  0  0  0  0  0
    0.6890   -3.3246   -0.2319 H   0  0  0  0  0  0  0  0  0  0  0  0
    2.1330   -2.4230    0.2520 H   0  0  0  0  0  0  0  0  0  0  0  0
   -1.3727   -2.1302   -1.0627 H   0  0  0  0  0  0  0  0  0  0  0  0
   -1.3845   -1.1375    0.3964 H   0  0  0  0  0  0  0  0  0  0  0  0
   -1.1962    0.7001   -1.0284 H   0  0  0  0  0  0  0  0  0  0  0  0
    0.7105   -2.2161   -2.5360 H   0  0  0  0  0  0  0  0  0  0  0  0
   -0.3843   -0.2291   -2.8029 H   0  0  0  0  0  0  0  0  0  0  0  0
  1  2  1  0  0  0  0
  1 11  1  0  0  0  0
  1 12  1  0  0  0  0
  1 13  1  0  0  0  0
  2  3  1  0  0  0  0
  2  4  1  0  0  0  0
  2  6  1  0  0  0  0
  3 14  1  0  0  0  0
  3 15  1  0  0  0  0
  3 16  1  0  0  0  0
  4  5  1  0  0  0  0
  4 17  1  0  0  0  0
  4 18  1  0  0  0  0
  5 19  1  0  0  0  0
  6  7  1  0  0  0  0
  6  8  1  0  0  0  0
  6 20  1  6  0  0  0
  7 21  1  0  0  0  0
  8  9  1  0  0  0  0
  8 10  2  0  0  0  0
M  CHG  1   9  -1
M  END
>  <DRUGBANK_ID>
DB01930

>  <SECONDARY_ACCESSION_NUMBERS>
EXPT02489

>  <COMMON_NAME>
2,4-Dihydroxy-3,3-Dimethyl-Butyrate

>  <CAS_NUMBER>
470-29-1

$$$$
