CII
 OpenBabel10282417163D

 47 48  0  0  0  0  0  0  0  0999 V2000
    0.9376    0.0086   -0.0376 O   0  0  0  0  0  0  0  0  0  0  0  0
    2.1483    0.0838    0.0411 C   0  0  0  0  0  0  0  0  0  0  0  0
    2.9890   -0.8850    0.8979 C   0  0  0  0  0  0  0  0  0  0  0  0
    2.5474   -2.3221    0.5804 C   0  0  0  0  0  0  0  0  0  0  0  0
    3.1410   -3.3586    1.5293 C   0  0  0  0  0  0  0  0  0  0  0  0
    2.8426   -3.0094    2.9814 C   0  0  0  0  0  0  0  0  0  0  0  0
    3.3614   -1.6167    3.3200 C   0  0  0  0  0  0  0  0  0  0  0  0
    2.7888   -0.5542    2.3813 C   0  0  0  0  0  0  0  0  0  0  0  0
    2.8902    1.0542   -0.5965 N   0  0  0  0  0  0  0  0  0  0  0  0
    2.3752    1.9726   -1.6215 C   0  0  1  0  0  0  0  0  0  0  0  0
    2.5380    3.4668   -1.1904 C   0  0  0  0  0  0  0  0  0  0  0  0
    3.9575    3.9720   -1.2113 C   0  0  0  0  0  0  0  0  0  0  0  0
    1.7759    4.4240   -2.0990 C   0  0  0  0  0  0  0  0  0  0  0  0
    2.9046    1.6453   -3.0760 C   0  0  0  0  0  0  0  0  0  0  0  0
    2.0749    1.4905   -3.9867 O   0  0  0  0  0  0  0  0  0  0  0  0
    4.2371    1.6918   -3.4715 N   0  0  0  0  0  0  0  0  0  0  0  0
    5.4120    1.9252   -2.7151 C   0  0  0  0  0  0  0  0  0  0  0  0
    5.6490    1.2299   -1.5402 C   0  0  0  0  0  0  0  0  0  0  0  0
    6.4803    1.8018   -0.5865 C   0  0  0  0  0  0  0  0  0  0  0  0
    7.1974    2.9222   -0.7992 N   0  0  0  0  0  0  0  0  0  0  0  0
    7.1076    3.4718   -2.0311 C   0  0  0  0  0  0  0  0  0  0  0  0
    6.2517    3.0040   -3.0291 C   0  0  0  0  0  0  0  0  0  0  0  0
    1.2891    1.7938   -1.6661 H   0  0  0  0  0  0  0  0  0  0  0  0
    4.0563   -0.7888    0.6535 H   0  0  0  0  0  0  0  0  0  0  0  0
    1.4543   -2.3900    0.6388 H   0  0  0  0  0  0  0  0  0  0  0  0
    2.8178   -2.5734   -0.4525 H   0  0  0  0  0  0  0  0  0  0  0  0
    2.7235   -4.3451    1.2966 H   0  0  0  0  0  0  0  0  0  0  0  0
    4.2256   -3.4254    1.3809 H   0  0  0  0  0  0  0  0  0  0  0  0
    1.7600   -3.0518    3.1558 H   0  0  0  0  0  0  0  0  0  0  0  0
    3.3012   -3.7516    3.6447 H   0  0  0  0  0  0  0  0  0  0  0  0
    3.0936   -1.3709    4.3541 H   0  0  0  0  0  0  0  0  0  0  0  0
    4.4568   -1.6127    3.2638 H   0  0  0  0  0  0  0  0  0  0  0  0
    3.2420    0.4174    2.6112 H   0  0  0  0  0  0  0  0  0  0  0  0
    1.7159   -0.4521    2.5850 H   0  0  0  0  0  0  0  0  0  0  0  0
    3.7755    1.2826   -0.1873 H   0  0  0  0  0  0  0  0  0  0  0  0
    2.1860    3.5729   -0.1569 H   0  0  0  0  0  0  0  0  0  0  0  0
    4.2662    4.0084   -2.2536 H   0  0  0  0  0  0  0  0  0  0  0  0
    4.1176    4.9899   -0.8568 H   0  0  0  0  0  0  0  0  0  0  0  0
    4.5620    3.3364   -0.5790 H   0  0  0  0  0  0  0  0  0  0  0  0
    0.7003    4.2828   -2.0084 H   0  0  0  0  0  0  0  0  0  0  0  0
    2.0186    5.4608   -1.8334 H   0  0  0  0  0  0  0  0  0  0  0  0
    2.0707    4.2897   -3.1462 H   0  0  0  0  0  0  0  0  0  0  0  0
    4.2920    1.8384   -4.4755 H   0  0  0  0  0  0  0  0  0  0  0  0
    5.1070    0.3201   -1.3243 H   0  0  0  0  0  0  0  0  0  0  0  0
    6.4934    1.4298    0.4356 H   0  0  0  0  0  0  0  0  0  0  0  0
    7.6893    4.3827   -2.1590 H   0  0  0  0  0  0  0  0  0  0  0  0
    6.1115    3.6152   -3.9157 H   0  0  0  0  0  0  0  0  0  0  0  0
  1  2  2  0  0  0  0
  2  3  1  0  0  0  0
  2  9  1  0  0  0  0
  3  4  1  0  0  0  0
  3  8  1  0  0  0  0
  3 24  1  0  0  0  0
  4  5  1  0  0  0  0
  4 25  1  0  0  0  0
  4 26  1  0  0  0  0
  5  6  1  0  0  0  0
  5 27  1  0  0  0  0
  5 28  1  0  0  0  0
  6  7  1  0  0  0  0
  6 29  1  0  0  0  0
  6 30  1  0  0  0  0
  7  8  1  0  0  0  0
  7 31  1  0  0  0  0
  7 32  1  0  0  0  0
  8 33  1  0  0  0  0
  8 34  1  0  0  0  0
  9 35  1  0  0  0  0
 10  9  1  0  0  0  0
 10 11  1  0  0  0  0
 10 14  1  0  0  0  0
 10 23  1  6  0  0  0
 11 12  1  0  0  0  0
 11 13  1  0  0  0  0
 11 36  1  0  0  0  0
 12 37  1  0  0  0  0
 12 38  1  0  0  0  0
 12 39  1  0  0  0  0
 13 40  1  0  0  0  0
 13 41  1  0  0  0  0
 13 42  1  0  0  0  0
 14 15  2  0  0  0  0
 14 16  1  0  0  0  0
 16 17  1  0  0  0  0
 16 43  1  0  0  0  0
 17 18  2  0  0  0  0
 17 22  1  0  0  0  0
 18 19  1  0  0  0  0
 18 44  1  0  0  0  0
 19 20  2  0  0  0  0
 19 45  1  0  0  0  0
 20 21  1  0  0  0  0
 21 22  2  0  0  0  0
 21 46  1  0  0  0  0
 22 47  1  0  0  0  0
M  END
>  <DRUGBANK_ID>
DB07560

>  <COMMON_NAME>
N-[(1S)-2-methyl-1-(pyridin-4-ylcarbamoyl)propyl]cyclohexanecarboxamide

$$$$
