
 OpenBabel10282417213D

 70 73  0  0  0  0  0  0  0  0999 V2000
   -3.2574    0.3015   -1.6144 C   0  0  0  0  0  0  0  0  0  0  0  0
   -2.0667   -0.8775   -1.2307 C   0  0  0  0  0  0  0  0  0  0  0  0
   -2.2472   -1.9901   -0.0432 C   0  0  0  0  0  0  0  0  0  0  0  0
   -1.5895   -3.1979    0.5200 C   0  0  0  0  0  0  0  0  0  0  0  0
   -2.6837   -2.3779    2.4321 C   0  0  0  0  0  0  0  0  0  0  0  0
   -3.7567   -1.5279    1.8744 C   0  0  0  0  0  0  0  0  0  0  0  0
   -7.3469    0.0191   -0.2125 C   0  0  0  0  0  0  0  0  0  0  0  0
   -6.7467    3.0462   -1.2917 C   0  0  0  0  0  0  0  0  0  0  0  0
   -5.6250    2.1161   -0.9994 C   0  0  0  0  0  0  0  0  0  0  0  0
   -4.8744   -0.6748   -0.1330 C   0  0  2  0  0  0  0  0  0  0  0  0
   -4.8208    0.1958    0.5590 H   0  0  0  0  0  0  0  0  0  0  0  0
   -5.7697    0.8459   -1.9115 C   0  0  1  0  0  0  0  0  0  0  0  0
   -5.5847    0.9961   -2.9817 H   0  0  0  0  0  0  0  0  0  0  0  0
   -4.7243   -0.1623   -1.5142 C   0  0  2  0  0  0  0  0  0  0  0  0
   -4.9190   -0.9121   -2.2721 H   0  0  0  0  0  0  0  0  0  0  0  0
   -7.2811    0.6601   -1.9469 C   0  0  1  0  0  0  0  0  0  0  0  0
   -7.1570    2.4429   -2.6926 C   0  0  1  0  0  0  0  0  0  0  0  0
   -2.7883   -3.5395    1.4186 C   0  0  0  0  0  0  0  0  0  0  0  0
   -3.5634   -4.3375    1.1634 O   0  0  0  0  0  0  0  0  0  0  0  0
   -6.3466   -1.2384    0.0132 C   0  0  1  0  0  0  0  0  0  0  0  0
   -7.0410   -2.4202    0.4628 O   0  0  0  0  0  0  0  0  0  0  0  0
   -7.6910    3.6032   -3.4051 C   0  0  0  0  0  0  0  0  0  0  0  0
   -7.2794    4.6561   -2.6919 O   0  0  0  0  0  0  0  0  0  0  0  0
   -8.5451    3.6608   -5.2753 C   0  0  0  0  0  0  0  0  0  0  0  0
   -6.5280    3.4272   -4.1416 O   0  0  0  0  0  0  0  0  0  0  0  0
   -8.0732   -0.7224   -2.4108 C   0  0  0  0  0  0  0  0  0  0  0  0
   -3.7625   -1.6941    0.2665 C   0  0  2  0  0  0  0  0  0  0  0  0
   -4.1084   -2.8114   -0.8051 C   0  0  0  0  0  0  0  0  0  0  0  0
   -7.0668    5.0918   -4.6637 C   0  0  0  0  0  0  0  0  0  0  0  0
   -6.5887    5.6503   -5.5924 O   0  0  0  0  0  0  0  0  0  0  0  0
   -8.9064    5.2977   -3.8807 C   0  0  0  0  0  0  0  0  0  0  0  0
  -10.1889    3.7715   -3.8883 C   0  0  0  0  0  0  0  0  0  0  0  0
   -9.7118    2.3798   -3.3516 C   0  0  0  0  0  0  0  0  0  0  0  0
   -9.7702    4.8056   -5.8181 O   0  0  0  0  0  0  0  0  0  0  0  0
   -9.7498    2.8072   -1.9341 C   0  0  0  0  0  0  0  0  0  0  0  0
   -3.2403    0.7149   -2.6369 H   0  0  0  0  0  0  0  0  0  0  0  0
   -2.9971    1.2128   -1.0462 H   0  0  0  0  0  0  0  0  0  0  0  0
   -1.9811   -1.4147   -2.1765 H   0  0  0  0  0  0  0  0  0  0  0  0
   -1.1947   -0.2718   -0.9834 H   0  0  0  0  0  0  0  0  0  0  0  0
   -1.4489   -4.1458    1.2964 H   0  0  0  0  0  0  0  0  0  0  0  0
   -2.5553   -2.6967    3.4481 H   0  0  0  0  0  0  0  0  0  0  0  0
   -1.7631   -1.7639    2.2705 H   0  0  0  0  0  0  0  0  0  0  0  0
   -4.6828   -1.8070    2.3678 H   0  0  0  0  0  0  0  0  0  0  0  0
   -3.5405   -0.4742    2.1777 H   0  0  0  0  0  0  0  0  0  0  0  0
   -8.3683   -0.3268    0.0198 H   0  0  0  0  0  0  0  0  0  0  0  0
   -7.1127    0.6905    0.6173 H   0  0  0  0  0  0  0  0  0  0  0  0
   -7.6393    3.6263   -0.9942 H   0  0  0  0  0  0  0  0  0  0  0  0
   -7.2294    2.6660   -0.3564 H   0  0  0  0  0  0  0  0  0  0  0  0
   -5.6455    1.9497    0.0897 H   0  0  0  0  0  0  0  0  0  0  0  0
   -4.6514    2.5270   -1.1716 H   0  0  0  0  0  0  0  0  0  0  0  0
   -5.9144   -1.4468    0.9689 H   0  0  0  0  0  0  0  0  0  0  0  0
   -7.9825   -2.2422    0.6500 H   0  0  0  0  0  0  0  0  0  0  0  0
   -7.9661    3.9121   -6.1693 H   0  0  0  0  0  0  0  0  0  0  0  0
   -8.9361    2.6978   -5.5712 H   0  0  0  0  0  0  0  0  0  0  0  0
   -7.6608   -1.6405   -1.9153 H   0  0  0  0  0  0  0  0  0  0  0  0
   -9.0996   -0.7865   -1.9632 H   0  0  0  0  0  0  0  0  0  0  0  0
   -8.1372   -1.0406   -3.4469 H   0  0  0  0  0  0  0  0  0  0  0  0
   -4.3128   -2.4344   -1.8086 H   0  0  0  0  0  0  0  0  0  0  0  0
   -3.2772   -3.4439   -1.1607 H   0  0  0  0  0  0  0  0  0  0  0  0
   -4.9449   -3.4016   -0.4941 H   0  0  0  0  0  0  0  0  0  0  0  0
   -8.8890    5.7015   -2.8554 H   0  0  0  0  0  0  0  0  0  0  0  0
   -9.1714    6.2250   -4.4219 H   0  0  0  0  0  0  0  0  0  0  0  0
  -11.2035    4.0103   -3.5669 H   0  0  0  0  0  0  0  0  0  0  0  0
  -10.5489    3.3513   -4.8816 H   0  0  0  0  0  0  0  0  0  0  0  0
  -10.2063    1.4402   -3.6012 H   0  0  0  0  0  0  0  0  0  0  0  0
   -8.7781    2.0100   -3.8188 H   0  0  0  0  0  0  0  0  0  0  0  0
  -10.4076    5.1993   -5.1176 H   0  0  0  0  0  0  0  0  0  0  0  0
  -10.7746    3.0225   -1.6878 H   0  0  0  0  0  0  0  0  0  0  0  0
   -9.2845    2.0835   -1.2928 H   0  0  0  0  0  0  0  0  0  0  0  0
   -9.2860    3.7985   -1.8223 H   0  0  0  0  0  0  0  0  0  0  0  0
  1  2  1  0  0  0  0
  1 36  1  0  0  0  0
  1 37  1  0  0  0  0
  2  3  1  0  0  0  0
  2 38  1  0  0  0  0
  2 39  1  0  0  0  0
  3  4  2  0  0  0  0
  3 27  1  0  0  0  0
  4 18  1  0  0  0  0
  4 40  1  0  0  0  0
  5  6  1  0  0  0  0
  5 41  1  0  0  0  0
  5 42  1  0  0  0  0
  6 27  1  0  0  0  0
  6 43  1  0  0  0  0
  6 44  1  0  0  0  0
  7 16  1  0  0  0  0
  7 45  1  0  0  0  0
  7 46  1  0  0  0  0
  8  9  1  0  0  0  0
  8 47  1  0  0  0  0
  8 48  1  0  0  0  0
  9 12  1  0  0  0  0
  9 49  1  0  0  0  0
  9 50  1  0  0  0  0
 10 20  1  0  0  0  0
 10 11  1  6  0  0  0
 12 13  1  6  0  0  0
 14  1  1  0  0  0  0
 14 10  1  0  0  0  0
 14 12  1  0  0  0  0
 14 15  1  1  0  0  0
 16 17  1  0  0  0  0
 16 12  1  0  0  0  0
 16 26  1  1  0  0  0
 17  8  1  0  0  0  0
 17 22  1  6  0  0  0
 17 25  1  0  0  0  0
 18  5  1  0  0  0  0
 18 19  2  0  0  0  0
 20  7  1  0  0  0  0
 20 21  1  0  0  0  0
 20 51  1  6  0  0  0
 21 52  1  0  0  0  0
 22 24  1  0  0  0  0
 22 23  2  0  0  0  0
 24 34  1  0  0  0  0
 24 53  1  0  0  0  0
 24 54  1  0  0  0  0
 25 29  1  0  0  0  0
 26 55  1  0  0  0  0
 26 56  1  0  0  0  0
 26 57  1  0  0  0  0
 27 10  1  0  0  0  0
 27 28  1  1  0  0  0
 28 58  1  0  0  0  0
 28 59  1  0  0  0  0
 28 60  1  0  0  0  0
 29 30  2  0  0  0  0
 29 31  1  0  0  0  0
 31 32  1  0  0  0  0
 31 61  1  0  0  0  0
 31 62  1  0  0  0  0
 32 33  1  0  0  0  0
 32 63  1  0  0  0  0
 32 64  1  0  0  0  0
 33 35  1  0  0  0  0
 33 65  1  0  0  0  0
 33 66  1  0  0  0  0
 34 67  1  0  0  0  0
 35 68  1  0  0  0  0
 35 69  1  0  0  0  0
 35 70  1  0  0  0  0
M  END
>  <DRUGBANK_ID>
DB14544

>  <SECONDARY_ACCESSION_NUMBERS>
DBSALT000782

>  <COMMON_NAME>
Hydrocortisone valerate

>  <CAS_NUMBER>
57524-89-7

>  <UNII>
68717P8FUZ

>  <SYNONYMS>
Cortisol 17-valerate; Hydrocortisone 17-valerate; Hydrocortisone valerate

$$$$
