
 OpenBabel10282417123D

 28 27  0  0  1  0  0  0  0  0999 V2000
    1.1867    0.3038   -0.0242 C   0  0  0  0  0  0  0  0  0  0  0  0
    1.1474   -0.2434   -2.6075 C   0  0  0  0  0  0  0  0  0  0  0  0
   -2.3069   -3.3218   -1.9922 C   0  0  0  0  0  0  0  0  0  0  0  0
    0.5720    0.5772   -1.4268 C   0  0  0  0  0  0  0  0  0  0  0  0
   -3.3769   -2.5934   -2.8624 C   0  0  1  0  0  0  0  0  0  0  0  0
   -2.9953   -1.1709   -3.3927 C   0  0  0  0  0  0  0  0  0  0  0  0
   -3.5947   -3.4260   -4.0657 N   0  0  0  0  0  0  0  0  0  0  0  0
   -2.3787   -0.9370   -4.4096 O   0  0  0  0  0  0  0  0  0  0  0  0
   -3.2595   -0.1882   -2.5033 O   0  0  0  0  0  0  0  0  0  0  0  0
   -0.0217   -1.8080   -0.7729 O   0  0  0  0  0  0  0  0  0  0  0  0
   -2.0320   -0.6103    0.2444 O   0  0  0  0  0  0  0  0  0  0  0  0
   -2.0279   -2.6905   -0.7370 O   0  0  0  0  0  0  0  0  0  0  0  0
   -0.8746    0.4982   -1.4254 O   0  0  0  0  0  0  0  0  0  0  0  0
   -1.4512   -1.0962   -1.0812 P   0  0  3  0  0  0  0  0  0  0  0  0
   -4.3043   -2.5058   -2.2883 H   0  0  0  0  0  0  0  0  0  0  0  0
    0.9358   -0.6307    0.4856 H   0  0  0  0  0  0  0  0  0  0  0  0
    0.8100    1.0416    0.6886 H   0  0  0  0  0  0  0  0  0  0  0  0
    2.2777    0.3137   -0.0573 H   0  0  0  0  0  0  0  0  0  0  0  0
    0.7820   -1.2675   -2.7105 H   0  0  0  0  0  0  0  0  0  0  0  0
    0.8257    0.1997   -3.5551 H   0  0  0  0  0  0  0  0  0  0  0  0
    2.2374   -0.3001   -2.5733 H   0  0  0  0  0  0  0  0  0  0  0  0
   -1.3572   -3.4247   -2.5347 H   0  0  0  0  0  0  0  0  0  0  0  0
   -2.6410   -4.3387   -1.7547 H   0  0  0  0  0  0  0  0  0  0  0  0
    0.8183    1.6195   -1.6460 H   0  0  0  0  0  0  0  0  0  0  0  0
   -4.2571   -2.9315   -4.6677 H   0  0  0  0  0  0  0  0  0  0  0  0
   -2.7273   -3.4255   -4.6132 H   0  0  0  0  0  0  0  0  0  0  0  0
   -2.6715    0.5971   -2.6584 H   0  0  0  0  0  0  0  0  0  0  0  0
    0.2915   -2.4930   -1.3828 H   0  0  0  0  0  0  0  0  0  0  0  0
  1 16  1  0  0  0  0
  1 17  1  0  0  0  0
  1 18  1  0  0  0  0
  2 19  1  0  0  0  0
  2 20  1  0  0  0  0
  2 21  1  0  0  0  0
  3 22  1  0  0  0  0
  3 23  1  0  0  0  0
  4  1  1  0  0  0  0
  4  2  1  0  0  0  0
  4 24  1  0  0  0  0
  5  3  1  0  0  0  0
  5  7  1  0  0  0  0
  5 15  1  1  0  0  0
  6  5  1  0  0  0  0
  7 25  1  0  0  0  0
  7 26  1  0  0  0  0
  8  6  2  0  0  0  0
  9  6  1  0  0  0  0
  9 27  1  0  0  0  0
 10 28  1  0  0  0  0
 12  3  1  0  0  0  0
 13  4  1  0  0  0  0
 14 10  1  0  0  0  0
 14 11  2  0  0  0  0
 14 12  1  0  0  0  0
 14 13  1  0  0  0  0
M  END
>  <DRUGBANK_ID>
DB01805

>  <SECONDARY_ACCESSION_NUMBERS>
EXPT02178

>  <COMMON_NAME>
Monoisopropylphosphorylserine

$$$$
