
 OpenBabel10282417163D

 30 31  0  0  0  0  0  0  0  0999 V2000
    1.0542    0.3717    0.3638 C   0  0  0  0  0  0  0  0  0  0  0  0
    0.4783    1.3975   -0.6057 C   0  0  0  0  0  0  0  0  0  0  0  0
    0.9493    1.3577   -2.0521 C   0  0  0  0  0  0  0  0  0  0  0  0
    1.0906    2.5880   -2.6064 N   0  0  0  0  0  0  0  0  0  0  0  0
    1.5348    2.6648   -3.8656 C   0  0  0  0  0  0  0  0  0  0  0  0
    1.6718    3.8999   -4.4199 N   0  0  0  0  0  0  0  0  0  0  0  0
    1.8524    1.6069   -4.6179 N   0  0  0  0  0  0  0  0  0  0  0  0
    1.6899    0.3921   -4.0738 C   0  0  0  0  0  0  0  0  0  0  0  0
    2.1811   -0.6715   -4.8302 N   0  0  0  0  0  0  0  0  0  0  0  0
    1.2104    0.1848   -2.7757 C   0  0  0  0  0  0  0  0  0  0  0  0
    1.0636   -1.1681   -2.2083 C   0  0  0  0  0  0  0  0  0  0  0  0
    2.2112   -1.9417   -1.9472 C   0  0  0  0  0  0  0  0  0  0  0  0
    2.1425   -3.0788   -1.1427 C   0  0  0  0  0  0  0  0  0  0  0  0
    0.9307   -3.4432   -0.5618 C   0  0  0  0  0  0  0  0  0  0  0  0
   -0.2263   -2.7180   -0.8488 C   0  0  0  0  0  0  0  0  0  0  0  0
   -0.1774   -1.6277   -1.7269 C   0  0  0  0  0  0  0  0  0  0  0  0
    0.6625   -0.6171    0.1875 H   0  0  0  0  0  0  0  0  0  0  0  0
    0.7471    0.5618    1.3934 H   0  0  0  0  0  0  0  0  0  0  0  0
    2.1431    0.3082    0.2959 H   0  0  0  0  0  0  0  0  0  0  0  0
   -0.6173    1.3419   -0.6021 H   0  0  0  0  0  0  0  0  0  0  0  0
    0.7383    2.3805   -0.1911 H   0  0  0  0  0  0  0  0  0  0  0  0
    2.1081    3.9563   -5.3252 H   0  0  0  0  0  0  0  0  0  0  0  0
    1.4984    4.7054   -3.8418 H   0  0  0  0  0  0  0  0  0  0  0  0
    2.3606   -0.4255   -5.7956 H   0  0  0  0  0  0  0  0  0  0  0  0
    1.7952   -1.5876   -4.6472 H   0  0  0  0  0  0  0  0  0  0  0  0
    3.1853   -1.6070   -2.3034 H   0  0  0  0  0  0  0  0  0  0  0  0
    3.0502   -3.6281   -0.9066 H   0  0  0  0  0  0  0  0  0  0  0  0
    0.8982   -4.2607    0.1540 H   0  0  0  0  0  0  0  0  0  0  0  0
   -1.1397   -2.9209   -0.2935 H   0  0  0  0  0  0  0  0  0  0  0  0
   -1.0767   -1.0306   -1.8732 H   0  0  0  0  0  0  0  0  0  0  0  0
  1  2  1  0  0  0  0
  1 17  1  0  0  0  0
  1 18  1  0  0  0  0
  1 19  1  0  0  0  0
  2  3  1  0  0  0  0
  2 20  1  0  0  0  0
  2 21  1  0  0  0  0
  3  4  1  0  0  0  0
  4  5  2  0  0  0  0
  5  6  1  0  0  0  0
  5  7  1  0  0  0  0
  6 22  1  0  0  0  0
  6 23  1  0  0  0  0
  7  8  2  0  0  0  0
  8  9  1  0  0  0  0
  8 10  1  0  0  0  0
  9 24  1  0  0  0  0
  9 25  1  0  0  0  0
 10  3  2  0  0  0  0
 10 11  1  0  0  0  0
 11 12  1  0  0  0  0
 12 13  2  0  0  0  0
 12 26  1  0  0  0  0
 13 14  1  0  0  0  0
 13 27  1  0  0  0  0
 14 15  2  0  0  0  0
 14 28  1  0  0  0  0
 15 16  1  0  0  0  0
 15 29  1  0  0  0  0
 16 11  2  0  0  0  0
 16 30  1  0  0  0  0
M  END
>  <DRUGBANK_ID>
DB07577

>  <COMMON_NAME>
2,4-Diamino-5-phenyl-6-ethylpyrimidine

>  <CAS_NUMBER>
27653-49-2

>  <UNII>
KMJ59LN22F

>  <SYNONYMS>
2,4-Diamino-6-ethyl-5-phenylpyrimidine

$$$$
