
 OpenBabel10282417153D

 51 53  0  0  0  0  0  0  0  0999 V2000
    0.7266   -0.1289   -0.1088 C   0  0  0  0  0  0  0  0  0  0  0  0
    0.3398   -0.3164    1.3507 C   0  0  0  0  0  0  0  0  0  0  0  0
    2.9350   -1.6094    1.5465 C   0  0  0  0  0  0  0  0  0  0  0  0
    4.6811   -0.1833    2.3648 C   0  0  0  0  0  0  0  0  0  0  0  0
    3.6595    0.6120    0.2984 C   0  0  0  0  0  0  0  0  0  0  0  0
    3.8385   -2.4352    0.6462 C   0  0  0  0  0  0  0  0  0  0  0  0
    5.5908   -1.0357    1.5038 C   0  0  0  0  0  0  0  0  0  0  0  0
    4.4404   -0.3343   -0.6112 C   0  0  0  0  0  0  0  0  0  0  0  0
   10.9088   -2.9819    0.9796 C   0  0  0  0  0  0  0  0  0  0  0  0
   10.6377   -0.7823    2.0607 C   0  0  0  0  0  0  0  0  0  0  0  0
    7.1219   -1.5368   -1.0811 C   0  0  0  0  0  0  0  0  0  0  0  0
   10.2623   -1.5467   -0.8756 C   0  0  0  0  0  0  0  0  0  0  0  0
   11.3606   -2.4797   -0.4039 C   0  0  1  0  0  0  0  0  0  0  0  0
    9.9193   -1.9134    1.4353 C   0  0  1  0  0  0  0  0  0  0  0  0
    8.1206   -0.9763   -0.0037 C   0  0  0  0  0  0  0  0  0  0  0  0
    2.3490    0.7334    2.4630 C   0  0  0  0  0  0  0  0  0  0  0  0
    3.3243   -0.1037    1.6465 C   0  0  3  0  0  0  0  0  0  0  0  0
    4.9893   -1.5443    0.1956 C   0  0  3  0  0  0  0  0  0  0  0  0
   12.5140   -1.7832   -0.2651 F   0  0  0  0  0  0  0  0  0  0  0  0
   11.2837    0.0307    2.6106 N   0  0  0  0  0  0  0  0  0  0  0  0
    5.9563   -2.3118   -0.5839 N   0  0  0  0  0  0  0  0  0  0  0  0
    9.2581   -1.7028    0.1453 N   0  0  0  0  0  0  0  0  0  0  0  0
    8.0177    0.0483    0.6599 O   0  0  0  0  0  0  0  0  0  0  0  0
    2.7516    1.5579    3.2835 O   0  0  0  0  0  0  0  0  0  0  0  0
    1.0167    0.6096    2.2380 O   0  0  0  0  0  0  0  0  0  0  0  0
   11.5158   -3.2918   -1.1154 H   0  0  0  0  0  0  0  0  0  0  0  0
    9.1870   -2.2998    2.1560 H   0  0  0  0  0  0  0  0  0  0  0  0
    0.6624    0.9267   -0.3891 H   0  0  0  0  0  0  0  0  0  0  0  0
    0.1923   -0.7638   -0.8112 H   0  0  0  0  0  0  0  0  0  0  0  0
    1.7410   -0.4462   -0.2990 H   0  0  0  0  0  0  0  0  0  0  0  0
   -0.7314   -0.1425    1.4417 H   0  0  0  0  0  0  0  0  0  0  0  0
    0.4459   -1.3296    1.7501 H   0  0  0  0  0  0  0  0  0  0  0  0
    1.9961   -1.8095    1.0772 H   0  0  0  0  0  0  0  0  0  0  0  0
    2.8382   -2.0334    2.5553 H   0  0  0  0  0  0  0  0  0  0  0  0
    4.6296   -0.5839    3.3803 H   0  0  0  0  0  0  0  0  0  0  0  0
    5.1468    0.8117    2.4591 H   0  0  0  0  0  0  0  0  0  0  0  0
    2.8287    1.0514   -0.2559 H   0  0  0  0  0  0  0  0  0  0  0  0
    4.2486    1.5242    0.4795 H   0  0  0  0  0  0  0  0  0  0  0  0
    4.1688   -3.3198    1.2050 H   0  0  0  0  0  0  0  0  0  0  0  0
    3.2516   -2.8084   -0.2067 H   0  0  0  0  0  0  0  0  0  0  0  0
    6.1119   -1.8203    2.0616 H   0  0  0  0  0  0  0  0  0  0  0  0
    6.2509   -0.2720    1.1909 H   0  0  0  0  0  0  0  0  0  0  0  0
    5.2426    0.2733   -1.0373 H   0  0  0  0  0  0  0  0  0  0  0  0
    3.8314   -0.6737   -1.4611 H   0  0  0  0  0  0  0  0  0  0  0  0
   10.3625   -3.9256    0.8508 H   0  0  0  0  0  0  0  0  0  0  0  0
   11.7409   -3.1402    1.6680 H   0  0  0  0  0  0  0  0  0  0  0  0
    7.6570   -2.2231   -1.7445 H   0  0  0  0  0  0  0  0  0  0  0  0
    6.8029   -0.7230   -1.7337 H   0  0  0  0  0  0  0  0  0  0  0  0
   10.5910   -0.4965   -0.9145 H   0  0  0  0  0  0  0  0  0  0  0  0
    9.8376   -1.7985   -1.8492 H   0  0  0  0  0  0  0  0  0  0  0  0
    6.2447   -3.1516   -0.0854 H   0  0  0  0  0  0  0  0  0  0  0  0
  1 28  1  0  0  0  0
  1 29  1  0  0  0  0
  1 30  1  0  0  0  0
  2  1  1  0  0  0  0
  2 31  1  0  0  0  0
  2 32  1  0  0  0  0
  3 33  1  0  0  0  0
  3 34  1  0  0  0  0
  4 35  1  0  0  0  0
  4 36  1  0  0  0  0
  5 37  1  0  0  0  0
  5 38  1  0  0  0  0
  6  3  1  0  0  0  0
  6 39  1  0  0  0  0
  6 40  1  0  0  0  0
  7  4  1  0  0  0  0
  7 41  1  0  0  0  0
  7 42  1  0  0  0  0
  8  5  1  0  0  0  0
  8 43  1  0  0  0  0
  8 44  1  0  0  0  0
  9 45  1  0  0  0  0
  9 46  1  0  0  0  0
 11 47  1  0  0  0  0
 11 48  1  0  0  0  0
 12 49  1  0  0  0  0
 12 50  1  0  0  0  0
 13  9  1  0  0  0  0
 13 12  1  0  0  0  0
 13 19  1  0  0  0  0
 13 26  1  6  0  0  0
 14  9  1  0  0  0  0
 14 22  1  0  0  0  0
 14 27  1  1  0  0  0
 14 10  1  0  0  0  0
 15 11  1  0  0  0  0
 17  3  1  0  0  0  0
 17  4  1  0  0  0  0
 17  5  1  0  0  0  0
 17 16  1  0  0  0  0
 18  6  1  0  0  0  0
 18  7  1  0  0  0  0
 18  8  1  0  0  0  0
 20 10  3  0  0  0  0
 21 11  1  0  0  0  0
 21 18  1  0  0  0  0
 21 51  1  0  0  0  0
 22 12  1  0  0  0  0
 22 15  1  0  0  0  0
 23 15  2  0  0  0  0
 24 16  2  0  0  0  0
 25  2  1  0  0  0  0
 25 16  1  0  0  0  0
M  END
>  <DRUGBANK_ID>
DB06127

>  <COMMON_NAME>
Bisegliptin

>  <CAS_NUMBER>
862501-61-9

>  <UNII>
9U5KQ79OK6

>  <SYNONYMS>
Bisegliptin

$$$$
