
 OpenBabel10282417223D

 35 37  0  0  1  0  0  0  0  0999 V2000
    1.1340    0.0773    0.0324 O   0  0  0  0  0  0  0  0  0  0  0  0
    0.6352   -1.2430   -0.1690 C   0  0  2  0  0  0  0  0  0  0  0  0
   -0.5353   -1.5587    0.7525 C   0  0  2  0  0  0  0  0  0  0  0  0
   -1.0859   -2.8707    0.4580 O   0  0  0  0  0  0  0  0  0  0  0  0
   -0.1674   -3.8860    0.3725 C   0  0  0  0  0  0  0  0  0  0  0  0
    1.2106   -3.6666    0.2521 C   0  0  0  0  0  0  0  0  0  0  0  0
    2.0817   -4.7549    0.1625 C   0  0  0  0  0  0  0  0  0  0  0  0
    3.4195   -4.5396    0.0078 O   0  0  0  0  0  0  0  0  0  0  0  0
    1.5853   -6.0574    0.1939 C   0  0  0  0  0  0  0  0  0  0  0  0
    0.2124   -6.2693    0.3023 C   0  0  0  0  0  0  0  0  0  0  0  0
   -0.2123   -7.5666    0.3219 O   0  0  0  0  0  0  0  0  0  0  0  0
   -0.6732   -5.1951    0.3839 C   0  0  0  0  0  0  0  0  0  0  0  0
    1.6883   -2.2671    0.1833 C   0  0  0  0  0  0  0  0  0  0  0  0
    2.8536   -1.9231    0.3832 O   0  0  0  0  0  0  0  0  0  0  0  0
   -1.7116   -0.6076    0.6288 C   0  0  0  0  0  0  0  0  0  0  0  0
   -2.2445   -0.2466   -0.6237 C   0  0  0  0  0  0  0  0  0  0  0  0
   -3.5440    0.2464   -0.6955 C   0  0  0  0  0  0  0  0  0  0  0  0
   -4.1530    0.4768   -1.8989 O   0  0  0  0  0  0  0  0  0  0  0  0
   -4.2837    0.4365    0.4685 C   0  0  0  0  0  0  0  0  0  0  0  0
   -5.6026    0.7985    0.4163 O   0  0  0  0  0  0  0  0  0  0  0  0
   -3.7003    0.2189    1.7093 C   0  0  0  0  0  0  0  0  0  0  0  0
   -4.4110    0.3875    2.8617 O   0  0  0  0  0  0  0  0  0  0  0  0
   -2.4078   -0.2666    1.7999 C   0  0  0  0  0  0  0  0  0  0  0  0
    2.1112    0.0035    0.0186 H   0  0  0  0  0  0  0  0  0  0  0  0
    0.3939   -1.3695   -1.2300 H   0  0  0  0  0  0  0  0  0  0  0  0
   -0.2011   -1.5598    1.8010 H   0  0  0  0  0  0  0  0  0  0  0  0
    3.9116   -5.3746    0.0244 H   0  0  0  0  0  0  0  0  0  0  0  0
    2.2485   -6.9145    0.1238 H   0  0  0  0  0  0  0  0  0  0  0  0
   -1.1788   -7.6018    0.4202 H   0  0  0  0  0  0  0  0  0  0  0  0
   -1.7449   -5.3613    0.4631 H   0  0  0  0  0  0  0  0  0  0  0  0
   -1.6717   -0.4173   -1.5298 H   0  0  0  0  0  0  0  0  0  0  0  0
   -3.5121    0.2854   -2.6071 H   0  0  0  0  0  0  0  0  0  0  0  0
   -5.8027    0.8571   -0.5395 H   0  0  0  0  0  0  0  0  0  0  0  0
   -5.3127    0.6198    2.5667 H   0  0  0  0  0  0  0  0  0  0  0  0
   -1.9825   -0.4558    2.7821 H   0  0  0  0  0  0  0  0  0  0  0  0
  1 24  1  0  0  0  0
  2  1  1  0  0  0  0
  2  3  1  0  0  0  0
  2 13  1  0  0  0  0
  2 25  1  6  0  0  0
  3  4  1  0  0  0  0
  3 26  1  1  0  0  0
  3 15  1  0  0  0  0
  4  5  1  0  0  0  0
  5  6  2  0  0  0  0
  5 12  1  0  0  0  0
  6  7  1  0  0  0  0
  6 13  1  0  0  0  0
  7  8  1  0  0  0  0
  7  9  2  0  0  0  0
  8 27  1  0  0  0  0
  9 10  1  0  0  0  0
  9 28  1  0  0  0  0
 10 11  1  0  0  0  0
 10 12  2  0  0  0  0
 11 29  1  0  0  0  0
 12 30  1  0  0  0  0
 13 14  2  0  0  0  0
 15 16  2  0  0  0  0
 15 23  1  0  0  0  0
 16 17  1  0  0  0  0
 16 31  1  0  0  0  0
 17 18  1  0  0  0  0
 17 19  2  0  0  0  0
 18 32  1  0  0  0  0
 19 20  1  0  0  0  0
 19 21  1  0  0  0  0
 20 33  1  0  0  0  0
 21 22  1  0  0  0  0
 21 23  2  0  0  0  0
 22 34  1  0  0  0  0
 23 35  1  0  0  0  0
M  END
>  <DRUGBANK_ID>
DB15645

>  <COMMON_NAME>
Dihydromyricetin

>  <CAS_NUMBER>
27200-12-0

>  <UNII>
KD8QND6427

>  <SYNONYMS>
(+)-ampelopsin; (+)-dihydromyricetin; Ampelopsin; Ampeloptin; Telocapil

$$$$
