
 OpenBabel10282417123D

 54 56  0  0  1  0  0  0  0  0999 V2000
    0.9477    0.1533   -0.1297 C   0  0  0  0  0  0  0  0  0  0  0  0
    2.6843   -3.6625    1.4226 C   0  0  0  0  0  0  0  0  0  0  0  0
    0.4285   -4.3225    1.2580 C   0  0  0  0  0  0  0  0  0  0  0  0
    2.3227   -2.3098    1.1347 C   0  0  0  0  0  0  0  0  0  0  0  0
    0.0938   -2.9781    0.8683 C   0  0  0  0  0  0  0  0  0  0  0  0
    0.9730   -8.4185    4.8500 C   0  0  0  0  0  0  0  0  0  0  0  0
   -0.5308   -8.2718    5.1412 C   0  0  0  0  0  0  0  0  0  0  0  0
   -0.4267    0.1065    2.0163 C   0  0  0  0  0  0  0  0  0  0  0  0
   -3.0425    0.1468    2.4061 C   0  0  0  0  0  0  0  0  0  0  0  0
    1.7205   -4.6620    1.6350 C   0  0  0  0  0  0  0  0  0  0  0  0
   -1.8006   -0.4634    2.3426 C   0  0  0  0  0  0  0  0  0  0  0  0
    0.9849   -1.9147    1.0000 C   0  0  0  0  0  0  0  0  0  0  0  0
    1.4609   -8.1473    3.3995 C   0  0  1  0  0  0  0  0  0  0  0  0
   -1.4807   -9.2273    4.4624 C   0  0  0  0  0  0  0  0  0  0  0  0
   -2.0978   -1.7769    2.8003 C   0  0  0  0  0  0  0  0  0  0  0  0
   -1.3491   -2.8378    3.2666 C   0  0  0  0  0  0  0  0  0  0  0  0
    2.1054   -5.9465    2.3604 C   0  0  0  0  0  0  0  0  0  0  0  0
   -3.4390   -2.0202    2.6109 C   0  0  0  0  0  0  0  0  0  0  0  0
    0.9644   -9.1488    2.3302 C   0  0  0  0  0  0  0  0  0  0  0  0
   -3.1531   -4.2313    2.7315 C   0  0  0  0  0  0  0  0  0  0  0  0
   -0.0262   -2.6002    3.6725 N   0  0  0  0  0  0  0  0  0  0  0  0
   -3.5433   -5.5300    2.4716 N   0  0  0  0  0  0  0  0  0  0  0  0
    1.1398   -6.7628    2.9552 N   0  0  0  0  0  0  0  0  0  0  0  0
   -1.8670   -4.0810    3.1181 N   0  0  0  0  0  0  0  0  0  0  0  0
   -4.0392   -3.2284    2.5827 N   0  0  0  0  0  0  0  0  0  0  0  0
    0.5735   -0.5771    1.0776 N   0  0  0  0  0  0  0  0  0  0  0  0
   -1.8906  -10.2849    5.1763 O   0  0  0  0  0  0  0  0  0  0  0  0
   -1.9530   -9.0161    3.3397 O   0  0  0  0  0  0  0  0  0  0  0  0
    3.2984   -6.2300    2.4613 O   0  0  0  0  0  0  0  0  0  0  0  0
    1.7755  -10.1921    2.0590 O   0  0  0  0  0  0  0  0  0  0  0  0
   -0.0805   -9.0126    1.6953 O   0  0  0  0  0  0  0  0  0  0  0  0
   -4.0463   -0.7924    2.4843 O   0  0  0  0  0  0  0  0  0  0  0  0
    2.5541   -8.2489    3.4142 H   0  0  0  0  0  0  0  0  0  0  0  0
    0.5496    1.1725   -0.1474 H   0  0  0  0  0  0  0  0  0  0  0  0
    0.5591   -0.3696   -1.0097 H   0  0  0  0  0  0  0  0  0  0  0  0
    2.0376    0.2303   -0.2132 H   0  0  0  0  0  0  0  0  0  0  0  0
    3.7345   -3.8996    1.5783 H   0  0  0  0  0  0  0  0  0  0  0  0
   -0.3810   -5.0122    1.4864 H   0  0  0  0  0  0  0  0  0  0  0  0
    3.1102   -1.5587    1.1292 H   0  0  0  0  0  0  0  0  0  0  0  0
   -0.9496   -2.7132    0.7212 H   0  0  0  0  0  0  0  0  0  0  0  0
    1.3299   -9.3955    5.2045 H   0  0  0  0  0  0  0  0  0  0  0  0
    1.4820   -7.6793    5.4939 H   0  0  0  0  0  0  0  0  0  0  0  0
   -0.7026   -8.3334    6.2237 H   0  0  0  0  0  0  0  0  0  0  0  0
   -0.8503   -7.2620    4.8615 H   0  0  0  0  0  0  0  0  0  0  0  0
    0.0842    0.2841    2.9755 H   0  0  0  0  0  0  0  0  0  0  0  0
   -0.5934    1.1313    1.6474 H   0  0  0  0  0  0  0  0  0  0  0  0
   -3.3743    1.1773    2.3673 H   0  0  0  0  0  0  0  0  0  0  0  0
    0.2915   -1.7039    3.3105 H   0  0  0  0  0  0  0  0  0  0  0  0
    0.6087   -3.2782    3.2758 H   0  0  0  0  0  0  0  0  0  0  0  0
   -4.5007   -5.7914    2.6488 H   0  0  0  0  0  0  0  0  0  0  0  0
   -2.8393   -6.2520    2.5495 H   0  0  0  0  0  0  0  0  0  0  0  0
    0.1524   -6.5406    2.8899 H   0  0  0  0  0  0  0  0  0  0  0  0
   -1.9193  -10.1373    6.1392 H   0  0  0  0  0  0  0  0  0  0  0  0
    2.7252   -9.9786    2.1204 H   0  0  0  0  0  0  0  0  0  0  0  0
  1 34  1  0  0  0  0
  1 35  1  0  0  0  0
  1 36  1  0  0  0  0
  2 37  1  0  0  0  0
  3 38  1  0  0  0  0
  4  2  1  0  0  0  0
  4 39  1  0  0  0  0
  5  3  2  0  0  0  0
  5 40  1  0  0  0  0
  6 41  1  0  0  0  0
  6 42  1  0  0  0  0
  7  6  1  0  0  0  0
  7 43  1  0  0  0  0
  7 44  1  0  0  0  0
  8 45  1  0  0  0  0
  8 46  1  0  0  0  0
  9 47  1  0  0  0  0
 10  2  2  0  0  0  0
 10  3  1  0  0  0  0
 11  8  1  0  0  0  0
 11  9  2  0  0  0  0
 12  4  2  0  0  0  0
 12  5  1  0  0  0  0
 13  6  1  0  0  0  0
 13 23  1  0  0  0  0
 13 33  1  1  0  0  0
 14  7  1  0  0  0  0
 15 11  1  0  0  0  0
 16 15  2  0  0  0  0
 17 10  1  0  0  0  0
 18 15  1  0  0  0  0
 19 13  1  0  0  0  0
 21 16  1  0  0  0  0
 21 48  1  0  0  0  0
 21 49  1  0  0  0  0
 22 20  1  0  0  0  0
 22 50  1  0  0  0  0
 22 51  1  0  0  0  0
 23 17  1  0  0  0  0
 23 52  1  0  0  0  0
 24 16  1  0  0  0  0
 24 20  2  0  0  0  0
 25 18  2  0  0  0  0
 25 20  1  0  0  0  0
 26  1  1  0  0  0  0
 26  8  1  0  0  0  0
 26 12  1  0  0  0  0
 27 14  1  0  0  0  0
 27 53  1  0  0  0  0
 28 14  2  0  0  0  0
 29 17  2  0  0  0  0
 30 19  1  0  0  0  0
 30 54  1  0  0  0  0
 31 19  2  0  0  0  0
 32  9  1  0  0  0  0
 32 18  1  0  0  0  0
M  END
>  <DRUGBANK_ID>
DB02026

>  <SECONDARY_ACCESSION_NUMBERS>
EXPT00981

>  <COMMON_NAME>
Furo[2,3d]Pyrimidine Antifolate

>  <UNII>
VBP3BN3U2V

$$$$
