D4M
 OpenBabel10282417143D

 33 34  0  0  0  0  0  0  0  0999 V2000
   -1.1903    0.3782   -1.9732 O   0  0  0  0  0  0  0  0  0  0  0  0
   -0.0207    1.4533   -2.0436 P   0  0  0  0  0  0  0  0  0  0  0  0
    0.5838    1.2686   -0.7010 O   0  0  0  0  0  0  0  0  0  0  0  0
    0.7743    0.9461   -3.3253 O   0  0  0  0  0  0  0  0  0  0  0  0
   -0.6159    2.8936   -2.4556 O   0  0  0  0  0  0  0  0  0  0  0  0
    0.4457    3.8826   -2.5319 C   0  0  0  0  0  0  0  0  0  0  0  0
    1.0461    4.0966   -1.1212 C   0  0  1  0  0  0  0  0  0  0  0  0
    2.0459    3.0778   -0.9339 O   0  0  0  0  0  0  0  0  0  0  0  0
    1.7738    5.3509   -0.8142 C   0  0  0  0  0  0  0  0  0  0  0  0
    3.0209    5.0725   -0.4177 C   0  0  0  0  0  0  0  0  0  0  0  0
    3.2791    3.6111   -0.4727 C   0  0  2  0  0  0  0  0  0  0  0  0
    4.2911    3.2591   -1.4657 N   0  0  0  0  0  0  0  0  0  0  0  0
    4.0654    3.5269   -2.8043 C   0  0  0  0  0  0  0  0  0  0  0  0
    4.7888    2.9849   -3.7901 C   0  0  0  0  0  0  0  0  0  0  0  0
    4.4630    3.1247   -5.2381 C   0  0  0  0  0  0  0  0  0  0  0  0
    5.9631    2.1860   -3.4037 C   0  0  0  0  0  0  0  0  0  0  0  0
    6.6703    1.6231   -4.2505 O   0  0  0  0  0  0  0  0  0  0  0  0
    6.2280    2.1135   -2.0720 N   0  0  0  0  0  0  0  0  0  0  0  0
    5.3516    2.4567   -1.0680 C   0  0  0  0  0  0  0  0  0  0  0  0
    5.5466    2.0598    0.0749 O   0  0  0  0  0  0  0  0  0  0  0  0
    0.2475    3.9439   -0.3836 H   0  0  0  0  0  0  0  0  0  0  0  0
    3.4988    3.1873    0.5142 H   0  0  0  0  0  0  0  0  0  0  0  0
   -0.9055   -0.0598   -1.1280 H   0  0  0  0  0  0  0  0  0  0  0  0
    0.5302    0.0397   -3.5738 H   0  0  0  0  0  0  0  0  0  0  0  0
    1.1935    3.4709   -3.2205 H   0  0  0  0  0  0  0  0  0  0  0  0
    0.0816    4.8136   -2.9791 H   0  0  0  0  0  0  0  0  0  0  0  0
    1.3133    6.3254   -0.8200 H   0  0  0  0  0  0  0  0  0  0  0  0
    3.7492    5.7787   -0.0556 H   0  0  0  0  0  0  0  0  0  0  0  0
    3.2208    4.1604   -3.0382 H   0  0  0  0  0  0  0  0  0  0  0  0
    5.2859    3.6078   -5.7714 H   0  0  0  0  0  0  0  0  0  0  0  0
    4.2840    2.1400   -5.6844 H   0  0  0  0  0  0  0  0  0  0  0  0
    3.5579    3.7217   -5.3962 H   0  0  0  0  0  0  0  0  0  0  0  0
    7.0226    1.5583   -1.7970 H   0  0  0  0  0  0  0  0  0  0  0  0
  1  2  1  0  0  0  0
  1 23  1  0  0  0  0
  2  3  2  0  0  0  0
  2  4  1  0  0  0  0
  2  5  1  0  0  0  0
  4 24  1  0  0  0  0
  5  6  1  0  0  0  0
  6 25  1  0  0  0  0
  6 26  1  0  0  0  0
  7  8  1  0  0  0  0
  7  9  1  0  0  0  0
  7 21  1  1  0  0  0
  7  6  1  0  0  0  0
  8 11  1  0  0  0  0
  9 10  2  0  0  0  0
  9 27  1  0  0  0  0
 10 11  1  0  0  0  0
 10 28  1  0  0  0  0
 11 22  1  1  0  0  0
 11 12  1  0  0  0  0
 12 13  1  0  0  0  0
 12 19  1  0  0  0  0
 13 14  2  0  0  0  0
 13 29  1  0  0  0  0
 14 15  1  0  0  0  0
 14 16  1  0  0  0  0
 15 30  1  0  0  0  0
 15 31  1  0  0  0  0
 15 32  1  0  0  0  0
 16 17  2  0  0  0  0
 16 18  1  0  0  0  0
 18 19  1  0  0  0  0
 18 33  1  0  0  0  0
 19 20  2  0  0  0  0
M  END
>  <DRUGBANK_ID>
DB04672

>  <COMMON_NAME>
Cyclic 3',5'-thymidine monophosphate

>  <CAS_NUMBER>
6453-60-7

>  <UNII>
Q77PE87U4K

>  <SYNONYMS>
3',5'-Cyclic dTMP; cTMP; Cyclic TMP; Thymidine cyclophosphate

$$$$
