
 OpenBabel10282417233D

 39 43  0  0  0  0  0  0  0  0999 V2000
    1.0735   -0.0083   -0.0406 O   0  0  0  0  0  0  0  0  0  0  0  0
    2.2862   -0.0502   -0.0408 C   0  0  0  0  0  0  0  0  0  0  0  0
    3.0865    1.0794   -0.0402 N   0  0  0  0  0  0  0  0  0  0  0  0
    4.4643    1.1160   -0.0438 N   0  0  0  0  0  0  0  0  0  0  0  0
    5.1069   -0.0196   -0.0463 C   0  0  0  0  0  0  0  0  0  0  0  0
    6.4864   -0.1299   -0.0487 N   0  0  0  0  0  0  0  0  0  0  0  0
    7.1797   -1.3314   -0.0379 C   0  0  0  0  0  0  0  0  0  0  0  0
    8.7284   -1.4011    0.0123 C   0  0  0  0  0  0  0  0  0  0  0  0
    9.4502   -0.9493   -1.2147 N   0  0  0  0  0  0  0  0  0  0  0  0
   10.7464   -1.7167   -1.3160 C   0  0  0  0  0  0  0  0  0  0  0  0
   10.3267   -2.9999   -2.0069 C   0  0  0  0  0  0  0  0  0  0  0  0
    9.1151   -2.7863   -2.6495 C   0  0  0  0  0  0  0  0  0  0  0  0
    8.7390   -1.3619   -2.4715 C   0  0  0  0  0  0  0  0  0  0  0  0
    8.3568   -3.8161   -3.1639 C   0  0  0  0  0  0  0  0  0  0  0  0
    8.7559   -5.1163   -2.8740 C   0  0  0  0  0  0  0  0  0  0  0  0
    9.9514   -5.3528   -2.1778 C   0  0  0  0  0  0  0  0  0  0  0  0
   10.8012   -4.2938   -1.8323 C   0  0  0  0  0  0  0  0  0  0  0  0
    6.5544   -2.4824   -0.0410 N   0  0  0  0  0  0  0  0  0  0  0  0
    5.1449   -2.4780   -0.0471 C   0  0  0  0  0  0  0  0  0  0  0  0
    4.3895   -1.3046   -0.0453 C   0  0  0  0  0  0  0  0  0  0  0  0
    3.0056   -1.3308   -0.0424 C   0  0  0  0  0  0  0  0  0  0  0  0
    2.3259   -2.5504   -0.0413 C   0  0  0  0  0  0  0  0  0  0  0  0
    3.0600   -3.7373   -0.0417 C   0  0  0  0  0  0  0  0  0  0  0  0
    4.4607   -3.6967   -0.0441 C   0  0  0  0  0  0  0  0  0  0  0  0
    2.6004    1.9714   -0.0394 H   0  0  0  0  0  0  0  0  0  0  0  0
    7.0096    0.7371   -0.0611 H   0  0  0  0  0  0  0  0  0  0  0  0
    9.0738   -0.7916    0.8529 H   0  0  0  0  0  0  0  0  0  0  0  0
    8.9752   -2.4438    0.2492 H   0  0  0  0  0  0  0  0  0  0  0  0
   11.8502   -1.8079   -1.4333 H   0  0  0  0  0  0  0  0  0  0  0  0
   11.0758   -0.8146   -1.8658 H   0  0  0  0  0  0  0  0  0  0  0  0
    7.6595   -1.2139   -2.4443 H   0  0  0  0  0  0  0  0  0  0  0  0
    9.1282   -0.7858   -3.3218 H   0  0  0  0  0  0  0  0  0  0  0  0
    7.4233   -3.6115   -3.6732 H   0  0  0  0  0  0  0  0  0  0  0  0
    8.1169   -5.9472   -3.1601 H   0  0  0  0  0  0  0  0  0  0  0  0
   10.1928   -6.3682   -1.8692 H   0  0  0  0  0  0  0  0  0  0  0  0
   11.7660   -4.5045   -1.3811 H   0  0  0  0  0  0  0  0  0  0  0  0
    1.2380   -2.5782   -0.0398 H   0  0  0  0  0  0  0  0  0  0  0  0
    2.5434   -4.6946   -0.0393 H   0  0  0  0  0  0  0  0  0  0  0  0
    5.0274   -4.6247   -0.0416 H   0  0  0  0  0  0  0  0  0  0  0  0
  1  2  2  0  0  0  0
  2  3  1  0  0  0  0
  2 21  1  0  0  0  0
  3  4  1  0  0  0  0
  3 25  1  0  0  0  0
  4  5  2  0  0  0  0
  5  6  1  0  0  0  0
  5 20  1  0  0  0  0
  6  7  1  0  0  0  0
  6 26  1  0  0  0  0
  7  8  1  0  0  0  0
  7 18  2  0  0  0  0
  8  9  1  0  0  0  0
  8 27  1  0  0  0  0
  8 28  1  0  0  0  0
  9 10  1  0  0  0  0
  9 13  1  0  0  0  0
 10 11  1  0  0  0  0
 10 29  1  0  0  0  0
 10 30  1  0  0  0  0
 11 12  2  0  0  0  0
 11 17  1  0  0  0  0
 12 13  1  0  0  0  0
 12 14  1  0  0  0  0
 13 31  1  0  0  0  0
 13 32  1  0  0  0  0
 14 15  2  0  0  0  0
 14 33  1  0  0  0  0
 15 16  1  0  0  0  0
 15 34  1  0  0  0  0
 16 17  2  0  0  0  0
 16 35  1  0  0  0  0
 17 36  1  0  0  0  0
 18 19  1  0  0  0  0
 19 20  2  0  0  0  0
 19 24  1  0  0  0  0
 20 21  1  0  0  0  0
 21 22  2  0  0  0  0
 22 23  1  0  0  0  0
 22 37  1  0  0  0  0
 23 24  2  0  0  0  0
 23 38  1  0  0  0  0
 24 39  1  0  0  0  0
M  END
>  <DRUGBANK_ID>
DB16063

>  <COMMON_NAME>
2X-121

>  <CAS_NUMBER>
1140964-99-3

>  <UNII>
9X5A2QIA7C

$$$$
