1491
 OpenBabel10282417113D

 57 59  0  0  1  0  0  0  0  0999 V2000
    0.6924    0.2654    0.0802 O   0  0  0  0  0  0  0  0  0  0  0  0
    6.0186   -0.0147   -0.6874 N   0  0  0  0  0  0  0  0  0  0  0  0
    5.0381    1.0474   -0.9983 C   0  0  3  0  0  0  0  0  0  0  0  0
    3.7534    0.5023   -1.7088 C   0  0  0  0  0  0  0  0  0  0  0  0
    2.7479   -0.6264   -0.9624 C   0  0  0  0  0  0  0  0  0  0  0  0
    5.7719   -1.2432   -1.4344 C   0  0  0  0  0  0  0  0  0  0  0  0
    7.4414    0.2638   -0.8670 C   0  0  0  0  0  0  0  0  0  0  0  0
    6.4923   -2.4280   -0.8662 C   0  0  0  0  0  0  0  0  0  0  0  0
    8.2849   -0.8989   -0.3111 C   0  0  0  0  0  0  0  0  0  0  0  0
    7.9574   -2.2553   -0.9472 C   0  0  0  0  0  0  0  0  0  0  0  0
    5.6815    2.2788   -1.6552 C   0  0  0  0  0  0  0  0  0  0  0  0
    3.2513   -1.9733   -0.0467 C   0  0  0  0  0  0  0  0  0  0  0  0
    1.8442   -1.0370   -2.2006 C   0  0  0  0  0  0  0  0  0  0  0  0
    1.9442    0.1727    0.1032 C   0  0  0  0  0  0  0  0  0  0  0  0
    2.6800    0.7842    1.2813 C   0  0  0  0  0  0  0  0  0  0  0  0
    4.1276   -1.7992    1.0561 C   0  0  0  0  0  0  0  0  0  0  0  0
    2.0041   -2.2690   -2.8272 C   0  0  0  0  0  0  0  0  0  0  0  0
    3.1144   -3.3417   -0.4033 C   0  0  0  0  0  0  0  0  0  0  0  0
    0.9124   -0.2006   -2.8267 C   0  0  0  0  0  0  0  0  0  0  0  0
    2.4491    2.2630    1.3704 C   0  0  0  0  0  0  0  0  0  0  0  0
    4.8508   -2.8346    1.6830 C   0  0  0  0  0  0  0  0  0  0  0  0
    0.9800   -2.8877   -3.5309 C   0  0  0  0  0  0  0  0  0  0  0  0
    3.9004   -4.3764    0.1465 C   0  0  0  0  0  0  0  0  0  0  0  0
   -0.0291   -0.7365   -3.7237 C   0  0  0  0  0  0  0  0  0  0  0  0
    4.8096   -4.1109    1.1503 C   0  0  0  0  0  0  0  0  0  0  0  0
   -0.0442   -2.1015   -4.0085 C   0  0  0  0  0  0  0  0  0  0  0  0
    4.7003    1.5085   -0.0749 H   0  0  0  0  0  0  0  0  0  0  0  0
    4.0777    0.1137   -2.6916 H   0  0  0  0  0  0  0  0  0  0  0  0
    3.1427    1.3735   -2.0057 H   0  0  0  0  0  0  0  0  0  0  0  0
    5.8493   -1.1633   -2.5175 H   0  0  0  0  0  0  0  0  0  0  0  0
    4.7604   -1.4828   -1.3137 H   0  0  0  0  0  0  0  0  0  0  0  0
    7.7431    1.1805   -0.3541 H   0  0  0  0  0  0  0  0  0  0  0  0
    7.6456    0.3630   -1.9387 H   0  0  0  0  0  0  0  0  0  0  0  0
    6.1004   -3.3551   -1.2899 H   0  0  0  0  0  0  0  0  0  0  0  0
    6.3711   -2.4684    0.2011 H   0  0  0  0  0  0  0  0  0  0  0  0
    8.1044   -0.9526    0.7745 H   0  0  0  0  0  0  0  0  0  0  0  0
    9.3411   -0.6954   -0.4690 H   0  0  0  0  0  0  0  0  0  0  0  0
    8.4147   -3.0717   -0.3774 H   0  0  0  0  0  0  0  0  0  0  0  0
    8.2323   -2.3320   -1.9975 H   0  0  0  0  0  0  0  0  0  0  0  0
    4.9546    3.0518   -1.9183 H   0  0  0  0  0  0  0  0  0  0  0  0
    6.3634    2.7498   -0.9291 H   0  0  0  0  0  0  0  0  0  0  0  0
    6.2527    2.0078   -2.5435 H   0  0  0  0  0  0  0  0  0  0  0  0
    2.4123    0.2380    2.1905 H   0  0  0  0  0  0  0  0  0  0  0  0
    3.7506    0.6915    1.2156 H   0  0  0  0  0  0  0  0  0  0  0  0
    4.5752   -0.8417    1.2769 H   0  0  0  0  0  0  0  0  0  0  0  0
    2.9505   -2.7895   -2.7558 H   0  0  0  0  0  0  0  0  0  0  0  0
    2.5237   -3.7257   -1.2183 H   0  0  0  0  0  0  0  0  0  0  0  0
    0.9038    0.8721   -2.6454 H   0  0  0  0  0  0  0  0  0  0  0  0
    1.3956    2.4583    1.5566 H   0  0  0  0  0  0  0  0  0  0  0  0
    3.0592    2.6798    2.1769 H   0  0  0  0  0  0  0  0  0  0  0  0
    2.7424    2.7517    0.4346 H   0  0  0  0  0  0  0  0  0  0  0  0
    5.6985   -2.5428    2.3094 H   0  0  0  0  0  0  0  0  0  0  0  0
    1.0259   -3.9560   -3.7257 H   0  0  0  0  0  0  0  0  0  0  0  0
    3.8816   -5.3589   -0.3222 H   0  0  0  0  0  0  0  0  0  0  0  0
   -0.7792   -0.0925   -4.1716 H   0  0  0  0  0  0  0  0  0  0  0  0
    5.6138   -4.8153    1.3525 H   0  0  0  0  0  0  0  0  0  0  0  0
   -0.7915   -2.5374   -4.6630 H   0  0  0  0  0  0  0  0  0  0  0  0
  1 14  2  0  0  0  0
  2  3  1  0  0  0  0
  2  6  1  0  0  0  0
  2  7  1  0  0  0  0
  3  4  1  0  0  0  0
  3 11  1  0  0  0  0
  3 27  1  0  0  0  0
  4  5  1  0  0  0  0
  4 28  1  0  0  0  0
  4 29  1  0  0  0  0
  5 12  1  0  0  0  0
  5 13  1  0  0  0  0
  5 14  1  0  0  0  0
  6  8  1  0  0  0  0
  6 30  1  0  0  0  0
  6 31  1  0  0  0  0
  7  9  1  0  0  0  0
  7 32  1  0  0  0  0
  7 33  1  0  0  0  0
  8 10  1  0  0  0  0
  8 34  1  0  0  0  0
  8 35  1  0  0  0  0
  9 10  1  0  0  0  0
  9 36  1  0  0  0  0
  9 37  1  0  0  0  0
 10 38  1  0  0  0  0
 10 39  1  0  0  0  0
 11 40  1  0  0  0  0
 11 41  1  0  0  0  0
 11 42  1  0  0  0  0
 12 16  2  0  0  0  0
 12 18  1  0  0  0  0
 13 17  2  0  0  0  0
 13 19  1  0  0  0  0
 14 15  1  0  0  0  0
 15 20  1  0  0  0  0
 15 43  1  0  0  0  0
 15 44  1  0  0  0  0
 16 21  1  0  0  0  0
 16 45  1  0  0  0  0
 17 22  1  0  0  0  0
 17 46  1  0  0  0  0
 18 23  2  0  0  0  0
 18 47  1  0  0  0  0
 19 24  2  0  0  0  0
 19 48  1  0  0  0  0
 20 49  1  0  0  0  0
 20 50  1  0  0  0  0
 20 51  1  0  0  0  0
 21 25  2  0  0  0  0
 21 52  1  0  0  0  0
 22 26  2  0  0  0  0
 22 53  1  0  0  0  0
 23 25  1  0  0  0  0
 23 54  1  0  0  0  0
 24 26  1  0  0  0  0
 24 55  1  0  0  0  0
 25 56  1  0  0  0  0
 26 57  1  0  0  0  0
M  END
>  <DRUGBANK_ID>
DB01491

>  <COMMON_NAME>
Dipipanone

>  <CAS_NUMBER>
467-83-4

>  <UNII>
X188638Y2V

>  <SYNONYMS>
Dipipanone

$$$$
