
 OpenBabel10282417203D

 50 49  0  0  1  0  0  0  0  0999 V2000
   -1.5199   -2.1310   -0.6233 C   0  0  0  0  0  0  0  0  0  0  0  0
    0.6917   -2.2236   -0.0148 S   0  0  0  0  0  0  0  0  0  0  0  0
    1.2607   -3.2739   -0.8901 O   0  0  0  0  0  0  0  0  0  0  0  0
    1.4790   -1.0505    0.0270 O   0  0  0  0  0  0  0  0  0  0  0  0
    0.4309   -2.5879    1.5952 O   0  0  0  0  0  0  0  0  0  0  0  0
    1.0204   -3.3686    2.6250 C   0  0  0  0  0  0  0  0  0  0  0  0
    1.1545   -4.8321    2.1871 C   0  0  2  0  0  0  0  0  0  0  0  0
    0.6077   -4.8162    0.8111 C   0  0  2  0  0  0  0  0  0  0  0  0
   -1.0666   -4.0835    0.6664 C   0  0  1  0  0  0  0  0  0  0  0  0
   -1.7902   -2.4292    1.4265 C   0  0  1  0  0  0  0  0  0  0  0  0
   -0.9303   -0.7249    0.9393 C   0  0  0  0  0  0  0  0  0  0  0  0
   -0.5985   -0.3498   -0.8904 O   0  0  0  0  0  0  0  0  0  0  0  0
   -0.1118   -1.5612   -2.4947 S   0  0  0  0  0  0  0  0  0  0  0  0
    1.2316   -1.3402   -2.9277 O   0  0  0  0  0  0  0  0  0  0  0  0
   -0.5155   -2.9876   -2.3492 O   0  0  0  0  0  0  0  0  0  0  0  0
   -1.2601   -1.3244   -3.7840 C   0  0  0  0  0  0  0  0  0  0  0  0
   -3.4411   -2.3433    1.0911 O   0  0  0  0  0  0  0  0  0  0  0  0
   -4.1445   -1.9831   -0.4825 S   0  0  0  0  0  0  0  0  0  0  0  0
   -3.8253   -0.6220   -0.8970 O   0  0  0  0  0  0  0  0  0  0  0  0
   -4.0001   -3.0901   -1.4138 O   0  0  0  0  0  0  0  0  0  0  0  0
   -5.8097   -1.8938   -0.1820 C   0  0  0  0  0  0  0  0  0  0  0  0
   -1.4286   -4.6389   -0.6728 O   0  0  0  0  0  0  0  0  0  0  0  0
    0.8097   -6.0084    0.0653 O   0  0  0  0  0  0  0  0  0  0  0  0
    0.4633   -5.9179    2.8349 O   0  0  0  0  0  0  0  0  0  0  0  0
   -1.1484   -6.0838    2.5539 S   0  0  0  0  0  0  0  0  0  0  0  0
   -1.7828   -4.9636    3.2224 O   0  0  0  0  0  0  0  0  0  0  0  0
   -1.4207   -6.4875    1.1822 O   0  0  0  0  0  0  0  0  0  0  0  0
   -1.6548   -7.5217    3.2911 C   0  0  0  0  0  0  0  0  0  0  0  0
   -1.9365   -1.8559   -1.5722 H   0  0  0  0  0  0  0  0  0  0  0  0
   -2.0906   -1.3186   -0.1788 H   0  0  0  0  0  0  0  0  0  0  0  0
   -2.1187   -2.9748   -0.4535 H   0  0  0  0  0  0  0  0  0  0  0  0
    1.8975   -2.7746    2.8962 H   0  0  0  0  0  0  0  0  0  0  0  0
    0.3781   -3.3608    3.5184 H   0  0  0  0  0  0  0  0  0  0  0  0
    2.2449   -5.0216    2.1684 H   0  0  0  0  0  0  0  0  0  0  0  0
    1.5197   -4.3166    0.4869 H   0  0  0  0  0  0  0  0  0  0  0  0
   -1.9142   -4.5846    1.0802 H   0  0  0  0  0  0  0  0  0  0  0  0
   -1.7826   -2.5668    2.5304 H   0  0  0  0  0  0  0  0  0  0  0  0
   -1.5428    0.1056    1.3162 H   0  0  0  0  0  0  0  0  0  0  0  0
    0.0111   -0.5597    1.5005 H   0  0  0  0  0  0  0  0  0  0  0  0
   -2.2935   -1.4596   -3.4515 H   0  0  0  0  0  0  0  0  0  0  0  0
   -0.9654   -0.4065   -4.2362 H   0  0  0  0  0  0  0  0  0  0  0  0
   -1.0830   -2.2040   -4.4504 H   0  0  0  0  0  0  0  0  0  0  0  0
   -6.0701   -2.8949    0.1317 H   0  0  0  0  0  0  0  0  0  0  0  0
   -5.8767   -1.0834    0.5340 H   0  0  0  0  0  0  0  0  0  0  0  0
   -6.1821   -1.6255   -1.1844 H   0  0  0  0  0  0  0  0  0  0  0  0
   -1.0825   -4.1129   -1.4274 H   0  0  0  0  0  0  0  0  0  0  0  0
   -0.0922   -6.2672   -0.1967 H   0  0  0  0  0  0  0  0  0  0  0  0
   -1.2943   -8.3026    2.6170 H   0  0  0  0  0  0  0  0  0  0  0  0
   -1.2889   -7.5130    4.2962 H   0  0  0  0  0  0  0  0  0  0  0  0
   -2.7475   -7.4354    3.1892 H   0  0  0  0  0  0  0  0  0  0  0  0
  1  2  1  0  0  0  0
  1 29  1  0  0  0  0
  1 30  1  0  0  0  0
  1 31  1  0  0  0  0
  2  3  2  0  0  0  0
  2  4  2  0  0  0  0
  2  5  1  0  0  0  0
  5  6  1  0  0  0  0
  6 32  1  0  0  0  0
  6 33  1  0  0  0  0
  7 24  1  0  0  0  0
  7 34  1  6  0  0  0
  7  8  1  0  0  0  0
  7  6  1  0  0  0  0
  8 35  1  6  0  0  0
  8 23  1  0  0  0  0
  8  9  1  0  0  0  0
  9 10  1  0  0  0  0
  9 22  1  0  0  0  0
  9 36  1  1  0  0  0
 10 11  1  0  0  0  0
 10 17  1  0  0  0  0
 10 37  1  1  0  0  0
 11 12  1  0  0  0  0
 11 38  1  0  0  0  0
 11 39  1  0  0  0  0
 12 13  1  0  0  0  0
 13 14  2  0  0  0  0
 13 15  2  0  0  0  0
 13 16  1  0  0  0  0
 16 40  1  0  0  0  0
 16 41  1  0  0  0  0
 16 42  1  0  0  0  0
 17 18  1  0  0  0  0
 18 19  2  0  0  0  0
 18 20  2  0  0  0  0
 18 21  1  0  0  0  0
 21 43  1  0  0  0  0
 21 44  1  0  0  0  0
 21 45  1  0  0  0  0
 22 46  1  0  0  0  0
 23 47  1  0  0  0  0
 24 25  1  0  0  0  0
 25 26  2  0  0  0  0
 25 27  2  0  0  0  0
 25 28  1  0  0  0  0
 28 48  1  0  0  0  0
 28 49  1  0  0  0  0
 28 50  1  0  0  0  0
M  END
>  <DRUGBANK_ID>
DB13334

>  <COMMON_NAME>
Mannosulfan

>  <CAS_NUMBER>
7518-35-6

>  <UNII>
135FQ40L36

>  <SYNONYMS>
Mannosulfan

$$$$
