
 OpenBabel10282417183D

 32 32  0  0  0  0  0  0  0  0999 V2000
    1.0813    0.0109   -0.2110 C   0  0  0  0  0  0  0  0  0  0  0  0
    0.6373   -1.4233    0.0301 C   0  0  0  0  0  0  0  0  0  0  0  0
    1.1235   -1.9212    1.3885 C   0  0  0  0  0  0  0  0  0  0  0  0
    0.5835   -1.0708    2.5409 C   0  0  0  0  0  0  0  0  0  0  0  0
   -0.9557   -1.0552    2.6013 C   0  0  0  0  0  0  0  0  0  0  0  0
   -1.5257   -2.4537    2.8598 C   0  0  0  0  0  0  0  0  0  0  0  0
   -0.6281   -2.2572    5.2292 C   0  0  0  0  0  0  0  0  0  0  0  0
   -0.2279   -2.7940    6.4486 C   0  0  0  0  0  0  0  0  0  0  0  0
   -0.7712   -4.9929    5.6230 C   0  0  0  0  0  0  0  0  0  0  0  0
   -1.0819   -3.0739    4.1682 C   0  0  0  0  0  0  0  0  0  0  0  0
   -0.3289   -4.1555    6.6433 C   0  0  0  0  0  0  0  0  0  0  0  0
   -1.1330   -4.4516    4.3878 C   0  0  0  0  0  0  0  0  0  0  0  0
   -0.0091   -4.7147    7.8447 O   0  0  0  0  0  0  0  0  0  0  0  0
   -1.5316   -5.3532    3.4403 O   0  0  0  0  0  0  0  0  0  0  0  0
    0.6749    0.6974    0.5387 H   0  0  0  0  0  0  0  0  0  0  0  0
    0.7363    0.3633   -1.1839 H   0  0  0  0  0  0  0  0  0  0  0  0
    2.1729    0.0773   -0.1711 H   0  0  0  0  0  0  0  0  0  0  0  0
   -0.4542   -1.4911   -0.0408 H   0  0  0  0  0  0  0  0  0  0  0  0
    1.0299   -2.0743   -0.7568 H   0  0  0  0  0  0  0  0  0  0  0  0
    0.8385   -2.9721    1.5201 H   0  0  0  0  0  0  0  0  0  0  0  0
    2.2190   -1.9111    1.4200 H   0  0  0  0  0  0  0  0  0  0  0  0
    1.0254   -1.4545    3.4648 H   0  0  0  0  0  0  0  0  0  0  0  0
    0.9486   -0.0412    2.4792 H   0  0  0  0  0  0  0  0  0  0  0  0
   -1.2986   -0.3524    3.3690 H   0  0  0  0  0  0  0  0  0  0  0  0
   -1.3783   -0.6608    1.6709 H   0  0  0  0  0  0  0  0  0  0  0  0
   -2.6209   -2.4152    2.8470 H   0  0  0  0  0  0  0  0  0  0  0  0
   -1.2358   -3.0934    2.0183 H   0  0  0  0  0  0  0  0  0  0  0  0
   -0.5421   -1.1806    5.1238 H   0  0  0  0  0  0  0  0  0  0  0  0
    0.1473   -2.1232    7.2168 H   0  0  0  0  0  0  0  0  0  0  0  0
   -0.8401   -6.0602    5.7874 H   0  0  0  0  0  0  0  0  0  0  0  0
    0.2240   -3.9976    8.4576 H   0  0  0  0  0  0  0  0  0  0  0  0
   -1.7140   -4.8993    2.6042 H   0  0  0  0  0  0  0  0  0  0  0  0
  1 15  1  0  0  0  0
  1 16  1  0  0  0  0
  1 17  1  0  0  0  0
  2  1  1  0  0  0  0
  2 18  1  0  0  0  0
  2 19  1  0  0  0  0
  3  2  1  0  0  0  0
  3 20  1  0  0  0  0
  3 21  1  0  0  0  0
  4  3  1  0  0  0  0
  4 22  1  0  0  0  0
  4 23  1  0  0  0  0
  5  4  1  0  0  0  0
  5 24  1  0  0  0  0
  5 25  1  0  0  0  0
  6  5  1  0  0  0  0
  6 26  1  0  0  0  0
  6 27  1  0  0  0  0
  7 28  1  0  0  0  0
  8  7  2  0  0  0  0
  8 29  1  0  0  0  0
  9 30  1  0  0  0  0
 10  6  1  0  0  0  0
 10  7  1  0  0  0  0
 11  8  1  0  0  0  0
 11  9  2  0  0  0  0
 12  9  1  0  0  0  0
 12 10  2  0  0  0  0
 13 11  1  0  0  0  0
 13 31  1  0  0  0  0
 14 12  1  0  0  0  0
 14 32  1  0  0  0  0
M  END
>  <DRUGBANK_ID>
DB11254

>  <COMMON_NAME>
Hexylresorcinol

>  <CAS_NUMBER>
136-77-6

>  <UNII>
R9QTB5E82N

>  <SYNONYMS>
4-hexyl-1,3-benzenediol; 4-hexylresorcinol; Hexylresorcinol

$$$$
