OIR
 OpenBabel10282417123D

 52 53  0  0  0  0  0  0  0  0999 V2000
    1.9708    2.2649    3.7510 O   0  0  0  0  0  0  0  0  0  0  0  0
    2.0692    2.0593    2.5419 C   0  0  0  0  0  0  0  0  0  0  0  0
    0.8707    2.3176    1.4664 C   0  0  1  0  0  0  0  0  0  0  0  0
    0.9421    3.4865    0.3691 C   0  0  0  0  0  0  0  0  0  0  0  0
    1.7346    3.3725   -0.9579 C   0  0  0  0  0  0  0  0  0  0  0  0
    2.9286    4.0312   -1.1326 C   0  0  0  0  0  0  0  0  0  0  0  0
    3.9229    3.6057   -2.0685 C   0  0  0  0  0  0  0  0  0  0  0  0
    3.6285    2.7151   -3.0554 C   0  0  0  0  0  0  0  0  0  0  0  0
    2.3016    2.3774   -3.1427 C   0  0  0  0  0  0  0  0  0  0  0  0
    1.3604    2.7342   -2.1274 C   0  0  0  0  0  0  0  0  0  0  0  0
    0.4819    0.7077    0.6400 S   0  0  0  0  0  0  0  0  0  0  0  0
    3.2202    1.6277    1.9489 N   0  0  0  0  0  0  0  0  0  0  0  0
    4.8801    1.2776    2.3172 C   0  0  2  0  0  0  0  0  0  0  0  0
    5.0116    2.4462    3.2014 C   0  0  0  0  0  0  0  0  0  0  0  0
    5.2138    2.4405    4.3766 O   0  0  0  0  0  0  0  0  0  0  0  0
    4.9354    3.5370    2.3523 N   0  0  0  0  0  0  0  0  0  0  0  0
    4.5297    3.3902    0.8694 C   0  0  2  0  0  0  0  0  0  0  0  0
    4.4070    1.7923   -0.2362 C   0  0  0  0  0  0  0  0  0  0  0  0
    3.6984    0.6238    0.1411 O   0  0  0  0  0  0  0  0  0  0  0  0
    5.0833    1.5552   -1.2131 O   0  0  0  0  0  0  0  0  0  0  0  0
    5.3325    4.6340    0.2804 C   0  0  0  0  0  0  0  0  0  0  0  0
    6.2311    1.4913    1.1748 C   0  0  0  0  0  0  0  0  0  0  0  0
    7.6272    1.4074    1.5899 C   0  0  0  0  0  0  0  0  0  0  0  0
    7.9424    1.9257    2.8195 C   0  0  0  0  0  0  0  0  0  0  0  0
    9.1206    1.5744    3.3853 C   0  0  0  0  0  0  0  0  0  0  0  0
   10.0353    0.8626    2.6196 C   0  0  0  0  0  0  0  0  0  0  0  0
    9.7801    0.5166    1.2853 C   0  0  0  0  0  0  0  0  0  0  0  0
    8.5762    0.8593    0.7259 C   0  0  0  0  0  0  0  0  0  0  0  0
    0.0103    2.5372    2.1146 H   0  0  0  0  0  0  0  0  0  0  0  0
    4.9177    0.2664    2.6890 H   0  0  0  0  0  0  0  0  0  0  0  0
    3.5053    3.7051    1.0475 H   0  0  0  0  0  0  0  0  0  0  0  0
   -0.0881    3.7228    0.0729 H   0  0  0  0  0  0  0  0  0  0  0  0
    1.2854    4.3824    0.9103 H   0  0  0  0  0  0  0  0  0  0  0  0
    3.1312    4.8003   -0.3974 H   0  0  0  0  0  0  0  0  0  0  0  0
    5.0099    3.6812   -1.8874 H   0  0  0  0  0  0  0  0  0  0  0  0
    4.4421    2.2933   -3.6490 H   0  0  0  0  0  0  0  0  0  0  0  0
    2.0071    1.7967   -4.0034 H   0  0  0  0  0  0  0  0  0  0  0  0
    0.3107    2.5612   -2.3168 H   0  0  0  0  0  0  0  0  0  0  0  0
    1.4257    0.7281   -0.3261 H   0  0  0  0  0  0  0  0  0  0  0  0
    2.9139    1.7043    0.9765 H   0  0  0  0  0  0  0  0  0  0  0  0
    4.8289    4.4195    2.8480 H   0  0  0  0  0  0  0  0  0  0  0  0
    3.4341    0.3009    1.0590 H   0  0  0  0  0  0  0  0  0  0  0  0
    5.0687    5.0342   -0.6929 H   0  0  0  0  0  0  0  0  0  0  0  0
    5.1562    5.5240    0.8987 H   0  0  0  0  0  0  0  0  0  0  0  0
    6.4032    4.4471    0.1978 H   0  0  0  0  0  0  0  0  0  0  0  0
    6.1891    0.7549    0.3717 H   0  0  0  0  0  0  0  0  0  0  0  0
    6.3412    2.4808    0.7000 H   0  0  0  0  0  0  0  0  0  0  0  0
    7.2656    2.5581    3.3656 H   0  0  0  0  0  0  0  0  0  0  0  0
    9.2578    1.8477    4.4220 H   0  0  0  0  0  0  0  0  0  0  0  0
   10.9764    0.6005    3.0733 H   0  0  0  0  0  0  0  0  0  0  0  0
   10.4885   -0.0615    0.7047 H   0  0  0  0  0  0  0  0  0  0  0  0
    8.3519    0.6506   -0.3250 H   0  0  0  0  0  0  0  0  0  0  0  0
  1  2  2  0  0  0  0
  2  3  1  0  0  0  0
  2 12  1  0  0  0  0
  3  4  1  0  0  0  0
  3 11  1  0  0  0  0
  3 29  1  1  0  0  0
  4  5  1  0  0  0  0
  4 32  1  0  0  0  0
  4 33  1  0  0  0  0
  5  6  2  0  0  0  0
  5 10  1  0  0  0  0
  6  7  1  0  0  0  0
  6 34  1  0  0  0  0
  7  8  2  0  0  0  0
  7 35  1  0  0  0  0
  8  9  1  0  0  0  0
  8 36  1  0  0  0  0
  9 10  2  0  0  0  0
  9 37  1  0  0  0  0
 10 38  1  0  0  0  0
 11 39  1  0  0  0  0
 12 40  1  0  0  0  0
 13 22  1  0  0  0  0
 13 30  1  1  0  0  0
 13 14  1  0  0  0  0
 13 12  1  0  0  0  0
 14 15  2  0  0  0  0
 14 16  1  0  0  0  0
 16 41  1  0  0  0  0
 17 21  1  0  0  0  0
 17 31  1  1  0  0  0
 17 18  1  0  0  0  0
 17 16  1  0  0  0  0
 18 19  1  0  0  0  0
 18 20  2  0  0  0  0
 19 42  1  0  0  0  0
 21 43  1  0  0  0  0
 21 44  1  0  0  0  0
 21 45  1  0  0  0  0
 22 23  1  0  0  0  0
 22 46  1  0  0  0  0
 22 47  1  0  0  0  0
 23 24  2  0  0  0  0
 23 28  1  0  0  0  0
 24 25  1  0  0  0  0
 24 48  1  0  0  0  0
 25 26  2  0  0  0  0
 25 49  1  0  0  0  0
 26 27  1  0  0  0  0
 26 50  1  0  0  0  0
 27 28  2  0  0  0  0
 27 51  1  0  0  0  0
 28 52  1  0  0  0  0
M  END
>  <DRUGBANK_ID>
DB02558

>  <SECONDARY_ACCESSION_NUMBERS>
EXPT02428

>  <COMMON_NAME>
N-(3-Phenyl-2-Sulfanylpropanoyl)Phenylalanylalanine

$$$$
