
 OpenBabel10282417233D

 55 55  0  0  0  0  0  0  0  0999 V2000
    0.9189    0.0865    0.0294 C   0  0  0  0  0  0  0  0  0  0  0  0
    0.4729    0.0301   -1.4224 C   0  0  0  0  0  0  0  0  0  0  0  0
    0.9735   -1.2564   -2.0789 C   0  0  0  0  0  0  0  0  0  0  0  0
    0.4232   -2.4919   -1.3577 C   0  0  0  0  0  0  0  0  0  0  0  0
   -1.1091   -2.4886   -1.3819 C   0  0  0  0  0  0  0  0  0  0  0  0
   -1.5956   -2.5251   -2.8320 C   0  0  0  0  0  0  0  0  0  0  0  0
   -1.0364   -3.7828   -3.5149 C   0  0  0  0  0  0  0  0  0  0  0  0
   -1.4968   -5.0381   -2.7576 C   0  0  0  0  0  0  0  0  0  0  0  0
   -3.0067   -5.0434   -2.7101 C   0  0  0  0  0  0  0  0  0  0  0  0
   -3.5104   -4.9736   -4.1330 C   0  0  0  0  0  0  0  0  0  0  0  0
   -3.1657   -6.2553   -4.9236 C   0  0  0  0  0  0  0  0  0  0  0  0
   -3.7446   -7.5025   -4.2734 C   0  0  0  0  0  0  0  0  0  0  0  0
   -5.2082   -7.5178   -4.1910 N   0  0  0  0  0  0  0  0  0  0  0  0
   -5.8294   -8.8233   -4.0080 C   0  0  0  0  0  0  0  0  0  0  0  0
   -6.6021   -9.2515   -5.2623 C   0  0  0  0  0  0  0  0  0  0  0  0
   -7.9871   -8.5970   -5.4030 C   0  0  0  0  0  0  0  0  0  0  0  0
   -8.0093   -7.0795   -5.5156 C   0  0  0  0  0  0  0  0  0  0  0  0
   -7.4270   -6.4434   -4.2709 C   0  0  0  0  0  0  0  0  0  0  0  0
   -5.9831   -6.4388   -4.6184 C   0  0  0  0  0  0  0  0  0  0  0  0
   -5.6435   -5.5679   -5.4080 O   0  0  0  0  0  0  0  0  0  0  0  0
    0.5236   -0.7496    0.6158 H   0  0  0  0  0  0  0  0  0  0  0  0
    0.5652    0.9993    0.5083 H   0  0  0  0  0  0  0  0  0  0  0  0
    2.0107    0.0455    0.0815 H   0  0  0  0  0  0  0  0  0  0  0  0
   -0.6200    0.1051   -1.4760 H   0  0  0  0  0  0  0  0  0  0  0  0
    0.8507    0.8954   -1.9729 H   0  0  0  0  0  0  0  0  0  0  0  0
    0.6896   -1.2582   -3.1389 H   0  0  0  0  0  0  0  0  0  0  0  0
    2.0666   -1.2887   -2.0790 H   0  0  0  0  0  0  0  0  0  0  0  0
    0.8359   -3.3961   -1.8172 H   0  0  0  0  0  0  0  0  0  0  0  0
    0.7768   -2.5549   -0.3269 H   0  0  0  0  0  0  0  0  0  0  0  0
   -1.4890   -3.3369   -0.8029 H   0  0  0  0  0  0  0  0  0  0  0  0
   -1.5342   -1.6240   -0.8664 H   0  0  0  0  0  0  0  0  0  0  0  0
   -2.6905   -2.4767   -2.8556 H   0  0  0  0  0  0  0  0  0  0  0  0
   -1.3013   -1.6352   -3.3944 H   0  0  0  0  0  0  0  0  0  0  0  0
   -1.3319   -3.7853   -4.5677 H   0  0  0  0  0  0  0  0  0  0  0  0
    0.0513   -3.7811   -3.5868 H   0  0  0  0  0  0  0  0  0  0  0  0
   -1.1110   -5.9371   -3.2434 H   0  0  0  0  0  0  0  0  0  0  0  0
   -1.1099   -5.0902   -1.7377 H   0  0  0  0  0  0  0  0  0  0  0  0
   -3.4031   -5.9087   -2.1739 H   0  0  0  0  0  0  0  0  0  0  0  0
   -3.4208   -4.1991   -2.1470 H   0  0  0  0  0  0  0  0  0  0  0  0
   -4.5502   -4.7144   -3.9674 H   0  0  0  0  0  0  0  0  0  0  0  0
   -3.1837   -4.1175   -4.7303 H   0  0  0  0  0  0  0  0  0  0  0  0
   -3.5132   -6.1930   -5.9613 H   0  0  0  0  0  0  0  0  0  0  0  0
   -2.0800   -6.3704   -5.0224 H   0  0  0  0  0  0  0  0  0  0  0  0
   -3.3987   -8.3887   -4.8191 H   0  0  0  0  0  0  0  0  0  0  0  0
   -3.3610   -7.6373   -3.2527 H   0  0  0  0  0  0  0  0  0  0  0  0
   -6.4777   -8.7937   -3.1283 H   0  0  0  0  0  0  0  0  0  0  0  0
   -5.0447   -9.5628   -3.7989 H   0  0  0  0  0  0  0  0  0  0  0  0
   -6.7623  -10.3341   -5.2108 H   0  0  0  0  0  0  0  0  0  0  0  0
   -5.9991   -9.0629   -6.1614 H   0  0  0  0  0  0  0  0  0  0  0  0
   -8.5951   -8.8781   -4.5377 H   0  0  0  0  0  0  0  0  0  0  0  0
   -8.4715   -8.9992   -6.2967 H   0  0  0  0  0  0  0  0  0  0  0  0
   -9.0244   -6.7095   -5.6638 H   0  0  0  0  0  0  0  0  0  0  0  0
   -7.4442   -6.7860   -6.4159 H   0  0  0  0  0  0  0  0  0  0  0  0
   -7.6625   -6.9397   -3.3265 H   0  0  0  0  0  0  0  0  0  0  0  0
   -7.7317   -5.3941   -4.1668 H   0  0  0  0  0  0  0  0  0  0  0  0
  1  2  1  0  0  0  0
  1 21  1  0  0  0  0
  1 22  1  0  0  0  0
  1 23  1  0  0  0  0
  2  3  1  0  0  0  0
  2 24  1  0  0  0  0
  2 25  1  0  0  0  0
  3  4  1  0  0  0  0
  3 26  1  0  0  0  0
  3 27  1  0  0  0  0
  4  5  1  0  0  0  0
  4 28  1  0  0  0  0
  4 29  1  0  0  0  0
  5  6  1  0  0  0  0
  5 30  1  0  0  0  0
  5 31  1  0  0  0  0
  6  7  1  0  0  0  0
  6 32  1  0  0  0  0
  6 33  1  0  0  0  0
  7  8  1  0  0  0  0
  7 34  1  0  0  0  0
  7 35  1  0  0  0  0
  8  9  1  0  0  0  0
  8 36  1  0  0  0  0
  8 37  1  0  0  0  0
  9 10  1  0  0  0  0
  9 38  1  0  0  0  0
  9 39  1  0  0  0  0
 10 11  1  0  0  0  0
 10 40  1  0  0  0  0
 10 41  1  0  0  0  0
 11 12  1  0  0  0  0
 11 42  1  0  0  0  0
 11 43  1  0  0  0  0
 12 13  1  0  0  0  0
 12 44  1  0  0  0  0
 12 45  1  0  0  0  0
 13 14  1  0  0  0  0
 13 19  1  0  0  0  0
 14 15  1  0  0  0  0
 14 46  1  0  0  0  0
 14 47  1  0  0  0  0
 15 16  1  0  0  0  0
 15 48  1  0  0  0  0
 15 49  1  0  0  0  0
 16 17  1  0  0  0  0
 16 50  1  0  0  0  0
 16 51  1  0  0  0  0
 17 18  1  0  0  0  0
 17 52  1  0  0  0  0
 17 53  1  0  0  0  0
 18 19  1  0  0  0  0
 18 54  1  0  0  0  0
 18 55  1  0  0  0  0
 19 20  2  0  0  0  0
M  END
>  <DRUGBANK_ID>
DB17308

>  <COMMON_NAME>
Laurocapram

>  <CAS_NUMBER>
59227-89-3

>  <UNII>
1F3X9DRV9X

>  <SYNONYMS>
1-dodecylazacycloheptan-2-one; 1-dodecylhexahydro-2h-azepin-2-one; 1-n-dodecylazacycloheptan-2-one; 2h-azepin-2-one, 1-dodecylhexahydro-; Azone; N-dodecyl-.epsilon.-caprolactam

$$$$
