
 OpenBabel10282417123D

105111  0  0  1  0  0  0  0  0999 V2000
    2.2577    4.0499    1.7524 C   0  0  0  0  0  0  0  0  0  0  0  0
   -1.1254   -0.2049    1.6222 C   0  0  0  0  0  0  0  0  0  0  0  0
   -1.9574   -0.2882   -4.1070 C   0  0  0  0  0  0  0  0  0  0  0  0
   -5.2608    0.0786   -0.7805 C   0  0  0  0  0  0  0  0  0  0  0  0
    2.1765    3.3153   -3.7008 C   0  0  0  0  0  0  0  0  0  0  0  0
    0.5224    4.4256   -2.4895 C   0  0  0  0  0  0  0  0  0  0  0  0
    2.7887    2.8942    0.9228 C   0  0  0  0  0  0  0  0  0  0  0  0
   -1.8019   -4.7807    7.6741 C   0  0  0  0  0  0  0  0  0  0  0  0
   -1.2900   -3.5228    7.3661 C   0  0  0  0  0  0  0  0  0  0  0  0
   -1.8693   -5.7738    6.6941 C   0  0  0  0  0  0  0  0  0  0  0  0
   -3.1649   -0.7064   -0.1209 C   0  0  0  0  0  0  0  0  0  0  0  0
   -4.1824   -0.3215    1.3270 C   0  0  0  0  0  0  0  0  0  0  0  0
    0.8855   -0.4623    4.1811 C   0  0  0  0  0  0  0  0  0  0  0  0
    0.4845    1.2977   -1.1904 C   0  0  0  0  0  0  0  0  0  0  0  0
   -1.6072    3.3720   -0.6707 C   0  0  0  0  0  0  0  0  0  0  0  0
    2.1182    1.1686    2.7911 C   0  0  0  0  0  0  0  0  0  0  0  0
    2.7262    0.3584    0.4393 C   0  0  0  0  0  0  0  0  0  0  0  0
   -1.8029   -1.4861    1.6274 C   0  0  2  0  0  0  0  0  0  0  0  0
   -0.6982    0.0088   -3.3495 C   0  0  1  0  0  0  0  0  0  0  0  0
   -4.0624    1.5358   -0.4618 C   0  0  1  0  0  0  0  0  0  0  0  0
    1.5430   -0.2340    2.9624 C   0  0  0  0  0  0  0  0  0  0  0  0
   -0.8423   -3.2596    6.0691 C   0  0  0  0  0  0  0  0  0  0  0  0
    0.3026   -1.6973    4.4453 C   0  0  0  0  0  0  0  0  0  0  0  0
    0.7968    1.8664   -2.4934 C   0  0  1  0  0  0  0  0  0  0  0  0
   -2.3773   -1.8003    0.2804 C   0  0  0  0  0  0  0  0  0  0  0  0
   -1.4168   -5.5107    5.4042 C   0  0  0  0  0  0  0  0  0  0  0  0
   -2.1908    3.3136    0.7411 C   0  0  1  0  0  0  0  0  0  0  0  0
    1.9053   -0.9397    0.4847 C   0  0  1  0  0  0  0  0  0  0  0  0
   -3.4911    0.0395    2.5655 C   0  0  1  0  0  0  0  0  0  0  0  0
    0.1814   -0.1644   -1.2270 C   0  0  1  0  0  0  0  0  0  0  0  0
   -2.3222    2.7133   -1.8880 C   0  0  2  0  0  0  0  0  0  0  0  0
    1.5368   -1.2405    1.9464 C   0  0  0  0  0  0  0  0  0  0  0  0
   -0.8947   -4.2530    5.0868 C   0  0  0  0  0  0  0  0  0  0  0  0
    0.3498   -2.7132    3.4954 C   0  0  0  0  0  0  0  0  0  0  0  0
   -0.2862   -1.9298    5.7691 C   0  0  0  0  0  0  0  0  0  0  0  0
    0.9755   -2.4919    2.2521 C   0  0  0  0  0  0  0  0  0  0  0  0
   -0.3547   -3.9787    3.7433 C   0  0  0  0  0  0  0  0  0  0  0  0
   -0.4092    1.5390   -3.3377 C   0  0  2  0  0  0  0  0  0  0  0  0
   -3.0718    2.0434    1.0164 C   0  0  1  0  0  0  0  0  0  0  0  0
    2.1957    1.5524    1.3377 C   0  0  2  0  0  0  0  0  0  0  0  0
    1.3864    3.2439   -2.4869 N   0  0  0  0  0  0  0  0  0  0  0  0
   -2.1690   -2.7898   -0.4959 O   0  0  0  0  0  0  0  0  0  0  0  0
   -1.4698   -6.4903    4.4561 O   0  0  0  0  0  0  0  0  0  0  0  0
   -1.0618    3.4516    1.6703 O   0  0  0  0  0  0  0  0  0  0  0  0
   -0.2458   -1.0562    6.6280 O   0  0  0  0  0  0  0  0  0  0  0  0
    0.8757   -3.4049    1.2220 O   0  0  0  0  0  0  0  0  0  0  0  0
   -0.4528   -4.7703    2.8110 O   0  0  0  0  0  0  0  0  0  0  0  0
    0.8087    1.7844    1.2103 O   0  0  0  0  0  0  0  0  0  0  0  0
   -2.5854   -1.1274    2.7564 O   0  0  0  0  0  0  0  0  0  0  0  0
   -0.7888   -0.6328   -2.1256 O   0  0  0  0  0  0  0  0  0  0  0  0
   -3.2045    1.6143   -1.6464 O   0  0  0  0  0  0  0  0  0  0  0  0
    0.7613   -1.0986   -0.3585 O   0  0  0  0  0  0  0  0  0  0  0  0
   -3.2795    1.5175    2.4081 O   0  0  0  0  0  0  0  0  0  0  0  0
   -1.5274    2.4497   -3.1116 O   0  0  0  0  0  0  0  0  0  0  0  0
    1.2061    4.2684    1.5385 H   0  0  0  0  0  0  0  0  0  0  0  0
    2.8152    4.9557    1.5228 H   0  0  0  0  0  0  0  0  0  0  0  0
    2.3508    3.8253    2.8146 H   0  0  0  0  0  0  0  0  0  0  0  0
   -0.9148    0.3857    2.5026 H   0  0  0  0  0  0  0  0  0  0  0  0
   -0.4938    0.0036    0.8651 H   0  0  0  0  0  0  0  0  0  0  0  0
   -1.8663    0.2890    1.1209 H   0  0  0  0  0  0  0  0  0  0  0  0
   -1.6860   -0.2881   -5.1600 H   0  0  0  0  0  0  0  0  0  0  0  0
   -2.3857   -1.2481   -3.8070 H   0  0  0  0  0  0  0  0  0  0  0  0
   -2.7297    0.4675   -3.9374 H   0  0  0  0  0  0  0  0  0  0  0  0
   -5.5127   -0.6952   -0.0078 H   0  0  0  0  0  0  0  0  0  0  0  0
   -5.6923    0.1814   -1.7555 H   0  0  0  0  0  0  0  0  0  0  0  0
   -4.9744   -0.9252   -1.2174 H   0  0  0  0  0  0  0  0  0  0  0  0
    1.5233    3.1249   -4.5541 H   0  0  0  0  0  0  0  0  0  0  0  0
    2.6358    4.2965   -3.8023 H   0  0  0  0  0  0  0  0  0  0  0  0
    2.9698    2.5652   -3.6596 H   0  0  0  0  0  0  0  0  0  0  0  0
   -0.3523    4.3231   -3.1305 H   0  0  0  0  0  0  0  0  0  0  0  0
    0.2684    4.7424   -1.4839 H   0  0  0  0  0  0  0  0  0  0  0  0
    1.0311    5.3377   -2.8156 H   0  0  0  0  0  0  0  0  0  0  0  0
    2.5321    3.1498   -0.1160 H   0  0  0  0  0  0  0  0  0  0  0  0
    3.8709    2.8250    0.9535 H   0  0  0  0  0  0  0  0  0  0  0  0
   -2.1506   -4.9854    8.6827 H   0  0  0  0  0  0  0  0  0  0  0  0
   -1.2338   -2.7532    8.1353 H   0  0  0  0  0  0  0  0  0  0  0  0
   -2.2714   -6.7481    6.9522 H   0  0  0  0  0  0  0  0  0  0  0  0
   -3.4252   -0.9213   -1.1716 H   0  0  0  0  0  0  0  0  0  0  0  0
   -2.4864    0.0922   -0.4272 H   0  0  0  0  0  0  0  0  0  0  0  0
   -4.8893    0.5398    1.2587 H   0  0  0  0  0  0  0  0  0  0  0  0
   -4.7887   -1.1707    1.6256 H   0  0  0  0  0  0  0  0  0  0  0  0
    0.7897    0.3513    4.9036 H   0  0  0  0  0  0  0  0  0  0  0  0
    1.2722    1.7409   -0.6510 H   0  0  0  0  0  0  0  0  0  0  0  0
   -0.3881    1.6177   -0.6530 H   0  0  0  0  0  0  0  0  0  0  0  0
   -1.3416    4.4264   -0.7011 H   0  0  0  0  0  0  0  0  0  0  0  0
   -0.5664    3.1621   -0.7871 H   0  0  0  0  0  0  0  0  0  0  0  0
    3.0789    1.2658    3.2744 H   0  0  0  0  0  0  0  0  0  0  0  0
    1.3968    1.8594    3.2770 H   0  0  0  0  0  0  0  0  0  0  0  0
    2.8571    0.6440   -0.6103 H   0  0  0  0  0  0  0  0  0  0  0  0
    3.7243    0.1183    0.8109 H   0  0  0  0  0  0  0  0  0  0  0  0
   -1.0943   -2.2644    1.6815 H   0  0  0  0  0  0  0  0  0  0  0  0
    0.1368   -0.5615   -3.7662 H   0  0  0  0  0  0  0  0  0  0  0  0
   -4.7604    2.3648   -0.5147 H   0  0  0  0  0  0  0  0  0  0  0  0
    1.6607    1.2134   -2.7183 H   0  0  0  0  0  0  0  0  0  0  0  0
   -2.7514    4.2187    0.8994 H   0  0  0  0  0  0  0  0  0  0  0  0
    2.5268   -1.7605    0.1201 H   0  0  0  0  0  0  0  0  0  0  0  0
   -4.1321   -0.0243    3.4485 H   0  0  0  0  0  0  0  0  0  0  0  0
   -0.6953   -0.0250   -0.6693 H   0  0  0  0  0  0  0  0  0  0  0  0
   -2.9642    3.5271   -2.2309 H   0  0  0  0  0  0  0  0  0  0  0  0
   -0.0496    1.6902   -4.3624 H   0  0  0  0  0  0  0  0  0  0  0  0
   -2.0791    1.7098    1.0430 H   0  0  0  0  0  0  0  0  0  0  0  0
   -1.8622   -7.3075    4.7950 H   0  0  0  0  0  0  0  0  0  0  0  0
   -0.3876    2.7333    1.5511 H   0  0  0  0  0  0  0  0  0  0  0  0
    0.2318   -4.1175    1.4609 H   0  0  0  0  0  0  0  0  0  0  0  0
    0.6329    0.8881    0.9499 H   0  0  0  0  0  0  0  0  0  0  0  0
  1 55  1  0  0  0  0
  1 56  1  0  0  0  0
  1 57  1  0  0  0  0
  2 58  1  0  0  0  0
  2 59  1  0  0  0  0
  2 60  1  0  0  0  0
  3 61  1  0  0  0  0
  3 62  1  0  0  0  0
  3 63  1  0  0  0  0
  4 64  1  0  0  0  0
  4 65  1  0  0  0  0
  4 66  1  0  0  0  0
  5 67  1  0  0  0  0
  5 68  1  0  0  0  0
  5 69  1  0  0  0  0
  6 70  1  0  0  0  0
  6 71  1  0  0  0  0
  6 72  1  0  0  0  0
  7  1  1  0  0  0  0
  7 73  1  0  0  0  0
  7 74  1  0  0  0  0
  8 75  1  0  0  0  0
  9  8  2  0  0  0  0
  9 76  1  0  0  0  0
 10  8  1  0  0  0  0
 10 77  1  0  0  0  0
 11 78  1  0  0  0  0
 11 79  1  0  0  0  0
 12 11  1  0  0  0  0
 12 80  1  0  0  0  0
 12 81  1  0  0  0  0
 13 82  1  0  0  0  0
 14 83  1  0  0  0  0
 14 84  1  0  0  0  0
 15 85  1  0  0  0  0
 15 86  1  0  0  0  0
 16 87  1  0  0  0  0
 16 88  1  0  0  0  0
 17 89  1  0  0  0  0
 17 90  1  0  0  0  0
 18  2  1  0  0  0  0
 18 91  1  1  0  0  0
 19  3  1  0  0  0  0
 19 92  1  6  0  0  0
 20  4  1  0  0  0  0
 20 93  1  6  0  0  0
 21 13  2  0  0  0  0
 21 16  1  0  0  0  0
 22  9  1  0  0  0  0
 23 13  1  0  0  0  0
 24 14  1  0  0  0  0
 24 41  1  0  0  0  0
 24 94  1  6  0  0  0
 25 11  1  0  0  0  0
 25 18  1  0  0  0  0
 26 10  2  0  0  0  0
 27 15  1  0  0  0  0
 27 44  1  0  0  0  0
 27 95  1  1  0  0  0
 28 17  1  0  0  0  0
 28 52  1  0  0  0  0
 28 96  1  6  0  0  0
 29 12  1  0  0  0  0
 29 97  1  1  0  0  0
 29 53  1  0  0  0  0
 30 14  1  0  0  0  0
 30 98  1  1  0  0  0
 30 52  1  0  0  0  0
 31 15  1  0  0  0  0
 31 54  1  0  0  0  0
 31 99  1  6  0  0  0
 32 21  1  0  0  0  0
 32 28  1  0  0  0  0
 33 22  2  0  0  0  0
 33 26  1  0  0  0  0
 34 23  2  0  0  0  0
 35 22  1  0  0  0  0
 35 23  1  0  0  0  0
 36 32  2  0  0  0  0
 36 34  1  0  0  0  0
 37 33  1  0  0  0  0
 37 34  1  0  0  0  0
 38 19  1  0  0  0  0
 38 24  1  0  0  0  0
 38 54  1  0  0  0  0
 38100  1  6  0  0  0
 39 20  1  0  0  0  0
 39 27  1  0  0  0  0
 39101  1  6  0  0  0
 39 53  1  0  0  0  0
 40 16  1  0  0  0  0
 40 17  1  0  0  0  0
 40 48  1  6  0  0  0
 40  7  1  0  0  0  0
 41  5  1  0  0  0  0
 41  6  1  0  0  0  0
 42 25  2  0  0  0  0
 43 26  1  0  0  0  0
 43102  1  0  0  0  0
 44103  1  0  0  0  0
 45 35  2  0  0  0  0
 46 36  1  0  0  0  0
 46104  1  0  0  0  0
 47 37  2  0  0  0  0
 48105  1  0  0  0  0
 49 18  1  0  0  0  0
 49 29  1  0  0  0  0
 50 19  1  0  0  0  0
 50 30  1  0  0  0  0
 51 20  1  0  0  0  0
 51 31  1  0  0  0  0
M  END
>  <DRUGBANK_ID>
DB01806

>  <SECONDARY_ACCESSION_NUMBERS>
EXPT00481

>  <COMMON_NAME>
10-decarboxymethylaclacinomycin A

>  <SYNONYMS>
DCMAA

$$$$
