WRB
 OpenBabel10282417133D

 42 43  0  0  0  0  0  0  0  0999 V2000
    0.3318   -0.6811   -0.4363 C   0  0  0  0  0  0  0  0  0  0  0  0
    1.3487    0.3081   -0.2887 N   0  0  0  0  0  0  0  0  0  0  0  0
    0.8915    1.4353   -0.0617 C   0  0  0  0  0  0  0  0  0  0  0  0
   -0.4533    1.7587    0.0060 N   0  0  0  0  0  0  0  0  0  0  0  0
   -1.3571    0.8059   -0.1284 C   0  0  0  0  0  0  0  0  0  0  0  0
   -1.0752   -0.5022   -0.4033 N   0  0  0  0  0  0  0  0  0  0  0  0
   -2.1439   -1.5828   -0.6104 O   0  0  0  0  0  0  0  0  0  0  0  0
   -1.8692   -3.0170   -0.2430 C   0  0  0  0  0  0  0  0  0  0  0  0
   -0.9824   -3.9202   -1.1631 C   0  0  0  0  0  0  0  0  0  0  0  0
    0.4537   -3.5487   -0.8429 C   0  0  0  0  0  0  0  0  0  0  0  0
    1.3356   -3.6856    0.3772 O   0  0  0  0  0  0  0  0  0  0  0  0
    1.0131   -3.5586    1.7747 C   0  0  0  0  0  0  0  0  0  0  0  0
   -0.2301   -4.0297    2.1539 C   0  0  0  0  0  0  0  0  0  0  0  0
   -0.9299   -3.3724    3.1908 C   0  0  0  0  0  0  0  0  0  0  0  0
    1.6838   -2.6056    2.7230 C   0  0  0  0  0  0  0  0  0  0  0  0
    0.9873   -2.0397    3.8388 C   0  0  0  0  0  0  0  0  0  0  0  0
   -0.3169   -2.4564    4.0597 C   0  0  0  0  0  0  0  0  0  0  0  0
    0.5172   -1.1196    0.9803 C   0  0  0  0  0  0  0  0  0  0  0  0
    0.8456   -1.1192   -1.8514 C   0  0  0  0  0  0  0  0  0  0  0  0
    1.9851    2.2123    0.1173 N   0  0  0  0  0  0  0  0  0  0  0  0
   -2.6782    1.0454   -0.0312 N   0  0  0  0  0  0  0  0  0  0  0  0
   -1.2738   -1.8654    5.5795 Br  0  0  0  0  0  0  0  0  0  0  0  0
   -1.3658   -2.9403    0.6736 H   0  0  0  0  0  0  0  0  0  0  0  0
   -2.7712   -3.5883    0.0391 H   0  0  0  0  0  0  0  0  0  0  0  0
   -0.9192   -5.0021   -1.0608 H   0  0  0  0  0  0  0  0  0  0  0  0
   -1.2802   -3.6817   -2.2074 H   0  0  0  0  0  0  0  0  0  0  0  0
    1.0362   -3.5787   -1.7819 H   0  0  0  0  0  0  0  0  0  0  0  0
    0.1130   -2.5722   -0.7728 H   0  0  0  0  0  0  0  0  0  0  0  0
   -0.7792   -4.6702    1.4727 H   0  0  0  0  0  0  0  0  0  0  0  0
   -2.0160   -3.4695    3.2145 H   0  0  0  0  0  0  0  0  0  0  0  0
    2.5444   -1.9580    2.4530 H   0  0  0  0  0  0  0  0  0  0  0  0
    1.3649   -1.1560    4.3801 H   0  0  0  0  0  0  0  0  0  0  0  0
   -0.2583   -1.7780    1.3200 H   0  0  0  0  0  0  0  0  0  0  0  0
    1.5377   -1.4667    0.9667 H   0  0  0  0  0  0  0  0  0  0  0  0
    0.4089   -0.3718    1.7910 H   0  0  0  0  0  0  0  0  0  0  0  0
    0.9910   -0.3227   -2.5858 H   0  0  0  0  0  0  0  0  0  0  0  0
    1.8192   -1.6356   -1.7491 H   0  0  0  0  0  0  0  0  0  0  0  0
    0.1127   -1.7098   -2.4034 H   0  0  0  0  0  0  0  0  0  0  0  0
    2.8449    1.6682   -0.0173 H   0  0  0  0  0  0  0  0  0  0  0  0
    1.9745    3.1902   -0.0142 H   0  0  0  0  0  0  0  0  0  0  0  0
   -3.0047    1.9928    0.0056 H   0  0  0  0  0  0  0  0  0  0  0  0
   -3.3110    0.2571   -0.0290 H   0  0  0  0  0  0  0  0  0  0  0  0
  1  2  1  0  0  0  0
  1  6  1  0  0  0  0
  1 18  1  0  0  0  0
  1 19  1  0  0  0  0
  2  3  2  0  0  0  0
  3  4  1  0  0  0  0
  3 20  1  0  0  0  0
  4  5  2  0  0  0  0
  5  6  1  0  0  0  0
  5 21  1  0  0  0  0
  6  7  1  0  0  0  0
  7  8  1  0  0  0  0
  8  9  1  0  0  0  0
  8 23  1  0  0  0  0
  8 24  1  0  0  0  0
  9 10  1  0  0  0  0
  9 25  1  0  0  0  0
  9 26  1  0  0  0  0
 10 11  1  0  0  0  0
 10 27  1  0  0  0  0
 10 28  1  0  0  0  0
 11 12  1  0  0  0  0
 12 13  2  0  0  0  0
 12 15  1  0  0  0  0
 13 14  1  0  0  0  0
 13 29  1  0  0  0  0
 14 17  2  0  0  0  0
 14 30  1  0  0  0  0
 15 16  2  0  0  0  0
 15 31  1  0  0  0  0
 16 17  1  0  0  0  0
 16 32  1  0  0  0  0
 17 22  1  0  0  0  0
 18 33  1  0  0  0  0
 18 34  1  0  0  0  0
 18 35  1  0  0  0  0
 19 36  1  0  0  0  0
 19 37  1  0  0  0  0
 19 38  1  0  0  0  0
 20 39  1  0  0  0  0
 20 40  1  0  0  0  0
 21 41  1  0  0  0  0
 21 42  1  0  0  0  0
M  END
>  <DRUGBANK_ID>
DB04007

>  <SECONDARY_ACCESSION_NUMBERS>
EXPT03244

>  <COMMON_NAME>
Bromo-WR99210

>  <UNII>
8S51TS26BA

$$$$
