
 OpenBabel10282417233D

 58 61  0  0  0  0  0  0  0  0999 V2000
    1.2648   -0.0898   -0.0975 C   0  0  0  0  0  0  0  0  0  0  0  0
    0.5559   -1.4233    0.1344 C   0  0  0  0  0  0  0  0  0  0  0  0
    1.0433   -1.9544    1.4842 C   0  0  0  0  0  0  0  0  0  0  0  0
   -0.9562   -1.3580    0.1496 C   0  0  0  0  0  0  0  0  0  0  0  0
   -1.7664   -0.2424    0.2867 C   0  0  0  0  0  0  0  0  0  0  0  0
   -1.4588    1.2207    0.2038 C   0  0  0  0  0  0  0  0  0  0  0  0
   -1.8150    1.8165   -1.1529 C   0  0  0  0  0  0  0  0  0  0  0  0
   -3.2783    1.9540   -1.3093 C   0  0  0  0  0  0  0  0  0  0  0  0
   -4.1287    0.9564   -1.5678 N   0  0  0  0  0  0  0  0  0  0  0  0
   -5.4032    1.4952   -1.3624 O   0  0  0  0  0  0  0  0  0  0  0  0
   -5.2896    2.8454   -1.2094 C   0  0  0  0  0  0  0  0  0  0  0  0
   -6.2965    3.8022   -1.1183 C   0  0  0  0  0  0  0  0  0  0  0  0
   -5.8698    5.1562   -1.1256 C   0  0  0  0  0  0  0  0  0  0  0  0
   -6.9042    6.0601   -1.0880 O   0  0  0  0  0  0  0  0  0  0  0  0
   -6.6306    7.4576   -0.9800 C   0  0  0  0  0  0  0  0  0  0  0  0
   -5.9369    7.9338    0.3213 C   0  0  0  0  0  0  0  0  0  0  0  0
   -4.8784    8.7756    0.2376 O   0  0  0  0  0  0  0  0  0  0  0  0
   -6.3157    7.5702    1.4393 O   0  0  0  0  0  0  0  0  0  0  0  0
   -4.4929    5.4542   -1.1887 C   0  0  0  0  0  0  0  0  0  0  0  0
   -3.7938    6.7477   -1.3577 C   0  0  0  0  0  0  0  0  0  0  0  0
   -3.5337    4.4560   -1.1046 C   0  0  0  0  0  0  0  0  0  0  0  0
   -3.9540    3.1556   -1.1911 C   0  0  0  0  0  0  0  0  0  0  0  0
   -3.3578   -0.7728    0.7044 S   0  0  0  0  0  0  0  0  0  0  0  0
   -2.9614   -2.3564    0.2122 C   0  0  0  0  0  0  0  0  0  0  0  0
   -1.6651   -2.5645    0.0701 N   0  0  0  0  0  0  0  0  0  0  0  0
   -4.0122   -3.3779    0.1442 C   0  0  0  0  0  0  0  0  0  0  0  0
   -4.0628   -4.3587    1.1391 C   0  0  0  0  0  0  0  0  0  0  0  0
   -4.9085   -5.4611    1.0078 C   0  0  0  0  0  0  0  0  0  0  0  0
   -5.7980   -5.5535   -0.0719 C   0  0  0  0  0  0  0  0  0  0  0  0
   -5.8661   -4.4899   -0.9831 C   0  0  0  0  0  0  0  0  0  0  0  0
   -4.9462   -3.4333   -0.9048 C   0  0  0  0  0  0  0  0  0  0  0  0
   -6.6080   -6.8122   -0.2620 C   0  0  0  0  0  0  0  0  0  0  0  0
   -5.8151   -7.9064   -0.4472 F   0  0  0  0  0  0  0  0  0  0  0  0
   -7.3941   -7.1016    0.8108 F   0  0  0  0  0  0  0  0  0  0  0  0
   -7.4397   -6.7737   -1.3398 F   0  0  0  0  0  0  0  0  0  0  0  0
    1.1349    0.5560    0.7804 H   0  0  0  0  0  0  0  0  0  0  0  0
    0.8930    0.4059   -1.0011 H   0  0  0  0  0  0  0  0  0  0  0  0
    2.3463   -0.1924   -0.1997 H   0  0  0  0  0  0  0  0  0  0  0  0
    0.8620   -2.1056   -0.6673 H   0  0  0  0  0  0  0  0  0  0  0  0
    0.6846   -1.3167    2.3032 H   0  0  0  0  0  0  0  0  0  0  0  0
    0.6767   -2.9677    1.6687 H   0  0  0  0  0  0  0  0  0  0  0  0
    2.1367   -1.9647    1.5222 H   0  0  0  0  0  0  0  0  0  0  0  0
   -1.8956    1.7607    1.0505 H   0  0  0  0  0  0  0  0  0  0  0  0
   -0.4073    1.4472    0.3064 H   0  0  0  0  0  0  0  0  0  0  0  0
   -1.3443    2.8146   -1.1710 H   0  0  0  0  0  0  0  0  0  0  0  0
   -1.3665    1.2887   -1.9993 H   0  0  0  0  0  0  0  0  0  0  0  0
   -7.3394    3.5046   -1.1065 H   0  0  0  0  0  0  0  0  0  0  0  0
   -6.2066    7.8182   -1.9234 H   0  0  0  0  0  0  0  0  0  0  0  0
   -7.6008    7.9685   -0.9791 H   0  0  0  0  0  0  0  0  0  0  0  0
   -4.4360    8.9704   -0.6098 H   0  0  0  0  0  0  0  0  0  0  0  0
   -3.2865    6.9894   -0.4177 H   0  0  0  0  0  0  0  0  0  0  0  0
   -3.0720    6.7236   -2.1767 H   0  0  0  0  0  0  0  0  0  0  0  0
   -4.4527    7.5146   -1.6908 H   0  0  0  0  0  0  0  0  0  0  0  0
   -2.4759    4.7051   -1.1104 H   0  0  0  0  0  0  0  0  0  0  0  0
   -3.4144   -4.2765    2.0082 H   0  0  0  0  0  0  0  0  0  0  0  0
   -4.8480   -6.2657    1.7387 H   0  0  0  0  0  0  0  0  0  0  0  0
   -6.6091   -4.5007   -1.7810 H   0  0  0  0  0  0  0  0  0  0  0  0
   -4.9510   -2.6732   -1.6855 H   0  0  0  0  0  0  0  0  0  0  0  0
  1  2  1  0  0  0  0
  1 36  1  0  0  0  0
  1 37  1  0  0  0  0
  1 38  1  0  0  0  0
  2  3  1  0  0  0  0
  2  4  1  0  0  0  0
  2 39  1  0  0  0  0
  3 40  1  0  0  0  0
  3 41  1  0  0  0  0
  3 42  1  0  0  0  0
  4  5  2  0  0  0  0
  4 25  1  0  0  0  0
  5  6  1  0  0  0  0
  5 23  1  0  0  0  0
  6  7  1  0  0  0  0
  6 43  1  0  0  0  0
  6 44  1  0  0  0  0
  7  8  1  0  0  0  0
  7 45  1  0  0  0  0
  7 46  1  0  0  0  0
  8  9  2  0  0  0  0
  8 22  1  0  0  0  0
  9 10  1  0  0  0  0
 10 11  1  0  0  0  0
 11 12  2  0  0  0  0
 11 22  1  0  0  0  0
 12 13  1  0  0  0  0
 12 47  1  0  0  0  0
 13 14  1  0  0  0  0
 13 19  2  0  0  0  0
 14 15  1  0  0  0  0
 15 16  1  0  0  0  0
 15 48  1  0  0  0  0
 15 49  1  0  0  0  0
 16 17  1  0  0  0  0
 16 18  2  0  0  0  0
 17 50  1  0  0  0  0
 19 20  1  0  0  0  0
 19 21  1  0  0  0  0
 20 51  1  0  0  0  0
 20 52  1  0  0  0  0
 20 53  1  0  0  0  0
 21 22  2  0  0  0  0
 21 54  1  0  0  0  0
 23 24  1  0  0  0  0
 24 25  2  0  0  0  0
 24 26  1  0  0  0  0
 26 27  2  0  0  0  0
 26 31  1  0  0  0  0
 27 28  1  0  0  0  0
 27 55  1  0  0  0  0
 28 29  2  0  0  0  0
 28 56  1  0  0  0  0
 29 30  1  0  0  0  0
 29 32  1  0  0  0  0
 30 31  2  0  0  0  0
 30 57  1  0  0  0  0
 31 58  1  0  0  0  0
 32 33  1  0  0  0  0
 32 34  1  0  0  0  0
 32 35  1  0  0  0  0
M  END
>  <DRUGBANK_ID>
DB16169

>  <COMMON_NAME>
Fonadelpar

>  <CAS_NUMBER>
515138-06-4

>  <UNII>
FK5ZAD810Z

>  <SYNONYMS>
Fonadelpar

$$$$
