555
 OpenBabel10282417103D

 23 24  0  0  0  0  0  0  0  0999 V2000
    1.4189    1.5373    0.1111 Cl  0  0  0  0  0  0  0  0  0  0  0  0
    1.3361   -1.6513    0.0168 Cl  0  0  0  0  0  0  0  0  0  0  0  0
   -1.9927    3.5441    0.8524 N   0  0  0  0  0  0  0  0  0  0  0  0
   -0.8367    4.9364   -1.2516 N   0  0  0  0  0  0  0  0  0  0  0  0
   -0.2666    2.9555   -2.3303 N   0  0  0  0  0  0  0  0  0  0  0  0
   -2.0461    4.9022    0.7902 N   0  0  0  0  0  0  0  0  0  0  0  0
   -1.5855    6.9136   -0.3123 N   0  0  0  0  0  0  0  0  0  0  0  0
   -1.3200    1.4157   -0.0180 C   0  0  0  0  0  0  0  0  0  0  0  0
   -1.3671    2.8778   -0.1405 C   0  0  0  0  0  0  0  0  0  0  0  0
   -0.1048    0.6929    0.0412 C   0  0  0  0  0  0  0  0  0  0  0  0
   -2.5277    0.6898    0.0048 C   0  0  0  0  0  0  0  0  0  0  0  0
   -0.7937    3.5945   -1.1974 C   0  0  0  0  0  0  0  0  0  0  0  0
   -0.1164   -0.7106    0.0470 C   0  0  0  0  0  0  0  0  0  0  0  0
   -2.5315   -0.7050    0.0463 C   0  0  0  0  0  0  0  0  0  0  0  0
   -1.3275   -1.4035    0.0516 C   0  0  0  0  0  0  0  0  0  0  0  0
   -1.4784    5.5537   -0.2479 C   0  0  0  0  0  0  0  0  0  0  0  0
    0.2748    3.6262   -2.8684 H   0  0  0  0  0  0  0  0  0  0  0  0
    0.2473    2.1053   -2.1337 H   0  0  0  0  0  0  0  0  0  0  0  0
   -1.0899    7.3834   -1.0517 H   0  0  0  0  0  0  0  0  0  0  0  0
   -1.9796    7.3992    0.4769 H   0  0  0  0  0  0  0  0  0  0  0  0
   -3.4812    1.2188   -0.0257 H   0  0  0  0  0  0  0  0  0  0  0  0
   -3.4747   -1.2469    0.0617 H   0  0  0  0  0  0  0  0  0  0  0  0
   -1.3365   -2.4907    0.0628 H   0  0  0  0  0  0  0  0  0  0  0  0
  1 10  1  0  0  0  0
  2 13  1  0  0  0  0
  3  6  2  0  0  0  0
  3  9  1  0  0  0  0
  4 12  1  0  0  0  0
  4 16  2  0  0  0  0
  5 12  1  0  0  0  0
  5 17  1  0  0  0  0
  5 18  1  0  0  0  0
  6 16  1  0  0  0  0
  7 16  1  0  0  0  0
  7 19  1  0  0  0  0
  7 20  1  0  0  0  0
  8  9  1  0  0  0  0
  8 10  2  0  0  0  0
  8 11  1  0  0  0  0
  9 12  2  0  0  0  0
 10 13  1  0  0  0  0
 11 14  2  0  0  0  0
 11 21  1  0  0  0  0
 13 15  2  0  0  0  0
 14 15  1  0  0  0  0
 14 22  1  0  0  0  0
 15 23  1  0  0  0  0
M  END
>  <DRUGBANK_ID>
DB00555

>  <SECONDARY_ACCESSION_NUMBERS>
APRD00570

>  <COMMON_NAME>
Lamotrigine

>  <CAS_NUMBER>
84057-84-1

>  <UNII>
U3H27498KS

>  <SYNONYMS>
3,5-diamino-6-(2,3-dichlorophenyl)-1,2,4-triazine; Lamotrigina; Lamotrigine; Lamotriginum

$$$$
