
 OpenBabel10282417183D

 29 30  0  0  0  0  0  0  0  0999 V2000
    0.9203   -0.0806    0.0895 C   0  0  0  0  0  0  0  0  0  0  0  0
    0.4247   -0.7237    1.3722 C   0  0  0  0  0  0  0  0  0  0  0  0
   -0.9247   -0.6758    3.5517 C   0  0  0  0  0  0  0  0  0  0  0  0
    0.4935    1.2663   -0.0487 O   0  0  0  0  0  0  0  0  0  0  0  0
    0.8561   -2.1622    1.5191 C   0  0  0  0  0  0  0  0  0  0  0  0
   -0.3937    0.0277    4.7002 N   0  0  0  0  0  0  0  0  0  0  0  0
   -2.2778    2.4511    6.7459 C   0  0  0  0  0  0  0  0  0  0  0  0
   -1.2355    1.9834    5.9556 C   0  0  0  0  0  0  0  0  0  0  0  0
   -0.3174    2.9936    5.7304 N   0  0  0  0  0  0  0  0  0  0  0  0
   -1.9979    3.7644    6.9680 N   0  0  0  0  0  0  0  0  0  0  0  0
   -0.8182    4.0515    6.3409 C   0  0  0  0  0  0  0  0  0  0  0  0
   -3.3510    1.7787    7.1790 N   0  0  0  0  0  0  0  0  0  0  0  0
   -3.3340    0.5140    6.7200 C   0  0  0  0  0  0  0  0  0  0  0  0
   -1.3373    0.6500    5.5094 C   0  0  0  0  0  0  0  0  0  0  0  0
   -0.3448   -0.0940    2.2892 C   0  0  0  0  0  0  0  0  0  0  0  0
   -2.4245   -0.0657    5.9098 N   0  0  0  0  0  0  0  0  0  0  0  0
    0.5499   -0.6326   -0.7813 H   0  0  0  0  0  0  0  0  0  0  0  0
    2.0153   -0.0915    0.0552 H   0  0  0  0  0  0  0  0  0  0  0  0
   -2.0175   -0.6251    3.4625 H   0  0  0  0  0  0  0  0  0  0  0  0
   -0.6816   -1.7284    3.6856 H   0  0  0  0  0  0  0  0  0  0  0  0
    0.8453    1.7505    0.7167 H   0  0  0  0  0  0  0  0  0  0  0  0
    0.4825   -2.7599    0.6816 H   0  0  0  0  0  0  0  0  0  0  0  0
    1.9472   -2.2295    1.5497 H   0  0  0  0  0  0  0  0  0  0  0  0
    0.4906   -2.6434    2.4268 H   0  0  0  0  0  0  0  0  0  0  0  0
    0.4971    0.4971    4.6060 H   0  0  0  0  0  0  0  0  0  0  0  0
   -2.5903    4.4060    7.4814 H   0  0  0  0  0  0  0  0  0  0  0  0
   -0.3843    5.0418    6.3552 H   0  0  0  0  0  0  0  0  0  0  0  0
   -4.1531   -0.1238    7.0367 H   0  0  0  0  0  0  0  0  0  0  0  0
   -0.6641    0.9299    2.0963 H   0  0  0  0  0  0  0  0  0  0  0  0
  1 17  1  0  0  0  0
  1 18  1  0  0  0  0
  2  1  1  0  0  0  0
  3 15  1  0  0  0  0
  3 19  1  0  0  0  0
  3 20  1  0  0  0  0
  4  1  1  0  0  0  0
  4 21  1  0  0  0  0
  5  2  1  0  0  0  0
  5 22  1  0  0  0  0
  5 23  1  0  0  0  0
  5 24  1  0  0  0  0
  6  3  1  0  0  0  0
  6 25  1  0  0  0  0
  8  7  1  0  0  0  0
  9  8  1  0  0  0  0
 10  7  1  0  0  0  0
 10 26  1  0  0  0  0
 11  9  2  0  0  0  0
 11 10  1  0  0  0  0
 11 27  1  0  0  0  0
 12  7  2  0  0  0  0
 13 12  1  0  0  0  0
 13 16  2  0  0  0  0
 13 28  1  0  0  0  0
 14  6  1  0  0  0  0
 14  8  2  0  0  0  0
 14 16  1  0  0  0  0
 15  2  2  0  0  0  0
 15 29  1  0  0  0  0
M  END
>  <DRUGBANK_ID>
DB11337

>  <COMMON_NAME>
Zeatin

>  <CAS_NUMBER>
1637-39-4

>  <UNII>
7I6OOJ9GR6

>  <SYNONYMS>
(E)-2-methyl-4-(1H-purin-6-ylamino)-2-buten-1-ol; (E)-2-methyl-4-(1H-purin-6-ylamino)but-2-en-1-ol; (E)-2-methyl-4-(purin-6-ylamino)-2-buten-1-ol; (E)-zeatin; N6-(4-Hydroxyisopentenyl)adenine; trans-Zeatin

$$$$
