
 OpenBabel10282417203D

 53 54  0  0  0  0  0  0  0  0999 V2000
    0.7077   -0.1292   -0.0827 C   0  0  0  0  0  0  0  0  0  0  0  0
    0.2900    1.3221    0.1409 C   0  0  0  0  0  0  0  0  0  0  0  0
    0.9316    2.2838   -0.7690 N   0  0  0  0  0  0  0  0  0  0  0  0
    0.3067    3.6200   -0.7468 C   0  0  0  0  0  0  0  0  0  0  0  0
    0.5531    4.3806    0.5222 C   0  0  0  0  0  0  0  0  0  0  0  0
    2.4141    2.3030   -0.7251 C   0  0  0  0  0  0  0  0  0  0  0  0
    3.1985    2.6818    0.5801 C   0  0  0  0  0  0  0  0  0  0  0  0
    2.8069    1.9407    1.8388 C   0  0  0  0  0  0  0  0  0  0  0  0
    2.1563    2.4408    2.9154 C   0  0  0  0  0  0  0  0  0  0  0  0
    1.6627    1.4858    3.9128 C   0  0  0  0  0  0  0  0  0  0  0  0
    0.8381    1.8923    4.9567 C   0  0  0  0  0  0  0  0  0  0  0  0
    0.2553    0.9577    5.7878 C   0  0  0  0  0  0  0  0  0  0  0  0
    0.7329   -0.3498    5.8117 C   0  0  0  0  0  0  0  0  0  0  0  0
    1.5808   -0.7757    4.7875 C   0  0  0  0  0  0  0  0  0  0  0  0
    1.9551    0.1322    3.7972 C   0  0  0  0  0  0  0  0  0  0  0  0
    2.6658   -0.3562    2.6992 O   0  0  0  0  0  0  0  0  0  0  0  0
    3.1899    0.4947    1.7475 C   0  0  0  0  0  0  0  0  0  0  0  0
    3.8946    0.0726    0.8554 O   0  0  0  0  0  0  0  0  0  0  0  0
    2.2235   -2.3820    4.7696 Cl  0  0  0  0  0  0  0  0  0  0  0  0
    0.4665   -1.2262    6.8281 O   0  0  0  0  0  0  0  0  0  0  0  0
   -0.2697   -0.7192    7.9282 C   0  0  0  0  0  0  0  0  0  0  0  0
    0.2368    0.5231    8.6742 C   0  0  0  0  0  0  0  0  0  0  0  0
   -0.4550    1.5227    8.8372 O   0  0  0  0  0  0  0  0  0  0  0  0
    1.5316    0.4011    9.0735 O   0  0  0  0  0  0  0  0  0  0  0  0
    2.0905    1.5650    9.7114 C   0  0  0  0  0  0  0  0  0  0  0  0
    2.3003    2.7049    8.7245 C   0  0  0  0  0  0  0  0  0  0  0  0
    1.7508    3.8765    3.1760 C   0  0  0  0  0  0  0  0  0  0  0  0
    0.2761   -0.5304   -0.9999 H   0  0  0  0  0  0  0  0  0  0  0  0
    0.3964   -0.7451    0.7685 H   0  0  0  0  0  0  0  0  0  0  0  0
    1.7829   -0.2617   -0.1757 H   0  0  0  0  0  0  0  0  0  0  0  0
   -0.8018    1.3678    0.0509 H   0  0  0  0  0  0  0  0  0  0  0  0
    0.4700    1.5778    1.1820 H   0  0  0  0  0  0  0  0  0  0  0  0
    0.6766    4.2239   -1.5813 H   0  0  0  0  0  0  0  0  0  0  0  0
   -0.7780    3.5346   -0.8686 H   0  0  0  0  0  0  0  0  0  0  0  0
    1.5910    4.6964    0.5405 H   0  0  0  0  0  0  0  0  0  0  0  0
   -0.0115    5.2988    0.6750 H   0  0  0  0  0  0  0  0  0  0  0  0
    0.2832    3.7141    1.3336 H   0  0  0  0  0  0  0  0  0  0  0  0
    2.7741    1.3287   -1.0783 H   0  0  0  0  0  0  0  0  0  0  0  0
    2.7600    2.9772   -1.5212 H   0  0  0  0  0  0  0  0  0  0  0  0
    4.2651    2.5004    0.3971 H   0  0  0  0  0  0  0  0  0  0  0  0
    3.1824    3.7561    0.7423 H   0  0  0  0  0  0  0  0  0  0  0  0
    0.6063    2.9353    5.1554 H   0  0  0  0  0  0  0  0  0  0  0  0
   -0.5293    1.3246    6.4386 H   0  0  0  0  0  0  0  0  0  0  0  0
   -1.2924   -0.5159    7.5841 H   0  0  0  0  0  0  0  0  0  0  0  0
   -0.3546   -1.5225    8.6642 H   0  0  0  0  0  0  0  0  0  0  0  0
    1.4623    1.8730   10.5559 H   0  0  0  0  0  0  0  0  0  0  0  0
    3.0613    1.2698   10.1251 H   0  0  0  0  0  0  0  0  0  0  0  0
    1.3579    3.0392    8.2813 H   0  0  0  0  0  0  0  0  0  0  0  0
    2.7580    3.5674    9.2170 H   0  0  0  0  0  0  0  0  0  0  0  0
    2.9389    2.3825    7.8967 H   0  0  0  0  0  0  0  0  0  0  0  0
    0.6531    3.9768    3.2288 H   0  0  0  0  0  0  0  0  0  0  0  0
    2.1408    4.2479    4.1248 H   0  0  0  0  0  0  0  0  0  0  0  0
    2.1227    4.5730    2.4333 H   0  0  0  0  0  0  0  0  0  0  0  0
  1  2  1  0  0  0  0
  1 28  1  0  0  0  0
  1 29  1  0  0  0  0
  1 30  1  0  0  0  0
  2  3  1  0  0  0  0
  2 31  1  0  0  0  0
  2 32  1  0  0  0  0
  3  4  1  0  0  0  0
  3  6  1  0  0  0  0
  4  5  1  0  0  0  0
  4 33  1  0  0  0  0
  4 34  1  0  0  0  0
  5 35  1  0  0  0  0
  5 36  1  0  0  0  0
  5 37  1  0  0  0  0
  6  7  1  0  0  0  0
  6 38  1  0  0  0  0
  6 39  1  0  0  0  0
  7  8  1  0  0  0  0
  7 40  1  0  0  0  0
  7 41  1  0  0  0  0
  8  9  2  0  0  0  0
  8 17  1  0  0  0  0
  9 10  1  0  0  0  0
  9 27  1  0  0  0  0
 10 11  2  0  0  0  0
 10 15  1  0  0  0  0
 11 12  1  0  0  0  0
 11 42  1  0  0  0  0
 12 13  2  0  0  0  0
 12 43  1  0  0  0  0
 13 14  1  0  0  0  0
 13 20  1  0  0  0  0
 14 15  2  0  0  0  0
 14 19  1  0  0  0  0
 15 16  1  0  0  0  0
 16 17  1  0  0  0  0
 17 18  2  0  0  0  0
 20 21  1  0  0  0  0
 21 22  1  0  0  0  0
 21 44  1  0  0  0  0
 21 45  1  0  0  0  0
 22 23  2  0  0  0  0
 22 24  1  0  0  0  0
 24 25  1  0  0  0  0
 25 26  1  0  0  0  0
 25 46  1  0  0  0  0
 25 47  1  0  0  0  0
 26 48  1  0  0  0  0
 26 49  1  0  0  0  0
 26 50  1  0  0  0  0
 27 51  1  0  0  0  0
 27 52  1  0  0  0  0
 27 53  1  0  0  0  0
M  END
>  <DRUGBANK_ID>
DB13367

>  <COMMON_NAME>
Cloricromen

>  <CAS_NUMBER>
68206-94-0

>  <UNII>
B9454PE93C

>  <SYNONYMS>
Cloricromen

$$$$
