GVB
 OpenBabel10282417163D

 50 52  0  0  0  0  0  0  0  0999 V2000
    1.1428   -0.0657   -0.0487 C   0  0  0  0  0  0  0  0  0  0  0  0
    0.6539   -0.2562    1.2706 O   0  0  0  0  0  0  0  0  0  0  0  0
    0.9922   -1.4188    1.9092 C   0  0  0  0  0  0  0  0  0  0  0  0
    2.3051   -1.8937    1.9151 C   0  0  0  0  0  0  0  0  0  0  0  0
    2.6857   -2.9451    2.7627 C   0  0  0  0  0  0  0  0  0  0  0  0
    0.0398   -2.0452    2.7275 C   0  0  0  0  0  0  0  0  0  0  0  0
   -1.3066   -1.7611    2.7842 O   0  0  0  0  0  0  0  0  0  0  0  0
   -1.8537   -0.9556    1.7406 C   0  0  0  0  0  0  0  0  0  0  0  0
    0.4515   -3.0823    3.5947 C   0  0  0  0  0  0  0  0  0  0  0  0
    1.7709   -3.5657    3.6179 C   0  0  0  0  0  0  0  0  0  0  0  0
    2.1514   -4.6454    4.3881 N   0  0  0  0  0  0  0  0  0  0  0  0
    3.2370   -4.5842    5.3771 C   0  0  0  0  0  0  0  0  0  0  0  0
    1.4298   -5.9130    4.2990 C   0  0  0  0  0  0  0  0  0  0  0  0
    2.4343   -7.0178    3.9507 C   0  0  0  0  0  0  0  0  0  0  0  0
    3.5388   -7.1135    5.0102 C   0  0  2  0  0  0  0  0  0  0  0  0
    2.9368   -7.6411    6.2542 N   0  0  0  0  0  0  0  0  0  0  0  0
    4.2553   -5.7212    5.1369 C   0  0  2  0  0  0  0  0  0  0  0  0
    5.3659   -5.7580    6.1825 C   0  0  0  0  0  0  0  0  0  0  0  0
    5.0624   -5.9705    7.5327 C   0  0  0  0  0  0  0  0  0  0  0  0
    6.0503   -6.2545    8.4660 C   0  0  0  0  0  0  0  0  0  0  0  0
    7.3835   -6.2628    8.0663 C   0  0  0  0  0  0  0  0  0  0  0  0
    7.7224   -6.0076    6.7362 C   0  0  0  0  0  0  0  0  0  0  0  0
    6.7177   -5.7142    5.7994 C   0  0  0  0  0  0  0  0  0  0  0  0
    9.1473   -6.1579    6.2888 C   0  0  0  0  0  0  0  0  0  0  0  0
    4.7209   -5.5258    4.1576 H   0  0  0  0  0  0  0  0  0  0  0  0
    4.2788   -7.8570    4.6837 H   0  0  0  0  0  0  0  0  0  0  0  0
    0.7418    0.8912   -0.4015 H   0  0  0  0  0  0  0  0  0  0  0  0
    0.7745   -0.8482   -0.7190 H   0  0  0  0  0  0  0  0  0  0  0  0
    2.2316    0.0097   -0.0821 H   0  0  0  0  0  0  0  0  0  0  0  0
    3.0677   -1.4396    1.2925 H   0  0  0  0  0  0  0  0  0  0  0  0
    3.7152   -3.2910    2.7368 H   0  0  0  0  0  0  0  0  0  0  0  0
   -1.5714    0.0932    1.8758 H   0  0  0  0  0  0  0  0  0  0  0  0
   -1.5804   -1.3245    0.7439 H   0  0  0  0  0  0  0  0  0  0  0  0
   -2.9455   -0.9937    1.8051 H   0  0  0  0  0  0  0  0  0  0  0  0
   -0.2759   -3.4981    4.2900 H   0  0  0  0  0  0  0  0  0  0  0  0
    3.7484   -3.6136    5.3677 H   0  0  0  0  0  0  0  0  0  0  0  0
    2.7924   -4.6852    6.3747 H   0  0  0  0  0  0  0  0  0  0  0  0
    0.9359   -6.1270    5.2545 H   0  0  0  0  0  0  0  0  0  0  0  0
    0.6508   -5.8931    3.5294 H   0  0  0  0  0  0  0  0  0  0  0  0
    2.8965   -6.8040    2.9776 H   0  0  0  0  0  0  0  0  0  0  0  0
    1.9206   -7.9812    3.8476 H   0  0  0  0  0  0  0  0  0  0  0  0
    2.4601   -8.5221    6.0722 H   0  0  0  0  0  0  0  0  0  0  0  0
    3.6872   -7.8785    6.9046 H   0  0  0  0  0  0  0  0  0  0  0  0
    4.0248   -5.9889    7.8683 H   0  0  0  0  0  0  0  0  0  0  0  0
    5.7768   -6.5090    9.4827 H   0  0  0  0  0  0  0  0  0  0  0  0
    8.1486   -6.4913    8.8030 H   0  0  0  0  0  0  0  0  0  0  0  0
    6.9903   -5.5013    4.7694 H   0  0  0  0  0  0  0  0  0  0  0  0
    9.2059   -6.9495    5.5343 H   0  0  0  0  0  0  0  0  0  0  0  0
    9.5317   -5.2235    5.8734 H   0  0  0  0  0  0  0  0  0  0  0  0
    9.7905   -6.4568    7.1236 H   0  0  0  0  0  0  0  0  0  0  0  0
  1  2  1  0  0  0  0
  1 27  1  0  0  0  0
  1 28  1  0  0  0  0
  1 29  1  0  0  0  0
  2  3  1  0  0  0  0
  3  4  1  0  0  0  0
  3  6  2  0  0  0  0
  4  5  2  0  0  0  0
  4 30  1  0  0  0  0
  5 10  1  0  0  0  0
  5 31  1  0  0  0  0
  6  7  1  0  0  0  0
  6  9  1  0  0  0  0
  7  8  1  0  0  0  0
  8 32  1  0  0  0  0
  8 33  1  0  0  0  0
  8 34  1  0  0  0  0
  9 10  2  0  0  0  0
  9 35  1  0  0  0  0
 10 11  1  0  0  0  0
 11 12  1  0  0  0  0
 11 13  1  0  0  0  0
 12 17  1  0  0  0  0
 12 36  1  0  0  0  0
 12 37  1  0  0  0  0
 13 14  1  0  0  0  0
 13 38  1  0  0  0  0
 13 39  1  0  0  0  0
 14 15  1  0  0  0  0
 14 40  1  0  0  0  0
 14 41  1  0  0  0  0
 15 26  1  6  0  0  0
 15 16  1  0  0  0  0
 15 17  1  0  0  0  0
 16 42  1  0  0  0  0
 16 43  1  0  0  0  0
 17 25  1  6  0  0  0
 17 18  1  0  0  0  0
 18 19  1  0  0  0  0
 18 23  2  0  0  0  0
 19 20  2  0  0  0  0
 19 44  1  0  0  0  0
 20 21  1  0  0  0  0
 20 45  1  0  0  0  0
 21 22  2  0  0  0  0
 21 46  1  0  0  0  0
 22 23  1  0  0  0  0
 22 24  1  0  0  0  0
 23 47  1  0  0  0  0
 24 48  1  0  0  0  0
 24 49  1  0  0  0  0
 24 50  1  0  0  0  0
M  END
>  <DRUGBANK_ID>
DB07851

>  <COMMON_NAME>
(3R,4S)-1-(3,4-DIMETHOXYPHENYL)-3-(3-METHYLPHENYL)PIPERIDIN-4-AMINE

$$$$
