
 OpenBabel10282417193D

 16 16  0  0  0  0  0  0  0  0999 V2000
   -1.3773    1.6311    0.0096 C   0  0  0  0  0  0  0  0  0  0  0  0
    1.9370   -0.0890   -0.1278 C   0  0  0  0  0  0  0  0  0  0  0  0
    0.9884   -1.2563    0.1177 C   0  0  0  0  0  0  0  0  0  0  0  0
    1.1040    1.1678    0.0470 C   0  0  0  0  0  0  0  0  0  0  0  0
   -0.3870   -0.6569    0.0058 C   0  0  0  0  0  0  0  0  0  0  0  0
   -0.2593    0.7170   -0.0313 N   0  0  0  0  0  0  0  0  0  0  0  0
   -1.4292   -1.2942   -0.0084 O   0  0  0  0  0  0  0  0  0  0  0  0
   -1.3446    2.1931    0.9474 H   0  0  0  0  0  0  0  0  0  0  0  0
   -1.3048    2.3182   -0.8369 H   0  0  0  0  0  0  0  0  0  0  0  0
   -2.3231    1.0851   -0.0451 H   0  0  0  0  0  0  0  0  0  0  0  0
    2.7963   -0.1103    0.5508 H   0  0  0  0  0  0  0  0  0  0  0  0
    2.3335   -0.1417   -1.1485 H   0  0  0  0  0  0  0  0  0  0  0  0
    1.1158   -1.6731    1.1209 H   0  0  0  0  0  0  0  0  0  0  0  0
    1.1223   -2.0408   -0.6322 H   0  0  0  0  0  0  0  0  0  0  0  0
    1.2752    1.6424    1.0182 H   0  0  0  0  0  0  0  0  0  0  0  0
    1.2985    1.8913   -0.7513 H   0  0  0  0  0  0  0  0  0  0  0  0
  1  8  1  0  0  0  0
  1  9  1  0  0  0  0
  1 10  1  0  0  0  0
  2 11  1  0  0  0  0
  2 12  1  0  0  0  0
  3  2  1  0  0  0  0
  3 13  1  0  0  0  0
  3 14  1  0  0  0  0
  4  2  1  0  0  0  0
  4 15  1  0  0  0  0
  4 16  1  0  0  0  0
  5  3  1  0  0  0  0
  6  1  1  0  0  0  0
  6  4  1  0  0  0  0
  6  5  1  0  0  0  0
  7  5  2  0  0  0  0
M  END
>  <DRUGBANK_ID>
DB12521

>  <COMMON_NAME>
Methyl pyrrolidone

>  <CAS_NUMBER>
872-50-4

>  <UNII>
JR9CE63FPM

>  <SYNONYMS>
1-methyl-2-pyrrolidinone; 1-methyl-2-pyrrolidone; 1-methyl-5-pyrrolidinone; 1-methylpyrrolidinone; Methylpyrrolidone; N-methyl-2-pyrrolidone; N-methyl-pyrrolidone; N-methylpyrrolidone; NMP

$$$$
