
 OpenBabel10282417213D

 22 21  0  0  0  0  0  0  0  0999 V2000
    1.4460   -3.7339    2.2992 C   0  0  0  0  0  0  0  0  0  0  0  0
    0.4289   -2.6143    2.5922 C   0  0  1  0  0  0  0  0  0  0  0  0
   -1.0394   -2.9989    2.2967 C   0  0  1  0  0  0  0  0  0  0  0  0
   -1.5463   -2.7097    0.8691 C   0  0  1  0  0  0  0  0  0  0  0  0
   -3.0844   -2.8083    0.8571 C   0  0  0  0  0  0  0  0  0  0  0  0
    2.7278   -3.3873    2.8256 O   0  0  0  0  0  0  0  0  0  0  0  0
    0.4822   -2.2719    3.9936 O   0  0  0  0  0  0  0  0  0  0  0  0
   -1.2249   -4.3865    2.6226 O   0  0  0  0  0  0  0  0  0  0  0  0
   -1.2505   -1.3789    0.4223 O   0  0  0  0  0  0  0  0  0  0  0  0
   -3.5859   -2.4981   -0.4399 O   0  0  0  0  0  0  0  0  0  0  0  0
    1.1539   -4.6774    2.7698 H   0  0  0  0  0  0  0  0  0  0  0  0
    1.5553   -3.8902    1.2220 H   0  0  0  0  0  0  0  0  0  0  0  0
    0.7324   -1.7013    2.0736 H   0  0  0  0  0  0  0  0  0  0  0  0
   -1.6638   -2.4316    2.9984 H   0  0  0  0  0  0  0  0  0  0  0  0
   -1.1335   -3.4167    0.1396 H   0  0  0  0  0  0  0  0  0  0  0  0
   -3.4393   -3.8034    1.1374 H   0  0  0  0  0  0  0  0  0  0  0  0
   -3.5165   -2.0766    1.5505 H   0  0  0  0  0  0  0  0  0  0  0  0
    3.2561   -4.2032    2.8592 H   0  0  0  0  0  0  0  0  0  0  0  0
    0.3891   -3.1039    4.4874 H   0  0  0  0  0  0  0  0  0  0  0  0
   -2.1710   -4.5400    2.8057 H   0  0  0  0  0  0  0  0  0  0  0  0
   -0.2876   -1.2441    0.4223 H   0  0  0  0  0  0  0  0  0  0  0  0
   -3.1391   -1.6630   -0.6846 H   0  0  0  0  0  0  0  0  0  0  0  0
  1 11  1  0  0  0  0
  1 12  1  0  0  0  0
  2 13  1  6  0  0  0
  2  7  1  0  0  0  0
  2  1  1  0  0  0  0
  3 14  1  1  0  0  0
  3  8  1  0  0  0  0
  3  2  1  0  0  0  0
  4 15  1  6  0  0  0
  4  9  1  0  0  0  0
  4  3  1  0  0  0  0
  5  4  1  0  0  0  0
  5 10  1  0  0  0  0
  5 16  1  0  0  0  0
  5 17  1  0  0  0  0
  6  1  1  0  0  0  0
  6 18  1  0  0  0  0
  7 19  1  0  0  0  0
  8 20  1  0  0  0  0
  9 21  1  0  0  0  0
 10 22  1  0  0  0  0
M  END
>  <DRUGBANK_ID>
DB14704

>  <COMMON_NAME>
Ribitol

>  <CAS_NUMBER>
488-81-3

>  <UNII>
353ZQ9TVDA

>  <SYNONYMS>
(2R,3s,4S)-pentane-1,2,3,4,5-pentol; Adonitol; D-Adonitol; D-Ribitol; L-ribitol

$$$$
