
 OpenBabel10282417183D

 38 38  0  0  0  0  0  0  0  0999 V2000
    1.1184   -0.0353   -0.1374 C   0  0  0  0  0  0  0  0  0  0  0  0
    0.5743    1.3828    0.0994 C   0  0  0  0  0  0  0  0  0  0  0  0
    1.0605    2.3091   -0.9974 C   0  0  0  0  0  0  0  0  0  0  0  0
   -0.9489    1.3594    0.2654 C   0  0  0  0  0  0  0  0  0  0  0  0
   -1.3850    0.5026    1.4660 C   0  0  0  0  0  0  0  0  0  0  0  0
   -0.8832    1.0299    2.7221 O   0  0  0  0  0  0  0  0  0  0  0  0
    0.4004    0.8024    3.0898 C   0  0  0  0  0  0  0  0  0  0  0  0
    1.2571    0.1356    2.5178 O   0  0  0  0  0  0  0  0  0  0  0  0
    0.8194    1.4972    4.2945 C   0  0  0  0  0  0  0  0  0  0  0  0
   -0.0203    1.8905    5.2522 C   0  0  0  0  0  0  0  0  0  0  0  0
    0.4883    2.4615    6.4938 C   0  0  0  0  0  0  0  0  0  0  0  0
    1.5432    3.3796    6.4883 C   0  0  0  0  0  0  0  0  0  0  0  0
    1.9228    4.0264    7.6603 C   0  0  0  0  0  0  0  0  0  0  0  0
    1.2526    3.7644    8.8531 C   0  0  0  0  0  0  0  0  0  0  0  0
    0.2003    2.8440    8.8600 C   0  0  0  0  0  0  0  0  0  0  0  0
   -0.1494    2.1567    7.6961 C   0  0  0  0  0  0  0  0  0  0  0  0
    1.5461    4.3403   10.0591 O   0  0  0  0  0  0  0  0  0  0  0  0
    2.6961    5.1817   10.0828 C   0  0  0  0  0  0  0  0  0  0  0  0
    0.7843   -0.4308   -1.0978 H   0  0  0  0  0  0  0  0  0  0  0  0
    0.7797   -0.7691    0.5996 H   0  0  0  0  0  0  0  0  0  0  0  0
    2.2111   -0.0397   -0.0949 H   0  0  0  0  0  0  0  0  0  0  0  0
    0.9962    1.8369    0.9995 H   0  0  0  0  0  0  0  0  0  0  0  0
    0.7239    1.9750   -1.9797 H   0  0  0  0  0  0  0  0  0  0  0  0
    0.7123    3.3308   -0.8182 H   0  0  0  0  0  0  0  0  0  0  0  0
    2.1572    2.3278   -0.9844 H   0  0  0  0  0  0  0  0  0  0  0  0
   -1.3148    2.3836    0.4142 H   0  0  0  0  0  0  0  0  0  0  0  0
   -1.4149    0.9844   -0.6552 H   0  0  0  0  0  0  0  0  0  0  0  0
   -2.4810    0.5259    1.5210 H   0  0  0  0  0  0  0  0  0  0  0  0
   -1.1253   -0.5554    1.3529 H   0  0  0  0  0  0  0  0  0  0  0  0
    1.8983    1.5692    4.3961 H   0  0  0  0  0  0  0  0  0  0  0  0
   -1.0939    1.7759    5.1460 H   0  0  0  0  0  0  0  0  0  0  0  0
    2.0733    3.6204    5.5701 H   0  0  0  0  0  0  0  0  0  0  0  0
    2.7262    4.7507    7.5949 H   0  0  0  0  0  0  0  0  0  0  0  0
   -0.3647    2.6687    9.7716 H   0  0  0  0  0  0  0  0  0  0  0  0
   -0.9208    1.3904    7.7342 H   0  0  0  0  0  0  0  0  0  0  0  0
    3.5944    4.6461    9.7528 H   0  0  0  0  0  0  0  0  0  0  0  0
    2.5306    6.0787    9.4764 H   0  0  0  0  0  0  0  0  0  0  0  0
    2.8641    5.5014   11.1145 H   0  0  0  0  0  0  0  0  0  0  0  0
  1  2  1  0  0  0  0
  1 19  1  0  0  0  0
  1 20  1  0  0  0  0
  1 21  1  0  0  0  0
  2  3  1  0  0  0  0
  2  4  1  0  0  0  0
  2 22  1  0  0  0  0
  3 23  1  0  0  0  0
  3 24  1  0  0  0  0
  3 25  1  0  0  0  0
  4  5  1  0  0  0  0
  4 26  1  0  0  0  0
  4 27  1  0  0  0  0
  5  6  1  0  0  0  0
  5 28  1  0  0  0  0
  5 29  1  0  0  0  0
  6  7  1  0  0  0  0
  7  8  2  0  0  0  0
  7  9  1  0  0  0  0
  9 10  2  0  0  0  0
  9 30  1  0  0  0  0
 10 11  1  0  0  0  0
 10 31  1  0  0  0  0
 11 12  2  0  0  0  0
 11 16  1  0  0  0  0
 12 13  1  0  0  0  0
 12 32  1  0  0  0  0
 13 14  2  0  0  0  0
 13 33  1  0  0  0  0
 14 15  1  0  0  0  0
 14 17  1  0  0  0  0
 15 16  2  0  0  0  0
 15 34  1  0  0  0  0
 16 35  1  0  0  0  0
 17 18  1  0  0  0  0
 18 36  1  0  0  0  0
 18 37  1  0  0  0  0
 18 38  1  0  0  0  0
M  END
>  <DRUGBANK_ID>
DB11207

>  <COMMON_NAME>
Amiloxate

>  <CAS_NUMBER>
71617-10-2

>  <UNII>
376KTP06K8

>  <SYNONYMS>
3-(4-Methoxyphenyl)-2-propenoic acid, 3-methylbutyl ester; Amiloxate; Isoamyl p-methoxycinnamate; Isoamyl-p-methoxycinnamate

$$$$
