
 OpenBabel10282417183D

 45 46  0  0  0  0  0  0  0  0999 V2000
    1.1653    0.1000   -0.0146 C   0  0  0  0  0  0  0  0  0  0  0  0
    1.2883   -1.0345   -2.1243 C   0  0  0  0  0  0  0  0  0  0  0  0
    0.8167   -2.3291   -1.4834 C   0  0  0  0  0  0  0  0  0  0  0  0
   -1.7679   -0.9944   -0.8130 C   0  0  0  0  0  0  0  0  0  0  0  0
   -1.2349   -3.7595   -1.9857 C   0  0  0  0  0  0  0  0  0  0  0  0
   -2.3804   -2.4522   -1.9815 C   0  0  0  0  0  0  0  0  0  0  0  0
   -1.1166   -3.7428   -4.1216 C   0  0  0  0  0  0  0  0  0  0  0  0
   -3.5475   -0.8966   -1.4078 C   0  0  0  0  0  0  0  0  0  0  0  0
   -3.1567   -3.8658   -2.6657 C   0  0  0  0  0  0  0  0  0  0  0  0
   -2.6966   -3.9406   -0.8000 C   0  0  0  0  0  0  0  0  0  0  0  0
   -1.4279   -5.3105   -3.2861 C   0  0  0  0  0  0  0  0  0  0  0  0
   -1.2780    0.5451   -3.0284 C   0  0  0  0  0  0  0  0  0  0  0  0
    0.8039    0.2887   -1.4974 C   0  0  3  0  0  0  0  0  0  0  0  0
   -0.6313   -2.3961   -1.0208 C   0  0  0  0  0  0  0  0  0  0  0  0
   -1.6605   -2.2699   -3.5339 C   0  0  0  0  0  0  0  0  0  0  0  0
   -4.2793   -2.3738   -2.2642 C   0  0  0  0  0  0  0  0  0  0  0  0
   -2.2061   -5.4627   -1.6440 C   0  0  0  0  0  0  0  0  0  0  0  0
   -1.0793   -0.8920   -3.9723 C   0  0  3  0  0  0  0  0  0  0  0  0
   -0.5364    0.9136   -1.5956 N   0  0  0  0  0  0  0  0  0  0  0  0
   -5.5941   -2.5292   -1.8349 O   0  0  0  0  0  0  0  0  0  0  0  0
   -2.4736   -6.6248   -1.0695 O   0  0  0  0  0  0  0  0  0  0  0  0
   -1.5821   -0.7033   -5.2848 O   0  0  0  0  0  0  0  0  0  0  0  0
    0.7453   -0.8135    0.4439 H   0  0  0  0  0  0  0  0  0  0  0  0
    0.7928    0.9108    0.6023 H   0  0  0  0  0  0  0  0  0  0  0  0
    2.2499    0.0106    0.0418 H   0  0  0  0  0  0  0  0  0  0  0  0
    1.2088   -1.0414   -3.1906 H   0  0  0  0  0  0  0  0  0  0  0  0
    2.3775   -1.0708   -2.1082 H   0  0  0  0  0  0  0  0  0  0  0  0
    1.0683   -3.1693   -2.1733 H   0  0  0  0  0  0  0  0  0  0  0  0
    1.2924   -2.5637   -0.5436 H   0  0  0  0  0  0  0  0  0  0  0  0
   -1.2090   -0.8178   -1.7666 H   0  0  0  0  0  0  0  0  0  0  0  0
   -0.5251   -4.5050   -1.4525 H   0  0  0  0  0  0  0  0  0  0  0  0
   -2.8097   -2.3189   -1.0040 H   0  0  0  0  0  0  0  0  0  0  0  0
   -0.0834   -3.5993   -4.5469 H   0  0  0  0  0  0  0  0  0  0  0  0
   -3.9319    0.1014   -1.5915 H   0  0  0  0  0  0  0  0  0  0  0  0
   -3.9600   -4.6747   -2.2103 H   0  0  0  0  0  0  0  0  0  0  0  0
   -3.4497   -3.7395   -0.0202 H   0  0  0  0  0  0  0  0  0  0  0  0
   -0.5711   -5.9794   -3.4347 H   0  0  0  0  0  0  0  0  0  0  0  0
   -2.3824    0.6014   -2.9492 H   0  0  0  0  0  0  0  0  0  0  0  0
   -0.9656    1.3982   -3.6148 H   0  0  0  0  0  0  0  0  0  0  0  0
    1.3123    1.0978   -1.9916 H   0  0  0  0  0  0  0  0  0  0  0  0
   -0.0387   -0.9961   -4.1902 H   0  0  0  0  0  0  0  0  0  0  0  0
   -0.9514    0.6064   -0.6787 H   0  0  0  0  0  0  0  0  0  0  0  0
   -5.8669   -1.5942   -1.7340 H   0  0  0  0  0  0  0  0  0  0  0  0
   -3.1158   -6.2696   -0.4350 H   0  0  0  0  0  0  0  0  0  0  0  0
   -2.5159   -0.9340   -5.1876 H   0  0  0  0  0  0  0  0  0  0  0  0
  1 23  1  0  0  0  0
  1 24  1  0  0  0  0
  1 25  1  0  0  0  0
  2 26  1  0  0  0  0
  2 27  1  0  0  0  0
  3  2  1  0  0  0  0
  3 28  1  0  0  0  0
  3 29  1  0  0  0  0
  4 30  1  0  0  0  0
  5 31  1  0  0  0  0
  6 32  1  0  0  0  0
  7 33  1  0  0  0  0
  8  4  1  0  0  0  0
  8 34  1  0  0  0  0
  9  5  2  0  0  0  0
  9 35  1  0  0  0  0
 10  6  1  0  0  0  0
 10 36  1  0  0  0  0
 11  7  2  0  0  0  0
 11 37  1  0  0  0  0
 12 38  1  0  0  0  0
 12 39  1  0  0  0  0
 13  1  1  0  0  0  0
 13  2  1  0  0  0  0
 13 40  1  0  0  0  0
 14  3  1  0  0  0  0
 14  4  2  0  0  0  0
 14  5  1  0  0  0  0
 15  6  2  0  0  0  0
 15  7  1  0  0  0  0
 16  8  2  0  0  0  0
 16  9  1  0  0  0  0
 17 10  2  0  0  0  0
 17 11  1  0  0  0  0
 18 12  1  0  0  0  0
 18 15  1  0  0  0  0
 18 41  1  0  0  0  0
 19 12  1  0  0  0  0
 19 13  1  0  0  0  0
 19 42  1  0  0  0  0
 20 16  1  0  0  0  0
 20 43  1  0  0  0  0
 21 17  1  0  0  0  0
 21 44  1  0  0  0  0
 22 18  1  0  0  0  0
 22 45  1  0  0  0  0
M  END
>  <DRUGBANK_ID>
DB11541

>  <COMMON_NAME>
Ractopamine

>  <UNII>
57370OZ3P1

>  <SYNONYMS>
Ractopamine

$$$$
