
 OpenBabel10282417153D

 62 66  0  0  0  0  0  0  0  0999 V2000
   -0.9083    1.0492   -1.1351 N   0  0  0  0  0  0  0  0  0  0  0  0
   -1.9330    0.2606   -0.6330 C   0  0  0  0  0  0  0  0  0  0  0  0
   -1.9251   -1.0460   -0.3509 N   0  0  0  0  0  0  0  0  0  0  0  0
   -0.7120   -1.6612   -0.3666 C   0  0  0  0  0  0  0  0  0  0  0  0
    0.3282    0.4332   -1.1549 C   0  0  0  0  0  0  0  0  0  0  0  0
    0.4759   -0.8799   -0.6565 C   0  0  0  0  0  0  0  0  0  0  0  0
    1.8097   -1.0874   -0.3862 N   0  0  0  0  0  0  0  0  0  0  0  0
    2.4620    0.0455   -0.4697 C   0  0  0  0  0  0  0  0  0  0  0  0
    1.6676    1.1204   -0.9072 N   0  0  0  0  0  0  0  0  0  0  0  0
   -0.7477   -3.0401   -0.0528 N   0  0  0  0  0  0  0  0  0  0  0  0
    0.3640   -3.7915    0.0071 C   0  0  0  0  0  0  0  0  0  0  0  0
    0.2327   -5.1382    0.0259 N   0  0  0  0  0  0  0  0  0  0  0  0
    1.5327   -3.3522    0.0029 O   0  0  0  0  0  0  0  0  0  0  0  0
    1.4631   -5.9165   -0.0011 C   0  0  0  0  0  0  0  0  0  0  0  0
    1.5951   -6.7557    1.2426 C   0  0  0  0  0  0  0  0  0  0  0  0
    2.0222    2.5841   -0.2715 C   0  0  2  0  0  0  0  0  0  0  0  0
    1.5408    3.0185    1.1382 O   0  0  0  0  0  0  0  0  0  0  0  0
    0.2987    3.8056    1.0486 C   0  0  1  0  0  0  0  0  0  0  0  0
    1.6546    3.8341   -1.0454 C   0  0  1  0  0  0  0  0  0  0  0  0
    0.5222    4.5462   -0.2746 C   0  0  2  0  0  0  0  0  0  0  0  0
    1.0029    5.8563    0.0450 O   0  0  0  0  0  0  0  0  0  0  0  0
    2.4102    5.7176    0.0436 C   0  0  1  0  0  0  0  0  0  0  0  0
    2.7553    4.7744   -0.9738 O   0  0  0  0  0  0  0  0  0  0  0  0
    3.0294    7.0245   -0.2767 C   0  0  0  0  0  0  0  0  0  0  0  0
    3.9331    7.5698    0.5500 C   0  0  0  0  0  0  0  0  0  0  0  0
    4.7976    8.6762    0.1661 C   0  0  0  0  0  0  0  0  0  0  0  0
    4.3110    9.8531   -0.4037 C   0  0  0  0  0  0  0  0  0  0  0  0
    5.2009   10.8596   -0.7771 C   0  0  0  0  0  0  0  0  0  0  0  0
    6.5724   10.6928   -0.5773 C   0  0  0  0  0  0  0  0  0  0  0  0
    7.0603    9.5225   -0.0007 C   0  0  0  0  0  0  0  0  0  0  0  0
    6.1738    8.5177    0.3736 C   0  0  0  0  0  0  0  0  0  0  0  0
   -1.1116    3.0688    1.0395 C   0  0  0  0  0  0  0  0  0  0  0  0
   -1.3233    1.8428    1.8679 O   0  0  0  0  0  0  0  0  0  0  0  0
   -0.3819    4.6609   -0.8732 H   0  0  0  0  0  0  0  0  0  0  0  0
    1.4567    3.6002   -2.0884 H   0  0  0  0  0  0  0  0  0  0  0  0
    0.0437    0.8326    2.1896 P   0  0  0  0  0  0  0  0  0  0  0  0
   -0.9941   -0.3876    2.0624 O   0  0  0  0  0  0  0  0  0  0  0  0
    0.5057    1.2462    0.8453 O   0  0  0  0  0  0  0  0  0  0  0  0
    1.2672   -0.0716    2.4776 O   0  0  0  0  0  0  0  0  0  0  0  0
   -2.8308    0.7947   -0.2827 H   0  0  0  0  0  0  0  0  0  0  0  0
    3.4586    0.1682   -0.0605 H   0  0  0  0  0  0  0  0  0  0  0  0
   -1.6713   -3.4390    0.0667 H   0  0  0  0  0  0  0  0  0  0  0  0
   -0.6722   -5.5829   -0.0275 H   0  0  0  0  0  0  0  0  0  0  0  0
    1.4753   -6.5113   -0.9163 H   0  0  0  0  0  0  0  0  0  0  0  0
    2.3571   -5.2776   -0.0511 H   0  0  0  0  0  0  0  0  0  0  0  0
    0.7749   -7.4733    1.2954 H   0  0  0  0  0  0  0  0  0  0  0  0
    2.5467   -7.2941    1.2315 H   0  0  0  0  0  0  0  0  0  0  0  0
    1.5670   -6.1282    2.1409 H   0  0  0  0  0  0  0  0  0  0  0  0
    3.1143    2.4786   -0.1367 H   0  0  0  0  0  0  0  0  0  0  0  0
    0.2532    4.4623    1.9309 H   0  0  0  0  0  0  0  0  0  0  0  0
    2.7562    5.3530    1.0227 H   0  0  0  0  0  0  0  0  0  0  0  0
    2.7921    7.4597   -1.2423 H   0  0  0  0  0  0  0  0  0  0  0  0
    4.1627    7.0988    1.5029 H   0  0  0  0  0  0  0  0  0  0  0  0
    3.2445    9.9894   -0.5628 H   0  0  0  0  0  0  0  0  0  0  0  0
    4.8236   11.7729   -1.2278 H   0  0  0  0  0  0  0  0  0  0  0  0
    7.2641   11.4760   -0.8732 H   0  0  0  0  0  0  0  0  0  0  0  0
    8.1271    9.3860    0.1515 H   0  0  0  0  0  0  0  0  0  0  0  0
    6.5635    7.5980    0.8061 H   0  0  0  0  0  0  0  0  0  0  0  0
   -1.9842    3.7218    1.1549 H   0  0  0  0  0  0  0  0  0  0  0  0
   -1.2734    2.8186   -0.0106 H   0  0  0  0  0  0  0  0  0  0  0  0
   -1.2098   -0.7190    2.9521 H   0  0  0  0  0  0  0  0  0  0  0  0
   -0.2516    1.4612    0.3182 H   0  0  0  0  0  0  0  0  0  0  0  0
  1  2  2  0  0  0  0
  2  3  1  0  0  0  0
  2 40  1  0  0  0  0
  3  4  2  0  0  0  0
  4  6  1  0  0  0  0
  4 10  1  0  0  0  0
  5  6  2  0  0  0  0
  5  1  1  0  0  0  0
  6  7  1  0  0  0  0
  7  8  2  0  0  0  0
  8  9  1  0  0  0  0
  8 41  1  0  0  0  0
  9  5  1  0  0  0  0
 10 11  1  0  0  0  0
 10 42  1  0  0  0  0
 11 12  1  0  0  0  0
 11 13  2  0  0  0  0
 12 14  1  0  0  0  0
 12 43  1  0  0  0  0
 14 15  1  0  0  0  0
 14 44  1  0  0  0  0
 14 45  1  0  0  0  0
 15 46  1  0  0  0  0
 15 47  1  0  0  0  0
 15 48  1  0  0  0  0
 16  9  1  0  0  0  0
 16 17  1  0  0  0  0
 16 49  1  1  0  0  0
 17 18  1  0  0  0  0
 18 32  1  0  0  0  0
 18 20  1  0  0  0  0
 18 50  1  1  0  0  0
 19 23  1  0  0  0  0
 19 35  1  6  0  0  0
 19 16  1  0  0  0  0
 19 20  1  0  0  0  0
 20 21  1  0  0  0  0
 20 34  1  6  0  0  0
 21 22  1  0  0  0  0
 22 23  1  0  0  0  0
 22 51  1  1  0  0  0
 22 24  1  0  0  0  0
 24 25  2  0  0  0  0
 24 52  1  0  0  0  0
 25 26  1  0  0  0  0
 25 53  1  0  0  0  0
 26 27  2  0  0  0  0
 27 28  1  0  0  0  0
 27 54  1  0  0  0  0
 28 29  2  0  0  0  0
 28 55  1  0  0  0  0
 29 30  1  0  0  0  0
 29 56  1  0  0  0  0
 30 31  2  0  0  0  0
 30 57  1  0  0  0  0
 31 26  1  0  0  0  0
 31 58  1  0  0  0  0
 32 33  1  0  0  0  0
 32 59  1  0  0  0  0
 32 60  1  0  0  0  0
 33 36  1  0  0  0  0
 36 37  1  0  0  0  0
 36 38  1  0  0  0  0
 36 39  2  0  0  0  0
 37 61  1  0  0  0  0
 38 62  1  0  0  0  0
M  END
>  <DRUGBANK_ID>
DB05553

>  <COMMON_NAME>
Regrelor

>  <CAS_NUMBER>
787548-03-2

>  <UNII>
Q6C8TY6SW1

>  <SYNONYMS>
Regrelor

$$$$
