415
 OpenBabel10282417103D

 43 45  0  0  1  0  0  0  0  0999 V2000
   -2.2048   -6.1247    4.3705 S   0  0  0  0  0  0  0  0  0  0  0  0
   -2.2926   -1.7828    4.7402 O   0  0  0  0  0  0  0  0  0  0  0  0
   -3.9541   -2.6893    7.8377 O   0  0  0  0  0  0  0  0  0  0  0  0
   -5.1207   -4.5595    7.5578 O   0  0  0  0  0  0  0  0  0  0  0  0
   -0.0391   -4.2448    0.4998 O   0  0  0  0  0  0  0  0  0  0  0  0
   -3.4361   -3.8343    4.9014 N   0  0  0  0  0  0  0  0  0  0  0  0
   -1.2816   -3.8622    2.3006 N   0  0  0  0  0  0  0  0  0  0  0  0
   -2.1188   -3.5087   -1.3276 N   0  0  0  0  0  0  0  0  0  0  0  0
   -3.2190   -4.7886    3.7801 C   0  0  1  0  0  0  0  0  0  0  0  0
   -2.8950   -5.8512    6.0549 C   0  0  0  0  0  0  0  0  0  0  0  0
   -3.0767   -4.3146    6.2197 C   0  0  2  0  0  0  0  0  0  0  0  0
   -2.5082   -3.6937    3.0756 C   0  0  1  0  0  0  0  0  0  0  0  0
   -2.6662   -2.8652    4.3208 C   0  0  0  0  0  0  0  0  0  0  0  0
   -1.8334   -6.4115    6.9732 C   0  0  0  0  0  0  0  0  0  0  0  0
   -4.1991   -6.6554    6.0896 C   0  0  0  0  0  0  0  0  0  0  0  0
   -4.1332   -3.9009    7.2642 C   0  0  0  0  0  0  0  0  0  0  0  0
   -1.1851   -4.0845    0.9408 C   0  0  0  0  0  0  0  0  0  0  0  0
   -2.4507   -4.1448   -0.0368 C   0  0  1  0  0  0  0  0  0  0  0  0
   -3.7443   -3.4798    0.4124 C   0  0  0  0  0  0  0  0  0  0  0  0
   -3.7123   -2.1636    0.9480 C   0  0  0  0  0  0  0  0  0  0  0  0
   -4.9549   -4.1886    0.4092 C   0  0  0  0  0  0  0  0  0  0  0  0
   -4.7845   -1.7152    1.7236 C   0  0  0  0  0  0  0  0  0  0  0  0
   -6.0885   -3.6087    0.9793 C   0  0  0  0  0  0  0  0  0  0  0  0
   -5.9795   -2.4268    1.7161 C   0  0  0  0  0  0  0  0  0  0  0  0
   -4.1644   -5.0843    3.3044 H   0  0  0  0  0  0  0  0  0  0  0  0
   -3.2453   -2.1210    7.4820 H   0  0  0  0  0  0  0  0  0  0  0  0
   -0.3732   -3.7698    2.7488 H   0  0  0  0  0  0  0  0  0  0  0  0
   -1.4306   -2.7778   -1.1531 H   0  0  0  0  0  0  0  0  0  0  0  0
   -2.9542   -3.0145   -1.6513 H   0  0  0  0  0  0  0  0  0  0  0  0
   -2.1199   -3.8480    6.4957 H   0  0  0  0  0  0  0  0  0  0  0  0
   -3.2867   -3.4150    2.4492 H   0  0  0  0  0  0  0  0  0  0  0  0
   -2.1448   -6.3075    8.0119 H   0  0  0  0  0  0  0  0  0  0  0  0
   -1.6601   -7.4736    6.7647 H   0  0  0  0  0  0  0  0  0  0  0  0
   -0.8782   -5.8849    6.8450 H   0  0  0  0  0  0  0  0  0  0  0  0
   -4.0613   -7.6946    5.7779 H   0  0  0  0  0  0  0  0  0  0  0  0
   -4.5905   -6.7024    7.1072 H   0  0  0  0  0  0  0  0  0  0  0  0
   -4.9740   -6.2124    5.4471 H   0  0  0  0  0  0  0  0  0  0  0  0
   -2.6200   -5.2163   -0.2191 H   0  0  0  0  0  0  0  0  0  0  0  0
   -2.7462   -1.6664    1.0701 H   0  0  0  0  0  0  0  0  0  0  0  0
   -5.0168   -5.2004    0.0079 H   0  0  0  0  0  0  0  0  0  0  0  0
   -4.6406   -0.8861    2.4162 H   0  0  0  0  0  0  0  0  0  0  0  0
   -7.0547   -4.0968    0.8859 H   0  0  0  0  0  0  0  0  0  0  0  0
   -6.8222   -2.0719    2.3035 H   0  0  0  0  0  0  0  0  0  0  0  0
  1  9  1  0  0  0  0
  1 10  1  0  0  0  0
  2 13  2  0  0  0  0
  3 16  1  0  0  0  0
  3 26  1  0  0  0  0
  4 16  2  0  0  0  0
  5 17  2  0  0  0  0
  6  9  1  0  0  0  0
  6 11  1  0  0  0  0
  6 13  1  0  0  0  0
  7 17  1  0  0  0  0
  7 27  1  0  0  0  0
  8 28  1  0  0  0  0
  8 29  1  0  0  0  0
  9 12  1  0  0  0  0
  9 25  1  6  0  0  0
 10 11  1  0  0  0  0
 10 14  1  0  0  0  0
 10 15  1  0  0  0  0
 11 30  1  1  0  0  0
 11 16  1  0  0  0  0
 12 13  1  0  0  0  0
 12 31  1  6  0  0  0
 12  7  1  0  0  0  0
 14 32  1  0  0  0  0
 14 33  1  0  0  0  0
 14 34  1  0  0  0  0
 15 35  1  0  0  0  0
 15 36  1  0  0  0  0
 15 37  1  0  0  0  0
 18 19  1  0  0  0  0
 18 38  1  6  0  0  0
 18 17  1  0  0  0  0
 18  8  1  0  0  0  0
 19 20  2  0  0  0  0
 19 21  1  0  0  0  0
 20 22  1  0  0  0  0
 20 39  1  0  0  0  0
 21 23  2  0  0  0  0
 21 40  1  0  0  0  0
 22 24  2  0  0  0  0
 22 41  1  0  0  0  0
 23 24  1  0  0  0  0
 23 42  1  0  0  0  0
 24 43  1  0  0  0  0
M  END
>  <DRUGBANK_ID>
DB00415

>  <SECONDARY_ACCESSION_NUMBERS>
APRD00320

>  <COMMON_NAME>
Ampicillin

>  <CAS_NUMBER>
69-53-4

>  <UNII>
7C782967RD

>  <SYNONYMS>
ABPC; Aminobenzylpenicillin; Ampicilina; Ampicillin; Ampicillin (anhydrous); Ampicillin acid; Ampicillin anhydrous; Ampicillin, anhydrous; Ampicilline; Ampicillinum; Anhydrous ampicillin; AP; D-(−)-6-(α-aminophenylacetamido)penicillanic acid; D-(−)-ampicillin

$$$$
