
 OpenBabel10282417223D

 27 28  0  0  0  0  0  0  0  0999 V2000
    0.0030   -1.1167    0.3073 C   0  0  1  0  0  0  0  0  0  0  0  0
   -1.2566   -0.8091   -0.5671 C   0  0  0  0  0  0  0  0  0  0  0  0
   -2.5452   -1.3584    0.0429 C   0  0  0  0  0  0  0  0  0  0  0  0
   -1.1378   -1.3187   -2.0010 C   0  0  0  0  0  0  0  0  0  0  0  0
   -1.1923    0.7185   -0.4958 C   0  0  0  0  0  0  0  0  0  0  0  0
    0.0188    1.1289    0.3423 C   0  0  2  0  0  0  0  0  0  0  0  0
   -0.0061    2.5239    0.9144 C   0  0  0  0  0  0  0  0  0  0  0  0
    1.2644    0.7835   -0.4959 C   0  0  0  0  0  0  0  0  0  0  0  0
    1.2980   -0.7574   -0.4552 C   0  0  0  0  0  0  0  0  0  0  0  0
   -0.0154   -0.0044    1.3682 C   0  0  0  0  0  0  0  0  0  0  0  0
   -1.9726    1.4870   -1.0432 O   0  0  0  0  0  0  0  0  0  0  0  0
    0.0130   -2.1275    0.7222 H   0  0  0  0  0  0  0  0  0  0  0  0
   -3.4117   -1.0708   -0.5646 H   0  0  0  0  0  0  0  0  0  0  0  0
   -2.5125   -2.4539    0.0732 H   0  0  0  0  0  0  0  0  0  0  0  0
   -2.7310   -0.9965    1.0575 H   0  0  0  0  0  0  0  0  0  0  0  0
   -0.3218   -0.8463   -2.5544 H   0  0  0  0  0  0  0  0  0  0  0  0
   -0.9784   -2.4027   -2.0012 H   0  0  0  0  0  0  0  0  0  0  0  0
   -2.0438   -1.1005   -2.5743 H   0  0  0  0  0  0  0  0  0  0  0  0
   -0.8985    2.6872    1.5279 H   0  0  0  0  0  0  0  0  0  0  0  0
    0.8716    2.7022    1.5455 H   0  0  0  0  0  0  0  0  0  0  0  0
   -0.0088    3.2777    0.1201 H   0  0  0  0  0  0  0  0  0  0  0  0
    1.1858    1.1577   -1.5231 H   0  0  0  0  0  0  0  0  0  0  0  0
    2.1815    1.1837   -0.0510 H   0  0  0  0  0  0  0  0  0  0  0  0
    1.3639   -1.1997   -1.4520 H   0  0  0  0  0  0  0  0  0  0  0  0
    2.1813   -1.1053    0.0903 H   0  0  0  0  0  0  0  0  0  0  0  0
    0.8655   -0.0148    2.0202 H   0  0  0  0  0  0  0  0  0  0  0  0
   -0.9177   -0.0025    1.9883 H   0  0  0  0  0  0  0  0  0  0  0  0
  1  2  1  0  0  0  0
  1  9  1  0  0  0  0
  1 10  1  0  0  0  0
  1 12  1  1  0  0  0
  2  3  1  0  0  0  0
  2  4  1  0  0  0  0
  2  5  1  0  0  0  0
  3 13  1  0  0  0  0
  3 14  1  0  0  0  0
  3 15  1  0  0  0  0
  4 16  1  0  0  0  0
  4 17  1  0  0  0  0
  4 18  1  0  0  0  0
  5  6  1  0  0  0  0
  5 11  2  0  0  0  0
  6  7  1  1  0  0  0
  6  8  1  0  0  0  0
  6 10  1  0  0  0  0
  7 19  1  0  0  0  0
  7 20  1  0  0  0  0
  7 21  1  0  0  0  0
  8 22  1  0  0  0  0
  8 23  1  0  0  0  0
  9  8  1  0  0  0  0
  9 24  1  0  0  0  0
  9 25  1  0  0  0  0
 10 26  1  0  0  0  0
 10 27  1  0  0  0  0
M  END
>  <DRUGBANK_ID>
DB15918

>  <COMMON_NAME>
Fenchone

>  <CAS_NUMBER>
1195-79-5

>  <UNII>
4Q6W8568TG

>  <SYNONYMS>
(+/-)-Fenchone; DL-Fenchone; Fenchon

$$$$
