2PU
 OpenBabel10282417163D

 49 53  0  0  0  0  0  0  0  0999 V2000
   -0.4270    0.4691    0.2979 C   0  0  0  0  0  0  0  0  0  0  0  0
    1.0329    0.4675    0.5263 C   0  0  1  0  0  0  0  0  0  0  0  0
   -0.8006   -0.8661    0.0285 C   0  0  0  0  0  0  0  0  0  0  0  0
   -1.3241    1.5410    0.3060 C   0  0  0  0  0  0  0  0  0  0  0  0
    1.4728   -0.8456    0.2163 N   0  0  0  0  0  0  0  0  0  0  0  0
    1.8490    1.3029   -0.4291 C   0  0  0  0  0  0  0  0  0  0  0  0
    0.4350   -1.7197    0.0144 C   0  0  0  0  0  0  0  0  0  0  0  0
   -2.1059   -1.2029   -0.2573 C   0  0  0  0  0  0  0  0  0  0  0  0
   -2.6551    1.1932   -0.0002 C   0  0  0  0  0  0  0  0  0  0  0  0
   -0.9444    2.9275    0.5381 N   0  0  0  0  0  0  0  0  0  0  0  0
    2.9052   -0.8362    0.0101 C   0  0  0  0  0  0  0  0  0  0  0  0
    3.1451    0.5365   -0.6367 C   0  0  0  0  0  0  0  0  0  0  0  0
    0.4735   -2.9099   -0.1888 O   0  0  0  0  0  0  0  0  0  0  0  0
   -3.0394   -0.1575   -0.2647 C   0  0  0  0  0  0  0  0  0  0  0  0
    0.2247    3.3415    1.1905 C   0  0  0  0  0  0  0  0  0  0  0  0
    0.6630    4.6420    0.9510 N   0  0  0  0  0  0  0  0  0  0  0  0
    0.8751    2.6010    1.9214 O   0  0  0  0  0  0  0  0  0  0  0  0
    2.0148    4.9230    1.2837 C   0  0  0  0  0  0  0  0  0  0  0  0
    3.1472    4.4059    0.6062 C   0  0  0  0  0  0  0  0  0  0  0  0
    2.4179    5.8063    2.2079 N   0  0  0  0  0  0  0  0  0  0  0  0
    4.2802    4.9185    1.1996 C   0  0  0  0  0  0  0  0  0  0  0  0
    3.7838    5.7097    2.2044 N   0  0  0  0  0  0  0  0  0  0  0  0
    5.7264    4.7660    0.8249 C   0  0  2  0  0  0  0  0  0  0  0  0
    5.9892    5.2463   -0.6090 C   0  0  0  0  0  0  0  0  0  0  0  0
    6.1383    3.3510    0.8126 N   0  0  0  0  0  0  0  0  0  0  0  0
    6.9669    4.2551   -1.2232 C   0  0  0  0  0  0  0  0  0  0  0  0
    7.2678    3.2609   -0.1210 C   0  0  0  0  0  0  0  0  0  0  0  0
    1.2684    0.5568    1.5903 H   0  0  0  0  0  0  0  0  0  0  0  0
    6.3782    5.3076    1.5225 H   0  0  0  0  0  0  0  0  0  0  0  0
    2.0777    2.2643   -0.0154 H   0  0  0  0  0  0  0  0  0  0  0  0
    1.3252    1.4908   -1.3740 H   0  0  0  0  0  0  0  0  0  0  0  0
   -2.3883   -2.2275   -0.4838 H   0  0  0  0  0  0  0  0  0  0  0  0
   -3.4413    1.9454   -0.0298 H   0  0  0  0  0  0  0  0  0  0  0  0
   -1.6831    3.6119    0.4410 H   0  0  0  0  0  0  0  0  0  0  0  0
    3.2875   -1.6653   -0.5811 H   0  0  0  0  0  0  0  0  0  0  0  0
    3.3748   -0.8335    1.0034 H   0  0  0  0  0  0  0  0  0  0  0  0
    3.9797    1.0737   -0.1723 H   0  0  0  0  0  0  0  0  0  0  0  0
    3.3414    0.4727   -1.7102 H   0  0  0  0  0  0  0  0  0  0  0  0
   -4.0826   -0.3901   -0.4855 H   0  0  0  0  0  0  0  0  0  0  0  0
    0.0344    5.3463    1.3072 H   0  0  0  0  0  0  0  0  0  0  0  0
    3.1725    3.7876   -0.2707 H   0  0  0  0  0  0  0  0  0  0  0  0
    4.3135    6.2610    2.8752 H   0  0  0  0  0  0  0  0  0  0  0  0
    5.0799    5.2722   -1.2213 H   0  0  0  0  0  0  0  0  0  0  0  0
    6.4076    6.2582   -0.6132 H   0  0  0  0  0  0  0  0  0  0  0  0
    5.3728    2.7916    0.4402 H   0  0  0  0  0  0  0  0  0  0  0  0
    6.5073    3.7586   -2.0870 H   0  0  0  0  0  0  0  0  0  0  0  0
    7.8773    4.7517   -1.5758 H   0  0  0  0  0  0  0  0  0  0  0  0
    7.3909    2.2461   -0.5181 H   0  0  0  0  0  0  0  0  0  0  0  0
    8.2002    3.5258    0.3896 H   0  0  0  0  0  0  0  0  0  0  0  0
  1  2  1  0  0  0  0
  1  3  2  0  0  0  0
  1  4  1  0  0  0  0
  2  5  1  0  0  0  0
  2  6  1  0  0  0  0
  2 28  1  1  0  0  0
  3  7  1  0  0  0  0
  3  8  1  0  0  0  0
  4  9  2  0  0  0  0
  4 10  1  0  0  0  0
  5  7  1  0  0  0  0
  5 11  1  0  0  0  0
  6 12  1  0  0  0  0
  6 30  1  0  0  0  0
  6 31  1  0  0  0  0
  7 13  2  0  0  0  0
  8 14  2  0  0  0  0
  8 32  1  0  0  0  0
  9 14  1  0  0  0  0
  9 33  1  0  0  0  0
 10 15  1  0  0  0  0
 10 34  1  0  0  0  0
 11 12  1  0  0  0  0
 11 35  1  0  0  0  0
 11 36  1  0  0  0  0
 12 37  1  0  0  0  0
 12 38  1  0  0  0  0
 14 39  1  0  0  0  0
 15 16  1  0  0  0  0
 15 17  2  0  0  0  0
 16 18  1  0  0  0  0
 16 40  1  0  0  0  0
 18 19  1  0  0  0  0
 18 20  2  0  0  0  0
 19 21  2  0  0  0  0
 19 41  1  0  0  0  0
 20 22  1  0  0  0  0
 21 22  1  0  0  0  0
 22 42  1  0  0  0  0
 23 21  1  0  0  0  0
 23 24  1  0  0  0  0
 23 25  1  0  0  0  0
 23 29  1  1  0  0  0
 24 26  1  0  0  0  0
 24 43  1  0  0  0  0
 24 44  1  0  0  0  0
 25 27  1  0  0  0  0
 25 45  1  0  0  0  0
 26 27  1  0  0  0  0
 26 46  1  0  0  0  0
 26 47  1  0  0  0  0
 27 48  1  0  0  0  0
 27 49  1  0  0  0  0
M  END
>  <DRUGBANK_ID>
DB06976

>  <COMMON_NAME>
1-(5-OXO-2,3,5,9B-TETRAHYDRO-1H-PYRROLO[2,1-A]ISOINDOL-9-YL)-3-(5-PYRROLIDIN-2-YL-1H-PYRAZOL-3-YL)-UREA

$$$$
