
 OpenBabel10282417143D

 19 20  0  0  0  0  0  0  0  0999 V2000
    0.9890   -0.0116   -0.0987 O   0  0  0  0  0  0  0  0  0  0  0  0
    0.4890    0.6682   -1.3388 B   0  0  0  0  0  0  0  0  0  0  0  0
    1.4638    1.2162   -2.3386 O   0  0  0  0  0  0  0  0  0  0  0  0
   -1.0840    0.8087   -1.5952 C   0  0  0  0  0  0  0  0  0  0  0  0
   -1.6808    0.5517   -2.7931 C   0  0  0  0  0  0  0  0  0  0  0  0
   -3.1100    0.7641   -2.7573 C   0  0  0  0  0  0  0  0  0  0  0  0
   -3.5507    1.1819   -1.4881 C   0  0  0  0  0  0  0  0  0  0  0  0
   -2.2246    1.3096   -0.3694 S   0  0  0  0  0  0  0  0  0  0  0  0
   -4.8995    1.4429   -1.2335 C   0  0  0  0  0  0  0  0  0  0  0  0
   -5.7969    1.2903   -2.2651 C   0  0  0  0  0  0  0  0  0  0  0  0
   -5.3733    0.8987   -3.5353 C   0  0  0  0  0  0  0  0  0  0  0  0
   -4.0506    0.6356   -3.7885 C   0  0  0  0  0  0  0  0  0  0  0  0
    1.9890   -0.0116   -0.0987 H   0  0  0  0  0  0  0  0  0  0  0  0
    2.3970    1.0435   -2.0235 H   0  0  0  0  0  0  0  0  0  0  0  0
   -1.1500    0.2283   -3.6640 H   0  0  0  0  0  0  0  0  0  0  0  0
   -5.2256    1.7530   -0.2627 H   0  0  0  0  0  0  0  0  0  0  0  0
   -6.8363    1.4749   -2.0903 H   0  0  0  0  0  0  0  0  0  0  0  0
   -6.0903    0.8021   -4.3236 H   0  0  0  0  0  0  0  0  0  0  0  0
   -3.7392    0.3342   -4.7668 H   0  0  0  0  0  0  0  0  0  0  0  0
  1  2  1  0  0  0  0
  1 13  1  0  0  0  0
  2  3  1  0  0  0  0
  2  4  1  0  0  0  0
  3 14  1  0  0  0  0
  4  5  2  0  0  0  0
  4  8  1  0  0  0  0
  5  6  1  0  0  0  0
  5 15  1  0  0  0  0
  6  7  2  0  0  0  0
  6 12  1  0  0  0  0
  7  8  1  0  0  0  0
  7  9  1  0  0  0  0
  9 10  2  0  0  0  0
  9 16  1  0  0  0  0
 10 11  1  0  0  0  0
 10 17  1  0  0  0  0
 11 12  2  0  0  0  0
 11 18  1  0  0  0  0
 12 19  1  0  0  0  0
M  END
>  <DRUGBANK_ID>
DB04360

>  <SECONDARY_ACCESSION_NUMBERS>
EXPT00787

>  <COMMON_NAME>
Benzo[B]Thiophene-2-Boronic Acid

>  <UNII>
SME05QG1FJ

$$$$
