
 OpenBabel10282417193D

 71 74  0  0  1  0  0  0  0  0999 V2000
    3.9143   -0.2435   -0.1228 C   0  0  0  0  0  0  0  0  0  0  0  0
    3.7335   -1.6399   -0.6665 C   0  0  0  0  0  0  0  0  0  0  0  0
    2.2326   -1.7411   -0.3926 C   0  0  0  0  0  0  0  0  0  0  0  0
    4.2215   -1.9842   -2.0786 N   0  0  0  0  0  0  0  0  0  0  0  0
    4.7400   -1.0110   -2.9925 C   0  0  0  0  0  0  0  0  0  0  0  0
    5.1457    0.2544   -2.5907 C   0  0  0  0  0  0  0  0  0  0  0  0
    6.1689    0.9091   -3.2285 C   0  0  0  0  0  0  0  0  0  0  0  0
    6.3942    0.6010   -4.5446 C   0  0  0  0  0  0  0  0  0  0  0  0
    5.7884   -0.5192   -5.1072 C   0  0  0  0  0  0  0  0  0  0  0  0
    5.1054   -1.4144   -4.2863 C   0  0  0  0  0  0  0  0  0  0  0  0
    4.8240   -2.7639   -4.7737 C   0  0  0  0  0  0  0  0  0  0  0  0
    4.6327   -3.7582   -3.8893 C   0  0  0  0  0  0  0  0  0  0  0  0
    4.6787   -3.3366   -2.3856 C   0  0  0  0  0  0  0  0  0  0  0  0
    4.8778   -4.1704   -1.5107 O   0  0  0  0  0  0  0  0  0  0  0  0
    4.0228   -5.0717   -4.4795 C   0  0  0  0  0  0  0  0  0  0  0  0
    4.1589   -5.3369   -5.6810 O   0  0  0  0  0  0  0  0  0  0  0  0
    3.1440   -5.8957   -3.8041 N   0  0  0  0  0  0  0  0  0  0  0  0
    2.4464   -5.6221   -2.5715 C   0  0  1  0  0  0  0  0  0  0  0  0
    2.2041   -4.1280   -2.4710 C   0  0  0  0  0  0  0  0  0  0  0  0
    0.9672   -3.4404   -2.8967 C   0  0  1  0  0  0  0  0  0  0  0  0
    0.7703   -3.7871   -4.3557 C   0  0  0  0  0  0  0  0  0  0  0  0
    0.0520   -5.1245   -4.2579 C   0  0  0  0  0  0  0  0  0  0  0  0
   -0.0852   -5.4393   -2.7429 C   0  0  1  0  0  0  0  0  0  0  0  0
    1.1096   -6.3645   -2.3788 C   0  0  0  0  0  0  0  0  0  0  0  0
   -0.0672   -4.0828   -2.1646 N   0  0  0  0  0  0  0  0  0  0  0  0
    0.0810   -3.9383   -0.7084 C   0  0  0  0  0  0  0  0  0  0  0  0
    0.8960   -4.9749    0.1979 C   0  0  2  0  0  0  0  0  0  0  0  0
    0.8479   -4.7586    1.6753 C   0  0  0  0  0  0  0  0  0  0  0  0
   -0.3381   -5.4518    2.2499 N   0  0  0  0  0  0  0  0  0  0  0  0
   -0.1648   -5.3851    3.6970 C   0  0  0  0  0  0  0  0  0  0  0  0
   -1.8034   -4.9181    1.5911 S   0  0  0  0  0  0  0  0  0  0  0  0
   -1.8673   -3.5119    1.8364 O   0  0  0  0  0  0  0  0  0  0  0  0
   -1.9442   -5.4954    0.2466 O   0  0  0  0  0  0  0  0  0  0  0  0
   -3.0920   -5.7362    2.4161 C   0  0  0  0  0  0  0  0  0  0  0  0
    2.2867   -5.2498   -0.0053 O   0  0  0  0  0  0  0  0  0  0  0  0
    3.3024    0.4437   -0.7327 H   0  0  0  0  0  0  0  0  0  0  0  0
    4.9727   -0.0124   -0.0731 H   0  0  0  0  0  0  0  0  0  0  0  0
    3.5287   -0.1173    0.8921 H   0  0  0  0  0  0  0  0  0  0  0  0
    4.2225   -2.3566   -0.0010 H   0  0  0  0  0  0  0  0  0  0  0  0
    1.5985   -1.2130   -1.1122 H   0  0  0  0  0  0  0  0  0  0  0  0
    1.9946   -2.7671   -0.3114 H   0  0  0  0  0  0  0  0  0  0  0  0
    1.9299   -1.4116    0.6126 H   0  0  0  0  0  0  0  0  0  0  0  0
    4.8135    0.8080   -1.7429 H   0  0  0  0  0  0  0  0  0  0  0  0
    6.7011    1.6872   -2.6901 H   0  0  0  0  0  0  0  0  0  0  0  0
    7.0289    1.2548   -5.1245 H   0  0  0  0  0  0  0  0  0  0  0  0
    5.9396   -0.7337   -6.1578 H   0  0  0  0  0  0  0  0  0  0  0  0
    4.7637   -2.9271   -5.8473 H   0  0  0  0  0  0  0  0  0  0  0  0
    2.8375   -6.7234   -4.2991 H   0  0  0  0  0  0  0  0  0  0  0  0
    3.1662   -5.9986   -1.8327 H   0  0  0  0  0  0  0  0  0  0  0  0
    2.5473   -3.8196   -1.5208 H   0  0  0  0  0  0  0  0  0  0  0  0
    2.7713   -3.5924   -3.1690 H   0  0  0  0  0  0  0  0  0  0  0  0
    1.0568   -2.3536   -2.7781 H   0  0  0  0  0  0  0  0  0  0  0  0
    1.7217   -3.8729   -4.8986 H   0  0  0  0  0  0  0  0  0  0  0  0
    0.2118   -3.0159   -4.8868 H   0  0  0  0  0  0  0  0  0  0  0  0
    0.6328   -5.9031   -4.7638 H   0  0  0  0  0  0  0  0  0  0  0  0
   -0.9119   -5.0315   -4.7501 H   0  0  0  0  0  0  0  0  0  0  0  0
   -1.0392   -5.9177   -2.5156 H   0  0  0  0  0  0  0  0  0  0  0  0
    1.0603   -7.3150   -2.9123 H   0  0  0  0  0  0  0  0  0  0  0  0
    1.0433   -6.7292   -1.3575 H   0  0  0  0  0  0  0  0  0  0  0  0
    0.2203   -2.9019   -0.3872 H   0  0  0  0  0  0  0  0  0  0  0  0
   -0.9564   -3.9161   -0.4509 H   0  0  0  0  0  0  0  0  0  0  0  0
    0.3952   -5.9269    0.0645 H   0  0  0  0  0  0  0  0  0  0  0  0
    1.7451   -5.2419    2.1099 H   0  0  0  0  0  0  0  0  0  0  0  0
    0.9382   -3.7019    1.9405 H   0  0  0  0  0  0  0  0  0  0  0  0
   -0.1289   -4.3388    4.0071 H   0  0  0  0  0  0  0  0  0  0  0  0
   -0.9514   -5.9399    4.1939 H   0  0  0  0  0  0  0  0  0  0  0  0
    0.7912   -5.8571    3.9646 H   0  0  0  0  0  0  0  0  0  0  0  0
   -3.0226   -6.7881    2.1347 H   0  0  0  0  0  0  0  0  0  0  0  0
   -3.0267   -5.5481    3.4770 H   0  0  0  0  0  0  0  0  0  0  0  0
   -3.9994   -5.3043    1.9817 H   0  0  0  0  0  0  0  0  0  0  0  0
    2.8706   -4.4931    0.1773 H   0  0  0  0  0  0  0  0  0  0  0  0
  1  2  1  0  0  0  0
  1 36  1  0  0  0  0
  1 37  1  0  0  0  0
  1 38  1  0  0  0  0
  2  3  1  0  0  0  0
  2  4  1  0  0  0  0
  2 39  1  0  0  0  0
  3 40  1  0  0  0  0
  3 41  1  0  0  0  0
  3 42  1  0  0  0  0
  4  5  1  0  0  0  0
  4 13  1  0  0  0  0
  5  6  2  0  0  0  0
  5 10  1  0  0  0  0
  6  7  1  0  0  0  0
  6 43  1  0  0  0  0
  7  8  2  0  0  0  0
  7 44  1  0  0  0  0
  8  9  1  0  0  0  0
  8 45  1  0  0  0  0
  9 10  2  0  0  0  0
  9 46  1  0  0  0  0
 10 11  1  0  0  0  0
 11 12  2  0  0  0  0
 11 47  1  0  0  0  0
 12 13  1  0  0  0  0
 12 15  1  0  0  0  0
 13 14  2  0  0  0  0
 15 16  2  0  0  0  0
 15 17  1  0  0  0  0
 17 48  1  0  0  0  0
 18 17  1  0  0  0  0
 18 19  1  0  0  0  0
 18 24  1  0  0  0  0
 18 49  1  1  0  0  0
 19 20  1  0  0  0  0
 19 50  1  0  0  0  0
 19 51  1  0  0  0  0
 20 21  1  0  0  0  0
 20 25  1  0  0  0  0
 20 52  1  1  0  0  0
 21 22  1  0  0  0  0
 21 53  1  0  0  0  0
 21 54  1  0  0  0  0
 22 23  1  0  0  0  0
 22 55  1  0  0  0  0
 22 56  1  0  0  0  0
 23 24  1  0  0  0  0
 23 25  1  0  0  0  0
 23 57  1  1  0  0  0
 24 58  1  0  0  0  0
 24 59  1  0  0  0  0
 25 26  1  0  0  0  0
 26 60  1  0  0  0  0
 26 61  1  0  0  0  0
 27 35  1  0  0  0  0
 27 62  1  6  0  0  0
 27 28  1  0  0  0  0
 27 26  1  0  0  0  0
 28 29  1  0  0  0  0
 28 63  1  0  0  0  0
 28 64  1  0  0  0  0
 29 30  1  0  0  0  0
 29 31  1  0  0  0  0
 30 65  1  0  0  0  0
 30 66  1  0  0  0  0
 30 67  1  0  0  0  0
 31 32  2  0  0  0  0
 31 33  2  0  0  0  0
 31 34  1  0  0  0  0
 34 68  1  0  0  0  0
 34 69  1  0  0  0  0
 34 70  1  0  0  0  0
 35 71  1  0  0  0  0
M  END
>  <DRUGBANK_ID>
DB12702

>  <SECONDARY_ACCESSION_NUMBERS>
DB05655

>  <COMMON_NAME>
Velusetrag

>  <CAS_NUMBER>
866933-46-2

>  <UNII>
J4VNV64ARB

>  <SYNONYMS>
Velusetrag

$$$$
