7CK
 OpenBabel10282417163D

 40 45  0  0  0  0  0  0  0  0999 V2000
    0.2456    0.2608    0.3910 O   0  0  0  0  0  0  0  0  0  0  0  0
    1.4875    1.7623    1.3250 O   0  0  0  0  0  0  0  0  0  0  0  0
    0.3574    1.3491    1.2267 C   0  0  0  0  0  0  0  0  0  0  0  0
   -0.7954    1.7045    2.2805 C   0  0  0  0  0  0  0  0  0  0  0  0
    0.0424    1.5610    3.4819 N   0  0  0  0  0  0  0  0  0  0  0  0
   -2.0980    1.2718    2.9651 C   0  0  0  0  0  0  0  0  0  0  0  0
   -3.7986    1.9020    3.4414 C   0  0  0  0  0  0  0  0  0  0  0  0
   -3.9618    0.5623    3.8448 C   0  0  0  0  0  0  0  0  0  0  0  0
   -5.2133    0.2171    3.3292 N   0  0  0  0  0  0  0  0  0  0  0  0
   -6.0225    0.6894    4.3006 C   0  0  0  0  0  0  0  0  0  0  0  0
   -5.3512    1.9194    4.4667 C   0  0  0  0  0  0  0  0  0  0  0  0
   -6.0485    2.4710    5.7686 C   0  0  0  0  0  0  0  0  0  0  0  0
   -6.9715    1.6339    6.6680 C   0  0  0  0  0  0  0  0  0  0  0  0
   -7.4123    0.3835    6.2858 C   0  0  0  0  0  0  0  0  0  0  0  0
   -7.0289   -0.0063    5.0217 C   0  0  0  0  0  0  0  0  0  0  0  0
    0.7970   -0.6552    3.0879 O   0  0  0  0  0  0  0  0  0  0  0  0
   -0.0704    0.1831    3.6763 C   0  0  0  0  0  0  0  0  0  0  0  0
   -1.4463    0.2301    3.8664 C   0  0  0  0  0  0  0  0  0  0  0  0
   -1.9429    0.4785    5.1605 C   0  0  0  0  0  0  0  0  0  0  0  0
   -3.3005    0.4165    5.1159 C   0  0  0  0  0  0  0  0  0  0  0  0
   -3.6636    0.9270    6.3336 N   0  0  0  0  0  0  0  0  0  0  0  0
   -2.5845    1.3469    7.0666 C   0  0  0  0  0  0  0  0  0  0  0  0
   -1.4308    1.0840    6.3317 C   0  0  0  0  0  0  0  0  0  0  0  0
   -0.2003    1.4752    6.8983 C   0  0  0  0  0  0  0  0  0  0  0  0
   -0.1955    1.8603    8.2505 C   0  0  0  0  0  0  0  0  0  0  0  0
   -1.3793    2.0233    8.9699 C   0  0  0  0  0  0  0  0  0  0  0  0
   -2.6097    1.8650    8.3542 C   0  0  0  0  0  0  0  0  0  0  0  0
    1.2016    0.1367    0.1172 H   0  0  0  0  0  0  0  0  0  0  0  0
   -0.0396    2.1054    4.3226 H   0  0  0  0  0  0  0  0  0  0  0  0
   -5.5142    0.4313    2.3884 H   0  0  0  0  0  0  0  0  0  0  0  0
   -5.9255    3.4706    6.1971 H   0  0  0  0  0  0  0  0  0  0  0  0
   -7.3449    1.9486    7.6628 H   0  0  0  0  0  0  0  0  0  0  0  0
   -8.0338   -0.2867    6.8978 H   0  0  0  0  0  0  0  0  0  0  0  0
   -7.3675   -0.9616    4.6424 H   0  0  0  0  0  0  0  0  0  0  0  0
    1.5797   -0.1312    2.8038 H   0  0  0  0  0  0  0  0  0  0  0  0
   -4.5969    1.1322    6.6190 H   0  0  0  0  0  0  0  0  0  0  0  0
    0.7518    1.3671    6.3866 H   0  0  0  0  0  0  0  0  0  0  0  0
    0.7542    1.9780    8.7649 H   0  0  0  0  0  0  0  0  0  0  0  0
   -1.3551    2.2409   10.0328 H   0  0  0  0  0  0  0  0  0  0  0  0
   -3.5487    1.9859    8.8825 H   0  0  0  0  0  0  0  0  0  0  0  0
  1  3  1  0  0  0  0
  1 28  1  0  0  0  0
  2  3  2  0  0  0  0
  3  4  1  0  0  0  0
  4  5  1  0  0  0  0
  4  6  2  0  0  0  0
  5 17  1  0  0  0  0
  5 29  1  0  0  0  0
  6  7  1  0  0  0  0
  6 18  1  0  0  0  0
  7 11  1  0  0  0  0
  7  8  2  0  0  0  0
  8 20  1  0  0  0  0
  8  9  1  0  0  0  0
  9 10  1  0  0  0  0
  9 30  1  0  0  0  0
 10 11  2  0  0  0  0
 10 15  1  0  0  0  0
 11 12  1  0  0  0  0
 12 13  2  0  0  0  0
 12 31  1  0  0  0  0
 13 14  1  0  0  0  0
 13 32  1  0  0  0  0
 14 15  2  0  0  0  0
 14 33  1  0  0  0  0
 15 34  1  0  0  0  0
 16 17  1  0  0  0  0
 16 35  1  0  0  0  0
 17 18  2  0  0  0  0
 18 19  1  0  0  0  0
 19 20  2  0  0  0  0
 19 23  1  0  0  0  0
 20 21  1  0  0  0  0
 21 22  1  0  0  0  0
 21 36  1  0  0  0  0
 22 27  1  0  0  0  0
 22 23  2  0  0  0  0
 23 24  1  0  0  0  0
 24 25  2  0  0  0  0
 24 37  1  0  0  0  0
 25 26  1  0  0  0  0
 25 38  1  0  0  0  0
 26 27  2  0  0  0  0
 26 39  1  0  0  0  0
 27 40  1  0  0  0  0
M  END
>  <DRUGBANK_ID>
DB07241

>  <COMMON_NAME>
7-carboxy-5-hydroxy-12,13-dihydro-6H-indolo[2,3-a]pyrrolo[3,4-c]carbazole

$$$$
