
 OpenBabel10282417153D

 60 64  0  0  1  0  0  0  0  0999 V2000
    1.0624   -0.0050   -0.0191 Si  0  0  0  0  0  0  0  0  0  0  0  0
    6.3125    6.2939    4.7845 O   0  0  0  0  0  0  0  0  0  0  0  0
    4.1257    8.3656    4.4078 O   0  0  0  0  0  0  0  0  0  0  0  0
    5.3418    3.6692    3.2933 O   0  0  0  0  0  0  0  0  0  0  0  0
    5.6709    6.0651    6.9203 O   0  0  0  0  0  0  0  0  0  0  0  0
    3.0583    3.8717    3.2462 N   0  0  0  0  0  0  0  0  0  0  0  0
   -0.5094    4.1008    2.7605 N   0  0  0  0  0  0  0  0  0  0  0  0
    1.2511    2.4611    3.0468 C   0  0  0  0  0  0  0  0  0  0  0  0
    2.7417    2.4587    3.1860 C   0  0  0  0  0  0  0  0  0  0  0  0
    0.3677    1.3839    2.9556 C   0  0  0  0  0  0  0  0  0  0  0  0
    1.9271    4.6662    3.2956 C   0  0  0  0  0  0  0  0  0  0  0  0
    0.5096   -0.8201    1.6146 C   0  0  0  0  0  0  0  0  0  0  0  0
    0.8840   -0.0433    2.8985 C   0  0  0  0  0  0  0  0  0  0  0  0
    0.7780    3.7778    2.9723 C   0  0  0  0  0  0  0  0  0  0  0  0
    3.4309    6.3444    4.2260 C   0  0  0  0  0  0  0  0  0  0  0  0
    4.0375    7.2786    5.3587 C   0  0  2  0  0  0  0  0  0  0  0  0
    4.4295    5.8398    3.4408 C   0  0  0  0  0  0  0  0  0  0  0  0
    2.0828    5.9553    3.6890 C   0  0  0  0  0  0  0  0  0  0  0  0
    4.3468    4.3550    3.2799 C   0  0  0  0  0  0  0  0  0  0  0  0
   -1.0043    1.6914    2.7891 C   0  0  0  0  0  0  0  0  0  0  0  0
    4.0516    8.3223    6.5922 C   0  0  0  0  0  0  0  0  0  0  0  0
    5.7939    6.4420    3.4715 C   0  0  0  0  0  0  0  0  0  0  0  0
    0.4058    1.7390   -0.1831 C   0  0  0  0  0  0  0  0  0  0  0  0
    0.3803   -0.9881   -1.4390 C   0  0  0  0  0  0  0  0  0  0  0  0
    2.9161   -0.0122    0.0229 C   0  0  0  0  0  0  0  0  0  0  0  0
   -1.3884    3.0580    2.6511 C   0  0  0  0  0  0  0  0  0  0  0  0
    5.4009    6.4519    5.7851 C   0  0  0  0  0  0  0  0  0  0  0  0
   -1.9875    0.6764    2.6988 C   0  0  0  0  0  0  0  0  0  0  0  0
    2.8967    8.6187    7.5021 C   0  0  0  0  0  0  0  0  0  0  0  0
   -2.7415    3.2944    2.3923 C   0  0  0  0  0  0  0  0  0  0  0  0
   -3.3039    0.9458    2.3720 C   0  0  0  0  0  0  0  0  0  0  0  0
   -3.6887    2.2643    2.2409 C   0  0  0  0  0  0  0  0  0  0  0  0
    5.0210    8.7069    4.5396 H   0  0  0  0  0  0  0  0  0  0  0  0
    3.2617    2.0173    2.3360 H   0  0  0  0  0  0  0  0  0  0  0  0
    3.0611    1.9898    4.1205 H   0  0  0  0  0  0  0  0  0  0  0  0
   -0.5605   -0.9800    1.4837 H   0  0  0  0  0  0  0  0  0  0  0  0
    0.9247   -1.8334    1.6829 H   0  0  0  0  0  0  0  0  0  0  0  0
    0.5174   -0.5760    3.7848 H   0  0  0  0  0  0  0  0  0  0  0  0
    1.9773   -0.0508    2.9861 H   0  0  0  0  0  0  0  0  0  0  0  0
    1.2873    6.6726    3.4954 H   0  0  0  0  0  0  0  0  0  0  0  0
    4.9199    8.1549    7.2560 H   0  0  0  0  0  0  0  0  0  0  0  0
    4.3454    9.3217    6.2177 H   0  0  0  0  0  0  0  0  0  0  0  0
    6.4831    6.0299    2.7338 H   0  0  0  0  0  0  0  0  0  0  0  0
    5.7924    7.5121    3.2299 H   0  0  0  0  0  0  0  0  0  0  0  0
    0.7045    2.2018   -1.1233 H   0  0  0  0  0  0  0  0  0  0  0  0
   -0.6868    1.7609   -0.1140 H   0  0  0  0  0  0  0  0  0  0  0  0
    0.8113    2.3859    0.5877 H   0  0  0  0  0  0  0  0  0  0  0  0
    0.7088   -0.5447   -2.3818 H   0  0  0  0  0  0  0  0  0  0  0  0
    0.7217   -2.0240   -1.3939 H   0  0  0  0  0  0  0  0  0  0  0  0
   -0.7143   -0.9815   -1.4203 H   0  0  0  0  0  0  0  0  0  0  0  0
    3.2848    0.5264    0.8962 H   0  0  0  0  0  0  0  0  0  0  0  0
    3.2913   -1.0360    0.0940 H   0  0  0  0  0  0  0  0  0  0  0  0
    3.3243    0.4642   -0.8685 H   0  0  0  0  0  0  0  0  0  0  0  0
   -1.7426   -0.3665    2.8731 H   0  0  0  0  0  0  0  0  0  0  0  0
    2.7691    7.8436    8.2575 H   0  0  0  0  0  0  0  0  0  0  0  0
    3.1249    9.5527    8.0490 H   0  0  0  0  0  0  0  0  0  0  0  0
    1.9921    8.7933    6.9283 H   0  0  0  0  0  0  0  0  0  0  0  0
   -3.0824    4.3220    2.2974 H   0  0  0  0  0  0  0  0  0  0  0  0
   -4.0052    0.1251    2.2416 H   0  0  0  0  0  0  0  0  0  0  0  0
   -4.7317    2.4936    2.0420 H   0  0  0  0  0  0  0  0  0  0  0  0
  1 12  1  0  0  0  0
  1 23  1  0  0  0  0
  1 24  1  0  0  0  0
  1 25  1  0  0  0  0
  2 22  1  0  0  0  0
  2 27  1  0  0  0  0
  3 33  1  0  0  0  0
  4 19  2  0  0  0  0
  5 27  2  0  0  0  0
  6  9  1  0  0  0  0
  6 11  1  0  0  0  0
  6 19  1  0  0  0  0
  7 14  2  0  0  0  0
  7 26  1  0  0  0  0
  8  9  1  0  0  0  0
  8 10  2  0  0  0  0
  8 14  1  0  0  0  0
  9 34  1  0  0  0  0
  9 35  1  0  0  0  0
 10 13  1  0  0  0  0
 10 20  1  0  0  0  0
 11 14  1  0  0  0  0
 11 18  2  0  0  0  0
 12 13  1  0  0  0  0
 12 36  1  0  0  0  0
 12 37  1  0  0  0  0
 13 38  1  0  0  0  0
 13 39  1  0  0  0  0
 15 16  1  0  0  0  0
 15 17  2  0  0  0  0
 15 18  1  0  0  0  0
 16 27  1  0  0  0  0
 16 21  1  0  0  0  0
 16  3  1  6  0  0  0
 17 19  1  0  0  0  0
 17 22  1  0  0  0  0
 18 40  1  0  0  0  0
 20 26  1  0  0  0  0
 20 28  2  0  0  0  0
 21 29  1  0  0  0  0
 21 41  1  0  0  0  0
 21 42  1  0  0  0  0
 22 43  1  0  0  0  0
 22 44  1  0  0  0  0
 23 45  1  0  0  0  0
 23 46  1  0  0  0  0
 23 47  1  0  0  0  0
 24 48  1  0  0  0  0
 24 49  1  0  0  0  0
 24 50  1  0  0  0  0
 25 51  1  0  0  0  0
 25 52  1  0  0  0  0
 25 53  1  0  0  0  0
 26 30  2  0  0  0  0
 28 31  1  0  0  0  0
 28 54  1  0  0  0  0
 29 55  1  0  0  0  0
 29 56  1  0  0  0  0
 29 57  1  0  0  0  0
 30 32  1  0  0  0  0
 30 58  1  0  0  0  0
 31 32  2  0  0  0  0
 31 59  1  0  0  0  0
 32 60  1  0  0  0  0
M  END
>  <DRUGBANK_ID>
DB05806

>  <COMMON_NAME>
Cositecan

>  <CAS_NUMBER>
203923-89-1

>  <UNII>
24R60NVC41

>  <SYNONYMS>
Cositecan; Karenitecin

$$$$
