
 OpenBabel10282417123D

 22 22  0  0  1  0  0  0  0  0999 V2000
    1.4300    0.1787    0.1734 C   0  0  0  0  0  0  0  0  0  0  0  0
   -0.4266    1.1099   -1.1745 C   0  0  0  0  0  0  0  0  0  0  0  0
    0.4374    1.3490    0.0542 C   0  0  2  0  0  0  0  0  0  0  0  0
    0.2657    1.6612   -2.4194 C   0  0  1  0  0  0  0  0  0  0  0  0
    0.4151    3.1667   -2.2482 C   0  0  2  0  0  0  0  0  0  0  0  0
    1.3005    3.4398   -1.0166 C   0  0  1  0  0  0  0  0  0  0  0  0
    1.5433    1.0502   -2.6557 O   0  0  0  0  0  0  0  0  0  0  0  0
   -0.8704    3.8020   -2.0869 O   0  0  0  0  0  0  0  0  0  0  0  0
    1.2141    4.8305   -0.6975 O   0  0  0  0  0  0  0  0  0  0  0  0
    0.9727    2.6764    0.1485 O   0  0  0  0  0  0  0  0  0  0  0  0
   -0.1932    1.2755    0.9487 H   0  0  0  0  0  0  0  0  0  0  0  0
   -0.3519    1.4315   -3.2883 H   0  0  0  0  0  0  0  0  0  0  0  0
    0.8690    3.6194   -3.1362 H   0  0  0  0  0  0  0  0  0  0  0  0
    2.3510    3.2474   -1.2565 H   0  0  0  0  0  0  0  0  0  0  0  0
    1.4175   -0.4572   -0.7235 H   0  0  0  0  0  0  0  0  0  0  0  0
    1.0825   -0.5036    0.9597 H   0  0  0  0  0  0  0  0  0  0  0  0
    2.4621    0.4675    0.3673 H   0  0  0  0  0  0  0  0  0  0  0  0
   -0.6441    0.0423   -1.2865 H   0  0  0  0  0  0  0  0  0  0  0  0
   -1.4011    1.5889   -1.0263 H   0  0  0  0  0  0  0  0  0  0  0  0
    2.1680    1.2704   -1.9531 H   0  0  0  0  0  0  0  0  0  0  0  0
   -1.2237    3.5548   -1.2135 H   0  0  0  0  0  0  0  0  0  0  0  0
    0.3459    5.1365   -1.0268 H   0  0  0  0  0  0  0  0  0  0  0  0
  1 15  1  0  0  0  0
  1 16  1  0  0  0  0
  1 17  1  0  0  0  0
  2 18  1  0  0  0  0
  2 19  1  0  0  0  0
  3  1  1  0  0  0  0
  3  2  1  0  0  0  0
  3 11  1  1  0  0  0
  4  2  1  0  0  0  0
  4  7  1  0  0  0  0
  4 12  1  6  0  0  0
  5  4  1  0  0  0  0
  5  8  1  0  0  0  0
  5 13  1  6  0  0  0
  6  5  1  0  0  0  0
  6  9  1  0  0  0  0
  6 14  1  6  0  0  0
  7 20  1  0  0  0  0
  8 21  1  0  0  0  0
  9 22  1  0  0  0  0
 10  3  1  0  0  0  0
 10  6  1  0  0  0  0
M  END
>  <DRUGBANK_ID>
DB01841

>  <SECONDARY_ACCESSION_NUMBERS>
EXPT01604

>  <COMMON_NAME>
4,6-Dideoxyglucose

$$$$
