
 OpenBabel10282417213D

 31 28  0  0  0  0  0  0  0  0999 V2000
    0.2580    0.4813   -0.7328 C   0  0  0  0  0  0  0  0  0  0  0  0
   -0.3244   -0.3656    0.8759 C   0  0  0  0  0  0  0  0  0  0  0  0
   -1.4236    0.1149    1.2612 O   0  0  0  0  0  0  0  0  0  0  0  0
    0.2464   -1.8451    1.7435 C   0  0  0  0  0  0  0  0  0  0  0  0
   -0.0455   -3.1144    1.0286 C   0  0  0  0  0  0  0  0  0  0  0  0
    0.7262   -3.1422   -0.2837 C   0  0  0  0  0  0  0  0  0  0  0  0
    1.7076   -3.9128   -0.3761 O   0  0  0  0  0  0  0  0  0  0  0  0
    0.1934   -2.3422   -1.1356 O   0  5  0  0  0  0  0  0  0  0  0  0
    2.1923   -0.1407    0.2627 C   0  0  0  0  0  0  0  0  0  0  0  0
    1.3894    1.3025    1.1991 C   0  0  0  0  0  0  0  0  0  0  0  0
    0.5377    2.1298    0.7444 O   0  0  0  0  0  0  0  0  0  0  0  0
    1.3462    1.4795    2.6880 C   0  0  0  0  0  0  0  0  0  0  0  0
    0.7983    0.3865    3.5760 C   0  0  0  0  0  0  0  0  0  0  0  0
    1.9178   -0.6271    3.5225 C   0  0  0  0  0  0  0  0  0  0  0  0
    2.0264   -1.4175    4.4467 O   0  0  0  0  0  0  0  0  0  0  0  0
    2.6293   -0.5957    2.4397 O   0  5  0  0  0  0  0  0  0  0  0  0
   -2.2185    0.0988   -0.8384 Ca  0  2  0  0  0  0  0  0  0  0  0  0
   -0.1772    1.4608   -1.0514 H   0  0  0  0  0  0  0  0  0  0  0  0
    0.2179   -0.2033   -1.5484 H   0  0  0  0  0  0  0  0  0  0  0  0
    1.2333    1.0991   -0.8454 H   0  0  0  0  0  0  0  0  0  0  0  0
    1.2693   -2.1146    2.0588 H   0  0  0  0  0  0  0  0  0  0  0  0
   -0.2383   -1.8918    2.7610 H   0  0  0  0  0  0  0  0  0  0  0  0
    0.2641   -3.9561    1.6636 H   0  0  0  0  0  0  0  0  0  0  0  0
   -1.1159   -3.0575    0.9030 H   0  0  0  0  0  0  0  0  0  0  0  0
    2.2258   -0.1924   -0.8657 H   0  0  0  0  0  0  0  0  0  0  0  0
    1.5613   -1.0272    0.3248 H   0  0  0  0  0  0  0  0  0  0  0  0
    3.1987   -0.4685    0.4146 H   0  0  0  0  0  0  0  0  0  0  0  0
    2.3793    1.7400    2.8448 H   0  0  0  0  0  0  0  0  0  0  0  0
    0.7116    2.3724    2.8841 H   0  0  0  0  0  0  0  0  0  0  0  0
    0.7679    0.6730    4.6226 H   0  0  0  0  0  0  0  0  0  0  0  0
   -0.2473    0.0848    3.3781 H   0  0  0  0  0  0  0  0  0  0  0  0
  1  2  1  0  0  0  0
  1 18  1  0  0  0  0
  1 19  1  0  0  0  0
  1 20  1  0  0  0  0
  2  3  2  0  0  0  0
  2  4  1  0  0  0  0
  4  5  1  0  0  0  0
  4 21  1  0  0  0  0
  4 22  1  0  0  0  0
  5  6  1  0  0  0  0
  5 23  1  0  0  0  0
  5 24  1  0  0  0  0
  6  7  2  0  0  0  0
  6  8  1  0  0  0  0
  9 10  1  0  0  0  0
  9 25  1  0  0  0  0
  9 26  1  0  0  0  0
  9 27  1  0  0  0  0
 10 11  2  0  0  0  0
 10 12  1  0  0  0  0
 12 13  1  0  0  0  0
 12 28  1  0  0  0  0
 12 29  1  0  0  0  0
 13 14  1  0  0  0  0
 13 30  1  0  0  0  0
 13 31  1  0  0  0  0
 14 15  2  0  0  0  0
 14 16  1  0  0  0  0
M  CHG  3   8  -1  16  -1  17   2
M  END
>  <DRUGBANK_ID>
DB13800

>  <COMMON_NAME>
Calcium levulinate

>  <CAS_NUMBER>
591-64-0

>  <UNII>
LLQ966USIL

>  <SYNONYMS>
Calcium laevulate; Calcium levulinate anhydrous

$$$$
