
 OpenBabel10282417183D

 38 41  0  0  0  0  0  0  0  0999 V2000
    1.0319    0.0850    0.0593 C   0  0  0  0  0  0  0  0  0  0  0  0
    0.4681    0.4718   -1.3133 C   0  0  0  0  0  0  0  0  0  0  0  0
    1.0146   -0.4802   -2.3787 C   0  0  0  0  0  0  0  0  0  0  0  0
   -0.9950    0.4959   -1.3247 N   0  0  0  0  0  0  0  0  0  0  0  0
   -1.8054    1.4391   -1.9120 C   0  0  0  0  0  0  0  0  0  0  0  0
   -3.1035    1.0223   -1.6690 C   0  0  0  0  0  0  0  0  0  0  0  0
   -2.9789   -0.1909   -0.9401 C   0  0  0  0  0  0  0  0  0  0  0  0
   -1.6919   -0.5013   -0.7166 N   0  0  0  0  0  0  0  0  0  0  0  0
   -4.0766   -1.0174   -0.4387 C   0  0  0  0  0  0  0  0  0  0  0  0
   -4.2426   -1.1922    0.9454 C   0  0  0  0  0  0  0  0  0  0  0  0
   -5.3477   -1.8816    1.4756 C   0  0  0  0  0  0  0  0  0  0  0  0
   -6.2638   -2.3712    0.5496 C   0  0  0  0  0  0  0  0  0  0  0  0
   -6.1407   -2.2204   -0.8220 C   0  0  0  0  0  0  0  0  0  0  0  0
   -5.0256   -1.5451   -1.3381 C   0  0  0  0  0  0  0  0  0  0  0  0
   -7.2178   -2.7828   -1.4536 N   0  0  0  0  0  0  0  0  0  0  0  0
   -7.9330   -3.2785   -0.4674 C   0  0  0  0  0  0  0  0  0  0  0  0
   -7.4229   -3.0631    0.7826 O   0  0  0  0  0  0  0  0  0  0  0  0
   -9.0760   -3.9461   -0.5572 N   0  0  0  0  0  0  0  0  0  0  0  0
   -4.1442    1.8270   -2.1473 C   0  0  0  0  0  0  0  0  0  0  0  0
   -3.8281    2.9409   -2.8350 N   0  0  0  0  0  0  0  0  0  0  0  0
   -2.5227    3.2325   -3.0151 C   0  0  0  0  0  0  0  0  0  0  0  0
   -1.4422    2.5463   -2.5877 N   0  0  0  0  0  0  0  0  0  0  0  0
   -5.4754    1.5440   -1.9561 N   0  0  0  0  0  0  0  0  0  0  0  0
    0.7259   -0.9278    0.3462 H   0  0  0  0  0  0  0  0  0  0  0  0
    0.6842    0.7730    0.8366 H   0  0  0  0  0  0  0  0  0  0  0  0
    2.1276    0.1046    0.0532 H   0  0  0  0  0  0  0  0  0  0  0  0
    0.8088    1.4894   -1.5439 H   0  0  0  0  0  0  0  0  0  0  0  0
    0.6895   -1.5101   -2.1938 H   0  0  0  0  0  0  0  0  0  0  0  0
    0.6731   -0.1952   -3.3789 H   0  0  0  0  0  0  0  0  0  0  0  0
    2.1110   -0.4729   -2.3829 H   0  0  0  0  0  0  0  0  0  0  0  0
   -3.5079   -0.7631    1.6273 H   0  0  0  0  0  0  0  0  0  0  0  0
   -5.4823   -2.0102    2.5425 H   0  0  0  0  0  0  0  0  0  0  0  0
   -4.9415   -1.3964   -2.4101 H   0  0  0  0  0  0  0  0  0  0  0  0
   -9.4627   -4.1544   -1.4689 H   0  0  0  0  0  0  0  0  0  0  0  0
   -9.5392   -4.3446    0.2486 H   0  0  0  0  0  0  0  0  0  0  0  0
   -2.3245    4.1408   -3.5779 H   0  0  0  0  0  0  0  0  0  0  0  0
   -5.7777    0.7777   -1.3779 H   0  0  0  0  0  0  0  0  0  0  0  0
   -6.1610    2.1738   -2.3408 H   0  0  0  0  0  0  0  0  0  0  0  0
  1  2  1  0  0  0  0
  1 24  1  0  0  0  0
  1 25  1  0  0  0  0
  1 26  1  0  0  0  0
  2  3  1  0  0  0  0
  2  4  1  0  0  0  0
  2 27  1  0  0  0  0
  3 28  1  0  0  0  0
  3 29  1  0  0  0  0
  3 30  1  0  0  0  0
  4  5  1  0  0  0  0
  4  8  1  0  0  0  0
  5  6  1  0  0  0  0
  5 22  2  0  0  0  0
  6  7  1  0  0  0  0
  6 19  2  0  0  0  0
  7  8  2  0  0  0  0
  7  9  1  0  0  0  0
  9 10  2  0  0  0  0
  9 14  1  0  0  0  0
 10 11  1  0  0  0  0
 10 31  1  0  0  0  0
 11 12  2  0  0  0  0
 11 32  1  0  0  0  0
 12 13  1  0  0  0  0
 12 17  1  0  0  0  0
 13 14  2  0  0  0  0
 13 15  1  0  0  0  0
 14 33  1  0  0  0  0
 15 16  2  0  0  0  0
 16 17  1  0  0  0  0
 16 18  1  0  0  0  0
 18 34  1  0  0  0  0
 18 35  1  0  0  0  0
 19 20  1  0  0  0  0
 19 23  1  0  0  0  0
 20 21  2  0  0  0  0
 21 22  1  0  0  0  0
 21 36  1  0  0  0  0
 23 37  1  0  0  0  0
 23 38  1  0  0  0  0
M  END
>  <DRUGBANK_ID>
DB11836

>  <COMMON_NAME>
Sapanisertib

>  <CAS_NUMBER>
1224844-38-5

>  <UNII>
JGH0DF1U03

>  <SYNONYMS>
Sapanisertib

$$$$
