
 OpenBabel10282417223D

 41 43  0  0  1  0  0  0  0  0999 V2000
    1.2611    0.0269    0.0882 C   0  0  0  0  0  0  0  0  0  0  0  0
    0.6030    0.5274    1.2866 N   0  0  0  0  0  0  0  0  0  0  0  0
   -0.8728    0.4973    1.2483 C   0  0  2  0  0  0  0  0  0  0  0  0
   -1.4402   -0.8923    1.5838 C   0  0  0  0  0  0  0  0  0  0  0  0
   -1.6247   -1.5547    0.2277 C   0  0  0  0  0  0  0  0  0  0  0  0
   -1.9498   -0.4490   -0.6554 N   0  0  0  0  0  0  0  0  0  0  0  0
   -1.5592    0.8481   -0.1103 C   0  0  0  0  0  0  0  0  0  0  0  0
   -2.8411   -0.5530   -1.6940 C   0  0  0  0  0  0  0  0  0  0  0  0
   -4.0534   -1.1744   -1.4953 C   0  0  0  0  0  0  0  0  0  0  0  0
   -4.9086   -1.3338   -2.5619 C   0  0  0  0  0  0  0  0  0  0  0  0
   -6.1286   -1.9570   -2.4426 N   0  0  0  0  0  0  0  0  0  0  0  0
   -6.7374   -2.3854   -1.2049 C   0  0  0  0  0  0  0  0  0  0  0  0
   -7.9834   -1.6229   -0.8677 C   0  0  0  0  0  0  0  0  0  0  0  0
   -9.2151   -1.8213   -1.7126 C   0  0  0  0  0  0  0  0  0  0  0  0
   -8.5354   -0.4792   -1.6861 C   0  0  0  0  0  0  0  0  0  0  0  0
   -4.5610   -0.9075   -3.7798 N   0  0  0  0  0  0  0  0  0  0  0  0
   -3.3680   -0.3049   -3.9015 C   0  0  0  0  0  0  0  0  0  0  0  0
   -2.9950    0.1052   -5.1472 N   0  0  0  0  0  0  0  0  0  0  0  0
   -2.5054   -0.0855   -2.8986 N   0  0  0  0  0  0  0  0  0  0  0  0
    1.0103    0.6138   -0.7983 H   0  0  0  0  0  0  0  0  0  0  0  0
    1.0376   -1.0224   -0.0991 H   0  0  0  0  0  0  0  0  0  0  0  0
    2.3449    0.0955    0.2065 H   0  0  0  0  0  0  0  0  0  0  0  0
    0.9345    0.0056    2.0978 H   0  0  0  0  0  0  0  0  0  0  0  0
   -1.2068    1.2054    2.0182 H   0  0  0  0  0  0  0  0  0  0  0  0
   -2.4185   -0.7858    2.0712 H   0  0  0  0  0  0  0  0  0  0  0  0
   -0.8078   -1.4809    2.2575 H   0  0  0  0  0  0  0  0  0  0  0  0
   -0.6971   -2.0154   -0.1200 H   0  0  0  0  0  0  0  0  0  0  0  0
   -2.3636   -2.3601    0.2708 H   0  0  0  0  0  0  0  0  0  0  0  0
   -2.4234    1.4999    0.0694 H   0  0  0  0  0  0  0  0  0  0  0  0
   -0.8954    1.3846   -0.7936 H   0  0  0  0  0  0  0  0  0  0  0  0
   -4.3082   -1.4969   -0.5026 H   0  0  0  0  0  0  0  0  0  0  0  0
   -6.6823   -1.9634   -3.2904 H   0  0  0  0  0  0  0  0  0  0  0  0
   -6.9699   -3.4535   -1.2753 H   0  0  0  0  0  0  0  0  0  0  0  0
   -6.0696   -2.2991   -0.3456 H   0  0  0  0  0  0  0  0  0  0  0  0
   -8.1214   -1.5695    0.2080 H   0  0  0  0  0  0  0  0  0  0  0  0
   -9.1290   -2.4276   -2.6070 H   0  0  0  0  0  0  0  0  0  0  0  0
  -10.1601   -1.9340   -1.1933 H   0  0  0  0  0  0  0  0  0  0  0  0
   -9.0400    0.3278   -1.1662 H   0  0  0  0  0  0  0  0  0  0  0  0
   -7.9747   -0.1447   -2.5507 H   0  0  0  0  0  0  0  0  0  0  0  0
   -2.0964    0.5452   -5.2451 H   0  0  0  0  0  0  0  0  0  0  0  0
   -3.6355   -0.0411   -5.9077 H   0  0  0  0  0  0  0  0  0  0  0  0
  1  2  1  0  0  0  0
  1 20  1  0  0  0  0
  1 21  1  0  0  0  0
  1 22  1  0  0  0  0
  2 23  1  0  0  0  0
  3  2  1  0  0  0  0
  3  4  1  0  0  0  0
  3  7  1  0  0  0  0
  3 24  1  1  0  0  0
  4  5  1  0  0  0  0
  4 25  1  0  0  0  0
  4 26  1  0  0  0  0
  5  6  1  0  0  0  0
  5 27  1  0  0  0  0
  5 28  1  0  0  0  0
  6  7  1  0  0  0  0
  6  8  1  0  0  0  0
  7 29  1  0  0  0  0
  7 30  1  0  0  0  0
  8  9  2  0  0  0  0
  8 19  1  0  0  0  0
  9 10  1  0  0  0  0
  9 31  1  0  0  0  0
 10 11  1  0  0  0  0
 10 16  2  0  0  0  0
 11 12  1  0  0  0  0
 11 32  1  0  0  0  0
 12 13  1  0  0  0  0
 12 33  1  0  0  0  0
 12 34  1  0  0  0  0
 13 14  1  0  0  0  0
 13 15  1  0  0  0  0
 13 35  1  0  0  0  0
 14 15  1  0  0  0  0
 14 36  1  0  0  0  0
 14 37  1  0  0  0  0
 15 38  1  0  0  0  0
 15 39  1  0  0  0  0
 16 17  1  0  0  0  0
 17 18  1  0  0  0  0
 17 19  2  0  0  0  0
 18 40  1  0  0  0  0
 18 41  1  0  0  0  0
M  END
>  <DRUGBANK_ID>
DB15027

>  <COMMON_NAME>
Adriforant

>  <CAS_NUMBER>
943057-12-3

>  <UNII>
D65H9YE9VU

>  <SYNONYMS>
Adriforant; PF-03893787

$$$$
