
 OpenBabel10282417193D

 42 44  0  0  0  0  0  0  0  0999 V2000
   -0.7464    1.2344    0.1712 C   0  0  0  0  0  0  0  0  0  0  0  0
   -0.7491   -1.2213    0.1738 C   0  0  0  0  0  0  0  0  0  0  0  0
    0.7237    1.1818   -0.2796 C   0  0  0  0  0  0  0  0  0  0  0  0
    0.7032   -1.1941   -0.3074 C   0  0  0  0  0  0  0  0  0  0  0  0
   -4.9891   -0.4661   -1.2113 C   0  0  0  0  0  0  0  0  0  0  0  0
   -2.6895    0.6464   -2.2062 C   0  0  0  0  0  0  0  0  0  0  0  0
   -2.7943    2.3523   -4.5582 C   0  0  0  0  0  0  0  0  0  0  0  0
   -3.7929   -0.5496   -0.4533 C   0  0  0  0  0  0  0  0  0  0  0  0
   -5.0592    0.3144   -2.3616 C   0  0  0  0  0  0  0  0  0  0  0  0
   -2.6172    0.0168   -0.9500 C   0  0  0  0  0  0  0  0  0  0  0  0
   -3.9043    0.8896   -2.8737 C   0  0  0  0  0  0  0  0  0  0  0  0
   -6.4679    1.3727   -4.0444 C   0  0  0  0  0  0  0  0  0  0  0  0
   -5.2099    2.0418   -4.6191 C   0  0  0  0  0  0  0  0  0  0  0  0
   -3.9025   -1.1918    0.9075 C   0  0  0  0  0  0  0  0  0  0  0  0
   -4.8905   -0.6154    1.6497 F   0  0  0  0  0  0  0  0  0  0  0  0
   -4.2280   -2.5109    0.8109 F   0  0  0  0  0  0  0  0  0  0  0  0
   -2.8068   -1.1444    1.7052 F   0  0  0  0  0  0  0  0  0  0  0  0
   -6.2970    0.5447   -2.9648 N   0  0  0  0  0  0  0  0  0  0  0  0
   -1.4094    0.0033   -0.3010 N   0  0  0  0  0  0  0  0  0  0  0  0
   -3.9925    1.7369   -4.0126 N   0  0  0  0  0  0  0  0  0  0  0  0
   -7.5791    1.5926   -4.5245 O   0  0  0  0  0  0  0  0  0  0  0  0
   -5.3089    2.8352   -5.5529 O   0  0  0  0  0  0  0  0  0  0  0  0
   -0.6780    3.2758   -4.2731 O   0  0  0  0  0  0  0  0  0  0  0  0
   -2.7559    4.6825   -3.9950 O   0  0  0  0  0  0  0  0  0  0  0  0
   -1.3111    4.2875   -2.2198 O   0  0  0  0  0  0  0  0  0  0  0  0
    1.3822   -0.0181    0.1741 O   0  0  0  0  0  0  0  0  0  0  0  0
   -1.9909    3.4006   -3.2915 P   0  0  0  0  0  0  0  0  0  0  0  0
   -0.7907    1.2554    1.2690 H   0  0  0  0  0  0  0  0  0  0  0  0
   -1.2310    2.1455   -0.1958 H   0  0  0  0  0  0  0  0  0  0  0  0
   -0.7278   -1.2290    1.2701 H   0  0  0  0  0  0  0  0  0  0  0  0
   -1.2591   -2.1224   -0.1806 H   0  0  0  0  0  0  0  0  0  0  0  0
    0.7825    1.2124   -1.3735 H   0  0  0  0  0  0  0  0  0  0  0  0
    1.2767    2.0383    0.1166 H   0  0  0  0  0  0  0  0  0  0  0  0
    1.2334   -2.0716    0.0737 H   0  0  0  0  0  0  0  0  0  0  0  0
    0.7465   -1.2079   -1.4017 H   0  0  0  0  0  0  0  0  0  0  0  0
   -5.8798   -0.9768   -0.8467 H   0  0  0  0  0  0  0  0  0  0  0  0
   -1.7381    0.9383   -2.6405 H   0  0  0  0  0  0  0  0  0  0  0  0
   -2.1339    1.5244   -4.8516 H   0  0  0  0  0  0  0  0  0  0  0  0
   -2.9903    2.8969   -5.4893 H   0  0  0  0  0  0  0  0  0  0  0  0
   -7.1482    0.1551   -2.5793 H   0  0  0  0  0  0  0  0  0  0  0  0
    0.0782    2.8734   -3.8067 H   0  0  0  0  0  0  0  0  0  0  0  0
   -3.6329    4.5307   -4.4055 H   0  0  0  0  0  0  0  0  0  0  0  0
  1 28  1  0  0  0  0
  1 29  1  0  0  0  0
  2 30  1  0  0  0  0
  2 31  1  0  0  0  0
  3  1  1  0  0  0  0
  3 32  1  0  0  0  0
  3 33  1  0  0  0  0
  4  2  1  0  0  0  0
  4 34  1  0  0  0  0
  4 35  1  0  0  0  0
  5 36  1  0  0  0  0
  6 37  1  0  0  0  0
  7 38  1  0  0  0  0
  7 39  1  0  0  0  0
  8  5  2  0  0  0  0
  9  5  1  0  0  0  0
 10  6  2  0  0  0  0
 10  8  1  0  0  0  0
 11  6  1  0  0  0  0
 11  9  2  0  0  0  0
 13 12  1  0  0  0  0
 14  8  1  0  0  0  0
 15 14  1  0  0  0  0
 16 14  1  0  0  0  0
 17 14  1  0  0  0  0
 18  9  1  0  0  0  0
 18 12  1  0  0  0  0
 18 40  1  0  0  0  0
 19  1  1  0  0  0  0
 19  2  1  0  0  0  0
 19 10  1  0  0  0  0
 20  7  1  0  0  0  0
 20 11  1  0  0  0  0
 20 13  1  0  0  0  0
 21 12  2  0  0  0  0
 22 13  2  0  0  0  0
 23 41  1  0  0  0  0
 24 42  1  0  0  0  0
 26  3  1  0  0  0  0
 26  4  1  0  0  0  0
 27  7  1  0  0  0  0
 27 23  1  0  0  0  0
 27 24  1  0  0  0  0
 27 25  2  0  0  0  0
M  END
>  <DRUGBANK_ID>
DB12393

>  <COMMON_NAME>
Fanapanel

>  <CAS_NUMBER>
161605-73-8

>  <UNII>
E3AP71EM0O

>  <SYNONYMS>
Fanapanel

$$$$
