
 OpenBabel10282417173D

 55 58  0  0  0  0  0  0  0  0999 V2000
  -12.0552    2.7919    2.6800 C   0  0  0  0  0  0  0  0  0  0  0  0
  -12.2685    3.0540    4.0202 C   0  0  0  0  0  0  0  0  0  0  0  0
  -10.7953    2.3930    2.2741 C   0  0  0  0  0  0  0  0  0  0  0  0
  -11.2137    2.9316    4.9351 C   0  0  0  0  0  0  0  0  0  0  0  0
   -6.9223    1.0423    7.3061 C   0  0  0  0  0  0  0  0  0  0  0  0
   -6.6237    2.4757    7.6148 C   0  0  0  0  0  0  0  0  0  0  0  0
   -8.2536    2.5433    0.3503 C   0  0  0  0  0  0  0  0  0  0  0  0
   -7.8993    0.2393    0.9951 C   0  0  0  0  0  0  0  0  0  0  0  0
   -7.9385    2.2375   -0.9743 C   0  0  0  0  0  0  0  0  0  0  0  0
   -7.5312   -0.0384   -0.3129 C   0  0  0  0  0  0  0  0  0  0  0  0
   -5.3895    1.2487    2.1975 C   0  0  0  0  0  0  0  0  0  0  0  0
   -5.9641    1.4093    3.4007 C   0  0  0  0  0  0  0  0  0  0  0  0
   -4.2318   -0.8595    1.5265 C   0  0  0  0  0  0  0  0  0  0  0  0
   -3.8828   -2.7600   -0.0782 C   0  0  0  0  0  0  0  0  0  0  0  0
   -8.2172    1.5522    1.3564 C   0  0  0  0  0  0  0  0  0  0  0  0
   -6.6189    2.0240    6.1851 C   0  0  0  0  0  0  0  0  0  0  0  0
   -7.5407    0.9492   -1.2883 C   0  0  0  0  0  0  0  0  0  0  0  0
   -4.0728    0.6378    1.8390 C   0  0  2  0  0  0  0  0  0  0  0  0
   -3.6041   -1.2703    0.1894 C   0  0  2  0  0  0  0  0  0  0  0  0
   -9.7155    2.2853    3.1862 C   0  0  0  0  0  0  0  0  0  0  0  0
   -7.3647    1.8428    3.7355 C   0  0  0  0  0  0  0  0  0  0  0  0
   -9.9292    2.5640    4.5460 C   0  0  0  0  0  0  0  0  0  0  0  0
   -4.6439   -2.9051   -1.3631 C   0  0  0  0  0  0  0  0  0  0  0  0
   -8.4176    1.9005    2.7773 C   0  0  0  0  0  0  0  0  0  0  0  0
   -7.6849    2.1435    5.0927 C   0  0  0  0  0  0  0  0  0  0  0  0
   -7.1404    0.6563   -2.5326 F   0  0  0  0  0  0  0  0  0  0  0  0
   -8.9507    2.4874    5.4684 N   0  0  0  0  0  0  0  0  0  0  0  0
   -3.1762    0.7902    2.9251 O   0  0  0  0  0  0  0  0  0  0  0  0
   -2.2038   -1.0149    0.1609 O   0  0  0  0  0  0  0  0  0  0  0  0
   -4.4796   -3.7594   -2.2271 O   0  0  0  0  0  0  0  0  0  0  0  0
   -5.6246   -2.0023   -1.4709 O   0  0  0  0  0  0  0  0  0  0  0  0
  -12.8489    2.8864    1.9452 H   0  0  0  0  0  0  0  0  0  0  0  0
  -13.2557    3.3527    4.3576 H   0  0  0  0  0  0  0  0  0  0  0  0
  -10.6655    2.1736    1.2167 H   0  0  0  0  0  0  0  0  0  0  0  0
  -11.4023    3.1361    5.9860 H   0  0  0  0  0  0  0  0  0  0  0  0
   -6.1919    0.2722    7.5170 H   0  0  0  0  0  0  0  0  0  0  0  0
   -7.9493    0.7209    7.4612 H   0  0  0  0  0  0  0  0  0  0  0  0
   -7.3986    3.1344    7.9741 H   0  0  0  0  0  0  0  0  0  0  0  0
   -5.6406    2.6924    8.0338 H   0  0  0  0  0  0  0  0  0  0  0  0
   -8.5116    3.5676    0.6120 H   0  0  0  0  0  0  0  0  0  0  0  0
   -7.7725   -0.5343    1.7518 H   0  0  0  0  0  0  0  0  0  0  0  0
   -7.9761    2.9993   -1.7453 H   0  0  0  0  0  0  0  0  0  0  0  0
   -7.1885   -1.0312   -0.5287 H   0  0  0  0  0  0  0  0  0  0  0  0
   -5.8962    1.5318    1.2925 H   0  0  0  0  0  0  0  0  0  0  0  0
   -5.3386    1.1573    4.2451 H   0  0  0  0  0  0  0  0  0  0  0  0
   -3.7654   -1.4488    2.3247 H   0  0  0  0  0  0  0  0  0  0  0  0
   -5.2909   -1.1496    1.4988 H   0  0  0  0  0  0  0  0  0  0  0  0
   -2.9617   -3.3488   -0.1457 H   0  0  0  0  0  0  0  0  0  0  0  0
   -4.4976   -3.2033    0.7170 H   0  0  0  0  0  0  0  0  0  0  0  0
   -5.6078    2.1823    5.8283 H   0  0  0  0  0  0  0  0  0  0  0  0
   -3.6879    1.1943    0.9770 H   0  0  0  0  0  0  0  0  0  0  0  0
   -4.0203   -0.6327   -0.5976 H   0  0  0  0  0  0  0  0  0  0  0  0
   -3.5579    0.2977    3.6691 H   0  0  0  0  0  0  0  0  0  0  0  0
   -1.7955   -1.3728    0.9663 H   0  0  0  0  0  0  0  0  0  0  0  0
   -6.0378   -2.0655   -2.3557 H   0  0  0  0  0  0  0  0  0  0  0  0
  1 32  1  0  0  0  0
  2  1  2  0  0  0  0
  2 33  1  0  0  0  0
  3  1  1  0  0  0  0
  3 34  1  0  0  0  0
  4  2  1  0  0  0  0
  4 35  1  0  0  0  0
  5 36  1  0  0  0  0
  5 37  1  0  0  0  0
  6  5  1  0  0  0  0
  6 38  1  0  0  0  0
  6 39  1  0  0  0  0
  7 40  1  0  0  0  0
  8 41  1  0  0  0  0
  9  7  1  0  0  0  0
  9 42  1  0  0  0  0
 10  8  2  0  0  0  0
 10 43  1  0  0  0  0
 11 44  1  0  0  0  0
 12 11  2  0  0  0  0
 12 45  1  0  0  0  0
 13 46  1  0  0  0  0
 13 47  1  0  0  0  0
 14 48  1  0  0  0  0
 14 49  1  0  0  0  0
 15  7  2  0  0  0  0
 15  8  1  0  0  0  0
 16  5  1  0  0  0  0
 16  6  1  0  0  0  0
 16 50  1  0  0  0  0
 17  9  2  0  0  0  0
 17 10  1  0  0  0  0
 18 28  1  0  0  0  0
 18 51  1  6  0  0  0
 18 13  1  0  0  0  0
 18 11  1  0  0  0  0
 19 29  1  0  0  0  0
 19 52  1  6  0  0  0
 19 14  1  0  0  0  0
 19 13  1  0  0  0  0
 20  3  2  0  0  0  0
 21 12  1  0  0  0  0
 22  4  2  0  0  0  0
 22 20  1  0  0  0  0
 23 14  1  0  0  0  0
 24 15  1  0  0  0  0
 24 20  1  0  0  0  0
 24 21  2  0  0  0  0
 25 16  1  0  0  0  0
 25 21  1  0  0  0  0
 26 17  1  0  0  0  0
 27 22  1  0  0  0  0
 27 25  2  0  0  0  0
 28 53  1  0  0  0  0
 29 54  1  0  0  0  0
 30 23  2  0  0  0  0
 31 23  1  0  0  0  0
 31 55  1  0  0  0  0
M  END
>  <DRUGBANK_ID>
DB08860

>  <SECONDARY_ACCESSION_NUMBERS>
DB06514

>  <COMMON_NAME>
Pitavastatin

>  <CAS_NUMBER>
147511-69-1

>  <UNII>
M5681Q5F9P

>  <SYNONYMS>
Pitavastatia; Pitavastatin; Pitavastatina; Pitavastatine; Pitavastatinum

$$$$
