
 OpenBabel10282417213D

  1  0  0  0  0  0  0  0  0  0999 V2000
    0.9620   -0.0572   -0.0727 Ni  0  2  0  0  0  0  0  0  0  0  0  0
M  CHG  1   1   2
M  END
>  <DRUGBANK_ID>
DB14204

>  <COMMON_NAME>
Nickel cation

>  <CAS_NUMBER>
14701-22-5

>  <UNII>
OIS2CXW7AM

>  <SYNONYMS>
Nickel cation (Ni2+); Nickel ion(2+); Nickel, ion (Ni2+); Nickel(2+); Nickel(2+) ion; Nickel(II) cation; Nickel(II) ion; Nickelous ion

$$$$
