
 OpenBabel10282417213D

 30 31  0  0  0  0  0  0  0  0999 V2000
    1.4549   -0.2989    0.0175 C   0  0  0  0  0  0  0  0  0  0  0  0
   -0.8374   -1.0951   -0.0036 C   0  0  0  0  0  0  0  0  0  0  0  0
    0.5385   -1.3496    0.0283 C   0  0  0  0  0  0  0  0  0  0  0  0
   -1.3133    0.2238   -0.0607 C   0  0  0  0  0  0  0  0  0  0  0  0
    1.0014    1.0100   -0.0338 C   0  0  0  0  0  0  0  0  0  0  0  0
   -0.3641    1.2592   -0.0763 C   0  0  0  0  0  0  0  0  0  0  0  0
   -2.8069    0.5084   -0.1962 C   0  0  3  0  0  0  0  0  0  0  0  0
   -3.4406    1.2562    0.9763 C   0  0  0  0  0  0  0  0  0  0  0  0
   -2.9953    2.5520    1.3087 C   0  0  0  0  0  0  0  0  0  0  0  0
   -3.6266    3.3475    2.2558 C   0  0  0  0  0  0  0  0  0  0  0  0
   -4.7780    2.8721    2.8587 C   0  0  0  0  0  0  0  0  0  0  0  0
   -4.5757    0.7867    1.6559 C   0  0  0  0  0  0  0  0  0  0  0  0
   -5.2665    1.6112    2.5477 C   0  0  0  0  0  0  0  0  0  0  0  0
   -3.0938    1.2729   -1.5004 C   0  0  0  0  0  0  0  0  0  0  0  0
   -5.0919   -0.4658    1.4797 O   0  0  0  0  0  0  0  0  0  0  0  0
   -5.4470    3.6384    3.7631 O   0  0  0  0  0  0  0  0  0  0  0  0
    2.5221   -0.4937    0.0379 H   0  0  0  0  0  0  0  0  0  0  0  0
   -1.5244   -1.9384   -0.0132 H   0  0  0  0  0  0  0  0  0  0  0  0
    0.9012   -2.3742    0.0468 H   0  0  0  0  0  0  0  0  0  0  0  0
    1.6949    1.8450   -0.0635 H   0  0  0  0  0  0  0  0  0  0  0  0
   -0.6580    2.2976   -0.1531 H   0  0  0  0  0  0  0  0  0  0  0  0
   -3.3078   -0.4596   -0.3197 H   0  0  0  0  0  0  0  0  0  0  0  0
   -2.1584    3.0130    0.8016 H   0  0  0  0  0  0  0  0  0  0  0  0
   -3.2282    4.3336    2.4628 H   0  0  0  0  0  0  0  0  0  0  0  0
   -6.1946    1.2676    2.9978 H   0  0  0  0  0  0  0  0  0  0  0  0
   -2.7258    0.7160   -2.3686 H   0  0  0  0  0  0  0  0  0  0  0  0
   -4.1700    1.4341   -1.6297 H   0  0  0  0  0  0  0  0  0  0  0  0
   -2.6144    2.2580   -1.5160 H   0  0  0  0  0  0  0  0  0  0  0  0
   -4.3871   -1.0642    1.1868 H   0  0  0  0  0  0  0  0  0  0  0  0
   -4.9018    4.4183    3.9592 H   0  0  0  0  0  0  0  0  0  0  0  0
  1  5  1  0  0  0  0
  1 17  1  0  0  0  0
  2  3  1  0  0  0  0
  2 18  1  0  0  0  0
  3  1  2  0  0  0  0
  3 19  1  0  0  0  0
  4  2  2  0  0  0  0
  4  7  1  0  0  0  0
  5  6  2  0  0  0  0
  5 20  1  0  0  0  0
  6  4  1  0  0  0  0
  6 21  1  0  0  0  0
  7  8  1  0  0  0  0
  7 14  1  0  0  0  0
  7 22  1  0  0  0  0
  8 12  1  0  0  0  0
  9  8  2  0  0  0  0
  9 23  1  0  0  0  0
 10  9  1  0  0  0  0
 10 24  1  0  0  0  0
 11 10  2  0  0  0  0
 11 16  1  0  0  0  0
 12 13  2  0  0  0  0
 12 15  1  0  0  0  0
 13 11  1  0  0  0  0
 13 25  1  0  0  0  0
 14 26  1  0  0  0  0
 14 27  1  0  0  0  0
 14 28  1  0  0  0  0
 15 29  1  0  0  0  0
 16 30  1  0  0  0  0
M  END
>  <DRUGBANK_ID>
DB14120

>  <COMMON_NAME>
Phenylethyl resorcinol

>  <CAS_NUMBER>
85-27-8

>  <UNII>
G37UFG162O

>  <SYNONYMS>
(+/-)-Phenylethyl resorcinol

$$$$
