
 OpenBabel10282417183D

 15 15  0  0  0  0  0  0  0  0999 V2000
   -1.4477   -0.1049   -0.0871 C   0  0  0  0  0  0  0  0  0  0  0  0
   -0.6799   -1.2838   -0.0799 C   0  0  0  0  0  0  0  0  0  0  0  0
   -0.7931    1.1276    0.0107 C   0  0  0  0  0  0  0  0  0  0  0  0
   -2.8518   -0.1387    0.0288 N   0  0  0  0  0  0  0  0  0  0  0  0
    0.7049   -1.1326    0.0382 C   0  0  0  0  0  0  0  0  0  0  0  0
   -1.2749   -2.5551    0.0399 N   0  0  0  0  0  0  0  0  0  0  0  0
    0.5934    1.1548    0.0122 C   0  0  0  0  0  0  0  0  0  0  0  0
    1.3626    0.0521    0.0302 N   0  0  0  0  0  0  0  0  0  0  0  0
   -1.3470    2.0543    0.0910 H   0  0  0  0  0  0  0  0  0  0  0  0
   -3.2785   -0.9750   -0.3475 H   0  0  0  0  0  0  0  0  0  0  0  0
   -3.3195    0.7079   -0.2731 H   0  0  0  0  0  0  0  0  0  0  0  0
    1.3489   -1.9979    0.1582 H   0  0  0  0  0  0  0  0  0  0  0  0
   -0.6828   -3.3205   -0.2636 H   0  0  0  0  0  0  0  0  0  0  0  0
   -2.2061   -2.6087   -0.3504 H   0  0  0  0  0  0  0  0  0  0  0  0
    1.1327    2.0982    0.0210 H   0  0  0  0  0  0  0  0  0  0  0  0
  1  2  1  0  0  0  0
  1  3  2  0  0  0  0
  1  4  1  0  0  0  0
  2  5  2  0  0  0  0
  2  6  1  0  0  0  0
  3  7  1  0  0  0  0
  3  9  1  0  0  0  0
  4 10  1  0  0  0  0
  4 11  1  0  0  0  0
  5  8  1  0  0  0  0
  5 12  1  0  0  0  0
  6 13  1  0  0  0  0
  6 14  1  0  0  0  0
  7  8  2  0  0  0  0
  7 15  1  0  0  0  0
M  END
>  <DRUGBANK_ID>
DB11640

>  <COMMON_NAME>
Amifampridine

>  <CAS_NUMBER>
54-96-6

>  <UNII>
RU4S6E2G0J

>  <SYNONYMS>
3,4 diaminopyridine; 3,4-DAP; 3,4-Diaminopyridine; 3,4-Pyridinediamine; 4,5-Diaminopyridine; Amifampridine; DAP

$$$$
