
 OpenBabel10282417123D

 18 17  0  0  0  0  0  0  0  0999 V2000
    1.1096   -0.1034   -0.0653 N   0  3  0  0  0  0  0  0  0  0  0  0
    0.6594   -0.8100    1.1569 C   0  0  0  0  0  0  0  0  0  0  0  0
    1.1275   -0.0557    2.3965 C   0  0  0  0  0  0  0  0  0  0  0  0
    0.5713    1.3711    2.5094 C   0  0  0  0  0  0  0  0  0  0  0  0
   -0.9539    1.4333    2.5221 C   0  0  0  0  0  0  0  0  0  0  0  0
   -1.4799    0.7532    3.6420 O   0  0  0  0  0  0  0  0  0  0  0  0
    0.7499    0.8582   -0.1242 H   0  0  0  0  0  0  0  0  0  0  0  0
    0.7931   -0.5893   -0.9148 H   0  0  0  0  0  0  0  0  0  0  0  0
    2.1365   -0.0499   -0.1074 H   0  0  0  0  0  0  0  0  0  0  0  0
   -0.4294   -0.8931    1.1004 H   0  0  0  0  0  0  0  0  0  0  0  0
    1.0860   -1.8161    1.1190 H   0  0  0  0  0  0  0  0  0  0  0  0
    0.8464   -0.6288    3.2883 H   0  0  0  0  0  0  0  0  0  0  0  0
    2.2239   -0.0093    2.4039 H   0  0  0  0  0  0  0  0  0  0  0  0
    0.9557    1.8128    3.4367 H   0  0  0  0  0  0  0  0  0  0  0  0
    0.9539    1.9884    1.6888 H   0  0  0  0  0  0  0  0  0  0  0  0
   -1.2827    2.4756    2.5774 H   0  0  0  0  0  0  0  0  0  0  0  0
   -1.3876    1.0112    1.6103 H   0  0  0  0  0  0  0  0  0  0  0  0
   -1.2335   -0.1883    3.6369 H   0  0  0  0  0  0  0  0  0  0  0  0
  1  2  1  0  0  0  0
  1  7  1  0  0  0  0
  1  8  1  0  0  0  0
  1  9  1  0  0  0  0
  2  3  1  0  0  0  0
  2 10  1  0  0  0  0
  2 11  1  0  0  0  0
  3  4  1  0  0  0  0
  3 12  1  0  0  0  0
  3 13  1  0  0  0  0
  4  5  1  0  0  0  0
  4 14  1  0  0  0  0
  4 15  1  0  0  0  0
  5  6  1  0  0  0  0
  5 16  1  0  0  0  0
  5 17  1  0  0  0  0
  6 18  1  0  0  0  0
M  CHG  1   1   1
M  END
>  <DRUGBANK_ID>
DB02541

>  <SECONDARY_ACCESSION_NUMBERS>
EXPT00214

>  <COMMON_NAME>
4-Hydroxybutan-1-Aminium

$$$$
