
 OpenBabel10282417143D

 81 84  0  0  0  0  0  0  0  0999 V2000
    1.2614   -0.1411   -0.2618 O   0  0  0  0  0  0  0  0  0  0  0  0
    2.4613   -0.0968   -0.0914 C   0  0  0  0  0  0  0  0  0  0  0  0
    3.3425   -1.1484    0.0648 N   0  0  0  0  0  0  0  0  0  0  0  0
    4.5424   -0.7283    0.5623 C   0  0  0  0  0  0  0  0  0  0  0  0
    3.2801    1.1305    0.0464 C   0  0  0  0  0  0  0  0  0  0  0  0
    4.5117    0.7235    0.4142 C   0  0  0  0  0  0  0  0  0  0  0  0
    2.8003    2.5028   -0.2512 C   0  0  0  0  0  0  0  0  0  0  0  0
    5.6755    1.6580    0.5478 C   0  0  0  0  0  0  0  0  0  0  0  0
    5.4575   -1.5096    1.1604 C   0  0  0  0  0  0  0  0  0  0  0  0
    5.3472   -2.9818    1.3123 C   0  0  0  0  0  0  0  0  0  0  0  0
    5.2898   -3.7787    0.2875 N   0  0  0  0  0  0  0  0  0  0  0  0
    5.2554   -5.0559    0.8021 C   0  0  0  0  0  0  0  0  0  0  0  0
    5.3919   -3.6791    2.6287 C   0  0  0  0  0  0  0  0  0  0  0  0
    5.3952   -4.9676    2.2384 C   0  0  0  0  0  0  0  0  0  0  0  0
    5.3773   -3.1390    4.0196 C   0  0  0  0  0  0  0  0  0  0  0  0
    5.4637   -6.2050    3.0798 C   0  0  0  0  0  0  0  0  0  0  0  0
    5.1060   -6.1831    0.0824 C   0  0  0  0  0  0  0  0  0  0  0  0
    5.2373   -6.1349   -1.3281 C   0  0  0  0  0  0  0  0  0  0  0  0
    4.2422   -6.5542   -2.2027 N   0  0  0  0  0  0  0  0  0  0  0  0
    4.5954   -6.2386   -3.5270 C   0  0  0  0  0  0  0  0  0  0  0  0
    6.2999   -5.6897   -2.0759 C   0  0  0  0  0  0  0  0  0  0  0  0
    5.9342   -5.8719   -3.4280 C   0  0  0  0  0  0  0  0  0  0  0  0
    7.5922   -5.1050   -1.6099 C   0  0  0  0  0  0  0  0  0  0  0  0
    6.8755   -5.6088   -4.5180 C   0  0  0  0  0  0  0  0  0  0  0  0
    3.7053   -6.4895   -4.6613 C   0  0  0  0  0  0  0  0  0  0  0  0
    3.8832   -6.0937   -5.9567 C   0  0  0  0  0  0  0  0  0  0  0  0
    4.8151   -5.2350   -6.4726 N   0  0  0  0  0  0  0  0  0  0  0  0
    4.8594   -5.1282   -7.8110 C   0  0  0  0  0  0  0  0  0  0  0  0
    3.2736   -6.5820   -7.1957 C   0  0  0  0  0  0  0  0  0  0  0  0
    3.8254   -6.0086   -8.2930 C   0  0  0  0  0  0  0  0  0  0  0  0
    2.2890   -7.6860   -7.3227 C   0  0  0  0  0  0  0  0  0  0  0  0
    3.6683   -6.2038   -9.7457 C   0  0  0  0  0  0  0  0  0  0  0  0
    5.7615   -4.5999   -8.4570 O   0  0  0  0  0  0  0  0  0  0  0  0
    6.2188    1.7251    1.9609 C   0  0  0  0  0  0  0  0  0  0  0  0
    4.0793   -3.4051    4.8173 C   0  0  0  0  0  0  0  0  0  0  0  0
    3.5845   -4.8312    4.9533 C   0  0  0  0  0  0  0  0  0  0  0  0
    3.8666   -5.4580    6.1141 O   0  0  0  0  0  0  0  0  0  0  0  0
    2.9541   -5.4034    4.0739 O   0  0  0  0  0  0  0  0  0  0  0  0
    7.1675   -6.8461   -5.4069 C   0  0  0  0  0  0  0  0  0  0  0  0
    6.1311   -7.8911   -5.8681 C   0  0  0  0  0  0  0  0  0  0  0  0
    5.9701   -7.9811   -7.2144 O   0  0  0  0  0  0  0  0  0  0  0  0
    5.5264   -8.6639   -5.1369 O   0  0  0  0  0  0  0  0  0  0  0  0
    1.0291   -7.0547   -7.8831 C   0  0  0  0  0  0  0  0  0  0  0  0
    3.0768   -2.1166   -0.0647 H   0  0  0  0  0  0  0  0  0  0  0  0
    3.3802   -6.9900   -1.9020 H   0  0  0  0  0  0  0  0  0  0  0  0
    5.7210   -5.0979   -6.1334 H   0  0  0  0  0  0  0  0  0  0  0  0
    2.9594    3.1601    0.6115 H   0  0  0  0  0  0  0  0  0  0  0  0
    3.3565    2.9209   -1.0984 H   0  0  0  0  0  0  0  0  0  0  0  0
    1.7378    2.5363   -0.5049 H   0  0  0  0  0  0  0  0  0  0  0  0
    6.4594    1.3850   -0.1677 H   0  0  0  0  0  0  0  0  0  0  0  0
    5.3770    2.6792    0.2708 H   0  0  0  0  0  0  0  0  0  0  0  0
    6.3607   -1.0963    1.5812 H   0  0  0  0  0  0  0  0  0  0  0  0
    6.2453   -3.5281    4.5692 H   0  0  0  0  0  0  0  0  0  0  0  0
    5.5240   -2.0506    3.9865 H   0  0  0  0  0  0  0  0  0  0  0  0
    4.5485   -6.7952    2.9542 H   0  0  0  0  0  0  0  0  0  0  0  0
    6.3075   -6.8474    2.8195 H   0  0  0  0  0  0  0  0  0  0  0  0
    5.5887   -5.9769    4.1407 H   0  0  0  0  0  0  0  0  0  0  0  0
    5.0602   -7.1499    0.5738 H   0  0  0  0  0  0  0  0  0  0  0  0
    8.4337   -5.6746   -2.0169 H   0  0  0  0  0  0  0  0  0  0  0  0
    7.6709   -4.0725   -1.9726 H   0  0  0  0  0  0  0  0  0  0  0  0
    7.7028   -5.0878   -0.5248 H   0  0  0  0  0  0  0  0  0  0  0  0
    6.5240   -4.6512   -4.9179 H   0  0  0  0  0  0  0  0  0  0  0  0
    7.8418   -5.2358   -4.1685 H   0  0  0  0  0  0  0  0  0  0  0  0
    2.8846   -7.1756   -4.4565 H   0  0  0  0  0  0  0  0  0  0  0  0
    2.6751   -8.4604   -8.0038 H   0  0  0  0  0  0  0  0  0  0  0  0
    2.0955   -8.1906   -6.3731 H   0  0  0  0  0  0  0  0  0  0  0  0
    3.3509   -5.2550  -10.1865 H   0  0  0  0  0  0  0  0  0  0  0  0
    4.6065   -6.5171  -10.2156 H   0  0  0  0  0  0  0  0  0  0  0  0
    2.9276   -6.9674   -9.9764 H   0  0  0  0  0  0  0  0  0  0  0  0
    6.6325    0.7710    2.2836 H   0  0  0  0  0  0  0  0  0  0  0  0
    7.0269    2.4584    2.0203 H   0  0  0  0  0  0  0  0  0  0  0  0
    5.4324    2.0088    2.6671 H   0  0  0  0  0  0  0  0  0  0  0  0
    4.1632   -2.9690    5.8187 H   0  0  0  0  0  0  0  0  0  0  0  0
    3.2584   -2.8763    4.3212 H   0  0  0  0  0  0  0  0  0  0  0  0
    4.1507   -4.8999    6.8590 H   0  0  0  0  0  0  0  0  0  0  0  0
    7.7165   -6.5066   -6.2890 H   0  0  0  0  0  0  0  0  0  0  0  0
    7.8612   -7.4679   -4.8301 H   0  0  0  0  0  0  0  0  0  0  0  0
    6.3321   -7.2563   -7.7573 H   0  0  0  0  0  0  0  0  0  0  0  0
    1.1969   -6.6060   -8.8683 H   0  0  0  0  0  0  0  0  0  0  0  0
    0.2369   -7.7906   -7.9983 H   0  0  0  0  0  0  0  0  0  0  0  0
    0.7025   -6.2424   -7.2269 H   0  0  0  0  0  0  0  0  0  0  0  0
  1  2  2  0  0  0  0
  2  3  1  0  0  0  0
  2  5  1  0  0  0  0
  3  4  1  0  0  0  0
  3 44  1  0  0  0  0
  4  6  1  0  0  0  0
  4  9  2  0  0  0  0
  5  6  2  0  0  0  0
  5  7  1  0  0  0  0
  6  8  1  0  0  0  0
  7 47  1  0  0  0  0
  7 48  1  0  0  0  0
  7 49  1  0  0  0  0
  8 34  1  0  0  0  0
  8 50  1  0  0  0  0
  8 51  1  0  0  0  0
  9 10  1  0  0  0  0
  9 52  1  0  0  0  0
 10 11  2  0  0  0  0
 10 13  1  0  0  0  0
 11 12  1  0  0  0  0
 12 14  1  0  0  0  0
 12 17  2  0  0  0  0
 13 14  2  0  0  0  0
 13 15  1  0  0  0  0
 14 16  1  0  0  0  0
 15 35  1  0  0  0  0
 15 53  1  0  0  0  0
 15 54  1  0  0  0  0
 16 55  1  0  0  0  0
 16 56  1  0  0  0  0
 16 57  1  0  0  0  0
 17 18  1  0  0  0  0
 17 58  1  0  0  0  0
 18 19  1  0  0  0  0
 18 21  2  0  0  0  0
 19 20  1  0  0  0  0
 19 45  1  0  0  0  0
 20 22  2  0  0  0  0
 20 25  1  0  0  0  0
 21 22  1  0  0  0  0
 21 23  1  0  0  0  0
 22 24  1  0  0  0  0
 23 59  1  0  0  0  0
 23 60  1  0  0  0  0
 23 61  1  0  0  0  0
 24 39  1  0  0  0  0
 24 62  1  0  0  0  0
 24 63  1  0  0  0  0
 25 26  2  0  0  0  0
 25 64  1  0  0  0  0
 26 27  1  0  0  0  0
 26 29  1  0  0  0  0
 27 28  1  0  0  0  0
 27 46  1  0  0  0  0
 28 30  1  0  0  0  0
 28 33  2  0  0  0  0
 29 30  2  0  0  0  0
 29 31  1  0  0  0  0
 30 32  1  0  0  0  0
 31 43  1  0  0  0  0
 31 65  1  0  0  0  0
 31 66  1  0  0  0  0
 32 67  1  0  0  0  0
 32 68  1  0  0  0  0
 32 69  1  0  0  0  0
 34 70  1  0  0  0  0
 34 71  1  0  0  0  0
 34 72  1  0  0  0  0
 35 36  1  0  0  0  0
 35 73  1  0  0  0  0
 35 74  1  0  0  0  0
 36 37  1  0  0  0  0
 36 38  2  0  0  0  0
 37 75  1  0  0  0  0
 39 40  1  0  0  0  0
 39 76  1  0  0  0  0
 39 77  1  0  0  0  0
 40 41  1  0  0  0  0
 40 42  2  0  0  0  0
 41 78  1  0  0  0  0
 43 79  1  0  0  0  0
 43 80  1  0  0  0  0
 43 81  1  0  0  0  0
M  END
>  <DRUGBANK_ID>
DB04363

>  <SECONDARY_ACCESSION_NUMBERS>
EXPT02129

>  <COMMON_NAME>
Mesobiliverdin IV alpha

$$$$
