
 OpenBabel10282417133D

 23 23  0  0  0  0  0  0  0  0999 V2000
    1.1727   -0.1276    0.1385 C   0  0  0  0  0  0  0  0  0  0  0  0
    0.5280    0.6486    1.2862 C   0  0  0  0  0  0  0  0  0  0  0  0
    0.9320    2.1270    1.3410 C   0  0  0  0  0  0  0  0  0  0  0  0
    0.4509    3.0188    0.2101 C   0  0  0  0  0  0  0  0  0  0  0  0
   -0.2559    2.4950   -0.8891 C   0  0  0  0  0  0  0  0  0  0  0  0
   -0.4773    3.2336   -2.0430 C   0  0  0  0  0  0  0  0  0  0  0  0
   -0.1119    4.5695   -2.0684 C   0  0  0  0  0  0  0  0  0  0  0  0
    0.4720    5.1463   -0.9388 C   0  0  0  0  0  0  0  0  0  0  0  0
    0.7487    4.3963    0.2144 C   0  0  0  0  0  0  0  0  0  0  0  0
    1.5200    4.9812    1.2322 N   0  0  0  0  0  0  0  0  0  0  0  0
    0.9887    0.2958   -0.8504 H   0  0  0  0  0  0  0  0  0  0  0  0
    0.7797   -1.1473    0.1148 H   0  0  0  0  0  0  0  0  0  0  0  0
    2.2582   -0.1615    0.2550 H   0  0  0  0  0  0  0  0  0  0  0  0
   -0.5650    0.5674    1.2452 H   0  0  0  0  0  0  0  0  0  0  0  0
    0.8371    0.1704    2.2238 H   0  0  0  0  0  0  0  0  0  0  0  0
    0.5543    2.5367    2.2873 H   0  0  0  0  0  0  0  0  0  0  0  0
    2.0289    2.1803    1.3817 H   0  0  0  0  0  0  0  0  0  0  0  0
   -0.6234    1.4731   -0.8956 H   0  0  0  0  0  0  0  0  0  0  0  0
   -0.9174    2.7560   -2.9134 H   0  0  0  0  0  0  0  0  0  0  0  0
   -0.2845    5.1566   -2.9635 H   0  0  0  0  0  0  0  0  0  0  0  0
    0.7330    6.2012   -0.9748 H   0  0  0  0  0  0  0  0  0  0  0  0
    1.4551    4.5234    2.1339 H   0  0  0  0  0  0  0  0  0  0  0  0
    1.4152    5.9886    1.3061 H   0  0  0  0  0  0  0  0  0  0  0  0
  1  2  1  0  0  0  0
  1 11  1  0  0  0  0
  1 12  1  0  0  0  0
  1 13  1  0  0  0  0
  2  3  1  0  0  0  0
  2 14  1  0  0  0  0
  2 15  1  0  0  0  0
  3  4  1  0  0  0  0
  3 16  1  0  0  0  0
  3 17  1  0  0  0  0
  4  5  2  0  0  0  0
  4  9  1  0  0  0  0
  5  6  1  0  0  0  0
  5 18  1  0  0  0  0
  6  7  2  0  0  0  0
  6 19  1  0  0  0  0
  7  8  1  0  0  0  0
  7 20  1  0  0  0  0
  8  9  2  0  0  0  0
  8 21  1  0  0  0  0
  9 10  1  0  0  0  0
 10 22  1  0  0  0  0
 10 23  1  0  0  0  0
M  END
>  <DRUGBANK_ID>
DB02970

>  <SECONDARY_ACCESSION_NUMBERS>
EXPT02667

>  <COMMON_NAME>
2-Propyl-Aniline

>  <UNII>
KDP5MSE5C0

$$$$
