
 OpenBabel10282417123D

 65 67  0  0  0  0  0  0  0  0999 V2000
    0.9880    0.6051    0.1171 F   0  0  0  0  0  0  0  0  0  0  0  0
    5.2313   -4.0691   -0.4793 O   0  0  0  0  0  0  0  0  0  0  0  0
    2.3388   -6.4599   -1.6858 O   0  0  0  0  0  0  0  0  0  0  0  0
    5.0283   -2.2928    1.2404 O   0  0  0  0  0  0  0  0  0  0  0  0
    0.4677   -4.9142   -2.9183 O   0  0  0  0  0  0  0  0  0  0  0  0
    4.4063    1.3749    0.8246 O   0  0  0  0  0  0  0  0  0  0  0  0
    1.4158   -4.5814    0.5528 O   0  0  0  0  0  0  0  0  0  0  0  0
    2.9215   -3.5731    2.3546 O   0  0  0  0  0  0  0  0  0  0  0  0
   -1.4533   -6.7883   -2.1660 O   0  0  0  0  0  0  0  0  0  0  0  0
    1.8034   -1.6503    0.1327 O   0  0  0  0  0  0  0  0  0  0  0  0
    0.0102   -6.1926    0.9540 O   0  0  0  0  0  0  0  0  0  0  0  0
   -1.9871   -4.0007   -1.3423 O   0  0  0  0  0  0  0  0  0  0  0  0
    6.7580   -5.4482   -2.4162 O   0  0  0  0  0  0  0  0  0  0  0  0
    2.5357    1.6749    2.2345 O   0  0  0  0  0  0  0  0  0  0  0  0
    6.9165    1.2662    1.9040 O   0  0  0  0  0  0  0  0  0  0  0  0
    2.4894   -2.6220   -2.6904 O   0  0  0  0  0  0  0  0  0  0  0  0
    3.2195   -5.4933   -1.0041 C   0  0  1  0  0  0  0  0  0  0  0  0
    2.7491   -5.0760    0.4402 C   0  0  1  0  0  0  0  0  0  0  0  0
    3.4255   -3.9020    1.0507 C   0  0  2  0  0  0  0  0  0  0  0  0
    4.7809   -5.4194   -0.9923 C   0  0  1  0  0  0  0  0  0  0  0  0
    4.8596   -3.7110    0.8666 C   0  0  1  0  0  0  0  0  0  0  0  0
    4.2988   -1.1476    0.6387 C   0  0  1  0  0  0  0  0  0  0  0  0
    0.9147   -6.1553   -2.2133 C   0  0  2  0  0  0  0  0  0  0  0  0
   -0.2716   -6.6553   -1.3472 C   0  0  1  0  0  0  0  0  0  0  0  0
    2.7320   -0.8449    0.7959 C   0  0  1  0  0  0  0  0  0  0  0  0
    4.8782    0.1088    1.3552 C   0  0  1  0  0  0  0  0  0  0  0  0
   -0.6380   -5.6908   -0.2361 C   0  0  2  0  0  0  0  0  0  0  0  0
   -0.6453   -4.1661   -0.8092 C   0  0  1  0  0  0  0  0  0  0  0  0
    0.2517   -3.7598   -2.0596 C   0  0  1  0  0  0  0  0  0  0  0  0
    2.3459    0.4707    0.1315 C   0  0  2  0  0  0  0  0  0  0  0  0
    5.3363   -5.4382   -2.4514 C   0  0  0  0  0  0  0  0  0  0  0  0
    2.9930    1.5689    0.8956 C   0  0  2  0  0  0  0  0  0  0  0  0
    6.3991    0.1002    1.2754 C   0  0  0  0  0  0  0  0  0  0  0  0
    1.6005   -3.3037   -1.8517 C   0  0  0  0  0  0  0  0  0  0  0  0
    2.6635    0.4567   -0.9239 H   0  0  0  0  0  0  0  0  0  0  0  0
    1.3514   -3.6350    0.8099 H   0  0  0  0  0  0  0  0  0  0  0  0
    2.1777   -2.9475    2.2692 H   0  0  0  0  0  0  0  0  0  0  0  0
   -1.7542   -5.8829   -2.3698 H   0  0  0  0  0  0  0  0  0  0  0  0
    1.9451   -1.4177   -0.8176 H   0  0  0  0  0  0  0  0  0  0  0  0
    0.5512   -5.4779    1.3377 H   0  0  0  0  0  0  0  0  0  0  0  0
   -1.9114   -3.8886   -2.3133 H   0  0  0  0  0  0  0  0  0  0  0  0
    7.0138   -4.6715   -1.8827 H   0  0  0  0  0  0  0  0  0  0  0  0
    2.4636    0.8019    2.6485 H   0  0  0  0  0  0  0  0  0  0  0  0
    6.4143    2.0129    1.5248 H   0  0  0  0  0  0  0  0  0  0  0  0
    3.2568   -3.2012   -2.8834 H   0  0  0  0  0  0  0  0  0  0  0  0
    3.2999   -4.8024   -1.8196 H   0  0  0  0  0  0  0  0  0  0  0  0
    2.8082   -5.9508    1.0868 H   0  0  0  0  0  0  0  0  0  0  0  0
    3.1255   -3.1094    0.4127 H   0  0  0  0  0  0  0  0  0  0  0  0
    5.2322   -6.2067   -0.3913 H   0  0  0  0  0  0  0  0  0  0  0  0
    5.4004   -4.3377    1.5845 H   0  0  0  0  0  0  0  0  0  0  0  0
    4.5519   -1.1695   -0.4256 H   0  0  0  0  0  0  0  0  0  0  0  0
    0.8945   -6.8278   -3.0811 H   0  0  0  0  0  0  0  0  0  0  0  0
   -0.0245   -7.6418   -0.9497 H   0  0  0  0  0  0  0  0  0  0  0  0
    2.4270   -0.9227    1.8384 H   0  0  0  0  0  0  0  0  0  0  0  0
    4.6025    0.0800    2.4199 H   0  0  0  0  0  0  0  0  0  0  0  0
   -1.6670   -5.8374    0.0957 H   0  0  0  0  0  0  0  0  0  0  0  0
   -0.5705   -3.4252    0.0032 H   0  0  0  0  0  0  0  0  0  0  0  0
   -0.2041   -2.9135   -2.6091 H   0  0  0  0  0  0  0  0  0  0  0  0
    4.9753   -6.2938   -3.0287 H   0  0  0  0  0  0  0  0  0  0  0  0
    5.0616   -4.5272   -3.0082 H   0  0  0  0  0  0  0  0  0  0  0  0
    2.7164    2.5000    0.3937 H   0  0  0  0  0  0  0  0  0  0  0  0
    6.8175   -0.7740    1.7818 H   0  0  0  0  0  0  0  0  0  0  0  0
    6.7243    0.0983    0.2315 H   0  0  0  0  0  0  0  0  0  0  0  0
    1.8790   -3.1175   -0.8385 H   0  0  0  0  0  0  0  0  0  0  0  0
    1.9225   -4.2628   -1.7968 H   0  0  0  0  0  0  0  0  0  0  0  0
  1 30  1  0  0  0  0
  2 20  1  0  0  0  0
  2 21  1  0  0  0  0
  5 23  1  0  0  0  0
  5 29  1  0  0  0  0
  6 26  1  0  0  0  0
  6 32  1  0  0  0  0
  7 36  1  0  0  0  0
  8 37  1  0  0  0  0
  9 38  1  0  0  0  0
 10 39  1  0  0  0  0
 11 40  1  0  0  0  0
 12 41  1  0  0  0  0
 13 31  1  0  0  0  0
 13 42  1  0  0  0  0
 14 43  1  0  0  0  0
 15 33  1  0  0  0  0
 15 44  1  0  0  0  0
 16 34  1  0  0  0  0
 16 45  1  0  0  0  0
 17 18  1  0  0  0  0
 17 20  1  0  0  0  0
 17 46  1  6  0  0  0
 17  3  1  0  0  0  0
 18  7  1  0  0  0  0
 18 19  1  0  0  0  0
 18 47  1  1  0  0  0
 19 21  1  0  0  0  0
 19 48  1  6  0  0  0
 19  8  1  0  0  0  0
 20 31  1  0  0  0  0
 20 49  1  1  0  0  0
 21  4  1  0  0  0  0
 21 50  1  1  0  0  0
 22 25  1  0  0  0  0
 22 26  1  0  0  0  0
 22 51  1  6  0  0  0
 22  4  1  0  0  0  0
 23  3  1  0  0  0  0
 23 24  1  0  0  0  0
 23 52  1  6  0  0  0
 24  9  1  0  0  0  0
 24 27  1  0  0  0  0
 24 53  1  1  0  0  0
 25 10  1  0  0  0  0
 25 30  1  0  0  0  0
 25 54  1  1  0  0  0
 26 33  1  0  0  0  0
 26 55  1  1  0  0  0
 27 28  1  0  0  0  0
 27 56  1  1  0  0  0
 27 11  1  0  0  0  0
 28 12  1  0  0  0  0
 28 29  1  0  0  0  0
 28 57  1  1  0  0  0
 29 34  1  0  0  0  0
 29 58  1  6  0  0  0
 30 32  1  0  0  0  0
 30 35  1  6  0  0  0
 31 59  1  0  0  0  0
 31 60  1  0  0  0  0
 32 14  1  0  0  0  0
 32 61  1  6  0  0  0
 33 62  1  0  0  0  0
 33 63  1  0  0  0  0
 34 64  1  0  0  0  0
 34 65  1  0  0  0  0
M  END
>  <DRUGBANK_ID>
DB01633

>  <SECONDARY_ACCESSION_NUMBERS>
EXPT01406

>  <COMMON_NAME>
Deoxy-2-fluoro-beta-D-cellotrioside

>  <SYNONYMS>
β-D-Glucopyranosyl-(1->4)-β-D-glucopyranosyl-(1->4)-2-deoxy-2-fluoro-α-D-glucopyranose

$$$$
