
 OpenBabel10282417203D

 57 60  0  0  1  0  0  0  0  0999 V2000
   -2.9810    3.4396    2.8144 C   0  0  0  0  0  0  0  0  0  0  0  0
   -1.7916    2.5165    2.8640 C   0  0  0  0  0  0  0  0  0  0  0  0
   -0.8118    2.7346    2.1327 O   0  0  0  0  0  0  0  0  0  0  0  0
   -1.6733    1.4909    3.9695 C   0  0  1  0  0  0  0  0  0  0  0  0
   -2.6540   -0.2144    4.2784 C   0  0  0  0  0  0  0  0  0  0  0  0
   -1.6704   -1.1996    4.8693 C   0  0  0  0  0  0  0  0  0  0  0  0
   -0.8661   -0.0673    4.4837 C   0  0  2  0  0  0  0  0  0  0  0  0
   -1.6997    1.1253    5.3335 C   0  0  2  0  0  0  0  0  0  0  0  0
   -1.0751    1.2659    6.6806 C   0  0  0  0  0  0  0  0  0  0  0  0
    0.4591    1.1090    6.6848 C   0  0  0  0  0  0  0  0  0  0  0  0
    1.0159   -0.1947    5.9886 C   0  0  1  0  0  0  0  0  0  0  0  0
    0.5799   -0.1916    4.5523 C   0  0  1  0  0  0  0  0  0  0  0  0
    0.7336   -1.4998    3.7436 C   0  0  0  0  0  0  0  0  0  0  0  0
    2.1228   -1.7934    3.8907 C   0  0  1  0  0  0  0  0  0  0  0  0
    2.3014   -2.0612    5.6993 C   0  0  0  0  0  0  0  0  0  0  0  0
    2.9245   -2.9534    6.5760 C   0  0  0  0  0  0  0  0  0  0  0  0
    4.0855   -3.5784    5.9870 C   0  0  0  0  0  0  0  0  0  0  0  0
    4.5864   -4.6986    6.3251 O   0  0  0  0  0  0  0  0  0  0  0  0
    4.4388   -2.7519    4.8724 C   0  0  0  0  0  0  0  0  0  0  0  0
    3.9407   -0.9604    5.2362 C   0  0  0  0  0  0  0  0  0  0  0  0
    2.5291   -0.6622    6.1882 C   0  0  2  0  0  0  0  0  0  0  0  0
    2.8297   -0.3699    7.6740 C   0  0  0  0  0  0  0  0  0  0  0  0
    2.6851   -2.6456    2.7755 C   0  0  0  0  0  0  0  0  0  0  0  0
    2.4455   -3.9232    3.1160 F   0  0  0  0  0  0  0  0  0  0  0  0
    2.3117   -2.5008    1.5025 F   0  0  0  0  0  0  0  0  0  0  0  0
    3.9962   -2.2883    2.7132 F   0  0  0  0  0  0  0  0  0  0  0  0
   -3.3398    1.7448    5.2919 C   0  0  0  0  0  0  0  0  0  0  0  0
   -1.2935    2.8700    4.7817 O   0  0  0  0  0  0  0  0  0  0  0  0
   -3.0969    3.8023    1.7998 H   0  0  0  0  0  0  0  0  0  0  0  0
   -2.8827    4.2705    3.5262 H   0  0  0  0  0  0  0  0  0  0  0  0
   -3.8916    2.8993    3.0338 H   0  0  0  0  0  0  0  0  0  0  0  0
   -3.4381   -0.8075    3.7988 H   0  0  0  0  0  0  0  0  0  0  0  0
   -3.2698   -0.1963    5.1810 H   0  0  0  0  0  0  0  0  0  0  0  0
   -1.5831   -2.1490    4.3439 H   0  0  0  0  0  0  0  0  0  0  0  0
   -1.6557   -1.3508    5.9559 H   0  0  0  0  0  0  0  0  0  0  0  0
   -0.9110   -0.0827    3.3191 H   0  0  0  0  0  0  0  0  0  0  0  0
   -1.3863    2.2095    7.1439 H   0  0  0  0  0  0  0  0  0  0  0  0
   -1.5279    0.4815    7.3095 H   0  0  0  0  0  0  0  0  0  0  0  0
    0.9062    1.9885    6.2161 H   0  0  0  0  0  0  0  0  0  0  0  0
    0.6902    1.1250    7.7492 H   0  0  0  0  0  0  0  0  0  0  0  0
    0.4116   -0.9711    6.4962 H   0  0  0  0  0  0  0  0  0  0  0  0
    1.0515    0.6643    4.0305 H   0  0  0  0  0  0  0  0  0  0  0  0
    0.4749   -1.3649    2.6798 H   0  0  0  0  0  0  0  0  0  0  0  0
    0.2410   -2.3829    4.1339 H   0  0  0  0  0  0  0  0  0  0  0  0
    2.4794   -0.8153    3.5150 H   0  0  0  0  0  0  0  0  0  0  0  0
    3.3759   -2.6097    7.5270 H   0  0  0  0  0  0  0  0  0  0  0  0
    5.1383   -3.0609    4.0803 H   0  0  0  0  0  0  0  0  0  0  0  0
    3.6596   -3.4061    4.4151 H   0  0  0  0  0  0  0  0  0  0  0  0
    4.8009   -0.4794    5.6771 H   0  0  0  0  0  0  0  0  0  0  0  0
    3.7998   -0.2935    4.3755 H   0  0  0  0  0  0  0  0  0  0  0  0
    2.2683   -1.0590    8.3209 H   0  0  0  0  0  0  0  0  0  0  0  0
    3.8953   -0.4157    7.8774 H   0  0  0  0  0  0  0  0  0  0  0  0
    2.5325    0.6309    8.0071 H   0  0  0  0  0  0  0  0  0  0  0  0
   -3.3874    2.8229    5.4294 H   0  0  0  0  0  0  0  0  0  0  0  0
   -3.7447    1.5717    4.2606 H   0  0  0  0  0  0  0  0  0  0  0  0
   -4.1002    1.2379    5.8738 H   0  0  0  0  0  0  0  0  0  0  0  0
   -0.3534    3.1466    4.7271 H   0  0  0  0  0  0  0  0  0  0  0  0
  1  2  1  0  0  0  0
  1 29  1  0  0  0  0
  1 30  1  0  0  0  0
  1 31  1  0  0  0  0
  2  3  2  0  0  0  0
  4  5  1  0  0  0  0
  4  8  1  0  0  0  0
  4 28  1  1  0  0  0
  4  2  1  0  0  0  0
  5  6  1  0  0  0  0
  5 32  1  0  0  0  0
  5 33  1  0  0  0  0
  6 34  1  0  0  0  0
  6 35  1  0  0  0  0
  7  6  1  0  0  0  0
  7  8  1  0  0  0  0
  7 12  1  0  0  0  0
  7 36  1  1  0  0  0
  8  9  1  0  0  0  0
  8 27  1  6  0  0  0
  9 10  1  0  0  0  0
  9 37  1  0  0  0  0
  9 38  1  0  0  0  0
 10 39  1  0  0  0  0
 10 40  1  0  0  0  0
 11 10  1  0  0  0  0
 11 12  1  0  0  0  0
 11 21  1  0  0  0  0
 11 41  1  1  0  0  0
 12 13  1  0  0  0  0
 12 42  1  6  0  0  0
 13 14  1  0  0  0  0
 13 43  1  0  0  0  0
 13 44  1  0  0  0  0
 14 15  1  0  0  0  0
 14 45  1  6  0  0  0
 14 23  1  0  0  0  0
 15 16  2  0  0  0  0
 15 21  1  0  0  0  0
 16 17  1  0  0  0  0
 16 46  1  0  0  0  0
 17 18  2  0  0  0  0
 17 19  1  0  0  0  0
 19 20  1  0  0  0  0
 19 47  1  0  0  0  0
 19 48  1  0  0  0  0
 20 21  1  0  0  0  0
 20 49  1  0  0  0  0
 20 50  1  0  0  0  0
 21 22  1  6  0  0  0
 22 51  1  0  0  0  0
 22 52  1  0  0  0  0
 22 53  1  0  0  0  0
 23 24  1  0  0  0  0
 23 25  1  0  0  0  0
 23 26  1  0  0  0  0
 27 54  1  0  0  0  0
 27 55  1  0  0  0  0
 27 56  1  0  0  0  0
 28 57  1  0  0  0  0
M  END
>  <DRUGBANK_ID>
DB13610

>  <COMMON_NAME>
Flumedroxone

>  <CAS_NUMBER>
15687-21-5

>  <UNII>
K80185F39X

>  <SYNONYMS>
Flumedroxone

$$$$
