
 OpenBabel10282417183D

 46 50  0  0  1  0  0  0  0  0999 V2000
   -1.7196   -0.0575   -1.4105 C   0  0  0  0  0  0  0  0  0  0  0  0
   -2.3918   -1.1196   -0.8618 C   0  0  0  0  0  0  0  0  0  0  0  0
   -1.3875   -1.9301   -0.4447 N   0  0  0  0  0  0  0  0  0  0  0  0
   -0.1237   -1.3027   -0.4753 C   0  0  0  0  0  0  0  0  0  0  0  0
   -0.2524    0.0347   -0.8161 C   0  0  0  0  0  0  0  0  0  0  0  0
    0.9054    1.0908   -0.2977 C   0  0  0  0  0  0  0  0  0  0  0  0
    2.1211    0.4349   -0.0168 C   0  0  0  0  0  0  0  0  0  0  0  0
    2.0633   -0.9619    0.0471 C   0  0  0  0  0  0  0  0  0  0  0  0
    1.0076   -1.8497   -0.0288 N   0  0  0  0  0  0  0  0  0  0  0  0
    3.4483    1.1952    0.1286 C   0  0  0  0  0  0  0  0  0  0  0  0
    3.5583    2.3898    0.1501 O   0  0  0  0  0  0  0  0  0  0  0  0
    4.6058    0.4317    0.1840 N   0  0  0  0  0  0  0  0  0  0  0  0
    0.9624    2.5962    0.0137 N   0  0  0  0  0  0  0  0  0  0  0  0
   -0.0583    3.7821    0.0608 C   0  0  2  0  0  0  0  0  0  0  0  0
   -0.9207    3.7861    1.3480 C   0  0  2  0  0  0  0  0  0  0  0  0
   -2.3895    4.3132    1.2425 C   0  0  0  0  0  0  0  0  0  0  0  0
   -3.1322    3.7517    0.0108 C   0  0  3  0  0  0  0  0  0  0  0  0
   -2.3422    4.1671   -1.2818 C   0  0  0  0  0  0  0  0  0  0  0  0
   -0.8843    3.7358   -1.1982 C   0  0  1  0  0  0  0  0  0  0  0  0
   -1.1658    2.2997   -1.2263 C   0  0  0  0  0  0  0  0  0  0  0  0
   -1.8066    1.7653    0.4360 C   0  0  1  0  0  0  0  0  0  0  0  0
   -1.1242    2.3592    1.6733 C   0  0  0  0  0  0  0  0  0  0  0  0
   -3.2422    2.2433    0.3148 C   0  0  0  0  0  0  0  0  0  0  0  0
   -2.0418    0.4963    1.0832 O   0  0  0  0  0  0  0  0  0  0  0  0
   -2.4562    0.6978   -1.6724 H   0  0  0  0  0  0  0  0  0  0  0  0
   -3.4461   -1.1470   -0.5389 H   0  0  0  0  0  0  0  0  0  0  0  0
   -1.6029   -2.7406    0.1037 H   0  0  0  0  0  0  0  0  0  0  0  0
    2.9823   -1.5143    0.1787 H   0  0  0  0  0  0  0  0  0  0  0  0
    4.6572   -0.5642    0.1242 H   0  0  0  0  0  0  0  0  0  0  0  0
    5.4853    0.9365    0.2048 H   0  0  0  0  0  0  0  0  0  0  0  0
    1.9309    2.9686    0.0228 H   0  0  0  0  0  0  0  0  0  0  0  0
    0.4829    4.7394    0.0654 H   0  0  0  0  0  0  0  0  0  0  0  0
   -0.3947    4.2375    2.1943 H   0  0  0  0  0  0  0  0  0  0  0  0
   -2.4718    5.3931    1.2921 H   0  0  0  0  0  0  0  0  0  0  0  0
   -2.9308    3.9413    2.1315 H   0  0  0  0  0  0  0  0  0  0  0  0
   -4.1419    4.1491   -0.0777 H   0  0  0  0  0  0  0  0  0  0  0  0
   -2.4379    5.2196   -1.5329 H   0  0  0  0  0  0  0  0  0  0  0  0
   -2.7807    3.6862   -2.1841 H   0  0  0  0  0  0  0  0  0  0  0  0
   -0.2708    4.0007   -2.0792 H   0  0  0  0  0  0  0  0  0  0  0  0
   -1.8114    2.1469   -2.0980 H   0  0  0  0  0  0  0  0  0  0  0  0
   -0.2881    1.8897   -1.7649 H   0  0  0  0  0  0  0  0  0  0  0  0
   -1.7629    2.2304    2.5636 H   0  0  0  0  0  0  0  0  0  0  0  0
   -0.2112    1.8313    1.9870 H   0  0  0  0  0  0  0  0  0  0  0  0
   -3.8581    1.6763   -0.4009 H   0  0  0  0  0  0  0  0  0  0  0  0
   -3.7241    1.9521    1.2683 H   0  0  0  0  0  0  0  0  0  0  0  0
   -1.3317   -0.1432    0.9761 H   0  0  0  0  0  0  0  0  0  0  0  0
  1  2  2  0  0  0  0
  1  5  1  0  0  0  0
  1 25  1  0  0  0  0
  2  3  1  0  0  0  0
  2 26  1  0  0  0  0
  3  4  1  0  0  0  0
  3 27  1  0  0  0  0
  4  5  1  0  0  0  0
  4  9  2  0  0  0  0
  5  6  2  0  0  0  0
  6  7  1  0  0  0  0
  6 13  1  0  0  0  0
  7  8  2  0  0  0  0
  7 10  1  0  0  0  0
  8  9  1  0  0  0  0
  8 28  1  0  0  0  0
 10 11  2  0  0  0  0
 10 12  1  0  0  0  0
 12 29  1  0  0  0  0
 12 30  1  0  0  0  0
 13 31  1  0  0  0  0
 14 15  1  0  0  0  0
 14 19  1  0  0  0  0
 14 32  1  6  0  0  0
 14 13  1  0  0  0  0
 15 22  1  0  0  0  0
 15 16  1  0  0  0  0
 15 33  1  6  0  0  0
 16 17  1  0  0  0  0
 16 34  1  0  0  0  0
 16 35  1  0  0  0  0
 17 23  1  0  0  0  0
 17 18  1  0  0  0  0
 17 36  1  0  0  0  0
 18 19  1  0  0  0  0
 18 37  1  0  0  0  0
 18 38  1  0  0  0  0
 19 20  1  0  0  0  0
 19 39  1  1  0  0  0
 20 21  1  0  0  0  0
 20 40  1  0  0  0  0
 20 41  1  0  0  0  0
 21 22  1  0  0  0  0
 21 23  1  0  0  0  0
 21 24  1  1  0  0  0
 22 42  1  0  0  0  0
 22 43  1  0  0  0  0
 23 44  1  0  0  0  0
 23 45  1  0  0  0  0
 24 46  1  0  0  0  0
M  END
>  <DRUGBANK_ID>
DB11708

>  <COMMON_NAME>
Peficitinib

>  <CAS_NUMBER>
944118-01-8

>  <UNII>
HPH1166CKX

>  <SYNONYMS>
Peficitinib

$$$$
