CK7
 OpenBabel10282417123D

 35 37  0  0  0  0  0  0  0  0999 V2000
    1.9108    1.3222   -0.0083 N   0  0  0  0  0  0  0  0  0  0  0  0
    0.7957    0.5829    0.0131 C   0  0  0  0  0  0  0  0  0  0  0  0
   -0.3995    1.1172    0.0079 N   0  0  0  0  0  0  0  0  0  0  0  0
   -1.3686    0.1283    0.0073 C   0  0  0  0  0  0  0  0  0  0  0  0
   -2.7934    0.5477    0.0062 C   0  0  0  0  0  0  0  0  0  0  0  0
    0.8291   -1.1364    0.0345 S   0  0  0  0  0  0  0  0  0  0  0  0
   -0.8860   -1.1697   -0.0139 C   0  0  0  0  0  0  0  0  0  0  0  0
   -1.6387   -2.4151   -0.1085 C   0  0  0  0  0  0  0  0  0  0  0  0
   -1.4912   -3.2713    0.9088 N   0  0  0  0  0  0  0  0  0  0  0  0
   -2.5291   -2.6294   -1.1346 C   0  0  0  0  0  0  0  0  0  0  0  0
   -3.2735   -3.7778   -1.0484 C   0  0  0  0  0  0  0  0  0  0  0  0
   -3.1514   -4.6672   -0.0467 N   0  0  0  0  0  0  0  0  0  0  0  0
   -2.2443   -4.3840    0.9001 C   0  0  0  0  0  0  0  0  0  0  0  0
   -2.0348   -5.3333    1.8914 N   0  0  0  0  0  0  0  0  0  0  0  0
   -1.2719   -5.1635    3.0476 C   0  0  0  0  0  0  0  0  0  0  0  0
   -1.4572   -4.0473    3.8778 C   0  0  0  0  0  0  0  0  0  0  0  0
   -0.3049   -6.1090    3.3879 C   0  0  0  0  0  0  0  0  0  0  0  0
    0.4265   -5.9503    4.5708 C   0  0  0  0  0  0  0  0  0  0  0  0
    1.2799   -7.0430    5.0450 N   0  3  0  0  0  0  0  0  0  0  0  0
    1.3599   -8.0614    4.3368 O   0  5  0  0  0  0  0  0  0  0  0  0
    1.8306   -6.9100    6.1436 O   0  0  0  0  0  0  0  0  0  0  0  0
    0.2753   -4.8065    5.3668 C   0  0  0  0  0  0  0  0  0  0  0  0
   -0.6800   -3.8573    5.0189 C   0  0  0  0  0  0  0  0  0  0  0  0
    1.8346    2.3312   -0.0418 H   0  0  0  0  0  0  0  0  0  0  0  0
    2.8375    0.9209   -0.0138 H   0  0  0  0  0  0  0  0  0  0  0  0
   -3.0122    1.1462    0.8939 H   0  0  0  0  0  0  0  0  0  0  0  0
   -3.0056    1.1385   -0.8890 H   0  0  0  0  0  0  0  0  0  0  0  0
   -3.4753   -0.3073    0.0122 H   0  0  0  0  0  0  0  0  0  0  0  0
   -2.6549   -1.9240   -1.9433 H   0  0  0  0  0  0  0  0  0  0  0  0
   -4.0133   -4.0190   -1.8061 H   0  0  0  0  0  0  0  0  0  0  0  0
   -2.6390   -6.1375    1.8180 H   0  0  0  0  0  0  0  0  0  0  0  0
   -2.2136   -3.3062    3.6250 H   0  0  0  0  0  0  0  0  0  0  0  0
   -0.1123   -6.9435    2.7160 H   0  0  0  0  0  0  0  0  0  0  0  0
    0.8744   -4.6535    6.2608 H   0  0  0  0  0  0  0  0  0  0  0  0
   -0.8387   -2.9802    5.6408 H   0  0  0  0  0  0  0  0  0  0  0  0
  1  2  1  0  0  0  0
  1 24  1  0  0  0  0
  1 25  1  0  0  0  0
  2  3  2  0  0  0  0
  2  6  1  0  0  0  0
  3  4  1  0  0  0  0
  4  5  1  0  0  0  0
  4  7  2  0  0  0  0
  5 26  1  0  0  0  0
  5 27  1  0  0  0  0
  5 28  1  0  0  0  0
  6  7  1  0  0  0  0
  7  8  1  0  0  0  0
  8  9  2  0  0  0  0
  8 10  1  0  0  0  0
  9 13  1  0  0  0  0
 10 11  2  0  0  0  0
 10 29  1  0  0  0  0
 11 12  1  0  0  0  0
 11 30  1  0  0  0  0
 12 13  2  0  0  0  0
 13 14  1  0  0  0  0
 14 15  1  0  0  0  0
 14 31  1  0  0  0  0
 15 16  2  0  0  0  0
 15 17  1  0  0  0  0
 16 23  1  0  0  0  0
 16 32  1  0  0  0  0
 17 18  2  0  0  0  0
 17 33  1  0  0  0  0
 18 19  1  0  0  0  0
 18 22  1  0  0  0  0
 19 20  1  0  0  0  0
 19 21  2  0  0  0  0
 22 23  2  0  0  0  0
 22 34  1  0  0  0  0
 23 35  1  0  0  0  0
M  CHG  2  19   1  20  -1
M  END
>  <DRUGBANK_ID>
DB02833

>  <SECONDARY_ACCESSION_NUMBERS>
EXPT00930

>  <COMMON_NAME>
[4-(2-Amino-4-Methyl-Thiazol-5-Yl)-Pyrimidin-2-Yl]-(3-Nitro-Phenyl)-Amine

>  <UNII>
2L9NBR9W3T

$$$$
