
 OpenBabel10282417223D

 76 81  0  0  1  0  0  0  0  0999 V2000
    1.2788    0.8150    0.6231 C   0  0  0  0  0  0  0  0  0  0  0  0
    0.8191    0.4454    2.0626 C   0  0  0  0  0  0  0  0  0  0  0  0
   -0.8954    1.3462    1.6572 C   0  0  0  0  0  0  0  0  0  0  0  0
    1.4967   -1.0924    3.3076 C   0  0  0  0  0  0  0  0  0  0  0  0
    0.7904   -2.4531    3.0188 C   0  0  0  0  0  0  0  0  0  0  0  0
    0.6475   -1.5112    1.9533 C   0  0  0  0  0  0  0  0  0  0  0  0
    0.0199    0.0135    3.1647 C   0  0  0  0  0  0  0  0  0  0  0  0
    1.0580    1.3694    3.0726 C   0  0  0  0  0  0  0  0  0  0  0  0
    2.2662   -1.5226    1.4055 N   0  0  0  0  0  0  0  0  0  0  0  0
    2.3994   -1.6646   -0.0154 C   0  0  2  0  0  0  0  0  0  0  0  0
    0.9784   -1.9318   -0.6412 C   0  0  2  0  0  0  0  0  0  0  0  0
    0.6048   -0.8431   -1.8074 C   0  0  0  0  0  0  0  0  0  0  0  0
    1.6250   -0.3486   -2.5952 C   0  0  0  0  0  0  0  0  0  0  0  0
    2.8550   -0.8715   -2.5474 F   0  0  0  0  0  0  0  0  0  0  0  0
    1.3855    0.7724   -3.3849 C   0  0  0  0  0  0  0  0  0  0  0  0
    2.2516    0.9627   -4.8425 Cl  0  0  0  0  0  0  0  0  0  0  0  0
    0.3886    1.6633   -3.2079 N   0  0  0  0  0  0  0  0  0  0  0  0
   -0.5521    1.2443   -2.3793 C   0  0  0  0  0  0  0  0  0  0  0  0
   -0.6034   -0.1033   -2.0020 C   0  0  0  0  0  0  0  0  0  0  0  0
    0.0263   -2.0368    0.6609 C   0  0  2  0  0  0  0  0  0  0  0  0
   -1.1816   -1.2328    0.5488 C   0  0  0  0  0  0  0  0  0  0  0  0
   -1.2868   -0.1192    0.1548 O   0  0  0  0  0  0  0  0  0  0  0  0
   -2.3224   -1.8437    0.7658 N   0  0  0  0  0  0  0  0  0  0  0  0
   -2.0290   -3.1528    0.7593 C   0  0  0  0  0  0  0  0  0  0  0  0
   -2.9306   -4.1297    0.6879 C   0  0  0  0  0  0  0  0  0  0  0  0
   -2.3542   -5.3756    0.7948 C   0  0  0  0  0  0  0  0  0  0  0  0
   -3.4124   -6.7105    0.7841 Cl  0  0  0  0  0  0  0  0  0  0  0  0
   -0.9472   -5.5914    0.9318 C   0  0  0  0  0  0  0  0  0  0  0  0
   -0.0475   -4.5558    0.8954 C   0  0  0  0  0  0  0  0  0  0  0  0
   -0.6365   -3.3431    0.7786 C   0  0  0  0  0  0  0  0  0  0  0  0
    3.5396   -2.6244   -0.1994 C   0  0  0  0  0  0  0  0  0  0  0  0
    3.3970   -3.6481   -0.8591 O   0  0  0  0  0  0  0  0  0  0  0  0
    4.7604   -2.2590    0.3435 N   0  0  0  0  0  0  0  0  0  0  0  0
    5.1651   -1.0847    1.1816 C   0  0  2  0  0  0  0  0  0  0  0  0
    4.9329    0.2846    0.5201 C   0  0  0  0  0  0  0  0  0  0  0  0
    5.7027    0.3731   -0.7800 C   0  0  0  0  0  0  0  0  0  0  0  0
    7.1774    0.2263   -0.4225 C   0  0  2  0  0  0  0  0  0  0  0  0
    7.4136   -1.0186    0.2515 O   0  0  0  0  0  0  0  0  0  0  0  0
    6.6639   -1.1757    1.4666 C   0  0  0  0  0  0  0  0  0  0  0  0
    7.6516    1.4561    0.3973 C   0  0  0  0  0  0  0  0  0  0  0  0
    8.1539    2.5083   -0.2921 N   0  0  0  0  0  0  0  0  0  0  0  0
    7.5625    1.5636    1.6185 O   0  0  0  0  0  0  0  0  0  0  0  0
    0.6738    1.3940   -0.0720 H   0  0  0  0  0  0  0  0  0  0  0  0
    0.9677   -0.0775    0.1976 H   0  0  0  0  0  0  0  0  0  0  0  0
    2.2797    0.9233    0.3012 H   0  0  0  0  0  0  0  0  0  0  0  0
   -1.8174    0.7737    1.9086 H   0  0  0  0  0  0  0  0  0  0  0  0
   -1.0539    2.3611    2.0192 H   0  0  0  0  0  0  0  0  0  0  0  0
   -1.0409    1.6482    0.5887 H   0  0  0  0  0  0  0  0  0  0  0  0
    1.2207   -1.2440    4.4083 H   0  0  0  0  0  0  0  0  0  0  0  0
    2.5919   -1.2263    3.4913 H   0  0  0  0  0  0  0  0  0  0  0  0
   -0.2022   -2.6609    3.4613 H   0  0  0  0  0  0  0  0  0  0  0  0
    1.3574   -3.3788    2.8542 H   0  0  0  0  0  0  0  0  0  0  0  0
    0.2117    0.0102    4.2782 H   0  0  0  0  0  0  0  0  0  0  0  0
   -1.0606   -0.0523    3.2727 H   0  0  0  0  0  0  0  0  0  0  0  0
    2.1218    1.4393    2.7363 H   0  0  0  0  0  0  0  0  0  0  0  0
    0.5948    2.3285    2.8847 H   0  0  0  0  0  0  0  0  0  0  0  0
    2.7170   -0.6358    1.7072 H   0  0  0  0  0  0  0  0  0  0  0  0
    2.8492   -0.7794   -0.4473 H   0  0  0  0  0  0  0  0  0  0  0  0
    1.0623   -2.8998   -1.1309 H   0  0  0  0  0  0  0  0  0  0  0  0
   -1.2065    2.0089   -1.9363 H   0  0  0  0  0  0  0  0  0  0  0  0
   -1.5924   -0.3671   -1.6411 H   0  0  0  0  0  0  0  0  0  0  0  0
   -3.1386   -1.2916    0.5517 H   0  0  0  0  0  0  0  0  0  0  0  0
   -3.9752   -3.8781    0.5752 H   0  0  0  0  0  0  0  0  0  0  0  0
   -0.5391   -6.5819    1.0581 H   0  0  0  0  0  0  0  0  0  0  0  0
    1.0328   -4.6432    0.9872 H   0  0  0  0  0  0  0  0  0  0  0  0
    5.4880   -2.9308    0.1315 H   0  0  0  0  0  0  0  0  0  0  0  0
    4.6509   -1.1304    2.1474 H   0  0  0  0  0  0  0  0  0  0  0  0
    3.9189    0.5158    0.3084 H   0  0  0  0  0  0  0  0  0  0  0  0
    5.1925    1.1030    1.2018 H   0  0  0  0  0  0  0  0  0  0  0  0
    5.3767   -0.4371   -1.4496 H   0  0  0  0  0  0  0  0  0  0  0  0
    5.4760    1.3127   -1.2966 H   0  0  0  0  0  0  0  0  0  0  0  0
    7.7429    0.1934   -1.3598 H   0  0  0  0  0  0  0  0  0  0  0  0
    6.9530   -0.4320    2.2115 H   0  0  0  0  0  0  0  0  0  0  0  0
    6.9150   -2.1421    1.9107 H   0  0  0  0  0  0  0  0  0  0  0  0
    8.5134    3.2663    0.2745 H   0  0  0  0  0  0  0  0  0  0  0  0
    8.2645    2.5319   -1.2929 H   0  0  0  0  0  0  0  0  0  0  0  0
  1  2  1  0  0  0  0
  1 43  1  0  0  0  0
  1 44  1  0  0  0  0
  1 45  1  0  0  0  0
  2  3  1  0  0  0  0
  2  4  1  0  0  0  0
  2  8  1  0  0  0  0
  3 46  1  0  0  0  0
  3 47  1  0  0  0  0
  3 48  1  0  0  0  0
  4  5  1  0  0  0  0
  4 49  1  0  0  0  0
  4 50  1  0  0  0  0
  5  6  1  0  0  0  0
  5 51  1  0  0  0  0
  5 52  1  0  0  0  0
  6  7  1  0  0  0  0
  6  9  1  0  0  0  0
  7  8  1  0  0  0  0
  7 53  1  0  0  0  0
  7 54  1  0  0  0  0
  8 55  1  0  0  0  0
  8 56  1  0  0  0  0
  9 57  1  0  0  0  0
 10  9  1  0  0  0  0
 10 58  1  6  0  0  0
 10 31  1  0  0  0  0
 11 10  1  0  0  0  0
 11 12  1  0  0  0  0
 11 20  1  0  0  0  0
 11 59  1  6  0  0  0
 12 13  2  0  0  0  0
 12 19  1  0  0  0  0
 13 14  1  0  0  0  0
 13 15  1  0  0  0  0
 15 16  1  0  0  0  0
 15 17  2  0  0  0  0
 17 18  1  0  0  0  0
 18 19  2  0  0  0  0
 18 60  1  0  0  0  0
 19 61  1  0  0  0  0
 20  6  1  0  0  0  0
 20 21  1  6  0  0  0
 20 30  1  0  0  0  0
 21 22  2  0  0  0  0
 21 23  1  0  0  0  0
 23 24  1  0  0  0  0
 23 62  1  0  0  0  0
 24 25  2  0  0  0  0
 24 30  1  0  0  0  0
 25 26  1  0  0  0  0
 25 63  1  0  0  0  0
 26 27  1  0  0  0  0
 26 28  2  0  0  0  0
 28 29  1  0  0  0  0
 28 64  1  0  0  0  0
 29 30  2  0  0  0  0
 29 65  1  0  0  0  0
 31 32  2  0  0  0  0
 31 33  1  0  0  0  0
 33 66  1  0  0  0  0
 34 33  1  0  0  0  0
 34 35  1  0  0  0  0
 34 39  1  0  0  0  0
 34 67  1  1  0  0  0
 35 36  1  0  0  0  0
 35 68  1  0  0  0  0
 35 69  1  0  0  0  0
 36 70  1  0  0  0  0
 36 71  1  0  0  0  0
 37 36  1  0  0  0  0
 37 38  1  0  0  0  0
 37 72  1  6  0  0  0
 37 40  1  0  0  0  0
 38 39  1  0  0  0  0
 39 73  1  0  0  0  0
 39 74  1  0  0  0  0
 40 41  1  0  0  0  0
 40 42  2  0  0  0  0
 41 75  1  0  0  0  0
 41 76  1  0  0  0  0
M  END
>  <DRUGBANK_ID>
DB15257

>  <COMMON_NAME>
Milademetan

>  <CAS_NUMBER>
1398568-47-2

>  <UNII>
R3I80TLN7S

>  <SYNONYMS>
Milademetan

$$$$
