
 OpenBabel10282417233D

 67 69  0  0  0  0  0  0  0  0999 V2000
    0.8925    0.0809    0.0288 C   0  0  0  0  0  0  0  0  0  0  0  0
    0.4533   -0.9415   -1.0112 C   0  0  0  0  0  0  0  0  0  0  0  0
    0.9374   -2.3326   -0.6960 C   0  0  0  0  0  0  0  0  0  0  0  0
    1.8856   -2.5815    0.3008 C   0  0  0  0  0  0  0  0  0  0  0  0
    2.2412   -3.8753    0.6695 C   0  0  0  0  0  0  0  0  0  0  0  0
    1.6721   -4.9786    0.0457 C   0  0  0  0  0  0  0  0  0  0  0  0
    0.6935   -4.7127   -0.9366 C   0  0  0  0  0  0  0  0  0  0  0  0
    0.3823   -3.4187   -1.3580 C   0  0  0  0  0  0  0  0  0  0  0  0
    2.0475   -6.3480    0.4027 N   0  0  0  0  0  0  0  0  0  0  0  0
    1.6142   -7.4277   -0.4961 C   0  0  0  0  0  0  0  0  0  0  0  0
    2.6700   -8.1280   -1.3963 C   0  0  0  0  0  0  0  0  0  0  0  0
    3.9965   -8.6621   -0.8442 C   0  0  0  0  0  0  0  0  0  0  0  0
    1.9699   -9.3340   -2.0467 C   0  0  0  0  0  0  0  0  0  0  0  0
    3.1749   -6.6018    1.6836 S   0  0  0  0  0  0  0  0  0  0  0  0
    4.4866   -6.1704    1.1838 O   0  0  0  0  0  0  0  0  0  0  0  0
    2.6639   -5.9927    2.8800 O   0  0  0  0  0  0  0  0  0  0  0  0
    3.3157   -8.3581    2.0983 C   0  0  0  0  0  0  0  0  0  0  0  0
    4.2926   -8.7520    2.9985 C   0  0  0  0  0  0  0  0  0  0  0  0
    4.4399  -10.1249    3.3513 C   0  0  0  0  0  0  0  0  0  0  0  0
    5.2702  -10.4107    4.5862 C   0  0  0  0  0  0  0  0  0  0  0  0
    4.4979  -11.0801    5.5542 O   0  0  0  0  0  0  0  0  0  0  0  0
    3.9085  -11.1016    2.4866 C   0  0  0  0  0  0  0  0  0  0  0  0
    4.3119  -12.3830    2.2423 O   0  0  0  0  0  0  0  0  0  0  0  0
    5.4171  -12.8870    2.9665 C   0  0  0  0  0  0  0  0  0  0  0  0
    6.7996  -12.2441    2.6123 C   0  0  0  0  0  0  0  0  0  0  0  0
    6.8310  -10.7754    2.0999 C   0  0  0  0  0  0  0  0  0  0  0  0
    8.1875  -10.2396    1.7719 C   0  0  0  0  0  0  0  0  0  0  0  0
    8.7327  -11.0514    0.7621 O   0  0  0  0  0  0  0  0  0  0  0  0
    8.8419  -12.4048    1.2008 C   0  0  0  0  0  0  0  0  0  0  0  0
    7.4999  -13.0576    1.5387 C   0  0  0  0  0  0  0  0  0  0  0  0
    2.9263  -10.7148    1.6106 C   0  0  0  0  0  0  0  0  0  0  0  0
    2.5528   -9.3781    1.5471 C   0  0  0  0  0  0  0  0  0  0  0  0
    0.5525   -0.2188    1.0287 H   0  0  0  0  0  0  0  0  0  0  0  0
    0.4880    1.0694   -0.1882 H   0  0  0  0  0  0  0  0  0  0  0  0
    1.9849    0.1656    0.0517 H   0  0  0  0  0  0  0  0  0  0  0  0
   -0.6447   -0.9557   -1.0319 H   0  0  0  0  0  0  0  0  0  0  0  0
    0.8046   -0.6456   -2.0058 H   0  0  0  0  0  0  0  0  0  0  0  0
    2.3679   -1.7755    0.8439 H   0  0  0  0  0  0  0  0  0  0  0  0
    2.9617   -3.9563    1.4755 H   0  0  0  0  0  0  0  0  0  0  0  0
    0.0969   -5.4836   -1.4064 H   0  0  0  0  0  0  0  0  0  0  0  0
   -0.3231   -3.2826   -2.1760 H   0  0  0  0  0  0  0  0  0  0  0  0
    0.9189   -8.0270    0.0943 H   0  0  0  0  0  0  0  0  0  0  0  0
    0.8602   -7.1080   -1.2110 H   0  0  0  0  0  0  0  0  0  0  0  0
    2.9461   -7.4029   -2.1702 H   0  0  0  0  0  0  0  0  0  0  0  0
    3.8516   -9.6252   -0.3659 H   0  0  0  0  0  0  0  0  0  0  0  0
    4.7382   -8.9115   -1.6057 H   0  0  0  0  0  0  0  0  0  0  0  0
    4.4954   -7.9737   -0.1777 H   0  0  0  0  0  0  0  0  0  0  0  0
    1.1659   -9.0147   -2.7131 H   0  0  0  0  0  0  0  0  0  0  0  0
    2.6832   -9.9376   -2.6151 H   0  0  0  0  0  0  0  0  0  0  0  0
    1.5263   -9.9927   -1.2884 H   0  0  0  0  0  0  0  0  0  0  0  0
    4.9775   -8.0080    3.4102 H   0  0  0  0  0  0  0  0  0  0  0  0
    6.1647  -11.0054    4.4476 H   0  0  0  0  0  0  0  0  0  0  0  0
    5.6655   -9.4792    4.9966 H   0  0  0  0  0  0  0  0  0  0  0  0
    3.5857  -10.7797    5.4219 H   0  0  0  0  0  0  0  0  0  0  0  0
    5.1604  -12.8501    4.0278 H   0  0  0  0  0  0  0  0  0  0  0  0
    5.4554  -13.9710    2.7837 H   0  0  0  0  0  0  0  0  0  0  0  0
    7.4166  -12.3420    3.5190 H   0  0  0  0  0  0  0  0  0  0  0  0
    6.1808  -10.6772    1.2235 H   0  0  0  0  0  0  0  0  0  0  0  0
    6.5714  -10.0272    2.8267 H   0  0  0  0  0  0  0  0  0  0  0  0
    8.0665   -9.2035    1.4254 H   0  0  0  0  0  0  0  0  0  0  0  0
    8.8125  -10.2069    2.6752 H   0  0  0  0  0  0  0  0  0  0  0  0
    9.4957  -12.4238    2.0804 H   0  0  0  0  0  0  0  0  0  0  0  0
    9.3124  -12.9544    0.3901 H   0  0  0  0  0  0  0  0  0  0  0  0
    7.6641  -14.0794    1.8980 H   0  0  0  0  0  0  0  0  0  0  0  0
    6.8458  -13.1025    0.6606 H   0  0  0  0  0  0  0  0  0  0  0  0
    2.5134  -11.4066    0.8730 H   0  0  0  0  0  0  0  0  0  0  0  0
    1.7754   -9.2462    0.8442 H   0  0  0  0  0  0  0  0  0  0  0  0
  1  2  1  0  0  0  0
  1 33  1  0  0  0  0
  1 34  1  0  0  0  0
  1 35  1  0  0  0  0
  2  3  1  0  0  0  0
  2 36  1  0  0  0  0
  2 37  1  0  0  0  0
  3  4  2  0  0  0  0
  3  8  1  0  0  0  0
  4  5  1  0  0  0  0
  4 38  1  0  0  0  0
  5  6  2  0  0  0  0
  5 39  1  0  0  0  0
  6  7  1  0  0  0  0
  6  9  1  0  0  0  0
  7  8  2  0  0  0  0
  7 40  1  0  0  0  0
  8 41  1  0  0  0  0
  9 10  1  0  0  0  0
  9 14  1  0  0  0  0
 10 11  1  0  0  0  0
 10 42  1  0  0  0  0
 10 43  1  0  0  0  0
 11 12  1  0  0  0  0
 11 13  1  0  0  0  0
 11 44  1  0  0  0  0
 12 45  1  0  0  0  0
 12 46  1  0  0  0  0
 12 47  1  0  0  0  0
 13 48  1  0  0  0  0
 13 49  1  0  0  0  0
 13 50  1  0  0  0  0
 14 15  2  0  0  0  0
 14 16  2  0  0  0  0
 14 17  1  0  0  0  0
 17 18  2  0  0  0  0
 17 32  1  0  0  0  0
 18 19  1  0  0  0  0
 18 51  1  0  0  0  0
 19 20  1  0  0  0  0
 19 22  2  0  0  0  0
 20 21  1  0  0  0  0
 20 52  1  0  0  0  0
 20 53  1  0  0  0  0
 21 54  1  0  0  0  0
 22 23  1  0  0  0  0
 22 31  1  0  0  0  0
 23 24  1  0  0  0  0
 24 25  1  0  0  0  0
 24 55  1  0  0  0  0
 24 56  1  0  0  0  0
 25 26  1  0  0  0  0
 25 30  1  0  0  0  0
 25 57  1  0  0  0  0
 26 27  1  0  0  0  0
 26 58  1  0  0  0  0
 26 59  1  0  0  0  0
 27 28  1  0  0  0  0
 27 60  1  0  0  0  0
 27 61  1  0  0  0  0
 28 29  1  0  0  0  0
 29 30  1  0  0  0  0
 29 62  1  0  0  0  0
 29 63  1  0  0  0  0
 30 64  1  0  0  0  0
 30 65  1  0  0  0  0
 31 32  2  0  0  0  0
 31 66  1  0  0  0  0
 32 67  1  0  0  0  0
M  END
>  <DRUGBANK_ID>
DB16319

>  <COMMON_NAME>
GSK-2981278

>  <CAS_NUMBER>
1474110-21-8

>  <UNII>
L49V5G013I

>  <SYNONYMS>
Ror gama modulator 1

$$$$
