P29
 OpenBabel10282417173D

 41 44  0  0  0  0  0  0  0  0999 V2000
    1.5427   -1.0488    0.0094 N   0  0  0  0  0  0  0  0  0  0  0  0
    2.3116    0.0367    0.0034 C   0  0  0  0  0  0  0  0  0  0  0  0
    1.5505    1.2145    0.0012 C   0  0  0  0  0  0  0  0  0  0  0  0
    0.2351    0.8081   -0.0007 C   0  0  0  0  0  0  0  0  0  0  0  0
    0.2819   -0.5544    0.0031 N   0  0  0  0  0  0  0  0  0  0  0  0
   -0.9570    1.4420   -0.0038 N   0  0  0  0  0  0  0  0  0  0  0  0
   -2.0585    0.7290   -0.0096 C   0  0  0  0  0  0  0  0  0  0  0  0
   -2.0462   -0.6687   -0.0199 N   0  0  0  0  0  0  0  0  0  0  0  0
   -0.9007   -1.3142   -0.0142 C   0  0  0  0  0  0  0  0  0  0  0  0
   -0.8751   -2.6965   -0.0375 N   0  0  0  0  0  0  0  0  0  0  0  0
    0.2643   -3.6119   -0.0243 C   0  0  0  0  0  0  0  0  0  0  0  0
    0.3077   -4.4877    1.2352 C   0  0  0  0  0  0  0  0  0  0  0  0
   -0.8554   -5.4073    1.2825 C   0  0  0  0  0  0  0  0  0  0  0  0
   -0.7885   -6.7763    1.2468 N   0  0  0  0  0  0  0  0  0  0  0  0
   -2.0759   -7.2371    1.2508 C   0  0  0  0  0  0  0  0  0  0  0  0
   -2.9472   -6.2567    1.2805 N   0  0  0  0  0  0  0  0  0  0  0  0
   -2.2009   -5.1220    1.3432 C   0  0  0  0  0  0  0  0  0  0  0  0
   -3.2863    1.3647    0.0167 N   0  0  0  0  0  0  0  0  0  0  0  0
   -3.4736    2.7631    0.0117 C   0  0  0  0  0  0  0  0  0  0  0  0
   -2.9391    3.5566   -1.0133 C   0  0  0  0  0  0  0  0  0  0  0  0
   -3.0439    4.9516   -0.9833 C   0  0  0  0  0  0  0  0  0  0  0  0
   -3.6853    5.5800    0.0796 C   0  0  0  0  0  0  0  0  0  0  0  0
   -4.2418    4.8096    1.0980 C   0  0  0  0  0  0  0  0  0  0  0  0
   -4.1487    3.4096    1.0581 C   0  0  0  0  0  0  0  0  0  0  0  0
    2.0419    2.5405    0.0002 C   0  0  0  0  0  0  0  0  0  0  0  0
    2.5122    3.6057   -0.0024 N   0  0  0  0  0  0  0  0  0  0  0  0
    3.3879   -0.0887    0.0025 H   0  0  0  0  0  0  0  0  0  0  0  0
   -1.7821   -3.1323   -0.1628 H   0  0  0  0  0  0  0  0  0  0  0  0
    0.2326   -4.2332   -0.9260 H   0  0  0  0  0  0  0  0  0  0  0  0
    1.2252   -3.1188   -0.0622 H   0  0  0  0  0  0  0  0  0  0  0  0
    1.2518   -5.0496    1.2449 H   0  0  0  0  0  0  0  0  0  0  0  0
    0.3088   -3.8561    2.1326 H   0  0  0  0  0  0  0  0  0  0  0  0
    0.0441   -7.3513    1.2243 H   0  0  0  0  0  0  0  0  0  0  0  0
   -2.3247   -8.2882    1.2371 H   0  0  0  0  0  0  0  0  0  0  0  0
   -2.6593   -4.1437    1.3986 H   0  0  0  0  0  0  0  0  0  0  0  0
   -4.1160    0.7975    0.1043 H   0  0  0  0  0  0  0  0  0  0  0  0
   -2.4288    3.0849   -1.8492 H   0  0  0  0  0  0  0  0  0  0  0  0
   -2.6077    5.5454   -1.7824 H   0  0  0  0  0  0  0  0  0  0  0  0
   -3.7440    6.6653    0.1180 H   0  0  0  0  0  0  0  0  0  0  0  0
   -4.7309    5.3038    1.9345 H   0  0  0  0  0  0  0  0  0  0  0  0
   -4.5675    2.8411    1.8840 H   0  0  0  0  0  0  0  0  0  0  0  0
  1  2  2  0  0  0  0
  1  5  1  0  0  0  0
  2  3  1  0  0  0  0
  2 27  1  0  0  0  0
  3 25  1  0  0  0  0
  3  4  2  0  0  0  0
  4  6  1  0  0  0  0
  4  5  1  0  0  0  0
  5  9  1  0  0  0  0
  6  7  2  0  0  0  0
  7 18  1  0  0  0  0
  7  8  1  0  0  0  0
  8  9  2  0  0  0  0
  9 10  1  0  0  0  0
 10 11  1  0  0  0  0
 10 28  1  0  0  0  0
 11 12  1  0  0  0  0
 11 29  1  0  0  0  0
 11 30  1  0  0  0  0
 12 13  1  0  0  0  0
 12 31  1  0  0  0  0
 12 32  1  0  0  0  0
 13 14  1  0  0  0  0
 13 17  2  0  0  0  0
 14 15  1  0  0  0  0
 14 33  1  0  0  0  0
 15 16  2  0  0  0  0
 15 34  1  0  0  0  0
 16 17  1  0  0  0  0
 17 35  1  0  0  0  0
 18 19  1  0  0  0  0
 18 36  1  0  0  0  0
 19 20  1  0  0  0  0
 19 24  2  0  0  0  0
 20 21  2  0  0  0  0
 20 37  1  0  0  0  0
 21 22  1  0  0  0  0
 21 38  1  0  0  0  0
 22 23  2  0  0  0  0
 22 39  1  0  0  0  0
 23 24  1  0  0  0  0
 23 40  1  0  0  0  0
 24 41  1  0  0  0  0
 25 26  3  0  0  0  0
M  END
>  <DRUGBANK_ID>
DB08345

>  <COMMON_NAME>
4-(2-(1H-IMIDAZOL-4-YL)ETHYLAMINO)-2-(PHENYLAMINO)PYRAZOLO[1,5-A][1,3,5]TRIAZINE-8-CARBONITRILE

$$$$
