
 OpenBabel10282417133D

 96 99  0  0  0  0  0  0  0  0999 V2000
   -1.5907    0.7654    0.3337 O   0  0  0  0  0  0  0  0  0  0  0  0
    0.7386   -1.1191   -1.8933 O   0  0  0  0  0  0  0  0  0  0  0  0
   -0.1977    5.3161   -5.1460 O   0  0  0  0  0  0  0  0  0  0  0  0
   -2.0628    4.1170   -4.6206 O   0  0  0  0  0  0  0  0  0  0  0  0
    5.5479   17.6040  -12.6162 O   0  0  0  0  0  0  0  0  0  0  0  0
    8.8112   17.7205  -15.7204 O   0  0  0  0  0  0  0  0  0  0  0  0
   10.9361   16.9928  -15.7543 O   0  0  0  0  0  0  0  0  0  0  0  0
   -0.4265    1.1635   -0.3598 C   0  0  2  0  0  0  0  0  0  0  0  0
   -1.2055   -0.4421   -0.3089 C   0  0  1  0  0  0  0  0  0  0  0  0
    0.8897    1.1418    0.5372 C   0  0  0  0  0  0  0  0  0  0  0  0
   -0.2189   -1.4343    0.3142 C   0  0  0  0  0  0  0  0  0  0  0  0
   -0.3213    2.2951   -1.3829 C   0  0  0  0  0  0  0  0  0  0  0  0
    1.7903   -0.0296    0.0197 C   0  0  0  0  0  0  0  0  0  0  0  0
    1.0453   -1.2572   -0.4921 C   0  0  2  0  0  0  0  0  0  0  0  0
   -2.4346   -1.2898   -0.6401 C   0  0  0  0  0  0  0  0  0  0  0  0
    1.8169    2.3933    0.4857 C   0  0  0  0  0  0  0  0  0  0  0  0
    0.4638    1.0599    2.0252 C   0  0  0  0  0  0  0  0  0  0  0  0
   -0.4737    2.5178   -2.6995 C   0  0  0  0  0  0  0  0  0  0  0  0
    0.0027    3.7109   -3.4578 C   0  0  0  0  0  0  0  0  0  0  0  0
   -0.8668    4.3753   -4.4450 C   0  0  0  0  0  0  0  0  0  0  0  0
    1.1843    4.3581   -3.6047 C   0  0  0  0  0  0  0  0  0  0  0  0
    1.1071    5.3492   -4.6699 C   0  0  0  0  0  0  0  0  0  0  0  0
    6.1785   15.7056  -14.0238 C   0  0  0  0  0  0  0  0  0  0  0  0
    6.5299   17.1454  -13.5583 C   0  0  1  0  0  0  0  0  0  0  0  0
    7.0418   15.2153  -15.2054 C   0  0  0  0  0  0  0  0  0  0  0  0
    7.3803   17.6624  -15.9754 C   0  0  2  0  0  0  0  0  0  0  0  0
    6.5366   18.1347  -14.7574 C   0  0  0  0  0  0  0  0  0  0  0  0
    6.8411   16.2847  -16.3255 C   0  0  0  0  0  0  0  0  0  0  0  0
    2.0279    6.1824   -5.2282 C   0  0  0  0  0  0  0  0  0  0  0  0
    5.2262   14.9514  -13.5069 C   0  0  0  0  0  0  0  0  0  0  0  0
    7.8551   17.2637  -12.7926 C   0  0  0  0  0  0  0  0  0  0  0  0
    8.4734   14.9094  -14.6860 C   0  0  0  0  0  0  0  0  0  0  0  0
    6.6002   13.8755  -15.8187 C   0  0  0  0  0  0  0  0  0  0  0  0
    4.3420   14.1192  -13.0078 C   0  0  0  0  0  0  0  0  0  0  0  0
    1.7769    7.1267   -6.3806 C   0  0  0  0  0  0  0  0  0  0  0  0
    4.6287   13.1841  -11.9096 C   0  0  0  0  0  0  0  0  0  0  0  0
    9.8186   16.9851  -16.2686 C   0  0  0  0  0  0  0  0  0  0  0  0
    2.7238    7.9483   -6.9099 C   0  0  0  0  0  0  0  0  0  0  0  0
    3.6945   12.3481  -11.3871 C   0  0  0  0  0  0  0  0  0  0  0  0
    0.3715    7.1152   -6.9498 C   0  0  0  0  0  0  0  0  0  0  0  0
    6.0332   13.1888  -11.3557 C   0  0  0  0  0  0  0  0  0  0  0  0
    9.5395   16.0904  -17.4446 C   0  0  0  0  0  0  0  0  0  0  0  0
    2.5025    8.8762   -8.0317 C   0  0  0  0  0  0  0  0  0  0  0  0
    3.9496   11.4284  -10.2722 C   0  0  0  0  0  0  0  0  0  0  0  0
    3.3990    9.7090   -8.5886 C   0  0  0  0  0  0  0  0  0  0  0  0
    3.0599   10.5929   -9.7084 C   0  0  0  0  0  0  0  0  0  0  0  0
    0.1413   -0.3592   -2.0285 H   0  0  0  0  0  0  0  0  0  0  0  0
    4.6672   17.4700  -12.9994 H   0  0  0  0  0  0  0  0  0  0  0  0
   -0.5499   -2.4782    0.2290 H   0  0  0  0  0  0  0  0  0  0  0  0
   -0.0514   -1.3415    1.3896 H   0  0  0  0  0  0  0  0  0  0  0  0
    0.1428    3.1791   -0.9349 H   0  0  0  0  0  0  0  0  0  0  0  0
    2.4139    0.3260   -0.8112 H   0  0  0  0  0  0  0  0  0  0  0  0
    2.4622   -0.3327    0.8290 H   0  0  0  0  0  0  0  0  0  0  0  0
    1.6739   -2.1457   -0.4240 H   0  0  0  0  0  0  0  0  0  0  0  0
   -2.1286   -2.1020   -1.3253 H   0  0  0  0  0  0  0  0  0  0  0  0
   -2.7360   -1.8648    0.2642 H   0  0  0  0  0  0  0  0  0  0  0  0
   -3.3363   -0.8331   -1.0353 H   0  0  0  0  0  0  0  0  0  0  0  0
    1.3012    3.3022    0.8157 H   0  0  0  0  0  0  0  0  0  0  0  0
    2.6835    2.2627    1.1464 H   0  0  0  0  0  0  0  0  0  0  0  0
    2.2243    2.5726   -0.5173 H   0  0  0  0  0  0  0  0  0  0  0  0
   -0.2664    0.2853    2.2543 H   0  0  0  0  0  0  0  0  0  0  0  0
    1.3215    0.9010    2.6800 H   0  0  0  0  0  0  0  0  0  0  0  0
   -0.0518    1.9847    2.3127 H   0  0  0  0  0  0  0  0  0  0  0  0
   -1.0222    1.7972   -3.2951 H   0  0  0  0  0  0  0  0  0  0  0  0
    2.1082    4.1451   -3.0837 H   0  0  0  0  0  0  0  0  0  0  0  0
    7.2052   18.3719  -16.7928 H   0  0  0  0  0  0  0  0  0  0  0  0
    5.4949   18.2561  -15.0970 H   0  0  0  0  0  0  0  0  0  0  0  0
    6.8425   19.1317  -14.4173 H   0  0  0  0  0  0  0  0  0  0  0  0
    5.7624   16.3956  -16.5239 H   0  0  0  0  0  0  0  0  0  0  0  0
    7.1942   15.9717  -17.3047 H   0  0  0  0  0  0  0  0  0  0  0  0
    3.0501    6.1911   -4.8448 H   0  0  0  0  0  0  0  0  0  0  0  0
    8.7382   17.2467  -13.4218 H   0  0  0  0  0  0  0  0  0  0  0  0
    7.9346   18.2295  -12.2864 H   0  0  0  0  0  0  0  0  0  0  0  0
    7.9553   16.4711  -12.0448 H   0  0  0  0  0  0  0  0  0  0  0  0
    8.4615   14.2778  -13.7931 H   0  0  0  0  0  0  0  0  0  0  0  0
    9.1053   14.3960  -15.4143 H   0  0  0  0  0  0  0  0  0  0  0  0
    9.0472   15.7738  -14.4000 H   0  0  0  0  0  0  0  0  0  0  0  0
    5.5823   13.9204  -16.2116 H   0  0  0  0  0  0  0  0  0  0  0  0
    7.2652   13.6087  -16.6515 H   0  0  0  0  0  0  0  0  0  0  0  0
    6.6711   13.0700  -15.0814 H   0  0  0  0  0  0  0  0  0  0  0  0
    3.3453   14.0915  -13.4447 H   0  0  0  0  0  0  0  0  0  0  0  0
    3.7335    7.9510   -6.5012 H   0  0  0  0  0  0  0  0  0  0  0  0
    2.6808   12.3411  -11.7871 H   0  0  0  0  0  0  0  0  0  0  0  0
    0.1356    6.1227   -7.3471 H   0  0  0  0  0  0  0  0  0  0  0  0
   -0.3457    7.4200   -6.1816 H   0  0  0  0  0  0  0  0  0  0  0  0
    0.1858    7.7923   -7.7793 H   0  0  0  0  0  0  0  0  0  0  0  0
    6.0124   13.4737  -10.2988 H   0  0  0  0  0  0  0  0  0  0  0  0
    6.4780   12.1928  -11.4577 H   0  0  0  0  0  0  0  0  0  0  0  0
    6.7115   13.8819  -11.8541 H   0  0  0  0  0  0  0  0  0  0  0  0
    8.9184   15.2332  -17.1985 H   0  0  0  0  0  0  0  0  0  0  0  0
    9.1016   16.6567  -18.2636 H   0  0  0  0  0  0  0  0  0  0  0  0
   10.4657   15.6132  -17.7735 H   0  0  0  0  0  0  0  0  0  0  0  0
    1.5128    8.9089   -8.4724 H   0  0  0  0  0  0  0  0  0  0  0  0
    4.9550   11.4307   -9.8594 H   0  0  0  0  0  0  0  0  0  0  0  0
    4.4157    9.7421   -8.2077 H   0  0  0  0  0  0  0  0  0  0  0  0
    2.0390   10.5592  -10.0852 H   0  0  0  0  0  0  0  0  0  0  0  0
  1  9  1  0  0  0  0
  2 47  1  0  0  0  0
  3 20  1  0  0  0  0
  3 22  1  0  0  0  0
  4 20  2  0  0  0  0
  5 48  1  0  0  0  0
  6 37  1  0  0  0  0
  7 37  2  0  0  0  0
  8  1  1  0  0  0  0
  8  9  1  0  0  0  0
  8 10  1  0  0  0  0
  8 12  1  6  0  0  0
  9 11  1  0  0  0  0
  9 15  1  6  0  0  0
 10 13  1  0  0  0  0
 10 16  1  0  0  0  0
 10 17  1  0  0  0  0
 11 14  1  0  0  0  0
 11 49  1  0  0  0  0
 11 50  1  0  0  0  0
 12 18  2  0  0  0  0
 12 51  1  0  0  0  0
 13 14  1  0  0  0  0
 13 52  1  0  0  0  0
 13 53  1  0  0  0  0
 14  2  1  0  0  0  0
 14 54  1  1  0  0  0
 15 55  1  0  0  0  0
 15 56  1  0  0  0  0
 15 57  1  0  0  0  0
 16 58  1  0  0  0  0
 16 59  1  0  0  0  0
 16 60  1  0  0  0  0
 17 61  1  0  0  0  0
 17 62  1  0  0  0  0
 17 63  1  0  0  0  0
 18 19  1  0  0  0  0
 18 64  1  0  0  0  0
 19 20  1  0  0  0  0
 19 21  2  0  0  0  0
 21 22  1  0  0  0  0
 21 65  1  0  0  0  0
 22 29  2  0  0  0  0
 23 24  1  0  0  0  0
 23 25  1  0  0  0  0
 23 30  2  0  0  0  0
 24  5  1  1  0  0  0
 24 27  1  0  0  0  0
 24 31  1  0  0  0  0
 25 28  1  0  0  0  0
 25 32  1  0  0  0  0
 25 33  1  0  0  0  0
 26 27  1  0  0  0  0
 26 28  1  0  0  0  0
 26 66  1  6  0  0  0
 26  6  1  0  0  0  0
 27 67  1  0  0  0  0
 27 68  1  0  0  0  0
 28 69  1  0  0  0  0
 28 70  1  0  0  0  0
 29 35  1  0  0  0  0
 29 71  1  0  0  0  0
 30 34  2  0  0  0  0
 31 72  1  0  0  0  0
 31 73  1  0  0  0  0
 31 74  1  0  0  0  0
 32 75  1  0  0  0  0
 32 76  1  0  0  0  0
 32 77  1  0  0  0  0
 33 78  1  0  0  0  0
 33 79  1  0  0  0  0
 33 80  1  0  0  0  0
 34 36  1  0  0  0  0
 34 81  1  0  0  0  0
 35 38  2  0  0  0  0
 35 40  1  0  0  0  0
 36 39  2  0  0  0  0
 36 41  1  0  0  0  0
 37 42  1  0  0  0  0
 38 43  1  0  0  0  0
 38 82  1  0  0  0  0
 39 44  1  0  0  0  0
 39 83  1  0  0  0  0
 40 84  1  0  0  0  0
 40 85  1  0  0  0  0
 40 86  1  0  0  0  0
 41 87  1  0  0  0  0
 41 88  1  0  0  0  0
 41 89  1  0  0  0  0
 42 90  1  0  0  0  0
 42 91  1  0  0  0  0
 42 92  1  0  0  0  0
 43 45  2  0  0  0  0
 43 93  1  0  0  0  0
 44 46  2  0  0  0  0
 44 94  1  0  0  0  0
 45 46  1  0  0  0  0
 45 95  1  0  0  0  0
 46 96  1  0  0  0  0
M  END
>  <DRUGBANK_ID>
DB03001

>  <SECONDARY_ACCESSION_NUMBERS>
EXPT02596

>  <COMMON_NAME>
Peridinin

>  <CAS_NUMBER>
33281-81-1

$$$$
