
 OpenBabel10282417133D

 24 23  0  0  1  0  0  0  0  0999 V2000
    1.2155    0.1515   -0.1839 N   0  0  0  0  0  0  0  0  0  0  0  0
    0.7530   -0.0783   -1.5632 C   0  0  0  0  0  0  0  0  0  0  0  0
    1.0614   -1.4967   -2.0016 C   0  0  0  0  0  0  0  0  0  0  0  0
    0.4108   -2.5665   -1.1013 C   0  0  0  0  0  0  0  0  0  0  0  0
   -1.1410   -2.6061   -1.0671 C   0  0  1  0  0  0  0  0  0  0  0  0
   -1.6058   -2.8177   -2.4803 N   0  0  0  0  0  0  0  0  0  0  0  0
   -1.5803   -3.7871   -0.1690 C   0  0  0  0  0  0  0  0  0  0  0  0
   -1.1325   -3.6040    1.1004 F   0  0  0  0  0  0  0  0  0  0  0  0
   -2.9318   -3.8826   -0.1034 F   0  0  0  0  0  0  0  0  0  0  0  0
   -1.9541   -1.4282   -0.4502 C   0  0  0  0  0  0  0  0  0  0  0  0
   -1.3405   -0.6268    0.4382 O   0  0  0  0  0  0  0  0  0  0  0  0
   -3.1266   -1.2315   -0.7152 O   0  0  0  0  0  0  0  0  0  0  0  0
    1.1698   -0.6159    0.4963 H   0  0  0  0  0  0  0  0  0  0  0  0
    2.2368    0.2461   -0.2364 H   0  0  0  0  0  0  0  0  0  0  0  0
   -0.3216    0.1084   -1.6831 H   0  0  0  0  0  0  0  0  0  0  0  0
    1.2109    0.6658   -2.2209 H   0  0  0  0  0  0  0  0  0  0  0  0
    0.7445   -1.6340   -3.0422 H   0  0  0  0  0  0  0  0  0  0  0  0
    2.1502   -1.6321   -2.0051 H   0  0  0  0  0  0  0  0  0  0  0  0
    0.7799   -3.5390   -1.4648 H   0  0  0  0  0  0  0  0  0  0  0  0
    0.8126   -2.4940   -0.0839 H   0  0  0  0  0  0  0  0  0  0  0  0
   -2.6344   -2.8123   -2.4519 H   0  0  0  0  0  0  0  0  0  0  0  0
   -1.3660   -2.0104   -3.0543 H   0  0  0  0  0  0  0  0  0  0  0  0
   -1.1972   -4.7445   -0.5321 H   0  0  0  0  0  0  0  0  0  0  0  0
   -0.4255   -0.3791    0.2166 H   0  0  0  0  0  0  0  0  0  0  0  0
  1  2  1  0  0  0  0
  1 13  1  0  0  0  0
  1 14  1  0  0  0  0
  2  3  1  0  0  0  0
  2 15  1  0  0  0  0
  2 16  1  0  0  0  0
  3  4  1  0  0  0  0
  3 17  1  0  0  0  0
  3 18  1  0  0  0  0
  4  5  1  0  0  0  0
  4 19  1  0  0  0  0
  4 20  1  0  0  0  0
  5  6  1  0  0  0  0
  5  7  1  0  0  0  0
  5 10  1  1  0  0  0
  6 21  1  0  0  0  0
  6 22  1  0  0  0  0
  7  8  1  0  0  0  0
  7  9  1  0  0  0  0
  7 23  1  0  0  0  0
 10 11  1  0  0  0  0
 10 12  2  0  0  0  0
 11 24  1  0  0  0  0
M  END
>  <DRUGBANK_ID>
DB03856

>  <SECONDARY_ACCESSION_NUMBERS>
EXPT01229

>  <COMMON_NAME>
L-Eflornithine

>  <CAS_NUMBER>
66640-93-5

>  <UNII>
C780YUS9YI

>  <SYNONYMS>
(-)-2-difluoromethylornithine

$$$$
