
 OpenBabel10282417133D

 23 23  0  0  1  0  0  0  0  0999 V2000
    0.9511    0.1751   -0.0901 C   0  0  0  0  0  0  0  0  0  0  0  0
    0.5339   -0.7032   -1.2733 C   0  0  2  0  0  0  0  0  0  0  0  0
    0.0772   -2.1150   -0.8640 C   0  0  2  0  0  0  0  0  0  0  0  0
    1.2710   -3.0148   -0.4838 C   0  0  1  0  0  0  0  0  0  0  0  0
    2.3386   -2.9952   -1.5908 C   0  0  2  0  0  0  0  0  0  0  0  0
    2.7050   -1.5356   -1.9452 C   0  0  1  0  0  0  0  0  0  0  0  0
   -0.6389   -2.6789   -1.9738 O   0  0  0  0  0  0  0  0  0  0  0  0
    1.8272   -2.6592    0.7879 O   0  0  0  0  0  0  0  0  0  0  0  0
    1.8373   -3.7010   -2.7438 O   0  0  0  0  0  0  0  0  0  0  0  0
    3.6199   -1.4866   -3.0344 O   0  0  0  0  0  0  0  0  0  0  0  0
    1.5470   -0.7804   -2.2955 O   0  0  0  0  0  0  0  0  0  0  0  0
   -0.3193   -0.2079   -1.7547 H   0  0  0  0  0  0  0  0  0  0  0  0
   -0.6349   -2.0544   -0.0342 H   0  0  0  0  0  0  0  0  0  0  0  0
    0.9003   -4.0408   -0.3768 H   0  0  0  0  0  0  0  0  0  0  0  0
    3.2427   -3.5233   -1.2684 H   0  0  0  0  0  0  0  0  0  0  0  0
    3.2150   -1.0595   -1.1042 H   0  0  0  0  0  0  0  0  0  0  0  0
    0.5394   -0.1959    0.8549 H   0  0  0  0  0  0  0  0  0  0  0  0
    0.5571    1.1885   -0.2233 H   0  0  0  0  0  0  0  0  0  0  0  0
    2.0328    0.2826    0.0135 H   0  0  0  0  0  0  0  0  0  0  0  0
   -0.0196   -2.7031   -2.7299 H   0  0  0  0  0  0  0  0  0  0  0  0
    2.2723   -1.7981    0.7466 H   0  0  0  0  0  0  0  0  0  0  0  0
    2.0534   -3.2087   -3.5546 H   0  0  0  0  0  0  0  0  0  0  0  0
    3.7680   -2.3829   -3.3772 H   0  0  0  0  0  0  0  0  0  0  0  0
  1 17  1  0  0  0  0
  1 18  1  0  0  0  0
  1 19  1  0  0  0  0
  2  1  1  0  0  0  0
  2 12  1  6  0  0  0
  3  2  1  0  0  0  0
  3 13  1  1  0  0  0
  3  7  1  0  0  0  0
  4  3  1  0  0  0  0
  4  8  1  0  0  0  0
  4 14  1  1  0  0  0
  5  4  1  0  0  0  0
  5 15  1  1  0  0  0
  5  9  1  0  0  0  0
  6  5  1  0  0  0  0
  6 16  1  1  0  0  0
  6 10  1  0  0  0  0
  7 20  1  0  0  0  0
  8 21  1  0  0  0  0
  9 22  1  0  0  0  0
 10 23  1  0  0  0  0
 11  2  1  0  0  0  0
 11  6  1  0  0  0  0
M  END
>  <DRUGBANK_ID>
DB03773

>  <SECONDARY_ACCESSION_NUMBERS>
EXPT01536; EXPT01615; DB04319

>  <COMMON_NAME>
alpha-D-quinovopyranose

>  <CAS_NUMBER>
7658-08-4

>  <UNII>
68BDH91OBS

>  <SYNONYMS>
D-Chinovose; D-Epifucose; D-Glucomethylose; D-Quinovose; Isorhamnose; Isorhodeose; Quinovose; Î±-D-quinovopyranose

$$$$
