16U
 OpenBabel10282417163D

 48 49  0  0  0  0  0  0  0  0999 V2000
    0.8835    0.1384   -0.0038 C   0  0  0  0  0  0  0  0  0  0  0  0
    0.3626    0.5609   -1.3758 C   0  0  0  0  0  0  0  0  0  0  0  0
    0.9249   -0.3392   -2.4804 C   0  0  0  0  0  0  0  0  0  0  0  0
   -1.1526    0.5975   -1.3899 C   0  0  0  0  0  0  0  0  0  0  0  0
    5.5110   -4.7242   10.8904 Cl  0  0  0  0  0  0  0  0  0  0  0  0
    0.5753   -1.2957    0.3932 C   0  0  0  0  0  0  0  0  0  0  0  0
    1.1059   -1.7986    1.7261 C   0  0  0  0  0  0  0  0  0  0  0  0
    0.2991   -2.3139    2.5028 O   0  0  0  0  0  0  0  0  0  0  0  0
    2.4698   -1.8556    1.9242 N   0  0  0  0  0  0  0  0  0  0  0  0
    3.4800   -0.9017    1.5395 C   0  0  0  0  0  0  0  0  0  0  0  0
    4.6505   -1.7619    1.1507 C   0  0  0  0  0  0  0  0  0  0  0  0
    4.6135   -2.8487    2.2071 C   0  0  0  0  0  0  0  0  0  0  0  0
    3.1221   -2.9762    2.6255 C   0  0  1  0  0  0  0  0  0  0  0  0
    2.8635   -3.0040    4.1588 C   0  0  0  0  0  0  0  0  0  0  0  0
    3.9144   -2.7171    4.9981 N   0  0  0  0  0  0  0  0  0  0  0  0
    3.7739   -2.7446    6.4305 C   0  0  0  0  0  0  0  0  0  0  0  0
    4.6608   -3.7720    7.0935 C   0  0  0  0  0  0  0  0  0  0  0  0
    4.6792   -3.8072    8.4962 C   0  0  0  0  0  0  0  0  0  0  0  0
    5.4863   -4.7210    9.1707 C   0  0  0  0  0  0  0  0  0  0  0  0
    6.2784   -5.6210    8.4634 C   0  0  0  0  0  0  0  0  0  0  0  0
    6.2647   -5.6054    7.0702 C   0  0  0  0  0  0  0  0  0  0  0  0
    5.4598   -4.6890    6.3893 C   0  0  0  0  0  0  0  0  0  0  0  0
    1.7493   -3.2476    4.6276 O   0  0  0  0  0  0  0  0  0  0  0  0
    2.7135   -3.9126    2.2208 H   0  0  0  0  0  0  0  0  0  0  0  0
    0.5545    0.8215    0.7869 H   0  0  0  0  0  0  0  0  0  0  0  0
    1.9393    0.3007   -0.1223 H   0  0  0  0  0  0  0  0  0  0  0  0
    0.7368    1.5781   -1.5580 H   0  0  0  0  0  0  0  0  0  0  0  0
    0.5792   -1.3725   -2.3794 H   0  0  0  0  0  0  0  0  0  0  0  0
    0.6152    0.0154   -3.4664 H   0  0  0  0  0  0  0  0  0  0  0  0
    2.0218   -0.3514   -2.4540 H   0  0  0  0  0  0  0  0  0  0  0  0
   -1.5199    1.2546   -0.5944 H   0  0  0  0  0  0  0  0  0  0  0  0
   -1.5162    0.9754   -2.3479 H   0  0  0  0  0  0  0  0  0  0  0  0
   -1.5759   -0.3984   -1.2341 H   0  0  0  0  0  0  0  0  0  0  0  0
   -0.5174   -1.4141    0.4342 H   0  0  0  0  0  0  0  0  0  0  0  0
    0.9198   -2.0153   -0.3579 H   0  0  0  0  0  0  0  0  0  0  0  0
    3.6800   -0.2899    2.4264 H   0  0  0  0  0  0  0  0  0  0  0  0
    3.2732   -0.2324    0.7325 H   0  0  0  0  0  0  0  0  0  0  0  0
    4.4967   -2.1889    0.1531 H   0  0  0  0  0  0  0  0  0  0  0  0
    5.5824   -1.1899    1.1478 H   0  0  0  0  0  0  0  0  0  0  0  0
    5.0249   -3.7919    1.8386 H   0  0  0  0  0  0  0  0  0  0  0  0
    5.2849   -2.5054    2.9898 H   0  0  0  0  0  0  0  0  0  0  0  0
    4.8486   -2.5498    4.6739 H   0  0  0  0  0  0  0  0  0  0  0  0
    4.0750   -1.7482    6.7729 H   0  0  0  0  0  0  0  0  0  0  0  0
    2.7327   -2.9139    6.7190 H   0  0  0  0  0  0  0  0  0  0  0  0
    4.0559   -3.1172    9.0616 H   0  0  0  0  0  0  0  0  0  0  0  0
    6.9030   -6.3368    8.9898 H   0  0  0  0  0  0  0  0  0  0  0  0
    6.8781   -6.3092    6.5125 H   0  0  0  0  0  0  0  0  0  0  0  0
    5.4646   -4.7142    5.3023 H   0  0  0  0  0  0  0  0  0  0  0  0
  1  2  1  0  0  0  0
  1  6  1  0  0  0  0
  1 25  1  0  0  0  0
  1 26  1  0  0  0  0
  2  3  1  0  0  0  0
  2  4  1  0  0  0  0
  2 27  1  0  0  0  0
  3 28  1  0  0  0  0
  3 29  1  0  0  0  0
  3 30  1  0  0  0  0
  4 31  1  0  0  0  0
  4 32  1  0  0  0  0
  4 33  1  0  0  0  0
  5 19  1  0  0  0  0
  6  7  1  0  0  0  0
  6 34  1  0  0  0  0
  6 35  1  0  0  0  0
  7  8  2  0  0  0  0
  7  9  1  0  0  0  0
  9 10  1  0  0  0  0
  9 13  1  0  0  0  0
 10 11  1  0  0  0  0
 10 36  1  0  0  0  0
 10 37  1  0  0  0  0
 11 12  1  0  0  0  0
 11 38  1  0  0  0  0
 11 39  1  0  0  0  0
 12 13  1  0  0  0  0
 12 40  1  0  0  0  0
 12 41  1  0  0  0  0
 13 24  1  6  0  0  0
 13 14  1  0  0  0  0
 14 15  1  0  0  0  0
 14 23  2  0  0  0  0
 15 16  1  0  0  0  0
 15 42  1  0  0  0  0
 16 17  1  0  0  0  0
 16 43  1  0  0  0  0
 16 44  1  0  0  0  0
 17 18  2  0  0  0  0
 17 22  1  0  0  0  0
 18 19  1  0  0  0  0
 18 45  1  0  0  0  0
 19 20  2  0  0  0  0
 20 21  1  0  0  0  0
 20 46  1  0  0  0  0
 21 22  2  0  0  0  0
 21 47  1  0  0  0  0
 22 48  1  0  0  0  0
M  END
>  <DRUGBANK_ID>
DB06868

>  <COMMON_NAME>
N-(3-chlorobenzyl)-1-(4-methylpentanoyl)-L-prolinamide

$$$$
