243
 OpenBabel10282417113D

 28 28  0  0  1  0  0  0  0  0999 V2000
    1.7924    1.0724    0.3315 O   0  0  0  0  0  0  0  0  0  0  0  0
    0.8181   -0.4662   -2.6046 O   0  0  0  0  0  0  0  0  0  0  0  0
   -0.1146   -1.5239    0.2814 O   0  0  0  0  0  0  0  0  0  0  0  0
    2.8673    3.1206   -0.2576 O   0  0  0  0  0  0  0  0  0  0  0  0
    1.4565    3.1242   -0.4140 C   0  0  0  0  0  0  0  0  0  0  0  0
    1.0992    1.7239   -0.8318 C   0  0  3  0  0  0  0  0  0  0  0  0
    1.3707    0.9503   -2.2572 C   0  0  0  0  0  0  0  0  0  0  0  0
    1.0287   -1.7139   -1.9913 C   0  0  0  0  0  0  0  0  0  0  0  0
    0.7512   -2.1078   -0.6413 C   0  0  0  0  0  0  0  0  0  0  0  0
    1.2414   -2.8412   -2.8172 C   0  0  0  0  0  0  0  0  0  0  0  0
    1.0372   -3.3135   -0.0459 C   0  0  0  0  0  0  0  0  0  0  0  0
    1.2630   -4.1506   -2.2519 C   0  0  0  0  0  0  0  0  0  0  0  0
    1.2311   -4.3979   -0.8836 C   0  0  0  0  0  0  0  0  0  0  0  0
   -0.4226   -0.2796   -0.1661 C   0  0  0  0  0  0  0  0  0  0  0  0
    2.1820    0.2044    0.1219 H   0  0  0  0  0  0  0  0  0  0  0  0
    2.9954    2.2693    0.2330 H   0  0  0  0  0  0  0  0  0  0  0  0
    1.0623    3.9272   -1.0294 H   0  0  0  0  0  0  0  0  0  0  0  0
    1.0298    3.2550    0.6063 H   0  0  0  0  0  0  0  0  0  0  0  0
    0.0016    1.7918   -0.7178 H   0  0  0  0  0  0  0  0  0  0  0  0
    0.8681    1.5755   -3.0218 H   0  0  0  0  0  0  0  0  0  0  0  0
    2.4317    0.9334   -2.4937 H   0  0  0  0  0  0  0  0  0  0  0  0
    1.3170   -2.7497   -3.8974 H   0  0  0  0  0  0  0  0  0  0  0  0
    0.8836   -3.4247    1.0187 H   0  0  0  0  0  0  0  0  0  0  0  0
    1.2707   -5.0339   -2.8995 H   0  0  0  0  0  0  0  0  0  0  0  0
    1.2354   -5.3691   -0.4223 H   0  0  0  0  0  0  0  0  0  0  0  0
    0.5271   -0.0781   -0.5608 H   0  0  0  0  0  0  0  0  0  0  0  0
   -1.0796   -0.1771   -1.0301 H   0  0  0  0  0  0  0  0  0  0  0  0
   -0.5553    0.4321    0.6423 H   0  0  0  0  0  0  0  0  0  0  0  0
  1  6  1  0  0  0  0
  1 15  1  0  0  0  0
  2  7  1  0  0  0  0
  2  8  1  0  0  0  0
  3  9  1  0  0  0  0
  3 14  1  0  0  0  0
  4  5  1  0  0  0  0
  4 16  1  0  0  0  0
  5  6  1  0  0  0  0
  5 17  1  0  0  0  0
  5 18  1  0  0  0  0
  6  7  1  0  0  0  0
  6 19  1  0  0  0  0
  7 20  1  0  0  0  0
  7 21  1  0  0  0  0
  8  9  1  0  0  0  0
  8 10  2  0  0  0  0
  9 11  2  0  0  0  0
 10 12  1  0  0  0  0
 10 22  1  0  0  0  0
 11 13  1  0  0  0  0
 11 23  1  0  0  0  0
 12 13  2  0  0  0  0
 12 24  1  0  0  0  0
 13 25  1  0  0  0  0
 14 26  1  0  0  0  0
 14 27  1  0  0  0  0
 14 28  1  0  0  0  0
M  END
>  <DRUGBANK_ID>
DB00874

>  <SECONDARY_ACCESSION_NUMBERS>
APRD01005

>  <COMMON_NAME>
Guaifenesin

>  <CAS_NUMBER>
93-14-1

>  <UNII>
495W7451VQ

>  <SYNONYMS>
Glyceryl guaiacolate; Guaifenesin; Guaifenesina; guaiphenesin

$$$$
