
 OpenBabel10282417123D

 15 14  0  0  0  0  0  0  0  0999 V2000
    0.8016    0.0782    0.0717 O   0  0  0  0  0  0  0  0  0  0  0  0
    0.2168    1.2287    0.4912 C   0  0  0  0  0  0  0  0  0  0  0  0
    0.8790    2.1983    0.7762 O   0  0  0  0  0  0  0  0  0  0  0  0
   -1.2778    1.1262    0.5910 C   0  0  0  0  0  0  0  0  0  0  0  0
   -1.8082   -0.0963    0.3534 C   0  0  0  0  0  0  0  0  0  0  0  0
   -2.0276    2.3190    0.8666 O   0  0  0  0  0  0  0  0  0  0  0  0
   -3.7576    2.3190    0.8666 P   0  0  0  0  0  0  0  0  0  0  0  0
   -3.6432    3.7632    0.0979 O   0  0  0  0  0  0  0  0  0  0  0  0
   -3.7680    1.4117   -0.5056 O   0  0  0  0  0  0  0  0  0  0  0  0
   -5.3060    2.3190    0.8666 O   0  0  0  0  0  0  0  0  0  0  0  0
    1.7674    0.2326    0.0991 H   0  0  0  0  0  0  0  0  0  0  0  0
   -2.8605   -0.3494    0.4265 H   0  0  0  0  0  0  0  0  0  0  0  0
   -1.2161   -0.9328   -0.0185 H   0  0  0  0  0  0  0  0  0  0  0  0
   -3.8319    4.4952    0.7096 H   0  0  0  0  0  0  0  0  0  0  0  0
   -3.0228    1.5727   -1.1019 H   0  0  0  0  0  0  0  0  0  0  0  0
  1  2  1  0  0  0  0
  1 11  1  0  0  0  0
  2  3  2  0  0  0  0
  2  4  1  0  0  0  0
  4  5  2  0  0  0  0
  4  6  1  0  0  0  0
  5 12  1  0  0  0  0
  5 13  1  0  0  0  0
  6  7  1  0  0  0  0
  7  8  1  0  0  0  0
  7  9  1  0  0  0  0
  7 10  2  0  0  0  0
  8 14  1  0  0  0  0
  9 15  1  0  0  0  0
M  END
>  <DRUGBANK_ID>
DB01819

>  <SECONDARY_ACCESSION_NUMBERS>
EXPT02550

>  <COMMON_NAME>
Phosphoenolpyruvate

>  <CAS_NUMBER>
138-08-9

>  <UNII>
545YL308OW

$$$$
