
 OpenBabel10282417233D

 17 11  0  0  0  0  0  0  0  0999 V2000
    0.9519    0.0723   -0.0497 O   0  5  0  0  0  0  0  0  0  0  0  0
    2.6819    0.0723   -0.0497 P   0  0  0  0  0  0  0  0  0  0  0  0
    2.6997    1.4643   -0.6802 O   0  0  0  0  0  0  0  0  0  0  0  0
    4.4119    0.0723   -0.0497 O   0  0  0  0  0  0  0  0  0  0  0  0
    2.7383   -1.1230   -0.9992 O   0  5  0  0  0  0  0  0  0  0  0  0
    1.3140   -0.9574   -2.6667 K   0  3  0  0  0  0  0  0  0  0  0  0
    0.3072    2.1863    0.9417 O   0  0  0  0  0  0  0  0  0  0  0  0
    0.8991    2.5748   -1.5217 K   0  3  0  0  0  0  0  0  0  0  0  0
   -0.6287   -0.7258    1.7637 O   0  0  0  0  0  0  0  0  0  0  0  0
    1.3523   -2.4737    0.5079 O   0  0  0  0  0  0  0  0  0  0  0  0
    4.7259    0.3798    0.8143 H   0  0  0  0  0  0  0  0  0  0  0  0
   -0.0178    1.2913    0.6532 H   0  0  0  0  0  0  0  0  0  0  0  0
    1.2501    1.9027    0.9446 H   0  0  0  0  0  0  0  0  0  0  0  0
   -0.3866   -1.4947    1.2310 H   0  0  0  0  0  0  0  0  0  0  0  0
    0.1963   -0.2140    1.5764 H   0  0  0  0  0  0  0  0  0  0  0  0
    1.0759   -1.6124    0.1017 H   0  0  0  0  0  0  0  0  0  0  0  0
    2.2721   -2.4009    0.1402 H   0  0  0  0  0  0  0  0  0  0  0  0
  1  2  1  0  0  0  0
  2  5  1  0  0  0  0
  2  3  2  0  0  0  0
  2  4  1  0  0  0  0
  4 11  1  0  0  0  0
  7 12  1  0  0  0  0
  7 13  1  0  0  0  0
  9 14  1  0  0  0  0
  9 15  1  0  0  0  0
 10 16  1  0  0  0  0
 10 17  1  0  0  0  0
M  CHG  4   1  -1   5  -1   6   1   8   1
M  END
>  <DRUGBANK_ID>
DB16534

>  <COMMON_NAME>
Potassium phosphate, dibasic, trihydrate

>  <CAS_NUMBER>
16788-57-1

>  <UNII>
RJK174X3TZ

>  <SYNONYMS>
Dipotassium hydrogen phosphate trihydrate; Dipotassium monophosphate trihydrate

$$$$
