
 OpenBabel10282417193D

 31 32  0  0  0  0  0  0  0  0999 V2000
    1.2108   -0.0801   -0.0444 C   0  0  0  0  0  0  0  0  0  0  0  0
   -0.3607   -2.4507   -4.5831 C   0  0  0  0  0  0  0  0  0  0  0  0
    0.3613   -1.3703   -0.0603 C   0  0  2  0  0  0  0  0  0  0  0  0
    0.1382   -0.4599   -5.2724 C   0  0  0  0  0  0  0  0  0  0  0  0
    0.7329   -2.8512   -0.2470 C   0  0  2  0  0  0  0  0  0  0  0  0
    0.4997   -3.1834   -1.7098 C   0  0  2  0  0  0  0  0  0  0  0  0
    0.4295    0.6039   -6.2433 C   0  0  0  0  0  0  0  0  0  0  0  0
    0.0690   -0.4016   -3.8827 C   0  0  0  0  0  0  0  0  0  0  0  0
   -0.5471   -2.1583   -2.1184 C   0  0  2  0  0  0  0  0  0  0  0  0
    0.6827    1.8711   -5.7883 N   0  0  0  0  0  0  0  0  0  0  0  0
   -0.1201   -1.7674   -5.6756 N   0  0  0  0  0  0  0  0  0  0  0  0
   -0.2888   -1.6551   -3.4679 N   0  0  0  0  0  0  0  0  0  0  0  0
    0.7895    0.7377    1.0768 O   0  0  0  0  0  0  0  0  0  0  0  0
   -0.2849   -3.6138    0.4805 O   0  0  0  0  0  0  0  0  0  0  0  0
   -0.0140   -4.5096   -1.9291 O   0  0  0  0  0  0  0  0  0  0  0  0
    0.4559    0.4249   -7.4690 O   0  0  0  0  0  0  0  0  0  0  0  0
    0.2517    0.5435   -2.9827 O   0  0  0  0  0  0  0  0  0  0  0  0
   -0.6454   -1.1492   -1.0854 O   0  0  0  0  0  0  0  0  0  0  0  0
    0.9623    0.5682   -0.8838 H   0  0  0  0  0  0  0  0  0  0  0  0
    2.2957   -0.1670    0.0122 H   0  0  0  0  0  0  0  0  0  0  0  0
   -0.5866   -3.5115   -4.5359 H   0  0  0  0  0  0  0  0  0  0  0  0
   -0.1234   -1.3601    0.9209 H   0  0  0  0  0  0  0  0  0  0  0  0
    1.6982   -3.1841    0.1451 H   0  0  0  0  0  0  0  0  0  0  0  0
    1.4325   -3.1032   -2.2766 H   0  0  0  0  0  0  0  0  0  0  0  0
   -1.5542   -2.5833   -2.1692 H   0  0  0  0  0  0  0  0  0  0  0  0
    0.8580    2.5725   -6.4938 H   0  0  0  0  0  0  0  0  0  0  0  0
    0.6704    2.1981   -4.8456 H   0  0  0  0  0  0  0  0  0  0  0  0
    0.9332    0.2367    1.8970 H   0  0  0  0  0  0  0  0  0  0  0  0
   -1.1525   -3.2000    0.2985 H   0  0  0  0  0  0  0  0  0  0  0  0
   -0.7866   -4.6334   -1.3421 H   0  0  0  0  0  0  0  0  0  0  0  0
    0.4370    1.3860   -3.4038 H   0  0  0  0  0  0  0  0  0  0  0  0
  1 19  1  0  0  0  0
  1 20  1  0  0  0  0
  2 21  1  0  0  0  0
  3  1  1  0  0  0  0
  3 22  1  1  0  0  0
  5  3  1  0  0  0  0
  5 14  1  0  0  0  0
  5 23  1  1  0  0  0
  6  5  1  0  0  0  0
  6 15  1  0  0  0  0
  6 24  1  6  0  0  0
  7  4  1  0  0  0  0
  8  4  2  0  0  0  0
  9  6  1  0  0  0  0
  9 25  1  6  0  0  0
  9 12  1  0  0  0  0
 10  7  1  0  0  0  0
 10 26  1  0  0  0  0
 10 27  1  0  0  0  0
 11  2  2  0  0  0  0
 11  4  1  0  0  0  0
 12  2  1  0  0  0  0
 12  8  1  0  0  0  0
 13  1  1  0  0  0  0
 13 28  1  0  0  0  0
 14 29  1  0  0  0  0
 15 30  1  0  0  0  0
 16  7  2  0  0  0  0
 17  8  1  0  0  0  0
 17 31  1  0  0  0  0
 18  3  1  0  0  0  0
 18  9  1  0  0  0  0
M  END
>  <DRUGBANK_ID>
DB12617

>  <COMMON_NAME>
Mizoribine

>  <CAS_NUMBER>
50924-49-7

>  <UNII>
4JR41A10VP

>  <SYNONYMS>
BREDININ; Mizoribine

$$$$
