RL2
 OpenBabel10282417133D

 54 54  0  0  0  0  0  0  0  0999 V2000
    3.2631    3.7535    0.4634 C   0  0  0  0  0  0  0  0  0  0  0  0
    4.0095    4.0202   -0.4377 O   0  0  0  0  0  0  0  0  0  0  0  0
    3.0416    4.6490    1.4431 O   0  0  0  0  0  0  0  0  0  0  0  0
    2.4648    2.4904    0.6674 C   0  0  0  0  0  0  0  0  0  0  0  0
    2.9534    1.3710   -0.2526 C   0  0  2  0  0  0  0  0  0  0  0  0
    2.3238    0.1378    0.1155 O   0  0  0  0  0  0  0  0  0  0  0  0
    4.4883    1.2583   -0.2208 C   0  0  0  0  0  0  0  0  0  0  0  0
    5.1837    1.4566   -1.2148 O   0  0  0  0  0  0  0  0  0  0  0  0
    5.0789    0.9103    0.9543 N   0  0  0  0  0  0  0  0  0  0  0  0
    4.4408    0.6100    2.2465 C   0  0  1  0  0  0  0  0  0  0  0  0
    4.9654   -0.7501    2.7234 C   0  0  0  0  0  0  0  0  0  0  0  0
    6.4933   -0.8863    2.9245 C   0  0  0  0  0  0  0  0  0  0  0  0
    7.0203   -0.0314    4.0511 C   0  0  0  0  0  0  0  0  0  0  0  0
    7.4187    1.2831    3.8102 C   0  0  0  0  0  0  0  0  0  0  0  0
    7.3925    2.2222    4.8466 C   0  0  0  0  0  0  0  0  0  0  0  0
    7.0882    1.8294    6.1449 C   0  0  0  0  0  0  0  0  0  0  0  0
    6.8849    0.4815    6.4140 C   0  0  0  0  0  0  0  0  0  0  0  0
    6.8930   -0.4531    5.3754 C   0  0  0  0  0  0  0  0  0  0  0  0
    4.5834    1.8972    3.1241 C   0  0  0  0  0  0  0  0  0  0  0  0
    3.6833    2.1853    4.1282 N   0  0  0  0  0  0  0  0  0  0  0  0
    4.0541    3.2487    5.0690 C   0  0  0  0  0  0  0  0  0  0  0  0
    3.7471    4.6856    4.6382 C   0  0  0  0  0  0  0  0  0  0  0  0
    2.2510    4.8786    4.4054 C   0  0  0  0  0  0  0  0  0  0  0  0
    1.4641    4.5034    5.6582 C   0  0  0  0  0  0  0  0  0  0  0  0
    1.9385    6.3097    3.9870 C   0  0  0  0  0  0  0  0  0  0  0  0
    5.4410    2.7388    2.8516 O   0  0  0  0  0  0  0  0  0  0  0  0
    2.6509    1.5924   -1.2798 H   0  0  0  0  0  0  0  0  0  0  0  0
    3.3745    0.4453    2.1030 H   0  0  0  0  0  0  0  0  0  0  0  0
    3.6682    5.3742    1.2291 H   0  0  0  0  0  0  0  0  0  0  0  0
    2.5397    2.2028    1.7133 H   0  0  0  0  0  0  0  0  0  0  0  0
    1.3983    2.6759    0.5294 H   0  0  0  0  0  0  0  0  0  0  0  0
    2.6921   -0.5530   -0.4681 H   0  0  0  0  0  0  0  0  0  0  0  0
    6.0817    1.0723    0.9551 H   0  0  0  0  0  0  0  0  0  0  0  0
    4.4141   -1.0647    3.6157 H   0  0  0  0  0  0  0  0  0  0  0  0
    4.6929   -1.4777    1.9365 H   0  0  0  0  0  0  0  0  0  0  0  0
    6.7113   -1.9395    3.1384 H   0  0  0  0  0  0  0  0  0  0  0  0
    7.0195   -0.6598    1.9898 H   0  0  0  0  0  0  0  0  0  0  0  0
    7.5187    1.6507    2.7889 H   0  0  0  0  0  0  0  0  0  0  0  0
    7.3971    3.2831    4.5908 H   0  0  0  0  0  0  0  0  0  0  0  0
    6.9389    2.5798    6.9176 H   0  0  0  0  0  0  0  0  0  0  0  0
    6.6379    0.1667    7.4225 H   0  0  0  0  0  0  0  0  0  0  0  0
    6.7273   -1.5025    5.5970 H   0  0  0  0  0  0  0  0  0  0  0  0
    2.7057    2.1664    3.8522 H   0  0  0  0  0  0  0  0  0  0  0  0
    3.6106    3.0098    6.0379 H   0  0  0  0  0  0  0  0  0  0  0  0
    5.1225    3.2158    5.2349 H   0  0  0  0  0  0  0  0  0  0  0  0
    4.0917    5.3722    5.4267 H   0  0  0  0  0  0  0  0  0  0  0  0
    4.3246    4.9621    3.7461 H   0  0  0  0  0  0  0  0  0  0  0  0
    1.9347    4.2165    3.5938 H   0  0  0  0  0  0  0  0  0  0  0  0
    1.7499    5.1437    6.4990 H   0  0  0  0  0  0  0  0  0  0  0  0
    0.3919    4.5907    5.4805 H   0  0  0  0  0  0  0  0  0  0  0  0
    1.6399    3.4653    5.9548 H   0  0  0  0  0  0  0  0  0  0  0  0
    2.4899    6.5924    3.0848 H   0  0  0  0  0  0  0  0  0  0  0  0
    0.8701    6.4057    3.7703 H   0  0  0  0  0  0  0  0  0  0  0  0
    2.1995    7.0206    4.7766 H   0  0  0  0  0  0  0  0  0  0  0  0
  1  2  2  0  0  0  0
  1  3  1  0  0  0  0
  1  4  1  0  0  0  0
  3 29  1  0  0  0  0
  4 30  1  0  0  0  0
  4 31  1  0  0  0  0
  5  7  1  0  0  0  0
  5 27  1  6  0  0  0
  5  6  1  0  0  0  0
  5  4  1  0  0  0  0
  6 32  1  0  0  0  0
  7  8  2  0  0  0  0
  7  9  1  0  0  0  0
  9 33  1  0  0  0  0
 10  9  1  0  0  0  0
 10 11  1  0  0  0  0
 10 19  1  0  0  0  0
 10 28  1  6  0  0  0
 11 12  1  0  0  0  0
 11 34  1  0  0  0  0
 11 35  1  0  0  0  0
 12 13  1  0  0  0  0
 12 36  1  0  0  0  0
 12 37  1  0  0  0  0
 13 14  2  0  0  0  0
 13 18  1  0  0  0  0
 14 15  1  0  0  0  0
 14 38  1  0  0  0  0
 15 16  2  0  0  0  0
 15 39  1  0  0  0  0
 16 17  1  0  0  0  0
 16 40  1  0  0  0  0
 17 18  2  0  0  0  0
 17 41  1  0  0  0  0
 18 42  1  0  0  0  0
 19 20  1  0  0  0  0
 19 26  2  0  0  0  0
 20 21  1  0  0  0  0
 20 43  1  0  0  0  0
 21 22  1  0  0  0  0
 21 44  1  0  0  0  0
 21 45  1  0  0  0  0
 22 23  1  0  0  0  0
 22 46  1  0  0  0  0
 22 47  1  0  0  0  0
 23 24  1  0  0  0  0
 23 25  1  0  0  0  0
 23 48  1  0  0  0  0
 24 49  1  0  0  0  0
 24 50  1  0  0  0  0
 24 51  1  0  0  0  0
 25 52  1  0  0  0  0
 25 53  1  0  0  0  0
 25 54  1  0  0  0  0
M  END
>  <DRUGBANK_ID>
DB03691

>  <SECONDARY_ACCESSION_NUMBERS>
EXPT02790

>  <COMMON_NAME>
WRR-112

$$$$
