
 OpenBabel10282417173D

 56 59  0  0  0  0  0  0  0  0999 V2000
    0.4300    1.9378   -7.8452 O   0  0  0  0  0  0  0  0  0  0  0  0
   -6.1375    7.7226   -2.3190 O   0  0  0  0  0  0  0  0  0  0  0  0
    3.3933    4.2264   -6.3724 O   0  0  0  0  0  0  0  0  0  0  0  0
    2.4025    2.3861   -6.9196 O   0  0  0  0  0  0  0  0  0  0  0  0
    0.5726    3.0925   -5.0145 C   0  0  1  0  0  0  0  0  0  0  0  0
   -0.8790    3.0296   -4.6680 C   0  0  2  0  0  0  0  0  0  0  0  0
   -0.1461    2.7143   -6.7837 C   0  0  2  0  0  0  0  0  0  0  0  0
   -1.4114    3.6255   -3.4353 C   0  0  1  0  0  0  0  0  0  0  0  0
   -1.1550    5.1338   -3.5889 C   0  0  1  0  0  0  0  0  0  0  0  0
   -2.4581    5.9874   -3.1119 C   0  0  2  0  0  0  0  0  0  0  0  0
    1.2139    4.5975   -4.2981 C   0  0  0  0  0  0  0  0  0  0  0  0
   -1.2074    1.6127   -5.1303 C   0  0  0  0  0  0  0  0  0  0  0  0
   -1.5104    1.9619   -6.5503 C   0  0  0  0  0  0  0  0  0  0  0  0
   -3.4132    5.3490   -2.1169 C   0  0  0  0  0  0  0  0  0  0  0  0
    0.3770    5.1918   -3.1291 C   0  0  0  0  0  0  0  0  0  0  0  0
   -2.8404    3.3152   -3.4046 C   0  0  0  0  0  0  0  0  0  0  0  0
   -0.2487    4.0443   -7.5793 C   0  0  0  0  0  0  0  0  0  0  0  0
    1.3160    2.1456   -3.9712 C   0  0  0  0  0  0  0  0  0  0  0  0
   -3.7127    3.9932   -2.6596 C   0  0  0  0  0  0  0  0  0  0  0  0
   -3.9296    6.0026   -4.2964 C   0  0  0  0  0  0  0  0  0  0  0  0
   -4.2637    6.3402   -1.6511 C   0  0  0  0  0  0  0  0  0  0  0  0
   -1.6966    7.0458   -2.1699 C   0  0  0  0  0  0  0  0  0  0  0  0
   -5.4434    6.6858   -2.4936 C   0  0  0  0  0  0  0  0  0  0  0  0
   -5.5344    5.8466   -3.6655 C   0  0  0  0  0  0  0  0  0  0  0  0
    1.0181    4.6391   -7.0579 C   0  0  0  0  0  0  0  0  0  0  0  0
    2.3145    3.6048   -6.8725 C   0  0  0  0  0  0  0  0  0  0  0  0
   -1.0361    5.5382   -4.6090 H   0  0  0  0  0  0  0  0  0  0  0  0
   -0.9512    3.1682   -2.5582 H   0  0  0  0  0  0  0  0  0  0  0  0
   -1.3579    3.7476   -5.3590 H   0  0  0  0  0  0  0  0  0  0  0  0
    0.0800    1.0410   -7.9281 H   0  0  0  0  0  0  0  0  0  0  0  0
    3.1560    5.1094   -6.0760 H   0  0  0  0  0  0  0  0  0  0  0  0
    2.2621    4.4406   -3.9762 H   0  0  0  0  0  0  0  0  0  0  0  0
    1.3737    5.4828   -4.9300 H   0  0  0  0  0  0  0  0  0  0  0  0
   -1.9064    1.0619   -4.5193 H   0  0  0  0  0  0  0  0  0  0  0  0
   -0.3309    0.9500   -5.2236 H   0  0  0  0  0  0  0  0  0  0  0  0
   -2.3994    2.6043   -6.6310 H   0  0  0  0  0  0  0  0  0  0  0  0
   -1.7005    1.0636   -7.1439 H   0  0  0  0  0  0  0  0  0  0  0  0
    0.6033    4.6151   -2.2176 H   0  0  0  0  0  0  0  0  0  0  0  0
    0.7823    6.1981   -2.9340 H   0  0  0  0  0  0  0  0  0  0  0  0
   -3.2393    2.6523   -4.1742 H   0  0  0  0  0  0  0  0  0  0  0  0
   -0.1777    4.0599   -8.6710 H   0  0  0  0  0  0  0  0  0  0  0  0
   -1.1620    4.6127   -7.3153 H   0  0  0  0  0  0  0  0  0  0  0  0
    0.9615    2.4052   -2.9529 H   0  0  0  0  0  0  0  0  0  0  0  0
    1.1978    1.0697   -4.0412 H   0  0  0  0  0  0  0  0  0  0  0  0
    2.3909    2.3626   -3.8847 H   0  0  0  0  0  0  0  0  0  0  0  0
   -4.7012    3.6525   -2.9218 H   0  0  0  0  0  0  0  0  0  0  0  0
   -3.9030    5.1052   -4.9521 H   0  0  0  0  0  0  0  0  0  0  0  0
   -3.9762    6.8485   -4.9892 H   0  0  0  0  0  0  0  0  0  0  0  0
   -3.8851    7.3703   -1.5174 H   0  0  0  0  0  0  0  0  0  0  0  0
   -1.3994    7.9899   -2.6200 H   0  0  0  0  0  0  0  0  0  0  0  0
   -2.0883    7.1958   -1.1523 H   0  0  0  0  0  0  0  0  0  0  0  0
   -0.7596    6.6067   -1.7846 H   0  0  0  0  0  0  0  0  0  0  0  0
   -5.8783    4.8956   -3.2157 H   0  0  0  0  0  0  0  0  0  0  0  0
   -6.3889    6.0625   -4.3215 H   0  0  0  0  0  0  0  0  0  0  0  0
    1.2593    5.6966   -7.1450 H   0  0  0  0  0  0  0  0  0  0  0  0
    0.4836    4.8058   -6.1447 H   0  0  0  0  0  0  0  0  0  0  0  0
  1 30  1  0  0  0  0
  2 23  2  0  0  0  0
  3 26  1  0  0  0  0
  3 31  1  0  0  0  0
  4 26  2  0  0  0  0
  5  6  1  0  0  0  0
  5  7  1  0  0  0  0
  5 11  1  0  0  0  0
  5 18  1  1  0  0  0
  6  8  1  0  0  0  0
  6 12  1  0  0  0  0
  6 29  1  6  0  0  0
  7  1  1  6  0  0  0
  7 13  1  0  0  0  0
  7 17  1  0  0  0  0
  8  9  1  0  0  0  0
  8 16  1  0  0  0  0
  8 28  1  1  0  0  0
  9 10  1  0  0  0  0
  9 15  1  0  0  0  0
  9 27  1  6  0  0  0
 10 14  1  0  0  0  0
 10 20  1  0  0  0  0
 10 22  1  1  0  0  0
 11 15  1  0  0  0  0
 11 32  1  0  0  0  0
 11 33  1  0  0  0  0
 12 13  1  0  0  0  0
 12 34  1  0  0  0  0
 12 35  1  0  0  0  0
 13 36  1  0  0  0  0
 13 37  1  0  0  0  0
 14 19  1  0  0  0  0
 14 21  2  0  0  0  0
 15 38  1  0  0  0  0
 15 39  1  0  0  0  0
 16 19  2  0  0  0  0
 16 40  1  0  0  0  0
 17 25  1  0  0  0  0
 17 41  1  0  0  0  0
 17 42  1  0  0  0  0
 18 43  1  0  0  0  0
 18 44  1  0  0  0  0
 18 45  1  0  0  0  0
 19 46  1  0  0  0  0
 20 24  1  0  0  0  0
 20 47  1  0  0  0  0
 20 48  1  0  0  0  0
 21 23  1  0  0  0  0
 21 49  1  0  0  0  0
 22 50  1  0  0  0  0
 22 51  1  0  0  0  0
 22 52  1  0  0  0  0
 23 24  1  0  0  0  0
 24 53  1  0  0  0  0
 24 54  1  0  0  0  0
 25 26  1  0  0  0  0
 25 55  1  0  0  0  0
 25 56  1  0  0  0  0
M  END
>  <DRUGBANK_ID>
DB09015

>  <COMMON_NAME>
Canrenoic acid

>  <CAS_NUMBER>
4138-96-9

>  <UNII>
87UG89VA9K

>  <SYNONYMS>
Ã¡cido canrenoico; Canrenoate; Canrenoic acid

$$$$
