1137
 OpenBabel10282417113D

 46 49  0  0  1  0  0  0  0  0999 V2000
   -3.4197    1.7780   -0.1387 F   0  0  0  0  0  0  0  0  0  0  0  0
    1.3114    2.2189    0.2814 O   0  0  0  0  0  0  0  0  0  0  0  0
   -1.7546   -2.9156   -0.0459 O   0  0  0  0  0  0  0  0  0  0  0  0
    2.1015   -4.7945    0.2176 O   0  0  0  0  0  0  0  0  0  0  0  0
   -0.0928   -5.1449    0.1151 O   0  0  0  0  0  0  0  0  0  0  0  0
   -1.1860    3.4326   -0.2329 N   0  0  0  0  0  0  0  0  0  0  0  0
    1.5803   -0.6269    0.1593 N   0  0  0  0  0  0  0  0  0  0  0  0
   -1.2041    6.2643   -0.8382 N   0  0  0  0  0  0  0  0  0  0  0  0
   -1.8498    4.3680    0.6965 C   0  0  0  0  0  0  0  0  0  0  0  0
   -0.1281    4.0437   -1.0490 C   0  0  0  0  0  0  0  0  0  0  0  0
    2.7441    0.2689    0.0839 C   0  0  2  0  0  0  0  0  0  0  0  0
   -1.0631    2.0675    0.0346 C   0  0  0  0  0  0  0  0  0  0  0  0
    0.3183    0.0071    0.1391 C   0  0  0  0  0  0  0  0  0  0  0  0
    0.1900    1.4151    0.1659 C   0  0  0  0  0  0  0  0  0  0  0  0
   -2.3216    5.6287   -0.0933 C   0  0  0  0  0  0  0  0  0  0  0  0
   -0.6717    5.2678   -1.7891 C   0  0  0  0  0  0  0  0  0  0  0  0
    2.4276    1.5451    0.8546 C   0  0  0  0  0  0  0  0  0  0  0  0
   -0.8433   -0.7680    0.0641 C   0  0  0  0  0  0  0  0  0  0  0  0
   -2.1978    1.2365   -0.0015 C   0  0  0  0  0  0  0  0  0  0  0  0
    1.6664   -2.0014    0.1439 C   0  0  0  0  0  0  0  0  0  0  0  0
   -2.1001   -0.1569    0.0039 C   0  0  0  0  0  0  0  0  0  0  0  0
    3.0940    0.5477   -1.3802 C   0  0  0  0  0  0  0  0  0  0  0  0
   -0.7273   -2.2520    0.0377 C   0  0  0  0  0  0  0  0  0  0  0  0
   -1.6369    7.4536   -1.5579 C   0  0  0  0  0  0  0  0  0  0  0  0
    0.6409   -2.8683    0.1108 C   0  0  0  0  0  0  0  0  0  0  0  0
    0.8286   -4.3409    0.1416 C   0  0  0  0  0  0  0  0  0  0  0  0
    2.8391   -4.1678    0.2509 H   0  0  0  0  0  0  0  0  0  0  0  0
   -1.1431    4.6890    1.4752 H   0  0  0  0  0  0  0  0  0  0  0  0
   -2.7129    3.9165    1.1985 H   0  0  0  0  0  0  0  0  0  0  0  0
    0.7172    4.3561   -0.4242 H   0  0  0  0  0  0  0  0  0  0  0  0
    0.2235    3.3324   -1.8062 H   0  0  0  0  0  0  0  0  0  0  0  0
    3.6077   -0.2105    0.5628 H   0  0  0  0  0  0  0  0  0  0  0  0
   -2.7600    6.3518    0.6043 H   0  0  0  0  0  0  0  0  0  0  0  0
   -3.1124    5.3277   -0.7947 H   0  0  0  0  0  0  0  0  0  0  0  0
   -1.4567    4.9456   -2.4869 H   0  0  0  0  0  0  0  0  0  0  0  0
    0.1460    5.6956   -2.3789 H   0  0  0  0  0  0  0  0  0  0  0  0
    3.2825    2.2285    0.8235 H   0  0  0  0  0  0  0  0  0  0  0  0
    2.2099    1.3365    1.9096 H   0  0  0  0  0  0  0  0  0  0  0  0
    2.7026   -2.3077    0.1725 H   0  0  0  0  0  0  0  0  0  0  0  0
   -3.0054   -0.7534   -0.0819 H   0  0  0  0  0  0  0  0  0  0  0  0
    3.9650    1.2071   -1.4487 H   0  0  0  0  0  0  0  0  0  0  0  0
    3.3283   -0.3827   -1.9085 H   0  0  0  0  0  0  0  0  0  0  0  0
    2.2671    1.0252   -1.9170 H   0  0  0  0  0  0  0  0  0  0  0  0
   -0.7874    7.8981   -2.0903 H   0  0  0  0  0  0  0  0  0  0  0  0
   -2.4228    7.2328   -2.2872 H   0  0  0  0  0  0  0  0  0  0  0  0
   -2.0021    8.2125   -0.8596 H   0  0  0  0  0  0  0  0  0  0  0  0
  1 19  1  0  0  0  0
  2 14  1  0  0  0  0
  2 17  1  0  0  0  0
  3 23  2  0  0  0  0
  4 26  1  0  0  0  0
  4 27  1  0  0  0  0
  5 26  2  0  0  0  0
  6  9  1  0  0  0  0
  6 10  1  0  0  0  0
  6 12  1  0  0  0  0
  7 11  1  0  0  0  0
  7 13  1  0  0  0  0
  7 20  1  0  0  0  0
  8 15  1  0  0  0  0
  8 16  1  0  0  0  0
  8 24  1  0  0  0  0
  9 15  1  0  0  0  0
  9 28  1  0  0  0  0
  9 29  1  0  0  0  0
 10 16  1  0  0  0  0
 10 30  1  0  0  0  0
 10 31  1  0  0  0  0
 11 17  1  0  0  0  0
 11 22  1  0  0  0  0
 11 32  1  1  0  0  0
 12 14  1  0  0  0  0
 12 19  2  0  0  0  0
 13 14  2  0  0  0  0
 13 18  1  0  0  0  0
 15 33  1  0  0  0  0
 15 34  1  0  0  0  0
 16 35  1  0  0  0  0
 16 36  1  0  0  0  0
 17 37  1  0  0  0  0
 17 38  1  0  0  0  0
 18 21  2  0  0  0  0
 18 23  1  0  0  0  0
 19 21  1  0  0  0  0
 20 25  2  0  0  0  0
 20 39  1  0  0  0  0
 21 40  1  0  0  0  0
 22 41  1  0  0  0  0
 22 42  1  0  0  0  0
 22 43  1  0  0  0  0
 23 25  1  0  0  0  0
 24 44  1  0  0  0  0
 24 45  1  0  0  0  0
 24 46  1  0  0  0  0
 25 26  1  0  0  0  0
M  END
>  <DRUGBANK_ID>
DB01137

>  <SECONDARY_ACCESSION_NUMBERS>
APRD00477; DB06085

>  <COMMON_NAME>
Levofloxacin

>  <CAS_NUMBER>
100986-85-4

>  <UNII>
RIX4E89Y14

>  <SYNONYMS>
(-)-Ofloxacin; (3S)-(-)-9-fluoro-3-methyl-10-(4-methyl-1-piperazinyl)-7-oxo-2,3-dihydro-7H-pyrido[1,2,3-de][1,4]benzoxazine-6-carboxylic acid; (S)-(-)-9-fluoro-3-methyl-10-(4-methyl-1-piperazinyl)-7-oxo-2,3-dihydro-7H-pyrido[1,2,3-de][1,4]benzooxazine-6-carboxylic acid; (S)-9-Fluoro-2,3-dihydro-3-methyl-10-(4-methyl-1-piperazinyl)-7-oxo-7H-pyrido(1,2,3-de)-1,4-benzoxazine-6-carboxylic acid; (S)-Ofloxacin; L-Ofloxacin; Levofloxacin; Levofloxacin anhydrous; Levofloxacine; Levofloxacino; Levofloxacinum; Ofloxacin S-(-)-form

$$$$
