16750094
 OpenBabel10282417173D

 48 51  0  0  0  0  0  0  0  0999 V2000
    0.9521   -0.0400   -0.1540 O   0  0  0  0  0  0  0  0  0  0  0  0
    0.6588    8.1952   -3.5742 O   0  0  0  0  0  0  0  0  0  0  0  0
    3.8397    1.5199    3.1334 N   0  0  0  0  0  0  0  0  0  0  0  0
    3.9630    3.6488    2.0233 N   0  0  0  0  0  0  0  0  0  0  0  0
    2.4994    6.8623   -3.8089 N   0  0  0  0  0  0  0  0  0  0  0  0
   -0.7586    6.8393    0.0325 N   0  0  0  0  0  0  0  0  0  0  0  0
    2.0058    2.1738    2.0463 C   0  0  0  0  0  0  0  0  0  0  0  0
    1.7817    0.8722    2.5740 C   0  0  0  0  0  0  0  0  0  0  0  0
    3.3054    2.5335    2.3853 C   0  0  0  0  0  0  0  0  0  0  0  0
    1.2728    3.0520    1.2386 C   0  0  0  0  0  0  0  0  0  0  0  0
    0.6928   -0.0489    2.3091 C   0  0  0  0  0  0  0  0  0  0  0  0
    1.8410    4.2866    0.9359 C   0  0  0  0  0  0  0  0  0  0  0  0
    2.9263    0.5021    3.2582 C   0  0  0  0  0  0  0  0  0  0  0  0
    1.0702    5.2981    0.2193 C   0  0  0  0  0  0  0  0  0  0  0  0
    3.1764    4.4994    1.3162 C   0  0  0  0  0  0  0  0  0  0  0  0
    0.3649   -0.4783    1.0086 C   0  0  0  0  0  0  0  0  0  0  0  0
   -0.0536   -0.5250    3.3988 C   0  0  0  0  0  0  0  0  0  0  0  0
    1.5055    5.7263   -1.0314 C   0  0  0  0  0  0  0  0  0  0  0  0
    0.8992    6.7320   -1.7738 C   0  0  0  0  0  0  0  0  0  0  0  0
   -0.0863    5.8730    0.6967 C   0  0  0  0  0  0  0  0  0  0  0  0
   -0.7176   -1.3513    0.8260 C   0  0  0  0  0  0  0  0  0  0  0  0
   -1.0771   -1.4545    3.2102 C   0  0  0  0  0  0  0  0  0  0  0  0
   -1.4266   -1.8487    1.9222 C   0  0  0  0  0  0  0  0  0  0  0  0
    1.3505    7.2958   -3.1060 C   0  0  0  0  0  0  0  0  0  0  0  0
   -0.2465    7.2515   -1.1712 C   0  0  0  0  0  0  0  0  0  0  0  0
    3.4681    5.8434   -3.4803 C   0  0  0  0  0  0  0  0  0  0  0  0
    2.8042    7.5120   -5.0821 C   0  0  0  0  0  0  0  0  0  0  0  0
    2.3729   -0.1456   -0.2165 C   0  0  0  0  0  0  0  0  0  0  0  0
    4.7864    1.5214    3.4839 H   0  0  0  0  0  0  0  0  0  0  0  0
    0.2926    2.7703    0.8648 H   0  0  0  0  0  0  0  0  0  0  0  0
    3.1895   -0.4187    3.7611 H   0  0  0  0  0  0  0  0  0  0  0  0
    3.6820    5.4273    1.0475 H   0  0  0  0  0  0  0  0  0  0  0  0
    0.1546   -0.1627    4.4032 H   0  0  0  0  0  0  0  0  0  0  0  0
    2.3434    5.1485   -1.3306 H   0  0  0  0  0  0  0  0  0  0  0  0
   -0.5014    5.5640    1.6520 H   0  0  0  0  0  0  0  0  0  0  0  0
   -1.0005   -1.6629   -0.1768 H   0  0  0  0  0  0  0  0  0  0  0  0
   -1.6012   -1.8667    4.0687 H   0  0  0  0  0  0  0  0  0  0  0  0
   -2.2552   -2.5368    1.7715 H   0  0  0  0  0  0  0  0  0  0  0  0
   -0.8301    8.0431   -1.6376 H   0  0  0  0  0  0  0  0  0  0  0  0
    3.4351    5.0589   -4.2387 H   0  0  0  0  0  0  0  0  0  0  0  0
    4.4555    6.2998   -3.3936 H   0  0  0  0  0  0  0  0  0  0  0  0
    3.3317    5.3472   -2.5586 H   0  0  0  0  0  0  0  0  0  0  0  0
    1.9842    7.3625   -5.7885 H   0  0  0  0  0  0  0  0  0  0  0  0
    2.9848    8.5785   -4.9270 H   0  0  0  0  0  0  0  0  0  0  0  0
    3.7130    7.0700   -5.5133 H   0  0  0  0  0  0  0  0  0  0  0  0
    2.6892    0.1877   -1.2084 H   0  0  0  0  0  0  0  0  0  0  0  0
    2.8951    0.5203    0.4602 H   0  0  0  0  0  0  0  0  0  0  0  0
    2.7136   -1.1692   -0.0446 H   0  0  0  0  0  0  0  0  0  0  0  0
  1 16  1  0  0  0  0
  1 28  1  0  0  0  0
  2 24  2  0  0  0  0
  3  9  1  0  0  0  0
  3 13  1  0  0  0  0
  3 29  1  0  0  0  0
  4  9  1  0  0  0  0
  4 15  2  0  0  0  0
  5 24  1  0  0  0  0
  5 26  1  0  0  0  0
  5 27  1  0  0  0  0
  6 20  2  0  0  0  0
  6 25  1  0  0  0  0
  7  8  1  0  0  0  0
  7  9  2  0  0  0  0
  7 10  1  0  0  0  0
  8 11  1  0  0  0  0
  8 13  2  0  0  0  0
 10 12  2  0  0  0  0
 10 30  1  0  0  0  0
 11 16  1  0  0  0  0
 11 17  2  0  0  0  0
 12 14  1  0  0  0  0
 12 15  1  0  0  0  0
 13 31  1  0  0  0  0
 14 18  2  0  0  0  0
 14 20  1  0  0  0  0
 15 32  1  0  0  0  0
 16 21  2  0  0  0  0
 17 22  1  0  0  0  0
 17 33  1  0  0  0  0
 18 19  1  0  0  0  0
 18 34  1  0  0  0  0
 19 24  1  0  0  0  0
 19 25  2  0  0  0  0
 20 35  1  0  0  0  0
 21 23  1  0  0  0  0
 21 36  1  0  0  0  0
 22 23  2  0  0  0  0
 22 37  1  0  0  0  0
 23 38  1  0  0  0  0
 25 39  1  0  0  0  0
 26 40  1  0  0  0  0
 26 41  1  0  0  0  0
 26 42  1  0  0  0  0
 27 43  1  0  0  0  0
 27 44  1  0  0  0  0
 27 45  1  0  0  0  0
 28 46  1  0  0  0  0
 28 47  1  0  0  0  0
 28 48  1  0  0  0  0
M  END
>  <DRUGBANK_ID>
DB08350

>  <COMMON_NAME>
5-[3-(2-METHOXYPHENYL)-1H-PYRROLO[2,3-B]PYRIDIN-5-YL]-N,N-DIMETHYLPYRIDINE-3-CARBOXAMIDE

$$$$
