
 OpenBabel10282417193D

 29 31  0  0  0  0  0  0  0  0999 V2000
   -3.0507   -0.5878    0.1656 N   0  0  0  0  0  0  0  0  0  0  0  0
   -1.7399   -0.1972   -0.0016 C   0  0  0  0  0  0  0  0  0  0  0  0
   -1.5186    1.1211   -0.1126 N   0  0  0  0  0  0  0  0  0  0  0  0
   -0.2534    1.5608   -0.3700 C   0  0  0  0  0  0  0  0  0  0  0  0
   -0.0669    2.9160   -0.1429 O   0  0  0  0  0  0  0  0  0  0  0  0
    1.2856    3.3727    0.0475 C   0  0  0  0  0  0  0  0  0  0  0  0
    1.8975    3.0485    1.4118 C   0  0  0  0  0  0  0  0  0  0  0  0
    2.4764    4.0214    2.2235 C   0  0  0  0  0  0  0  0  0  0  0  0
    2.9928    3.6719    3.4879 C   0  0  0  0  0  0  0  0  0  0  0  0
    2.9964    2.3495    3.9423 C   0  0  0  0  0  0  0  0  0  0  0  0
    2.4582    1.3729    3.1479 C   0  0  0  0  0  0  0  0  0  0  0  0
    1.9138    1.7482    1.9344 C   0  0  0  0  0  0  0  0  0  0  0  0
    0.7483    0.6007   -0.6094 C   0  0  0  0  0  0  0  0  0  0  0  0
    2.1212    0.6838   -0.8096 N   0  0  0  0  0  0  0  0  0  0  0  0
    2.5931   -0.4865   -0.4412 C   0  0  0  0  0  0  0  0  0  0  0  0
    1.5843   -1.3888   -0.2275 N   0  0  0  0  0  0  0  0  0  0  0  0
    0.4007   -0.7028   -0.3166 C   0  0  0  0  0  0  0  0  0  0  0  0
   -0.8236   -1.1749   -0.0221 N   0  0  0  0  0  0  0  0  0  0  0  0
   -3.7399    0.1249   -0.0062 H   0  0  0  0  0  0  0  0  0  0  0  0
   -3.2436   -1.5634    0.0265 H   0  0  0  0  0  0  0  0  0  0  0  0
    1.9160    3.0796   -0.8008 H   0  0  0  0  0  0  0  0  0  0  0  0
    1.2247    4.4676   -0.0425 H   0  0  0  0  0  0  0  0  0  0  0  0
    2.5039    5.0620    1.9093 H   0  0  0  0  0  0  0  0  0  0  0  0
    3.3785    4.4449    4.1433 H   0  0  0  0  0  0  0  0  0  0  0  0
    3.3867    2.0729    4.9141 H   0  0  0  0  0  0  0  0  0  0  0  0
    2.3991    0.3288    3.4412 H   0  0  0  0  0  0  0  0  0  0  0  0
    1.4643    0.9210    1.4409 H   0  0  0  0  0  0  0  0  0  0  0  0
    3.6380   -0.7137   -0.2515 H   0  0  0  0  0  0  0  0  0  0  0  0
    1.6891   -2.3402    0.0815 H   0  0  0  0  0  0  0  0  0  0  0  0
  1  2  1  0  0  0  0
  1 19  1  0  0  0  0
  1 20  1  0  0  0  0
  2  3  2  0  0  0  0
  2 18  1  0  0  0  0
  3  4  1  0  0  0  0
  4  5  1  0  0  0  0
  4 13  2  0  0  0  0
  5  6  1  0  0  0  0
  6  7  1  0  0  0  0
  6 21  1  0  0  0  0
  6 22  1  0  0  0  0
  7  8  2  0  0  0  0
  7 12  1  0  0  0  0
  8  9  1  0  0  0  0
  8 23  1  0  0  0  0
  9 10  2  0  0  0  0
  9 24  1  0  0  0  0
 10 11  1  0  0  0  0
 10 25  1  0  0  0  0
 11 12  2  0  0  0  0
 11 26  1  0  0  0  0
 12 27  1  0  0  0  0
 13 14  1  0  0  0  0
 13 17  1  0  0  0  0
 14 15  2  0  0  0  0
 15 16  1  0  0  0  0
 15 28  1  0  0  0  0
 16 17  1  0  0  0  0
 16 29  1  0  0  0  0
 17 18  2  0  0  0  0
M  END
>  <DRUGBANK_ID>
DB11919

>  <COMMON_NAME>
6-O-benzylguanine

>  <CAS_NUMBER>
19916-73-5

>  <UNII>
01KC87F8FE

>  <SYNONYMS>
O(6)-Benzylguanine; O6-benzylguanine

$$$$
