
 OpenBabel10282417123D

 16 15  0  0  0  0  0  0  0  0999 V2000
   -2.6453   -0.5399    2.2570 O   0  0  0  0  0  0  0  0  0  0  0  0
   -1.8004   -0.0940    1.3100 C   0  0  0  0  0  0  0  0  0  0  0  0
    0.7393   -1.4396   -1.1351 C   0  0  0  0  0  0  0  0  0  0  0  0
    0.2215   -1.2255    0.2828 C   0  0  2  0  0  0  0  0  0  0  0  0
   -1.3207   -1.1586    0.3305 C   0  0  2  0  0  0  0  0  0  0  0  0
    0.3987   -2.6250   -1.6729 O   0  0  0  0  0  0  0  0  0  0  0  0
    1.3901   -0.6336   -1.7901 O   0  0  0  0  0  0  0  0  0  0  0  0
   -1.5236    1.0975    1.2398 O   0  0  0  0  0  0  0  0  0  0  0  0
    0.8452   -0.0382    0.7952 O   0  0  0  0  0  0  0  0  0  0  0  0
   -1.8977   -0.8299   -0.9448 O   0  0  0  0  0  0  0  0  0  0  0  0
   -2.8785    0.2643    2.7705 H   0  0  0  0  0  0  0  0  0  0  0  0
    0.5874   -2.0392    0.9177 H   0  0  0  0  0  0  0  0  0  0  0  0
   -1.7226   -2.1383    0.6147 H   0  0  0  0  0  0  0  0  0  0  0  0
    0.7364   -2.5785   -2.5939 H   0  0  0  0  0  0  0  0  0  0  0  0
    0.4653    0.7320    0.3265 H   0  0  0  0  0  0  0  0  0  0  0  0
   -1.5330    0.0278   -1.2302 H   0  0  0  0  0  0  0  0  0  0  0  0
  1  2  1  0  0  0  0
  1 11  1  0  0  0  0
  4  3  1  0  0  0  0
  4  9  1  0  0  0  0
  4 12  1  1  0  0  0
  5 10  1  0  0  0  0
  5 13  1  1  0  0  0
  5  4  1  0  0  0  0
  5  2  1  0  0  0  0
  6  3  1  0  0  0  0
  6 14  1  0  0  0  0
  7  3  2  0  0  0  0
  8  2  2  0  0  0  0
  9 15  1  0  0  0  0
 10 16  1  0  0  0  0
M  END
>  <DRUGBANK_ID>
DB01694

>  <SECONDARY_ACCESSION_NUMBERS>
EXPT03007

>  <COMMON_NAME>
D-tartaric acid

>  <CAS_NUMBER>
147-71-7

>  <UNII>
RRX6A4PL3C

>  <SYNONYMS>
(-)-Tartaric acid; (−)-(S,S)-tartaric acid; (−)-D-tartaric acid; (−)-Weinsäure; (2S,3S)-(−)-tartaric acid; (2S,3S)-tartaric acid; (S,S)-(−)-tartaric acid; (S,S)-Tartaric acid; D-(−)-tartaric acid; D-tartaric acid; D-threaric acid; Linksweinsäure

$$$$
