
 OpenBabel10282417243D

  3  0  0  0  0  0  0  0  0  0999 V2000
    1.0186   -0.0282   -0.0941 O   0  6  0  0  0  0  0  0  0  0  0  0
    0.9456    0.0485   -0.0685 O   0  6  0  0  0  0  0  0  0  0  0  0
    0.9457    0.0670    0.0506 Ce  0  0  0  0  0  0  0  0  0  0  0  0
M  CHG  3   1  -2   2  -2   3   4
M  END
>  <DRUGBANK_ID>
DB18493

>  <COMMON_NAME>
Cerium dioxide

>  <CAS_NUMBER>
1306-38-3

>  <UNII>
619G5K328Y

>  <SYNONYMS>
Ceric oxide; Cerium oxide; Cerium(iv) oxide

$$$$
