
 OpenBabel10282417133D

  5  4  0  0  0  0  0  0  0  0999 V2000
    0.9559   -0.0713    0.0140 Br  0  0  0  0  0  0  0  0  0  0  0  0
    2.8976   -0.0817    0.1100 C   0  0  0  0  0  0  0  0  0  0  0  0
    3.5903    1.4324    1.1137 Br  0  0  0  0  0  0  0  0  0  0  0  0
    3.5903   -1.7754    0.7664 Br  0  0  0  0  0  0  0  0  0  0  0  0
    3.2618    0.0292   -0.9143 H   0  0  0  0  0  0  0  0  0  0  0  0
  1  2  1  0  0  0  0
  2  3  1  0  0  0  0
  2  4  1  0  0  0  0
  2  5  1  0  0  0  0
M  END
>  <DRUGBANK_ID>
DB03054

>  <SECONDARY_ACCESSION_NUMBERS>
EXPT02127

>  <COMMON_NAME>
Bromoform

>  <CAS_NUMBER>
75-25-2

>  <UNII>
TUT9J99IMU

>  <SYNONYMS>
Tribrommethan; Tribromomethane

$$$$
