ASE
 OpenBabel10282417143D

 30 31  0  0  0  0  0  0  0  0999 V2000
    1.8395   -0.1363    0.0037 C   0  0  0  0  0  0  0  0  0  0  0  0
    0.8367   -1.0995   -0.0135 C   0  0  0  0  0  0  0  0  0  0  0  0
   -0.5089   -0.6900   -0.0175 C   0  0  0  0  0  0  0  0  0  0  0  0
    1.5383    1.2210    0.0089 C   0  0  0  0  0  0  0  0  0  0  0  0
    0.2054    1.6546   -0.0031 C   0  0  0  0  0  0  0  0  0  0  0  0
   -0.7955    0.6750   -0.0084 C   0  0  0  0  0  0  0  0  0  0  0  0
   -1.7490   -1.3984   -0.0415 C   0  0  0  0  0  0  0  0  0  0  0  0
   -2.7463   -0.4408   -0.0639 C   0  0  0  0  0  0  0  0  0  0  0  0
   -2.1644    0.7971   -0.0097 N   0  0  0  0  0  0  0  0  0  0  0  0
    3.1257   -0.5934    0.0113 O   0  0  0  0  0  0  0  0  0  0  0  0
   -1.9001   -2.8932   -0.0657 C   0  0  0  0  0  0  0  0  0  0  0  0
   -2.6376   -3.4514    1.1538 C   0  0  0  0  0  0  0  0  0  0  0  0
   -4.0237   -3.0128    1.2175 N   0  0  0  0  0  0  0  0  0  0  0  0
   -5.0847   -3.8757    1.1208 C   0  0  0  0  0  0  0  0  0  0  0  0
   -6.4403   -3.2150    1.1286 C   0  0  0  0  0  0  0  0  0  0  0  0
   -4.9638   -5.0897    1.0314 O   0  0  0  0  0  0  0  0  0  0  0  0
    1.0976   -2.1522   -0.0297 H   0  0  0  0  0  0  0  0  0  0  0  0
    2.3287    1.9649    0.0205 H   0  0  0  0  0  0  0  0  0  0  0  0
   -0.0380    2.7122   -0.0125 H   0  0  0  0  0  0  0  0  0  0  0  0
   -3.8227   -0.5275   -0.1086 H   0  0  0  0  0  0  0  0  0  0  0  0
   -2.6681    1.6732    0.0081 H   0  0  0  0  0  0  0  0  0  0  0  0
    3.7303    0.1647    0.0165 H   0  0  0  0  0  0  0  0  0  0  0  0
   -2.4003   -3.1914   -0.9942 H   0  0  0  0  0  0  0  0  0  0  0  0
   -0.9053   -3.3573   -0.0908 H   0  0  0  0  0  0  0  0  0  0  0  0
   -2.5976   -4.5450    1.1239 H   0  0  0  0  0  0  0  0  0  0  0  0
   -2.1516   -3.1227    2.0791 H   0  0  0  0  0  0  0  0  0  0  0  0
   -4.1885   -2.0246    1.3406 H   0  0  0  0  0  0  0  0  0  0  0  0
   -6.9740   -3.5004    0.2173 H   0  0  0  0  0  0  0  0  0  0  0  0
   -6.9984   -3.5635    2.0015 H   0  0  0  0  0  0  0  0  0  0  0  0
   -6.3788   -2.1236    1.1638 H   0  0  0  0  0  0  0  0  0  0  0  0
  1  2  2  0  0  0  0
  1  4  1  0  0  0  0
  1 10  1  0  0  0  0
  2  3  1  0  0  0  0
  2 17  1  0  0  0  0
  3  6  2  0  0  0  0
  3  7  1  0  0  0  0
  4  5  2  0  0  0  0
  4 18  1  0  0  0  0
  5  6  1  0  0  0  0
  5 19  1  0  0  0  0
  6  9  1  0  0  0  0
  7  8  2  0  0  0  0
  7 11  1  0  0  0  0
  8  9  1  0  0  0  0
  8 20  1  0  0  0  0
  9 21  1  0  0  0  0
 10 22  1  0  0  0  0
 11 12  1  0  0  0  0
 11 23  1  0  0  0  0
 11 24  1  0  0  0  0
 12 13  1  0  0  0  0
 12 25  1  0  0  0  0
 12 26  1  0  0  0  0
 13 14  1  0  0  0  0
 13 27  1  0  0  0  0
 14 15  1  0  0  0  0
 14 16  2  0  0  0  0
 15 28  1  0  0  0  0
 15 29  1  0  0  0  0
 15 30  1  0  0  0  0
M  END
>  <DRUGBANK_ID>
DB04275

>  <SECONDARY_ACCESSION_NUMBERS>
EXPT00570

>  <COMMON_NAME>
N-acetylserotonin

>  <CAS_NUMBER>
1210-83-9

>  <UNII>
P4TO3C82WV

>  <SYNONYMS>
N-(2-(5-Hydroxy-1H-indol-3-yl)ethyl)acetamide; N-acetyl serotonin; N-Acetyl-5-hydroxytryptamine

$$$$
