CTL
 OpenBabel10282417163D

 25 26  0  0  0  0  0  0  0  0999 V2000
   -1.2517    1.4924    0.0506 C   0  0  1  0  0  0  0  0  0  0  0  0
   -2.4637    0.6442   -0.4203 C   0  0  2  0  0  0  0  0  0  0  0  0
   -2.4570   -0.6793    0.3470 C   0  0  0  0  0  0  0  0  0  0  0  0
   -1.2314   -1.5139   -0.0216 C   0  0  0  0  0  0  0  0  0  0  0  0
    0.0483   -0.7070    0.0055 C   0  0  0  0  0  0  0  0  0  0  0  0
    1.2701   -1.3954   -0.0477 C   0  0  0  0  0  0  0  0  0  0  0  0
    0.0470    0.7040    0.0270 C   0  0  0  0  0  0  0  0  0  0  0  0
    1.2706    1.3914    0.0709 C   0  0  0  0  0  0  0  0  0  0  0  0
    2.4778    0.6921    0.0370 C   0  0  0  0  0  0  0  0  0  0  0  0
    2.4754   -0.6958   -0.0317 C   0  0  0  0  0  0  0  0  0  0  0  0
   -1.1612    2.6518   -0.7851 O   0  0  0  0  0  0  0  0  0  0  0  0
   -2.4663    0.4070   -1.8847 N   0  0  0  0  0  0  0  0  0  0  0  0
   -1.4266    1.8390    1.0768 H   0  0  0  0  0  0  0  0  0  0  0  0
   -3.3837    1.1964   -0.1952 H   0  0  0  0  0  0  0  0  0  0  0  0
   -2.4383   -0.4697    1.4259 H   0  0  0  0  0  0  0  0  0  0  0  0
   -3.3728   -1.2497    0.1552 H   0  0  0  0  0  0  0  0  0  0  0  0
   -1.1564   -2.3633    0.6670 H   0  0  0  0  0  0  0  0  0  0  0  0
   -1.3575   -1.9305   -1.0292 H   0  0  0  0  0  0  0  0  0  0  0  0
    1.2833   -2.4808   -0.1016 H   0  0  0  0  0  0  0  0  0  0  0  0
    1.2852    2.4774    0.1272 H   0  0  0  0  0  0  0  0  0  0  0  0
    3.4177    1.2370    0.0617 H   0  0  0  0  0  0  0  0  0  0  0  0
    3.4163   -1.2408   -0.0673 H   0  0  0  0  0  0  0  0  0  0  0  0
   -0.8092    2.3397   -1.6357 H   0  0  0  0  0  0  0  0  0  0  0  0
   -2.4943    1.3106   -2.3566 H   0  0  0  0  0  0  0  0  0  0  0  0
   -1.5755   -0.0150   -2.1552 H   0  0  0  0  0  0  0  0  0  0  0  0
  1  2  1  0  0  0  0
  1  7  1  0  0  0  0
  1 11  1  0  0  0  0
  1 13  1  1  0  0  0
  2  3  1  0  0  0  0
  2 12  1  0  0  0  0
  2 14  1  1  0  0  0
  3  4  1  0  0  0  0
  3 15  1  0  0  0  0
  3 16  1  0  0  0  0
  4  5  1  0  0  0  0
  4 17  1  0  0  0  0
  4 18  1  0  0  0  0
  5  6  2  0  0  0  0
  5  7  1  0  0  0  0
  6 10  1  0  0  0  0
  6 19  1  0  0  0  0
  7  8  2  0  0  0  0
  8  9  1  0  0  0  0
  8 20  1  0  0  0  0
  9 10  2  0  0  0  0
  9 21  1  0  0  0  0
 10 22  1  0  0  0  0
 11 23  1  0  0  0  0
 12 24  1  0  0  0  0
 12 25  1  0  0  0  0
M  END
>  <DRUGBANK_ID>
DB07597

>  <COMMON_NAME>
CIS-(1R,2S)-2-AMINO-1,2,3,4-TETRAHYDRONAPHTHALEN-1-OL

$$$$
