
 OpenBabel10282417103D

 80 87  0  0  1  0  0  0  0  0999 V2000
    1.6207   -1.8766   -0.0844 C   0  0  0  0  0  0  0  0  0  0  0  0
    2.7042   -1.0408   -0.0124 C   0  0  0  0  0  0  0  0  0  0  0  0
    2.5741    0.3465   -0.2268 C   0  0  0  0  0  0  0  0  0  0  0  0
    1.3643    0.8236   -0.7782 C   0  0  0  0  0  0  0  0  0  0  0  0
    0.8567    2.0815   -1.0076 N   0  0  0  0  0  0  0  0  0  0  0  0
   -0.5523    2.0117   -1.1548 C   0  0  0  0  0  0  0  0  0  0  0  0
   -0.9654    0.6774   -1.1651 C   0  0  0  0  0  0  0  0  0  0  0  0
    0.4012   -1.3034   -0.3399 C   0  0  0  0  0  0  0  0  0  0  0  0
    0.2713   -0.0179   -0.9008 C   0  0  0  0  0  0  0  0  0  0  0  0
   -2.3148   -0.1352   -1.0859 C   0  0  0  0  0  0  0  0  0  0  0  0
   -0.8330   -2.0575   -0.1666 C   0  0  2  0  0  0  0  0  0  0  0  0
   -2.1422   -1.7142   -0.7167 C   0  0  2  0  0  0  0  0  0  0  0  0
   -2.1901   -3.1721   -1.6416 N   0  0  0  0  0  0  0  0  0  0  0  0
   -3.0770   -3.9906   -0.8158 C   0  0  0  0  0  0  0  0  0  0  0  0
   -2.6357   -3.9072    0.7090 C   0  0  1  0  0  0  0  0  0  0  0  0
   -1.1294   -3.2887    0.8198 C   0  0  0  0  0  0  0  0  0  0  0  0
   -3.8662   -3.1236    1.4256 C   0  0  0  0  0  0  0  0  0  0  0  0
   -3.6608   -2.3590    2.6089 N   0  0  0  0  0  0  0  0  0  0  0  0
   -0.8042   -3.9885   -1.8683 C   0  0  0  0  0  0  0  0  0  0  0  0
   -2.7288   -1.7274    0.2151 H   0  0  0  0  0  0  0  0  0  0  0  0
   -4.9662   -3.1996    0.8681 O   0  0  0  0  0  0  0  0  0  0  0  0
   -4.4748   -0.9035    3.0983 C   0  0  1  0  0  0  0  0  0  0  0  0
   -4.2982    0.9698    3.5635 C   0  0  0  0  0  0  0  0  0  0  0  0
   -3.4194   -0.3656    2.4114 O   0  0  0  0  0  0  0  0  0  0  0  0
   -2.7555    0.2189    3.5435 C   0  0  2  0  0  0  0  0  0  0  0  0
   -2.9643    1.4520    3.2155 N   0  0  0  0  0  0  0  0  0  0  0  0
   -2.3355    1.5239    1.8422 C   0  0  2  0  0  0  0  0  0  0  0  0
   -0.9845    0.1573    1.7349 C   0  0  0  0  0  0  0  0  0  0  0  0
   -1.3857   -0.2547    3.5206 C   0  0  1  0  0  0  0  0  0  0  0  0
   -0.9563   -1.1053    2.7637 N   0  0  0  0  0  0  0  0  0  0  0  0
   -0.0834   -1.7672    4.2400 C   0  0  0  0  0  0  0  0  0  0  0  0
    0.1199   -0.2942    5.0782 C   0  0  0  0  0  0  0  0  0  0  0  0
   -0.0649    0.4229    3.8683 C   0  0  0  0  0  0  0  0  0  0  0  0
   -3.1156   -0.2596    4.9044 O   0  0  0  0  0  0  0  0  0  0  0  0
   -1.8327   -1.1221    3.9767 H   0  0  0  0  0  0  0  0  0  0  0  0
   -4.6548    1.5750    4.6013 O   0  0  0  0  0  0  0  0  0  0  0  0
    0.1437    0.4432    1.4305 O   0  0  0  0  0  0  0  0  0  0  0  0
   -2.1828    3.0170    1.3314 C   0  0  0  0  0  0  0  0  0  0  0  0
   -0.9363    3.7067    1.8057 C   0  0  0  0  0  0  0  0  0  0  0  0
    0.3134    3.1499    1.6129 C   0  0  0  0  0  0  0  0  0  0  0  0
    1.5248    3.5566    2.1215 C   0  0  0  0  0  0  0  0  0  0  0  0
    1.4487    4.4757    3.1167 C   0  0  0  0  0  0  0  0  0  0  0  0
    0.1965    5.0383    3.4054 C   0  0  0  0  0  0  0  0  0  0  0  0
   -0.9413    4.8102    2.6124 C   0  0  0  0  0  0  0  0  0  0  0  0
   -5.7695   -1.1579    2.3999 C   0  0  0  0  0  0  0  0  0  0  0  0
   -0.5712   -2.1823   -1.2059 H   0  0  0  0  0  0  0  0  0  0  0  0
    1.6661   -2.9430    0.0936 H   0  0  0  0  0  0  0  0  0  0  0  0
    3.6489   -1.4854    0.2647 H   0  0  0  0  0  0  0  0  0  0  0  0
    3.3741    1.0068    0.0819 H   0  0  0  0  0  0  0  0  0  0  0  0
    1.3177    2.9101   -0.6441 H   0  0  0  0  0  0  0  0  0  0  0  0
   -1.0286    2.9802   -1.0522 H   0  0  0  0  0  0  0  0  0  0  0  0
   -2.9927    0.0271   -1.9192 H   0  0  0  0  0  0  0  0  0  0  0  0
   -2.9453    0.2699   -0.2695 H   0  0  0  0  0  0  0  0  0  0  0  0
   -3.4380   -4.9866   -1.1383 H   0  0  0  0  0  0  0  0  0  0  0  0
   -3.9677   -3.4155   -1.0747 H   0  0  0  0  0  0  0  0  0  0  0  0
   -2.5898   -4.9295    1.1167 H   0  0  0  0  0  0  0  0  0  0  0  0
   -0.3652   -4.0678    0.7368 H   0  0  0  0  0  0  0  0  0  0  0  0
   -0.9718   -3.0464    1.8561 H   0  0  0  0  0  0  0  0  0  0  0  0
   -2.6590   -2.3001    2.7354 H   0  0  0  0  0  0  0  0  0  0  0  0
   -0.1409   -3.3512   -2.4690 H   0  0  0  0  0  0  0  0  0  0  0  0
   -0.1795   -4.2697   -0.9991 H   0  0  0  0  0  0  0  0  0  0  0  0
   -0.8296   -4.9422   -2.3996 H   0  0  0  0  0  0  0  0  0  0  0  0
   -3.1988    1.2901    1.2011 H   0  0  0  0  0  0  0  0  0  0  0  0
   -0.4543   -1.9186    5.3281 H   0  0  0  0  0  0  0  0  0  0  0  0
   -0.9458   -2.5086    4.3676 H   0  0  0  0  0  0  0  0  0  0  0  0
    1.0957   -0.1325    5.5124 H   0  0  0  0  0  0  0  0  0  0  0  0
   -0.6584    0.1826    5.7023 H   0  0  0  0  0  0  0  0  0  0  0  0
    0.8194   -0.0086    3.2988 H   0  0  0  0  0  0  0  0  0  0  0  0
    0.0027    1.4763    3.6959 H   0  0  0  0  0  0  0  0  0  0  0  0
   -2.5002    0.1980    5.4961 H   0  0  0  0  0  0  0  0  0  0  0  0
   -2.3520    3.0734    0.2459 H   0  0  0  0  0  0  0  0  0  0  0  0
   -3.0534    3.6269    1.6380 H   0  0  0  0  0  0  0  0  0  0  0  0
    0.3885    2.2374    1.1063 H   0  0  0  0  0  0  0  0  0  0  0  0
    2.4228    3.0124    1.8405 H   0  0  0  0  0  0  0  0  0  0  0  0
    2.3429    4.6872    3.6870 H   0  0  0  0  0  0  0  0  0  0  0  0
    0.0757    5.5918    4.3262 H   0  0  0  0  0  0  0  0  0  0  0  0
   -1.8449    5.3964    2.7293 H   0  0  0  0  0  0  0  0  0  0  0  0
   -5.6488   -1.0095    1.3252 H   0  0  0  0  0  0  0  0  0  0  0  0
   -5.9854   -2.2211    2.5919 H   0  0  0  0  0  0  0  0  0  0  0  0
   -6.6452   -0.6538    2.7858 H   0  0  0  0  0  0  0  0  0  0  0  0
  1  2  2  0  0  0  0
  1 47  1  0  0  0  0
  2  3  1  0  0  0  0
  2 48  1  0  0  0  0
  3  4  2  0  0  0  0
  3 49  1  0  0  0  0
  4  5  1  0  0  0  0
  5  6  1  0  0  0  0
  5 50  1  0  0  0  0
  6  7  2  0  0  0  0
  6 51  1  0  0  0  0
  7 10  1  0  0  0  0
  7  9  1  0  0  0  0
  8  1  1  0  0  0  0
  8  9  2  0  0  0  0
  8 11  1  0  0  0  0
  9  4  1  0  0  0  0
 10 12  1  0  0  0  0
 10 52  1  0  0  0  0
 10 53  1  0  0  0  0
 11 12  1  0  0  0  0
 11 16  1  0  0  0  0
 11 46  1  6  0  0  0
 12 13  1  0  0  0  0
 12 20  1  1  0  0  0
 13 14  1  0  0  0  0
 13 19  1  0  0  0  0
 14 15  1  0  0  0  0
 14 54  1  0  0  0  0
 14 55  1  0  0  0  0
 15 16  1  0  0  0  0
 15 56  1  1  0  0  0
 15 17  1  0  0  0  0
 16 57  1  0  0  0  0
 16 58  1  0  0  0  0
 17 18  1  0  0  0  0
 17 21  2  0  0  0  0
 18 59  1  0  0  0  0
 19 60  1  0  0  0  0
 19 61  1  0  0  0  0
 19 62  1  0  0  0  0
 22 23  1  0  0  0  0
 22 45  1  6  0  0  0
 22 18  1  0  0  0  0
 23 26  1  0  0  0  0
 23 36  2  0  0  0  0
 24 22  1  0  0  0  0
 25 24  1  0  0  0  0
 25 26  1  0  0  0  0
 25 29  1  0  0  0  0
 25 34  1  1  0  0  0
 26 27  1  0  0  0  0
 27 28  1  0  0  0  0
 27 63  1  6  0  0  0
 27 38  1  0  0  0  0
 28 30  1  0  0  0  0
 28 37  2  0  0  0  0
 29 30  1  0  0  0  0
 29 35  1  1  0  0  0
 30 31  1  0  0  0  0
 31 32  1  0  0  0  0
 31 64  1  0  0  0  0
 31 65  1  0  0  0  0
 32 33  1  0  0  0  0
 32 66  1  0  0  0  0
 32 67  1  0  0  0  0
 33 29  1  0  0  0  0
 33 68  1  0  0  0  0
 33 69  1  0  0  0  0
 34 70  1  0  0  0  0
 38 39  1  0  0  0  0
 38 71  1  0  0  0  0
 38 72  1  0  0  0  0
 39 40  2  0  0  0  0
 40 41  1  0  0  0  0
 40 73  1  0  0  0  0
 41 42  2  0  0  0  0
 41 74  1  0  0  0  0
 42 43  1  0  0  0  0
 42 75  1  0  0  0  0
 43 44  2  0  0  0  0
 43 76  1  0  0  0  0
 44 39  1  0  0  0  0
 44 77  1  0  0  0  0
 45 78  1  0  0  0  0
 45 79  1  0  0  0  0
 45 80  1  0  0  0  0
M  END
>  <DRUGBANK_ID>
DB00320

>  <SECONDARY_ACCESSION_NUMBERS>
APRD00476; DB05743

>  <COMMON_NAME>
Dihydroergotamine

>  <CAS_NUMBER>
511-12-6

>  <UNII>
436O5HM03C

>  <SYNONYMS>
(2R,4R,7R)-N-[(1S,2S,4R,7S)-7-benzyl-2-hydroxy-4-methyl-5,8-dioxo-3-oxa-6,9-diazatricyclo[7.3.0.02,6]dodecan-4-yl]-6-methyl-6,11-diazatetracyclo[7.6.1.02,7.012,16]hexadeca-1(16),9,12,14-tetraene-4-carboxamide; 5'-benzyl-12'-hydroxy-2'-methyl-3',6',18-trioxo-9,10-dihydroergotaman; 9,10-dihydro-12'-hydroxy-2'-methyl-5'-(phenylmethyl)ergotoman-3',6',18-trione; 9,10-dihydroergotamine; Dihidroergotamina; Dihydroergotamin; Dihydroergotamine; Dihydroergotaminum; Diidroergotamina

$$$$
