
 OpenBabel10282417123D

 24 25  0  0  1  0  0  0  0  0999 V2000
    0.9733   -0.0406   -0.0910 C   0  0  0  0  0  0  0  0  0  0  0  0
    0.5366    0.3581    1.3256 C   0  0  2  0  0  0  0  0  0  0  0  0
    0.8442    1.8547    1.5613 C   0  0  2  0  0  0  0  0  0  0  0  0
    0.7330    2.2289    3.0443 C   0  0  1  0  0  0  0  0  0  0  0  0
    1.7644    1.4260    3.8605 C   0  0  2  0  0  0  0  0  0  0  0  0
    1.7290   -0.0084    3.5073 C   0  0  0  0  0  0  0  0  0  0  0  0
    2.1773   -1.0547    4.1725 N   0  0  0  0  0  0  0  0  0  0  0  0
    1.8403   -2.1516    3.4168 N   0  0  0  0  0  0  0  0  0  0  0  0
    1.2021   -1.7929    2.3084 N   0  0  0  0  0  0  0  0  0  0  0  0
    1.1735   -0.4560    2.3446 N   0  0  0  0  0  0  0  0  0  0  0  0
    0.4622    0.8263   -1.1011 O   0  0  0  0  0  0  0  0  0  0  0  0
   -0.0151    2.6736    0.7582 O   0  0  0  0  0  0  0  0  0  0  0  0
    0.9221    3.6374    3.2111 O   0  0  0  0  0  0  0  0  0  0  0  0
    1.4571    1.5522    5.2435 O   0  0  0  0  0  0  0  0  0  0  0  0
   -0.5462    0.1980    1.4263 H   0  0  0  0  0  0  0  0  0  0  0  0
    1.8635    2.0812    1.2230 H   0  0  0  0  0  0  0  0  0  0  0  0
   -0.2845    2.0261    3.4012 H   0  0  0  0  0  0  0  0  0  0  0  0
    2.7735    1.8252    3.7019 H   0  0  0  0  0  0  0  0  0  0  0  0
    0.6241   -1.0494   -0.3310 H   0  0  0  0  0  0  0  0  0  0  0  0
    2.0656   -0.0387   -0.1688 H   0  0  0  0  0  0  0  0  0  0  0  0
    0.6401    1.7570   -0.8495 H   0  0  0  0  0  0  0  0  0  0  0  0
   -0.8924    2.7324    1.1831 H   0  0  0  0  0  0  0  0  0  0  0  0
    1.8554    3.8581    3.0422 H   0  0  0  0  0  0  0  0  0  0  0  0
    0.5829    1.1489    5.3880 H   0  0  0  0  0  0  0  0  0  0  0  0
  1 19  1  0  0  0  0
  1 20  1  0  0  0  0
  2  1  1  0  0  0  0
  2 15  1  1  0  0  0
  3  2  1  0  0  0  0
  3 12  1  0  0  0  0
  3 16  1  6  0  0  0
  4  3  1  0  0  0  0
  4 13  1  0  0  0  0
  4 17  1  1  0  0  0
  5  4  1  0  0  0  0
  5 18  1  6  0  0  0
  5 14  1  0  0  0  0
  6  5  1  0  0  0  0
  7  6  2  0  0  0  0
  8  7  1  0  0  0  0
  9  8  2  0  0  0  0
 10  2  1  0  0  0  0
 10  6  1  0  0  0  0
 10  9  1  0  0  0  0
 11  1  1  0  0  0  0
 11 21  1  0  0  0  0
 12 22  1  0  0  0  0
 13 23  1  0  0  0  0
 14 24  1  0  0  0  0
M  END
>  <DRUGBANK_ID>
DB02471

>  <SECONDARY_ACCESSION_NUMBERS>
EXPT02395

>  <COMMON_NAME>
Nojirimycine Tetrazole

$$$$
