SP0
 OpenBabel10282417173D

 41 44  0  0  0  0  0  0  0  0999 V2000
    0.0843    1.0207    0.3223 C   0  0  0  0  0  0  0  0  0  0  0  0
    0.7324   -0.1842    0.1289 C   0  0  0  0  0  0  0  0  0  0  0  0
    2.0657   -0.2146    0.1350 F   0  0  0  0  0  0  0  0  0  0  0  0
    0.0165   -1.3430   -0.0255 C   0  0  0  0  0  0  0  0  0  0  0  0
   -1.3743   -1.2631   -0.0437 C   0  0  0  0  0  0  0  0  0  0  0  0
   -2.0261   -0.0127   -0.0315 C   0  0  0  0  0  0  0  0  0  0  0  0
   -1.2756    1.1609    0.1045 C   0  0  0  0  0  0  0  0  0  0  0  0
   -2.0752    2.7702    0.0136 S   0  0  0  0  0  0  0  0  0  0  0  0
   -2.8123    2.7859   -1.2253 O   0  0  0  0  0  0  0  0  0  0  0  0
   -2.7928    2.8823    1.2767 O   0  0  0  0  0  0  0  0  0  0  0  0
   -0.9892    4.0019   -0.0242 N   0  0  0  0  0  0  0  0  0  0  0  0
    0.3882    3.9575   -0.1540 C   0  0  0  0  0  0  0  0  0  0  0  0
    1.1191    3.2900   -1.1210 C   0  0  0  0  0  0  0  0  0  0  0  0
    2.4470    3.2883   -0.6198 C   0  0  0  0  0  0  0  0  0  0  0  0
    3.5536    2.3910   -1.0699 C   0  0  0  0  0  0  0  0  0  0  0  0
    3.9019    2.1555   -2.3806 C   0  0  0  0  0  0  0  0  0  0  0  0
    4.9837    1.2270   -2.4817 C   0  0  0  0  0  0  0  0  0  0  0  0
    5.3457    0.7162   -1.2542 C   0  0  0  0  0  0  0  0  0  0  0  0
    4.5237    1.4993    0.0235 S   0  0  0  0  0  0  0  0  0  0  0  0
    2.5651    4.0658    0.4565 N   0  0  0  0  0  0  0  0  0  0  0  0
    1.3266    4.5467    0.6805 N   0  0  0  0  0  0  0  0  0  0  0  0
    1.1312    5.4444    1.7455 C   0  0  0  0  0  0  0  0  0  0  0  0
    0.2425    5.1875    2.7973 C   0  0  0  0  0  0  0  0  0  0  0  0
    0.1416    6.1265    3.8309 C   0  0  0  0  0  0  0  0  0  0  0  0
    0.8950    7.3000    3.7843 C   0  0  0  0  0  0  0  0  0  0  0  0
    0.7825    8.1975    4.7710 F   0  0  0  0  0  0  0  0  0  0  0  0
    1.7655    7.5549    2.7322 C   0  0  0  0  0  0  0  0  0  0  0  0
    1.9031    6.6140    1.7186 C   0  0  0  0  0  0  0  0  0  0  0  0
    0.7086    1.8110    0.6832 H   0  0  0  0  0  0  0  0  0  0  0  0
    0.5567   -2.2832   -0.0661 H   0  0  0  0  0  0  0  0  0  0  0  0
   -1.9457   -2.1872   -0.0679 H   0  0  0  0  0  0  0  0  0  0  0  0
   -3.1138    0.0160   -0.0787 H   0  0  0  0  0  0  0  0  0  0  0  0
   -1.4003    4.8817    0.2592 H   0  0  0  0  0  0  0  0  0  0  0  0
    0.7302    2.6690   -1.9174 H   0  0  0  0  0  0  0  0  0  0  0  0
    3.4611    2.6676   -3.2266 H   0  0  0  0  0  0  0  0  0  0  0  0
    5.4653    0.9377   -3.4078 H   0  0  0  0  0  0  0  0  0  0  0  0
    6.0907   -0.0374   -1.0361 H   0  0  0  0  0  0  0  0  0  0  0  0
   -0.3116    4.2558    2.8843 H   0  0  0  0  0  0  0  0  0  0  0  0
   -0.5053    5.9541    4.6880 H   0  0  0  0  0  0  0  0  0  0  0  0
    2.3362    8.4778    2.7088 H   0  0  0  0  0  0  0  0  0  0  0  0
    2.5885    6.8071    0.8944 H   0  0  0  0  0  0  0  0  0  0  0  0
  1  2  2  0  0  0  0
  1  7  1  0  0  0  0
  1 29  1  0  0  0  0
  2  3  1  0  0  0  0
  2  4  1  0  0  0  0
  4  5  2  0  0  0  0
  4 30  1  0  0  0  0
  5  6  1  0  0  0  0
  5 31  1  0  0  0  0
  6  7  2  0  0  0  0
  6 32  1  0  0  0  0
  7  8  1  0  0  0  0
  8  9  2  0  0  0  0
  8 10  2  0  0  0  0
  8 11  1  0  0  0  0
 11 12  1  0  0  0  0
 11 33  1  0  0  0  0
 12 13  2  0  0  0  0
 12 21  1  0  0  0  0
 13 14  1  0  0  0  0
 13 34  1  0  0  0  0
 14 15  1  0  0  0  0
 14 20  2  0  0  0  0
 15 16  2  0  0  0  0
 15 19  1  0  0  0  0
 16 17  1  0  0  0  0
 16 35  1  0  0  0  0
 17 18  2  0  0  0  0
 17 36  1  0  0  0  0
 18 19  1  0  0  0  0
 18 37  1  0  0  0  0
 20 21  1  0  0  0  0
 21 22  1  0  0  0  0
 22 23  1  0  0  0  0
 22 28  2  0  0  0  0
 23 24  2  0  0  0  0
 23 38  1  0  0  0  0
 24 25  1  0  0  0  0
 24 39  1  0  0  0  0
 25 26  1  0  0  0  0
 25 27  2  0  0  0  0
 27 28  1  0  0  0  0
 27 40  1  0  0  0  0
 28 41  1  0  0  0  0
M  END
>  <DRUGBANK_ID>
DB08560

>  <COMMON_NAME>
3-FLUORO-N-[1-(4-FLUOROPHENYL)-3-(2-THIENYL)-1H-PYRAZOL-5-YL]BENZENESULFONAMIDE

$$$$
