461
 OpenBabel10282417103D

 33 34  0  0  0  0  0  0  0  0999 V2000
    0.8981   -0.0051   -0.0432 O   0  0  0  0  0  0  0  0  0  0  0  0
   -1.7048   -0.7634   -8.7014 O   0  0  0  0  0  0  0  0  0  0  0  0
   -3.1771    0.6029   -4.9547 C   0  0  0  0  0  0  0  0  0  0  0  0
   -3.7829    0.6021   -6.3397 C   0  0  0  0  0  0  0  0  0  0  0  0
   -1.3828   -0.2694   -3.5213 C   0  0  0  0  0  0  0  0  0  0  0  0
   -1.6385    0.7313   -2.5771 C   0  0  0  0  0  0  0  0  0  0  0  0
   -2.2787   -0.4094   -4.6013 C   0  0  0  0  0  0  0  0  0  0  0  0
   -2.8098    0.9802   -7.4729 C   0  0  0  0  0  0  0  0  0  0  0  0
   -3.4157    1.6117   -4.0252 C   0  0  0  0  0  0  0  0  0  0  0  0
   -2.6870    1.6423   -2.8258 C   0  0  0  0  0  0  0  0  0  0  0  0
   -0.2167   -1.0609   -3.3881 C   0  0  0  0  0  0  0  0  0  0  0  0
   -0.8376    0.7760   -1.4195 C   0  0  0  0  0  0  0  0  0  0  0  0
    0.2706   -0.0661   -1.2570 C   0  0  0  0  0  0  0  0  0  0  0  0
    0.6089   -0.9585   -2.2659 C   0  0  0  0  0  0  0  0  0  0  0  0
   -1.6474    0.0312   -7.7453 C   0  0  0  0  0  0  0  0  0  0  0  0
   -0.3922    0.0855   -6.9085 C   0  0  0  0  0  0  0  0  0  0  0  0
    2.3199   -0.0681   -0.0817 C   0  0  0  0  0  0  0  0  0  0  0  0
   -4.2195   -0.3841   -6.5354 H   0  0  0  0  0  0  0  0  0  0  0  0
   -4.6221    1.3124   -6.3667 H   0  0  0  0  0  0  0  0  0  0  0  0
   -2.1729   -1.2609   -5.2746 H   0  0  0  0  0  0  0  0  0  0  0  0
   -3.3970    0.9987   -8.4052 H   0  0  0  0  0  0  0  0  0  0  0  0
   -2.4163    1.9960   -7.3579 H   0  0  0  0  0  0  0  0  0  0  0  0
   -4.1719    2.3718   -4.2102 H   0  0  0  0  0  0  0  0  0  0  0  0
   -2.9084    2.4194   -2.0982 H   0  0  0  0  0  0  0  0  0  0  0  0
    0.0834   -1.7436   -4.1832 H   0  0  0  0  0  0  0  0  0  0  0  0
   -1.0830    1.4733   -0.6233 H   0  0  0  0  0  0  0  0  0  0  0  0
    1.4645   -1.6212   -2.1845 H   0  0  0  0  0  0  0  0  0  0  0  0
    0.0292    1.0870   -6.8621 H   0  0  0  0  0  0  0  0  0  0  0  0
   -0.5415   -0.2280   -5.8983 H   0  0  0  0  0  0  0  0  0  0  0  0
    0.3288   -0.6522   -7.2679 H   0  0  0  0  0  0  0  0  0  0  0  0
    2.6780   -0.0386    0.9527 H   0  0  0  0  0  0  0  0  0  0  0  0
    2.6971   -0.9943   -0.5246 H   0  0  0  0  0  0  0  0  0  0  0  0
    2.7226    0.8056   -0.6032 H   0  0  0  0  0  0  0  0  0  0  0  0
  1 13  1  0  0  0  0
  1 17  1  0  0  0  0
  2 15  2  0  0  0  0
  3  4  1  0  0  0  0
  3  7  2  0  0  0  0
  3  9  1  0  0  0  0
  4  8  1  0  0  0  0
  4 18  1  0  0  0  0
  4 19  1  0  0  0  0
  5  6  2  0  0  0  0
  5  7  1  0  0  0  0
  5 11  1  0  0  0  0
  6 10  1  0  0  0  0
  6 12  1  0  0  0  0
  7 20  1  0  0  0  0
  8 15  1  0  0  0  0
  8 21  1  0  0  0  0
  8 22  1  0  0  0  0
  9 10  2  0  0  0  0
  9 23  1  0  0  0  0
 10 24  1  0  0  0  0
 11 14  2  0  0  0  0
 11 25  1  0  0  0  0
 12 13  2  0  0  0  0
 12 26  1  0  0  0  0
 13 14  1  0  0  0  0
 14 27  1  0  0  0  0
 15 16  1  0  0  0  0
 16 28  1  0  0  0  0
 16 29  1  0  0  0  0
 16 30  1  0  0  0  0
 17 31  1  0  0  0  0
 17 32  1  0  0  0  0
 17 33  1  0  0  0  0
M  END
>  <DRUGBANK_ID>
DB00461

>  <SECONDARY_ACCESSION_NUMBERS>
APRD01128

>  <COMMON_NAME>
Nabumetone

>  <CAS_NUMBER>
42924-53-8

>  <UNII>
LW0TIW155Z

>  <SYNONYMS>
4-(6-Methoxy-2-naphthalenyl)-2-butanone; 4-(6-Methoxy-2-naphthyl)-2-butanone; Nabumeton; Nabumetona; Nabum√©tone; Nabumetone; Nabumetonum

$$$$
