
 OpenBabel10282417103D

 26 27  0  0  1  0  0  0  0  0999 V2000
   -0.7130    0.0197   -0.2907 N   0  0  0  0  0  0  0  0  0  0  0  0
   -0.0006   -1.1639    0.2440 C   0  0  2  0  0  0  0  0  0  0  0  0
   -0.2400   -1.4763    1.7189 C   0  0  0  0  0  0  0  0  0  0  0  0
    0.5628   -1.6781    4.0112 N   0  0  0  0  0  0  0  0  0  0  0  0
    0.7526   -1.4169    2.6928 C   0  0  0  0  0  0  0  0  0  0  0  0
    0.0321    1.1852    0.1718 C   0  0  0  0  0  0  0  0  0  0  0  0
   -2.1356    0.1252   -0.0273 C   0  0  0  0  0  0  0  0  0  0  0  0
    1.4434   -0.7637   -0.1244 C   0  0  0  0  0  0  0  0  0  0  0  0
    1.4774    0.7644   -0.0414 C   0  0  0  0  0  0  0  0  0  0  0  0
   -1.5103   -1.8628    2.1726 C   0  0  0  0  0  0  0  0  0  0  0  0
   -0.6883   -1.9862    4.3953 C   0  0  0  0  0  0  0  0  0  0  0  0
   -1.7555   -2.0707    3.5277 C   0  0  0  0  0  0  0  0  0  0  0  0
   -0.2663   -2.0591   -0.3335 H   0  0  0  0  0  0  0  0  0  0  0  0
    1.7778   -1.1460    2.4696 H   0  0  0  0  0  0  0  0  0  0  0  0
   -0.2131    2.0898   -0.3934 H   0  0  0  0  0  0  0  0  0  0  0  0
   -0.1532    1.3829    1.2351 H   0  0  0  0  0  0  0  0  0  0  0  0
   -2.3592    0.2712    1.0343 H   0  0  0  0  0  0  0  0  0  0  0  0
   -2.5733    0.9802   -0.5516 H   0  0  0  0  0  0  0  0  0  0  0  0
   -2.6600   -0.7654   -0.3913 H   0  0  0  0  0  0  0  0  0  0  0  0
    2.2280   -1.2218    0.4832 H   0  0  0  0  0  0  0  0  0  0  0  0
    1.6639   -1.0621   -1.1580 H   0  0  0  0  0  0  0  0  0  0  0  0
    2.1119    1.1152    0.7788 H   0  0  0  0  0  0  0  0  0  0  0  0
    1.8733    1.1768   -0.9766 H   0  0  0  0  0  0  0  0  0  0  0  0
   -2.3423   -1.9720    1.4840 H   0  0  0  0  0  0  0  0  0  0  0  0
   -0.8147   -2.1751    5.4577 H   0  0  0  0  0  0  0  0  0  0  0  0
   -2.7540   -2.2900    3.8838 H   0  0  0  0  0  0  0  0  0  0  0  0
  2  1  1  0  0  0  0
  2  3  1  0  0  0  0
  2 13  1  6  0  0  0
  5  3  2  0  0  0  0
  5  4  1  0  0  0  0
  5 14  1  0  0  0  0
  6  1  1  0  0  0  0
  6 15  1  0  0  0  0
  6 16  1  0  0  0  0
  7  1  1  0  0  0  0
  7 17  1  0  0  0  0
  7 18  1  0  0  0  0
  7 19  1  0  0  0  0
  8  2  1  0  0  0  0
  8 20  1  0  0  0  0
  8 21  1  0  0  0  0
  9  6  1  0  0  0  0
  9  8  1  0  0  0  0
  9 22  1  0  0  0  0
  9 23  1  0  0  0  0
 10  3  1  0  0  0  0
 10 24  1  0  0  0  0
 11  4  2  0  0  0  0
 11 25  1  0  0  0  0
 12 10  2  0  0  0  0
 12 11  1  0  0  0  0
 12 26  1  0  0  0  0
M  END
>  <DRUGBANK_ID>
DB00184

>  <SECONDARY_ACCESSION_NUMBERS>
APRD00200; EXPT02315; DB09463; DB11303

>  <COMMON_NAME>
Nicotine

>  <CAS_NUMBER>
54-11-5

>  <UNII>
6M3C89ZY6R

>  <SYNONYMS>
(−)-nicotine; (S)-(−)-nicotine; (S)-3-(1-methylpyrrolidin-2-yl)pyridine; (S)-3-(N-methylpyrrolidin-2-yl)pyridine; (S)-Nicotine; 3-(2-(N-methylpyrrolidinyl))pyridine; 3-(N-methylpyrollidino)pyridine; L(−)-nicotine; Nicotina; Nicotine; Nicotine betadex; Nicotine polacrilex; Nikotin; Nikotyna

$$$$
