
 OpenBabel10282417153D

 44 46  0  0  0  0  0  0  0  0999 V2000
   -1.0921   -0.0204   -0.0431 S   0  0  0  0  0  0  0  0  0  0  0  0
    0.4676   -5.3879    2.2347 O   0  0  0  0  0  0  0  0  0  0  0  0
   -0.7122   -6.7089   -0.0593 O   0  0  0  0  0  0  0  0  0  0  0  0
    3.0220    4.3382    3.0356 O   0  0  0  0  0  0  0  0  0  0  0  0
    4.9561    5.0731    2.1158 O   0  0  0  0  0  0  0  0  0  0  0  0
    1.4208   -0.5904   -0.0460 N   0  0  0  0  0  0  0  0  0  0  0  0
    2.6256    2.5661    1.0377 N   0  0  0  0  0  0  0  0  0  0  0  0
   -0.0649   -2.5698   -0.0909 C   0  0  0  0  0  0  0  0  0  0  0  0
    0.0992   -4.6768    1.1307 C   0  0  0  0  0  0  0  0  0  0  0  0
    0.3198   -3.3015    1.0306 C   0  0  0  0  0  0  0  0  0  0  0  0
   -0.5371   -5.3521    0.0771 C   0  0  0  0  0  0  0  0  0  0  0  0
    0.2188   -1.1332   -0.1061 C   0  0  0  0  0  0  0  0  0  0  0  0
   -0.7499   -3.2292   -1.1116 C   0  0  0  0  0  0  0  0  0  0  0  0
   -1.0219   -4.6016   -1.0054 C   0  0  0  0  0  0  0  0  0  0  0  0
    1.3137    0.7959    0.0284 C   0  0  0  0  0  0  0  0  0  0  0  0
    2.4840    1.6678    0.0153 C   0  0  0  0  0  0  0  0  0  0  0  0
    0.0222    1.2801    0.0273 C   0  0  0  0  0  0  0  0  0  0  0  0
    1.3475   -4.8335    3.2053 C   0  0  0  0  0  0  0  0  0  0  0  0
   -0.0919   -7.5939    0.8825 C   0  0  0  0  0  0  0  0  0  0  0  0
    3.3860    1.5472   -1.0447 C   0  0  0  0  0  0  0  0  0  0  0  0
    3.7531    3.3366    0.9866 C   0  0  0  0  0  0  0  0  0  0  0  0
    2.7097   -4.3839    2.6798 C   0  0  0  0  0  0  0  0  0  0  0  0
    4.5101    2.3632   -1.0674 C   0  0  0  0  0  0  0  0  0  0  0  0
    1.4381   -7.5722    0.8458 C   0  0  0  0  0  0  0  0  0  0  0  0
    4.7043    3.2654   -0.0304 C   0  0  0  0  0  0  0  0  0  0  0  0
    3.9814    4.3279    2.0851 C   0  0  0  0  0  0  0  0  0  0  0  0
    2.3264    3.6713    2.8543 H   0  0  0  0  0  0  0  0  0  0  0  0
    0.8059   -2.7574    1.8321 H   0  0  0  0  0  0  0  0  0  0  0  0
   -1.0713   -2.6861   -1.9962 H   0  0  0  0  0  0  0  0  0  0  0  0
   -1.6122   -5.0897   -1.7789 H   0  0  0  0  0  0  0  0  0  0  0  0
   -0.3156    2.3055    0.0399 H   0  0  0  0  0  0  0  0  0  0  0  0
    0.8204   -4.0450    3.7484 H   0  0  0  0  0  0  0  0  0  0  0  0
    1.5304   -5.6411    3.9246 H   0  0  0  0  0  0  0  0  0  0  0  0
   -0.5133   -7.4327    1.8819 H   0  0  0  0  0  0  0  0  0  0  0  0
   -0.4034   -8.6115    0.6155 H   0  0  0  0  0  0  0  0  0  0  0  0
    3.2129    0.8337   -1.8469 H   0  0  0  0  0  0  0  0  0  0  0  0
    2.6575   -3.6388    1.8837 H   0  0  0  0  0  0  0  0  0  0  0  0
    3.2867   -3.9398    3.4940 H   0  0  0  0  0  0  0  0  0  0  0  0
    3.2696   -5.2204    2.2534 H   0  0  0  0  0  0  0  0  0  0  0  0
    5.2294    2.2945   -1.8798 H   0  0  0  0  0  0  0  0  0  0  0  0
    1.8740   -6.5798    0.9597 H   0  0  0  0  0  0  0  0  0  0  0  0
    1.8491   -8.1962    1.6448 H   0  0  0  0  0  0  0  0  0  0  0  0
    1.8101   -7.9098   -0.1229 H   0  0  0  0  0  0  0  0  0  0  0  0
    5.5823    3.9055   -0.0158 H   0  0  0  0  0  0  0  0  0  0  0  0
  1 12  1  0  0  0  0
  1 17  1  0  0  0  0
  2  9  1  0  0  0  0
  2 18  1  0  0  0  0
  3 11  1  0  0  0  0
  3 19  1  0  0  0  0
  4 26  1  0  0  0  0
  4 27  1  0  0  0  0
  5 26  2  0  0  0  0
  6 12  2  0  0  0  0
  6 15  1  0  0  0  0
  7 16  2  0  0  0  0
  7 21  1  0  0  0  0
  8 10  2  0  0  0  0
  8 12  1  0  0  0  0
  8 13  1  0  0  0  0
  9 10  1  0  0  0  0
  9 11  2  0  0  0  0
 10 28  1  0  0  0  0
 11 14  1  0  0  0  0
 13 14  2  0  0  0  0
 13 29  1  0  0  0  0
 14 30  1  0  0  0  0
 15 16  1  0  0  0  0
 15 17  2  0  0  0  0
 16 20  1  0  0  0  0
 17 31  1  0  0  0  0
 18 22  1  0  0  0  0
 18 32  1  0  0  0  0
 18 33  1  0  0  0  0
 19 24  1  0  0  0  0
 19 34  1  0  0  0  0
 19 35  1  0  0  0  0
 20 23  2  0  0  0  0
 20 36  1  0  0  0  0
 21 25  2  0  0  0  0
 21 26  1  0  0  0  0
 22 37  1  0  0  0  0
 22 38  1  0  0  0  0
 22 39  1  0  0  0  0
 23 25  1  0  0  0  0
 23 40  1  0  0  0  0
 24 41  1  0  0  0  0
 24 42  1  0  0  0  0
 24 43  1  0  0  0  0
 25 44  1  0  0  0  0
M  END
>  <DRUGBANK_ID>
DB05298

>  <SECONDARY_ACCESSION_NUMBERS>
DB12166

>  <COMMON_NAME>
Tetomilast

>  <CAS_NUMBER>
145739-56-6

>  <UNII>
S6RXB5KF56

>  <SYNONYMS>
Tetomilast

$$$$
