
 OpenBabel10282417133D

 26 27  0  0  0  0  0  0  0  0999 V2000
    0.9609   -0.0904    0.0200 O   0  0  0  0  0  0  0  0  0  0  0  0
    0.3859    0.6633   -0.9418 C   0  0  0  0  0  0  0  0  0  0  0  0
    1.0812    1.2643   -1.7505 O   0  0  0  0  0  0  0  0  0  0  0  0
   -1.1461    0.6620   -0.9076 C   0  0  1  0  0  0  0  0  0  0  0  0
   -1.6610   -0.7103   -1.1321 N   0  0  0  0  0  0  0  0  0  0  0  0
   -1.6586    1.2330    0.4237 C   0  0  0  0  0  0  0  0  0  0  0  0
   -1.2022    2.6415    0.6539 C   0  0  0  0  0  0  0  0  0  0  0  0
    0.0303    3.0212    1.1596 C   0  0  0  0  0  0  0  0  0  0  0  0
    0.0955    4.3884    1.1584 N   0  0  0  0  0  0  0  0  0  0  0  0
   -1.0849    4.9059    0.7064 C   0  0  0  0  0  0  0  0  0  0  0  0
   -1.9255    3.8439    0.3874 C   0  0  0  0  0  0  0  0  0  0  0  0
   -3.2073    4.1626   -0.0906 C   0  0  0  0  0  0  0  0  0  0  0  0
   -3.5436    5.5129   -0.1903 C   0  0  0  0  0  0  0  0  0  0  0  0
   -2.5997    6.4708    0.1580 C   0  0  0  0  0  0  0  0  0  0  0  0
   -1.3494    6.2214    0.6087 N   0  0  0  0  0  0  0  0  0  0  0  0
    1.9231    0.0100   -0.1243 H   0  0  0  0  0  0  0  0  0  0  0  0
   -1.4926    1.2932   -1.7359 H   0  0  0  0  0  0  0  0  0  0  0  0
   -2.6782   -0.6871   -1.1668 H   0  0  0  0  0  0  0  0  0  0  0  0
   -1.3444   -1.0348   -2.0455 H   0  0  0  0  0  0  0  0  0  0  0  0
   -2.7564    1.2050    0.4338 H   0  0  0  0  0  0  0  0  0  0  0  0
   -1.3298    0.6081    1.2642 H   0  0  0  0  0  0  0  0  0  0  0  0
    0.8726    2.4295    1.4942 H   0  0  0  0  0  0  0  0  0  0  0  0
    0.8795    4.9516    1.4522 H   0  0  0  0  0  0  0  0  0  0  0  0
   -3.9202    3.3899   -0.3557 H   0  0  0  0  0  0  0  0  0  0  0  0
   -4.5291    5.8123   -0.5297 H   0  0  0  0  0  0  0  0  0  0  0  0
   -2.8455    7.5274    0.0807 H   0  0  0  0  0  0  0  0  0  0  0  0
  1 16  1  0  0  0  0
  2  1  1  0  0  0  0
  2  3  2  0  0  0  0
  4  2  1  0  0  0  0
  4  5  1  0  0  0  0
  4  6  1  0  0  0  0
  4 17  1  6  0  0  0
  5 18  1  0  0  0  0
  5 19  1  0  0  0  0
  6  7  1  0  0  0  0
  6 20  1  0  0  0  0
  6 21  1  0  0  0  0
  7  8  2  0  0  0  0
  7 11  1  0  0  0  0
  8  9  1  0  0  0  0
  8 22  1  0  0  0  0
  9 23  1  0  0  0  0
 10  9  1  0  0  0  0
 10 15  2  0  0  0  0
 11 10  1  0  0  0  0
 11 12  2  0  0  0  0
 12 13  1  0  0  0  0
 12 24  1  0  0  0  0
 13 14  2  0  0  0  0
 13 25  1  0  0  0  0
 14 26  1  0  0  0  0
 15 14  1  0  0  0  0
M  END
>  <DRUGBANK_ID>
DB04206

>  <SECONDARY_ACCESSION_NUMBERS>
EXPT03111

>  <COMMON_NAME>
7-Aza-L-tryptophan

>  <CAS_NUMBER>
49758-35-2

>  <UNII>
72B59WRT3H

>  <SYNONYMS>
L-7-azatryptophan

$$$$
