
 OpenBabel10282417213D

 42 45  0  0  0  0  0  0  0  0999 V2000
   -1.0064    0.4586   -0.2366 C   0  0  2  0  0  0  0  0  0  0  0  0
    0.6361    0.4614    0.0654 C   0  0  0  0  0  0  0  0  0  0  0  0
   -0.6700   -1.9595   -0.4009 C   0  0  1  0  0  0  0  0  0  0  0  0
   -1.6983   -0.8961   -0.0862 C   0  0  1  0  0  0  0  0  0  0  0  0
   -0.1925   -1.4865   -1.7742 N   0  0  0  0  0  0  0  0  0  0  0  0
    1.4197   -0.7340    0.2215 C   0  0  0  0  0  0  0  0  0  0  0  0
    0.7664   -2.0714    0.1922 C   0  0  0  0  0  0  0  0  0  0  0  0
   -1.4835    0.5994   -1.7190 C   0  0  0  0  0  0  0  0  0  0  0  0
   -0.3679   -0.0682   -2.4183 C   0  0  0  0  0  0  0  0  0  0  0  0
    1.4210    1.6221   -0.0538 C   0  0  0  0  0  0  0  0  0  0  0  0
    2.8231   -0.7574    0.2317 C   0  0  0  0  0  0  0  0  0  0  0  0
    2.8144    1.6019   -0.0343 C   0  0  0  0  0  0  0  0  0  0  0  0
   -1.5594    1.6085    0.5744 C   0  0  0  0  0  0  0  0  0  0  0  0
    3.5569    0.4127    0.0991 C   0  0  0  0  0  0  0  0  0  0  0  0
   -0.4500   -2.5601   -2.6986 C   0  0  0  0  0  0  0  0  0  0  0  0
   -3.0812   -0.8940    0.5872 C   0  0  0  0  0  0  0  0  0  0  0  0
    3.4979    2.7812   -0.1895 O   0  0  0  0  0  0  0  0  0  0  0  0
   -3.0629    1.7287    0.4956 C   0  0  0  0  0  0  0  0  0  0  0  0
   -3.8322    0.4246    0.2734 C   0  0  0  0  0  0  0  0  0  0  0  0
   -2.2437   -1.2746   -0.9703 H   0  0  0  0  0  0  0  0  0  0  0  0
   -0.9059   -2.2729    0.6391 H   0  0  0  0  0  0  0  0  0  0  0  0
    0.8187   -2.5100    1.2076 H   0  0  0  0  0  0  0  0  0  0  0  0
    1.3334   -2.8025   -0.4119 H   0  0  0  0  0  0  0  0  0  0  0  0
   -2.3162   -0.0370   -2.0901 H   0  0  0  0  0  0  0  0  0  0  0  0
   -1.9869    1.5367   -1.9712 H   0  0  0  0  0  0  0  0  0  0  0  0
   -0.5894   -0.0472   -3.4928 H   0  0  0  0  0  0  0  0  0  0  0  0
    0.4635    0.6496   -2.3090 H   0  0  0  0  0  0  0  0  0  0  0  0
    0.9469    2.5909   -0.2470 H   0  0  0  0  0  0  0  0  0  0  0  0
    3.3668   -1.7098    0.2653 H   0  0  0  0  0  0  0  0  0  0  0  0
   -1.1393    2.5362    0.1610 H   0  0  0  0  0  0  0  0  0  0  0  0
   -1.2132    1.5709    1.6145 H   0  0  0  0  0  0  0  0  0  0  0  0
    4.6250    0.3792    0.0677 H   0  0  0  0  0  0  0  0  0  0  0  0
   -0.9689   -2.2257   -3.5960 H   0  0  0  0  0  0  0  0  0  0  0  0
    0.5078   -3.0240   -2.9330 H   0  0  0  0  0  0  0  0  0  0  0  0
   -1.0773   -3.3287   -2.2329 H   0  0  0  0  0  0  0  0  0  0  0  0
   -3.0403   -1.1161    1.6494 H   0  0  0  0  0  0  0  0  0  0  0  0
   -3.7072   -1.6920    0.1350 H   0  0  0  0  0  0  0  0  0  0  0  0
    4.4391    2.6088   -0.1216 H   0  0  0  0  0  0  0  0  0  0  0  0
   -3.2870    2.4133   -0.3358 H   0  0  0  0  0  0  0  0  0  0  0  0
   -3.4156    2.2403    1.3931 H   0  0  0  0  0  0  0  0  0  0  0  0
   -4.7686    0.4615    0.8345 H   0  0  0  0  0  0  0  0  0  0  0  0
   -4.1488    0.4085   -0.7842 H   0  0  0  0  0  0  0  0  0  0  0  0
  1  2  1  1  0  0  0
  1  8  1  0  0  0  0
  3  4  1  0  0  0  0
  3  5  1  0  0  0  0
  3 21  1  6  0  0  0
  4  1  1  0  0  0  0
  4 20  1  6  0  0  0
  5  9  1  0  0  0  0
  6  2  2  0  0  0  0
  6  7  1  0  0  0  0
  7  3  1  0  0  0  0
  7 22  1  0  0  0  0
  7 23  1  0  0  0  0
  8 24  1  0  0  0  0
  8 25  1  0  0  0  0
  9  8  1  0  0  0  0
  9 26  1  0  0  0  0
  9 27  1  0  0  0  0
 10  2  1  0  0  0  0
 10 28  1  0  0  0  0
 11  6  1  0  0  0  0
 11 14  2  0  0  0  0
 11 29  1  0  0  0  0
 12 10  2  0  0  0  0
 13  1  1  0  0  0  0
 13 30  1  0  0  0  0
 13 31  1  0  0  0  0
 14 12  1  0  0  0  0
 14 32  1  0  0  0  0
 15  5  1  0  0  0  0
 15 33  1  0  0  0  0
 15 34  1  0  0  0  0
 15 35  1  0  0  0  0
 16  4  1  0  0  0  0
 16 19  1  0  0  0  0
 16 36  1  0  0  0  0
 16 37  1  0  0  0  0
 17 12  1  0  0  0  0
 17 38  1  0  0  0  0
 18 13  1  0  0  0  0
 18 39  1  0  0  0  0
 18 40  1  0  0  0  0
 19 18  1  0  0  0  0
 19 41  1  0  0  0  0
 19 42  1  0  0  0  0
M  END
>  <DRUGBANK_ID>
DB14682

>  <COMMON_NAME>
Dextrorphan

>  <CAS_NUMBER>
125-73-5

>  <UNII>
04B7QNO9WS

>  <SYNONYMS>
(+)-dextrorphan; (+)-N-methylmorphinan-3-ol; d-3-hydroxy-N-methylmorphinan; Dextro-dromoran; Dextrorphan; Dextrorphane; Dextrorphanum; Levorphanol D-form

$$$$
