PSN
 OpenBabel10282417133D

 33 34  0  0  0  0  0  0  0  0999 V2000
    1.2796   -0.1640    0.0015 C   0  0  0  0  0  0  0  0  0  0  0  0
    0.4784   -1.3002    0.0066 C   0  0  0  0  0  0  0  0  0  0  0  0
   -0.9083   -1.1652   -0.0438 C   0  0  0  0  0  0  0  0  0  0  0  0
   -1.5050    0.1018   -0.0717 C   0  0  0  0  0  0  0  0  0  0  0  0
   -0.7300    1.2414    0.0692 C   0  0  0  0  0  0  0  0  0  0  0  0
    0.6788    1.1048    0.0266 C   0  0  0  0  0  0  0  0  0  0  0  0
   -2.9373    0.1401   -0.3483 C   0  0  0  0  0  0  0  0  0  0  0  0
   -1.2116    2.4059    0.5860 O   0  0  0  0  0  0  0  0  0  0  0  0
   -2.4913    3.3576    0.4532 P   0  0  1  0  0  0  0  0  0  0  0  0
   -2.4127    4.0565    1.9185 O   0  0  0  0  0  0  0  0  0  0  0  0
   -2.4933    4.3036   -0.7034 O   0  0  0  0  0  0  0  0  0  0  0  0
   -2.3969    3.1607    3.0462 C   0  0  0  0  0  0  0  0  0  0  0  0
   -3.6860    2.4021    3.3338 C   0  0  0  0  0  0  0  0  0  0  0  0
   -3.7312    0.9937    3.3098 C   0  0  0  0  0  0  0  0  0  0  0  0
   -4.9234    0.3091    3.5777 C   0  0  0  0  0  0  0  0  0  0  0  0
   -6.0785    1.0205    3.8932 C   0  0  0  0  0  0  0  0  0  0  0  0
   -6.0446    2.4133    3.9321 C   0  0  0  0  0  0  0  0  0  0  0  0
   -4.8685    3.0997    3.6151 C   0  0  0  0  0  0  0  0  0  0  0  0
   -3.9466    2.7453    0.6976 O   0  0  0  0  0  0  0  0  0  0  0  0
   -3.4380    1.0919   -0.9481 O   0  0  0  0  0  0  0  0  0  0  0  0
    2.3645   -0.2742    0.0197 H   0  0  0  0  0  0  0  0  0  0  0  0
    0.9262   -2.2913    0.0195 H   0  0  0  0  0  0  0  0  0  0  0  0
   -1.5280   -2.0558   -0.0697 H   0  0  0  0  0  0  0  0  0  0  0  0
    1.3343    1.9771    0.0366 H   0  0  0  0  0  0  0  0  0  0  0  0
   -3.5212   -0.7596   -0.1296 H   0  0  0  0  0  0  0  0  0  0  0  0
   -1.5657    2.4514    2.9555 H   0  0  0  0  0  0  0  0  0  0  0  0
   -2.1731    3.7681    3.9277 H   0  0  0  0  0  0  0  0  0  0  0  0
   -2.8466    0.4140    3.0568 H   0  0  0  0  0  0  0  0  0  0  0  0
   -4.9537   -0.7780    3.5459 H   0  0  0  0  0  0  0  0  0  0  0  0
   -7.0079    0.4934    4.0966 H   0  0  0  0  0  0  0  0  0  0  0  0
   -6.9384    2.9674    4.2068 H   0  0  0  0  0  0  0  0  0  0  0  0
   -4.8819    4.1853    3.5619 H   0  0  0  0  0  0  0  0  0  0  0  0
   -4.5810    3.4916    0.6796 H   0  0  0  0  0  0  0  0  0  0  0  0
  1  2  1  0  0  0  0
  1  6  2  0  0  0  0
  1 21  1  0  0  0  0
  2  3  2  0  0  0  0
  2 22  1  0  0  0  0
  3  4  1  0  0  0  0
  3 23  1  0  0  0  0
  4  5  2  0  0  0  0
  4  7  1  0  0  0  0
  5  6  1  0  0  0  0
  5  8  1  0  0  0  0
  6 24  1  0  0  0  0
  7 20  2  0  0  0  0
  7 25  1  0  0  0  0
  9  8  1  0  0  0  0
  9 10  1  0  0  0  0
  9 11  2  6  0  0  0
  9 19  1  0  0  0  0
 10 12  1  0  0  0  0
 12 13  1  0  0  0  0
 12 26  1  0  0  0  0
 12 27  1  0  0  0  0
 13 14  2  0  0  0  0
 13 18  1  0  0  0  0
 14 15  1  0  0  0  0
 14 28  1  0  0  0  0
 15 16  2  0  0  0  0
 15 29  1  0  0  0  0
 16 17  1  0  0  0  0
 16 30  1  0  0  0  0
 17 18  2  0  0  0  0
 17 31  1  0  0  0  0
 18 32  1  0  0  0  0
 19 33  1  0  0  0  0
M  END
>  <DRUGBANK_ID>
DB03078

>  <SECONDARY_ACCESSION_NUMBERS>
EXPT02673

>  <COMMON_NAME>
PASBN

$$$$
