BRK
 OpenBabel10282417163D

 42 44  0  0  0  0  0  0  0  0999 V2000
    0.9259    0.0386    0.0360 C   0  0  0  0  0  0  0  0  0  0  0  0
    0.3295   -0.3836    1.2541 O   0  0  0  0  0  0  0  0  0  0  0  0
    0.7867   -1.5572    1.7786 C   0  0  0  0  0  0  0  0  0  0  0  0
    2.0980   -2.0146    1.6834 C   0  0  0  0  0  0  0  0  0  0  0  0
    2.4843   -3.1621    2.3745 C   0  0  0  0  0  0  0  0  0  0  0  0
   -0.1395   -2.2631    2.5479 C   0  0  0  0  0  0  0  0  0  0  0  0
    0.2573   -3.3729    3.2865 C   0  0  0  0  0  0  0  0  0  0  0  0
    1.5724   -3.8298    3.2021 C   0  0  0  0  0  0  0  0  0  0  0  0
    1.8910   -5.0586    3.9696 C   0  0  0  0  0  0  0  0  0  0  0  0
    1.0242   -5.6537    4.5888 O   0  0  0  0  0  0  0  0  0  0  0  0
    3.2377   -5.6253    3.8406 C   0  0  0  0  0  0  0  0  0  0  0  0
    3.2560   -7.2068    3.1692 S   0  0  0  0  0  0  0  0  0  0  0  0
    4.4585   -5.1130    4.0997 C   0  0  0  0  0  0  0  0  0  0  0  0
    4.6759   -3.8625    4.6090 N   0  0  0  0  0  0  0  0  0  0  0  0
    5.4488   -6.0104    3.7173 N   0  0  0  0  0  0  0  0  0  0  0  0
    5.0295   -7.1897    3.1257 C   0  0  0  0  0  0  0  0  0  0  0  0
    5.7290   -8.1461    2.6038 N   0  0  0  0  0  0  0  0  0  0  0  0
    5.0405   -9.2122    1.9650 C   0  0  0  0  0  0  0  0  0  0  0  0
    4.2573   -8.9860    0.8198 C   0  0  0  0  0  0  0  0  0  0  0  0
    3.5450  -10.0153    0.1993 C   0  0  0  0  0  0  0  0  0  0  0  0
    3.6630  -11.3194    0.6651 C   0  0  0  0  0  0  0  0  0  0  0  0
    3.0329  -12.4079    0.1234 O   0  0  0  0  0  0  0  0  0  0  0  0
    2.1098  -12.1429   -0.9317 C   0  0  0  0  0  0  0  0  0  0  0  0
    4.4761  -11.5674    1.7771 C   0  0  0  0  0  0  0  0  0  0  0  0
    5.1135  -10.5148    2.4569 C   0  0  0  0  0  0  0  0  0  0  0  0
    0.5553    1.0455   -0.1755 H   0  0  0  0  0  0  0  0  0  0  0  0
    0.6106   -0.6236   -0.7749 H   0  0  0  0  0  0  0  0  0  0  0  0
    2.0164    0.1076    0.0818 H   0  0  0  0  0  0  0  0  0  0  0  0
    2.8549   -1.4922    1.1093 H   0  0  0  0  0  0  0  0  0  0  0  0
    3.5142   -3.4865    2.2574 H   0  0  0  0  0  0  0  0  0  0  0  0
   -1.1781   -1.9475    2.5809 H   0  0  0  0  0  0  0  0  0  0  0  0
   -0.4607   -3.8816    3.9276 H   0  0  0  0  0  0  0  0  0  0  0  0
    3.8742   -3.3644    4.9946 H   0  0  0  0  0  0  0  0  0  0  0  0
    5.5824   -3.5990    4.9724 H   0  0  0  0  0  0  0  0  0  0  0  0
    6.4259   -5.7846    3.8195 H   0  0  0  0  0  0  0  0  0  0  0  0
    4.1325   -7.9755    0.4398 H   0  0  0  0  0  0  0  0  0  0  0  0
    2.9158   -9.7571   -0.6449 H   0  0  0  0  0  0  0  0  0  0  0  0
    1.3072  -11.4722   -0.6029 H   0  0  0  0  0  0  0  0  0  0  0  0
    2.6243  -11.7362   -1.8093 H   0  0  0  0  0  0  0  0  0  0  0  0
    1.6464  -13.0886   -1.2286 H   0  0  0  0  0  0  0  0  0  0  0  0
    4.6169  -12.5887    2.1223 H   0  0  0  0  0  0  0  0  0  0  0  0
    5.6541  -10.7169    3.3772 H   0  0  0  0  0  0  0  0  0  0  0  0
  1  2  1  0  0  0  0
  1 26  1  0  0  0  0
  1 27  1  0  0  0  0
  1 28  1  0  0  0  0
  2  3  1  0  0  0  0
  3  4  2  0  0  0  0
  3  6  1  0  0  0  0
  4  5  1  0  0  0  0
  4 29  1  0  0  0  0
  5  8  2  0  0  0  0
  5 30  1  0  0  0  0
  6  7  2  0  0  0  0
  6 31  1  0  0  0  0
  7  8  1  0  0  0  0
  7 32  1  0  0  0  0
  8  9  1  0  0  0  0
  9 10  2  0  0  0  0
  9 11  1  0  0  0  0
 11 12  1  0  0  0  0
 11 13  2  0  0  0  0
 12 16  1  0  0  0  0
 13 14  1  0  0  0  0
 13 15  1  0  0  0  0
 14 33  1  0  0  0  0
 14 34  1  0  0  0  0
 15 16  1  0  0  0  0
 15 35  1  0  0  0  0
 16 17  2  0  0  0  0
 17 18  1  0  0  0  0
 18 19  2  0  0  0  0
 18 25  1  0  0  0  0
 19 20  1  0  0  0  0
 19 36  1  0  0  0  0
 20 21  2  0  0  0  0
 20 37  1  0  0  0  0
 21 22  1  0  0  0  0
 21 24  1  0  0  0  0
 22 23  1  0  0  0  0
 23 38  1  0  0  0  0
 23 39  1  0  0  0  0
 23 40  1  0  0  0  0
 24 25  2  0  0  0  0
 24 41  1  0  0  0  0
 25 42  1  0  0  0  0
M  END
>  <DRUGBANK_ID>
DB07488

>  <COMMON_NAME>
{4-Amino-2-[(4-methoxyphenyl)amino]-1,3-thiazol-5-yl}(4-methoxyphenyl)methanone

>  <CAS_NUMBER>
727685-49-6

$$$$
