P45
 OpenBabel10282417173D

 41 44  0  0  0  0  0  0  0  0999 V2000
    1.5326   -1.0597   -0.0817 N   0  0  0  0  0  0  0  0  0  0  0  0
    2.3022    0.0229   -0.0242 C   0  0  0  0  0  0  0  0  0  0  0  0
    1.5419    1.1992   -0.0068 C   0  0  0  0  0  0  0  0  0  0  0  0
    0.2258    0.7898   -0.0074 C   0  0  0  0  0  0  0  0  0  0  0  0
    0.2695   -0.5785   -0.0228 N   0  0  0  0  0  0  0  0  0  0  0  0
   -0.9650    1.4276    0.0111 N   0  0  0  0  0  0  0  0  0  0  0  0
   -2.0563    0.7079    0.0243 C   0  0  0  0  0  0  0  0  0  0  0  0
   -2.0592   -0.6834    0.0232 N   0  0  0  0  0  0  0  0  0  0  0  0
   -0.9193   -1.3437    0.0111 C   0  0  0  0  0  0  0  0  0  0  0  0
   -0.9029   -2.7371    0.0066 N   0  0  0  0  0  0  0  0  0  0  0  0
    0.2200   -3.5878    0.0375 C   0  0  0  0  0  0  0  0  0  0  0  0
    1.1510   -3.5200    1.0847 C   0  0  0  0  0  0  0  0  0  0  0  0
    2.3503   -4.2344    1.0356 C   0  0  0  0  0  0  0  0  0  0  0  0
    2.6096   -5.0782   -0.0387 C   0  0  0  0  0  0  0  0  0  0  0  0
    1.6694   -5.2055   -1.0599 C   0  0  0  0  0  0  0  0  0  0  0  0
    0.4782   -4.4681   -1.0213 C   0  0  0  0  0  0  0  0  0  0  0  0
   -3.2687    1.3409    0.0527 N   0  0  0  0  0  0  0  0  0  0  0  0
   -3.4631    2.7837    0.0191 C   0  0  0  0  0  0  0  0  0  0  0  0
   -4.2149    3.2583   -1.2146 C   0  0  0  0  0  0  0  0  0  0  0  0
   -4.9034    2.3685   -2.0508 C   0  0  0  0  0  0  0  0  0  0  0  0
   -5.5365    2.8118   -3.2118 C   0  0  0  0  0  0  0  0  0  0  0  0
   -5.5131    4.1609   -3.5440 C   0  0  0  0  0  0  0  0  0  0  0  0
   -4.8724    5.0761   -2.7129 C   0  0  0  0  0  0  0  0  0  0  0  0
   -4.2326    4.6287   -1.5478 C   0  0  0  0  0  0  0  0  0  0  0  0
    2.0359    2.5263    0.0037 C   0  0  0  0  0  0  0  0  0  0  0  0
    2.4970    3.5946    0.0071 N   0  0  0  0  0  0  0  0  0  0  0  0
   -6.2798    4.6846   -4.9918 Cl  0  0  0  0  0  0  0  0  0  0  0  0
    3.3787   -0.1034   -0.0128 H   0  0  0  0  0  0  0  0  0  0  0  0
   -1.7949   -3.2067   -0.0811 H   0  0  0  0  0  0  0  0  0  0  0  0
    0.9878   -2.8296    1.9088 H   0  0  0  0  0  0  0  0  0  0  0  0
    3.0915   -4.0983    1.8182 H   0  0  0  0  0  0  0  0  0  0  0  0
    3.5468   -5.6266   -0.0853 H   0  0  0  0  0  0  0  0  0  0  0  0
    1.8800   -5.8596   -1.9024 H   0  0  0  0  0  0  0  0  0  0  0  0
   -0.2100   -4.5474   -1.8586 H   0  0  0  0  0  0  0  0  0  0  0  0
   -4.0949    0.7619    0.0835 H   0  0  0  0  0  0  0  0  0  0  0  0
   -4.0255    3.0944    0.9084 H   0  0  0  0  0  0  0  0  0  0  0  0
   -2.5016    3.3084    0.0475 H   0  0  0  0  0  0  0  0  0  0  0  0
   -4.9363    1.3066   -1.8302 H   0  0  0  0  0  0  0  0  0  0  0  0
   -6.0300    2.0896   -3.8551 H   0  0  0  0  0  0  0  0  0  0  0  0
   -4.8560    6.1318   -2.9745 H   0  0  0  0  0  0  0  0  0  0  0  0
   -3.7301    5.3610   -0.9160 H   0  0  0  0  0  0  0  0  0  0  0  0
  1  2  2  0  0  0  0
  1  5  1  0  0  0  0
  2  3  1  0  0  0  0
  2 28  1  0  0  0  0
  3 25  1  0  0  0  0
  3  4  2  0  0  0  0
  4  6  1  0  0  0  0
  4  5  1  0  0  0  0
  5  9  1  0  0  0  0
  6  7  2  0  0  0  0
  7 17  1  0  0  0  0
  7  8  1  0  0  0  0
  8  9  2  0  0  0  0
  9 10  1  0  0  0  0
 10 11  1  0  0  0  0
 10 29  1  0  0  0  0
 11 12  2  0  0  0  0
 11 16  1  0  0  0  0
 12 13  1  0  0  0  0
 12 30  1  0  0  0  0
 13 14  2  0  0  0  0
 13 31  1  0  0  0  0
 14 15  1  0  0  0  0
 14 32  1  0  0  0  0
 15 16  2  0  0  0  0
 15 33  1  0  0  0  0
 16 34  1  0  0  0  0
 17 18  1  0  0  0  0
 17 35  1  0  0  0  0
 18 19  1  0  0  0  0
 18 36  1  0  0  0  0
 18 37  1  0  0  0  0
 19 24  1  0  0  0  0
 19 20  2  0  0  0  0
 20 21  1  0  0  0  0
 20 38  1  0  0  0  0
 21 22  2  0  0  0  0
 21 39  1  0  0  0  0
 22 23  1  0  0  0  0
 22 27  1  0  0  0  0
 23 24  2  0  0  0  0
 23 40  1  0  0  0  0
 24 41  1  0  0  0  0
 25 26  3  0  0  0  0
M  END
>  <DRUGBANK_ID>
DB08354

>  <COMMON_NAME>
2-(4-CHLOROBENZYLAMINO)-4-(PHENYLAMINO)PYRAZOLO[1,5-A][1,3,5]TRIAZINE-8-CARBONITRILE

$$$$
