340
 OpenBabel10282417133D

 40 42  0  0  0  0  0  0  0  0999 V2000
   -2.1923    0.6361    0.0855 C   0  0  0  0  0  0  0  0  0  0  0  0
   -0.9658    1.4408   -0.0873 C   0  0  0  0  0  0  0  0  0  0  0  0
    0.2543    0.7043    0.0421 C   0  0  0  0  0  0  0  0  0  0  0  0
    0.2944   -0.6779    0.0960 C   0  0  0  0  0  0  0  0  0  0  0  0
   -0.9061   -1.4921   -0.0364 C   0  0  0  0  0  0  0  0  0  0  0  0
   -2.1946   -0.7126    0.1248 C   0  0  0  0  0  0  0  0  0  0  0  0
    1.5389    1.1864    0.1000 N   0  0  0  0  0  0  0  0  0  0  0  0
    2.4152    0.1249    0.1918 C   0  0  0  0  0  0  0  0  0  0  0  0
    1.6700   -1.0537    0.1651 C   0  0  0  0  0  0  0  0  0  0  0  0
   -0.8907   -2.7021   -0.2470 O   0  0  0  0  0  0  0  0  0  0  0  0
   -1.0595    2.6490   -0.2979 O   0  0  0  0  0  0  0  0  0  0  0  0
    1.8763    2.5960    0.0541 C   0  0  0  0  0  0  0  0  0  0  0  0
    2.2098   -2.4496    0.0295 C   0  0  0  0  0  0  0  0  0  0  0  0
    3.0767   -2.6756   -1.1068 O   0  0  0  0  0  0  0  0  0  0  0  0
    2.5583   -2.4954   -2.3622 C   0  0  0  0  0  0  0  0  0  0  0  0
    1.7954   -1.3970   -2.7552 C   0  0  0  0  0  0  0  0  0  0  0  0
    1.3710   -1.2041   -4.0621 C   0  0  0  0  0  0  0  0  0  0  0  0
    1.7769   -2.0933   -5.0360 C   0  0  0  0  0  0  0  0  0  0  0  0
    2.5990   -3.1658   -4.6863 C   0  0  0  0  0  0  0  0  0  0  0  0
    2.9572   -3.3905   -3.3492 C   0  0  0  0  0  0  0  0  0  0  0  0
    3.8982    0.2656    0.1821 C   0  0  0  0  0  0  0  0  0  0  0  0
   -3.3338   -1.4816    0.3202 O   0  0  0  0  0  0  0  0  0  0  0  0
   -4.5405   -0.7651    0.5561 C   0  0  0  0  0  0  0  0  0  0  0  0
   -3.0816    1.2376    0.1979 H   0  0  0  0  0  0  0  0  0  0  0  0
    1.4992    3.0251   -0.8794 H   0  0  0  0  0  0  0  0  0  0  0  0
    1.4082    3.0788    0.9159 H   0  0  0  0  0  0  0  0  0  0  0  0
    2.9572    2.7303    0.1021 H   0  0  0  0  0  0  0  0  0  0  0  0
    2.8163   -2.6444    0.9244 H   0  0  0  0  0  0  0  0  0  0  0  0
    1.4291   -3.2132    0.0269 H   0  0  0  0  0  0  0  0  0  0  0  0
    1.5307   -0.6017   -2.0893 H   0  0  0  0  0  0  0  0  0  0  0  0
    0.7633   -0.3346   -4.2945 H   0  0  0  0  0  0  0  0  0  0  0  0
    1.4651   -1.9360   -6.0626 H   0  0  0  0  0  0  0  0  0  0  0  0
    2.9744   -3.8215   -5.4652 H   0  0  0  0  0  0  0  0  0  0  0  0
    3.5562   -4.2587   -3.0889 H   0  0  0  0  0  0  0  0  0  0  0  0
    4.2426    0.7870   -0.7168 H   0  0  0  0  0  0  0  0  0  0  0  0
    4.2323    0.8048    1.0713 H   0  0  0  0  0  0  0  0  0  0  0  0
    4.3813   -0.7167    0.1912 H   0  0  0  0  0  0  0  0  0  0  0  0
   -4.4499   -0.1427    1.4541 H   0  0  0  0  0  0  0  0  0  0  0  0
   -4.7970   -0.1542   -0.3161 H   0  0  0  0  0  0  0  0  0  0  0  0
   -5.3488   -1.4801    0.7202 H   0  0  0  0  0  0  0  0  0  0  0  0
  1  2  1  0  0  0  0
  1  6  2  0  0  0  0
  1 24  1  0  0  0  0
  2  3  1  0  0  0  0
  2 11  2  0  0  0  0
  3  4  2  0  0  0  0
  3  7  1  0  0  0  0
  4  5  1  0  0  0  0
  4  9  1  0  0  0  0
  5  6  1  0  0  0  0
  5 10  2  0  0  0  0
  6 22  1  0  0  0  0
  7  8  1  0  0  0  0
  7 12  1  0  0  0  0
  8  9  2  0  0  0  0
  8 21  1  0  0  0  0
  9 13  1  0  0  0  0
 12 25  1  0  0  0  0
 12 26  1  0  0  0  0
 12 27  1  0  0  0  0
 13 14  1  0  0  0  0
 13 28  1  0  0  0  0
 13 29  1  0  0  0  0
 14 15  1  0  0  0  0
 15 16  2  0  0  0  0
 15 20  1  0  0  0  0
 16 17  1  0  0  0  0
 16 30  1  0  0  0  0
 17 18  2  0  0  0  0
 17 31  1  0  0  0  0
 18 19  1  0  0  0  0
 18 32  1  0  0  0  0
 19 20  2  0  0  0  0
 19 33  1  0  0  0  0
 20 34  1  0  0  0  0
 21 35  1  0  0  0  0
 21 36  1  0  0  0  0
 21 37  1  0  0  0  0
 22 23  1  0  0  0  0
 23 38  1  0  0  0  0
 23 39  1  0  0  0  0
 23 40  1  0  0  0  0
M  END
>  <DRUGBANK_ID>
DB03626

>  <SECONDARY_ACCESSION_NUMBERS>
EXPT00154

>  <COMMON_NAME>
5-Methoxy-1,2-Dimethyl-3-(Phenoxymethyl)Indole-4,7-Dione

$$$$
