199
 OpenBabel10282417163D

 55 59  0  0  0  0  0  0  0  0999 V2000
   -0.9407   -1.5182    0.0237 C   0  0  0  0  0  0  0  0  0  0  0  0
   -2.1329   -0.7756    0.0212 C   0  0  0  0  0  0  0  0  0  0  0  0
   -2.0647    0.6241    0.0124 C   0  0  0  0  0  0  0  0  0  0  0  0
   -0.9409    1.3564    0.0092 N   0  0  0  0  0  0  0  0  0  0  0  0
    0.1548    0.5905   -0.0150 C   0  0  0  0  0  0  0  0  0  0  0  0
    1.3980    1.1174   -0.0547 N   0  0  0  0  0  0  0  0  0  0  0  0
    2.2781    0.1108   -0.2971 C   0  0  0  0  0  0  0  0  0  0  0  0
    1.6662   -1.1042   -0.0819 C   0  0  0  0  0  0  0  0  0  0  0  0
    0.2652   -0.8023   -0.0207 C   0  0  0  0  0  0  0  0  0  0  0  0
    2.2867   -2.3522   -0.0238 N   0  0  0  0  0  0  0  0  0  0  0  0
   -5.1292   -2.5448    1.3622 C   0  0  0  0  0  0  0  0  0  0  0  0
   -6.0967   -2.2540    0.3938 C   0  0  0  0  0  0  0  0  0  0  0  0
   -5.7057   -1.5684   -0.7580 C   0  0  0  0  0  0  0  0  0  0  0  0
   -4.3878   -1.1505   -0.9190 C   0  0  0  0  0  0  0  0  0  0  0  0
   -3.4379   -1.4105    0.0760 C   0  0  0  0  0  0  0  0  0  0  0  0
   -3.8025   -2.1704    1.1887 C   0  0  0  0  0  0  0  0  0  0  0  0
    3.6410   -2.6615    0.0215 C   0  0  0  0  0  0  0  0  0  0  0  0
    4.0160   -3.8352   -0.0806 O   0  0  0  0  0  0  0  0  0  0  0  0
    5.3907    0.5088    1.0767 C   0  0  0  0  0  0  0  0  0  0  0  0
    6.3757    0.5298    0.1034 C   0  0  0  0  0  0  0  0  0  0  0  0
    6.5752   -0.4747   -0.7799 N   0  0  0  0  0  0  0  0  0  0  0  0
    5.7135   -1.5257   -0.7246 C   0  0  0  0  0  0  0  0  0  0  0  0
    4.6763   -1.6181    0.1930 C   0  0  0  0  0  0  0  0  0  0  0  0
    4.5779   -0.6217    1.1705 C   0  0  0  0  0  0  0  0  0  0  0  0
   -8.1916   -2.1863    1.6915 C   0  0  0  0  0  0  0  0  0  0  0  0
   -8.9747   -3.3548    2.3242 C   0  0  0  0  0  0  0  0  0  0  0  0
   -9.7910   -4.0645    1.3109 N   0  0  0  0  0  0  0  0  0  0  0  0
   -8.8761   -4.6101    0.2788 C   0  0  0  0  0  0  0  0  0  0  0  0
   -8.0712   -3.4909   -0.4280 C   0  0  0  0  0  0  0  0  0  0  0  0
   -7.3819   -2.6892    0.5812 N   0  0  0  0  0  0  0  0  0  0  0  0
  -10.5789   -5.1223    1.9279 C   0  0  0  0  0  0  0  0  0  0  0  0
   -0.9629   -2.6029    0.0192 H   0  0  0  0  0  0  0  0  0  0  0  0
   -2.9722    1.2265    0.0209 H   0  0  0  0  0  0  0  0  0  0  0  0
    1.6022    2.1048   -0.0338 H   0  0  0  0  0  0  0  0  0  0  0  0
    3.2810    0.3940   -0.5487 H   0  0  0  0  0  0  0  0  0  0  0  0
    1.6830   -3.1684   -0.0414 H   0  0  0  0  0  0  0  0  0  0  0  0
   -5.4114   -3.0877    2.2599 H   0  0  0  0  0  0  0  0  0  0  0  0
   -6.4363   -1.3068   -1.5179 H   0  0  0  0  0  0  0  0  0  0  0  0
   -4.1057   -0.5962   -1.8125 H   0  0  0  0  0  0  0  0  0  0  0  0
   -3.0696   -2.4398    1.9453 H   0  0  0  0  0  0  0  0  0  0  0  0
    5.2001    1.3817    1.6926 H   0  0  0  0  0  0  0  0  0  0  0  0
    7.0328    1.3887   -0.0070 H   0  0  0  0  0  0  0  0  0  0  0  0
    5.8639   -2.2804   -1.4925 H   0  0  0  0  0  0  0  0  0  0  0  0
    3.7563   -0.6348    1.8830 H   0  0  0  0  0  0  0  0  0  0  0  0
   -8.8947   -1.4337    1.3124 H   0  0  0  0  0  0  0  0  0  0  0  0
   -7.5813   -1.7000    2.4617 H   0  0  0  0  0  0  0  0  0  0  0  0
   -9.6151   -2.9580    3.1193 H   0  0  0  0  0  0  0  0  0  0  0  0
   -8.2626   -4.0514    2.7897 H   0  0  0  0  0  0  0  0  0  0  0  0
   -8.1712   -5.3150    0.7437 H   0  0  0  0  0  0  0  0  0  0  0  0
   -9.4427   -5.1652   -0.4764 H   0  0  0  0  0  0  0  0  0  0  0  0
   -8.7431   -2.8568   -1.0175 H   0  0  0  0  0  0  0  0  0  0  0  0
   -7.3566   -3.9604   -1.1159 H   0  0  0  0  0  0  0  0  0  0  0  0
  -11.1941   -5.6258    1.1744 H   0  0  0  0  0  0  0  0  0  0  0  0
   -9.9541   -5.8701    2.4268 H   0  0  0  0  0  0  0  0  0  0  0  0
  -11.2698   -4.6973    2.6644 H   0  0  0  0  0  0  0  0  0  0  0  0
  1  2  2  0  0  0  0
  1  9  1  0  0  0  0
  1 32  1  0  0  0  0
  2  3  1  0  0  0  0
  2 15  1  0  0  0  0
  3  4  2  0  0  0  0
  3 33  1  0  0  0  0
  4  5  1  0  0  0  0
  5  6  1  0  0  0  0
  5  9  2  0  0  0  0
  6  7  1  0  0  0  0
  6 34  1  0  0  0  0
  7  8  2  0  0  0  0
  7 35  1  0  0  0  0
  8  9  1  0  0  0  0
  8 10  1  0  0  0  0
 10 17  1  0  0  0  0
 10 36  1  0  0  0  0
 11 12  1  0  0  0  0
 11 16  2  0  0  0  0
 11 37  1  0  0  0  0
 12 13  2  0  0  0  0
 12 30  1  0  0  0  0
 13 14  1  0  0  0  0
 13 38  1  0  0  0  0
 14 15  2  0  0  0  0
 14 39  1  0  0  0  0
 15 16  1  0  0  0  0
 16 40  1  0  0  0  0
 17 18  2  0  0  0  0
 17 23  1  0  0  0  0
 19 20  1  0  0  0  0
 19 24  2  0  0  0  0
 19 41  1  0  0  0  0
 20 21  2  0  0  0  0
 20 42  1  0  0  0  0
 21 22  1  0  0  0  0
 22 23  2  0  0  0  0
 22 43  1  0  0  0  0
 23 24  1  0  0  0  0
 24 44  1  0  0  0  0
 25 26  1  0  0  0  0
 25 30  1  0  0  0  0
 25 45  1  0  0  0  0
 25 46  1  0  0  0  0
 26 27  1  0  0  0  0
 26 47  1  0  0  0  0
 26 48  1  0  0  0  0
 27 28  1  0  0  0  0
 27 31  1  0  0  0  0
 28 29  1  0  0  0  0
 28 49  1  0  0  0  0
 28 50  1  0  0  0  0
 29 30  1  0  0  0  0
 29 51  1  0  0  0  0
 29 52  1  0  0  0  0
 31 53  1  0  0  0  0
 31 54  1  0  0  0  0
 31 55  1  0  0  0  0
M  END
>  <DRUGBANK_ID>
DB06876

>  <COMMON_NAME>
N-{5-[4-(4-METHYLPIPERAZIN-1-YL)PHENYL]-1H-PYRROLO[2,3-B]PYRIDIN-3-YL}NICOTINAMIDE

$$$$
