
 OpenBabel10282417233D

 79 85  0  0  0  0  0  0  0  0999 V2000
   -1.1409    7.3418   -1.0852 C   0  0  0  0  0  0  0  0  0  0  0  0
   -0.7753    5.8746   -0.9304 C   0  0  0  0  0  0  0  0  0  0  0  0
   -1.6634    4.3705   -1.3019 C   0  0  0  0  0  0  0  0  0  0  0  0
   -0.7955    3.4086   -0.9165 C   0  0  0  0  0  0  0  0  0  0  0  0
   -1.1726    1.9437   -1.0654 C   0  0  0  0  0  0  0  0  0  0  0  0
    0.4510    3.7582   -0.3801 C   0  0  0  0  0  0  0  0  0  0  0  0
    1.4549    2.9318    0.0620 C   0  0  0  0  0  0  0  0  0  0  0  0
    2.5653    3.3970    0.5385 C   0  0  0  0  0  0  0  0  0  0  0  0
    5.4628    7.0487    1.7472 C   0  0  0  0  0  0  0  0  0  0  0  0
    4.2729    6.6242    1.2424 C   0  0  0  0  0  0  0  0  0  0  0  0
    3.9824    5.1365    1.1300 C   0  0  0  0  0  0  0  0  0  0  0  0
    4.2729    6.6242    1.2424 C   0  0  0  0  0  0  0  0  0  0  0  0
    4.2125    7.2579   -0.1378 C   0  0  0  0  0  0  0  0  0  0  0  0
    2.8265    7.0555   -0.7281 C   0  0  0  0  0  0  0  0  0  0  0  0
    2.1153    8.0617   -1.0396 O   0  0  0  0  0  0  0  0  0  0  0  0
    2.3087    5.6959   -0.9386 N   0  0  0  0  0  0  0  0  0  0  0  0
    2.5482    4.8177    0.2128 C   0  0  0  0  0  0  0  0  0  0  0  0
    3.1870    3.5196   -0.2420 C   0  0  0  0  0  0  0  0  0  0  0  0
    2.3365    2.8114   -1.2064 N   0  0  0  0  0  0  0  0  0  0  0  0
    2.0970    3.6896   -2.3578 C   0  0  0  0  0  0  0  0  0  0  0  0
    1.4582    4.9877   -1.9030 C   0  0  0  0  0  0  0  0  0  0  0  0
    1.8115    1.4478   -1.0456 C   0  0  0  0  0  0  0  0  0  0  0  0
    1.0818    0.9369   -1.9520 O   0  0  0  0  0  0  0  0  0  0  0  0
    2.1414    0.6490    0.2048 C   0  0  0  0  0  0  0  0  0  0  0  0
    1.8044    1.0618    1.4394 C   0  0  0  0  0  0  0  0  0  0  0  0
    1.2888    2.3090    1.5815 F   0  0  0  0  0  0  0  0  0  0  0  0
    1.9699    0.3030    2.5473 C   0  0  0  0  0  0  0  0  0  0  0  0
    2.5131   -0.9643    2.4055 C   0  0  0  0  0  0  0  0  0  0  0  0
    2.8573   -1.4386    1.1732 C   0  0  0  0  0  0  0  0  0  0  0  0
    3.4428   -2.8326    1.0174 C   0  0  0  0  0  0  0  0  0  0  0  0
    4.7334   -2.9321    1.8141 C   0  0  0  0  0  0  0  0  0  0  0  0
    4.6695   -2.7328    3.0823 N   0  0  0  0  0  0  0  0  0  0  0  0
    5.8508   -2.7970    3.8139 N   0  0  0  0  0  0  0  0  0  0  0  0
    7.1116   -2.9396    3.2682 C   0  0  0  0  0  0  0  0  0  0  0  0
    8.1234   -2.8750    3.9625 O   0  0  0  0  0  0  0  0  0  0  0  0
    7.1349   -3.2042    1.8272 C   0  0  0  0  0  0  0  0  0  0  0  0
    8.3450   -3.4839    1.1848 C   0  0  0  0  0  0  0  0  0  0  0  0
    8.3623   -3.8307   -0.1406 C   0  0  0  0  0  0  0  0  0  0  0  0
    7.1810   -3.9114   -0.8619 C   0  0  0  0  0  0  0  0  0  0  0  0
    5.9720   -3.6097   -0.2602 C   0  0  0  0  0  0  0  0  0  0  0  0
    5.9496   -3.2468    1.0898 C   0  0  0  0  0  0  0  0  0  0  0  0
    2.6640   -0.6272    0.0653 C   0  0  0  0  0  0  0  0  0  0  0  0
    2.8317    4.7259    0.6419 N   0  3  0  0  0  0  0  0  0  0  0  0
    1.9017    5.6232    0.2377 B   0  5  0  0  0  0  0  0  0  0  0  0
    1.5242    6.2924    1.4200 F   0  0  0  0  0  0  0  0  0  0  0  0
    2.4978    6.4235   -0.7584 F   0  0  0  0  0  0  0  0  0  0  0  0
    0.7026    5.1386   -0.2836 N   0  0  0  0  0  0  0  0  0  0  0  0
   -2.1852    7.4715   -0.8912 H   0  0  0  0  0  0  0  0  0  0  0  0
   -0.9211    7.6609   -2.0826 H   0  0  0  0  0  0  0  0  0  0  0  0
   -0.5739    7.9258   -0.3907 H   0  0  0  0  0  0  0  0  0  0  0  0
   -2.6400    4.2585   -1.7245 H   0  0  0  0  0  0  0  0  0  0  0  0
   -2.0540    1.7423   -0.4930 H   0  0  0  0  0  0  0  0  0  0  0  0
   -1.3595    1.7266   -2.0964 H   0  0  0  0  0  0  0  0  0  0  0  0
   -0.3699    1.3310   -0.7117 H   0  0  0  0  0  0  0  0  0  0  0  0
    1.3153    1.8721    0.0112 H   0  0  0  0  0  0  0  0  0  0  0  0
    6.1941    6.3353    2.0650 H   0  0  0  0  0  0  0  0  0  0  0  0
    3.5415    7.3376    0.9245 H   0  0  0  0  0  0  0  0  0  0  0  0
    3.5442    7.0829    1.8777 H   0  0  0  0  0  0  0  0  0  0  0  0
    5.2486    6.7667    1.6579 H   0  0  0  0  0  0  0  0  0  0  0  0
    4.4170    8.3052   -0.0587 H   0  0  0  0  0  0  0  0  0  0  0  0
    4.9412    6.7993   -0.7731 H   0  0  0  0  0  0  0  0  0  0  0  0
    3.2077    5.3105    0.8963 H   0  0  0  0  0  0  0  0  0  0  0  0
    1.6167    4.6036    0.6938 H   0  0  0  0  0  0  0  0  0  0  0  0
    4.1159    3.7515   -0.7198 H   0  0  0  0  0  0  0  0  0  0  0  0
    3.3438    2.8918    0.6102 H   0  0  0  0  0  0  0  0  0  0  0  0
    3.0317    3.9076   -2.8308 H   0  0  0  0  0  0  0  0  0  0  0  0
    1.4441    3.1973   -3.0480 H   0  0  0  0  0  0  0  0  0  0  0  0
    0.5293    4.7558   -1.4252 H   0  0  0  0  0  0  0  0  0  0  0  0
    1.3014    5.6155   -2.7552 H   0  0  0  0  0  0  0  0  0  0  0  0
    1.6879    0.6728    3.5110 H   0  0  0  0  0  0  0  0  0  0  0  0
    2.6639   -1.5763    3.2702 H   0  0  0  0  0  0  0  0  0  0  0  0
    2.7429   -3.5560    1.3804 H   0  0  0  0  0  0  0  0  0  0  0  0
    3.6462   -3.0206   -0.0161 H   0  0  0  0  0  0  0  0  0  0  0  0
    5.7807   -2.7340    4.8296 H   0  0  0  0  0  0  0  0  0  0  0  0
    9.2630   -3.4269    1.7316 H   0  0  0  0  0  0  0  0  0  0  0  0
    9.2942   -4.0408   -0.6225 H   0  0  0  0  0  0  0  0  0  0  0  0
    7.2044   -4.2085   -1.8895 H   0  0  0  0  0  0  0  0  0  0  0  0
    5.0628   -3.6538   -0.8228 H   0  0  0  0  0  0  0  0  0  0  0  0
    2.9210   -0.9902   -0.9078 H   0  0  0  0  0  0  0  0  0  0  0  0
  1  2  1  0  0  0  0
  1 48  1  0  0  0  0
  1 49  1  0  0  0  0
  1 50  1  0  0  0  0
  2  3  2  0  0  0  0
  2 47  1  0  0  0  0
  3  4  1  0  0  0  0
  3 51  1  0  0  0  0
  4  5  1  0  0  0  0
  4  6  2  0  0  0  0
  5 52  1  0  0  0  0
  5 53  1  0  0  0  0
  5 54  1  0  0  0  0
  6  7  1  0  0  0  0
  6 47  1  0  0  0  0
  7  8  2  0  0  0  0
  7 55  1  0  0  0  0
  8  9  1  0  0  0  0
  8 43  1  0  0  0  0
  9 10  2  0  0  0  0
  9 56  1  0  0  0  0
 10 11  1  0  0  0  0
 10 57  1  0  0  0  0
 11 12  1  0  0  0  0
 11 43  2  0  0  0  0
 12 13  1  0  0  0  0
 12 58  1  0  0  0  0
 12 59  1  0  0  0  0
 13 14  1  0  0  0  0
 13 60  1  0  0  0  0
 13 61  1  0  0  0  0
 14 15  2  0  0  0  0
 14 16  1  0  0  0  0
 16 17  1  0  0  0  0
 16 21  1  0  0  0  0
 17 18  1  0  0  0  0
 17 62  1  0  0  0  0
 17 63  1  0  0  0  0
 18 19  1  0  0  0  0
 18 64  1  0  0  0  0
 18 65  1  0  0  0  0
 19 20  1  0  0  0  0
 19 22  1  0  0  0  0
 20 21  1  0  0  0  0
 20 66  1  0  0  0  0
 20 67  1  0  0  0  0
 21 68  1  0  0  0  0
 21 69  1  0  0  0  0
 22 23  2  0  0  0  0
 22 24  1  0  0  0  0
 24 25  2  0  0  0  0
 24 42  1  0  0  0  0
 25 26  1  0  0  0  0
 25 27  1  0  0  0  0
 27 28  2  0  0  0  0
 27 70  1  0  0  0  0
 28 29  1  0  0  0  0
 28 71  1  0  0  0  0
 29 30  1  0  0  0  0
 29 42  2  0  0  0  0
 30 31  1  0  0  0  0
 30 72  1  0  0  0  0
 30 73  1  0  0  0  0
 31 32  2  0  0  0  0
 31 41  1  0  0  0  0
 32 33  1  0  0  0  0
 33 34  1  0  0  0  0
 33 74  1  0  0  0  0
 34 35  2  0  0  0  0
 34 36  1  0  0  0  0
 36 37  2  0  0  0  0
 36 41  1  0  0  0  0
 37 38  1  0  0  0  0
 37 75  1  0  0  0  0
 38 39  2  0  0  0  0
 38 76  1  0  0  0  0
 39 40  1  0  0  0  0
 39 77  1  0  0  0  0
 40 41  2  0  0  0  0
 40 78  1  0  0  0  0
 42 79  1  0  0  0  0
 43 44  1  0  0  0  0
 44 45  1  0  0  0  0
 44 46  1  0  0  0  0
 44 47  1  0  0  0  0
M  CHG  2  43   1  44  -1
M  END
>  <DRUGBANK_ID>
DB16263

>  <COMMON_NAME>
Olaparib-bodipy FL

>  <CAS_NUMBER>
1380359-84-1

>  <UNII>
ZMX54372EH

>  <SYNONYMS>
Olaparib-bodipy fl; PARPi-FL

$$$$
