
 OpenBabel10282417123D

 39 41  0  0  0  0  0  0  0  0999 V2000
    0.9969    0.0584    0.1458 C   0  0  0  0  0  0  0  0  0  0  0  0
    0.3707    0.9486    1.5929 S   0  0  0  0  0  0  0  0  0  0  0  0
    0.9947   -0.1017    2.9603 C   0  0  0  0  0  0  0  0  0  0  0  0
    0.4768   -1.5527    2.9364 C   0  0  1  0  0  0  0  0  0  0  0  0
    1.4686   -2.5553    2.4900 N   0  0  0  0  0  0  0  0  0  0  0  0
    0.1221   -3.5272    4.2528 C   0  0  2  0  0  0  0  0  0  0  0  0
   -1.0314   -4.0806    3.5954 O   0  0  0  0  0  0  0  0  0  0  0  0
   -0.0094   -2.0054    4.3218 C   0  0  2  0  0  0  0  0  0  0  0  0
   -1.3378   -1.5669    4.5818 O   0  0  0  0  0  0  0  0  0  0  0  0
    1.4001   -3.7229    3.4108 C   0  0  2  0  0  0  0  0  0  0  0  0
    2.6510   -3.7688    4.2401 C   0  0  0  0  0  0  0  0  0  0  0  0
    3.1175   -2.8135    5.1389 C   0  0  0  0  0  0  0  0  0  0  0  0
    4.2852   -3.2585    5.7072 N   0  0  0  0  0  0  0  0  0  0  0  0
    4.5743   -4.4886    5.1984 C   0  0  0  0  0  0  0  0  0  0  0  0
    5.7192   -5.3588    5.5273 C   0  0  3  0  0  0  0  0  0  0  0  0
    5.6009   -5.7706    6.9107 N   0  0  0  0  0  0  0  0  0  0  0  0
    5.7699   -6.4335    4.5754 N   0  0  0  0  0  0  0  0  0  0  0  0
    4.6756   -6.7205    3.7953 C   0  0  0  0  0  0  0  0  0  0  0  0
    3.5999   -6.0170    3.5813 N   0  0  0  0  0  0  0  0  0  0  0  0
    3.6035   -4.8128    4.2883 C   0  0  0  0  0  0  0  0  0  0  0  0
    0.6581    0.5900   -0.7492 H   0  0  0  0  0  0  0  0  0  0  0  0
    0.6052   -0.9598    0.0932 H   0  0  0  0  0  0  0  0  0  0  0  0
    2.0892    0.0450    0.1400 H   0  0  0  0  0  0  0  0  0  0  0  0
    2.0895   -0.0549    2.9756 H   0  0  0  0  0  0  0  0  0  0  0  0
    0.6595    0.3965    3.8773 H   0  0  0  0  0  0  0  0  0  0  0  0
   -0.3753   -1.6194    2.2489 H   0  0  0  0  0  0  0  0  0  0  0  0
    2.4197   -2.1863    2.5066 H   0  0  0  0  0  0  0  0  0  0  0  0
    0.1846   -3.9755    5.2509 H   0  0  0  0  0  0  0  0  0  0  0  0
   -0.9425   -3.8745    2.6475 H   0  0  0  0  0  0  0  0  0  0  0  0
    0.6221   -1.6058    5.1189 H   0  0  0  0  0  0  0  0  0  0  0  0
   -1.9108   -1.9898    3.9153 H   0  0  0  0  0  0  0  0  0  0  0  0
    1.3223   -4.6321    2.8026 H   0  0  0  0  0  0  0  0  0  0  0  0
    2.7166   -1.8563    5.4376 H   0  0  0  0  0  0  0  0  0  0  0  0
    4.8175   -2.7570    6.4080 H   0  0  0  0  0  0  0  0  0  0  0  0
    6.6427   -4.7787    5.4182 H   0  0  0  0  0  0  0  0  0  0  0  0
    5.4937   -4.9494    7.4975 H   0  0  0  0  0  0  0  0  0  0  0  0
    4.7101   -6.2650    6.9748 H   0  0  0  0  0  0  0  0  0  0  0  0
    6.3929   -7.1862    4.8369 H   0  0  0  0  0  0  0  0  0  0  0  0
    4.7742   -7.6986    3.2957 H   0  0  0  0  0  0  0  0  0  0  0  0
  1  2  1  0  0  0  0
  1 21  1  0  0  0  0
  1 22  1  0  0  0  0
  1 23  1  0  0  0  0
  2  3  1  0  0  0  0
  3 24  1  0  0  0  0
  3 25  1  0  0  0  0
  4  3  1  0  0  0  0
  4  5  1  0  0  0  0
  4  8  1  0  0  0  0
  4 26  1  6  0  0  0
  5 10  1  0  0  0  0
  5 27  1  0  0  0  0
  6  7  1  0  0  0  0
  6  8  1  0  0  0  0
  6 10  1  0  0  0  0
  6 28  1  1  0  0  0
  7 29  1  0  0  0  0
  8  9  1  0  0  0  0
  8 30  1  1  0  0  0
  9 31  1  0  0  0  0
 10 32  1  6  0  0  0
 10 11  1  0  0  0  0
 11 12  2  0  0  0  0
 11 20  1  0  0  0  0
 12 13  1  0  0  0  0
 12 33  1  0  0  0  0
 13 14  1  0  0  0  0
 13 34  1  0  0  0  0
 14 15  1  0  0  0  0
 14 20  2  0  0  0  0
 15 16  1  0  0  0  0
 15 17  1  0  0  0  0
 15 35  1  0  0  0  0
 16 36  1  0  0  0  0
 16 37  1  0  0  0  0
 17 18  1  0  0  0  0
 17 38  1  0  0  0  0
 18 19  2  0  0  0  0
 18 39  1  0  0  0  0
 19 20  1  0  0  0  0
M  END
>  <DRUGBANK_ID>
DB02158

>  <SECONDARY_ACCESSION_NUMBERS>
EXPT02247

>  <COMMON_NAME>
(2S,3S,4R,5S)-2-(4-Amino-4,5-dihydro-1H-pyrrolo[3,2-d]pyrimidin-7-yl)-5-[(methylsulfanyl)methyl]-3,4-pyrrolidinediol

$$$$
