122
 OpenBabel10282417123D

 32 34  0  0  0  0  0  0  0  0999 V2000
    2.2127   -0.7063    0.0012 C   0  0  0  0  0  0  0  0  0  0  0  0
    2.1384    0.7061   -0.0108 C   0  0  0  0  0  0  0  0  0  0  0  0
    0.9160    1.3993   -0.0093 C   0  0  0  0  0  0  0  0  0  0  0  0
   -0.2704    0.6642   -0.0112 C   0  0  0  0  0  0  0  0  0  0  0  0
   -0.2042   -0.7202   -0.0068 C   0  0  0  0  0  0  0  0  0  0  0  0
    1.0000   -1.4346    0.0058 C   0  0  0  0  0  0  0  0  0  0  0  0
    3.5306   -1.4076    0.0065 C   0  0  0  0  0  0  0  0  0  0  0  0
    3.6004   -2.7274    0.0243 N   0  0  0  0  0  0  0  0  0  0  0  0
    4.6594   -0.7314   -0.0050 N   0  3  0  0  0  0  0  0  0  0  0  0
   -1.5674    1.0937   -0.0175 N   0  0  0  0  0  0  0  0  0  0  0  0
   -1.5175   -1.1175   -0.0272 N   0  0  0  0  0  0  0  0  0  0  0  0
   -2.3112    0.0056   -0.0032 C   0  0  0  0  0  0  0  0  0  0  0  0
   -3.7662   -0.0560    0.0260 C   0  0  0  0  0  0  0  0  0  0  0  0
   -4.4914    0.5624   -1.0026 C   0  0  0  0  0  0  0  0  0  0  0  0
   -5.8873    0.5107   -1.0185 C   0  0  0  0  0  0  0  0  0  0  0  0
   -6.5715   -0.1475    0.0018 C   0  0  0  0  0  0  0  0  0  0  0  0
   -5.8624   -0.7629    1.0329 C   0  0  0  0  0  0  0  0  0  0  0  0
   -4.4693   -0.7220    1.0410 C   0  0  0  0  0  0  0  0  0  0  0  0
   -3.8523   -1.3662    2.0812 O   0  0  0  0  0  0  0  0  0  0  0  0
    3.0239    1.3345   -0.0242 H   0  0  0  0  0  0  0  0  0  0  0  0
    0.8814    2.4852   -0.0115 H   0  0  0  0  0  0  0  0  0  0  0  0
    0.9566   -2.5162    0.0131 H   0  0  0  0  0  0  0  0  0  0  0  0
    4.4825   -3.2204    0.0290 H   0  0  0  0  0  0  0  0  0  0  0  0
    2.7756   -3.3095    0.0345 H   0  0  0  0  0  0  0  0  0  0  0  0
    4.6765    0.2806   -0.0183 H   0  0  0  0  0  0  0  0  0  0  0  0
    5.5653   -1.1806   -0.0017 H   0  0  0  0  0  0  0  0  0  0  0  0
   -1.8675   -2.0655   -0.0549 H   0  0  0  0  0  0  0  0  0  0  0  0
   -3.9698    1.0831   -1.8038 H   0  0  0  0  0  0  0  0  0  0  0  0
   -6.4408    0.9888   -1.8235 H   0  0  0  0  0  0  0  0  0  0  0  0
   -7.6586   -0.1782   -0.0032 H   0  0  0  0  0  0  0  0  0  0  0  0
   -6.3974   -1.2645    1.8349 H   0  0  0  0  0  0  0  0  0  0  0  0
   -2.9524   -1.0155    2.1821 H   0  0  0  0  0  0  0  0  0  0  0  0
  1  2  1  0  0  0  0
  1  6  2  0  0  0  0
  1  7  1  0  0  0  0
  2  3  2  0  0  0  0
  2 20  1  0  0  0  0
  3  4  1  0  0  0  0
  3 21  1  0  0  0  0
  4  5  2  0  0  0  0
  4 10  1  0  0  0  0
  5  6  1  0  0  0  0
  5 11  1  0  0  0  0
  6 22  1  0  0  0  0
  7  8  1  0  0  0  0
  7  9  2  0  0  0  0
  8 23  1  0  0  0  0
  8 24  1  0  0  0  0
  9 25  1  0  0  0  0
  9 26  1  0  0  0  0
 10 12  2  0  0  0  0
 11 12  1  0  0  0  0
 11 27  1  0  0  0  0
 12 13  1  0  0  0  0
 13 14  2  0  0  0  0
 13 18  1  0  0  0  0
 14 15  1  0  0  0  0
 14 28  1  0  0  0  0
 15 16  2  0  0  0  0
 15 29  1  0  0  0  0
 16 17  1  0  0  0  0
 16 30  1  0  0  0  0
 17 18  2  0  0  0  0
 17 31  1  0  0  0  0
 18 19  1  0  0  0  0
 19 32  1  0  0  0  0
M  CHG  1   9   1
M  END
>  <DRUGBANK_ID>
DB02287

>  <SECONDARY_ACCESSION_NUMBERS>
EXPT00728; EXPT00016; DB02193

>  <COMMON_NAME>
2-(2-hydroxy-phenyl)-3H-benzoimidazole-5-carboxamidine

>  <SYNONYMS>
[2-(2-Hydroxyphenyl)-1H-benzimidazol-5-yl](imino)methanaminium

$$$$
