HIN
 OpenBabel10282417163D

 43 43  0  0  0  0  0  0  0  0999 V2000
    1.1446   -0.2830   -0.1676 C   0  0  0  0  0  0  0  0  0  0  0  0
    0.4549   -1.1685    0.8711 C   0  0  0  0  0  0  0  0  0  0  0  0
    1.0053   -1.0930    2.2946 C   0  0  0  0  0  0  0  0  0  0  0  0
   -0.0022   -0.9830    3.4747 C   0  0  1  0  0  0  0  0  0  0  0  0
    0.2053   -2.0473    4.5069 N   0  0  0  0  0  0  0  0  0  0  0  0
    0.5912   -1.7979    5.8229 C   0  0  0  0  0  0  0  0  0  0  0  0
    0.7340   -2.9987    6.7706 C   0  0  1  0  0  0  0  0  0  0  0  0
    2.0839   -2.9750    7.3863 N   0  0  0  0  0  0  0  0  0  0  0  0
    2.3377   -2.7422    8.7215 C   0  0  0  0  0  0  0  0  0  0  0  0
    3.7764   -2.6754    9.1350 C   0  0  0  0  0  0  0  0  0  0  0  0
   -0.4058   -2.8823    7.7842 C   0  0  0  0  0  0  0  0  0  0  0  0
    0.1114    0.4253    4.0682 C   0  0  0  0  0  0  0  0  0  0  0  0
   -0.1670    1.6009    3.1938 C   0  0  0  0  0  0  0  0  0  0  0  0
   -1.1815    1.5876    2.2364 C   0  0  0  0  0  0  0  0  0  0  0  0
   -1.3631    2.6954    1.4164 C   0  0  0  0  0  0  0  0  0  0  0  0
   -0.5690    3.8312    1.5913 C   0  0  0  0  0  0  0  0  0  0  0  0
    0.3856    3.8794    2.6051 C   0  0  0  0  0  0  0  0  0  0  0  0
    0.6057    2.7560    3.3878 C   0  0  0  0  0  0  0  0  0  0  0  0
    2.2186   -1.2021    2.4898 O   0  0  0  0  0  0  0  0  0  0  0  0
    0.7988   -0.6721    6.2777 O   0  0  0  0  0  0  0  0  0  0  0  0
    1.4800   -2.6438    9.6055 O   0  0  0  0  0  0  0  0  0  0  0  0
    1.0959    1.4607    0.0115 Cl  0  0  0  0  0  0  0  0  0  0  0  0
   -1.0128   -1.1632    3.0880 H   0  0  0  0  0  0  0  0  0  0  0  0
    0.6542   -3.9320    6.2049 H   0  0  0  0  0  0  0  0  0  0  0  0
    0.6935   -0.4702   -1.1454 H   0  0  0  0  0  0  0  0  0  0  0  0
    2.2071   -0.5057   -0.2086 H   0  0  0  0  0  0  0  0  0  0  0  0
   -0.6357   -1.0768    0.8530 H   0  0  0  0  0  0  0  0  0  0  0  0
    0.6571   -2.2013    0.5505 H   0  0  0  0  0  0  0  0  0  0  0  0
    0.1090   -3.0069    4.1973 H   0  0  0  0  0  0  0  0  0  0  0  0
    2.8629   -2.8875    6.7424 H   0  0  0  0  0  0  0  0  0  0  0  0
    3.9421   -1.7259    9.6543 H   0  0  0  0  0  0  0  0  0  0  0  0
    3.9561   -3.4949    9.8393 H   0  0  0  0  0  0  0  0  0  0  0  0
    4.4705   -2.7603    8.2992 H   0  0  0  0  0  0  0  0  0  0  0  0
   -1.3914   -2.9020    7.3155 H   0  0  0  0  0  0  0  0  0  0  0  0
   -0.3548   -3.6948    8.5152 H   0  0  0  0  0  0  0  0  0  0  0  0
   -0.3457   -1.9247    8.3223 H   0  0  0  0  0  0  0  0  0  0  0  0
   -0.5847    0.5251    4.9095 H   0  0  0  0  0  0  0  0  0  0  0  0
    1.1414    0.5380    4.4346 H   0  0  0  0  0  0  0  0  0  0  0  0
   -1.7643    0.6929    2.0455 H   0  0  0  0  0  0  0  0  0  0  0  0
   -2.0382    2.6245    0.5690 H   0  0  0  0  0  0  0  0  0  0  0  0
   -0.6348    4.6482    0.8808 H   0  0  0  0  0  0  0  0  0  0  0  0
    0.9946    4.7655    2.7523 H   0  0  0  0  0  0  0  0  0  0  0  0
    1.4113    2.7631    4.1227 H   0  0  0  0  0  0  0  0  0  0  0  0
  1  2  1  0  0  0  0
  1 22  1  0  0  0  0
  1 25  1  0  0  0  0
  1 26  1  0  0  0  0
  2  3  1  0  0  0  0
  2 27  1  0  0  0  0
  2 28  1  0  0  0  0
  3  4  1  0  0  0  0
  3 19  2  0  0  0  0
  4  5  1  0  0  0  0
  4 12  1  0  0  0  0
  4 23  1  6  0  0  0
  5  6  1  0  0  0  0
  5 29  1  0  0  0  0
  6  7  1  0  0  0  0
  6 20  2  0  0  0  0
  7  8  1  0  0  0  0
  7 11  1  0  0  0  0
  7 24  1  6  0  0  0
  8  9  1  0  0  0  0
  8 30  1  0  0  0  0
  9 10  1  0  0  0  0
  9 21  2  0  0  0  0
 10 31  1  0  0  0  0
 10 32  1  0  0  0  0
 10 33  1  0  0  0  0
 11 34  1  0  0  0  0
 11 35  1  0  0  0  0
 11 36  1  0  0  0  0
 12 13  1  0  0  0  0
 12 37  1  0  0  0  0
 12 38  1  0  0  0  0
 13 14  2  0  0  0  0
 13 18  1  0  0  0  0
 14 15  1  0  0  0  0
 14 39  1  0  0  0  0
 15 16  2  0  0  0  0
 15 40  1  0  0  0  0
 16 17  1  0  0  0  0
 16 41  1  0  0  0  0
 17 18  2  0  0  0  0
 17 42  1  0  0  0  0
 18 43  1  0  0  0  0
M  END
>  <DRUGBANK_ID>
DB07899

>  <COMMON_NAME>
(2S) N-acetyl-L-alanyl-Î±L-phenylalanyl-chloroethylketone

>  <SYNONYMS>
N2-Acetyl-N-[(2S)-5-chloro-3-oxo-1-phenyl-2-pentanyl]-L-alaninamide

$$$$
