
 OpenBabel10282417193D

 84 89  0  0  0  0  0  0  0  0999 V2000
    2.0013    0.3110   -1.1052 C   0  0  0  0  0  0  0  0  0  0  0  0
    0.6108    0.2537   -0.7171 C   0  0  0  0  0  0  0  0  0  0  0  0
    0.0132    1.3876   -0.2895 C   0  0  0  0  0  0  0  0  0  0  0  0
   -1.3175    1.2967   -0.0227 C   0  0  0  0  0  0  0  0  0  0  0  0
   -2.0203    0.0535   -0.0328 C   0  0  0  0  0  0  0  0  0  0  0  0
   -1.3371   -1.1280   -0.1955 C   0  0  0  0  0  0  0  0  0  0  0  0
   -0.0955   -0.9207   -0.6748 C   0  0  0  0  0  0  0  0  0  0  0  0
   -1.7589   -2.4769    0.0214 N   0  0  0  0  0  0  0  0  0  0  0  0
   -1.0749   -3.6987    0.0822 C   0  0  0  0  0  0  0  0  0  0  0  0
   -1.7421   -4.7442    0.0245 O   0  0  0  0  0  0  0  0  0  0  0  0
    0.2945   -3.8702    0.1784 N   0  0  0  0  0  0  0  0  0  0  0  0
    1.3324   -3.0065    0.4816 C   0  0  0  0  0  0  0  0  0  0  0  0
    2.3265   -2.8042   -0.3818 N   0  0  0  0  0  0  0  0  0  0  0  0
    3.1527   -1.6951    0.0204 C   0  0  0  0  0  0  0  0  0  0  0  0
    4.2893   -0.8808   -0.9485 C   0  0  0  0  0  0  0  0  0  0  0  0
    4.6136    0.7412   -0.8193 C   0  0  0  0  0  0  0  0  0  0  0  0
    3.8499    1.6046    0.1337 C   0  0  0  0  0  0  0  0  0  0  0  0
    2.7101    0.8181    1.1072 C   0  0  0  0  0  0  0  0  0  0  0  0
    2.4600   -0.8602    1.1468 C   0  0  0  0  0  0  0  0  0  0  0  0
    1.1394   -1.9304    1.8266 S   0  0  0  0  0  0  0  0  0  0  0  0
    3.7618    3.1123   -0.1913 N   0  0  0  0  0  0  0  0  0  0  0  0
    3.0318    4.1198    0.5332 C   0  0  0  0  0  0  0  0  0  0  0  0
    2.8014    3.9058    1.7893 C   0  0  0  0  0  0  0  0  0  0  0  0
    3.7402    2.5077    2.4746 C   0  0  0  0  0  0  0  0  0  0  0  0
    3.3616    2.1414    3.9969 C   0  0  0  0  0  0  0  0  0  0  0  0
    1.7993    2.9174    5.1228 C   0  0  0  0  0  0  0  0  0  0  0  0
    1.1001    4.4291    4.6187 C   0  0  0  0  0  0  0  0  0  0  0  0
    1.6376    4.9263    2.9353 C   0  0  0  0  0  0  0  0  0  0  0  0
    1.4758    6.1180    2.5689 N   0  0  0  0  0  0  0  0  0  0  0  0
    1.9418    6.1667    1.3070 C   0  0  0  0  0  0  0  0  0  0  0  0
    2.5959    5.3316    0.2741 N   0  0  0  0  0  0  0  0  0  0  0  0
    1.7718    2.7219    6.8453 O   0  0  0  0  0  0  0  0  0  0  0  0
    2.4180    1.3931    7.5433 C   0  0  0  0  0  0  0  0  0  0  0  0
    1.9354   -0.0445    6.7033 C   0  0  0  0  0  0  0  0  0  0  0  0
    2.3387   -0.3126    5.2497 C   0  0  0  0  0  0  0  0  0  0  0  0
    2.3243    1.0570    5.2193 N   0  0  0  0  0  0  0  0  0  0  0  0
    3.6927    2.4986    5.8227 C   0  0  0  0  0  0  0  0  0  0  0  0
    3.5773    4.1025    5.0481 C   0  0  0  0  0  0  0  0  0  0  0  0
    3.2908    4.1066    3.6510 N   0  0  0  0  0  0  0  0  0  0  0  0
    1.7227    2.8406    3.0164 C   0  0  0  0  0  0  0  0  0  0  0  0
    1.7010    1.1717    3.5278 C   0  0  0  0  0  0  0  0  0  0  0  0
    4.6019    4.6452    3.0416 C   0  0  0  0  0  0  0  0  0  0  0  0
    4.5287    0.9612    4.5058 O   0  0  0  0  0  0  0  0  0  0  0  0
    4.7250    0.3537    5.9746 C   0  0  0  0  0  0  0  0  0  0  0  0
   -3.3721   -0.0302    0.0394 O   0  0  0  0  0  0  0  0  0  0  0  0
   -3.9795    1.2474   -0.0437 C   0  0  0  0  0  0  0  0  0  0  0  0
    2.7884    0.0606   -0.4470 H   0  0  0  0  0  0  0  0  0  0  0  0
    2.2902   -0.2299   -1.9561 H   0  0  0  0  0  0  0  0  0  0  0  0
    2.2328    1.3429   -1.1988 H   0  0  0  0  0  0  0  0  0  0  0  0
    0.5848    2.3063   -0.1945 H   0  0  0  0  0  0  0  0  0  0  0  0
   -1.7722    2.2632    0.1064 H   0  0  0  0  0  0  0  0  0  0  0  0
    0.4091   -1.8137   -0.8432 H   0  0  0  0  0  0  0  0  0  0  0  0
   -2.7730   -2.5645    0.0600 H   0  0  0  0  0  0  0  0  0  0  0  0
    0.6560   -4.7873   -0.0633 H   0  0  0  0  0  0  0  0  0  0  0  0
    4.3503   -1.2409   -2.0298 H   0  0  0  0  0  0  0  0  0  0  0  0
    5.0716    1.2871   -1.6793 H   0  0  0  0  0  0  0  0  0  0  0  0
    1.7353    1.3722    1.2448 H   0  0  0  0  0  0  0  0  0  0  0  0
    4.6809    3.4928   -0.4482 H   0  0  0  0  0  0  0  0  0  0  0  0
    4.5207    1.8090    2.1303 H   0  0  0  0  0  0  0  0  0  0  0  0
    1.2749    5.1955    5.5414 H   0  0  0  0  0  0  0  0  0  0  0  0
    1.6656    7.1189    0.9310 H   0  0  0  0  0  0  0  0  0  0  0  0
    3.5236    1.5570    7.7765 H   0  0  0  0  0  0  0  0  0  0  0  0
    2.3637    1.2796    8.6369 H   0  0  0  0  0  0  0  0  0  0  0  0
    2.3786   -0.9164    7.1525 H   0  0  0  0  0  0  0  0  0  0  0  0
    0.8501    0.0854    6.7431 H   0  0  0  0  0  0  0  0  0  0  0  0
    1.6371   -0.7809    4.5311 H   0  0  0  0  0  0  0  0  0  0  0  0
    3.2578   -0.6214    4.7349 H   0  0  0  0  0  0  0  0  0  0  0  0
    3.8576    2.7430    6.8180 H   0  0  0  0  0  0  0  0  0  0  0  0
    4.7405    2.6066    5.3447 H   0  0  0  0  0  0  0  0  0  0  0  0
    2.7474    4.0692    4.4410 H   0  0  0  0  0  0  0  0  0  0  0  0
    3.5784    5.0831    5.4579 H   0  0  0  0  0  0  0  0  0  0  0  0
    0.6431    3.1517    3.1138 H   0  0  0  0  0  0  0  0  0  0  0  0
    1.3547    2.8792    1.8717 H   0  0  0  0  0  0  0  0  0  0  0  0
    2.6157    0.6656    3.0967 H   0  0  0  0  0  0  0  0  0  0  0  0
    1.1042    0.4579    2.9576 H   0  0  0  0  0  0  0  0  0  0  0  0
    5.3774    3.8837    3.1491 H   0  0  0  0  0  0  0  0  0  0  0  0
    4.6352    4.9646    1.9923 H   0  0  0  0  0  0  0  0  0  0  0  0
    4.7534    5.5756    3.5686 H   0  0  0  0  0  0  0  0  0  0  0  0
    5.2677    0.9519    6.7054 H   0  0  0  0  0  0  0  0  0  0  0  0
    3.8196    0.5453    6.4300 H   0  0  0  0  0  0  0  0  0  0  0  0
    4.5862   -0.7270    6.2123 H   0  0  0  0  0  0  0  0  0  0  0  0
   -3.7368    1.8260    0.8550 H   0  0  0  0  0  0  0  0  0  0  0  0
   -3.6823    1.7970   -0.9510 H   0  0  0  0  0  0  0  0  0  0  0  0
   -5.0465    1.0724   -0.0794 H   0  0  0  0  0  0  0  0  0  0  0  0
  1  2  1  0  0  0  0
  1 47  1  0  0  0  0
  1 48  1  0  0  0  0
  1 49  1  0  0  0  0
  2  3  2  0  0  0  0
  2  7  1  0  0  0  0
  3  4  1  0  0  0  0
  3 50  1  0  0  0  0
  4  5  2  0  0  0  0
  4 51  1  0  0  0  0
  5  6  1  0  0  0  0
  5 45  1  0  0  0  0
  6  7  2  0  0  0  0
  6  8  1  0  0  0  0
  7 52  1  0  0  0  0
  8  9  1  0  0  0  0
  8 53  1  0  0  0  0
  9 10  2  0  0  0  0
  9 11  1  0  0  0  0
 11 12  1  0  0  0  0
 11 54  1  0  0  0  0
 12 13  2  0  0  0  0
 12 20  1  0  0  0  0
 13 14  1  0  0  0  0
 14 15  2  0  0  0  0
 14 19  1  0  0  0  0
 15 16  1  0  0  0  0
 15 55  1  0  0  0  0
 16 17  2  0  0  0  0
 16 56  1  0  0  0  0
 17 18  1  0  0  0  0
 17 21  1  0  0  0  0
 18 19  2  0  0  0  0
 18 57  1  0  0  0  0
 19 20  1  0  0  0  0
 21 22  1  0  0  0  0
 21 58  1  0  0  0  0
 22 23  1  0  0  0  0
 22 31  2  0  0  0  0
 23 24  2  0  0  0  0
 23 28  1  0  0  0  0
 24 25  1  0  0  0  0
 24 59  1  0  0  0  0
 25 26  2  0  0  0  0
 25 43  1  0  0  0  0
 26 27  1  0  0  0  0
 26 32  1  0  0  0  0
 27 28  2  0  0  0  0
 27 60  1  0  0  0  0
 28 29  1  0  0  0  0
 29 30  2  0  0  0  0
 30 31  1  0  0  0  0
 30 61  1  0  0  0  0
 32 33  1  0  0  0  0
 33 34  1  0  0  0  0
 33 62  1  0  0  0  0
 33 63  1  0  0  0  0
 34 35  1  0  0  0  0
 34 64  1  0  0  0  0
 34 65  1  0  0  0  0
 35 36  1  0  0  0  0
 35 66  1  0  0  0  0
 35 67  1  0  0  0  0
 36 37  1  0  0  0  0
 36 41  1  0  0  0  0
 37 38  1  0  0  0  0
 37 68  1  0  0  0  0
 37 69  1  0  0  0  0
 38 39  1  0  0  0  0
 38 70  1  0  0  0  0
 38 71  1  0  0  0  0
 39 40  1  0  0  0  0
 39 42  1  0  0  0  0
 40 41  1  0  0  0  0
 40 72  1  0  0  0  0
 40 73  1  0  0  0  0
 41 74  1  0  0  0  0
 41 75  1  0  0  0  0
 42 76  1  0  0  0  0
 42 77  1  0  0  0  0
 42 78  1  0  0  0  0
 43 44  1  0  0  0  0
 44 79  1  0  0  0  0
 44 80  1  0  0  0  0
 44 81  1  0  0  0  0
 45 46  1  0  0  0  0
 46 82  1  0  0  0  0
 46 83  1  0  0  0  0
 46 84  1  0  0  0  0
M  END
>  <DRUGBANK_ID>
DB12669

>  <COMMON_NAME>
4SC-203

>  <CAS_NUMBER>
895533-09-2

>  <UNII>
RFG3GJ6251

$$$$
