
 OpenBabel10282417133D

 90 91  0  0  1  0  0  0  0  0999 V2000
   -8.6475    1.9082    4.0119 C   0  0  0  0  0  0  0  0  0  0  0  0
   -7.3097    1.5112    6.3918 C   0  0  0  0  0  0  0  0  0  0  0  0
   -7.7160   -0.6668    4.4087 C   0  0  0  0  0  0  0  0  0  0  0  0
   -7.2643   -0.9685    6.5055 C   0  0  0  0  0  0  0  0  0  0  0  0
   -7.2128    2.2158    3.9445 C   0  0  0  0  0  0  0  0  0  0  0  0
   -6.3882    1.0271    3.4984 C   0  0  0  0  0  0  0  0  0  0  0  0
   -5.1032   -3.2166   -0.2415 C   0  0  0  0  0  0  0  0  0  0  0  0
   -5.2950   -2.4670   -1.4636 C   0  0  0  0  0  0  0  0  0  0  0  0
   -4.8441   -2.6472    0.9575 C   0  0  0  0  0  0  0  0  0  0  0  0
   -6.3738   -0.2747    2.5289 C   0  0  0  0  0  0  0  0  0  0  0  0
   -5.5267   -1.1330   -1.5486 C   0  0  0  0  0  0  0  0  0  0  0  0
   -4.6834   -1.3422    0.7691 C   0  0  0  0  0  0  0  0  0  0  0  0
   -6.3047    2.4614   -3.3292 C   0  0  0  0  0  0  0  0  0  0  0  0
   -5.5608    1.5551   -4.0949 C   0  0  0  0  0  0  0  0  0  0  0  0
   -5.9903    0.4300    1.3549 C   0  0  0  0  0  0  0  0  0  0  0  0
   -4.3568    3.8981   -3.3082 C   0  0  0  0  0  0  0  0  0  0  0  0
   -5.8779    1.2722   -0.1902 C   0  0  0  0  0  0  0  0  0  0  0  0
   -6.1804    4.4041   -1.6680 C   0  0  0  0  0  0  0  0  0  0  0  0
   -4.1649   -0.2173   -5.7614 C   0  0  0  0  0  0  0  0  0  0  0  0
   -5.3730   -0.6047   -0.3558 C   0  0  0  0  0  0  0  0  0  0  0  0
   -5.6965    3.6552   -2.9080 C   0  0  0  0  0  0  0  0  0  0  0  0
   -3.5836    2.9452   -4.0129 C   0  0  0  0  0  0  0  0  0  0  0  0
   -5.8680    3.6522   -0.3854 C   0  0  1  0  0  0  0  0  0  0  0  0
   -5.1078    2.2224    1.5772 C   0  0  1  0  0  0  0  0  0  0  0  0
   -4.2171    1.7799   -4.4566 C   0  0  0  0  0  0  0  0  0  0  0  0
   -4.4903   -1.2446   -4.6986 C   0  0  0  0  0  0  0  0  0  0  0  0
   -4.5277    2.5802   -0.6008 C   0  0  2  0  0  0  0  0  0  0  0  0
   -5.6682    3.5749    1.8664 C   0  0  1  0  0  0  0  0  0  0  0  0
   -2.1196    3.2348   -4.1876 C   0  0  0  0  0  0  0  0  0  0  0  0
   -4.1540    1.2395    4.5772 C   0  0  1  0  0  0  0  0  0  0  0  0
   -6.7898    0.1807    5.6763 C   0  0  0  0  0  0  0  0  0  0  0  0
   -4.2468    1.0102    0.4904 N   0  0  0  0  0  0  0  0  0  0  0  0
   -5.5289    4.4649    0.7713 N   0  0  0  0  0  0  0  0  0  0  0  0
   -4.0732    1.2864    2.8587 N   0  0  0  0  0  0  0  0  0  0  0  0
   -5.6180   -1.6581   -4.4641 O   0  0  0  0  0  0  0  0  0  0  0  0
   -3.4059   -1.6202   -3.9901 O   0  0  0  0  0  0  0  0  0  0  0  0
   -3.3444    3.1818   -0.8871 O   0  0  0  0  0  0  0  0  0  0  0  0
   -6.9039    2.9954    1.8386 O   0  0  0  0  0  0  0  0  0  0  0  0
   -1.5523    4.2152   -3.7318 O   0  0  0  0  0  0  0  0  0  0  0  0
   -1.4506    2.3356   -4.9373 O   0  0  0  0  0  0  0  0  0  0  0  0
   -4.2073    2.5487    5.0776 O   0  0  0  0  0  0  0  0  0  0  0  0
   -3.5064    0.9267   -5.2552 O   0  0  0  0  0  0  0  0  0  0  0  0
   -5.0985    0.1980    5.5904 O   0  0  0  0  0  0  0  0  0  0  0  0
   -6.8957    3.2438   -0.2179 H   0  0  0  0  0  0  0  0  0  0  0  0
   -4.0442    2.6547    1.7600 H   0  0  0  0  0  0  0  0  0  0  0  0
   -4.9166    2.2628   -1.5711 H   0  0  0  0  0  0  0  0  0  0  0  0
   -5.2990    3.9993    2.8185 H   0  0  0  0  0  0  0  0  0  0  0  0
   -3.1436    0.8373    4.7246 H   0  0  0  0  0  0  0  0  0  0  0  0
   -8.9982    1.4927    3.0650 H   0  0  0  0  0  0  0  0  0  0  0  0
   -9.1432    2.7926    4.3488 H   0  0  0  0  0  0  0  0  0  0  0  0
   -8.8593    1.1522    4.7449 H   0  0  0  0  0  0  0  0  0  0  0  0
   -7.2668    2.5022    5.9619 H   0  0  0  0  0  0  0  0  0  0  0  0
   -8.3943    1.5364    6.5288 H   0  0  0  0  0  0  0  0  0  0  0  0
   -6.6768    1.8057    7.2146 H   0  0  0  0  0  0  0  0  0  0  0  0
   -7.1935   -1.5792    4.0727 H   0  0  0  0  0  0  0  0  0  0  0  0
   -8.7931   -0.8307    4.3290 H   0  0  0  0  0  0  0  0  0  0  0  0
   -7.9204   -0.0155    3.5877 H   0  0  0  0  0  0  0  0  0  0  0  0
   -6.8847   -1.9104    6.0802 H   0  0  0  0  0  0  0  0  0  0  0  0
   -6.9459   -0.7934    7.5052 H   0  0  0  0  0  0  0  0  0  0  0  0
   -8.3741   -0.9667    6.4076 H   0  0  0  0  0  0  0  0  0  0  0  0
   -7.2528    3.2086    3.5216 H   0  0  0  0  0  0  0  0  0  0  0  0
   -6.5520    2.8127    4.6259 H   0  0  0  0  0  0  0  0  0  0  0  0
   -5.6713    1.7951    3.5324 H   0  0  0  0  0  0  0  0  0  0  0  0
   -5.8425    0.3015    4.0559 H   0  0  0  0  0  0  0  0  0  0  0  0
   -5.0752   -4.2836   -0.2673 H   0  0  0  0  0  0  0  0  0  0  0  0
   -5.2728   -2.9685   -2.4004 H   0  0  0  0  0  0  0  0  0  0  0  0
   -4.6918   -3.0619    1.9510 H   0  0  0  0  0  0  0  0  0  0  0  0
   -5.7674   -1.1551    2.8235 H   0  0  0  0  0  0  0  0  0  0  0  0
   -7.3247   -0.7896    2.2192 H   0  0  0  0  0  0  0  0  0  0  0  0
   -5.6595   -0.4267   -2.3463 H   0  0  0  0  0  0  0  0  0  0  0  0
   -4.2584   -0.8376    1.6370 H   0  0  0  0  0  0  0  0  0  0  0  0
   -7.2547    2.1019   -2.9257 H   0  0  0  0  0  0  0  0  0  0  0  0
   -6.0638    0.6245   -4.3281 H   0  0  0  0  0  0  0  0  0  0  0  0
   -6.8441   -0.1204    0.6617 H   0  0  0  0  0  0  0  0  0  0  0  0
   -6.8825    1.1599    1.4195 H   0  0  0  0  0  0  0  0  0  0  0  0
   -3.8522    4.7650   -2.8820 H   0  0  0  0  0  0  0  0  0  0  0  0
   -6.9482    1.4183   -0.4701 H   0  0  0  0  0  0  0  0  0  0  0  0
   -5.1551    0.9134   -1.1049 H   0  0  0  0  0  0  0  0  0  0  0  0
   -7.2693    4.5514   -1.7264 H   0  0  0  0  0  0  0  0  0  0  0  0
   -5.6749    5.3510   -1.5258 H   0  0  0  0  0  0  0  0  0  0  0  0
   -5.0727    0.0697   -6.3056 H   0  0  0  0  0  0  0  0  0  0  0  0
   -3.5089   -0.6979   -6.4916 H   0  0  0  0  0  0  0  0  0  0  0  0
   -3.4654    1.4705    0.9790 H   0  0  0  0  0  0  0  0  0  0  0  0
   -4.5330    4.6626    0.6727 H   0  0  0  0  0  0  0  0  0  0  0  0
   -4.7479    0.5985    2.6845 H   0  0  0  0  0  0  0  0  0  0  0  0
   -3.6710   -2.1735   -3.2295 H   0  0  0  0  0  0  0  0  0  0  0  0
   -3.0446    3.3943   -0.0122 H   0  0  0  0  0  0  0  0  0  0  0  0
   -7.6603    3.3024    1.3756 H   0  0  0  0  0  0  0  0  0  0  0  0
   -0.5204    2.6197   -5.0361 H   0  0  0  0  0  0  0  0  0  0  0  0
   -4.5804    3.0853    4.3675 H   0  0  0  0  0  0  0  0  0  0  0  0
  1 49  1  0  0  0  0
  1 50  1  0  0  0  0
  1 51  1  0  0  0  0
  2 52  1  0  0  0  0
  2 53  1  0  0  0  0
  2 54  1  0  0  0  0
  3 55  1  0  0  0  0
  3 56  1  0  0  0  0
  3 57  1  0  0  0  0
  4 58  1  0  0  0  0
  4 59  1  0  0  0  0
  4 60  1  0  0  0  0
  5  1  1  0  0  0  0
  5 61  1  0  0  0  0
  5 62  1  0  0  0  0
  6  5  1  0  0  0  0
  6 63  1  0  0  0  0
  6 64  1  0  0  0  0
  7 65  1  0  0  0  0
  8  7  2  0  0  0  0
  8 66  1  0  0  0  0
  9  7  1  0  0  0  0
  9 67  1  0  0  0  0
 10  6  1  0  0  0  0
 10 68  1  0  0  0  0
 10 69  1  0  0  0  0
 11  8  1  0  0  0  0
 11 70  1  0  0  0  0
 12  9  2  0  0  0  0
 12 71  1  0  0  0  0
 13 72  1  0  0  0  0
 14 13  2  0  0  0  0
 14 73  1  0  0  0  0
 15 10  1  0  0  0  0
 15 74  1  0  0  0  0
 15 75  1  0  0  0  0
 16 76  1  0  0  0  0
 17 77  1  0  0  0  0
 17 78  1  0  0  0  0
 18 79  1  0  0  0  0
 18 80  1  0  0  0  0
 19 81  1  0  0  0  0
 19 82  1  0  0  0  0
 20 11  2  0  0  0  0
 20 12  1  0  0  0  0
 20 17  1  0  0  0  0
 21 13  1  0  0  0  0
 21 16  2  0  0  0  0
 21 18  1  0  0  0  0
 22 16  1  0  0  0  0
 23 33  1  0  0  0  0
 23 44  1  1  0  0  0
 23 27  1  0  0  0  0
 23 18  1  0  0  0  0
 24 34  1  0  0  0  0
 24 45  1  6  0  0  0
 24 28  1  0  0  0  0
 24 17  1  0  0  0  0
 25 14  1  0  0  0  0
 25 22  2  0  0  0  0
 26 19  1  0  0  0  0
 27 37  1  0  0  0  0
 27 46  1  6  0  0  0
 28 47  1  1  0  0  0
 28 38  1  0  0  0  0
 28 33  1  0  0  0  0
 29 22  1  0  0  0  0
 30 41  1  0  0  0  0
 30 48  1  1  0  0  0
 31  2  1  0  0  0  0
 31  3  1  0  0  0  0
 31  4  1  0  0  0  0
 32 15  1  0  0  0  0
 32 27  1  0  0  0  0
 32 83  1  0  0  0  0
 33 84  1  0  0  0  0
 34 30  1  0  0  0  0
 34 85  1  0  0  0  0
 35 26  2  0  0  0  0
 36 26  1  0  0  0  0
 36 86  1  0  0  0  0
 37 87  1  0  0  0  0
 38 88  1  0  0  0  0
 39 29  2  0  0  0  0
 40 29  1  0  0  0  0
 40 89  1  0  0  0  0
 41 90  1  0  0  0  0
 42 19  1  0  0  0  0
 42 25  1  0  0  0  0
 43 30  1  0  0  0  0
 43 31  1  0  0  0  0
M  END
>  <DRUGBANK_ID>
DB02977

>  <SECONDARY_ACCESSION_NUMBERS>
EXPT03015

>  <COMMON_NAME>
PNU177836

$$$$
