
 OpenBabel10282417163D

 50 54  0  0  0  0  0  0  0  0999 V2000
   -1.7224    0.6498   -0.1700 C   0  0  0  0  0  0  0  0  0  0  0  0
   -0.7246    1.7141   -0.2308 C   0  0  0  0  0  0  0  0  0  0  0  0
   -1.4055   -0.6608   -0.2564 C   0  0  0  0  0  0  0  0  0  0  0  0
    0.5541    1.4275   -0.1766 C   0  0  0  0  0  0  0  0  0  0  0  0
    2.7545   -5.1315    3.1265 C   0  0  0  0  0  0  0  0  0  0  0  0
    2.3904   -6.4746    3.3263 C   0  0  0  0  0  0  0  0  0  0  0  0
    0.5276   -4.1799    3.6901 C   0  0  0  0  0  0  0  0  0  0  0  0
    1.5760   -3.0180   -0.1942 C   0  0  0  0  0  0  0  0  0  0  0  0
    3.4668   -2.4404    1.9509 C   0  0  0  0  0  0  0  0  0  0  0  0
    2.5003   -1.5580    3.9310 C   0  0  0  0  0  0  0  0  0  0  0  0
    0.4883   -1.3652    1.6286 C   0  0  0  0  0  0  0  0  0  0  0  0
   -1.0255   -6.0806    4.2869 C   0  0  0  0  0  0  0  0  0  0  0  0
    3.4528   -0.1444    2.3067 C   0  0  0  0  0  0  0  0  0  0  0  0
    3.0976   -1.2821   -1.2769 C   0  0  0  0  0  0  0  0  0  0  0  0
    1.9239   -3.9868    3.3335 C   0  0  0  0  0  0  0  0  0  0  0  0
    2.6427   -2.6636    3.1151 C   0  0  0  0  0  0  0  0  0  0  0  0
    0.3522   -2.1877    0.3115 C   0  0  0  0  0  0  0  0  0  0  0  0
    0.1772   -5.5409    3.8920 C   0  0  0  0  0  0  0  0  0  0  0  0
    2.6456   -2.7365   -1.3444 C   0  0  1  0  0  0  0  0  0  0  0  0
    3.6414   -1.1605    1.3717 C   0  0  0  0  0  0  0  0  0  0  0  0
   -0.0020   -1.0604   -0.3373 C   0  0  0  0  0  0  0  0  0  0  0  0
    1.0718   -6.6622    3.7412 C   0  0  0  0  0  0  0  0  0  0  0  0
    0.9014    0.0552    0.1680 C   0  0  3  0  0  0  0  0  0  0  0  0
    3.9872   -3.3890   -1.2544 N   0  0  0  0  0  0  0  0  0  0  0  0
    2.9789   -0.3286    3.5948 N   0  0  0  0  0  0  0  0  0  0  0  0
    0.8103   -0.1016    1.5993 N   0  0  0  0  0  0  0  0  0  0  0  0
   -0.7972   -7.4321    4.3918 N   0  0  0  0  0  0  0  0  0  0  0  0
    0.4467   -7.8047    4.0585 N   0  0  0  0  0  0  0  0  0  0  0  0
    3.8591   -0.8636    0.0067 O   0  0  0  0  0  0  0  0  0  0  0  0
    2.2096   -3.0242   -2.3114 H   0  0  0  0  0  0  0  0  0  0  0  0
    1.9242    0.0146   -0.0947 H   0  0  0  0  0  0  0  0  0  0  0  0
   -2.7389    0.9374    0.0231 H   0  0  0  0  0  0  0  0  0  0  0  0
   -1.0014    2.7587   -0.1589 H   0  0  0  0  0  0  0  0  0  0  0  0
   -2.1414   -1.4482   -0.1019 H   0  0  0  0  0  0  0  0  0  0  0  0
    1.3936    2.1285   -0.1613 H   0  0  0  0  0  0  0  0  0  0  0  0
    3.7793   -4.9581    2.8058 H   0  0  0  0  0  0  0  0  0  0  0  0
    3.0942   -7.2803    3.1973 H   0  0  0  0  0  0  0  0  0  0  0  0
   -0.2162   -3.3990    3.8036 H   0  0  0  0  0  0  0  0  0  0  0  0
    2.1678   -2.6096    0.5377 H   0  0  0  0  0  0  0  0  0  0  0  0
    1.5414   -4.0809    0.0759 H   0  0  0  0  0  0  0  0  0  0  0  0
    3.6752   -3.3175    1.3418 H   0  0  0  0  0  0  0  0  0  0  0  0
    1.9239   -1.6024    4.8536 H   0  0  0  0  0  0  0  0  0  0  0  0
    0.2104   -1.7575    2.6093 H   0  0  0  0  0  0  0  0  0  0  0  0
   -2.0022   -5.6856    4.5308 H   0  0  0  0  0  0  0  0  0  0  0  0
    3.4994    0.9054    2.0268 H   0  0  0  0  0  0  0  0  0  0  0  0
    3.7602   -1.0006   -2.1127 H   0  0  0  0  0  0  0  0  0  0  0  0
    2.2211   -0.7043   -1.6069 H   0  0  0  0  0  0  0  0  0  0  0  0
    4.5469   -3.0421   -2.0505 H   0  0  0  0  0  0  0  0  0  0  0  0
    4.4938   -2.9153   -0.4901 H   0  0  0  0  0  0  0  0  0  0  0  0
   -1.4372   -8.1654    4.6854 H   0  0  0  0  0  0  0  0  0  0  0  0
  1 32  1  0  0  0  0
  2  1  1  0  0  0  0
  2 33  1  0  0  0  0
  3  1  2  0  0  0  0
  3 34  1  0  0  0  0
  4  2  2  0  0  0  0
  4 35  1  0  0  0  0
  5 36  1  0  0  0  0
  6  5  2  0  0  0  0
  6 37  1  0  0  0  0
  7 38  1  0  0  0  0
  8 39  1  0  0  0  0
  8 40  1  0  0  0  0
  9 41  1  0  0  0  0
 10 42  1  0  0  0  0
 11 43  1  0  0  0  0
 12 44  1  0  0  0  0
 13 45  1  0  0  0  0
 14 46  1  0  0  0  0
 14 47  1  0  0  0  0
 15  5  1  0  0  0  0
 15  7  2  0  0  0  0
 16  9  2  0  0  0  0
 16 10  1  0  0  0  0
 16 15  1  0  0  0  0
 17  8  1  0  0  0  0
 17 11  1  0  0  0  0
 18  7  1  0  0  0  0
 18 12  2  0  0  0  0
 19  8  1  0  0  0  0
 19 14  1  0  0  0  0
 19 24  1  0  0  0  0
 19 30  1  6  0  0  0
 20  9  1  0  0  0  0
 20 13  2  0  0  0  0
 21  3  1  0  0  0  0
 21 17  2  0  0  0  0
 22  6  1  0  0  0  0
 22 18  1  0  0  0  0
 23  4  1  0  0  0  0
 23 21  1  0  0  0  0
 24 48  1  0  0  0  0
 24 49  1  0  0  0  0
 25 10  2  0  0  0  0
 25 13  1  0  0  0  0
 26 11  2  0  0  0  0
 26 23  1  0  0  0  0
 27 12  1  0  0  0  0
 27 50  1  0  0  0  0
 28 22  2  0  0  0  0
 28 27  1  0  0  0  0
 29 14  1  0  0  0  0
 29 20  1  0  0  0  0
 31 23  1  0  0  0  0
M  END
>  <DRUGBANK_ID>
DB06977

>  <COMMON_NAME>
(2S)-1-{[5-(1H-Indazol-5-yl)-3-pyridinyl]oxy}-3-(7aH-indol-3-yl)-2-propanamine

$$$$
