
 OpenBabel10282417123D

 89 93  0  0  0  0  0  0  0  0999 V2000
   -6.6247   -9.7655  -10.8987 P   0  0  1  0  0  0  0  0  0  0  0  0
   -8.2154  -11.4578  -12.7547 P   0  0  1  0  0  0  0  0  0  0  0  0
   -4.6008   -7.0678  -14.2183 O   0  0  0  0  0  0  0  0  0  0  0  0
   -8.4505   -9.4048  -14.1564 O   0  0  0  0  0  0  0  0  0  0  0  0
   -4.1415  -10.1973  -13.9049 O   0  0  0  0  0  0  0  0  0  0  0  0
   -1.7272   -9.1678  -13.5977 O   0  0  0  0  0  0  0  0  0  0  0  0
   -9.3716   -6.3746  -13.0496 O   0  0  0  0  0  0  0  0  0  0  0  0
   -8.6607   -6.2093  -15.5596 O   0  0  0  0  0  0  0  0  0  0  0  0
   -5.7987   -8.3737  -11.0545 O   0  0  0  0  0  0  0  0  0  0  0  0
   -9.4508  -10.8649  -11.6986 O   0  0  0  0  0  0  0  0  0  0  0  0
   -7.2258  -10.1958  -12.2897 O   0  0  0  0  0  0  0  0  0  0  0  0
   -5.4112  -10.7689  -10.6327 O   0  0  0  0  0  0  0  0  0  0  0  0
   -7.8388  -12.4782  -11.5315 O   0  0  0  0  0  0  0  0  0  0  0  0
   -7.6098   -9.6416   -9.7922 O   0  0  0  0  0  0  0  0  0  0  0  0
   -7.1098  -11.9884  -13.6999 O   0  0  0  0  0  0  0  0  0  0  0  0
    0.6878   -2.6862  -12.9936 O   0  0  0  0  0  0  0  0  0  0  0  0
   -3.6576   -2.1189  -12.1774 O   0  0  0  0  0  0  0  0  0  0  0  0
   -1.4766   -0.3422  -12.3863 O   0  0  0  0  0  0  0  0  0  0  0  0
   -0.0960   -5.5410  -10.6070 O   0  0  0  0  0  0  0  0  0  0  0  0
   -0.1914   -4.6114   -8.5524 O   0  0  0  0  0  0  0  0  0  0  0  0
   -2.4508   -6.1433  -14.0919 N   0  3  0  0  0  0  0  0  0  0  0  0
   -7.7027   -9.3484  -16.4319 N   0  0  0  0  0  0  0  0  0  0  0  0
   -5.8444  -10.1702  -17.4435 N   0  0  0  0  0  0  0  0  0  0  0  0
   -9.2312  -11.2871  -17.0698 N   0  0  0  0  0  0  0  0  0  0  0  0
   -7.8561  -13.2034  -17.8277 N   0  0  0  0  0  0  0  0  0  0  0  0
   -5.4807  -13.0454  -17.9201 N   0  0  0  0  0  0  0  0  0  0  0  0
   -4.5254   -3.9762  -11.2844 N   0  0  0  0  0  0  0  0  0  0  0  0
   -2.5698   -3.5492   -9.7099 N   0  0  0  0  0  0  0  0  0  0  0  0
   -4.0994   -9.0636  -13.0669 C   0  0  1  0  0  0  0  0  0  0  0  0
   -2.8118   -8.3420  -13.2381 C   0  0  2  0  0  0  0  0  0  0  0  0
   -5.1881   -8.0612  -13.3678 C   0  0  1  0  0  0  0  0  0  0  0  0
   -9.8356   -7.5207  -13.8024 C   0  0  1  0  0  0  0  0  0  0  0  0
   -3.1874   -7.3699  -14.3314 C   0  0  1  0  0  0  0  0  0  0  0  0
   -9.2441   -7.4884  -15.2466 C   0  0  2  0  0  0  0  0  0  0  0  0
   -9.3290   -8.8052  -13.1577 C   0  0  1  0  0  0  0  0  0  0  0  0
   -8.1695   -8.5635  -15.2656 C   0  0  1  0  0  0  0  0  0  0  0  0
   -5.8550   -7.4715  -12.1277 C   0  0  0  0  0  0  0  0  0  0  0  0
  -10.2428   -9.9600  -12.6172 C   0  0  0  0  0  0  0  0  0  0  0  0
   -8.0645  -10.5907  -16.9989 C   0  0  0  0  0  0  0  0  0  0  0  0
   -2.8907   -5.3972  -13.0751 C   0  0  0  0  0  0  0  0  0  0  0  0
   -1.4827   -5.7097  -14.9117 C   0  0  0  0  0  0  0  0  0  0  0  0
   -6.3861   -9.1406  -16.8565 C   0  0  0  0  0  0  0  0  0  0  0  0
   -2.6869   -4.0608  -13.0424 C   0  0  0  0  0  0  0  0  0  0  0  0
   -6.8455  -11.1011  -17.4606 C   0  0  0  0  0  0  0  0  0  0  0  0
   -1.4706   -3.6376  -13.6438 C   0  0  0  0  0  0  0  0  0  0  0  0
   -0.8659   -4.5060  -14.5978 C   0  0  0  0  0  0  0  0  0  0  0  0
   -0.6796   -2.3670  -13.3013 C   0  0  1  0  0  0  0  0  0  0  0  0
   -6.7392  -12.4698  -17.7617 C   0  0  0  0  0  0  0  0  0  0  0  0
   -3.6787   -3.3051  -12.1910 C   0  0  0  0  0  0  0  0  0  0  0  0
   -1.1112   -1.4959  -12.1319 C   0  0  0  0  0  0  0  0  0  0  0  0
   -9.0201  -12.5631  -17.5665 C   0  0  0  0  0  0  0  0  0  0  0  0
   -0.9609   -1.9822  -10.6574 C   0  0  0  0  0  0  0  0  0  0  0  0
   -1.2809   -3.4482  -10.3945 C   0  0  1  0  0  0  0  0  0  0  0  0
   -0.3914   -4.5118   -9.7524 C   0  0  0  0  0  0  0  0  0  0  0  0
   -5.4201  -14.0196  -17.6515 H   0  0  0  0  0  0  0  0  0  0  0  0
   -4.7429  -12.4296  -17.5929 H   0  0  0  0  0  0  0  0  0  0  0  0
   -4.5619   -4.9296  -10.9580 H   0  0  0  0  0  0  0  0  0  0  0  0
   -4.8118   -3.3754  -10.4996 H   0  0  0  0  0  0  0  0  0  0  0  0
   -3.0228   -4.3990  -10.0254 H   0  0  0  0  0  0  0  0  0  0  0  0
   -3.1461   -2.7554  -10.0040 H   0  0  0  0  0  0  0  0  0  0  0  0
   -4.3269   -9.9940  -14.8415 H   0  0  0  0  0  0  0  0  0  0  0  0
   -2.0855   -9.9294  -14.1036 H   0  0  0  0  0  0  0  0  0  0  0  0
   -8.4416   -6.4548  -12.8042 H   0  0  0  0  0  0  0  0  0  0  0  0
   -8.4338   -5.7372  -14.7335 H   0  0  0  0  0  0  0  0  0  0  0  0
   -4.6738  -10.8250  -11.2648 H   0  0  0  0  0  0  0  0  0  0  0  0
   -8.4579  -12.4025  -10.7806 H   0  0  0  0  0  0  0  0  0  0  0  0
    1.1718   -1.8287  -13.0645 H   0  0  0  0  0  0  0  0  0  0  0  0
   -0.1915   -5.3886  -11.5629 H   0  0  0  0  0  0  0  0  0  0  0  0
   -4.1137   -9.3748  -12.0414 H   0  0  0  0  0  0  0  0  0  0  0  0
   -2.5733   -7.8646  -12.2775 H   0  0  0  0  0  0  0  0  0  0  0  0
   -5.9526   -8.5726  -13.9254 H   0  0  0  0  0  0  0  0  0  0  0  0
  -10.9219   -7.4500  -13.7895 H   0  0  0  0  0  0  0  0  0  0  0  0
   -2.9808   -7.7447  -15.3352 H   0  0  0  0  0  0  0  0  0  0  0  0
   -9.9948   -7.7456  -15.9856 H   0  0  0  0  0  0  0  0  0  0  0  0
   -8.7551   -8.5126  -12.2689 H   0  0  0  0  0  0  0  0  0  0  0  0
   -7.2771   -7.9803  -15.0111 H   0  0  0  0  0  0  0  0  0  0  0  0
   -6.8782   -7.1632  -12.3018 H   0  0  0  0  0  0  0  0  0  0  0  0
   -5.3622   -6.5439  -11.8256 H   0  0  0  0  0  0  0  0  0  0  0  0
  -10.5599  -10.5930  -13.4593 H   0  0  0  0  0  0  0  0  0  0  0  0
  -11.1192   -9.6130  -12.0712 H   0  0  0  0  0  0  0  0  0  0  0  0
   -3.4399   -5.9084  -12.2972 H   0  0  0  0  0  0  0  0  0  0  0  0
   -1.2133   -6.3270  -15.7640 H   0  0  0  0  0  0  0  0  0  0  0  0
   -5.8070   -8.2664  -16.6015 H   0  0  0  0  0  0  0  0  0  0  0  0
    0.0545   -4.2371  -15.1225 H   0  0  0  0  0  0  0  0  0  0  0  0
   -0.6458   -1.7719  -14.2210 H   0  0  0  0  0  0  0  0  0  0  0  0
   -9.8933  -13.1889  -17.7740 H   0  0  0  0  0  0  0  0  0  0  0  0
    0.0248   -1.7409  -10.2728 H   0  0  0  0  0  0  0  0  0  0  0  0
   -1.6882   -1.3501  -10.1192 H   0  0  0  0  0  0  0  0  0  0  0  0
   -1.3887   -3.8868  -11.3541 H   0  0  0  0  0  0  0  0  0  0  0  0
  1 12  1  0  0  0  0
  1 14  2  1  0  0  0
  1 11  1  0  0  0  0
  1  9  1  0  0  0  0
  2 13  1  0  0  0  0
  2 15  2  6  0  0  0
  2 11  1  0  0  0  0
  2 10  1  0  0  0  0
  3 31  1  0  0  0  0
  3 33  1  0  0  0  0
  4 35  1  0  0  0  0
  4 36  1  0  0  0  0
  5 61  1  0  0  0  0
  6 62  1  0  0  0  0
  7 63  1  0  0  0  0
  8 64  1  0  0  0  0
  9 37  1  0  0  0  0
 10 38  1  0  0  0  0
 12 65  1  0  0  0  0
 13 66  1  0  0  0  0
 16 67  1  0  0  0  0
 17 49  2  0  0  0  0
 18 50  2  0  0  0  0
 19 54  1  0  0  0  0
 19 68  1  0  0  0  0
 20 54  2  0  0  0  0
 21 40  2  0  0  0  0
 21 41  1  0  0  0  0
 22 39  1  0  0  0  0
 22 42  1  0  0  0  0
 23 42  2  0  0  0  0
 23 44  1  0  0  0  0
 24 39  2  0  0  0  0
 24 51  1  0  0  0  0
 25 48  1  0  0  0  0
 25 51  2  0  0  0  0
 26 48  1  0  0  0  0
 26 55  1  0  0  0  0
 26 56  1  0  0  0  0
 27 49  1  0  0  0  0
 27 57  1  0  0  0  0
 27 58  1  0  0  0  0
 28 59  1  0  0  0  0
 28 60  1  0  0  0  0
 29  5  1  0  0  0  0
 29 30  1  0  0  0  0
 29 31  1  0  0  0  0
 29 69  1  1  0  0  0
 30  6  1  0  0  0  0
 30 33  1  0  0  0  0
 30 70  1  1  0  0  0
 31 37  1  0  0  0  0
 31 71  1  6  0  0  0
 32  7  1  0  0  0  0
 32 34  1  0  0  0  0
 32 35  1  0  0  0  0
 32 72  1  6  0  0  0
 33 73  1  6  0  0  0
 33 21  1  0  0  0  0
 34  8  1  0  0  0  0
 34 36  1  0  0  0  0
 34 74  1  6  0  0  0
 35 38  1  0  0  0  0
 35 75  1  1  0  0  0
 36 76  1  1  0  0  0
 36 22  1  0  0  0  0
 37 77  1  0  0  0  0
 37 78  1  0  0  0  0
 38 79  1  0  0  0  0
 38 80  1  0  0  0  0
 39 44  1  0  0  0  0
 40 43  1  0  0  0  0
 40 81  1  0  0  0  0
 41 46  2  0  0  0  0
 41 82  1  0  0  0  0
 42 83  1  0  0  0  0
 43 45  2  0  0  0  0
 43 49  1  0  0  0  0
 44 48  2  0  0  0  0
 45 46  1  0  0  0  0
 46 84  1  0  0  0  0
 47 50  1  0  0  0  0
 47 85  1  6  0  0  0
 47 45  1  0  0  0  0
 47 16  1  0  0  0  0
 50 52  1  0  0  0  0
 51 86  1  0  0  0  0
 52 87  1  0  0  0  0
 52 88  1  0  0  0  0
 53 54  1  0  0  0  0
 53 89  1  6  0  0  0
 53 52  1  0  0  0  0
 53 28  1  0  0  0  0
M  CHG  1  21   1
M  END
>  <DRUGBANK_ID>
DB02349

>  <SECONDARY_ACCESSION_NUMBERS>
EXPT02346

>  <COMMON_NAME>
Nicotinamide-adenine-dinucleotide-5-hydroxy-4-oxonorvaline

$$$$
