
 OpenBabel10282417213D

 99100  0  0  0  0  0  0  0  0999 V2000
    1.0382   -0.1475   -0.1340 C   0  0  0  0  0  0  0  0  0  0  0  0
    0.4561    1.0816    0.4679 C   0  0  0  0  0  0  0  0  0  0  0  0
   -0.4160    1.9325   -0.4007 C   0  0  0  0  0  0  0  0  0  0  0  0
    0.7270    1.4378    1.7340 C   0  0  0  0  0  0  0  0  0  0  0  0
    1.6898    0.7561    2.6823 C   0  0  0  0  0  0  0  0  0  0  0  0
    2.9222    1.5558    3.1646 C   0  0  0  0  0  0  0  0  0  0  0  0
    2.6445    2.8091    3.9539 C   0  0  0  0  0  0  0  0  0  0  0  0
    3.2372    2.9651    5.2977 C   0  0  0  0  0  0  0  0  0  0  0  0
    1.8913    3.7867    3.4434 C   0  0  0  0  0  0  0  0  0  0  0  0
    1.4629    5.1043    4.0029 C   0  0  0  0  0  0  0  0  0  0  0  0
    1.8586    6.3388    3.1638 C   0  0  0  0  0  0  0  0  0  0  0  0
    1.1765    6.4478    1.8261 C   0  0  0  0  0  0  0  0  0  0  0  0
    0.4358    7.6635    1.4393 C   0  0  0  0  0  0  0  0  0  0  0  0
    1.2225    5.4475    0.9522 C   0  0  0  0  0  0  0  0  0  0  0  0
    0.5830    5.2835   -0.3614 C   0  0  0  0  0  0  0  0  0  0  0  0
    1.6328    4.7564   -1.3186 C   0  0  0  0  0  0  0  0  0  0  0  0
    2.4452    3.4416   -1.1762 C   0  0  0  0  0  0  0  0  0  0  0  0
    2.4739    2.4654   -2.3126 C   0  0  0  0  0  0  0  0  0  0  0  0
    3.2904    3.1805   -0.1617 C   0  0  0  0  0  0  0  0  0  0  0  0
    4.3447    2.1173   -0.0578 C   0  0  0  0  0  0  0  0  0  0  0  0
    5.7599    2.5831    0.3838 C   0  0  0  0  0  0  0  0  0  0  0  0
    5.9272    3.4227    1.6561 C   0  0  0  0  0  0  0  0  0  0  0  0
    6.7718    2.8499    2.7395 C   0  0  0  0  0  0  0  0  0  0  0  0
    5.3713    4.6244    1.8954 C   0  0  0  0  0  0  0  0  0  0  0  0
    5.4954    5.5718    3.0466 C   0  0  0  0  0  0  0  0  0  0  0  0
    5.9534    6.9938    2.6085 C   0  0  0  0  0  0  0  0  0  0  0  0
    5.0581    7.7951    1.6321 C   0  0  0  0  0  0  0  0  0  0  0  0
    4.4449    9.0844    2.0521 C   0  0  0  0  0  0  0  0  0  0  0  0
    4.9914    7.4845    0.3234 C   0  0  0  0  0  0  0  0  0  0  0  0
    4.1207    8.0482   -0.8157 C   0  0  0  0  0  0  0  0  0  0  0  0
    3.8292    7.1732   -2.0768 C   0  0  0  0  0  0  0  0  0  0  0  0
    4.3416    5.9633   -2.3649 C   0  0  0  0  0  0  0  0  0  0  0  0
    5.0737    5.2096   -1.3482 C   0  0  0  0  0  0  0  0  0  0  0  0
    3.9139    5.0431   -3.4646 C   0  0  0  0  0  0  0  0  0  0  0  0
    4.5114    4.0333   -3.7189 O   0  0  0  0  0  0  0  0  0  0  0  0
    2.6822    5.3976   -4.1787 C   0  0  0  0  0  0  0  0  0  0  0  0
    2.1986    6.6888   -4.0403 C   0  0  0  0  0  0  0  0  0  0  0  0
    1.1658    7.0779   -4.8929 C   0  0  0  0  0  0  0  0  0  0  0  0
    0.6009    6.1699   -5.8046 C   0  0  0  0  0  0  0  0  0  0  0  0
    0.9687    4.8306   -5.7956 C   0  0  0  0  0  0  0  0  0  0  0  0
    2.0187    4.4404   -4.9804 C   0  0  0  0  0  0  0  0  0  0  0  0
    2.7302    7.6364   -2.9998 C   0  0  0  0  0  0  0  0  0  0  0  0
    2.2167    8.7344   -2.8576 O   0  0  0  0  0  0  0  0  0  0  0  0
    0.6948   -0.2959   -1.1594 H   0  0  0  0  0  0  0  0  0  0  0  0
    0.7099   -1.0051    0.4586 H   0  0  0  0  0  0  0  0  0  0  0  0
    2.1310   -0.1018   -0.1414 H   0  0  0  0  0  0  0  0  0  0  0  0
   -1.3504    2.2231    0.0837 H   0  0  0  0  0  0  0  0  0  0  0  0
    0.1329    2.8311   -0.6239 H   0  0  0  0  0  0  0  0  0  0  0  0
   -0.6244    1.4958   -1.3791 H   0  0  0  0  0  0  0  0  0  0  0  0
    0.1791    2.2949    2.1164 H   0  0  0  0  0  0  0  0  0  0  0  0
    1.1173    0.4497    3.5613 H   0  0  0  0  0  0  0  0  0  0  0  0
    2.0697   -0.1620    2.2210 H   0  0  0  0  0  0  0  0  0  0  0  0
    3.5693    0.8736    3.7301 H   0  0  0  0  0  0  0  0  0  0  0  0
    3.5450    1.8624    2.3347 H   0  0  0  0  0  0  0  0  0  0  0  0
    3.8582    3.8655    5.3221 H   0  0  0  0  0  0  0  0  0  0  0  0
    2.4172    3.0598    6.0143 H   0  0  0  0  0  0  0  0  0  0  0  0
    3.8514    2.1086    5.5731 H   0  0  0  0  0  0  0  0  0  0  0  0
    1.4892    3.5706    2.4796 H   0  0  0  0  0  0  0  0  0  0  0  0
    0.3704    5.0736    4.0855 H   0  0  0  0  0  0  0  0  0  0  0  0
    1.8644    5.2171    5.0115 H   0  0  0  0  0  0  0  0  0  0  0  0
    1.6537    7.2294    3.7637 H   0  0  0  0  0  0  0  0  0  0  0  0
    2.9263    6.3577    2.9789 H   0  0  0  0  0  0  0  0  0  0  0  0
    0.9119    8.1079    0.5571 H   0  0  0  0  0  0  0  0  0  0  0  0
   -0.5865    7.3690    1.1858 H   0  0  0  0  0  0  0  0  0  0  0  0
    0.4163    8.3951    2.2413 H   0  0  0  0  0  0  0  0  0  0  0  0
    1.8709    4.6476    1.1918 H   0  0  0  0  0  0  0  0  0  0  0  0
   -0.2825    4.6347   -0.3077 H   0  0  0  0  0  0  0  0  0  0  0  0
    0.2195    6.2470   -0.7341 H   0  0  0  0  0  0  0  0  0  0  0  0
    1.1739    4.8234   -2.3023 H   0  0  0  0  0  0  0  0  0  0  0  0
    2.3466    5.5650   -1.2426 H   0  0  0  0  0  0  0  0  0  0  0  0
    3.4886    2.2641   -2.6750 H   0  0  0  0  0  0  0  0  0  0  0  0
    2.0593    1.5062   -2.0188 H   0  0  0  0  0  0  0  0  0  0  0  0
    1.8794    2.8208   -3.1355 H   0  0  0  0  0  0  0  0  0  0  0  0
    3.3392    3.8547    0.6632 H   0  0  0  0  0  0  0  0  0  0  0  0
    3.9854    1.3573    0.6262 H   0  0  0  0  0  0  0  0  0  0  0  0
    4.4541    1.5846   -1.0028 H   0  0  0  0  0  0  0  0  0  0  0  0
    6.3417    1.6583    0.4791 H   0  0  0  0  0  0  0  0  0  0  0  0
    6.2873    3.0879   -0.4359 H   0  0  0  0  0  0  0  0  0  0  0  0
    7.5924    3.5353    2.9712 H   0  0  0  0  0  0  0  0  0  0  0  0
    6.1400    2.7234    3.6251 H   0  0  0  0  0  0  0  0  0  0  0  0
    7.1890    1.8785    2.4768 H   0  0  0  0  0  0  0  0  0  0  0  0
    4.6672    5.0421    1.2170 H   0  0  0  0  0  0  0  0  0  0  0  0
    4.5267    5.6208    3.5350 H   0  0  0  0  0  0  0  0  0  0  0  0
    6.1616    5.1757    3.8161 H   0  0  0  0  0  0  0  0  0  0  0  0
    6.0980    7.5752    3.5250 H   0  0  0  0  0  0  0  0  0  0  0  0
    6.9504    6.8869    2.1577 H   0  0  0  0  0  0  0  0  0  0  0  0
    4.7938    9.8662    1.3618 H   0  0  0  0  0  0  0  0  0  0  0  0
    3.3568    9.0293    1.9923 H   0  0  0  0  0  0  0  0  0  0  0  0
    4.7521    9.3810    3.0547 H   0  0  0  0  0  0  0  0  0  0  0  0
    5.7372    6.7473    0.1037 H   0  0  0  0  0  0  0  0  0  0  0  0
    4.6405    8.9353   -1.1804 H   0  0  0  0  0  0  0  0  0  0  0  0
    3.1615    8.3569   -0.3760 H   0  0  0  0  0  0  0  0  0  0  0  0
    6.1051    5.5079   -1.2027 H   0  0  0  0  0  0  0  0  0  0  0  0
    4.4395    5.3497   -0.4792 H   0  0  0  0  0  0  0  0  0  0  0  0
    5.0708    4.1470   -1.5081 H   0  0  0  0  0  0  0  0  0  0  0  0
    0.8193    8.1060   -4.8762 H   0  0  0  0  0  0  0  0  0  0  0  0
   -0.1261    6.5145   -6.5340 H   0  0  0  0  0  0  0  0  0  0  0  0
    0.4882    4.1057   -6.4505 H   0  0  0  0  0  0  0  0  0  0  0  0
    2.2954    3.3861   -4.9857 H   0  0  0  0  0  0  0  0  0  0  0  0
  1  2  1  0  0  0  0
  1 44  1  0  0  0  0
  1 45  1  0  0  0  0
  1 46  1  0  0  0  0
  2  3  1  0  0  0  0
  2  4  2  0  0  0  0
  3 47  1  0  0  0  0
  3 48  1  0  0  0  0
  3 49  1  0  0  0  0
  4  5  1  0  0  0  0
  4 50  1  0  0  0  0
  5  6  1  0  0  0  0
  5 51  1  0  0  0  0
  5 52  1  0  0  0  0
  6  7  1  0  0  0  0
  6 53  1  0  0  0  0
  6 54  1  0  0  0  0
  7  8  1  0  0  0  0
  7  9  2  0  0  0  0
  8 55  1  0  0  0  0
  8 56  1  0  0  0  0
  8 57  1  0  0  0  0
  9 10  1  0  0  0  0
  9 58  1  0  0  0  0
 10 11  1  0  0  0  0
 10 59  1  0  0  0  0
 10 60  1  0  0  0  0
 11 12  1  0  0  0  0
 11 61  1  0  0  0  0
 11 62  1  0  0  0  0
 12 13  1  0  0  0  0
 12 14  2  0  0  0  0
 13 63  1  0  0  0  0
 13 64  1  0  0  0  0
 13 65  1  0  0  0  0
 14 15  1  0  0  0  0
 14 66  1  0  0  0  0
 15 16  1  0  0  0  0
 15 67  1  0  0  0  0
 15 68  1  0  0  0  0
 16 17  1  0  0  0  0
 16 69  1  0  0  0  0
 16 70  1  0  0  0  0
 17 18  1  0  0  0  0
 17 19  2  0  0  0  0
 18 71  1  0  0  0  0
 18 72  1  0  0  0  0
 18 73  1  0  0  0  0
 19 20  1  0  0  0  0
 19 74  1  0  0  0  0
 20 21  1  0  0  0  0
 20 75  1  0  0  0  0
 20 76  1  0  0  0  0
 21 22  1  0  0  0  0
 21 77  1  0  0  0  0
 21 78  1  0  0  0  0
 22 23  1  0  0  0  0
 22 24  2  0  0  0  0
 23 79  1  0  0  0  0
 23 80  1  0  0  0  0
 23 81  1  0  0  0  0
 24 25  1  0  0  0  0
 24 82  1  0  0  0  0
 25 26  1  0  0  0  0
 25 83  1  0  0  0  0
 25 84  1  0  0  0  0
 26 27  1  0  0  0  0
 26 85  1  0  0  0  0
 26 86  1  0  0  0  0
 27 28  1  0  0  0  0
 27 29  2  0  0  0  0
 28 87  1  0  0  0  0
 28 88  1  0  0  0  0
 28 89  1  0  0  0  0
 29 30  1  0  0  0  0
 29 90  1  0  0  0  0
 30 31  1  0  0  0  0
 30 91  1  0  0  0  0
 30 92  1  0  0  0  0
 31 32  2  0  0  0  0
 31 42  1  0  0  0  0
 32 33  1  0  0  0  0
 32 34  1  0  0  0  0
 33 93  1  0  0  0  0
 33 94  1  0  0  0  0
 33 95  1  0  0  0  0
 34 35  2  0  0  0  0
 34 36  1  0  0  0  0
 36 37  2  0  0  0  0
 36 41  1  0  0  0  0
 37 38  1  0  0  0  0
 37 42  1  0  0  0  0
 38 39  2  0  0  0  0
 38 96  1  0  0  0  0
 39 40  1  0  0  0  0
 39 97  1  0  0  0  0
 40 41  2  0  0  0  0
 40 98  1  0  0  0  0
 41 99  1  0  0  0  0
 42 43  2  0  0  0  0
M  END
>  <DRUGBANK_ID>
DB14936

>  <COMMON_NAME>
Menaquinone 6

>  <CAS_NUMBER>
84-81-1

>  <UNII>
71ANL51TLA

>  <SYNONYMS>
VITAMIN K2

$$$$
