283
 OpenBabel10282417163D

 37 38  0  0  0  0  0  0  0  0999 V2000
    1.3564   -0.1868   -0.0864 C   0  0  0  0  0  0  0  0  0  0  0  0
    0.4592   -1.2374   -0.0843 C   0  0  0  0  0  0  0  0  0  0  0  0
   -1.3974    0.2390   -0.0225 C   0  0  0  0  0  0  0  0  0  0  0  0
   -0.4859    1.3241   -0.0137 C   0  0  0  0  0  0  0  0  0  0  0  0
    0.9015    1.1175   -0.1093 C   0  0  0  0  0  0  0  0  0  0  0  0
    1.7253    2.2114   -0.2425 O   0  0  0  0  0  0  0  0  0  0  0  0
    3.1541    1.9724   -0.4386 C   0  0  0  0  0  0  0  0  0  0  0  0
    4.7070    0.1716    3.1966 C   0  0  0  0  0  0  0  0  0  0  0  0
    4.1636    0.8018    1.9246 C   0  0  0  0  0  0  0  0  0  0  0  0
    3.6975    1.3423    0.8334 C   0  0  0  0  0  0  0  0  0  0  0  0
   -0.9076   -1.0625   -0.0677 C   0  0  0  0  0  0  0  0  0  0  0  0
   -2.7033   -2.3628    1.2617 O   0  0  0  0  0  0  0  0  0  0  0  0
   -2.6479   -2.6056   -1.2540 O   0  0  0  0  0  0  0  0  0  0  0  0
   -1.9701   -2.4946    0.0237 S   0  0  0  0  0  0  0  0  0  0  0  0
   -0.1760   -3.9535    1.4634 C   0  0  0  0  0  0  0  0  0  0  0  0
   -0.9497   -3.8532    0.2105 N   0  0  0  0  0  0  0  0  0  0  0  0
   -0.1793   -4.4647   -0.9153 C   0  0  0  0  0  0  0  0  0  0  0  0
    1.1848   -4.8972   -0.3181 C   0  0  1  0  0  0  0  0  0  0  0  0
    2.6352   -3.8521   -0.7730 S   0  0  0  0  0  0  0  0  0  0  0  0
    0.8993   -4.9935    1.1795 C   0  0  0  0  0  0  0  0  0  0  0  0
    1.4809   -5.8755   -0.7066 H   0  0  0  0  0  0  0  0  0  0  0  0
    2.4031   -0.4611   -0.0632 H   0  0  0  0  0  0  0  0  0  0  0  0
    0.8746   -2.2153   -0.0854 H   0  0  0  0  0  0  0  0  0  0  0  0
   -2.4694    0.4221   -0.0043 H   0  0  0  0  0  0  0  0  0  0  0  0
   -0.8730    2.3367    0.0716 H   0  0  0  0  0  0  0  0  0  0  0  0
    3.3198    1.3401   -1.3172 H   0  0  0  0  0  0  0  0  0  0  0  0
    3.6263    2.9444   -0.6078 H   0  0  0  0  0  0  0  0  0  0  0  0
    5.3876    0.8668    3.6960 H   0  0  0  0  0  0  0  0  0  0  0  0
    3.8833   -0.0693    3.8742 H   0  0  0  0  0  0  0  0  0  0  0  0
    5.2496   -0.7466    2.9552 H   0  0  0  0  0  0  0  0  0  0  0  0
    0.2962   -3.0059    1.7232 H   0  0  0  0  0  0  0  0  0  0  0  0
   -0.8162   -4.2348    2.3022 H   0  0  0  0  0  0  0  0  0  0  0  0
   -0.7108   -5.3741   -1.2306 H   0  0  0  0  0  0  0  0  0  0  0  0
   -0.0924   -3.8137   -1.7888 H   0  0  0  0  0  0  0  0  0  0  0  0
    2.8265   -3.2201    0.3989 H   0  0  0  0  0  0  0  0  0  0  0  0
    1.7770   -4.8571    1.8182 H   0  0  0  0  0  0  0  0  0  0  0  0
    0.4829   -5.9841    1.3972 H   0  0  0  0  0  0  0  0  0  0  0  0
  1  2  1  0  0  0  0
  1  5  2  0  0  0  0
  1 22  1  0  0  0  0
  2 11  2  0  0  0  0
  2 23  1  0  0  0  0
  3 11  1  0  0  0  0
  3  4  2  0  0  0  0
  3 24  1  0  0  0  0
  4  5  1  0  0  0  0
  4 25  1  0  0  0  0
  5  6  1  0  0  0  0
  6  7  1  0  0  0  0
  7 10  1  0  0  0  0
  7 26  1  0  0  0  0
  7 27  1  0  0  0  0
  8  9  1  0  0  0  0
  8 28  1  0  0  0  0
  8 29  1  0  0  0  0
  8 30  1  0  0  0  0
  9 10  3  0  0  0  0
 11 14  1  0  0  0  0
 12 14  2  0  0  0  0
 13 14  2  0  0  0  0
 14 16  1  0  0  0  0
 15 16  1  0  0  0  0
 15 20  1  0  0  0  0
 15 31  1  0  0  0  0
 15 32  1  0  0  0  0
 16 17  1  0  0  0  0
 17 18  1  0  0  0  0
 17 33  1  0  0  0  0
 17 34  1  0  0  0  0
 18 20  1  0  0  0  0
 18 21  1  6  0  0  0
 18 19  1  0  0  0  0
 19 35  1  0  0  0  0
 20 36  1  0  0  0  0
 20 37  1  0  0  0  0
M  END
>  <DRUGBANK_ID>
DB06943

>  <COMMON_NAME>
(3S)-1-{[4-(but-2-yn-1-yloxy)phenyl]sulfonyl}pyrrolidine-3-thiol

$$$$
