OEV
 OpenBabel10282417173D

 49 49  0  0  0  0  0  0  0  0999 V2000
    0.9777   -1.4992    0.3255 C   0  0  1  0  0  0  0  0  0  0  0  0
    2.0654   -2.4238   -0.0228 N   0  0  0  0  0  0  0  0  0  0  0  0
    1.2269   -0.0760   -0.2387 C   0  0  2  0  0  0  0  0  0  0  0  0
    2.4485    0.5163    0.2369 O   0  0  0  0  0  0  0  0  0  0  0  0
    0.0529    0.8251    0.1984 C   0  0  1  0  0  0  0  0  0  0  0  0
    0.2705    2.1708   -0.2508 O   0  0  0  0  0  0  0  0  0  0  0  0
   -1.3310    0.3443   -0.3136 C   0  0  2  0  0  0  0  0  0  0  0  0
   -2.3272    0.8290    0.5750 O   0  0  0  0  0  0  0  0  0  0  0  0
   -1.4563   -1.1359   -0.3934 C   0  0  0  0  0  0  0  0  0  0  0  0
   -2.7228   -1.8130   -0.8786 C   0  0  0  0  0  0  0  0  0  0  0  0
   -3.7987   -1.6282    0.0191 O   0  0  0  0  0  0  0  0  0  0  0  0
   -0.3972   -1.8919   -0.1427 C   0  0  0  0  0  0  0  0  0  0  0  0
    1.9635   -3.7684    0.5626 C   0  0  0  0  0  0  0  0  0  0  0  0
    0.7267   -4.5486    0.1194 C   0  0  0  0  0  0  0  0  0  0  0  0
    0.6274   -4.5477   -1.4322 C   0  0  0  0  0  0  0  0  0  0  0  0
    1.7210   -5.4396   -1.9946 C   0  0  0  0  0  0  0  0  0  0  0  0
    1.5319   -6.8573   -1.4579 C   0  0  0  0  0  0  0  0  0  0  0  0
    0.1747   -7.4266   -1.8912 C   0  0  0  0  0  0  0  0  0  0  0  0
    0.0738   -7.4982   -3.4141 C   0  0  0  0  0  0  0  0  0  0  0  0
    1.1872   -8.3717   -3.9681 C   0  0  0  0  0  0  0  0  0  0  0  0
    0.9837   -1.4549    1.4216 H   0  0  0  0  0  0  0  0  0  0  0  0
    1.3055   -0.1028   -1.3341 H   0  0  0  0  0  0  0  0  0  0  0  0
    0.0475    0.8803    1.2952 H   0  0  0  0  0  0  0  0  0  0  0  0
   -1.5230    0.7543   -1.3109 H   0  0  0  0  0  0  0  0  0  0  0  0
    2.2013   -2.4651   -1.0324 H   0  0  0  0  0  0  0  0  0  0  0  0
    2.5395    0.2927    1.1795 H   0  0  0  0  0  0  0  0  0  0  0  0
    1.2128    2.3540   -0.0635 H   0  0  0  0  0  0  0  0  0  0  0  0
   -2.2577    1.7983    0.5301 H   0  0  0  0  0  0  0  0  0  0  0  0
   -2.9983   -1.4687   -1.8766 H   0  0  0  0  0  0  0  0  0  0  0  0
   -2.5916   -2.9032   -0.9541 H   0  0  0  0  0  0  0  0  0  0  0  0
   -3.4515   -1.7828    0.9144 H   0  0  0  0  0  0  0  0  0  0  0  0
   -0.6185   -2.8954   -0.4162 H   0  0  0  0  0  0  0  0  0  0  0  0
    2.8559   -4.3413    0.2805 H   0  0  0  0  0  0  0  0  0  0  0  0
    1.9924   -3.7144    1.6541 H   0  0  0  0  0  0  0  0  0  0  0  0
    0.7163   -5.5539    0.5345 H   0  0  0  0  0  0  0  0  0  0  0  0
   -0.1578   -4.1791    0.6451 H   0  0  0  0  0  0  0  0  0  0  0  0
   -0.3751   -4.8477   -1.7587 H   0  0  0  0  0  0  0  0  0  0  0  0
    0.7448   -3.5593   -1.8954 H   0  0  0  0  0  0  0  0  0  0  0  0
    1.7089   -5.4015   -3.0887 H   0  0  0  0  0  0  0  0  0  0  0  0
    2.7093   -5.0558   -1.7236 H   0  0  0  0  0  0  0  0  0  0  0  0
    2.3667   -7.4825   -1.7730 H   0  0  0  0  0  0  0  0  0  0  0  0
    1.6095   -6.8964   -0.3693 H   0  0  0  0  0  0  0  0  0  0  0  0
    0.0396   -8.4172   -1.4483 H   0  0  0  0  0  0  0  0  0  0  0  0
   -0.6595   -6.8295   -1.5001 H   0  0  0  0  0  0  0  0  0  0  0  0
   -0.9034   -7.8961   -3.7004 H   0  0  0  0  0  0  0  0  0  0  0  0
    0.1279   -6.4989   -3.8632 H   0  0  0  0  0  0  0  0  0  0  0  0
    1.1180   -9.3745   -3.5363 H   0  0  0  0  0  0  0  0  0  0  0  0
    1.1276   -8.4361   -5.0539 H   0  0  0  0  0  0  0  0  0  0  0  0
    2.1796   -7.9735   -3.7327 H   0  0  0  0  0  0  0  0  0  0  0  0
  1  2  1  0  0  0  0
  1 21  1  1  0  0  0
  2 13  1  0  0  0  0
  2 25  1  0  0  0  0
  3  1  1  0  0  0  0
  3  4  1  0  0  0  0
  3 22  1  6  0  0  0
  4 26  1  0  0  0  0
  5  3  1  0  0  0  0
  5 23  1  1  0  0  0
  5  6  1  0  0  0  0
  6 27  1  0  0  0  0
  7  5  1  0  0  0  0
  7  9  1  0  0  0  0
  7 24  1  6  0  0  0
  7  8  1  0  0  0  0
  8 28  1  0  0  0  0
  9 12  2  0  0  0  0
 10  9  1  0  0  0  0
 10 11  1  0  0  0  0
 10 29  1  0  0  0  0
 10 30  1  0  0  0  0
 11 31  1  0  0  0  0
 12  1  1  0  0  0  0
 12 32  1  0  0  0  0
 13 14  1  0  0  0  0
 13 33  1  0  0  0  0
 13 34  1  0  0  0  0
 14 15  1  0  0  0  0
 14 35  1  0  0  0  0
 14 36  1  0  0  0  0
 15 37  1  0  0  0  0
 15 38  1  0  0  0  0
 16 15  1  0  0  0  0
 16 39  1  0  0  0  0
 16 40  1  0  0  0  0
 17 16  1  0  0  0  0
 17 41  1  0  0  0  0
 17 42  1  0  0  0  0
 18 17  1  0  0  0  0
 18 43  1  0  0  0  0
 18 44  1  0  0  0  0
 19 18  1  0  0  0  0
 19 45  1  0  0  0  0
 19 46  1  0  0  0  0
 20 19  1  0  0  0  0
 20 47  1  0  0  0  0
 20 48  1  0  0  0  0
 20 49  1  0  0  0  0
M  END
>  <DRUGBANK_ID>
DB08321

>  <COMMON_NAME>
(1S,2S,3R,6R)-4-(hydroxymethyl)-6-(octylamino)cyclohex-4-ene-1,2,3-triol

$$$$
