
 OpenBabel10282417213D

 28 28  0  0  0  0  0  0  0  0999 V2000
    0.9592    0.2884    0.0185 N   0  0  0  0  0  0  0  0  0  0  0  0
    0.4309    0.0220   -1.3316 C   0  0  1  0  0  0  0  0  0  0  0  0
    0.9564   -1.3055   -1.9241 C   0  0  0  0  0  0  0  0  0  0  0  0
    0.4625   -2.4859   -1.2413 O   0  0  0  0  0  0  0  0  0  0  0  0
    0.9296   -2.7197    0.0061 C   0  0  0  0  0  0  0  0  0  0  0  0
    1.7744   -2.0681    0.6085 O   0  0  0  0  0  0  0  0  0  0  0  0
    0.3119   -3.7587    0.6031 N   0  0  0  0  0  0  0  0  0  0  0  0
   -1.1189    0.0430   -1.3497 C   0  0  0  0  0  0  0  0  0  0  0  0
   -1.6350    1.2924   -0.6773 C   0  0  0  0  0  0  0  0  0  0  0  0
   -2.1287    1.2206    0.6321 C   0  0  0  0  0  0  0  0  0  0  0  0
   -2.3296    2.3861    1.3657 C   0  0  0  0  0  0  0  0  0  0  0  0
   -2.0280    3.6237    0.7993 C   0  0  0  0  0  0  0  0  0  0  0  0
   -1.5424    3.6993   -0.5055 C   0  0  0  0  0  0  0  0  0  0  0  0
   -1.4012    2.5418   -1.2642 C   0  0  0  0  0  0  0  0  0  0  0  0
    0.6019   -0.4317    0.6531 H   0  0  0  0  0  0  0  0  0  0  0  0
    1.9621    0.0929    0.0415 H   0  0  0  0  0  0  0  0  0  0  0  0
    0.8044    0.8445   -1.9558 H   0  0  0  0  0  0  0  0  0  0  0  0
    0.6050   -1.3714   -2.9628 H   0  0  0  0  0  0  0  0  0  0  0  0
    2.0523   -1.3193   -1.9680 H   0  0  0  0  0  0  0  0  0  0  0  0
   -0.3123   -4.3770    0.1108 H   0  0  0  0  0  0  0  0  0  0  0  0
    0.5609   -3.9409    1.5652 H   0  0  0  0  0  0  0  0  0  0  0  0
   -1.4856    0.0045   -2.3833 H   0  0  0  0  0  0  0  0  0  0  0  0
   -1.5200   -0.8436   -0.8431 H   0  0  0  0  0  0  0  0  0  0  0  0
   -2.2839    0.2552    1.1075 H   0  0  0  0  0  0  0  0  0  0  0  0
   -2.6652    2.3235    2.3964 H   0  0  0  0  0  0  0  0  0  0  0  0
   -2.1543    4.5311    1.3813 H   0  0  0  0  0  0  0  0  0  0  0  0
   -1.2275    4.6540   -0.9163 H   0  0  0  0  0  0  0  0  0  0  0  0
   -1.0255    2.6082   -2.2820 H   0  0  0  0  0  0  0  0  0  0  0  0
  1 15  1  0  0  0  0
  1 16  1  0  0  0  0
  2  1  1  0  0  0  0
  2  3  1  0  0  0  0
  2  8  1  0  0  0  0
  2 17  1  6  0  0  0
  3  4  1  0  0  0  0
  3 18  1  0  0  0  0
  3 19  1  0  0  0  0
  4  5  1  0  0  0  0
  5  6  2  0  0  0  0
  5  7  1  0  0  0  0
  7 20  1  0  0  0  0
  7 21  1  0  0  0  0
  8  9  1  0  0  0  0
  8 22  1  0  0  0  0
  8 23  1  0  0  0  0
  9 10  2  0  0  0  0
  9 14  1  0  0  0  0
 10 11  1  0  0  0  0
 10 24  1  0  0  0  0
 11 12  2  0  0  0  0
 11 25  1  0  0  0  0
 12 13  1  0  0  0  0
 12 26  1  0  0  0  0
 13 14  2  0  0  0  0
 13 27  1  0  0  0  0
 14 28  1  0  0  0  0
M  END
>  <DRUGBANK_ID>
DB14754

>  <SECONDARY_ACCESSION_NUMBERS>
DB05795

>  <COMMON_NAME>
Solriamfetol

>  <CAS_NUMBER>
178429-62-4

>  <UNII>
939U7C91AI

>  <SYNONYMS>
(2R)-2-amino-3-phenylpropyl carbamate; Solriamfetol

$$$$
