
 OpenBabel10282417143D

 37 37  0  0  1  0  0  0  0  0999 V2000
    2.7174   -1.5581    6.1478 C   0  0  0  0  0  0  0  0  0  0  0  0
    1.9763   -0.4980    5.3339 C   0  0  0  0  0  0  0  0  0  0  0  0
    1.6446    0.5969    6.3469 C   0  0  0  0  0  0  0  0  0  0  0  0
    2.8153   -0.0704    4.2033 N   0  0  0  0  0  0  0  0  0  0  0  0
    2.1599    0.8390    3.2495 C   0  0  0  0  0  0  0  0  0  0  0  0
    1.8063    2.1868    3.8302 C   0  0  0  0  0  0  0  0  0  0  0  0
    2.8248    3.0666    4.2202 C   0  0  0  0  0  0  0  0  0  0  0  0
    2.5201    4.2193    4.9372 C   0  0  0  0  0  0  0  0  0  0  0  0
    1.1965    4.4946    5.3035 C   0  0  0  0  0  0  0  0  0  0  0  0
    0.8727    5.7772    6.0309 C   0  0  0  0  0  0  0  0  0  0  0  0
    0.0485    6.7617    5.1642 C   0  0  2  0  0  0  0  0  0  0  0  0
    0.1454    6.4813    3.7131 N   0  0  0  0  0  0  0  0  0  0  0  0
    0.5684    8.1769    5.4311 C   0  0  0  0  0  0  0  0  0  0  0  0
   -0.3554    9.0471    5.8899 O   0  0  0  0  0  0  0  0  0  0  0  0
    1.7279    8.5244    5.2096 O   0  0  0  0  0  0  0  0  0  0  0  0
    0.1698    3.6350    4.8936 C   0  0  0  0  0  0  0  0  0  0  0  0
    0.4699    2.4993    4.1433 C   0  0  0  0  0  0  0  0  0  0  0  0
    3.6379   -1.1440    6.5773 H   0  0  0  0  0  0  0  0  0  0  0  0
    2.9691   -2.4401    5.5559 H   0  0  0  0  0  0  0  0  0  0  0  0
    2.0856   -1.8812    6.9849 H   0  0  0  0  0  0  0  0  0  0  0  0
    1.0546   -0.9434    4.9396 H   0  0  0  0  0  0  0  0  0  0  0  0
    2.5448    1.1247    6.6794 H   0  0  0  0  0  0  0  0  0  0  0  0
    0.9524    1.3198    5.9608 H   0  0  0  0  0  0  0  0  0  0  0  0
    1.1063    0.2049    7.2115 H   0  0  0  0  0  0  0  0  0  0  0  0
    3.6738    0.3574    4.5437 H   0  0  0  0  0  0  0  0  0  0  0  0
    2.8432    1.0141    2.4081 H   0  0  0  0  0  0  0  0  0  0  0  0
    1.2758    0.3587    2.8144 H   0  0  0  0  0  0  0  0  0  0  0  0
    3.8649    2.8270    4.0154 H   0  0  0  0  0  0  0  0  0  0  0  0
    3.3212    4.9047    5.2041 H   0  0  0  0  0  0  0  0  0  0  0  0
    0.3298    5.5348    6.9552 H   0  0  0  0  0  0  0  0  0  0  0  0
    1.8116    6.2372    6.3665 H   0  0  0  0  0  0  0  0  0  0  0  0
   -1.0081    6.6828    5.4458 H   0  0  0  0  0  0  0  0  0  0  0  0
    1.1356    6.3328    3.4904 H   0  0  0  0  0  0  0  0  0  0  0  0
   -0.1565    7.2677    3.1478 H   0  0  0  0  0  0  0  0  0  0  0  0
   -1.2583    8.6897    5.9868 H   0  0  0  0  0  0  0  0  0  0  0  0
   -0.8646    3.8448    5.1562 H   0  0  0  0  0  0  0  0  0  0  0  0
   -0.3211    1.7715    3.9656 H   0  0  0  0  0  0  0  0  0  0  0  0
  1  2  1  0  0  0  0
  1 18  1  0  0  0  0
  1 19  1  0  0  0  0
  1 20  1  0  0  0  0
  2  3  1  0  0  0  0
  2  4  1  0  0  0  0
  2 21  1  0  0  0  0
  3 22  1  0  0  0  0
  3 23  1  0  0  0  0
  3 24  1  0  0  0  0
  4  5  1  0  0  0  0
  4 25  1  0  0  0  0
  5  6  1  0  0  0  0
  5 26  1  0  0  0  0
  5 27  1  0  0  0  0
  6  7  2  0  0  0  0
  6 17  1  0  0  0  0
  7  8  1  0  0  0  0
  7 28  1  0  0  0  0
  8  9  2  0  0  0  0
  8 29  1  0  0  0  0
  9 10  1  0  0  0  0
  9 16  1  0  0  0  0
 10 30  1  0  0  0  0
 10 31  1  0  0  0  0
 11 13  1  0  0  0  0
 11 32  1  1  0  0  0
 11 12  1  0  0  0  0
 11 10  1  0  0  0  0
 12 33  1  0  0  0  0
 12 34  1  0  0  0  0
 13 14  1  0  0  0  0
 13 15  2  0  0  0  0
 14 35  1  0  0  0  0
 16 17  2  0  0  0  0
 16 36  1  0  0  0  0
 17 37  1  0  0  0  0
M  END
>  <DRUGBANK_ID>
DB04292

>  <SECONDARY_ACCESSION_NUMBERS>
EXPT01821

>  <COMMON_NAME>
4-[(Isopropylamino)Methyl]Phenylalanine

$$$$
