
 OpenBabel10282417143D

 28 27  0  0  0  0  0  0  0  0999 V2000
    1.0446   -0.0923    0.1640 C   0  0  2  0  0  0  0  0  0  0  0  0
    0.5509    1.1417   -0.6170 C   0  0  0  0  0  0  0  0  0  0  0  0
    0.5756   -1.3785   -0.3555 N   0  0  0  0  0  0  0  0  0  0  0  0
    0.5045   -0.0127    1.6030 C   0  0  0  0  0  0  0  0  0  0  0  0
    1.0013    1.2187   -2.0774 C   0  0  0  0  0  0  0  0  0  0  0  0
    1.4547   -0.0311    2.5636 O   0  0  0  0  0  0  0  0  0  0  0  0
   -0.6921    0.0195    1.8655 O   0  0  0  0  0  0  0  0  0  0  0  0
    0.4705    0.1274   -2.9997 C   0  0  0  0  0  0  0  0  0  0  0  0
   -0.9940    0.0858   -3.0264 N   0  0  0  0  0  0  0  0  0  0  0  0
   -1.6586    0.0476   -4.2224 C   0  0  0  0  0  0  0  0  0  0  0  0
   -3.0210    0.0307   -4.1545 N   0  0  0  0  0  0  0  0  0  0  0  0
   -0.9279    0.0555   -5.2883 N   0  0  0  0  0  0  0  0  0  0  0  0
   -3.7803    0.0572   -5.2721 N   0  3  0  0  0  0  0  0  0  0  0  0
   -4.9947    0.0538   -5.0471 O   0  0  0  0  0  0  0  0  0  0  0  0
   -3.2428    0.0812   -6.3788 O   0  5  0  0  0  0  0  0  0  0  0  0
    2.1405   -0.0949    0.1693 H   0  0  0  0  0  0  0  0  0  0  0  0
   -0.5416    1.2235   -0.5656 H   0  0  0  0  0  0  0  0  0  0  0  0
    0.9224    2.0441   -0.1080 H   0  0  0  0  0  0  0  0  0  0  0  0
   -0.4199   -1.3147   -0.5698 H   0  0  0  0  0  0  0  0  0  0  0  0
    1.0661   -1.6708   -1.1911 H   0  0  0  0  0  0  0  0  0  0  0  0
    0.6917    2.1895   -2.4887 H   0  0  0  0  0  0  0  0  0  0  0  0
    2.0984    1.2126   -2.1141 H   0  0  0  0  0  0  0  0  0  0  0  0
    2.3656   -0.1447    2.2350 H   0  0  0  0  0  0  0  0  0  0  0  0
    0.8973    0.3259   -3.9878 H   0  0  0  0  0  0  0  0  0  0  0  0
    0.8708   -0.8576   -2.7715 H   0  0  0  0  0  0  0  0  0  0  0  0
   -1.4748   -0.0056   -2.1410 H   0  0  0  0  0  0  0  0  0  0  0  0
   -3.4867    0.0214   -3.2659 H   0  0  0  0  0  0  0  0  0  0  0  0
   -1.5262    0.0583   -6.1244 H   0  0  0  0  0  0  0  0  0  0  0  0
  1  2  1  0  0  0  0
  1  3  1  0  0  0  0
  1  4  1  0  0  0  0
  1 16  1  1  0  0  0
  2  5  1  0  0  0  0
  2 17  1  0  0  0  0
  2 18  1  0  0  0  0
  3 19  1  0  0  0  0
  3 20  1  0  0  0  0
  4  6  1  0  0  0  0
  4  7  2  0  0  0  0
  5  8  1  0  0  0  0
  5 21  1  0  0  0  0
  5 22  1  0  0  0  0
  6 23  1  0  0  0  0
  8  9  1  0  0  0  0
  8 24  1  0  0  0  0
  8 25  1  0  0  0  0
  9 10  1  0  0  0  0
  9 26  1  0  0  0  0
 10 11  1  0  0  0  0
 10 12  2  0  0  0  0
 11 13  1  0  0  0  0
 11 27  1  0  0  0  0
 12 28  1  0  0  0  0
 13 14  2  0  0  0  0
 13 15  1  0  0  0  0
M  CHG  2  13   1  15  -1
M  END
>  <DRUGBANK_ID>
DB04223

>  <SECONDARY_ACCESSION_NUMBERS>
EXPT02387

>  <COMMON_NAME>
Nitroarginine

>  <CAS_NUMBER>
2149-70-4

>  <UNII>
7O8V7H6P2J

>  <SYNONYMS>
L-NNA; N(gamma)-nitro-L-arginine; Ngamma-Nitro-L-arginine; omega-Nitroarginine

$$$$
