
 OpenBabel10282417203D

 42 43  0  0  0  0  0  0  0  0999 V2000
    0.8186    0.0032   -0.1126 C   0  0  0  0  0  0  0  0  0  0  0  0
    3.2729    1.2371    3.1804 C   0  0  0  0  0  0  0  0  0  0  0  0
   -0.7710   -2.6791    1.6336 C   0  0  0  0  0  0  0  0  0  0  0  0
    2.0614   -1.0687    5.1356 C   0  0  0  0  0  0  0  0  0  0  0  0
    1.6956   -1.4573    6.4143 C   0  0  0  0  0  0  0  0  0  0  0  0
    0.5368   -2.0119    1.3962 C   0  0  0  0  0  0  0  0  0  0  0  0
   -1.5745   -1.5212    2.1448 C   0  0  0  0  0  0  0  0  0  0  0  0
    2.5898   -3.3353    4.5444 C   0  0  0  0  0  0  0  0  0  0  0  0
    1.0998    0.3073    2.3312 C   0  0  0  0  0  0  0  0  0  0  0  0
    2.6109   -1.9725    4.2221 C   0  0  0  0  0  0  0  0  0  0  0  0
    1.7875   -2.7878    6.7947 C   0  0  0  0  0  0  0  0  0  0  0  0
    2.1787   -3.7407    5.8455 C   0  0  0  0  0  0  0  0  0  0  0  0
    0.3468   -0.5155    1.2490 C   0  0  3  0  0  0  0  0  0  0  0  0
    1.4073   -3.0669    8.4506 Cl  0  0  0  0  0  0  0  0  0  0  0  0
    1.1890   -6.2017    5.2469 N   0  0  0  0  0  0  0  0  0  0  0  0
    2.6137    0.1484    2.4029 N   0  0  0  0  0  0  0  0  0  0  0  0
    3.6173   -5.9121    5.8743 O   0  0  0  0  0  0  0  0  0  0  0  0
    1.7760   -5.7246    7.5833 O   0  0  0  0  0  0  0  0  0  0  0  0
    3.0542   -2.3085    1.6121 O   0  0  0  0  0  0  0  0  0  0  0  0
    4.7739   -1.1584    2.9679 O   0  0  0  0  0  0  0  0  0  0  0  0
   -1.0891   -0.3598    1.4293 O   0  0  0  0  0  0  0  0  0  0  0  0
    2.3067   -5.4565    6.2699 S   0  0  0  0  0  0  0  0  0  0  0  0
    3.3695   -1.3927    2.6730 S   0  0  0  0  0  0  0  0  0  0  0  0
    0.4863    1.0319   -0.2939 H   0  0  0  0  0  0  0  0  0  0  0  0
    0.4477   -0.6142   -0.9339 H   0  0  0  0  0  0  0  0  0  0  0  0
    1.9153   -0.0032   -0.1672 H   0  0  0  0  0  0  0  0  0  0  0  0
    3.0957    1.1492    4.2484 H   0  0  0  0  0  0  0  0  0  0  0  0
    4.3563    1.2064    3.0465 H   0  0  0  0  0  0  0  0  0  0  0  0
    2.9176    2.2236    2.8839 H   0  0  0  0  0  0  0  0  0  0  0  0
   -1.1406   -3.0999    0.6975 H   0  0  0  0  0  0  0  0  0  0  0  0
   -0.6581   -3.4936    2.3621 H   0  0  0  0  0  0  0  0  0  0  0  0
    1.8851   -0.0276    4.9307 H   0  0  0  0  0  0  0  0  0  0  0  0
    1.3686   -0.6920    7.1175 H   0  0  0  0  0  0  0  0  0  0  0  0
    1.0294   -2.2044    2.3363 H   0  0  0  0  0  0  0  0  0  0  0  0
    1.0574   -2.4581    0.5479 H   0  0  0  0  0  0  0  0  0  0  0  0
   -2.6428   -1.6816    1.9902 H   0  0  0  0  0  0  0  0  0  0  0  0
   -1.3908   -1.3656    3.2164 H   0  0  0  0  0  0  0  0  0  0  0  0
    2.9172   -4.0710    3.8092 H   0  0  0  0  0  0  0  0  0  0  0  0
    0.8789    1.3738    2.1501 H   0  0  0  0  0  0  0  0  0  0  0  0
    0.6419    0.1269    3.3049 H   0  0  0  0  0  0  0  0  0  0  0  0
    1.2661   -7.2101    5.4237 H   0  0  0  0  0  0  0  0  0  0  0  0
    0.2365   -5.9106    5.4727 H   0  0  0  0  0  0  0  0  0  0  0  0
  1 24  1  0  0  0  0
  1 25  1  0  0  0  0
  1 26  1  0  0  0  0
  2 27  1  0  0  0  0
  2 28  1  0  0  0  0
  2 29  1  0  0  0  0
  3 30  1  0  0  0  0
  3 31  1  0  0  0  0
  4 32  1  0  0  0  0
  5  4  2  0  0  0  0
  5 33  1  0  0  0  0
  6  3  1  0  0  0  0
  6 34  1  0  0  0  0
  6 35  1  0  0  0  0
  7  3  1  0  0  0  0
  7 36  1  0  0  0  0
  7 37  1  0  0  0  0
  8 38  1  0  0  0  0
  9 39  1  0  0  0  0
  9 40  1  0  0  0  0
 10  4  1  0  0  0  0
 10  8  2  0  0  0  0
 11  5  1  0  0  0  0
 12  8  1  0  0  0  0
 12 11  2  0  0  0  0
 13  1  1  0  0  0  0
 13  6  1  0  0  0  0
 13  9  1  0  0  0  0
 14 11  1  0  0  0  0
 15 41  1  0  0  0  0
 15 42  1  0  0  0  0
 16  2  1  0  0  0  0
 16  9  1  0  0  0  0
 21  7  1  0  0  0  0
 21 13  1  0  0  0  0
 22 12  1  0  0  0  0
 22 15  1  0  0  0  0
 22 17  2  0  0  0  0
 22 18  2  0  0  0  0
 23 10  1  0  0  0  0
 23 16  1  0  0  0  0
 23 19  2  0  0  0  0
 23 20  2  0  0  0  0
M  END
>  <DRUGBANK_ID>
DB13405

>  <COMMON_NAME>
Mefruside

>  <CAS_NUMBER>
7195-27-9

>  <UNII>
X1NS9SNS92

>  <SYNONYMS>
Mefruside

$$$$
