NN1
 OpenBabel10282417173D

 56 59  0  0  0  0  0  0  0  0999 V2000
   -5.1360    4.6274    3.2387 C   0  0  0  0  0  0  0  0  0  0  0  0
    2.3868    4.4117    7.7922 C   0  0  0  0  0  0  0  0  0  0  0  0
   -6.0471    4.2018    2.2627 C   0  0  0  0  0  0  0  0  0  0  0  0
   -4.6800    3.6491    4.1292 C   0  0  0  0  0  0  0  0  0  0  0  0
   -5.0103    2.3088    4.0415 C   0  0  0  0  0  0  0  0  0  0  0  0
   -5.8907    1.9176    3.0671 C   0  0  0  0  0  0  0  0  0  0  0  0
   -0.0668    5.5937    3.1099 C   0  0  1  0  0  0  0  0  0  0  0  0
    2.1160    5.2502    2.0226 C   0  0  0  0  0  0  0  0  0  0  0  0
    0.9701    4.8904    3.9866 C   0  0  1  0  0  0  0  0  0  0  0  0
    2.6478    6.0467    4.3355 C   0  0  0  0  0  0  0  0  0  0  0  0
    2.0075    5.3516    5.3490 C   0  0  1  0  0  0  0  0  0  0  0  0
    1.3502    6.9446    4.3274 C   0  0  0  0  0  0  0  0  0  0  0  0
   -4.3356    6.2799    5.6599 C   0  0  0  0  0  0  0  0  0  0  0  0
   -3.7530    6.4090    4.2339 C   0  0  0  0  0  0  0  0  0  0  0  0
   -3.6137    7.9327    4.0073 C   0  0  0  0  0  0  0  0  0  0  0  0
   -4.7421    5.9482    3.2694 O   0  0  0  0  0  0  0  0  0  0  0  0
   -2.3397    5.6722    4.0618 C   0  0  0  0  0  0  0  0  0  0  0  0
   -2.2199    4.4472    4.1055 O   0  0  0  0  0  0  0  0  0  0  0  0
   -1.1869    6.3548    3.7547 N   0  0  0  0  0  0  0  0  0  0  0  0
    1.0880    6.4032    2.6802 C   0  0  1  0  0  0  0  0  0  0  0  0
    2.6065    3.9646    3.0157 C   0  0  1  0  0  0  0  0  0  0  0  0
    1.2851    3.4858    3.4671 C   0  0  0  0  0  0  0  0  0  0  0  0
    3.0885    4.1085    4.5962 C   0  0  0  0  0  0  0  0  0  0  0  0
    1.1846    5.1561    6.7801 S   0  0  0  0  0  0  0  0  0  0  0  0
    0.2106    4.0734    6.6657 O   0  0  0  0  0  0  0  0  0  0  0  0
    0.7770    6.4633    7.2500 O   0  0  0  0  0  0  0  0  0  0  0  0
   -6.4308    2.8505    2.1867 C   0  0  0  0  0  0  0  0  0  0  0  0
   -6.7420    5.3071    1.1294 Cl  0  0  0  0  0  0  0  0  0  0  0  0
   -6.2296    0.6266    2.9884 F   0  0  0  0  0  0  0  0  0  0  0  0
   -0.5408    4.8688    2.4534 H   0  0  0  0  0  0  0  0  0  0  0  0
    0.2586    4.6451    4.7646 H   0  0  0  0  0  0  0  0  0  0  0  0
    0.7569    7.1560    1.9725 H   0  0  0  0  0  0  0  0  0  0  0  0
    3.1445    3.2098    2.4469 H   0  0  0  0  0  0  0  0  0  0  0  0
    3.1071    5.1536    8.1049 H   0  0  0  0  0  0  0  0  0  0  0  0
    1.8075    3.9748    8.6053 H   0  0  0  0  0  0  0  0  0  0  0  0
    2.8442    3.5929    7.2256 H   0  0  0  0  0  0  0  0  0  0  0  0
   -3.9917    3.8466    4.9348 H   0  0  0  0  0  0  0  0  0  0  0  0
   -4.5587    1.6111    4.7388 H   0  0  0  0  0  0  0  0  0  0  0  0
    2.9421    5.7778    1.5695 H   0  0  0  0  0  0  0  0  0  0  0  0
    1.5228    4.7396    1.2358 H   0  0  0  0  0  0  0  0  0  0  0  0
    3.0050    6.7033    5.2394 H   0  0  0  0  0  0  0  0  0  0  0  0
    3.7113    5.8861    4.0822 H   0  0  0  0  0  0  0  0  0  0  0  0
    1.9175    7.8774    4.6096 H   0  0  0  0  0  0  0  0  0  0  0  0
    0.4488    7.5318    4.4057 H   0  0  0  0  0  0  0  0  0  0  0  0
   -4.5850    5.2671    5.9649 H   0  0  0  0  0  0  0  0  0  0  0  0
   -3.6303    6.6442    6.4073 H   0  0  0  0  0  0  0  0  0  0  0  0
   -5.2934    6.8101    5.7460 H   0  0  0  0  0  0  0  0  0  0  0  0
   -3.2553    8.1635    2.9991 H   0  0  0  0  0  0  0  0  0  0  0  0
   -4.5735    8.4566    4.1206 H   0  0  0  0  0  0  0  0  0  0  0  0
   -2.9159    8.3679    4.7329 H   0  0  0  0  0  0  0  0  0  0  0  0
   -1.2572    7.3513    3.5917 H   0  0  0  0  0  0  0  0  0  0  0  0
    1.2905    2.7387    4.2843 H   0  0  0  0  0  0  0  0  0  0  0  0
    0.6241    3.0826    2.7046 H   0  0  0  0  0  0  0  0  0  0  0  0
    4.1571    4.3542    4.7726 H   0  0  0  0  0  0  0  0  0  0  0  0
    3.0852    3.0876    4.9853 H   0  0  0  0  0  0  0  0  0  0  0  0
   -7.1451    2.5066    1.4482 H   0  0  0  0  0  0  0  0  0  0  0  0
  1 16  1  0  0  0  0
  1  3  2  0  0  0  0
  1  4  1  0  0  0  0
  2 24  1  0  0  0  0
  2 34  1  0  0  0  0
  2 35  1  0  0  0  0
  2 36  1  0  0  0  0
  3 28  1  0  0  0  0
  3 27  1  0  0  0  0
  4  5  2  0  0  0  0
  4 37  1  0  0  0  0
  5  6  1  0  0  0  0
  5 38  1  0  0  0  0
  6 27  2  0  0  0  0
  6 29  1  0  0  0  0
  7  9  1  0  0  0  0
  7 20  1  0  0  0  0
  7 19  1  0  0  0  0
  7 30  1  6  0  0  0
  8 21  1  0  0  0  0
  8 20  1  0  0  0  0
  8 39  1  0  0  0  0
  8 40  1  0  0  0  0
  9 10  1  0  0  0  0
  9 22  1  0  0  0  0
  9 31  1  6  0  0  0
 10 11  1  0  0  0  0
 10 41  1  0  0  0  0
 10 42  1  0  0  0  0
 11 12  1  0  0  0  0
 11 23  1  0  0  0  0
 11 24  1  1  0  0  0
 12 20  1  0  0  0  0
 12 43  1  0  0  0  0
 12 44  1  0  0  0  0
 13 14  1  0  0  0  0
 13 45  1  0  0  0  0
 13 46  1  0  0  0  0
 13 47  1  0  0  0  0
 14 16  1  0  0  0  0
 14 17  1  0  0  0  0
 14 15  1  0  0  0  0
 15 48  1  0  0  0  0
 15 49  1  0  0  0  0
 15 50  1  0  0  0  0
 17 19  1  0  0  0  0
 17 18  2  0  0  0  0
 19 51  1  0  0  0  0
 20 32  1  1  0  0  0
 21 23  1  0  0  0  0
 21 22  1  0  0  0  0
 21 33  1  1  0  0  0
 22 52  1  0  0  0  0
 22 53  1  0  0  0  0
 23 54  1  0  0  0  0
 23 55  1  0  0  0  0
 24 26  2  0  0  0  0
 24 25  2  0  0  0  0
 27 56  1  0  0  0  0
M  END
>  <DRUGBANK_ID>
DB08277

>  <COMMON_NAME>
2-(2-CHLORO-4-FLUOROPHENOXY)-2-METHYL-N-[(1R,2S,3S,5S,7S)-5-(METHYLSULFONYL)-2-ADAMANTYL]PROPANAMIDE

$$$$
