
 OpenBabel10282417133D

 19 20  0  0  0  0  0  0  0  0999 V2000
   -2.1996    0.0395    0.0207 N   0  0  0  0  0  0  0  0  0  0  0  0
   -0.8374    0.0475    0.0060 C   0  0  0  0  0  0  0  0  0  0  0  0
   -0.2314   -1.1444    0.0053 N   0  0  0  0  0  0  0  0  0  0  0  0
    1.1108   -1.1417    0.0053 C   0  0  0  0  0  0  0  0  0  0  0  0
    1.8621    0.0052   -0.0047 C   0  0  0  0  0  0  0  0  0  0  0  0
    1.1457    1.1830   -0.0226 C   0  0  0  0  0  0  0  0  0  0  0  0
   -0.2024    1.2265    0.0037 N   0  0  0  0  0  0  0  0  0  0  0  0
    1.8331    2.4702   -0.0125 C   0  0  0  0  0  0  0  0  0  0  0  0
    2.7259    2.8695   -0.9884 C   0  0  0  0  0  0  0  0  0  0  0  0
    3.2174    2.0321   -2.4137 Cl  0  0  0  0  0  0  0  0  0  0  0  0
    3.4121    4.3992   -0.7015 S   0  0  0  0  0  0  0  0  0  0  0  0
    2.5317    4.5611    0.7323 C   0  0  0  0  0  0  0  0  0  0  0  0
    2.7303    5.9682    1.6964 Cl  0  0  0  0  0  0  0  0  0  0  0  0
    1.7149    3.4899    0.9960 C   0  0  0  0  0  0  0  0  0  0  0  0
   -2.6917    0.9144    0.0130 H   0  0  0  0  0  0  0  0  0  0  0  0
   -2.6581   -0.8560    0.0094 H   0  0  0  0  0  0  0  0  0  0  0  0
    1.5775   -2.1221    0.0188 H   0  0  0  0  0  0  0  0  0  0  0  0
    2.9419   -0.0277    0.0086 H   0  0  0  0  0  0  0  0  0  0  0  0
    1.0809    3.4192    1.8713 H   0  0  0  0  0  0  0  0  0  0  0  0
  1  2  1  0  0  0  0
  1 15  1  0  0  0  0
  1 16  1  0  0  0  0
  2  3  2  0  0  0  0
  2  7  1  0  0  0  0
  3  4  1  0  0  0  0
  4  5  2  0  0  0  0
  4 17  1  0  0  0  0
  5  6  1  0  0  0  0
  5 18  1  0  0  0  0
  6  7  2  0  0  0  0
  6  8  1  0  0  0  0
  8  9  2  0  0  0  0
  8 14  1  0  0  0  0
  9 10  1  0  0  0  0
  9 11  1  0  0  0  0
 11 12  1  0  0  0  0
 12 13  1  0  0  0  0
 12 14  2  0  0  0  0
 14 19  1  0  0  0  0
M  END
>  <DRUGBANK_ID>
DB03019

>  <SECONDARY_ACCESSION_NUMBERS>
EXPT00924

>  <COMMON_NAME>
4-(2,5-Dichloro-Thiophen-3-Yl)-Pyrimidin-2-Ylamine

$$$$
