983
 OpenBabel10282417113D

 49 50  0  0  1  0  0  0  0  0999 V2000
    1.0387   -0.0712   -0.0845 O   0  0  0  0  0  0  0  0  0  0  0  0
    4.3204    4.4656    2.5507 O   0  0  0  0  0  0  0  0  0  0  0  0
    2.1990   -5.5612   -3.0723 O   0  0  0  0  0  0  0  0  0  0  0  0
   -1.3342   -6.2326    0.4102 O   0  0  0  0  0  0  0  0  0  0  0  0
    2.4487    0.7547   -2.5375 N   0  0  0  0  0  0  0  0  0  0  0  0
    0.1452   -5.2654   -1.0164 N   0  0  0  0  0  0  0  0  0  0  0  0
    3.0526    1.8313   -3.2958 C   0  0  3  0  0  0  0  0  0  0  0  0
    2.6470    3.2065   -2.7538 C   0  0  0  0  0  0  0  0  0  0  0  0
    0.9935    0.7436   -2.3921 C   0  0  0  0  0  0  0  0  0  0  0  0
    0.5890   -0.3797   -1.4123 C   0  0  3  0  0  0  0  0  0  0  0  0
    4.5912    1.7098   -3.3411 C   0  0  0  0  0  0  0  0  0  0  0  0
    3.1003    3.4995   -1.3345 C   0  0  0  0  0  0  0  0  0  0  0  0
    1.0734   -1.7583   -1.8198 C   0  0  0  0  0  0  0  0  0  0  0  0
    0.4670   -2.8607   -1.2224 C   0  0  0  0  0  0  0  0  0  0  0  0
    3.6134    2.5330   -0.4533 C   0  0  0  0  0  0  0  0  0  0  0  0
    3.0214    4.8021   -0.8593 C   0  0  0  0  0  0  0  0  0  0  0  0
    2.0678   -2.0000   -2.7796 C   0  0  0  0  0  0  0  0  0  0  0  0
    0.7979   -4.1675   -1.6023 C   0  0  0  0  0  0  0  0  0  0  0  0
    2.4348   -3.2765   -3.1531 C   0  0  0  0  0  0  0  0  0  0  0  0
    3.9523    2.7935    0.8535 C   0  0  0  0  0  0  0  0  0  0  0  0
    3.4472    5.0954    0.4432 C   0  0  0  0  0  0  0  0  0  0  0  0
    1.7882   -4.3557   -2.5840 C   0  0  0  0  0  0  0  0  0  0  0  0
    3.9033    4.0913    1.3055 C   0  0  0  0  0  0  0  0  0  0  0  0
   -0.8228   -5.2263   -0.0487 C   0  0  0  0  0  0  0  0  0  0  0  0
    4.8074    3.3967    3.3645 C   0  0  0  0  0  0  0  0  0  0  0  0
    1.9960   -0.2211   -0.0460 H   0  0  0  0  0  0  0  0  0  0  0  0
    1.6656   -6.2679   -2.6931 H   0  0  0  0  0  0  0  0  0  0  0  0
    2.8431    0.6054   -1.6265 H   0  0  0  0  0  0  0  0  0  0  0  0
    0.3824   -6.2047   -1.2904 H   0  0  0  0  0  0  0  0  0  0  0  0
    2.7020    1.7138   -4.3273 H   0  0  0  0  0  0  0  0  0  0  0  0
    3.0373    3.9669   -3.4397 H   0  0  0  0  0  0  0  0  0  0  0  0
    1.5544    3.3121   -2.8052 H   0  0  0  0  0  0  0  0  0  0  0  0
    0.5397    0.5667   -3.3711 H   0  0  0  0  0  0  0  0  0  0  0  0
    0.6176    1.6801   -1.9731 H   0  0  0  0  0  0  0  0  0  0  0  0
   -0.5066   -0.3841   -1.3611 H   0  0  0  0  0  0  0  0  0  0  0  0
    4.9193    0.7191   -3.6670 H   0  0  0  0  0  0  0  0  0  0  0  0
    4.9963    2.4588   -4.0287 H   0  0  0  0  0  0  0  0  0  0  0  0
    5.0861    1.8949   -2.3832 H   0  0  0  0  0  0  0  0  0  0  0  0
   -0.2847   -2.6420   -0.4713 H   0  0  0  0  0  0  0  0  0  0  0  0
    3.8781    1.5270   -0.7251 H   0  0  0  0  0  0  0  0  0  0  0  0
    2.6684    5.5970   -1.5120 H   0  0  0  0  0  0  0  0  0  0  0  0
    2.5962   -1.2181   -3.3085 H   0  0  0  0  0  0  0  0  0  0  0  0
    3.2084   -3.4022   -3.9056 H   0  0  0  0  0  0  0  0  0  0  0  0
    4.2967    1.9513    1.4434 H   0  0  0  0  0  0  0  0  0  0  0  0
    3.4324    6.1250    0.7817 H   0  0  0  0  0  0  0  0  0  0  0  0
   -1.1183   -4.2255    0.2988 H   0  0  0  0  0  0  0  0  0  0  0  0
    4.0185    2.6584    3.5577 H   0  0  0  0  0  0  0  0  0  0  0  0
    5.6841    2.9130    2.9125 H   0  0  0  0  0  0  0  0  0  0  0  0
    5.1162    3.8161    4.3219 H   0  0  0  0  0  0  0  0  0  0  0  0
  1 10  1  0  0  0  0
  1 26  1  0  0  0  0
  2 23  1  0  0  0  0
  2 25  1  0  0  0  0
  3 22  1  0  0  0  0
  3 27  1  0  0  0  0
  4 24  2  0  0  0  0
  5  7  1  0  0  0  0
  5  9  1  0  0  0  0
  5 28  1  0  0  0  0
  6 18  1  0  0  0  0
  6 24  1  0  0  0  0
  6 29  1  0  0  0  0
  7  8  1  0  0  0  0
  7 11  1  0  0  0  0
  7 30  1  0  0  0  0
  8 12  1  0  0  0  0
  8 31  1  0  0  0  0
  8 32  1  0  0  0  0
  9 10  1  0  0  0  0
  9 33  1  0  0  0  0
  9 34  1  0  0  0  0
 10 13  1  0  0  0  0
 10 35  1  0  0  0  0
 11 36  1  0  0  0  0
 11 37  1  0  0  0  0
 11 38  1  0  0  0  0
 12 15  2  0  0  0  0
 12 16  1  0  0  0  0
 13 14  2  0  0  0  0
 13 17  1  0  0  0  0
 14 18  1  0  0  0  0
 14 39  1  0  0  0  0
 15 20  1  0  0  0  0
 15 40  1  0  0  0  0
 16 21  2  0  0  0  0
 16 41  1  0  0  0  0
 17 19  2  0  0  0  0
 17 42  1  0  0  0  0
 18 22  2  0  0  0  0
 19 22  1  0  0  0  0
 19 43  1  0  0  0  0
 20 23  2  0  0  0  0
 20 44  1  0  0  0  0
 21 23  1  0  0  0  0
 21 45  1  0  0  0  0
 24 46  1  0  0  0  0
 25 47  1  0  0  0  0
 25 48  1  0  0  0  0
 25 49  1  0  0  0  0
M  END
>  <DRUGBANK_ID>
DB00983

>  <SECONDARY_ACCESSION_NUMBERS>
APRD00641

>  <COMMON_NAME>
Formoterol

>  <CAS_NUMBER>
73573-87-2

>  <UNII>
5ZZ84GCW8B

>  <SYNONYMS>
2'-hydroxy-5'-(1-hydroxy-2-((p-methoxy-α-methylphenethyl)amino)ethyl)formanilide; 2'-hydroxy-5'-{1-hydroxy-2-[(p-methoxy-α-methylphenethyl)amino]ethyl}formanilide; Formoterol; Formoterolum; N-[2-hydroxy-5-(1-hydroxy-2-{[2-(4-methoxyphenyl)-1-methylethyl]amino}ethyl)phenyl]formamide

$$$$
