
 OpenBabel10282417193D

120126  0  0  1  0  0  0  0  0999 V2000
    1.0315    0.0364    0.1472 C   0  0  0  0  0  0  0  0  0  0  0  0
   -0.9285   -1.0051    1.3618 C   0  0  0  0  0  0  0  0  0  0  0  0
    7.4432    4.3703    3.9902 C   0  0  0  0  0  0  0  0  0  0  0  0
    7.2123    3.9703    2.6746 C   0  0  0  0  0  0  0  0  0  0  0  0
    8.4223    5.3265    4.2615 C   0  0  0  0  0  0  0  0  0  0  0  0
    7.9104    4.5745    1.6220 C   0  0  0  0  0  0  0  0  0  0  0  0
    9.0892    5.9681    3.2079 C   0  0  0  0  0  0  0  0  0  0  0  0
    2.0153   -6.8414   -0.4040 C   0  0  0  0  0  0  0  0  0  0  0  0
    0.1803   -6.9309    1.0005 C   0  0  0  0  0  0  0  0  0  0  0  0
    6.3941   -4.6886    0.9003 C   0  0  0  0  0  0  0  0  0  0  0  0
    5.5104   -2.7083    1.9203 C   0  0  0  0  0  0  0  0  0  0  0  0
    1.9594   -8.0891   -0.9661 C   0  0  0  0  0  0  0  0  0  0  0  0
    0.2748   -8.3184    0.6992 C   0  0  0  0  0  0  0  0  0  0  0  0
    5.3517   -4.6842   -0.0070 C   0  0  0  0  0  0  0  0  0  0  0  0
    4.5320   -2.6532    0.9088 C   0  0  0  0  0  0  0  0  0  0  0  0
    9.7408    0.6509    4.2571 C   0  0  0  0  0  0  0  0  0  0  0  0
    9.8960    1.9040    3.6670 C   0  0  0  0  0  0  0  0  0  0  0  0
    1.0748   -3.6865    1.4687 C   0  0  0  0  0  0  0  0  0  0  0  0
   12.8101    4.9880    1.4559 C   0  0  0  0  0  0  0  0  0  0  0  0
    1.1391   -2.1412    1.5409 C   0  0  0  0  0  0  0  0  0  0  0  0
   13.5633    4.6284    2.7936 C   0  0  0  0  0  0  0  0  0  0  0  0
    2.0159   -5.2777   -2.4236 C   0  0  0  0  0  0  0  0  0  0  0  0
    2.2649   -3.1071   -3.1638 C   0  0  0  0  0  0  0  0  0  0  0  0
    2.7806   -4.6345   -1.1583 C   0  0  0  0  0  0  0  0  0  0  0  0
    2.9178   -2.4912   -1.8506 C   0  0  0  0  0  0  0  0  0  0  0  0
   15.1643    2.5529    2.8626 C   0  0  0  0  0  0  0  0  0  0  0  0
   13.1249    2.4287    2.1472 C   0  0  0  0  0  0  0  0  0  0  0  0
   15.7272    2.8028    1.4585 C   0  0  0  0  0  0  0  0  0  0  0  0
   13.5910    2.6336    0.6147 C   0  0  0  0  0  0  0  0  0  0  0  0
   10.6787   -0.3397    2.2679 C   0  0  0  0  0  0  0  0  0  0  0  0
   -0.1331   -2.0518   -0.7313 C   0  0  0  0  0  0  0  0  0  0  0  0
   -0.0391   -3.9937   -2.3013 C   0  0  0  0  0  0  0  0  0  0  0  0
   10.6278    4.8425   -0.1145 C   0  0  0  0  0  0  0  0  0  0  0  0
    0.9054   -6.0742    0.2416 C   0  0  0  0  0  0  0  0  0  0  0  0
    6.5502   -3.6286    1.8002 C   0  0  0  0  0  0  0  0  0  0  0  0
   -0.0051   -3.6111   -0.7828 C   0  0  0  0  0  0  0  0  0  0  0  0
    1.0705   -8.8695   -0.3407 C   0  0  0  0  0  0  0  0  0  0  0  0
   11.3757    4.1614    1.0088 C   0  0  2  0  0  0  0  0  0  0  0  0
    4.5077   -3.5749   -0.1373 C   0  0  0  0  0  0  0  0  0  0  0  0
    8.8245    5.6111    1.8728 C   0  0  0  0  0  0  0  0  0  0  0  0
   10.0612   -0.4678    3.5133 C   0  0  0  0  0  0  0  0  0  0  0  0
    0.4413   -4.4350    0.2713 C   0  0  0  0  0  0  0  0  0  0  0  0
   10.3319    2.0986    2.3076 C   0  0  0  0  0  0  0  0  0  0  0  0
   10.7080    0.8985    1.5852 C   0  0  0  0  0  0  0  0  0  0  0  0
    7.8892   -3.4676    2.4313 C   0  0  0  0  0  0  0  0  0  0  0  0
    0.3207   -1.3078    0.5427 C   0  0  0  0  0  0  0  0  0  0  0  0
   13.2019   -0.1018    0.0028 C   0  0  0  0  0  0  0  0  0  0  0  0
    1.1334  -10.5286   -0.7298 Cl  0  0  0  0  0  0  0  0  0  0  0  0
   13.2133   -1.4502    0.0942 F   0  0  0  0  0  0  0  0  0  0  0  0
   13.9460    0.2587   -1.0846 F   0  0  0  0  0  0  0  0  0  0  0  0
   13.8773    0.3009    1.1123 F   0  0  0  0  0  0  0  0  0  0  0  0
   10.4993    3.4971    2.0249 N   0  0  0  0  0  0  0  0  0  0  0  0
    8.1495   -2.3251    3.2089 N   0  0  0  0  0  0  0  0  0  0  0  0
   13.8773    3.1984    3.0866 N   0  0  0  0  0  0  0  0  0  0  0  0
    1.2523   -4.2075   -3.0548 N   0  0  0  0  0  0  0  0  0  0  0  0
    3.7241   -3.5707   -1.2967 N   0  0  0  0  0  0  0  0  0  0  0  0
    8.7615   -4.3045    2.1613 O   0  0  0  0  0  0  0  0  0  0  0  0
   10.4666   -0.5111   -0.6479 O   0  0  0  0  0  0  0  0  0  0  0  0
   11.1494    1.8342   -0.9147 O   0  0  0  0  0  0  0  0  0  0  0  0
    9.2166   -1.9713    5.4738 O   0  0  0  0  0  0  0  0  0  0  0  0
   10.6280   -2.9818    3.6344 O   0  0  0  0  0  0  0  0  0  0  0  0
   14.9327    2.3687    0.3760 O   0  0  0  0  0  0  0  0  0  0  0  0
    9.8104    6.3315    0.5433 S   0  0  0  0  0  0  0  0  0  0  0  0
   11.2854    0.5782   -0.1678 S   0  0  0  0  0  0  0  0  0  0  0  0
    9.5997   -2.1052    4.0539 S   0  0  0  0  0  0  0  0  0  0  0  0
   11.6195    3.2740    0.4984 H   0  0  0  0  0  0  0  0  0  0  0  0
    0.8170    0.8429    0.8569 H   0  0  0  0  0  0  0  0  0  0  0  0
    0.7085    0.4057   -0.8376 H   0  0  0  0  0  0  0  0  0  0  0  0
    2.1251   -0.0558    0.0798 H   0  0  0  0  0  0  0  0  0  0  0  0
   -0.6514   -0.4592    2.2716 H   0  0  0  0  0  0  0  0  0  0  0  0
   -1.6619   -0.4215    0.8111 H   0  0  0  0  0  0  0  0  0  0  0  0
   -1.3711   -1.9631    1.6607 H   0  0  0  0  0  0  0  0  0  0  0  0
    6.8881    3.9080    4.8033 H   0  0  0  0  0  0  0  0  0  0  0  0
    6.5239    3.1550    2.4684 H   0  0  0  0  0  0  0  0  0  0  0  0
    8.6823    5.5501    5.2945 H   0  0  0  0  0  0  0  0  0  0  0  0
    7.8096    4.1580    0.6220 H   0  0  0  0  0  0  0  0  0  0  0  0
    9.8681    6.6901    3.4426 H   0  0  0  0  0  0  0  0  0  0  0  0
    3.0302   -6.5606   -0.7174 H   0  0  0  0  0  0  0  0  0  0  0  0
   -0.3936   -6.5368    1.8317 H   0  0  0  0  0  0  0  0  0  0  0  0
    7.1301   -5.4825    0.8040 H   0  0  0  0  0  0  0  0  0  0  0  0
    5.4787   -1.9759    2.7190 H   0  0  0  0  0  0  0  0  0  0  0  0
    2.6596   -8.3645   -1.7656 H   0  0  0  0  0  0  0  0  0  0  0  0
   -0.3097   -9.0001    1.2896 H   0  0  0  0  0  0  0  0  0  0  0  0
    5.2512   -5.5079   -0.7112 H   0  0  0  0  0  0  0  0  0  0  0  0
    3.8270   -1.8410    0.9529 H   0  0  0  0  0  0  0  0  0  0  0  0
    9.3927    0.5722    5.2869 H   0  0  0  0  0  0  0  0  0  0  0  0
    9.7216    2.7646    4.3179 H   0  0  0  0  0  0  0  0  0  0  0  0
    2.1262   -3.9856    1.5250 H   0  0  0  0  0  0  0  0  0  0  0  0
    0.6285   -4.0506    2.3949 H   0  0  0  0  0  0  0  0  0  0  0  0
   13.6500    4.8787    0.7446 H   0  0  0  0  0  0  0  0  0  0  0  0
   12.7143    6.0572    1.2369 H   0  0  0  0  0  0  0  0  0  0  0  0
    2.1424   -1.7358    1.6285 H   0  0  0  0  0  0  0  0  0  0  0  0
    0.8038   -1.9252    2.5657 H   0  0  0  0  0  0  0  0  0  0  0  0
   14.4969    5.1924    2.8848 H   0  0  0  0  0  0  0  0  0  0  0  0
   12.8817    5.0113    3.5620 H   0  0  0  0  0  0  0  0  0  0  0  0
    1.2206   -6.0320   -2.2706 H   0  0  0  0  0  0  0  0  0  0  0  0
    2.7192   -5.8115   -3.0718 H   0  0  0  0  0  0  0  0  0  0  0  0
    3.1213   -3.5993   -3.6688 H   0  0  0  0  0  0  0  0  0  0  0  0
    1.8980   -2.3486   -3.8375 H   0  0  0  0  0  0  0  0  0  0  0  0
    1.9747   -4.0658   -0.8482 H   0  0  0  0  0  0  0  0  0  0  0  0
    2.9005   -5.0310   -0.1431 H   0  0  0  0  0  0  0  0  0  0  0  0
    2.1533   -2.2126   -1.1366 H   0  0  0  0  0  0  0  0  0  0  0  0
    3.5119   -1.6079   -2.0138 H   0  0  0  0  0  0  0  0  0  0  0  0
   14.9938    1.4605    2.9964 H   0  0  0  0  0  0  0  0  0  0  0  0
   15.8606    2.8163    3.6461 H   0  0  0  0  0  0  0  0  0  0  0  0
   13.0062    1.3869    2.4545 H   0  0  0  0  0  0  0  0  0  0  0  0
   12.2301    2.7958    2.5459 H   0  0  0  0  0  0  0  0  0  0  0  0
   15.8965    3.8697    1.3340 H   0  0  0  0  0  0  0  0  0  0  0  0
   16.6281    2.2202    1.3224 H   0  0  0  0  0  0  0  0  0  0  0  0
   13.0756    1.9938   -0.0444 H   0  0  0  0  0  0  0  0  0  0  0  0
   13.3230    3.4725   -0.0296 H   0  0  0  0  0  0  0  0  0  0  0  0
   11.1483   -1.2210    1.8306 H   0  0  0  0  0  0  0  0  0  0  0  0
   -1.1585   -1.7430   -0.9887 H   0  0  0  0  0  0  0  0  0  0  0  0
    0.4050   -1.6172   -1.5947 H   0  0  0  0  0  0  0  0  0  0  0  0
   -0.7055   -4.8647   -2.3876 H   0  0  0  0  0  0  0  0  0  0  0  0
   -0.5658   -3.2171   -2.8776 H   0  0  0  0  0  0  0  0  0  0  0  0
   11.3647    5.0541   -0.9073 H   0  0  0  0  0  0  0  0  0  0  0  0
    9.9025    4.1524   -0.5684 H   0  0  0  0  0  0  0  0  0  0  0  0
   10.5276    4.0431    2.8910 H   0  0  0  0  0  0  0  0  0  0  0  0
    7.3927   -1.7328    3.5307 H   0  0  0  0  0  0  0  0  0  0  0  0
  1 67  1  0  0  0  0
  1 68  1  0  0  0  0
  1 69  1  0  0  0  0
  2 70  1  0  0  0  0
  2 71  1  0  0  0  0
  2 72  1  0  0  0  0
  3 73  1  0  0  0  0
  4  3  2  0  0  0  0
  4 74  1  0  0  0  0
  5  3  1  0  0  0  0
  5 75  1  0  0  0  0
  6  4  1  0  0  0  0
  6 76  1  0  0  0  0
  7  5  2  0  0  0  0
  7 77  1  0  0  0  0
  8 78  1  0  0  0  0
  9 79  1  0  0  0  0
 10 80  1  0  0  0  0
 11 81  1  0  0  0  0
 12  8  1  0  0  0  0
 12 82  1  0  0  0  0
 13  9  2  0  0  0  0
 13 83  1  0  0  0  0
 14 10  1  0  0  0  0
 14 84  1  0  0  0  0
 15 11  2  0  0  0  0
 15 85  1  0  0  0  0
 16 86  1  0  0  0  0
 17 16  2  0  0  0  0
 17 87  1  0  0  0  0
 18 88  1  0  0  0  0
 18 89  1  0  0  0  0
 19 90  1  0  0  0  0
 19 91  1  0  0  0  0
 20 18  1  0  0  0  0
 20 92  1  0  0  0  0
 20 93  1  0  0  0  0
 21 19  1  0  0  0  0
 21 94  1  0  0  0  0
 21 95  1  0  0  0  0
 22 96  1  0  0  0  0
 22 97  1  0  0  0  0
 23 98  1  0  0  0  0
 23 99  1  0  0  0  0
 24 22  1  0  0  0  0
 24100  1  0  0  0  0
 24101  1  0  0  0  0
 25 23  1  0  0  0  0
 25102  1  0  0  0  0
 25103  1  0  0  0  0
 26104  1  0  0  0  0
 26105  1  0  0  0  0
 27106  1  0  0  0  0
 27107  1  0  0  0  0
 28 26  1  0  0  0  0
 28108  1  0  0  0  0
 28109  1  0  0  0  0
 29 27  1  0  0  0  0
 29110  1  0  0  0  0
 29111  1  0  0  0  0
 30112  1  0  0  0  0
 31113  1  0  0  0  0
 31114  1  0  0  0  0
 32115  1  0  0  0  0
 32116  1  0  0  0  0
 33117  1  0  0  0  0
 33118  1  0  0  0  0
 34  8  2  0  0  0  0
 34  9  1  0  0  0  0
 35 10  2  0  0  0  0
 35 11  1  0  0  0  0
 36 31  1  0  0  0  0
 36 32  1  0  0  0  0
 37 12  2  0  0  0  0
 37 13  1  0  0  0  0
 38 52  1  0  0  0  0
 38 66  1  6  0  0  0
 38 33  1  0  0  0  0
 38 19  1  0  0  0  0
 39 14  2  0  0  0  0
 39 15  1  0  0  0  0
 40  6  2  0  0  0  0
 40  7  1  0  0  0  0
 41 16  1  0  0  0  0
 41 30  2  0  0  0  0
 42 18  1  0  0  0  0
 42 34  1  0  0  0  0
 42 36  2  0  0  0  0
 43 17  1  0  0  0  0
 44 30  1  0  0  0  0
 44 43  2  0  0  0  0
 45 35  1  0  0  0  0
 46  1  1  0  0  0  0
 46  2  1  0  0  0  0
 46 20  1  0  0  0  0
 46 31  1  0  0  0  0
 48 37  1  0  0  0  0
 49 47  1  0  0  0  0
 50 47  1  0  0  0  0
 51 47  1  0  0  0  0
 52 43  1  0  0  0  0
 52119  1  0  0  0  0
 53 45  1  0  0  0  0
 53120  1  0  0  0  0
 54 21  1  0  0  0  0
 54 26  1  0  0  0  0
 54 27  1  0  0  0  0
 55 22  1  0  0  0  0
 55 23  1  0  0  0  0
 55 32  1  0  0  0  0
 56 24  1  0  0  0  0
 56 25  1  0  0  0  0
 56 39  1  0  0  0  0
 57 45  2  0  0  0  0
 62 28  1  0  0  0  0
 62 29  1  0  0  0  0
 63 33  1  0  0  0  0
 63 40  1  0  0  0  0
 64 44  1  0  0  0  0
 64 47  1  0  0  0  0
 64 58  2  0  0  0  0
 64 59  2  0  0  0  0
 65 41  1  0  0  0  0
 65 53  1  0  0  0  0
 65 60  2  0  0  0  0
 65 61  2  0  0  0  0
M  END
>  <DRUGBANK_ID>
DB12340

>  <SECONDARY_ACCESSION_NUMBERS>
DB05764

>  <COMMON_NAME>
Navitoclax

>  <CAS_NUMBER>
923564-51-6

>  <UNII>
XKJ5VVK2WD

>  <SYNONYMS>
(R)-4-(3-Morpholin-4-Yl-1-Phenylsulfanylmethyl-Propylamino)-N-(4-{4-[2-(4-Chlorophenyl)-5,5-Dimethylcyclohex-1-Enylmethyl]-Piperazin-1-Yl}-Benzoyl)-3-Trifluoromethanesulfonylbenzenesulfonamide; Navitoclax

$$$$
