HEF
 OpenBabel10282417163D

 37 38  0  0  0  0  0  0  0  0999 V2000
   -0.6341    1.1569   -0.1536 N   0  0  0  0  0  0  0  0  0  0  0  0
   -1.3319   -0.0426   -0.1684 C   0  0  0  0  0  0  0  0  0  0  0  0
   -2.5496   -0.1443   -0.3446 O   0  0  0  0  0  0  0  0  0  0  0  0
   -0.6139   -1.1664    0.0171 N   0  0  0  0  0  0  0  0  0  0  0  0
    0.7416   -1.2194    0.0025 C   0  0  0  0  0  0  0  0  0  0  0  0
    1.3180   -2.2916   -0.0060 O   0  0  0  0  0  0  0  0  0  0  0  0
    1.4548    0.0978   -0.0039 C   0  0  0  0  0  0  0  0  0  0  0  0
    0.7508    1.2573   -0.0332 C   0  0  0  0  0  0  0  0  0  0  0  0
    2.9478   -0.0041    0.0053 C   0  0  0  0  0  0  0  0  0  0  0  0
   -1.4721    2.2906   -0.1827 C   0  0  0  0  0  0  0  0  0  0  0  0
   -1.5310    2.8730    1.0917 O   0  0  0  0  0  0  0  0  0  0  0  0
   -1.6513    2.1794    2.3150 C   0  0  0  0  0  0  0  0  0  0  0  0
   -3.1309    2.0916    2.5687 C   0  0  0  0  0  0  0  0  0  0  0  0
   -3.7834    1.2906    1.6052 O   0  0  0  0  0  0  0  0  0  0  0  0
    1.6955    2.8085    0.0505 S   0  0  0  0  0  0  0  0  0  0  0  0
    0.7066    4.3122    0.0905 C   0  0  0  0  0  0  0  0  0  0  0  0
   -0.0118    4.7153    1.2173 C   0  0  0  0  0  0  0  0  0  0  0  0
   -1.1765    5.4975    1.0570 C   0  0  0  0  0  0  0  0  0  0  0  0
   -1.3709    6.2169   -0.1058 C   0  0  0  0  0  0  0  0  0  0  0  0
   -0.3879    6.1464   -1.0845 C   0  0  0  0  0  0  0  0  0  0  0  0
    0.5918    5.1368   -1.0309 C   0  0  0  0  0  0  0  0  0  0  0  0
   -1.1234   -2.0374   -0.0025 H   0  0  0  0  0  0  0  0  0  0  0  0
    3.3512    0.4756   -0.8922 H   0  0  0  0  0  0  0  0  0  0  0  0
    3.3546    0.4741    0.9000 H   0  0  0  0  0  0  0  0  0  0  0  0
    3.3092   -1.0358   -0.0023 H   0  0  0  0  0  0  0  0  0  0  0  0
   -1.0723    2.9859   -0.9227 H   0  0  0  0  0  0  0  0  0  0  0  0
   -2.4774    2.1255   -0.5653 H   0  0  0  0  0  0  0  0  0  0  0  0
   -1.0698    1.2536    2.3650 H   0  0  0  0  0  0  0  0  0  0  0  0
   -1.2330    2.8270    3.1035 H   0  0  0  0  0  0  0  0  0  0  0  0
   -3.3292    1.6748    3.5513 H   0  0  0  0  0  0  0  0  0  0  0  0
   -3.5518    3.1010    2.4933 H   0  0  0  0  0  0  0  0  0  0  0  0
   -3.6993    1.7393    0.7471 H   0  0  0  0  0  0  0  0  0  0  0  0
    0.1304    4.1884    2.1555 H   0  0  0  0  0  0  0  0  0  0  0  0
   -1.9882    5.4180    1.7837 H   0  0  0  0  0  0  0  0  0  0  0  0
   -2.2657    6.8216   -0.2356 H   0  0  0  0  0  0  0  0  0  0  0  0
   -0.4195    6.8394   -1.9184 H   0  0  0  0  0  0  0  0  0  0  0  0
    1.2392    4.9865   -1.8888 H   0  0  0  0  0  0  0  0  0  0  0  0
  1  2  1  0  0  0  0
  1  8  1  0  0  0  0
  1 10  1  0  0  0  0
  2  3  2  0  0  0  0
  2  4  1  0  0  0  0
  4  5  1  0  0  0  0
  4 22  1  0  0  0  0
  5  6  2  0  0  0  0
  5  7  1  0  0  0  0
  7  8  2  0  0  0  0
  7  9  1  0  0  0  0
  8 15  1  0  0  0  0
  9 23  1  0  0  0  0
  9 24  1  0  0  0  0
  9 25  1  0  0  0  0
 10 11  1  0  0  0  0
 10 26  1  0  0  0  0
 10 27  1  0  0  0  0
 11 12  1  0  0  0  0
 12 13  1  0  0  0  0
 12 28  1  0  0  0  0
 12 29  1  0  0  0  0
 13 14  1  0  0  0  0
 13 30  1  0  0  0  0
 13 31  1  0  0  0  0
 14 32  1  0  0  0  0
 15 16  1  0  0  0  0
 16 17  2  0  0  0  0
 16 21  1  0  0  0  0
 17 18  1  0  0  0  0
 17 33  1  0  0  0  0
 18 19  2  0  0  0  0
 18 34  1  0  0  0  0
 19 20  1  0  0  0  0
 19 35  1  0  0  0  0
 20 21  2  0  0  0  0
 20 36  1  0  0  0  0
 21 37  1  0  0  0  0
M  END
>  <DRUGBANK_ID>
DB07892

>  <COMMON_NAME>
1-(2-HYDROXYETHYLOXYMETHYL)-6-PHENYL THIOTHYMINE

$$$$
