UC4
 OpenBabel10282417173D

 41 42  0  0  0  0  0  0  0  0999 V2000
   -2.1819   -0.1832   -0.0022 Cl  0  0  0  0  0  0  0  0  0  0  0  0
    0.2490    1.2133   -0.0199 C   0  0  0  0  0  0  0  0  0  0  0  0
   -0.4654    0.0040   -0.0147 C   0  0  0  0  0  0  0  0  0  0  0  0
    0.2302   -1.1956   -0.0169 C   0  0  0  0  0  0  0  0  0  0  0  0
    1.6135   -1.2073   -0.0039 C   0  0  0  0  0  0  0  0  0  0  0  0
    2.3649   -0.0353    0.0138 C   0  0  0  0  0  0  0  0  0  0  0  0
    1.6756    1.1816   -0.0081 C   0  0  0  0  0  0  0  0  0  0  0  0
    0.3105    3.5791   -0.0521 O   0  0  0  0  0  0  0  0  0  0  0  0
   -0.3773    2.5613   -0.0424 C   0  0  0  0  0  0  0  0  0  0  0  0
   -1.7250    2.5248   -0.0562 O   0  0  0  0  0  0  0  0  0  0  0  0
   -2.4971    3.7451   -0.0857 C   0  0  0  0  0  0  0  0  0  0  0  0
   -2.2641    4.5729    1.1702 C   0  0  0  0  0  0  0  0  0  0  0  0
   -2.2415    4.5249   -1.3678 C   0  0  0  0  0  0  0  0  0  0  0  0
    8.1049   -0.3402    0.9550 O   0  0  0  0  0  0  0  0  0  0  0  0
    6.7363   -0.3772    0.9047 C   0  0  0  0  0  0  0  0  0  0  0  0
    5.9993   -1.1463    0.0844 C   0  0  0  0  0  0  0  0  0  0  0  0
    6.6084   -2.3014   -1.0378 S   0  0  0  0  0  0  0  0  0  0  0  0
    8.3580   -2.1602   -0.8409 C   0  0  0  0  0  0  0  0  0  0  0  0
    8.9310   -1.2232    0.2065 C   0  0  0  0  0  0  0  0  0  0  0  0
    6.1072    0.5341    1.9297 C   0  0  0  0  0  0  0  0  0  0  0  0
    4.0447   -2.3761    0.2970 O   0  0  0  0  0  0  0  0  0  0  0  0
    4.5123   -1.2454    0.1681 C   0  0  0  0  0  0  0  0  0  0  0  0
    3.7814   -0.0727    0.0404 N   0  0  0  0  0  0  0  0  0  0  0  0
   -0.2822   -2.1535   -0.0294 H   0  0  0  0  0  0  0  0  0  0  0  0
    2.0547   -2.1942   -0.0208 H   0  0  0  0  0  0  0  0  0  0  0  0
    2.2291    2.1218   -0.0060 H   0  0  0  0  0  0  0  0  0  0  0  0
   -3.5518    3.4356   -0.0893 H   0  0  0  0  0  0  0  0  0  0  0  0
   -1.2152    4.8598    1.2735 H   0  0  0  0  0  0  0  0  0  0  0  0
   -2.8623    5.4880    1.1586 H   0  0  0  0  0  0  0  0  0  0  0  0
   -2.5207    3.9912    2.0619 H   0  0  0  0  0  0  0  0  0  0  0  0
   -2.4830    3.9102   -2.2414 H   0  0  0  0  0  0  0  0  0  0  0  0
   -2.8394    5.4398   -1.4012 H   0  0  0  0  0  0  0  0  0  0  0  0
   -1.1907    4.8074   -1.4633 H   0  0  0  0  0  0  0  0  0  0  0  0
    8.7256   -1.8608   -1.8255 H   0  0  0  0  0  0  0  0  0  0  0  0
    8.7430   -3.1709   -0.6653 H   0  0  0  0  0  0  0  0  0  0  0  0
    9.5130   -1.8175    0.9219 H   0  0  0  0  0  0  0  0  0  0  0  0
    9.6679   -0.5892   -0.3007 H   0  0  0  0  0  0  0  0  0  0  0  0
    5.5262    1.3201    1.4407 H   0  0  0  0  0  0  0  0  0  0  0  0
    5.4565   -0.0291    2.6072 H   0  0  0  0  0  0  0  0  0  0  0  0
    6.8551    1.0509    2.5400 H   0  0  0  0  0  0  0  0  0  0  0  0
    4.2761    0.8056   -0.0575 H   0  0  0  0  0  0  0  0  0  0  0  0
  1  3  1  0  0  0  0
  2  3  2  0  0  0  0
  2  7  1  0  0  0  0
  2  9  1  0  0  0  0
  3  4  1  0  0  0  0
  4  5  2  0  0  0  0
  4 24  1  0  0  0  0
  5  6  1  0  0  0  0
  5 25  1  0  0  0  0
  6  7  2  0  0  0  0
  6 23  1  0  0  0  0
  7 26  1  0  0  0  0
  8  9  2  0  0  0  0
  9 10  1  0  0  0  0
 10 11  1  0  0  0  0
 11 12  1  0  0  0  0
 11 13  1  0  0  0  0
 11 27  1  0  0  0  0
 12 28  1  0  0  0  0
 12 29  1  0  0  0  0
 12 30  1  0  0  0  0
 13 31  1  0  0  0  0
 13 32  1  0  0  0  0
 13 33  1  0  0  0  0
 14 15  1  0  0  0  0
 14 19  1  0  0  0  0
 15 16  2  0  0  0  0
 15 20  1  0  0  0  0
 16 17  1  0  0  0  0
 16 22  1  0  0  0  0
 17 18  1  0  0  0  0
 18 19  1  0  0  0  0
 18 34  1  0  0  0  0
 18 35  1  0  0  0  0
 19 36  1  0  0  0  0
 19 37  1  0  0  0  0
 20 38  1  0  0  0  0
 20 39  1  0  0  0  0
 20 40  1  0  0  0  0
 21 22  2  0  0  0  0
 22 23  1  0  0  0  0
 23 41  1  0  0  0  0
M  END
>  <DRUGBANK_ID>
DB08682

>  <COMMON_NAME>
1-METHYL ETHYL 1-CHLORO-5-[[(5,6DIHYDRO-2-METHYL-1,4-OXATHIIN-3-YL)CARBONYL]AMINO]BENZOATE

>  <UNII>
IJ5WR6SKU5

$$$$
