
 OpenBabel10282417143D

 40 43  0  0  0  0  0  0  0  0999 V2000
   -2.1221    0.0495   -0.0382 Cl  0  0  0  0  0  0  0  0  0  0  0  0
    3.8225   -0.0035   -0.0594 N   0  0  0  0  0  0  0  0  0  0  0  0
    6.1309   -2.5858    1.0617 N   0  0  0  0  0  0  0  0  0  0  0  0
    5.4351   -1.4070    0.9847 N   0  0  0  0  0  0  0  0  0  0  0  0
   11.1455   -3.5030    0.2079 N   0  0  0  0  0  0  0  0  0  0  0  0
    5.1865   -3.3469   -1.0190 C   0  0  0  0  0  0  0  0  0  0  0  0
    4.4631   -2.1325   -1.0857 C   0  0  0  0  0  0  0  0  0  0  0  0
    6.0531   -3.5125    0.0721 C   0  0  0  0  0  0  0  0  0  0  0  0
    6.9911   -4.6980    0.2090 C   0  0  0  0  0  0  0  0  0  0  0  0
    4.6151   -1.1828   -0.0570 C   0  0  0  0  0  0  0  0  0  0  0  0
    4.9711   -4.2964   -2.0475 C   0  0  0  0  0  0  0  0  0  0  0  0
    8.4519   -4.3051    0.2096 C   0  0  0  0  0  0  0  0  0  0  0  0
    3.6039   -1.9183   -2.1864 C   0  0  0  0  0  0  0  0  0  0  0  0
    4.0522   -4.0842   -3.0749 C   0  0  0  0  0  0  0  0  0  0  0  0
    3.3589   -2.8897   -3.1413 C   0  0  0  0  0  0  0  0  0  0  0  0
    2.4091    0.0031    0.0945 C   0  0  0  0  0  0  0  0  0  0  0  0
    8.9755   -3.5318    1.2507 C   0  0  0  0  0  0  0  0  0  0  0  0
    9.3071   -4.6804   -0.8301 C   0  0  0  0  0  0  0  0  0  0  0  0
    1.7144    1.2154    0.0345 C   0  0  0  0  0  0  0  0  0  0  0  0
    1.6545   -1.1865    0.1259 C   0  0  0  0  0  0  0  0  0  0  0  0
   10.3036   -3.1511    1.2009 C   0  0  0  0  0  0  0  0  0  0  0  0
   10.6282   -4.2600   -0.7831 C   0  0  0  0  0  0  0  0  0  0  0  0
    0.3127    1.2302    0.0059 C   0  0  0  0  0  0  0  0  0  0  0  0
    0.2638   -1.1792    0.0525 C   0  0  0  0  0  0  0  0  0  0  0  0
   -0.4043    0.0339    0.0076 C   0  0  0  0  0  0  0  0  0  0  0  0
    4.2764    0.7336    0.4693 H   0  0  0  0  0  0  0  0  0  0  0  0
    6.7573   -5.2481    1.1286 H   0  0  0  0  0  0  0  0  0  0  0  0
    6.8429   -5.4259   -0.5928 H   0  0  0  0  0  0  0  0  0  0  0  0
    5.4975   -5.2473   -2.0615 H   0  0  0  0  0  0  0  0  0  0  0  0
    3.0637   -0.9755   -2.2824 H   0  0  0  0  0  0  0  0  0  0  0  0
    3.8811   -4.8500   -3.8239 H   0  0  0  0  0  0  0  0  0  0  0  0
    2.6281   -2.7053   -3.9214 H   0  0  0  0  0  0  0  0  0  0  0  0
    8.3540   -3.2005    2.0773 H   0  0  0  0  0  0  0  0  0  0  0  0
    8.9643   -5.2817   -1.6655 H   0  0  0  0  0  0  0  0  0  0  0  0
    2.2541    2.1577   -0.0162 H   0  0  0  0  0  0  0  0  0  0  0  0
    2.1380   -2.1590    0.1704 H   0  0  0  0  0  0  0  0  0  0  0  0
   10.7285   -2.5296    1.9831 H   0  0  0  0  0  0  0  0  0  0  0  0
   11.3277   -4.5266   -1.5700 H   0  0  0  0  0  0  0  0  0  0  0  0
   -0.2143    2.1790   -0.0369 H   0  0  0  0  0  0  0  0  0  0  0  0
   -0.2728   -2.1234    0.0196 H   0  0  0  0  0  0  0  0  0  0  0  0
  1 25  1  0  0  0  0
  2 10  1  0  0  0  0
  2 16  1  0  0  0  0
  2 26  1  0  0  0  0
  3  4  1  0  0  0  0
  3  8  2  0  0  0  0
  4 10  2  0  0  0  0
  5 21  2  0  0  0  0
  5 22  1  0  0  0  0
  6  7  1  0  0  0  0
  6  8  1  0  0  0  0
  6 11  2  0  0  0  0
  7 10  1  0  0  0  0
  7 13  2  0  0  0  0
  8  9  1  0  0  0  0
  9 12  1  0  0  0  0
  9 27  1  0  0  0  0
  9 28  1  0  0  0  0
 11 14  1  0  0  0  0
 11 29  1  0  0  0  0
 12 17  2  0  0  0  0
 12 18  1  0  0  0  0
 13 15  1  0  0  0  0
 13 30  1  0  0  0  0
 14 15  2  0  0  0  0
 14 31  1  0  0  0  0
 15 32  1  0  0  0  0
 16 19  2  0  0  0  0
 16 20  1  0  0  0  0
 17 21  1  0  0  0  0
 17 33  1  0  0  0  0
 18 22  2  0  0  0  0
 18 34  1  0  0  0  0
 19 23  1  0  0  0  0
 19 35  1  0  0  0  0
 20 24  2  0  0  0  0
 20 36  1  0  0  0  0
 21 37  1  0  0  0  0
 22 38  1  0  0  0  0
 23 25  2  0  0  0  0
 23 39  1  0  0  0  0
 24 25  1  0  0  0  0
 24 40  1  0  0  0  0
M  END
>  <DRUGBANK_ID>
DB04879

>  <COMMON_NAME>
Vatalanib

>  <CAS_NUMBER>
212141-54-3

>  <UNII>
5DX9U76296

>  <SYNONYMS>
Vatalanib; Vatalinib

$$$$
