
 OpenBabel10282417143D

 25 26  0  0  0  0  0  0  0  0999 V2000
    0.9890   -0.1502    0.1761 O   0  0  0  0  0  0  0  0  0  0  0  0
    2.9784    1.0967   -0.0015 N   0  0  0  0  0  0  0  0  0  0  0  0
    2.2967    2.3490   -0.0989 C   0  0  0  0  0  0  0  0  0  0  0  0
    4.3642    1.0471   -0.1417 C   0  0  0  0  0  0  0  0  0  0  0  0
    5.0325   -0.1101   -0.2612 C   0  0  0  0  0  0  0  0  0  0  0  0
    2.2219   -0.0769    0.1187 C   0  0  0  0  0  0  0  0  0  0  0  0
    4.3063   -1.3529   -0.1379 C   0  0  0  0  0  0  0  0  0  0  0  0
    2.9900   -1.3519    0.1075 C   0  0  0  0  0  0  0  0  0  0  0  0
    2.5812    3.2207   -1.1609 C   0  0  0  0  0  0  0  0  0  0  0  0
    1.3628    2.7367    0.8663 C   0  0  0  0  0  0  0  0  0  0  0  0
    6.5063   -0.1886   -0.5183 C   0  0  0  0  0  0  0  0  0  0  0  0
    2.0334    4.5039   -1.1911 C   0  0  0  0  0  0  0  0  0  0  0  0
    0.7709    4.0010    0.8028 C   0  0  0  0  0  0  0  0  0  0  0  0
    1.1439    4.9006   -0.1956 C   0  0  0  0  0  0  0  0  0  0  0  0
    4.8835    2.0027   -0.1441 H   0  0  0  0  0  0  0  0  0  0  0  0
    4.8516   -2.2887   -0.2070 H   0  0  0  0  0  0  0  0  0  0  0  0
    2.4222   -2.2599    0.2594 H   0  0  0  0  0  0  0  0  0  0  0  0
    3.1942    2.8866   -1.9948 H   0  0  0  0  0  0  0  0  0  0  0  0
    1.1169    2.0742    1.6918 H   0  0  0  0  0  0  0  0  0  0  0  0
    7.0137   -0.7740    0.2552 H   0  0  0  0  0  0  0  0  0  0  0  0
    6.6910   -0.6641   -1.4885 H   0  0  0  0  0  0  0  0  0  0  0  0
    6.9687    0.8038   -0.5469 H   0  0  0  0  0  0  0  0  0  0  0  0
    2.2929    5.1884   -1.9943 H   0  0  0  0  0  0  0  0  0  0  0  0
    0.0257    4.2862    1.5405 H   0  0  0  0  0  0  0  0  0  0  0  0
    0.7295    5.9054   -0.2054 H   0  0  0  0  0  0  0  0  0  0  0  0
  1  6  2  0  0  0  0
  2  3  1  0  0  0  0
  2  4  1  0  0  0  0
  2  6  1  0  0  0  0
  3  9  2  0  0  0  0
  3 10  1  0  0  0  0
  4  5  2  0  0  0  0
  4 15  1  0  0  0  0
  5  7  1  0  0  0  0
  5 11  1  0  0  0  0
  6  8  1  0  0  0  0
  7  8  2  0  0  0  0
  7 16  1  0  0  0  0
  8 17  1  0  0  0  0
  9 12  1  0  0  0  0
  9 18  1  0  0  0  0
 10 13  2  0  0  0  0
 10 19  1  0  0  0  0
 11 20  1  0  0  0  0
 11 21  1  0  0  0  0
 11 22  1  0  0  0  0
 12 14  2  0  0  0  0
 12 23  1  0  0  0  0
 13 14  1  0  0  0  0
 13 24  1  0  0  0  0
 14 25  1  0  0  0  0
M  END
>  <DRUGBANK_ID>
DB04951

>  <COMMON_NAME>
Pirfenidone

>  <CAS_NUMBER>
53179-13-8

>  <UNII>
D7NLD2JX7U

>  <SYNONYMS>
Pirfenidona; Pirfenidone

$$$$
