5IG
 OpenBabel10282417163D

 55 57  0  0  0  0  0  0  0  0999 V2000
    1.1911    0.1541   -0.1935 C   0  0  0  0  0  0  0  0  0  0  0  0
    0.0928    0.9244   -0.0347 N   0  0  0  0  0  0  0  0  0  0  0  0
   -1.0808    0.3070    0.0146 C   0  0  0  0  0  0  0  0  0  0  0  0
   -1.2201   -1.0174    0.0043 N   0  0  0  0  0  0  0  0  0  0  0  0
   -0.0923   -1.7796   -0.0767 C   0  0  0  0  0  0  0  0  0  0  0  0
    1.1870   -1.2566   -0.2535 C   0  0  0  0  0  0  0  0  0  0  0  0
    2.3378    0.9090   -0.4466 N   0  0  0  0  0  0  0  0  0  0  0  0
   -2.2117    1.0731    0.0593 N   0  0  0  0  0  0  0  0  0  0  0  0
   -0.3180   -3.2657    0.0352 C   0  0  0  0  0  0  0  0  0  0  0  0
    2.7508   -3.1345   -1.1536 C   0  0  0  0  0  0  0  0  0  0  0  0
    3.9154   -3.9255   -0.9290 C   0  0  0  0  0  0  0  0  0  0  0  0
    4.7678   -3.7495    0.1941 C   0  0  0  0  0  0  0  0  0  0  0  0
    4.4521   -2.7909    1.1440 C   0  0  0  0  0  0  0  0  0  0  0  0
    3.2958   -2.0658    0.8177 C   0  0  0  0  0  0  0  0  0  0  0  0
    2.4170   -2.1399   -0.2648 C   0  0  0  0  0  0  0  0  0  0  0  0
    5.9371   -4.4838    0.2491 O   0  0  0  0  0  0  0  0  0  0  0  0
    6.9025   -3.9774    1.1946 C   0  0  0  0  0  0  0  0  0  0  0  0
    6.2427   -3.6369    2.5338 C   0  0  0  0  0  0  0  0  0  0  0  0
    5.3036   -2.6163    2.3193 N   0  0  0  0  0  0  0  0  0  0  0  0
    5.4654   -1.4864    3.2485 C   0  0  0  0  0  0  0  0  0  0  0  0
    5.6870   -0.0921    2.6543 C   0  0  0  0  0  0  0  0  0  0  0  0
    4.5781    0.3397    1.7606 C   0  0  0  0  0  0  0  0  0  0  0  0
    3.2890    0.4571    2.3992 O   0  0  0  0  0  0  0  0  0  0  0  0
    2.7188   -0.5192    3.3093 C   0  0  0  0  0  0  0  0  0  0  0  0
    7.5797   -2.6876    0.6598 C   0  0  0  0  0  0  0  0  0  0  0  0
    8.0138   -4.9999    1.4271 C   0  0  0  0  0  0  0  0  0  0  0  0
    6.5812   -4.0474    3.6227 O   0  0  0  0  0  0  0  0  0  0  0  0
   -1.0893   -3.6538    1.2828 C   0  0  0  0  0  0  0  0  0  0  0  0
    2.1891    1.8513   -0.0857 H   0  0  0  0  0  0  0  0  0  0  0  0
    3.1688    0.4918   -0.0769 H   0  0  0  0  0  0  0  0  0  0  0  0
   -2.1119    2.0733    0.0364 H   0  0  0  0  0  0  0  0  0  0  0  0
   -3.1014    0.6085    0.0113 H   0  0  0  0  0  0  0  0  0  0  0  0
   -0.8282   -3.6007   -0.8725 H   0  0  0  0  0  0  0  0  0  0  0  0
    0.6213   -3.8161    0.0911 H   0  0  0  0  0  0  0  0  0  0  0  0
    2.1111   -3.3075   -2.0137 H   0  0  0  0  0  0  0  0  0  0  0  0
    4.1680   -4.6766   -1.6705 H   0  0  0  0  0  0  0  0  0  0  0  0
    2.9783   -1.2495    1.3839 H   0  0  0  0  0  0  0  0  0  0  0  0
    4.7173   -1.5409    4.0322 H   0  0  0  0  0  0  0  0  0  0  0  0
    6.3873   -1.6417    3.8341 H   0  0  0  0  0  0  0  0  0  0  0  0
    5.7695    0.6695    3.4351 H   0  0  0  0  0  0  0  0  0  0  0  0
    6.6294   -0.0753    2.0884 H   0  0  0  0  0  0  0  0  0  0  0  0
    4.7861    1.3058    1.2857 H   0  0  0  0  0  0  0  0  0  0  0  0
    4.6337   -0.2930    0.8666 H   0  0  0  0  0  0  0  0  0  0  0  0
    2.8042   -1.5944    3.0703 H   0  0  0  0  0  0  0  0  0  0  0  0
    3.1357   -0.4134    4.3032 H   0  0  0  0  0  0  0  0  0  0  0  0
    1.6373   -0.3657    3.3387 H   0  0  0  0  0  0  0  0  0  0  0  0
    8.2986   -2.2860    1.3862 H   0  0  0  0  0  0  0  0  0  0  0  0
    8.0864   -2.8770   -0.2879 H   0  0  0  0  0  0  0  0  0  0  0  0
    6.8652   -1.8823    0.4565 H   0  0  0  0  0  0  0  0  0  0  0  0
    7.6249   -5.9374    1.8340 H   0  0  0  0  0  0  0  0  0  0  0  0
    8.5233   -5.2296    0.4865 H   0  0  0  0  0  0  0  0  0  0  0  0
    8.7646   -4.6154    2.1322 H   0  0  0  0  0  0  0  0  0  0  0  0
   -2.0958   -3.2277    1.2845 H   0  0  0  0  0  0  0  0  0  0  0  0
   -1.1738   -4.7437    1.3304 H   0  0  0  0  0  0  0  0  0  0  0  0
   -0.5685   -3.3143    2.1855 H   0  0  0  0  0  0  0  0  0  0  0  0
  1  2  2  0  0  0  0
  1  6  1  0  0  0  0
  1  7  1  0  0  0  0
  2  3  1  0  0  0  0
  3  4  2  0  0  0  0
  3  8  1  0  0  0  0
  4  5  1  0  0  0  0
  5  6  2  0  0  0  0
  5  9  1  0  0  0  0
  6 15  1  0  0  0  0
  7 29  1  0  0  0  0
  7 30  1  0  0  0  0
  8 31  1  0  0  0  0
  8 32  1  0  0  0  0
  9 28  1  0  0  0  0
  9 33  1  0  0  0  0
  9 34  1  0  0  0  0
 10 11  1  0  0  0  0
 10 15  2  0  0  0  0
 10 35  1  0  0  0  0
 11 12  2  0  0  0  0
 11 36  1  0  0  0  0
 12 13  1  0  0  0  0
 12 16  1  0  0  0  0
 13 14  2  0  0  0  0
 13 19  1  0  0  0  0
 14 15  1  0  0  0  0
 14 37  1  0  0  0  0
 16 17  1  0  0  0  0
 17 18  1  0  0  0  0
 17 25  1  0  0  0  0
 17 26  1  0  0  0  0
 18 19  1  0  0  0  0
 18 27  2  0  0  0  0
 19 20  1  0  0  0  0
 20 21  1  0  0  0  0
 20 38  1  0  0  0  0
 20 39  1  0  0  0  0
 21 22  1  0  0  0  0
 21 40  1  0  0  0  0
 21 41  1  0  0  0  0
 22 23  1  0  0  0  0
 22 42  1  0  0  0  0
 22 43  1  0  0  0  0
 23 24  1  0  0  0  0
 24 44  1  0  0  0  0
 24 45  1  0  0  0  0
 24 46  1  0  0  0  0
 25 47  1  0  0  0  0
 25 48  1  0  0  0  0
 25 49  1  0  0  0  0
 26 50  1  0  0  0  0
 26 51  1  0  0  0  0
 26 52  1  0  0  0  0
 28 53  1  0  0  0  0
 28 54  1  0  0  0  0
 28 55  1  0  0  0  0
M  END
>  <DRUGBANK_ID>
DB07174

>  <COMMON_NAME>
6-(2,4-DIAMINO-6-ETHYLPYRIMIDIN-5-YL)-4-(3-METHOXYPROPYL)-2,2-DIMETHYL-2H-1,4-BENZOXAZIN-3(4H)-ONE

$$$$
