
 OpenBabel10282417223D

 52 56  0  0  1  0  0  0  0  0999 V2000
    2.5078    0.9915    0.0123 C   0  0  0  0  0  0  0  0  0  0  0  0
    1.1749    0.2997    0.0433 C   0  0  0  0  0  0  0  0  0  0  0  0
    0.0179    1.0552    0.0135 C   0  0  0  0  0  0  0  0  0  0  0  0
   -1.1608    0.3511    0.0039 C   0  0  0  0  0  0  0  0  0  0  0  0
   -2.4898    1.0389   -0.0191 C   0  0  0  0  0  0  0  0  0  0  0  0
   -1.1836   -0.9904    0.0072 N   0  0  0  0  0  0  0  0  0  0  0  0
   -0.0272   -1.6695    0.0642 C   0  0  0  0  0  0  0  0  0  0  0  0
    1.1666   -1.0558    0.1008 N   0  0  0  0  0  0  0  0  0  0  0  0
   -0.0960   -3.0451    0.0128 N   0  0  0  0  0  0  0  0  0  0  0  0
    0.5909   -3.8375    1.0205 C   0  0  0  0  0  0  0  0  0  0  0  0
   -0.0336   -5.2163    0.8413 C   0  0  2  0  0  0  0  0  0  0  0  0
    0.5553   -5.9526   -0.3480 C   0  0  0  0  0  0  0  0  0  0  0  0
   -0.5405   -6.7619   -0.8462 N   0  0  0  0  0  0  0  0  0  0  0  0
   -1.8264   -6.1634   -0.4869 C   0  0  0  0  0  0  0  0  0  0  0  0
   -1.4723   -4.9618    0.3965 C   0  0  2  0  0  0  0  0  0  0  0  0
   -1.3769   -3.6417   -0.3744 C   0  0  0  0  0  0  0  0  0  0  0  0
   -0.4176   -7.8580   -1.6806 C   0  0  0  0  0  0  0  0  0  0  0  0
   -1.3812   -8.4692   -2.1489 O   0  0  0  0  0  0  0  0  0  0  0  0
    0.9497   -8.3235   -2.0335 C   0  0  0  0  0  0  0  0  0  0  0  0
    1.8061   -8.7745   -1.0231 C   0  0  0  0  0  0  0  0  0  0  0  0
    1.4109   -8.7823    0.2595 F   0  0  0  0  0  0  0  0  0  0  0  0
    3.1001   -9.2178   -1.3030 C   0  0  0  0  0  0  0  0  0  0  0  0
    3.5406   -9.2834   -2.6218 C   0  0  0  0  0  0  0  0  0  0  0  0
    2.6689   -8.9369   -3.6568 C   0  0  0  0  0  0  0  0  0  0  0  0
    1.3788   -8.4525   -3.3599 C   0  0  0  0  0  0  0  0  0  0  0  0
    0.5137   -8.1214   -4.4175 N   0  0  0  0  0  0  0  0  0  0  0  0
   -0.0394   -6.8860   -4.5344 N   0  0  0  0  0  0  0  0  0  0  0  0
   -0.7820   -7.0248   -5.6359 C   0  0  0  0  0  0  0  0  0  0  0  0
   -0.6251   -8.3126   -6.1576 C   0  0  0  0  0  0  0  0  0  0  0  0
    0.2999   -8.9736   -5.4559 N   0  0  0  0  0  0  0  0  0  0  0  0
    2.5966    1.6207   -0.8811 H   0  0  0  0  0  0  0  0  0  0  0  0
    2.6261    1.6215    0.8995 H   0  0  0  0  0  0  0  0  0  0  0  0
    3.3247    0.2643   -0.0056 H   0  0  0  0  0  0  0  0  0  0  0  0
    0.0336    2.1372   -0.0027 H   0  0  0  0  0  0  0  0  0  0  0  0
   -2.6076    1.6729    0.8645 H   0  0  0  0  0  0  0  0  0  0  0  0
   -2.5906    1.6475   -0.9220 H   0  0  0  0  0  0  0  0  0  0  0  0
   -3.3033    0.3040   -0.0153 H   0  0  0  0  0  0  0  0  0  0  0  0
    1.6759   -3.8799    0.8666 H   0  0  0  0  0  0  0  0  0  0  0  0
    0.3893   -3.4687    2.0332 H   0  0  0  0  0  0  0  0  0  0  0  0
    0.0124   -5.8432    1.7405 H   0  0  0  0  0  0  0  0  0  0  0  0
    0.8647   -5.2879   -1.1619 H   0  0  0  0  0  0  0  0  0  0  0  0
    1.4184   -6.5358   -0.0426 H   0  0  0  0  0  0  0  0  0  0  0  0
   -2.3870   -5.8756   -1.3846 H   0  0  0  0  0  0  0  0  0  0  0  0
   -2.4186   -6.9068    0.0577 H   0  0  0  0  0  0  0  0  0  0  0  0
   -2.1594   -4.8464    1.2438 H   0  0  0  0  0  0  0  0  0  0  0  0
   -2.2522   -3.0342   -0.1226 H   0  0  0  0  0  0  0  0  0  0  0  0
   -1.3762   -3.7960   -1.4588 H   0  0  0  0  0  0  0  0  0  0  0  0
    3.7519   -9.5148   -0.4857 H   0  0  0  0  0  0  0  0  0  0  0  0
    4.5531   -9.6175   -2.8406 H   0  0  0  0  0  0  0  0  0  0  0  0
    3.0159   -9.0029   -4.6875 H   0  0  0  0  0  0  0  0  0  0  0  0
   -1.3863   -6.2037   -5.9949 H   0  0  0  0  0  0  0  0  0  0  0  0
   -1.1050   -8.7774   -7.0077 H   0  0  0  0  0  0  0  0  0  0  0  0
  1  2  1  0  0  0  0
  1 31  1  0  0  0  0
  1 32  1  0  0  0  0
  1 33  1  0  0  0  0
  2  3  2  0  0  0  0
  2  8  1  0  0  0  0
  3  4  1  0  0  0  0
  3 34  1  0  0  0  0
  4  5  1  0  0  0  0
  4  6  2  0  0  0  0
  5 35  1  0  0  0  0
  5 36  1  0  0  0  0
  5 37  1  0  0  0  0
  6  7  1  0  0  0  0
  7  8  2  0  0  0  0
  7  9  1  0  0  0  0
  9 10  1  0  0  0  0
  9 16  1  0  0  0  0
 10 38  1  0  0  0  0
 10 39  1  0  0  0  0
 11 10  1  0  0  0  0
 11 12  1  0  0  0  0
 11 15  1  0  0  0  0
 11 40  1  1  0  0  0
 12 13  1  0  0  0  0
 12 41  1  0  0  0  0
 12 42  1  0  0  0  0
 13 14  1  0  0  0  0
 13 17  1  0  0  0  0
 14 43  1  0  0  0  0
 14 44  1  0  0  0  0
 15 14  1  0  0  0  0
 15 16  1  0  0  0  0
 15 45  1  1  0  0  0
 16 46  1  0  0  0  0
 16 47  1  0  0  0  0
 17 18  2  0  0  0  0
 17 19  1  0  0  0  0
 19 20  2  0  0  0  0
 19 25  1  0  0  0  0
 20 21  1  0  0  0  0
 20 22  1  0  0  0  0
 22 23  2  0  0  0  0
 22 48  1  0  0  0  0
 23 24  1  0  0  0  0
 23 49  1  0  0  0  0
 24 25  2  0  0  0  0
 24 50  1  0  0  0  0
 25 26  1  0  0  0  0
 26 27  1  0  0  0  0
 26 30  1  0  0  0  0
 27 28  2  0  0  0  0
 28 29  1  0  0  0  0
 28 51  1  0  0  0  0
 29 30  2  0  0  0  0
 29 52  1  0  0  0  0
M  END
>  <DRUGBANK_ID>
DB14961

>  <COMMON_NAME>
Seltorexant

>  <CAS_NUMBER>
1452539-75-1

>  <UNII>
AIS8N3O50B

>  <SYNONYMS>
JNJ-42847922; Seltorexant

$$$$
