
 OpenBabel10282417233D

 61 64  0  0  1  0  0  0  0  0999 V2000
    0.2718   -0.1644    3.0985 C   0  0  0  0  0  0  0  0  0  0  0  0
   -1.1929   -4.3178   -0.9943 C   0  0  0  0  0  0  0  0  0  0  0  0
   -0.1657   -7.6778   -0.4977 C   0  0  0  0  0  0  0  0  0  0  0  0
    2.6798   -4.6439    2.2194 C   0  0  0  0  0  0  0  0  0  0  0  0
    1.6321   -3.1953    4.8375 C   0  0  0  0  0  0  0  0  0  0  0  0
    0.7355   -2.1729    5.7752 C   0  0  0  0  0  0  0  0  0  0  0  0
    2.7652   -5.2590    0.5652 C   0  0  0  0  0  0  0  0  0  0  0  0
   -0.9340   -1.8516    1.3694 C   0  0  0  0  0  0  0  0  0  0  0  0
    0.3604   -5.1216    1.6382 C   0  0  0  0  0  0  0  0  0  0  0  0
   -1.1928   -1.8879    3.0003 C   0  0  0  0  0  0  0  0  0  0  0  0
    0.9104   -4.1904    0.7315 C   0  0  0  0  0  0  0  0  0  0  0  0
    6.0022   -1.5451    5.3251 C   0  0  0  0  0  0  0  0  0  0  0  0
    1.5215   -3.1301    2.3054 C   0  0  1  0  0  0  0  0  0  0  0  0
    0.8435   -2.9998    3.6169 C   0  0  1  0  0  0  0  0  0  0  0  0
   -0.0808   -3.0621    1.1698 C   0  0  1  0  0  0  0  0  0  0  0  0
    1.2178   -1.0416    4.9206 C   0  0  1  0  0  0  0  0  0  0  0  0
    1.2085   -5.4934   -0.4272 C   0  0  2  0  0  0  0  0  0  0  0  0
   -0.3571   -6.2392    1.2728 C   0  0  0  0  0  0  0  0  0  0  0  0
    3.6801   -1.3599    5.0060 C   0  0  0  0  0  0  0  0  0  0  0  0
    0.2780   -1.5907    3.6744 C   0  0  2  0  0  0  0  0  0  0  0  0
    0.1418   -4.0556   -0.3835 C   0  0  1  0  0  0  0  0  0  0  0  0
    5.9631   -0.7581    6.6377 C   0  0  0  0  0  0  0  0  0  0  0  0
    4.9862   -1.0961    7.5050 F   0  0  0  0  0  0  0  0  0  0  0  0
    7.1235   -0.9268    7.3088 F   0  0  0  0  0  0  0  0  0  0  0  0
    5.8161    0.5623    6.3812 F   0  0  0  0  0  0  0  0  0  0  0  0
    2.6628   -0.8450    4.3854 N   0  0  0  0  0  0  0  0  0  0  0  0
    0.4119   -6.6328    0.2148 N   0  0  0  0  0  0  0  0  0  0  0  0
   -1.3385   -6.5794    1.8876 O   0  0  0  0  0  0  0  0  0  0  0  0
    3.7213   -2.2016    6.0881 O   0  0  0  0  0  0  0  0  0  0  0  0
    4.8974   -1.2485    4.4599 O   0  0  0  0  0  0  0  0  0  0  0  0
    2.1641   -2.3231    1.9383 H   0  0  0  0  0  0  0  0  0  0  0  0
    0.0728   -3.7461    3.8503 H   0  0  0  0  0  0  0  0  0  0  0  0
   -0.9303   -3.6835    1.6570 H   0  0  0  0  0  0  0  0  0  0  0  0
    1.7997   -1.1819    5.7976 H   0  0  0  0  0  0  0  0  0  0  0  0
    1.5072   -5.6896   -1.4523 H   0  0  0  0  0  0  0  0  0  0  0  0
   -0.7488    0.1915    2.8646 H   0  0  0  0  0  0  0  0  0  0  0  0
    0.8911   -0.0202    2.2273 H   0  0  0  0  0  0  0  0  0  0  0  0
    0.4551    0.5743    3.8841 H   0  0  0  0  0  0  0  0  0  0  0  0
   -1.9903   -4.5741   -0.2961 H   0  0  0  0  0  0  0  0  0  0  0  0
   -1.4376   -3.3855   -1.5184 H   0  0  0  0  0  0  0  0  0  0  0  0
   -1.1074   -5.0953   -1.7602 H   0  0  0  0  0  0  0  0  0  0  0  0
    0.3585   -7.7118   -1.4376 H   0  0  0  0  0  0  0  0  0  0  0  0
   -0.0020   -8.5484    0.1407 H   0  0  0  0  0  0  0  0  0  0  0  0
   -1.2351   -7.4662   -0.5892 H   0  0  0  0  0  0  0  0  0  0  0  0
    2.6112   -5.7600    2.4400 H   0  0  0  0  0  0  0  0  0  0  0  0
    2.2500   -4.9320    3.2084 H   0  0  0  0  0  0  0  0  0  0  0  0
    2.2124   -4.0690    5.2128 H   0  0  0  0  0  0  0  0  0  0  0  0
    2.5619   -2.9046    4.3074 H   0  0  0  0  0  0  0  0  0  0  0  0
    0.8716   -2.0818    6.8840 H   0  0  0  0  0  0  0  0  0  0  0  0
   -0.2066   -1.5216    5.7575 H   0  0  0  0  0  0  0  0  0  0  0  0
    3.3545   -6.1614    0.3974 H   0  0  0  0  0  0  0  0  0  0  0  0
    3.3354   -4.4272    0.1517 H   0  0  0  0  0  0  0  0  0  0  0  0
   -1.7618   -1.9937    0.6624 H   0  0  0  0  0  0  0  0  0  0  0  0
   -0.4313   -0.9546    1.0411 H   0  0  0  0  0  0  0  0  0  0  0  0
    0.4233   -5.1004    2.7035 H   0  0  0  0  0  0  0  0  0  0  0  0
   -1.8638   -2.7625    3.1487 H   0  0  0  0  0  0  0  0  0  0  0  0
   -1.8444   -1.1715    3.4839 H   0  0  0  0  0  0  0  0  0  0  0  0
    1.3583   -3.4012   -0.0880 H   0  0  0  0  0  0  0  0  0  0  0  0
    6.1047   -2.6290    5.4706 H   0  0  0  0  0  0  0  0  0  0  0  0
    6.8699   -1.2183    4.7477 H   0  0  0  0  0  0  0  0  0  0  0  0
    2.9024   -2.4133    6.5640 H   0  0  0  0  0  0  0  0  0  0  0  0
  1 36  1  0  0  0  0
  1 37  1  0  0  0  0
  1 38  1  0  0  0  0
  2 39  1  0  0  0  0
  2 40  1  0  0  0  0
  2 41  1  0  0  0  0
  3 42  1  0  0  0  0
  3 43  1  0  0  0  0
  3 44  1  0  0  0  0
  4 45  1  0  0  0  0
  4 46  1  0  0  0  0
  5 47  1  0  0  0  0
  5 48  1  0  0  0  0
  6  5  1  0  0  0  0
  6 49  1  0  0  0  0
  6 50  1  0  0  0  0
  7  4  1  0  0  0  0
  7 51  1  0  0  0  0
  7 52  1  0  0  0  0
  8 53  1  0  0  0  0
  8 54  1  0  0  0  0
  9 55  1  0  0  0  0
 10  8  1  0  0  0  0
 10 56  1  0  0  0  0
 10 57  1  0  0  0  0
 11  9  2  0  0  0  0
 11 58  1  0  0  0  0
 12 59  1  0  0  0  0
 12 60  1  0  0  0  0
 13  4  1  0  0  0  0
 13 14  1  0  0  0  0
 13 15  1  0  0  0  0
 13 31  1  1  0  0  0
 14  5  1  0  0  0  0
 14 20  1  0  0  0  0
 14 32  1  6  0  0  0
 15  8  1  0  0  0  0
 15 21  1  0  0  0  0
 15 33  1  6  0  0  0
 16  6  1  0  0  0  0
 16 34  1  6  0  0  0
 16 26  1  0  0  0  0
 17  7  1  0  0  0  0
 17 27  1  0  0  0  0
 17 35  1  6  0  0  0
 18  9  1  0  0  0  0
 19 29  1  0  0  0  0
 20 10  1  0  0  0  0
 20 16  1  0  0  0  0
 20  1  1  1  0  0  0
 21 11  1  0  0  0  0
 21 17  1  0  0  0  0
 21  2  1  6  0  0  0
 22 12  1  0  0  0  0
 23 22  1  0  0  0  0
 24 22  1  0  0  0  0
 25 22  1  0  0  0  0
 26 19  2  3  0  0  0
 27 18  1  0  0  0  0
 27  3  1  0  0  0  0
 28 18  2  0  0  0  0
 29 61  1  0  0  0  0
 30 12  1  0  0  0  0
 30 19  1  0  0  0  0
M  END
>  <DRUGBANK_ID>
DB17016

>  <COMMON_NAME>
MK-4541

>  <CAS_NUMBER>
796885-38-6

>  <SYNONYMS>
2,2,2-trifluoroethyl N-[(1S,3aS,3bS,5aR,9aR,9bS,11aS)-6,9a,11a-trimethyl-7-oxo-2,3,3a,3b,4,5,5a,9b,10,11-decahydro-1H-indeno[5,4-f]quinolin-1-yl]carbamate

$$$$
