
 OpenBabel10282417183D

118117  0  0  0  0  0  0  0  0999 V2000
    1.0428    0.0856    0.0290 P   0  0  3  0  0  0  0  0  0  0  0  0
    1.8449    0.6067    1.3245 O   0  0  0  0  0  0  0  0  0  0  0  0
   -0.6633   -1.1867   -1.1491 C   0  0  0  0  0  0  0  0  0  0  0  0
    1.2484    0.9836   -1.1957 O   0  0  0  0  0  0  0  0  0  0  0  0
    1.0540   -1.8053    5.9310 C   0  0  0  0  0  0  0  0  0  0  0  0
    0.3869    0.0564    2.3749 N   0  3  0  0  0  0  0  0  0  0  0  0
   -0.7709   -1.8818    0.5617 O   0  0  0  0  0  0  0  0  0  0  0  0
   -0.6872    0.0856    0.0290 O   0  0  0  0  0  0  0  0  0  0  0  0
    1.9439   -0.5979    2.5709 C   0  0  0  0  0  0  0  0  0  0  0  0
   -0.8181    0.0196   -1.7311 O   0  0  0  0  0  0  0  0  0  0  0  0
    2.2719   -1.8871    5.7033 O   0  0  0  0  0  0  0  0  0  0  0  0
   -0.0598   -2.3433    5.0960 O   0  0  0  0  0  0  0  0  0  0  0  0
    0.0618   -1.6854    2.3951 C   0  0  3  0  0  0  0  0  0  0  0  0
   -1.3565    0.9666    0.9675 C   0  0  0  0  0  0  0  0  0  0  0  0
   -0.1962   -2.8913    3.4377 C   0  0  0  0  0  0  0  0  0  0  0  0
   -1.1457    0.3105    2.2391 C   0  0  0  0  0  0  0  0  0  0  0  0
    1.1039    1.8632    2.6617 C   0  0  0  0  0  0  0  0  0  0  0  0
    0.8986   -0.5933    4.1133 C   0  0  0  0  0  0  0  0  0  0  0  0
    1.0538   -3.4909   -0.8898 C   0  0  0  0  0  0  0  0  0  0  0  0
   -0.1868  -11.0680   -2.7651 C   0  0  0  0  0  0  0  0  0  0  0  0
    1.0936   -2.3678   -1.8956 C   0  0  0  0  0  0  0  0  0  0  0  0
   -0.2189  -11.5975   -4.1867 C   0  0  0  0  0  0  0  0  0  0  0  0
   -0.2622   -1.8985   -2.2479 C   0  0  0  0  0  0  0  0  0  0  0  0
   -0.2183   -4.8092   -2.4355 C   0  0  0  0  0  0  0  0  0  0  0  0
    1.0459   -9.0217   -3.5293 C   0  0  0  0  0  0  0  0  0  0  0  0
   -0.2146   -4.2950   -1.0184 C   0  0  0  0  0  0  0  0  0  0  0  0
    1.0558  -10.2064   -2.5625 C   0  0  0  0  0  0  0  0  0  0  0  0
    1.0487   -6.7894   -1.6477 C   0  0  0  0  0  0  0  0  0  0  0  0
   -0.2011   -7.6372   -1.8682 C   0  0  0  0  0  0  0  0  0  0  0  0
    1.0451   -5.6345   -2.6438 C   0  0  0  0  0  0  0  0  0  0  0  0
   -0.2024   -8.1694   -3.2999 C   0  0  0  0  0  0  0  0  0  0  0  0
   -1.6580   -0.5453    6.5267 C   0  0  0  0  0  0  0  0  0  0  0  0
   -6.6209   -2.9839   12.3145 C   0  0  0  0  0  0  0  0  0  0  0  0
   -0.4237    0.2872    6.7702 C   0  0  0  0  0  0  0  0  0  0  0  0
   -6.6025   -2.4767   13.7444 C   0  0  0  0  0  0  0  0  0  0  0  0
    0.7887   -0.6223    6.8506 C   0  0  0  0  0  0  0  0  0  0  0  0
   -1.6221   -1.1848    8.9320 C   0  0  0  0  0  0  0  0  0  0  0  0
   -5.3455   -0.9622   11.5549 C   0  0  0  0  0  0  0  0  0  0  0  0
   -1.6469   -1.7229    7.5043 C   0  0  0  0  0  0  0  0  0  0  0  0
   -6.6050   -1.8042   11.3473 C   0  0  0  0  0  0  0  0  0  0  0  0
   -4.1054   -1.1819    8.9175 C   0  0  0  0  0  0  0  0  0  0  0  0
   -4.1019   -2.3540    9.8964 C   0  0  0  0  0  0  0  0  0  0  0  0
   -2.8617   -0.3276    9.1500 C   0  0  0  0  0  0  0  0  0  0  0  0
   -4.0994   -1.8182   11.3267 C   0  0  0  0  0  0  0  0  0  0  0  0
    1.4204   -1.4943    1.2533 C   0  0  0  0  0  0  0  0  0  0  0  0
    2.7728    0.0856    0.0290 O   0  5  0  0  0  0  0  0  0  0  0  0
    2.8526   -1.2409    2.6434 H   0  0  0  0  0  0  0  0  0  0  0  0
    2.1810    0.3357    3.2676 H   0  0  0  0  0  0  0  0  0  0  0  0
   -0.8641   -1.3393    3.0786 H   0  0  0  0  0  0  0  0  0  0  0  0
   -0.9712    1.9685    1.0773 H   0  0  0  0  0  0  0  0  0  0  0  0
   -2.4506    0.8790    0.9237 H   0  0  0  0  0  0  0  0  0  0  0  0
   -1.2323   -3.2353    3.2822 H   0  0  0  0  0  0  0  0  0  0  0  0
    0.6192   -3.5537    3.2606 H   0  0  0  0  0  0  0  0  0  0  0  0
   -1.3921    0.7009    3.2218 H   0  0  0  0  0  0  0  0  0  0  0  0
   -1.7377   -0.6101    1.9869 H   0  0  0  0  0  0  0  0  0  0  0  0
    0.7600    2.1053    3.6551 H   0  0  0  0  0  0  0  0  0  0  0  0
    2.2594    1.8615    2.6876 H   0  0  0  0  0  0  0  0  0  0  0  0
    0.8100    2.4447    1.7891 H   0  0  0  0  0  0  0  0  0  0  0  0
    1.2464   -1.6966    3.8912 H   0  0  0  0  0  0  0  0  0  0  0  0
    2.1463   -0.6060    4.3698 H   0  0  0  0  0  0  0  0  0  0  0  0
    0.4646    0.0825    4.7429 H   0  0  0  0  0  0  0  0  0  0  0  0
    1.9928   -4.0305   -0.9258 H   0  0  0  0  0  0  0  0  0  0  0  0
    1.0509   -3.2370    0.1296 H   0  0  0  0  0  0  0  0  0  0  0  0
   -0.1885  -11.8913   -2.0488 H   0  0  0  0  0  0  0  0  0  0  0  0
   -1.1009  -10.4973   -2.5654 H   0  0  0  0  0  0  0  0  0  0  0  0
    1.3546   -2.7190   -2.8795 H   0  0  0  0  0  0  0  0  0  0  0  0
    1.8854   -1.6452   -1.6421 H   0  0  0  0  0  0  0  0  0  0  0  0
    0.6792  -12.1917   -4.3772 H   0  0  0  0  0  0  0  0  0  0  0  0
   -1.1067  -12.2053   -4.3503 H   0  0  0  0  0  0  0  0  0  0  0  0
   -0.2521  -10.7891   -4.9238 H   0  0  0  0  0  0  0  0  0  0  0  0
   -1.2644   -2.2603   -2.0278 H   0  0  0  0  0  0  0  0  0  0  0  0
   -0.1621   -1.0577   -2.9909 H   0  0  0  0  0  0  0  0  0  0  0  0
   -1.1396   -5.3520   -2.6120 H   0  0  0  0  0  0  0  0  0  0  0  0
   -0.2467   -4.0058   -3.1729 H   0  0  0  0  0  0  0  0  0  0  0  0
    1.0816   -9.3514   -4.5681 H   0  0  0  0  0  0  0  0  0  0  0  0
    1.9627   -8.4384   -3.4107 H   0  0  0  0  0  0  0  0  0  0  0  0
   -0.2422   -5.0623   -0.2470 H   0  0  0  0  0  0  0  0  0  0  0  0
   -1.1213   -3.7219   -0.8066 H   0  0  0  0  0  0  0  0  0  0  0  0
    1.9615  -10.7983   -2.7124 H   0  0  0  0  0  0  0  0  0  0  0  0
    1.0983   -9.8637   -1.5224 H   0  0  0  0  0  0  0  0  0  0  0  0
    1.9676   -7.3650   -1.7593 H   0  0  0  0  0  0  0  0  0  0  0  0
    1.0860   -6.4483   -0.6102 H   0  0  0  0  0  0  0  0  0  0  0  0
   -0.2373   -8.4390   -1.1299 H   0  0  0  0  0  0  0  0  0  0  0  0
   -1.1193   -7.0749   -1.6820 H   0  0  0  0  0  0  0  0  0  0  0  0
    1.0878   -5.9630   -3.6794 H   0  0  0  0  0  0  0  0  0  0  0  0
    1.9630   -5.0510   -2.5321 H   0  0  0  0  0  0  0  0  0  0  0  0
   -1.1215   -8.7275   -3.4843 H   0  0  0  0  0  0  0  0  0  0  0  0
   -0.2399   -7.3635   -4.0371 H   0  0  0  0  0  0  0  0  0  0  0  0
   -2.5453    0.0785    6.6274 H   0  0  0  0  0  0  0  0  0  0  0  0
   -1.7131   -0.8899    5.4949 H   0  0  0  0  0  0  0  0  0  0  0  0
   -7.5053   -3.5980   12.1365 H   0  0  0  0  0  0  0  0  0  0  0  0
   -5.7618   -3.6437   12.1481 H   0  0  0  0  0  0  0  0  0  0  0  0
   -0.4440    0.8077    7.7317 H   0  0  0  0  0  0  0  0  0  0  0  0
   -0.3658    1.1113    6.0404 H   0  0  0  0  0  0  0  0  0  0  0  0
   -7.4757   -1.8420   13.9197 H   0  0  0  0  0  0  0  0  0  0  0  0
   -6.6019   -3.3079   14.4470 H   0  0  0  0  0  0  0  0  0  0  0  0
   -5.7064   -1.8854   13.9573 H   0  0  0  0  0  0  0  0  0  0  0  0
    0.8584   -1.2355    7.7336 H   0  0  0  0  0  0  0  0  0  0  0  0
    1.6558    0.0732    6.8352 H   0  0  0  0  0  0  0  0  0  0  0  0
   -1.5526   -2.0159    9.6351 H   0  0  0  0  0  0  0  0  0  0  0  0
   -0.7262   -0.5966    9.1463 H   0  0  0  0  0  0  0  0  0  0  0  0
   -5.3153   -0.5255   12.5537 H   0  0  0  0  0  0  0  0  0  0  0  0
   -5.3670   -0.0930   10.8924 H   0  0  0  0  0  0  0  0  0  0  0  0
   -2.4933   -2.3750    7.3028 H   0  0  0  0  0  0  0  0  0  0  0  0
   -0.7959   -2.3932    7.3737 H   0  0  0  0  0  0  0  0  0  0  0  0
   -7.4924   -1.1826   11.4862 H   0  0  0  0  0  0  0  0  0  0  0  0
   -6.6642   -2.1741   10.3174 H   0  0  0  0  0  0  0  0  0  0  0  0
   -4.9987   -0.5639    9.0153 H   0  0  0  0  0  0  0  0  0  0  0  0
   -4.1657   -1.5565    7.8935 H   0  0  0  0  0  0  0  0  0  0  0  0
   -4.9591   -3.0003    9.7009 H   0  0  0  0  0  0  0  0  0  0  0  0
   -3.2435   -3.0130    9.7469 H   0  0  0  0  0  0  0  0  0  0  0  0
   -2.8351    0.1080   10.1490 H   0  0  0  0  0  0  0  0  0  0  0  0
   -2.8830    0.5435    8.4924 H   0  0  0  0  0  0  0  0  0  0  0  0
   -4.0369   -2.6490   12.0314 H   0  0  0  0  0  0  0  0  0  0  0  0
   -3.2033   -1.2310   11.5422 H   0  0  0  0  0  0  0  0  0  0  0  0
    1.4027   -2.5374    1.6301 H   0  0  0  0  0  0  0  0  0  0  0  0
    0.7226   -1.5056    0.5948 H   0  0  0  0  0  0  0  0  0  0  0  0
    2.5200   -1.3930    1.0017 H   0  0  0  0  0  0  0  0  0  0  0  0
  1 46  1  0  0  0  0
  2  1  1  0  0  0  0
  3  7  1  0  0  0  0
  4  1  2  0  0  0  0
  5 12  1  0  0  0  0
  6 16  1  0  0  0  0
  6 45  1  0  0  0  0
  7 13  1  0  0  0  0
  8  1  1  0  0  0  0
  9  2  1  0  0  0  0
  9 47  1  0  0  0  0
  9 48  1  0  0  0  0
 10  3  2  0  0  0  0
 11  5  2  0  0  0  0
 12 15  1  0  0  0  0
 13  9  1  0  0  0  0
 13 49  1  0  0  0  0
 14  8  1  0  0  0  0
 14 50  1  0  0  0  0
 14 51  1  0  0  0  0
 15 13  1  0  0  0  0
 15 52  1  0  0  0  0
 15 53  1  0  0  0  0
 16 14  1  0  0  0  0
 16 54  1  0  0  0  0
 16 55  1  0  0  0  0
 17  6  1  0  0  0  0
 17 56  1  0  0  0  0
 17 57  1  0  0  0  0
 17 58  1  0  0  0  0
 18  6  1  0  0  0  0
 18 59  1  0  0  0  0
 18 60  1  0  0  0  0
 18 61  1  0  0  0  0
 19 26  1  0  0  0  0
 19 62  1  0  0  0  0
 19 63  1  0  0  0  0
 20 27  1  0  0  0  0
 20 64  1  0  0  0  0
 20 65  1  0  0  0  0
 21 19  1  0  0  0  0
 21 66  1  0  0  0  0
 21 67  1  0  0  0  0
 22 20  1  0  0  0  0
 22 68  1  0  0  0  0
 22 69  1  0  0  0  0
 22 70  1  0  0  0  0
 23 21  1  0  0  0  0
 23  3  1  0  0  0  0
 23 71  1  0  0  0  0
 23 72  1  0  0  0  0
 24 30  1  0  0  0  0
 24 73  1  0  0  0  0
 24 74  1  0  0  0  0
 25 31  1  0  0  0  0
 25 75  1  0  0  0  0
 25 76  1  0  0  0  0
 26 24  1  0  0  0  0
 26 77  1  0  0  0  0
 26 78  1  0  0  0  0
 27 25  1  0  0  0  0
 27 79  1  0  0  0  0
 27 80  1  0  0  0  0
 28 81  1  0  0  0  0
 28 82  1  0  0  0  0
 29 28  1  0  0  0  0
 29 83  1  0  0  0  0
 29 84  1  0  0  0  0
 30 28  1  0  0  0  0
 30 85  1  0  0  0  0
 30 86  1  0  0  0  0
 31 29  1  0  0  0  0
 31 87  1  0  0  0  0
 31 88  1  0  0  0  0
 32 39  1  0  0  0  0
 32 89  1  0  0  0  0
 32 90  1  0  0  0  0
 33 40  1  0  0  0  0
 33 91  1  0  0  0  0
 33 92  1  0  0  0  0
 34 32  1  0  0  0  0
 34 93  1  0  0  0  0
 34 94  1  0  0  0  0
 35 33  1  0  0  0  0
 35 95  1  0  0  0  0
 35 96  1  0  0  0  0
 35 97  1  0  0  0  0
 36 34  1  0  0  0  0
 36  5  1  0  0  0  0
 36 98  1  0  0  0  0
 36 99  1  0  0  0  0
 37 43  1  0  0  0  0
 37100  1  0  0  0  0
 37101  1  0  0  0  0
 38 44  1  0  0  0  0
 38102  1  0  0  0  0
 38103  1  0  0  0  0
 39 37  1  0  0  0  0
 39104  1  0  0  0  0
 39105  1  0  0  0  0
 40 38  1  0  0  0  0
 40106  1  0  0  0  0
 40107  1  0  0  0  0
 41108  1  0  0  0  0
 41109  1  0  0  0  0
 42 41  1  0  0  0  0
 42110  1  0  0  0  0
 42111  1  0  0  0  0
 43 41  1  0  0  0  0
 43112  1  0  0  0  0
 43113  1  0  0  0  0
 44 42  1  0  0  0  0
 44114  1  0  0  0  0
 44115  1  0  0  0  0
 45116  1  0  0  0  0
 45117  1  0  0  0  0
 45118  1  0  0  0  0
M  CHG  2   6   1  46  -1
M  END
>  <DRUGBANK_ID>
DB11283

>  <SECONDARY_ACCESSION_NUMBERS>
DBSALT001574

>  <COMMON_NAME>
DL-dimyristoylphosphatidylcholine

>  <CAS_NUMBER>
18656-38-7

>  <UNII>
U86ZGC74V5

>  <SYNONYMS>
dimyristoyl phosphatidylcholine; dimyristoyl-phosphatidylcholine; Dimyristoylphosphatidylcholine; Dimyristoylphosphatidylcholine, DL-; DMPC; l-Î±-dimyristoylphosphatidylcholine

$$$$
