
 OpenBabel10282417203D

 49 51  0  0  0  0  0  0  0  0999 V2000
    0.4652    0.1157   -0.1560 C   0  0  0  0  0  0  0  0  0  0  0  0
    0.2861    0.4270    1.2722 N   0  0  0  0  0  0  0  0  0  0  0  0
   -1.1460    0.6045    1.4458 C   0  0  0  0  0  0  0  0  0  0  0  0
    0.8174   -0.4816    2.3038 C   0  0  0  0  0  0  0  0  0  0  0  0
    0.6160   -1.9606    2.1075 C   0  0  0  0  0  0  0  0  0  0  0  0
    1.3973   -2.4868    0.9039 C   0  0  0  0  0  0  0  0  0  0  0  0
    2.8557   -2.2644    0.8618 N   0  0  0  0  0  0  0  0  0  0  0  0
    3.6933   -3.3910    0.9708 C   0  0  0  0  0  0  0  0  0  0  0  0
    3.4603   -4.7643    1.1839 C   0  0  0  0  0  0  0  0  0  0  0  0
    4.5505   -5.6403    1.3066 C   0  0  0  0  0  0  0  0  0  0  0  0
    5.8573   -5.1688    1.2218 C   0  0  0  0  0  0  0  0  0  0  0  0
    6.0771   -3.8252    0.9781 C   0  0  0  0  0  0  0  0  0  0  0  0
    5.0078   -2.9307    0.8315 C   0  0  0  0  0  0  0  0  0  0  0  0
    4.9765   -1.5423    0.5631 C   0  0  0  0  0  0  0  0  0  0  0  0
    3.6579   -1.0905    0.6766 C   0  0  0  0  0  0  0  0  0  0  0  0
    3.3506    0.4226    0.6384 C   0  0  0  0  0  0  0  0  0  0  0  0
    3.6614    1.2191    1.9093 C   0  0  0  0  0  0  0  0  0  0  0  0
    5.0789    1.0268    2.3766 C   0  0  0  0  0  0  0  0  0  0  0  0
    6.0368    1.5631    1.3156 C   0  0  0  0  0  0  0  0  0  0  0  0
    6.2855    0.6877    0.0751 C   0  0  0  0  0  0  0  0  0  0  0  0
    6.2825   -0.8053    0.3454 C   0  0  0  0  0  0  0  0  0  0  0  0
    0.4793    1.0520   -0.7268 H   0  0  0  0  0  0  0  0  0  0  0  0
   -0.3090   -0.5384   -0.5550 H   0  0  0  0  0  0  0  0  0  0  0  0
    1.3916   -0.3787   -0.4427 H   0  0  0  0  0  0  0  0  0  0  0  0
   -1.6617   -0.3402    1.2466 H   0  0  0  0  0  0  0  0  0  0  0  0
   -1.3933    0.9500    2.4499 H   0  0  0  0  0  0  0  0  0  0  0  0
   -1.5023    1.3522    0.7308 H   0  0  0  0  0  0  0  0  0  0  0  0
    1.8859   -0.3967    2.4379 H   0  0  0  0  0  0  0  0  0  0  0  0
    0.4592   -0.1656    3.2949 H   0  0  0  0  0  0  0  0  0  0  0  0
    0.9491   -2.4885    3.0122 H   0  0  0  0  0  0  0  0  0  0  0  0
   -0.4561   -2.1700    2.0184 H   0  0  0  0  0  0  0  0  0  0  0  0
    1.2037   -3.5641    0.8921 H   0  0  0  0  0  0  0  0  0  0  0  0
    0.9740   -2.2022   -0.0565 H   0  0  0  0  0  0  0  0  0  0  0  0
    2.4558   -5.1807    1.2696 H   0  0  0  0  0  0  0  0  0  0  0  0
    4.3895   -6.6988    1.4799 H   0  0  0  0  0  0  0  0  0  0  0  0
    6.7024   -5.8368    1.3391 H   0  0  0  0  0  0  0  0  0  0  0  0
    7.0976   -3.4456    0.9138 H   0  0  0  0  0  0  0  0  0  0  0  0
    3.9095    0.8305   -0.2002 H   0  0  0  0  0  0  0  0  0  0  0  0
    2.4185    0.8266    0.3169 H   0  0  0  0  0  0  0  0  0  0  0  0
    2.9942    1.0071    2.7447 H   0  0  0  0  0  0  0  0  0  0  0  0
    3.4807    2.2855    1.7076 H   0  0  0  0  0  0  0  0  0  0  0  0
    5.2580   -0.0208    2.6388 H   0  0  0  0  0  0  0  0  0  0  0  0
    5.2066    1.5745    3.3160 H   0  0  0  0  0  0  0  0  0  0  0  0
    5.6758    2.5425    0.9736 H   0  0  0  0  0  0  0  0  0  0  0  0
    6.9958    1.7404    1.8072 H   0  0  0  0  0  0  0  0  0  0  0  0
    5.6316    0.9301   -0.7683 H   0  0  0  0  0  0  0  0  0  0  0  0
    7.2711    0.9697   -0.3122 H   0  0  0  0  0  0  0  0  0  0  0  0
    6.7777   -1.2921   -0.5043 H   0  0  0  0  0  0  0  0  0  0  0  0
    6.9151   -0.9891    1.2225 H   0  0  0  0  0  0  0  0  0  0  0  0
  1  2  1  0  0  0  0
  1 22  1  0  0  0  0
  1 23  1  0  0  0  0
  1 24  1  0  0  0  0
  2  3  1  0  0  0  0
  2  4  1  0  0  0  0
  3 25  1  0  0  0  0
  3 26  1  0  0  0  0
  3 27  1  0  0  0  0
  4  5  1  0  0  0  0
  4 28  1  0  0  0  0
  4 29  1  0  0  0  0
  5  6  1  0  0  0  0
  5 30  1  0  0  0  0
  5 31  1  0  0  0  0
  6  7  1  0  0  0  0
  6 32  1  0  0  0  0
  6 33  1  0  0  0  0
  7  8  1  0  0  0  0
  7 15  1  0  0  0  0
  8  9  2  0  0  0  0
  8 13  1  0  0  0  0
  9 10  1  0  0  0  0
  9 34  1  0  0  0  0
 10 11  2  0  0  0  0
 10 35  1  0  0  0  0
 11 12  1  0  0  0  0
 11 36  1  0  0  0  0
 12 13  2  0  0  0  0
 12 37  1  0  0  0  0
 13 14  1  0  0  0  0
 14 15  2  0  0  0  0
 14 21  1  0  0  0  0
 15 16  1  0  0  0  0
 16 17  1  0  0  0  0
 16 38  1  0  0  0  0
 16 39  1  0  0  0  0
 17 18  1  0  0  0  0
 17 40  1  0  0  0  0
 17 41  1  0  0  0  0
 18 19  1  0  0  0  0
 18 42  1  0  0  0  0
 18 43  1  0  0  0  0
 19 20  1  0  0  0  0
 19 44  1  0  0  0  0
 19 45  1  0  0  0  0
 20 21  1  0  0  0  0
 20 46  1  0  0  0  0
 20 47  1  0  0  0  0
 21 48  1  0  0  0  0
 21 49  1  0  0  0  0
M  END
>  <DRUGBANK_ID>
DB13496

>  <COMMON_NAME>
Iprindole

>  <CAS_NUMBER>
5560-72-5

>  <UNII>
69U0IKR8FP

>  <SYNONYMS>
Iprindole

$$$$
