
 OpenBabel10282417193D

 52 56  0  0  0  0  0  0  0  0999 V2000
    1.6658    1.1931    0.0113 C   0  0  0  0  0  0  0  0  0  0  0  0
    0.2706    1.2082   -0.0113 C   0  0  0  0  0  0  0  0  0  0  0  0
   -0.4322    0.0076   -0.0167 C   0  0  0  0  0  0  0  0  0  0  0  0
    0.2451   -1.2041   -0.0175 C   0  0  0  0  0  0  0  0  0  0  0  0
    1.6355   -1.2163    0.0037 C   0  0  0  0  0  0  0  0  0  0  0  0
    2.3743   -0.0239    0.0282 C   0  0  0  0  0  0  0  0  0  0  0  0
    3.9016   -0.0411    0.0660 C   0  0  3  0  0  0  0  0  0  0  0  0
    4.4158    0.7015    1.3308 C   0  0  0  0  0  0  0  0  0  0  0  0
    5.9511    0.6837    1.3948 C   0  0  3  0  0  0  0  0  0  0  0  0
    6.4762   -0.7462    1.3910 C   0  0  0  0  0  0  0  0  0  0  0  0
    6.0219   -1.4559    0.1105 C   0  0  3  0  0  0  0  0  0  0  0  0
    4.4934   -1.4752    0.0815 C   0  0  0  0  0  0  0  0  0  0  0  0
    6.5340   -0.7099   -1.1354 C   0  0  0  0  0  0  0  0  0  0  0  0
    5.9983    0.7461   -1.1466 C   0  0  3  0  0  0  0  0  0  0  0  0
    6.5005    1.3920    0.1653 C   0  0  0  0  0  0  0  0  0  0  0  0
    4.4544    0.6503   -1.1981 C   0  0  0  0  0  0  0  0  0  0  0  0
    6.5206    1.5151   -2.3665 C   0  0  0  0  0  0  0  0  0  0  0  0
    7.2433    0.9838   -3.2173 O   0  0  0  0  0  0  0  0  0  0  0  0
    6.1877    2.8247   -2.5416 N   0  0  0  0  0  0  0  0  0  0  0  0
    5.3429    3.6763   -1.7376 C   0  0  0  0  0  0  0  0  0  0  0  0
    6.0679    4.8626   -1.1842 C   0  0  0  0  0  0  0  0  0  0  0  0
    7.1902    4.7496   -0.3520 C   0  0  0  0  0  0  0  0  0  0  0  0
    7.7221    5.8939    0.2113 C   0  0  0  0  0  0  0  0  0  0  0  0
    7.2259    7.1260   -0.0091 N   0  0  0  0  0  0  0  0  0  0  0  0
    6.1519    7.2130   -0.8225 C   0  0  0  0  0  0  0  0  0  0  0  0
    5.5406    6.1270   -1.4176 C   0  0  0  0  0  0  0  0  0  0  0  0
   -2.1496    0.0157   -0.0148 Cl  0  0  0  0  0  0  0  0  0  0  0  0
    2.1900    2.1471    0.0167 H   0  0  0  0  0  0  0  0  0  0  0  0
   -0.2576    2.1572   -0.0202 H   0  0  0  0  0  0  0  0  0  0  0  0
   -0.2893   -2.1489   -0.0309 H   0  0  0  0  0  0  0  0  0  0  0  0
    2.1201   -2.1882    0.0037 H   0  0  0  0  0  0  0  0  0  0  0  0
    4.0715    1.7454    1.3442 H   0  0  0  0  0  0  0  0  0  0  0  0
    4.0066    0.2343    2.2352 H   0  0  0  0  0  0  0  0  0  0  0  0
    6.2865    1.2111    2.2954 H   0  0  0  0  0  0  0  0  0  0  0  0
    7.5708   -0.7404    1.4470 H   0  0  0  0  0  0  0  0  0  0  0  0
    6.1061   -1.2733    2.2772 H   0  0  0  0  0  0  0  0  0  0  0  0
    6.3971   -2.4838    0.1085 H   0  0  0  0  0  0  0  0  0  0  0  0
    4.1276   -2.0240    0.9583 H   0  0  0  0  0  0  0  0  0  0  0  0
    4.1700   -2.0255   -0.8120 H   0  0  0  0  0  0  0  0  0  0  0  0
    6.2133   -1.2402   -2.0424 H   0  0  0  0  0  0  0  0  0  0  0  0
    7.6310   -0.7169   -1.1436 H   0  0  0  0  0  0  0  0  0  0  0  0
    7.5985    1.4099    0.1779 H   0  0  0  0  0  0  0  0  0  0  0  0
    6.1881    2.4203    0.2798 H   0  0  0  0  0  0  0  0  0  0  0  0
    4.1427    0.1139   -2.1063 H   0  0  0  0  0  0  0  0  0  0  0  0
    3.9749    1.6200   -1.3167 H   0  0  0  0  0  0  0  0  0  0  0  0
    6.5700    3.2261   -3.3903 H   0  0  0  0  0  0  0  0  0  0  0  0
    4.4941    3.9637   -2.3671 H   0  0  0  0  0  0  0  0  0  0  0  0
    4.8990    3.1774   -0.8835 H   0  0  0  0  0  0  0  0  0  0  0  0
    7.6539    3.8003   -0.1136 H   0  0  0  0  0  0  0  0  0  0  0  0
    8.5801    5.8405    0.8758 H   0  0  0  0  0  0  0  0  0  0  0  0
    5.7703    8.2141   -0.9870 H   0  0  0  0  0  0  0  0  0  0  0  0
    4.6620    6.2601   -2.0391 H   0  0  0  0  0  0  0  0  0  0  0  0
  1  2  2  0  0  0  0
  1  6  1  0  0  0  0
  1 28  1  0  0  0  0
  2  3  1  0  0  0  0
  2 29  1  0  0  0  0
  3  4  2  0  0  0  0
  3 27  1  0  0  0  0
  4  5  1  0  0  0  0
  4 30  1  0  0  0  0
  5  6  2  0  0  0  0
  5 31  1  0  0  0  0
  6  7  1  0  0  0  0
  7  8  1  0  0  0  0
  7 16  1  0  0  0  0
  7 12  1  0  0  0  0
  8  9  1  0  0  0  0
  8 32  1  0  0  0  0
  8 33  1  0  0  0  0
  9 15  1  0  0  0  0
  9 10  1  0  0  0  0
  9 34  1  0  0  0  0
 10 11  1  0  0  0  0
 10 35  1  0  0  0  0
 10 36  1  0  0  0  0
 11 12  1  0  0  0  0
 11 13  1  0  0  0  0
 11 37  1  0  0  0  0
 12 38  1  0  0  0  0
 12 39  1  0  0  0  0
 13 14  1  0  0  0  0
 13 40  1  0  0  0  0
 13 41  1  0  0  0  0
 14 16  1  0  0  0  0
 14 15  1  0  0  0  0
 14 17  1  0  0  0  0
 15 42  1  0  0  0  0
 15 43  1  0  0  0  0
 16 44  1  0  0  0  0
 16 45  1  0  0  0  0
 17 18  2  0  0  0  0
 17 19  1  0  0  0  0
 19 20  1  0  0  0  0
 19 46  1  0  0  0  0
 20 21  1  0  0  0  0
 20 47  1  0  0  0  0
 20 48  1  0  0  0  0
 21 22  2  0  0  0  0
 21 26  1  0  0  0  0
 22 23  1  0  0  0  0
 22 49  1  0  0  0  0
 23 24  2  0  0  0  0
 23 50  1  0  0  0  0
 24 25  1  0  0  0  0
 25 26  2  0  0  0  0
 25 51  1  0  0  0  0
 26 52  1  0  0  0  0
M  END
>  <DRUGBANK_ID>
DB12764

>  <COMMON_NAME>
Opaganib

>  <CAS_NUMBER>
915385-81-8

>  <UNII>
DRG21OQ517

>  <SYNONYMS>
4-Pyridinylmethyl 3(4-Chlorophenyl)Adamantine Carboxamide; 4-Pyridinylmethyl-3-(4-Chlorophenyl) Adamantine Carboxamide; ABC-294640; ABC294640; Opaganib; Yeliva

$$$$
