FIH
 OpenBabel10282417163D

 40 42  0  0  0  0  0  0  0  0999 V2000
    0.1244    1.1949    0.0137 C   0  0  0  0  0  0  0  0  0  0  0  0
    0.8079   -0.0126    0.0109 C   0  0  0  0  0  0  0  0  0  0  0  0
    0.1186   -1.2200    0.0245 C   0  0  0  0  0  0  0  0  0  0  0  0
   -1.2810   -1.2248    0.0625 C   0  0  0  0  0  0  0  0  0  0  0  0
   -1.9942   -0.0198    0.1094 C   0  0  0  0  0  0  0  0  0  0  0  0
   -1.2740    1.1912    0.0548 C   0  0  0  0  0  0  0  0  0  0  0  0
   -5.9213   -0.2230    0.3704 C   0  0  0  0  0  0  0  0  0  0  0  0
   -5.6086    0.4424   -0.8181 C   0  0  0  0  0  0  0  0  0  0  0  0
   -4.2005    0.5758   -0.9502 C   0  0  0  0  0  0  0  0  0  0  0  0
   -3.4624   -0.0016    0.0537 C   0  0  0  0  0  0  0  0  0  0  0  0
   -4.4934   -0.7030    1.2210 S   0  0  0  0  0  0  0  0  0  0  0  0
    2.1473   -0.0150   -0.0122 F   0  0  0  0  0  0  0  0  0  0  0  0
   -7.2629   -0.5204    0.8571 C   0  0  0  0  0  0  0  0  0  0  0  0
   -7.3348   -1.2066    2.0283 O   0  0  0  0  0  0  0  0  0  0  0  0
   -8.2888   -0.1874    0.2665 O   0  0  0  0  0  0  0  0  0  0  0  0
   -6.5390    0.8992   -1.7895 N   0  0  0  0  0  0  0  0  0  0  0  0
   -6.1773    1.8828   -3.1334 S   0  0  0  0  0  0  0  0  0  0  0  0
   -7.3651    1.6609   -5.6039 C   0  0  0  0  0  0  0  0  0  0  0  0
   -6.8137    0.9677   -4.5212 C   0  0  0  0  0  0  0  0  0  0  0  0
   -6.6206   -0.4134   -4.5881 C   0  0  0  0  0  0  0  0  0  0  0  0
   -6.9575   -1.0992   -5.7583 C   0  0  0  0  0  0  0  0  0  0  0  0
   -7.4857   -0.4162   -6.8625 C   0  0  0  0  0  0  0  0  0  0  0  0
   -7.6955    0.9672   -6.7728 C   0  0  0  0  0  0  0  0  0  0  0  0
   -7.8021   -1.1503   -8.1349 C   0  0  0  0  0  0  0  0  0  0  0  0
   -6.9673    3.0899   -2.9979 O   0  0  0  0  0  0  0  0  0  0  0  0
   -4.7562    1.9540   -3.3824 O   0  0  0  0  0  0  0  0  0  0  0  0
    0.6807    2.1272   -0.0215 H   0  0  0  0  0  0  0  0  0  0  0  0
    0.6760   -2.1509   -0.0037 H   0  0  0  0  0  0  0  0  0  0  0  0
   -1.8070   -2.1749    0.0197 H   0  0  0  0  0  0  0  0  0  0  0  0
   -1.7973    2.1460    0.0273 H   0  0  0  0  0  0  0  0  0  0  0  0
   -3.6823    1.0528   -1.7665 H   0  0  0  0  0  0  0  0  0  0  0  0
   -6.4795   -1.4289    2.4414 H   0  0  0  0  0  0  0  0  0  0  0  0
   -7.5262    0.9413   -1.5034 H   0  0  0  0  0  0  0  0  0  0  0  0
   -7.4946    2.7409   -5.5658 H   0  0  0  0  0  0  0  0  0  0  0  0
   -6.1710   -0.9560   -3.7614 H   0  0  0  0  0  0  0  0  0  0  0  0
   -6.7787   -2.1709   -5.8147 H   0  0  0  0  0  0  0  0  0  0  0  0
   -8.0928    1.5161   -7.6251 H   0  0  0  0  0  0  0  0  0  0  0  0
   -8.8614   -1.0389   -8.3859 H   0  0  0  0  0  0  0  0  0  0  0  0
   -7.1932   -0.7665   -8.9604 H   0  0  0  0  0  0  0  0  0  0  0  0
   -7.5930   -2.2215   -8.0398 H   0  0  0  0  0  0  0  0  0  0  0  0
  1  2  1  0  0  0  0
  1  6  2  0  0  0  0
  1 27  1  0  0  0  0
  2  3  2  0  0  0  0
  2 12  1  0  0  0  0
  3  4  1  0  0  0  0
  3 28  1  0  0  0  0
  4  5  2  0  0  0  0
  4 29  1  0  0  0  0
  5  6  1  0  0  0  0
  5 10  1  0  0  0  0
  6 30  1  0  0  0  0
  7  8  2  0  0  0  0
  7 11  1  0  0  0  0
  7 13  1  0  0  0  0
  8  9  1  0  0  0  0
  8 16  1  0  0  0  0
  9 10  2  0  0  0  0
  9 31  1  0  0  0  0
 10 11  1  0  0  0  0
 13 14  1  0  0  0  0
 13 15  2  0  0  0  0
 14 32  1  0  0  0  0
 16 17  1  0  0  0  0
 16 33  1  0  0  0  0
 17 19  1  0  0  0  0
 17 25  2  0  0  0  0
 17 26  2  0  0  0  0
 18 19  1  0  0  0  0
 18 23  2  0  0  0  0
 18 34  1  0  0  0  0
 19 20  2  0  0  0  0
 20 21  1  0  0  0  0
 20 35  1  0  0  0  0
 21 22  2  0  0  0  0
 21 36  1  0  0  0  0
 22 23  1  0  0  0  0
 22 24  1  0  0  0  0
 23 37  1  0  0  0  0
 24 38  1  0  0  0  0
 24 39  1  0  0  0  0
 24 40  1  0  0  0  0
M  END
>  <DRUGBANK_ID>
DB07770

>  <COMMON_NAME>
5-(4-FLUOROPHENYL)-3-{[(4-METHYLPHENYL)SULFONYL]AMINO}THIOPHENE-2-CARBOXYLIC ACID

$$$$
