
 OpenBabel10282417123D

 78 81  0  0  0  0  0  0  0  0999 V2000
    2.9399    1.3356   -0.5817 O   0  0  0  0  0  0  0  0  0  0  0  0
    3.0104    2.7009    0.3246 S   0  0  0  0  0  0  0  0  0  0  0  0
    1.5648    2.7256    1.0472 O   0  0  0  0  0  0  0  0  0  0  0  0
    4.0205    2.5601    1.3353 O   0  0  0  0  0  0  0  0  0  0  0  0
    3.0126    3.8435   -0.5776 O   0  0  0  0  0  0  0  0  0  0  0  0
    2.5061   -2.4118   -0.0866 C   0  0  0  0  0  0  0  0  0  0  0  0
    2.9753   -1.1123   -0.7661 C   0  0  0  0  0  0  0  0  0  0  0  0
    2.4838    0.1176    0.0187 C   0  0  1  0  0  0  0  0  0  0  0  0
    2.9907    0.0077    1.4522 C   0  0  0  0  0  0  0  0  0  0  0  0
    2.5551   -1.2145    2.1485 C   0  0  0  0  0  0  0  0  0  0  0  0
    1.9370   -1.0865    3.3369 C   0  0  0  0  0  0  0  0  0  0  0  0
    2.8507   -2.5119    1.4389 C   0  0  2  0  0  0  0  0  0  0  0  0
    2.1949   -4.9515    1.6183 C   0  0  0  0  0  0  0  0  0  0  0  0
    1.3904   -6.0388    2.3387 C   0  0  0  0  0  0  0  0  0  0  0  0
    1.6862   -6.0097    3.8653 C   0  0  1  0  0  0  0  0  0  0  0  0
    1.1060   -4.6654    4.2726 C   0  0  1  0  0  0  0  0  0  0  0  0
    0.9967   -4.8467    5.7755 C   0  0  0  0  0  0  0  0  0  0  0  0
    0.5234   -6.3108    5.9494 C   0  0  0  0  0  0  0  0  0  0  0  0
    0.7789   -7.0574    4.6201 C   0  0  2  0  0  0  0  0  0  0  0  0
    3.1976   -5.9031    4.4098 C   0  0  0  0  0  0  0  0  0  0  0  0
    4.3809   -2.7941    1.5510 C   0  0  0  0  0  0  0  0  0  0  0  0
    0.0884   -4.5599    3.8724 H   0  0  0  0  0  0  0  0  0  0  0  0
   -0.1869   -7.1219    4.0848 H   0  0  0  0  0  0  0  0  0  0  0  0
    1.9073   -3.5650    2.1150 C   0  0  1  0  0  0  0  0  0  0  0  0
    0.8729   -3.3432    1.8186 H   0  0  0  0  0  0  0  0  0  0  0  0
    0.5488   -9.4039    5.8436 C   0  0  0  0  0  0  0  0  0  0  0  0
    1.9559   -3.5226    3.6707 C   0  0  1  0  0  0  0  0  0  0  0  0
    3.0046   -3.5618    3.9854 H   0  0  0  0  0  0  0  0  0  0  0  0
    1.4459   -2.2053    4.1731 C   0  0  0  0  0  0  0  0  0  0  0  0
    3.7240   -9.1418    4.0849 C   0  0  0  0  0  0  0  0  0  0  0  0
    3.5834   -8.8071    2.5650 C   0  0  0  0  0  0  0  0  0  0  0  0
    4.0885   -7.4524    2.0368 C   0  0  0  0  0  0  0  0  0  0  0  0
    5.4230   -6.9076    2.5356 C   0  0  0  0  0  0  0  0  0  0  0  0
    2.7430   -8.6162    5.1574 C   0  0  0  0  0  0  0  0  0  0  0  0
    1.2732   -8.5640    4.7739 C   0  0  2  0  0  0  0  0  0  0  0  0
    3.8111   -7.1407    0.5592 C   0  0  0  0  0  0  0  0  0  0  0  0
    0.8736    2.8932    0.3789 H   0  0  0  0  0  0  0  0  0  0  0  0
    2.9393   -3.2641   -0.6300 H   0  0  0  0  0  0  0  0  0  0  0  0
    1.4196   -2.4900   -0.2200 H   0  0  0  0  0  0  0  0  0  0  0  0
    4.0699   -1.0987   -0.8439 H   0  0  0  0  0  0  0  0  0  0  0  0
    2.6132   -1.0897   -1.8021 H   0  0  0  0  0  0  0  0  0  0  0  0
    1.3852    0.1181   -0.0134 H   0  0  0  0  0  0  0  0  0  0  0  0
    4.0838    0.0692    1.4609 H   0  0  0  0  0  0  0  0  0  0  0  0
    2.6114    0.8390    2.0422 H   0  0  0  0  0  0  0  0  0  0  0  0
    1.7580   -0.1029    3.7592 H   0  0  0  0  0  0  0  0  0  0  0  0
    2.0525   -5.0179    0.5369 H   0  0  0  0  0  0  0  0  0  0  0  0
    3.2538   -5.0558    1.8262 H   0  0  0  0  0  0  0  0  0  0  0  0
    1.5414   -7.0438    1.9453 H   0  0  0  0  0  0  0  0  0  0  0  0
    0.3278   -5.8802    2.1061 H   0  0  0  0  0  0  0  0  0  0  0  0
    0.3222   -4.1228    6.2250 H   0  0  0  0  0  0  0  0  0  0  0  0
    1.9587   -4.7080    6.2789 H   0  0  0  0  0  0  0  0  0  0  0  0
   -0.5460   -6.3284    6.1793 H   0  0  0  0  0  0  0  0  0  0  0  0
    1.0634   -6.7867    6.7706 H   0  0  0  0  0  0  0  0  0  0  0  0
    3.7611   -6.8001    4.2791 H   0  0  0  0  0  0  0  0  0  0  0  0
    3.8471   -5.1772    3.9260 H   0  0  0  0  0  0  0  0  0  0  0  0
    3.3183   -5.7427    5.4866 H   0  0  0  0  0  0  0  0  0  0  0  0
    4.9790   -1.9980    1.0870 H   0  0  0  0  0  0  0  0  0  0  0  0
    4.7187   -2.8677    2.5892 H   0  0  0  0  0  0  0  0  0  0  0  0
    4.6806   -3.7104    1.0297 H   0  0  0  0  0  0  0  0  0  0  0  0
    1.2485   -9.8048    6.5899 H   0  0  0  0  0  0  0  0  0  0  0  0
   -0.2040   -8.8430    6.3940 H   0  0  0  0  0  0  0  0  0  0  0  0
    0.0899  -10.2911    5.3955 H   0  0  0  0  0  0  0  0  0  0  0  0
    0.3553   -2.2116    4.1481 H   0  0  0  0  0  0  0  0  0  0  0  0
    1.7783   -2.0744    5.2079 H   0  0  0  0  0  0  0  0  0  0  0  0
    4.7332   -8.8902    4.4228 H   0  0  0  0  0  0  0  0  0  0  0  0
    3.6475  -10.2322    4.1569 H   0  0  0  0  0  0  0  0  0  0  0  0
    4.1341   -9.5579    2.0001 H   0  0  0  0  0  0  0  0  0  0  0  0
    2.5309   -8.9305    2.2806 H   0  0  0  0  0  0  0  0  0  0  0  0
    3.4077   -6.8022    2.4982 H   0  0  0  0  0  0  0  0  0  0  0  0
    6.2452   -7.3494    1.9906 H   0  0  0  0  0  0  0  0  0  0  0  0
    5.4515   -5.8117    2.4224 H   0  0  0  0  0  0  0  0  0  0  0  0
    5.5853   -7.0771    3.6059 H   0  0  0  0  0  0  0  0  0  0  0  0
    2.9306   -7.6430    5.5629 H   0  0  0  0  0  0  0  0  0  0  0  0
    2.9838   -9.1042    6.1101 H   0  0  0  0  0  0  0  0  0  0  0  0
    1.1060   -9.0768    3.8165 H   0  0  0  0  0  0  0  0  0  0  0  0
    2.7437   -7.2423    0.3136 H   0  0  0  0  0  0  0  0  0  0  0  0
    4.0702   -6.0970    0.3268 H   0  0  0  0  0  0  0  0  0  0  0  0
    4.3723   -7.7674   -0.1161 H   0  0  0  0  0  0  0  0  0  0  0  0
  1  2  1  0  0  0  0
  2  3  1  0  0  0  0
  2  4  2  0  0  0  0
  2  5  2  0  0  0  0
  3 37  1  0  0  0  0
  6 12  1  0  0  0  0
  6 38  1  0  0  0  0
  6 39  1  0  0  0  0
  7  6  1  0  0  0  0
  7 40  1  0  0  0  0
  7 41  1  0  0  0  0
  8  9  1  0  0  0  0
  8  7  1  0  0  0  0
  8 42  1  1  0  0  0
  8  1  1  0  0  0  0
  9 10  1  0  0  0  0
  9 43  1  0  0  0  0
  9 44  1  0  0  0  0
 10 12  1  0  0  0  0
 11 29  1  0  0  0  0
 11 10  2  0  0  0  0
 11 45  1  0  0  0  0
 12 24  1  0  0  0  0
 12 21  1  1  0  0  0
 13 24  1  0  0  0  0
 13 14  1  0  0  0  0
 13 46  1  0  0  0  0
 13 47  1  0  0  0  0
 14 15  1  0  0  0  0
 14 48  1  0  0  0  0
 14 49  1  0  0  0  0
 15 20  1  1  0  0  0
 16 15  1  0  0  0  0
 16 22  1  6  0  0  0
 17 16  1  0  0  0  0
 17 50  1  0  0  0  0
 17 51  1  0  0  0  0
 18 19  1  0  0  0  0
 18 17  1  0  0  0  0
 18 52  1  0  0  0  0
 18 53  1  0  0  0  0
 19 15  1  0  0  0  0
 19 23  1  6  0  0  0
 19 35  1  0  0  0  0
 20 54  1  0  0  0  0
 20 55  1  0  0  0  0
 20 56  1  0  0  0  0
 21 57  1  0  0  0  0
 21 58  1  0  0  0  0
 21 59  1  0  0  0  0
 24 25  1  6  0  0  0
 26 60  1  0  0  0  0
 26 61  1  0  0  0  0
 26 62  1  0  0  0  0
 27 16  1  0  0  0  0
 27 24  1  0  0  0  0
 27 28  1  1  0  0  0
 29 27  1  0  0  0  0
 29 63  1  0  0  0  0
 29 64  1  0  0  0  0
 30 65  1  0  0  0  0
 30 66  1  0  0  0  0
 31 30  1  0  0  0  0
 31 67  1  0  0  0  0
 31 68  1  0  0  0  0
 32 31  1  0  0  0  0
 32 69  1  0  0  0  0
 33 32  1  0  0  0  0
 33 70  1  0  0  0  0
 33 71  1  0  0  0  0
 33 72  1  0  0  0  0
 34 30  1  0  0  0  0
 34 73  1  0  0  0  0
 34 74  1  0  0  0  0
 35 75  1  6  0  0  0
 35 34  1  0  0  0  0
 35 26  1  0  0  0  0
 36 32  1  0  0  0  0
 36 76  1  0  0  0  0
 36 77  1  0  0  0  0
 36 78  1  0  0  0  0
M  END
>  <DRUGBANK_ID>
DB01990

>  <SECONDARY_ACCESSION_NUMBERS>
EXPT00810; DBSALT002202

>  <COMMON_NAME>
Cholesterol sulfate

>  <CAS_NUMBER>
1256-86-6

>  <UNII>
KU576NT9O9

>  <SYNONYMS>
Cholest-5-en-3beta-ol sulfate; Cholesterol 3-sulfate; Cholesterol 3-sulphate; Cholesterol hydrogen sulfate; Cholesterol hydrogen sulphate; Cholesterol sulphate; Cholesterol-Sulfate; Cholesteryl sulphate

$$$$
