
 OpenBabel10282417233D

 57 62  0  0  0  0  0  0  0  0999 V2000
    2.1707   -0.2118   -0.6881 O   0  0  0  0  0  0  0  0  0  0  0  0
    3.2878   -0.5186   -0.2614 C   0  0  0  0  0  0  0  0  0  0  0  0
    3.3453   -0.8866    1.0605 N   0  0  0  0  0  0  0  0  0  0  0  0
    4.5383   -0.6421    1.6923 C   0  0  0  0  0  0  0  0  0  0  0  0
    5.1601    0.6507    1.5618 C   0  0  0  0  0  0  0  0  0  0  0  0
    6.5532    0.6292    1.6348 C   0  0  0  0  0  0  0  0  0  0  0  0
    7.2573   -0.5964    1.8325 C   0  0  0  0  0  0  0  0  0  0  0  0
    6.6021   -1.8372    1.9299 C   0  0  0  0  0  0  0  0  0  0  0  0
    5.2306   -1.8631    1.8304 C   0  0  0  0  0  0  0  0  0  0  0  0
    4.4338    1.8573    1.0064 C   0  0  0  0  0  0  0  0  0  0  0  0
    4.7836    2.6446   -0.1071 C   0  0  0  0  0  0  0  0  0  0  0  0
    3.7452    3.5322   -0.3085 N   0  0  0  0  0  0  0  0  0  0  0  0
    3.4388    4.6524   -1.1114 C   0  0  0  0  0  0  0  0  0  0  0  0
    3.7564    4.8418   -2.5995 C   0  0  0  0  0  0  0  0  0  0  0  0
    2.7877    4.6235   -3.7895 N   0  0  0  0  0  0  0  0  0  0  0  0
    1.6897    5.6075   -3.7979 C   0  0  0  0  0  0  0  0  0  0  0  0
    0.6942    5.2380   -2.6823 C   0  0  0  0  0  0  0  0  0  0  0  0
    0.1812    3.8628   -2.5487 N   0  0  0  0  0  0  0  0  0  0  0  0
    1.2766    2.8902   -2.7656 C   0  0  0  0  0  0  0  0  0  0  0  0
    2.0531    3.3369   -4.0109 C   0  0  0  0  0  0  0  0  0  0  0  0
    2.6888    5.5080   -0.3811 C   0  0  0  0  0  0  0  0  0  0  0  0
    1.8937    4.7165    0.9983 S   0  0  0  0  0  0  0  0  0  0  0  0
    2.9378    3.3501    0.7780 C   0  0  0  0  0  0  0  0  0  0  0  0
    3.2373    2.3178    1.5254 N   0  0  0  0  0  0  0  0  0  0  0  0
    4.6711   -0.3718   -1.1520 C   0  0  0  0  0  0  0  0  0  0  0  0
    6.0956   -0.4877   -1.0562 C   0  0  0  0  0  0  0  0  0  0  0  0
    7.0728    0.1493   -1.8114 N   0  0  0  0  0  0  0  0  0  0  0  0
    6.5771    1.0650   -2.6184 C   0  0  0  0  0  0  0  0  0  0  0  0
    7.3065    2.1673   -3.0360 C   0  0  0  0  0  0  0  0  0  0  0  0
    6.6805    3.1034   -3.8500 C   0  0  0  0  0  0  0  0  0  0  0  0
    5.3617    2.9007   -4.2106 C   0  0  0  0  0  0  0  0  0  0  0  0
    4.6235    1.9518   -3.5442 C   0  0  0  0  0  0  0  0  0  0  0  0
    5.2163    1.0043   -2.8125 C   0  0  0  0  0  0  0  0  0  0  0  0
    4.2850    0.2921   -2.2161 N   0  0  0  0  0  0  0  0  0  0  0  0
    2.4962   -1.0299    1.6083 H   0  0  0  0  0  0  0  0  0  0  0  0
    7.1112    1.5022    1.2996 H   0  0  0  0  0  0  0  0  0  0  0  0
    8.3313   -0.6154    1.6493 H   0  0  0  0  0  0  0  0  0  0  0  0
    7.1505   -2.7770    1.9111 H   0  0  0  0  0  0  0  0  0  0  0  0
    4.7163   -2.8090    1.6074 H   0  0  0  0  0  0  0  0  0  0  0  0
    5.6491    2.6854   -0.7418 H   0  0  0  0  0  0  0  0  0  0  0  0
    4.1776    5.8448   -2.7758 H   0  0  0  0  0  0  0  0  0  0  0  0
    4.6526    4.2632   -2.7021 H   0  0  0  0  0  0  0  0  0  0  0  0
    2.1190    6.6066   -3.6824 H   0  0  0  0  0  0  0  0  0  0  0  0
    1.1687    5.6056   -4.7678 H   0  0  0  0  0  0  0  0  0  0  0  0
    1.3062    5.2322   -1.8367 H   0  0  0  0  0  0  0  0  0  0  0  0
    0.0103    6.0443   -2.4185 H   0  0  0  0  0  0  0  0  0  0  0  0
   -0.5315    3.7010   -3.2491 H   0  0  0  0  0  0  0  0  0  0  0  0
    1.9376    2.8215   -1.9007 H   0  0  0  0  0  0  0  0  0  0  0  0
    0.8801    1.8742   -2.8519 H   0  0  0  0  0  0  0  0  0  0  0  0
    1.3144    3.4338   -4.8237 H   0  0  0  0  0  0  0  0  0  0  0  0
    2.6342    2.5793   -4.5293 H   0  0  0  0  0  0  0  0  0  0  0  0
    2.3197    6.4564   -0.7604 H   0  0  0  0  0  0  0  0  0  0  0  0
    6.7113   -0.9024   -0.2887 H   0  0  0  0  0  0  0  0  0  0  0  0
    8.3099    2.3327   -2.6642 H   0  0  0  0  0  0  0  0  0  0  0  0
    7.1767    4.0197   -4.1435 H   0  0  0  0  0  0  0  0  0  0  0  0
    4.8343    3.6463   -4.7999 H   0  0  0  0  0  0  0  0  0  0  0  0
    3.5784    1.9360   -3.3258 H   0  0  0  0  0  0  0  0  0  0  0  0
  1  2  2  0  0  0  0
  2  3  1  0  0  0  0
  2 25  1  0  0  0  0
  3  4  1  0  0  0  0
  3 35  1  0  0  0  0
  4  5  2  0  0  0  0
  4  9  1  0  0  0  0
  5  6  1  0  0  0  0
  5 10  1  0  0  0  0
  6  7  2  0  0  0  0
  6 36  1  0  0  0  0
  7  8  1  0  0  0  0
  7 37  1  0  0  0  0
  8  9  2  0  0  0  0
  8 38  1  0  0  0  0
  9 39  1  0  0  0  0
 10 11  2  0  0  0  0
 10 24  1  0  0  0  0
 11 12  1  0  0  0  0
 11 40  1  0  0  0  0
 12 13  1  0  0  0  0
 12 23  1  0  0  0  0
 13 14  1  0  0  0  0
 13 21  2  0  0  0  0
 14 15  1  0  0  0  0
 14 41  1  0  0  0  0
 14 42  1  0  0  0  0
 15 16  1  0  0  0  0
 15 20  1  0  0  0  0
 16 17  1  0  0  0  0
 16 43  1  0  0  0  0
 16 44  1  0  0  0  0
 17 18  1  0  0  0  0
 17 45  1  0  0  0  0
 17 46  1  0  0  0  0
 18 19  1  0  0  0  0
 18 47  1  0  0  0  0
 19 20  1  0  0  0  0
 19 48  1  0  0  0  0
 19 49  1  0  0  0  0
 20 50  1  0  0  0  0
 20 51  1  0  0  0  0
 21 22  1  0  0  0  0
 21 52  1  0  0  0  0
 22 23  1  0  0  0  0
 23 24  2  0  0  0  0
 25 26  2  0  0  0  0
 25 34  1  0  0  0  0
 26 27  1  0  0  0  0
 26 53  1  0  0  0  0
 27 28  2  0  0  0  0
 28 29  1  0  0  0  0
 28 33  1  0  0  0  0
 29 30  2  0  0  0  0
 29 54  1  0  0  0  0
 30 31  1  0  0  0  0
 30 55  1  0  0  0  0
 31 32  2  0  0  0  0
 31 56  1  0  0  0  0
 32 33  1  0  0  0  0
 32 57  1  0  0  0  0
 33 34  2  0  0  0  0
M  END
>  <DRUGBANK_ID>
DB17057

>  <COMMON_NAME>
SRT-1720

>  <CAS_NUMBER>
925434-55-5

>  <UNII>
DX3FHY76FZ

>  <SYNONYMS>
2-quinoxalinecarboxamide, n-(2-(3-(1-piperazinylmethyl)imidazo(2,1-b)thiazol-6-yl)phenyl)-; N-(2-(3-(1-piperazinylmethyl)imidazo(2,1-b)thiazol-6-yl)phenyl)-2-quinoxalinecarboxamide

$$$$
