
 OpenBabel10282417173D

 63 67  0  0  0  0  0  0  0  0999 V2000
   -2.4706    0.6290   -0.1782 C   0  0  0  0  0  0  0  0  0  0  0  0
   -2.4817   -0.7605   -0.0567 C   0  0  0  0  0  0  0  0  0  0  0  0
   -1.3077   -1.4781    0.1290 C   0  0  0  0  0  0  0  0  0  0  0  0
   -0.1086   -0.7956    0.1028 C   0  0  0  0  0  0  0  0  0  0  0  0
   -0.1652    0.5974    0.1598 C   0  0  0  0  0  0  0  0  0  0  0  0
   -1.3160    1.3158    0.0976 C   0  0  0  0  0  0  0  0  0  0  0  0
    1.1496   -1.3902    0.0169 C   0  0  0  0  0  0  0  0  0  0  0  0
    2.2446   -0.6356   -0.0418 N   0  0  0  0  0  0  0  0  0  0  0  0
    2.0122    0.6910    0.0966 C   0  0  0  0  0  0  0  0  0  0  0  0
    0.8761    1.3344    0.2210 N   0  0  0  0  0  0  0  0  0  0  0  0
    1.3080   -2.8776   -0.0558 C   0  0  0  0  0  0  0  0  0  0  0  0
    3.0791    1.6582   -0.0244 C   0  0  0  0  0  0  0  0  0  0  0  0
    3.0606    2.1923   -1.4349 N   0  0  0  0  0  0  0  0  0  0  0  0
    2.6495    3.4695   -1.5216 C   0  0  0  0  0  0  0  0  0  0  0  0
    3.1987    4.3257   -2.5403 N   0  0  0  0  0  0  0  0  0  0  0  0
    4.2903    3.8213   -3.4378 C   0  0  0  0  0  0  0  0  0  0  0  0
    4.1151    2.4822   -3.6988 C   0  0  0  0  0  0  0  0  0  0  0  0
    4.0766    2.0748   -2.2965 C   0  0  0  0  0  0  0  0  0  0  0  0
    5.0758    2.3013   -1.7237 O   0  0  0  0  0  0  0  0  0  0  0  0
    1.8033    3.8688   -0.7147 O   0  0  0  0  0  0  0  0  0  0  0  0
    2.0657    5.1690   -2.9842 C   0  0  0  0  0  0  0  0  0  0  0  0
    5.9615    3.5544   -3.1473 N   0  0  0  0  0  0  0  0  0  0  0  0
    6.3501    2.2424   -3.6454 C   0  0  0  0  0  0  0  0  0  0  0  0
    5.3380    2.4165   -4.5966 N   0  0  0  0  0  0  0  0  0  0  0  0
    6.6306    0.8660   -3.0764 N   0  0  0  0  0  0  0  0  0  0  0  0
    5.5558    0.0491   -2.3807 C   0  0  0  0  0  0  0  0  0  0  0  0
    5.5022    0.4291   -0.7039 C   0  0  1  0  0  0  0  0  0  0  0  0
    6.7462    0.0132   -0.0577 C   0  0  0  0  0  0  0  0  0  0  0  0
    7.8244    0.8384   -0.7891 C   0  0  0  0  0  0  0  0  0  0  0  0
    7.8826    0.5442   -2.2945 C   0  0  0  0  0  0  0  0  0  0  0  0
    5.7125    1.9075    0.1629 N   0  0  0  0  0  0  0  0  0  0  0  0
    5.5891    3.6233   -5.5217 C   0  0  0  0  0  0  0  0  0  0  0  0
    4.2905    3.4502   -6.2924 C   0  0  0  0  0  0  0  0  0  0  0  0
    3.1765    3.3017   -6.9535 C   0  0  0  0  0  0  0  0  0  0  0  0
    1.8778    3.1286   -7.7242 C   0  0  0  0  0  0  0  0  0  0  0  0
   -3.3528    1.1813   -0.4696 H   0  0  0  0  0  0  0  0  0  0  0  0
   -3.4162   -1.2982   -0.1092 H   0  0  0  0  0  0  0  0  0  0  0  0
   -1.3206   -2.5527    0.2444 H   0  0  0  0  0  0  0  0  0  0  0  0
   -1.2836    2.3986    0.2075 H   0  0  0  0  0  0  0  0  0  0  0  0
    0.8909   -3.3226    0.8528 H   0  0  0  0  0  0  0  0  0  0  0  0
    0.7714   -3.2665   -0.9279 H   0  0  0  0  0  0  0  0  0  0  0  0
    2.3551   -3.1832   -0.1352 H   0  0  0  0  0  0  0  0  0  0  0  0
    3.0120    2.4533    0.7350 H   0  0  0  0  0  0  0  0  0  0  0  0
    3.8490    1.0665    0.4499 H   0  0  0  0  0  0  0  0  0  0  0  0
    2.3800    6.2019   -3.0636 H   0  0  0  0  0  0  0  0  0  0  0  0
    1.5137    4.8044   -3.8654 H   0  0  0  0  0  0  0  0  0  0  0  0
    1.2603    5.1877   -2.2262 H   0  0  0  0  0  0  0  0  0  0  0  0
    4.5916    0.0943   -2.9237 H   0  0  0  0  0  0  0  0  0  0  0  0
    5.7009   -1.0515   -2.4541 H   0  0  0  0  0  0  0  0  0  0  0  0
    4.6666   -0.1884   -0.3761 H   0  0  0  0  0  0  0  0  0  0  0  0
    6.6405    0.2543    1.0187 H   0  0  0  0  0  0  0  0  0  0  0  0
    6.8219   -1.0660   -0.1024 H   0  0  0  0  0  0  0  0  0  0  0  0
    7.7188    1.9306   -0.7352 H   0  0  0  0  0  0  0  0  0  0  0  0
    8.7378    0.6515   -0.2404 H   0  0  0  0  0  0  0  0  0  0  0  0
    8.0698   -0.5457   -2.3299 H   0  0  0  0  0  0  0  0  0  0  0  0
    8.7338    1.0539   -2.7264 H   0  0  0  0  0  0  0  0  0  0  0  0
    4.9065    2.5325    0.2161 H   0  0  0  0  0  0  0  0  0  0  0  0
    6.0438    2.4981   -0.6546 H   0  0  0  0  0  0  0  0  0  0  0  0
    5.7289    4.6047   -5.0667 H   0  0  0  0  0  0  0  0  0  0  0  0
    6.4354    3.3326   -6.1528 H   0  0  0  0  0  0  0  0  0  0  0  0
    1.5071    4.1033   -8.0531 H   0  0  0  0  0  0  0  0  0  0  0  0
    2.0461    2.4967   -8.6007 H   0  0  0  0  0  0  0  0  0  0  0  0
    1.1255    2.6584   -7.0848 H   0  0  0  0  0  0  0  0  0  0  0  0
  1  2  1  0  0  0  0
  1  6  2  0  0  0  0
  1 36  1  0  0  0  0
  2  3  2  0  0  0  0
  2 37  1  0  0  0  0
  3  4  1  0  0  0  0
  3 38  1  0  0  0  0
  4  5  2  0  0  0  0
  4  7  1  0  0  0  0
  5  6  1  0  0  0  0
  5 10  1  0  0  0  0
  6 39  1  0  0  0  0
  7  8  2  0  0  0  0
  7 11  1  0  0  0  0
  8  9  1  0  0  0  0
  9 10  2  0  0  0  0
  9 12  1  0  0  0  0
 11 40  1  0  0  0  0
 11 41  1  0  0  0  0
 11 42  1  0  0  0  0
 12 13  1  0  0  0  0
 12 43  1  0  0  0  0
 12 44  1  0  0  0  0
 13 14  1  0  0  0  0
 13 18  1  0  0  0  0
 14 15  1  0  0  0  0
 14 20  2  0  0  0  0
 15 16  1  0  0  0  0
 15 21  1  0  0  0  0
 16 17  2  0  0  0  0
 16 22  1  0  0  0  0
 17 18  1  0  0  0  0
 17 24  1  0  0  0  0
 18 19  2  0  0  0  0
 21 45  1  0  0  0  0
 21 46  1  0  0  0  0
 21 47  1  0  0  0  0
 22 23  2  0  0  0  0
 23 24  1  0  0  0  0
 23 25  1  0  0  0  0
 25 26  1  0  0  0  0
 25 30  1  0  0  0  0
 26 27  1  0  0  0  0
 26 48  1  0  0  0  0
 26 49  1  0  0  0  0
 27 28  1  0  0  0  0
 27 31  1  0  0  0  0
 27 50  1  1  0  0  0
 28 29  1  0  0  0  0
 28 51  1  0  0  0  0
 28 52  1  0  0  0  0
 29 30  1  0  0  0  0
 29 53  1  0  0  0  0
 29 54  1  0  0  0  0
 30 55  1  0  0  0  0
 30 56  1  0  0  0  0
 31 57  1  0  0  0  0
 31 58  1  0  0  0  0
 32 33  1  0  0  0  0
 32 24  1  0  0  0  0
 32 59  1  0  0  0  0
 32 60  1  0  0  0  0
 33 34  3  0  0  0  0
 34 35  1  0  0  0  0
 35 61  1  0  0  0  0
 35 62  1  0  0  0  0
 35 63  1  0  0  0  0
M  END
>  <DRUGBANK_ID>
DB08882

>  <COMMON_NAME>
Linagliptin

>  <CAS_NUMBER>
668270-12-0

>  <UNII>
3X29ZEJ4R2

>  <SYNONYMS>
(R)-8-(3-aminopiperidin-1-yl)-7-but-2-ynyl-3-methyl-1-(4-methylquinazolin-2-ylmethyl)-3,7-dihydro-purine-2,6-dione; Linagliptin; Linagliptina

$$$$
