
 OpenBabel10282417133D

 14 13  0  0  1  0  0  0  0  0999 V2000
    1.1020    0.0999   -0.0005 O   0  0  0  0  0  0  0  0  0  0  0  0
    0.5896   -0.0219   -1.3269 C   0  0  0  0  0  0  0  0  0  0  0  0
    1.0392    1.1750   -2.1707 C   0  0  1  0  0  0  0  0  0  0  0  0
    2.4777    1.1693   -2.2142 O   0  0  0  0  0  0  0  0  0  0  0  0
    0.5183    1.1243   -3.6110 C   0  0  0  0  0  0  0  0  0  0  0  0
   -1.2948    1.2247   -3.7545 S   0  0  0  0  0  0  0  0  0  0  0  0
    2.0527   -0.1114   -0.0437 H   0  0  0  0  0  0  0  0  0  0  0  0
    0.9576   -0.9634   -1.7493 H   0  0  0  0  0  0  0  0  0  0  0  0
   -0.4982   -0.0770   -1.2449 H   0  0  0  0  0  0  0  0  0  0  0  0
    0.7457    2.1157   -1.6892 H   0  0  0  0  0  0  0  0  0  0  0  0
    2.7820    1.4125   -1.3207 H   0  0  0  0  0  0  0  0  0  0  0  0
    0.9424    1.9594   -4.1801 H   0  0  0  0  0  0  0  0  0  0  0  0
    0.8665    0.2115   -4.1074 H   0  0  0  0  0  0  0  0  0  0  0  0
   -1.5879    0.1047   -3.0761 H   0  0  0  0  0  0  0  0  0  0  0  0
  1  2  1  0  0  0  0
  1  7  1  0  0  0  0
  2  3  1  0  0  0  0
  2  8  1  0  0  0  0
  2  9  1  0  0  0  0
  3  4  1  0  0  0  0
  3  5  1  0  0  0  0
  3 10  1  1  0  0  0
  4 11  1  0  0  0  0
  5  6  1  0  0  0  0
  5 12  1  0  0  0  0
  5 13  1  0  0  0  0
  6 14  1  0  0  0  0
M  END
>  <DRUGBANK_ID>
DB03864

>  <SECONDARY_ACCESSION_NUMBERS>
EXPT02897

>  <COMMON_NAME>
Monothioglycerol

>  <UNII>
AAO1P0WSXJ

$$$$
