TUO
 OpenBabel10282417173D

 37 39  0  0  0  0  0  0  0  0999 V2000
    1.6537    0.1673   -0.2913 C   0  0  0  0  0  0  0  0  0  0  0  0
    0.8221    1.2895   -0.0807 C   0  0  0  0  0  0  0  0  0  0  0  0
   -0.5459    1.2128   -0.0244 C   0  0  0  0  0  0  0  0  0  0  0  0
   -1.0769   -0.0633   -0.1402 C   0  0  0  0  0  0  0  0  0  0  0  0
   -0.1931   -1.2490   -0.4183 C   0  0  0  0  0  0  0  0  0  0  0  0
    1.2823   -1.1341   -0.6427 C   0  0  0  0  0  0  0  0  0  0  0  0
    2.6755   -2.2167   -1.0713 C   0  0  0  0  0  0  0  0  0  0  0  0
    4.4428   -1.8609   -1.0248 C   0  0  0  0  0  0  0  0  0  0  0  0
    5.9650   -2.3708   -1.3128 C   0  0  0  0  0  0  0  0  0  0  0  0
    7.1506   -2.0331   -0.3410 C   0  0  0  0  0  0  0  0  0  0  0  0
    8.9251   -2.8505   -0.0711 S   0  0  0  0  0  0  0  0  0  0  0  0
    8.7797   -4.2220    0.4331 O   0  0  0  0  0  0  0  0  0  0  0  0
    9.7732   -2.5245   -1.1713 O   0  0  0  0  0  0  0  0  0  0  0  0
    9.6527   -2.0373    1.3027 N   0  0  0  0  0  0  0  0  0  0  0  0
    6.8976   -1.2000    0.7238 C   0  0  0  0  0  0  0  0  0  0  0  0
    5.5812   -0.9067    1.0214 C   0  0  0  0  0  0  0  0  0  0  0  0
    4.5221   -1.4541    0.2889 C   0  0  0  0  0  0  0  0  0  0  0  0
    3.3674   -2.0148    0.8618 N   0  0  0  0  0  0  0  0  0  0  0  0
    2.8704   -3.0632    0.0333 C   0  0  0  0  0  0  0  0  0  0  0  0
    3.0292   -4.5190    0.0542 C   0  0  0  0  0  0  0  0  0  0  0  0
    2.0815   -5.2815   -0.2004 O   0  0  0  0  0  0  0  0  0  0  0  0
    4.2676   -5.1298    0.2325 N   0  0  0  0  0  0  0  0  0  0  0  0
    5.4649   -4.4833    0.4451 N   0  0  0  0  0  0  0  0  0  0  0  0
    2.6601    0.3951    0.0125 H   0  0  0  0  0  0  0  0  0  0  0  0
    1.3402    2.2330    0.0379 H   0  0  0  0  0  0  0  0  0  0  0  0
   -1.1205    2.1258    0.1532 H   0  0  0  0  0  0  0  0  0  0  0  0
   -2.1760   -0.1068   -0.0311 H   0  0  0  0  0  0  0  0  0  0  0  0
   -0.8070   -2.1658   -0.3730 H   0  0  0  0  0  0  0  0  0  0  0  0
    6.1889   -3.1443   -2.0663 H   0  0  0  0  0  0  0  0  0  0  0  0
    9.2733   -2.3393    2.2047 H   0  0  0  0  0  0  0  0  0  0  0  0
   10.6706   -2.2163    1.3264 H   0  0  0  0  0  0  0  0  0  0  0  0
    7.6472   -0.9216    1.4606 H   0  0  0  0  0  0  0  0  0  0  0  0
    5.3600   -0.4966    1.9952 H   0  0  0  0  0  0  0  0  0  0  0  0
    2.7743   -1.2287    0.9672 H   0  0  0  0  0  0  0  0  0  0  0  0
    4.3333   -6.0861   -0.1089 H   0  0  0  0  0  0  0  0  0  0  0  0
    5.9761   -4.5168   -0.4409 H   0  0  0  0  0  0  0  0  0  0  0  0
    5.2342   -3.5020    0.5505 H   0  0  0  0  0  0  0  0  0  0  0  0
  1  6  1  0  0  0  0
  1 24  1  0  0  0  0
  2  1  2  0  0  0  0
  2  3  1  0  0  0  0
  2 25  1  0  0  0  0
  3  4  2  0  0  0  0
  3 26  1  0  0  0  0
  4  5  1  0  0  0  0
  4 27  1  0  0  0  0
  5 28  1  0  0  0  0
  6  5  2  0  0  0  0
  6  7  1  0  0  0  0
  7  8  1  0  0  0  0
  8 17  2  0  0  0  0
  8  9  1  0  0  0  0
  9 10  2  0  0  0  0
  9 29  1  0  0  0  0
 10 15  1  0  0  0  0
 10 11  1  0  0  0  0
 11 12  2  0  0  0  0
 13 11  2  0  0  0  0
 14 11  1  0  0  0  0
 14 30  1  0  0  0  0
 14 31  1  0  0  0  0
 15 32  1  0  0  0  0
 16 15  2  0  0  0  0
 16 33  1  0  0  0  0
 17 16  1  0  0  0  0
 18 17  1  0  0  0  0
 18 34  1  0  0  0  0
 19  7  2  0  0  0  0
 19 18  1  0  0  0  0
 20 19  1  0  0  0  0
 20 21  2  0  0  0  0
 22 20  1  0  0  0  0
 22 35  1  0  0  0  0
 23 22  1  0  0  0  0
 23 36  1  0  0  0  0
 23 37  1  0  0  0  0
M  END
>  <DRUGBANK_ID>
DB08659

>  <COMMON_NAME>
2-(hydrazinocarbonyl)-3-phenyl-1H-indole-5-sulfonamide

$$$$
