481
 OpenBabel10282417103D

 61 65  0  0  0  0  0  0  0  0999 V2000
    1.9673    1.0861   -0.0817 S   0  0  0  0  0  0  0  0  0  0  0  0
   -1.6443   -7.0159    0.1350 O   0  0  0  0  0  0  0  0  0  0  0  0
    3.4481   -3.2882    0.2961 O   0  0  0  0  0  0  0  0  0  0  0  0
   -3.2481    1.0239    0.0342 O   0  0  0  0  0  0  0  0  0  0  0  0
    8.2851   -1.2348    0.2697 O   0  0  0  0  0  0  0  0  0  0  0  0
   -2.8554   -4.7672   -1.8700 N   0  0  0  0  0  0  0  0  0  0  0  0
   -2.3383   -4.9000   -3.2453 C   0  0  0  0  0  0  0  0  0  0  0  0
   -3.5882   -3.5313   -1.6864 C   0  0  0  0  0  0  0  0  0  0  0  0
   -1.3069   -3.8041   -3.5754 C   0  0  0  0  0  0  0  0  0  0  0  0
   -2.6192   -2.4060   -1.9878 C   0  0  0  0  0  0  0  0  0  0  0  0
   -1.8426   -2.4225   -3.2832 C   0  0  0  0  0  0  0  0  0  0  0  0
   -3.4999   -5.9490   -1.2936 C   0  0  0  0  0  0  0  0  0  0  0  0
   -2.5199   -7.1314   -1.0264 C   0  0  0  0  0  0  0  0  0  0  0  0
   -0.6133   -6.1156    0.1602 C   0  0  0  0  0  0  0  0  0  0  0  0
    1.8223   -1.4946    0.1755 C   0  0  0  0  0  0  0  0  0  0  0  0
    0.4586   -0.9601    0.2430 C   0  0  0  0  0  0  0  0  0  0  0  0
    2.7265   -0.4437    0.0547 C   0  0  0  0  0  0  0  0  0  0  0  0
    0.3860    0.4268    0.0502 C   0  0  0  0  0  0  0  0  0  0  0  0
    1.3055   -4.0190    0.3353 C   0  0  0  0  0  0  0  0  0  0  0  0
    2.2617   -2.9123    0.3071 C   0  0  0  0  0  0  0  0  0  0  0  0
   -0.2663   -5.3087   -0.8935 C   0  0  0  0  0  0  0  0  0  0  0  0
    0.1819   -5.9725    1.2882 C   0  0  0  0  0  0  0  0  0  0  0  0
    0.5941   -4.2167   -0.8125 C   0  0  0  0  0  0  0  0  0  0  0  0
    1.1762   -4.9593    1.3572 C   0  0  0  0  0  0  0  0  0  0  0  0
    4.1941   -0.5171    0.0670 C   0  0  0  0  0  0  0  0  0  0  0  0
   -0.7717   -1.6021    0.4955 C   0  0  0  0  0  0  0  0  0  0  0  0
   -0.8601    1.1187    0.0097 C   0  0  0  0  0  0  0  0  0  0  0  0
   -1.9975   -0.9329    0.4777 C   0  0  0  0  0  0  0  0  0  0  0  0
   -2.0417    0.4043    0.1810 C   0  0  0  0  0  0  0  0  0  0  0  0
    4.9263   -0.0367    1.1629 C   0  0  0  0  0  0  0  0  0  0  0  0
    4.8667   -1.2162   -0.9456 C   0  0  0  0  0  0  0  0  0  0  0  0
    6.3071   -0.2552    1.2430 C   0  0  0  0  0  0  0  0  0  0  0  0
    6.2364   -1.4564   -0.8536 C   0  0  0  0  0  0  0  0  0  0  0  0
    6.9477   -0.9709    0.2344 C   0  0  0  0  0  0  0  0  0  0  0  0
   -3.9522    0.3521    0.0926 H   0  0  0  0  0  0  0  0  0  0  0  0
    8.6609   -0.8539    1.0785 H   0  0  0  0  0  0  0  0  0  0  0  0
   -3.1520   -4.8763   -3.9661 H   0  0  0  0  0  0  0  0  0  0  0  0
   -1.8264   -5.8583   -3.3798 H   0  0  0  0  0  0  0  0  0  0  0  0
   -3.9008   -3.4263   -0.6347 H   0  0  0  0  0  0  0  0  0  0  0  0
   -4.4807   -3.4751   -2.3101 H   0  0  0  0  0  0  0  0  0  0  0  0
   -0.9152   -3.8840   -4.5901 H   0  0  0  0  0  0  0  0  0  0  0  0
   -0.3995   -3.9419   -3.0062 H   0  0  0  0  0  0  0  0  0  0  0  0
   -1.8420   -2.5503   -1.2537 H   0  0  0  0  0  0  0  0  0  0  0  0
   -3.0994   -1.4355   -1.8506 H   0  0  0  0  0  0  0  0  0  0  0  0
   -1.0089   -1.7089   -3.1877 H   0  0  0  0  0  0  0  0  0  0  0  0
   -2.4800   -2.1007   -4.1018 H   0  0  0  0  0  0  0  0  0  0  0  0
   -4.3019   -6.2603   -1.9747 H   0  0  0  0  0  0  0  0  0  0  0  0
   -3.9745   -5.7067   -0.3315 H   0  0  0  0  0  0  0  0  0  0  0  0
   -1.9538   -7.4128   -1.9211 H   0  0  0  0  0  0  0  0  0  0  0  0
   -3.1573   -8.0042   -0.8224 H   0  0  0  0  0  0  0  0  0  0  0  0
   -0.6944   -5.5386   -1.8339 H   0  0  0  0  0  0  0  0  0  0  0  0
    0.0581   -6.6679    2.1111 H   0  0  0  0  0  0  0  0  0  0  0  0
    0.7124   -3.4961   -1.6142 H   0  0  0  0  0  0  0  0  0  0  0  0
    1.8414   -4.8992    2.2102 H   0  0  0  0  0  0  0  0  0  0  0  0
   -0.8211   -2.6777    0.6141 H   0  0  0  0  0  0  0  0  0  0  0  0
   -0.9048    2.1934   -0.1421 H   0  0  0  0  0  0  0  0  0  0  0  0
   -2.9040   -1.5254    0.5691 H   0  0  0  0  0  0  0  0  0  0  0  0
    4.4177    0.4723    1.9789 H   0  0  0  0  0  0  0  0  0  0  0  0
    4.3107   -1.6611   -1.7672 H   0  0  0  0  0  0  0  0  0  0  0  0
    6.8523    0.1182    2.1035 H   0  0  0  0  0  0  0  0  0  0  0  0
    6.7354   -2.0504   -1.6127 H   0  0  0  0  0  0  0  0  0  0  0  0
  1 17  1  0  0  0  0
  1 18  1  0  0  0  0
  2 13  1  0  0  0  0
  2 14  1  0  0  0  0
  3 20  2  0  0  0  0
  4 29  1  0  0  0  0
  4 35  1  0  0  0  0
  5 34  1  0  0  0  0
  5 36  1  0  0  0  0
  6  7  1  0  0  0  0
  6  8  1  0  0  0  0
  6 12  1  0  0  0  0
  7  9  1  0  0  0  0
  7 37  1  0  0  0  0
  7 38  1  0  0  0  0
  8 10  1  0  0  0  0
  8 39  1  0  0  0  0
  8 40  1  0  0  0  0
  9 11  1  0  0  0  0
  9 41  1  0  0  0  0
  9 42  1  0  0  0  0
 10 11  1  0  0  0  0
 10 43  1  0  0  0  0
 10 44  1  0  0  0  0
 11 45  1  0  0  0  0
 11 46  1  0  0  0  0
 12 13  1  0  0  0  0
 12 47  1  0  0  0  0
 12 48  1  0  0  0  0
 13 49  1  0  0  0  0
 13 50  1  0  0  0  0
 14 21  2  0  0  0  0
 14 22  1  0  0  0  0
 15 16  1  0  0  0  0
 15 17  2  0  0  0  0
 15 20  1  0  0  0  0
 16 18  2  0  0  0  0
 16 26  1  0  0  0  0
 17 25  1  0  0  0  0
 18 27  1  0  0  0  0
 19 20  1  0  0  0  0
 19 23  2  0  0  0  0
 19 24  1  0  0  0  0
 21 23  1  0  0  0  0
 21 51  1  0  0  0  0
 22 24  2  0  0  0  0
 22 52  1  0  0  0  0
 23 53  1  0  0  0  0
 24 54  1  0  0  0  0
 25 30  2  0  0  0  0
 25 31  1  0  0  0  0
 26 28  2  0  0  0  0
 26 55  1  0  0  0  0
 27 29  2  0  0  0  0
 27 56  1  0  0  0  0
 28 29  1  0  0  0  0
 28 57  1  0  0  0  0
 30 32  1  0  0  0  0
 30 58  1  0  0  0  0
 31 33  2  0  0  0  0
 31 59  1  0  0  0  0
 32 34  2  0  0  0  0
 32 60  1  0  0  0  0
 33 34  1  0  0  0  0
 33 61  1  0  0  0  0
M  END
>  <DRUGBANK_ID>
DB00481

>  <SECONDARY_ACCESSION_NUMBERS>
APRD00400

>  <COMMON_NAME>
Raloxifene

>  <CAS_NUMBER>
84449-90-1

>  <UNII>
YX9162EO3I

>  <SYNONYMS>
(2-(4-Hydroxyphenyl)-6-hydroxybenzo(b)thien-3-yl)(4-(2-(1-piperidinyl)ethoxy)phenyl)methanone; Raloxif√®ne; Raloxifene; Raloxifeno; Raloxifenum

$$$$
