
 OpenBabel10282417133D

 38 37  0  0  0  0  0  0  0  0999 V2000
   -1.4329   -0.9516   -1.7454 S   0  0  0  0  0  0  0  0  0  0  0  0
    5.4779    0.8809   -3.3107 O   0  0  0  0  0  0  0  0  0  0  0  0
    4.6931   -2.7362   -0.5853 O   0  0  0  0  0  0  0  0  0  0  0  0
    2.8900    0.5427   -1.2801 O   0  0  0  0  0  0  0  0  0  0  0  0
    1.2480   -3.4943   -5.3606 O   0  0  0  0  0  0  0  0  0  0  0  0
    2.9789   -0.2589   -3.3883 N   0  0  0  0  0  0  0  0  0  0  0  0
    0.7987   -2.4759   -3.3933 N   0  0  0  0  0  0  0  0  0  0  0  0
    6.0016   -1.1639   -1.9858 C   0  0  0  0  0  0  0  0  0  0  0  0
    5.0876    0.1005   -2.1509 C   0  0  2  0  0  0  0  0  0  0  0  0
    5.8245   -1.8667   -0.6162 C   0  0  0  0  0  0  0  0  0  0  0  0
    6.0451   -2.3061   -3.0260 C   0  0  0  0  0  0  0  0  0  0  0  0
    7.4012   -0.5212   -2.0720 C   0  0  0  0  0  0  0  0  0  0  0  0
    3.5741    0.0849   -2.2051 C   0  0  0  0  0  0  0  0  0  0  0  0
    3.4835   -1.1807   -4.3928 C   0  0  0  0  0  0  0  0  0  0  0  0
    3.1363   -2.6598   -4.1689 C   0  0  0  0  0  0  0  0  0  0  0  0
    1.6712   -2.9283   -4.3541 C   0  0  0  0  0  0  0  0  0  0  0  0
    1.0813   -1.9092   -2.1739 C   0  0  0  0  0  0  0  0  0  0  0  0
    0.2427   -1.1771   -1.4316 C   0  0  0  0  0  0  0  0  0  0  0  0
    1.9790   -0.0863   -3.4024 H   0  0  0  0  0  0  0  0  0  0  0  0
   -0.1605   -2.5352   -3.7007 H   0  0  0  0  0  0  0  0  0  0  0  0
   -1.5897   -1.8383   -2.7320 H   0  0  0  0  0  0  0  0  0  0  0  0
    4.6654    1.2214   -3.7336 H   0  0  0  0  0  0  0  0  0  0  0  0
    3.8956   -2.2196   -0.3922 H   0  0  0  0  0  0  0  0  0  0  0  0
    5.3029    0.7570   -1.2908 H   0  0  0  0  0  0  0  0  0  0  0  0
    6.6944   -2.5148   -0.4459 H   0  0  0  0  0  0  0  0  0  0  0  0
    5.7713   -1.1735    0.2264 H   0  0  0  0  0  0  0  0  0  0  0  0
    6.1225   -1.9832   -4.0635 H   0  0  0  0  0  0  0  0  0  0  0  0
    6.9239   -2.9425   -2.8669 H   0  0  0  0  0  0  0  0  0  0  0  0
    5.2252   -3.0076   -2.9077 H   0  0  0  0  0  0  0  0  0  0  0  0
    7.5449   -0.0795   -3.0676 H   0  0  0  0  0  0  0  0  0  0  0  0
    7.4952    0.2807   -1.3332 H   0  0  0  0  0  0  0  0  0  0  0  0
    8.2030   -1.2422   -1.9250 H   0  0  0  0  0  0  0  0  0  0  0  0
    4.5525   -1.0365   -4.4449 H   0  0  0  0  0  0  0  0  0  0  0  0
    3.1099   -0.8380   -5.3580 H   0  0  0  0  0  0  0  0  0  0  0  0
    3.3821   -3.0588   -3.1828 H   0  0  0  0  0  0  0  0  0  0  0  0
    3.6957   -3.2650   -4.8963 H   0  0  0  0  0  0  0  0  0  0  0  0
    2.1114   -1.9693   -1.8367 H   0  0  0  0  0  0  0  0  0  0  0  0
    0.6581   -0.6238   -0.5875 H   0  0  0  0  0  0  0  0  0  0  0  0
  1 18  1  0  0  0  0
  1 21  1  0  0  0  0
  2 22  1  0  0  0  0
  3 10  1  0  0  0  0
  3 23  1  0  0  0  0
  4 13  2  0  0  0  0
  5 16  2  0  0  0  0
  6 13  1  0  0  0  0
  6 14  1  0  0  0  0
  6 19  1  0  0  0  0
  7 16  1  0  0  0  0
  7 17  1  0  0  0  0
  7 20  1  0  0  0  0
  8 10  1  0  0  0  0
  8 11  1  0  0  0  0
  8 12  1  0  0  0  0
  9 13  1  0  0  0  0
  9 24  1  1  0  0  0
  9  8  1  0  0  0  0
  9  2  1  0  0  0  0
 10 25  1  0  0  0  0
 10 26  1  0  0  0  0
 11 27  1  0  0  0  0
 11 28  1  0  0  0  0
 11 29  1  0  0  0  0
 12 30  1  0  0  0  0
 12 31  1  0  0  0  0
 12 32  1  0  0  0  0
 14 15  1  0  0  0  0
 14 33  1  0  0  0  0
 14 34  1  0  0  0  0
 15 16  1  0  0  0  0
 15 35  1  0  0  0  0
 15 36  1  0  0  0  0
 17 18  2  0  0  0  0
 17 37  1  0  0  0  0
 18 38  1  0  0  0  0
M  END
>  <DRUGBANK_ID>
DB03738

>  <SECONDARY_ACCESSION_NUMBERS>
EXPT02522

>  <COMMON_NAME>
Pantothenoylaminoethenethiol

>  <SYNONYMS>
2,4-Dihydroxy-N-[2-(2-mercapto-vinylcarbamoyl)-ethyl]-3,3-dimethyl-butyramide

$$$$
