
 OpenBabel10282417193D

 42 45  0  0  0  0  0  0  0  0999 V2000
    1.0851   -0.1174   -0.2163 C   0  0  0  0  0  0  0  0  0  0  0  0
    0.5553    0.1916   -1.5324 N   0  0  0  0  0  0  0  0  0  0  0  0
   -0.9219    0.2765   -1.4898 C   0  0  0  0  0  0  0  0  0  0  0  0
   -1.4444    1.4278   -0.6484 C   0  0  0  0  0  0  0  0  0  0  0  0
   -2.0674    1.1358    0.5464 C   0  0  0  0  0  0  0  0  0  0  0  0
   -2.3155    2.1544    1.4569 C   0  0  0  0  0  0  0  0  0  0  0  0
   -1.6152    3.3705    1.4226 C   0  0  0  0  0  0  0  0  0  0  0  0
   -1.2047    3.7472    0.1377 C   0  0  0  0  0  0  0  0  0  0  0  0
   -1.2143    2.7849   -0.9221 C   0  0  0  0  0  0  0  0  0  0  0  0
   -1.0972    3.8979    2.8249 C   0  0  0  0  0  0  0  0  0  0  0  0
   -0.3429    3.0770    3.7582 C   0  0  0  0  0  0  0  0  0  0  0  0
   -1.4013    2.2351    4.2910 C   0  0  0  0  0  0  0  0  0  0  0  0
   -1.6373    0.8155    4.3546 C   0  0  0  0  0  0  0  0  0  0  0  0
   -2.9486    0.3993    4.6961 C   0  0  0  0  0  0  0  0  0  0  0  0
   -3.9512    1.3312    4.9666 C   0  0  0  0  0  0  0  0  0  0  0  0
   -3.7444    2.7102    4.8512 C   0  0  0  0  0  0  0  0  0  0  0  0
   -2.4802    3.1149    4.4164 C   0  0  0  0  0  0  0  0  0  0  0  0
   -2.0434    4.2955    3.8053 N   0  0  0  0  0  0  0  0  0  0  0  0
   -5.1890    0.8921    5.2415 F   0  0  0  0  0  0  0  0  0  0  0  0
   -0.7152   -0.2269    3.7488 C   0  0  0  0  0  0  0  0  0  0  0  0
   -1.0826   -1.4256    3.7361 O   0  0  0  0  0  0  0  0  0  0  0  0
    0.4906    0.0752    3.1264 N   0  0  0  0  0  0  0  0  0  0  0  0
    0.7463    1.3825    2.5757 C   0  0  0  0  0  0  0  0  0  0  0  0
    1.0068    2.4557    3.5818 C   0  0  0  0  0  0  0  0  0  0  0  0
    0.7502   -1.0655    0.2145 H   0  0  0  0  0  0  0  0  0  0  0  0
    0.6964    0.6629    0.4005 H   0  0  0  0  0  0  0  0  0  0  0  0
    2.1771   -0.0514   -0.1527 H   0  0  0  0  0  0  0  0  0  0  0  0
    0.9033    1.1158   -1.7875 H   0  0  0  0  0  0  0  0  0  0  0  0
   -1.3009    0.3731   -2.5076 H   0  0  0  0  0  0  0  0  0  0  0  0
   -1.3054   -0.6794   -1.1018 H   0  0  0  0  0  0  0  0  0  0  0  0
   -2.2148    0.1101    0.8868 H   0  0  0  0  0  0  0  0  0  0  0  0
   -2.8182    1.8325    2.3470 H   0  0  0  0  0  0  0  0  0  0  0  0
   -0.8480    4.7478   -0.0922 H   0  0  0  0  0  0  0  0  0  0  0  0
   -0.9419    3.0685   -1.9371 H   0  0  0  0  0  0  0  0  0  0  0  0
   -3.2278   -0.6552    4.6623 H   0  0  0  0  0  0  0  0  0  0  0  0
   -4.5736    3.3986    4.9533 H   0  0  0  0  0  0  0  0  0  0  0  0
   -2.6270    5.1085    3.6886 H   0  0  0  0  0  0  0  0  0  0  0  0
    0.8994   -0.7199    2.6466 H   0  0  0  0  0  0  0  0  0  0  0  0
    1.4335    1.5252    1.7472 H   0  0  0  0  0  0  0  0  0  0  0  0
   -0.2000    1.5470    2.1073 H   0  0  0  0  0  0  0  0  0  0  0  0
    1.7772    3.1441    3.2151 H   0  0  0  0  0  0  0  0  0  0  0  0
    1.4085    2.0085    4.5042 H   0  0  0  0  0  0  0  0  0  0  0  0
  1  2  1  0  0  0  0
  1 25  1  0  0  0  0
  1 26  1  0  0  0  0
  1 27  1  0  0  0  0
  2  3  1  0  0  0  0
  2 28  1  0  0  0  0
  3  4  1  0  0  0  0
  3 29  1  0  0  0  0
  3 30  1  0  0  0  0
  4  5  2  0  0  0  0
  4  9  1  0  0  0  0
  5  6  1  0  0  0  0
  5 31  1  0  0  0  0
  6  7  2  0  0  0  0
  6 32  1  0  0  0  0
  7  8  1  0  0  0  0
  7 10  1  0  0  0  0
  8  9  2  0  0  0  0
  8 33  1  0  0  0  0
  9 34  1  0  0  0  0
 10 11  2  0  0  0  0
 10 18  1  0  0  0  0
 11 12  1  0  0  0  0
 11 24  1  0  0  0  0
 12 13  2  0  0  0  0
 12 17  1  0  0  0  0
 13 14  1  0  0  0  0
 13 20  1  0  0  0  0
 14 15  2  0  0  0  0
 14 35  1  0  0  0  0
 15 16  1  0  0  0  0
 15 19  1  0  0  0  0
 16 17  2  0  0  0  0
 16 36  1  0  0  0  0
 17 18  1  0  0  0  0
 18 37  1  0  0  0  0
 20 21  2  0  0  0  0
 20 22  1  0  0  0  0
 22 23  1  0  0  0  0
 22 38  1  0  0  0  0
 23 24  1  0  0  0  0
 23 39  1  0  0  0  0
 23 40  1  0  0  0  0
 24 41  1  0  0  0  0
 24 42  1  0  0  0  0
M  END
>  <DRUGBANK_ID>
DB12332

>  <COMMON_NAME>
Rucaparib

>  <CAS_NUMBER>
283173-50-2

>  <UNII>
8237F3U7EH

>  <SYNONYMS>
Rucaparib

$$$$
