
 OpenBabel10282417123D

 46 46  0  0  0  0  0  0  0  0999 V2000
   -4.1134   -1.3868   -1.3199 O   0  0  0  0  0  0  0  0  0  0  0  0
   -2.6524   -2.5508    2.3370 O   0  0  0  0  0  0  0  0  0  0  0  0
   -4.9357    1.0041   -1.9860 O   0  0  0  0  0  0  0  0  0  0  0  0
   -1.9771    2.3110   -0.1208 O   0  0  0  0  0  0  0  0  0  0  0  0
   -1.1589   -3.5217   -1.5413 O   0  0  0  0  0  0  0  0  0  0  0  0
   -1.9476   -2.2834   -3.2070 O   0  0  0  0  0  0  0  0  0  0  0  0
   -3.1209    4.7177   -1.0953 O   0  0  0  0  0  0  0  0  0  0  0  0
    0.2667    0.1285    1.8740 O   0  0  0  0  0  0  0  0  0  0  0  0
   -1.9113    0.0590    1.3227 N   0  0  0  0  0  0  0  0  0  0  0  0
   -2.9802   -0.7184    0.7170 C   0  0  1  0  0  0  0  0  0  0  0  0
   -3.2795   -0.3538   -0.7700 C   0  0  2  0  0  0  0  0  0  0  0  0
   -3.5233   -2.6983   -1.3346 C   0  0  1  0  0  0  0  0  0  0  0  0
   -2.6287   -2.2109    0.9503 C   0  0  2  0  0  0  0  0  0  0  0  0
   -3.4693   -3.1631    0.1300 C   0  0  0  0  0  0  0  0  0  0  0  0
   -3.9738    1.0390   -0.9137 C   0  0  1  0  0  0  0  0  0  0  0  0
   -4.5467   -3.5936   -2.0709 C   0  0  0  0  0  0  0  0  0  0  0  0
   -3.0373    2.2795   -1.0726 C   0  0  1  0  0  0  0  0  0  0  0  0
   -2.1637   -2.8294   -2.1248 C   0  0  0  0  0  0  0  0  0  0  0  0
   -3.8917    3.5415   -0.8692 C   0  0  0  0  0  0  0  0  0  0  0  0
   -4.7467   -3.2043   -3.5120 C   0  0  0  0  0  0  0  0  0  0  0  0
   -0.5843   -0.0825    1.0083 C   0  0  0  0  0  0  0  0  0  0  0  0
   -0.2101   -0.5453   -0.3804 C   0  0  0  0  0  0  0  0  0  0  0  0
   -4.4396   -4.0124   -4.5327 C   0  0  0  0  0  0  0  0  0  0  0  0
   -2.4017   -0.3098   -1.4075 H   0  0  0  0  0  0  0  0  0  0  0  0
   -2.0898    0.4502    2.2414 H   0  0  0  0  0  0  0  0  0  0  0  0
   -1.8383   -2.1658    2.7254 H   0  0  0  0  0  0  0  0  0  0  0  0
   -4.6829    1.6091   -2.7024 H   0  0  0  0  0  0  0  0  0  0  0  0
   -1.4211    3.0919   -0.2932 H   0  0  0  0  0  0  0  0  0  0  0  0
   -1.2336   -3.8147   -0.6170 H   0  0  0  0  0  0  0  0  0  0  0  0
   -2.5112    4.8184   -0.3455 H   0  0  0  0  0  0  0  0  0  0  0  0
   -3.8904   -0.5194    1.3037 H   0  0  0  0  0  0  0  0  0  0  0  0
   -1.5935   -2.4114    0.6982 H   0  0  0  0  0  0  0  0  0  0  0  0
   -3.0718   -4.1815    0.2187 H   0  0  0  0  0  0  0  0  0  0  0  0
   -4.4746   -3.1955    0.5685 H   0  0  0  0  0  0  0  0  0  0  0  0
   -4.5637    1.1954   -0.0059 H   0  0  0  0  0  0  0  0  0  0  0  0
   -4.2268   -4.6401   -2.0024 H   0  0  0  0  0  0  0  0  0  0  0  0
   -5.5244   -3.5138   -1.5786 H   0  0  0  0  0  0  0  0  0  0  0  0
   -2.5763    2.3068   -2.0696 H   0  0  0  0  0  0  0  0  0  0  0  0
   -4.7364    3.5575   -1.5626 H   0  0  0  0  0  0  0  0  0  0  0  0
   -4.2813    3.5762    0.1547 H   0  0  0  0  0  0  0  0  0  0  0  0
   -5.0891   -2.1878   -3.7112 H   0  0  0  0  0  0  0  0  0  0  0  0
   -0.8014   -1.3945   -0.6795 H   0  0  0  0  0  0  0  0  0  0  0  0
   -0.3746    0.2387   -1.1205 H   0  0  0  0  0  0  0  0  0  0  0  0
    0.8170   -0.9030   -0.4183 H   0  0  0  0  0  0  0  0  0  0  0  0
   -4.5291   -3.6704   -5.5581 H   0  0  0  0  0  0  0  0  0  0  0  0
   -4.0477   -5.0094   -4.3628 H   0  0  0  0  0  0  0  0  0  0  0  0
  1 11  1  0  0  0  0
  1 12  1  0  0  0  0
  2 26  1  0  0  0  0
  3 27  1  0  0  0  0
  4 28  1  0  0  0  0
  5 18  1  0  0  0  0
  5 29  1  0  0  0  0
  6 18  2  0  0  0  0
  7 19  1  0  0  0  0
  7 30  1  0  0  0  0
  8 21  2  0  0  0  0
  9 21  1  0  0  0  0
  9 25  1  0  0  0  0
 10 11  1  0  0  0  0
 10 13  1  0  0  0  0
 10 31  1  1  0  0  0
 10  9  1  0  0  0  0
 11 24  1  6  0  0  0
 12 14  1  0  0  0  0
 12 16  1  0  0  0  0
 12 18  1  6  0  0  0
 13 14  1  0  0  0  0
 13 32  1  6  0  0  0
 13  2  1  0  0  0  0
 14 33  1  0  0  0  0
 14 34  1  0  0  0  0
 15 35  1  1  0  0  0
 15 11  1  0  0  0  0
 15  3  1  0  0  0  0
 16 20  1  0  0  0  0
 16 36  1  0  0  0  0
 16 37  1  0  0  0  0
 17 19  1  0  0  0  0
 17 38  1  6  0  0  0
 17 15  1  0  0  0  0
 17  4  1  0  0  0  0
 19 39  1  0  0  0  0
 19 40  1  0  0  0  0
 20 23  2  0  0  0  0
 20 41  1  0  0  0  0
 21 22  1  0  0  0  0
 22 42  1  0  0  0  0
 22 43  1  0  0  0  0
 22 44  1  0  0  0  0
 23 45  1  0  0  0  0
 23 46  1  0  0  0  0
M  END
>  <DRUGBANK_ID>
DB01716

>  <SECONDARY_ACCESSION_NUMBERS>
EXPT00972

>  <COMMON_NAME>
2-propenyl-N-acetyl-neuramic acid

$$$$
