
 OpenBabel10282417183D

 40 39  0  0  0  0  0  0  0  0999 V2000
    1.0393    0.0329    0.0859 Cr  0  1  0  0  0  0  0  0  0  0  0  0
    0.9670   -0.0379   -0.0864 O   0  5  0  0  0  0  0  0  0  0  0  0
    2.3870   -0.0379   -0.0864 C   0  0  0  0  0  0  0  0  0  0  0  0
    3.0224   -1.1236   -0.2674 O   0  0  0  0  0  0  0  0  0  0  0  0
    3.1470    1.2605    0.1301 C   0  0  0  0  0  0  0  0  0  0  0  0
    4.1768    1.5133   -0.6836 N   0  0  0  0  0  0  0  0  0  0  0  0
    4.8318    2.6733   -0.5197 C   0  0  0  0  0  0  0  0  0  0  0  0
    4.4796    3.5955    0.4460 C   0  0  0  0  0  0  0  0  0  0  0  0
    3.4163    3.3157    1.3080 C   0  0  0  0  0  0  0  0  0  0  0  0
    2.7454    2.1118    1.1339 C   0  0  0  0  0  0  0  0  0  0  0  0
    0.9141   -0.0384    0.0339 O   0  5  0  0  0  0  0  0  0  0  0  0
    2.3341   -0.0384    0.0339 C   0  0  0  0  0  0  0  0  0  0  0  0
    2.9696   -0.9482    0.6533 O   0  0  0  0  0  0  0  0  0  0  0  0
    3.0941    1.0497   -0.7069 C   0  0  0  0  0  0  0  0  0  0  0  0
    4.1734    0.6165   -1.3658 N   0  0  0  0  0  0  0  0  0  0  0  0
    4.9357    1.5314   -1.9850 C   0  0  0  0  0  0  0  0  0  0  0  0
    4.6432    2.8808   -1.9620 C   0  0  0  0  0  0  0  0  0  0  0  0
    3.5263    3.3298   -1.2530 C   0  0  0  0  0  0  0  0  0  0  0  0
    2.7441    2.3772   -0.6123 C   0  0  0  0  0  0  0  0  0  0  0  0
    0.9423   -0.0301    0.0759 O   0  5  0  0  0  0  0  0  0  0  0  0
    2.3623   -0.0301    0.0759 C   0  0  0  0  0  0  0  0  0  0  0  0
    2.9977    0.9311    0.6121 O   0  0  0  0  0  0  0  0  0  0  0  0
    3.1223   -1.1796   -0.5654 C   0  0  0  0  0  0  0  0  0  0  0  0
    4.2143   -1.7051   -0.0016 N   0  0  0  0  0  0  0  0  0  0  0  0
    4.8541   -2.6788   -0.6681 C   0  0  0  0  0  0  0  0  0  0  0  0
    4.4253   -3.1447   -1.8954 C   0  0  0  0  0  0  0  0  0  0  0  0
    3.2960   -2.5762   -2.4899 C   0  0  0  0  0  0  0  0  0  0  0  0
    2.6413   -1.5670   -1.7952 C   0  0  0  0  0  0  0  0  0  0  0  0
    5.6590    2.8920   -1.1622 H   0  0  0  0  0  0  0  0  0  0  0  0
    5.0167    4.5169    0.5334 H   0  0  0  0  0  0  0  0  0  0  0  0
    3.1288    4.0043    2.0749 H   0  0  0  0  0  0  0  0  0  0  0  0
    1.9274    1.8499    1.7719 H   0  0  0  0  0  0  0  0  0  0  0  0
    5.8037    1.2023   -2.5172 H   0  0  0  0  0  0  0  0  0  0  0  0
    5.2670    3.5769   -2.4829 H   0  0  0  0  0  0  0  0  0  0  0  0
    3.2819    4.3705   -1.2052 H   0  0  0  0  0  0  0  0  0  0  0  0
    1.8810    2.6717   -0.0527 H   0  0  0  0  0  0  0  0  0  0  0  0
    5.7303   -3.1107   -0.2316 H   0  0  0  0  0  0  0  0  0  0  0  0
    4.9537   -3.9347   -2.3870 H   0  0  0  0  0  0  0  0  0  0  0  0
    2.9479   -2.9063   -3.4463 H   0  0  0  0  0  0  0  0  0  0  0  0
    1.7745   -1.0970   -2.2108 H   0  0  0  0  0  0  0  0  0  0  0  0
  2  3  1  0  0  0  0
  3  4  2  0  0  0  0
  3  5  1  0  0  0  0
  5  6  2  0  0  0  0
  5 10  1  0  0  0  0
  6  7  1  0  0  0  0
  7  8  2  0  0  0  0
  7 29  1  0  0  0  0
  8  9  1  0  0  0  0
  8 30  1  0  0  0  0
  9 10  2  0  0  0  0
  9 31  1  0  0  0  0
 10 32  1  0  0  0  0
 11 12  1  0  0  0  0
 12 13  2  0  0  0  0
 12 14  1  0  0  0  0
 14 15  2  0  0  0  0
 14 19  1  0  0  0  0
 15 16  1  0  0  0  0
 16 17  2  0  0  0  0
 16 33  1  0  0  0  0
 17 18  1  0  0  0  0
 17 34  1  0  0  0  0
 18 19  2  0  0  0  0
 18 35  1  0  0  0  0
 19 36  1  0  0  0  0
 20 21  1  0  0  0  0
 21 22  2  0  0  0  0
 21 23  1  0  0  0  0
 23 24  2  0  0  0  0
 23 28  1  0  0  0  0
 24 25  1  0  0  0  0
 25 26  2  0  0  0  0
 25 37  1  0  0  0  0
 26 27  1  0  0  0  0
 26 38  1  0  0  0  0
 27 28  2  0  0  0  0
 27 39  1  0  0  0  0
 28 40  1  0  0  0  0
M  CHG  4   1   3   2  -1  11  -1  20  -1
M  END
>  <DRUGBANK_ID>
DB11255

>  <COMMON_NAME>
Chromium picolinate

>  <CAS_NUMBER>
14639-25-9

>  <UNII>
S71T8B8Z6P

>  <SYNONYMS>
Chromium(III) picolinate

$$$$
