
 OpenBabel10282417173D

 15 13  0  0  0  0  0  0  0  0999 V2000
    0.8557   -0.1105   -0.2925 C   0  0  0  0  0  0  0  0  0  0  0  0
    0.3830    0.1647   -1.6986 C   0  0  0  0  0  0  0  0  0  0  0  0
    0.4323   -1.4458    0.3065 C   0  0  0  0  0  0  0  0  0  0  0  0
    0.9795   -0.9421   -2.5526 C   0  0  0  0  0  0  0  0  0  0  0  0
    1.0362   -1.4629    1.6216 O   0  0  0  0  0  0  0  0  0  0  0  0
    0.1236   -1.7046   -3.0813 O   0  0  0  0  0  0  0  0  0  0  0  0
    2.2342   -1.0159   -2.5073 O   0  5  0  0  0  0  0  0  0  0  0  0
    1.6729    0.5582    2.1508 Na  0  3  0  0  0  0  0  0  0  0  0  0
    0.4582    0.6960    0.3301 H   0  0  0  0  0  0  0  0  0  0  0  0
    1.9508   -0.0331   -0.2304 H   0  0  0  0  0  0  0  0  0  0  0  0
   -0.7102    0.1893   -1.7343 H   0  0  0  0  0  0  0  0  0  0  0  0
    0.7583    1.1413   -2.0258 H   0  0  0  0  0  0  0  0  0  0  0  0
   -0.6556   -1.5080    0.4106 H   0  0  0  0  0  0  0  0  0  0  0  0
    0.7846   -2.3230   -0.2480 H   0  0  0  0  0  0  0  0  0  0  0  0
    1.7665   -2.1142    1.5296 H   0  0  0  0  0  0  0  0  0  0  0  0
  1  9  1  0  0  0  0
  1 10  1  0  0  0  0
  2  1  1  0  0  0  0
  2 11  1  0  0  0  0
  2 12  1  0  0  0  0
  3  1  1  0  0  0  0
  3 13  1  0  0  0  0
  3 14  1  0  0  0  0
  4  2  1  0  0  0  0
  5  3  1  0  0  0  0
  5 15  1  0  0  0  0
  6  4  2  0  0  0  0
  7  4  1  0  0  0  0
M  CHG  2   7  -1   8   1
M  END
>  <DRUGBANK_ID>
DB09072

>  <COMMON_NAME>
Sodium oxybate

>  <CAS_NUMBER>
502-85-2

>  <UNII>
7G33012534

>  <SYNONYMS>
Oxybate sodium; Sodium oxybate

$$$$
