
 OpenBabel10282417233D

 27 26  0  0  0  0  0  0  0  0999 V2000
    1.0638    0.0787   -0.0720 C   0  0  0  0  0  0  0  0  0  0  0  0
   -0.6904    0.8435    1.5153 N   0  0  0  0  0  0  0  0  0  0  0  0
    0.3368   -0.1813    1.2633 C   0  0  1  0  0  0  0  0  0  0  0  0
   -2.0546    0.8199    1.6091 C   0  0  0  0  0  0  0  0  0  0  0  0
    1.4941   -3.0663    2.1327 C   0  0  0  0  0  0  0  0  0  0  0  0
    0.4733    0.2340   -1.1292 O   0  0  0  0  0  0  0  0  0  0  0  0
   -2.5943    1.9009    1.8712 O   0  0  0  0  0  0  0  0  0  0  0  0
    1.3914   -4.0524    2.8338 O   0  0  0  0  0  0  0  0  0  0  0  0
   -0.2475   -1.5814    1.1997 C   0  0  0  0  0  0  0  0  0  0  0  0
    0.6105   -2.7928    0.9486 C   0  0  0  0  0  0  0  0  0  0  0  0
    2.4044   -2.0943    2.4146 N   0  0  0  0  0  0  0  0  0  0  0  0
    2.4169    0.0314   -0.0439 O   0  0  0  0  0  0  0  0  0  0  0  0
   -3.0941   -0.9856    0.1420 N   0  0  0  0  0  0  0  0  0  0  0  0
   -2.9161   -0.4595    1.5026 C   0  0  0  0  0  0  0  0  0  0  0  0
   -0.3440    1.7916    1.6364 H   0  0  0  0  0  0  0  0  0  0  0  0
    1.0162   -0.0509    2.1089 H   0  0  0  0  0  0  0  0  0  0  0  0
   -0.7893   -1.7777    2.1263 H   0  0  0  0  0  0  0  0  0  0  0  0
   -0.9036   -1.5839    0.3377 H   0  0  0  0  0  0  0  0  0  0  0  0
   -0.0801   -3.6432    0.8447 H   0  0  0  0  0  0  0  0  0  0  0  0
    1.1609   -2.7116    0.0097 H   0  0  0  0  0  0  0  0  0  0  0  0
    2.5057   -1.2674    1.8736 H   0  0  0  0  0  0  0  0  0  0  0  0
    2.9619   -2.1915    3.2512 H   0  0  0  0  0  0  0  0  0  0  0  0
    2.9343    0.0752    0.7766 H   0  0  0  0  0  0  0  0  0  0  0  0
   -2.7902   -1.9557    0.0562 H   0  0  0  0  0  0  0  0  0  0  0  0
   -2.6151   -0.4250   -0.5627 H   0  0  0  0  0  0  0  0  0  0  0  0
   -2.5870   -1.2067    2.2298 H   0  0  0  0  0  0  0  0  0  0  0  0
   -3.9215   -0.2054    1.8390 H   0  0  0  0  0  0  0  0  0  0  0  0
  2 15  1  0  0  0  0
  3  2  1  0  0  0  0
  3  1  1  0  0  0  0
  3 16  1  1  0  0  0
  4  2  1  0  0  0  0
  5 10  1  0  0  0  0
  6  1  2  0  0  0  0
  7  4  2  0  0  0  0
  8  5  2  0  0  0  0
  9  3  1  0  0  0  0
  9 17  1  0  0  0  0
  9 18  1  0  0  0  0
 10  9  1  0  0  0  0
 10 19  1  0  0  0  0
 10 20  1  0  0  0  0
 11  5  1  0  0  0  0
 11 21  1  0  0  0  0
 11 22  1  0  0  0  0
 12  1  1  0  0  0  0
 12 23  1  0  0  0  0
 13 14  1  0  0  0  0
 13 24  1  0  0  0  0
 13 25  1  0  0  0  0
 14  4  1  0  0  0  0
 14 26  1  0  0  0  0
 14 27  1  0  0  0  0
M  END
>  <DRUGBANK_ID>
DB15990

>  <COMMON_NAME>
Glycylglutamine

>  <CAS_NUMBER>
13115-71-4

>  <UNII>
H7125Z98HT

>  <SYNONYMS>
Gly-gln; Glycyl-glutamine; Glycyl-L-glutamine

$$$$
