
 OpenBabel10282417233D

 67 70  0  0  0  0  0  0  0  0999 V2000
    0.7566    1.1870   -0.2038 C   0  0  0  0  0  0  0  0  0  0  0  0
    1.3758   -0.0045    0.1790 N   0  0  0  0  0  0  0  0  0  0  0  0
    0.6889   -1.1961   -0.2994 C   0  0  0  0  0  0  0  0  0  0  0  0
   -0.7463   -1.2164    0.2298 C   0  0  0  0  0  0  0  0  0  0  0  0
   -1.4414   -0.0083   -0.2453 N   0  0  0  0  0  0  0  0  0  0  0  0
   -0.7268    1.2071    0.2117 C   0  0  0  0  0  0  0  0  0  0  0  0
    2.6054   -0.0245    0.9766 C   0  0  0  0  0  0  0  0  0  0  0  0
    2.4502   -0.6902    2.3395 C   0  0  0  0  0  0  0  0  0  0  0  0
    2.7219   -0.1253    3.5881 C   0  0  0  0  0  0  0  0  0  0  0  0
    2.6564   -0.8118    4.7885 N   0  0  0  0  0  0  0  0  0  0  0  0
    2.2624   -2.1077    4.7849 C   0  0  0  0  0  0  0  0  0  0  0  0
    1.9495   -2.7463    3.5829 C   0  0  0  0  0  0  0  0  0  0  0  0
    2.0895   -2.0370    2.3920 C   0  0  0  0  0  0  0  0  0  0  0  0
    2.1772   -2.8602    5.9968 N   0  0  0  0  0  0  0  0  0  0  0  0
    1.3825   -4.1101    5.9071 C   0  0  0  0  0  0  0  0  0  0  0  0
    1.8218   -4.9515    4.7169 C   0  0  0  0  0  0  0  0  0  0  0  0
    1.4965   -4.1792    3.4599 C   0  0  0  0  0  0  0  0  0  0  0  0
    2.7493   -2.5362    7.2433 C   0  0  0  0  0  0  0  0  0  0  0  0
    3.5621   -1.4226    7.3053 N   0  0  0  0  0  0  0  0  0  0  0  0
    4.1324   -0.9771    8.5273 C   0  0  0  0  0  0  0  0  0  0  0  0
    4.7971   -1.8159    9.3546 N   0  0  0  0  0  0  0  0  0  0  0  0
    5.3021   -1.3122   10.5189 C   0  0  0  0  0  0  0  0  0  0  0  0
    5.1684    0.0032   10.9195 C   0  0  0  0  0  0  0  0  0  0  0  0
    4.5174    0.8817   10.0367 C   0  0  0  0  0  0  0  0  0  0  0  0
    4.0001    0.3668    8.8399 C   0  0  0  0  0  0  0  0  0  0  0  0
    3.1395    1.3009    3.7290 C   0  0  0  0  0  0  0  0  0  0  0  0
   -2.8140    0.0055    0.2437 C   0  0  0  0  0  0  0  0  0  0  0  0
    1.3534    2.1554   -0.6591 O   0  0  0  0  0  0  0  0  0  0  0  0
    2.5191   -3.2413    8.2291 O   0  0  0  0  0  0  0  0  0  0  0  0
    3.3982    1.8163    4.8124 O   0  0  0  0  0  0  0  0  0  0  0  0
    5.6807    0.4391   12.1973 C   0  0  0  0  0  0  0  0  0  0  0  0
    6.0797    0.8503   13.2025 N   0  0  0  0  0  0  0  0  0  0  0  0
    4.3129    2.1948   10.4092 N   0  0  0  0  0  0  0  0  0  0  0  0
    3.5946    3.2327    9.6761 C   0  0  0  0  0  0  0  0  0  0  0  0
    2.3857    3.7466   10.4775 C   0  0  0  0  0  0  0  0  0  0  0  0
    2.7271    4.4770   11.6645 O   0  0  0  0  0  0  0  0  0  0  0  0
    3.3764    3.6777   12.6448 C   0  0  0  0  0  0  0  0  0  0  0  0
    0.6824   -1.1571   -1.3957 H   0  0  0  0  0  0  0  0  0  0  0  0
    1.2185   -2.1125   -0.0724 H   0  0  0  0  0  0  0  0  0  0  0  0
   -1.2511   -2.1142   -0.1402 H   0  0  0  0  0  0  0  0  0  0  0  0
   -0.7455   -1.2555    1.3281 H   0  0  0  0  0  0  0  0  0  0  0  0
   -0.7370    1.2747    1.3099 H   0  0  0  0  0  0  0  0  0  0  0  0
   -1.2011    2.1077   -0.1896 H   0  0  0  0  0  0  0  0  0  0  0  0
    3.3893   -0.5418    0.4133 H   0  0  0  0  0  0  0  0  0  0  0  0
    2.9391    1.0097    1.0814 H   0  0  0  0  0  0  0  0  0  0  0  0
    1.9462   -2.6179    1.4940 H   0  0  0  0  0  0  0  0  0  0  0  0
    0.3225   -3.8342    5.7961 H   0  0  0  0  0  0  0  0  0  0  0  0
    1.4532   -4.7121    6.8173 H   0  0  0  0  0  0  0  0  0  0  0  0
    2.9013   -5.1379    4.7673 H   0  0  0  0  0  0  0  0  0  0  0  0
    1.3194   -5.9254    4.6903 H   0  0  0  0  0  0  0  0  0  0  0  0
    1.9825   -4.6647    2.6027 H   0  0  0  0  0  0  0  0  0  0  0  0
    0.4150   -4.2004    3.2626 H   0  0  0  0  0  0  0  0  0  0  0  0
    3.4112   -0.7307    6.5759 H   0  0  0  0  0  0  0  0  0  0  0  0
    5.8351   -2.0291   11.1406 H   0  0  0  0  0  0  0  0  0  0  0  0
    3.4484    1.0028    8.1620 H   0  0  0  0  0  0  0  0  0  0  0  0
    3.2113    1.9038    2.8129 H   0  0  0  0  0  0  0  0  0  0  0  0
   -2.8565    0.0385    1.3381 H   0  0  0  0  0  0  0  0  0  0  0  0
   -3.3498    0.8715   -0.1566 H   0  0  0  0  0  0  0  0  0  0  0  0
   -3.3428   -0.8901   -0.0981 H   0  0  0  0  0  0  0  0  0  0  0  0
    5.0329    2.5483   11.0318 H   0  0  0  0  0  0  0  0  0  0  0  0
    4.2913    4.0533    9.4785 H   0  0  0  0  0  0  0  0  0  0  0  0
    3.2252    2.8831    8.7122 H   0  0  0  0  0  0  0  0  0  0  0  0
    1.8300    4.4414    9.8357 H   0  0  0  0  0  0  0  0  0  0  0  0
    1.6988    2.9293   10.7296 H   0  0  0  0  0  0  0  0  0  0  0  0
    2.8441    2.7341   12.8077 H   0  0  0  0  0  0  0  0  0  0  0  0
    4.4074    3.5127   12.3532 H   0  0  0  0  0  0  0  0  0  0  0  0
    3.4746    4.2242   13.5819 H   0  0  0  0  0  0  0  0  0  0  0  0
  1  2  1  0  0  0  0
  1  6  1  0  0  0  0
  1 28  2  0  0  0  0
  2  7  1  0  0  0  0
  3  2  1  0  0  0  0
  3 38  1  0  0  0  0
  3 39  1  0  0  0  0
  4  3  1  0  0  0  0
  4 40  1  0  0  0  0
  4 41  1  0  0  0  0
  5  4  1  0  0  0  0
  5 27  1  0  0  0  0
  6  5  1  0  0  0  0
  6 42  1  0  0  0  0
  6 43  1  0  0  0  0
  7  8  1  0  0  0  0
  7 44  1  0  0  0  0
  7 45  1  0  0  0  0
  8 13  1  0  0  0  0
  9  8  2  0  0  0  0
  9 26  1  0  0  0  0
 10  9  1  0  0  0  0
 11 10  2  0  0  0  0
 11 14  1  0  0  0  0
 12 11  1  0  0  0  0
 12 17  1  0  0  0  0
 13 12  2  0  0  0  0
 13 46  1  0  0  0  0
 14 18  1  0  0  0  0
 15 14  1  0  0  0  0
 15 47  1  0  0  0  0
 15 48  1  0  0  0  0
 16 15  1  0  0  0  0
 16 49  1  0  0  0  0
 16 50  1  0  0  0  0
 17 16  1  0  0  0  0
 17 51  1  0  0  0  0
 17 52  1  0  0  0  0
 18 19  1  0  0  0  0
 18 29  2  0  0  0  0
 19 20  1  0  0  0  0
 19 53  1  0  0  0  0
 20 25  1  0  0  0  0
 21 20  2  0  0  0  0
 22 21  1  0  0  0  0
 22 54  1  0  0  0  0
 23 22  2  0  0  0  0
 23 31  1  0  0  0  0
 24 23  1  0  0  0  0
 24 33  1  0  0  0  0
 25 24  2  0  0  0  0
 25 55  1  0  0  0  0
 26 30  2  0  0  0  0
 26 56  1  0  0  0  0
 27 57  1  0  0  0  0
 27 58  1  0  0  0  0
 27 59  1  0  0  0  0
 31 32  3  0  0  0  0
 33 34  1  0  0  0  0
 33 60  1  0  0  0  0
 34 35  1  0  0  0  0
 34 61  1  0  0  0  0
 34 62  1  0  0  0  0
 35 36  1  0  0  0  0
 35 63  1  0  0  0  0
 35 64  1  0  0  0  0
 36 37  1  0  0  0  0
 37 65  1  0  0  0  0
 37 66  1  0  0  0  0
 37 67  1  0  0  0  0
M  END
>  <DRUGBANK_ID>
DB16845

>  <COMMON_NAME>
Roblitinib

>  <CAS_NUMBER>
1708971-55-4

>  <UNII>
M64JF6WMSA

>  <SYNONYMS>
Roblitinib

$$$$
