
 OpenBabel10282417113D

  1  0  0  0  0  0  0  0  0  0999 V2000
    0.9552    0.0692    0.0566 Ca  0  0  0  0  0 15  0  0  0  0  0  0
M  END
>  <DRUGBANK_ID>
DB01373

>  <COMMON_NAME>
Calcium

>  <CAS_NUMBER>
7440-70-2

>  <UNII>
SY7Q814VUP

>  <SYNONYMS>
Calcio; Calcium, elemental; Elemental calcium; Kalzium

$$$$
