
 OpenBabel10282417123D

 30 32  0  0  0  0  0  0  0  0999 V2000
    3.4258    1.1837    5.7802 C   0  0  0  0  0  0  0  0  0  0  0  0
    2.1151    0.0486    4.3869 C   0  0  0  0  0  0  0  0  0  0  0  0
    1.5454    1.1913    3.8558 C   0  0  0  0  0  0  0  0  0  0  0  0
    2.1066    3.1048    1.1393 C   0  0  2  0  0  0  0  0  0  0  0  0
    4.2328    2.1913    1.8225 C   0  0  0  0  0  0  0  0  0  0  0  0
    3.5985    3.4022    1.1417 C   0  0  0  0  0  0  0  0  0  0  0  0
    1.6059   -0.9824    3.6459 N   0  0  0  0  0  0  0  0  0  0  0  0
    3.0436   -0.0278    5.3479 N   0  0  0  0  0  0  0  0  0  0  0  0
    4.3036    1.2097    6.8288 N   0  0  0  0  0  0  0  0  0  0  0  0
    3.0411    2.3708    5.2791 N   0  0  0  0  0  0  0  0  0  0  0  0
    2.1179    2.3983    4.2797 C   0  0  0  0  0  0  0  0  0  0  0  0
    2.0181    3.6215    3.6407 O   0  0  0  0  0  0  0  0  0  0  0  0
    1.3335    3.6429    2.3838 C   0  0  0  0  0  0  0  0  0  0  0  0
    3.3082    1.0945    1.3862 C   0  0  0  0  0  0  0  0  0  0  0  0
    0.6217    0.8538    2.8788 N   0  0  0  0  0  0  0  0  0  0  0  0
    0.7679   -0.4443    2.7099 C   0  0  0  0  0  0  0  0  0  0  0  0
    3.5097   -0.1112    1.4950 O   0  0  0  0  0  0  0  0  0  0  0  0
    2.1348    1.6796    0.9376 N   0  0  0  0  0  0  0  0  0  0  0  0
    1.6038    3.5083    0.2525 H   0  0  0  0  0  0  0  0  0  0  0  0
    4.2270    2.2850    2.9089 H   0  0  0  0  0  0  0  0  0  0  0  0
    5.2533    1.9867    1.5049 H   0  0  0  0  0  0  0  0  0  0  0  0
    3.8505    4.3547    1.6074 H   0  0  0  0  0  0  0  0  0  0  0  0
    3.9517    3.4098    0.1031 H   0  0  0  0  0  0  0  0  0  0  0  0
    1.9149   -1.9408    3.6837 H   0  0  0  0  0  0  0  0  0  0  0  0
    4.5043    2.1054    7.2399 H   0  0  0  0  0  0  0  0  0  0  0  0
    4.4754    0.3389    7.3017 H   0  0  0  0  0  0  0  0  0  0  0  0
    0.3195    3.2398    2.4875 H   0  0  0  0  0  0  0  0  0  0  0  0
    1.1764    4.7127    2.1835 H   0  0  0  0  0  0  0  0  0  0  0  0
    0.3791   -1.0122    1.8728 H   0  0  0  0  0  0  0  0  0  0  0  0
    1.2845    1.1263    0.9560 H   0  0  0  0  0  0  0  0  0  0  0  0
  1  8  2  0  0  0  0
  1  9  1  0  0  0  0
  1 10  1  0  0  0  0
  2  3  2  0  0  0  0
  2  7  1  0  0  0  0
  2  8  1  0  0  0  0
  3 11  1  0  0  0  0
  3 15  1  0  0  0  0
  4 18  1  0  0  0  0
  4 19  1  6  0  0  0
  4 13  1  0  0  0  0
  5 20  1  0  0  0  0
  5 21  1  0  0  0  0
  6  4  1  0  0  0  0
  6  5  1  0  0  0  0
  6 22  1  0  0  0  0
  6 23  1  0  0  0  0
  7 24  1  0  0  0  0
  9 25  1  0  0  0  0
  9 26  1  0  0  0  0
 11 10  2  0  0  0  0
 11 12  1  0  0  0  0
 13 12  1  0  0  0  0
 13 27  1  0  0  0  0
 13 28  1  0  0  0  0
 14  5  1  0  0  0  0
 14 17  2  0  0  0  0
 14 18  1  0  0  0  0
 16  7  1  0  0  0  0
 16 15  2  0  0  0  0
 16 29  1  0  0  0  0
 18 30  1  0  0  0  0
M  END
>  <DRUGBANK_ID>
DB02898

>  <SECONDARY_ACCESSION_NUMBERS>
EXPT03189

>  <COMMON_NAME>
(5R)-5-{[(2-Amino-3H-purin-6-yl)oxy]methyl}-2-pyrrolidinone

$$$$
