
 OpenBabel10282417123D

 33 32  0  0  1  0  0  0  0  0999 V2000
   -1.0470    2.3684   -1.8857 C   0  0  0  0  0  0  0  0  0  0  0  0
   -1.4689    1.2132   -0.9836 C   0  0  2  0  0  0  0  0  0  0  0  0
   -0.9743    1.4597    0.3849 N   0  0  0  0  0  0  0  0  0  0  0  0
   -0.9271   -0.1469   -1.4699 C   0  0  2  0  0  0  0  0  0  0  0  0
    0.5471   -0.2009   -1.4287 N   0  0  0  0  0  0  0  0  0  0  0  0
   -1.4269   -0.4986   -2.8805 C   0  0  0  0  0  0  0  0  0  0  0  0
   -0.9769   -1.8946   -3.3056 C   0  0  0  0  0  0  0  0  0  0  0  0
   -1.5111   -2.9676   -2.3527 C   0  0  0  0  0  0  0  0  0  0  0  0
   -3.0429   -3.0448   -2.3766 C   0  0  0  0  0  0  0  0  0  0  0  0
   -3.5926   -3.3439   -3.7724 C   0  0  0  0  0  0  0  0  0  0  0  0
   -3.0663   -4.6600   -4.3051 C   0  0  0  0  0  0  0  0  0  0  0  0
   -4.0156   -5.5792   -4.5580 O   0  0  0  0  0  0  0  0  0  0  0  0
   -1.8811   -4.9017   -4.5067 O   0  0  0  0  0  0  0  0  0  0  0  0
   -1.6156    3.2643   -1.6268 H   0  0  0  0  0  0  0  0  0  0  0  0
   -1.2336    2.1665   -2.9438 H   0  0  0  0  0  0  0  0  0  0  0  0
    0.0209    2.5863   -1.7785 H   0  0  0  0  0  0  0  0  0  0  0  0
   -2.5646    1.1609   -0.9486 H   0  0  0  0  0  0  0  0  0  0  0  0
   -1.2576    2.3928    0.6754 H   0  0  0  0  0  0  0  0  0  0  0  0
    0.0437    1.5002    0.3400 H   0  0  0  0  0  0  0  0  0  0  0  0
   -1.3088   -0.8846   -0.7529 H   0  0  0  0  0  0  0  0  0  0  0  0
    0.8462   -1.1629   -1.5890 H   0  0  0  0  0  0  0  0  0  0  0  0
    0.8475   -0.0001   -0.4792 H   0  0  0  0  0  0  0  0  0  0  0  0
   -2.5219   -0.4181   -2.9155 H   0  0  0  0  0  0  0  0  0  0  0  0
   -1.0617    0.2125   -3.6272 H   0  0  0  0  0  0  0  0  0  0  0  0
   -1.2943   -2.0745   -4.3376 H   0  0  0  0  0  0  0  0  0  0  0  0
    0.1157   -1.9458   -3.3473 H   0  0  0  0  0  0  0  0  0  0  0  0
   -1.0629   -3.9306   -2.6039 H   0  0  0  0  0  0  0  0  0  0  0  0
   -1.1710   -2.7973   -1.3267 H   0  0  0  0  0  0  0  0  0  0  0  0
   -3.3769   -3.8067   -1.6647 H   0  0  0  0  0  0  0  0  0  0  0  0
   -3.4720   -2.1004   -2.0146 H   0  0  0  0  0  0  0  0  0  0  0  0
   -4.6865   -3.3422   -3.7401 H   0  0  0  0  0  0  0  0  0  0  0  0
   -3.3289   -2.5586   -4.4901 H   0  0  0  0  0  0  0  0  0  0  0  0
   -4.9286   -5.2770   -4.4083 H   0  0  0  0  0  0  0  0  0  0  0  0
  1 14  1  0  0  0  0
  1 15  1  0  0  0  0
  1 16  1  0  0  0  0
  2 17  1  1  0  0  0
  2  3  1  0  0  0  0
  2  1  1  0  0  0  0
  3 18  1  0  0  0  0
  3 19  1  0  0  0  0
  4  6  1  0  0  0  0
  4 20  1  1  0  0  0
  4  5  1  0  0  0  0
  4  2  1  0  0  0  0
  5 21  1  0  0  0  0
  5 22  1  0  0  0  0
  6  7  1  0  0  0  0
  6 23  1  0  0  0  0
  6 24  1  0  0  0  0
  7  8  1  0  0  0  0
  7 25  1  0  0  0  0
  7 26  1  0  0  0  0
  8  9  1  0  0  0  0
  8 27  1  0  0  0  0
  8 28  1  0  0  0  0
  9 10  1  0  0  0  0
  9 29  1  0  0  0  0
  9 30  1  0  0  0  0
 10 11  1  0  0  0  0
 10 31  1  0  0  0  0
 10 32  1  0  0  0  0
 11 12  1  0  0  0  0
 11 13  2  0  0  0  0
 12 33  1  0  0  0  0
M  END
>  <DRUGBANK_ID>
DB01715

>  <SECONDARY_ACCESSION_NUMBERS>
EXPT01237

>  <COMMON_NAME>
7,8-Diamino-Nonanoic Acid

>  <UNII>
KZX7WEN2ZL

$$$$
