438
 OpenBabel10282417103D

 59 62  0  0  1  0  0  0  0  0999 V2000
    1.7831    1.0184    0.8872 S   0  0  0  0  0  0  0  0  0  0  0  0
   -5.0467    6.5640   -3.3254 S   0  0  0  0  0  0  0  0  0  0  0  0
   -2.6715   -0.2768    0.9680 O   0  0  0  0  0  0  0  0  0  0  0  0
   -2.0823   -2.8109   -0.3898 O   0  5  0  0  0  0  0  0  0  0  0  0
   -0.1612   -3.9680   -0.9123 O   0  0  0  0  0  0  0  0  0  0  0  0
   -2.2495    4.9593    0.4983 O   0  0  0  0  0  0  0  0  0  0  0  0
   -2.3528    1.5882   -2.2611 O   0  0  0  0  0  0  0  0  0  0  0  0
   -0.9925   -0.0496   -1.6654 O   0  0  0  0  0  0  0  0  0  0  0  0
   -1.0692   -1.7552   -2.9854 O   0  0  0  0  0  0  0  0  0  0  0  0
   -0.3694   -0.3645    0.4883 N   0  0  0  0  0  0  0  0  0  0  0  0
   -1.3616    2.9258    0.6387 N   0  0  0  0  0  0  0  0  0  0  0  0
    1.4111   -3.7920    1.6108 N   0  3  0  0  0  0  0  0  0  0  0  0
   -2.8369    2.8357   -2.5784 N   0  0  0  0  0  0  0  0  0  0  0  0
   -2.8640    6.2769   -1.9997 N   0  0  0  0  0  0  0  0  0  0  0  0
   -3.3184    8.4706   -2.6419 N   0  0  0  0  0  0  0  0  0  0  0  0
    0.2953    0.9092   -0.0454 C   0  0  1  0  0  0  0  0  0  0  0  0
   -1.0515    1.5926    0.2053 C   0  0  1  0  0  0  0  0  0  0  0  0
   -1.5960    0.2217    0.7289 C   0  0  0  0  0  0  0  0  0  0  0  0
    0.1227   -1.6348    0.1221 C   0  0  0  0  0  0  0  0  0  0  0  0
    1.4549   -1.7592    0.1500 C   0  0  0  0  0  0  0  0  0  0  0  0
    2.4035   -0.5690    0.1510 C   0  0  0  0  0  0  0  0  0  0  0  0
    2.0093   -3.1468    0.3430 C   0  0  0  0  0  0  0  0  0  0  0  0
   -0.8529   -2.9481   -0.6044 C   0  0  0  0  0  0  0  0  0  0  0  0
   -2.0955    3.8942   -0.1134 C   0  0  0  0  0  0  0  0  0  0  0  0
   -2.7432    3.7747   -1.6376 C   0  0  0  0  0  0  0  0  0  0  0  0
    0.0830   -3.9581    1.8306 C   0  0  0  0  0  0  0  0  0  0  0  0
    2.2285   -4.2357    2.5824 C   0  0  0  0  0  0  0  0  0  0  0  0
   -3.4230    5.0075   -2.1206 C   0  0  0  0  0  0  0  0  0  0  0  0
   -0.5141   -4.4847    2.9304 C   0  0  0  0  0  0  0  0  0  0  0  0
    1.6793   -4.8705    3.7108 C   0  0  0  0  0  0  0  0  0  0  0  0
    0.3001   -4.9513    3.9063 C   0  0  0  0  0  0  0  0  0  0  0  0
   -2.2717    0.4950   -3.2267 C   0  0  0  0  0  0  0  0  0  0  0  0
   -4.6282    4.9893   -2.8095 C   0  0  0  0  0  0  0  0  0  0  0  0
   -3.6083   -0.1473   -3.2006 C   0  0  0  0  0  0  0  0  0  0  0  0
   -1.2757    0.8062   -4.3011 C   0  0  0  0  0  0  0  0  0  0  0  0
   -1.4807   -0.6327   -2.6740 C   0  0  0  0  0  0  0  0  0  0  0  0
   -3.6213    7.1701   -2.5875 C   0  0  0  0  0  0  0  0  0  0  0  0
    0.5932    0.9520   -1.1241 H   0  0  0  0  0  0  0  0  0  0  0  0
   -0.9600   -0.7645   -1.0392 H   0  0  0  0  0  0  0  0  0  0  0  0
   -1.0555    3.2201    1.5577 H   0  0  0  0  0  0  0  0  0  0  0  0
   -3.9228    9.1445   -3.0900 H   0  0  0  0  0  0  0  0  0  0  0  0
   -2.4943    8.8114   -2.1650 H   0  0  0  0  0  0  0  0  0  0  0  0
   -1.4423    1.7823   -0.7467 H   0  0  0  0  0  0  0  0  0  0  0  0
    2.7176   -0.3928   -0.8919 H   0  0  0  0  0  0  0  0  0  0  0  0
    3.2711   -0.7907    0.7576 H   0  0  0  0  0  0  0  0  0  0  0  0
    1.9499   -3.8205   -0.5162 H   0  0  0  0  0  0  0  0  0  0  0  0
    3.0888   -3.0446    0.5159 H   0  0  0  0  0  0  0  0  0  0  0  0
   -0.6871   -3.6594    1.1783 H   0  0  0  0  0  0  0  0  0  0  0  0
    3.2918   -4.0750    2.4552 H   0  0  0  0  0  0  0  0  0  0  0  0
   -1.6043   -4.5122    2.9447 H   0  0  0  0  0  0  0  0  0  0  0  0
    2.3300   -5.3176    4.4486 H   0  0  0  0  0  0  0  0  0  0  0  0
   -0.1678   -5.3697    4.7873 H   0  0  0  0  0  0  0  0  0  0  0  0
   -5.2476    4.1340   -3.0426 H   0  0  0  0  0  0  0  0  0  0  0  0
   -4.3054    0.5538   -3.6320 H   0  0  0  0  0  0  0  0  0  0  0  0
   -3.5903   -1.1274   -3.6785 H   0  0  0  0  0  0  0  0  0  0  0  0
   -3.9047   -0.3099   -2.1409 H   0  0  0  0  0  0  0  0  0  0  0  0
   -0.3124    1.1244   -3.8407 H   0  0  0  0  0  0  0  0  0  0  0  0
   -1.0386   -0.0898   -4.8887 H   0  0  0  0  0  0  0  0  0  0  0  0
   -1.6441    1.6276   -4.8868 H   0  0  0  0  0  0  0  0  0  0  0  0
  1 16  1  0  0  0  0
  1 21  1  0  0  0  0
  2 33  1  0  0  0  0
  2 37  1  0  0  0  0
  3 18  2  0  0  0  0
  4 23  1  0  0  0  0
  5 23  2  0  0  0  0
  6 24  2  0  0  0  0
  7 13  1  0  0  0  0
  7 32  1  0  0  0  0
  8 36  1  0  0  0  0
  8 39  1  0  0  0  0
  9 36  2  0  0  0  0
 10 16  1  0  0  0  0
 10 18  1  0  0  0  0
 10 19  1  0  0  0  0
 11 24  1  0  0  0  0
 11 40  1  0  0  0  0
 12 22  1  0  0  0  0
 12 26  2  0  0  0  0
 12 27  1  0  0  0  0
 13 25  2  0  0  0  0
 14 28  1  0  0  0  0
 14 37  2  0  0  0  0
 15 37  1  0  0  0  0
 15 41  1  0  0  0  0
 15 42  1  0  0  0  0
 16 17  1  0  0  0  0
 16 38  1  6  0  0  0
 17 11  1  0  0  0  0
 17 18  1  0  0  0  0
 17 43  1  6  0  0  0
 19 20  2  0  0  0  0
 19 23  1  0  0  0  0
 20 21  1  0  0  0  0
 20 22  1  0  0  0  0
 21 44  1  0  0  0  0
 21 45  1  0  0  0  0
 22 46  1  0  0  0  0
 22 47  1  0  0  0  0
 24 25  1  0  0  0  0
 25 28  1  0  0  0  0
 26 29  1  0  0  0  0
 26 48  1  0  0  0  0
 27 30  2  0  0  0  0
 27 49  1  0  0  0  0
 28 33  2  0  0  0  0
 29 31  2  0  0  0  0
 29 50  1  0  0  0  0
 30 31  1  0  0  0  0
 30 51  1  0  0  0  0
 31 52  1  0  0  0  0
 32 34  1  0  0  0  0
 32 35  1  0  0  0  0
 32 36  1  0  0  0  0
 33 53  1  0  0  0  0
 34 54  1  0  0  0  0
 34 55  1  0  0  0  0
 34 56  1  0  0  0  0
 35 57  1  0  0  0  0
 35 58  1  0  0  0  0
 35 59  1  0  0  0  0
M  CHG  2   4  -1  12   1
M  END
>  <DRUGBANK_ID>
DB00438

>  <SECONDARY_ACCESSION_NUMBERS>
APRD00857

>  <COMMON_NAME>
Ceftazidime

>  <CAS_NUMBER>
72558-82-8

>  <UNII>
DZR1ENT301

>  <SYNONYMS>
CAZ; Ceftazidim; Ceftazidima; Ceftazidime; Ceftazidime anhydrous; Ceftazidimum

$$$$
