75V
 OpenBabel10282417163D

 48 48  0  0  0  0  0  0  0  0999 V2000
    5.4565    1.4996    3.7455 C   0  0  0  0  0  0  0  0  0  0  0  0
    4.7318    0.9077    4.5272 O   0  0  0  0  0  0  0  0  0  0  0  0
    5.8975    2.7807    3.9477 O   0  0  0  0  0  0  0  0  0  0  0  0
    5.3259    3.4933    5.0902 C   0  0  0  0  0  0  0  0  0  0  0  0
    3.8311    3.7480    4.9261 C   0  0  0  0  0  0  0  0  0  0  0  0
    8.2977   -0.1971    1.2774 C   0  0  0  0  0  0  0  0  0  0  0  0
    7.4767    0.9517    1.9421 C   0  0  2  0  0  0  0  0  0  0  0  0
    6.0034    0.7465    2.5298 C   0  0  2  0  0  0  0  0  0  0  0  0
    6.2746    1.4225    1.3098 O   0  0  0  0  0  0  0  0  0  0  0  0
    7.7052   -1.1442    0.7506 O   0  0  0  0  0  0  0  0  0  0  0  0
    9.7253   -0.3621    1.6179 N   0  0  0  0  0  0  0  0  0  0  0  0
   10.5559    0.2988    2.9089 C   0  0  2  0  0  0  0  0  0  0  0  0
    9.8027    0.9874    4.2382 C   0  0  0  0  0  0  0  0  0  0  0  0
   10.2793    1.9520    4.8488 O   0  0  0  0  0  0  0  0  0  0  0  0
   11.3567    1.4360    2.3402 C   0  0  2  0  0  0  0  0  0  0  0  0
   11.7622    1.1380    0.9041 C   0  0  0  0  0  0  0  0  0  0  0  0
   12.5748    1.8314    3.1941 C   0  0  0  0  0  0  0  0  0  0  0  0
   11.9488    2.4491    0.2081 C   0  0  0  0  0  0  0  0  0  0  0  0
    8.6144    0.5514    4.7598 N   0  0  0  0  0  0  0  0  0  0  0  0
    7.9322   -0.7228    4.5207 C   0  0  2  0  0  0  0  0  0  0  0  0
    7.6315   -1.7632    5.4958 C   0  0  0  0  0  0  0  0  0  0  0  0
    6.4511   -2.3623    5.2414 O   0  0  0  0  0  0  0  0  0  0  0  0
    8.7595   -1.5885    3.6564 C   0  0  0  0  0  0  0  0  0  0  0  0
    8.5016   -2.2005    6.2769 O   0  0  0  0  0  0  0  0  0  0  0  0
    8.0915    1.6914    2.4239 H   0  0  0  0  0  0  0  0  0  0  0  0
    5.5172   -0.2258    2.4520 H   0  0  0  0  0  0  0  0  0  0  0  0
   11.2569   -0.4827    3.2918 H   0  0  0  0  0  0  0  0  0  0  0  0
   10.6416    2.2653    2.3402 H   0  0  0  0  0  0  0  0  0  0  0  0
    7.0300   -0.4629    3.9927 H   0  0  0  0  0  0  0  0  0  0  0  0
    5.5378    2.9766    6.0375 H   0  0  0  0  0  0  0  0  0  0  0  0
    5.8354    4.4642    5.1473 H   0  0  0  0  0  0  0  0  0  0  0  0
    3.2600    2.8154    4.9243 H   0  0  0  0  0  0  0  0  0  0  0  0
    3.4352    4.3686    5.7378 H   0  0  0  0  0  0  0  0  0  0  0  0
    3.6362    4.2441    3.9716 H   0  0  0  0  0  0  0  0  0  0  0  0
   10.0928   -1.2948    1.3665 H   0  0  0  0  0  0  0  0  0  0  0  0
   12.6188    0.4569    0.8691 H   0  0  0  0  0  0  0  0  0  0  0  0
   10.9800    0.6614    0.3107 H   0  0  0  0  0  0  0  0  0  0  0  0
   12.9652    2.7884    2.8419 H   0  0  0  0  0  0  0  0  0  0  0  0
   12.3679    1.9795    4.2564 H   0  0  0  0  0  0  0  0  0  0  0  0
   13.3630    1.0750    3.1506 H   0  0  0  0  0  0  0  0  0  0  0  0
   12.7523    3.0173    0.6706 H   0  0  0  0  0  0  0  0  0  0  0  0
   12.1572    2.2612   -0.8416 H   0  0  0  0  0  0  0  0  0  0  0  0
   11.0141    3.0210    0.2851 H   0  0  0  0  0  0  0  0  0  0  0  0
    8.1736    1.2708    5.3316 H   0  0  0  0  0  0  0  0  0  0  0  0
    5.9218   -1.9588    4.5132 H   0  0  0  0  0  0  0  0  0  0  0  0
    8.3527   -2.2938    2.9374 H   0  0  0  0  0  0  0  0  0  0  0  0
    8.8135   -0.7392    3.0915 H   0  0  0  0  0  0  0  0  0  0  0  0
    9.7789   -1.8095    3.9709 H   0  0  0  0  0  0  0  0  0  0  0  0
  1  2  2  0  0  0  0
  1  3  1  0  0  0  0
  3  4  1  0  0  0  0
  4  5  1  0  0  0  0
  4 30  1  0  0  0  0
  4 31  1  0  0  0  0
  5 32  1  0  0  0  0
  5 33  1  0  0  0  0
  5 34  1  0  0  0  0
  6 10  2  0  0  0  0
  6 11  1  0  0  0  0
  7  8  1  0  0  0  0
  7  9  1  0  0  0  0
  7 25  1  1  0  0  0
  7  6  1  0  0  0  0
  8  1  1  0  0  0  0
  8  9  1  0  0  0  0
  8 26  1  6  0  0  0
 11 35  1  0  0  0  0
 12 27  1  1  0  0  0
 12 13  1  0  0  0  0
 12 11  1  0  0  0  0
 13 14  2  0  0  0  0
 13 19  1  0  0  0  0
 15 17  1  0  0  0  0
 15 28  1  6  0  0  0
 15 16  1  0  0  0  0
 15 12  1  0  0  0  0
 16 18  1  0  0  0  0
 16 36  1  0  0  0  0
 16 37  1  0  0  0  0
 17 38  1  0  0  0  0
 17 39  1  0  0  0  0
 17 40  1  0  0  0  0
 18 41  1  0  0  0  0
 18 42  1  0  0  0  0
 18 43  1  0  0  0  0
 19 44  1  0  0  0  0
 20 23  1  0  0  0  0
 20 29  1  6  0  0  0
 20 21  1  0  0  0  0
 20 19  1  0  0  0  0
 21 22  1  0  0  0  0
 21 24  2  0  0  0  0
 22 45  1  0  0  0  0
 23 46  1  0  0  0  0
 23 47  1  0  0  0  0
 23 48  1  0  0  0  0
M  END
>  <DRUGBANK_ID>
DB07224

>  <COMMON_NAME>
N-{[(2S,3S)-3-(ETHOXYCARBONYL)OXIRAN-2-YL]CARBONYL}-L-ISOLEUCYL-L-ALANINE

$$$$
