
 OpenBabel10282417113D

140147  0  0  0  0  0  0  0  0999 V2000
    0.9201    1.9008    1.1288 N   0  0  0  0  0  0  0  0  0  0  0  0
    1.4416    1.9845    3.0226 C   0  0  0  0  0  0  0  0  0  0  0  0
    3.5312    4.6620    3.0938 N   0  0  0  0  0  0  0  0  0  0  0  0
    3.4671    4.8835    1.6802 C   0  0  0  0  0  0  0  0  0  0  0  0
    4.5839    3.6430   -0.1111 N   0  0  0  0  0  0  0  0  0  0  0  0
    2.1827    3.7959    3.7422 C   0  0  1  0  0  0  0  0  0  0  0  0
    1.3542    0.5152    0.0181 C   0  0  2  0  0  0  0  0  0  0  0  0
    4.2633    0.4090    0.0650 N   0  0  0  0  0  0  0  0  0  0  0  0
    6.9532   -1.0392    2.6369 C   0  0  1  0  0  0  0  0  0  0  0  0
    5.2808    2.5193    0.0200 C   0  0  0  0  0  0  0  0  0  0  0  0
    3.0584    0.6855   -0.6524 C   0  0  0  0  0  0  0  0  0  0  0  0
    5.6543   -1.3794    2.1135 C   0  0  0  0  0  0  0  0  0  0  0  0
    7.2333    1.4150    0.3725 C   0  0  0  0  0  0  0  0  0  0  0  0
    7.3801   -2.6983    4.2719 C   0  0  0  0  0  0  0  0  0  0  0  0
    4.9836   -0.2679    1.8824 N   0  0  0  0  0  0  0  0  0  0  0  0
    7.3773   -2.3388    2.9549 N   0  0  0  0  0  0  0  0  0  0  0  0
    4.6715    4.8075    0.7822 C   0  0  1  0  0  0  0  0  0  0  0  0
    7.9064   -4.0514    4.5413 C   0  0  0  0  0  0  0  0  0  0  0  0
    7.9435    0.9371    1.3949 O   0  0  0  0  0  0  0  0  0  0  0  0
   -0.9388    1.7882    0.4274 C   0  0  0  0  0  0  0  0  0  0  0  0
    5.8024    0.3002   -0.3451 C   0  0  2  0  0  0  0  0  0  0  0  0
    0.3851   -1.1662    0.0427 C   0  0  0  0  0  0  0  0  0  0  0  0
   -1.5177    0.3177   -0.3218 C   0  0  2  0  0  0  0  0  0  0  0  0
   -1.0291   -0.8711    0.3940 C   0  0  0  0  0  0  0  0  0  0  0  0
    5.5150    1.4476    1.6822 C   0  0  2  0  0  0  0  0  0  0  0  0
    7.9633   -0.3947    1.7097 C   0  0  2  0  0  0  0  0  0  0  0  0
   -1.2639   -5.4055   -1.6806 N   0  0  3  0  0  0  0  0  0  0  0  0
    7.2564   -4.7930    5.4754 N   0  0  0  0  0  0  0  0  0  0  0  0
   -1.4806   -2.9508   -1.8803 C   0  0  2  0  0  0  0  0  0  0  0  0
   -2.3036   -1.4273   -2.5323 S   0  0  0  0  0  0  0  0  0  0  0  0
    1.6517    1.2042    4.0670 O   0  0  0  0  0  0  0  0  0  0  0  0
    0.9308    4.3701    3.3529 C   0  0  0  0  0  0  0  0  0  0  0  0
    2.4178    4.8615    1.0073 O   0  0  0  0  0  0  0  0  0  0  0  0
   -1.4718    0.0811   -1.8140 C   0  0  0  0  0  0  0  0  0  0  0  0
    5.8809    2.3468   -1.0761 O   0  0  0  0  0  0  0  0  0  0  0  0
   -1.9698   -4.2701   -2.4066 C   0  0  0  0  0  0  0  0  0  0  0  0
    5.1995   -2.4478    1.7212 O   0  0  0  0  0  0  0  0  0  0  0  0
    3.1308    0.2396   -1.7766 O   0  0  0  0  0  0  0  0  0  0  0  0
    7.2638    2.6549    0.6018 O   0  0  0  0  0  0  0  0  0  0  0  0
    9.0219   -4.4897    3.8246 C   0  0  0  0  0  0  0  0  0  0  0  0
    7.0380   -1.9207    5.1541 O   0  0  0  0  0  0  0  0  0  0  0  0
    2.1662    0.0068    1.7669 C   0  0  0  0  0  0  0  0  0  0  0  0
   -1.6760   -3.3262   -0.4104 C   0  0  3  0  0  0  0  0  0  0  0  0
    2.5358   -1.0401    0.1455 N   0  0  0  0  0  0  0  0  0  0  0  0
   -1.7592   -1.4388    1.1872 O   0  0  0  0  0  0  0  0  0  0  0  0
    5.7032    0.1814   -1.8159 C   0  0  0  0  0  0  0  0  0  0  0  0
    0.3488    0.5152    2.1659 C   0  0  0  0  0  0  0  0  0  0  0  0
    2.8416    1.3730    1.5989 C   0  0  0  0  0  0  0  0  0  0  0  0
   -1.1302   -4.6041    0.4903 C   0  0  0  0  0  0  0  0  0  0  0  0
   -0.2805   -3.3919   -0.2855 C   0  0  0  0  0  0  0  0  0  0  0  0
   -1.6674   -5.6778   -0.2757 C   0  0  0  0  0  0  0  0  0  0  0  0
    0.1465   -4.8413   -1.4577 C   0  0  0  0  0  0  0  0  0  0  0  0
    4.1147    3.9497   -1.4445 C   0  0  0  0  0  0  0  0  0  0  0  0
    4.8668    4.9021    3.8514 C   0  0  0  0  0  0  0  0  0  0  0  0
    0.8643    3.5387    2.1573 C   0  0  0  0  0  0  0  0  0  0  0  0
    2.4753    2.8471    1.7266 C   0  0  0  0  0  0  0  0  0  0  0  0
   -0.3380    2.2895    2.5067 C   0  0  0  0  0  0  0  0  0  0  0  0
    4.3613    5.9506   -0.1464 C   0  0  0  0  0  0  0  0  0  0  0  0
    9.6758   -3.6545    2.9593 O   0  0  0  0  0  0  0  0  0  0  0  0
    4.9072    2.2816    2.6294 C   0  0  0  0  0  0  0  0  0  0  0  0
    4.4230    5.4034   -1.5593 C   0  0  0  0  0  0  0  0  0  0  0  0
    8.3062   -1.0725    0.4263 C   0  0  0  0  0  0  0  0  0  0  0  0
    7.7163   -6.0455    5.6609 C   0  0  0  0  0  0  0  0  0  0  0  0
    3.7366   -1.8668   -0.4709 C   0  0  0  0  0  0  0  0  0  0  0  0
    1.6250   -0.8237   -1.6169 C   0  0  0  0  0  0  0  0  0  0  0  0
    9.4372   -5.7967    4.0145 C   0  0  0  0  0  0  0  0  0  0  0  0
    6.8228   -0.1242   -2.4030 C   0  0  0  0  0  0  0  0  0  0  0  0
    4.7856    0.6849   -2.7388 C   0  0  0  0  0  0  0  0  0  0  0  0
    4.3665    1.5066    3.8047 C   0  0  0  0  0  0  0  0  0  0  0  0
    8.7620   -6.5943    4.9360 C   0  0  0  0  0  0  0  0  0  0  0  0
    4.3775   -0.1923   -3.6966 C   0  0  0  0  0  0  0  0  0  0  0  0
    6.7109   -0.2605   -3.7480 C   0  0  0  0  0  0  0  0  0  0  0  0
    5.4756   -0.3405   -4.4113 C   0  0  0  0  0  0  0  0  0  0  0  0
   -2.5557    0.2383   -0.0025 H   0  0  0  0  0  0  0  0  0  0  0  0
    5.5945    4.8654    1.3483 H   0  0  0  0  0  0  0  0  0  0  0  0
    1.0404   -0.6522    0.9139 H   0  0  0  0  0  0  0  0  0  0  0  0
    2.2079    4.4035    4.7021 H   0  0  0  0  0  0  0  0  0  0  0  0
    4.0558    0.2872    1.2113 H   0  0  0  0  0  0  0  0  0  0  0  0
    6.6613   -0.4067    3.4825 H   0  0  0  0  0  0  0  0  0  0  0  0
    4.3609   -0.8559    1.1018 H   0  0  0  0  0  0  0  0  0  0  0  0
    7.4979   -2.9942    2.1846 H   0  0  0  0  0  0  0  0  0  0  0  0
   -1.5195    1.3612    1.3240 H   0  0  0  0  0  0  0  0  0  0  0  0
   -1.2731    2.5485   -0.2457 H   0  0  0  0  0  0  0  0  0  0  0  0
    6.0251   -0.6808    0.0435 H   0  0  0  0  0  0  0  0  0  0  0  0
    0.2465   -1.7102   -0.9150 H   0  0  0  0  0  0  0  0  0  0  0  0
    1.2102   -2.0280    0.3026 H   0  0  0  0  0  0  0  0  0  0  0  0
    6.3651    1.5027    2.3510 H   0  0  0  0  0  0  0  0  0  0  0  0
    8.8324   -0.2999    2.3395 H   0  0  0  0  0  0  0  0  0  0  0  0
   -0.4160   -2.8434   -2.2328 H   0  0  0  0  0  0  0  0  0  0  0  0
    0.2404    3.9299    4.0725 H   0  0  0  0  0  0  0  0  0  0  0  0
    0.8909    5.2794    2.8242 H   0  0  0  0  0  0  0  0  0  0  0  0
   -1.9105    0.9695   -2.2260 H   0  0  0  0  0  0  0  0  0  0  0  0
   -0.5553    0.1572   -2.3669 H   0  0  0  0  0  0  0  0  0  0  0  0
   -1.7281   -4.2865   -3.4718 H   0  0  0  0  0  0  0  0  0  0  0  0
   -3.0423   -4.2934   -2.2404 H   0  0  0  0  0  0  0  0  0  0  0  0
   -2.6282   -3.0356    0.0407 H   0  0  0  0  0  0  0  0  0  0  0  0
   -0.0064    0.5346    0.9110 H   0  0  0  0  0  0  0  0  0  0  0  0
    3.6999    1.6238    1.1267 H   0  0  0  0  0  0  0  0  0  0  0  0
    0.1201   -4.8658    0.6011 H   0  0  0  0  0  0  0  0  0  0  0  0
   -1.2588   -4.4248    1.5678 H   0  0  0  0  0  0  0  0  0  0  0  0
   -0.4355   -3.0808    1.0062 H   0  0  0  0  0  0  0  0  0  0  0  0
    0.3621   -3.0497    0.4493 H   0  0  0  0  0  0  0  0  0  0  0  0
   -2.7078   -5.5898   -0.0234 H   0  0  0  0  0  0  0  0  0  0  0  0
   -1.0856   -6.4686    0.1917 H   0  0  0  0  0  0  0  0  0  0  0  0
    0.6550   -5.7745   -1.1498 H   0  0  0  0  0  0  0  0  0  0  0  0
    0.3962   -4.7970   -2.5556 H   0  0  0  0  0  0  0  0  0  0  0  0
    4.5473    3.3621   -2.2755 H   0  0  0  0  0  0  0  0  0  0  0  0
    3.0616    3.6710   -1.4036 H   0  0  0  0  0  0  0  0  0  0  0  0
    5.7586    4.2705    3.6416 H   0  0  0  0  0  0  0  0  0  0  0  0
    5.2535    5.8498    3.4832 H   0  0  0  0  0  0  0  0  0  0  0  0
    4.8038    4.8279    4.9322 H   0  0  0  0  0  0  0  0  0  0  0  0
    3.0735    2.7116    2.6943 H   0  0  0  0  0  0  0  0  0  0  0  0
   -0.8357    3.0867    1.7330 H   0  0  0  0  0  0  0  0  0  0  0  0
    3.3605    6.3639    0.0392 H   0  0  0  0  0  0  0  0  0  0  0  0
    5.0683    6.7385    0.0542 H   0  0  0  0  0  0  0  0  0  0  0  0
   10.4577   -4.0790    2.5749 H   0  0  0  0  0  0  0  0  0  0  0  0
    5.1594    3.2704    2.7046 H   0  0  0  0  0  0  0  0  0  0  0  0
    4.4241    2.8086    1.8305 H   0  0  0  0  0  0  0  0  0  0  0  0
    3.7111    5.8760   -2.2265 H   0  0  0  0  0  0  0  0  0  0  0  0
    5.4374    5.5479   -1.9372 H   0  0  0  0  0  0  0  0  0  0  0  0
    8.9776   -0.4404   -0.1624 H   0  0  0  0  0  0  0  0  0  0  0  0
    8.6439   -2.0585    0.6306 H   0  0  0  0  0  0  0  0  0  0  0  0
    7.5022   -1.2604   -0.2591 H   0  0  0  0  0  0  0  0  0  0  0  0
    7.2200   -6.6362    6.4266 H   0  0  0  0  0  0  0  0  0  0  0  0
    3.5968   -2.8757   -0.2191 H   0  0  0  0  0  0  0  0  0  0  0  0
    4.1652   -1.5829   -1.4606 H   0  0  0  0  0  0  0  0  0  0  0  0
    4.6804   -1.7525   -0.0556 H   0  0  0  0  0  0  0  0  0  0  0  0
    0.6467   -0.3619   -1.5260 H   0  0  0  0  0  0  0  0  0  0  0  0
    1.5111    0.2218   -2.2590 H   0  0  0  0  0  0  0  0  0  0  0  0
    1.7681   -1.6530   -2.2923 H   0  0  0  0  0  0  0  0  0  0  0  0
   10.2648   -6.2167    3.4577 H   0  0  0  0  0  0  0  0  0  0  0  0
    7.6871    0.0489   -1.8023 H   0  0  0  0  0  0  0  0  0  0  0  0
    4.0731    1.4613   -2.4298 H   0  0  0  0  0  0  0  0  0  0  0  0
    5.1714    1.2186    4.4435 H   0  0  0  0  0  0  0  0  0  0  0  0
    3.7811    2.1977    4.3823 H   0  0  0  0  0  0  0  0  0  0  0  0
    3.7592    0.5863    3.6071 H   0  0  0  0  0  0  0  0  0  0  0  0
    9.0441   -7.6288    5.0957 H   0  0  0  0  0  0  0  0  0  0  0  0
    3.3572   -0.4169   -4.0255 H   0  0  0  0  0  0  0  0  0  0  0  0
    7.6268   -0.2321   -4.2576 H   0  0  0  0  0  0  0  0  0  0  0  0
    5.3456   -0.3355   -5.4672 H   0  0  0  0  0  0  0  0  0  0  0  0
  2  1  1  0  0  0  0
  3  6  1  0  0  0  0
  4  3  1  0  0  0  0
  5 17  1  0  0  0  0
  6  2  1  0  0  0  0
  6 77  1  1  0  0  0
  6 32  1  0  0  0  0
  7  1  1  0  0  0  0
  7 11  1  0  0  0  0
  7 76  1  1  0  0  0
  8 11  1  0  0  0  0
  8 78  1  0  0  0  0
  9 26  1  0  0  0  0
  9 16  1  0  0  0  0
  9 79  1  1  0  0  0
 10  5  1  0  0  0  0
 12  9  1  0  0  0  0
 12 15  1  0  0  0  0
 13 21  1  0  0  0  0
 14 16  1  0  0  0  0
 15 25  1  0  0  0  0
 15 80  1  0  0  0  0
 16 81  1  0  0  0  0
 17  4  1  0  0  0  0
 17 75  1  1  0  0  0
 18 14  1  0  0  0  0
 19 13  1  0  0  0  0
 20  1  1  0  0  0  0
 20 82  1  0  0  0  0
 20 83  1  0  0  0  0
 21  8  1  0  0  0  0
 21 84  1  1  0  0  0
 21 46  1  0  0  0  0
 22  7  1  0  0  0  0
 22 85  1  0  0  0  0
 22 86  1  0  0  0  0
 23 20  1  0  0  0  0
 23 74  1  1  0  0  0
 24 23  1  0  0  0  0
 24 22  1  0  0  0  0
 25 10  1  0  0  0  0
 25 60  1  0  0  0  0
 25 87  1  1  0  0  0
 26 19  1  0  0  0  0
 26 62  1  0  0  0  0
 26 88  1  1  0  0  0
 27 36  1  0  0  0  0
 28 18  2  0  0  0  0
 29 30  1  0  0  0  0
 29 89  1  6  0  0  0
 30 34  1  0  0  0  0
 31  2  2  0  0  0  0
 32 90  1  0  0  0  0
 32 91  1  0  0  0  0
 33  4  2  0  0  0  0
 34 23  1  0  0  0  0
 34 92  1  0  0  0  0
 34 93  1  0  0  0  0
 35 10  2  0  0  0  0
 36 29  1  0  0  0  0
 36 94  1  0  0  0  0
 36 95  1  0  0  0  0
 37 12  2  0  0  0  0
 38 11  2  0  0  0  0
 39 13  2  0  0  0  0
 40 18  1  0  0  0  0
 41 14  2  0  0  0  0
 42 47  2  0  0  0  0
 42 48  1  0  0  0  0
 43 29  1  0  0  0  0
 43 96  1  0  0  0  0
 44 42  1  0  0  0  0
 45 24  2  0  0  0  0
 47 57  1  0  0  0  0
 47 97  1  0  0  0  0
 48 56  2  0  0  0  0
 48 98  1  0  0  0  0
 49 43  1  0  0  0  0
 49 99  1  0  0  0  0
 49100  1  0  0  0  0
 50 43  1  0  0  0  0
 50101  1  0  0  0  0
 50102  1  0  0  0  0
 51 49  1  0  0  0  0
 51 27  1  0  0  0  0
 51103  1  0  0  0  0
 51104  1  0  0  0  0
 52 50  1  0  0  0  0
 52 27  1  0  0  0  0
 52105  1  0  0  0  0
 52106  1  0  0  0  0
 53  5  1  0  0  0  0
 53107  1  0  0  0  0
 53108  1  0  0  0  0
 54  3  1  0  0  0  0
 54109  1  0  0  0  0
 54110  1  0  0  0  0
 54111  1  0  0  0  0
 55 32  1  0  0  0  0
 56 55  1  0  0  0  0
 56112  1  0  0  0  0
 57 55  2  0  0  0  0
 57113  1  0  0  0  0
 58 17  1  0  0  0  0
 58114  1  0  0  0  0
 58115  1  0  0  0  0
 59 40  1  0  0  0  0
 59116  1  0  0  0  0
 60117  1  0  0  0  0
 60118  1  0  0  0  0
 61 58  1  0  0  0  0
 61 53  1  0  0  0  0
 61119  1  0  0  0  0
 61120  1  0  0  0  0
 62121  1  0  0  0  0
 62122  1  0  0  0  0
 62123  1  0  0  0  0
 63 28  1  0  0  0  0
 63124  1  0  0  0  0
 64 44  1  0  0  0  0
 64125  1  0  0  0  0
 64126  1  0  0  0  0
 64127  1  0  0  0  0
 65 44  1  0  0  0  0
 65128  1  0  0  0  0
 65129  1  0  0  0  0
 65130  1  0  0  0  0
 66 40  2  0  0  0  0
 66131  1  0  0  0  0
 67 46  1  0  0  0  0
 67132  1  0  0  0  0
 68 46  2  0  0  0  0
 68133  1  0  0  0  0
 69 60  1  0  0  0  0
 69134  1  0  0  0  0
 69135  1  0  0  0  0
 69136  1  0  0  0  0
 70 66  1  0  0  0  0
 70 63  2  0  0  0  0
 70137  1  0  0  0  0
 71 68  1  0  0  0  0
 71138  1  0  0  0  0
 72 67  2  0  0  0  0
 72139  1  0  0  0  0
 73 71  2  0  0  0  0
 73 72  1  0  0  0  0
 73140  1  0  0  0  0
M  END
>  <DRUGBANK_ID>
DB01369

>  <COMMON_NAME>
Quinupristin

>  <CAS_NUMBER>
120138-50-3

>  <UNII>
23OW28RS7P

>  <SYNONYMS>
Quinupristin

$$$$
