
 OpenBabel10282417183D

 64 63  0  0  0  0  0  0  0  0999 V2000
    0.8505   -0.5883    0.4415 C   0  0  0  0  0  0  0  0  0  0  0  0
    0.4495   -0.8093   -0.9916 C   0  0  0  0  0  0  0  0  0  0  0  0
    1.2606   -1.5504   -1.8461 O   0  0  0  0  0  0  0  0  0  0  0  0
    2.6427   -1.1479   -1.7434 C   0  0  0  0  0  0  0  0  0  0  0  0
    3.1613    0.3586   -1.7203 C   0  0  0  0  0  0  0  0  0  0  0  0
    2.2912    1.7475   -0.5570 P   0  0  0  0  0  0  0  0  0  0  0  0
    3.3063    3.6186   -1.4021 C   0  0  0  0  0  0  0  0  0  0  0  0
    2.9481    4.4393   -2.6242 C   0  0  0  0  0  0  0  0  0  0  0  0
    1.5218    4.5602   -2.6296 O   0  0  0  0  0  0  0  0  0  0  0  0
    0.8731    3.2844   -2.3590 C   0  0  0  0  0  0  0  0  0  0  0  0
    1.0637    1.6914   -3.0526 C   0  0  0  0  0  0  0  0  0  0  0  0
   -0.0685    1.7004   -1.1077 C   0  0  0  0  0  0  0  0  0  0  0  0
   -0.9907    1.2161   -2.8033 C   0  0  0  0  0  0  0  0  0  0  0  0
   -0.1504   -0.2080   -4.5267 P   0  0  0  0  0  0  0  0  0  0  0  0
   -0.3067    0.6838   -6.2916 C   0  0  0  0  0  0  0  0  0  0  0  0
    0.1480    1.9284   -7.1703 C   0  0  0  0  0  0  0  0  0  0  0  0
    1.5015    2.6061   -7.4570 O   0  0  0  0  0  0  0  0  0  0  0  0
    2.3064    3.1737   -6.4032 C   0  0  0  0  0  0  0  0  0  0  0  0
    2.2358    4.6619   -5.5207 C   0  0  0  0  0  0  0  0  0  0  0  0
    2.1119   -0.1533   -4.8070 C   0  0  0  0  0  0  0  0  0  0  0  0
    3.0303    1.2376   -4.8242 C   0  0  0  0  0  0  0  0  0  0  0  0
    2.2257    2.7007   -4.3163 O   0  0  0  0  0  0  0  0  0  0  0  0
    0.4926    3.2786   -4.5945 C   0  0  0  0  0  0  0  0  0  0  0  0
   -0.1681    4.1313   -5.5678 C   0  0  0  0  0  0  0  0  0  0  0  0
    0.5268   -1.4384    0.9811 H   0  0  0  0  0  0  0  0  0  0  0  0
    0.4769    0.3474    0.8986 H   0  0  0  0  0  0  0  0  0  0  0  0
    1.9353   -0.4760    0.5122 H   0  0  0  0  0  0  0  0  0  0  0  0
   -0.6080   -0.7164   -1.2940 H   0  0  0  0  0  0  0  0  0  0  0  0
    0.8531    0.0834   -1.2900 H   0  0  0  0  0  0  0  0  0  0  0  0
    2.9919   -1.5967   -0.8329 H   0  0  0  0  0  0  0  0  0  0  0  0
    3.0915   -1.7161   -2.5658 H   0  0  0  0  0  0  0  0  0  0  0  0
    4.2541    0.4251   -1.8395 H   0  0  0  0  0  0  0  0  0  0  0  0
    3.0951    0.8105   -2.6439 H   0  0  0  0  0  0  0  0  0  0  0  0
    2.9527    4.2995   -0.6351 H   0  0  0  0  0  0  0  0  0  0  0  0
    4.3601    3.3601   -1.5023 H   0  0  0  0  0  0  0  0  0  0  0  0
    3.2840    5.4889   -2.9061 H   0  0  0  0  0  0  0  0  0  0  0  0
    3.5780    3.9832   -3.4228 H   0  0  0  0  0  0  0  0  0  0  0  0
    1.3697    3.1550   -1.6485 H   0  0  0  0  0  0  0  0  0  0  0  0
   -0.2476    3.5442   -2.1655 H   0  0  0  0  0  0  0  0  0  0  0  0
    1.9202    1.2724   -3.3155 H   0  0  0  0  0  0  0  0  0  0  0  0
    0.8214    0.7245   -2.6658 H   0  0  0  0  0  0  0  0  0  0  0  0
    0.8129    1.5344   -4.0608 H   0  0  0  0  0  0  0  0  0  0  0  0
   -0.6170    1.1187   -0.3689 H   0  0  0  0  0  0  0  0  0  0  0  0
   -0.3197    2.6670   -0.6234 H   0  0  0  0  0  0  0  0  0  0  0  0
   -2.0219    0.8848   -2.6314 H   0  0  0  0  0  0  0  0  0  0  0  0
   -1.2974    2.1478   -3.3204 H   0  0  0  0  0  0  0  0  0  0  0  0
    0.0231   -0.1620   -6.8828 H   0  0  0  0  0  0  0  0  0  0  0  0
   -1.4000    0.7980   -6.2119 H   0  0  0  0  0  0  0  0  0  0  0  0
   -0.2146    1.9880   -8.1954 H   0  0  0  0  0  0  0  0  0  0  0  0
   -0.6952    2.5775   -6.8974 H   0  0  0  0  0  0  0  0  0  0  0  0
    1.9138    2.2936   -5.9086 H   0  0  0  0  0  0  0  0  0  0  0  0
    3.3986    3.0082   -6.3697 H   0  0  0  0  0  0  0  0  0  0  0  0
    1.4371    5.2212   -4.9867 H   0  0  0  0  0  0  0  0  0  0  0  0
    2.4299    4.4117   -4.5241 H   0  0  0  0  0  0  0  0  0  0  0  0
    2.9763    5.3925   -5.7063 H   0  0  0  0  0  0  0  0  0  0  0  0
    2.3848   -0.6764   -3.9163 H   0  0  0  0  0  0  0  0  0  0  0  0
    2.4976   -0.9065   -5.5383 H   0  0  0  0  0  0  0  0  0  0  0  0
    4.0270    1.2720   -4.2597 H   0  0  0  0  0  0  0  0  0  0  0  0
    3.5016    1.2987   -5.8191 H   0  0  0  0  0  0  0  0  0  0  0  0
   -0.2249    2.4788   -4.6100 H   0  0  0  0  0  0  0  0  0  0  0  0
    0.1535    4.0443   -3.8953 H   0  0  0  0  0  0  0  0  0  0  0  0
    0.3125    3.5254   -6.2101 H   0  0  0  0  0  0  0  0  0  0  0  0
   -1.2348    4.0228   -5.4374 H   0  0  0  0  0  0  0  0  0  0  0  0
    0.1522    5.0367   -6.0441 H   0  0  0  0  0  0  0  0  0  0  0  0
  1  2  1  0  0  0  0
  1 25  1  0  0  0  0
  1 26  1  0  0  0  0
  1 27  1  0  0  0  0
  2  3  1  0  0  0  0
  2 28  1  0  0  0  0
  2 29  1  0  0  0  0
  3  4  1  0  0  0  0
  4  5  1  0  0  0  0
  4 30  1  0  0  0  0
  4 31  1  0  0  0  0
  5  6  1  0  0  0  0
  5 32  1  0  0  0  0
  5 33  1  0  0  0  0
  6  7  1  0  0  0  0
  6 12  1  0  0  0  0
  7  8  1  0  0  0  0
  7 34  1  0  0  0  0
  7 35  1  0  0  0  0
  8  9  1  0  0  0  0
  8 36  1  0  0  0  0
  8 37  1  0  0  0  0
  9 10  1  0  0  0  0
 10 11  1  0  0  0  0
 10 38  1  0  0  0  0
 10 39  1  0  0  0  0
 11 40  1  0  0  0  0
 11 41  1  0  0  0  0
 11 42  1  0  0  0  0
 12 13  1  0  0  0  0
 12 43  1  0  0  0  0
 12 44  1  0  0  0  0
 13 14  1  0  0  0  0
 13 45  1  0  0  0  0
 13 46  1  0  0  0  0
 14 15  1  0  0  0  0
 14 20  1  0  0  0  0
 15 16  1  0  0  0  0
 15 47  1  0  0  0  0
 15 48  1  0  0  0  0
 16 17  1  0  0  0  0
 16 49  1  0  0  0  0
 16 50  1  0  0  0  0
 17 18  1  0  0  0  0
 18 19  1  0  0  0  0
 18 51  1  0  0  0  0
 18 52  1  0  0  0  0
 19 53  1  0  0  0  0
 19 54  1  0  0  0  0
 19 55  1  0  0  0  0
 20 21  1  0  0  0  0
 20 56  1  0  0  0  0
 20 57  1  0  0  0  0
 21 22  1  0  0  0  0
 21 58  1  0  0  0  0
 21 59  1  0  0  0  0
 22 23  1  0  0  0  0
 23 24  1  0  0  0  0
 23 60  1  0  0  0  0
 23 61  1  0  0  0  0
 24 62  1  0  0  0  0
 24 63  1  0  0  0  0
 24 64  1  0  0  0  0
M  END
>  <DRUGBANK_ID>
DB11180

>  <COMMON_NAME>
Tetrofosmin

>  <CAS_NUMBER>
127502-06-1

>  <UNII>
3J0KPB596Q

>  <SYNONYMS>
Tetrofosmin; Tetrofosmina

$$$$
