
 OpenBabel10282417243D

 72 75  0  0  1  0  0  0  0  0999 V2000
   -0.2984   -0.4367   -0.1888 C   0  0  0  0  0  0  0  0  0  0  0  0
    0.0898   -1.4338    1.1091 C   0  0  0  0  0  0  0  0  0  0  0  0
    1.0680   -1.4446    2.3596 C   0  0  0  0  0  0  0  0  0  0  0  0
    1.7438   -0.4207    2.8676 C   0  0  0  0  0  0  0  0  0  0  0  0
    2.0106   -0.1857    4.1672 C   0  0  0  0  0  0  0  0  0  0  0  0
    1.9164   -1.0423    5.1711 C   0  0  0  0  0  0  0  0  0  0  0  0
    1.7499   -2.2896    4.6217 C   0  0  0  0  0  0  0  0  0  0  0  0
    1.3039   -2.4890    3.2376 C   0  0  0  0  0  0  0  0  0  0  0  0
    2.0906   -0.2684    6.4908 C   0  0  0  0  0  0  0  0  0  0  0  0
    1.0830   -0.7718    7.5606 C   0  0  0  0  0  0  0  0  0  0  0  0
    0.8608   -2.2770    7.4872 C   0  0  0  0  0  0  0  0  0  0  0  0
    3.5757   -0.6357    6.7924 C   0  0  0  0  0  0  0  0  0  0  0  0
    4.5689   -0.0225    5.7883 C   0  0  0  0  0  0  0  0  0  0  0  0
    1.9241    1.4275    6.4405 N   0  0  0  0  0  0  0  0  0  0  0  0
    1.5639    2.5637    5.5364 C   0  0  0  0  0  0  0  0  0  0  0  0
    1.8648    3.6519    5.9399 O   0  0  0  0  0  0  0  0  0  0  0  0
    0.8749    2.4159    4.0980 C   0  0  0  0  0  0  0  0  0  0  0  0
   -0.3105    1.5098    3.7257 C   0  0  0  0  0  0  0  0  0  0  0  0
   -1.0233    0.3273    4.5708 C   0  0  0  0  0  0  0  0  0  0  0  0
   -0.4335    1.4715    2.3676 N   0  0  0  0  0  0  0  0  0  0  0  0
    0.7697    1.9570    1.8514 N   0  0  0  0  0  0  0  0  0  0  0  0
    1.4953    2.7130    2.8015 C   0  0  0  0  0  0  0  0  0  0  0  0
    2.6917    3.2275    2.2969 N   0  0  0  0  0  0  0  0  0  0  0  0
    2.8253    3.3922    0.8144 C   0  0  2  0  0  0  0  0  0  0  0  0
    2.7746    2.0464    0.1854 C   0  0  0  0  0  0  0  0  0  0  0  0
    1.4202    1.4265    0.4684 C   0  0  0  0  0  0  0  0  0  0  0  0
    0.3911    2.2789   -0.4108 C   0  0  0  0  0  0  0  0  0  0  0  0
    2.2107   -0.2192    0.0021 C   0  0  0  0  0  0  0  0  0  0  0  0
    4.0057    4.0495    0.1606 C   0  0  0  0  0  0  0  0  0  0  0  0
    3.9985    4.2333   -1.2570 C   0  0  0  0  0  0  0  0  0  0  0  0
    5.0291    4.9017   -1.8972 C   0  0  0  0  0  0  0  0  0  0  0  0
    6.0461    5.4379   -1.1213 C   0  0  0  0  0  0  0  0  0  0  0  0
    6.0507    5.2651    0.2666 C   0  0  0  0  0  0  0  0  0  0  0  0
    5.0739    4.5108    0.8977 C   0  0  0  0  0  0  0  0  0  0  0  0
   -0.8893    0.3597    0.2294 H   0  0  0  0  0  0  0  0  0  0  0  0
   -0.8633   -0.8627   -1.0198 H   0  0  0  0  0  0  0  0  0  0  0  0
    0.4367    0.0383   -0.8739 H   0  0  0  0  0  0  0  0  0  0  0  0
   -0.8977   -1.4511    1.5676 H   0  0  0  0  0  0  0  0  0  0  0  0
    0.3190   -2.3879    0.6470 H   0  0  0  0  0  0  0  0  0  0  0  0
    1.6887    0.5166    2.4544 H   0  0  0  0  0  0  0  0  0  0  0  0
    1.6829    0.7127    4.5538 H   0  0  0  0  0  0  0  0  0  0  0  0
    1.8356   -3.1738    5.2353 H   0  0  0  0  0  0  0  0  0  0  0  0
    1.1449   -3.4813    2.8683 H   0  0  0  0  0  0  0  0  0  0  0  0
    1.4060   -0.4946    8.5721 H   0  0  0  0  0  0  0  0  0  0  0  0
    0.1113   -0.2789    7.4168 H   0  0  0  0  0  0  0  0  0  0  0  0
    1.8203   -2.8051    7.4878 H   0  0  0  0  0  0  0  0  0  0  0  0
    0.2461   -2.6651    8.2950 H   0  0  0  0  0  0  0  0  0  0  0  0
    0.3079   -2.5247    6.5753 H   0  0  0  0  0  0  0  0  0  0  0  0
    3.8729   -0.3921    7.8156 H   0  0  0  0  0  0  0  0  0  0  0  0
    3.6789   -1.7279    6.7006 H   0  0  0  0  0  0  0  0  0  0  0  0
    4.5967    1.0654    5.8791 H   0  0  0  0  0  0  0  0  0  0  0  0
    5.5654   -0.4399    5.9349 H   0  0  0  0  0  0  0  0  0  0  0  0
    4.3351   -0.2509    4.7430 H   0  0  0  0  0  0  0  0  0  0  0  0
    2.3129    1.8470    7.2890 H   0  0  0  0  0  0  0  0  0  0  0  0
   -0.3386   -0.2396    5.2078 H   0  0  0  0  0  0  0  0  0  0  0  0
   -1.8046    0.6304    5.2745 H   0  0  0  0  0  0  0  0  0  0  0  0
   -1.4299   -0.4867    3.9353 H   0  0  0  0  0  0  0  0  0  0  0  0
    3.3217    3.7726    2.8726 H   0  0  0  0  0  0  0  0  0  0  0  0
    2.0032    4.0255    0.4973 H   0  0  0  0  0  0  0  0  0  0  0  0
    2.8556    2.0310   -0.9182 H   0  0  0  0  0  0  0  0  0  0  0  0
    3.6483    1.4350    0.4908 H   0  0  0  0  0  0  0  0  0  0  0  0
    0.5499    2.2661   -1.4833 H   0  0  0  0  0  0  0  0  0  0  0  0
   -0.6694    2.0853   -0.2060 H   0  0  0  0  0  0  0  0  0  0  0  0
    0.3817    3.3272   -0.0752 H   0  0  0  0  0  0  0  0  0  0  0  0
    2.9239   -0.6558    0.7251 H   0  0  0  0  0  0  0  0  0  0  0  0
    1.6684   -1.1393   -0.2894 H   0  0  0  0  0  0  0  0  0  0  0  0
    2.7298   -0.1502   -0.9728 H   0  0  0  0  0  0  0  0  0  0  0  0
    3.1884    3.8481   -1.8825 H   0  0  0  0  0  0  0  0  0  0  0  0
    5.0190    5.0267   -2.9775 H   0  0  0  0  0  0  0  0  0  0  0  0
    6.8475    5.9934   -1.5947 H   0  0  0  0  0  0  0  0  0  0  0  0
    6.8141    5.7326    0.8765 H   0  0  0  0  0  0  0  0  0  0  0  0
    5.1363    4.3050    1.9584 H   0  0  0  0  0  0  0  0  0  0  0  0
  1  2  1  0  0  0  0
  1 35  1  0  0  0  0
  1 36  1  0  0  0  0
  1 37  1  0  0  0  0
  2  3  1  0  0  0  0
  2 38  1  0  0  0  0
  2 39  1  0  0  0  0
  3  4  2  0  0  0  0
  3  8  1  0  0  0  0
  4  5  1  0  0  0  0
  4 40  1  0  0  0  0
  5  6  2  0  0  0  0
  5 41  1  0  0  0  0
  6  7  1  0  0  0  0
  6  9  1  0  0  0  0
  7  8  2  0  0  0  0
  7 42  1  0  0  0  0
  8 43  1  0  0  0  0
  9 10  1  0  0  0  0
  9 12  1  0  0  0  0
  9 14  1  0  0  0  0
 10 11  1  0  0  0  0
 10 44  1  0  0  0  0
 10 45  1  0  0  0  0
 11 46  1  0  0  0  0
 11 47  1  0  0  0  0
 11 48  1  0  0  0  0
 12 13  1  0  0  0  0
 12 49  1  0  0  0  0
 12 50  1  0  0  0  0
 13 51  1  0  0  0  0
 13 52  1  0  0  0  0
 13 53  1  0  0  0  0
 14 15  1  0  0  0  0
 14 54  1  0  0  0  0
 15 16  2  0  0  0  0
 15 17  1  0  0  0  0
 17 18  1  0  0  0  0
 17 22  2  0  0  0  0
 18 19  1  0  0  0  0
 18 20  2  0  0  0  0
 19 55  1  0  0  0  0
 19 56  1  0  0  0  0
 19 57  1  0  0  0  0
 20 21  1  0  0  0  0
 21 22  1  0  0  0  0
 21 26  1  0  0  0  0
 22 23  1  0  0  0  0
 23 58  1  0  0  0  0
 24 23  1  0  0  0  0
 24 25  1  0  0  0  0
 24 29  1  0  0  0  0
 24 59  1  6  0  0  0
 25 26  1  0  0  0  0
 25 60  1  0  0  0  0
 25 61  1  0  0  0  0
 26 27  1  0  0  0  0
 26 28  1  0  0  0  0
 27 62  1  0  0  0  0
 27 63  1  0  0  0  0
 27 64  1  0  0  0  0
 28 65  1  0  0  0  0
 28 66  1  0  0  0  0
 28 67  1  0  0  0  0
 29 30  2  0  0  0  0
 29 34  1  0  0  0  0
 30 31  1  0  0  0  0
 30 68  1  0  0  0  0
 31 32  2  0  0  0  0
 31 69  1  0  0  0  0
 32 33  1  0  0  0  0
 32 70  1  0  0  0  0
 33 34  2  0  0  0  0
 33 71  1  0  0  0  0
 34 72  1  0  0  0  0
M  END
>  <DRUGBANK_ID>
DB18268

>  <COMMON_NAME>
TAK-075 Free base

>  <CAS_NUMBER>
667931-25-1

>  <UNII>
4B002AUC52

>  <SYNONYMS>
Pyrazolo(1,5-a)pyrimidine-3-carboxamide, n-(1-ethyl-1-(4-ethylphenyl)propyl)-4,5,6,7-tetrahydro-2,7,7-trimethyl-5-phenyl-, (5r)-

$$$$
