F77
 OpenBabel10282417163D

 39 40  0  0  0  0  0  0  0  0999 V2000
    1.0704   -0.1675    0.0103 C   0  0  0  0  0  0  0  0  0  0  0  0
    0.6011    0.4156   -1.3007 C   0  0  0  0  0  0  0  0  0  0  0  0
    0.7086    1.9274   -1.3999 C   0  0  0  0  0  0  0  0  0  0  0  0
    1.2789    2.7192   -0.3971 C   0  0  0  0  0  0  0  0  0  0  0  0
    1.4362    4.1041   -0.5620 C   0  0  0  0  0  0  0  0  0  0  0  0
    0.9515    4.7579   -1.7097 C   0  0  0  0  0  0  0  0  0  0  0  0
    0.1081    4.0008   -2.5478 C   0  0  0  0  0  0  0  0  0  0  0  0
    0.1303    2.5732   -2.5052 C   0  0  0  0  0  0  0  0  0  0  0  0
   -0.2750    1.6990   -3.6740 C   0  0  0  0  0  0  0  0  0  0  0  0
   -0.9078    4.6706   -3.4181 C   0  0  0  0  0  0  0  0  0  0  0  0
   -1.5513    4.1945   -4.3122 O   0  0  0  0  0  0  0  0  0  0  0  0
   -0.9979    5.9712   -3.1006 O   0  0  0  0  0  0  0  0  0  0  0  0
    1.6258    6.0187   -2.0436 N   0  0  0  0  0  0  0  0  0  0  0  0
    1.5621    6.9587   -3.4985 S   0  0  0  0  0  0  0  0  0  0  0  0
    0.4565    7.8918   -3.3690 O   0  0  0  0  0  0  0  0  0  0  0  0
    2.8903    7.5077   -3.6870 O   0  0  0  0  0  0  0  0  0  0  0  0
    1.1841    5.8713   -5.0041 C   0  0  0  0  0  0  0  0  0  0  0  0
    1.6088    4.5362   -5.0047 C   0  0  0  0  0  0  0  0  0  0  0  0
    1.0310    3.6040   -5.9009 C   0  0  0  0  0  0  0  0  0  0  0  0
    0.0429    3.9699   -6.8042 C   0  0  0  0  0  0  0  0  0  0  0  0
   -0.3643    5.2913   -6.8696 C   0  0  0  0  0  0  0  0  0  0  0  0
    0.1962    6.2458   -5.9724 C   0  0  0  0  0  0  0  0  0  0  0  0
   -0.5893    3.0178   -7.5100 F   0  0  0  0  0  0  0  0  0  0  0  0
    0.7462   -1.2054    0.1097 H   0  0  0  0  0  0  0  0  0  0  0  0
    0.6478    0.3904    0.8502 H   0  0  0  0  0  0  0  0  0  0  0  0
    2.1620   -0.1268    0.0602 H   0  0  0  0  0  0  0  0  0  0  0  0
   -0.4583    0.1468   -1.4131 H   0  0  0  0  0  0  0  0  0  0  0  0
    1.1538   -0.0621   -2.1241 H   0  0  0  0  0  0  0  0  0  0  0  0
    1.6565    2.2669    0.5176 H   0  0  0  0  0  0  0  0  0  0  0  0
    1.9715    4.6307    0.2279 H   0  0  0  0  0  0  0  0  0  0  0  0
   -1.1125    2.0737   -4.2490 H   0  0  0  0  0  0  0  0  0  0  0  0
    0.6056    1.5450   -4.3001 H   0  0  0  0  0  0  0  0  0  0  0  0
   -0.5671    0.6845   -3.4048 H   0  0  0  0  0  0  0  0  0  0  0  0
   -1.0472    6.5402   -3.9031 H   0  0  0  0  0  0  0  0  0  0  0  0
    1.7897    6.6184   -1.2235 H   0  0  0  0  0  0  0  0  0  0  0  0
    2.2235    4.1539   -4.1932 H   0  0  0  0  0  0  0  0  0  0  0  0
    1.2284    2.5416   -5.8205 H   0  0  0  0  0  0  0  0  0  0  0  0
   -1.1932    5.5278   -7.5378 H   0  0  0  0  0  0  0  0  0  0  0  0
   -0.2725    7.2288   -5.9740 H   0  0  0  0  0  0  0  0  0  0  0  0
  1  2  1  0  0  0  0
  1 24  1  0  0  0  0
  1 25  1  0  0  0  0
  1 26  1  0  0  0  0
  2  3  1  0  0  0  0
  2 27  1  0  0  0  0
  2 28  1  0  0  0  0
  3  4  2  0  0  0  0
  3  8  1  0  0  0  0
  4  5  1  0  0  0  0
  4 29  1  0  0  0  0
  5  6  2  0  0  0  0
  5 30  1  0  0  0  0
  6  7  1  0  0  0  0
  6 13  1  0  0  0  0
  7  8  2  0  0  0  0
  7 10  1  0  0  0  0
  8  9  1  0  0  0  0
  9 31  1  0  0  0  0
  9 32  1  0  0  0  0
  9 33  1  0  0  0  0
 10 11  2  0  0  0  0
 10 12  1  0  0  0  0
 12 34  1  0  0  0  0
 13 14  1  0  0  0  0
 13 35  1  0  0  0  0
 14 15  2  0  0  0  0
 14 16  2  0  0  0  0
 14 17  1  0  0  0  0
 17 18  2  0  0  0  0
 17 22  1  0  0  0  0
 18 19  1  0  0  0  0
 18 36  1  0  0  0  0
 19 20  2  0  0  0  0
 19 37  1  0  0  0  0
 20 21  1  0  0  0  0
 20 23  1  0  0  0  0
 21 22  2  0  0  0  0
 21 38  1  0  0  0  0
 22 39  1  0  0  0  0
M  END
>  <DRUGBANK_ID>
DB07746

>  <COMMON_NAME>
3-ETHYL-6-{[(4-FLUOROPHENYL)SULFONYL]AMINO}-2-METHYLBENZOIC ACID

$$$$
