
 OpenBabel10282417123D

 22 21  0  0  1  0  0  0  0  0999 V2000
    1.1267    0.0099   -0.0839 C   0  0  0  0  0  0  0  0  0  0  0  0
    1.0525    1.4650    1.9753 C   0  0  0  0  0  0  0  0  0  0  0  0
    0.5353    0.1583    1.3248 C   0  0  1  0  0  0  0  0  0  0  0  0
    0.5511    2.7172    1.2958 C   0  0  0  0  0  0  0  0  0  0  0  0
   -1.0119    0.0910    1.3354 C   0  0  1  0  0  0  0  0  0  0  0  0
   -1.5730   -1.2079    0.7216 C   0  0  0  0  0  0  0  0  0  0  0  0
   -1.4824    0.2081    2.7394 N   0  0  0  0  0  0  0  0  0  0  0  0
   -0.2032    3.5538    1.7721 O   0  0  0  0  0  0  0  0  0  0  0  0
    1.0060    2.8564    0.0365 O   0  0  0  0  0  0  0  0  0  0  0  0
   -2.2137   -2.0670    1.3107 O   0  0  0  0  0  0  0  0  0  0  0  0
   -1.3194   -1.3333   -0.5956 O   0  0  0  0  0  0  0  0  0  0  0  0
    0.9235   -0.6841    1.9173 H   0  0  0  0  0  0  0  0  0  0  0  0
   -1.4408    0.9286    0.7745 H   0  0  0  0  0  0  0  0  0  0  0  0
    0.7042    0.7457   -0.7729 H   0  0  0  0  0  0  0  0  0  0  0  0
    0.9296   -0.9708   -0.5181 H   0  0  0  0  0  0  0  0  0  0  0  0
    2.2145    0.1228   -0.0649 H   0  0  0  0  0  0  0  0  0  0  0  0
    0.7473    1.5144    3.0281 H   0  0  0  0  0  0  0  0  0  0  0  0
    2.1487    1.4871    1.9880 H   0  0  0  0  0  0  0  0  0  0  0  0
   -2.5031    0.1600    2.7470 H   0  0  0  0  0  0  0  0  0  0  0  0
   -1.1864   -0.6242    3.2549 H   0  0  0  0  0  0  0  0  0  0  0  0
    0.5194    3.6170   -0.3424 H   0  0  0  0  0  0  0  0  0  0  0  0
   -1.6168   -2.2320   -0.8461 H   0  0  0  0  0  0  0  0  0  0  0  0
  1 14  1  0  0  0  0
  1 15  1  0  0  0  0
  1 16  1  0  0  0  0
  2 17  1  0  0  0  0
  2 18  1  0  0  0  0
  3  1  1  0  0  0  0
  3  2  1  0  0  0  0
  3 12  1  1  0  0  0
  4  2  1  0  0  0  0
  5  3  1  0  0  0  0
  5  7  1  0  0  0  0
  5 13  1  6  0  0  0
  6  5  1  0  0  0  0
  7 19  1  0  0  0  0
  7 20  1  0  0  0  0
  8  4  2  0  0  0  0
  9  4  1  0  0  0  0
  9 21  1  0  0  0  0
 10  6  2  0  0  0  0
 11  6  1  0  0  0  0
 11 22  1  0  0  0  0
M  END
>  <DRUGBANK_ID>
DB01898

>  <SECONDARY_ACCESSION_NUMBERS>
EXPT02151

>  <COMMON_NAME>
(2S,3S)-2-azanyl-3-methyl-pentanedioic acid

>  <SYNONYMS>
(3S)-3-methyl-L-glutamic acid

$$$$
