
 OpenBabel10282417183D

 19 19  0  0  0  0  0  0  0  0999 V2000
    0.8606   -0.1373    0.0099 C   0  0  0  0  0  0  0  0  0  0  0  0
    2.3683    4.5722    1.1192 C   0  0  0  0  0  0  0  0  0  0  0  0
    3.5263    3.9340    1.5633 C   0  0  0  0  0  0  0  0  0  0  0  0
    1.5077    3.9209    0.2282 C   0  0  0  0  0  0  0  0  0  0  0  0
    3.8507    2.6664    1.0862 C   0  0  0  0  0  0  0  0  0  0  0  0
    1.8236    2.6375   -0.2512 C   0  0  0  0  0  0  0  0  0  0  0  0
    3.0327    2.0566    0.1378 C   0  0  0  0  0  0  0  0  0  0  0  0
    0.9206    2.0035   -1.2431 C   0  0  0  0  0  0  0  0  0  0  0  0
    3.4919    0.9268   -0.4755 O   0  0  0  0  0  0  0  0  0  0  0  0
    0.4473    2.7006   -2.1417 O   0  0  0  0  0  0  0  0  0  0  0  0
    0.5866    0.6906   -1.1333 O   0  0  0  0  0  0  0  0  0  0  0  0
    0.3103   -1.0740   -0.1114 H   0  0  0  0  0  0  0  0  0  0  0  0
    0.5545    0.3483    0.9389 H   0  0  0  0  0  0  0  0  0  0  0  0
    1.9041   -0.4404    0.0464 H   0  0  0  0  0  0  0  0  0  0  0  0
    2.1494    5.5850    1.4521 H   0  0  0  0  0  0  0  0  0  0  0  0
    4.2043    4.4430    2.2442 H   0  0  0  0  0  0  0  0  0  0  0  0
    0.6137    4.4368   -0.1213 H   0  0  0  0  0  0  0  0  0  0  0  0
    4.7725    2.1918    1.4079 H   0  0  0  0  0  0  0  0  0  0  0  0
    4.0322    0.4224    0.1552 H   0  0  0  0  0  0  0  0  0  0  0  0
  1 12  1  0  0  0  0
  1 13  1  0  0  0  0
  1 14  1  0  0  0  0
  2 15  1  0  0  0  0
  3  2  2  0  0  0  0
  3 16  1  0  0  0  0
  4  2  1  0  0  0  0
  4 17  1  0  0  0  0
  5  3  1  0  0  0  0
  5 18  1  0  0  0  0
  6  4  2  0  0  0  0
  7  5  2  0  0  0  0
  7  6  1  0  0  0  0
  8  6  1  0  0  0  0
  9  7  1  0  0  0  0
  9 19  1  0  0  0  0
 10  8  2  0  0  0  0
 11  1  1  0  0  0  0
 11  8  1  0  0  0  0
M  END
>  <DRUGBANK_ID>
DB09543

>  <COMMON_NAME>
Methyl salicylate

>  <CAS_NUMBER>
119-36-8

>  <UNII>
LAV5U5022Y

>  <SYNONYMS>
2-(Methoxycarbonyl)phenol; 2-Carbomethoxyphenol; 2-Hydroxybenzoic acid methyl ester; Betula oil; Gaultheria oil; Methyl 2-hydroxybenzoate; Methyl o-hydroxybenzoate; Methyl salicylate; Natural wintergreen oil; Oil of wintergreen; Spicewood Oil; Sweet birch oil; Teaberry oil

$$$$
