
 OpenBabel10282417173D

 44 43  0  0  0  0  0  0  0  0999 V2000
    0.8989   -0.3166    0.1054 C   0  0  0  0  0  0  0  0  0  0  0  0
    0.9112   -1.8005   -1.8030 C   0  0  0  0  0  0  0  0  0  0  0  0
   -1.1551   -0.4811   -1.2922 C   0  0  0  0  0  0  0  0  0  0  0  0
    4.5718    5.3680    0.2300 C   0  0  0  0  0  0  0  0  0  0  0  0
    2.5055    6.7690    0.4273 C   0  0  0  0  0  0  0  0  0  0  0  0
    2.5178    4.5430    1.3702 C   0  0  0  0  0  0  0  0  0  0  0  0
    0.9473    2.5789   -0.7808 C   0  0  0  0  0  0  0  0  0  0  0  0
    2.4695    2.4468   -0.8152 C   0  0  0  0  0  0  0  0  0  0  0  0
    0.3470    2.0212   -2.0550 C   0  0  0  0  0  0  0  0  0  0  0  0
    3.0697    3.5549   -1.6559 C   0  0  0  0  0  0  0  0  0  0  0  0
    0.7959    0.5920   -2.3714 C   0  0  0  0  0  0  0  0  0  0  0  0
    2.6208    4.9571   -1.2354 C   0  0  0  0  0  0  0  0  0  0  0  0
    0.3649   -0.4517   -1.3229 N   0  3  0  0  0  0  0  0  0  0  0  0
    3.0518    5.3572    0.1889 N   0  3  0  0  0  0  0  0  0  0  0  0
    0.7047   -1.2492    0.6446 H   0  0  0  0  0  0  0  0  0  0  0  0
    0.3314    0.4439    0.6478 H   0  0  0  0  0  0  0  0  0  0  0  0
    1.9662   -0.1147    0.0838 H   0  0  0  0  0  0  0  0  0  0  0  0
    0.5673   -2.5707   -1.1071 H   0  0  0  0  0  0  0  0  0  0  0  0
    0.5397   -1.9883   -2.8124 H   0  0  0  0  0  0  0  0  0  0  0  0
    2.0036   -1.7397   -1.7917 H   0  0  0  0  0  0  0  0  0  0  0  0
   -1.5117    0.4910   -0.9351 H   0  0  0  0  0  0  0  0  0  0  0  0
   -1.5126   -0.6676   -2.3053 H   0  0  0  0  0  0  0  0  0  0  0  0
   -1.4737   -1.2603   -0.5972 H   0  0  0  0  0  0  0  0  0  0  0  0
    4.9293    6.0246   -0.5636 H   0  0  0  0  0  0  0  0  0  0  0  0
    4.8905    5.7094    1.2168 H   0  0  0  0  0  0  0  0  0  0  0  0
    4.9285    4.3451    0.0679 H   0  0  0  0  0  0  0  0  0  0  0  0
    1.4131    6.7103    0.4075 H   0  0  0  0  0  0  0  0  0  0  0  0
    2.8495    7.1022    1.4104 H   0  0  0  0  0  0  0  0  0  0  0  0
    2.8770    7.4250   -0.3625 H   0  0  0  0  0  0  0  0  0  0  0  0
    1.4505    4.3772    1.2529 H   0  0  0  0  0  0  0  0  0  0  0  0
    3.0854    3.6145    1.4729 H   0  0  0  0  0  0  0  0  0  0  0  0
    2.7120    5.0944    2.2955 H   0  0  0  0  0  0  0  0  0  0  0  0
    0.5943    3.6049   -0.6682 H   0  0  0  0  0  0  0  0  0  0  0  0
    0.5313    2.1476    0.1223 H   0  0  0  0  0  0  0  0  0  0  0  0
    2.8855    2.3832    0.1836 H   0  0  0  0  0  0  0  0  0  0  0  0
    2.8225    1.4961   -1.2170 H   0  0  0  0  0  0  0  0  0  0  0  0
    0.6515    2.6709   -2.8879 H   0  0  0  0  0  0  0  0  0  0  0  0
   -0.7402    2.1152   -2.0240 H   0  0  0  0  0  0  0  0  0  0  0  0
    4.1570    3.4578   -1.6746 H   0  0  0  0  0  0  0  0  0  0  0  0
    2.7653    3.3937   -2.6998 H   0  0  0  0  0  0  0  0  0  0  0  0
    1.8745    0.5018   -2.5166 H   0  0  0  0  0  0  0  0  0  0  0  0
    0.3530    0.2949   -3.3309 H   0  0  0  0  0  0  0  0  0  0  0  0
    3.0638    5.6842   -1.9283 H   0  0  0  0  0  0  0  0  0  0  0  0
    1.5423    5.1066   -1.3182 H   0  0  0  0  0  0  0  0  0  0  0  0
  1 15  1  0  0  0  0
  1 16  1  0  0  0  0
  1 17  1  0  0  0  0
  2 18  1  0  0  0  0
  2 19  1  0  0  0  0
  2 20  1  0  0  0  0
  3 21  1  0  0  0  0
  3 22  1  0  0  0  0
  3 23  1  0  0  0  0
  4 24  1  0  0  0  0
  4 25  1  0  0  0  0
  4 26  1  0  0  0  0
  5 27  1  0  0  0  0
  5 28  1  0  0  0  0
  5 29  1  0  0  0  0
  6 30  1  0  0  0  0
  6 31  1  0  0  0  0
  6 32  1  0  0  0  0
  7 33  1  0  0  0  0
  7 34  1  0  0  0  0
  8  7  1  0  0  0  0
  8 35  1  0  0  0  0
  8 36  1  0  0  0  0
  9  7  1  0  0  0  0
  9 37  1  0  0  0  0
  9 38  1  0  0  0  0
 10  8  1  0  0  0  0
 10 39  1  0  0  0  0
 10 40  1  0  0  0  0
 11  9  1  0  0  0  0
 11 41  1  0  0  0  0
 11 42  1  0  0  0  0
 12 10  1  0  0  0  0
 12 43  1  0  0  0  0
 12 44  1  0  0  0  0
 13  1  1  0  0  0  0
 13  2  1  0  0  0  0
 13  3  1  0  0  0  0
 13 11  1  0  0  0  0
 14  4  1  0  0  0  0
 14  5  1  0  0  0  0
 14  6  1  0  0  0  0
 14 12  1  0  0  0  0
M  CHG  2  13   1  14   1
M  END
>  <DRUGBANK_ID>
DB08960

>  <COMMON_NAME>
Hexamethonium

>  <CAS_NUMBER>
60-26-4

>  <UNII>
3C9PSP36Z2

>  <SYNONYMS>
N,N,N,N',N',N'-hexamethylhexane-1,6-diaminium

$$$$
