HF1
 OpenBabel10282417163D

 29 29  0  0  0  0  0  0  0  0999 V2000
    1.0033   -0.0682   -0.0731 P   0  0  0  0  0  0  0  0  0  0  0  0
    0.9686    1.3623   -0.6193 O   0  0  0  0  0  0  0  0  0  0  0  0
    0.9848   -1.1450   -1.3020 O   0  0  0  0  0  0  0  0  0  0  0  0
   -0.7267   -0.0682   -0.0731 O   0  0  0  0  0  0  0  0  0  0  0  0
    3.5555   -0.8932    0.6893 C   0  0  0  0  0  0  0  0  0  0  0  0
    5.4625   -0.2624    2.2374 C   0  0  0  0  0  0  0  0  0  0  0  0
    2.4884   -0.0460    3.6831 C   0  0  0  0  0  0  0  0  0  0  0  0
    3.2158   -1.2436    3.7112 C   0  0  0  0  0  0  0  0  0  0  0  0
    2.5031   -2.4558    3.6513 C   0  0  0  0  0  0  0  0  0  0  0  0
    3.1530   -3.6598    3.5604 O   0  0  0  0  0  0  0  0  0  0  0  0
    1.1119   -2.4932    3.5751 C   0  0  0  0  0  0  0  0  0  0  0  0
    0.4008   -1.2929    3.5488 C   0  0  0  0  0  0  0  0  0  0  0  0
    1.0980   -0.0930    3.5949 C   0  0  0  0  0  0  0  0  0  0  0  0
    0.4093    1.0574    3.5010 F   0  0  0  0  0  0  0  0  0  0  0  0
    5.0100   -1.2834    3.7083 S   0  0  0  0  0  0  0  0  0  0  0  0
    5.0382   -0.8291    0.8722 C   0  0  0  0  0  0  0  0  0  0  0  0
    2.8333   -0.0682   -0.0731 C   0  0  0  0  0  0  0  0  0  0  0  0
    1.7132   -1.0093   -1.9384 H   0  0  0  0  0  0  0  0  0  0  0  0
   -1.0677   -0.8484    0.3932 H   0  0  0  0  0  0  0  0  0  0  0  0
    3.0151   -1.6423    1.2498 H   0  0  0  0  0  0  0  0  0  0  0  0
    6.5587   -0.2069    2.2420 H   0  0  0  0  0  0  0  0  0  0  0  0
    5.1030    0.7636    2.3733 H   0  0  0  0  0  0  0  0  0  0  0  0
    2.9820    0.9188    3.6863 H   0  0  0  0  0  0  0  0  0  0  0  0
    4.1091   -3.4623    3.5852 H   0  0  0  0  0  0  0  0  0  0  0  0
    0.5919   -3.4442    3.5150 H   0  0  0  0  0  0  0  0  0  0  0  0
   -0.6829   -1.2937    3.4877 H   0  0  0  0  0  0  0  0  0  0  0  0
    5.4533   -1.8322    0.7272 H   0  0  0  0  0  0  0  0  0  0  0  0
    5.4771   -0.1975    0.0882 H   0  0  0  0  0  0  0  0  0  0  0  0
    3.3094    0.6756   -0.7042 H   0  0  0  0  0  0  0  0  0  0  0  0
  1  2  2  0  0  0  0
  1  3  1  0  0  0  0
  1  4  1  0  0  0  0
  1 17  1  0  0  0  0
  3 18  1  0  0  0  0
  4 19  1  0  0  0  0
  5 16  1  0  0  0  0
  5 17  2  0  0  0  0
  5 20  1  0  0  0  0
  6 15  1  0  0  0  0
  6 16  1  0  0  0  0
  6 21  1  0  0  0  0
  6 22  1  0  0  0  0
  7  8  2  0  0  0  0
  7 13  1  0  0  0  0
  7 23  1  0  0  0  0
  8  9  1  0  0  0  0
  8 15  1  0  0  0  0
  9 10  1  0  0  0  0
  9 11  2  0  0  0  0
 10 24  1  0  0  0  0
 11 12  1  0  0  0  0
 11 25  1  0  0  0  0
 12 13  2  0  0  0  0
 12 26  1  0  0  0  0
 13 14  1  0  0  0  0
 16 27  1  0  0  0  0
 16 28  1  0  0  0  0
 17 29  1  0  0  0  0
M  END
>  <DRUGBANK_ID>
DB07894

>  <COMMON_NAME>
4-(2-HYDROXY-4-FLUOROPHENYLTHIO)-BUTYLPHOSPHONIC ACID

$$$$
