
 OpenBabel10282417103D

 57 60  0  0  0  0  0  0  0  0999 V2000
    1.0003   -1.5119   -0.4604 C   0  0  0  0  0  0  0  0  0  0  0  0
    0.3523   -2.6879   -1.1960 C   0  0  0  0  0  0  0  0  0  0  0  0
   -0.8134   -2.3068   -2.3537 C   0  0  0  0  0  0  0  0  0  0  0  0
   -1.5346   -1.1625   -2.1123 C   0  0  0  0  0  0  0  0  0  0  0  0
   -1.1915   -0.7107   -0.7718 C   0  0  2  0  0  0  0  0  0  0  0  0
    0.3115   -0.5092   -0.9655 C   0  0  0  0  0  0  0  0  0  0  0  0
   -2.5020   -0.2263   -2.7907 C   0  0  2  0  0  0  0  0  0  0  0  0
   -3.3562    0.7586   -1.7856 C   0  0  0  0  0  0  0  0  0  0  0  0
   -2.3666    1.6931   -0.7714 C   0  0  2  0  0  0  0  0  0  0  0  0
   -1.6824    0.5184   -0.0370 C   0  0  2  0  0  0  0  0  0  0  0  0
   -2.9228    3.0640    0.4159 C   0  0  1  0  0  0  0  0  0  0  0  0
   -2.2098    2.4778    1.5192 C   0  0  2  0  0  0  0  0  0  0  0  0
   -1.4118    1.4162    2.1589 C   0  0  0  0  0  0  0  0  0  0  0  0
   -0.6609    0.7246    1.1145 C   0  0  2  0  0  0  0  0  0  0  0  0
   -2.2871    4.2359    2.0005 C   0  0  0  0  0  0  0  0  0  0  0  0
   -2.7793    3.7079    3.3932 C   0  0  2  0  0  0  0  0  0  0  0  0
   -3.6158    2.9411    2.5073 C   0  0  1  0  0  0  0  0  0  0  0  0
    0.5062   -3.8172   -0.7492 O   0  0  0  0  0  0  0  0  0  0  0  0
   -1.8790   -1.9181    0.1310 C   0  0  0  0  0  0  0  0  0  0  0  0
    0.5706    1.3935    0.8904 O   0  0  0  0  0  0  0  0  0  0  0  0
   -1.0125    3.5122    0.4225 C   0  0  0  0  0  0  0  0  0  0  0  0
   -1.7701    2.1631   -1.5581 H   0  0  0  0  0  0  0  0  0  0  0  0
   -2.8253    0.0525    0.5871 F   0  0  0  0  0  0  0  0  0  0  0  0
   -3.9895    2.9253    0.3563 H   0  0  0  0  0  0  0  0  0  0  0  0
   -3.3348   -0.9219   -3.6056 F   0  0  0  0  0  0  0  0  0  0  0  0
   -4.6160    3.9424    1.9603 O   0  0  0  0  0  0  0  0  0  0  0  0
   -3.4604    4.5822    4.4183 C   0  0  0  0  0  0  0  0  0  0  0  0
   -4.5724    1.9604    3.1620 C   0  0  0  0  0  0  0  0  0  0  0  0
   -4.5034    0.5293    2.7688 C   0  0  0  0  0  0  0  0  0  0  0  0
   -5.4271    2.3277    3.9802 O   0  0  0  0  0  0  0  0  0  0  0  0
   -4.0119   -0.3010    3.7952 O   0  0  0  0  0  0  0  0  0  0  0  0
    2.0535   -1.3120   -0.3025 H   0  0  0  0  0  0  0  0  0  0  0  0
   -0.9186   -2.9545   -3.2102 H   0  0  0  0  0  0  0  0  0  0  0  0
    0.7351   -0.2656   -1.9620 H   0  0  0  0  0  0  0  0  0  0  0  0
   -1.9010    0.4306   -3.4325 H   0  0  0  0  0  0  0  0  0  0  0  0
   -4.0006    0.0666   -1.2182 H   0  0  0  0  0  0  0  0  0  0  0  0
   -4.0273    1.3668   -2.3961 H   0  0  0  0  0  0  0  0  0  0  0  0
   -0.7329    1.8049    2.9230 H   0  0  0  0  0  0  0  0  0  0  0  0
   -2.0021    0.6576    2.6689 H   0  0  0  0  0  0  0  0  0  0  0  0
   -0.3653   -0.2294    1.5596 H   0  0  0  0  0  0  0  0  0  0  0  0
   -2.3167    5.3231    1.9387 H   0  0  0  0  0  0  0  0  0  0  0  0
   -1.1996    4.1472    2.2863 H   0  0  0  0  0  0  0  0  0  0  0  0
   -2.0497    3.0835    3.9395 H   0  0  0  0  0  0  0  0  0  0  0  0
   -1.7143   -2.9551   -0.1701 H   0  0  0  0  0  0  0  0  0  0  0  0
   -1.6210   -1.8471    1.1897 H   0  0  0  0  0  0  0  0  0  0  0  0
   -2.9780   -1.8583    0.0376 H   0  0  0  0  0  0  0  0  0  0  0  0
    0.4982    2.0384    0.1797 H   0  0  0  0  0  0  0  0  0  0  0  0
   -0.7098    3.0792   -0.5229 H   0  0  0  0  0  0  0  0  0  0  0  0
   -1.4806    4.4705    0.0383 H   0  0  0  0  0  0  0  0  0  0  0  0
   -0.0959    3.7996    0.9311 H   0  0  0  0  0  0  0  0  0  0  0  0
   -4.1893    4.6798    1.4743 H   0  0  0  0  0  0  0  0  0  0  0  0
   -4.1019    3.9697    5.0664 H   0  0  0  0  0  0  0  0  0  0  0  0
   -2.7339    5.0482    5.0907 H   0  0  0  0  0  0  0  0  0  0  0  0
   -4.0707    5.3559    3.9600 H   0  0  0  0  0  0  0  0  0  0  0  0
   -5.4594    0.1915    2.3713 H   0  0  0  0  0  0  0  0  0  0  0  0
   -3.8503    0.4717    1.9401 H   0  0  0  0  0  0  0  0  0  0  0  0
   -3.1984    0.0974    4.1512 H   0  0  0  0  0  0  0  0  0  0  0  0
  1  2  1  0  0  0  0
  1  6  2  0  0  0  0
  1 32  1  0  0  0  0
  2  3  1  0  0  0  0
  2 18  2  0  0  0  0
  3  4  2  0  0  0  0
  3 33  1  0  0  0  0
  4  5  1  0  0  0  0
  4  7  1  0  0  0  0
  5  6  1  0  0  0  0
  5 10  1  0  0  0  0
  5 19  1  6  0  0  0
  6 34  1  0  0  0  0
  7  8  1  0  0  0  0
  7 25  1  0  0  0  0
  7 35  1  6  0  0  0
  8  9  1  0  0  0  0
  8 36  1  0  0  0  0
  8 37  1  0  0  0  0
  9 10  1  0  0  0  0
  9 11  1  0  0  0  0
  9 22  1  6  0  0  0
 10 14  1  0  0  0  0
 10 23  1  1  0  0  0
 11 12  1  0  0  0  0
 11 15  1  0  0  0  0
 11 24  1  1  0  0  0
 12 13  1  0  0  0  0
 12 17  1  0  0  0  0
 12 21  1  1  0  0  0
 13 14  1  0  0  0  0
 13 38  1  0  0  0  0
 13 39  1  0  0  0  0
 14 20  1  0  0  0  0
 14 40  1  1  0  0  0
 15 16  1  0  0  0  0
 15 41  1  0  0  0  0
 15 42  1  0  0  0  0
 16 17  1  0  0  0  0
 16 27  1  0  0  0  0
 16 43  1  1  0  0  0
 17 26  1  6  0  0  0
 17 28  1  0  0  0  0
 19 44  1  0  0  0  0
 19 45  1  0  0  0  0
 19 46  1  0  0  0  0
 20 47  1  0  0  0  0
 21 48  1  0  0  0  0
 21 49  1  0  0  0  0
 21 50  1  0  0  0  0
 26 51  1  0  0  0  0
 27 52  1  0  0  0  0
 27 53  1  0  0  0  0
 27 54  1  0  0  0  0
 28 29  1  0  0  0  0
 28 30  2  0  0  0  0
 29 31  1  0  0  0  0
 29 55  1  0  0  0  0
 29 56  1  0  0  0  0
 31 57  1  0  0  0  0
M  END
>  <DRUGBANK_ID>
DB00663

>  <SECONDARY_ACCESSION_NUMBERS>
APRD00975

>  <COMMON_NAME>
Flumethasone

>  <CAS_NUMBER>
2135-17-3

>  <UNII>
LR3CD8SX89

>  <SYNONYMS>
6alpha,9-Difluoro-11beta,17,21-trihydroxy-16alpha-methylpregna-1,4-diene-3,20-dione; Flumetasona; Flum√©tasone; Flumetasone; Flumetasonum; Flumethasone

$$$$
