7DE
 OpenBabel10282417123D

 36 37  0  0  0  0  0  0  0  0999 V2000
    1.0657   -0.1109   -0.0926 O   0  0  0  0  0  0  0  0  0  0  0  0
    2.3045   -0.1767   -0.1317 N   0  3  0  0  0  0  0  0  0  0  0  0
    3.0105   -0.8061    0.6660 O   0  5  0  0  0  0  0  0  0  0  0  0
    2.9877    0.6202   -1.1559 C   0  0  0  0  0  0  0  0  0  0  0  0
    2.5432    1.9416   -1.2954 C   0  0  0  0  0  0  0  0  0  0  0  0
    4.0976    0.0999   -1.8941 C   0  0  0  0  0  0  0  0  0  0  0  0
    4.8088    0.9565   -2.7625 C   0  0  0  0  0  0  0  0  0  0  0  0
    4.2996    2.2714   -2.9327 C   0  0  0  0  0  0  0  0  0  0  0  0
    3.1937    2.7600   -2.2054 C   0  0  0  0  0  0  0  0  0  0  0  0
    6.1749    0.6748   -3.2257 N   0  0  0  0  0  0  0  0  0  0  0  0
    7.2715    1.4662   -2.9029 C   0  0  0  0  0  0  0  0  0  0  0  0
    7.2491    2.6357   -1.9902 C   0  0  0  0  0  0  0  0  0  0  0  0
    8.3979    0.9240   -3.5023 C   0  0  0  0  0  0  0  0  0  0  0  0
    7.9232   -0.2145   -4.2018 C   0  0  0  0  0  0  0  0  0  0  0  0
    6.5897   -0.4119   -3.9834 N   0  0  0  0  0  0  0  0  0  0  0  0
    8.8310   -1.1034   -5.0387 C   0  0  0  0  0  0  0  0  0  0  0  0
    9.7663    1.4269   -3.3974 C   0  0  0  0  0  0  0  0  0  0  0  0
   10.7214    0.9609   -4.0187 O   0  0  0  0  0  0  0  0  0  0  0  0
    9.8888    2.4663   -2.5292 O   0  0  0  0  0  0  0  0  0  0  0  0
   11.1965    3.0175   -2.3528 C   0  0  0  0  0  0  0  0  0  0  0  0
   12.1203    2.0294   -1.6655 C   0  0  0  0  0  0  0  0  0  0  0  0
    1.7113    2.3317   -0.7044 H   0  0  0  0  0  0  0  0  0  0  0  0
    4.4157   -0.9254   -1.7280 H   0  0  0  0  0  0  0  0  0  0  0  0
    4.7856    2.9640   -3.6190 H   0  0  0  0  0  0  0  0  0  0  0  0
    2.8618    3.7918   -2.3218 H   0  0  0  0  0  0  0  0  0  0  0  0
    7.9024    2.4264   -1.1364 H   0  0  0  0  0  0  0  0  0  0  0  0
    7.6344    3.5056   -2.5324 H   0  0  0  0  0  0  0  0  0  0  0  0
    6.2819    2.8992   -1.5762 H   0  0  0  0  0  0  0  0  0  0  0  0
    8.8679   -2.1399   -4.6945 H   0  0  0  0  0  0  0  0  0  0  0  0
    8.6113   -1.0606   -6.1104 H   0  0  0  0  0  0  0  0  0  0  0  0
    9.8785   -0.7808   -4.9839 H   0  0  0  0  0  0  0  0  0  0  0  0
   11.5879    3.3610   -3.3160 H   0  0  0  0  0  0  0  0  0  0  0  0
   11.0773    3.9008   -1.7153 H   0  0  0  0  0  0  0  0  0  0  0  0
   12.2610    1.1221   -2.2587 H   0  0  0  0  0  0  0  0  0  0  0  0
   13.1034    2.4731   -1.4988 H   0  0  0  0  0  0  0  0  0  0  0  0
   11.6928    1.7098   -0.7101 H   0  0  0  0  0  0  0  0  0  0  0  0
  1  2  2  0  0  0  0
  2  3  1  0  0  0  0
  2  4  1  0  0  0  0
  4  5  2  0  0  0  0
  4  6  1  0  0  0  0
  5  9  1  0  0  0  0
  5 22  1  0  0  0  0
  6  7  2  0  0  0  0
  6 23  1  0  0  0  0
  7  8  1  0  0  0  0
  7 10  1  0  0  0  0
  8  9  2  0  0  0  0
  8 24  1  0  0  0  0
  9 25  1  0  0  0  0
 10 11  1  0  0  0  0
 10 15  1  0  0  0  0
 11 12  1  0  0  0  0
 11 13  2  0  0  0  0
 12 26  1  0  0  0  0
 12 27  1  0  0  0  0
 12 28  1  0  0  0  0
 13 14  1  0  0  0  0
 13 17  1  0  0  0  0
 14 15  2  0  0  0  0
 14 16  1  0  0  0  0
 16 29  1  0  0  0  0
 16 30  1  0  0  0  0
 16 31  1  0  0  0  0
 17 18  2  0  0  0  0
 17 19  1  0  0  0  0
 19 20  1  0  0  0  0
 20 21  1  0  0  0  0
 20 32  1  0  0  0  0
 20 33  1  0  0  0  0
 21 34  1  0  0  0  0
 21 35  1  0  0  0  0
 21 36  1  0  0  0  0
M  CHG  2   2   1   3  -1
M  END
>  <DRUGBANK_ID>
DB01959

>  <SECONDARY_ACCESSION_NUMBERS>
EXPT00309

>  <COMMON_NAME>
3,5-Dimethyl-1-(3-Nitrophenyl)-1h-Pyrazole-4-Carboxylic Acid Ethyl Ester

$$$$
