
 OpenBabel10282417203D

 21 21  0  0  0  0  0  0  0  0999 V2000
   -0.7286   -0.9616   -0.0205 N   0  0  0  0  0  0  0  0  0  0  0  0
    0.7076   -1.0759    0.0243 C   0  0  0  0  0  0  0  0  0  0  0  0
   -1.1396    0.3458    0.1710 C   0  0  0  0  0  0  0  0  0  0  0  0
   -1.6037   -1.9749   -0.6179 C   0  0  0  0  0  0  0  0  0  0  0  0
    1.2287    0.3644    0.0717 C   0  0  3  0  0  0  0  0  0  0  0  0
    0.0135    1.2506   -0.1618 C   0  0  0  0  0  0  0  0  0  0  0  0
   -2.2596    0.7134    0.4931 O   0  0  0  0  0  0  0  0  0  0  0  0
   -2.7394   -2.3947    0.3099 C   0  0  0  0  0  0  0  0  0  0  0  0
    1.8302    0.6630    1.3313 O   0  0  0  0  0  0  0  0  0  0  0  0
   -3.9218   -2.3866   -0.0179 O   0  0  0  0  0  0  0  0  0  0  0  0
   -2.3520   -2.9255    1.5071 N   0  0  0  0  0  0  0  0  0  0  0  0
    0.9419   -1.6175    0.9475 H   0  0  0  0  0  0  0  0  0  0  0  0
    1.0925   -1.6274   -0.8365 H   0  0  0  0  0  0  0  0  0  0  0  0
   -2.0364   -1.5835   -1.5473 H   0  0  0  0  0  0  0  0  0  0  0  0
   -1.0143   -2.8658   -0.8672 H   0  0  0  0  0  0  0  0  0  0  0  0
    1.9935    0.5350   -0.6925 H   0  0  0  0  0  0  0  0  0  0  0  0
    0.0061    2.1608    0.4421 H   0  0  0  0  0  0  0  0  0  0  0  0
   -0.0843    1.5039   -1.2246 H   0  0  0  0  0  0  0  0  0  0  0  0
    1.1511    0.6107    2.0271 H   0  0  0  0  0  0  0  0  0  0  0  0
   -1.3883   -2.9504    1.8029 H   0  0  0  0  0  0  0  0  0  0  0  0
   -3.0834   -3.1587    2.1650 H   0  0  0  0  0  0  0  0  0  0  0  0
  1  2  1  0  0  0  0
  1  3  1  0  0  0  0
  1  4  1  0  0  0  0
  2  5  1  0  0  0  0
  2 12  1  0  0  0  0
  2 13  1  0  0  0  0
  3  6  1  0  0  0  0
  3  7  2  0  0  0  0
  4  8  1  0  0  0  0
  4 14  1  0  0  0  0
  4 15  1  0  0  0  0
  5  9  1  0  0  0  0
  5  6  1  0  0  0  0
  5 16  1  0  0  0  0
  6 17  1  0  0  0  0
  6 18  1  0  0  0  0
  8 10  2  0  0  0  0
  8 11  1  0  0  0  0
  9 19  1  0  0  0  0
 11 20  1  0  0  0  0
 11 21  1  0  0  0  0
M  END
>  <DRUGBANK_ID>
DB13601

>  <COMMON_NAME>
Oxiracetam

>  <CAS_NUMBER>
62613-82-5

>  <UNII>
P7U817352G

>  <SYNONYMS>
Oxiracetam; Oxiracetamum

$$$$
