
 OpenBabel10282417123D

 53 55  0  0  0  0  0  0  0  0999 V2000
    1.0949   -0.0678   -0.0553 C   0  0  0  0  0  0  0  0  0  0  0  0
    0.4018   -1.2005    0.5983 C   0  0  0  0  0  0  0  0  0  0  0  0
    0.8090   -1.6580    1.8539 C   0  0  0  0  0  0  0  0  0  0  0  0
    0.0219   -2.5894    2.5622 C   0  0  0  0  0  0  0  0  0  0  0  0
   -1.1904   -3.0736    2.0357 C   0  0  0  0  0  0  0  0  0  0  0  0
   -1.6002   -2.5533    0.7996 C   0  0  0  0  0  0  0  0  0  0  0  0
   -0.7907   -1.6848    0.0558 C   0  0  0  0  0  0  0  0  0  0  0  0
    0.4601    0.8510   -0.5947 O   0  0  0  0  0  0  0  0  0  0  0  0
    2.4357   -0.0780    0.0036 O   0  0  0  0  0  0  0  0  0  0  0  0
   -1.9805   -4.1256    2.7383 C   0  0  0  0  0  0  0  0  0  0  0  0
   -3.1289   -4.6690    2.2724 C   0  0  0  0  0  0  0  0  0  0  0  0
   -3.9065   -5.7401    2.9945 C   0  0  0  0  0  0  0  0  0  0  0  0
   -5.2506   -6.5838    1.0152 C   0  0  0  0  0  0  0  0  0  0  0  0
   -5.1941   -6.2682    2.3664 C   0  0  0  0  0  0  0  0  0  0  0  0
   -6.3295   -6.6002    3.1265 C   0  0  0  0  0  0  0  0  0  0  0  0
   -7.5100   -7.2510    2.5660 C   0  0  0  0  0  0  0  0  0  0  0  0
   -7.5721   -7.6209    1.2070 C   0  0  0  0  0  0  0  0  0  0  0  0
   -8.7439   -8.4087    0.3167 C   0  0  0  0  0  0  0  0  0  0  0  0
   -7.8223   -9.6178   -0.0106 C   0  0  0  0  0  0  0  0  0  0  0  0
   -6.5486   -9.3499   -0.8225 C   0  0  0  0  0  0  0  0  0  0  0  0
   -6.2273   -7.8557   -1.0181 C   0  0  0  0  0  0  0  0  0  0  0  0
   -6.3705   -7.2719    0.4294 C   0  0  0  0  0  0  0  0  0  0  0  0
   -7.0382   -7.2173   -2.1984 C   0  0  0  0  0  0  0  0  0  0  0  0
   -4.8054   -7.6805   -1.5665 C   0  0  0  0  0  0  0  0  0  0  0  0
  -10.1991   -9.0826    0.2896 C   0  0  0  0  0  0  0  0  0  0  0  0
   -9.1685   -7.1301   -0.4206 C   0  0  0  0  0  0  0  0  0  0  0  0
   -3.4994   -6.1902    4.0609 O   0  0  0  0  0  0  0  0  0  0  0  0
    1.7122   -1.2630    2.3104 H   0  0  0  0  0  0  0  0  0  0  0  0
    0.3630   -2.8986    3.5493 H   0  0  0  0  0  0  0  0  0  0  0  0
   -2.5783   -2.7898    0.3935 H   0  0  0  0  0  0  0  0  0  0  0  0
   -1.1230   -1.3775   -0.9346 H   0  0  0  0  0  0  0  0  0  0  0  0
    2.8516   -0.8742    0.3850 H   0  0  0  0  0  0  0  0  0  0  0  0
   -1.5542   -4.4905    3.6747 H   0  0  0  0  0  0  0  0  0  0  0  0
   -3.5634   -4.3394    1.3408 H   0  0  0  0  0  0  0  0  0  0  0  0
   -4.3660   -6.3637    0.4260 H   0  0  0  0  0  0  0  0  0  0  0  0
   -6.2942   -6.3493    4.1898 H   0  0  0  0  0  0  0  0  0  0  0  0
   -8.3173   -7.4658    3.2617 H   0  0  0  0  0  0  0  0  0  0  0  0
   -8.2570  -10.5952   -0.2787 H   0  0  0  0  0  0  0  0  0  0  0  0
   -7.4971   -9.9027    1.0109 H   0  0  0  0  0  0  0  0  0  0  0  0
   -6.5943   -9.8570   -1.7888 H   0  0  0  0  0  0  0  0  0  0  0  0
   -5.7326   -9.8298   -0.2570 H   0  0  0  0  0  0  0  0  0  0  0  0
   -6.9765   -6.1168   -2.1402 H   0  0  0  0  0  0  0  0  0  0  0  0
   -6.7369   -7.5863   -3.1789 H   0  0  0  0  0  0  0  0  0  0  0  0
   -8.0853   -7.4905   -2.2817 H   0  0  0  0  0  0  0  0  0  0  0  0
   -4.5893   -6.6071   -1.6724 H   0  0  0  0  0  0  0  0  0  0  0  0
   -4.0418   -8.1392   -0.9366 H   0  0  0  0  0  0  0  0  0  0  0  0
   -4.7375   -8.1170   -2.5663 H   0  0  0  0  0  0  0  0  0  0  0  0
  -10.7624   -8.8578    1.1816 H   0  0  0  0  0  0  0  0  0  0  0  0
  -10.8252   -8.7379   -0.5768 H   0  0  0  0  0  0  0  0  0  0  0  0
  -10.2431  -10.1678    0.0669 H   0  0  0  0  0  0  0  0  0  0  0  0
   -9.5788   -6.3989    0.2778 H   0  0  0  0  0  0  0  0  0  0  0  0
   -8.3038   -6.5835   -0.6992 H   0  0  0  0  0  0  0  0  0  0  0  0
   -9.8101   -7.1817   -1.3146 H   0  0  0  0  0  0  0  0  0  0  0  0
  1  2  1  0  0  0  0
  1  8  2  0  0  0  0
  1  9  1  0  0  0  0
  2  3  1  0  0  0  0
  2  7  2  0  0  0  0
  3  4  2  0  0  0  0
  3 28  1  0  0  0  0
  4  5  1  0  0  0  0
  4 29  1  0  0  0  0
  5  6  2  0  0  0  0
  5 10  1  0  0  0  0
  6  7  1  0  0  0  0
  6 30  1  0  0  0  0
  7 31  1  0  0  0  0
  9 32  1  0  0  0  0
 10 11  2  0  0  0  0
 10 33  1  0  0  0  0
 11 12  1  0  0  0  0
 11 34  1  0  0  0  0
 12 14  1  0  0  0  0
 12 27  2  0  0  0  0
 13 14  1  0  0  0  0
 13 22  2  0  0  0  0
 13 35  1  0  0  0  0
 14 15  2  0  0  0  0
 15 16  1  0  0  0  0
 15 36  1  0  0  0  0
 16 17  2  0  0  0  0
 16 37  1  0  0  0  0
 17 18  1  0  0  0  0
 17 22  1  0  0  0  0
 18 19  1  0  0  0  0
 18 25  1  0  0  0  0
 18 26  1  0  0  0  0
 19 20  1  0  0  0  0
 19 38  1  0  0  0  0
 19 39  1  0  0  0  0
 20 21  1  0  0  0  0
 20 40  1  0  0  0  0
 20 41  1  0  0  0  0
 21 22  1  0  0  0  0
 21 23  1  0  0  0  0
 21 24  1  0  0  0  0
 23 42  1  0  0  0  0
 23 43  1  0  0  0  0
 23 44  1  0  0  0  0
 24 45  1  0  0  0  0
 24 46  1  0  0  0  0
 24 47  1  0  0  0  0
 25 48  1  0  0  0  0
 25 49  1  0  0  0  0
 25 50  1  0  0  0  0
 26 51  1  0  0  0  0
 26 52  1  0  0  0  0
 26 53  1  0  0  0  0
M  END
>  <DRUGBANK_ID>
DB02466

>  <SECONDARY_ACCESSION_NUMBERS>
EXPT00042

>  <COMMON_NAME>
BMS-181156

>  <CAS_NUMBER>
110368-35-9

>  <UNII>
C9FL8WH6S4

>  <SYNONYMS>
(E)-4-(3-Oxo-3-(5,6,7,8-tetrahydro-5,5,8,8-tetramethyl-2-naphthalenyl)-1-propenyl)benzoic acid

$$$$
