
 OpenBabel10282417163D

 53 55  0  0  0  0  0  0  0  0999 V2000
    2.3236    0.9488    0.0334 F   0  0  0  0  0  0  0  0  0  0  0  0
   -2.4358    0.7267   -0.0841 F   0  0  0  0  0  0  0  0  0  0  0  0
   -9.0020    6.1366    2.4277 O   0  0  0  0  0  0  0  0  0  0  0  0
   -8.1772    6.2207   -0.5540 O   0  0  0  0  0  0  0  0  0  0  0  0
  -11.6575    7.4654   -0.9904 N   0  0  0  0  0  0  0  0  0  0  0  0
   -4.1233    3.7207    2.1768 N   0  0  0  0  0  0  0  0  0  0  0  0
   -0.0488    2.3830    0.1438 N   0  0  0  0  0  0  0  0  0  0  0  0
   -3.5507    4.5597    0.0116 N   0  0  0  0  0  0  0  0  0  0  0  0
   -1.4086    4.0331   -0.9180 N   0  0  0  0  0  0  0  0  0  0  0  0
   -9.3774    6.7893   -0.0054 C   0  0  1  0  0  0  0  0  0  0  0  0
  -10.4258    6.6666   -1.1379 C   0  0  0  0  0  0  0  0  0  0  0  0
   -9.8629    6.1024    1.3010 C   0  0  0  0  0  0  0  0  0  0  0  0
  -12.4604    7.3598   -2.2083 C   0  0  0  0  0  0  0  0  0  0  0  0
  -12.4996    7.0612    0.1308 C   0  0  0  0  0  0  0  0  0  0  0  0
   -7.9403    5.3006    2.4120 C   0  0  0  0  0  0  0  0  0  0  0  0
   -5.4165    4.2361    2.2163 C   0  0  0  0  0  0  0  0  0  0  0  0
   -7.6670    4.3822    1.4033 C   0  0  0  0  0  0  0  0  0  0  0  0
   -7.0249    5.5488    3.4253 C   0  0  0  0  0  0  0  0  0  0  0  0
   -6.3788    3.9110    1.2579 C   0  0  0  0  0  0  0  0  0  0  0  0
   -5.7643    5.0009    3.3306 C   0  0  0  0  0  0  0  0  0  0  0  0
   -3.2885    3.7364    1.0426 C   0  0  0  0  0  0  0  0  0  0  0  0
   -2.1273    3.0294    1.1164 C   0  0  0  0  0  0  0  0  0  0  0  0
   -1.2070    3.1797    0.1012 C   0  0  0  0  0  0  0  0  0  0  0  0
   -0.0484    0.9634    0.0015 C   0  0  0  0  0  0  0  0  0  0  0  0
    1.1668    0.2667    0.0135 C   0  0  0  0  0  0  0  0  0  0  0  0
   -1.2157    0.1750   -0.0325 C   0  0  0  0  0  0  0  0  0  0  0  0
   -2.5923    4.6613   -0.9183 C   0  0  0  0  0  0  0  0  0  0  0  0
    1.2203   -1.1316    0.0082 C   0  0  0  0  0  0  0  0  0  0  0  0
   -1.1775   -1.2184   -0.0309 C   0  0  0  0  0  0  0  0  0  0  0  0
    0.0428   -1.8774   -0.0029 C   0  0  0  0  0  0  0  0  0  0  0  0
   -4.0768    2.8464    2.6895 H   0  0  0  0  0  0  0  0  0  0  0  0
    0.7093    2.8133   -0.3792 H   0  0  0  0  0  0  0  0  0  0  0  0
   -7.4572    6.3868    0.0831 H   0  0  0  0  0  0  0  0  0  0  0  0
   -9.1422    7.8405    0.1853 H   0  0  0  0  0  0  0  0  0  0  0  0
   -9.9186    6.9806   -2.0650 H   0  0  0  0  0  0  0  0  0  0  0  0
  -10.6539    5.6020   -1.3077 H   0  0  0  0  0  0  0  0  0  0  0  0
  -10.2689    5.0971    1.1346 H   0  0  0  0  0  0  0  0  0  0  0  0
  -10.6726    6.6817    1.7105 H   0  0  0  0  0  0  0  0  0  0  0  0
  -12.7852    6.3287   -2.3892 H   0  0  0  0  0  0  0  0  0  0  0  0
  -13.3498    7.9916   -2.1115 H   0  0  0  0  0  0  0  0  0  0  0  0
  -11.9089    7.7205   -3.0810 H   0  0  0  0  0  0  0  0  0  0  0  0
  -12.6310    5.9736    0.1804 H   0  0  0  0  0  0  0  0  0  0  0  0
  -12.1116    7.4488    1.0682 H   0  0  0  0  0  0  0  0  0  0  0  0
  -13.4832    7.5344    0.0890 H   0  0  0  0  0  0  0  0  0  0  0  0
   -8.3871    4.1411    0.6259 H   0  0  0  0  0  0  0  0  0  0  0  0
   -7.2744    6.2219    4.2402 H   0  0  0  0  0  0  0  0  0  0  0  0
   -6.1239    3.3561    0.3581 H   0  0  0  0  0  0  0  0  0  0  0  0
   -5.0091    5.2470    4.0702 H   0  0  0  0  0  0  0  0  0  0  0  0
   -1.9243    2.3548    1.9412 H   0  0  0  0  0  0  0  0  0  0  0  0
   -2.8101    5.3295   -1.7485 H   0  0  0  0  0  0  0  0  0  0  0  0
    2.1834   -1.6323    0.0231 H   0  0  0  0  0  0  0  0  0  0  0  0
   -2.1152   -1.7668   -0.0470 H   0  0  0  0  0  0  0  0  0  0  0  0
    0.0715   -2.9637    0.0068 H   0  0  0  0  0  0  0  0  0  0  0  0
  1 25  1  0  0  0  0
  2 26  1  0  0  0  0
  3 12  1  0  0  0  0
  3 15  1  0  0  0  0
  4 33  1  0  0  0  0
  5 11  1  0  0  0  0
  5 13  1  0  0  0  0
  5 14  1  0  0  0  0
  6 16  1  0  0  0  0
  6 21  1  0  0  0  0
  6 31  1  0  0  0  0
  7 23  1  0  0  0  0
  7 24  1  0  0  0  0
  7 32  1  0  0  0  0
  8 21  1  0  0  0  0
  8 27  2  0  0  0  0
  9 23  2  0  0  0  0
  9 27  1  0  0  0  0
 10  4  1  0  0  0  0
 10 11  1  0  0  0  0
 10 12  1  0  0  0  0
 10 34  1  1  0  0  0
 11 35  1  0  0  0  0
 11 36  1  0  0  0  0
 12 37  1  0  0  0  0
 12 38  1  0  0  0  0
 13 39  1  0  0  0  0
 13 40  1  0  0  0  0
 13 41  1  0  0  0  0
 14 42  1  0  0  0  0
 14 43  1  0  0  0  0
 14 44  1  0  0  0  0
 15 17  2  0  0  0  0
 15 18  1  0  0  0  0
 16 19  2  0  0  0  0
 16 20  1  0  0  0  0
 17 19  1  0  0  0  0
 17 45  1  0  0  0  0
 18 20  2  0  0  0  0
 18 46  1  0  0  0  0
 19 47  1  0  0  0  0
 20 48  1  0  0  0  0
 21 22  2  0  0  0  0
 22 23  1  0  0  0  0
 22 49  1  0  0  0  0
 24 25  2  0  0  0  0
 24 26  1  0  0  0  0
 25 28  1  0  0  0  0
 26 29  2  0  0  0  0
 27 50  1  0  0  0  0
 28 30  2  0  0  0  0
 28 51  1  0  0  0  0
 29 30  1  0  0  0  0
 29 52  1  0  0  0  0
 30 53  1  0  0  0  0
M  END
>  <DRUGBANK_ID>
DB07751

>  <COMMON_NAME>
(2S)-1-[4-({6-[(2,6-Difluorophenyl)amino]-4-pyrimidinyl}amino)phenoxy]-3-(dimethylamino)-2-propanol

$$$$
