NDH
 OpenBabel10282417173D

 22 23  0  0  0  0  0  0  0  0999 V2000
    1.1678   -0.0217    0.0032 O   0  0  0  0  0  0  0  0  0  0  0  0
    0.4124   -1.2388    0.0731 C   0  0  1  0  0  0  0  0  0  0  0  0
    0.7795   -2.2519   -1.0533 C   0  0  1  0  0  0  0  0  0  0  0  0
    2.0865   -1.9836   -1.5742 O   0  0  0  0  0  0  0  0  0  0  0  0
    0.7009   -3.7031   -0.6644 C   0  0  0  0  0  0  0  0  0  0  0  0
    0.5206   -4.1293    0.5875 C   0  0  0  0  0  0  0  0  0  0  0  0
    0.4123   -3.1857    1.7042 C   0  0  0  0  0  0  0  0  0  0  0  0
    0.4389   -1.7972    1.4801 C   0  0  0  0  0  0  0  0  0  0  0  0
    0.3310   -0.9227    2.5741 C   0  0  0  0  0  0  0  0  0  0  0  0
    0.2530   -3.6726    3.0079 C   0  0  0  0  0  0  0  0  0  0  0  0
    0.1321   -2.7907    4.0835 C   0  0  0  0  0  0  0  0  0  0  0  0
    0.1795   -1.4167    3.8670 C   0  0  0  0  0  0  0  0  0  0  0  0
   -0.6321   -0.9523   -0.0965 H   0  0  0  0  0  0  0  0  0  0  0  0
    0.0702   -2.0943   -1.8747 H   0  0  0  0  0  0  0  0  0  0  0  0
    2.1002   -0.2855   -0.0993 H   0  0  0  0  0  0  0  0  0  0  0  0
    2.5681   -2.8246   -1.6434 H   0  0  0  0  0  0  0  0  0  0  0  0
    0.7765   -4.4342   -1.4674 H   0  0  0  0  0  0  0  0  0  0  0  0
    0.4612   -5.1939    0.8073 H   0  0  0  0  0  0  0  0  0  0  0  0
    0.3363    0.1534    2.4081 H   0  0  0  0  0  0  0  0  0  0  0  0
    0.2032   -4.7424    3.1994 H   0  0  0  0  0  0  0  0  0  0  0  0
   -0.0054   -3.1758    5.0901 H   0  0  0  0  0  0  0  0  0  0  0  0
    0.0774   -0.7258    4.6993 H   0  0  0  0  0  0  0  0  0  0  0  0
  1 15  1  0  0  0  0
  2  1  1  0  0  0  0
  2  3  1  0  0  0  0
  2  8  1  0  0  0  0
  2 13  1  6  0  0  0
  3  5  1  0  0  0  0
  3 14  1  6  0  0  0
  3  4  1  0  0  0  0
  4 16  1  0  0  0  0
  5  6  2  0  0  0  0
  5 17  1  0  0  0  0
  6  7  1  0  0  0  0
  6 18  1  0  0  0  0
  7  8  2  0  0  0  0
  7 10  1  0  0  0  0
  8  9  1  0  0  0  0
  9 12  2  0  0  0  0
  9 19  1  0  0  0  0
 10 11  2  0  0  0  0
 10 20  1  0  0  0  0
 11 12  1  0  0  0  0
 11 21  1  0  0  0  0
 12 22  1  0  0  0  0
M  END
>  <DRUGBANK_ID>
DB08264

>  <COMMON_NAME>
(1R, 2S)-cis 1,2 dihydroxy-1,2-dihydronaphthalene

>  <UNII>
E8MH7SV5YM

$$$$
