
 OpenBabel10282417153D

461464  0  0  0  0  0  0  0  0999 V2000
    4.0549    7.0673   37.9215 C   0  0  0  0  0  0  0  0  0  0  0  0
    5.5347    6.1730   38.3614 C   0  0  1  0  0  0  0  0  0  0  0  0
    2.9099    6.6149   37.9919 O   0  0  0  0  0  0  0  0  0  0  0  0
    4.2107    8.3632   37.5434 N   0  0  0  0  0  0  0  0  0  0  0  0
    6.0774    5.3622   40.2623 N   0  0  0  0  0  0  0  0  0  0  0  0
    5.4321    5.2724   37.1248 C   0  0  0  0  0  0  0  0  0  0  0  0
    5.6408    6.2220   36.0543 C   0  0  0  0  0  0  0  0  0  0  0  0
    6.7248    7.2695   35.7423 C   0  0  0  0  0  0  0  0  0  0  0  0
    8.1111    7.3089   35.8146 N   0  0  0  0  0  0  0  0  0  0  0  0
    6.1771    8.2815   35.3865 O   0  0  0  0  0  0  0  0  0  0  0  0
    6.1842    4.0293   41.1031 C   0  0  0  0  0  0  0  0  0  0  0  0
    5.9656    4.3099   42.7152 C   0  0  2  0  0  0  0  0  0  0  0  0
    6.5073    2.9172   40.6478 O   0  0  0  0  0  0  0  0  0  0  0  0
    5.6572    5.7074   43.4073 C   0  0  0  0  0  0  0  0  0  0  0  0
    7.0807    3.6614   43.2399 N   0  0  0  0  0  0  0  0  0  0  0  0
    6.6318    6.7825   43.9153 C   0  0  0  0  0  0  0  0  0  0  0  0
    7.1779    7.7103   42.8826 C   0  0  0  0  0  0  0  0  0  0  0  0
    7.1409    2.2880   43.3325 C   0  0  0  0  0  0  0  0  0  0  0  0
    8.5724    1.7522   43.6648 C   0  0  2  0  0  0  0  0  0  0  0  0
    6.1229    1.6037   43.3225 O   0  0  0  0  0  0  0  0  0  0  0  0
    8.9627    0.6763   42.7175 C   0  0  0  0  0  0  0  0  0  0  0  0
    8.5730    1.3810   45.0518 N   0  0  0  0  0  0  0  0  0  0  0  0
    9.2648    2.0255   46.0690 C   0  0  0  0  0  0  0  0  0  0  0  0
    9.0415    1.4984   47.4958 C   0  0  2  0  0  0  0  0  0  0  0  0
   10.0628    2.9432   45.9051 O   0  0  0  0  0  0  0  0  0  0  0  0
    7.9762    0.4151   47.5938 C   0  0  0  0  0  0  0  0  0  0  0  0
    8.8035    2.5774   48.4631 N   0  0  0  0  0  0  0  0  0  0  0  0
    6.5266    0.9253   47.7101 C   0  0  0  0  0  0  0  0  0  0  0  0
    6.0637    1.7796   46.5351 C   0  0  0  0  0  0  0  0  0  0  0  0
    5.6055   -0.2799   47.8289 C   0  0  0  0  0  0  0  0  0  0  0  0
    9.6601    2.8497   49.4968 C   0  0  0  0  0  0  0  0  0  0  0  0
    9.2258    3.9981   50.4340 C   0  0  2  0  0  0  0  0  0  0  0  0
   10.6729    2.1883   49.7292 O   0  0  0  0  0  0  0  0  0  0  0  0
   10.2940    5.1128   50.3450 C   0  0  0  0  0  0  0  0  0  0  0  0
    9.1702    3.3882   51.7580 N   0  0  0  0  0  0  0  0  0  0  0  0
   10.2139    6.1488   51.4672 C   0  0  0  0  0  0  0  0  0  0  0  0
   10.5749    5.6071   52.8244 C   0  0  0  0  0  0  0  0  0  0  0  0
   11.9300    5.0859   52.8560 N   0  0  0  0  0  0  0  0  0  0  0  0
   12.8333    5.3496   53.8291 C   0  0  0  0  0  0  0  0  0  0  0  0
   14.0116    4.8380   53.8827 N   0  0  0  0  0  0  0  0  0  0  0  0
   12.4705    6.2420   54.7604 N   0  0  0  0  0  0  0  0  0  0  0  0
    8.1511    3.5041   52.6867 C   0  0  0  0  0  0  0  0  0  0  0  0
    8.3767    2.9963   54.1829 C   0  0  2  0  0  0  0  0  0  0  0  0
    7.1072    4.0626   52.3557 O   0  0  0  0  0  0  0  0  0  0  0  0
    9.7578    2.4220   54.5562 C   0  0  1  0  0  0  0  0  0  0  0  0
    7.3541    2.0182   54.6210 N   0  0  0  0  0  0  0  0  0  0  0  0
   10.0260    0.9934   54.0886 C   0  0  0  0  0  0  0  0  0  0  0  0
   10.8726    3.1986   54.2268 O   0  0  0  0  0  0  0  0  0  0  0  0
    6.4221    2.2588   55.6272 C   0  0  0  0  0  0  0  0  0  0  0  0
    5.3304    1.1460   55.8820 C   0  0  1  0  0  0  0  0  0  0  0  0
    6.4431    3.2916   56.2925 O   0  0  0  0  0  0  0  0  0  0  0  0
    5.3370    0.6455   57.2868 N   0  0  0  0  0  0  0  0  0  0  0  0
    3.9508    1.7235   55.4828 C   0  0  0  0  0  0  0  0  0  0  0  0
    3.7891    2.1839   54.0759 C   0  0  0  0  0  0  0  0  0  0  0  0
    2.6745    2.9230   53.6879 C   0  0  0  0  0  0  0  0  0  0  0  0
    2.6074    3.4195   52.3829 C   0  0  0  0  0  0  0  0  0  0  0  0
    3.6597    3.1862   51.4958 C   0  0  0  0  0  0  0  0  0  0  0  0
    4.7350    2.4190   51.8692 C   0  0  0  0  0  0  0  0  0  0  0  0
    4.7598    1.8891   53.1326 C   0  0  0  0  0  0  0  0  0  0  0  0
    3.6968    3.6561   50.2201 O   0  0  0  0  0  0  0  0  0  0  0  0
    4.2376    0.7681   58.1313 C   0  0  0  0  0  0  0  0  0  0  0  0
    4.2875    0.2780   59.5696 C   0  0  2  0  0  0  0  0  0  0  0  0
    3.1961    1.3553   57.8306 O   0  0  0  0  0  0  0  0  0  0  0  0
    5.0807    1.2571   60.4196 C   0  0  0  0  0  0  0  0  0  0  0  0
    4.7630   -1.0960   59.6421 N   0  0  0  0  0  0  0  0  0  0  0  0
    4.1507    2.1578   61.2151 C   0  0  0  0  0  0  0  0  0  0  0  0
    4.1560    2.1755   62.4422 O   0  0  0  0  0  0  0  0  0  0  0  0
    3.3167    2.9780   60.5133 N   0  0  0  0  0  0  0  0  0  0  0  0
    3.9651   -2.1202   60.1326 C   0  0  0  0  0  0  0  0  0  0  0  0
    4.6682   -3.4938   60.1773 C   0  0  2  0  0  0  0  0  0  0  0  0
    2.7984   -1.9748   60.4883 O   0  0  0  0  0  0  0  0  0  0  0  0
    4.1549   -4.3789   59.0413 C   0  0  0  0  0  0  0  0  0  0  0  0
    4.5262   -4.1652   61.4824 N   0  0  0  0  0  0  0  0  0  0  0  0
    5.1751   -5.4475   58.7438 C   0  0  0  0  0  0  0  0  0  0  0  0
    4.7451   -6.7236   58.8402 O   0  0  0  0  0  0  0  0  0  0  0  0
    6.3278   -5.1875   58.4278 O   0  0  0  0  0  0  0  0  0  0  0  0
    5.6533   -4.3834   62.2659 C   0  0  0  0  0  0  0  0  0  0  0  0
    5.4761   -5.0815   63.6354 C   0  0  1  0  0  0  0  0  0  0  0  0
    6.7733   -4.0701   61.8624 O   0  0  0  0  0  0  0  0  0  0  0  0
    6.3652   -6.2855   63.6361 N   0  0  0  0  0  0  0  0  0  0  0  0
    5.8490   -4.1166   64.7682 C   0  0  1  0  0  0  0  0  0  0  0  0
    5.1024   -2.8182   64.7337 C   0  0  0  0  0  0  0  0  0  0  0  0
    5.5842   -4.6770   66.0652 O   0  0  0  0  0  0  0  0  0  0  0  0
    7.3856   -6.5278   64.5850 C   0  0  0  0  0  0  0  0  0  0  0  0
    8.0520   -7.9269   64.6279 C   0  0  1  0  0  0  0  0  0  0  0  0
    7.7912   -5.7126   65.4097 O   0  0  0  0  0  0  0  0  0  0  0  0
    9.5260   -7.7322   64.5075 N   0  0  0  0  0  0  0  0  0  0  0  0
    7.6803   -8.6295   65.9532 C   0  0  0  0  0  0  0  0  0  0  0  0
    6.2401   -8.9293   66.1957 C   0  0  0  0  0  0  0  0  0  0  0  0
    5.8504   -9.6604   67.3035 C   0  0  0  0  0  0  0  0  0  0  0  0
    4.4922   -9.7732   67.5855 C   0  0  0  0  0  0  0  0  0  0  0  0
    3.5383   -9.1116   66.8062 C   0  0  0  0  0  0  0  0  0  0  0  0
    3.9338   -8.3371   65.7451 C   0  0  0  0  0  0  0  0  0  0  0  0
    5.2536   -8.3918   65.3884 C   0  0  0  0  0  0  0  0  0  0  0  0
    6.3473    8.6244   42.0129 C   0  0  0  0  0  0  0  0  0  0  0  0
    5.5252    9.6275   42.5557 N   0  0  0  0  0  0  0  0  0  0  0  0
   10.4262   -8.0001   65.5463 C   0  0  0  0  0  0  0  0  0  0  0  0
   11.9194   -7.7119   65.3098 C   0  0  1  0  0  0  0  0  0  0  0  0
   10.1197   -8.5390   66.6098 O   0  0  0  0  0  0  0  0  0  0  0  0
   12.4820   -6.8735   66.4149 N   0  0  0  0  0  0  0  0  0  0  0  0
   12.6575   -9.0619   65.2174 C   0  0  0  0  0  0  0  0  0  0  0  0
   12.1130   -9.9777   64.1390 C   0  0  0  0  0  0  0  0  0  0  0  0
   14.1521   -8.8221   64.9400 C   0  0  0  0  0  0  0  0  0  0  0  0
   13.3159   -7.3534   67.4284 C   0  0  0  0  0  0  0  0  0  0  0  0
   13.9014   -6.3518   68.4128 C   0  0  2  0  0  0  0  0  0  0  0  0
   13.7171   -8.5146   67.5526 O   0  0  0  0  0  0  0  0  0  0  0  0
   15.3292   -5.9722   68.0307 C   0  0  0  0  0  0  0  0  0  0  0  0
   13.9557   -7.0607   69.6954 N   0  0  0  0  0  0  0  0  0  0  0  0
   13.1544   -6.6853   70.7444 C   0  0  0  0  0  0  0  0  0  0  0  0
   13.2087   -7.5167   72.0481 C   0  0  2  0  0  0  0  0  0  0  0  0
   12.4491   -5.6779   70.6661 O   0  0  0  0  0  0  0  0  0  0  0  0
   14.0985   -8.7549   71.9767 C   0  0  0  0  0  0  0  0  0  0  0  0
   11.8517   -7.7773   72.5595 N   0  0  0  0  0  0  0  0  0  0  0  0
   13.4813   -9.9474   71.2964 C   0  0  0  0  0  0  0  0  0  0  0  0
   13.9613  -10.5551   70.3559 O   0  0  0  0  0  0  0  0  0  0  0  0
   12.3251  -10.3419   71.8435 O   0  0  0  0  0  0  0  0  0  0  0  0
   11.4019   -7.3268   73.7869 C   0  0  0  0  0  0  0  0  0  0  0  0
    9.9657   -7.7255   74.2020 C   0  0  2  0  0  0  0  0  0  0  0  0
   12.1125   -6.6674   74.5443 O   0  0  0  0  0  0  0  0  0  0  0  0
    9.0368   -6.5215   74.1794 C   0  0  0  0  0  0  0  0  0  0  0  0
    9.9695   -8.3779   75.5280 N   0  0  0  0  0  0  0  0  0  0  0  0
    9.4732   -9.6170   75.8433 C   0  0  0  0  0  0  0  0  0  0  0  0
    9.5490  -10.0313   77.0021 O   0  0  0  0  0  0  0  0  0  0  0  0
    8.9893  -10.5384   74.7044 C   0  0  1  0  0  0  0  0  0  0  0  0
    7.8163   -9.9081   74.0511 N   0  0  0  0  0  0  0  0  0  0  0  0
   10.1264  -10.8215   73.7210 C   0  0  0  0  0  0  0  0  0  0  0  0
   11.3305  -11.4419   74.3323 C   0  0  0  0  0  0  0  0  0  0  0  0
   11.9600  -10.9977   75.4723 N   0  0  0  0  0  0  0  0  0  0  0  0
   13.1019  -11.7247   75.6188 C   0  0  0  0  0  0  0  0  0  0  0  0
   13.2462  -12.5961   74.6488 N   0  0  0  0  0  0  0  0  0  0  0  0
   12.1438  -12.4442   73.8601 C   0  0  0  0  0  0  0  0  0  0  0  0
    7.7707   -6.8253   74.7742 O   0  0  0  0  0  0  0  0  0  0  0  0
    5.3711    9.3148   37.5087 C   0  0  2  0  0  0  0  0  0  0  0  0
    6.9568    8.9543   37.5982 C   0  0  0  0  0  0  0  0  0  0  0  0
    5.3085   10.4880   38.4681 C   0  0  0  0  0  0  0  0  0  0  0  0
    6.5776   11.3456   38.2598 C   0  0  0  0  0  0  0  0  0  0  0  0
    6.7464   12.0538   36.5256 S   0  0  0  0  0  0  0  0  0  0  0  0
    6.8752   10.6599   35.3009 C   0  0  0  0  0  0  0  0  0  0  0  0
    7.2395    8.4316   38.7535 N   0  0  0  0  0  0  0  0  0  0  0  0
    8.0153    9.2434   37.0680 O   0  0  0  0  0  0  0  0  0  0  0  0
    8.0792    7.1233   38.7477 C   0  0  2  0  0  0  0  0  0  0  0  0
    7.3140    5.1839   38.5543 C   0  0  0  0  0  0  0  0  0  0  0  0
    8.9974    7.6817   40.5203 C   0  0  0  0  0  0  0  0  0  0  0  0
    7.9258    4.0218   38.3507 O   0  0  0  0  0  0  0  0  0  0  0  0
    5.8127    4.2448   38.8291 N   0  0  0  0  0  0  0  0  0  0  0  0
    4.3331    5.2185   39.5829 C   0  0  2  0  0  0  0  0  0  0  0  0
    5.1014    7.0510   40.0510 C   0  0  0  0  0  0  0  0  0  0  0  0
    3.9207    4.8169   40.9138 C   0  0  0  0  0  0  0  0  0  0  0  0
    3.1371    5.8825   41.5633 C   0  0  0  0  0  0  0  0  0  0  0  0
    3.7804    3.3305   40.8377 C   0  0  0  0  0  0  0  0  0  0  0  0
    4.5419    8.1206   40.0279 O   0  0  0  0  0  0  0  0  0  0  0  0
    6.9717    6.9365   40.2147 N   0  0  0  0  0  0  0  0  0  0  0  0
    8.5649    5.7846   39.8275 C   0  0  2  0  0  0  0  0  0  0  0  0
    9.3969    5.4405   38.0473 C   0  0  0  0  0  0  0  0  0  0  0  0
    8.4479    4.8004   40.8346 C   0  0  0  0  0  0  0  0  0  0  0  0
    9.2146    3.6167   40.9124 C   0  0  0  0  0  0  0  0  0  0  0  0
   10.3048    4.2833   41.6530 C   0  0  0  0  0  0  0  0  0  0  0  0
    9.9138    5.1123   42.9570 C   0  0  0  0  0  0  0  0  0  0  0  0
    9.3292    4.4247   44.0448 N   0  0  0  0  0  0  0  0  0  0  0  0
    8.4315    5.5052   36.8533 N   0  0  0  0  0  0  0  0  0  0  0  0
   10.6037    5.2738   37.9375 O   0  0  0  0  0  0  0  0  0  0  0  0
    7.8514    4.8013   35.4247 C   0  0  2  0  0  0  0  0  0  0  0  0
    8.0137    5.8655   34.0173 C   0  0  0  0  0  0  0  0  0  0  0  0
    6.6247    3.8086   35.1408 C   0  0  0  0  0  0  0  0  0  0  0  0
    7.0719    6.4713   33.4748 O   0  0  0  0  0  0  0  0  0  0  0  0
    9.2965    6.3996   33.9428 N   0  0  0  0  0  0  0  0  0  0  0  0
    6.9347    3.2753   33.8120 C   0  0  0  0  0  0  0  0  0  0  0  0
    8.1699    2.4760   34.0437 C   0  0  0  0  0  0  0  0  0  0  0  0
    8.1143    1.5186   35.2139 C   0  0  0  0  0  0  0  0  0  0  0  0
    6.9889    0.6735   34.9207 N   0  0  0  0  0  0  0  0  0  0  0  0
   10.4412    5.9231   34.7647 C   0  0  2  0  0  0  0  0  0  0  0  0
   11.3957    5.9837   33.7205 C   0  0  0  0  0  0  0  0  0  0  0  0
   12.3181    6.8856   34.0384 N   0  0  0  0  0  0  0  0  0  0  0  0
   11.3590    5.2887   32.7059 O   0  0  0  0  0  0  0  0  0  0  0  0
   13.2509    6.8065   33.0713 C   0  0  1  0  0  0  0  0  0  0  0  0
   12.6763    8.0371   32.2291 C   0  0  0  0  0  0  0  0  0  0  0  0
   12.9790    9.6263   33.0124 C   0  0  0  0  0  0  0  0  0  0  0  0
   14.2166    9.7778   34.0767 C   0  0  0  0  0  0  0  0  0  0  0  0
   12.9264   10.9056   31.9600 C   0  0  0  0  0  0  0  0  0  0  0  0
   10.4780    4.4669   35.0178 C   0  0  0  0  0  0  0  0  0  0  0  0
   11.5307    3.6285   35.5700 C   0  0  0  0  0  0  0  0  0  0  0  0
   11.4251    3.0169   36.8354 C   0  0  0  0  0  0  0  0  0  0  0  0
   12.5046    2.3293   37.3243 C   0  0  0  0  0  0  0  0  0  0  0  0
   13.6046    2.1924   36.4855 C   0  0  0  0  0  0  0  0  0  0  0  0
   13.6478    2.7271   35.2099 C   0  0  0  0  0  0  0  0  0  0  0  0
   12.5871    3.4154   34.7382 C   0  0  0  0  0  0  0  0  0  0  0  0
   14.7088    1.4895   36.8371 O   0  0  0  0  0  0  0  0  0  0  0  0
   14.5719    6.3520   34.1610 C   0  0  0  0  0  0  0  0  0  0  0  0
   15.6729    5.5039   33.7454 N   0  0  0  0  0  0  0  0  0  0  0  0
   14.6803    6.9327   35.2445 O   0  0  0  0  0  0  0  0  0  0  0  0
   17.2649    5.6928   34.3667 C   0  0  2  0  0  0  0  0  0  0  0  0
   17.9590    7.3282   34.6931 C   0  0  0  0  0  0  0  0  0  0  0  0
   18.3933    4.9880   33.6419 C   0  0  0  0  0  0  0  0  0  0  0  0
   19.8041    5.2617   33.9734 C   0  0  0  0  0  0  0  0  0  0  0  0
   20.4955    4.0944   33.8227 N   0  0  0  0  0  0  0  0  0  0  0  0
   20.3237    6.3314   34.2176 O   0  0  0  0  0  0  0  0  0  0  0  0
   17.6715    7.8287   35.7890 O   0  0  0  0  0  0  0  0  0  0  0  0
   18.5568    8.2698   33.6829 N   0  0  0  0  0  0  0  0  0  0  0  0
   18.5972    8.2797   32.1552 C   0  0  2  0  0  0  0  0  0  0  0  0
   18.5549    6.9202   31.6904 C   0  0  0  0  0  0  0  0  0  0  0  0
   19.6244    9.0539   31.3485 C   0  0  0  0  0  0  0  0  0  0  0  0
   19.7976    8.7695   29.9473 O   0  0  0  0  0  0  0  0  0  0  0  0
   19.6420    6.3846   31.5264 O   0  0  0  0  0  0  0  0  0  0  0  0
   17.1628    6.2999   31.5013 N   0  0  0  0  0  0  0  0  0  0  0  0
   16.2033    7.0488   30.8218 C   0  0  2  0  0  0  0  0  0  0  0  0
   17.1257    7.8540   29.9277 C   0  0  0  0  0  0  0  0  0  0  0  0
   15.4513    7.6249   31.9112 C   0  0  2  0  0  0  0  0  0  0  0  0
   14.9660    8.9783   31.8847 C   0  0  0  0  0  0  0  0  0  0  0  0
   16.2015    7.8843   33.0713 C   0  0  0  0  0  0  0  0  0  0  0  0
   15.9126   10.4317   32.0422 C   0  0  0  0  0  0  0  0  0  0  0  0
   17.2516    9.0755   29.9097 O   0  0  0  0  0  0  0  0  0  0  0  0
   17.9680    7.4356   29.0286 N   0  0  0  0  0  0  0  0  0  0  0  0
   18.2859    6.1080   28.6686 C   0  0  2  0  0  0  0  0  0  0  0  0
   17.5662    5.6791   27.4632 C   0  0  0  0  0  0  0  0  0  0  0  0
   17.7282    5.0769   29.5995 C   0  0  0  0  0  0  0  0  0  0  0  0
   18.1384    3.8048   30.2606 C   0  0  0  0  0  0  0  0  0  0  0  0
   19.6419    3.9408   30.4890 C   0  0  0  0  0  0  0  0  0  0  0  0
   17.2774    3.1674   31.4594 C   0  0  0  0  0  0  0  0  0  0  0  0
   18.2473    5.0005   26.6965 O   0  0  0  0  0  0  0  0  0  0  0  0
   16.1705    5.7172   27.3595 N   0  0  0  0  0  0  0  0  0  0  0  0
   15.0155    6.3472   28.1118 C   0  0  2  0  0  0  0  0  0  0  0  0
   13.5837    6.3082   27.6525 C   0  0  0  0  0  0  0  0  0  0  0  0
   15.2028    7.8352   28.1803 C   0  0  0  0  0  0  0  0  0  0  0  0
   13.0233    5.0960   27.7331 O   0  0  0  0  0  0  0  0  0  0  0  0
   12.9514    7.2939   27.3158 O   0  0  0  0  0  0  0  0  0  0  0  0
   14.4092    8.7228   29.0789 C   0  0  0  0  0  0  0  0  0  0  0  0
   15.1985    9.6791   29.6016 N   0  0  0  0  0  0  0  0  0  0  0  0
   13.2161    8.7591   29.3080 O   0  0  0  0  0  0  0  0  0  0  0  0
    9.9345    0.7742   52.5901 C   0  0  0  0  0  0  0  0  0  0  0  0
    6.2040    6.9158   38.0763 H   0  0  0  0  0  0  0  0  0  0  0  0
    3.2869    8.7642   37.3741 H   0  0  0  0  0  0  0  0  0  0  0  0
    6.2757    6.0829   40.9551 H   0  0  0  0  0  0  0  0  0  0  0  0
    6.2352    4.5434   37.0363 H   0  0  0  0  0  0  0  0  0  0  0  0
    4.6170    4.5166   37.1236 H   0  0  0  0  0  0  0  0  0  0  0  0
    5.9688    5.4914   35.4704 H   0  0  0  0  0  0  0  0  0  0  0  0
    4.6879    6.3940   35.5907 H   0  0  0  0  0  0  0  0  0  0  0  0
    8.7580    7.9832   35.3941 H   0  0  0  0  0  0  0  0  0  0  0  0
    8.7426    6.5003   35.7734 H   0  0  0  0  0  0  0  0  0  0  0  0
    5.1062    3.6830   42.9470 H   0  0  0  0  0  0  0  0  0  0  0  0
    5.0271    6.3521   42.8269 H   0  0  0  0  0  0  0  0  0  0  0  0
    5.0361    5.4075   44.2493 H   0  0  0  0  0  0  0  0  0  0  0  0
    7.8398    4.0851   42.7567 H   0  0  0  0  0  0  0  0  0  0  0  0
    6.1361    7.4751   44.5743 H   0  0  0  0  0  0  0  0  0  0  0  0
    7.4779    6.2515   44.3321 H   0  0  0  0  0  0  0  0  0  0  0  0
    8.1278    8.2008   43.0681 H   0  0  0  0  0  0  0  0  0  0  0  0
    7.3974    6.8086   42.3720 H   0  0  0  0  0  0  0  0  0  0  0  0
    9.4213    2.4026   43.5412 H   0  0  0  0  0  0  0  0  0  0  0  0
    9.8348    0.1755   43.1310 H   0  0  0  0  0  0  0  0  0  0  0  0
    8.1275    0.0108   42.5371 H   0  0  0  0  0  0  0  0  0  0  0  0
    9.2648    1.1268   41.7664 H   0  0  0  0  0  0  0  0  0  0  0  0
    7.8328    0.7305   45.2417 H   0  0  0  0  0  0  0  0  0  0  0  0
   10.0025    1.0284   47.7434 H   0  0  0  0  0  0  0  0  0  0  0  0
    8.0657   -0.2787   46.7495 H   0  0  0  0  0  0  0  0  0  0  0  0
    8.2128   -0.1978   48.4684 H   0  0  0  0  0  0  0  0  0  0  0  0
    7.9818    3.1570   48.3480 H   0  0  0  0  0  0  0  0  0  0  0  0
    6.4307    1.5254   48.6210 H   0  0  0  0  0  0  0  0  0  0  0  0
    6.0545    1.1760   45.6277 H   0  0  0  0  0  0  0  0  0  0  0  0
    5.0400    2.1350   46.6577 H   0  0  0  0  0  0  0  0  0  0  0  0
    6.6985    2.6593   46.3944 H   0  0  0  0  0  0  0  0  0  0  0  0
    5.8850   -0.8884   48.6932 H   0  0  0  0  0  0  0  0  0  0  0  0
    4.5690    0.0443   47.9506 H   0  0  0  0  0  0  0  0  0  0  0  0
    5.6684   -0.9064   46.9316 H   0  0  0  0  0  0  0  0  0  0  0  0
    8.2393    4.3912   50.1982 H   0  0  0  0  0  0  0  0  0  0  0  0
   11.3131    4.7005   50.3045 H   0  0  0  0  0  0  0  0  0  0  0  0
   10.1623    5.6301   49.3881 H   0  0  0  0  0  0  0  0  0  0  0  0
   10.0411    2.9476   51.9567 H   0  0  0  0  0  0  0  0  0  0  0  0
   10.8957    6.9806   51.2709 H   0  0  0  0  0  0  0  0  0  0  0  0
    9.1937    6.5441   51.5075 H   0  0  0  0  0  0  0  0  0  0  0  0
   10.3516    6.3348   53.5967 H   0  0  0  0  0  0  0  0  0  0  0  0
    9.8660    4.8664   53.1237 H   0  0  0  0  0  0  0  0  0  0  0  0
   12.1935    4.3637   52.1927 H   0  0  0  0  0  0  0  0  0  0  0  0
   14.1776    4.1940   53.1108 H   0  0  0  0  0  0  0  0  0  0  0  0
   11.5392    6.5903   54.8889 H   0  0  0  0  0  0  0  0  0  0  0  0
   13.1298    6.4577   55.4889 H   0  0  0  0  0  0  0  0  0  0  0  0
    8.2392    3.9058   54.7897 H   0  0  0  0  0  0  0  0  0  0  0  0
    9.8029    2.4402   55.6493 H   0  0  0  0  0  0  0  0  0  0  0  0
    7.3298    1.1729   54.0685 H   0  0  0  0  0  0  0  0  0  0  0  0
   11.0416    0.7260   54.3952 H   0  0  0  0  0  0  0  0  0  0  0  0
    9.3299    0.3178   54.5868 H   0  0  0  0  0  0  0  0  0  0  0  0
   11.0252    3.2535   53.2769 H   0  0  0  0  0  0  0  0  0  0  0  0
    5.5489    0.2672   55.2578 H   0  0  0  0  0  0  0  0  0  0  0  0
    6.2227    0.2795   57.6152 H   0  0  0  0  0  0  0  0  0  0  0  0
    3.1824    0.9548   55.6447 H   0  0  0  0  0  0  0  0  0  0  0  0
    3.7533    2.5957   56.1243 H   0  0  0  0  0  0  0  0  0  0  0  0
    1.8717    3.1116   54.4008 H   0  0  0  0  0  0  0  0  0  0  0  0
    1.7352    3.9875   52.0864 H   0  0  0  0  0  0  0  0  0  0  0  0
    5.5758    2.2417   51.2116 H   0  0  0  0  0  0  0  0  0  0  0  0
    5.5918    1.2586   53.3630 H   0  0  0  0  0  0  0  0  0  0  0  0
    2.9020    4.1838   50.0632 H   0  0  0  0  0  0  0  0  0  0  0  0
    3.2398    0.2812   59.8987 H   0  0  0  0  0  0  0  0  0  0  0  0
    5.6951    0.7061   61.1405 H   0  0  0  0  0  0  0  0  0  0  0  0
    5.7537    1.8857   59.8264 H   0  0  0  0  0  0  0  0  0  0  0  0
    5.7173   -1.2892   59.3719 H   0  0  0  0  0  0  0  0  0  0  0  0
    3.2278    2.9889   59.5025 H   0  0  0  0  0  0  0  0  0  0  0  0
    2.6787    3.5703   61.0341 H   0  0  0  0  0  0  0  0  0  0  0  0
    5.7284   -3.2806   60.0125 H   0  0  0  0  0  0  0  0  0  0  0  0
    3.1756   -4.8097   59.2718 H   0  0  0  0  0  0  0  0  0  0  0  0
    4.0371   -3.7873   58.1239 H   0  0  0  0  0  0  0  0  0  0  0  0
    3.5843   -4.3286   61.8248 H   0  0  0  0  0  0  0  0  0  0  0  0
    3.8090   -6.8908   59.0559 H   0  0  0  0  0  0  0  0  0  0  0  0
    4.4303   -5.4116   63.7508 H   0  0  0  0  0  0  0  0  0  0  0  0
    6.1163   -6.9940   62.9536 H   0  0  0  0  0  0  0  0  0  0  0  0
    6.9146   -3.8724   64.6743 H   0  0  0  0  0  0  0  0  0  0  0  0
    4.0399   -3.0087   64.8934 H   0  0  0  0  0  0  0  0  0  0  0  0
    5.4673   -2.1909   65.5524 H   0  0  0  0  0  0  0  0  0  0  0  0
    5.2615   -2.2998   63.7887 H   0  0  0  0  0  0  0  0  0  0  0  0
    4.6913   -5.0455   66.1131 H   0  0  0  0  0  0  0  0  0  0  0  0
    7.7125   -8.5254   63.7769 H   0  0  0  0  0  0  0  0  0  0  0  0
    9.8136   -7.1726   63.7122 H   0  0  0  0  0  0  0  0  0  0  0  0
    8.2218   -9.5818   66.0055 H   0  0  0  0  0  0  0  0  0  0  0  0
    7.9936   -7.9882   66.7966 H   0  0  0  0  0  0  0  0  0  0  0  0
    6.5976  -10.1468   67.9261 H   0  0  0  0  0  0  0  0  0  0  0  0
    4.1735  -10.3509   68.4423 H   0  0  0  0  0  0  0  0  0  0  0  0
    2.4804   -9.2161   66.9998 H   0  0  0  0  0  0  0  0  0  0  0  0
    3.2540   -7.7226   65.1693 H   0  0  0  0  0  0  0  0  0  0  0  0
    5.4904   -8.0120   64.4275 H   0  0  0  0  0  0  0  0  0  0  0  0
    6.8356    9.1360   41.1741 H   0  0  0  0  0  0  0  0  0  0  0  0
    5.5811    7.9685   41.6878 H   0  0  0  0  0  0  0  0  0  0  0  0
    4.8979    9.8616   41.7687 H   0  0  0  0  0  0  0  0  0  0  0  0
    4.9693    9.0842   43.2020 H   0  0  0  0  0  0  0  0  0  0  0  0
   12.0233   -7.1557   64.3712 H   0  0  0  0  0  0  0  0  0  0  0  0
   12.0019   -5.9935   66.5745 H   0  0  0  0  0  0  0  0  0  0  0  0
   12.4971   -9.6150   66.1569 H   0  0  0  0  0  0  0  0  0  0  0  0
   12.2381   -9.5073   63.1632 H   0  0  0  0  0  0  0  0  0  0  0  0
   12.6618  -10.9248   64.1579 H   0  0  0  0  0  0  0  0  0  0  0  0
   11.0558  -10.2068   64.2975 H   0  0  0  0  0  0  0  0  0  0  0  0
   14.6538   -8.1212   65.6112 H   0  0  0  0  0  0  0  0  0  0  0  0
   14.7024   -9.7612   65.0222 H   0  0  0  0  0  0  0  0  0  0  0  0
   14.2821   -8.3610   63.9615 H   0  0  0  0  0  0  0  0  0  0  0  0
   13.2605   -5.4754   68.4706 H   0  0  0  0  0  0  0  0  0  0  0  0
   15.8267   -5.4942   68.8826 H   0  0  0  0  0  0  0  0  0  0  0  0
   15.9443   -6.8387   67.7482 H   0  0  0  0  0  0  0  0  0  0  0  0
   15.3361   -5.2770   67.1885 H   0  0  0  0  0  0  0  0  0  0  0  0
   14.4045   -7.9747   69.6394 H   0  0  0  0  0  0  0  0  0  0  0  0
   13.6962   -6.8414   72.7651 H   0  0  0  0  0  0  0  0  0  0  0  0
   15.0238   -8.5220   71.4372 H   0  0  0  0  0  0  0  0  0  0  0  0
   14.4190   -9.0386   72.9829 H   0  0  0  0  0  0  0  0  0  0  0  0
   11.2882   -8.4001   71.9897 H   0  0  0  0  0  0  0  0  0  0  0  0
   12.0891  -11.2135   71.4600 H   0  0  0  0  0  0  0  0  0  0  0  0
    9.5409   -8.3862   73.4589 H   0  0  0  0  0  0  0  0  0  0  0  0
    9.4796   -5.6777   74.7101 H   0  0  0  0  0  0  0  0  0  0  0  0
    8.8548   -6.2286   73.1406 H   0  0  0  0  0  0  0  0  0  0  0  0
   10.2809   -7.8120   76.3125 H   0  0  0  0  0  0  0  0  0  0  0  0
    8.6770  -11.4971   75.1349 H   0  0  0  0  0  0  0  0  0  0  0  0
    7.4741  -10.5267   73.3171 H   0  0  0  0  0  0  0  0  0  0  0  0
    7.0756   -9.8498   74.7539 H   0  0  0  0  0  0  0  0  0  0  0  0
    9.7599  -11.4227   72.8809 H   0  0  0  0  0  0  0  0  0  0  0  0
   10.4830   -9.9212   73.2366 H   0  0  0  0  0  0  0  0  0  0  0  0
   11.6521  -10.2761   76.1152 H   0  0  0  0  0  0  0  0  0  0  0  0
   13.7759  -11.5679   76.4486 H   0  0  0  0  0  0  0  0  0  0  0  0
   12.0087  -13.0107   72.9494 H   0  0  0  0  0  0  0  0  0  0  0  0
    7.4390   -7.6372   74.3438 H   0  0  0  0  0  0  0  0  0  0  0  0
    5.1027    9.7160   36.5654 H   0  0  0  0  0  0  0  0  0  0  0  0
    4.3903   11.0485   38.3015 H   0  0  0  0  0  0  0  0  0  0  0  0
    5.2894   10.1748   39.5169 H   0  0  0  0  0  0  0  0  0  0  0  0
    6.5539   12.1472   38.9953 H   0  0  0  0  0  0  0  0  0  0  0  0
    7.5102   10.8419   38.5724 H   0  0  0  0  0  0  0  0  0  0  0  0
    7.7477   10.0152   35.3877 H   0  0  0  0  0  0  0  0  0  0  0  0
    5.9492   10.1181   35.1644 H   0  0  0  0  0  0  0  0  0  0  0  0
    6.9829   10.9951   34.2851 H   0  0  0  0  0  0  0  0  0  0  0  0
    6.3402    8.4855   39.2300 H   0  0  0  0  0  0  0  0  0  0  0  0
    9.0594    7.4665   38.2573 H   0  0  0  0  0  0  0  0  0  0  0  0
    9.7054    7.0474   41.1628 H   0  0  0  0  0  0  0  0  0  0  0  0
    8.8506    8.6342   41.0061 H   0  0  0  0  0  0  0  0  0  0  0  0
    8.3943    7.1311   41.2366 H   0  0  0  0  0  0  0  0  0  0  0  0
    6.0089    3.2502   38.8174 H   0  0  0  0  0  0  0  0  0  0  0  0
    3.6267    4.9706   38.8162 H   0  0  0  0  0  0  0  0  0  0  0  0
    4.6881    5.1406   41.5400 H   0  0  0  0  0  0  0  0  0  0  0  0
    2.3081    6.0073   40.9146 H   0  0  0  0  0  0  0  0  0  0  0  0
    3.0944    5.6038   42.6121 H   0  0  0  0  0  0  0  0  0  0  0  0
    3.6554    6.8664   41.6027 H   0  0  0  0  0  0  0  0  0  0  0  0
    4.5811    2.7401   40.3651 H   0  0  0  0  0  0  0  0  0  0  0  0
    3.7337    2.8718   41.8129 H   0  0  0  0  0  0  0  0  0  0  0  0
    3.0517    3.1732   40.0738 H   0  0  0  0  0  0  0  0  0  0  0  0
    7.2364    7.9273   40.1925 H   0  0  0  0  0  0  0  0  0  0  0  0
    9.6426    6.1487   39.8689 H   0  0  0  0  0  0  0  0  0  0  0  0
    7.9509    5.2435   41.6635 H   0  0  0  0  0  0  0  0  0  0  0  0
    7.7509    4.3557   40.2734 H   0  0  0  0  0  0  0  0  0  0  0  0
    8.5805    2.8966   41.4061 H   0  0  0  0  0  0  0  0  0  0  0  0
    9.3304    3.2198   39.8942 H   0  0  0  0  0  0  0  0  0  0  0  0
   11.0120    3.4939   41.7888 H   0  0  0  0  0  0  0  0  0  0  0  0
   10.7345    5.0103   40.9488 H   0  0  0  0  0  0  0  0  0  0  0  0
   10.8084    5.5918   43.3077 H   0  0  0  0  0  0  0  0  0  0  0  0
    9.2130    5.9342   42.8188 H   0  0  0  0  0  0  0  0  0  0  0  0
    8.9961    4.9137   44.8619 H   0  0  0  0  0  0  0  0  0  0  0  0
    8.5482    3.8131   43.9436 H   0  0  0  0  0  0  0  0  0  0  0  0
    7.7545    6.2082   37.0476 H   0  0  0  0  0  0  0  0  0  0  0  0
    8.4147    3.9963   35.7630 H   0  0  0  0  0  0  0  0  0  0  0  0
    6.4567    3.1109   35.9680 H   0  0  0  0  0  0  0  0  0  0  0  0
    5.6045    4.1224   34.8678 H   0  0  0  0  0  0  0  0  0  0  0  0
    9.3499    7.3238   33.4936 H   0  0  0  0  0  0  0  0  0  0  0  0
    6.0465    2.7472   33.4961 H   0  0  0  0  0  0  0  0  0  0  0  0
    7.0504    4.1221   33.1306 H   0  0  0  0  0  0  0  0  0  0  0  0
    8.5897    2.1675   33.1047 H   0  0  0  0  0  0  0  0  0  0  0  0
    8.9020    3.1148   34.4269 H   0  0  0  0  0  0  0  0  0  0  0  0
    9.0801    1.0288   35.3073 H   0  0  0  0  0  0  0  0  0  0  0  0
    7.9895    2.0090   36.2027 H   0  0  0  0  0  0  0  0  0  0  0  0
    6.8706    0.0192   35.6786 H   0  0  0  0  0  0  0  0  0  0  0  0
    6.1379    1.2414   34.9016 H   0  0  0  0  0  0  0  0  0  0  0  0
   10.7293    6.5278   35.6404 H   0  0  0  0  0  0  0  0  0  0  0  0
   12.3173    7.6942   34.6572 H   0  0  0  0  0  0  0  0  0  0  0  0
   13.2134    5.9354   32.3738 H   0  0  0  0  0  0  0  0  0  0  0  0
   12.9950    7.6027   31.2428 H   0  0  0  0  0  0  0  0  0  0  0  0
   11.7000    8.1704   31.6811 H   0  0  0  0  0  0  0  0  0  0  0  0
   12.1524    9.7559   33.6982 H   0  0  0  0  0  0  0  0  0  0  0  0
   15.2206    9.6100   33.7774 H   0  0  0  0  0  0  0  0  0  0  0  0
   14.4692   10.7821   34.4274 H   0  0  0  0  0  0  0  0  0  0  0  0
   14.3006    8.9598   34.7651 H   0  0  0  0  0  0  0  0  0  0  0  0
   11.9909   10.9236   31.4209 H   0  0  0  0  0  0  0  0  0  0  0  0
   13.2958   11.8139   32.4415 H   0  0  0  0  0  0  0  0  0  0  0  0
   13.5441   10.9611   31.0499 H   0  0  0  0  0  0  0  0  0  0  0  0
    9.8950    4.3455   35.8681 H   0  0  0  0  0  0  0  0  0  0  0  0
   10.1340    4.0555   34.0759 H   0  0  0  0  0  0  0  0  0  0  0  0
   10.5342    3.1194   37.4640 H   0  0  0  0  0  0  0  0  0  0  0  0
   12.4560    1.9407   38.3335 H   0  0  0  0  0  0  0  0  0  0  0  0
   14.4911    2.6323   34.5524 H   0  0  0  0  0  0  0  0  0  0  0  0
   12.5830    3.7849   33.7291 H   0  0  0  0  0  0  0  0  0  0  0  0
   14.5578    1.1395   37.7251 H   0  0  0  0  0  0  0  0  0  0  0  0
   15.5565    5.0723   32.8390 H   0  0  0  0  0  0  0  0  0  0  0  0
   17.1604    5.1210   35.2734 H   0  0  0  0  0  0  0  0  0  0  0  0
   18.4994    4.1333   33.0113 H   0  0  0  0  0  0  0  0  0  0  0  0
   18.2412    5.3997   32.7244 H   0  0  0  0  0  0  0  0  0  0  0  0
   21.4854    4.1469   33.9525 H   0  0  0  0  0  0  0  0  0  0  0  0
   20.1114    3.3324   33.2694 H   0  0  0  0  0  0  0  0  0  0  0  0
   18.3374    9.2243   33.9704 H   0  0  0  0  0  0  0  0  0  0  0  0
   17.7509    8.7338   31.7345 H   0  0  0  0  0  0  0  0  0  0  0  0
   19.2691   10.0862   31.3517 H   0  0  0  0  0  0  0  0  0  0  0  0
   20.5577    8.7894   31.7918 H   0  0  0  0  0  0  0  0  0  0  0  0
   19.6172    7.8193   29.8227 H   0  0  0  0  0  0  0  0  0  0  0  0
   16.9021    5.3114   31.5328 H   0  0  0  0  0  0  0  0  0  0  0  0
   15.4776    6.3252   30.4257 H   0  0  0  0  0  0  0  0  0  0  0  0
   14.8125    6.7609   32.0162 H   0  0  0  0  0  0  0  0  0  0  0  0
   14.1214    9.4448   31.5041 H   0  0  0  0  0  0  0  0  0  0  0  0
   14.3804    8.4716   31.1542 H   0  0  0  0  0  0  0  0  0  0  0  0
   15.9511    8.0578   34.0771 H   0  0  0  0  0  0  0  0  0  0  0  0
   16.8617    7.1065   33.1061 H   0  0  0  0  0  0  0  0  0  0  0  0
   16.6953    8.7763   32.8842 H   0  0  0  0  0  0  0  0  0  0  0  0
   16.8604   10.3984   31.5409 H   0  0  0  0  0  0  0  0  0  0  0  0
   15.3598   11.2992   31.7000 H   0  0  0  0  0  0  0  0  0  0  0  0
   16.2154   10.7813   33.0525 H   0  0  0  0  0  0  0  0  0  0  0  0
   18.3007    8.3273   28.6165 H   0  0  0  0  0  0  0  0  0  0  0  0
   19.3795    6.1482   28.7180 H   0  0  0  0  0  0  0  0  0  0  0  0
   18.2690    5.6093   30.2920 H   0  0  0  0  0  0  0  0  0  0  0  0
   16.6542    5.1008   29.6285 H   0  0  0  0  0  0  0  0  0  0  0  0
   17.8837    3.1806   29.4260 H   0  0  0  0  0  0  0  0  0  0  0  0
   19.9394    4.4431   31.4014 H   0  0  0  0  0  0  0  0  0  0  0  0
   20.0786    2.9694   30.5549 H   0  0  0  0  0  0  0  0  0  0  0  0
   20.1229    4.5552   29.7121 H   0  0  0  0  0  0  0  0  0  0  0  0
   16.1982    3.2607   31.3116 H   0  0  0  0  0  0  0  0  0  0  0  0
   17.6642    2.1614   31.5986 H   0  0  0  0  0  0  0  0  0  0  0  0
   17.2081    3.4378   32.5176 H   0  0  0  0  0  0  0  0  0  0  0  0
   15.8714    5.1908   26.5657 H   0  0  0  0  0  0  0  0  0  0  0  0
   14.9377    5.6982   28.9953 H   0  0  0  0  0  0  0  0  0  0  0  0
   16.2356    7.8494   28.2503 H   0  0  0  0  0  0  0  0  0  0  0  0
   15.3402    8.4989   27.3393 H   0  0  0  0  0  0  0  0  0  0  0  0
   13.6190    4.3796   28.0085 H   0  0  0  0  0  0  0  0  0  0  0  0
   14.7801   10.3244   30.2200 H   0  0  0  0  0  0  0  0  0  0  0  0
   15.9489    9.3376   30.2077 H   0  0  0  0  0  0  0  0  0  0  0  0
   10.7193    1.3381   52.0801 H   0  0  0  0  0  0  0  0  0  0  0  0
   10.1059   -0.2610   52.3110 H   0  0  0  0  0  0  0  0  0  0  0  0
    8.9428    1.0417   52.2105 H   0  0  0  0  0  0  0  0  0  0  0  0
  1  2  1  0  0  0  0
  1  3  2  0  0  0  0
  1  4  1  0  0  0  0
  2  5  1  0  0  0  0
  2  6  1  0  0  0  0
  2230  1  6  0  0  0
  4231  1  0  0  0  0
  5 11  1  0  0  0  0
  5232  1  0  0  0  0
  6  7  1  0  0  0  0
  6233  1  0  0  0  0
  6234  1  0  0  0  0
  7  8  1  0  0  0  0
  7235  1  0  0  0  0
  7236  1  0  0  0  0
  8  9  1  0  0  0  0
  8 10  2  0  0  0  0
  9237  1  0  0  0  0
  9238  1  0  0  0  0
 11 13  2  0  0  0  0
 12 15  1  0  0  0  0
 12239  1  1  0  0  0
 12 14  1  0  0  0  0
 12 11  1  0  0  0  0
 14 16  1  0  0  0  0
 14240  1  0  0  0  0
 14241  1  0  0  0  0
 15 18  1  0  0  0  0
 15242  1  0  0  0  0
 16 17  1  0  0  0  0
 16243  1  0  0  0  0
 16244  1  0  0  0  0
 17 95  1  0  0  0  0
 17245  1  0  0  0  0
 17246  1  0  0  0  0
 18 20  2  0  0  0  0
 19 22  1  0  0  0  0
 19247  1  6  0  0  0
 19 21  1  0  0  0  0
 19 18  1  0  0  0  0
 21248  1  0  0  0  0
 21249  1  0  0  0  0
 21250  1  0  0  0  0
 22 23  1  0  0  0  0
 22251  1  0  0  0  0
 23 25  2  0  0  0  0
 24 27  1  0  0  0  0
 24252  1  1  0  0  0
 24 26  1  0  0  0  0
 24 23  1  0  0  0  0
 26 28  1  0  0  0  0
 26253  1  0  0  0  0
 26254  1  0  0  0  0
 27 31  1  0  0  0  0
 27255  1  0  0  0  0
 28 29  1  0  0  0  0
 28 30  1  0  0  0  0
 28256  1  0  0  0  0
 29257  1  0  0  0  0
 29258  1  0  0  0  0
 29259  1  0  0  0  0
 30260  1  0  0  0  0
 30261  1  0  0  0  0
 30262  1  0  0  0  0
 31 33  2  0  0  0  0
 32 35  1  0  0  0  0
 32263  1  6  0  0  0
 32 34  1  0  0  0  0
 32 31  1  0  0  0  0
 34 36  1  0  0  0  0
 34264  1  0  0  0  0
 34265  1  0  0  0  0
 35 42  1  0  0  0  0
 35266  1  0  0  0  0
 36 37  1  0  0  0  0
 36267  1  0  0  0  0
 36268  1  0  0  0  0
 37 38  1  0  0  0  0
 37269  1  0  0  0  0
 37270  1  0  0  0  0
 38 39  1  0  0  0  0
 38271  1  0  0  0  0
 39 40  2  0  0  0  0
 39 41  1  0  0  0  0
 40272  1  0  0  0  0
 41273  1  0  0  0  0
 41274  1  0  0  0  0
 42 44  2  0  0  0  0
 43 46  1  0  0  0  0
 43275  1  1  0  0  0
 43 45  1  0  0  0  0
 43 42  1  0  0  0  0
 45 47  1  0  0  0  0
 45 48  1  0  0  0  0
 45276  1  1  0  0  0
 46 49  1  0  0  0  0
 46277  1  0  0  0  0
 47229  1  0  0  0  0
 47278  1  0  0  0  0
 47279  1  0  0  0  0
 48280  1  0  0  0  0
 49 50  1  0  0  0  0
 49 51  2  0  0  0  0
 50 52  1  0  0  0  0
 50 53  1  0  0  0  0
 50281  1  6  0  0  0
 52 61  1  0  0  0  0
 52282  1  0  0  0  0
 53 54  1  0  0  0  0
 53283  1  0  0  0  0
 53284  1  0  0  0  0
 54 55  1  0  0  0  0
 54 59  2  0  0  0  0
 55 56  2  0  0  0  0
 55285  1  0  0  0  0
 56 57  1  0  0  0  0
 56286  1  0  0  0  0
 57 58  2  0  0  0  0
 57 60  1  0  0  0  0
 58 59  1  0  0  0  0
 58287  1  0  0  0  0
 59288  1  0  0  0  0
 60289  1  0  0  0  0
 61 63  2  0  0  0  0
 62 65  1  0  0  0  0
 62290  1  1  0  0  0
 62 64  1  0  0  0  0
 62 61  1  0  0  0  0
 64 66  1  0  0  0  0
 64291  1  0  0  0  0
 64292  1  0  0  0  0
 65 69  1  0  0  0  0
 65293  1  0  0  0  0
 66 67  2  0  0  0  0
 66 68  1  0  0  0  0
 68294  1  0  0  0  0
 68295  1  0  0  0  0
 69 71  2  0  0  0  0
 70 73  1  0  0  0  0
 70296  1  6  0  0  0
 70 72  1  0  0  0  0
 70 69  1  0  0  0  0
 72 74  1  0  0  0  0
 72297  1  0  0  0  0
 72298  1  0  0  0  0
 73 77  1  0  0  0  0
 73299  1  0  0  0  0
 74 75  1  0  0  0  0
 74 76  2  0  0  0  0
 75300  1  0  0  0  0
 77 78  1  0  0  0  0
 77 79  2  0  0  0  0
 78 80  1  0  0  0  0
 78 81  1  0  0  0  0
 78301  1  1  0  0  0
 80 84  1  0  0  0  0
 80302  1  0  0  0  0
 81 82  1  0  0  0  0
 81 83  1  0  0  0  0
 81303  1  6  0  0  0
 82304  1  0  0  0  0
 82305  1  0  0  0  0
 82306  1  0  0  0  0
 83307  1  0  0  0  0
 84 85  1  0  0  0  0
 84 86  2  0  0  0  0
 85 87  1  0  0  0  0
 85 88  1  0  0  0  0
 85308  1  6  0  0  0
 87 97  1  0  0  0  0
 87309  1  0  0  0  0
 88 89  1  0  0  0  0
 88310  1  0  0  0  0
 88311  1  0  0  0  0
 89 90  1  0  0  0  0
 89 94  2  0  0  0  0
 90 91  2  0  0  0  0
 90312  1  0  0  0  0
 91 92  1  0  0  0  0
 91313  1  0  0  0  0
 92 93  2  0  0  0  0
 92314  1  0  0  0  0
 93 94  1  0  0  0  0
 93315  1  0  0  0  0
 94316  1  0  0  0  0
 95 96  1  0  0  0  0
 95317  1  0  0  0  0
 95318  1  0  0  0  0
 96319  1  0  0  0  0
 96320  1  0  0  0  0
 97 98  1  0  0  0  0
 97 99  2  0  0  0  0
 98100  1  0  0  0  0
 98101  1  0  0  0  0
 98321  1  6  0  0  0
100104  1  0  0  0  0
100322  1  0  0  0  0
101102  1  0  0  0  0
101103  1  0  0  0  0
101323  1  0  0  0  0
102324  1  0  0  0  0
102325  1  0  0  0  0
102326  1  0  0  0  0
103327  1  0  0  0  0
103328  1  0  0  0  0
103329  1  0  0  0  0
104106  2  0  0  0  0
105108  1  0  0  0  0
105330  1  1  0  0  0
105107  1  0  0  0  0
105104  1  0  0  0  0
107331  1  0  0  0  0
107332  1  0  0  0  0
107333  1  0  0  0  0
108109  1  0  0  0  0
108334  1  0  0  0  0
109111  2  0  0  0  0
110113  1  0  0  0  0
110335  1  1  0  0  0
110112  1  0  0  0  0
110109  1  0  0  0  0
112114  1  0  0  0  0
112336  1  0  0  0  0
112337  1  0  0  0  0
113117  1  0  0  0  0
113338  1  0  0  0  0
114115  2  0  0  0  0
114116  1  0  0  0  0
116339  1  0  0  0  0
117119  2  0  0  0  0
118121  1  0  0  0  0
118340  1  6  0  0  0
118120  1  0  0  0  0
118117  1  0  0  0  0
120132  1  0  0  0  0
120341  1  0  0  0  0
120342  1  0  0  0  0
121122  1  0  0  0  0
121343  1  0  0  0  0
122123  2  0  0  0  0
122124  1  0  0  0  0
124125  1  0  0  0  0
124126  1  0  0  0  0
124344  1  1  0  0  0
125345  1  0  0  0  0
125346  1  0  0  0  0
126127  1  0  0  0  0
126347  1  0  0  0  0
126348  1  0  0  0  0
127128  1  0  0  0  0
127131  2  0  0  0  0
128129  1  0  0  0  0
128349  1  0  0  0  0
129130  2  0  0  0  0
129350  1  0  0  0  0
130131  1  0  0  0  0
131351  1  0  0  0  0
132352  1  0  0  0  0
133135  1  0  0  0  0
133353  1  6  0  0  0
133134  1  0  0  0  0
133  4  1  0  0  0  0
134139  1  0  0  0  0
134140  2  0  0  0  0
135136  1  0  0  0  0
135354  1  0  0  0  0
135355  1  0  0  0  0
136137  1  0  0  0  0
136356  1  0  0  0  0
136357  1  0  0  0  0
137138  1  0  0  0  0
138358  1  0  0  0  0
138359  1  0  0  0  0
138360  1  0  0  0  0
139361  1  0  0  0  0
141143  1  0  0  0  0
141362  1  6  0  0  0
141142  1  0  0  0  0
141139  1  0  0  0  0
142144  2  0  0  0  0
142145  1  0  0  0  0
143363  1  0  0  0  0
143364  1  0  0  0  0
143365  1  0  0  0  0
145366  1  0  0  0  0
146148  1  0  0  0  0
146367  1  6  0  0  0
146147  1  0  0  0  0
146145  1  0  0  0  0
147151  2  0  0  0  0
147152  1  0  0  0  0
148149  1  0  0  0  0
148150  1  0  0  0  0
148368  1  0  0  0  0
149369  1  0  0  0  0
149370  1  0  0  0  0
149371  1  0  0  0  0
150372  1  0  0  0  0
150373  1  0  0  0  0
150374  1  0  0  0  0
152375  1  0  0  0  0
153155  1  0  0  0  0
153376  1  1  0  0  0
153154  1  0  0  0  0
153152  1  0  0  0  0
154160  1  0  0  0  0
154161  2  0  0  0  0
155156  1  0  0  0  0
155377  1  0  0  0  0
155378  1  0  0  0  0
156157  1  0  0  0  0
156379  1  0  0  0  0
156380  1  0  0  0  0
157158  1  0  0  0  0
157381  1  0  0  0  0
157382  1  0  0  0  0
158159  1  0  0  0  0
158383  1  0  0  0  0
158384  1  0  0  0  0
159385  1  0  0  0  0
159386  1  0  0  0  0
160387  1  0  0  0  0
162164  1  0  0  0  0
162388  1  6  0  0  0
162163  1  0  0  0  0
162160  1  0  0  0  0
163165  2  0  0  0  0
163166  1  0  0  0  0
164167  1  0  0  0  0
164389  1  0  0  0  0
164390  1  0  0  0  0
166391  1  0  0  0  0
167168  1  0  0  0  0
167392  1  0  0  0  0
167393  1  0  0  0  0
168169  1  0  0  0  0
168394  1  0  0  0  0
168395  1  0  0  0  0
169170  1  0  0  0  0
169396  1  0  0  0  0
169397  1  0  0  0  0
170398  1  0  0  0  0
170399  1  0  0  0  0
171180  1  0  0  0  0
171400  1  1  0  0  0
171172  1  0  0  0  0
171166  1  0  0  0  0
172173  1  0  0  0  0
172174  2  0  0  0  0
173401  1  0  0  0  0
175173  1  0  0  0  0
175176  1  0  0  0  0
175188  1  0  0  0  0
175402  1  6  0  0  0
176177  1  0  0  0  0
176403  1  0  0  0  0
176404  1  0  0  0  0
177178  1  0  0  0  0
177179  1  0  0  0  0
177405  1  0  0  0  0
178406  1  0  0  0  0
178407  1  0  0  0  0
178408  1  0  0  0  0
179409  1  0  0  0  0
179410  1  0  0  0  0
179411  1  0  0  0  0
180181  1  0  0  0  0
180412  1  0  0  0  0
180413  1  0  0  0  0
181182  1  0  0  0  0
181186  2  0  0  0  0
182183  2  0  0  0  0
182414  1  0  0  0  0
183184  1  0  0  0  0
183415  1  0  0  0  0
184185  2  0  0  0  0
184187  1  0  0  0  0
185186  1  0  0  0  0
185416  1  0  0  0  0
186417  1  0  0  0  0
187418  1  0  0  0  0
188189  1  0  0  0  0
188190  2  0  0  0  0
189419  1  0  0  0  0
191193  1  0  0  0  0
191420  1  1  0  0  0
191192  1  0  0  0  0
191189  1  0  0  0  0
192197  2  0  0  0  0
192198  1  0  0  0  0
193194  1  0  0  0  0
193421  1  0  0  0  0
193422  1  0  0  0  0
194195  1  0  0  0  0
194196  2  0  0  0  0
195423  1  0  0  0  0
195424  1  0  0  0  0
198425  1  0  0  0  0
199201  1  0  0  0  0
199426  1  6  0  0  0
199200  1  0  0  0  0
199198  1  0  0  0  0
200203  2  0  0  0  0
200204  1  0  0  0  0
201202  1  0  0  0  0
201427  1  0  0  0  0
201428  1  0  0  0  0
202429  1  0  0  0  0
204430  1  0  0  0  0
205431  1  6  0  0  0
205206  1  0  0  0  0
205204  1  0  0  0  0
206211  2  0  0  0  0
206212  1  0  0  0  0
207209  1  0  0  0  0
207432  1  1  0  0  0
207208  1  0  0  0  0
207205  1  0  0  0  0
208210  1  0  0  0  0
208433  1  0  0  0  0
208434  1  0  0  0  0
209435  1  0  0  0  0
209436  1  0  0  0  0
209437  1  0  0  0  0
210438  1  0  0  0  0
210439  1  0  0  0  0
210440  1  0  0  0  0
212441  1  0  0  0  0
213215  1  0  0  0  0
213442  1  6  0  0  0
213214  1  0  0  0  0
213212  1  0  0  0  0
214219  2  0  0  0  0
214220  1  0  0  0  0
215216  1  0  0  0  0
215443  1  0  0  0  0
215444  1  0  0  0  0
216217  1  0  0  0  0
216218  1  0  0  0  0
216445  1  0  0  0  0
217446  1  0  0  0  0
217447  1  0  0  0  0
217448  1  0  0  0  0
218449  1  0  0  0  0
218450  1  0  0  0  0
218451  1  0  0  0  0
220452  1  0  0  0  0
221223  1  0  0  0  0
221453  1  1  0  0  0
221222  1  0  0  0  0
221220  1  0  0  0  0
222224  1  0  0  0  0
222225  2  0  0  0  0
223226  1  0  0  0  0
223454  1  0  0  0  0
223455  1  0  0  0  0
224456  1  0  0  0  0
226227  1  0  0  0  0
226228  2  0  0  0  0
227457  1  0  0  0  0
227458  1  0  0  0  0
229459  1  0  0  0  0
229460  1  0  0  0  0
229461  1  0  0  0  0
M  END
>  <DRUGBANK_ID>
DB06260

>  <COMMON_NAME>
Aviptadil

>  <CAS_NUMBER>
40077-57-4

>  <UNII>
A67JUW790C

>  <SYNONYMS>
Aviptadil; Porcine vasoactive intestinal octacosapeptide; Vasoactive intestinal octacosapeptide (pig); Vasoactive intestinal octacosapeptide (swine)

$$$$
