
 OpenBabel10282417133D

 19 19  0  0  0  0  0  0  0  0999 V2000
    2.2855   -0.0503    0.1208 O   0  0  0  0  0  0  0  0  0  0  0  0
    0.9365   -0.0394   -0.3293 C   0  0  0  0  0  0  0  0  0  0  0  0
    0.2057   -1.2796    0.1826 C   0  0  0  0  0  0  0  0  0  0  0  0
   -1.2666   -1.2491   -0.2163 C   0  0  0  0  0  0  0  0  0  0  0  0
   -1.9511    0.0277    0.2676 C   0  0  0  0  0  0  0  0  0  0  0  0
   -1.2127    1.2798   -0.2010 C   0  0  0  0  0  0  0  0  0  0  0  0
    0.2646    1.2356    0.1758 C   0  0  0  0  0  0  0  0  0  0  0  0
    2.7152   -0.8361   -0.2605 H   0  0  0  0  0  0  0  0  0  0  0  0
    0.9479   -0.0390   -1.4261 H   0  0  0  0  0  0  0  0  0  0  0  0
    0.6849   -2.1859   -0.2064 H   0  0  0  0  0  0  0  0  0  0  0  0
    0.2980   -1.3401    1.2752 H   0  0  0  0  0  0  0  0  0  0  0  0
   -1.3471   -1.3127   -1.3086 H   0  0  0  0  0  0  0  0  0  0  0  0
   -1.7822   -2.1242    0.1943 H   0  0  0  0  0  0  0  0  0  0  0  0
   -2.9850    0.0526   -0.0948 H   0  0  0  0  0  0  0  0  0  0  0  0
   -1.9968    0.0224    1.3637 H   0  0  0  0  0  0  0  0  0  0  0  0
   -1.3087    1.3732   -1.2897 H   0  0  0  0  0  0  0  0  0  0  0  0
   -1.6787    2.1690    0.2382 H   0  0  0  0  0  0  0  0  0  0  0  0
    0.3713    1.2993    1.2666 H   0  0  0  0  0  0  0  0  0  0  0  0
    0.7838    2.1140   -0.2253 H   0  0  0  0  0  0  0  0  0  0  0  0
  1  2  1  0  0  0  0
  1  8  1  0  0  0  0
  2  3  1  0  0  0  0
  2  7  1  0  0  0  0
  2  9  1  0  0  0  0
  3  4  1  0  0  0  0
  3 10  1  0  0  0  0
  3 11  1  0  0  0  0
  4  5  1  0  0  0  0
  4 12  1  0  0  0  0
  4 13  1  0  0  0  0
  5  6  1  0  0  0  0
  5 14  1  0  0  0  0
  5 15  1  0  0  0  0
  6  7  1  0  0  0  0
  6 16  1  0  0  0  0
  6 17  1  0  0  0  0
  7 18  1  0  0  0  0
  7 19  1  0  0  0  0
M  END
>  <DRUGBANK_ID>
DB03703

>  <SECONDARY_ACCESSION_NUMBERS>
EXPT01066

>  <COMMON_NAME>
Cyclohexanol

>  <CAS_NUMBER>
108-93-0

>  <UNII>
8E7S519M3P

$$$$
