THN
 OpenBabel10282417173D

 37 38  0  0  0  0  0  0  0  0999 V2000
   -1.1995    1.3611   -0.1898 S   0  0  0  0  0  0  0  0  0  0  0  0
    0.5093    1.6165    0.0611 C   0  0  0  0  0  0  0  0  0  0  0  0
    1.4289    0.4642    0.0366 C   0  0  0  0  0  0  0  0  0  0  0  0
    2.7379    0.7702   -0.0849 C   0  0  0  0  0  0  0  0  0  0  0  0
    0.9684   -0.9467    0.2008 C   0  0  1  0  0  0  0  0  0  0  0  0
    1.6663   -1.6591    1.4003 C   0  0  0  0  0  0  0  0  0  0  0  0
    0.9471   -2.7030    1.8891 O   0  0  0  0  0  0  0  0  0  0  0  0
    2.7756   -1.3932    1.8455 O   0  0  0  0  0  0  0  0  0  0  0  0
   -0.4822   -1.1904    0.3335 N   0  0  0  0  0  0  0  0  0  0  0  0
   -1.4096   -0.3195    0.1521 C   0  0  0  0  0  0  0  0  0  0  0  0
   -2.9098   -0.7013    0.1603 C   0  0  1  0  0  0  0  0  0  0  0  0
   -3.5862   -0.0819    1.3643 C   0  0  0  0  0  0  0  0  0  0  0  0
   -4.4920    0.7508    1.3609 O   0  0  0  0  0  0  0  0  0  0  0  0
   -3.0587   -0.5187    2.5233 O   0  0  0  0  0  0  0  0  0  0  0  0
   -3.5823   -0.2522   -1.0911 N   0  0  0  0  0  0  0  0  0  0  0  0
   -4.1604   -1.0040   -2.0788 C   0  0  0  0  0  0  0  0  0  0  0  0
   -4.6420   -0.4420   -3.0624 O   0  0  0  0  0  0  0  0  0  0  0  0
   -4.1599   -2.5186   -1.9353 C   0  0  0  0  0  0  0  0  0  0  0  0
   -2.7504   -3.0504   -1.9964 C   0  0  0  0  0  0  0  0  0  0  0  0
   -1.5744   -2.3493   -2.1819 C   0  0  0  0  0  0  0  0  0  0  0  0
   -0.4208   -3.1486   -2.0163 C   0  0  0  0  0  0  0  0  0  0  0  0
   -0.7326   -4.4681   -1.8187 C   0  0  0  0  0  0  0  0  0  0  0  0
   -2.4257   -4.7213   -1.7850 S   0  0  0  0  0  0  0  0  0  0  0  0
    1.3318   -1.4817   -0.6862 H   0  0  0  0  0  0  0  0  0  0  0  0
   -3.0228   -1.7821    0.2623 H   0  0  0  0  0  0  0  0  0  0  0  0
    0.6400    2.1407    1.0084 H   0  0  0  0  0  0  0  0  0  0  0  0
    0.7743    2.2807   -0.7670 H   0  0  0  0  0  0  0  0  0  0  0  0
    3.5237    0.0197   -0.0787 H   0  0  0  0  0  0  0  0  0  0  0  0
    3.0639    1.8069   -0.1021 H   0  0  0  0  0  0  0  0  0  0  0  0
    0.0882   -2.7512    1.4166 H   0  0  0  0  0  0  0  0  0  0  0  0
   -3.5281   -0.0238    3.2278 H   0  0  0  0  0  0  0  0  0  0  0  0
   -3.5679    0.7459   -1.2907 H   0  0  0  0  0  0  0  0  0  0  0  0
   -4.6568   -2.7612   -0.9878 H   0  0  0  0  0  0  0  0  0  0  0  0
   -4.7611   -2.9493   -2.7432 H   0  0  0  0  0  0  0  0  0  0  0  0
   -1.5297   -1.2763   -2.3255 H   0  0  0  0  0  0  0  0  0  0  0  0
    0.5895   -2.7706   -2.0370 H   0  0  0  0  0  0  0  0  0  0  0  0
   -0.0278   -5.2786   -1.6975 H   0  0  0  0  0  0  0  0  0  0  0  0
  1  2  1  0  0  0  0
  1 10  1  0  0  0  0
  2  3  1  0  0  0  0
  2 26  1  0  0  0  0
  2 27  1  0  0  0  0
  3  4  2  0  0  0  0
  3  5  1  0  0  0  0
  4 28  1  0  0  0  0
  4 29  1  0  0  0  0
  5  9  1  0  0  0  0
  5 24  1  6  0  0  0
  5  6  1  0  0  0  0
  6  7  1  0  0  0  0
  6  8  2  0  0  0  0
  7 30  1  0  0  0  0
  9 10  2  0  0  0  0
 10 11  1  0  0  0  0
 11 12  1  0  0  0  0
 11 15  1  0  0  0  0
 11 25  1  1  0  0  0
 12 13  2  0  0  0  0
 12 14  1  0  0  0  0
 14 31  1  0  0  0  0
 15 16  1  0  0  0  0
 15 32  1  0  0  0  0
 16 17  2  0  0  0  0
 16 18  1  0  0  0  0
 18 19  1  0  0  0  0
 18 33  1  0  0  0  0
 18 34  1  0  0  0  0
 19 20  2  0  0  0  0
 19 23  1  0  0  0  0
 20 21  1  0  0  0  0
 20 35  1  0  0  0  0
 21 22  2  0  0  0  0
 21 36  1  0  0  0  0
 22 23  1  0  0  0  0
 22 37  1  0  0  0  0
M  END
>  <DRUGBANK_ID>
DB08623

>  <COMMON_NAME>
2-[CARBOXY-(2-THIOPHEN-2-YL-ACETYLAMINO)-METHYL]-5-METHYLENE-5,6-DIHYDRO-2H-[1,3]THIAZINE-4-CARBOXYLIC ACID

$$$$
