
 OpenBabel10282417123D

 40 40  0  0  1  0  0  0  0  0999 V2000
   -5.2165   -7.3365   -5.8133 C   0  0  0  0  0  0  0  0  0  0  0  0
   -7.6013   -7.8230   -5.2792 C   0  0  0  0  0  0  0  0  0  0  0  0
   -3.9966   -1.2755   -1.8470 C   0  0  0  0  0  0  0  0  0  0  0  0
   -1.3427   -5.3496   -3.6207 C   0  0  0  0  0  0  0  0  0  0  0  0
   -1.1502   -4.5699   -4.9160 C   0  0  0  0  0  0  0  0  0  0  0  0
   -6.0037   -7.1421   -3.4138 C   0  0  0  0  0  0  0  0  0  0  0  0
   -6.3865   -6.9669   -4.9014 C   0  0  0  0  0  0  0  0  0  0  0  0
   -4.4266   -1.9617   -3.1381 C   0  0  2  0  0  0  0  0  0  0  0  0
   -4.8673   -6.2228   -3.0308 C   0  0  0  0  0  0  0  0  0  0  0  0
   -3.5270   -3.1183   -3.6715 C   0  0  1  0  0  0  0  0  0  0  0  0
   -3.4230   -6.6712   -3.0746 C   0  0  0  0  0  0  0  0  0  0  0  0
   -3.5917   -4.4137   -2.7692 C   0  0  1  0  0  0  0  0  0  0  0  0
   -3.9331   -3.4106   -5.0857 N   0  0  0  0  0  0  0  0  0  0  0  0
   -4.9857   -4.9450   -2.8244 N   0  0  0  0  0  0  0  0  0  0  0  0
   -2.7470   -5.4981   -3.2277 N   0  0  0  0  0  0  0  0  0  0  0  0
   -0.4701   -3.5508   -5.0033 O   0  0  0  0  0  0  0  0  0  0  0  0
   -4.5204   -0.9075   -4.1156 O   0  0  0  0  0  0  0  0  0  0  0  0
   -3.0426   -7.8197   -3.0182 O   0  0  0  0  0  0  0  0  0  0  0  0
   -3.1476   -4.1099   -1.4689 O   0  0  0  0  0  0  0  0  0  0  0  0
   -5.4405   -2.3486   -3.0036 H   0  0  0  0  0  0  0  0  0  0  0  0
   -2.4967   -2.7436   -3.6771 H   0  0  0  0  0  0  0  0  0  0  0  0
   -4.9293   -8.3831   -5.6667 H   0  0  0  0  0  0  0  0  0  0  0  0
   -4.3438   -6.7109   -5.6118 H   0  0  0  0  0  0  0  0  0  0  0  0
   -5.4764   -7.1946   -6.8667 H   0  0  0  0  0  0  0  0  0  0  0  0
   -7.3963   -8.8892   -5.1346 H   0  0  0  0  0  0  0  0  0  0  0  0
   -8.4791   -7.5591   -4.6810 H   0  0  0  0  0  0  0  0  0  0  0  0
   -7.8657   -7.6781   -6.3344 H   0  0  0  0  0  0  0  0  0  0  0  0
   -3.0560   -0.7267   -1.9706 H   0  0  0  0  0  0  0  0  0  0  0  0
   -4.7531   -0.5244   -1.5884 H   0  0  0  0  0  0  0  0  0  0  0  0
   -3.9109   -1.9468   -0.9932 H   0  0  0  0  0  0  0  0  0  0  0  0
   -0.7745   -4.8658   -2.8228 H   0  0  0  0  0  0  0  0  0  0  0  0
   -0.9186   -6.3413   -3.8120 H   0  0  0  0  0  0  0  0  0  0  0  0
   -1.6461   -4.9859   -5.8109 H   0  0  0  0  0  0  0  0  0  0  0  0
   -6.8712   -6.8897   -2.7920 H   0  0  0  0  0  0  0  0  0  0  0  0
   -5.7434   -8.1853   -3.2051 H   0  0  0  0  0  0  0  0  0  0  0  0
   -6.6475   -5.9156   -5.0834 H   0  0  0  0  0  0  0  0  0  0  0  0
   -3.5293   -4.2790   -5.4110 H   0  0  0  0  0  0  0  0  0  0  0  0
   -4.9400   -3.5899   -5.0633 H   0  0  0  0  0  0  0  0  0  0  0  0
   -3.6108   -0.6337   -4.3306 H   0  0  0  0  0  0  0  0  0  0  0  0
   -3.3995   -4.8589   -0.9092 H   0  0  0  0  0  0  0  0  0  0  0  0
  1 22  1  0  0  0  0
  1 23  1  0  0  0  0
  1 24  1  0  0  0  0
  2 25  1  0  0  0  0
  2 26  1  0  0  0  0
  2 27  1  0  0  0  0
  3 28  1  0  0  0  0
  3 29  1  0  0  0  0
  3 30  1  0  0  0  0
  4 31  1  0  0  0  0
  4 32  1  0  0  0  0
  5  4  1  0  0  0  0
  5 33  1  0  0  0  0
  6 34  1  0  0  0  0
  6 35  1  0  0  0  0
  7  1  1  0  0  0  0
  7  2  1  0  0  0  0
  7  6  1  0  0  0  0
  7 36  1  0  0  0  0
  8  3  1  0  0  0  0
  8 17  1  0  0  0  0
  8 20  1  1  0  0  0
  9  6  1  0  0  0  0
 10 13  1  0  0  0  0
 10 21  1  6  0  0  0
 10  8  1  0  0  0  0
 11  9  1  0  0  0  0
 12 10  1  0  0  0  0
 12 19  1  1  0  0  0
 13 37  1  0  0  0  0
 13 38  1  0  0  0  0
 14  9  2  0  0  0  0
 14 12  1  0  0  0  0
 15  4  1  0  0  0  0
 15 11  1  0  0  0  0
 15 12  1  0  0  0  0
 16  5  2  0  0  0  0
 17 39  1  0  0  0  0
 18 11  2  0  0  0  0
 19 40  1  0  0  0  0
M  END
>  <DRUGBANK_ID>
DB02488

>  <SECONDARY_ACCESSION_NUMBERS>
EXPT01009

>  <COMMON_NAME>
1-(2-Ethanone)-2-Hydroxy-2-(1-Amino-2-Methyl-2-Ethanol)-4-(2-Dimethyl)Ethane-Imidazoline-5-One;Chromophore (Thr-Leu-Gly)

$$$$
