
 OpenBabel10282417133D

 62 64  0  0  0  0  0  0  0  0999 V2000
   -1.3659    5.9079   -1.9399 S   0  0  0  0  0  0  0  0  0  0  0  0
   -0.0378    5.1952   -5.2909 O   0  0  0  0  0  0  0  0  0  0  0  0
   -1.5204    3.3090   -2.2814 O   0  0  0  0  0  0  0  0  0  0  0  0
   -1.6238    1.5915    2.5824 O   0  0  0  0  0  0  0  0  0  0  0  0
    0.2940    7.6368   -0.8897 O   0  0  0  0  0  0  0  0  0  0  0  0
    2.2566    7.0207   -0.0623 O   0  0  0  0  0  0  0  0  0  0  0  0
    2.6766   -0.0982    0.0318 O   0  0  0  0  0  0  0  0  0  0  0  0
    0.5039   -0.6811   -0.0574 O   0  0  0  0  0  0  0  0  0  0  0  0
   -2.1113    2.2771    0.5571 N   0  0  0  0  0  0  0  0  0  0  0  0
   -0.0240    2.1014   -0.9470 N   0  0  0  0  0  0  0  0  0  0  0  0
    1.2811    4.2173   -0.2130 N   0  0  0  0  0  0  0  0  0  0  0  0
    0.4530    5.1833   -2.9749 C   0  0  2  0  0  0  0  0  0  0  0  0
   -0.3665    4.5050   -4.1091 C   0  0  2  0  0  0  0  0  0  0  0  0
    1.8405    4.3202   -2.6675 C   0  0  0  0  0  0  0  0  0  0  0  0
   -0.4876    2.9187   -4.2340 C   0  0  0  0  0  0  0  0  0  0  0  0
    1.8644    2.8987   -2.9458 C   0  0  0  0  0  0  0  0  0  0  0  0
    0.5371    2.1120   -3.6694 C   0  0  0  0  0  0  0  0  0  0  0  0
   -1.8635    4.6937   -0.3293 C   0  0  0  0  0  0  0  0  0  0  0  0
    3.0578    4.9168   -1.9858 C   0  0  0  0  0  0  0  0  0  0  0  0
   -2.3077    3.2648   -0.4260 C   0  0  1  0  0  0  0  0  0  0  0  0
   -1.9369    2.3478   -4.2829 C   0  0  0  0  0  0  0  0  0  0  0  0
    2.9129    2.1968   -2.1828 C   0  0  0  0  0  0  0  0  0  0  0  0
   -0.0144    0.7412   -3.2147 C   0  0  0  0  0  0  0  0  0  0  0  0
    4.0152    4.1617   -1.2351 C   0  0  0  0  0  0  0  0  0  0  0  0
    3.8854    2.7912   -1.2685 C   0  0  0  0  0  0  0  0  0  0  0  0
   -2.3888    1.1118   -3.7185 C   0  0  0  0  0  0  0  0  0  0  0  0
   -1.4194    0.3127   -3.1476 C   0  0  0  0  0  0  0  0  0  0  0  0
   -1.2496    2.7567   -1.3125 C   0  0  0  0  0  0  0  0  0  0  0  0
   -1.2990    4.0435    2.2239 C   0  0  0  0  0  0  0  0  0  0  0  0
   -1.6591    2.5439    1.8091 C   0  0  0  0  0  0  0  0  0  0  0  0
    0.1094    4.9028    1.6763 C   0  0  0  0  0  0  0  0  0  0  0  0
    0.5588    5.3541    0.2127 C   0  0  1  0  0  0  0  0  0  0  0  0
    0.9447    1.6338    0.1510 C   0  0  0  0  0  0  0  0  0  0  0  0
    1.0803    6.7359   -0.2290 C   0  0  0  0  0  0  0  0  0  0  0  0
    1.3491    0.1889    0.0719 C   0  0  0  0  0  0  0  0  0  0  0  0
    0.8963    6.1750   -3.2438 H   0  0  0  0  0  0  0  0  0  0  0  0
   -1.9699    1.3211    0.1828 H   0  0  0  0  0  0  0  0  0  0  0  0
    0.5521    1.9182   -1.7300 H   0  0  0  0  0  0  0  0  0  0  0  0
    0.6578    3.4808   -0.5507 H   0  0  0  0  0  0  0  0  0  0  0  0
    2.0776    3.9260    0.2899 H   0  0  0  0  0  0  0  0  0  0  0  0
   -0.1588    6.1253   -5.0098 H   0  0  0  0  0  0  0  0  0  0  0  0
   -0.5764    7.3840   -1.2986 H   0  0  0  0  0  0  0  0  0  0  0  0
    3.3501    0.6080   -0.0217 H   0  0  0  0  0  0  0  0  0  0  0  0
   -1.3926    4.8602   -3.9611 H   0  0  0  0  0  0  0  0  0  0  0  0
   -1.0262    4.2560    0.1507 H   0  0  0  0  0  0  0  0  0  0  0  0
   -2.1263    5.4257    0.4397 H   0  0  0  0  0  0  0  0  0  0  0  0
    3.1871    5.9940   -1.8497 H   0  0  0  0  0  0  0  0  0  0  0  0
   -3.2861    3.2987   -0.8861 H   0  0  0  0  0  0  0  0  0  0  0  0
   -2.7723    3.0780   -4.2770 H   0  0  0  0  0  0  0  0  0  0  0  0
    2.8294    1.1160   -2.1029 H   0  0  0  0  0  0  0  0  0  0  0  0
    0.5548    0.1037   -2.5224 H   0  0  0  0  0  0  0  0  0  0  0  0
    4.7332    4.6247   -0.5350 H   0  0  0  0  0  0  0  0  0  0  0  0
    4.4384    2.2279   -0.4953 H   0  0  0  0  0  0  0  0  0  0  0  0
   -3.4665    0.9153   -3.5826 H   0  0  0  0  0  0  0  0  0  0  0  0
   -1.7289   -0.5373   -2.5043 H   0  0  0  0  0  0  0  0  0  0  0  0
   -2.2342    4.6010    2.0529 H   0  0  0  0  0  0  0  0  0  0  0  0
   -1.2718    4.0558    3.3185 H   0  0  0  0  0  0  0  0  0  0  0  0
    0.1404    5.8576    2.1876 H   0  0  0  0  0  0  0  0  0  0  0  0
    0.9251    4.2580    2.0365 H   0  0  0  0  0  0  0  0  0  0  0  0
    0.0618    5.1032   -0.6782 H   0  0  0  0  0  0  0  0  0  0  0  0
    1.9196    2.1122   -0.0040 H   0  0  0  0  0  0  0  0  0  0  0  0
    0.6157    2.0130    1.0960 H   0  0  0  0  0  0  0  0  0  0  0  0
  1 18  1  0  0  0  0
  2 41  1  0  0  0  0
  3 28  2  0  0  0  0
  4 30  2  0  0  0  0
  5 34  1  0  0  0  0
  5 42  1  0  0  0  0
  6 34  2  0  0  0  0
  7 35  1  0  0  0  0
  7 43  1  0  0  0  0
  8 35  2  0  0  0  0
  9 30  1  0  0  0  0
  9 37  1  0  0  0  0
 10 28  1  0  0  0  0
 10 33  1  0  0  0  0
 10 38  1  0  0  0  0
 11 39  1  0  0  0  0
 11 40  1  0  0  0  0
 12 13  1  0  0  0  0
 12 14  1  0  0  0  0
 12 36  1  6  0  0  0
 12  1  1  0  0  0  0
 13 15  1  0  0  0  0
 13 44  1  1  0  0  0
 13  2  1  0  0  0  0
 14 16  1  0  0  0  0
 14 19  2  0  0  0  0
 15 17  1  0  0  0  0
 15 21  2  0  0  0  0
 16 17  1  0  0  0  0
 16 22  2  0  0  0  0
 17 23  2  0  0  0  0
 18 45  1  0  0  0  0
 18 46  1  0  0  0  0
 19 24  1  0  0  0  0
 19 47  1  0  0  0  0
 20 28  1  0  0  0  0
 20 48  1  6  0  0  0
 20 18  1  0  0  0  0
 20  9  1  0  0  0  0
 21 26  1  0  0  0  0
 21 49  1  0  0  0  0
 22 25  1  0  0  0  0
 22 50  1  0  0  0  0
 23 27  1  0  0  0  0
 23 51  1  0  0  0  0
 24 25  2  0  0  0  0
 24 52  1  0  0  0  0
 25 53  1  0  0  0  0
 26 27  2  0  0  0  0
 26 54  1  0  0  0  0
 27 55  1  0  0  0  0
 29 30  1  0  0  0  0
 29 31  1  0  0  0  0
 29 56  1  0  0  0  0
 29 57  1  0  0  0  0
 31 58  1  0  0  0  0
 31 59  1  0  0  0  0
 32 34  1  0  0  0  0
 32 60  1  6  0  0  0
 32 31  1  0  0  0  0
 32 11  1  0  0  0  0
 33 35  1  0  0  0  0
 33 61  1  0  0  0  0
 33 62  1  0  0  0  0
M  END
>  <DRUGBANK_ID>
DB04187

>  <SECONDARY_ACCESSION_NUMBERS>
EXPT01642

>  <COMMON_NAME>
(9S,10S)-9-(S-glutathionyl)-10-hydroxy-9,10-dihydrophenanthrene

$$$$
