
 OpenBabel10282417213D

 47 48  0  0  0  0  0  0  0  0999 V2000
    0.4051   -1.3532   -0.0611 C   0  0  0  0  0  0  0  0  0  0  0  0
   -1.1332   -1.3569   -0.1334 C   0  0  0  0  0  0  0  0  0  0  0  0
    0.3865    1.1699   -0.0964 C   0  0  0  0  0  0  0  0  0  0  0  0
    1.0760    0.0148   -0.0370 C   0  0  0  0  0  0  0  0  0  0  0  0
   -1.1182    1.2094   -0.1565 C   0  0  2  0  0  0  0  0  0  0  0  0
   -1.7614   -0.0813    0.4484 C   0  0  2  0  0  0  0  0  0  0  0  0
   -1.6998   -0.1261    1.9886 C   0  0  0  0  0  0  0  0  0  0  0  0
   -0.2173   -0.2446   -2.5729 O   0  0  0  0  0  0  0  0  0  0  0  0
   -1.5636    1.5069   -1.5855 C   0  0  0  0  0  0  0  0  0  0  0  0
   -1.1892    0.7050   -2.6836 C   0  0  0  0  0  0  0  0  0  0  0  0
   -1.7031    0.8894   -3.9561 C   0  0  0  0  0  0  0  0  0  0  0  0
   -2.4695    2.0122   -4.2167 C   0  0  0  0  0  0  0  0  0  0  0  0
   -2.6970    2.9266   -3.1782 C   0  0  0  0  0  0  0  0  0  0  0  0
   -2.3363    2.6332   -1.8670 C   0  0  0  0  0  0  0  0  0  0  0  0
    2.5652    0.0099    0.0514 C   0  0  0  0  0  0  0  0  0  0  0  0
   -2.8237   -0.0861    0.1548 H   0  0  0  0  0  0  0  0  0  0  0  0
   -2.8268   -0.2413    2.7209 C   0  0  0  0  0  0  0  0  0  0  0  0
   -0.3749   -0.0479    2.7063 C   0  0  0  0  0  0  0  0  0  0  0  0
   -2.7303    3.4759   -0.8646 O   0  0  0  0  0  0  0  0  0  0  0  0
   -2.9992    2.2354   -5.6052 C   0  0  0  0  0  0  0  0  0  0  0  0
   -4.5298    2.2152   -5.6779 C   0  0  0  0  0  0  0  0  0  0  0  0
   -5.2008    3.3235   -4.8787 C   0  0  0  0  0  0  0  0  0  0  0  0
    0.8062   -1.9401   -0.8952 H   0  0  0  0  0  0  0  0  0  0  0  0
    0.7003   -1.9099    0.8324 H   0  0  0  0  0  0  0  0  0  0  0  0
   -1.5305   -2.2516    0.3604 H   0  0  0  0  0  0  0  0  0  0  0  0
   -1.4682   -1.4883   -1.1683 H   0  0  0  0  0  0  0  0  0  0  0  0
    0.8841    2.1366   -0.1008 H   0  0  0  0  0  0  0  0  0  0  0  0
   -1.4383    2.0372    0.4932 H   0  0  0  0  0  0  0  0  0  0  0  0
   -0.3701   -0.9573   -3.2088 H   0  0  0  0  0  0  0  0  0  0  0  0
   -1.4465    0.1932   -4.7487 H   0  0  0  0  0  0  0  0  0  0  0  0
   -3.1824    3.8723   -3.3901 H   0  0  0  0  0  0  0  0  0  0  0  0
    2.8730   -0.4458    0.9968 H   0  0  0  0  0  0  0  0  0  0  0  0
    2.9824   -0.5660   -0.7784 H   0  0  0  0  0  0  0  0  0  0  0  0
    2.9847    1.0205    0.0095 H   0  0  0  0  0  0  0  0  0  0  0  0
   -2.7753   -0.2899    3.8018 H   0  0  0  0  0  0  0  0  0  0  0  0
   -3.8035   -0.2902    2.2591 H   0  0  0  0  0  0  0  0  0  0  0  0
    0.2571   -0.9088    2.4877 H   0  0  0  0  0  0  0  0  0  0  0  0
    0.1628    0.8694    2.4542 H   0  0  0  0  0  0  0  0  0  0  0  0
   -0.4848   -0.0505    3.7927 H   0  0  0  0  0  0  0  0  0  0  0  0
   -3.2956    4.1742   -1.2354 H   0  0  0  0  0  0  0  0  0  0  0  0
   -2.5889    3.1728   -5.9950 H   0  0  0  0  0  0  0  0  0  0  0  0
   -2.6228    1.4426   -6.2682 H   0  0  0  0  0  0  0  0  0  0  0  0
   -4.8222    2.3200   -6.7284 H   0  0  0  0  0  0  0  0  0  0  0  0
   -4.9080    1.2451   -5.3323 H   0  0  0  0  0  0  0  0  0  0  0  0
   -4.7558    4.2957   -5.1171 H   0  0  0  0  0  0  0  0  0  0  0  0
   -6.2716    3.3662   -5.0799 H   0  0  0  0  0  0  0  0  0  0  0  0
   -5.1150    3.1454   -3.8031 H   0  0  0  0  0  0  0  0  0  0  0  0
  1  2  1  0  0  0  0
  1  4  1  0  0  0  0
  1 23  1  0  0  0  0
  1 24  1  0  0  0  0
  2 25  1  0  0  0  0
  2 26  1  0  0  0  0
  3  4  2  0  0  0  0
  3 27  1  0  0  0  0
  4 15  1  0  0  0  0
  5  3  1  0  0  0  0
  5  6  1  0  0  0  0
  5 28  1  1  0  0  0
  5  9  1  0  0  0  0
  6  2  1  0  0  0  0
  6  7  1  0  0  0  0
  6 16  1  6  0  0  0
  7 17  2  0  0  0  0
  7 18  1  0  0  0  0
  8 10  1  0  0  0  0
  8 29  1  0  0  0  0
  9 10  2  0  0  0  0
 10 11  1  0  0  0  0
 11 12  2  0  0  0  0
 11 30  1  0  0  0  0
 12 13  1  0  0  0  0
 12 20  1  0  0  0  0
 13 14  2  0  0  0  0
 13 31  1  0  0  0  0
 14  9  1  0  0  0  0
 14 19  1  0  0  0  0
 15 32  1  0  0  0  0
 15 33  1  0  0  0  0
 15 34  1  0  0  0  0
 17 35  1  0  0  0  0
 17 36  1  0  0  0  0
 18 37  1  0  0  0  0
 18 38  1  0  0  0  0
 18 39  1  0  0  0  0
 19 40  1  0  0  0  0
 20 21  1  0  0  0  0
 20 41  1  0  0  0  0
 20 42  1  0  0  0  0
 21 22  1  0  0  0  0
 21 43  1  0  0  0  0
 21 44  1  0  0  0  0
 22 45  1  0  0  0  0
 22 46  1  0  0  0  0
 22 47  1  0  0  0  0
M  END
>  <DRUGBANK_ID>
DB14050

>  <COMMON_NAME>
Cannabidivarin

>  <CAS_NUMBER>
24274-48-4

>  <UNII>
I198VBV98I

>  <SYNONYMS>
2-[(1R,6R)-3-methyl-6-prop-1-en-2-ylcyclohex-2-en-1-yl]-5-propylbenzene-1,3-diol; cannabidivarine; Cannabidivarol; CBD-V; CBDV

$$$$
