626
 OpenBabel10282417163D

 56 60  0  0  0  0  0  0  0  0999 V2000
    0.9371    0.0548    0.0643 C   0  0  0  0  0  0  0  0  0  0  0  0
    0.2218    0.8895   -0.4846 O   0  0  0  0  0  0  0  0  0  0  0  0
    0.3196   -1.0886    0.5573 N   0  0  0  0  0  0  0  0  0  0  0  0
   -2.0599   -3.7592    0.6053 N   0  0  0  0  0  0  0  0  0  0  0  0
   -0.8803   -4.0374    2.4311 C   0  0  0  0  0  0  0  0  0  0  0  0
   -1.9224   -4.5648    1.7007 N   0  0  0  0  0  0  0  0  0  0  0  0
   -0.4300   -4.5606    3.6481 N   0  0  0  0  0  0  0  0  0  0  0  0
   -0.9517   -5.7143    4.2213 C   0  0  0  0  0  0  0  0  0  0  0  0
   -0.4095   -6.1643    5.5471 C   0  0  0  0  0  0  0  0  0  0  0  0
   -1.8372   -6.4232    3.7508 O   0  0  0  0  0  0  0  0  0  0  0  0
   -0.1678   -5.2868    6.6050 C   0  0  0  0  0  0  0  0  0  0  0  0
    0.1019   -5.7904    7.8982 C   0  0  0  0  0  0  0  0  0  0  0  0
   -0.0969   -8.0310    7.1007 C   0  0  0  0  0  0  0  0  0  0  0  0
   -0.3495   -7.5439    5.8049 C   0  0  0  0  0  0  0  0  0  0  0  0
   -1.1374   -2.7875    0.6741 C   0  0  0  0  0  0  0  0  0  0  0  0
   -0.3067   -2.8612    1.7726 C   0  0  0  0  0  0  0  0  0  0  0  0
    0.6014   -1.8419    1.7307 C   0  0  0  0  0  0  0  0  0  0  0  0
   -0.7828   -1.7181   -0.0452 C   0  0  0  0  0  0  0  0  0  0  0  0
    0.5378   -7.6414    9.4055 N   0  0  0  0  0  0  0  0  0  0  0  0
   -0.2107   -7.3693   10.6390 C   0  0  0  0  0  0  0  0  0  0  0  0
    0.7419   -6.8743   11.7553 C   0  0  0  0  0  0  0  0  0  0  0  0
    1.8536   -7.8261   11.9888 N   0  0  0  0  0  0  0  0  0  0  0  0
    2.6171   -7.9489   10.7253 C   0  0  0  0  0  0  0  0  0  0  0  0
    1.7366   -8.4802    9.5608 C   0  0  0  0  0  0  0  0  0  0  0  0
    2.7078   -7.3799   13.0839 C   0  0  0  0  0  0  0  0  0  0  0  0
    0.1670   -7.1660    8.1673 C   0  0  0  0  0  0  0  0  0  0  0  0
    4.0024    3.0757   -1.7688 C   0  0  0  0  0  0  0  0  0  0  0  0
    3.1382    3.6049   -0.8374 C   0  0  0  0  0  0  0  0  0  0  0  0
    4.1084    1.3715   -1.6589 S   0  0  0  0  0  0  0  0  0  0  0  0
    2.5674    2.5991   -0.0169 C   0  0  0  0  0  0  0  0  0  0  0  0
    2.9647    1.3299   -0.3894 C   0  0  0  0  0  0  0  0  0  0  0  0
    2.4472    0.0301    0.1458 C   0  0  0  0  0  0  0  0  0  0  0  0
   -2.7599   -3.9410   -0.1049 H   0  0  0  0  0  0  0  0  0  0  0  0
    0.3395   -4.0748    4.0812 H   0  0  0  0  0  0  0  0  0  0  0  0
   -0.2345   -4.2134    6.4646 H   0  0  0  0  0  0  0  0  0  0  0  0
    0.2731   -5.0881    8.7104 H   0  0  0  0  0  0  0  0  0  0  0  0
   -0.1629   -9.1024    7.2830 H   0  0  0  0  0  0  0  0  0  0  0  0
   -0.5349   -8.2548    5.0003 H   0  0  0  0  0  0  0  0  0  0  0  0
    1.3714   -1.5196    2.4154 H   0  0  0  0  0  0  0  0  0  0  0  0
   -1.1707   -1.3094   -0.9721 H   0  0  0  0  0  0  0  0  0  0  0  0
   -0.6857   -8.3016   10.9752 H   0  0  0  0  0  0  0  0  0  0  0  0
   -1.0096   -6.6369   10.4842 H   0  0  0  0  0  0  0  0  0  0  0  0
    0.1657   -6.7415   12.6782 H   0  0  0  0  0  0  0  0  0  0  0  0
    1.1440   -5.8918   11.4724 H   0  0  0  0  0  0  0  0  0  0  0  0
    3.0276   -6.9684   10.4448 H   0  0  0  0  0  0  0  0  0  0  0  0
    3.4657   -8.6287   10.8649 H   0  0  0  0  0  0  0  0  0  0  0  0
    1.4391   -9.5142    9.7737 H   0  0  0  0  0  0  0  0  0  0  0  0
    2.3419   -8.4861    8.6467 H   0  0  0  0  0  0  0  0  0  0  0  0
    3.5156   -8.0998   13.2585 H   0  0  0  0  0  0  0  0  0  0  0  0
    3.1535   -6.3983   12.8918 H   0  0  0  0  0  0  0  0  0  0  0  0
    2.1346   -7.3240   14.0165 H   0  0  0  0  0  0  0  0  0  0  0  0
    4.5691    3.6050   -2.5208 H   0  0  0  0  0  0  0  0  0  0  0  0
    2.9046    4.6584   -0.7555 H   0  0  0  0  0  0  0  0  0  0  0  0
    1.8235    2.7833    0.7503 H   0  0  0  0  0  0  0  0  0  0  0  0
    2.7999   -0.1038    1.1722 H   0  0  0  0  0  0  0  0  0  0  0  0
    2.8044   -0.8123   -0.4622 H   0  0  0  0  0  0  0  0  0  0  0  0
  1  2  2  0  0  0  0
  1  3  1  0  0  0  0
  1 32  1  0  0  0  0
  3 17  1  0  0  0  0
  3 18  1  0  0  0  0
  4  6  1  0  0  0  0
  4 15  1  0  0  0  0
  4 33  1  0  0  0  0
  5  6  2  0  0  0  0
  5  7  1  0  0  0  0
  5 16  1  0  0  0  0
  7  8  1  0  0  0  0
  7 34  1  0  0  0  0
  8  9  1  0  0  0  0
  8 10  2  0  0  0  0
  9 11  2  0  0  0  0
  9 14  1  0  0  0  0
 11 12  1  0  0  0  0
 11 35  1  0  0  0  0
 12 26  2  0  0  0  0
 12 36  1  0  0  0  0
 13 14  2  0  0  0  0
 13 26  1  0  0  0  0
 13 37  1  0  0  0  0
 14 38  1  0  0  0  0
 15 16  1  0  0  0  0
 15 18  2  0  0  0  0
 16 17  2  0  0  0  0
 17 39  1  0  0  0  0
 18 40  1  0  0  0  0
 19 20  1  0  0  0  0
 19 24  1  0  0  0  0
 19 26  1  0  0  0  0
 20 21  1  0  0  0  0
 20 41  1  0  0  0  0
 20 42  1  0  0  0  0
 21 22  1  0  0  0  0
 21 43  1  0  0  0  0
 21 44  1  0  0  0  0
 22 23  1  0  0  0  0
 22 25  1  0  0  0  0
 23 24  1  0  0  0  0
 23 45  1  0  0  0  0
 23 46  1  0  0  0  0
 24 47  1  0  0  0  0
 24 48  1  0  0  0  0
 25 49  1  0  0  0  0
 25 50  1  0  0  0  0
 25 51  1  0  0  0  0
 27 28  2  0  0  0  0
 27 29  1  0  0  0  0
 27 52  1  0  0  0  0
 28 30  1  0  0  0  0
 28 53  1  0  0  0  0
 29 31  1  0  0  0  0
 30 31  2  0  0  0  0
 30 54  1  0  0  0  0
 31 32  1  0  0  0  0
 32 55  1  0  0  0  0
 32 56  1  0  0  0  0
M  END
>  <DRUGBANK_ID>
DB07186

>  <COMMON_NAME>
4-(4-METHYLPIPERAZIN-1-YL)-N-[5-(2-THIENYLACETYL)-1,5-DIHYDROPYRROLO[3,4-C]PYRAZOL-3-YL]BENZAMIDE

$$$$
