
 OpenBabel10282417123D

 27 27  0  0  1  0  0  0  0  0999 V2000
    0.3796   -0.2435   -0.4004 C   0  0  0  0  0  0  0  0  0  0  0  0
    0.3300    1.1111   -0.8140 O   0  0  0  0  0  0  0  0  0  0  0  0
    1.1299    2.1218   -0.1827 C   0  0  1  0  0  0  0  0  0  0  0  0
    1.0810    2.1825    1.2547 O   0  0  0  0  0  0  0  0  0  0  0  0
    1.6962    1.0646    1.8946 C   0  0  2  0  0  0  0  0  0  0  0  0
    1.5541    1.1512    3.4220 C   0  0  0  0  0  0  0  0  0  0  0  0
    0.1726    1.3145    3.7714 O   0  0  0  0  0  0  0  0  0  0  0  0
    3.1401    0.8051    1.3904 C   0  0  1  0  0  0  0  0  0  0  0  0
    3.5784   -0.4735    1.8560 O   0  0  0  0  0  0  0  0  0  0  0  0
    3.3157    0.9160   -0.1587 C   0  0  2  0  0  0  0  0  0  0  0  0
    4.7047    0.9147   -0.5262 O   0  0  0  0  0  0  0  0  0  0  0  0
    2.5909    2.1476   -0.6982 C   0  0  2  0  0  0  0  0  0  0  0  0
    3.3105    3.3281   -0.2941 O   0  0  0  0  0  0  0  0  0  0  0  0
    0.2002   -0.9018   -1.2505 H   0  0  0  0  0  0  0  0  0  0  0  0
   -0.3843   -0.4239    0.3605 H   0  0  0  0  0  0  0  0  0  0  0  0
    1.3332   -0.5793   -0.0030 H   0  0  0  0  0  0  0  0  0  0  0  0
    0.6736    3.0682   -0.5024 H   0  0  0  0  0  0  0  0  0  0  0  0
    1.0643    0.2026    1.7194 H   0  0  0  0  0  0  0  0  0  0  0  0
    1.8777    0.2068    3.8726 H   0  0  0  0  0  0  0  0  0  0  0  0
    2.1137    1.9763    3.8637 H   0  0  0  0  0  0  0  0  0  0  0  0
   -0.1663    2.0593    3.2394 H   0  0  0  0  0  0  0  0  0  0  0  0
    3.8079    1.5439    1.8440 H   0  0  0  0  0  0  0  0  0  0  0  0
    3.0402   -1.1662    1.4339 H   0  0  0  0  0  0  0  0  0  0  0  0
    2.9424    0.0389   -0.6822 H   0  0  0  0  0  0  0  0  0  0  0  0
    5.0847    1.7583   -0.2639 H   0  0  0  0  0  0  0  0  0  0  0  0
    2.5991    2.1460   -1.7955 H   0  0  0  0  0  0  0  0  0  0  0  0
    3.1952    3.4531    0.6665 H   0  0  0  0  0  0  0  0  0  0  0  0
  1  2  1  0  0  0  0
  1 14  1  0  0  0  0
  1 15  1  0  0  0  0
  1 16  1  0  0  0  0
  3  2  1  0  0  0  0
  3  4  1  0  0  0  0
  3 12  1  0  0  0  0
  3 17  1  6  0  0  0
  4  5  1  0  0  0  0
  5  6  1  0  0  0  0
  5  8  1  0  0  0  0
  5 18  1  6  0  0  0
  6  7  1  0  0  0  0
  6 19  1  0  0  0  0
  6 20  1  0  0  0  0
  7 21  1  0  0  0  0
  8  9  1  0  0  0  0
  8 10  1  0  0  0  0
  8 22  1  1  0  0  0
  9 23  1  0  0  0  0
 10 11  1  0  0  0  0
 10 12  1  0  0  0  0
 10 24  1  6  0  0  0
 11 25  1  0  0  0  0
 12 13  1  0  0  0  0
 12 26  1  6  0  0  0
 13 27  1  0  0  0  0
M  END
>  <DRUGBANK_ID>
DB01979

>  <SECONDARY_ACCESSION_NUMBERS>
EXPT02195; DB02284

>  <COMMON_NAME>
Methyl alpha-D-mannoside

>  <CAS_NUMBER>
25281-48-5

$$$$
