RRR
 OpenBabel10282417173D

 45 48  0  0  0  0  0  0  0  0999 V2000
    1.6228   -1.0429    0.0030 N   0  0  0  0  0  0  0  0  0  0  0  0
    0.2847   -0.7003   -0.0061 C   0  0  0  0  0  0  0  0  0  0  0  0
    0.2090    0.6891    0.0147 C   0  0  0  0  0  0  0  0  0  0  0  0
   -1.0366    1.3201   -0.0042 C   0  0  0  0  0  0  0  0  0  0  0  0
   -2.1702    0.5857   -0.0000 N   0  0  0  0  0  0  0  0  0  0  0  0
   -2.0602   -0.7622    0.0041 C   0  0  0  0  0  0  0  0  0  0  0  0
   -0.8679   -1.4796   -0.0193 C   0  0  0  0  0  0  0  0  0  0  0  0
    1.5291    1.1653    0.0679 C   0  0  0  0  0  0  0  0  0  0  0  0
    2.4007    0.0919    0.0183 C   0  0  0  0  0  0  0  0  0  0  0  0
    3.8993    0.0889   -0.0177 C   0  0  0  0  0  0  0  0  0  0  0  0
    4.2839    0.7481   -1.2515 N   0  0  0  0  0  0  0  0  0  0  0  0
    4.1513    2.1290   -1.3405 C   0  0  0  0  0  0  0  0  0  0  0  0
    3.8690    2.8650   -0.3934 O   0  0  0  0  0  0  0  0  0  0  0  0
    4.2116    2.7236   -2.7181 C   0  0  0  0  0  0  0  0  0  0  0  0
    5.0377    2.0275   -3.7313 N   0  0  0  0  0  0  0  0  0  0  0  0
    4.7112    0.5581   -3.6776 C   0  0  0  0  0  0  0  0  0  0  0  0
    5.0075   -0.0018   -2.2811 C   0  0  0  0  0  0  0  0  0  0  0  0
    6.7095    2.3849   -3.6295 S   0  0  0  0  0  0  0  0  0  0  0  0
    7.1238    2.0846   -2.2797 O   0  0  0  0  0  0  0  0  0  0  0  0
    7.3312    1.6754   -4.7352 O   0  0  0  0  0  0  0  0  0  0  0  0
    6.9831    4.0744   -3.8570 C   0  0  0  0  0  0  0  0  0  0  0  0
    6.0080    4.9605   -4.1053 C   0  0  0  0  0  0  0  0  0  0  0  0
    6.3193    6.3388   -4.2292 C   0  0  0  0  0  0  0  0  0  0  0  0
    7.3413    6.9065   -4.9656 C   0  0  0  0  0  0  0  0  0  0  0  0
    7.3185    8.3256   -4.9443 C   0  0  0  0  0  0  0  0  0  0  0  0
    6.3155    8.7903   -4.1369 C   0  0  0  0  0  0  0  0  0  0  0  0
    5.9729   10.4400   -3.8037 Cl  0  0  0  0  0  0  0  0  0  0  0  0
    5.3694    7.5570   -3.4628 S   0  0  0  0  0  0  0  0  0  0  0  0
    1.9701   -1.9924    0.0080 H   0  0  0  0  0  0  0  0  0  0  0  0
   -1.1426    2.3993   -0.0132 H   0  0  0  0  0  0  0  0  0  0  0  0
   -3.0128   -1.2835    0.0304 H   0  0  0  0  0  0  0  0  0  0  0  0
   -0.8494   -2.5599   -0.0314 H   0  0  0  0  0  0  0  0  0  0  0  0
    1.7957    2.2109    0.1180 H   0  0  0  0  0  0  0  0  0  0  0  0
    4.3001    0.6437    0.8379 H   0  0  0  0  0  0  0  0  0  0  0  0
    4.3091   -0.9261    0.0051 H   0  0  0  0  0  0  0  0  0  0  0  0
    3.1946    2.8219   -3.1193 H   0  0  0  0  0  0  0  0  0  0  0  0
    4.5685    3.7349   -2.5425 H   0  0  0  0  0  0  0  0  0  0  0  0
    3.6365    0.4391   -3.8785 H   0  0  0  0  0  0  0  0  0  0  0  0
    5.2366    0.0066   -4.4629 H   0  0  0  0  0  0  0  0  0  0  0  0
    4.7284   -1.0581   -2.2298 H   0  0  0  0  0  0  0  0  0  0  0  0
    6.0758    0.0443   -2.0498 H   0  0  0  0  0  0  0  0  0  0  0  0
    8.0139    4.3709   -3.7190 H   0  0  0  0  0  0  0  0  0  0  0  0
    4.9698    4.6822   -4.2378 H   0  0  0  0  0  0  0  0  0  0  0  0
    8.0474    6.3109   -5.5298 H   0  0  0  0  0  0  0  0  0  0  0  0
    8.0059    8.9562   -5.4904 H   0  0  0  0  0  0  0  0  0  0  0  0
  1  2  1  0  0  0  0
  1  9  1  0  0  0  0
  1 29  1  0  0  0  0
  2  3  2  0  0  0  0
  2  7  1  0  0  0  0
  3  4  1  0  0  0  0
  3  8  1  0  0  0  0
  4  5  2  0  0  0  0
  4 30  1  0  0  0  0
  5  6  1  0  0  0  0
  6  7  2  0  0  0  0
  6 31  1  0  0  0  0
  7 32  1  0  0  0  0
  8  9  2  0  0  0  0
  8 33  1  0  0  0  0
  9 10  1  0  0  0  0
 10 11  1  0  0  0  0
 10 34  1  0  0  0  0
 10 35  1  0  0  0  0
 11 12  1  0  0  0  0
 11 17  1  0  0  0  0
 12 13  2  0  0  0  0
 12 14  1  0  0  0  0
 14 15  1  0  0  0  0
 14 36  1  0  0  0  0
 14 37  1  0  0  0  0
 15 16  1  0  0  0  0
 15 18  1  0  0  0  0
 16 17  1  0  0  0  0
 16 38  1  0  0  0  0
 16 39  1  0  0  0  0
 17 40  1  0  0  0  0
 17 41  1  0  0  0  0
 18 19  2  0  0  0  0
 18 20  2  0  0  0  0
 18 21  1  0  0  0  0
 21 22  2  0  0  0  0
 21 42  1  0  0  0  0
 22 23  1  0  0  0  0
 22 43  1  0  0  0  0
 23 24  2  0  0  0  0
 23 28  1  0  0  0  0
 24 25  1  0  0  0  0
 24 44  1  0  0  0  0
 25 26  2  0  0  0  0
 25 45  1  0  0  0  0
 26 27  1  0  0  0  0
 26 28  1  0  0  0  0
M  END
>  <DRUGBANK_ID>
DB08488

>  <COMMON_NAME>
4-{[(E)-2-(5-CHLOROTHIEN-2-YL)VINYL]SULFONYL}-1-(1H-PYRROLO[3,2-C]PYRIDIN-2-YLMETHYL)PIPERAZIN-2-ONE

$$$$
