ChEBI
 OpenBabel10282417113D

 43 46  0  0  1  0  0  0  0  0999 V2000
    1.3459   -1.4507   -0.7242 C   0  0  1  0  0  0  0  0  0  0  0  0
    3.3179   -0.3296    0.0040 C   0  0  2  0  0  0  0  0  0  0  0  0
    2.5304    0.9368    0.5094 C   0  0  0  0  0  0  0  0  0  0  0  0
    0.3623   -0.3133   -0.3221 C   0  0  0  0  0  0  0  0  0  0  0  0
    1.9730   -2.4034    0.2828 C   0  0  1  0  0  0  0  0  0  0  0  0
    3.3176   -1.6917    0.7229 C   0  0  2  0  0  0  0  0  0  0  0  0
    2.2420   -2.0287    1.5814 O   0  0  0  0  0  0  0  0  0  0  0  0
    2.6235   -0.8604   -1.1883 N   0  0  0  0  0  0  0  0  0  0  0  0
    2.5096    0.0826   -2.2665 C   0  0  0  0  0  0  0  0  0  0  0  0
    1.0364    0.5970    0.7094 C   0  0  2  0  0  0  0  0  0  0  0  0
    0.2462    1.5518    1.4444 O   0  0  0  0  0  0  0  0  0  0  0  0
   -0.7573    2.1546    3.3754 O   0  0  0  0  0  0  0  0  0  0  0  0
   -0.0589    1.3604    2.7927 C   0  0  0  0  0  0  0  0  0  0  0  0
    1.9600    0.1735    3.8689 C   0  0  0  0  0  0  0  0  0  0  0  0
    2.8164   -0.1541    2.8249 O   0  0  0  0  0  0  0  0  0  0  0  0
    0.4383    0.0879    3.5532 C   0  0  2  0  0  0  0  0  0  0  0  0
   -0.1886   -1.2466    3.0837 C   0  0  0  0  0  0  0  0  0  0  0  0
    0.4167   -2.4809    3.3749 C   0  0  0  0  0  0  0  0  0  0  0  0
   -1.3704   -1.2846    2.3182 C   0  0  0  0  0  0  0  0  0  0  0  0
   -1.8630   -2.4882    1.7914 C   0  0  0  0  0  0  0  0  0  0  0  0
   -1.1740   -3.6774    1.9978 C   0  0  0  0  0  0  0  0  0  0  0  0
   -0.0382   -3.6743    2.7971 C   0  0  0  0  0  0  0  0  0  0  0  0
    0.8799   -2.0724   -1.4881 H   0  0  0  0  0  0  0  0  0  0  0  0
    4.3602   -0.0593   -0.1977 H   0  0  0  0  0  0  0  0  0  0  0  0
    2.9179    1.4095    1.4214 H   0  0  0  0  0  0  0  0  0  0  0  0
    2.7126    1.7706   -0.1830 H   0  0  0  0  0  0  0  0  0  0  0  0
   -0.5786   -0.6808    0.0880 H   0  0  0  0  0  0  0  0  0  0  0  0
    0.0055    0.2011   -1.2228 H   0  0  0  0  0  0  0  0  0  0  0  0
    1.5892   -3.4084    0.2670 H   0  0  0  0  0  0  0  0  0  0  0  0
    4.2056   -1.8412    1.3244 H   0  0  0  0  0  0  0  0  0  0  0  0
    3.0880   -0.3078   -3.0984 H   0  0  0  0  0  0  0  0  0  0  0  0
    1.4814    0.2181   -2.5978 H   0  0  0  0  0  0  0  0  0  0  0  0
    2.9130    1.0653   -2.0210 H   0  0  0  0  0  0  0  0  0  0  0  0
    1.0865   -0.1604    1.4289 H   0  0  0  0  0  0  0  0  0  0  0  0
    2.2731    1.1779    4.1410 H   0  0  0  0  0  0  0  0  0  0  0  0
    2.2628   -0.5537    4.6187 H   0  0  0  0  0  0  0  0  0  0  0  0
    2.3570   -0.9172    2.4281 H   0  0  0  0  0  0  0  0  0  0  0  0
    0.0172    0.1906    4.5614 H   0  0  0  0  0  0  0  0  0  0  0  0
    1.3496   -2.5266    3.9333 H   0  0  0  0  0  0  0  0  0  0  0  0
   -1.8849   -0.3677    2.0293 H   0  0  0  0  0  0  0  0  0  0  0  0
   -2.7667   -2.4862    1.1857 H   0  0  0  0  0  0  0  0  0  0  0  0
   -1.5104   -4.5985    1.5290 H   0  0  0  0  0  0  0  0  0  0  0  0
    0.5402   -4.5865    2.9277 H   0  0  0  0  0  0  0  0  0  0  0  0
  1  5  1  0  0  0  0
  1  8  1  0  0  0  0
  1 23  1  1  0  0  0
  2  3  1  0  0  0  0
  2  8  1  0  0  0  0
  2 24  1  1  0  0  0
  3 10  1  0  0  0  0
  3 25  1  0  0  0  0
  3 26  1  0  0  0  0
  4  1  1  0  0  0  0
  4 27  1  0  0  0  0
  4 28  1  0  0  0  0
  5  6  1  0  0  0  0
  5  7  1  0  0  0  0
  5 29  1  6  0  0  0
  6  2  1  0  0  0  0
  6  7  1  0  0  0  0
  6 30  1  1  0  0  0
  8  9  1  0  0  0  0
  9 31  1  0  0  0  0
  9 32  1  0  0  0  0
  9 33  1  0  0  0  0
 10  4  1  0  0  0  0
 10 11  1  0  0  0  0
 10 34  1  1  0  0  0
 11 13  1  0  0  0  0
 13 12  2  0  0  0  0
 14 15  1  0  0  0  0
 14 35  1  0  0  0  0
 14 36  1  0  0  0  0
 15 37  1  0  0  0  0
 16 17  1  0  0  0  0
 16 38  1  1  0  0  0
 16 14  1  0  0  0  0
 16 13  1  0  0  0  0
 17 19  1  0  0  0  0
 18 17  2  0  0  0  0
 18 22  1  0  0  0  0
 18 39  1  0  0  0  0
 19 20  2  0  0  0  0
 19 40  1  0  0  0  0
 20 21  1  0  0  0  0
 20 41  1  0  0  0  0
 21 22  2  0  0  0  0
 21 42  1  0  0  0  0
 22 43  1  0  0  0  0
M  END
>  <DRUGBANK_ID>
DB00747

>  <SECONDARY_ACCESSION_NUMBERS>
APRD00616

>  <COMMON_NAME>
Scopolamine

>  <CAS_NUMBER>
51-34-3

>  <UNII>
DL48G20X8X

>  <SYNONYMS>
(-)-hyoscine; (-)-scopolamine; (1S,3S,5R,6R,7S)-6,7-Epoxytropan-3-yl (2S)-3-hydroxy-2-phenylpropanoate; 6-beta,7-beta-Epoxy-3-alpha-tropanyl S-(-)-tropate; 6,7-Epoxytropine tropate; alpha-(Hydroxymethyl)benzeneacetic acid 9-methyl-3-oxa-9-azatricyclo(3.3.1.0(2.4))non-7-yl ester; Hyoscine; scopine (-)-tropate; scopine (âˆ’)-tropate; Scopolamine; Scopolamine hydrobromide

$$$$
