
 OpenBabel10282417203D

 40 41  0  0  0  0  0  0  0  0999 V2000
    0.6434    0.1104   -0.3059 C   0  0  0  0  0  0  0  0  0  0  0  0
    3.0274   -1.4814    0.9900 C   0  0  0  0  0  0  0  0  0  0  0  0
    0.2126    0.1559    1.1710 C   0  0  0  0  0  0  0  0  0  0  0  0
    0.2957   -0.2426    4.2940 C   0  0  0  0  0  0  0  0  0  0  0  0
    1.5749   -1.0403    4.4686 C   0  0  0  0  0  0  0  0  0  0  0  0
    0.7190    3.9510   -0.4552 C   0  0  0  0  0  0  0  0  0  0  0  0
    1.2766    2.8950    0.2722 C   0  0  0  0  0  0  0  0  0  0  0  0
   -0.2051    4.8055    0.1444 C   0  0  0  0  0  0  0  0  0  0  0  0
    0.4795    1.0866    3.5944 C   0  0  0  0  0  0  0  0  0  0  0  0
    2.0382   -1.6831    3.1689 C   0  0  0  0  0  0  0  0  0  0  0  0
   -0.0457    3.4922    2.1637 C   0  0  0  0  0  0  0  0  0  0  0  0
    2.5322    0.6200    2.2036 C   0  0  0  0  0  0  0  0  0  0  0  0
    0.8205    2.5552    1.5533 C   0  0  0  0  0  0  0  0  0  0  0  0
   -0.5414    4.5886    1.4649 C   0  0  0  0  0  0  0  0  0  0  0  0
    1.0309    1.1057    2.1247 C   0  0  3  0  0  0  0  0  0  0  0  0
    2.8469   -0.8313    2.2890 N   0  0  0  0  0  0  0  0  0  0  0  0
   -1.4139    5.4051    2.1305 O   0  0  0  0  0  0  0  0  0  0  0  0
    0.1395    0.8740   -0.9006 H   0  0  0  0  0  0  0  0  0  0  0  0
    0.3985   -0.8566   -0.7545 H   0  0  0  0  0  0  0  0  0  0  0  0
    1.7229    0.2423   -0.4358 H   0  0  0  0  0  0  0  0  0  0  0  0
    2.0819   -1.6841    0.4859 H   0  0  0  0  0  0  0  0  0  0  0  0
    3.6575   -0.8829    0.3236 H   0  0  0  0  0  0  0  0  0  0  0  0
    3.5013   -2.4623    1.0891 H   0  0  0  0  0  0  0  0  0  0  0  0
   -0.8588    0.3683    1.2321 H   0  0  0  0  0  0  0  0  0  0  0  0
    0.2840   -0.8687    1.5190 H   0  0  0  0  0  0  0  0  0  0  0  0
   -0.4714   -0.8213    3.7671 H   0  0  0  0  0  0  0  0  0  0  0  0
   -0.1217   -0.0345    5.2886 H   0  0  0  0  0  0  0  0  0  0  0  0
    2.3683   -0.4243    4.9059 H   0  0  0  0  0  0  0  0  0  0  0  0
    1.3664   -1.8377    5.1910 H   0  0  0  0  0  0  0  0  0  0  0  0
    0.9771    4.0734   -1.5017 H   0  0  0  0  0  0  0  0  0  0  0  0
    1.9995    2.2709   -0.2484 H   0  0  0  0  0  0  0  0  0  0  0  0
   -0.6331    5.6167   -0.4308 H   0  0  0  0  0  0  0  0  0  0  0  0
   -0.5210    1.5264    3.6378 H   0  0  0  0  0  0  0  0  0  0  0  0
    1.1209    1.7266    4.2240 H   0  0  0  0  0  0  0  0  0  0  0  0
    2.6316   -2.5702    3.4192 H   0  0  0  0  0  0  0  0  0  0  0  0
    1.1600   -2.1031    2.6630 H   0  0  0  0  0  0  0  0  0  0  0  0
   -0.4094    3.3877    3.1785 H   0  0  0  0  0  0  0  0  0  0  0  0
    2.9872    1.0758    3.0978 H   0  0  0  0  0  0  0  0  0  0  0  0
    3.1275    1.0649    1.3967 H   0  0  0  0  0  0  0  0  0  0  0  0
   -1.6721    6.1274    1.5410 H   0  0  0  0  0  0  0  0  0  0  0  0
  1 18  1  0  0  0  0
  1 19  1  0  0  0  0
  1 20  1  0  0  0  0
  2 21  1  0  0  0  0
  2 22  1  0  0  0  0
  2 23  1  0  0  0  0
  3  1  1  0  0  0  0
  3 24  1  0  0  0  0
  3 25  1  0  0  0  0
  4 26  1  0  0  0  0
  4 27  1  0  0  0  0
  5  4  1  0  0  0  0
  5 28  1  0  0  0  0
  5 29  1  0  0  0  0
  6 30  1  0  0  0  0
  7  6  2  0  0  0  0
  7 31  1  0  0  0  0
  8  6  1  0  0  0  0
  8 32  1  0  0  0  0
  9  4  1  0  0  0  0
  9 33  1  0  0  0  0
  9 34  1  0  0  0  0
 10  5  1  0  0  0  0
 10 35  1  0  0  0  0
 10 36  1  0  0  0  0
 11 37  1  0  0  0  0
 12 38  1  0  0  0  0
 12 39  1  0  0  0  0
 13  7  1  0  0  0  0
 13 11  2  0  0  0  0
 14  8  2  0  0  0  0
 14 11  1  0  0  0  0
 15  3  1  0  0  0  0
 15  9  1  0  0  0  0
 15 12  1  0  0  0  0
 15 13  1  0  0  0  0
 16  2  1  0  0  0  0
 16 10  1  0  0  0  0
 16 12  1  0  0  0  0
 17 14  1  0  0  0  0
 17 40  1  0  0  0  0
M  END
>  <DRUGBANK_ID>
DB13478

>  <COMMON_NAME>
Meptazinol

>  <CAS_NUMBER>
54340-58-8

>  <UNII>
18Y7S5JKZD

>  <SYNONYMS>
Meptazinol

$$$$
