
 OpenBabel10282417213D

 49 46  0  0  0  0  0  0  0  0999 V2000
    1.7938    6.1783   -0.1676 C   0  0  0  0  0  0  0  0  0  0  0  0
    2.7046    5.0596   -0.6649 C   0  0  2  0  0  0  0  0  0  0  0  0
    2.5847    3.7400    0.1230 C   0  0  2  0  0  0  0  0  0  0  0  0
    1.5029    2.8565   -0.5289 C   0  0  1  0  0  0  0  0  0  0  0  0
    2.2667    1.7618   -1.2774 C   0  0  2  0  0  0  0  0  0  0  0  0
    2.7716    0.8769   -0.0746 C   0  0  0  0  0  0  0  0  0  0  0  0
    1.4397    6.0125    1.2051 O   0  0  0  0  0  0  0  0  0  0  0  0
    4.0602    5.5247   -0.6255 O   0  0  0  0  0  0  0  0  0  0  0  0
    2.4095    3.7918    1.5460 O   0  0  0  0  0  0  0  0  0  0  0  0
    0.5647    2.3099    0.4534 O   0  0  0  0  0  0  0  0  0  0  0  0
    3.3709    2.3165   -2.0084 O   0  0  0  0  0  0  0  0  0  0  0  0
    1.8366    0.4082    0.6854 O   0  0  0  0  0  0  0  0  0  0  0  0
    4.0166    0.7636    0.0734 O   0  5  0  0  0  0  0  0  0  0  0  0
    4.5769   -3.9871    2.0685 C   0  0  0  0  0  0  0  0  0  0  0  0
    3.5108   -4.4193    1.0626 C   0  0  2  0  0  0  0  0  0  0  0  0
    2.0729   -3.8819    1.3123 C   0  0  2  0  0  0  0  0  0  0  0  0
    1.4948   -2.9277    0.2444 C   0  0  1  0  0  0  0  0  0  0  0  0
    2.4922   -2.1141   -0.5759 C   0  0  2  0  0  0  0  0  0  0  0  0
    1.6909   -1.2502   -1.6057 C   0  0  0  0  0  0  0  0  0  0  0  0
    4.2359   -4.3083    3.4093 O   0  0  0  0  0  0  0  0  0  0  0  0
    3.4831   -5.8427    0.8658 O   0  0  0  0  0  0  0  0  0  0  0  0
    1.9026   -3.2121    2.5749 O   0  0  0  0  0  0  0  0  0  0  0  0
    0.6699   -3.6765   -0.6467 O   0  0  0  0  0  0  0  0  0  0  0  0
    3.3877   -2.9376   -1.3180 O   0  0  0  0  0  0  0  0  0  0  0  0
    2.2528   -1.0160   -2.7011 O   0  0  0  0  0  0  0  0  0  0  0  0
    0.5597   -0.7793   -1.2057 O   0  5  0  0  0  0  0  0  0  0  0  0
   -0.0199    0.1592    0.2548 Fe  0  2  0  0  0  0  0  0  0  0  0  0
    2.5072    4.8887   -1.7332 H   0  0  0  0  0  0  0  0  0  0  0  0
    3.5707    3.2783    0.0510 H   0  0  0  0  0  0  0  0  0  0  0  0
    0.8827    3.4108   -1.2423 H   0  0  0  0  0  0  0  0  0  0  0  0
    1.5967    1.3005   -2.0046 H   0  0  0  0  0  0  0  0  0  0  0  0
    3.9225   -4.1087    0.1249 H   0  0  0  0  0  0  0  0  0  0  0  0
    1.3991   -4.7473    1.3723 H   0  0  0  0  0  0  0  0  0  0  0  0
    0.8209   -2.2373    0.7744 H   0  0  0  0  0  0  0  0  0  0  0  0
    3.1001   -1.5511    0.1406 H   0  0  0  0  0  0  0  0  0  0  0  0
    0.8663    6.1990   -0.7455 H   0  0  0  0  0  0  0  0  0  0  0  0
    2.2958    7.1446   -0.2629 H   0  0  0  0  0  0  0  0  0  0  0  0
    2.2839    5.8489    1.6760 H   0  0  0  0  0  0  0  0  0  0  0  0
    4.3730    5.4893    0.2921 H   0  0  0  0  0  0  0  0  0  0  0  0
    1.5190    4.1471    1.7319 H   0  0  0  0  0  0  0  0  0  0  0  0
    1.2064    2.1410    1.2045 H   0  0  0  0  0  0  0  0  0  0  0  0
    4.1746    2.0168   -1.5157 H   0  0  0  0  0  0  0  0  0  0  0  0
    4.7277   -2.9024    2.0075 H   0  0  0  0  0  0  0  0  0  0  0  0
    5.5253   -4.4793    1.8383 H   0  0  0  0  0  0  0  0  0  0  0  0
    3.7743   -5.1608    3.4014 H   0  0  0  0  0  0  0  0  0  0  0  0
    3.2740   -6.2845    1.6976 H   0  0  0  0  0  0  0  0  0  0  0  0
    2.5410   -2.4744    2.6092 H   0  0  0  0  0  0  0  0  0  0  0  0
    1.2884   -4.2497   -1.1410 H   0  0  0  0  0  0  0  0  0  0  0  0
    3.0178   -3.0104   -2.2156 H   0  0  0  0  0  0  0  0  0  0  0  0
  1 36  1  0  0  0  0
  1 37  1  0  0  0  0
  2  8  1  0  0  0  0
  2 28  1  6  0  0  0
  2  3  1  0  0  0  0
  2  1  1  0  0  0  0
  3 29  1  6  0  0  0
  3  9  1  0  0  0  0
  3  4  1  0  0  0  0
  4 10  1  0  0  0  0
  4 30  1  6  0  0  0
  5 11  1  0  0  0  0
  5 31  1  6  0  0  0
  5  6  1  0  0  0  0
  5  4  1  0  0  0  0
  7  1  1  0  0  0  0
  7 38  1  0  0  0  0
  8 39  1  0  0  0  0
  9 40  1  0  0  0  0
 10 41  1  0  0  0  0
 11 42  1  0  0  0  0
 12  6  2  0  0  0  0
 13  6  1  0  0  0  0
 14 43  1  0  0  0  0
 14 44  1  0  0  0  0
 15 21  1  0  0  0  0
 15 32  1  6  0  0  0
 15 16  1  0  0  0  0
 15 14  1  0  0  0  0
 16 33  1  1  0  0  0
 16 22  1  0  0  0  0
 16 17  1  0  0  0  0
 17 23  1  0  0  0  0
 17 34  1  1  0  0  0
 18 24  1  0  0  0  0
 18 35  1  1  0  0  0
 18 19  1  0  0  0  0
 18 17  1  0  0  0  0
 20 14  1  0  0  0  0
 20 45  1  0  0  0  0
 21 46  1  0  0  0  0
 22 47  1  0  0  0  0
 23 48  1  0  0  0  0
 24 49  1  0  0  0  0
 25 19  2  0  0  0  0
 26 19  1  0  0  0  0
M  CHG  3  13  -1  26  -1  27   2
M  END
>  <DRUGBANK_ID>
DB14488

>  <SECONDARY_ACCESSION_NUMBERS>
DBSALT000080

>  <COMMON_NAME>
Ferrous gluconate

>  <CAS_NUMBER>
299-29-6

>  <UNII>
781E2AXH0K

>  <SYNONYMS>
D-gluconic acid, iron(2+) salt (2:1); Ferric Gluconate; Ferrous gluconate anhydrous; Iron(2+) gluconate (1:2); Iron(II) gluconate, anhydrous

$$$$
