
 OpenBabel10282417153D

227236  0  0  0  0  0  0  0  0999 V2000
   -0.4463    2.6724    0.8123 C   0  0  0  0  0  0  0  0  0  0  0  0
    1.1115    1.8747    1.4337 C   0  0  0  0  0  0  0  0  0  0  0  0
    0.6206    0.7228    2.1378 N   0  0  0  0  0  0  0  0  0  0  0  0
    1.7573   -0.1687    2.2444 C   0  0  0  0  0  0  0  0  0  0  0  0
    2.9689    0.7176    2.5696 C   0  0  0  0  0  0  0  0  0  0  0  0
    2.6189    1.5650    3.7808 C   0  0  0  0  0  0  0  0  0  0  0  0
    2.3051    0.6267    4.9232 C   0  0  0  0  0  0  0  0  0  0  0  0
    3.5153   -0.2553    5.1791 C   0  0  0  0  0  0  0  0  0  0  0  0
    4.7107    0.6192    5.5254 C   0  0  0  0  0  0  0  0  0  0  0  0
    4.3978    1.4369    6.7707 C   0  0  0  0  0  0  0  0  0  0  0  0
    4.1071    0.5073    7.9414 C   0  0  0  0  0  0  0  0  0  0  0  0
    5.3098   -0.3811    8.2145 C   0  0  0  0  0  0  0  0  0  0  0  0
    6.5110    0.4743    8.5530 C   0  0  0  0  0  0  0  0  0  0  0  0
   -2.1967   -2.7109    2.2301 C   0  0  0  0  0  0  0  0  0  0  0  0
   -2.4679   -2.6019    4.0575 C   0  0  0  0  0  0  0  0  0  0  0  0
   -2.3880   -4.5679    2.7191 C   0  0  0  0  0  0  0  0  0  0  0  0
    0.1954   -3.6142    2.3300 C   0  0  0  0  0  0  0  0  0  0  0  0
   -0.9839   -4.2915    2.5469 C   0  0  0  0  0  0  0  0  0  0  0  0
   -0.6438   -2.6479    3.3891 C   0  0  0  0  0  0  0  0  0  0  0  0
   -3.6705   -3.4401    5.3744 O   0  0  0  0  0  0  0  0  0  0  0  0
   -2.6943   -5.8796    4.2350 O   0  0  0  0  0  0  0  0  0  0  0  0
   -0.7387  -11.1860    4.8219 C   0  0  1  0  0  0  0  0  0  0  0  0
   -3.8096   -5.9991    8.0322 C   0  0  1  0  0  0  0  0  0  0  0  0
   -2.1509  -10.3814    5.8625 C   0  0  0  0  0  0  0  0  0  0  0  0
   -5.2610   -5.9418    8.3566 C   0  0  0  0  0  0  0  0  0  0  0  0
   -3.3824   -7.4383    5.3067 C   0  0  0  0  0  0  0  0  0  0  0  0
   -5.1651   -3.5620    6.9355 C   0  0  0  0  0  0  0  0  0  0  0  0
   -2.8857   -8.3942    6.8848 C   0  0  0  0  0  0  0  0  0  0  0  0
   -5.4555   -4.0730    8.7391 C   0  0  0  0  0  0  0  0  0  0  0  0
   -5.3699   -5.3577    9.5030 C   0  0  0  0  0  0  0  0  0  0  0  0
   -6.3292   -5.6520    7.3081 C   0  0  0  0  0  0  0  0  0  0  0  0
   -3.4441   -9.6720    5.0789 C   0  0  0  0  0  0  0  0  0  0  0  0
   -4.1063   -8.5099    4.8579 C   0  0  0  0  0  0  0  0  0  0  0  0
   -6.5463   -4.3347    6.9086 C   0  0  0  0  0  0  0  0  0  0  0  0
   -7.0485   -4.6197   10.3074 Cl  0  0  0  0  0  0  0  0  0  0  0  0
   -0.0452  -12.3940    4.9358 O   0  0  0  0  0  0  0  0  0  0  0  0
   -3.7856   -9.2402    8.7129 Cl  0  0  0  0  0  0  0  0  0  0  0  0
   -3.8547   -6.0006    6.6750 O   0  0  0  0  0  0  0  0  0  0  0  0
    0.9528   -0.7224   -2.1381 C   0  0  1  0  0  0  0  0  0  0  0  0
   -0.1310   -0.4505   -0.6778 C   0  0  1  0  0  0  0  0  0  0  0  0
    1.8138    0.6704   -3.1229 C   0  0  2  0  0  0  0  0  0  0  0  0
   -0.1668    1.1818   -1.9049 O   0  0  0  0  0  0  0  0  0  0  0  0
   -1.3541    1.1649   -0.6615 C   0  0  2  0  0  0  0  0  0  0  0  0
    1.3039    2.1465   -3.5308 C   0  0  1  0  0  0  0  0  0  0  0  0
   -1.3060   -1.3678   -2.3009 C   0  0  1  0  0  0  0  0  0  0  0  0
    0.6568    2.8204   -2.3751 C   0  0  1  0  0  0  0  0  0  0  0  0
   -2.0197   -0.5624   -1.0513 C   0  0  0  0  0  0  0  0  0  0  0  0
   -1.6938   -0.6895   -3.4650 O   0  0  0  0  0  0  0  0  0  0  0  0
   -1.9957    1.5807   -2.2677 C   0  0  1  0  0  0  0  0  0  0  0  0
    0.1104   -1.7887   -2.2773 O   0  0  0  0  0  0  0  0  0  0  0  0
   -1.3809    0.6928   -3.4818 C   0  0  2  0  0  0  0  0  0  0  0  0
    2.1592    0.0529   -4.3877 O   0  0  0  0  0  0  0  0  0  0  0  0
    2.3090    2.9331   -4.1276 O   0  0  0  0  0  0  0  0  0  0  0  0
   -3.3565    1.5889   -2.2821 O   0  0  0  0  0  0  0  0  0  0  0  0
    0.7024    1.5058   -0.4708 C   0  0  0  0  0  0  0  0  0  0  0  0
   -1.6860    1.4280   -4.7407 C   0  0  0  0  0  0  0  0  0  0  0  0
   -0.9632   -1.6182    1.0320 O   0  0  0  0  0  0  0  0  0  0  0  0
   -0.1667    4.1157   -2.7580 C   0  0  0  0  0  0  0  0  0  0  0  0
    0.4109    4.9055   -3.7864 O   0  0  0  0  0  0  0  0  0  0  0  0
   -2.2282   -9.8153    7.0826 C   0  0  0  0  0  0  0  0  0  0  0  0
   -2.8385   -4.8321    8.3108 C   0  0  2  0  0  0  0  0  0  0  0  0
    1.4368   -4.5340    4.0223 N   0  0  0  0  0  0  0  0  0  0  0  0
   -1.4878   -5.2791    7.7970 C   0  0  0  0  0  0  0  0  0  0  0  0
    0.4567   -6.1369    2.2028 C   0  0  0  0  0  0  0  0  0  0  0  0
   -0.8023   -4.4958    6.8579 N   0  0  0  0  0  0  0  0  0  0  0  0
    1.2594   -4.7569    2.5781 C   0  0  1  0  0  0  0  0  0  0  0  0
    0.5278   -5.1491    4.8810 C   0  0  0  0  0  0  0  0  0  0  0  0
    0.5436   -4.8681    6.3509 C   0  0  2  0  0  0  0  0  0  0  0  0
   -1.0318   -6.2879    8.3425 O   0  0  0  0  0  0  0  0  0  0  0  0
   -0.7686   -6.2563    2.1688 O   0  0  0  0  0  0  0  0  0  0  0  0
   -0.1712   -6.0870    4.5154 O   0  0  0  0  0  0  0  0  0  0  0  0
    1.0324   -6.1609    6.9932 C   0  0  0  0  0  0  0  0  0  0  0  0
    2.3960   -6.5930    6.5491 C   0  0  0  0  0  0  0  0  0  0  0  0
    2.5761   -6.8898    5.2257 N   0  0  0  0  0  0  0  0  0  0  0  0
    3.3216   -6.6620    7.3502 O   0  0  0  0  0  0  0  0  0  0  0  0
   -2.7654   -4.5241    9.7447 N   0  0  0  0  0  0  0  0  0  0  0  0
   -3.1686   -3.2898   10.2038 C   0  0  0  0  0  0  0  0  0  0  0  0
   -3.1283   -3.0488   11.7328 C   0  0  1  0  0  0  0  0  0  0  0  0
   -3.5455   -2.4203    9.4134 O   0  0  0  0  0  0  0  0  0  0  0  0
   -2.1546   -1.8974   12.0014 C   0  0  0  0  0  0  0  0  0  0  0  0
   -4.4814   -2.8179   12.2611 N   0  0  0  0  0  0  0  0  0  0  0  0
   -2.5620   -0.5929   11.3058 C   0  0  0  0  0  0  0  0  0  0  0  0
   -4.4661   -2.3910   13.6515 C   0  0  0  0  0  0  0  0  0  0  0  0
   -3.9055   -0.0598   11.7510 C   0  0  0  0  0  0  0  0  0  0  0  0
   -1.5609    0.4911   11.5873 C   0  0  0  0  0  0  0  0  0  0  0  0
   -0.3382  -11.4919    3.1454 C   0  0  2  0  0  0  0  0  0  0  0  0
    1.2130   -7.2944    2.3238 N   0  0  0  0  0  0  0  0  0  0  0  0
    0.7958   -8.6767    3.4275 C   0  0  1  0  0  0  0  0  0  0  0  0
   -0.9170  -13.6305    2.7206 O   0  0  0  0  0  0  0  0  0  0  0  0
   -0.5870  -10.4036    1.9738 N   0  0  0  0  0  0  0  0  0  0  0  0
    0.6027   -9.6207    2.0633 C   0  0  0  0  0  0  0  0  0  0  0  0
    1.5957   -9.9289    1.4518 O   0  0  0  0  0  0  0  0  0  0  0  0
   -1.8442   -9.3085    4.2416 C   0  0  0  0  0  0  0  0  0  0  0  0
   -1.5295   -8.2897    4.8460 O   0  0  0  0  0  0  0  0  0  0  0  0
   -0.9753   -9.6414    3.5470 O   0  0  0  0  0  0  0  0  0  0  0  0
   -2.9409  -11.1873    4.1009 C   0  0  1  0  0  0  0  0  0  0  0  0
   -2.5813  -12.3459    3.4657 N   0  0  0  0  0  0  0  0  0  0  0  0
   -1.3183  -12.5499    3.0890 C   0  0  0  0  0  0  0  0  0  0  0  0
   -0.9342  -11.8217    7.0499 C   0  0  0  0  0  0  0  0  0  0  0  0
   -0.4868  -13.0859    7.2190 C   0  0  0  0  0  0  0  0  0  0  0  0
    1.3148   -9.8173    5.1627 C   0  0  0  0  0  0  0  0  0  0  0  0
    0.1610  -10.3160    6.5306 C   0  0  0  0  0  0  0  0  0  0  0  0
    0.8639  -12.8867    6.7871 C   0  0  0  0  0  0  0  0  0  0  0  0
    1.6253  -11.4593    5.8398 C   0  0  0  0  0  0  0  0  0  0  0  0
   -1.4216  -14.1123    7.1166 O   0  0  0  0  0  0  0  0  0  0  0  0
   -3.8246  -11.8464    5.6562 C   0  0  0  0  0  0  0  0  0  0  0  0
   -5.2034  -11.3417    5.9264 C   0  0  0  0  0  0  0  0  0  0  0  0
   -4.8151  -11.9735    8.2310 C   0  0  0  0  0  0  0  0  0  0  0  0
   -2.8079  -12.1944    6.8282 C   0  0  0  0  0  0  0  0  0  0  0  0
   -5.6776  -11.4741    7.2163 C   0  0  0  0  0  0  0  0  0  0  0  0
   -6.9840  -11.2086    7.5270 O   0  0  0  0  0  0  0  0  0  0  0  0
   -3.4380  -12.2622    8.0472 C   0  0  0  0  0  0  0  0  0  0  0  0
   -2.5394  -12.3759    9.0810 O   0  0  0  0  0  0  0  0  0  0  0  0
   -5.2771  -12.1533    9.6209 C   0  0  0  0  0  0  0  0  0  0  0  0
   -4.9052  -13.5321    9.9722 N   0  0  0  0  0  0  0  0  0  0  0  0
   -5.4596  -13.8258   11.2685 C   0  0  0  0  0  0  0  0  0  0  0  0
   -7.2725  -13.5772   11.2908 P   0  0  0  0  0  0  0  0  0  0  0  0
   -7.0886  -12.0965   11.9621 O   0  0  0  0  0  0  0  0  0  0  0  0
   -7.3895  -13.7344    9.7795 O   0  0  0  0  0  0  0  0  0  0  0  0
   -8.9864  -13.3421   11.3119 O   0  0  0  0  0  0  0  0  0  0  0  0
   -1.7162    1.8608    0.5068 N   0  0  0  0  0  0  0  0  0  0  0  0
   -0.2226    3.3104   -0.0902 H   0  0  0  0  0  0  0  0  0  0  0  0
   -0.6789    3.2847    1.6240 H   0  0  0  0  0  0  0  0  0  0  0  0
    1.9593    1.1618    0.7792 H   0  0  0  0  0  0  0  0  0  0  0  0
    1.8722    2.6184    1.2543 H   0  0  0  0  0  0  0  0  0  0  0  0
    0.2645    1.2021    2.9356 H   0  0  0  0  0  0  0  0  0  0  0  0
    1.5220   -0.8818    3.0074 H   0  0  0  0  0  0  0  0  0  0  0  0
    1.9414   -0.7428    1.3155 H   0  0  0  0  0  0  0  0  0  0  0  0
    3.8388    0.1001    2.6769 H   0  0  0  0  0  0  0  0  0  0  0  0
    3.2812    1.3982    1.7639 H   0  0  0  0  0  0  0  0  0  0  0  0
    3.4439    2.2351    3.9899 H   0  0  0  0  0  0  0  0  0  0  0  0
    1.7664    2.2305    3.6106 H   0  0  0  0  0  0  0  0  0  0  0  0
    2.0299    1.2061    5.7986 H   0  0  0  0  0  0  0  0  0  0  0  0
    1.4334    0.0075    4.7122 H   0  0  0  0  0  0  0  0  0  0  0  0
    3.2905   -0.9610    5.9747 H   0  0  0  0  0  0  0  0  0  0  0  0
    3.7508   -0.8770    4.3153 H   0  0  0  0  0  0  0  0  0  0  0  0
    5.5922   -0.0029    5.6680 H   0  0  0  0  0  0  0  0  0  0  0  0
    4.9707    1.2848    4.7021 H   0  0  0  0  0  0  0  0  0  0  0  0
    5.2312    2.0992    6.9958 H   0  0  0  0  0  0  0  0  0  0  0  0
    3.5494    2.1009    6.6040 H   0  0  0  0  0  0  0  0  0  0  0  0
    3.8614    1.0934    8.8268 H   0  0  0  0  0  0  0  0  0  0  0  0
    3.2324   -0.1143    7.7299 H   0  0  0  0  0  0  0  0  0  0  0  0
    5.0888   -1.0640    9.0332 H   0  0  0  0  0  0  0  0  0  0  0  0
    5.5380   -1.0025    7.3433 H   0  0  0  0  0  0  0  0  0  0  0  0
    6.2936    1.0795    9.4361 H   0  0  0  0  0  0  0  0  0  0  0  0
    7.3827   -0.1480    8.7384 H   0  0  0  0  0  0  0  0  0  0  0  0
    6.7658    1.1479    7.7306 H   0  0  0  0  0  0  0  0  0  0  0  0
   -0.9228   -4.3574    3.6199 H   0  0  0  0  0  0  0  0  0  0  0  0
    0.2139   -2.3995    2.1876 H   0  0  0  0  0  0  0  0  0  0  0  0
   -0.3758   -9.9049    5.0800 H   0  0  0  0  0  0  0  0  0  0  0  0
   -3.5091   -6.9076    8.5124 H   0  0  0  0  0  0  0  0  0  0  0  0
   -4.8930   -5.4103   10.5205 H   0  0  0  0  0  0  0  0  0  0  0  0
   -6.0322   -5.6514    6.2427 H   0  0  0  0  0  0  0  0  0  0  0  0
   -3.1580   -9.7240    3.5612 H   0  0  0  0  0  0  0  0  0  0  0  0
   -4.6405   -8.9809    4.0696 H   0  0  0  0  0  0  0  0  0  0  0  0
   -7.7899   -4.2417    7.0723 H   0  0  0  0  0  0  0  0  0  0  0  0
   -0.6739  -13.0424    5.2443 H   0  0  0  0  0  0  0  0  0  0  0  0
   -4.6912   -6.3152    6.3152 H   0  0  0  0  0  0  0  0  0  0  0  0
    0.8307   -0.8513   -3.1961 H   0  0  0  0  0  0  0  0  0  0  0  0
    0.8420   -0.1717   -0.9895 H   0  0  0  0  0  0  0  0  0  0  0  0
    2.7474    0.9085   -2.5991 H   0  0  0  0  0  0  0  0  0  0  0  0
    0.5424    2.0595   -4.2575 H   0  0  0  0  0  0  0  0  0  0  0  0
   -1.6358   -2.3952   -2.2184 H   0  0  0  0  0  0  0  0  0  0  0  0
    1.4563    3.2594   -1.6897 H   0  0  0  0  0  0  0  0  0  0  0  0
   -1.8377   -1.3276   -0.3530 H   0  0  0  0  0  0  0  0  0  0  0  0
   -3.0529   -0.5370   -0.9075 H   0  0  0  0  0  0  0  0  0  0  0  0
   -1.6702    2.5564   -2.4337 H   0  0  0  0  0  0  0  0  0  0  0  0
   -0.3045    0.6536   -3.5266 H   0  0  0  0  0  0  0  0  0  0  0  0
    1.2980   -0.1654   -4.8083 H   0  0  0  0  0  0  0  0  0  0  0  0
    2.9960    3.0155   -3.4558 H   0  0  0  0  0  0  0  0  0  0  0  0
   -3.4834    0.6436   -2.1952 H   0  0  0  0  0  0  0  0  0  0  0  0
    0.3421    0.8634    0.2659 H   0  0  0  0  0  0  0  0  0  0  0  0
    1.8286    0.6880   -0.5981 H   0  0  0  0  0  0  0  0  0  0  0  0
    1.4061    1.6205   -1.3224 H   0  0  0  0  0  0  0  0  0  0  0  0
   -0.8717    2.0467   -5.1205 H   0  0  0  0  0  0  0  0  0  0  0  0
   -1.9160    0.7079   -5.4951 H   0  0  0  0  0  0  0  0  0  0  0  0
   -2.4745    2.1498   -4.5590 H   0  0  0  0  0  0  0  0  0  0  0  0
   -1.1132    3.8605   -3.1770 H   0  0  0  0  0  0  0  0  0  0  0  0
   -0.3585    4.7437   -1.8724 H   0  0  0  0  0  0  0  0  0  0  0  0
    1.2758    5.2157   -3.4865 H   0  0  0  0  0  0  0  0  0  0  0  0
   -1.4866  -10.1003    7.9506 H   0  0  0  0  0  0  0  0  0  0  0  0
   -3.1176   -3.9445    7.7540 H   0  0  0  0  0  0  0  0  0  0  0  0
    1.9431   -3.6960    4.3015 H   0  0  0  0  0  0  0  0  0  0  0  0
   -1.2586   -3.6965    6.4205 H   0  0  0  0  0  0  0  0  0  0  0  0
    2.2906   -4.8776    2.1255 H   0  0  0  0  0  0  0  0  0  0  0  0
    1.2426   -4.0600    6.5386 H   0  0  0  0  0  0  0  0  0  0  0  0
    1.0710   -5.9864    8.0804 H   0  0  0  0  0  0  0  0  0  0  0  0
    0.3247   -6.9844    6.8063 H   0  0  0  0  0  0  0  0  0  0  0  0
    1.8302   -6.8564    4.5354 H   0  0  0  0  0  0  0  0  0  0  0  0
    3.4822   -7.1755    4.8834 H   0  0  0  0  0  0  0  0  0  0  0  0
   -2.5651   -5.3039   10.3616 H   0  0  0  0  0  0  0  0  0  0  0  0
   -2.7983   -3.9485   12.2419 H   0  0  0  0  0  0  0  0  0  0  0  0
   -2.0641   -1.7146   13.0773 H   0  0  0  0  0  0  0  0  0  0  0  0
   -1.1532   -2.1969   11.6762 H   0  0  0  0  0  0  0  0  0  0  0  0
   -4.9334   -2.1255   11.6882 H   0  0  0  0  0  0  0  0  0  0  0  0
   -2.5734   -0.7498   10.2295 H   0  0  0  0  0  0  0  0  0  0  0  0
   -3.7829   -1.5728   13.8977 H   0  0  0  0  0  0  0  0  0  0  0  0
   -5.4531   -2.0548   13.9760 H   0  0  0  0  0  0  0  0  0  0  0  0
   -4.1555   -3.2571   14.2202 H   0  0  0  0  0  0  0  0  0  0  0  0
   -3.9464    0.0587   12.8345 H   0  0  0  0  0  0  0  0  0  0  0  0
   -4.2139    0.8328   11.2364 H   0  0  0  0  0  0  0  0  0  0  0  0
   -4.7315   -0.6483   11.4258 H   0  0  0  0  0  0  0  0  0  0  0  0
   -0.5722    0.1915   11.2447 H   0  0  0  0  0  0  0  0  0  0  0  0
   -1.8640    1.4018   11.0642 H   0  0  0  0  0  0  0  0  0  0  0  0
   -1.5325    0.6922   12.6602 H   0  0  0  0  0  0  0  0  0  0  0  0
    0.7932  -11.6457    3.1749 H   0  0  0  0  0  0  0  0  0  0  0  0
    1.7237   -7.3024    1.4104 H   0  0  0  0  0  0  0  0  0  0  0  0
   -0.4262   -8.2519    2.7585 H   0  0  0  0  0  0  0  0  0  0  0  0
   -1.3284   -9.7135    2.3787 H   0  0  0  0  0  0  0  0  0  0  0  0
   -0.0894   -9.8982    3.8171 H   0  0  0  0  0  0  0  0  0  0  0  0
   -4.0302  -10.8708    3.5019 H   0  0  0  0  0  0  0  0  0  0  0  0
   -3.2948  -13.0479    3.4868 H   0  0  0  0  0  0  0  0  0  0  0  0
   -0.5617   -9.2946    6.4954 H   0  0  0  0  0  0  0  0  0  0  0  0
    1.1747  -13.9338    6.4671 H   0  0  0  0  0  0  0  0  0  0  0  0
    2.6052  -11.7329    6.3409 H   0  0  0  0  0  0  0  0  0  0  0  0
   -1.0731  -14.9874    7.2847 H   0  0  0  0  0  0  0  0  0  0  0  0
   -5.7839  -10.7907    5.1773 H   0  0  0  0  0  0  0  0  0  0  0  0
   -7.5256  -10.9649    6.7609 H   0  0  0  0  0  0  0  0  0  0  0  0
   -2.9947  -12.5627    9.9075 H   0  0  0  0  0  0  0  0  0  0  0  0
   -4.8071  -11.4756   10.3381 H   0  0  0  0  0  0  0  0  0  0  0  0
   -6.3316  -11.9161    9.6371 H   0  0  0  0  0  0  0  0  0  0  0  0
   -5.3981  -14.1075    9.2706 H   0  0  0  0  0  0  0  0  0  0  0  0
   -5.2398  -14.8679   11.5157 H   0  0  0  0  0  0  0  0  0  0  0  0
   -4.9821  -13.1957   12.0262 H   0  0  0  0  0  0  0  0  0  0  0  0
   -7.0686  -12.0907   12.9432 H   0  0  0  0  0  0  0  0  0  0  0  0
   -9.3816  -13.7486   12.0998 H   0  0  0  0  0  0  0  0  0  0  0  0
   -1.7447    1.0588    1.1288 H   0  0  0  0  0  0  0  0  0  0  0  0
  1  2  1  0  0  0  0
  1121  1  0  0  0  0
  1122  1  0  0  0  0
  1123  1  0  0  0  0
  2  3  1  0  0  0  0
  2124  1  0  0  0  0
  2125  1  0  0  0  0
  3  4  1  0  0  0  0
  3126  1  0  0  0  0
  4  5  1  0  0  0  0
  4127  1  0  0  0  0
  4128  1  0  0  0  0
  5  6  1  0  0  0  0
  5129  1  0  0  0  0
  5130  1  0  0  0  0
  6  7  1  0  0  0  0
  6131  1  0  0  0  0
  6132  1  0  0  0  0
  7  8  1  0  0  0  0
  7133  1  0  0  0  0
  7134  1  0  0  0  0
  8  9  1  0  0  0  0
  8135  1  0  0  0  0
  8136  1  0  0  0  0
  9 10  1  0  0  0  0
  9137  1  0  0  0  0
  9138  1  0  0  0  0
 10 11  1  0  0  0  0
 10139  1  0  0  0  0
 10140  1  0  0  0  0
 11 12  1  0  0  0  0
 11141  1  0  0  0  0
 11142  1  0  0  0  0
 12 13  1  0  0  0  0
 12143  1  0  0  0  0
 12144  1  0  0  0  0
 13145  1  0  0  0  0
 13146  1  0  0  0  0
 13147  1  0  0  0  0
 15 14  2  0  0  0  0
 16 14  1  0  0  0  0
 17 66  1  0  0  0  0
 18 17  1  0  0  0  0
 18 16  2  0  0  0  0
 18148  1  0  0  0  0
 19 15  1  0  0  0  0
 19 17  2  0  0  0  0
 19149  1  0  0  0  0
 20 15  1  0  0  0  0
 21 16  1  0  0  0  0
 22 36  1  0  0  0  0
 22 86  1  0  0  0  0
 22150  1  1  0  0  0
 23 61  1  0  0  0  0
 23151  1  1  0  0  0
 23 38  1  0  0  0  0
 24 22  1  0  0  0  0
 25 23  1  0  0  0  0
 26 21  1  0  0  0  0
 27 20  1  0  0  0  0
 28 26  2  0  0  0  0
 29 27  1  0  0  0  0
 30 25  1  0  0  0  0
 30 29  2  0  0  0  0
 30152  1  0  0  0  0
 31 25  2  0  0  0  0
 31153  1  0  0  0  0
 32 24  1  0  0  0  0
 32154  1  0  0  0  0
 33 26  1  0  0  0  0
 33 32  2  0  0  0  0
 33155  1  0  0  0  0
 34 27  2  0  0  0  0
 34 31  1  0  0  0  0
 34156  1  0  0  0  0
 35 29  1  0  0  0  0
 36157  1  0  0  0  0
 37 28  1  0  0  0  0
 38158  1  0  0  0  0
 39 50  1  0  0  0  0
 39159  1  6  0  0  0
 40 39  1  0  0  0  0
 40160  1  1  0  0  0
 40 57  1  0  0  0  0
 41 39  1  0  0  0  0
 41 52  1  0  0  0  0
 41161  1  1  0  0  0
 42 40  1  0  0  0  0
 43121  1  1  0  0  0
 43 55  1  0  0  0  0
 44 41  1  0  0  0  0
 44 53  1  0  0  0  0
 44162  1  6  0  0  0
 45 50  1  0  0  0  0
 45163  1  6  0  0  0
 46 42  1  0  0  0  0
 46 44  1  0  0  0  0
 46164  1  1  0  0  0
 46 58  1  0  0  0  0
 47 43  1  0  0  0  0
 47 45  1  0  0  0  0
 47165  1  0  0  0  0
 47166  1  0  0  0  0
 48 45  1  0  0  0  0
 49 43  1  0  0  0  0
 49 54  1  0  0  0  0
 49167  1  6  0  0  0
 51 48  1  0  0  0  0
 51 49  1  0  0  0  0
 51168  1  1  0  0  0
 51 56  1  0  0  0  0
 52169  1  0  0  0  0
 53170  1  0  0  0  0
 54171  1  0  0  0  0
 55172  1  0  0  0  0
 55173  1  0  0  0  0
 55174  1  0  0  0  0
 56175  1  0  0  0  0
 56176  1  0  0  0  0
 56177  1  0  0  0  0
 57 14  1  0  0  0  0
 58 59  1  0  0  0  0
 58178  1  0  0  0  0
 58179  1  0  0  0  0
 59180  1  0  0  0  0
 60 24  2  0  0  0  0
 60 28  1  0  0  0  0
 60181  1  0  0  0  0
 61 76  1  0  0  0  0
 61182  1  6  0  0  0
 62183  1  0  0  0  0
 63 61  1  0  0  0  0
 64 87  1  0  0  0  0
 65 63  1  0  0  0  0
 65184  1  0  0  0  0
 66 62  1  0  0  0  0
 66 64  1  0  0  0  0
 66185  1  6  0  0  0
 67 62  1  0  0  0  0
 68 65  1  0  0  0  0
 68 67  1  0  0  0  0
 68 72  1  0  0  0  0
 68186  1  1  0  0  0
 69 63  2  0  0  0  0
 70 64  2  0  0  0  0
 71 67  2  0  0  0  0
 72 73  1  0  0  0  0
 72187  1  0  0  0  0
 72188  1  0  0  0  0
 73 75  2  0  0  0  0
 73 74  1  0  0  0  0
 74189  1  0  0  0  0
 74190  1  0  0  0  0
 76191  1  0  0  0  0
 77 76  1  0  0  0  0
 78 77  1  0  0  0  0
 78 81  1  0  0  0  0
 78192  1  1  0  0  0
 79 77  2  0  0  0  0
 80 78  1  0  0  0  0
 80193  1  0  0  0  0
 80194  1  0  0  0  0
 81195  1  0  0  0  0
 82 80  1  0  0  0  0
 82196  1  0  0  0  0
 83 81  1  0  0  0  0
 83197  1  0  0  0  0
 83198  1  0  0  0  0
 83199  1  0  0  0  0
 84 82  1  0  0  0  0
 84200  1  0  0  0  0
 84201  1  0  0  0  0
 84202  1  0  0  0  0
 85 82  1  0  0  0  0
 85203  1  0  0  0  0
 85204  1  0  0  0  0
 85205  1  0  0  0  0
 86 90  1  0  0  0  0
 86206  1  6  0  0  0
 87207  1  0  0  0  0
 88101  1  0  0  0  0
 88 87  1  0  0  0  0
 88 91  1  0  0  0  0
 88208  1  1  0  0  0
 89 98  2  0  0  0  0
 90209  1  0  0  0  0
 91 90  1  0  0  0  0
 91 92  2  0  0  0  0
 93 94  2  0  0  0  0
 93 95  1  0  0  0  0
 95210  1  0  0  0  0
 96106  1  0  0  0  0
 96 97  1  0  0  0  0
 96211  1  6  0  0  0
 96 93  1  0  0  0  0
 97212  1  0  0  0  0
 98 86  1  0  0  0  0
 98 97  1  0  0  0  0
100 99  2  0  0  0  0
101102  2  0  0  0  0
102 99  1  0  0  0  0
102213  1  0  0  0  0
103104  2  0  0  0  0
103100  1  0  0  0  0
103214  1  0  0  0  0
104101  1  0  0  0  0
104215  1  0  0  0  0
105100  1  0  0  0  0
105216  1  0  0  0  0
106107  2  0  0  0  0
106109  1  0  0  0  0
107110  1  0  0  0  0
107217  1  0  0  0  0
108112  1  0  0  0  0
108114  1  0  0  0  0
109 99  1  0  0  0  0
110108  2  0  0  0  0
110111  1  0  0  0  0
111218  1  0  0  0  0
112109  2  0  0  0  0
112113  1  0  0  0  0
113219  1  0  0  0  0
114115  1  0  0  0  0
114220  1  0  0  0  0
114221  1  0  0  0  0
115116  1  0  0  0  0
115222  1  0  0  0  0
116117  1  0  0  0  0
116223  1  0  0  0  0
116224  1  0  0  0  0
117118  1  0  0  0  0
117119  2  0  0  0  0
117120  1  0  0  0  0
118225  1  0  0  0  0
120226  1  0  0  0  0
121227  1  0  0  0  0
M  END
>  <DRUGBANK_ID>
DB06402

>  <COMMON_NAME>
Telavancin

>  <CAS_NUMBER>
372151-71-8

>  <UNII>
XK134822Z0

>  <SYNONYMS>
Telavancin; Telavancina; TÃ©lavancine; Telavancinum

$$$$
