
 OpenBabel10282417203D

 53 54  0  0  0  0  0  0  0  0999 V2000
    0.0387   -0.1580   -0.4114 C   0  0  0  0  0  0  0  0  0  0  0  0
    0.7247   -2.3500    3.8293 C   0  0  0  0  0  0  0  0  0  0  0  0
    5.4974   -5.2794   -3.5216 C   0  0  0  0  0  0  0  0  0  0  0  0
    2.6123    0.4003    0.0941 C   0  0  0  0  0  0  0  0  0  0  0  0
    0.2030   -0.7670    1.1427 C   0  0  0  0  0  0  0  0  0  0  0  0
    0.4009   -0.8678    3.6399 C   0  0  0  0  0  0  0  0  0  0  0  0
    5.1037   -5.8693   -4.8682 C   0  0  0  0  0  0  0  0  0  0  0  0
    1.1887   -2.4573   -3.5596 C   0  0  0  0  0  0  0  0  0  0  0  0
    1.6581   -1.6466   -2.4973 C   0  0  0  0  0  0  0  0  0  0  0  0
    3.3525   -1.5804    2.3801 C   0  0  0  0  0  0  0  0  0  0  0  0
    2.5273   -0.3387    2.7217 C   0  0  0  0  0  0  0  0  0  0  0  0
    1.7359   -4.3767   -2.2981 C   0  0  0  0  0  0  0  0  0  0  0  0
    1.3789   -5.8699   -4.7112 C   0  0  0  0  0  0  0  0  0  0  0  0
    2.6701   -1.3202   -0.0244 C   0  0  0  0  0  0  0  0  0  0  0  0
    1.3165   -3.8301   -3.5021 C   0  0  0  0  0  0  0  0  0  0  0  0
    2.1650   -2.1411   -1.2685 C   0  0  0  0  0  0  0  0  0  0  0  0
    2.9773   -2.1270    1.0385 C   0  0  0  0  0  0  0  0  0  0  0  0
    2.1161   -3.5434   -1.2134 C   0  0  0  0  0  0  0  0  0  0  0  0
    2.8201   -6.2778   -4.4099 C   0  0  0  0  0  0  0  0  0  0  0  0
    2.8682   -3.6448    1.0981 C   0  0  0  0  0  0  0  0  0  0  0  0
    1.0138   -0.2462    2.4251 N   0  0  0  0  0  0  0  0  0  0  0  0
    3.1069   -7.0977   -3.5458 O   0  0  0  0  0  0  0  0  0  0  0  0
    3.1079   -4.2917    2.0741 O   0  0  0  0  0  0  0  0  0  0  0  0
    3.7226   -5.6063   -5.1784 O   0  0  0  0  0  0  0  0  0  0  0  0
    1.0600   -4.4883   -4.6718 O   0  0  0  0  0  0  0  0  0  0  0  0
    2.4524   -4.2670   -0.0676 O   0  0  0  0  0  0  0  0  0  0  0  0
   -0.1841    0.9106   -0.5157 H   0  0  0  0  0  0  0  0  0  0  0  0
   -0.5851   -0.7621   -1.0826 H   0  0  0  0  0  0  0  0  0  0  0  0
    0.9420   -0.1571   -0.9964 H   0  0  0  0  0  0  0  0  0  0  0  0
    1.7574   -2.4966    4.1361 H   0  0  0  0  0  0  0  0  0  0  0  0
    0.1555   -2.7925    4.6458 H   0  0  0  0  0  0  0  0  0  0  0  0
    0.5436   -2.9254    2.9187 H   0  0  0  0  0  0  0  0  0  0  0  0
    4.9211   -5.7173   -2.7016 H   0  0  0  0  0  0  0  0  0  0  0  0
    6.5563   -5.4557   -3.3137 H   0  0  0  0  0  0  0  0  0  0  0  0
    5.3005   -4.2032   -3.5026 H   0  0  0  0  0  0  0  0  0  0  0  0
    2.9449    0.9208   -0.7883 H   0  0  0  0  0  0  0  0  0  0  0  0
    1.6257    0.8163    0.3392 H   0  0  0  0  0  0  0  0  0  0  0  0
    2.9741    1.0310    0.9065 H   0  0  0  0  0  0  0  0  0  0  0  0
   -0.8492   -0.6904    1.4323 H   0  0  0  0  0  0  0  0  0  0  0  0
    0.3826   -1.8448    1.0504 H   0  0  0  0  0  0  0  0  0  0  0  0
    0.7570   -0.3256    4.5297 H   0  0  0  0  0  0  0  0  0  0  0  0
   -0.6801   -0.7183    3.6323 H   0  0  0  0  0  0  0  0  0  0  0  0
    5.3044   -6.9464   -4.9124 H   0  0  0  0  0  0  0  0  0  0  0  0
    5.7068   -5.3987   -5.6531 H   0  0  0  0  0  0  0  0  0  0  0  0
    0.7653   -1.9882   -4.4483 H   0  0  0  0  0  0  0  0  0  0  0  0
    1.5417   -0.5888   -2.7061 H   0  0  0  0  0  0  0  0  0  0  0  0
    4.4227   -1.3425    2.3146 H   0  0  0  0  0  0  0  0  0  0  0  0
    3.3340   -2.2868    3.2125 H   0  0  0  0  0  0  0  0  0  0  0  0
    3.1947    0.4338    2.3543 H   0  0  0  0  0  0  0  0  0  0  0  0
    2.7007    0.0048    3.7579 H   0  0  0  0  0  0  0  0  0  0  0  0
    1.8179   -5.4509   -2.1577 H   0  0  0  0  0  0  0  0  0  0  0  0
    0.7115   -6.3969   -4.0191 H   0  0  0  0  0  0  0  0  0  0  0  0
    1.1357   -6.2519   -5.7101 H   0  0  0  0  0  0  0  0  0  0  0  0
  1 27  1  0  0  0  0
  1 28  1  0  0  0  0
  1 29  1  0  0  0  0
  2 30  1  0  0  0  0
  2 31  1  0  0  0  0
  2 32  1  0  0  0  0
  3 33  1  0  0  0  0
  3 34  1  0  0  0  0
  3 35  1  0  0  0  0
  4 36  1  0  0  0  0
  4 37  1  0  0  0  0
  4 38  1  0  0  0  0
  5  1  1  0  0  0  0
  5 39  1  0  0  0  0
  5 40  1  0  0  0  0
  6  2  1  0  0  0  0
  6 41  1  0  0  0  0
  6 42  1  0  0  0  0
  7  3  1  0  0  0  0
  7 43  1  0  0  0  0
  7 44  1  0  0  0  0
  8 45  1  0  0  0  0
  9  8  2  0  0  0  0
  9 46  1  0  0  0  0
 10 47  1  0  0  0  0
 10 48  1  0  0  0  0
 11 10  1  0  0  0  0
 11 49  1  0  0  0  0
 11 50  1  0  0  0  0
 12 51  1  0  0  0  0
 13 52  1  0  0  0  0
 13 53  1  0  0  0  0
 14  4  1  0  0  0  0
 15  8  1  0  0  0  0
 15 12  2  0  0  0  0
 16  9  1  0  0  0  0
 16 14  1  0  0  0  0
 17 10  1  0  0  0  0
 17 14  2  0  0  0  0
 18 12  1  0  0  0  0
 18 16  2  0  0  0  0
 19 13  1  0  0  0  0
 20 17  1  0  0  0  0
 21  5  1  0  0  0  0
 21  6  1  0  0  0  0
 21 11  1  0  0  0  0
 22 19  2  0  0  0  0
 23 20  2  0  0  0  0
 24  7  1  0  0  0  0
 24 19  1  0  0  0  0
 25 13  1  0  0  0  0
 25 15  1  0  0  0  0
 26 18  1  0  0  0  0
 26 20  1  0  0  0  0
M  END
>  <DRUGBANK_ID>
DB13279

>  <COMMON_NAME>
Carbocromen

>  <CAS_NUMBER>
804-10-4

>  <UNII>
R0C9NIE5JJ

>  <SYNONYMS>
Carbocromen; Chromonar

$$$$
