
 OpenBabel10282417133D

 13 12  0  0  0  0  0  0  0  0999 V2000
    0.9461   -0.0325    0.0112 N   0  0  0  0  0  0  0  0  0  0  0  0
    0.4617    1.1529   -0.6926 C   0  0  0  0  0  0  0  0  0  0  0  0
    0.9342    1.2351   -2.1434 C   0  0  0  0  0  0  0  0  0  0  0  0
   -0.3063    0.3289   -4.0095 O   0  0  0  0  0  0  0  0  0  0  0  0
    0.4606    0.0428   -2.9392 C   0  0  0  0  0  0  0  0  0  0  0  0
    0.7443   -1.1129   -2.6450 O   0  0  0  0  0  0  0  0  0  0  0  0
    0.6557   -0.8669   -0.5181 H   0  0  0  0  0  0  0  0  0  0  0  0
    1.9651   -0.0721   -0.0321 H   0  0  0  0  0  0  0  0  0  0  0  0
   -0.6333    1.1612   -0.6545 H   0  0  0  0  0  0  0  0  0  0  0  0
    0.8083    2.0366   -0.1448 H   0  0  0  0  0  0  0  0  0  0  0  0
    0.5715    2.1665   -2.5927 H   0  0  0  0  0  0  0  0  0  0  0  0
    2.0291    1.2666   -2.1951 H   0  0  0  0  0  0  0  0  0  0  0  0
   -0.4870    1.2725   -4.1709 H   0  0  0  0  0  0  0  0  0  0  0  0
  1  7  1  0  0  0  0
  1  8  1  0  0  0  0
  2  1  1  0  0  0  0
  2  9  1  0  0  0  0
  2 10  1  0  0  0  0
  3  2  1  0  0  0  0
  3  5  1  0  0  0  0
  3 11  1  0  0  0  0
  3 12  1  0  0  0  0
  4  5  1  0  0  0  0
  4 13  1  0  0  0  0
  5  6  2  0  0  0  0
M  END
>  <DRUGBANK_ID>
DB03107

>  <SECONDARY_ACCESSION_NUMBERS>
EXPT00624

>  <COMMON_NAME>
beta-Alanine

>  <CAS_NUMBER>
107-95-9

>  <UNII>
11P2JDE17B

>  <SYNONYMS>
3-aminopropanoic acid; 3-aminopropionic acid; beta-Alanine; β-alanine; β-aminopropionic acid; ω-aminopropionic acid

$$$$
