
 OpenBabel10282417193D

107113  0  0  1  0  0  0  0  0999 V2000
    1.9040   -0.6094   -0.0746 C   0  0  0  0  0  0  0  0  0  0  0  0
    0.8270   -1.9158    0.2937 C   0  0  0  0  0  0  0  0  0  0  0  0
   -0.8525   -1.7587    0.4683 C   0  0  0  0  0  0  0  0  0  0  0  0
   -1.4155   -0.1635    0.4305 C   0  0  0  0  0  0  0  0  0  0  0  0
   -0.5573    1.0903    0.0618 C   0  0  0  0  0  0  0  0  0  0  0  0
    1.3102    0.8567   -0.1449 C   0  0  0  0  0  0  0  0  0  0  0  0
   -2.5112    0.3280   -0.0626 C   0  0  0  0  0  0  0  0  0  0  0  0
   -3.3816    0.9621    0.8605 C   0  0  1  0  0  0  0  0  0  0  0  0
   -2.2173    2.5938    1.3112 C   0  0  0  0  0  0  0  0  0  0  0  0
   -2.2555    3.8488    1.1092 O   0  0  0  0  0  0  0  0  0  0  0  0
   -1.0559    2.6328    2.0258 N   0  0  0  0  0  0  0  0  0  0  0  0
    0.1226    1.7652    1.8892 C   0  0  0  0  0  0  0  0  0  0  0  0
    0.5607    2.8036    0.3323 C   0  0  0  0  0  0  0  0  0  0  0  0
    0.0683    2.2386   -1.5285 C   0  0  0  0  0  0  0  0  0  0  0  0
    0.3796    0.6889   -2.0958 N   0  0  0  0  0  0  0  0  0  0  0  0
   -0.0053   -0.4076   -0.9752 C   0  0  0  0  0  0  0  0  0  0  0  0
    0.2812   -0.0665    1.2058 C   0  0  0  0  0  0  0  0  0  0  0  0
   -0.2389    0.7478    3.1952 C   0  0  0  0  0  0  0  0  0  0  0  0
   -1.1672    1.0312    3.9566 O   0  0  0  0  0  0  0  0  0  0  0  0
    0.3955   -0.5291    3.4733 N   0  0  0  0  0  0  0  0  0  0  0  0
   -5.4874    0.2396    0.6243 N   0  0  0  0  0  0  0  0  0  0  0  0
   -6.3957   -0.3245    1.7920 C   0  0  0  0  0  0  0  0  0  0  0  0
   -7.6163   -0.2389    1.8516 O   0  0  0  0  0  0  0  0  0  0  0  0
   -4.9320   -0.2260    3.0347 C   0  0  1  0  0  0  0  0  0  0  0  0
   -4.3111   -1.3270    2.3810 C   0  0  0  0  0  0  0  0  0  0  0  0
   -4.2409   -0.1629    1.6705 C   0  0  0  0  0  0  0  0  0  0  0  0
   -5.1281    1.4846    1.9782 C   0  0  0  0  0  0  0  0  0  0  0  0
   -4.8881    1.8641    0.6441 N   0  0  0  0  0  0  0  0  0  0  0  0
   -4.5401    1.2899   -0.6632 C   0  0  0  0  0  0  0  0  0  0  0  0
   -4.2871   -0.4136   -0.3859 C   0  0  0  0  0  0  0  0  0  0  0  0
   -3.5012   -0.7168   -1.6989 C   0  0  0  0  0  0  0  0  0  0  0  0
   -3.1619    0.4310   -2.6200 C   0  0  0  0  0  0  0  0  0  0  0  0
   -3.8062    1.6711   -2.6193 C   0  0  0  0  0  0  0  0  0  0  0  0
   -4.2514    2.2381   -1.5373 C   0  0  0  0  0  0  0  0  0  0  0  0
   -3.6215    1.0858    4.0689 N   0  0  0  0  0  0  0  0  0  0  0  0
   -4.5585    1.9683    5.4709 C   0  0  0  0  0  0  0  0  0  0  0  0
   -3.7522    2.6715    6.0794 O   0  0  0  0  0  0  0  0  0  0  0  0
   -6.5261    1.2553    5.8064 C   0  0  1  0  0  0  0  0  0  0  0  0
   -7.6759    1.5448    5.0422 C   0  0  0  0  0  0  0  0  0  0  0  0
   -6.7484    0.7460    4.3412 C   0  0  0  0  0  0  0  0  0  0  0  0
   -5.4165   -0.0014    5.3225 C   0  0  0  0  0  0  0  0  0  0  0  0
   -4.1536   -0.4930    4.9015 S   0  0  0  0  0  0  0  0  0  0  0  0
   -5.2143    1.5666    3.8095 C   0  0  0  0  0  0  0  0  0  0  0  0
   -6.7070    1.5805    3.1703 C   0  0  0  0  0  0  0  0  0  0  0  0
   -7.2018    2.3122    1.5355 C   0  0  0  0  0  0  0  0  0  0  0  0
   -6.1252    3.3374    0.4914 C   0  0  0  0  0  0  0  0  0  0  0  0
   -4.4567    3.6569    1.2732 C   0  0  0  0  0  0  0  0  0  0  0  0
   -4.0100    2.8130    2.9227 C   0  0  0  0  0  0  0  0  0  0  0  0
   -6.9520   -0.7449    6.0286 N   0  0  0  0  0  0  0  0  0  0  0  0
   -6.3250   -1.5896    7.1232 C   0  0  0  0  0  0  0  0  0  0  0  0
   -5.9233   -2.7496    6.9634 O   0  0  0  0  0  0  0  0  0  0  0  0
   -6.1072   -0.7649    8.4348 C   0  0  0  0  0  0  0  0  0  0  0  0
   -7.4561   -0.1099    8.6849 C   0  0  0  0  0  0  0  0  0  0  0  0
   -7.6897    1.1583    7.9614 C   0  0  0  0  0  0  0  0  0  0  0  0
   -6.5286    2.2351    8.1501 N   0  0  0  0  0  0  0  0  0  0  0  0
   -5.1041    1.6217    8.0898 C   0  0  0  0  0  0  0  0  0  0  0  0
   -4.9350    0.2454    8.6573 C   0  0  0  0  0  0  0  0  0  0  0  0
    2.9455   -0.5869    0.1031 H   0  0  0  0  0  0  0  0  0  0  0  0
    1.1429   -2.8350   -0.1099 H   0  0  0  0  0  0  0  0  0  0  0  0
   -1.6066   -2.4508    0.1045 H   0  0  0  0  0  0  0  0  0  0  0  0
   -1.1318    2.0141   -0.0627 H   0  0  0  0  0  0  0  0  0  0  0  0
    1.9539    1.6288   -0.5546 H   0  0  0  0  0  0  0  0  0  0  0  0
   -2.3874    1.1135   -0.7956 H   0  0  0  0  0  0  0  0  0  0  0  0
   -2.6216   -0.8178    0.0490 H   0  0  0  0  0  0  0  0  0  0  0  0
   -2.6982    0.3964    1.7792 H   0  0  0  0  0  0  0  0  0  0  0  0
   -0.7902    3.6288    1.8279 H   0  0  0  0  0  0  0  0  0  0  0  0
    0.0572    3.7614    0.2989 H   0  0  0  0  0  0  0  0  0  0  0  0
    1.5916    2.8379    0.6749 H   0  0  0  0  0  0  0  0  0  0  0  0
   -1.0572    2.2931   -1.6933 H   0  0  0  0  0  0  0  0  0  0  0  0
    0.5590    2.9022   -2.1754 H   0  0  0  0  0  0  0  0  0  0  0  0
   -0.1360    0.3281   -2.8860 H   0  0  0  0  0  0  0  0  0  0  0  0
   -0.0644   -1.4336   -1.4315 H   0  0  0  0  0  0  0  0  0  0  0  0
   -1.0479   -0.3409   -1.3876 H   0  0  0  0  0  0  0  0  0  0  0  0
    1.2751   -0.1548    1.6389 H   0  0  0  0  0  0  0  0  0  0  0  0
   -0.5650   -0.6377    1.8924 H   0  0  0  0  0  0  0  0  0  0  0  0
    0.7284   -1.1841    2.7329 H   0  0  0  0  0  0  0  0  0  0  0  0
   -0.1352   -1.1747    4.0379 H   0  0  0  0  0  0  0  0  0  0  0  0
   -6.1669    0.7784   -0.0154 H   0  0  0  0  0  0  0  0  0  0  0  0
   -5.7932   -0.7947    3.5993 H   0  0  0  0  0  0  0  0  0  0  0  0
   -3.9348   -1.8807    3.1757 H   0  0  0  0  0  0  0  0  0  0  0  0
   -5.0894   -1.9019    1.9147 H   0  0  0  0  0  0  0  0  0  0  0  0
   -5.6568    2.9397    2.1319 H   0  0  0  0  0  0  0  0  0  0  0  0
   -5.5122    1.2715    1.1200 H   0  0  0  0  0  0  0  0  0  0  0  0
   -2.6060   -1.3635   -1.6030 H   0  0  0  0  0  0  0  0  0  0  0  0
   -2.1061    0.5762   -2.9514 H   0  0  0  0  0  0  0  0  0  0  0  0
   -3.8224    2.4868   -3.2828 H   0  0  0  0  0  0  0  0  0  0  0  0
   -4.4452    3.3080   -1.3452 H   0  0  0  0  0  0  0  0  0  0  0  0
   -2.6383    1.3541    4.1448 H   0  0  0  0  0  0  0  0  0  0  0  0
   -6.3852    1.3057    6.7295 H   0  0  0  0  0  0  0  0  0  0  0  0
   -8.5172    0.9642    5.3600 H   0  0  0  0  0  0  0  0  0  0  0  0
   -7.5386    2.6203    5.0746 H   0  0  0  0  0  0  0  0  0  0  0  0
   -5.2640   -0.0739    6.4206 H   0  0  0  0  0  0  0  0  0  0  0  0
   -8.1393    2.1120    0.9648 H   0  0  0  0  0  0  0  0  0  0  0  0
   -6.1539    2.7295   -0.6581 H   0  0  0  0  0  0  0  0  0  0  0  0
   -3.6091    3.1681    0.2609 H   0  0  0  0  0  0  0  0  0  0  0  0
   -2.9566    1.9345    2.7482 H   0  0  0  0  0  0  0  0  0  0  0  0
   -6.4688   -1.3741    5.2160 H   0  0  0  0  0  0  0  0  0  0  0  0
   -5.9506   -1.5262    9.2003 H   0  0  0  0  0  0  0  0  0  0  0  0
   -8.2286   -0.8262    8.3612 H   0  0  0  0  0  0  0  0  0  0  0  0
   -7.5592    0.2281    9.6837 H   0  0  0  0  0  0  0  0  0  0  0  0
   -7.8503    0.5942    7.0419 H   0  0  0  0  0  0  0  0  0  0  0  0
   -8.6418    1.6434    7.7941 H   0  0  0  0  0  0  0  0  0  0  0  0
   -6.5799    2.8874    7.3214 H   0  0  0  0  0  0  0  0  0  0  0  0
   -4.3025    2.3612    8.0703 H   0  0  0  0  0  0  0  0  0  0  0  0
   -4.7430    1.2867    7.1574 H   0  0  0  0  0  0  0  0  0  0  0  0
   -4.8707    0.5567    9.6831 H   0  0  0  0  0  0  0  0  0  0  0  0
   -3.9792   -0.2050    8.3154 H   0  0  0  0  0  0  0  0  0  0  0  0
  1  2  2  0  0  0  0
  1  6  1  0  0  0  0
  1 58  1  0  0  0  0
  2  3  1  0  0  0  0
  2 59  1  0  0  0  0
  3  4  2  0  0  0  0
  3 60  1  0  0  0  0
  4  5  1  0  0  0  0
  4  7  1  0  0  0  0
  5  6  2  0  0  0  0
  5 61  1  0  0  0  0
  6 62  1  0  0  0  0
  7  8  1  0  0  0  0
  7 63  1  0  0  0  0
  7 64  1  0  0  0  0
  8  9  1  0  0  0  0
  8 21  1  0  0  0  0
  8 65  1  1  0  0  0
  9 10  2  0  0  0  0
  9 11  1  0  0  0  0
 11 12  1  0  0  0  0
 11 66  1  0  0  0  0
 12 13  1  0  0  0  0
 12 17  1  0  0  0  0
 12 18  1  0  0  0  0
 13 14  1  0  0  0  0
 13 67  1  0  0  0  0
 13 68  1  0  0  0  0
 14 15  1  0  0  0  0
 14 69  1  0  0  0  0
 14 70  1  0  0  0  0
 15 16  1  0  0  0  0
 15 71  1  0  0  0  0
 16 17  1  0  0  0  0
 16 72  1  0  0  0  0
 16 73  1  0  0  0  0
 17 74  1  0  0  0  0
 17 75  1  0  0  0  0
 18 19  2  0  0  0  0
 18 20  1  0  0  0  0
 20 76  1  0  0  0  0
 20 77  1  0  0  0  0
 21 22  1  0  0  0  0
 21 78  1  0  0  0  0
 22 23  2  0  0  0  0
 22 24  1  0  0  0  0
 24 25  1  0  0  0  0
 24 35  1  0  0  0  0
 24 79  1  1  0  0  0
 25 26  1  0  0  0  0
 25 80  1  0  0  0  0
 25 81  1  0  0  0  0
 26 27  2  0  0  0  0
 26 30  1  0  0  0  0
 27 28  1  0  0  0  0
 27 82  1  0  0  0  0
 28 29  1  0  0  0  0
 28 83  1  0  0  0  0
 29 30  1  0  0  0  0
 29 34  2  0  0  0  0
 30 31  2  0  0  0  0
 31 32  1  0  0  0  0
 31 84  1  0  0  0  0
 32 33  2  0  0  0  0
 32 85  1  0  0  0  0
 33 34  1  0  0  0  0
 33 86  1  0  0  0  0
 34 87  1  0  0  0  0
 35 36  1  0  0  0  0
 35 88  1  0  0  0  0
 36 37  2  0  0  0  0
 36 38  1  0  0  0  0
 38 39  1  0  0  0  0
 38 49  1  0  0  0  0
 38 89  1  1  0  0  0
 39 40  1  0  0  0  0
 39 90  1  0  0  0  0
 39 91  1  0  0  0  0
 40 41  2  0  0  0  0
 40 44  1  0  0  0  0
 41 42  1  0  0  0  0
 41 92  1  0  0  0  0
 42 43  1  0  0  0  0
 43 44  1  0  0  0  0
 43 48  2  0  0  0  0
 44 45  2  0  0  0  0
 45 46  1  0  0  0  0
 45 93  1  0  0  0  0
 46 47  2  0  0  0  0
 46 94  1  0  0  0  0
 47 48  1  0  0  0  0
 47 95  1  0  0  0  0
 48 96  1  0  0  0  0
 49 50  1  0  0  0  0
 49 97  1  0  0  0  0
 50 51  2  0  0  0  0
 50 52  1  0  0  0  0
 52 53  1  0  0  0  0
 52 57  1  0  0  0  0
 52 98  1  0  0  0  0
 53 54  1  0  0  0  0
 53 99  1  0  0  0  0
 53100  1  0  0  0  0
 54 55  1  0  0  0  0
 54101  1  0  0  0  0
 54102  1  0  0  0  0
 55 56  1  0  0  0  0
 55103  1  0  0  0  0
 56 57  1  0  0  0  0
 56104  1  0  0  0  0
 56105  1  0  0  0  0
 57106  1  0  0  0  0
 57107  1  0  0  0  0
M  END
>  <DRUGBANK_ID>
DB12678

>  <COMMON_NAME>
Relamorelin

>  <CAS_NUMBER>
661472-41-9

>  <UNII>
BIW199E18V

>  <SYNONYMS>
Relamorelin

$$$$
