
 OpenBabel10282417223D

 59 62  0  0  1  0  0  0  0  0999 V2000
   -5.4498    8.0689   12.3832 C   0  0  0  0  0  0  0  0  0  0  0  0
    0.7425    3.8100   11.5303 C   0  0  0  0  0  0  0  0  0  0  0  0
   -0.5702    5.2026   17.7226 C   0  0  0  0  0  0  0  0  0  0  0  0
    2.7848    2.3674   15.0024 C   0  0  0  0  0  0  0  0  0  0  0  0
    1.4940    2.2550   15.7931 C   0  0  0  0  0  0  0  0  0  0  0  0
    3.2070    3.0259   11.0122 C   0  0  0  0  0  0  0  0  0  0  0  0
   -2.1862    3.5606   16.0249 C   0  0  0  0  0  0  0  0  0  0  0  0
    2.8813    3.8311   12.0714 C   0  0  0  0  0  0  0  0  0  0  0  0
   -2.8794    5.2481   15.5524 C   0  0  0  0  0  0  0  0  0  0  0  0
    2.6140    1.2524   12.7847 C   0  0  0  0  0  0  0  0  0  0  0  0
   -1.2830    4.6277   14.2866 C   0  0  0  0  0  0  0  0  0  0  0  0
   -2.3525    8.3152   14.5745 C   0  0  0  0  0  0  0  0  0  0  0  0
   -4.2527    7.6101   13.1611 C   0  0  0  0  0  0  0  0  0  0  0  0
    2.2898    2.2851   13.5592 C   0  0  0  0  0  0  0  0  0  0  0  0
    2.3232    1.6683   11.4461 C   0  0  0  0  0  0  0  0  0  0  0  0
    0.7159    3.5539   15.4217 C   0  0  1  0  0  0  0  0  0  0  0  0
   -0.6567    3.7685   16.2559 C   0  0  1  0  0  0  0  0  0  0  0  0
   -0.0938    5.1396   13.6837 C   0  0  1  0  0  0  0  0  0  0  0  0
   -2.6785    7.6878   15.9768 C   0  0  0  0  0  0  0  0  0  0  0  0
    0.6018    3.8190   13.8808 C   0  0  2  0  0  0  0  0  0  0  0  0
    1.6445    3.4945   12.8489 C   0  0  2  0  0  0  0  0  0  0  0  0
   -0.9306    5.3116   16.1052 C   0  0  2  0  0  0  0  0  0  0  0  0
   -2.2871    6.1640   16.4688 C   0  0  2  0  0  0  0  0  0  0  0  0
   -3.9981    6.4292   13.1875 O   0  0  0  0  0  0  0  0  0  0  0  0
    1.3227    1.2035   10.8132 O   0  0  0  0  0  0  0  0  0  0  0  0
   -0.3852    5.8546   12.4997 O   0  0  0  0  0  0  0  0  0  0  0  0
   -3.4754    8.3359   16.6800 O   0  0  0  0  0  0  0  0  0  0  0  0
   -3.1607    5.7990   17.5281 O   0  0  0  0  0  0  0  0  0  0  0  0
   -3.5164    8.6097   13.7257 O   0  0  0  0  0  0  0  0  0  0  0  0
    1.3884    4.3609   15.7732 H   0  0  0  0  0  0  0  0  0  0  0  0
   -0.3767    3.2163   17.1781 H   0  0  0  0  0  0  0  0  0  0  0  0
    0.2157    5.9335   14.3455 H   0  0  0  0  0  0  0  0  0  0  0  0
   -0.1017    2.9769   13.6600 H   0  0  0  0  0  0  0  0  0  0  0  0
   -5.9562    7.1566   12.0327 H   0  0  0  0  0  0  0  0  0  0  0  0
   -5.1383    8.6192   11.4953 H   0  0  0  0  0  0  0  0  0  0  0  0
   -6.1653    8.6092   13.0031 H   0  0  0  0  0  0  0  0  0  0  0  0
   -0.3248    3.6297   11.6701 H   0  0  0  0  0  0  0  0  0  0  0  0
    0.9477    4.8618   11.2313 H   0  0  0  0  0  0  0  0  0  0  0  0
    0.9297    3.3175   10.5843 H   0  0  0  0  0  0  0  0  0  0  0  0
    0.4827    5.0207   17.9455 H   0  0  0  0  0  0  0  0  0  0  0  0
   -0.8167    6.1189   18.2704 H   0  0  0  0  0  0  0  0  0  0  0  0
   -1.1896    4.4460   18.2863 H   0  0  0  0  0  0  0  0  0  0  0  0
    3.5632    1.6034   15.1276 H   0  0  0  0  0  0  0  0  0  0  0  0
    3.2875    3.2783   15.3731 H   0  0  0  0  0  0  0  0  0  0  0  0
    1.0107    1.3006   15.5419 H   0  0  0  0  0  0  0  0  0  0  0  0
    1.6395    2.2409   16.8804 H   0  0  0  0  0  0  0  0  0  0  0  0
    3.2742    2.2936   10.2153 H   0  0  0  0  0  0  0  0  0  0  0  0
   -2.1604    2.7270   15.3066 H   0  0  0  0  0  0  0  0  0  0  0  0
   -2.6759    3.1623   16.9128 H   0  0  0  0  0  0  0  0  0  0  0  0
    3.3470    4.7703   12.3268 H   0  0  0  0  0  0  0  0  0  0  0  0
   -2.3393    5.9337   14.8192 H   0  0  0  0  0  0  0  0  0  0  0  0
   -3.7646    5.4001   14.9812 H   0  0  0  0  0  0  0  0  0  0  0  0
    3.3404    0.4972   13.0019 H   0  0  0  0  0  0  0  0  0  0  0  0
   -1.9622    5.0490   13.4965 H   0  0  0  0  0  0  0  0  0  0  0  0
   -2.1612    3.8805   14.0730 H   0  0  0  0  0  0  0  0  0  0  0  0
   -1.5379    7.8618   14.0036 H   0  0  0  0  0  0  0  0  0  0  0  0
   -1.9595    9.3229   14.8175 H   0  0  0  0  0  0  0  0  0  0  0  0
   -0.9956    5.3725   11.9079 H   0  0  0  0  0  0  0  0  0  0  0  0
   -2.7245    5.6271   18.3625 H   0  0  0  0  0  0  0  0  0  0  0  0
  1 34  1  0  0  0  0
  1 35  1  0  0  0  0
  1 36  1  0  0  0  0
  2 37  1  0  0  0  0
  2 38  1  0  0  0  0
  2 39  1  0  0  0  0
  3 40  1  0  0  0  0
  3 41  1  0  0  0  0
  3 42  1  0  0  0  0
  4 43  1  0  0  0  0
  4 44  1  0  0  0  0
  5  4  1  0  0  0  0
  5 45  1  0  0  0  0
  5 46  1  0  0  0  0
  6 47  1  0  0  0  0
  7 48  1  0  0  0  0
  7 49  1  0  0  0  0
  8  6  2  0  0  0  0
  8 50  1  0  0  0  0
  9  7  1  0  0  0  0
  9 51  1  0  0  0  0
  9 52  1  0  0  0  0
 10 53  1  0  0  0  0
 11 54  1  0  0  0  0
 11 55  1  0  0  0  0
 12 56  1  0  0  0  0
 12 57  1  0  0  0  0
 13  1  1  0  0  0  0
 14  4  1  0  0  0  0
 14 10  2  0  0  0  0
 15  6  1  0  0  0  0
 15 10  1  0  0  0  0
 16  5  1  0  0  0  0
 16 30  1  6  0  0  0
 17  7  1  0  0  0  0
 17 16  1  0  0  0  0
 17 31  1  1  0  0  0
 18 11  1  0  0  0  0
 18 26  1  0  0  0  0
 18 32  1  1  0  0  0
 19 12  1  0  0  0  0
 20 16  1  0  0  0  0
 20 18  1  0  0  0  0
 20 33  1  1  0  0  0
 21  8  1  0  0  0  0
 21 14  1  0  0  0  0
 21 20  1  0  0  0  0
 21  2  1  6  0  0  0
 22 11  1  0  0  0  0
 22 17  1  0  0  0  0
 22  3  1  6  0  0  0
 23  9  1  0  0  0  0
 23 22  1  0  0  0  0
 23 19  1  6  0  0  0
 23 28  1  0  0  0  0
 24 13  2  0  0  0  0
 25 15  2  0  0  0  0
 26 58  1  0  0  0  0
 27 19  2  0  0  0  0
 28 59  1  0  0  0  0
 29 12  1  0  0  0  0
 29 13  1  0  0  0  0
M  END
>  <DRUGBANK_ID>
DB15566

>  <SECONDARY_ACCESSION_NUMBERS>
DBSALT000254

>  <COMMON_NAME>
Prednisolone acetate

>  <CAS_NUMBER>
52-21-1

>  <UNII>
8B2807733D

>  <SYNONYMS>
Prednisolone acetate

$$$$
