
 OpenBabel10282417123D

 29 29  0  0  0  0  0  0  0  0999 V2000
   -1.2188   -1.5951   -0.0931 O   0  0  0  0  0  0  0  0  0  0  0  0
   -1.7237   -0.4340   -0.7682 C   0  0  3  0  0  0  0  0  0  0  0  0
   -0.8701    0.8931   -0.5897 C   0  0  1  0  0  0  0  0  0  0  0  0
   -1.0282    1.6442    0.6425 O   0  0  0  0  0  0  0  0  0  0  0  0
    0.6230    0.6037   -0.6830 C   0  0  1  0  0  0  0  0  0  0  0  0
    1.3549    1.7828   -0.3132 O   0  0  0  0  0  0  0  0  0  0  0  0
    1.0119   -0.5590    0.2409 C   0  0  2  0  0  0  0  0  0  0  0  0
    2.4094   -0.8360    0.1529 O   0  0  0  0  0  0  0  0  0  0  0  0
    0.1968   -1.8041   -0.1295 C   0  0  1  0  0  0  0  0  0  0  0  0
    0.5411   -2.9445    0.8481 C   0  0  0  0  0  0  0  0  0  0  0  0
   -0.2319   -4.1051    0.5485 O   0  0  0  0  0  0  0  0  0  0  0  0
   -3.1241   -0.2655   -0.4246 O   0  0  0  0  0  0  0  0  0  0  0  0
   -1.9363   -0.1139    1.7340 O   0  0  0  0  0  0  0  0  0  0  0  0
   -3.6033    1.7098    0.7693 O   0  0  0  0  0  0  0  0  0  0  0  0
   -3.3480    0.1794    1.2321 P   0  0  0  0  0  0  0  0  0  0  0  0
   -3.5719    0.6243    2.8889 O   0  0  0  0  0  0  0  0  0  0  0  0
   -1.6992   -0.6775   -1.8351 H   0  0  0  0  0  0  0  0  0  0  0  0
   -1.1915    1.6196   -1.3387 H   0  0  0  0  0  0  0  0  0  0  0  0
   -0.9712    0.9689    1.3680 H   0  0  0  0  0  0  0  0  0  0  0  0
    0.8949    0.3725   -1.7162 H   0  0  0  0  0  0  0  0  0  0  0  0
    0.9441    2.1077    0.5157 H   0  0  0  0  0  0  0  0  0  0  0  0
    0.8286   -0.2779    1.2877 H   0  0  0  0  0  0  0  0  0  0  0  0
    2.6521   -0.9117   -0.7944 H   0  0  0  0  0  0  0  0  0  0  0  0
    0.4501   -2.1373   -1.1424 H   0  0  0  0  0  0  0  0  0  0  0  0
    1.5988   -3.2182    0.7802 H   0  0  0  0  0  0  0  0  0  0  0  0
    0.3246   -2.6634    1.8854 H   0  0  0  0  0  0  0  0  0  0  0  0
   -1.1619   -3.8232    0.6350 H   0  0  0  0  0  0  0  0  0  0  0  0
   -2.8082    2.1245    0.3836 H   0  0  0  0  0  0  0  0  0  0  0  0
   -2.7150    0.9909    3.1720 H   0  0  0  0  0  0  0  0  0  0  0  0
  1  9  1  0  0  0  0
  1  2  1  0  0  0  0
  2 12  1  0  0  0  0
  2 17  1  0  0  0  0
  3  2  1  0  0  0  0
  3  4  1  0  0  0  0
  3 18  1  6  0  0  0
  4 19  1  0  0  0  0
  5  3  1  0  0  0  0
  5  6  1  0  0  0  0
  5 20  1  6  0  0  0
  6 21  1  0  0  0  0
  7  5  1  0  0  0  0
  7  8  1  0  0  0  0
  7 22  1  1  0  0  0
  8 23  1  0  0  0  0
  9  7  1  0  0  0  0
  9 10  1  0  0  0  0
  9 24  1  6  0  0  0
 10 11  1  0  0  0  0
 10 25  1  0  0  0  0
 10 26  1  0  0  0  0
 11 27  1  0  0  0  0
 12 15  1  0  0  0  0
 14 28  1  0  0  0  0
 15 13  2  0  0  0  0
 15 14  1  0  0  0  0
 15 16  1  0  0  0  0
 16 29  1  0  0  0  0
M  END
>  <DRUGBANK_ID>
DB02867

>  <SECONDARY_ACCESSION_NUMBERS>
EXPT02084

>  <COMMON_NAME>
D-Mannose 1-phosphate

>  <CAS_NUMBER>
27251-84-9

>  <SYNONYMS>
D-Mannose 1-phosphate; D-mannose 1-phosphates; Mannose 1-phosphate

$$$$
