
 OpenBabel10282417103D

 50 53  0  0  0  0  0  0  0  0999 V2000
    1.4749    1.0931   -0.0207 S   0  0  0  0  0  0  0  0  0  0  0  0
    0.0045    0.7346   -0.9657 C   0  0  1  0  0  0  0  0  0  0  0  0
   -0.6190   -0.5152   -0.5537 N   0  0  0  0  0  0  0  0  0  0  0  0
   -0.0049   -1.7383   -0.3825 C   0  0  0  0  0  0  0  0  0  0  0  0
    1.3548   -1.7901   -0.2288 C   0  0  0  0  0  0  0  0  0  0  0  0
    2.2690   -0.5434   -0.3135 C   0  0  0  0  0  0  0  0  0  0  0  0
   -1.3410    1.4359   -0.6158 C   0  0  1  0  0  0  0  0  0  0  0  0
   -1.7361    0.0578   -0.0043 C   0  0  0  0  0  0  0  0  0  0  0  0
   -0.9256   -2.9518   -0.2325 C   0  0  0  0  0  0  0  0  0  0  0  0
   -2.1421   -2.9432   -0.2190 O   0  0  0  0  0  0  0  0  0  0  0  0
   -0.2795   -4.1298   -0.1729 O   0  0  0  0  0  0  0  0  0  0  0  0
   -1.4094    2.6693    0.2364 N   0  0  0  0  0  0  0  0  0  0  0  0
    0.2250    0.7812   -2.0309 H   0  0  0  0  0  0  0  0  0  0  0  0
   -2.1022    3.7989   -0.2134 C   0  0  0  0  0  0  0  0  0  0  0  0
   -2.1908    5.0676    0.6803 C   0  0  0  0  0  0  0  0  0  0  0  0
   -2.5823    3.8284   -1.3423 O   0  0  0  0  0  0  0  0  0  0  0  0
   -1.6271    5.1973    1.8592 N   0  0  0  0  0  0  0  0  0  0  0  0
   -0.9796    4.0297    2.2828 O   0  0  0  0  0  0  0  0  0  0  0  0
   -0.4493    4.1812    3.5939 C   0  0  0  0  0  0  0  0  0  0  0  0
   -4.1648    6.1216   -0.4880 N   0  0  0  0  0  0  0  0  0  0  0  0
   -4.6401    7.2919   -0.8419 C   0  0  0  0  0  0  0  0  0  0  0  0
   -3.6485    8.6301   -0.4314 S   0  0  0  0  0  0  0  0  0  0  0  0
   -2.5043    7.5605    0.2720 C   0  0  0  0  0  0  0  0  0  0  0  0
   -2.9319    6.2464    0.1675 C   0  0  0  0  0  0  0  0  0  0  0  0
   -5.8104    7.4644   -1.4700 N   0  0  0  0  0  0  0  0  0  0  0  0
   -2.5963   -0.3459    0.7272 O   0  0  0  0  0  0  0  0  0  0  0  0
    2.1211   -3.0266    0.2818 C   0  0  0  0  0  0  0  0  0  0  0  0
    1.6124   -3.7854    1.8695 S   0  0  0  0  0  0  0  0  0  0  0  0
    1.4250   -1.4682    3.4490 N   0  0  0  0  0  0  0  0  0  0  0  0
    1.7173   -2.7860    3.2727 C   0  0  0  0  0  0  0  0  0  0  0  0
    1.9357   -3.2741    4.4775 N   0  0  0  0  0  0  0  0  0  0  0  0
    1.8819   -2.2135    5.3524 N   0  0  0  0  0  0  0  0  0  0  0  0
    1.6021   -1.0934    4.7161 N   0  0  0  0  0  0  0  0  0  0  0  0
    1.0876   -0.4626    2.5256 C   0  0  0  0  0  0  0  0  0  0  0  0
    2.7830   -0.4956   -1.2733 H   0  0  0  0  0  0  0  0  0  0  0  0
    3.0415   -0.6228    0.4654 H   0  0  0  0  0  0  0  0  0  0  0  0
   -1.9115    1.6044   -1.5356 H   0  0  0  0  0  0  0  0  0  0  0  0
   -0.9167   -4.8022    0.1539 H   0  0  0  0  0  0  0  0  0  0  0  0
   -1.0412    2.7163    1.1837 H   0  0  0  0  0  0  0  0  0  0  0  0
    0.3058    4.9708    3.6159 H   0  0  0  0  0  0  0  0  0  0  0  0
   -1.2426    4.3733    4.3216 H   0  0  0  0  0  0  0  0  0  0  0  0
    0.0336    3.2334    3.8532 H   0  0  0  0  0  0  0  0  0  0  0  0
   -1.5926    7.9453    0.7035 H   0  0  0  0  0  0  0  0  0  0  0  0
   -6.1650    8.3775   -1.7221 H   0  0  0  0  0  0  0  0  0  0  0  0
   -6.3721    6.6609   -1.7211 H   0  0  0  0  0  0  0  0  0  0  0  0
    2.0434   -3.8005   -0.4975 H   0  0  0  0  0  0  0  0  0  0  0  0
    3.1948   -2.8354    0.3541 H   0  0  0  0  0  0  0  0  0  0  0  0
    0.1791    0.0902    2.7474 H   0  0  0  0  0  0  0  0  0  0  0  0
    1.9656    0.1718    2.3976 H   0  0  0  0  0  0  0  0  0  0  0  0
    0.8434   -1.0053    1.6552 H   0  0  0  0  0  0  0  0  0  0  0  0
  1  2  1  0  0  0  0
  1  6  1  0  0  0  0
  2  3  1  0  0  0  0
  2  7  1  0  0  0  0
  2 13  1  6  0  0  0
  3  4  1  0  0  0  0
  4  5  2  0  0  0  0
  4  9  1  0  0  0  0
  5  6  1  0  0  0  0
  5 27  1  0  0  0  0
  6 35  1  0  0  0  0
  6 36  1  0  0  0  0
  7  8  1  0  0  0  0
  7 12  1  0  0  0  0
  7 37  1  6  0  0  0
  8  3  1  0  0  0  0
  8 26  2  0  0  0  0
  9 10  2  0  0  0  0
  9 11  1  0  0  0  0
 11 38  1  0  0  0  0
 12 14  1  0  0  0  0
 12 39  1  0  0  0  0
 14 15  1  0  0  0  0
 14 16  2  0  0  0  0
 15 24  1  0  0  0  0
 15 17  2  0  0  0  0
 17 18  1  0  0  0  0
 18 19  1  0  0  0  0
 19 40  1  0  0  0  0
 19 41  1  0  0  0  0
 19 42  1  0  0  0  0
 20 21  2  0  0  0  0
 20 24  1  0  0  0  0
 21 22  1  0  0  0  0
 21 25  1  0  0  0  0
 22 23  1  0  0  0  0
 23 24  2  0  0  0  0
 23 43  1  0  0  0  0
 25 44  1  0  0  0  0
 25 45  1  0  0  0  0
 27 28  1  0  0  0  0
 27 46  1  0  0  0  0
 27 47  1  0  0  0  0
 28 30  1  0  0  0  0
 29 30  1  0  0  0  0
 29 33  1  0  0  0  0
 29 34  1  0  0  0  0
 30 31  2  0  0  0  0
 31 32  1  0  0  0  0
 32 33  2  0  0  0  0
 34 48  1  0  0  0  0
 34 49  1  0  0  0  0
 34 50  1  0  0  0  0
M  END
>  <DRUGBANK_ID>
DB00267

>  <SECONDARY_ACCESSION_NUMBERS>
APRD00851

>  <COMMON_NAME>
Cefmenoxime

>  <CAS_NUMBER>
65085-01-0

>  <UNII>
KBZ4844CXN

>  <SYNONYMS>
(6R,7R)-7-((Z)-2-(2-Amino-4-thiazolyl)-2-methoxyiminoacetamido)-3-((1-methyl-1H-5-tetraazolylthio)methyl)-8-oxo-5-thia-1-azabicyclo(4.2.0)oct-2-en-2-carbonsaeure; (6R,7R)-7-[[(2E)-2-(2-amino-1,3-thiazol-4-yl)-2-methoxyiminoacetyl]amino]-3-[(1-methyltetrazol-5-yl)sulfanylmethyl]-8-oxo-5-thia-1-azabicyclo[4.2.0]oct-2-ene-2-carboxylic acid; Cefmenoxima; Cefmenoxime; Cefmenoximum; CMX

$$$$
