
 OpenBabel10282417193D

 30 31  0  0  0  0  0  0  0  0999 V2000
    1.1140   -0.0493   -0.0365 C   0  0  0  0  0  0  0  0  0  0  0  0
    0.6803    0.1617   -1.4448 C   0  0  0  0  0  0  0  0  0  0  0  0
    0.5034    1.3772   -2.0802 C   0  0  0  0  0  0  0  0  0  0  0  0
   -0.0700    1.1476   -3.6813 S   0  0  0  0  0  0  0  0  0  0  0  0
   -0.0753   -0.5502   -3.4941 C   0  0  0  0  0  0  0  0  0  0  0  0
    0.3165   -0.9026   -2.2743 N   0  3  0  0  0  0  0  0  0  0  0  0
    0.2931   -2.3145   -1.8739 C   0  0  0  0  0  0  0  0  0  0  0  0
   -1.0925   -2.9245   -1.9627 C   0  0  0  0  0  0  0  0  0  0  0  0
   -1.3104   -3.8762   -2.7177 O   0  0  0  0  0  0  0  0  0  0  0  0
   -2.2112   -2.3870   -1.1404 C   0  0  0  0  0  0  0  0  0  0  0  0
   -2.4351   -1.0124   -1.0105 C   0  0  0  0  0  0  0  0  0  0  0  0
   -3.5604   -0.5186   -0.3612 C   0  0  0  0  0  0  0  0  0  0  0  0
   -4.5002   -1.4029    0.1417 C   0  0  0  0  0  0  0  0  0  0  0  0
   -4.3029   -2.7775    0.0072 C   0  0  0  0  0  0  0  0  0  0  0  0
   -3.1451   -3.2747   -0.6005 C   0  0  0  0  0  0  0  0  0  0  0  0
    0.7137    2.7604   -1.5698 C   0  0  0  0  0  0  0  0  0  0  0  0
    0.7144   -0.9545    0.4233 H   0  0  0  0  0  0  0  0  0  0  0  0
    0.7637    0.7734    0.5970 H   0  0  0  0  0  0  0  0  0  0  0  0
    2.2059   -0.0748    0.0180 H   0  0  0  0  0  0  0  0  0  0  0  0
   -0.4215   -1.2243   -4.2707 H   0  0  0  0  0  0  0  0  0  0  0  0
    0.9638   -2.8572   -2.5536 H   0  0  0  0  0  0  0  0  0  0  0  0
    0.6805   -2.4829   -0.8693 H   0  0  0  0  0  0  0  0  0  0  0  0
   -1.8093   -0.2616   -1.4533 H   0  0  0  0  0  0  0  0  0  0  0  0
   -3.7204    0.5559   -0.2971 H   0  0  0  0  0  0  0  0  0  0  0  0
   -5.3975   -1.0177    0.6202 H   0  0  0  0  0  0  0  0  0  0  0  0
   -5.0746   -3.4620    0.3532 H   0  0  0  0  0  0  0  0  0  0  0  0
   -3.0035   -4.3525   -0.6707 H   0  0  0  0  0  0  0  0  0  0  0  0
    1.4621    3.2741   -2.1794 H   0  0  0  0  0  0  0  0  0  0  0  0
   -0.2222    3.3281   -1.5991 H   0  0  0  0  0  0  0  0  0  0  0  0
    1.0682    2.7566   -0.5350 H   0  0  0  0  0  0  0  0  0  0  0  0
  1  2  1  0  0  0  0
  1 17  1  0  0  0  0
  1 18  1  0  0  0  0
  1 19  1  0  0  0  0
  2  3  2  0  0  0  0
  2  6  1  0  0  0  0
  3  4  1  0  0  0  0
  3 16  1  0  0  0  0
  4  5  1  0  0  0  0
  5  6  2  0  0  0  0
  5 20  1  0  0  0  0
  6  7  1  0  0  0  0
  7  8  1  0  0  0  0
  7 21  1  0  0  0  0
  7 22  1  0  0  0  0
  8  9  2  0  0  0  0
  8 10  1  0  0  0  0
 10 11  2  0  0  0  0
 10 15  1  0  0  0  0
 11 12  1  0  0  0  0
 11 23  1  0  0  0  0
 12 13  2  0  0  0  0
 12 24  1  0  0  0  0
 13 14  1  0  0  0  0
 13 25  1  0  0  0  0
 14 15  2  0  0  0  0
 14 26  1  0  0  0  0
 15 27  1  0  0  0  0
 16 28  1  0  0  0  0
 16 29  1  0  0  0  0
 16 30  1  0  0  0  0
M  CHG  1   6   1
M  END
>  <DRUGBANK_ID>
DB12497

>  <COMMON_NAME>
Alagebrium

>  <CAS_NUMBER>
393121-34-1

>  <UNII>
DGH49JXB1F

$$$$
