
 OpenBabel10282417133D

174183  0  0  0  0  0  0  0  0999 V2000
    0.0176   -0.1729   -1.6342 N   0  0  0  0  0  0  0  0  0  0  0  0
    2.6097    3.6581   -8.4764 O   0  0  0  0  0  0  0  0  0  0  0  0
   -6.9962    0.9164   -7.2821 N   0  0  0  0  0  0  0  0  0  0  0  0
    2.0323    4.5990   -0.4073 N   0  0  0  0  0  0  0  0  0  0  0  0
    2.9449    6.3590   -4.6316 N   0  0  0  0  0  0  0  0  0  0  0  0
    2.8580    5.4303    0.7950 C   0  0  3  0  0  0  0  0  0  0  0  0
    3.8166    6.4235   -0.0438 O   0  0  0  0  0  0  0  0  0  0  0  0
    3.6736    7.0629   -1.8126 C   0  0  3  0  0  0  0  0  0  0  0  0
    3.9952    5.5252   -2.3133 C   0  0  0  0  0  0  0  0  0  0  0  0
    2.9980    4.2938   -1.9720 C   0  0  3  0  0  0  0  0  0  0  0  0
    3.3796    3.5794   -0.1583 C   0  0  0  0  0  0  0  0  0  0  0  0
    3.2938    2.6506   -7.6310 C   0  0  3  0  0  0  0  0  0  0  0  0
    3.7296    1.6965   -8.6586 C   0  0  3  0  0  0  0  0  0  0  0  0
    2.4728    1.1279   -9.2983 C   0  0  3  0  0  0  0  0  0  0  0  0
    1.6529    2.1338  -10.0130 C   0  0  3  0  0  0  0  0  0  0  0  0
    1.3317    3.1666   -9.1129 C   0  0  3  0  0  0  0  0  0  0  0  0
   -6.2371    0.9571   -2.3394 C   0  0  0  0  0  0  0  0  0  0  0  0
   -4.5775    1.2048   -2.4042 C   0  0  0  0  0  0  0  0  0  0  0  0
   -6.8727    1.9600   -2.9014 C   0  0  0  0  0  0  0  0  0  0  0  0
   -7.7672    0.3190   -6.3031 C   0  0  0  0  0  0  0  0  0  0  0  0
   -7.2837    0.3722   -4.8650 C   0  0  3  0  0  0  0  0  0  0  0  0
   -7.2745    1.8450   -4.3546 C   0  0  3  0  0  0  0  0  0  0  0  0
   -6.1288    3.0681   -2.5748 C   0  0  0  0  0  0  0  0  0  0  0  0
   -5.6630    1.5543   -7.0972 C   0  0  3  0  0  0  0  0  0  0  0  0
   -4.4455    3.1802   -2.7684 C   0  0  0  0  0  0  0  0  0  0  0  0
   -3.2508    2.1013   -3.4220 C   0  0  0  0  0  0  0  0  0  0  0  0
   -2.2334    1.8832   -5.2220 O   0  0  0  0  0  0  0  0  0  0  0  0
   -3.1881   -0.2336   -6.5880 N   0  0  0  0  0  0  0  0  0  0  0  0
   -4.3338    0.6686   -7.6018 C   0  0  0  0  0  0  0  0  0  0  0  0
   -1.9143   -1.2240   -5.3366 C   0  0  3  0  0  0  0  0  0  0  0  0
   -0.6718   -1.1723   -3.1534 C   0  0  0  0  0  0  0  0  0  0  0  0
    1.4016    0.3679   -4.6113 O   0  0  0  0  0  0  0  0  0  0  0  0
    1.0776    6.1042   -1.4234 C   0  0  3  0  0  0  0  0  0  0  0  0
    1.5551    2.9527    0.6149 C   0  0  0  0  0  0  0  0  0  0  0  0
    0.5513    1.2273   -0.1014 C   0  0  3  0  0  0  0  0  0  0  0  0
    2.2473    6.3686   -1.4394 C   0  0  3  0  0  0  0  0  0  0  0  0
    2.8151    7.0782   -3.4689 C   0  0  0  0  0  0  0  0  0  0  0  0
    3.2294    4.9581   -4.7250 C   0  0  3  0  0  0  0  0  0  0  0  0
   -0.2404    2.1958   -1.4183 C   0  0  0  0  0  0  0  0  0  0  0  0
   -0.6685    3.2753   -1.9831 C   0  0  0  0  0  0  0  0  0  0  0  0
   -1.0518    4.6725   -1.1724 C   0  0  0  0  0  0  0  0  0  0  0  0
   -0.4608    4.8363    0.1072 C   0  0  0  0  0  0  0  0  0  0  0  0
   -0.3989    3.6205    0.6387 C   0  0  0  0  0  0  0  0  0  0  0  0
   -0.1846    2.4437   -0.1801 C   0  0  0  0  0  0  0  0  0  0  0  0
    0.2432    3.5049   -3.6387 C   0  0  0  0  0  0  0  0  0  0  0  0
    2.0846    4.0499   -4.6809 C   0  0  0  0  0  0  0  0  0  0  0  0
    2.0741    4.2898   -6.2819 C   0  0  0  0  0  0  0  0  0  0  0  0
    0.8395    3.8339   -6.8096 C   0  0  0  0  0  0  0  0  0  0  0  0
   -0.8095    3.3258   -5.8461 C   0  0  0  0  0  0  0  0  0  0  0  0
   -0.9571    3.1919   -4.2990 C   0  0  0  0  0  0  0  0  0  0  0  0
    0.6121    4.8669   -4.6073 C   0  0  0  0  0  0  0  0  0  0  0  0
    0.9911    2.8048   -5.0137 C   0  0  0  0  0  0  0  0  0  0  0  0
    1.4573    1.6241   -4.2239 C   0  0  0  0  0  0  0  0  0  0  0  0
    1.7071    1.6858   -2.9707 C   0  0  0  0  0  0  0  0  0  0  0  0
    1.8045    3.1026   -2.7783 C   0  0  0  0  0  0  0  0  0  0  0  0
    1.5440    5.0690   -3.1875 C   0  0  0  0  0  0  0  0  0  0  0  0
   -1.1087   -0.6821   -7.1292 C   0  0  0  0  0  0  0  0  0  0  0  0
   -0.8943    0.5442   -7.7363 C   0  0  0  0  0  0  0  0  0  0  0  0
   -0.6034    1.4657   -6.4292 C   0  0  0  0  0  0  0  0  0  0  0  0
    1.1616    1.2063   -6.5643 C   0  0  0  0  0  0  0  0  0  0  0  0
    1.0912    0.1753   -5.9005 C   0  0  0  0  0  0  0  0  0  0  0  0
   -0.0543   -0.6251   -6.3699 C   0  0  0  0  0  0  0  0  0  0  0  0
   -8.8483   -0.2125   -6.5538 O   0  0  0  0  0  0  0  0  0  0  0  0
   -4.3947    0.6570   -8.8636 O   0  0  0  0  0  0  0  0  0  0  0  0
   -8.4936    2.5132   -4.4673 O   0  0  0  0  0  0  0  0  0  0  0  0
    2.5309    1.8599   -6.5324 O   0  0  0  0  0  0  0  0  0  0  0  0
    1.5629    2.6035    1.8668 O   0  0  0  0  0  0  0  0  0  0  0  0
   -0.0030   -2.0245   -2.5622 O   0  0  0  0  0  0  0  0  0  0  0  0
    1.4597    6.3803    0.0908 O   0  0  0  0  0  0  0  0  0  0  0  0
   -0.8670    5.8431   -2.4794 O   0  0  0  0  0  0  0  0  0  0  0  0
   -1.2400    2.1001   -3.6126 O   0  0  0  0  0  0  0  0  0  0  0  0
    0.5073    4.6472   -8.1822 O   0  0  0  0  0  0  0  0  0  0  0  0
    2.7402    8.3707   -3.9045 O   0  0  0  0  0  0  0  0  0  0  0  0
    4.5148    4.2267   -5.0198 C   0  0  0  0  0  0  0  0  0  0  0  0
    5.3021    5.1540   -5.4965 O   0  0  0  0  0  0  0  0  0  0  0  0
    4.8897    3.0882   -4.7960 O   0  0  0  0  0  0  0  0  0  0  0  0
   -6.0085   -0.3542   -4.7894 N   0  0  0  0  0  0  0  0  0  0  0  0
   -5.8116    3.0589   -7.4896 C   0  0  0  0  0  0  0  0  0  0  0  0
   -0.2352    2.7877   -8.1241 C   0  0  0  0  0  0  0  0  0  0  0  0
    2.5696    0.4762   -1.9112 Cl  0  0  0  0  0  0  0  0  0  0  0  0
   -5.3827    0.3363   -0.5146 Cl  0  0  0  0  0  0  0  0  0  0  0  0
   -4.9227    0.2986   -4.4232 C   0  0  0  0  0  0  0  0  0  0  0  0
   -3.6796   -0.4506   -4.0298 C   0  0  3  0  0  0  0  0  0  0  0  0
   -4.9518    1.5206   -4.5000 O   0  0  0  0  0  0  0  0  0  0  0  0
   -2.6643    0.2804   -4.5722 N   0  0  0  0  0  0  0  0  0  0  0  0
   -3.0152   -0.3339   -2.7087 C   0  0  0  0  0  0  0  0  0  0  0  0
   -3.7795   -1.1178   -1.8260 C   0  0  0  0  0  0  0  0  0  0  0  0
   -4.0197   -2.4675   -2.2881 C   0  0  0  0  0  0  0  0  0  0  0  0
   -3.2165   -0.9178   -0.4216 C   0  0  0  0  0  0  0  0  0  0  0  0
   -6.1046    3.2069   -8.9757 C   0  0  0  0  0  0  0  0  0  0  0  0
   -7.2665    3.8133   -9.3730 N   0  0  0  0  0  0  0  0  0  0  0  0
   -5.3294    2.7940   -9.8284 O   0  0  0  0  0  0  0  0  0  0  0  0
    4.5959    2.3007   -9.6151 O   0  0  0  0  0  0  0  0  0  0  0  0
    2.4037    2.9075  -10.9377 O   0  0  0  0  0  0  0  0  0  0  0  0
    2.7731    0.2107  -10.3033 O   0  0  0  0  0  0  0  0  0  0  0  0
    1.6720    7.8870   -2.3474 C   0  0  0  0  0  0  0  0  0  0  0  0
    0.9370    4.3210   -1.7376 N   0  0  0  0  0  0  0  0  0  0  0  0
    3.7601    3.0144   -3.0736 C   0  0  0  0  0  0  0  0  0  0  0  0
   -1.0594    4.3290   -7.3671 O   0  0  0  0  0  0  0  0  0  0  0  0
   -1.1951    0.1300   -4.2724 C   0  0  0  0  0  0  0  0  0  0  0  0
    4.9413    5.4272   -3.0804 O   0  0  0  0  0  0  0  0  0  0  0  0
    1.0228   -0.4298   -0.9558 H   0  0  0  0  0  0  0  0  0  0  0  0
   -7.3406    0.8817   -8.2439 H   0  0  0  0  0  0  0  0  0  0  0  0
    3.3565    4.9848   -0.5990 H   0  0  0  0  0  0  0  0  0  0  0  0
    2.6929    6.6956   -5.5506 H   0  0  0  0  0  0  0  0  0  0  0  0
    2.2279    4.8176    1.6159 H   0  0  0  0  0  0  0  0  0  0  0  0
    4.3558    7.7527   -2.0290 H   0  0  0  0  0  0  0  0  0  0  0  0
    4.2362    3.3156   -0.6288 H   0  0  0  0  0  0  0  0  0  0  0  0
    2.3672    2.8906   -0.6472 H   0  0  0  0  0  0  0  0  0  0  0  0
    4.1816    3.1843   -7.1729 H   0  0  0  0  0  0  0  0  0  0  0  0
    4.2770    0.9276   -8.1565 H   0  0  0  0  0  0  0  0  0  0  0  0
    1.8834    0.6095   -8.5604 H   0  0  0  0  0  0  0  0  0  0  0  0
    0.6821    1.8196  -10.3543 H   0  0  0  0  0  0  0  0  0  0  0  0
    0.9887    4.0135   -9.7972 H   0  0  0  0  0  0  0  0  0  0  0  0
   -6.6708   -0.1036   -2.4991 H   0  0  0  0  0  0  0  0  0  0  0  0
   -7.9835   -0.1588   -4.2155 H   0  0  0  0  0  0  0  0  0  0  0  0
   -6.5853    2.4429   -4.9637 H   0  0  0  0  0  0  0  0  0  0  0  0
   -6.5547    3.9924   -2.9205 H   0  0  0  0  0  0  0  0  0  0  0  0
   -5.4895    1.5806   -6.0984 H   0  0  0  0  0  0  0  0  0  0  0  0
   -4.9175    3.3836   -1.4151 H   0  0  0  0  0  0  0  0  0  0  0  0
   -3.8694    0.2273   -5.9841 H   0  0  0  0  0  0  0  0  0  0  0  0
   -2.1097   -1.1784   -6.6659 H   0  0  0  0  0  0  0  0  0  0  0  0
    0.2060    6.5232   -1.2350 H   0  0  0  0  0  0  0  0  0  0  0  0
   -0.4884    1.0228    0.5452 H   0  0  0  0  0  0  0  0  0  0  0  0
    2.4891    7.7686   -0.8054 H   0  0  0  0  0  0  0  0  0  0  0  0
    3.2914    4.6748   -3.8038 H   0  0  0  0  0  0  0  0  0  0  0  0
    0.3182    1.4443   -1.8762 H   0  0  0  0  0  0  0  0  0  0  0  0
    0.0364    5.5820    0.7546 H   0  0  0  0  0  0  0  0  0  0  0  0
    0.0385    3.7077    1.6259 H   0  0  0  0  0  0  0  0  0  0  0  0
    2.6463    4.9328   -6.8965 H   0  0  0  0  0  0  0  0  0  0  0  0
   -1.6578    2.8062   -6.5587 H   0  0  0  0  0  0  0  0  0  0  0  0
    0.2522    5.7512   -5.0734 H   0  0  0  0  0  0  0  0  0  0  0  0
    0.5756    3.6346   -5.3135 H   0  0  0  0  0  0  0  0  0  0  0  0
    2.2890    2.7517   -1.9457 H   0  0  0  0  0  0  0  0  0  0  0  0
   -0.7249    0.7973   -9.0890 H   0  0  0  0  0  0  0  0  0  0  0  0
   -1.1323    0.0741   -5.9889 H   0  0  0  0  0  0  0  0  0  0  0  0
   -8.7415    2.4550   -5.4007 H   0  0  0  0  0  0  0  0  0  0  0  0
   -0.1235    6.1220   -3.2387 H   0  0  0  0  0  0  0  0  0  0  0  0
   -1.4958    1.9643   -2.6973 H   0  0  0  0  0  0  0  0  0  0  0  0
   -0.2033    4.0502   -8.9354 H   0  0  0  0  0  0  0  0  0  0  0  0
    4.8329    6.0056   -5.3763 H   0  0  0  0  0  0  0  0  0  0  0  0
   -5.9027   -1.3217   -5.0072 H   0  0  0  0  0  0  0  0  0  0  0  0
   -6.6126    3.5628   -6.9126 H   0  0  0  0  0  0  0  0  0  0  0  0
   -4.8814    3.5842   -7.2445 H   0  0  0  0  0  0  0  0  0  0  0  0
   -1.1328    2.3517   -8.3949 H   0  0  0  0  0  0  0  0  0  0  0  0
    0.6136    2.2552   -7.7582 H   0  0  0  0  0  0  0  0  0  0  0  0
   -3.6535   -1.3910   -4.5225 H   0  0  0  0  0  0  0  0  0  0  0  0
   -2.6476    0.6547   -5.6286 H   0  0  0  0  0  0  0  0  0  0  0  0
   -2.1334   -0.7652   -2.5487 H   0  0  0  0  0  0  0  0  0  0  0  0
   -2.6687    0.6170   -2.2740 H   0  0  0  0  0  0  0  0  0  0  0  0
   -4.7379   -0.7692   -2.1308 H   0  0  0  0  0  0  0  0  0  0  0  0
   -3.0551   -2.9196   -2.2570 H   0  0  0  0  0  0  0  0  0  0  0  0
   -4.7626   -2.8819   -1.6317 H   0  0  0  0  0  0  0  0  0  0  0  0
   -4.4412   -2.4574   -3.2972 H   0  0  0  0  0  0  0  0  0  0  0  0
   -3.1644    0.1618   -0.1141 H   0  0  0  0  0  0  0  0  0  0  0  0
   -3.8396   -1.4471    0.2981 H   0  0  0  0  0  0  0  0  0  0  0  0
   -2.2466   -1.3594   -0.3574 H   0  0  0  0  0  0  0  0  0  0  0  0
   -7.4587    3.8902  -10.3722 H   0  0  0  0  0  0  0  0  0  0  0  0
   -7.9411    4.2395   -8.7558 H   0  0  0  0  0  0  0  0  0  0  0  0
    4.2538    3.1373   -9.9561 H   0  0  0  0  0  0  0  0  0  0  0  0
    2.8702    3.5458  -10.3501 H   0  0  0  0  0  0  0  0  0  0  0  0
    3.2326    0.7661  -10.9635 H   0  0  0  0  0  0  0  0  0  0  0  0
    1.1342    8.3262   -1.5679 H   0  0  0  0  0  0  0  0  0  0  0  0
    1.1110    7.4044   -3.4293 H   0  0  0  0  0  0  0  0  0  0  0  0
    0.4828    7.5829   -2.3390 H   0  0  0  0  0  0  0  0  0  0  0  0
   -0.0135    4.5761   -2.5577 H   0  0  0  0  0  0  0  0  0  0  0  0
    0.3324    5.1920   -2.2504 H   0  0  0  0  0  0  0  0  0  0  0  0
    4.3681    2.4837   -2.4883 H   0  0  0  0  0  0  0  0  0  0  0  0
    3.4434    1.9892   -3.2338 H   0  0  0  0  0  0  0  0  0  0  0  0
    3.2078    2.8750   -4.0387 H   0  0  0  0  0  0  0  0  0  0  0  0
   -0.3500    4.8309   -6.7019 H   0  0  0  0  0  0  0  0  0  0  0  0
   -0.5059   -1.2889   -4.6814 H   0  0  0  0  0  0  0  0  0  0  0  0
   -0.3132    0.0959   -4.7138 H   0  0  0  0  0  0  0  0  0  0  0  0
   -0.6271    0.5822   -3.5356 H   0  0  0  0  0  0  0  0  0  0  0  0
  1 31  1  0  0  0  0
  1102  1  0  0  0  0
  3 20  1  0  0  0  0
  3 24  1  0  0  0  0
  3103  1  0  0  0  0
  4 36  1  0  0  0  0
  4104  1  0  0  0  0
  5 38  1  0  0  0  0
  5105  1  0  0  0  0
  6  7  1  0  0  0  0
  6 11  1  0  0  0  0
  6106  1  0  0  0  0
  7  8  1  0  0  0  0
  8 96  1  0  0  0  0
  8  9  1  0  0  0  0
  8107  1  0  0  0  0
  9 10  1  0  0  0  0
  9101  2  0  0  0  0
 10 11  1  0  0  0  0
 10 97  1  0  0  0  0
 10 98  1  0  0  0  0
 11108  1  0  0  0  0
 11109  1  0  0  0  0
 12  2  1  0  0  0  0
 12 13  1  0  0  0  0
 12 66  1  0  0  0  0
 12110  1  0  0  0  0
 13 14  1  0  0  0  0
 13 93  1  0  0  0  0
 13111  1  0  0  0  0
 14 15  1  0  0  0  0
 14 95  1  0  0  0  0
 14112  1  0  0  0  0
 15 16  1  0  0  0  0
 15 94  1  0  0  0  0
 15113  1  0  0  0  0
 16  2  1  0  0  0  0
 16 79  1  0  0  0  0
 16114  1  0  0  0  0
 17 18  2  0  0  0  0
 17115  1  0  0  0  0
 18 26  1  0  0  0  0
 18 81  1  0  0  0  0
 19 17  1  0  0  0  0
 19 23  2  0  0  0  0
 19 22  1  0  0  0  0
 20 63  2  0  0  0  0
 20 21  1  0  0  0  0
 21 77  1  0  0  0  0
 21 22  1  0  0  0  0
 21116  1  0  0  0  0
 22 65  1  0  0  0  0
 22117  1  0  0  0  0
 23 25  1  0  0  0  0
 23118  1  0  0  0  0
 24 78  1  0  0  0  0
 24119  1  0  0  0  0
 25 26  2  0  0  0  0
 25120  1  0  0  0  0
 26 27  1  0  0  0  0
 27 59  1  0  0  0  0
 28 29  1  0  0  0  0
 28121  1  0  0  0  0
 29 24  1  0  0  0  0
 29 64  2  0  0  0  0
 30 28  1  0  0  0  0
 30 57  1  0  0  0  0
 30 31  1  0  0  0  0
 30122  1  0  0  0  0
 31 68  2  0  0  0  0
 32 53  1  0  0  0  0
 33 69  1  0  0  0  0
 33 36  1  0  0  0  0
 33123  1  0  0  0  0
 34 67  2  0  0  0  0
 34  4  1  0  0  0  0
 34 35  1  0  0  0  0
 35  1  1  0  0  0  0
 35124  1  0  0  0  0
 36 37  1  0  0  0  0
 36125  1  0  0  0  0
 37 73  2  0  0  0  0
 37  5  1  0  0  0  0
 38 74  1  0  0  0  0
 38 46  1  0  0  0  0
 38126  1  0  0  0  0
 39 40  2  0  0  0  0
 39127  1  0  0  0  0
 40 41  1  0  0  0  0
 41 70  1  0  0  0  0
 41 42  2  0  0  0  0
 42 43  1  0  0  0  0
 42128  1  0  0  0  0
 43 44  2  0  0  0  0
 43129  1  0  0  0  0
 44 35  1  0  0  0  0
 44 39  1  0  0  0  0
 45 40  1  0  0  0  0
 45 46  2  0  0  0  0
 46 47  1  0  0  0  0
 47 48  2  0  0  0  0
 47130  1  0  0  0  0
 48 49  1  0  0  0  0
 48 72  1  0  0  0  0
 49 50  2  0  0  0  0
 49131  1  0  0  0  0
 50 45  1  0  0  0  0
 50 71  1  0  0  0  0
 51 52  2  0  0  0  0
 51132  1  0  0  0  0
 52 53  1  0  0  0  0
 52133  1  0  0  0  0
 53 54  2  0  0  0  0
 54 55  1  0  0  0  0
 54 80  1  0  0  0  0
 55 56  2  0  0  0  0
 55134  1  0  0  0  0
 56 51  1  0  0  0  0
 56 33  1  0  0  0  0
 57 58  2  0  0  0  0
 58 59  1  0  0  0  0
 58135  1  0  0  0  0
 59 60  2  0  0  0  0
 60 61  1  0  0  0  0
 60 66  1  0  0  0  0
 61 62  2  0  0  0  0
 61 32  1  0  0  0  0
 62 57  1  0  0  0  0
 62136  1  0  0  0  0
 65137  1  0  0  0  0
 69  6  1  0  0  0  0
 70138  1  0  0  0  0
 71139  1  0  0  0  0
 72140  1  0  0  0  0
 74 75  1  0  0  0  0
 74 76  2  0  0  0  0
 75141  1  0  0  0  0
 77 82  1  0  0  0  0
 77142  1  0  0  0  0
 78 90  1  0  0  0  0
 78143  1  0  0  0  0
 78144  1  0  0  0  0
 79 99  1  0  0  0  0
 79145  1  0  0  0  0
 79146  1  0  0  0  0
 82 83  1  0  0  0  0
 82 84  2  0  0  0  0
 83 85  1  0  0  0  0
 83 86  1  0  0  0  0
 83147  1  0  0  0  0
 85100  1  0  0  0  0
 85148  1  0  0  0  0
 86 87  1  0  0  0  0
 86149  1  0  0  0  0
 86150  1  0  0  0  0
 87 88  1  0  0  0  0
 87 89  1  0  0  0  0
 87151  1  0  0  0  0
 88152  1  0  0  0  0
 88153  1  0  0  0  0
 88154  1  0  0  0  0
 89155  1  0  0  0  0
 89156  1  0  0  0  0
 89157  1  0  0  0  0
 90 91  1  0  0  0  0
 90 92  2  0  0  0  0
 91158  1  0  0  0  0
 91159  1  0  0  0  0
 93160  1  0  0  0  0
 94161  1  0  0  0  0
 95162  1  0  0  0  0
 96163  1  0  0  0  0
 96164  1  0  0  0  0
 96165  1  0  0  0  0
 97166  1  0  0  0  0
 97167  1  0  0  0  0
 98168  1  0  0  0  0
 98169  1  0  0  0  0
 98170  1  0  0  0  0
 99171  1  0  0  0  0
100172  1  0  0  0  0
100173  1  0  0  0  0
100174  1  0  0  0  0
M  END
>  <DRUGBANK_ID>
DB04111

>  <SECONDARY_ACCESSION_NUMBERS>
EXPT00727

>  <COMMON_NAME>
Balhimycin

>  <CAS_NUMBER>
140932-79-2

$$$$
