
 OpenBabel10282417133D

 26 25  0  0  0  0  0  0  0  0999 V2000
    0.6832    0.0956    0.0613 C   0  0  0  0  0  0  0  0  0  0  0  0
    0.1413   -0.7022    1.2293 C   0  0  0  0  0  0  0  0  0  0  0  0
    0.8356   -0.4819    2.5724 C   0  0  0  0  0  0  0  0  0  0  0  0
    0.1476   -0.2407    3.5583 O   0  0  0  0  0  0  0  0  0  0  0  0
    2.3626   -0.5236    2.7188 C   0  0  0  0  0  0  0  0  0  0  0  0
    3.0692   -1.8821    2.5452 C   0  0  0  0  0  0  0  0  0  0  0  0
    3.0721   -2.4601    1.1182 C   0  0  0  0  0  0  0  0  0  0  0  0
    3.7228   -1.4924    0.1268 C   0  0  0  0  0  0  0  0  0  0  0  0
    3.7421   -3.8181    1.0114 C   0  0  0  0  0  0  0  0  0  0  0  0
    1.7423   -2.7843    0.7680 O   0  0  0  0  0  0  0  0  0  0  0  0
    0.3520    1.1324    0.1340 H   0  0  0  0  0  0  0  0  0  0  0  0
    0.3500   -0.3247   -0.8936 H   0  0  0  0  0  0  0  0  0  0  0  0
    1.7614    0.1474    0.0136 H   0  0  0  0  0  0  0  0  0  0  0  0
   -0.9154   -0.4509    1.3466 H   0  0  0  0  0  0  0  0  0  0  0  0
    0.0644   -1.7635    1.0185 H   0  0  0  0  0  0  0  0  0  0  0  0
    2.8101    0.2685    2.1128 H   0  0  0  0  0  0  0  0  0  0  0  0
    2.5664   -0.1977    3.7520 H   0  0  0  0  0  0  0  0  0  0  0  0
    4.1139   -1.7606    2.8657 H   0  0  0  0  0  0  0  0  0  0  0  0
    2.6068   -2.5934    3.2415 H   0  0  0  0  0  0  0  0  0  0  0  0
    4.8110   -1.5197    0.2074 H   0  0  0  0  0  0  0  0  0  0  0  0
    3.4126   -1.6973   -0.9021 H   0  0  0  0  0  0  0  0  0  0  0  0
    3.4809   -0.4497    0.3200 H   0  0  0  0  0  0  0  0  0  0  0  0
    3.2630   -4.5334    1.6896 H   0  0  0  0  0  0  0  0  0  0  0  0
    3.5793   -4.2132   -0.0017 H   0  0  0  0  0  0  0  0  0  0  0  0
    4.8117   -3.7724    1.2095 H   0  0  0  0  0  0  0  0  0  0  0  0
    1.6419   -2.8243   -0.1967 H   0  0  0  0  0  0  0  0  0  0  0  0
  1  2  1  0  0  0  0
  1 11  1  0  0  0  0
  1 12  1  0  0  0  0
  1 13  1  0  0  0  0
  2  3  1  0  0  0  0
  2 14  1  0  0  0  0
  2 15  1  0  0  0  0
  3  4  2  0  0  0  0
  3  5  1  0  0  0  0
  5  6  1  0  0  0  0
  5 16  1  0  0  0  0
  5 17  1  0  0  0  0
  6  7  1  0  0  0  0
  6 18  1  0  0  0  0
  6 19  1  0  0  0  0
  7  8  1  0  0  0  0
  7  9  1  0  0  0  0
  7 10  1  0  0  0  0
  8 20  1  0  0  0  0
  8 21  1  0  0  0  0
  8 22  1  0  0  0  0
  9 23  1  0  0  0  0
  9 24  1  0  0  0  0
  9 25  1  0  0  0  0
 10 26  1  0  0  0  0
M  END
>  <DRUGBANK_ID>
DB03711

>  <SECONDARY_ACCESSION_NUMBERS>
EXPT02062

>  <COMMON_NAME>
6-Hydroxy-6-Methyl-Heptan-3-One

>  <UNII>
G2CVU7ZB99

$$$$
