TST
 OpenBabel10282417133D

 53 54  0  0  0  0  0  0  0  0999 V2000
   -1.3685   -0.0104    0.1211 S   0  0  0  0  0  0  0  0  0  0  0  0
   -0.2702    1.3482   -0.3617 C   0  0  0  0  0  0  0  0  0  0  0  0
    1.0932    1.2356    0.3167 C   0  0  0  0  0  0  0  0  0  0  0  0
    1.8518   -0.0210   -0.0056 N   0  0  0  0  0  0  0  0  0  0  0  0
    1.0939   -1.3067    0.2531 C   0  0  1  0  0  0  0  0  0  0  0  0
   -0.2746   -1.3551   -0.4314 C   0  0  0  0  0  0  0  0  0  0  0  0
    1.8657   -2.5490   -0.2581 C   0  0  0  0  0  0  0  0  0  0  0  0
    2.3223   -3.4441    0.6904 N   0  0  0  0  0  0  0  0  0  0  0  0
    2.0755   -2.7302   -1.4577 O   0  0  0  0  0  0  0  0  0  0  0  0
    3.1455   -4.6064    0.3497 C   0  0  1  0  0  0  0  0  0  0  0  0
    4.5234   -4.5302    1.0678 C   0  0  0  0  0  0  0  0  0  0  0  0
    2.2687   -5.8650    0.5982 C   0  0  0  0  0  0  0  0  0  0  0  0
    2.2637   -6.7804   -0.3924 O   0  0  0  0  0  0  0  0  0  0  0  0
    1.5342   -6.0222    1.5665 O   0  0  0  0  0  0  0  0  0  0  0  0
    4.5216   -4.4785    2.6157 C   0  0  0  0  0  0  0  0  0  0  0  0
    3.9067   -5.7184    3.2370 C   0  0  0  0  0  0  0  0  0  0  0  0
    3.4823    0.0233    0.5822 S   0  0  0  0  0  0  0  0  0  0  0  0
    3.3110    0.0139    2.3677 C   0  0  0  0  0  0  0  0  0  0  0  0
    2.6857   -1.0454    3.0238 C   0  0  0  0  0  0  0  0  0  0  0  0
    2.5212   -1.0814    4.4004 C   0  0  0  0  0  0  0  0  0  0  0  0
    3.0310   -0.0473    5.1666 C   0  0  0  0  0  0  0  0  0  0  0  0
    3.6908    1.0135    4.5249 C   0  0  0  0  0  0  0  0  0  0  0  0
    3.8284    1.0509    3.1298 C   0  0  0  0  0  0  0  0  0  0  0  0
    2.8723   -0.0865    6.6543 C   0  0  0  0  0  0  0  0  0  0  0  0
    4.1774   -1.1824    0.2224 O   0  0  0  0  0  0  0  0  0  0  0  0
    4.0270    1.3216    0.2144 O   0  0  0  0  0  0  0  0  0  0  0  0
    5.9266   -4.3428    3.2002 C   0  0  0  0  0  0  0  0  0  0  0  0
    0.8789   -1.3703    1.3183 H   0  0  0  0  0  0  0  0  0  0  0  0
    3.3491   -4.5712   -0.7253 H   0  0  0  0  0  0  0  0  0  0  0  0
   -0.7473    2.2888   -0.0656 H   0  0  0  0  0  0  0  0  0  0  0  0
   -0.1780    1.3534   -1.4526 H   0  0  0  0  0  0  0  0  0  0  0  0
    1.6782    2.0996   -0.0224 H   0  0  0  0  0  0  0  0  0  0  0  0
    0.9747    1.3151    1.4021 H   0  0  0  0  0  0  0  0  0  0  0  0
   -0.1869   -1.3067   -1.5198 H   0  0  0  0  0  0  0  0  0  0  0  0
   -0.7691   -2.2991   -0.1754 H   0  0  0  0  0  0  0  0  0  0  0  0
    1.9943   -3.4408    1.6442 H   0  0  0  0  0  0  0  0  0  0  0  0
    5.1552   -5.3609    0.7300 H   0  0  0  0  0  0  0  0  0  0  0  0
    5.0346   -3.6185    0.7191 H   0  0  0  0  0  0  0  0  0  0  0  0
    2.5559   -6.4341   -1.2550 H   0  0  0  0  0  0  0  0  0  0  0  0
    3.9488   -3.6054    2.9411 H   0  0  0  0  0  0  0  0  0  0  0  0
    4.3042   -6.6298    2.7772 H   0  0  0  0  0  0  0  0  0  0  0  0
    4.0485   -5.7709    4.3184 H   0  0  0  0  0  0  0  0  0  0  0  0
    2.8349   -5.6688    3.1284 H   0  0  0  0  0  0  0  0  0  0  0  0
    2.3037   -1.8877    2.4993 H   0  0  0  0  0  0  0  0  0  0  0  0
    2.0048   -1.9258    4.8548 H   0  0  0  0  0  0  0  0  0  0  0  0
    4.1085    1.8237    5.1161 H   0  0  0  0  0  0  0  0  0  0  0  0
    4.3487    1.8793    2.6561 H   0  0  0  0  0  0  0  0  0  0  0  0
    3.8530   -0.0851    7.1369 H   0  0  0  0  0  0  0  0  0  0  0  0
    2.2866    0.7739    6.9874 H   0  0  0  0  0  0  0  0  0  0  0  0
    2.3450   -0.9934    6.9748 H   0  0  0  0  0  0  0  0  0  0  0  0
    6.4126   -3.4171    2.8831 H   0  0  0  0  0  0  0  0  0  0  0  0
    5.8691   -4.3300    4.2965 H   0  0  0  0  0  0  0  0  0  0  0  0
    6.5526   -5.1934    2.9122 H   0  0  0  0  0  0  0  0  0  0  0  0
  1  2  1  0  0  0  0
  1  6  1  0  0  0  0
  2  3  1  0  0  0  0
  2 30  1  0  0  0  0
  2 31  1  0  0  0  0
  3  4  1  0  0  0  0
  3 32  1  0  0  0  0
  3 33  1  0  0  0  0
  4  5  1  0  0  0  0
  4 17  1  0  0  0  0
  5  6  1  0  0  0  0
  5  7  1  0  0  0  0
  5 28  1  1  0  0  0
  6 34  1  0  0  0  0
  6 35  1  0  0  0  0
  7  8  1  0  0  0  0
  7  9  2  0  0  0  0
  8 36  1  0  0  0  0
 10  8  1  0  0  0  0
 10 11  1  0  0  0  0
 10 12  1  0  0  0  0
 10 29  1  6  0  0  0
 11 15  1  0  0  0  0
 11 37  1  0  0  0  0
 11 38  1  0  0  0  0
 12 13  1  0  0  0  0
 12 14  2  0  0  0  0
 13 39  1  0  0  0  0
 15 16  1  0  0  0  0
 15 27  1  0  0  0  0
 15 40  1  0  0  0  0
 16 41  1  0  0  0  0
 16 42  1  0  0  0  0
 16 43  1  0  0  0  0
 17 18  1  0  0  0  0
 17 25  2  0  0  0  0
 17 26  2  0  0  0  0
 18 19  2  0  0  0  0
 18 23  1  0  0  0  0
 19 20  1  0  0  0  0
 19 44  1  0  0  0  0
 20 21  2  0  0  0  0
 20 45  1  0  0  0  0
 21 22  1  0  0  0  0
 21 24  1  0  0  0  0
 22 23  2  0  0  0  0
 22 46  1  0  0  0  0
 23 47  1  0  0  0  0
 24 48  1  0  0  0  0
 24 49  1  0  0  0  0
 24 50  1  0  0  0  0
 27 51  1  0  0  0  0
 27 52  1  0  0  0  0
 27 53  1  0  0  0  0
M  END
>  <DRUGBANK_ID>
DB04012

>  <SECONDARY_ACCESSION_NUMBERS>
EXPT03124

>  <COMMON_NAME>
(3r)-4-(P-Toluenesulfonyl)-1,4-Thiazane-3-Carboxylicacid-L-Leucine

$$$$
