YRG
 OpenBabel10282417173D

 32 33  0  0  0  0  0  0  0  0999 V2000
    1.6654    1.2296    0.0490 C   0  0  0  0  0  0  0  0  0  0  0  0
    0.2723    1.1950    0.0123 C   0  0  0  0  0  0  0  0  0  0  0  0
   -0.3869   -0.0262   -0.0108 C   0  0  0  0  0  0  0  0  0  0  0  0
   -2.1054   -0.0555   -0.0193 Cl  0  0  0  0  0  0  0  0  0  0  0  0
    0.3407   -1.2142   -0.0126 C   0  0  0  0  0  0  0  0  0  0  0  0
    1.7415   -1.1739   -0.0030 C   0  0  0  0  0  0  0  0  0  0  0  0
    2.4150    0.0522    0.0122 C   0  0  0  0  0  0  0  0  0  0  0  0
    3.7826   -0.0131   -0.0474 O   0  0  0  0  0  0  0  0  0  0  0  0
    4.5130    1.2237   -0.0182 C   0  0  2  0  0  0  0  0  0  0  0  0
    4.2774    2.0793   -1.2590 C   0  0  0  0  0  0  0  0  0  0  0  0
    4.5293    1.4480   -2.4207 O   0  0  0  0  0  0  0  0  0  0  0  0
    3.8486    3.2290   -1.2615 O   0  0  0  0  0  0  0  0  0  0  0  0
    6.0286    0.9471    0.0709 C   0  0  0  0  0  0  0  0  0  0  0  0
    6.3510    0.1857    1.3346 C   0  0  0  0  0  0  0  0  0  0  0  0
    6.3966    0.8519    2.5656 C   0  0  0  0  0  0  0  0  0  0  0  0
    6.4363    0.1241    3.7533 C   0  0  0  0  0  0  0  0  0  0  0  0
    6.4267   -1.2694    3.7175 C   0  0  0  0  0  0  0  0  0  0  0  0
    6.4083   -1.9369    2.4943 C   0  0  0  0  0  0  0  0  0  0  0  0
    6.4218   -1.2128    1.3046 C   0  0  0  0  0  0  0  0  0  0  0  0
    4.2171    1.7963    0.8726 H   0  0  0  0  0  0  0  0  0  0  0  0
    2.1188    2.2114    0.0975 H   0  0  0  0  0  0  0  0  0  0  0  0
   -0.2784    2.1313    0.0018 H   0  0  0  0  0  0  0  0  0  0  0  0
   -0.1751   -2.1703   -0.0283 H   0  0  0  0  0  0  0  0  0  0  0  0
    2.3032   -2.1058   -0.0093 H   0  0  0  0  0  0  0  0  0  0  0  0
    4.2313    2.0709   -3.1156 H   0  0  0  0  0  0  0  0  0  0  0  0
    6.3712    0.3758   -0.8009 H   0  0  0  0  0  0  0  0  0  0  0  0
    6.5884    1.8921    0.0616 H   0  0  0  0  0  0  0  0  0  0  0  0
    6.3547    1.9378    2.6070 H   0  0  0  0  0  0  0  0  0  0  0  0
    6.4302    0.6438    4.7074 H   0  0  0  0  0  0  0  0  0  0  0  0
    6.4253   -1.8371    4.6436 H   0  0  0  0  0  0  0  0  0  0  0  0
    6.3437   -3.0211    2.4658 H   0  0  0  0  0  0  0  0  0  0  0  0
    6.4255   -1.7444    0.3553 H   0  0  0  0  0  0  0  0  0  0  0  0
  1 21  1  0  0  0  0
  2  1  1  0  0  0  0
  2 22  1  0  0  0  0
  3  2  2  0  0  0  0
  4  3  1  0  0  0  0
  5  3  1  0  0  0  0
  5  6  2  0  0  0  0
  5 23  1  0  0  0  0
  6  7  1  0  0  0  0
  6 24  1  0  0  0  0
  7  1  2  0  0  0  0
  8  7  1  0  0  0  0
  9  8  1  0  0  0  0
  9 10  1  0  0  0  0
  9 20  1  1  0  0  0
 10 12  2  0  0  0  0
 10 11  1  0  0  0  0
 11 25  1  0  0  0  0
 13  9  1  0  0  0  0
 13 26  1  0  0  0  0
 13 27  1  0  0  0  0
 14 13  1  0  0  0  0
 15 14  1  0  0  0  0
 15 28  1  0  0  0  0
 16 15  2  0  0  0  0
 16 29  1  0  0  0  0
 17 16  1  0  0  0  0
 17 18  2  0  0  0  0
 17 30  1  0  0  0  0
 18 19  1  0  0  0  0
 18 31  1  0  0  0  0
 19 14  2  0  0  0  0
 19 32  1  0  0  0  0
M  END
>  <DRUGBANK_ID>
DB08760

>  <COMMON_NAME>
(2S)-2-(4-chlorophenoxy)-3-phenylpropanoic acid

$$$$
