
 OpenBabel10282417173D

 56 58  0  0  1  0  0  0  0  0999 V2000
    1.4680   -7.9933    1.2332 O   0  0  0  0  0  0  0  0  0  0  0  0
    2.1062   -8.7314    5.9462 O   0  0  0  0  0  0  0  0  0  0  0  0
    2.6735   -9.4737    3.2377 O   0  0  0  0  0  0  0  0  0  0  0  0
    0.1562   -4.5742    4.3691 N   0  0  0  0  0  0  0  0  0  0  0  0
   -2.6578   -7.3069    5.3773 N   0  0  0  0  0  0  0  0  0  0  0  0
   -2.8535   -6.1176    7.5129 N   0  0  0  0  0  0  0  0  0  0  0  0
   -3.0687   -3.8680    7.5380 N   0  0  0  0  0  0  0  0  0  0  0  0
   -1.6497   -8.0809    7.3804 N   0  0  0  0  0  0  0  0  0  0  0  0
   -2.0751   -3.7062    3.3019 C   0  0  1  0  0  0  0  0  0  0  0  0
   -2.7096   -4.8673    2.5187 C   0  0  0  0  0  0  0  0  0  0  0  0
   -2.7826   -3.6268    4.6545 C   0  0  0  0  0  0  0  0  0  0  0  0
   -2.4362   -6.2036    3.1918 C   0  0  0  0  0  0  0  0  0  0  0  0
   -0.5120   -3.7306    3.3524 C   0  0  0  0  0  0  0  0  0  0  0  0
   -2.8707   -4.9648    5.3256 C   0  0  0  0  0  0  0  0  0  0  0  0
   -2.6800   -6.1396    4.6805 C   0  0  0  0  0  0  0  0  0  0  0  0
   -2.9498   -5.0312    6.8198 C   0  0  0  0  0  0  0  0  0  0  0  0
   -2.7533   -7.3810    6.7935 C   0  0  2  0  0  0  0  0  0  0  0  0
    0.7993   -5.7835    4.0748 C   0  0  0  0  0  0  0  0  0  0  0  0
    0.0283   -4.2246    5.7900 C   0  0  0  0  0  0  0  0  0  0  0  0
    1.1853   -6.6533    5.1146 C   0  0  0  0  0  0  0  0  0  0  0  0
    1.0319   -6.2584    2.7761 C   0  0  0  0  0  0  0  0  0  0  0  0
    1.5060   -7.5621    2.5441 C   0  0  0  0  0  0  0  0  0  0  0  0
    1.7684   -7.9046    4.9119 C   0  0  0  0  0  0  0  0  0  0  0  0
    1.9832   -8.3475    3.6044 C   0  0  0  0  0  0  0  0  0  0  0  0
    0.8477   -9.2797    1.0828 C   0  0  0  0  0  0  0  0  0  0  0  0
    1.8922   -8.3238    7.2840 C   0  0  0  0  0  0  0  0  0  0  0  0
    3.2393  -10.2815    4.2544 C   0  0  0  0  0  0  0  0  0  0  0  0
   -2.3679   -8.1582    4.9056 H   0  0  0  0  0  0  0  0  0  0  0  0
   -3.0040   -3.9255    8.5447 H   0  0  0  0  0  0  0  0  0  0  0  0
   -2.9593   -2.9571    7.1205 H   0  0  0  0  0  0  0  0  0  0  0  0
   -1.5801   -7.7037    8.3214 H   0  0  0  0  0  0  0  0  0  0  0  0
   -0.8702   -7.6794    6.8709 H   0  0  0  0  0  0  0  0  0  0  0  0
   -2.3376   -2.7854    2.7611 H   0  0  0  0  0  0  0  0  0  0  0  0
   -3.8002   -4.7235    2.4936 H   0  0  0  0  0  0  0  0  0  0  0  0
   -2.3729   -4.8680    1.4779 H   0  0  0  0  0  0  0  0  0  0  0  0
   -2.2677   -2.8713    5.2507 H   0  0  0  0  0  0  0  0  0  0  0  0
   -3.8044   -3.2459    4.5397 H   0  0  0  0  0  0  0  0  0  0  0  0
   -3.0374   -6.9927    2.7295 H   0  0  0  0  0  0  0  0  0  0  0  0
   -1.4082   -6.4944    2.9933 H   0  0  0  0  0  0  0  0  0  0  0  0
   -0.1642   -2.7029    3.5159 H   0  0  0  0  0  0  0  0  0  0  0  0
   -0.1696   -3.9678    2.3417 H   0  0  0  0  0  0  0  0  0  0  0  0
   -3.6580   -7.9488    7.0197 H   0  0  0  0  0  0  0  0  0  0  0  0
   -0.5304   -5.0007    6.3215 H   0  0  0  0  0  0  0  0  0  0  0  0
    0.9946   -4.1468    6.2949 H   0  0  0  0  0  0  0  0  0  0  0  0
   -0.4749   -3.2744    5.9636 H   0  0  0  0  0  0  0  0  0  0  0  0
    1.0120   -6.3565    6.1377 H   0  0  0  0  0  0  0  0  0  0  0  0
    0.7866   -5.6646    1.9029 H   0  0  0  0  0  0  0  0  0  0  0  0
    0.7881   -9.5058    0.0139 H   0  0  0  0  0  0  0  0  0  0  0  0
    1.4306  -10.0919    1.5221 H   0  0  0  0  0  0  0  0  0  0  0  0
   -0.1706   -9.2899    1.4904 H   0  0  0  0  0  0  0  0  0  0  0  0
    2.4412   -7.4090    7.5190 H   0  0  0  0  0  0  0  0  0  0  0  0
    0.8357   -8.2026    7.4932 H   0  0  0  0  0  0  0  0  0  0  0  0
    2.2443   -9.1251    7.9369 H   0  0  0  0  0  0  0  0  0  0  0  0
    3.9572   -9.7153    4.8583 H   0  0  0  0  0  0  0  0  0  0  0  0
    2.4502  -10.7419    4.8575 H   0  0  0  0  0  0  0  0  0  0  0  0
    3.7888  -11.0939    3.7758 H   0  0  0  0  0  0  0  0  0  0  0  0
  1 22  1  0  0  0  0
  1 25  1  0  0  0  0
  2 23  1  0  0  0  0
  2 26  1  0  0  0  0
  3 24  1  0  0  0  0
  3 27  1  0  0  0  0
  4 13  1  0  0  0  0
  4 18  1  0  0  0  0
  4 19  1  0  0  0  0
  5 15  1  0  0  0  0
  5 17  1  0  0  0  0
  5 28  1  0  0  0  0
  6 16  2  0  0  0  0
  6 17  1  0  0  0  0
  7 16  1  0  0  0  0
  7 29  1  0  0  0  0
  7 30  1  0  0  0  0
  8 31  1  0  0  0  0
  8 32  1  0  0  0  0
  9 10  1  0  0  0  0
  9 11  1  0  0  0  0
  9 33  1  6  0  0  0
  9 13  1  0  0  0  0
 10 12  1  0  0  0  0
 10 34  1  0  0  0  0
 10 35  1  0  0  0  0
 11 14  1  0  0  0  0
 11 36  1  0  0  0  0
 11 37  1  0  0  0  0
 12 15  1  0  0  0  0
 12 38  1  0  0  0  0
 12 39  1  0  0  0  0
 13 40  1  0  0  0  0
 13 41  1  0  0  0  0
 14 15  2  0  0  0  0
 14 16  1  0  0  0  0
 17 42  1  1  0  0  0
 17  8  1  0  0  0  0
 18 20  2  0  0  0  0
 18 21  1  0  0  0  0
 19 43  1  0  0  0  0
 19 44  1  0  0  0  0
 19 45  1  0  0  0  0
 20 23  1  0  0  0  0
 20 46  1  0  0  0  0
 21 22  2  0  0  0  0
 21 47  1  0  0  0  0
 22 24  1  0  0  0  0
 23 24  2  0  0  0  0
 25 48  1  0  0  0  0
 25 49  1  0  0  0  0
 25 50  1  0  0  0  0
 26 51  1  0  0  0  0
 26 52  1  0  0  0  0
 26 53  1  0  0  0  0
 27 54  1  0  0  0  0
 27 55  1  0  0  0  0
 27 56  1  0  0  0  0
M  END
>  <DRUGBANK_ID>
DB08642

>  <COMMON_NAME>
(2R,6S)-6-{[methyl(3,4,5-trimethoxyphenyl)amino]methyl}-1,2,5,6,7,8-hexahydroquinazoline-2,4-diamine

$$$$
