
 OpenBabel10282417123D

 19 20  0  0  0  0  0  0  0  0999 V2000
    0.2057   -0.6856    0.0010 C   0  0  0  0  0  0  0  0  0  0  0  0
    0.2760    0.6922    0.0008 C   0  0  0  0  0  0  0  0  0  0  0  0
   -0.9110   -1.4618    0.0025 N   0  0  0  0  0  0  0  0  0  0  0  0
   -2.0716    0.6089   -0.0019 N   0  0  0  0  0  0  0  0  0  0  0  0
    1.5709    1.1415    0.0006 N   0  0  0  0  0  0  0  0  0  0  0  0
   -0.9607    1.4356    0.0010 C   0  0  0  0  0  0  0  0  0  0  0  0
   -2.0252   -0.7728    0.0009 C   0  0  0  0  0  0  0  0  0  0  0  0
    1.5147   -1.0891   -0.0007 N   0  0  0  0  0  0  0  0  0  0  0  0
    2.2933    0.0420   -0.0000 C   0  0  0  0  0  0  0  0  0  0  0  0
   -1.0635    2.6603    0.0043 O   0  0  0  0  0  0  0  0  0  0  0  0
   -3.2292   -1.3923    0.0017 N   0  0  0  0  0  0  0  0  0  0  0  0
    2.0272   -2.4345   -0.0026 C   0  0  0  0  0  0  0  0  0  0  0  0
   -2.9531    1.0916   -0.0044 H   0  0  0  0  0  0  0  0  0  0  0  0
    3.3755    0.0079   -0.0000 H   0  0  0  0  0  0  0  0  0  0  0  0
   -3.2507   -2.4039    0.0139 H   0  0  0  0  0  0  0  0  0  0  0  0
   -4.1118   -0.9031    0.0126 H   0  0  0  0  0  0  0  0  0  0  0  0
    1.6832   -2.9472    0.8980 H   0  0  0  0  0  0  0  0  0  0  0  0
    1.6824   -2.9449   -0.9043 H   0  0  0  0  0  0  0  0  0  0  0  0
    3.1224   -2.4035   -0.0032 H   0  0  0  0  0  0  0  0  0  0  0  0
  2  1  2  0  0  0  0
  3  1  1  0  0  0  0
  4  7  1  0  0  0  0
  4 13  1  0  0  0  0
  5  2  1  0  0  0  0
  5  9  2  0  0  0  0
  6  2  1  0  0  0  0
  6  4  1  0  0  0  0
  7  3  2  0  0  0  0
  8  1  1  0  0  0  0
  9  8  1  0  0  0  0
  9 14  1  0  0  0  0
 10  6  2  0  0  0  0
 11  7  1  0  0  0  0
 11 15  1  0  0  0  0
 11 16  1  0  0  0  0
 12  8  1  0  0  0  0
 12 17  1  0  0  0  0
 12 18  1  0  0  0  0
 12 19  1  0  0  0  0
M  END
>  <DRUGBANK_ID>
DB02489

>  <SECONDARY_ACCESSION_NUMBERS>
EXPT00360

>  <COMMON_NAME>
9-Methylguanine

>  <CAS_NUMBER>
5502-78-3

>  <UNII>
397W61ZHWY

$$$$
