
 OpenBabel10282417233D

 58 61  0  0  1  0  0  0  0  0999 V2000
    1.0438    0.0266    0.0591 C   0  0  0  0  0  0  0  0  0  0  0  0
    0.5441   -0.8986    1.0198 O   0  0  0  0  0  0  0  0  0  0  0  0
    0.9466   -2.1987    0.8599 C   0  0  0  0  0  0  0  0  0  0  0  0
    2.2616   -2.5589    0.5649 C   0  0  0  0  0  0  0  0  0  0  0  0
    2.6142   -3.9072    0.4670 C   0  0  0  0  0  0  0  0  0  0  0  0
    4.2315   -4.3433    0.0799 Cl  0  0  0  0  0  0  0  0  0  0  0  0
    1.6838   -4.9072    0.7112 C   0  0  0  0  0  0  0  0  0  0  0  0
    0.3956   -4.5511    1.0794 C   0  0  0  0  0  0  0  0  0  0  0  0
   -0.0003   -3.2025    1.1142 C   0  0  0  0  0  0  0  0  0  0  0  0
   -1.4439   -2.8756    1.3884 C   0  0  0  0  0  0  0  0  0  0  0  0
   -2.3673   -3.3587    0.2734 C   0  0  0  0  0  0  0  0  0  0  0  0
   -2.4692   -4.8124    0.1371 N   0  0  0  0  0  0  0  0  0  0  0  0
   -3.5059   -5.6517    0.4548 C   0  0  0  0  0  0  0  0  0  0  0  0
   -3.3409   -6.8678    0.4834 O   0  0  0  0  0  0  0  0  0  0  0  0
   -4.8417   -5.0723    0.6922 C   0  0  0  0  0  0  0  0  0  0  0  0
   -5.2748   -4.0458   -0.1415 C   0  0  0  0  0  0  0  0  0  0  0  0
   -6.4832   -3.4188    0.0940 C   0  0  0  0  0  0  0  0  0  0  0  0
   -7.3663   -3.9057    1.0601 C   0  0  0  0  0  0  0  0  0  0  0  0
   -8.6037   -3.3307    1.3291 O   0  0  0  0  0  0  0  0  0  0  0  0
   -8.9540   -2.2083    0.5950 C   0  0  0  0  0  0  0  0  0  0  0  0
   -9.0538   -0.9621    1.2515 C   0  0  0  0  0  0  0  0  0  0  0  0
   -9.2935    0.1886    0.4901 C   0  0  0  0  0  0  0  0  0  0  0  0
   -9.3538    0.1185   -0.9057 C   0  0  0  0  0  0  0  0  0  0  0  0
   -9.3537   -1.1289   -1.5263 C   0  0  0  0  0  0  0  0  0  0  0  0
   -9.1991   -2.2915   -0.7843 C   0  0  0  0  0  0  0  0  0  0  0  0
   -9.2317   -3.7772   -1.6680 Cl  0  0  0  0  0  0  0  0  0  0  0  0
   -9.5416    1.4208   -1.6459 C   0  0  2  0  0  0  0  0  0  0  0  0
  -10.7906    2.0445   -1.0294 C   0  0  0  0  0  0  0  0  0  0  0  0
  -10.7600    1.9617    0.5097 C   0  0  0  0  0  0  0  0  0  0  0  0
   -9.5293    1.4235    1.0629 O   0  0  0  0  0  0  0  0  0  0  0  0
   -9.6470    1.2701   -3.1526 C   0  0  0  0  0  0  0  0  0  0  0  0
   -8.5400    0.7386   -3.7300 O   0  0  0  0  0  0  0  0  0  0  0  0
  -10.6331    1.5732   -3.8189 O   0  0  0  0  0  0  0  0  0  0  0  0
   -6.9861   -5.0290    1.8100 C   0  0  0  0  0  0  0  0  0  0  0  0
   -5.6968   -5.5738    1.6734 C   0  0  0  0  0  0  0  0  0  0  0  0
    0.6528    1.0165    0.3175 H   0  0  0  0  0  0  0  0  0  0  0  0
    0.6807   -0.2278   -0.9418 H   0  0  0  0  0  0  0  0  0  0  0  0
    2.1340    0.0991    0.0735 H   0  0  0  0  0  0  0  0  0  0  0  0
    3.0315   -1.8073    0.4404 H   0  0  0  0  0  0  0  0  0  0  0  0
    1.9477   -5.9586    0.6405 H   0  0  0  0  0  0  0  0  0  0  0  0
   -0.3038   -5.3448    1.3342 H   0  0  0  0  0  0  0  0  0  0  0  0
   -1.7449   -3.2936    2.3552 H   0  0  0  0  0  0  0  0  0  0  0  0
   -1.5909   -1.7909    1.4673 H   0  0  0  0  0  0  0  0  0  0  0  0
   -3.3316   -2.9254    0.5231 H   0  0  0  0  0  0  0  0  0  0  0  0
   -2.0625   -2.9749   -0.7060 H   0  0  0  0  0  0  0  0  0  0  0  0
   -1.6494   -5.3160   -0.1800 H   0  0  0  0  0  0  0  0  0  0  0  0
   -4.6562   -3.6841   -0.9579 H   0  0  0  0  0  0  0  0  0  0  0  0
   -6.7065   -2.5697   -0.5378 H   0  0  0  0  0  0  0  0  0  0  0  0
   -8.9672   -0.9070    2.3338 H   0  0  0  0  0  0  0  0  0  0  0  0
   -9.4929   -1.2213   -2.5991 H   0  0  0  0  0  0  0  0  0  0  0  0
   -8.6829    2.0823   -1.4570 H   0  0  0  0  0  0  0  0  0  0  0  0
  -10.9369    3.0686   -1.3977 H   0  0  0  0  0  0  0  0  0  0  0  0
  -11.6887    1.5003   -1.3557 H   0  0  0  0  0  0  0  0  0  0  0  0
  -11.0008    2.9367    0.9563 H   0  0  0  0  0  0  0  0  0  0  0  0
  -11.5567    1.2883    0.8446 H   0  0  0  0  0  0  0  0  0  0  0  0
   -7.8390    0.4747   -3.1003 H   0  0  0  0  0  0  0  0  0  0  0  0
   -7.6835   -5.4910    2.5043 H   0  0  0  0  0  0  0  0  0  0  0  0
   -5.3637   -6.3821    2.3220 H   0  0  0  0  0  0  0  0  0  0  0  0
  1  2  1  0  0  0  0
  1 36  1  0  0  0  0
  1 37  1  0  0  0  0
  1 38  1  0  0  0  0
  2  3  1  0  0  0  0
  3  4  2  0  0  0  0
  3  9  1  0  0  0  0
  4  5  1  0  0  0  0
  4 39  1  0  0  0  0
  5  6  1  0  0  0  0
  5  7  2  0  0  0  0
  7  8  1  0  0  0  0
  7 40  1  0  0  0  0
  8  9  2  0  0  0  0
  8 41  1  0  0  0  0
  9 10  1  0  0  0  0
 10 11  1  0  0  0  0
 10 42  1  0  0  0  0
 10 43  1  0  0  0  0
 11 12  1  0  0  0  0
 11 44  1  0  0  0  0
 11 45  1  0  0  0  0
 12 13  1  0  0  0  0
 12 46  1  0  0  0  0
 13 14  2  0  0  0  0
 13 15  1  0  0  0  0
 15 16  2  0  0  0  0
 15 35  1  0  0  0  0
 16 17  1  0  0  0  0
 16 47  1  0  0  0  0
 17 18  2  0  0  0  0
 17 48  1  0  0  0  0
 18 19  1  0  0  0  0
 18 34  1  0  0  0  0
 19 20  1  0  0  0  0
 20 21  2  0  0  0  0
 20 25  1  0  0  0  0
 21 22  1  0  0  0  0
 21 49  1  0  0  0  0
 22 23  2  0  0  0  0
 22 30  1  0  0  0  0
 23 24  1  0  0  0  0
 24 25  2  0  0  0  0
 24 50  1  0  0  0  0
 25 26  1  0  0  0  0
 27 23  1  0  0  0  0
 27 28  1  0  0  0  0
 27 51  1  1  0  0  0
 27 31  1  0  0  0  0
 28 29  1  0  0  0  0
 28 52  1  0  0  0  0
 28 53  1  0  0  0  0
 29 30  1  0  0  0  0
 29 54  1  0  0  0  0
 29 55  1  0  0  0  0
 31 32  1  0  0  0  0
 31 33  2  0  0  0  0
 32 56  1  0  0  0  0
 34 35  2  0  0  0  0
 34 57  1  0  0  0  0
 35 58  1  0  0  0  0
M  END
>  <DRUGBANK_ID>
DB16053

>  <COMMON_NAME>
ARRY-502

>  <CAS_NUMBER>
1202891-16-4

>  <UNII>
5LO1ZK1LCW

$$$$
