
 OpenBabel10282417153D

 22 22  0  0  0  0  0  0  0  0999 V2000
    2.9200   -1.2159   -0.0292 C   0  0  0  0  0  0  0  0  0  0  0  0
    3.5997    0.0009   -0.0614 C   0  0  0  0  0  0  0  0  0  0  0  0
    2.8902    1.2092   -0.0700 C   0  0  0  0  0  0  0  0  0  0  0  0
    1.4874    1.1805   -0.0844 C   0  0  0  0  0  0  0  0  0  0  0  0
    0.8135   -0.0390   -0.0415 C   0  0  0  0  0  0  0  0  0  0  0  0
    1.5247   -1.2374   -0.0090 C   0  0  0  0  0  0  0  0  0  0  0  0
   -1.2638   -0.0567    0.0108 I   0  0  0  0  0  0  0  0  0  0  0  0
    3.6356    2.5215    0.0451 C   0  0  0  0  0  0  0  0  0  0  0  0
    4.4828    2.5813    1.2393 N   0  0  0  0  0  0  0  0  0  0  0  0
    3.9250    2.6046    2.3976 C   0  0  0  0  0  0  0  0  0  0  0  0
    2.6107    2.6271    2.7090 N   0  0  0  0  0  0  0  0  0  0  0  0
    4.6933    2.6590    3.4966 N   0  0  0  0  0  0  0  0  0  0  0  0
    3.4817   -2.1458   -0.0009 H   0  0  0  0  0  0  0  0  0  0  0  0
    4.6886    0.0154   -0.0397 H   0  0  0  0  0  0  0  0  0  0  0  0
    0.9300    2.1147   -0.0784 H   0  0  0  0  0  0  0  0  0  0  0  0
    1.0097   -2.1928    0.0356 H   0  0  0  0  0  0  0  0  0  0  0  0
    4.2706    2.6313   -0.8430 H   0  0  0  0  0  0  0  0  0  0  0  0
    2.9463    3.3756    0.0220 H   0  0  0  0  0  0  0  0  0  0  0  0
    2.3194    2.2552    3.6005 H   0  0  0  0  0  0  0  0  0  0  0  0
    1.9766    2.3702    1.9676 H   0  0  0  0  0  0  0  0  0  0  0  0
    5.6949    2.6963    3.3653 H   0  0  0  0  0  0  0  0  0  0  0  0
    4.3295    2.5780    4.4307 H   0  0  0  0  0  0  0  0  0  0  0  0
  1  2  2  0  0  0  0
  1  6  1  0  0  0  0
  1 13  1  0  0  0  0
  2  3  1  0  0  0  0
  2 14  1  0  0  0  0
  3  4  2  0  0  0  0
  3  8  1  0  0  0  0
  4  5  1  0  0  0  0
  4 15  1  0  0  0  0
  5  6  2  0  0  0  0
  5  7  1  0  0  0  0
  6 16  1  0  0  0  0
  8  9  1  0  0  0  0
  8 17  1  0  0  0  0
  8 18  1  0  0  0  0
  9 10  2  0  0  0  0
 10 11  1  0  0  0  0
 10 12  1  0  0  0  0
 11 19  1  0  0  0  0
 11 20  1  0  0  0  0
 12 21  1  0  0  0  0
 12 22  1  0  0  0  0
M  END
>  <DRUGBANK_ID>
DB06704

>  <SECONDARY_ACCESSION_NUMBERS>
DB09497

>  <COMMON_NAME>
Iobenguane

>  <CAS_NUMBER>
80663-95-2

>  <UNII>
35MRW7B4AD

>  <SYNONYMS>
((3-iodophenyl)methyl)guanidine; 3-iodobenzylguanidine; m-iodobenzylguanidine; Metaiodobenzylguanidine; mIBG

$$$$
