
 OpenBabel10282417233D

 35 34  0  0  0  0  0  0  0  0999 V2000
    0.9765    0.0515   -0.0125 C   0  0  0  0  0  0  0  0  0  0  0  0
    0.4978    1.2458   -0.8395 C   0  0  0  0  0  0  0  0  0  0  0  0
    0.5180   -1.3074   -0.5401 C   0  0  0  0  0  0  0  0  0  0  0  0
    0.9938    1.2088   -2.2877 C   0  0  0  0  0  0  0  0  0  0  0  0
    0.9124   -2.5147    0.2621 C   0  0  0  0  0  0  0  0  0  0  0  0
    0.4441    0.0607   -3.1412 C   0  0  0  0  0  0  0  0  0  0  0  0
    0.3418   -2.4664    1.6533 C   0  0  0  0  0  0  0  0  0  0  0  0
   -1.0856   -0.0361   -3.0784 C   0  0  0  0  0  0  0  0  0  0  0  0
   -1.1774   -2.3913    1.6300 C   0  0  0  0  0  0  0  0  0  0  0  0
   -1.6869    1.1535   -3.8058 C   0  0  0  0  0  0  0  0  0  0  0  0
   -1.7766   -3.4600    2.1977 O   0  0  0  0  0  0  0  0  0  0  0  0
   -1.8228   -1.4796    1.1572 O   0  0  0  0  0  0  0  0  0  0  0  0
   -1.2084    1.1575   -5.2471 C   0  0  0  0  0  0  0  0  0  0  0  0
    0.6183    0.2091    1.0088 H   0  0  0  0  0  0  0  0  0  0  0  0
    2.0708    0.0641    0.0200 H   0  0  0  0  0  0  0  0  0  0  0  0
   -0.5949    1.3304   -0.7865 H   0  0  0  0  0  0  0  0  0  0  0  0
    0.8653    2.1673   -0.3683 H   0  0  0  0  0  0  0  0  0  0  0  0
   -0.5531   -1.3129   -0.7517 H   0  0  0  0  0  0  0  0  0  0  0  0
    1.0381   -1.5518   -1.4451 H   0  0  0  0  0  0  0  0  0  0  0  0
    0.7241    2.1584   -2.7658 H   0  0  0  0  0  0  0  0  0  0  0  0
    2.0880    1.1750   -2.2945 H   0  0  0  0  0  0  0  0  0  0  0  0
    0.5667   -3.4058   -0.2815 H   0  0  0  0  0  0  0  0  0  0  0  0
    2.0089   -2.5625    0.2733 H   0  0  0  0  0  0  0  0  0  0  0  0
    0.8192    0.1629   -4.1570 H   0  0  0  0  0  0  0  0  0  0  0  0
    0.9037   -0.8967   -2.9509 H   0  0  0  0  0  0  0  0  0  0  0  0
    0.6958   -3.3473    2.1911 H   0  0  0  0  0  0  0  0  0  0  0  0
    0.7214   -1.5941    2.1911 H   0  0  0  0  0  0  0  0  0  0  0  0
   -1.4236   -0.9832   -3.5153 H   0  0  0  0  0  0  0  0  0  0  0  0
   -1.4833   -0.0454   -2.0574 H   0  0  0  0  0  0  0  0  0  0  0  0
   -2.7781    1.1056   -3.7580 H   0  0  0  0  0  0  0  0  0  0  0  0
   -1.3955    2.0843   -3.3051 H   0  0  0  0  0  0  0  0  0  0  0  0
   -1.1611   -4.1131    2.5707 H   0  0  0  0  0  0  0  0  0  0  0  0
   -1.4885    0.2159   -5.7295 H   0  0  0  0  0  0  0  0  0  0  0  0
   -1.6185    2.0033   -5.7911 H   0  0  0  0  0  0  0  0  0  0  0  0
   -0.1227    1.2588   -5.3298 H   0  0  0  0  0  0  0  0  0  0  0  0
  1  2  1  0  0  0  0
  1  3  1  0  0  0  0
  1 14  1  0  0  0  0
  1 15  1  0  0  0  0
  2  4  1  0  0  0  0
  2 16  1  0  0  0  0
  2 17  1  0  0  0  0
  3  5  1  0  0  0  0
  3 18  1  0  0  0  0
  3 19  1  0  0  0  0
  4  6  1  0  0  0  0
  4 20  1  0  0  0  0
  4 21  1  0  0  0  0
  5  7  1  0  0  0  0
  5 22  1  0  0  0  0
  5 23  1  0  0  0  0
  6  8  1  0  0  0  0
  6 24  1  0  0  0  0
  6 25  1  0  0  0  0
  7  9  1  0  0  0  0
  7 26  1  0  0  0  0
  7 27  1  0  0  0  0
  8 10  1  0  0  0  0
  8 28  1  0  0  0  0
  8 29  1  0  0  0  0
  9 11  1  0  0  0  0
  9 12  2  0  0  0  0
 10 13  1  0  0  0  0
 10 30  1  0  0  0  0
 10 31  1  0  0  0  0
 11 32  1  0  0  0  0
 13 33  1  0  0  0  0
 13 34  1  0  0  0  0
 13 35  1  0  0  0  0
M  END
>  <DRUGBANK_ID>
DB16857

>  <COMMON_NAME>
Undecanoic acid

>  <CAS_NUMBER>
112-37-8

>  <UNII>
138ON3IIQG

>  <SYNONYMS>
Hendecanoic acid; Undecanoate; Undecoic acid; Undecylic acid

$$$$
