
 OpenBabel10282417183D

114119  0  0  1  0  0  0  0  0999 V2000
  -11.9373   13.6975    5.2743 C   0  0  0  0  0  0  0  0  0  0  0  0
  -10.5501   13.3265    5.5461 C   0  0  0  0  0  0  0  0  0  0  0  0
   -9.7691   13.4170    4.2780 C   0  0  1  0  0  0  0  0  0  0  0  0
   -9.7460   14.7469    3.6543 C   0  0  0  0  0  0  0  0  0  0  0  0
   -8.6804   15.3655    3.7912 O   0  0  0  0  0  0  0  0  0  0  0  0
  -10.9533   15.0437    2.7907 N   0  0  0  0  0  0  0  0  0  0  0  0
  -12.5196   15.3540    3.3822 C   0  0  0  0  0  0  0  0  0  0  0  0
  -13.4134   15.4363    2.2499 C   0  0  2  0  0  0  0  0  0  0  0  0
  -12.5792   16.1948    1.2979 C   0  0  0  0  0  0  0  0  0  0  0  0
  -10.6455   16.0328    1.3691 C   0  0  1  0  0  0  0  0  0  0  0  0
   -9.3251   17.5956    1.4057 C   0  0  0  0  0  0  0  0  0  0  0  0
   -8.0227   17.6010    1.9694 C   0  0  0  0  0  0  0  0  0  0  0  0
   -7.3594   16.7353    1.2379 C   0  0  0  0  0  0  0  0  0  0  0  0
   -7.7482   15.9154    0.1562 C   0  0  0  0  0  0  0  0  0  0  0  0
   -6.7401   15.2046   -0.3815 C   0  0  0  0  0  0  0  0  0  0  0  0
   -5.4790   15.3630    0.1880 C   0  0  0  0  0  0  0  0  0  0  0  0
   -5.1640   16.1614    1.3211 C   0  0  0  0  0  0  0  0  0  0  0  0
   -6.1720   16.8842    1.8748 C   0  0  0  0  0  0  0  0  0  0  0  0
   -6.2682   17.7675    2.9688 N   0  0  0  0  0  0  0  0  0  0  0  0
   -7.5287   18.2858    3.0691 C   0  0  0  0  0  0  0  0  0  0  0  0
   -8.1784   19.1334    4.1563 C   0  0  0  0  0  0  0  0  0  0  0  0
   -9.2252   18.9189    5.1051 C   0  0  0  0  0  0  0  0  0  0  0  0
   -9.5344   20.0934    5.8235 C   0  0  0  0  0  0  0  0  0  0  0  0
  -10.4482   20.3968    6.8678 C   0  0  0  0  0  0  0  0  0  0  0  0
  -10.3944   21.6612    7.4398 C   0  0  0  0  0  0  0  0  0  0  0  0
   -9.4969   22.5940    6.9379 C   0  0  0  0  0  0  0  0  0  0  0  0
   -8.6575   22.3307    5.8494 C   0  0  0  0  0  0  0  0  0  0  0  0
   -8.6880   21.0513    5.3089 C   0  0  0  0  0  0  0  0  0  0  0  0
   -7.9582   20.4885    4.2759 N   0  0  0  0  0  0  0  0  0  0  0  0
   -9.4239   23.7959    7.5209 F   0  0  0  0  0  0  0  0  0  0  0  0
  -10.0618   17.7438    5.3862 C   0  0  0  0  0  0  0  0  0  0  0  0
  -11.0716   17.5029    4.2631 C   0  0  2  0  0  0  0  0  0  0  0  0
  -10.5158   17.2577    2.9811 C   0  0  0  0  0  0  0  0  0  0  0  0
  -11.1554   18.0045    1.2570 C   0  0  1  0  0  0  0  0  0  0  0  0
  -11.5336   18.9967    2.1486 C   0  0  0  0  0  0  0  0  0  0  0  0
  -11.9617   18.4296    3.6678 N   0  0  0  0  0  0  0  0  0  0  0  0
  -12.8497   18.8597    4.6071 C   0  0  0  0  0  0  0  0  0  0  0  0
  -13.0793   18.1736    5.6187 O   0  0  0  0  0  0  0  0  0  0  0  0
  -13.7492   20.0482    4.2698 C   0  0  2  0  0  0  0  0  0  0  0  0
  -13.9051   21.0981    3.1426 C   0  0  0  0  0  0  0  0  0  0  0  0
  -12.9466   20.5238    2.3329 C   0  0  0  0  0  0  0  0  0  0  0  0
  -13.8978   20.7705    5.4518 N   0  0  0  0  0  0  0  0  0  0  0  0
  -15.0963   21.0834    5.9739 C   0  0  0  0  0  0  0  0  0  0  0  0
  -15.0831   22.0423    6.7455 O   0  0  0  0  0  0  0  0  0  0  0  0
  -16.3498   20.1715    5.6647 C   0  0  2  0  0  0  0  0  0  0  0  0
  -16.3538   19.3342    4.4028 C   0  0  0  0  0  0  0  0  0  0  0  0
  -17.5575   20.9553    5.4174 N   0  0  0  0  0  0  0  0  0  0  0  0
  -17.9361   21.7112    6.5802 C   0  0  0  0  0  0  0  0  0  0  0  0
  -10.4329   18.4103   -0.2111 O   0  0  0  0  0  0  0  0  0  0  0  0
   -4.4758   14.7232   -0.4024 F   0  0  0  0  0  0  0  0  0  0  0  0
  -14.6406   16.1005    2.6427 O   0  0  0  0  0  0  0  0  0  0  0  0
   -8.3962   13.0627    4.5913 N   0  0  0  0  0  0  0  0  0  0  0  0
   -7.6686   12.1545    3.8939 C   0  0  0  0  0  0  0  0  0  0  0  0
   -6.5181   11.8938    4.2406 O   0  0  0  0  0  0  0  0  0  0  0  0
   -8.4077   11.4446    2.7355 C   0  0  2  0  0  0  0  0  0  0  0  0
   -9.2637   10.3323    3.3273 C   0  0  0  0  0  0  0  0  0  0  0  0
   -7.4713   10.9561    1.7182 N   0  0  0  0  0  0  0  0  0  0  0  0
   -6.7648   12.0958    1.1345 C   0  0  0  0  0  0  0  0  0  0  0  0
  -11.8033   14.7774    5.2674 H   0  0  0  0  0  0  0  0  0  0  0  0
  -12.7449   13.6108    5.9853 H   0  0  0  0  0  0  0  0  0  0  0  0
  -12.2325   13.2210    4.3174 H   0  0  0  0  0  0  0  0  0  0  0  0
  -10.1609   14.0452    6.2740 H   0  0  0  0  0  0  0  0  0  0  0  0
  -10.5352   12.3040    5.8901 H   0  0  0  0  0  0  0  0  0  0  0  0
  -10.1879   12.8561    3.4523 H   0  0  0  0  0  0  0  0  0  0  0  0
  -12.7506   16.1836    4.0731 H   0  0  0  0  0  0  0  0  0  0  0  0
  -13.0945   14.6437    3.9465 H   0  0  0  0  0  0  0  0  0  0  0  0
  -13.6160   14.4245    1.9442 H   0  0  0  0  0  0  0  0  0  0  0  0
  -12.9533   16.0732    0.2840 H   0  0  0  0  0  0  0  0  0  0  0  0
  -12.9939   17.1884    1.6084 H   0  0  0  0  0  0  0  0  0  0  0  0
  -10.4236   15.3229    0.5623 H   0  0  0  0  0  0  0  0  0  0  0  0
   -9.3656   18.7544    1.1538 H   0  0  0  0  0  0  0  0  0  0  0  0
   -9.4916   18.4447    2.2072 H   0  0  0  0  0  0  0  0  0  0  0  0
   -8.7534   15.8502   -0.2781 H   0  0  0  0  0  0  0  0  0  0  0  0
   -6.9459   14.5647   -1.2299 H   0  0  0  0  0  0  0  0  0  0  0  0
   -4.1869   16.2575    1.7320 H   0  0  0  0  0  0  0  0  0  0  0  0
   -5.5563   17.9685    3.6405 H   0  0  0  0  0  0  0  0  0  0  0  0
  -11.1481   19.6591    7.2700 H   0  0  0  0  0  0  0  0  0  0  0  0
  -11.0303   21.9103    8.2849 H   0  0  0  0  0  0  0  0  0  0  0  0
   -7.9749   23.0776    5.4760 H   0  0  0  0  0  0  0  0  0  0  0  0
   -7.3191   20.9996    3.6933 H   0  0  0  0  0  0  0  0  0  0  0  0
   -9.4066   16.8745    5.5524 H   0  0  0  0  0  0  0  0  0  0  0  0
  -10.6666   17.7747    6.3008 H   0  0  0  0  0  0  0  0  0  0  0  0
  -11.3595   16.5761    4.7116 H   0  0  0  0  0  0  0  0  0  0  0  0
   -9.7760   16.5087    2.8420 H   0  0  0  0  0  0  0  0  0  0  0  0
   -9.5809   17.5389    3.4399 H   0  0  0  0  0  0  0  0  0  0  0  0
  -11.8147   17.5852    0.4857 H   0  0  0  0  0  0  0  0  0  0  0  0
  -10.7973   19.7950    2.2065 H   0  0  0  0  0  0  0  0  0  0  0  0
  -12.2744   19.0891    1.3425 H   0  0  0  0  0  0  0  0  0  0  0  0
  -14.4316   19.2932    3.9401 H   0  0  0  0  0  0  0  0  0  0  0  0
  -14.7118   20.9943    2.4051 H   0  0  0  0  0  0  0  0  0  0  0  0
  -13.3984   22.0525    3.2311 H   0  0  0  0  0  0  0  0  0  0  0  0
  -13.4907   19.5151    2.1993 H   0  0  0  0  0  0  0  0  0  0  0  0
  -12.5793   20.9125    1.3955 H   0  0  0  0  0  0  0  0  0  0  0  0
  -12.0964   20.5869    3.0708 H   0  0  0  0  0  0  0  0  0  0  0  0
  -13.1382   21.4138    5.6487 H   0  0  0  0  0  0  0  0  0  0  0  0
  -16.4319   19.4988    6.5241 H   0  0  0  0  0  0  0  0  0  0  0  0
  -15.9843   19.9701    3.5927 H   0  0  0  0  0  0  0  0  0  0  0  0
  -15.7871   18.4130    4.6067 H   0  0  0  0  0  0  0  0  0  0  0  0
  -17.2813   18.9937    3.9563 H   0  0  0  0  0  0  0  0  0  0  0  0
  -17.4292   21.5566    4.6051 H   0  0  0  0  0  0  0  0  0  0  0  0
  -17.2250   22.5067    6.7884 H   0  0  0  0  0  0  0  0  0  0  0  0
  -18.8970   22.1823    6.3877 H   0  0  0  0  0  0  0  0  0  0  0  0
  -18.0223   21.0495    7.4460 H   0  0  0  0  0  0  0  0  0  0  0  0
   -9.4772   18.6936   -0.2913 H   0  0  0  0  0  0  0  0  0  0  0  0
  -14.4703   16.9233    3.1502 H   0  0  0  0  0  0  0  0  0  0  0  0
   -7.8552   13.7075    5.1687 H   0  0  0  0  0  0  0  0  0  0  0  0
   -9.0587   12.1348    2.1893 H   0  0  0  0  0  0  0  0  0  0  0  0
  -10.2572   10.7189    3.5847 H   0  0  0  0  0  0  0  0  0  0  0  0
   -9.4126    9.5224    2.6117 H   0  0  0  0  0  0  0  0  0  0  0  0
   -8.8310    9.9223    4.2463 H   0  0  0  0  0  0  0  0  0  0  0  0
   -6.7993   10.3496    2.1860 H   0  0  0  0  0  0  0  0  0  0  0  0
   -6.1751   12.6471    1.8738 H   0  0  0  0  0  0  0  0  0  0  0  0
   -6.0818   11.7443    0.3614 H   0  0  0  0  0  0  0  0  0  0  0  0
   -7.4741   12.7907    0.6734 H   0  0  0  0  0  0  0  0  0  0  0  0
  1  2  1  0  0  0  0
  1 59  1  0  0  0  0
  1 60  1  0  0  0  0
  1 61  1  0  0  0  0
  2  3  1  0  0  0  0
  2 62  1  0  0  0  0
  2 63  1  0  0  0  0
  3  4  1  0  0  0  0
  3 52  1  0  0  0  0
  3 64  1  6  0  0  0
  4  5  2  0  0  0  0
  4  6  1  0  0  0  0
  6  7  1  0  0  0  0
  6 10  1  0  0  0  0
  7  8  1  0  0  0  0
  7 65  1  0  0  0  0
  7 66  1  0  0  0  0
  8  9  1  0  0  0  0
  8 51  1  0  0  0  0
  8 67  1  6  0  0  0
  9 10  1  0  0  0  0
  9 68  1  0  0  0  0
  9 69  1  0  0  0  0
 10 11  1  0  0  0  0
 10 70  1  6  0  0  0
 11 12  1  0  0  0  0
 11 71  1  0  0  0  0
 11 72  1  0  0  0  0
 12 13  1  0  0  0  0
 12 20  2  0  0  0  0
 13 14  2  0  0  0  0
 13 18  1  0  0  0  0
 14 15  1  0  0  0  0
 14 73  1  0  0  0  0
 15 16  2  0  0  0  0
 15 74  1  0  0  0  0
 16 17  1  0  0  0  0
 16 50  1  0  0  0  0
 17 18  2  0  0  0  0
 17 75  1  0  0  0  0
 18 19  1  0  0  0  0
 19 20  1  0  0  0  0
 19 76  1  0  0  0  0
 20 21  1  0  0  0  0
 21 22  2  0  0  0  0
 21 29  1  0  0  0  0
 22 23  1  0  0  0  0
 22 31  1  0  0  0  0
 23 24  2  0  0  0  0
 23 28  1  0  0  0  0
 24 25  1  0  0  0  0
 24 77  1  0  0  0  0
 25 26  2  0  0  0  0
 25 78  1  0  0  0  0
 26 27  1  0  0  0  0
 26 30  1  0  0  0  0
 27 28  2  0  0  0  0
 27 79  1  0  0  0  0
 28 29  1  0  0  0  0
 29 80  1  0  0  0  0
 31 81  1  0  0  0  0
 31 82  1  0  0  0  0
 32 33  1  0  0  0  0
 32 36  1  0  0  0  0
 32 83  1  1  0  0  0
 32 31  1  0  0  0  0
 33 34  1  0  0  0  0
 33 84  1  0  0  0  0
 33 85  1  0  0  0  0
 34 35  1  0  0  0  0
 34 49  1  0  0  0  0
 34 86  1  6  0  0  0
 35 36  1  0  0  0  0
 35 87  1  0  0  0  0
 35 88  1  0  0  0  0
 36 37  1  0  0  0  0
 37 38  2  0  0  0  0
 39 42  1  0  0  0  0
 39 89  1  6  0  0  0
 39 40  1  0  0  0  0
 39 37  1  0  0  0  0
 40 41  1  0  0  0  0
 40 90  1  0  0  0  0
 40 91  1  0  0  0  0
 41 92  1  0  0  0  0
 41 93  1  0  0  0  0
 41 94  1  0  0  0  0
 42 43  1  0  0  0  0
 42 95  1  0  0  0  0
 43 44  2  0  0  0  0
 45 47  1  0  0  0  0
 45 96  1  1  0  0  0
 45 46  1  0  0  0  0
 45 43  1  0  0  0  0
 46 97  1  0  0  0  0
 46 98  1  0  0  0  0
 46 99  1  0  0  0  0
 47 48  1  0  0  0  0
 47100  1  0  0  0  0
 48101  1  0  0  0  0
 48102  1  0  0  0  0
 48103  1  0  0  0  0
 49104  1  0  0  0  0
 51105  1  0  0  0  0
 52 53  1  0  0  0  0
 52106  1  0  0  0  0
 53 54  2  0  0  0  0
 55 57  1  0  0  0  0
 55107  1  6  0  0  0
 55 56  1  0  0  0  0
 55 53  1  0  0  0  0
 56108  1  0  0  0  0
 56109  1  0  0  0  0
 56110  1  0  0  0  0
 57 58  1  0  0  0  0
 57111  1  0  0  0  0
 58112  1  0  0  0  0
 58113  1  0  0  0  0
 58114  1  0  0  0  0
M  END
>  <DRUGBANK_ID>
DB11782

>  <COMMON_NAME>
Birinapant

>  <CAS_NUMBER>
1260251-31-7

>  <UNII>
6O4Z07B57R

>  <SYNONYMS>
Birinapant

$$$$
