
 OpenBabel10282417223D

 57 60  0  0  1  0  0  0  0  0999 V2000
    1.2378   -0.0974   -0.0041 C   0  0  0  0  0  0  0  0  0  0  0  0
    0.7525    0.0579   -1.4405 C   0  0  1  0  0  0  0  0  0  0  0  0
    1.3246   -1.0649   -2.3263 C   0  0  0  0  0  0  0  0  0  0  0  0
    1.4009   -2.3473   -1.9900 N   0  0  0  0  0  0  0  0  0  0  0  0
    1.3806   -3.1307   -3.1494 C   0  0  0  0  0  0  0  0  0  0  0  0
    1.8125   -2.4512   -4.2678 C   0  0  0  0  0  0  0  0  0  0  0  0
    1.8485   -0.7576   -3.9473 S   0  0  0  0  0  0  0  0  0  0  0  0
    0.9746   -4.5492   -3.1766 C   0  0  0  0  0  0  0  0  0  0  0  0
   -0.3653   -5.0213   -3.2199 C   0  0  0  0  0  0  0  0  0  0  0  0
   -0.6830   -6.3861   -3.0870 C   0  0  0  0  0  0  0  0  0  0  0  0
    0.3437   -7.3208   -3.0966 C   0  0  0  0  0  0  0  0  0  0  0  0
    1.6688   -6.8707   -3.1378 C   0  0  0  0  0  0  0  0  0  0  0  0
    1.9775   -5.5039   -3.1470 C   0  0  0  0  0  0  0  0  0  0  0  0
    0.0478   -8.7168   -3.1433 C   0  0  0  0  0  0  0  0  0  0  0  0
   -0.1946   -9.8597   -3.2317 N   0  0  0  0  0  0  0  0  0  0  0  0
   -0.8370    0.2197   -1.4164 C   0  0  1  0  0  0  0  0  0  0  0  0
   -1.2656    1.4144   -0.4371 C   0  0  0  0  0  0  0  0  0  0  0  0
   -0.7234    2.7615   -0.6319 N   0  0  0  0  0  0  0  0  0  0  0  0
   -1.4332    3.9265   -0.4723 C   0  0  0  0  0  0  0  0  0  0  0  0
   -0.9561    4.8520   -1.2774 N   0  0  0  0  0  0  0  0  0  0  0  0
    0.1053    4.2350   -1.8655 C   0  0  0  0  0  0  0  0  0  0  0  0
    0.3651    3.0073   -1.3980 N   0  0  0  0  0  0  0  0  0  0  0  0
   -1.3511    0.3693   -2.7680 O   0  0  0  0  0  0  0  0  0  0  0  0
   -1.1387    1.6124   -3.4327 C   0  0  0  0  0  0  0  0  0  0  0  0
   -1.9512    2.5873   -2.8119 O   0  0  0  0  0  0  0  0  0  0  0  0
   -3.5395    2.4967   -2.9031 P   0  0  0  0  0  0  0  0  0  0  0  0
   -3.5839    2.9168   -4.4281 O   0  0  0  0  0  0  0  0  0  0  0  0
   -3.7555    0.9357   -2.7046 O   0  0  0  0  0  0  0  0  0  0  0  0
   -4.3603    3.3685   -2.0219 O   0  0  0  0  0  0  0  0  0  0  0  0
   -1.5510   -1.0835   -0.9010 C   0  0  0  0  0  0  0  0  0  0  0  0
   -2.5444   -1.2290    0.0700 C   0  0  0  0  0  0  0  0  0  0  0  0
   -2.9445   -2.5120    0.5208 C   0  0  0  0  0  0  0  0  0  0  0  0
   -2.2607   -3.6397    0.1155 C   0  0  0  0  0  0  0  0  0  0  0  0
   -2.6014   -4.8690    0.5189 F   0  0  0  0  0  0  0  0  0  0  0  0
   -1.2839   -3.5021   -0.8133 C   0  0  0  0  0  0  0  0  0  0  0  0
   -1.1861   -2.2834   -1.4688 C   0  0  0  0  0  0  0  0  0  0  0  0
   -0.9152   -2.2569   -2.7786 F   0  0  0  0  0  0  0  0  0  0  0  0
    0.8511   -1.0230    0.4325 H   0  0  0  0  0  0  0  0  0  0  0  0
    0.9073    0.7267    0.6331 H   0  0  0  0  0  0  0  0  0  0  0  0
    2.3247   -0.1045    0.0328 H   0  0  0  0  0  0  0  0  0  0  0  0
    1.1900    0.9698   -1.8484 H   0  0  0  0  0  0  0  0  0  0  0  0
    2.0187   -2.8490   -5.2481 H   0  0  0  0  0  0  0  0  0  0  0  0
   -1.2231   -4.3502   -3.2610 H   0  0  0  0  0  0  0  0  0  0  0  0
   -1.7227   -6.7053   -2.9800 H   0  0  0  0  0  0  0  0  0  0  0  0
    2.4869   -7.5830   -3.1674 H   0  0  0  0  0  0  0  0  0  0  0  0
    3.0117   -5.1763   -3.1514 H   0  0  0  0  0  0  0  0  0  0  0  0
   -2.3592    1.5224   -0.4765 H   0  0  0  0  0  0  0  0  0  0  0  0
   -1.0561    1.1643    0.6065 H   0  0  0  0  0  0  0  0  0  0  0  0
   -2.3378    3.9922    0.1149 H   0  0  0  0  0  0  0  0  0  0  0  0
    0.6594    4.6572   -2.6988 H   0  0  0  0  0  0  0  0  0  0  0  0
   -0.0709    1.8578   -3.4428 H   0  0  0  0  0  0  0  0  0  0  0  0
   -1.4095    1.5370   -4.4897 H   0  0  0  0  0  0  0  0  0  0  0  0
   -3.3091    3.8593   -4.3737 H   0  0  0  0  0  0  0  0  0  0  0  0
   -2.9113    0.4870   -2.4805 H   0  0  0  0  0  0  0  0  0  0  0  0
   -3.0831   -0.3794    0.4682 H   0  0  0  0  0  0  0  0  0  0  0  0
   -3.7699   -2.6431    1.2077 H   0  0  0  0  0  0  0  0  0  0  0  0
   -0.7036   -4.3695   -1.0723 H   0  0  0  0  0  0  0  0  0  0  0  0
  1 38  1  0  0  0  0
  1 39  1  0  0  0  0
  1 40  1  0  0  0  0
  2  1  1  0  0  0  0
  2  3  1  0  0  0  0
  2 16  1  0  0  0  0
  2 41  1  6  0  0  0
  3  4  2  0  0  0  0
  3  7  1  0  0  0  0
  4  5  1  0  0  0  0
  5  6  2  0  0  0  0
  5  8  1  0  0  0  0
  6  7  1  0  0  0  0
  6 42  1  0  0  0  0
  8  9  2  0  0  0  0
  8 13  1  0  0  0  0
  9 10  1  0  0  0  0
  9 43  1  0  0  0  0
 10 11  2  0  0  0  0
 10 44  1  0  0  0  0
 11 12  1  0  0  0  0
 11 14  1  0  0  0  0
 12 13  2  0  0  0  0
 12 45  1  0  0  0  0
 13 46  1  0  0  0  0
 14 15  3  0  0  0  0
 16 17  1  0  0  0  0
 16 23  1  6  0  0  0
 16 30  1  0  0  0  0
 17 18  1  0  0  0  0
 17 47  1  0  0  0  0
 17 48  1  0  0  0  0
 18 19  1  0  0  0  0
 18 22  1  0  0  0  0
 19 20  2  0  0  0  0
 19 49  1  0  0  0  0
 20 21  1  0  0  0  0
 21 22  2  0  0  0  0
 21 50  1  0  0  0  0
 23 24  1  0  0  0  0
 24 25  1  0  0  0  0
 24 51  1  0  0  0  0
 24 52  1  0  0  0  0
 25 26  1  0  0  0  0
 26 27  1  0  0  0  0
 26 28  1  0  0  0  0
 26 29  2  0  0  0  0
 27 53  1  0  0  0  0
 28 54  1  0  0  0  0
 30 31  2  0  0  0  0
 30 36  1  0  0  0  0
 31 32  1  0  0  0  0
 31 55  1  0  0  0  0
 32 33  2  0  0  0  0
 32 56  1  0  0  0  0
 33 34  1  0  0  0  0
 33 35  1  0  0  0  0
 35 36  2  0  0  0  0
 35 57  1  0  0  0  0
 36 37  1  0  0  0  0
M  END
>  <DRUGBANK_ID>
DB15204

>  <COMMON_NAME>
Fosravuconazole

>  <CAS_NUMBER>
351227-64-0

>  <UNII>
L4Q6O5430L

>  <SYNONYMS>
Fosravuconazole

$$$$
