AEH
 OpenBabel10282417163D

 27 27  0  0  0  0  0  0  0  0999 V2000
    0.9869   -0.0786   -0.0691 C   0  0  0  0  0  0  0  0  0  0  0  0
   -1.3187   -3.0855    0.2854 C   0  0  0  0  0  0  0  0  0  0  0  0
    0.9407   -3.9037   -0.0519 C   0  0  0  0  0  0  0  0  0  0  0  0
    0.4852    0.6170   -1.3234 C   0  0  0  0  0  0  0  0  0  0  0  0
   -2.7873   -3.2973    0.5826 C   0  0  0  0  0  0  0  0  0  0  0  0
   -3.1318   -1.2493    2.0408 N   0  0  0  0  0  0  0  0  0  0  0  0
    2.7337   -2.3364   -0.3550 O   0  0  0  0  0  0  0  0  0  0  0  0
    1.4090   -2.5902   -0.1392 C   0  0  0  0  0  0  0  0  0  0  0  0
   -0.4196   -4.1481    0.1800 C   0  0  0  0  0  0  0  0  0  0  0  0
   -3.2500   -2.7075    1.9345 C   0  0  0  0  0  0  0  0  0  0  0  0
   -0.8306   -1.7840    0.1142 C   0  0  0  0  0  0  0  0  0  0  0  0
    0.5348   -1.5157   -0.0306 C   0  0  0  0  0  0  0  0  0  0  0  0
    0.6077    0.4363    0.8241 H   0  0  0  0  0  0  0  0  0  0  0  0
    2.0780   -0.0029   -0.0159 H   0  0  0  0  0  0  0  0  0  0  0  0
    1.6178   -4.7448   -0.1498 H   0  0  0  0  0  0  0  0  0  0  0  0
    0.8285    0.0911   -2.2200 H   0  0  0  0  0  0  0  0  0  0  0  0
   -0.6096    0.6481   -1.3539 H   0  0  0  0  0  0  0  0  0  0  0  0
    0.8486    1.6470   -1.3591 H   0  0  0  0  0  0  0  0  0  0  0  0
   -3.3821   -2.8803   -0.2399 H   0  0  0  0  0  0  0  0  0  0  0  0
   -3.0028   -4.3743    0.5954 H   0  0  0  0  0  0  0  0  0  0  0  0
   -3.4705   -0.9399    2.9495 H   0  0  0  0  0  0  0  0  0  0  0  0
   -2.1379   -1.0134    2.0526 H   0  0  0  0  0  0  0  0  0  0  0  0
    3.1958   -3.1742   -0.5049 H   0  0  0  0  0  0  0  0  0  0  0  0
   -0.7667   -5.1756    0.2685 H   0  0  0  0  0  0  0  0  0  0  0  0
   -4.3033   -2.9662    2.0863 H   0  0  0  0  0  0  0  0  0  0  0  0
   -2.6781   -3.1623    2.7509 H   0  0  0  0  0  0  0  0  0  0  0  0
   -1.5273   -0.9491    0.1086 H   0  0  0  0  0  0  0  0  0  0  0  0
  1  4  1  0  0  0  0
  1 12  1  0  0  0  0
  1 13  1  0  0  0  0
  1 14  1  0  0  0  0
  2  5  1  0  0  0  0
  2  9  2  0  0  0  0
  2 11  1  0  0  0  0
  3  8  2  0  0  0  0
  3  9  1  0  0  0  0
  3 15  1  0  0  0  0
  4 16  1  0  0  0  0
  4 17  1  0  0  0  0
  4 18  1  0  0  0  0
  5 10  1  0  0  0  0
  5 19  1  0  0  0  0
  5 20  1  0  0  0  0
  6 10  1  0  0  0  0
  6 21  1  0  0  0  0
  6 22  1  0  0  0  0
  7  8  1  0  0  0  0
  7 23  1  0  0  0  0
  8 12  1  0  0  0  0
  9 24  1  0  0  0  0
 10 25  1  0  0  0  0
 10 26  1  0  0  0  0
 11 12  2  0  0  0  0
 11 27  1  0  0  0  0
M  END
>  <DRUGBANK_ID>
DB07346

>  <COMMON_NAME>
4-(2-aminoethyl)-2-ethylphenol

$$$$
