
 OpenBabel10282417223D

 66 71  0  0  0  0  0  0  0  0999 V2000
    1.7229   -0.3527   -0.2815 C   0  0  0  0  0  0  0  0  0  0  0  0
    1.7456   -0.1582    1.0693 C   0  0  0  0  0  0  0  0  0  0  0  0
    2.9544    0.1714    1.7367 C   0  0  0  0  0  0  0  0  0  0  0  0
    4.0659    0.4939    0.9710 C   0  0  0  0  0  0  0  0  0  0  0  0
    3.7268    0.3456   -0.3356 C   0  0  0  0  0  0  0  0  0  0  0  0
    2.8094   -0.3828   -0.9312 N   0  0  0  0  0  0  0  0  0  0  0  0
    0.4038   -0.5306    1.5420 C   0  0  0  0  0  0  0  0  0  0  0  0
   -0.3831   -0.7343    0.2169 C   0  0  2  0  0  0  0  0  0  0  0  0
    0.4697   -0.5701   -0.9985 C   0  0  0  0  0  0  0  0  0  0  0  0
   -2.6948   -0.6255    0.0409 C   0  0  0  0  0  0  0  0  0  0  0  0
   -1.5609    0.1620    0.1079 C   0  0  0  0  0  0  0  0  0  0  0  0
   -1.6236    1.5434    0.0517 C   0  0  0  0  0  0  0  0  0  0  0  0
   -2.8891    2.0942    0.0039 C   0  0  0  0  0  0  0  0  0  0  0  0
   -3.9867    1.2271   -0.0121 C   0  0  0  0  0  0  0  0  0  0  0  0
   -3.9228   -0.1340   -0.0167 N   0  0  0  0  0  0  0  0  0  0  0  0
   -2.3402   -1.9650    0.0389 N   0  0  0  0  0  0  0  0  0  0  0  0
   -0.9663   -2.1405    0.1156 C   0  0  0  0  0  0  0  0  0  0  0  0
    5.4334    0.9591    1.4780 C   0  0  0  0  0  0  0  0  0  0  0  0
    5.5338    1.0360    2.7082 O   0  0  0  0  0  0  0  0  0  0  0  0
    6.6136    1.2433    0.7357 N   0  0  0  0  0  0  0  0  0  0  0  0
   -0.3573   -3.1731    0.0619 O   0  0  0  0  0  0  0  0  0  0  0  0
    6.5229    2.7773   -2.7308 N   0  0  0  0  0  0  0  0  0  0  0  0
    6.7876    2.7691   -1.3557 C   0  0  0  0  0  0  0  0  0  0  0  0
    6.9858    1.3235   -0.7567 C   0  0  2  0  0  0  0  0  0  0  0  0
    6.0472    0.4162   -1.4903 C   0  0  0  0  0  0  0  0  0  0  0  0
    5.5718    0.5349   -2.9594 C   0  0  2  0  0  0  0  0  0  0  0  0
    5.3776    2.0423   -3.2802 C   0  0  1  0  0  0  0  0  0  0  0  0
    7.3999    3.4536   -3.6769 C   0  0  0  0  0  0  0  0  0  0  0  0
    8.1213    2.4687   -4.6079 C   0  0  0  0  0  0  0  0  0  0  0  0
    7.2563    1.7778   -5.3870 F   0  0  0  0  0  0  0  0  0  0  0  0
    8.9778    3.1060   -5.4286 F   0  0  0  0  0  0  0  0  0  0  0  0
    8.8205    1.5585   -3.8888 F   0  0  0  0  0  0  0  0  0  0  0  0
    4.3829   -0.3160   -3.4813 C   0  0  0  0  0  0  0  0  0  0  0  0
    3.0191    0.0409   -3.4283 C   0  0  0  0  0  0  0  0  0  0  0  0
    1.9565   -0.7944   -3.7813 C   0  0  0  0  0  0  0  0  0  0  0  0
    2.2216   -2.1048   -4.0750 C   0  0  0  0  0  0  0  0  0  0  0  0
    3.5514   -2.4845   -4.2182 C   0  0  0  0  0  0  0  0  0  0  0  0
    4.6080   -1.5654   -4.0469 C   0  0  0  0  0  0  0  0  0  0  0  0
    6.8648    3.8043   -0.7019 O   0  0  0  0  0  0  0  0  0  0  0  0
    4.1118    2.8148   -2.8428 C   0  0  0  0  0  0  0  0  0  0  0  0
    3.0064    0.2167    2.8144 H   0  0  0  0  0  0  0  0  0  0  0  0
    3.8435    1.1402   -1.0407 H   0  0  0  0  0  0  0  0  0  0  0  0
    0.0089    0.2775    2.1558 H   0  0  0  0  0  0  0  0  0  0  0  0
    0.5162   -1.4684    2.0862 H   0  0  0  0  0  0  0  0  0  0  0  0
    0.2052    0.2851   -1.6451 H   0  0  0  0  0  0  0  0  0  0  0  0
    0.5491   -1.4574   -1.6336 H   0  0  0  0  0  0  0  0  0  0  0  0
   -0.7322    2.1667    0.0518 H   0  0  0  0  0  0  0  0  0  0  0  0
   -3.0241    3.1708   -0.0077 H   0  0  0  0  0  0  0  0  0  0  0  0
   -4.9930    1.6319   -0.0185 H   0  0  0  0  0  0  0  0  0  0  0  0
   -2.9787   -2.7365   -0.0321 H   0  0  0  0  0  0  0  0  0  0  0  0
    7.3595    1.5576    1.3544 H   0  0  0  0  0  0  0  0  0  0  0  0
    8.0239    1.0055   -0.8971 H   0  0  0  0  0  0  0  0  0  0  0  0
    5.9358   -0.5659   -1.0205 H   0  0  0  0  0  0  0  0  0  0  0  0
    5.3682    1.1042   -1.0879 H   0  0  0  0  0  0  0  0  0  0  0  0
    6.4618    0.1679   -3.4814 H   0  0  0  0  0  0  0  0  0  0  0  0
    5.3662    2.1048   -4.3711 H   0  0  0  0  0  0  0  0  0  0  0  0
    6.7887    4.1511   -4.2586 H   0  0  0  0  0  0  0  0  0  0  0  0
    8.1400    4.0217   -3.1092 H   0  0  0  0  0  0  0  0  0  0  0  0
    2.6491    0.8942   -2.8808 H   0  0  0  0  0  0  0  0  0  0  0  0
    0.9373   -0.4475   -3.6339 H   0  0  0  0  0  0  0  0  0  0  0  0
    1.3990   -2.8065   -4.1667 H   0  0  0  0  0  0  0  0  0  0  0  0
    3.7729   -3.5200   -4.4484 H   0  0  0  0  0  0  0  0  0  0  0  0
    5.6081   -1.8506   -4.3515 H   0  0  0  0  0  0  0  0  0  0  0  0
    4.1546    3.8567   -3.1597 H   0  0  0  0  0  0  0  0  0  0  0  0
    3.2062    2.4762   -3.3336 H   0  0  0  0  0  0  0  0  0  0  0  0
    3.9600    2.8473   -1.7613 H   0  0  0  0  0  0  0  0  0  0  0  0
  1  2  1  0  0  0  0
  1  6  2  0  0  0  0
  1  9  1  0  0  0  0
  2  3  2  0  0  0  0
  2  7  1  0  0  0  0
  3  4  1  0  0  0  0
  3 41  1  0  0  0  0
  4  5  2  0  0  0  0
  4 18  1  0  0  0  0
  5  6  1  0  0  0  0
  5 42  1  0  0  0  0
  7 43  1  0  0  0  0
  7 44  1  0  0  0  0
  8  7  1  0  0  0  0
  8  9  1  0  0  0  0
  8 11  1  6  0  0  0
  8 17  1  0  0  0  0
  9 45  1  0  0  0  0
  9 46  1  0  0  0  0
 10 11  1  0  0  0  0
 10 15  2  0  0  0  0
 10 16  1  0  0  0  0
 11 12  2  0  0  0  0
 12 13  1  0  0  0  0
 12 47  1  0  0  0  0
 13 14  2  0  0  0  0
 13 48  1  0  0  0  0
 14 15  1  0  0  0  0
 14 49  1  0  0  0  0
 16 17  1  0  0  0  0
 16 50  1  0  0  0  0
 17 21  2  0  0  0  0
 18 19  2  0  0  0  0
 18 20  1  0  0  0  0
 20 51  1  0  0  0  0
 22 23  1  0  0  0  0
 22 27  1  0  0  0  0
 22 28  1  0  0  0  0
 23 24  1  0  0  0  0
 23 39  2  0  0  0  0
 24 25  1  0  0  0  0
 24 20  1  0  0  0  0
 24 52  1  6  0  0  0
 25 26  1  0  0  0  0
 25 53  1  0  0  0  0
 25 54  1  0  0  0  0
 26 27  1  0  0  0  0
 26 55  1  6  0  0  0
 26 33  1  0  0  0  0
 27 40  1  0  0  0  0
 27 56  1  6  0  0  0
 28 29  1  0  0  0  0
 28 57  1  0  0  0  0
 28 58  1  0  0  0  0
 29 30  1  0  0  0  0
 29 31  1  0  0  0  0
 29 32  1  0  0  0  0
 33 34  1  0  0  0  0
 33 38  2  0  0  0  0
 34 35  2  0  0  0  0
 34 59  1  0  0  0  0
 35 36  1  0  0  0  0
 35 60  1  0  0  0  0
 36 37  2  0  0  0  0
 36 61  1  0  0  0  0
 37 38  1  0  0  0  0
 37 62  1  0  0  0  0
 38 63  1  0  0  0  0
 40 64  1  0  0  0  0
 40 65  1  0  0  0  0
 40 66  1  0  0  0  0
M  END
>  <DRUGBANK_ID>
DB15328

>  <COMMON_NAME>
Ubrogepant

>  <CAS_NUMBER>
1374248-77-7

>  <UNII>
AD0O8X2QJR

>  <SYNONYMS>
Ubrogepant; Ubrog√©pant; Ubrogepantum

$$$$
