SBC
 OpenBabel10282417173D

 37 40  0  0  0  0  0  0  0  0999 V2000
    1.1381   -0.3048   -0.0364 C   0  0  0  0  0  0  0  0  0  0  0  0
    0.1183   -1.3542   -0.0935 C   0  0  0  0  0  0  0  0  0  0  0  0
   -1.3599   -1.1672   -0.1733 C   0  0  0  0  0  0  0  0  0  0  0  0
   -1.6887    0.1806   -0.0843 C   0  0  0  0  0  0  0  0  0  0  0  0
   -0.6606    1.2391   -0.0194 C   0  0  0  0  0  0  0  0  0  0  0  0
    0.7376    1.0163   -0.0617 C   0  0  0  0  0  0  0  0  0  0  0  0
   -2.3380   -2.4359   -0.2723 N   0  0  0  0  0  0  0  0  0  0  0  0
   -3.7933   -2.9950   -0.1670 C   0  0  0  0  0  0  0  0  0  0  0  0
   -3.4392   -4.2605    0.4038 C   0  0  0  0  0  0  0  0  0  0  0  0
   -2.1143   -4.5886    0.0893 C   0  0  0  0  0  0  0  0  0  0  0  0
   -1.4729   -3.5317   -0.3680 N   0  0  0  0  0  0  0  0  0  0  0  0
   -5.2757   -2.8631   -0.3053 C   0  0  0  0  0  0  0  0  0  0  0  0
   -4.3490   -5.0817    1.0894 C   0  0  0  0  0  0  0  0  0  0  0  0
   -5.6920   -4.8732    1.0986 C   0  0  0  0  0  0  0  0  0  0  0  0
   -6.1227   -3.8008    0.3686 C   0  0  0  0  0  0  0  0  0  0  0  0
   -6.4306   -2.1478   -1.0112 C   0  0  0  0  0  0  0  0  0  0  0  0
   -7.4489   -3.4736    0.2677 N   0  0  0  0  0  0  0  0  0  0  0  0
   -7.6811   -2.5336   -0.6298 N   0  0  0  0  0  0  0  0  0  0  0  0
   -1.5412   -5.9517    0.1994 C   0  0  0  0  0  0  0  0  0  0  0  0
   -0.1790   -6.0617    0.2028 N   0  0  0  0  0  0  0  0  0  0  0  0
   -2.2136   -6.9719    0.2918 O   0  0  0  0  0  0  0  0  0  0  0  0
    1.8701    2.4189   -0.3115 S   0  0  0  0  0  0  0  0  0  0  0  0
    1.5905    2.9584   -1.6437 O   0  0  0  0  0  0  0  0  0  0  0  0
    1.8668    3.2556    0.8459 O   0  0  0  0  0  0  0  0  0  0  0  0
    3.4562    1.8240   -0.4592 N   0  0  0  0  0  0  0  0  0  0  0  0
    2.2055   -0.5457    0.0228 H   0  0  0  0  0  0  0  0  0  0  0  0
    0.5581   -2.3570   -0.0593 H   0  0  0  0  0  0  0  0  0  0  0  0
   -2.7217    0.4970   -0.0808 H   0  0  0  0  0  0  0  0  0  0  0  0
   -0.9848    2.2783    0.0692 H   0  0  0  0  0  0  0  0  0  0  0  0
   -3.9733   -5.9332    1.6490 H   0  0  0  0  0  0  0  0  0  0  0  0
   -6.3653   -5.5480    1.6149 H   0  0  0  0  0  0  0  0  0  0  0  0
   -6.5236   -1.4256   -1.8149 H   0  0  0  0  0  0  0  0  0  0  0  0
   -8.2120   -3.9114    0.7911 H   0  0  0  0  0  0  0  0  0  0  0  0
    0.2038   -6.9969    0.2343 H   0  0  0  0  0  0  0  0  0  0  0  0
    0.4183   -5.2559    0.1192 H   0  0  0  0  0  0  0  0  0  0  0  0
    3.5843    1.2904   -1.3181 H   0  0  0  0  0  0  0  0  0  0  0  0
    4.0910    2.6374   -0.4984 H   0  0  0  0  0  0  0  0  0  0  0  0
  1  2  2  0  0  0  0
  1  6  1  0  0  0  0
  1 26  1  0  0  0  0
  2  3  1  0  0  0  0
  2 27  1  0  0  0  0
  3  4  2  0  0  0  0
  3  7  1  0  0  0  0
  4  5  1  0  0  0  0
  4 28  1  0  0  0  0
  5  6  2  0  0  0  0
  5 29  1  0  0  0  0
  6 22  1  0  0  0  0
  7  8  1  0  0  0  0
  7 11  1  0  0  0  0
  8  9  2  0  0  0  0
  8 12  1  0  0  0  0
  9 10  1  0  0  0  0
  9 13  1  0  0  0  0
 10 11  2  0  0  0  0
 10 19  1  0  0  0  0
 12 15  2  0  0  0  0
 12 16  1  0  0  0  0
 13 14  2  0  0  0  0
 13 30  1  0  0  0  0
 14 15  1  0  0  0  0
 14 31  1  0  0  0  0
 15 17  1  0  0  0  0
 16 18  2  0  0  0  0
 16 32  1  0  0  0  0
 17 18  1  0  0  0  0
 17 33  1  0  0  0  0
 19 20  1  0  0  0  0
 19 21  2  0  0  0  0
 20 34  1  0  0  0  0
 20 35  1  0  0  0  0
 22 23  2  0  0  0  0
 22 24  2  0  0  0  0
 22 25  1  0  0  0  0
 25 36  1  0  0  0  0
 25 37  1  0  0  0  0
M  END
>  <DRUGBANK_ID>
DB08527

>  <COMMON_NAME>
1-[4-(AMINOSULFONYL)PHENYL]-1,6-DIHYDROPYRAZOLO[3,4-E]INDAZOLE-3-CARBOXAMIDE

$$$$
