847
 OpenBabel10282417113D

 11 10  0  0  0  0  0  0  0  0999 V2000
    1.0044   -0.0197   -0.0492 S   0  0  0  0  0  0  0  0  0  0  0  0
    2.4954   -0.6161    2.7491 N   0  0  0  0  0  0  0  0  0  0  0  0
    1.0321   -0.5915    2.6829 C   0  0  0  0  0  0  0  0  0  0  0  0
    0.5027    0.4103    1.6502 C   0  0  0  0  0  0  0  0  0  0  0  0
    2.3239    0.1145    0.1477 H   0  0  0  0  0  0  0  0  0  0  0  0
    2.7871   -1.3233    3.4252 H   0  0  0  0  0  0  0  0  0  0  0  0
    2.8620   -0.9302    1.8524 H   0  0  0  0  0  0  0  0  0  0  0  0
    0.6461   -0.3171    3.6708 H   0  0  0  0  0  0  0  0  0  0  0  0
    0.6596   -1.5988    2.4622 H   0  0  0  0  0  0  0  0  0  0  0  0
    0.8596    1.4204    1.8780 H   0  0  0  0  0  0  0  0  0  0  0  0
   -0.5913    0.4279    1.6841 H   0  0  0  0  0  0  0  0  0  0  0  0
  1  4  1  0  0  0  0
  1  5  1  0  0  0  0
  2  3  1  0  0  0  0
  2  6  1  0  0  0  0
  2  7  1  0  0  0  0
  3  4  1  0  0  0  0
  3  8  1  0  0  0  0
  3  9  1  0  0  0  0
  4 10  1  0  0  0  0
  4 11  1  0  0  0  0
M  END
>  <DRUGBANK_ID>
DB00847

>  <SECONDARY_ACCESSION_NUMBERS>
APRD00896

>  <COMMON_NAME>
Cysteamine

>  <CAS_NUMBER>
60-23-1

>  <UNII>
5UX2SD1KE2

>  <SYNONYMS>
2-amino-1-ethanethiol; 2-amino-ethanethiol; 2-aminoethanethiol; beta-aminoethanethiol; beta-Mercaptoethylamine; Cysteamine; MEA; Mercaptamina; Mercaptamine; Mercaptaminum; Thioethanolamine; β-aminoethylthiol; β-MEA

$$$$
