6EA
 OpenBabel10282417163D

 51 55  0  0  0  0  0  0  0  0999 V2000
   -1.7486   -0.2175    0.0835 N   0  0  0  0  0  0  0  0  0  0  0  0
   -1.3051    0.9570   -0.0034 C   0  0  0  0  0  0  0  0  0  0  0  0
   -0.0758    0.5915   -0.2319 C   0  0  0  0  0  0  0  0  0  0  0  0
    1.0839   -0.8719   -0.2345 C   0  0  0  0  0  0  0  0  0  0  0  0
    0.4562   -1.9135   -0.0006 C   0  0  0  0  0  0  0  0  0  0  0  0
   -0.8404   -1.4768    0.0569 C   0  0  0  0  0  0  0  0  0  0  0  0
    2.8804   -1.0981    0.5780 C   0  0  0  0  0  0  0  0  0  0  0  0
    3.3723    0.3883    1.4260 C   0  0  0  0  0  0  0  0  0  0  0  0
    5.3741    1.2124    0.7648 C   0  0  0  0  0  0  0  0  0  0  0  0
    5.5381    0.3339   -0.9257 C   0  0  0  0  0  0  0  0  0  0  0  0
    5.4370   -1.0303   -1.1123 C   0  0  0  0  0  0  0  0  0  0  0  0
    4.1062   -1.7028   -0.3780 N   0  0  0  0  0  0  0  0  0  0  0  0
    4.1432   -0.0318   -1.9946 C   0  0  0  0  0  0  0  0  0  0  0  0
    3.9108   -1.2801   -3.0660 C   0  0  0  0  0  0  0  0  0  0  0  0
    5.0843   -1.8076   -3.3494 N   0  0  0  0  0  0  0  0  0  0  0  0
    5.9356   -1.3722   -2.4006 C   0  0  0  0  0  0  0  0  0  0  0  0
    2.7009    0.1090   -1.5038 O   0  0  0  0  0  0  0  0  0  0  0  0
    1.8956    0.8610   -0.0449 C   0  0  0  0  0  0  0  0  0  0  0  0
    1.6150    1.8158   -0.9614 C   0  0  1  0  0  0  0  0  0  0  0  0
    0.9906    1.0689   -2.1690 N   0  0  0  0  0  0  0  0  0  0  0  0
    1.2672    2.3330    0.9052 C   0  0  0  0  0  0  0  0  0  0  0  0
    2.9227    2.7598    1.5524 C   0  0  0  0  0  0  0  0  0  0  0  0
    3.7155    2.5521    0.4016 C   0  0  0  0  0  0  0  0  0  0  0  0
    4.0484    0.8739    0.1153 N   0  0  0  0  0  0  0  0  0  0  0  0
    4.7668    0.6072    2.1538 C   0  0  0  0  0  0  0  0  0  0  0  0
    3.9211    1.9843    2.7317 C   0  0  0  0  0  0  0  0  0  0  0  0
    5.3505   -0.4646    2.7371 C   0  0  0  0  0  0  0  0  0  0  0  0
    5.0424   -0.1265    4.0371 C   0  0  0  0  0  0  0  0  0  0  0  0
    4.2064    0.9482    4.6636 C   0  0  0  0  0  0  0  0  0  0  0  0
    3.5600    1.9951    4.0558 C   0  0  0  0  0  0  0  0  0  0  0  0
    2.3381    2.3130   -1.5330 H   0  0  0  0  0  0  0  0  0  0  0  0
   -1.5843    2.0237   -0.0009 H   0  0  0  0  0  0  0  0  0  0  0  0
    0.0397    1.9093   -0.5499 H   0  0  0  0  0  0  0  0  0  0  0  0
    1.2162   -2.6355    0.0366 H   0  0  0  0  0  0  0  0  0  0  0  0
   -1.4558   -2.3090    0.0632 H   0  0  0  0  0  0  0  0  0  0  0  0
    2.5902    0.7244    2.1914 H   0  0  0  0  0  0  0  0  0  0  0  0
    6.1041    1.5857    1.5845 H   0  0  0  0  0  0  0  0  0  0  0  0
    3.0656   -1.8769   -3.5948 H   0  0  0  0  0  0  0  0  0  0  0  0
    6.9812   -1.1187   -2.4322 H   0  0  0  0  0  0  0  0  0  0  0  0
    1.5033    0.0154    1.1714 H   0  0  0  0  0  0  0  0  0  0  0  0
    2.6437    0.3887   -0.1079 H   0  0  0  0  0  0  0  0  0  0  0  0
    0.1165    1.4824   -2.3000 H   0  0  0  0  0  0  0  0  0  0  0  0
    1.4820    0.1956   -2.4799 H   0  0  0  0  0  0  0  0  0  0  0  0
    0.4847    3.0838    0.8071 H   0  0  0  0  0  0  0  0  0  0  0  0
    0.7288    1.5033    1.6539 H   0  0  0  0  0  0  0  0  0  0  0  0
    2.9588    2.7559   -0.2419 H   0  0  0  0  0  0  0  0  0  0  0  0
    4.4202   -0.1888    0.2090 H   0  0  0  0  0  0  0  0  0  0  0  0
    5.9498   -1.0532    2.0861 H   0  0  0  0  0  0  0  0  0  0  0  0
    5.5821   -0.7466    4.7067 H   0  0  0  0  0  0  0  0  0  0  0  0
    4.1933    0.9753    5.7354 H   0  0  0  0  0  0  0  0  0  0  0  0
    2.9777    2.8388    4.4249 H   0  0  0  0  0  0  0  0  0  0  0  0
  1  2  1  0  0  0  0
  1  6  2  0  0  0  0
  2  3  2  0  0  0  0
  2 32  1  0  0  0  0
  3  4  1  0  0  0  0
  3 33  1  0  0  0  0
  4  5  2  0  0  0  0
  4  7  1  0  0  0  0
  5  6  1  0  0  0  0
  5 34  1  0  0  0  0
  6 35  1  0  0  0  0
  7  8  1  0  0  0  0
  7 12  2  0  0  0  0
  8  9  2  0  0  0  0
  8 36  1  0  0  0  0
  9 10  1  0  0  0  0
  9 37  1  0  0  0  0
 10 11  1  0  0  0  0
 10 13  2  0  0  0  0
 11 12  1  0  0  0  0
 11 16  2  0  0  0  0
 13 14  1  0  0  0  0
 13 17  1  0  0  0  0
 14 15  2  0  0  0  0
 14 38  1  0  0  0  0
 15 16  1  0  0  0  0
 16 39  1  0  0  0  0
 17 18  1  0  0  0  0
 18 19  1  0  0  0  0
 18 40  1  0  0  0  0
 18 41  1  0  0  0  0
 19 20  1  0  0  0  0
 19 21  1  0  0  0  0
 19 31  1  6  0  0  0
 20 42  1  0  0  0  0
 20 43  1  0  0  0  0
 21 22  1  0  0  0  0
 21 44  1  0  0  0  0
 21 45  1  0  0  0  0
 22 23  2  0  0  0  0
 22 26  1  0  0  0  0
 23 24  1  0  0  0  0
 23 46  1  0  0  0  0
 24 25  1  0  0  0  0
 24 47  1  0  0  0  0
 25 26  2  0  0  0  0
 25 27  1  0  0  0  0
 26 30  1  0  0  0  0
 27 28  2  0  0  0  0
 27 48  1  0  0  0  0
 28 29  1  0  0  0  0
 28 49  1  0  0  0  0
 29 30  2  0  0  0  0
 29 50  1  0  0  0  0
 30 51  1  0  0  0  0
M  END
>  <DRUGBANK_ID>
DB07204

>  <COMMON_NAME>
(1S)-1-(1H-INDOL-3-YLMETHYL)-2-(2-PYRIDIN-4-YL-[1,7]NAPHTYRIDIN-5-YLOXY)-EHYLAMINE

$$$$
