
 OpenBabel10282417213D

 35 37  0  0  0  0  0  0  0  0999 V2000
   -0.7934   -0.5136    0.0188 C   0  0  0  0  0  0  0  0  0  0  0  0
   -0.5624    0.8427   -0.0234 C   0  0  0  0  0  0  0  0  0  0  0  0
   -2.1976   -0.7248    0.1072 C   0  0  0  0  0  0  0  0  0  0  0  0
    0.3565   -1.3808    0.0007 C   0  0  0  0  0  0  0  0  0  0  0  0
   -1.7702    1.4769   -0.0249 N   0  0  0  0  0  0  0  0  0  0  0  0
    0.6280    1.4860   -0.0373 N   0  0  0  0  0  0  0  0  0  0  0  0
   -2.7714    0.5402    0.0632 C   0  0  0  0  0  0  0  0  0  0  0  0
   -2.9077   -2.0343    0.1969 C   0  0  0  0  0  0  0  0  0  0  0  0
    1.5517   -0.6910    0.0017 N   0  0  0  0  0  0  0  0  0  0  0  0
    0.3080   -2.6104   -0.0068 O   0  0  0  0  0  0  0  0  0  0  0  0
    1.6567    0.6838   -0.0118 C   0  0  0  0  0  0  0  0  0  0  0  0
   -3.5883   -2.1190    1.4751 N   0  0  0  0  0  0  0  0  0  0  0  0
    2.9148    1.1817    0.0019 N   0  0  0  0  0  0  0  0  0  0  0  0
   -4.5953   -3.1620    1.5550 C   0  0  2  0  0  0  0  0  0  0  0  0
   -4.7855   -3.8129    2.9620 C   0  0  2  0  0  0  0  0  0  0  0  0
   -4.5859   -4.3542    0.6394 C   0  0  0  0  0  0  0  0  0  0  0  0
   -4.4537   -5.3195    2.7651 C   0  0  2  0  0  0  0  0  0  0  0  0
   -6.1388   -3.5874    3.3876 O   0  0  0  0  0  0  0  0  0  0  0  0
   -4.6102   -5.5188    1.2977 C   0  0  0  0  0  0  0  0  0  0  0  0
   -5.2945   -6.2062    3.4778 O   0  0  0  0  0  0  0  0  0  0  0  0
   -1.8898    2.4795   -0.0584 H   0  0  0  0  0  0  0  0  0  0  0  0
   -3.8093    0.8454    0.1010 H   0  0  0  0  0  0  0  0  0  0  0  0
   -3.6281   -2.0773   -0.6276 H   0  0  0  0  0  0  0  0  0  0  0  0
   -2.2131   -2.8719    0.0976 H   0  0  0  0  0  0  0  0  0  0  0  0
    2.3791   -1.2600    0.0006 H   0  0  0  0  0  0  0  0  0  0  0  0
   -2.9540   -2.0544    2.2650 H   0  0  0  0  0  0  0  0  0  0  0  0
    3.0069    2.1799    0.1489 H   0  0  0  0  0  0  0  0  0  0  0  0
    3.7226    0.6089    0.1918 H   0  0  0  0  0  0  0  0  0  0  0  0
   -5.5146   -2.6344    1.2814 H   0  0  0  0  0  0  0  0  0  0  0  0
   -4.1339   -3.3923    3.7373 H   0  0  0  0  0  0  0  0  0  0  0  0
   -4.7320   -4.2753   -0.4294 H   0  0  0  0  0  0  0  0  0  0  0  0
   -3.4139   -5.5302    3.0424 H   0  0  0  0  0  0  0  0  0  0  0  0
   -6.4048   -2.7224    3.0316 H   0  0  0  0  0  0  0  0  0  0  0  0
   -4.7493   -6.4840    0.8314 H   0  0  0  0  0  0  0  0  0  0  0  0
   -4.9267   -7.0973    3.3630 H   0  0  0  0  0  0  0  0  0  0  0  0
  1  2  2  0  0  0  0
  1  3  1  0  0  0  0
  1  4  1  0  0  0  0
  2  5  1  0  0  0  0
  2  6  1  0  0  0  0
  3  7  2  0  0  0  0
  3  8  1  0  0  0  0
  4  9  1  0  0  0  0
  4 10  2  0  0  0  0
  5  7  1  0  0  0  0
  5 21  1  0  0  0  0
  6 11  2  0  0  0  0
  7 22  1  0  0  0  0
  8 12  1  0  0  0  0
  8 23  1  0  0  0  0
  8 24  1  0  0  0  0
  9 11  1  0  0  0  0
  9 25  1  0  0  0  0
 11 13  1  0  0  0  0
 12 26  1  0  0  0  0
 13 27  1  0  0  0  0
 13 28  1  0  0  0  0
 14 12  1  0  0  0  0
 14 15  1  0  0  0  0
 14 16  1  0  0  0  0
 14 29  1  6  0  0  0
 15 17  1  0  0  0  0
 15 30  1  1  0  0  0
 15 18  1  0  0  0  0
 16 19  2  0  0  0  0
 16 31  1  0  0  0  0
 17 19  1  0  0  0  0
 17 32  1  1  0  0  0
 17 20  1  0  0  0  0
 18 33  1  0  0  0  0
 19 34  1  0  0  0  0
 20 35  1  0  0  0  0
M  END
>  <DRUGBANK_ID>
DB14732

>  <COMMON_NAME>
Queuine

>  <CAS_NUMBER>
72496-59-4

>  <UNII>
DAK6EYX2BZ

>  <SYNONYMS>
7-(3,4-trans-4,5-cis-dihydroxy-1-cyclopenten-3-ylaminomethyl)-7-deazaguanine; Base Q; Q Base

$$$$
