
 OpenBabel10282417193D

 53 56  0  0  0  0  0  0  0  0999 V2000
    2.5739    0.2371   -0.1481 C   0  0  0  0  0  0  0  0  0  0  0  0
    3.5514   -1.8339    2.4282 C   0  0  0  0  0  0  0  0  0  0  0  0
    1.2288   -1.6191    3.1140 C   0  0  0  0  0  0  0  0  0  0  0  0
   -1.7222    0.5103    0.0817 C   0  0  0  0  0  0  0  0  0  0  0  0
    3.9621   -1.1339    3.5477 C   0  0  0  0  0  0  0  0  0  0  0  0
    1.6410   -1.0177    4.2969 C   0  0  0  0  0  0  0  0  0  0  0  0
    1.6886   -4.3615   -0.5855 C   0  0  0  0  0  0  0  0  0  0  0  0
    0.0444   -3.3508   -2.2296 C   0  0  0  0  0  0  0  0  0  0  0  0
   -1.0152   -0.6562    0.2443 C   0  0  0  0  0  0  0  0  0  0  0  0
    2.2676   -4.0117    0.6308 C   0  0  0  0  0  0  0  0  0  0  0  0
   -1.4153   -3.6762   -1.9928 C   0  0  0  0  0  0  0  0  0  0  0  0
    4.2043    1.5870    6.8466 C   0  0  0  0  0  0  0  0  0  0  0  0
    4.1447    1.1509    5.5454 C   0  0  0  0  0  0  0  0  0  0  0  0
    0.3818    1.5437   -0.0414 C   0  0  0  0  0  0  0  0  0  0  0  0
    3.0898   -0.2308    6.9035 C   0  0  0  0  0  0  0  0  0  0  0  0
    1.0786    0.2756   -0.0826 C   0  0  0  0  0  0  0  0  0  0  0  0
    2.1846   -2.0573    2.1960 C   0  0  0  0  0  0  0  0  0  0  0  0
   -1.0289    1.6570   -0.0240 C   0  0  0  0  0  0  0  0  0  0  0  0
    3.0017   -0.7544    4.4836 C   0  0  0  0  0  0  0  0  0  0  0  0
    0.8736   -3.3082   -0.9799 C   0  0  0  0  0  0  0  0  0  0  0  0
    0.3411   -0.9007   -0.0206 C   0  0  0  0  0  0  0  0  0  0  0  0
    1.8128   -2.7488    0.9749 C   0  0  0  0  0  0  0  0  0  0  0  0
   -2.0241   -2.7783   -1.0243 C   0  0  0  0  0  0  0  0  0  0  0  0
   -1.8499    2.8826    0.0027 C   0  0  0  0  0  0  0  0  0  0  0  0
   -3.2271    2.7758    0.0187 N   0  0  0  0  0  0  0  0  0  0  0  0
    3.5685    0.7100    7.6879 N   0  0  0  0  0  0  0  0  0  0  0  0
    3.4034   -0.0016    5.5905 N   0  0  0  0  0  0  0  0  0  0  0  0
    0.9734   -2.2471   -0.0325 N   0  0  0  0  0  0  0  0  0  0  0  0
   -2.6540   -1.7825   -1.3520 O   0  0  0  0  0  0  0  0  0  0  0  0
   -1.7464   -3.2686    0.2334 O   0  0  0  0  0  0  0  0  0  0  0  0
   -1.2923    3.9899    0.0280 O   0  0  0  0  0  0  0  0  0  0  0  0
    2.9745   -0.2200    0.7463 H   0  0  0  0  0  0  0  0  0  0  0  0
    2.9184   -0.3440   -1.0085 H   0  0  0  0  0  0  0  0  0  0  0  0
    3.0089    1.2340   -0.1631 H   0  0  0  0  0  0  0  0  0  0  0  0
    4.2866   -2.1227    1.6780 H   0  0  0  0  0  0  0  0  0  0  0  0
    0.1671   -1.7160    2.9099 H   0  0  0  0  0  0  0  0  0  0  0  0
   -2.8043    0.4139    0.1172 H   0  0  0  0  0  0  0  0  0  0  0  0
    5.0180   -0.9192    3.6853 H   0  0  0  0  0  0  0  0  0  0  0  0
    0.8934   -0.6852    5.0124 H   0  0  0  0  0  0  0  0  0  0  0  0
    1.8285   -5.3048   -1.1093 H   0  0  0  0  0  0  0  0  0  0  0  0
    0.2115   -2.4385   -2.8077 H   0  0  0  0  0  0  0  0  0  0  0  0
    0.3988   -4.1804   -2.8639 H   0  0  0  0  0  0  0  0  0  0  0  0
   -1.8087   -1.2730    0.6084 H   0  0  0  0  0  0  0  0  0  0  0  0
    2.9368   -4.6281    1.2235 H   0  0  0  0  0  0  0  0  0  0  0  0
   -1.9986   -3.5739   -2.9082 H   0  0  0  0  0  0  0  0  0  0  0  0
   -1.5998   -4.6568   -1.5465 H   0  0  0  0  0  0  0  0  0  0  0  0
    4.6599    2.4959    7.2154 H   0  0  0  0  0  0  0  0  0  0  0  0
    4.4773    1.5888    4.6144 H   0  0  0  0  0  0  0  0  0  0  0  0
    0.9604    2.4608   -0.0149 H   0  0  0  0  0  0  0  0  0  0  0  0
    2.5555   -1.1154    7.2250 H   0  0  0  0  0  0  0  0  0  0  0  0
   -3.7816    3.6181    0.0149 H   0  0  0  0  0  0  0  0  0  0  0  0
   -3.7745    1.9232   -0.0389 H   0  0  0  0  0  0  0  0  0  0  0  0
   -1.2670   -2.7417    0.9151 H   0  0  0  0  0  0  0  0  0  0  0  0
  1 32  1  0  0  0  0
  1 33  1  0  0  0  0
  1 34  1  0  0  0  0
  2 35  1  0  0  0  0
  3 36  1  0  0  0  0
  4 37  1  0  0  0  0
  5  2  1  0  0  0  0
  5 38  1  0  0  0  0
  6  3  2  0  0  0  0
  6 39  1  0  0  0  0
  7 40  1  0  0  0  0
  8 41  1  0  0  0  0
  8 42  1  0  0  0  0
  9  4  1  0  0  0  0
  9 43  1  0  0  0  0
 10  7  1  0  0  0  0
 10 44  1  0  0  0  0
 11  8  1  0  0  0  0
 11 45  1  0  0  0  0
 11 46  1  0  0  0  0
 12 47  1  0  0  0  0
 13 12  2  0  0  0  0
 13 48  1  0  0  0  0
 14 49  1  0  0  0  0
 15 50  1  0  0  0  0
 16  1  1  0  0  0  0
 16 14  2  0  0  0  0
 17  2  2  0  0  0  0
 17  3  1  0  0  0  0
 18  4  2  0  0  0  0
 18 14  1  0  0  0  0
 19  5  2  0  0  0  0
 19  6  1  0  0  0  0
 20  7  2  0  0  0  0
 20  8  1  0  0  0  0
 21  9  2  0  0  0  0
 21 16  1  0  0  0  0
 22 10  2  0  0  0  0
 22 17  1  0  0  0  0
 23 11  1  0  0  0  0
 24 18  1  0  0  0  0
 25 24  1  0  0  0  0
 25 51  1  0  0  0  0
 25 52  1  0  0  0  0
 26 12  1  0  0  0  0
 26 15  2  0  0  0  0
 27 13  1  0  0  0  0
 27 15  1  0  0  0  0
 27 19  1  0  0  0  0
 28 20  1  0  0  0  0
 28 21  1  0  0  0  0
 28 22  1  0  0  0  0
 29 23  2  0  0  0  0
 30 23  1  0  0  0  0
 30 53  1  0  0  0  0
 31 24  2  0  0  0  0
M  END
>  <DRUGBANK_ID>
DB12206

>  <COMMON_NAME>
N-6022

>  <CAS_NUMBER>
1208315-24-5

>  <UNII>
80LIU5P95D

$$$$
