
 OpenBabel10282417133D

 18 18  0  0  0  0  0  0  0  0999 V2000
    1.0709   -0.0584    0.0394 C   0  0  0  0  0  0  0  0  0  0  0  0
   -0.1900   -0.0584    0.0394 N   0  0  0  0  0  0  0  0  0  0  0  0
    2.5909   -0.0584    0.0394 C   0  0  1  0  0  0  0  0  0  0  0  0
    3.1058    1.1544   -0.5259 O   0  0  0  0  0  0  0  0  0  0  0  0
    3.1178   -0.2483    1.4484 C   0  0  0  0  0  0  0  0  0  0  0  0
    3.1850   -1.5352    2.0132 C   0  0  0  0  0  0  0  0  0  0  0  0
    3.4873    0.8521    2.2395 C   0  0  0  0  0  0  0  0  0  0  0  0
    3.6315   -1.7172    3.3262 C   0  0  0  0  0  0  0  0  0  0  0  0
    3.9350    0.6695    3.5474 C   0  0  0  0  0  0  0  0  0  0  0  0
    4.0095   -0.6096    4.0789 C   0  0  0  0  0  0  0  0  0  0  0  0
    4.4623   -0.7340    5.3587 O   0  0  0  0  0  0  0  0  0  0  0  0
    2.9530   -0.8756   -0.5953 H   0  0  0  0  0  0  0  0  0  0  0  0
    2.6810    1.2713   -1.3923 H   0  0  0  0  0  0  0  0  0  0  0  0
    2.8801   -2.4087    1.4384 H   0  0  0  0  0  0  0  0  0  0  0  0
    3.4274    1.8628    1.8405 H   0  0  0  0  0  0  0  0  0  0  0  0
    3.6706   -2.7190    3.7415 H   0  0  0  0  0  0  0  0  0  0  0  0
    4.2220    1.5277    4.1489 H   0  0  0  0  0  0  0  0  0  0  0  0
    4.4857   -1.6748    5.5943 H   0  0  0  0  0  0  0  0  0  0  0  0
  2  1  3  0  0  0  0
  3  1  1  0  0  0  0
  3  4  1  0  0  0  0
  3 12  1  6  0  0  0
  4 13  1  0  0  0  0
  5  3  1  0  0  0  0
  6  5  2  0  0  0  0
  6 14  1  0  0  0  0
  7  5  1  0  0  0  0
  7 15  1  0  0  0  0
  8  6  1  0  0  0  0
  8 16  1  0  0  0  0
  9  7  2  0  0  0  0
  9 17  1  0  0  0  0
 10  8  2  0  0  0  0
 10  9  1  0  0  0  0
 11 10  1  0  0  0  0
 11 18  1  0  0  0  0
M  END
>  <DRUGBANK_ID>
DB03430

>  <SECONDARY_ACCESSION_NUMBERS>
EXPT01197

>  <COMMON_NAME>
(S)-4-hydroxymandelonitrile

>  <CAS_NUMBER>
71807-09-5

>  <UNII>
9BAR4IH1OD

>  <SYNONYMS>
(2S)-Hydroxy(4-hydroxyphenyl)ethanenitrile; 4-Hydroxy-L-mandelonitrile

$$$$
