
 OpenBabel10282417183D

 50 50  0  0  0  0  0  0  0  0999 V2000
    0.4287    2.3392    0.4004 Si  0  0  0  0  0  0  0  0  0  0  0  0
   -1.0899    1.8513   -0.1268 O   0  0  0  0  0  0  0  0  0  0  0  0
    1.6457    1.4230   -0.3012 O   0  0  0  0  0  0  0  0  0  0  0  0
    0.8100    4.1574    0.3444 C   0  0  0  0  0  0  0  0  0  0  0  0
    0.4066    2.2382    2.2957 C   0  0  0  0  0  0  0  0  0  0  0  0
   -2.3836    1.0338    0.5809 Si  0  0  0  0  0  0  0  0  0  0  0  0
    2.8698    0.3945    0.2127 Si  0  0  0  0  0  0  0  0  0  0  0  0
   -2.7126   -0.3847   -0.2800 O   0  0  0  0  0  0  0  0  0  0  0  0
   -1.9605    0.3664    2.3100 C   0  0  0  0  0  0  0  0  0  0  0  0
   -3.6898    2.1695    1.2401 C   0  0  0  0  0  0  0  0  0  0  0  0
    2.4049   -1.2115   -0.1270 O   0  0  0  0  0  0  0  0  0  0  0  0
    3.1224    0.6825    2.1049 C   0  0  0  0  0  0  0  0  0  0  0  0
    4.5817    0.8352   -0.3588 C   0  0  0  0  0  0  0  0  0  0  0  0
   -1.9519   -1.9107   -0.1783 Si  0  0  0  0  0  0  0  0  0  0  0  0
    1.0862   -2.1020    0.4446 Si  0  0  0  0  0  0  0  0  0  0  0  0
   -0.2980   -1.6936   -0.4061 O   0  0  0  0  0  0  0  0  0  0  0  0
   -2.2304   -2.6684    1.5659 C   0  0  0  0  0  0  0  0  0  0  0  0
   -2.5633   -3.1891   -1.3664 C   0  0  0  0  0  0  0  0  0  0  0  0
    0.9321   -1.4857    2.2011 C   0  0  0  0  0  0  0  0  0  0  0  0
    1.1830   -3.9148    0.7555 C   0  0  0  0  0  0  0  0  0  0  0  0
    0.0877    4.6802    0.9765 H   0  0  0  0  0  0  0  0  0  0  0  0
    1.7969    4.2909    0.8018 H   0  0  0  0  0  0  0  0  0  0  0  0
    0.8155    4.5935   -0.6538 H   0  0  0  0  0  0  0  0  0  0  0  0
    0.3191    1.2066    2.6249 H   0  0  0  0  0  0  0  0  0  0  0  0
    1.2965    2.6441    2.7574 H   0  0  0  0  0  0  0  0  0  0  0  0
   -0.4631    2.7744    2.6708 H   0  0  0  0  0  0  0  0  0  0  0  0
   -1.7022    1.0736    3.0741 H   0  0  0  0  0  0  0  0  0  0  0  0
   -2.7362   -0.2821    2.6888 H   0  0  0  0  0  0  0  0  0  0  0  0
   -1.0763   -0.2351    2.0734 H   0  0  0  0  0  0  0  0  0  0  0  0
   -4.3022    2.6670    0.4896 H   0  0  0  0  0  0  0  0  0  0  0  0
   -4.3287    1.6215    1.9386 H   0  0  0  0  0  0  0  0  0  0  0  0
   -3.1754    2.9351    1.8368 H   0  0  0  0  0  0  0  0  0  0  0  0
    3.8602   -0.0083    2.5077 H   0  0  0  0  0  0  0  0  0  0  0  0
    3.4328    1.7183    2.2567 H   0  0  0  0  0  0  0  0  0  0  0  0
    2.2310    0.5555    2.7066 H   0  0  0  0  0  0  0  0  0  0  0  0
    4.7455    0.6748   -1.4229 H   0  0  0  0  0  0  0  0  0  0  0  0
    4.7793    1.8841   -0.1137 H   0  0  0  0  0  0  0  0  0  0  0  0
    5.2993    0.2311    0.2079 H   0  0  0  0  0  0  0  0  0  0  0  0
   -3.2873   -2.6741    1.8289 H   0  0  0  0  0  0  0  0  0  0  0  0
   -1.8216   -3.6764    1.6307 H   0  0  0  0  0  0  0  0  0  0  0  0
   -1.7300   -2.1140    2.3526 H   0  0  0  0  0  0  0  0  0  0  0  0
   -2.4949   -2.8388   -2.3974 H   0  0  0  0  0  0  0  0  0  0  0  0
   -1.9420   -4.0864   -1.2680 H   0  0  0  0  0  0  0  0  0  0  0  0
   -3.5950   -3.4631   -1.1390 H   0  0  0  0  0  0  0  0  0  0  0  0
    0.1047   -1.7748    2.8319 H   0  0  0  0  0  0  0  0  0  0  0  0
    1.8519   -1.6080    2.7707 H   0  0  0  0  0  0  0  0  0  0  0  0
    0.7876   -0.4494    1.9620 H   0  0  0  0  0  0  0  0  0  0  0  0
    1.4090   -4.5111   -0.1255 H   0  0  0  0  0  0  0  0  0  0  0  0
    1.9061   -4.1135    1.5495 H   0  0  0  0  0  0  0  0  0  0  0  0
    0.2143   -4.2502    1.1423 H   0  0  0  0  0  0  0  0  0  0  0  0
  1  2  1  0  0  0  0
  1  3  1  0  0  0  0
  1  4  1  0  0  0  0
  1  5  1  0  0  0  0
  2  6  1  0  0  0  0
  3  7  1  0  0  0  0
  4 21  1  0  0  0  0
  4 22  1  0  0  0  0
  4 23  1  0  0  0  0
  5 24  1  0  0  0  0
  5 25  1  0  0  0  0
  5 26  1  0  0  0  0
  6  8  1  0  0  0  0
  6  9  1  0  0  0  0
  6 10  1  0  0  0  0
  7 11  1  0  0  0  0
  7 12  1  0  0  0  0
  7 13  1  0  0  0  0
  8 14  1  0  0  0  0
  9 27  1  0  0  0  0
  9 28  1  0  0  0  0
  9 29  1  0  0  0  0
 10 30  1  0  0  0  0
 10 31  1  0  0  0  0
 10 32  1  0  0  0  0
 11 15  1  0  0  0  0
 12 33  1  0  0  0  0
 12 34  1  0  0  0  0
 12 35  1  0  0  0  0
 13 36  1  0  0  0  0
 13 37  1  0  0  0  0
 13 38  1  0  0  0  0
 14 16  1  0  0  0  0
 14 17  1  0  0  0  0
 14 18  1  0  0  0  0
 15 19  1  0  0  0  0
 15 20  1  0  0  0  0
 15 16  1  0  0  0  0
 17 39  1  0  0  0  0
 17 40  1  0  0  0  0
 17 41  1  0  0  0  0
 18 42  1  0  0  0  0
 18 43  1  0  0  0  0
 18 44  1  0  0  0  0
 19 45  1  0  0  0  0
 19 46  1  0  0  0  0
 19 47  1  0  0  0  0
 20 48  1  0  0  0  0
 20 49  1  0  0  0  0
 20 50  1  0  0  0  0
M  END
>  <DRUGBANK_ID>
DB11244

>  <COMMON_NAME>
Cyclomethicone 5

>  <CAS_NUMBER>
541-02-6

>  <UNII>
0THT5PCI0R

>  <SYNONYMS>
Ciclopentasiloxane; Cyclomethicone D5; Cyclopentasiloxane; Decamethylcyclopentasiloxane

$$$$
