
 OpenBabel10282417173D

 51 54  0  0  0  0  0  0  0  0999 V2000
   -0.0924   -0.6750    0.0022 C   0  0  0  0  0  0  0  0  0  0  0  0
   -1.4533   -1.0604   -0.1553 C   0  0  0  0  0  0  0  0  0  0  0  0
   -0.0373    0.7216    0.0151 C   0  0  0  0  0  0  0  0  0  0  0  0
    1.1040   -1.3950    0.0671 C   0  0  0  0  0  0  0  0  0  0  0  0
   -2.0511    0.1386   -0.5639 C   0  0  0  0  0  0  0  0  0  0  0  0
   -2.0107   -2.4985   -0.0721 C   0  0  0  0  0  0  0  0  0  0  0  0
   -1.3175    1.1699   -0.0557 N   0  0  0  0  0  0  0  0  0  0  0  0
    1.1323    1.4592    0.0469 C   0  0  0  0  0  0  0  0  0  0  0  0
    2.2986   -0.6761    0.0212 C   0  0  0  0  0  0  0  0  0  0  0  0
   -2.9472   -2.8619    1.1540 C   0  0  0  0  0  0  0  0  0  0  0  0
    2.3085    0.7221    0.0019 C   0  0  0  0  0  0  0  0  0  0  0  0
   -4.2968   -2.2063    1.2672 N   0  0  0  0  0  0  0  0  0  0  0  0
   -4.0653   -0.7910    1.0499 C   0  0  0  0  0  0  0  0  0  0  0  0
   -5.1980   -2.6627    0.1866 C   0  0  0  0  0  0  0  0  0  0  0  0
   -5.1649    0.2219    0.9160 C   0  0  0  0  0  0  0  0  0  0  0  0
   -6.4520   -1.7676    0.1115 C   0  0  0  0  0  0  0  0  0  0  0  0
   -6.1329   -0.2829   -0.1445 C   0  0  0  0  0  0  0  0  0  0  0  0
   -7.3232    0.5523   -0.1136 N   0  0  0  0  0  0  0  0  0  0  0  0
   -7.7966    1.2271   -1.2095 C   0  0  0  0  0  0  0  0  0  0  0  0
   -9.0071    2.0580   -1.0079 C   0  0  0  0  0  0  0  0  0  0  0  0
   -7.2748    1.1801   -2.3306 O   0  0  0  0  0  0  0  0  0  0  0  0
   -9.1311    2.8937    0.1088 C   0  0  0  0  0  0  0  0  0  0  0  0
   -9.9840    2.0847   -2.0104 C   0  0  0  0  0  0  0  0  0  0  0  0
  -10.2262    3.7561    0.2122 C   0  0  0  0  0  0  0  0  0  0  0  0
  -11.0544    2.9762   -1.9206 C   0  0  0  0  0  0  0  0  0  0  0  0
  -11.1859    3.7966   -0.8005 C   0  0  0  0  0  0  0  0  0  0  0  0
    1.0981   -2.4795    0.0425 H   0  0  0  0  0  0  0  0  0  0  0  0
   -3.0160    0.4143   -0.9672 H   0  0  0  0  0  0  0  0  0  0  0  0
   -2.5174   -2.7498   -1.0087 H   0  0  0  0  0  0  0  0  0  0  0  0
   -1.1619   -3.1941   -0.0062 H   0  0  0  0  0  0  0  0  0  0  0  0
   -1.6199    2.1346   -0.0028 H   0  0  0  0  0  0  0  0  0  0  0  0
    1.1129    2.5425    0.0208 H   0  0  0  0  0  0  0  0  0  0  0  0
    3.2333   -1.2226   -0.0297 H   0  0  0  0  0  0  0  0  0  0  0  0
   -3.1136   -3.9492    1.1618 H   0  0  0  0  0  0  0  0  0  0  0  0
   -2.3960   -2.6579    2.0845 H   0  0  0  0  0  0  0  0  0  0  0  0
    3.2493    1.2558   -0.0655 H   0  0  0  0  0  0  0  0  0  0  0  0
   -3.7895   -0.8625    0.0163 H   0  0  0  0  0  0  0  0  0  0  0  0
   -3.2691   -0.4007    1.6911 H   0  0  0  0  0  0  0  0  0  0  0  0
   -5.4832   -3.7020    0.3740 H   0  0  0  0  0  0  0  0  0  0  0  0
   -4.6997   -2.6449   -0.7937 H   0  0  0  0  0  0  0  0  0  0  0  0
   -4.7334    1.1774    0.5723 H   0  0  0  0  0  0  0  0  0  0  0  0
   -5.6271    0.4051    1.8848 H   0  0  0  0  0  0  0  0  0  0  0  0
   -6.9892   -1.8464    1.0623 H   0  0  0  0  0  0  0  0  0  0  0  0
   -7.1080   -2.1406   -0.6799 H   0  0  0  0  0  0  0  0  0  0  0  0
   -5.6646   -0.1924   -1.1387 H   0  0  0  0  0  0  0  0  0  0  0  0
   -7.8147    0.6179    0.7683 H   0  0  0  0  0  0  0  0  0  0  0  0
   -8.3628    2.9153    0.8756 H   0  0  0  0  0  0  0  0  0  0  0  0
   -9.9018    1.4225   -2.8699 H   0  0  0  0  0  0  0  0  0  0  0  0
  -10.3157    4.4230    1.0663 H   0  0  0  0  0  0  0  0  0  0  0  0
  -11.7726    3.0482   -2.7340 H   0  0  0  0  0  0  0  0  0  0  0  0
  -12.0316    4.4763   -0.7233 H   0  0  0  0  0  0  0  0  0  0  0  0
  1  2  1  0  0  0  0
  1  3  2  0  0  0  0
  1  4  1  0  0  0  0
  2  5  2  0  0  0  0
  2  6  1  0  0  0  0
  3  7  1  0  0  0  0
  3  8  1  0  0  0  0
  4  9  2  0  0  0  0
  4 27  1  0  0  0  0
  5  7  1  0  0  0  0
  5 28  1  0  0  0  0
  6 10  1  0  0  0  0
  6 29  1  0  0  0  0
  6 30  1  0  0  0  0
  7 31  1  0  0  0  0
  8 11  2  0  0  0  0
  8 32  1  0  0  0  0
  9 11  1  0  0  0  0
  9 33  1  0  0  0  0
 10 12  1  0  0  0  0
 10 34  1  0  0  0  0
 10 35  1  0  0  0  0
 11 36  1  0  0  0  0
 12 13  1  0  0  0  0
 12 14  1  0  0  0  0
 13 15  1  0  0  0  0
 13 37  1  0  0  0  0
 13 38  1  0  0  0  0
 14 16  1  0  0  0  0
 14 39  1  0  0  0  0
 14 40  1  0  0  0  0
 15 17  1  0  0  0  0
 15 41  1  0  0  0  0
 15 42  1  0  0  0  0
 16 17  1  0  0  0  0
 16 43  1  0  0  0  0
 16 44  1  0  0  0  0
 17 18  1  0  0  0  0
 17 45  1  0  0  0  0
 18 19  1  0  0  0  0
 18 46  1  0  0  0  0
 19 20  1  0  0  0  0
 19 21  2  0  0  0  0
 20 22  2  0  0  0  0
 20 23  1  0  0  0  0
 22 24  1  0  0  0  0
 22 47  1  0  0  0  0
 23 25  2  0  0  0  0
 23 48  1  0  0  0  0
 24 26  2  0  0  0  0
 24 49  1  0  0  0  0
 25 26  1  0  0  0  0
 25 50  1  0  0  0  0
 26 51  1  0  0  0  0
M  END
>  <DRUGBANK_ID>
DB08950

>  <COMMON_NAME>
Indoramin

>  <CAS_NUMBER>
26844-12-2

>  <UNII>
0Z802HMY7H

>  <SYNONYMS>
Indoramin; Indoramina; Indoramine; Indoraminum

$$$$
