
 OpenBabel10282417123D

 18 17  0  0  1  0  0  0  0  0999 V2000
    1.0077   -0.0715    0.0695 C   0  0  0  0  0  0  0  0  0  0  0  0
    0.3144   -1.8846   -0.6775 Hg  0  0  0  0  0  0  0  0  0  0  0  0
   -0.4756   -3.9506   -1.5287 S   0  0  0  0  0  0  0  0  0  0  0  0
   -1.6501   -3.6407   -2.8706 C   0  0  0  0  0  0  0  0  0  0  0  0
   -2.8216   -2.8296   -2.3415 C   0  0  1  0  0  0  0  0  0  0  0  0
   -2.3316   -1.5481   -1.8135 N   0  0  0  0  0  0  0  0  0  0  0  0
   -3.8078   -2.5693   -3.4684 C   0  0  0  0  0  0  0  0  0  0  0  0
   -5.1444   -3.0376   -3.3645 O   0  0  0  0  0  0  0  0  0  0  0  0
   -3.4363   -1.9327   -4.5037 O   0  0  0  0  0  0  0  0  0  0  0  0
    0.6510    0.0621    1.0695 H   0  0  0  0  0  0  0  0  0  0  0  0
    0.6510    0.7277   -0.5461 H   0  0  0  0  0  0  0  0  0  0  0  0
    2.0777   -0.0715    0.0695 H   0  0  0  0  0  0  0  0  0  0  0  0
   -1.1630   -3.0958   -3.6522 H   0  0  0  0  0  0  0  0  0  0  0  0
   -2.0067   -4.5735   -3.2549 H   0  0  0  0  0  0  0  0  0  0  0  0
   -3.3086   -3.3745   -1.5600 H   0  0  0  0  0  0  0  0  0  0  0  0
   -3.1177   -1.0038   -1.4584 H   0  0  0  0  0  0  0  0  0  0  0  0
   -1.6697   -1.7228   -1.0573 H   0  0  0  0  0  0  0  0  0  0  0  0
   -5.4367   -3.5386   -2.5499 H   0  0  0  0  0  0  0  0  0  0  0  0
  1  2  1  0  0  0  0
  1 10  1  0  0  0  0
  1 11  1  0  0  0  0
  1 12  1  0  0  0  0
  2  3  1  0  0  0  0
  3  4  1  0  0  0  0
  4  5  1  0  0  0  0
  4 13  1  0  0  0  0
  4 14  1  0  0  0  0
  5  6  1  0  0  0  0
  5  7  1  0  0  0  0
  5 15  1  1  0  0  0
  6 16  1  0  0  0  0
  6 17  1  0  0  0  0
  7  8  1  0  0  0  0
  7  9  2  0  0  0  0
  8 18  1  0  0  0  0
M  END
>  <DRUGBANK_ID>
DB02750

>  <SECONDARY_ACCESSION_NUMBERS>
EXPT00956

>  <COMMON_NAME>
S-(Methylmercury)-L-Cysteine

$$$$
