
 OpenBabel10282417133D

 89 90  0  0  0  0  0  0  0  0999 V2000
    2.0721   -0.5515    1.4603 C   0  0  0  0  0  0  0  0  0  0  0  0
    1.0968   -1.6026    1.1474 N   0  0  0  0  0  0  0  0  0  0  0  0
   -0.1973   -1.6390    1.6109 C   0  0  0  0  0  0  0  0  0  0  0  0
   -0.8778   -2.6489    1.4430 O   0  0  0  0  0  0  0  0  0  0  0  0
   -0.6850   -0.5223    2.2556 N   0  0  0  0  0  0  0  0  0  0  0  0
   -0.5334    0.8374    2.0078 C   0  0  0  0  0  0  0  0  0  0  0  0
   -0.7525    1.6435    2.9871 N   0  0  0  0  0  0  0  0  0  0  0  0
   -0.1317    1.3663    0.8123 N   0  0  0  0  0  0  0  0  0  0  0  0
   -0.0112    0.5682   -0.3702 C   0  0  0  0  0  0  0  0  0  0  0  0
   -0.1975    1.1057   -1.7197 C   0  0  0  0  0  0  0  0  0  0  0  0
    0.9036    2.0572   -2.0553 C   0  0  0  0  0  0  0  0  0  0  0  0
    2.4289    1.6790   -1.9505 C   0  0  2  0  0  0  0  0  0  0  0  0
    3.1635    2.8805   -2.4438 N   0  0  0  0  0  0  0  0  0  0  0  0
    2.5477    4.1358   -2.3618 C   0  0  0  0  0  0  0  0  0  0  0  0
    2.0295    4.5419   -1.3181 O   0  0  0  0  0  0  0  0  0  0  0  0
    2.3020    4.8707   -3.7070 C   0  0  1  0  0  0  0  0  0  0  0  0
    2.7048    3.9945   -4.9090 C   0  0  0  0  0  0  0  0  0  0  0  0
    0.8463    5.1579   -3.7788 N   0  0  0  0  0  0  0  0  0  0  0  0
    0.3024    5.4700   -5.0118 C   0  0  0  0  0  0  0  0  0  0  0  0
    0.9565    6.0799   -5.8381 O   0  0  0  0  0  0  0  0  0  0  0  0
   -1.1200    4.9597   -5.2196 C   0  0  0  0  0  0  0  0  0  0  0  0
   -1.4196    4.0677   -6.4743 C   0  0  2  0  0  0  0  0  0  0  0  0
   -1.1512    2.6339   -6.2407 N   0  0  0  0  0  0  0  0  0  0  0  0
   -1.6944    1.6718   -7.0836 C   0  0  0  0  0  0  0  0  0  0  0  0
   -2.0266    1.9288   -8.2420 O   0  0  0  0  0  0  0  0  0  0  0  0
   -1.9395    0.2689   -6.5719 C   0  0  0  0  0  0  0  0  0  0  0  0
   -1.3976    0.0728   -5.1764 C   0  0  2  0  0  0  0  0  0  0  0  0
   -1.0663   -1.3052   -4.8846 N   0  0  0  0  0  0  0  0  0  0  0  0
   -0.2083   -1.4931   -3.8313 C   0  0  0  0  0  0  0  0  0  0  0  0
   -0.7705   -1.8330   -2.7871 O   0  0  0  0  0  0  0  0  0  0  0  0
    1.3407   -1.1384   -3.9643 C   0  0  2  0  0  0  0  0  0  0  0  0
    2.0501   -2.3761   -4.4788 C   0  0  0  0  0  0  0  0  0  0  0  0
    1.9624   -0.7659   -2.7038 N   0  0  0  0  0  0  0  0  0  0  0  0
    1.7435   -1.7632   -1.6754 C   0  0  0  0  0  0  0  0  0  0  0  0
    2.8770    0.2999   -2.6671 C   0  0  0  0  0  0  0  0  0  0  0  0
    3.9711    0.2100   -3.2324 O   0  0  0  0  0  0  0  0  0  0  0  0
   -2.4623    0.6462   -4.2075 C   0  0  0  0  0  0  0  0  0  0  0  0
   -2.6447   -0.0051   -3.0478 O   0  0  0  0  0  0  0  0  0  0  0  0
   -3.0445    1.7025   -4.4302 O   0  0  0  0  0  0  0  0  0  0  0  0
   -0.7250    4.4975   -7.8060 C   0  0  0  0  0  0  0  0  0  0  0  0
   -1.4529    4.1618   -8.9155 O   0  0  0  0  0  0  0  0  0  0  0  0
    0.3659    4.9345   -7.9357 O   0  0  0  0  0  0  0  0  0  0  0  0
    1.4910   -2.7133   -5.8048 C   0  0  0  0  0  0  0  0  0  0  0  0
    0.4189   -3.2676   -8.2621 C   0  0  0  0  0  0  0  0  0  0  0  0
    1.0318   -2.0339   -8.0510 C   0  0  0  0  0  0  0  0  0  0  0  0
    1.5873   -1.7616   -6.8225 C   0  0  0  0  0  0  0  0  0  0  0  0
    0.7909   -3.9083   -5.9773 C   0  0  0  0  0  0  0  0  0  0  0  0
    0.3098   -4.2094   -7.2354 C   0  0  0  0  0  0  0  0  0  0  0  0
    1.7440   -0.0277    2.3443 H   0  0  0  0  0  0  0  0  0  0  0  0
    1.9585    0.0940    0.6412 H   0  0  0  0  0  0  0  0  0  0  0  0
    3.1456   -0.4025    1.2615 H   0  0  0  0  0  0  0  0  0  0  0  0
    1.2163   -2.3656    0.4859 H   0  0  0  0  0  0  0  0  0  0  0  0
   -1.3748   -0.7746    2.9451 H   0  0  0  0  0  0  0  0  0  0  0  0
   -1.0529    1.1328    3.8173 H   0  0  0  0  0  0  0  0  0  0  0  0
    0.5206    2.1423    0.9422 H   0  0  0  0  0  0  0  0  0  0  0  0
    1.0148    0.3574   -0.5342 H   0  0  0  0  0  0  0  0  0  0  0  0
   -0.6043   -0.3325   -0.3014 H   0  0  0  0  0  0  0  0  0  0  0  0
   -0.0662    0.2979   -2.4121 H   0  0  0  0  0  0  0  0  0  0  0  0
   -1.2166    1.4449   -1.8251 H   0  0  0  0  0  0  0  0  0  0  0  0
    0.6922    2.4273   -3.0608 H   0  0  0  0  0  0  0  0  0  0  0  0
    0.7220    2.8422   -1.3241 H   0  0  0  0  0  0  0  0  0  0  0  0
    2.8044    1.6002   -0.9234 H   0  0  0  0  0  0  0  0  0  0  0  0
    3.8925    2.7293   -3.1358 H   0  0  0  0  0  0  0  0  0  0  0  0
    2.8591    5.8166   -3.6636 H   0  0  0  0  0  0  0  0  0  0  0  0
    2.7986    2.9341   -4.6790 H   0  0  0  0  0  0  0  0  0  0  0  0
    1.9705    3.9650   -5.7151 H   0  0  0  0  0  0  0  0  0  0  0  0
    3.6479    4.3500   -5.3246 H   0  0  0  0  0  0  0  0  0  0  0  0
    0.4723    5.7295   -3.0186 H   0  0  0  0  0  0  0  0  0  0  0  0
   -1.4346    4.4307   -4.3048 H   0  0  0  0  0  0  0  0  0  0  0  0
   -1.7412    5.8603   -5.2738 H   0  0  0  0  0  0  0  0  0  0  0  0
   -2.5106    4.1258   -6.6064 H   0  0  0  0  0  0  0  0  0  0  0  0
   -1.1029    2.4401   -5.2522 H   0  0  0  0  0  0  0  0  0  0  0  0
   -3.0248    0.1010   -6.5988 H   0  0  0  0  0  0  0  0  0  0  0  0
   -1.4924   -0.4300   -7.2894 H   0  0  0  0  0  0  0  0  0  0  0  0
   -0.4621    0.6300   -5.0553 H   0  0  0  0  0  0  0  0  0  0  0  0
   -0.8506   -1.8625   -5.7060 H   0  0  0  0  0  0  0  0  0  0  0  0
    1.4582   -0.2602   -4.6106 H   0  0  0  0  0  0  0  0  0  0  0  0
    3.1326   -2.2302   -4.5327 H   0  0  0  0  0  0  0  0  0  0  0  0
    1.8954   -3.2285   -3.8089 H   0  0  0  0  0  0  0  0  0  0  0  0
    2.5705   -1.8955   -0.9890 H   0  0  0  0  0  0  0  0  0  0  0  0
    0.8370   -1.4350   -1.2051 H   0  0  0  0  0  0  0  0  0  0  0  0
    1.3981   -2.7432   -2.0306 H   0  0  0  0  0  0  0  0  0  0  0  0
   -2.0812   -0.8023   -2.8987 H   0  0  0  0  0  0  0  0  0  0  0  0
   -1.9895    3.3453   -8.7725 H   0  0  0  0  0  0  0  0  0  0  0  0
    0.0299   -3.5026   -9.2460 H   0  0  0  0  0  0  0  0  0  0  0  0
    1.1132   -1.2967   -8.8430 H   0  0  0  0  0  0  0  0  0  0  0  0
    2.0693   -0.8011   -6.6437 H   0  0  0  0  0  0  0  0  0  0  0  0
    0.6152   -4.5891   -5.1427 H   0  0  0  0  0  0  0  0  0  0  0  0
   -0.1292   -5.1849   -7.4199 H   0  0  0  0  0  0  0  0  0  0  0  0
  1  2  1  0  0  0  0
  1 49  1  0  0  0  0
  1 50  1  0  0  0  0
  1 51  1  0  0  0  0
  2  3  1  0  0  0  0
  2 52  1  0  0  0  0
  3  4  2  0  0  0  0
  3  5  1  0  0  0  0
  5  6  1  0  0  0  0
  5 53  1  0  0  0  0
  6  7  2  0  0  0  0
  6  8  1  0  0  0  0
  7 54  1  0  0  0  0
  8  9  1  0  0  0  0
  8 55  1  0  0  0  0
  9 10  1  0  0  0  0
  9 56  1  0  0  0  0
  9 57  1  0  0  0  0
 10 11  1  0  0  0  0
 10 58  1  0  0  0  0
 10 59  1  0  0  0  0
 11 60  1  0  0  0  0
 11 61  1  0  0  0  0
 12 11  1  0  0  0  0
 12 13  1  0  0  0  0
 12 35  1  0  0  0  0
 12 62  1  1  0  0  0
 13 14  1  0  0  0  0
 13 63  1  0  0  0  0
 14 15  2  0  0  0  0
 14 16  1  0  0  0  0
 16 18  1  0  0  0  0
 16 64  1  6  0  0  0
 16 17  1  0  0  0  0
 17 65  1  0  0  0  0
 17 66  1  0  0  0  0
 17 67  1  0  0  0  0
 18 19  1  0  0  0  0
 18 68  1  0  0  0  0
 19 20  2  0  0  0  0
 19 21  1  0  0  0  0
 21 22  1  0  0  0  0
 21 69  1  0  0  0  0
 21 70  1  0  0  0  0
 22 23  1  0  0  0  0
 22 71  1  6  0  0  0
 22 40  1  0  0  0  0
 23 24  1  0  0  0  0
 23 72  1  0  0  0  0
 24 25  2  0  0  0  0
 24 26  1  0  0  0  0
 26 27  1  0  0  0  0
 26 73  1  0  0  0  0
 26 74  1  0  0  0  0
 27 28  1  0  0  0  0
 27 75  1  1  0  0  0
 27 37  1  0  0  0  0
 28 29  1  0  0  0  0
 28 76  1  0  0  0  0
 29 30  2  0  0  0  0
 29 31  1  0  0  0  0
 31 32  1  0  0  0  0
 31 33  1  0  0  0  0
 31 77  1  6  0  0  0
 32 43  1  0  0  0  0
 32 78  1  0  0  0  0
 32 79  1  0  0  0  0
 33 34  1  0  0  0  0
 33 35  1  0  0  0  0
 34 80  1  0  0  0  0
 34 81  1  0  0  0  0
 34 82  1  0  0  0  0
 35 36  2  0  0  0  0
 37 38  1  0  0  0  0
 37 39  2  0  0  0  0
 38 83  1  0  0  0  0
 40 41  1  0  0  0  0
 40 42  2  0  0  0  0
 41 84  1  0  0  0  0
 43 46  2  0  0  0  0
 43 47  1  0  0  0  0
 44 45  2  0  0  0  0
 44 48  1  0  0  0  0
 44 85  1  0  0  0  0
 45 46  1  0  0  0  0
 45 86  1  0  0  0  0
 46 87  1  0  0  0  0
 47 48  2  0  0  0  0
 47 88  1  0  0  0  0
 48 89  1  0  0  0  0
M  END
>  <DRUGBANK_ID>
DB03632

>  <SECONDARY_ACCESSION_NUMBERS>
EXPT02754

>  <COMMON_NAME>
Argifin

>  <CAS_NUMBER>
243975-37-3

$$$$
