
 OpenBabel10282417233D

 43 44  0  0  0  0  0  0  0  0999 V2000
   -0.3414    1.3778    0.3381 C   0  0  1  0  0  0  0  0  0  0  0  0
    1.0727    0.9166   -0.2169 C   0  0  2  0  0  0  0  0  0  0  0  0
    1.3602    1.2725   -1.6411 N   0  0  0  0  0  0  0  0  0  0  0  0
    2.7520    1.0440   -2.0165 C   0  0  0  0  0  0  0  0  0  0  0  0
    0.4876    0.6357   -2.6224 C   0  0  0  0  0  0  0  0  0  0  0  0
    1.2872   -0.5704   -0.0203 C   0  0  0  0  0  0  0  0  0  0  0  0
    0.2813   -1.4436    0.1224 C   0  0  0  0  0  0  0  0  0  0  0  0
   -1.1676   -1.0496    0.1665 C   0  0  0  0  0  0  0  0  0  0  0  0
   -1.4728    0.4291   -0.1520 C   0  0  0  0  0  0  0  0  0  0  0  0
   -0.3096    1.1652    1.8904 C   0  0  0  0  0  0  0  0  0  0  0  0
    0.6753    0.8766    2.5484 O   0  0  0  0  0  0  0  0  0  0  0  0
   -1.5351    1.4613    2.4521 O   0  0  0  0  0  0  0  0  0  0  0  0
   -1.5679    1.4961    3.8882 C   0  0  0  0  0  0  0  0  0  0  0  0
   -1.4996    0.0819    4.4217 C   0  0  0  0  0  0  0  0  0  0  0  0
   -0.5528    2.8903    0.0413 C   0  0  0  0  0  0  0  0  0  0  0  0
   -0.7009    3.4511   -1.2407 C   0  0  0  0  0  0  0  0  0  0  0  0
   -0.7390    4.8366   -1.4341 C   0  0  0  0  0  0  0  0  0  0  0  0
   -0.7293    5.6921   -0.3420 C   0  0  0  0  0  0  0  0  0  0  0  0
   -0.6573    5.1676    0.9346 C   0  0  0  0  0  0  0  0  0  0  0  0
   -0.4929    3.8030    1.1076 C   0  0  0  0  0  0  0  0  0  0  0  0
    1.8235    1.4421    0.3973 H   0  0  0  0  0  0  0  0  0  0  0  0
    3.0093   -0.0198   -2.0075 H   0  0  0  0  0  0  0  0  0  0  0  0
    2.9243    1.4142   -3.0330 H   0  0  0  0  0  0  0  0  0  0  0  0
    3.4402    1.5853   -1.3605 H   0  0  0  0  0  0  0  0  0  0  0  0
    0.4821   -0.4532   -2.5522 H   0  0  0  0  0  0  0  0  0  0  0  0
   -0.5369    0.9789   -2.5437 H   0  0  0  0  0  0  0  0  0  0  0  0
    0.7568    0.9315   -3.6387 H   0  0  0  0  0  0  0  0  0  0  0  0
    2.3164   -0.9229   -0.0082 H   0  0  0  0  0  0  0  0  0  0  0  0
    0.5208   -2.5000    0.2144 H   0  0  0  0  0  0  0  0  0  0  0  0
   -1.5359   -1.2735    1.1743 H   0  0  0  0  0  0  0  0  0  0  0  0
   -1.7273   -1.6867   -0.5264 H   0  0  0  0  0  0  0  0  0  0  0  0
   -2.4381    0.7042    0.2906 H   0  0  0  0  0  0  0  0  0  0  0  0
   -1.6845    0.5047   -1.2156 H   0  0  0  0  0  0  0  0  0  0  0  0
   -0.7659    2.1342    4.2814 H   0  0  0  0  0  0  0  0  0  0  0  0
   -2.5152    1.9622    4.1864 H   0  0  0  0  0  0  0  0  0  0  0  0
   -0.5623   -0.4038    4.1371 H   0  0  0  0  0  0  0  0  0  0  0  0
   -1.5743    0.0619    5.5099 H   0  0  0  0  0  0  0  0  0  0  0  0
   -2.3036   -0.5149    3.9813 H   0  0  0  0  0  0  0  0  0  0  0  0
   -0.7187    2.8629   -2.1474 H   0  0  0  0  0  0  0  0  0  0  0  0
   -0.7636    5.2408   -2.4432 H   0  0  0  0  0  0  0  0  0  0  0  0
   -0.7537    6.7660   -0.4797 H   0  0  0  0  0  0  0  0  0  0  0  0
   -0.6907    5.8001    1.8138 H   0  0  0  0  0  0  0  0  0  0  0  0
   -0.2907    3.4859    2.1244 H   0  0  0  0  0  0  0  0  0  0  0  0
  1 15  1  0  0  0  0
  1 10  1  1  0  0  0
  2  1  1  0  0  0  0
  2  3  1  0  0  0  0
  2 21  1  1  0  0  0
  4  3  1  0  0  0  0
  4 22  1  0  0  0  0
  4 23  1  0  0  0  0
  4 24  1  0  0  0  0
  5  3  1  0  0  0  0
  5 25  1  0  0  0  0
  5 26  1  0  0  0  0
  5 27  1  0  0  0  0
  6  2  1  0  0  0  0
  6 28  1  0  0  0  0
  7  6  2  0  0  0  0
  7  8  1  0  0  0  0
  7 29  1  0  0  0  0
  8  9  1  0  0  0  0
  8 30  1  0  0  0  0
  8 31  1  0  0  0  0
  9  1  1  0  0  0  0
  9 32  1  0  0  0  0
  9 33  1  0  0  0  0
 11 10  2  0  0  0  0
 12 10  1  0  0  0  0
 13 12  1  0  0  0  0
 13 34  1  0  0  0  0
 13 35  1  0  0  0  0
 14 13  1  0  0  0  0
 14 36  1  0  0  0  0
 14 37  1  0  0  0  0
 14 38  1  0  0  0  0
 16 15  2  0  0  0  0
 16 39  1  0  0  0  0
 17 16  1  0  0  0  0
 17 40  1  0  0  0  0
 18 17  2  0  0  0  0
 18 19  1  0  0  0  0
 18 41  1  0  0  0  0
 19 20  2  0  0  0  0
 19 42  1  0  0  0  0
 20 15  1  0  0  0  0
 20 43  1  0  0  0  0
M  END
>  <DRUGBANK_ID>
DB16731

>  <COMMON_NAME>
Dextilidine

>  <CAS_NUMBER>
32447-90-8

>  <UNII>
2728MV084C

>  <SYNONYMS>
Dextilidina; Dextilidine; Dextilidinum

$$$$
