
 OpenBabel10282417133D

 21 20  0  0  1  0  0  0  0  0999 V2000
    0.6656   -3.1860   -0.8352 C   0  0  0  0  0  0  0  0  0  0  0  0
    2.4823   -3.0009   -0.7953 S   0  0  0  0  0  0  0  0  0  0  0  0
    2.9633   -3.0969    0.9752 C   0  0  0  0  0  0  0  0  0  0  0  0
    2.4594   -1.9675    1.8741 C   0  0  0  0  0  0  0  0  0  0  0  0
    0.9407   -1.9741    1.9937 C   0  0  2  0  0  0  0  0  0  0  0  0
    0.5348   -1.1560    3.1705 N   0  0  0  0  0  0  0  0  0  0  0  0
    0.3307   -3.6831    2.2308 P   0  0  1  0  0  0  0  0  0  0  0  0
    1.0616   -3.8795    3.6876 O   0  0  0  0  0  0  0  0  0  0  0  0
   -1.0978   -3.1973    2.4993 O   0  0  0  0  0  0  0  0  0  0  0  0
    0.3454   -3.2450   -1.8766 H   0  0  0  0  0  0  0  0  0  0  0  0
    0.1334   -2.3194   -0.4470 H   0  0  0  0  0  0  0  0  0  0  0  0
    0.3269   -4.0951   -0.3329 H   0  0  0  0  0  0  0  0  0  0  0  0
    2.6993   -4.0825    1.3772 H   0  0  0  0  0  0  0  0  0  0  0  0
    4.0594   -3.0766    1.0084 H   0  0  0  0  0  0  0  0  0  0  0  0
    2.9039   -2.1052    2.8721 H   0  0  0  0  0  0  0  0  0  0  0  0
    2.8196   -0.9931    1.5247 H   0  0  0  0  0  0  0  0  0  0  0  0
    0.4999   -1.4647    1.1421 H   0  0  0  0  0  0  0  0  0  0  0  0
   -0.1726   -1.7269    3.6633 H   0  0  0  0  0  0  0  0  0  0  0  0
   -0.0365   -0.3802    2.8269 H   0  0  0  0  0  0  0  0  0  0  0  0
   -0.1293   -4.9718    2.4095 H   0  0  0  0  0  0  0  0  0  0  0  0
    2.0197   -4.0975    3.6838 H   0  0  0  0  0  0  0  0  0  0  0  0
  1  2  1  0  0  0  0
  1 10  1  0  0  0  0
  1 11  1  0  0  0  0
  1 12  1  0  0  0  0
  2  3  1  0  0  0  0
  3  4  1  0  0  0  0
  3 13  1  0  0  0  0
  3 14  1  0  0  0  0
  4 15  1  0  0  0  0
  4 16  1  0  0  0  0
  5  7  1  0  0  0  0
  5 17  1  6  0  0  0
  5  6  1  0  0  0  0
  5  4  1  0  0  0  0
  6 18  1  0  0  0  0
  6 19  1  0  0  0  0
  7  8  1  0  0  0  0
  7  9  2  0  0  0  0
  7 20  1  6  0  0  0
  8 21  1  0  0  0  0
M  END
>  <DRUGBANK_ID>
DB04015

>  <SECONDARY_ACCESSION_NUMBERS>
EXPT02222

>  <COMMON_NAME>
Methionine Phosphinate

$$$$
