
 OpenBabel10282417223D

 42 44  0  0  0  0  0  0  0  0999 V2000
    1.0329    0.0274   -0.0224 C   0  0  0  0  0  0  0  0  0  0  0  0
    0.5459   -0.7321    1.2206 C   0  0  0  0  0  0  0  0  0  0  0  0
   -0.9953   -0.7046    1.2271 C   0  0  0  0  0  0  0  0  0  0  0  0
    1.0085   -2.0809    1.1443 O   0  0  0  0  0  0  0  0  0  0  0  0
    0.9292   -2.7741    2.3333 C   0  0  0  0  0  0  0  0  0  0  0  0
    1.0507   -4.1604    2.2029 C   0  0  0  0  0  0  0  0  0  0  0  0
    0.9462   -5.0249    3.2883 C   0  0  0  0  0  0  0  0  0  0  0  0
    1.2100   -6.4412    3.2176 N   0  0  0  0  0  0  0  0  0  0  0  0
    1.2009   -7.3341    1.7699 S   0  0  0  0  0  0  0  0  0  0  0  0
    2.7273   -8.2296    1.9150 C   0  0  0  0  0  0  0  0  0  0  0  0
    0.1204   -8.2825    1.8555 O   0  0  0  0  0  0  0  0  0  0  0  0
    1.3664   -6.4959    0.5975 O   0  0  0  0  0  0  0  0  0  0  0  0
    0.7267   -4.4436    4.5407 C   0  0  0  0  0  0  0  0  0  0  0  0
    0.5763   -3.0485    4.6752 C   0  0  0  0  0  0  0  0  0  0  0  0
    0.7091   -2.1826    3.5819 C   0  0  0  0  0  0  0  0  0  0  0  0
    0.6585   -0.7536    3.6456 N   0  0  0  0  0  0  0  0  0  0  0  0
    1.0489   -0.0505    2.4999 C   0  0  0  0  0  0  0  0  0  0  0  0
    1.7061    0.9884    2.5107 O   0  0  0  0  0  0  0  0  0  0  0  0
    0.1452   -0.0627    4.7782 C   0  0  0  0  0  0  0  0  0  0  0  0
   -0.9132    0.8597    4.6364 C   0  0  0  0  0  0  0  0  0  0  0  0
   -1.4088    1.5530    5.7498 C   0  0  0  0  0  0  0  0  0  0  0  0
   -0.9171    1.2543    7.0128 C   0  0  0  0  0  0  0  0  0  0  0  0
   -1.3750    1.9171    8.0823 F   0  0  0  0  0  0  0  0  0  0  0  0
    0.0572    0.2832    7.1807 C   0  0  0  0  0  0  0  0  0  0  0  0
    0.6389   -0.3080    6.0603 C   0  0  0  0  0  0  0  0  0  0  0  0
    0.6856    1.0678   -0.0118 H   0  0  0  0  0  0  0  0  0  0  0  0
    0.6727   -0.4388   -0.9477 H   0  0  0  0  0  0  0  0  0  0  0  0
    2.1268    0.0419   -0.0824 H   0  0  0  0  0  0  0  0  0  0  0  0
   -1.3648    0.3225    1.3165 H   0  0  0  0  0  0  0  0  0  0  0  0
   -1.4108   -1.1596    0.3234 H   0  0  0  0  0  0  0  0  0  0  0  0
   -1.4123   -1.2707    2.0675 H   0  0  0  0  0  0  0  0  0  0  0  0
    1.2101   -4.5091    1.1959 H   0  0  0  0  0  0  0  0  0  0  0  0
    0.8526   -6.9929    4.0029 H   0  0  0  0  0  0  0  0  0  0  0  0
    2.6516   -8.9586    2.7217 H   0  0  0  0  0  0  0  0  0  0  0  0
    2.8894   -8.7438    0.9633 H   0  0  0  0  0  0  0  0  0  0  0  0
    3.5452   -7.5264    2.0824 H   0  0  0  0  0  0  0  0  0  0  0  0
    0.6715   -5.0404    5.4498 H   0  0  0  0  0  0  0  0  0  0  0  0
    0.3895   -2.6850    5.6770 H   0  0  0  0  0  0  0  0  0  0  0  0
   -1.4026    1.0230    3.6785 H   0  0  0  0  0  0  0  0  0  0  0  0
   -2.1838    2.3075    5.6477 H   0  0  0  0  0  0  0  0  0  0  0  0
    0.3765    0.0010    8.1773 H   0  0  0  0  0  0  0  0  0  0  0  0
    1.4963   -0.9585    6.1986 H   0  0  0  0  0  0  0  0  0  0  0  0
  1  2  1  0  0  0  0
  1 26  1  0  0  0  0
  1 27  1  0  0  0  0
  1 28  1  0  0  0  0
  2  3  1  0  0  0  0
  2  4  1  0  0  0  0
  2 17  1  0  0  0  0
  3 29  1  0  0  0  0
  3 30  1  0  0  0  0
  3 31  1  0  0  0  0
  4  5  1  0  0  0  0
  5  6  2  0  0  0  0
  5 15  1  0  0  0  0
  6  7  1  0  0  0  0
  6 32  1  0  0  0  0
  7  8  1  0  0  0  0
  7 13  2  0  0  0  0
  8  9  1  0  0  0  0
  8 33  1  0  0  0  0
  9 10  1  0  0  0  0
  9 11  2  0  0  0  0
  9 12  2  0  0  0  0
 10 34  1  0  0  0  0
 10 35  1  0  0  0  0
 10 36  1  0  0  0  0
 13 14  1  0  0  0  0
 13 37  1  0  0  0  0
 14 15  2  0  0  0  0
 14 38  1  0  0  0  0
 15 16  1  0  0  0  0
 16 17  1  0  0  0  0
 16 19  1  0  0  0  0
 17 18  2  0  0  0  0
 19 20  2  0  0  0  0
 19 25  1  0  0  0  0
 20 21  1  0  0  0  0
 20 39  1  0  0  0  0
 21 22  2  0  0  0  0
 21 40  1  0  0  0  0
 22 23  1  0  0  0  0
 22 24  1  0  0  0  0
 24 25  2  0  0  0  0
 24 41  1  0  0  0  0
 25 42  1  0  0  0  0
M  END
>  <DRUGBANK_ID>
DB15024

>  <COMMON_NAME>
Apararenone

>  <CAS_NUMBER>
945966-46-1

>  <UNII>
832663U2NB

>  <SYNONYMS>
Apararenone

$$$$
