
 OpenBabel10282417173D

 31 31  0  0  0  0  0  0  0  0999 V2000
    2.4070    0.0060    0.0170 C   0  0  0  0  0  0  0  0  0  0  0  0
    1.7120    1.2100   -0.0020 C   0  0  0  0  0  0  0  0  0  0  0  0
    0.3210    1.2070   -0.0140 C   0  0  0  0  0  0  0  0  0  0  0  0
   -0.3450   -0.0070    0.0030 C   0  0  0  0  0  0  0  0  0  0  0  0
    0.3290   -1.2190   -0.0190 C   0  0  0  0  0  0  0  0  0  0  0  0
    1.7230   -1.1990    0.0020 C   0  0  0  0  0  0  0  0  0  0  0  0
    3.9265    0.0115    0.0545 C   0  0  0  0  0  0  0  0  0  0  0  0
    4.4050   -0.7012    1.3088 C   0  0  1  0  0  0  0  0  0  0  0  0
    4.3779   -4.6377    1.3142 C   0  0  0  0  0  0  0  0  0  0  0  0
    4.8792   -3.2027    1.3244 C   0  0  0  0  0  0  0  0  0  0  0  0
    3.9202   -2.0889    1.2990 N   0  0  0  0  0  0  0  0  0  0  0  0
    6.1275   -2.9660    1.3548 O   0  0  0  0  0  0  0  0  0  0  0  0
    6.4993    0.7206    1.3582 O   0  0  0  0  0  0  0  0  0  0  0  0
    6.4767   -1.3988    2.5861 O   0  0  0  0  0  0  0  0  0  0  0  0
    6.5371   -1.4026    0.1373 O   0  0  0  0  0  0  0  0  0  0  0  0
    6.0045   -0.6954    1.3482 B   0  5  0  0  0  0  0  0  0  0  0  0
   -2.0820    0.0010    0.0050 Cl  0  0  0  0  0  0  0  0  0  0  0  0
    4.0251   -0.1968    2.1726 H   0  0  0  0  0  0  0  0  0  0  0  0
    2.9184   -2.2790    1.2746 H   0  0  0  0  0  0  0  0  0  0  0  0
    2.2461    2.1372   -0.0074 H   0  0  0  0  0  0  0  0  0  0  0  0
   -0.2250    2.1270   -0.0360 H   0  0  0  0  0  0  0  0  0  0  0  0
   -0.2066   -2.1448   -0.0512 H   0  0  0  0  0  0  0  0  0  0  0  0
    2.2680   -2.1198    0.0066 H   0  0  0  0  0  0  0  0  0  0  0  0
    4.3064   -0.4929   -0.8093 H   0  0  0  0  0  0  0  0  0  0  0  0
    4.2794    1.0216    0.0616 H   0  0  0  0  0  0  0  0  0  0  0  0
    4.7578   -5.1421    0.4505 H   0  0  0  0  0  0  0  0  0  0  0  0
    4.7147   -5.1394    2.1972 H   0  0  0  0  0  0  0  0  0  0  0  0
    3.3082   -4.6416    1.2879 H   0  0  0  0  0  0  0  0  0  0  0  0
    6.1845    1.1896    0.5330 H   0  0  0  0  0  0  0  0  0  0  0  0
    6.1217   -0.9273    3.3933 H   0  0  0  0  0  0  0  0  0  0  0  0
    7.5368   -1.3989    0.1620 H   0  0  0  0  0  0  0  0  0  0  0  0
  1  2  2  0  0  0  0
  1  6  1  0  0  0  0
  1  7  1  0  0  0  0
  2  3  1  0  0  0  0
  2 20  1  0  0  0  0
  3  4  2  0  0  0  0
  3 21  1  0  0  0  0
  4  5  1  0  0  0  0
  4 17  1  0  0  0  0
  5  6  2  0  0  0  0
  5 22  1  0  0  0  0
  6 23  1  0  0  0  0
  7  8  1  0  0  0  0
  7 24  1  0  0  0  0
  7 25  1  0  0  0  0
  8 11  1  0  0  0  0
  8 18  1  1  0  0  0
  9 26  1  0  0  0  0
  9 27  1  0  0  0  0
  9 28  1  0  0  0  0
 10  9  1  0  0  0  0
 10 11  1  0  0  0  0
 10 12  2  0  0  0  0
 13 29  1  0  0  0  0
 14 30  1  0  0  0  0
 15 31  1  0  0  0  0
 16  8  1  0  0  0  0
 16 13  1  0  0  0  0
 16 14  1  0  0  0  0
 16 15  1  0  0  0  0
 19 11  1  0  0  0  0
M  CHG  1  16  -1
M  END
>  <DRUGBANK_ID>
DB08692

>  <COMMON_NAME>
D-1-(4-chlorophenyl)-2-(acetamido)ethane boronic acid

$$$$
