
 OpenBabel10282417233D

 25 25  0  0  0  0  0  0  0  0999 V2000
    1.8349    0.7783    0.0101 C   0  0  0  0  0  0  0  0  0  0  0  0
    0.5684    1.3780    0.0078 C   0  0  0  0  0  0  0  0  0  0  0  0
    1.9131   -0.6197   -0.0058 C   0  0  0  0  0  0  0  0  0  0  0  0
    3.0945    1.6211    0.0375 C   0  0  0  0  0  0  0  0  0  0  0  0
   -0.5876    0.6050    0.0006 C   0  0  0  0  0  0  0  0  0  0  0  0
    0.7482   -1.3938   -0.0105 C   0  0  0  0  0  0  0  0  0  0  0  0
    3.1860    2.5084   -1.2060 C   0  0  0  0  0  0  0  0  0  0  0  0
    3.1551    2.4651    1.3135 C   0  0  0  0  0  0  0  0  0  0  0  0
   -0.5180   -0.7909   -0.0027 C   0  0  0  0  0  0  0  0  0  0  0  0
   -1.7672    1.2929   -0.0001 O   0  0  0  0  0  0  0  0  0  0  0  0
   -1.7512   -1.6419    0.0036 C   0  0  0  0  0  0  0  0  0  0  0  0
    0.4687    2.4609    0.0152 H   0  0  0  0  0  0  0  0  0  0  0  0
    2.8799   -1.1181   -0.0113 H   0  0  0  0  0  0  0  0  0  0  0  0
    3.9703    0.9587    0.0372 H   0  0  0  0  0  0  0  0  0  0  0  0
    0.8416   -2.4783   -0.0174 H   0  0  0  0  0  0  0  0  0  0  0  0
    2.3497    3.2136   -1.2661 H   0  0  0  0  0  0  0  0  0  0  0  0
    4.1116    3.0928   -1.1985 H   0  0  0  0  0  0  0  0  0  0  0  0
    3.1744    1.9024   -2.1189 H   0  0  0  0  0  0  0  0  0  0  0  0
    3.1210    1.8281    2.2046 H   0  0  0  0  0  0  0  0  0  0  0  0
    4.0801    3.0493    1.3497 H   0  0  0  0  0  0  0  0  0  0  0  0
    2.3170    3.1679    1.3776 H   0  0  0  0  0  0  0  0  0  0  0  0
   -2.5041    0.6639   -0.0155 H   0  0  0  0  0  0  0  0  0  0  0  0
   -2.3501   -1.4249    0.8942 H   0  0  0  0  0  0  0  0  0  0  0  0
   -2.3469   -1.4433   -0.8931 H   0  0  0  0  0  0  0  0  0  0  0  0
   -1.5092   -2.7090    0.0167 H   0  0  0  0  0  0  0  0  0  0  0  0
  1  2  2  0  0  0  0
  1  3  1  0  0  0  0
  1  4  1  0  0  0  0
  2  5  1  0  0  0  0
  2 12  1  0  0  0  0
  3  6  2  0  0  0  0
  3 13  1  0  0  0  0
  4  7  1  0  0  0  0
  4  8  1  0  0  0  0
  4 14  1  0  0  0  0
  5  9  2  0  0  0  0
  5 10  1  0  0  0  0
  6  9  1  0  0  0  0
  6 15  1  0  0  0  0
  7 16  1  0  0  0  0
  7 17  1  0  0  0  0
  7 18  1  0  0  0  0
  8 19  1  0  0  0  0
  8 20  1  0  0  0  0
  8 21  1  0  0  0  0
  9 11  1  0  0  0  0
 10 22  1  0  0  0  0
 11 23  1  0  0  0  0
 11 24  1  0  0  0  0
 11 25  1  0  0  0  0
M  END
>  <DRUGBANK_ID>
DB16404

>  <COMMON_NAME>
Carvacrol

>  <CAS_NUMBER>
499-75-2

>  <UNII>
9B1J4V995Q

>  <SYNONYMS>
5-Isopropyl-o-cresol; p-Cymen-2-ol

$$$$
