
 OpenBabel10282417233D

 81 84  0  0  0  0  0  0  0  0999 V2000
    1.4357    0.0778   -0.0213 O   0  0  0  0  0  0  0  0  0  0  0  0
    0.9845    1.1510    0.6358 C   0  0  0  0  0  0  0  0  0  0  0  0
    1.6589    1.7448    1.5078 O   0  0  0  0  0  0  0  0  0  0  0  0
   -0.4435    1.3064    0.4697 C   0  0  0  0  0  0  0  0  0  0  0  0
   -1.1677    1.3921   -0.8481 C   0  0  0  0  0  0  0  0  0  0  0  0
   -0.9976    0.1256   -1.7560 C   0  0  0  0  0  0  0  0  0  0  0  0
   -1.4198   -1.3192   -1.3398 C   0  0  0  0  0  0  0  0  0  0  0  0
   -2.8516   -1.3517   -1.2843 N   0  0  0  0  0  0  0  0  0  0  0  0
   -3.5703   -2.5887   -1.0030 C   0  0  0  0  0  0  0  0  0  0  0  0
   -3.6010   -2.8142    0.5301 C   0  0  0  0  0  0  0  0  0  0  0  0
   -4.3377   -1.7823    1.9038 C   0  0  0  0  0  0  0  0  0  0  0  0
   -4.5642   -2.2729    3.1977 C   0  0  0  0  0  0  0  0  0  0  0  0
   -4.5754   -3.5775    3.5967 O   0  0  0  0  0  0  0  0  0  0  0  0
   -4.5210   -4.6003    2.5928 C   0  0  0  0  0  0  0  0  0  0  0  0
   -5.5865   -4.5518    1.4544 C   0  0  0  0  0  0  0  0  0  0  0  0
   -5.9778   -5.6381    0.7090 C   0  0  0  0  0  0  0  0  0  0  0  0
   -6.8594   -5.4563   -0.4100 C   0  0  0  0  0  0  0  0  0  0  0  0
   -7.1336   -4.1996   -0.9556 C   0  0  0  0  0  0  0  0  0  0  0  0
   -8.0533   -3.6873   -2.0051 C   0  0  0  0  0  0  0  0  0  0  0  0
   -9.1448   -2.7127   -1.4168 C   0  0  0  0  0  0  0  0  0  0  0  0
   -8.7885   -1.3216   -0.8580 C   0  0  0  0  0  0  0  0  0  0  0  0
   -9.0072   -0.1735   -1.6208 C   0  0  0  0  0  0  0  0  0  0  0  0
   -8.6805    1.0978   -1.1226 C   0  0  0  0  0  0  0  0  0  0  0  0
   -8.0427    1.2446    0.1062 C   0  0  0  0  0  0  0  0  0  0  0  0
   -7.8450    0.1254    0.8913 C   0  0  0  0  0  0  0  0  0  0  0  0
   -8.2710   -1.1250    0.4393 C   0  0  0  0  0  0  0  0  0  0  0  0
   -6.4895   -3.1842   -0.4028 C   0  0  0  0  0  0  0  0  0  0  0  0
   -6.0262   -3.3745    0.8554 C   0  0  0  0  0  0  0  0  0  0  0  0
   -4.7814   -1.3287    4.2673 C   0  0  0  0  0  0  0  0  0  0  0  0
   -4.8557    0.0708    4.1128 C   0  0  0  0  0  0  0  0  0  0  0  0
   -4.9583    0.5727    2.8606 C   0  0  0  0  0  0  0  0  0  0  0  0
   -4.8161   -0.3432    1.8089 C   0  0  0  0  0  0  0  0  0  0  0  0
   -3.1997   -0.4802   -0.1927 C   0  0  0  0  0  0  0  0  0  0  0  0
   -2.2788   -0.5906    1.3278 C   0  0  0  0  0  0  0  0  0  0  0  0
   -2.2762    0.5128    2.2091 C   0  0  0  0  0  0  0  0  0  0  0  0
   -1.9166    0.4076    3.5935 C   0  0  0  0  0  0  0  0  0  0  0  0
   -1.7020   -0.8378    4.2038 C   0  0  0  0  0  0  0  0  0  0  0  0
   -1.6232   -1.9066    3.3810 C   0  0  0  0  0  0  0  0  0  0  0  0
   -1.7438   -1.7541    2.0081 C   0  0  0  0  0  0  0  0  0  0  0  0
   -1.8225   -1.1013    5.6587 C   0  0  0  0  0  0  0  0  0  0  0  0
   -2.0294   -2.3850    6.0654 O   0  0  0  0  0  0  0  0  0  0  0  0
   -1.7722   -0.1849    6.4610 O   0  0  0  0  0  0  0  0  0  0  0  0
    2.3586   -0.0432    0.2538 H   0  0  0  0  0  0  0  0  0  0  0  0
   -0.6010    0.3150    0.8383 H   0  0  0  0  0  0  0  0  0  0  0  0
   -0.8197    2.0586    1.1749 H   0  0  0  0  0  0  0  0  0  0  0  0
   -2.2061    1.6736   -0.6395 H   0  0  0  0  0  0  0  0  0  0  0  0
   -0.8476    2.2877   -1.3691 H   0  0  0  0  0  0  0  0  0  0  0  0
   -1.5011    0.3426   -2.7039 H   0  0  0  0  0  0  0  0  0  0  0  0
    0.0653    0.0500   -1.9485 H   0  0  0  0  0  0  0  0  0  0  0  0
   -1.0778   -2.0608   -2.0644 H   0  0  0  0  0  0  0  0  0  0  0  0
   -0.9552   -1.6208   -0.4016 H   0  0  0  0  0  0  0  0  0  0  0  0
   -4.5656   -2.5368   -1.4183 H   0  0  0  0  0  0  0  0  0  0  0  0
   -3.1263   -3.4616   -1.5126 H   0  0  0  0  0  0  0  0  0  0  0  0
   -3.7074   -3.8739    0.6703 H   0  0  0  0  0  0  0  0  0  0  0  0
   -2.5267   -2.9449    0.4756 H   0  0  0  0  0  0  0  0  0  0  0  0
   -3.4566   -4.6437    2.2798 H   0  0  0  0  0  0  0  0  0  0  0  0
   -4.6051   -5.5604    3.1066 H   0  0  0  0  0  0  0  0  0  0  0  0
   -5.6249   -6.6225    0.9890 H   0  0  0  0  0  0  0  0  0  0  0  0
   -7.3181   -6.3245   -0.8508 H   0  0  0  0  0  0  0  0  0  0  0  0
   -7.4549   -3.1456   -2.7570 H   0  0  0  0  0  0  0  0  0  0  0  0
   -8.5068   -4.5512   -2.4826 H   0  0  0  0  0  0  0  0  0  0  0  0
   -9.8503   -2.5479   -2.2370 H   0  0  0  0  0  0  0  0  0  0  0  0
   -9.6886   -3.2363   -0.6235 H   0  0  0  0  0  0  0  0  0  0  0  0
   -9.4636   -0.2552   -2.6023 H   0  0  0  0  0  0  0  0  0  0  0  0
   -8.9433    1.9821   -1.6943 H   0  0  0  0  0  0  0  0  0  0  0  0
   -7.7349    2.2212    0.4684 H   0  0  0  0  0  0  0  0  0  0  0  0
   -7.3681    0.2078    1.8632 H   0  0  0  0  0  0  0  0  0  0  0  0
   -8.0954   -1.9628    1.1100 H   0  0  0  0  0  0  0  0  0  0  0  0
   -6.4813   -2.1687   -0.8155 H   0  0  0  0  0  0  0  0  0  0  0  0
   -5.8852   -2.3632    1.1110 H   0  0  0  0  0  0  0  0  0  0  0  0
   -4.6940   -1.6694    5.2938 H   0  0  0  0  0  0  0  0  0  0  0  0
   -4.6249    0.7707    4.9145 H   0  0  0  0  0  0  0  0  0  0  0  0
   -4.7789    1.6403    2.6549 H   0  0  0  0  0  0  0  0  0  0  0  0
   -4.8124    0.3190    0.9437 H   0  0  0  0  0  0  0  0  0  0  0  0
   -3.3955    0.5185   -0.5654 H   0  0  0  0  0  0  0  0  0  0  0  0
   -4.2780   -0.7346   -0.1992 H   0  0  0  0  0  0  0  0  0  0  0  0
   -2.6675    1.4597    1.8374 H   0  0  0  0  0  0  0  0  0  0  0  0
   -2.0645    1.2843    4.2143 H   0  0  0  0  0  0  0  0  0  0  0  0
   -1.8537   -2.9160    3.7218 H   0  0  0  0  0  0  0  0  0  0  0  0
   -1.7652   -2.8038    1.7636 H   0  0  0  0  0  0  0  0  0  0  0  0
   -2.2356   -3.1050    5.4398 H   0  0  0  0  0  0  0  0  0  0  0  0
  1  2  1  0  0  0  0
  1 43  1  0  0  0  0
  2  3  2  0  0  0  0
  2  4  1  0  0  0  0
  4  5  1  0  0  0  0
  4 44  1  0  0  0  0
  4 45  1  0  0  0  0
  5  6  1  0  0  0  0
  5 46  1  0  0  0  0
  5 47  1  0  0  0  0
  6  7  1  0  0  0  0
  6 48  1  0  0  0  0
  6 49  1  0  0  0  0
  7  8  1  0  0  0  0
  7 50  1  0  0  0  0
  7 51  1  0  0  0  0
  8  9  1  0  0  0  0
  8 33  1  0  0  0  0
  9 10  1  0  0  0  0
  9 52  1  0  0  0  0
  9 53  1  0  0  0  0
 10 11  1  0  0  0  0
 10 54  1  0  0  0  0
 10 55  1  0  0  0  0
 11 12  2  0  0  0  0
 11 32  1  0  0  0  0
 12 13  1  0  0  0  0
 12 29  1  0  0  0  0
 13 14  1  0  0  0  0
 14 15  1  0  0  0  0
 14 56  1  0  0  0  0
 14 57  1  0  0  0  0
 15 16  2  0  0  0  0
 15 28  1  0  0  0  0
 16 17  1  0  0  0  0
 16 58  1  0  0  0  0
 17 18  2  0  0  0  0
 17 59  1  0  0  0  0
 18 19  1  0  0  0  0
 18 27  1  0  0  0  0
 19 20  1  0  0  0  0
 19 60  1  0  0  0  0
 19 61  1  0  0  0  0
 20 21  1  0  0  0  0
 20 62  1  0  0  0  0
 20 63  1  0  0  0  0
 21 22  2  0  0  0  0
 21 26  1  0  0  0  0
 22 23  1  0  0  0  0
 22 64  1  0  0  0  0
 23 24  2  0  0  0  0
 23 65  1  0  0  0  0
 24 25  1  0  0  0  0
 24 66  1  0  0  0  0
 25 26  2  0  0  0  0
 25 67  1  0  0  0  0
 26 68  1  0  0  0  0
 27 28  2  0  0  0  0
 27 69  1  0  0  0  0
 28 70  1  0  0  0  0
 29 30  2  0  0  0  0
 29 71  1  0  0  0  0
 30 31  1  0  0  0  0
 30 72  1  0  0  0  0
 31 32  2  0  0  0  0
 31 73  1  0  0  0  0
 32 74  1  0  0  0  0
 33 34  1  0  0  0  0
 33 75  1  0  0  0  0
 33 76  1  0  0  0  0
 34 35  2  0  0  0  0
 34 39  1  0  0  0  0
 35 36  1  0  0  0  0
 35 77  1  0  0  0  0
 36 37  2  0  0  0  0
 36 78  1  0  0  0  0
 37 38  1  0  0  0  0
 37 40  1  0  0  0  0
 38 39  2  0  0  0  0
 38 79  1  0  0  0  0
 39 80  1  0  0  0  0
 40 41  1  0  0  0  0
 40 42  2  0  0  0  0
 41 81  1  0  0  0  0
M  END
>  <DRUGBANK_ID>
DB16126

>  <COMMON_NAME>
Cinaciguat

>  <CAS_NUMBER>
329773-35-5

>  <UNII>
59K0Y58UAD

>  <SYNONYMS>
Cinaciguat

$$$$
