643
 OpenBabel10282417103D

 35 37  0  0  0  0  0  0  0  0999 V2000
    0.9779    0.0351    0.0199 O   0  0  0  0  0  0  0  0  0  0  0  0
    8.0876    0.5437    7.6060 O   0  0  0  0  0  0  0  0  0  0  0  0
    6.3718   -0.7875    7.1685 O   0  0  0  0  0  0  0  0  0  0  0  0
    5.7679    1.0723    3.4592 N   0  0  0  0  0  0  0  0  0  0  0  0
    5.0638   -0.4977    4.8327 N   0  0  0  0  0  0  0  0  0  0  0  0
    6.9570    0.8052    5.5679 N   0  0  0  0  0  0  0  0  0  0  0  0
    4.6914    0.4828    2.8254 C   0  0  0  0  0  0  0  0  0  0  0  0
    4.2782   -0.4983    3.7169 C   0  0  0  0  0  0  0  0  0  0  0  0
    2.9565   -0.1373    1.2894 C   0  0  0  0  0  0  0  0  0  0  0  0
    4.0506    0.7024    1.5959 C   0  0  0  0  0  0  0  0  0  0  0  0
    3.1854   -1.3185    3.3990 C   0  0  0  0  0  0  0  0  0  0  0  0
    2.5261   -1.1276    2.1788 C   0  0  0  0  0  0  0  0  0  0  0  0
    5.9579    0.4499    4.6775 C   0  0  0  0  0  0  0  0  0  0  0  0
    2.2038    0.0337    0.0165 C   0  0  0  0  0  0  0  0  0  0  0  0
    2.9436    0.2426   -1.2494 C   0  0  0  0  0  0  0  0  0  0  0  0
    2.5251    1.2534   -2.1196 C   0  0  0  0  0  0  0  0  0  0  0  0
    4.0737   -0.5253   -1.5499 C   0  0  0  0  0  0  0  0  0  0  0  0
    3.2690    1.5282   -3.2679 C   0  0  0  0  0  0  0  0  0  0  0  0
    4.8378   -0.2159   -2.6750 C   0  0  0  0  0  0  0  0  0  0  0  0
    4.4252    0.7961   -3.5426 C   0  0  0  0  0  0  0  0  0  0  0  0
    7.0802    0.1358    6.7755 C   0  0  0  0  0  0  0  0  0  0  0  0
    9.0151    1.5956    7.3304 C   0  0  0  0  0  0  0  0  0  0  0  0
    6.3215    1.8259    3.0828 H   0  0  0  0  0  0  0  0  0  0  0  0
    7.5869    1.5526    5.3369 H   0  0  0  0  0  0  0  0  0  0  0  0
    4.3661    1.4919    0.9224 H   0  0  0  0  0  0  0  0  0  0  0  0
    2.8643   -2.0837    4.0982 H   0  0  0  0  0  0  0  0  0  0  0  0
    1.6772   -1.7606    1.9264 H   0  0  0  0  0  0  0  0  0  0  0  0
    1.6321    1.8331   -1.8966 H   0  0  0  0  0  0  0  0  0  0  0  0
    4.3608   -1.3646   -0.9212 H   0  0  0  0  0  0  0  0  0  0  0  0
    2.9560    2.3228   -3.9409 H   0  0  0  0  0  0  0  0  0  0  0  0
    5.7580   -0.7595   -2.8740 H   0  0  0  0  0  0  0  0  0  0  0  0
    5.0005    1.0067   -4.4413 H   0  0  0  0  0  0  0  0  0  0  0  0
    9.6080    1.3530    6.4462 H   0  0  0  0  0  0  0  0  0  0  0  0
    8.4870    2.5450    7.2215 H   0  0  0  0  0  0  0  0  0  0  0  0
    9.6918    1.6738    8.1885 H   0  0  0  0  0  0  0  0  0  0  0  0
  1 14  2  0  0  0  0
  2 21  1  0  0  0  0
  2 22  1  0  0  0  0
  3 21  2  0  0  0  0
  4  7  1  0  0  0  0
  4 13  1  0  0  0  0
  4 23  1  0  0  0  0
  5  8  1  0  0  0  0
  5 13  2  0  0  0  0
  6 13  1  0  0  0  0
  6 21  1  0  0  0  0
  6 24  1  0  0  0  0
  7  8  2  0  0  0  0
  7 10  1  0  0  0  0
  8 11  1  0  0  0  0
  9 10  2  0  0  0  0
  9 12  1  0  0  0  0
  9 14  1  0  0  0  0
 10 25  1  0  0  0  0
 11 12  2  0  0  0  0
 11 26  1  0  0  0  0
 12 27  1  0  0  0  0
 14 15  1  0  0  0  0
 15 16  2  0  0  0  0
 15 17  1  0  0  0  0
 16 18  1  0  0  0  0
 16 28  1  0  0  0  0
 17 19  2  0  0  0  0
 17 29  1  0  0  0  0
 18 20  2  0  0  0  0
 18 30  1  0  0  0  0
 19 20  1  0  0  0  0
 19 31  1  0  0  0  0
 20 32  1  0  0  0  0
 22 33  1  0  0  0  0
 22 34  1  0  0  0  0
 22 35  1  0  0  0  0
M  END
>  <DRUGBANK_ID>
DB00643

>  <SECONDARY_ACCESSION_NUMBERS>
APRD01086

>  <COMMON_NAME>
Mebendazole

>  <CAS_NUMBER>
31431-39-7

>  <UNII>
81G6I5V05I

>  <SYNONYMS>
(5-benzoyl-1H-benzimidazol-2-yl)-carbamic acid methyl ester; MBDZ; Mebendazol; MÃ©bendazole; Mebendazole; Mebendazolum

$$$$
