FC3
 OpenBabel10282417163D

 25 26  0  0  0  0  0  0  0  0999 V2000
   -1.0929    0.0862   -0.0867 O   0  0  0  0  0  0  0  0  0  0  0  0
   -0.2162    1.1601   -0.0599 C   0  0  0  0  0  0  0  0  0  0  0  0
   -0.6188    2.5527   -0.0219 C   0  0  0  0  0  0  0  0  0  0  0  0
   -1.9545    2.7691   -0.0160 O   0  0  0  0  0  0  0  0  0  0  0  0
    1.0828    0.6884   -0.0735 C   0  0  0  0  0  0  0  0  0  0  0  0
    1.0247   -0.7075   -0.1758 C   0  0  0  0  0  0  0  0  0  0  0  0
   -0.3084   -1.0541   -0.1277 C   0  0  0  0  0  0  0  0  0  0  0  0
    0.1778    3.4913   -0.0118 O   0  0  0  0  0  0  0  0  0  0  0  0
   -0.9384   -2.3705   -0.0201 C   0  0  0  0  0  0  0  0  0  0  0  0
   -0.6167   -3.2638    1.0287 C   0  0  0  0  0  0  0  0  0  0  0  0
   -1.2196   -4.5448    1.0618 C   0  0  0  0  0  0  0  0  0  0  0  0
   -2.1211   -4.9431    0.0805 C   0  0  0  0  0  0  0  0  0  0  0  0
   -2.4293   -4.0690   -0.9554 C   0  0  0  0  0  0  0  0  0  0  0  0
   -1.8117   -2.8124   -1.0290 C   0  0  0  0  0  0  0  0  0  0  0  0
    0.3719   -2.9671    2.1369 C   0  0  0  0  0  0  0  0  0  0  0  0
   -0.1955   -3.0812    3.3703 F   0  0  0  0  0  0  0  0  0  0  0  0
    1.4114   -3.8524    2.1243 F   0  0  0  0  0  0  0  0  0  0  0  0
    0.9539   -1.7419    2.1367 F   0  0  0  0  0  0  0  0  0  0  0  0
   -2.4799    1.9486   -0.0201 H   0  0  0  0  0  0  0  0  0  0  0  0
    1.9669    1.3076   -0.0088 H   0  0  0  0  0  0  0  0  0  0  0  0
    1.8565   -1.3985   -0.1678 H   0  0  0  0  0  0  0  0  0  0  0  0
   -0.9797   -5.2377    1.8705 H   0  0  0  0  0  0  0  0  0  0  0  0
   -2.5694   -5.9343    0.1188 H   0  0  0  0  0  0  0  0  0  0  0  0
   -3.1528   -4.3683   -1.7107 H   0  0  0  0  0  0  0  0  0  0  0  0
   -1.9945   -2.1934   -1.9057 H   0  0  0  0  0  0  0  0  0  0  0  0
  1  2  1  0  0  0  0
  1  7  1  0  0  0  0
  2  3  1  0  0  0  0
  2  5  2  0  0  0  0
  3  4  1  0  0  0  0
  3  8  2  0  0  0  0
  4 19  1  0  0  0  0
  5  6  1  0  0  0  0
  5 20  1  0  0  0  0
  6  7  2  0  0  0  0
  6 21  1  0  0  0  0
  7  9  1  0  0  0  0
  9 10  1  0  0  0  0
  9 14  2  0  0  0  0
 10 11  2  0  0  0  0
 10 15  1  0  0  0  0
 11 12  1  0  0  0  0
 11 22  1  0  0  0  0
 12 13  2  0  0  0  0
 12 23  1  0  0  0  0
 13 14  1  0  0  0  0
 13 24  1  0  0  0  0
 14 25  1  0  0  0  0
 15 16  1  0  0  0  0
 15 17  1  0  0  0  0
 15 18  1  0  0  0  0
M  END
>  <DRUGBANK_ID>
DB07759

>  <COMMON_NAME>
5-[2-(TRIFLUOROMETHYL)PHENYL]-2-FUROIC ACID

$$$$
