
 OpenBabel10282417143D

 60 64  0  0  0  0  0  0  0  0999 V2000
   -0.6024   -1.2385   -0.6759 C   0  0  0  0  0  0  0  0  0  0  0  0
    0.8693   -1.3586   -0.3460 C   0  0  0  0  0  0  0  0  0  0  0  0
    1.4118    0.0268   -0.6318 C   0  0  0  0  0  0  0  0  0  0  0  0
    0.2249    0.9605   -0.4118 C   0  0  0  0  0  0  0  0  0  0  0  0
   -0.9368    0.0833   -0.1908 N   0  0  0  0  0  0  0  0  0  0  0  0
   -1.2836   -0.1030    1.2131 C   0  0  0  0  0  0  0  0  0  0  0  0
   -0.1266   -0.5024    2.2717 C   0  0  0  0  0  0  0  0  0  0  0  0
    1.0038    0.6923    2.5298 C   0  0  0  0  0  0  0  0  0  0  0  0
    0.6926    2.1449    2.9457 O   0  0  0  0  0  0  0  0  0  0  0  0
   -0.2425    2.9766    2.3407 C   0  0  0  0  0  0  0  0  0  0  0  0
   -2.1480    4.4244    0.7790 C   0  0  0  0  0  0  0  0  0  0  0  0
   -2.3164    3.1560    1.2794 C   0  0  0  0  0  0  0  0  0  0  0  0
   -1.6006    2.7798    2.3816 C   0  0  0  0  0  0  0  0  0  0  0  0
    0.0843    4.2092    1.7319 C   0  0  0  0  0  0  0  0  0  0  0  0
   -0.9114    4.9912    1.0440 C   0  0  0  0  0  0  0  0  0  0  0  0
   -0.6923    6.2581    0.6305 N   0  0  0  0  0  0  0  0  0  0  0  0
   -1.7311    6.8840    0.0372 C   0  0  0  0  0  0  0  0  0  0  0  0
   -2.9581    6.3976   -0.2288 N   0  0  0  0  0  0  0  0  0  0  0  0
   -3.1850    5.1174    0.1398 C   0  0  0  0  0  0  0  0  0  0  0  0
   -2.3958    2.1199    3.2960 O   0  0  0  0  0  0  0  0  0  0  0  0
   -1.7396    1.0254    3.8358 C   0  0  0  0  0  0  0  0  0  0  0  0
   -4.5156    4.7145   -0.0619 O   0  0  0  0  0  0  0  0  0  0  0  0
   -4.9825    3.4373    0.2317 C   0  0  0  0  0  0  0  0  0  0  0  0
   -5.6188    0.7418    0.7496 C   0  0  0  0  0  0  0  0  0  0  0  0
   -5.3444    1.5996    1.8276 C   0  0  0  0  0  0  0  0  0  0  0  0
   -5.1277    2.9742    1.5518 C   0  0  0  0  0  0  0  0  0  0  0  0
   -5.2707    2.5553   -0.8232 C   0  0  0  0  0  0  0  0  0  0  0  0
   -5.6076    1.2010   -0.5688 C   0  0  0  0  0  0  0  0  0  0  0  0
   -5.9370   -0.6078    0.7004 N   0  0  0  0  0  0  0  0  0  0  0  0
   -5.9877    0.0959   -1.3866 C   0  0  0  0  0  0  0  0  0  0  0  0
   -6.4358   -0.9123   -0.5518 C   0  0  0  0  0  0  0  0  0  0  0  0
   -7.3256   -2.0753   -0.8520 C   0  0  0  0  0  0  0  0  0  0  0  0
   -5.2211    2.9918   -2.0907 F   0  0  0  0  0  0  0  0  0  0  0  0
   -0.7877   -1.2675   -1.7494 H   0  0  0  0  0  0  0  0  0  0  0  0
   -1.2508   -1.9905   -0.2077 H   0  0  0  0  0  0  0  0  0  0  0  0
    1.1071   -1.5705    0.6878 H   0  0  0  0  0  0  0  0  0  0  0  0
    1.3358   -2.1888   -0.8566 H   0  0  0  0  0  0  0  0  0  0  0  0
    2.2802    0.2588   -0.0062 H   0  0  0  0  0  0  0  0  0  0  0  0
    1.7424    0.0830   -1.6631 H   0  0  0  0  0  0  0  0  0  0  0  0
    0.3798    1.6678    0.3982 H   0  0  0  0  0  0  0  0  0  0  0  0
    0.0993    1.6349   -1.2657 H   0  0  0  0  0  0  0  0  0  0  0  0
   -1.7272    0.8487    1.3752 H   0  0  0  0  0  0  0  0  0  0  0  0
   -2.1947   -0.7190    1.3324 H   0  0  0  0  0  0  0  0  0  0  0  0
   -0.4882   -0.7791    3.2819 H   0  0  0  0  0  0  0  0  0  0  0  0
    0.1816   -1.5436    2.1035 H   0  0  0  0  0  0  0  0  0  0  0  0
    1.6852    0.3187    3.3146 H   0  0  0  0  0  0  0  0  0  0  0  0
    1.6714    0.7847    1.6895 H   0  0  0  0  0  0  0  0  0  0  0  0
   -3.0344    2.4738    0.8921 H   0  0  0  0  0  0  0  0  0  0  0  0
    1.0813    4.6199    1.8314 H   0  0  0  0  0  0  0  0  0  0  0  0
   -1.5484    7.9190   -0.2511 H   0  0  0  0  0  0  0  0  0  0  0  0
   -1.0108    0.9323    3.1096 H   0  0  0  0  0  0  0  0  0  0  0  0
   -1.0641    1.1533    4.6760 H   0  0  0  0  0  0  0  0  0  0  0  0
   -2.2717    0.0725    3.7270 H   0  0  0  0  0  0  0  0  0  0  0  0
   -5.2419    1.2221    2.8428 H   0  0  0  0  0  0  0  0  0  0  0  0
   -4.8633    3.6297    2.3823 H   0  0  0  0  0  0  0  0  0  0  0  0
   -5.9480   -1.2268    1.5012 H   0  0  0  0  0  0  0  0  0  0  0  0
   -6.0856    0.1192   -2.4634 H   0  0  0  0  0  0  0  0  0  0  0  0
   -8.2948   -1.6998   -1.2112 H   0  0  0  0  0  0  0  0  0  0  0  0
   -6.9203   -2.7131   -1.6434 H   0  0  0  0  0  0  0  0  0  0  0  0
   -7.5378   -2.6969    0.0240 H   0  0  0  0  0  0  0  0  0  0  0  0
  1  2  1  0  0  0  0
  1  5  1  0  0  0  0
  1 34  1  0  0  0  0
  1 35  1  0  0  0  0
  2  3  1  0  0  0  0
  2 36  1  0  0  0  0
  2 37  1  0  0  0  0
  3  4  1  0  0  0  0
  3 38  1  0  0  0  0
  3 39  1  0  0  0  0
  4  5  1  0  0  0  0
  4 40  1  0  0  0  0
  4 41  1  0  0  0  0
  5  6  1  0  0  0  0
  6  7  1  0  0  0  0
  6 42  1  0  0  0  0
  6 43  1  0  0  0  0
  7  8  1  0  0  0  0
  7 44  1  0  0  0  0
  7 45  1  0  0  0  0
  8  9  1  0  0  0  0
  8 46  1  0  0  0  0
  8 47  1  0  0  0  0
  9 10  1  0  0  0  0
 10 14  2  0  0  0  0
 11 12  1  0  0  0  0
 11 15  2  0  0  0  0
 11 19  1  0  0  0  0
 12 13  2  0  0  0  0
 12 48  1  0  0  0  0
 13 10  1  0  0  0  0
 13 20  1  0  0  0  0
 14 15  1  0  0  0  0
 14 49  1  0  0  0  0
 15 16  1  0  0  0  0
 16 17  2  0  0  0  0
 17 18  1  0  0  0  0
 17 50  1  0  0  0  0
 18 19  2  0  0  0  0
 19 22  1  0  0  0  0
 20 21  1  0  0  0  0
 21 51  1  0  0  0  0
 21 52  1  0  0  0  0
 21 53  1  0  0  0  0
 22 23  1  0  0  0  0
 23 27  2  0  0  0  0
 24 25  1  0  0  0  0
 24 28  2  0  0  0  0
 24 29  1  0  0  0  0
 25 26  2  0  0  0  0
 25 54  1  0  0  0  0
 26 23  1  0  0  0  0
 26 55  1  0  0  0  0
 27 28  1  0  0  0  0
 27 33  1  0  0  0  0
 28 30  1  0  0  0  0
 29 56  1  0  0  0  0
 30 31  2  0  0  0  0
 30 57  1  0  0  0  0
 31 29  1  0  0  0  0
 31 32  1  0  0  0  0
 32 58  1  0  0  0  0
 32 59  1  0  0  0  0
 32 60  1  0  0  0  0
M  END
>  <DRUGBANK_ID>
DB04849

>  <SECONDARY_ACCESSION_NUMBERS>
DB12033

>  <COMMON_NAME>
Cediranib

>  <CAS_NUMBER>
288383-20-0

>  <UNII>
NQU9IPY4K9

>  <SYNONYMS>
Cediranib

$$$$
