
 OpenBabel10282417143D

 78 82  0  0  1  0  0  0  0  0999 V2000
   -4.5466    2.4131   -1.8522 C   0  0  0  0  0  0  0  0  0  0  0  0
   -5.3404    4.7564   -2.3784 C   0  0  0  0  0  0  0  0  0  0  0  0
   -1.0291    5.0694   -7.8554 C   0  0  0  0  0  0  0  0  0  0  0  0
    1.1845    1.2808   -4.8359 C   0  0  0  0  0  0  0  0  0  0  0  0
   -2.0426    2.9301   -3.1715 C   0  0  0  0  0  0  0  0  0  0  0  0
    2.8499   -1.5314   -7.1524 C   0  0  0  0  0  0  0  0  0  0  0  0
    0.1859   -1.8566   -9.5119 C   0  0  0  0  0  0  0  0  0  0  0  0
   -2.9737    4.0706   -2.7684 C   0  0  0  0  0  0  0  0  0  0  0  0
    1.8415   -0.5315   -6.7088 C   0  0  0  0  0  0  0  0  0  0  0  0
   -2.3307    2.3834   -4.5731 C   0  0  0  0  0  0  0  0  0  0  0  0
    3.0395   -1.1658   -8.5857 C   0  0  0  0  0  0  0  0  0  0  0  0
    1.0869   -0.6693   -9.9962 C   0  0  0  0  0  0  0  0  0  0  0  0
   -0.9721   -2.5509   -7.3483 C   0  0  0  0  0  0  0  0  0  0  0  0
   -2.5137   -0.2964   -7.2004 C   0  0  0  0  0  0  0  0  0  0  0  0
    1.4731    2.0577   -7.9459 C   0  0  0  0  0  0  0  0  0  0  0  0
   -0.6229    4.2633   -5.2147 C   0  0  0  0  0  0  0  0  0  0  0  0
   -3.2701   -3.2697   -5.7349 C   0  0  0  0  0  0  0  0  0  0  0  0
   -0.8612   -1.6597   -8.4226 C   0  0  0  0  0  0  0  0  0  0  0  0
   -1.4158   -0.4266   -8.1404 C   0  0  0  0  0  0  0  0  0  0  0  0
   -1.6176   -2.1953   -6.1549 C   0  0  0  0  0  0  0  0  0  0  0  0
   -2.6264   -1.2916   -6.2765 C   0  0  0  0  0  0  0  0  0  0  0  0
    0.3248    2.8264   -7.9530 C   0  0  0  0  0  0  0  0  0  0  0  0
    0.6690    3.4684   -5.1645 C   0  0  0  0  0  0  0  0  0  0  0  0
   -0.2885    0.5557   -7.9225 C   0  0  2  0  0  0  0  0  0  0  0  0
   -0.7623    1.9414   -7.5602 C   0  0  2  0  0  0  0  0  0  0  0  0
   -2.7270    3.0689   -7.0965 C   0  0  0  0  0  0  0  0  0  0  0  0
   -4.4429    3.6129   -2.7868 C   0  0  0  0  0  0  0  0  0  0  0  0
    1.3242    0.4654   -7.9023 C   0  0  2  0  0  0  0  0  0  0  0  0
   -2.0978    3.5011   -5.6057 C   0  0  1  0  0  0  0  0  0  0  0  0
    2.0400   -0.1525   -9.0202 N   0  0  3  0  0  0  0  0  0  0  0  0
    1.7059    3.7710   -5.6743 O   0  0  0  0  0  0  0  0  0  0  0  0
   -3.8347    3.4716   -7.4746 O   0  0  0  0  0  0  0  0  0  0  0  0
   -4.9527    3.2056   -4.0578 O   0  0  0  0  0  0  0  0  0  0  0  0
   -3.1485    4.5275   -5.3306 O   0  0  0  0  0  0  0  0  0  0  0  0
    0.1700    4.2240   -7.9768 O   0  0  0  0  0  0  0  0  0  0  0  0
    0.4393    2.3614   -4.4088 O   0  0  0  0  0  0  0  0  0  0  0  0
   -1.9622   -3.1157   -5.1873 O   0  0  0  0  0  0  0  0  0  0  0  0
   -3.8191   -1.9583   -6.0236 O   0  0  0  0  0  0  0  0  0  0  0  0
   -2.0032    2.3717   -8.0058 O   0  0  0  0  0  0  0  0  0  0  0  0
   -0.2642    0.1084   -6.9371 H   0  0  0  0  0  0  0  0  0  0  0  0
   -0.8369    1.8597   -6.4911 H   0  0  0  0  0  0  0  0  0  0  0  0
   -4.1949    2.6872   -0.8536 H   0  0  0  0  0  0  0  0  0  0  0  0
   -3.9371    1.5697   -2.2019 H   0  0  0  0  0  0  0  0  0  0  0  0
   -5.5608    2.0224   -1.8142 H   0  0  0  0  0  0  0  0  0  0  0  0
   -5.0625    5.1425   -1.3982 H   0  0  0  0  0  0  0  0  0  0  0  0
   -5.2811    5.5656   -3.1181 H   0  0  0  0  0  0  0  0  0  0  0  0
   -6.3799    4.4162   -2.3699 H   0  0  0  0  0  0  0  0  0  0  0  0
   -1.8370    4.9363   -8.5756 H   0  0  0  0  0  0  0  0  0  0  0  0
   -1.5925    4.9314   -6.9617 H   0  0  0  0  0  0  0  0  0  0  0  0
   -0.7891    6.1129   -7.5962 H   0  0  0  0  0  0  0  0  0  0  0  0
    0.6186    0.9375   -5.6685 H   0  0  0  0  0  0  0  0  0  0  0  0
    2.1884    1.5450   -5.1805 H   0  0  0  0  0  0  0  0  0  0  0  0
    1.1184    0.4087   -4.1870 H   0  0  0  0  0  0  0  0  0  0  0  0
   -1.0244    3.2958   -3.0693 H   0  0  0  0  0  0  0  0  0  0  0  0
   -2.0328    2.1125   -2.4540 H   0  0  0  0  0  0  0  0  0  0  0  0
    2.4912   -2.5517   -6.9630 H   0  0  0  0  0  0  0  0  0  0  0  0
    3.7694   -1.4170   -6.5525 H   0  0  0  0  0  0  0  0  0  0  0  0
   -0.3185   -2.2388  -10.4019 H   0  0  0  0  0  0  0  0  0  0  0  0
    0.8509   -2.6440   -9.1478 H   0  0  0  0  0  0  0  0  0  0  0  0
   -2.8135    4.9729   -3.3712 H   0  0  0  0  0  0  0  0  0  0  0  0
   -2.6725    4.4179   -1.7758 H   0  0  0  0  0  0  0  0  0  0  0  0
    1.0382   -1.1164   -6.2373 H   0  0  0  0  0  0  0  0  0  0  0  0
    2.4238   -0.0826   -5.9194 H   0  0  0  0  0  0  0  0  0  0  0  0
   -1.6961    1.5128   -4.7380 H   0  0  0  0  0  0  0  0  0  0  0  0
   -3.3269    1.9400   -4.6582 H   0  0  0  0  0  0  0  0  0  0  0  0
    4.0576   -0.7712   -8.6817 H   0  0  0  0  0  0  0  0  0  0  0  0
    3.0000   -2.0933   -9.1625 H   0  0  0  0  0  0  0  0  0  0  0  0
    0.4860    0.1770  -10.3546 H   0  0  0  0  0  0  0  0  0  0  0  0
    1.6762   -0.9759  -10.8688 H   0  0  0  0  0  0  0  0  0  0  0  0
   -0.6296   -3.5672   -7.4491 H   0  0  0  0  0  0  0  0  0  0  0  0
   -2.7718    0.6579   -6.7315 H   0  0  0  0  0  0  0  0  0  0  0  0
    2.4627    2.4915   -7.9017 H   0  0  0  0  0  0  0  0  0  0  0  0
   -0.3119    5.1617   -5.7465 H   0  0  0  0  0  0  0  0  0  0  0  0
   -0.6896    4.7386   -4.2334 H   0  0  0  0  0  0  0  0  0  0  0  0
   -3.0801   -3.8750   -6.6403 H   0  0  0  0  0  0  0  0  0  0  0  0
   -3.9652   -3.8641   -5.1474 H   0  0  0  0  0  0  0  0  0  0  0  0
   -4.6494    3.8572   -4.7260 H   0  0  0  0  0  0  0  0  0  0  0  0
   -3.2417    5.1713   -6.0577 H   0  0  0  0  0  0  0  0  0  0  0  0
  1 42  1  0  0  0  0
  1 43  1  0  0  0  0
  1 44  1  0  0  0  0
  2 45  1  0  0  0  0
  2 46  1  0  0  0  0
  2 47  1  0  0  0  0
  3 48  1  0  0  0  0
  3 49  1  0  0  0  0
  3 50  1  0  0  0  0
  4 51  1  0  0  0  0
  4 52  1  0  0  0  0
  4 53  1  0  0  0  0
  5 54  1  0  0  0  0
  5 55  1  0  0  0  0
  6 56  1  0  0  0  0
  6 57  1  0  0  0  0
  7 58  1  0  0  0  0
  7 59  1  0  0  0  0
  8  5  1  0  0  0  0
  8 60  1  0  0  0  0
  8 61  1  0  0  0  0
  9  6  1  0  0  0  0
  9 62  1  0  0  0  0
  9 63  1  0  0  0  0
 10  5  1  0  0  0  0
 10 64  1  0  0  0  0
 10 65  1  0  0  0  0
 11  6  1  0  0  0  0
 11 66  1  0  0  0  0
 11 67  1  0  0  0  0
 12  7  1  0  0  0  0
 12 68  1  0  0  0  0
 12 69  1  0  0  0  0
 13 70  1  0  0  0  0
 14 71  1  0  0  0  0
 15 72  1  0  0  0  0
 16 73  1  0  0  0  0
 16 74  1  0  0  0  0
 17 75  1  0  0  0  0
 17 76  1  0  0  0  0
 18  7  1  0  0  0  0
 18 13  2  0  0  0  0
 19 14  2  0  0  0  0
 19 18  1  0  0  0  0
 20 13  1  0  0  0  0
 21 14  1  0  0  0  0
 21 20  2  0  0  0  0
 22 15  2  0  0  0  0
 23 16  1  0  0  0  0
 24 19  1  0  0  0  0
 24 40  1  1  0  0  0
 25 22  1  0  0  0  0
 25 24  1  0  0  0  0
 25 41  1  1  0  0  0
 25 39  1  0  0  0  0
 27  1  1  0  0  0  0
 27  2  1  0  0  0  0
 27  8  1  0  0  0  0
 28  9  1  0  0  0  0
 28 15  1  1  0  0  0
 28 24  1  0  0  0  0
 28 30  1  0  0  0  0
 29 10  1  0  0  0  0
 29 16  1  0  0  0  0
 29 26  1  6  0  0  0
 29 34  1  0  0  0  0
 30 11  1  0  0  0  0
 30 12  1  0  0  0  0
 31 23  2  0  0  0  0
 32 26  2  0  0  0  0
 33 27  1  0  0  0  0
 33 77  1  0  0  0  0
 34 78  1  0  0  0  0
 35  3  1  0  0  0  0
 35 22  1  0  0  0  0
 36  4  1  0  0  0  0
 36 23  1  0  0  0  0
 37 17  1  0  0  0  0
 37 20  1  0  0  0  0
 38 17  1  0  0  0  0
 38 21  1  0  0  0  0
 39 26  1  0  0  0  0
M  END
>  <DRUGBANK_ID>
DB04865

>  <COMMON_NAME>
Omacetaxine mepesuccinate

>  <CAS_NUMBER>
26833-87-4

>  <UNII>
6FG8041S5B

>  <SYNONYMS>
(−)-homoharringtonine; (2'R,3S,4S,5R)-(−)-homoharringtonine; 1-[(1S,3aR,14bS)-2-Methoxy-1,5,6,8,9,14b-hexahydro-4H-cyclopenta[a][1,3]dioxolo[4,5-H]pyrrolo[2,1-b][3]benzazepin-1-yl] 4-methyl (2R)-2-hydroxy-2-(4-hydroxy-4-methylpentyl)butanedioate; CEPHALOTAXINE 4-METHYL (2R)-2-HYDROXY-2-(4-HYDROXY-4-METHYLPENTYL)BUTANEDIOATE (ESTER); CEPHALOTAXINE, 4-METHYL (2R)-2-HYDROXY-2-(4-HYDROXY-4-METHYLPENTYL)BUTANEDIOATE (ESTER); HHT; Homoharringtonin; Homoharringtonine; mepesuccinato de omacetaxina; Omacetaxine mepesuccinate

$$$$
