
 OpenBabel10282417183D

 15 14  0  0  0  0  0  0  0  0999 V2000
    1.0873    0.0448   -0.0311 C   0  0  0  0  0  0  0  0  0  0  0  0
    0.6155   -0.3519    1.3808 C   0  0  0  0  0  0  0  0  0  0  0  0
    1.0872    0.7295    2.3715 C   0  0  0  0  0  0  0  0  0  0  0  0
   -0.8297   -0.2958    1.3648 O   0  0  0  0  0  0  0  0  0  0  0  0
    1.1086   -1.7956    1.7922 C   0  0  0  0  0  0  0  0  0  0  0  0
    0.5199   -3.0581    0.6437 Cl  0  0  0  0  0  0  0  0  0  0  0  0
    2.9109   -1.9068    1.8239 Cl  0  0  0  0  0  0  0  0  0  0  0  0
    0.5199   -2.2631    3.4338 Cl  0  0  0  0  0  0  0  0  0  0  0  0
    0.7010    1.0332   -0.3078 H   0  0  0  0  0  0  0  0  0  0  0  0
    0.7070   -0.6439   -0.7923 H   0  0  0  0  0  0  0  0  0  0  0  0
    2.1780    0.0803   -0.1063 H   0  0  0  0  0  0  0  0  0  0  0  0
    0.7010    1.7152    2.0857 H   0  0  0  0  0  0  0  0  0  0  0  0
    0.7070    0.5455    3.3815 H   0  0  0  0  0  0  0  0  0  0  0  0
    2.1780    0.7993    2.4167 H   0  0  0  0  0  0  0  0  0  0  0  0
   -1.1073    0.6024    1.1089 H   0  0  0  0  0  0  0  0  0  0  0  0
  1  2  1  0  0  0  0
  1  9  1  0  0  0  0
  1 10  1  0  0  0  0
  1 11  1  0  0  0  0
  2  3  1  0  0  0  0
  2  4  1  0  0  0  0
  2  5  1  0  0  0  0
  3 12  1  0  0  0  0
  3 13  1  0  0  0  0
  3 14  1  0  0  0  0
  4 15  1  0  0  0  0
  5  6  1  0  0  0  0
  5  7  1  0  0  0  0
  5  8  1  0  0  0  0
M  END
>  <DRUGBANK_ID>
DB11386

>  <COMMON_NAME>
Chlorobutanol

>  <CAS_NUMBER>
57-15-8

>  <UNII>
HM4YQM8WRC

>  <SYNONYMS>
Chloretone; Chlorobutanol

$$$$
