
 OpenBabel10282417133D

 42 44  0  0  1  0  0  0  0  0999 V2000
    0.0636   -0.8869    0.2204 C   0  0  0  0  0  0  0  0  0  0  0  0
    1.3365   -1.3684    0.3939 N   0  0  0  0  0  0  0  0  0  0  0  0
    0.1285    0.4366    0.5892 C   0  0  0  0  0  0  0  0  0  0  0  0
   -1.0554   -1.5724   -0.1110 N   0  0  0  0  0  0  0  0  0  0  0  0
    1.2882    0.6997    1.2839 N   0  0  0  0  0  0  0  0  0  0  0  0
   -2.1348    0.5497    0.0398 N   0  0  0  0  0  0  0  0  0  0  0  0
   -0.9894    1.3102    0.2591 C   0  0  0  0  0  0  0  0  0  0  0  0
   -2.1328   -0.8246   -0.0921 C   0  0  0  0  0  0  0  0  0  0  0  0
    2.0193   -0.3742    1.0615 C   0  0  0  0  0  0  0  0  0  0  0  0
   -0.9713    2.5143    0.1602 O   0  0  0  0  0  0  0  0  0  0  0  0
   -3.3472   -1.4141   -0.1799 N   0  0  0  0  0  0  0  0  0  0  0  0
    3.9822   -3.6714    0.6885 C   0  0  1  0  0  0  0  0  0  0  0  0
    2.7958   -3.0166    1.2144 O   0  0  0  0  0  0  0  0  0  0  0  0
    3.6862   -3.9723   -0.7722 C   0  0  2  0  0  0  0  0  0  0  0  0
    1.8605   -2.7033    0.1449 C   0  0  2  0  0  0  0  0  0  0  0  0
    2.6357   -2.9362   -1.1319 C   0  0  0  0  0  0  0  0  0  0  0  0
    3.1370   -5.2687   -0.9221 O   0  0  0  0  0  0  0  0  0  0  0  0
    5.1998   -2.7543    0.7773 C   0  0  0  0  0  0  0  0  0  0  0  0
    4.8572   -1.6151    0.0283 O   0  0  0  0  0  0  0  0  0  0  0  0
    3.7621    2.2029   -2.0512 O   0  0  0  0  0  0  0  0  0  0  0  0
    3.4188    0.9168   -1.1026 P   0  0  0  0  0  0  0  0  0  0  0  0
    4.9855    0.2428   -1.3928 O   0  0  0  0  0  0  0  0  0  0  0  0
    5.4794   -1.2530   -1.3940 P   0  0  3  0  0  0  0  0  0  0  0  0
    2.8019   -0.0558   -2.1177 O   0  0  0  0  0  0  0  0  0  0  0  0
    6.9477   -1.5010   -1.4819 O   0  0  0  0  0  0  0  0  0  0  0  0
    1.8522    1.5908   -0.8123 O   0  0  0  0  0  0  0  0  0  0  0  0
    4.6990   -1.9333   -2.6264 O   0  0  0  0  0  0  0  0  0  0  0  0
   -2.9781    1.0852   -0.0697 H   0  0  0  0  0  0  0  0  0  0  0  0
    3.0779   -0.4427    1.2646 H   0  0  0  0  0  0  0  0  0  0  0  0
   -3.3464   -2.4132   -0.0040 H   0  0  0  0  0  0  0  0  0  0  0  0
   -4.1944   -0.9160    0.0510 H   0  0  0  0  0  0  0  0  0  0  0  0
    4.1428   -4.5612    1.2979 H   0  0  0  0  0  0  0  0  0  0  0  0
    4.6014   -3.9497   -1.3783 H   0  0  0  0  0  0  0  0  0  0  0  0
    1.0280   -3.4014    0.1894 H   0  0  0  0  0  0  0  0  0  0  0  0
    3.0926   -1.9895   -1.3000 H   0  0  0  0  0  0  0  0  0  0  0  0
    2.0704   -3.1682   -2.0369 H   0  0  0  0  0  0  0  0  0  0  0  0
    2.3008   -5.2876   -0.4315 H   0  0  0  0  0  0  0  0  0  0  0  0
    5.3858   -2.4404    1.8127 H   0  0  0  0  0  0  0  0  0  0  0  0
    6.1172   -3.2247    0.4047 H   0  0  0  0  0  0  0  0  0  0  0  0
    4.2549    2.9333   -1.6482 H   0  0  0  0  0  0  0  0  0  0  0  0
    1.8562    2.5612   -0.7948 H   0  0  0  0  0  0  0  0  0  0  0  0
    3.8503   -1.5208   -2.9254 H   0  0  0  0  0  0  0  0  0  0  0  0
  2  1  1  0  0  0  0
  3  1  2  0  0  0  0
  4  1  1  0  0  0  0
  5  3  1  0  0  0  0
  6 28  1  0  0  0  0
  7  3  1  0  0  0  0
  7  6  1  0  0  0  0
  8  4  2  0  0  0  0
  8  6  1  0  0  0  0
  9  2  1  0  0  0  0
  9  5  2  0  0  0  0
  9 29  1  0  0  0  0
 10  7  2  0  0  0  0
 11  8  1  0  0  0  0
 11 30  1  0  0  0  0
 11 31  1  0  0  0  0
 12 32  1  1  0  0  0
 12 18  1  0  0  0  0
 13 12  1  0  0  0  0
 14 12  1  0  0  0  0
 14 17  1  0  0  0  0
 14 33  1  6  0  0  0
 15  2  1  0  0  0  0
 15 13  1  0  0  0  0
 15 34  1  1  0  0  0
 16 14  1  0  0  0  0
 16 15  1  0  0  0  0
 16 35  1  0  0  0  0
 16 36  1  0  0  0  0
 17 37  1  0  0  0  0
 18 38  1  0  0  0  0
 18 39  1  0  0  0  0
 19 18  1  0  0  0  0
 20 40  1  0  0  0  0
 21 20  1  0  0  0  0
 22 21  1  0  0  0  0
 23 19  1  0  0  0  0
 23 22  1  0  0  0  0
 24 21  2  0  0  0  0
 25 23  2  0  0  0  0
 26 21  1  0  0  0  0
 26 41  1  0  0  0  0
 27 23  1  0  0  0  0
 27 42  1  0  0  0  0
M  END
>  <DRUGBANK_ID>
DB03491

>  <SECONDARY_ACCESSION_NUMBERS>
EXPT01179

>  <COMMON_NAME>
2'-Deoxyguanosine-5'-Diphosphate

$$$$
