
 OpenBabel10282417213D

 49 50  0  0  0  0  0  0  0  0999 V2000
    7.6803   -5.2188    1.7279 C   0  0  0  0  0  0  0  0  0  0  0  0
    7.3119   -4.5405    0.5641 N   0  0  0  0  0  0  0  0  0  0  0  0
    7.8507   -4.8066   -0.6535 C   0  0  0  0  0  0  0  0  0  0  0  0
    9.1697   -4.8494   -0.6277 C   0  0  0  0  0  0  0  0  0  0  0  0
    9.6725   -5.4079    0.6404 C   0  0  0  0  0  0  0  0  0  0  0  0
    8.9850   -5.6512    1.7048 N   0  0  0  0  0  0  0  0  0  0  0  0
    6.1677   -3.7400    0.6264 C   0  0  1  0  0  0  0  0  0  0  0  0
    5.8802   -2.4208    1.7090 C   0  0  1  0  0  0  0  0  0  0  0  0
    6.9435   -2.2888    2.7607 C   0  0  0  0  0  0  0  0  0  0  0  0
    5.9344   -1.8044   -0.7460 C   0  0  2  0  0  0  0  0  0  0  0  0
    7.3444   -1.7070   -1.2730 C   0  0  0  0  0  0  0  0  0  0  0  0
    8.2765   -1.9692   -0.2406 O   0  0  0  0  0  0  0  0  0  0  0  0
    5.6322   -1.2645    0.6607 C   0  0  1  0  0  0  0  0  0  0  0  0
    4.2519   -0.6354    0.6905 O   0  0  0  0  0  0  0  0  0  0  0  0
    2.9454   -0.9617    0.4568 C   0  0  0  0  0  0  0  0  0  0  0  0
    2.4592   -2.3637   -0.0540 C   0  0  2  0  0  0  0  0  0  0  0  0
    5.7554   -3.2365   -0.7131 O   0  0  0  0  0  0  0  0  0  0  0  0
    2.5391   -3.4007    1.1084 C   0  0  0  0  0  0  0  0  0  0  0  0
    3.0420   -2.6702   -1.3999 N   0  0  0  0  0  0  0  0  0  0  0  0
    4.6834   -2.3865    2.5710 O   0  0  0  0  0  0  0  0  0  0  0  0
    6.9556   -5.3333    2.6819 O   0  0  0  0  0  0  0  0  0  0  0  0
   10.9707   -5.7787    0.6596 N   0  0  0  0  0  0  0  0  0  0  0  0
    2.0873   -0.0910    0.6398 O   0  0  0  0  0  0  0  0  0  0  0  0
    1.9717   -4.7835    1.1710 C   0  0  0  0  0  0  0  0  0  0  0  0
    3.8377   -3.9657    0.9185 C   0  0  0  0  0  0  0  0  0  0  0  0
    7.2762   -4.5774   -1.5450 H   0  0  0  0  0  0  0  0  0  0  0  0
    9.7604   -4.4749   -1.4396 H   0  0  0  0  0  0  0  0  0  0  0  0
    5.6171   -4.6675    0.7711 H   0  0  0  0  0  0  0  0  0  0  0  0
    7.5874   -1.4427    2.5750 H   0  0  0  0  0  0  0  0  0  0  0  0
    6.5223   -2.2260    3.7761 H   0  0  0  0  0  0  0  0  0  0  0  0
    7.5495   -3.1757    2.7975 H   0  0  0  0  0  0  0  0  0  0  0  0
    5.2768   -1.3468   -1.4992 H   0  0  0  0  0  0  0  0  0  0  0  0
    7.4581   -2.4749   -2.0541 H   0  0  0  0  0  0  0  0  0  0  0  0
    7.5683   -0.7492   -1.7273 H   0  0  0  0  0  0  0  0  0  0  0  0
    8.0761   -1.3982    0.5139 H   0  0  0  0  0  0  0  0  0  0  0  0
    6.2839   -0.4141    0.8806 H   0  0  0  0  0  0  0  0  0  0  0  0
    1.3941   -2.3058   -0.2442 H   0  0  0  0  0  0  0  0  0  0  0  0
    2.5017   -2.8912    2.0820 H   0  0  0  0  0  0  0  0  0  0  0  0
    3.0084   -1.8425   -1.9947 H   0  0  0  0  0  0  0  0  0  0  0  0
    4.0339   -2.9270   -1.3414 H   0  0  0  0  0  0  0  0  0  0  0  0
    4.7253   -1.7533    3.3119 H   0  0  0  0  0  0  0  0  0  0  0  0
   11.3764   -5.9515   -0.2487 H   0  0  0  0  0  0  0  0  0  0  0  0
   11.1271   -6.4863    1.3672 H   0  0  0  0  0  0  0  0  0  0  0  0
    2.1747   -5.3384    0.2409 H   0  0  0  0  0  0  0  0  0  0  0  0
    2.5073   -5.3558    1.9695 H   0  0  0  0  0  0  0  0  0  0  0  0
    0.9372   -4.7139    1.4101 H   0  0  0  0  0  0  0  0  0  0  0  0
    4.2889   -3.0641    0.6199 H   0  0  0  0  0  0  0  0  0  0  0  0
    4.2721   -4.3725    1.8504 H   0  0  0  0  0  0  0  0  0  0  0  0
    3.9671   -4.6315    0.0475 H   0  0  0  0  0  0  0  0  0  0  0  0
  1  2  1  0  0  0  0
  1  6  1  0  0  0  0
  1 21  2  0  0  0  0
  2  3  1  0  0  0  0
  3  4  2  0  0  0  0
  3 26  1  0  0  0  0
  4  5  1  0  0  0  0
  4 27  1  0  0  0  0
  5 22  1  0  0  0  0
  5  6  2  0  0  0  0
  7 17  1  0  0  0  0
  7 28  1  1  0  0  0
  7  2  1  0  0  0  0
  8  7  1  0  0  0  0
  8 20  1  1  0  0  0
  8  9  1  0  0  0  0
  9 29  1  0  0  0  0
  9 30  1  0  0  0  0
  9 31  1  0  0  0  0
 10 13  1  0  0  0  0
 10 32  1  6  0  0  0
 10 11  1  0  0  0  0
 11 12  1  0  0  0  0
 11 33  1  0  0  0  0
 11 34  1  0  0  0  0
 12 35  1  0  0  0  0
 13 14  1  0  0  0  0
 13  8  1  0  0  0  0
 13 36  1  1  0  0  0
 14 15  1  0  0  0  0
 15 23  2  0  0  0  0
 16 19  1  0  0  0  0
 16 37  1  6  0  0  0
 16 18  1  0  0  0  0
 16 15  1  0  0  0  0
 17 10  1  0  0  0  0
 18 24  1  0  0  0  0
 18 25  1  0  0  0  0
 18 38  1  0  0  0  0
 19 39  1  0  0  0  0
 19 40  1  0  0  0  0
 20 41  1  0  0  0  0
 22 42  1  0  0  0  0
 22 43  1  0  0  0  0
 24 44  1  0  0  0  0
 24 45  1  0  0  0  0
 24 46  1  0  0  0  0
 25 47  1  0  0  0  0
 25 48  1  0  0  0  0
 25 49  1  0  0  0  0
M  END
>  <DRUGBANK_ID>
DB13920

>  <COMMON_NAME>
Valopicitabine

>  <CAS_NUMBER>
640281-90-9

>  <UNII>
I2T0B5G94M

>  <SYNONYMS>
2'-C-methylcytidine 3'-O-L-valinyl ester; Valopicitabina; Valopicitabine

$$$$
