
 OpenBabel10282417233D

 29 30  0  0  1  0  0  0  0  0999 V2000
    1.0145   -0.0813    0.4470 C   0  0  0  0  0  0  0  0  0  0  0  0
    0.5025   -1.1990   -0.5077 C   0  0  0  0  0  0  0  0  0  0  0  0
    1.7626   -1.8974   -1.0356 C   0  0  0  0  0  0  0  0  0  0  0  0
   -0.4433   -2.3380    0.0164 C   0  0  2  0  0  0  0  0  0  0  0  0
   -0.9696   -2.9906   -1.2994 C   0  0  0  0  0  0  0  0  0  0  0  0
   -1.1085   -1.8014   -2.2488 C   0  0  0  0  0  0  0  0  0  0  0  0
   -0.6642   -0.6111   -1.3790 C   0  0  2  0  0  0  0  0  0  0  0  0
   -0.3841    0.6279   -2.2271 C   0  0  0  0  0  0  0  0  0  0  0  0
   -1.6968   -0.3352   -0.1999 C   0  0  1  0  0  0  0  0  0  0  0  0
   -3.0244   -0.0473   -0.5600 O   0  0  0  0  0  0  0  0  0  0  0  0
   -1.5999   -1.5923    0.6760 C   0  0  0  0  0  0  0  0  0  0  0  0
    0.6942   -0.2104    1.4805 H   0  0  0  0  0  0  0  0  0  0  0  0
    0.6842    0.9154    0.1211 H   0  0  0  0  0  0  0  0  0  0  0  0
    2.1056    0.0068    0.4299 H   0  0  0  0  0  0  0  0  0  0  0  0
    2.2481   -2.3809   -0.1701 H   0  0  0  0  0  0  0  0  0  0  0  0
    1.5948   -2.6938   -1.7609 H   0  0  0  0  0  0  0  0  0  0  0  0
    2.4891   -1.2000   -1.4567 H   0  0  0  0  0  0  0  0  0  0  0  0
    0.0182   -3.0801    0.6719 H   0  0  0  0  0  0  0  0  0  0  0  0
   -1.9128   -3.5348   -1.1879 H   0  0  0  0  0  0  0  0  0  0  0  0
   -0.2473   -3.7065   -1.7100 H   0  0  0  0  0  0  0  0  0  0  0  0
   -2.1230   -1.6940   -2.6473 H   0  0  0  0  0  0  0  0  0  0  0  0
   -0.4341   -1.9320   -3.1070 H   0  0  0  0  0  0  0  0  0  0  0  0
   -0.4598    0.4226   -3.3008 H   0  0  0  0  0  0  0  0  0  0  0  0
   -1.0977    1.4302   -2.0079 H   0  0  0  0  0  0  0  0  0  0  0  0
    0.6219    1.0221   -2.0593 H   0  0  0  0  0  0  0  0  0  0  0  0
   -1.3663    0.5261    0.3912 H   0  0  0  0  0  0  0  0  0  0  0  0
   -3.4126    0.4041    0.2286 H   0  0  0  0  0  0  0  0  0  0  0  0
   -2.5296   -2.1692    0.7290 H   0  0  0  0  0  0  0  0  0  0  0  0
   -1.3125   -1.3391    1.7028 H   0  0  0  0  0  0  0  0  0  0  0  0
  1 12  1  0  0  0  0
  1 13  1  0  0  0  0
  1 14  1  0  0  0  0
  1  2  1  0  0  0  0
  2  3  1  0  0  0  0
  3 15  1  0  0  0  0
  3 16  1  0  0  0  0
  3 17  1  0  0  0  0
  4  2  1  0  0  0  0
  4  5  1  0  0  0  0
  4 11  1  0  0  0  0
  4 18  1  1  0  0  0
  5  6  1  0  0  0  0
  5 19  1  0  0  0  0
  5 20  1  0  0  0  0
  6 21  1  0  0  0  0
  6 22  1  0  0  0  0
  7  6  1  0  0  0  0
  7  2  1  0  0  0  0
  7  9  1  0  0  0  0
  7  8  1  6  0  0  0
  8 23  1  0  0  0  0
  8 24  1  0  0  0  0
  8 25  1  0  0  0  0
  9 11  1  0  0  0  0
  9 10  1  0  0  0  0
  9 26  1  1  0  0  0
 10 27  1  0  0  0  0
 11 28  1  0  0  0  0
 11 29  1  0  0  0  0
M  END
>  <DRUGBANK_ID>
DB17066

>  <COMMON_NAME>
D-Borneol

>  <CAS_NUMBER>
464-43-7

>  <UNII>
8D24LWT4FK

>  <SYNONYMS>
(1r,2s,4r)-borneol; Borneol d-form; Borneol, (+)-; Borneol, d-; D-camphanol

$$$$
