
 OpenBabel10282417123D

 30 29  0  0  1  0  0  0  0  0999 V2000
    1.0146   -0.0723    0.0999 C   0  0  0  0  0  0  0  0  0  0  0  0
    1.7193    5.2974    0.1203 C   0  0  0  0  0  0  0  0  0  0  0  0
    0.3140    4.7589    0.4034 C   0  0  0  0  0  0  0  0  0  0  0  0
    1.9370    5.5661   -1.3738 C   0  0  0  0  0  0  0  0  0  0  0  0
    0.0545    3.4492   -0.3253 C   0  0  0  0  0  0  0  0  0  0  0  0
    0.9448    6.5856   -1.9337 C   0  0  0  0  0  0  0  0  0  0  0  0
    0.4860    1.1353    0.8612 C   0  0  1  0  0  0  0  0  0  0  0  0
    1.0148    2.3717    0.1533 C   0  0  0  0  0  0  0  0  0  0  0  0
    1.1057    7.9409   -1.2980 C   0  0  0  0  0  0  0  0  0  0  0  0
   -0.9788    1.0794    0.9126 N   0  0  0  0  0  0  0  0  0  0  0  0
    2.2314    2.4788   -0.0403 O   0  0  0  0  0  0  0  0  0  0  0  0
    1.4889    8.9552   -1.8670 O   0  0  0  0  0  0  0  0  0  0  0  0
    0.7920    7.9700    0.0101 O   0  0  0  0  0  0  0  0  0  0  0  0
    0.8743    1.1482    1.8856 H   0  0  0  0  0  0  0  0  0  0  0  0
    0.6867   -0.0493   -0.9468 H   0  0  0  0  0  0  0  0  0  0  0  0
    0.6762   -1.0051    0.5560 H   0  0  0  0  0  0  0  0  0  0  0  0
    2.1114   -0.0791    0.0899 H   0  0  0  0  0  0  0  0  0  0  0  0
    1.9024    6.1923    0.7160 H   0  0  0  0  0  0  0  0  0  0  0  0
    2.4871    4.6166    0.4926 H   0  0  0  0  0  0  0  0  0  0  0  0
   -0.4505    5.4843    0.0990 H   0  0  0  0  0  0  0  0  0  0  0  0
    0.1759    4.6293    1.4822 H   0  0  0  0  0  0  0  0  0  0  0  0
    2.9661    5.9018   -1.5365 H   0  0  0  0  0  0  0  0  0  0  0  0
    1.8486    4.6321   -1.9448 H   0  0  0  0  0  0  0  0  0  0  0  0
    0.1621    3.5292   -1.4120 H   0  0  0  0  0  0  0  0  0  0  0  0
   -0.9932    3.1879   -0.1836 H   0  0  0  0  0  0  0  0  0  0  0  0
    1.1094    6.6874   -3.0116 H   0  0  0  0  0  0  0  0  0  0  0  0
   -0.0960    6.2600   -1.8298 H   0  0  0  0  0  0  0  0  0  0  0  0
   -1.3383    1.8922    1.4132 H   0  0  0  0  0  0  0  0  0  0  0  0
   -1.3569    1.1127   -0.0345 H   0  0  0  0  0  0  0  0  0  0  0  0
    1.1014    8.8338    0.3520 H   0  0  0  0  0  0  0  0  0  0  0  0
  1 15  1  0  0  0  0
  1 16  1  0  0  0  0
  1 17  1  0  0  0  0
  2 18  1  0  0  0  0
  2 19  1  0  0  0  0
  3  2  1  0  0  0  0
  3 20  1  0  0  0  0
  3 21  1  0  0  0  0
  4  2  1  0  0  0  0
  4 22  1  0  0  0  0
  4 23  1  0  0  0  0
  5  3  1  0  0  0  0
  5 24  1  0  0  0  0
  5 25  1  0  0  0  0
  6  4  1  0  0  0  0
  6 26  1  0  0  0  0
  6 27  1  0  0  0  0
  7  1  1  0  0  0  0
  7 10  1  0  0  0  0
  7 14  1  1  0  0  0
  8  5  1  0  0  0  0
  8  7  1  0  0  0  0
  9  6  1  0  0  0  0
 10 28  1  0  0  0  0
 10 29  1  0  0  0  0
 11  8  2  0  0  0  0
 12  9  2  0  0  0  0
 13  9  1  0  0  0  0
 13 30  1  0  0  0  0
M  END
>  <DRUGBANK_ID>
DB02274

>  <SECONDARY_ACCESSION_NUMBERS>
EXPT01962

>  <COMMON_NAME>
7-Keto-8-Aminopelargonic Acid

>  <CAS_NUMBER>
4707-58-8

>  <UNII>
D0SI1JMK5I

$$$$
