
 OpenBabel10282417133D

 76 75  0  0  1  0  0  0  0  0999 V2000
   -4.7858   -1.1177    2.2359 C   0  0  0  0  0  0  0  0  0  0  0  0
   -8.9600   -1.1149    0.1463 C   0  0  0  0  0  0  0  0  0  0  0  0
   -3.3303   -1.3148    1.9776 C   0  0  0  0  0  0  0  0  0  0  0  0
   -8.8816    0.4158    0.1850 C   0  0  0  0  0  0  0  0  0  0  0  0
   -2.9940   -2.0945    0.6115 C   0  0  0  0  0  0  0  0  0  0  0  0
   -7.7829    0.8185    1.0940 C   0  0  0  0  0  0  0  0  0  0  0  0
   -3.5784   -1.7910   -1.0568 C   0  0  0  0  0  0  0  0  0  0  0  0
   -6.6551    0.1876    0.4102 C   0  0  0  0  0  0  0  0  0  0  0  0
   -2.9176   -0.7124   -2.2607 C   0  0  0  0  0  0  0  0  0  0  0  0
   -1.3089    0.2267   -1.9400 C   0  0  0  0  0  0  0  0  0  0  0  0
   -6.3797    0.6330   -1.0200 C   0  0  0  0  0  0  0  0  0  0  0  0
   -0.4437   -0.2558   -2.9566 C   0  0  0  0  0  0  0  0  0  0  0  0
   -6.0377    2.1032   -0.9644 C   0  0  0  0  0  0  0  0  0  0  0  0
   -2.3131    2.8486    3.4759 C   0  0  0  0  0  0  0  0  0  0  0  0
   -1.0123    0.5217   -4.1064 C   0  0  0  0  0  0  0  0  0  0  0  0
   -2.6437    1.7023    2.4469 C   0  0  0  0  0  0  0  0  0  0  0  0
   -5.0754    2.3737    0.1735 C   0  0  0  0  0  0  0  0  0  0  0  0
   -1.2695    2.8363   -3.1866 C   0  0  0  0  0  0  0  0  0  0  0  0
   -3.2142    4.1248   -2.2456 C   0  0  0  0  0  0  0  0  0  0  0  0
   -2.8446    2.8251   -2.9945 C   0  0  2  0  0  0  0  0  0  0  0  0
   -1.9213    4.2104    3.1339 N   0  0  0  0  0  0  0  0  0  0  0  0
   -2.3197    0.1154   -0.2191 O   0  0  0  0  0  0  0  0  0  0  0  0
   -4.4043    0.1568    0.3088 O   0  0  0  0  0  0  0  0  0  0  0  0
   -2.6093    3.8420    1.1103 O   0  0  0  0  0  0  0  0  0  0  0  0
   -3.4063    2.8087   -0.6343 O   0  0  0  0  0  0  0  0  0  0  0  0
   -0.6529    1.9097   -4.1130 O   0  0  0  0  0  0  0  0  0  0  0  0
   -1.9797    1.3965    1.1026 O   0  0  0  0  0  0  0  0  0  0  0  0
   -2.3260    4.0930   -1.0376 O   0  0  0  0  0  0  0  0  0  0  0  0
   -3.5093    1.5766   -2.3591 O   0  0  0  0  0  0  0  0  0  0  0  0
   -3.6086    0.9509   -0.7275 P   0  0  3  0  0  0  0  0  0  0  0  0
   -2.1529    2.7448    0.0325 P   0  0  3  0  0  0  0  0  0  0  0  0
   -3.2826    2.8794   -4.0024 H   0  0  0  0  0  0  0  0  0  0  0  0
   -5.0818   -1.1441    1.2228 H   0  0  0  0  0  0  0  0  0  0  0  0
   -5.0526   -0.1496    2.7063 H   0  0  0  0  0  0  0  0  0  0  0  0
   -5.4628   -1.9233    2.4568 H   0  0  0  0  0  0  0  0  0  0  0  0
   -9.0746   -1.4947    1.1653 H   0  0  0  0  0  0  0  0  0  0  0  0
   -9.7650   -1.4124   -0.5084 H   0  0  0  0  0  0  0  0  0  0  0  0
   -8.0790   -1.6364   -0.2675 H   0  0  0  0  0  0  0  0  0  0  0  0
   -2.8810   -0.3623    1.8306 H   0  0  0  0  0  0  0  0  0  0  0  0
   -2.8228   -1.5786    2.9110 H   0  0  0  0  0  0  0  0  0  0  0  0
   -9.7727    0.9163    0.5203 H   0  0  0  0  0  0  0  0  0  0  0  0
   -8.6864    0.7946   -0.8233 H   0  0  0  0  0  0  0  0  0  0  0  0
   -1.8987   -2.0528    0.6262 H   0  0  0  0  0  0  0  0  0  0  0  0
   -3.3169   -3.1045    0.7938 H   0  0  0  0  0  0  0  0  0  0  0  0
   -7.8080    0.4219    2.1181 H   0  0  0  0  0  0  0  0  0  0  0  0
   -7.5833    1.8950    1.1798 H   0  0  0  0  0  0  0  0  0  0  0  0
   -3.4265   -2.6798   -1.6292 H   0  0  0  0  0  0  0  0  0  0  0  0
   -4.6765   -1.6381   -0.9658 H   0  0  0  0  0  0  0  0  0  0  0  0
   -6.6074   -0.8957    0.4717 H   0  0  0  0  0  0  0  0  0  0  0  0
   -5.9739    0.5641    1.1439 H   0  0  0  0  0  0  0  0  0  0  0  0
   -3.1849   -0.6719   -3.3381 H   0  0  0  0  0  0  0  0  0  0  0  0
   -3.9028   -0.1849   -2.3154 H   0  0  0  0  0  0  0  0  0  0  0  0
   -1.2657    1.2857   -1.6424 H   0  0  0  0  0  0  0  0  0  0  0  0
   -0.6449   -0.0160   -1.0620 H   0  0  0  0  0  0  0  0  0  0  0  0
   -7.1108    0.3818   -1.7740 H   0  0  0  0  0  0  0  0  0  0  0  0
   -5.5841    0.0192   -1.4235 H   0  0  0  0  0  0  0  0  0  0  0  0
    0.5869   -0.0654   -2.6401 H   0  0  0  0  0  0  0  0  0  0  0  0
   -0.6720   -1.3229   -2.8251 H   0  0  0  0  0  0  0  0  0  0  0  0
   -6.8717    2.7428   -0.7509 H   0  0  0  0  0  0  0  0  0  0  0  0
   -5.5930    2.3816   -1.9235 H   0  0  0  0  0  0  0  0  0  0  0  0
   -3.1637    2.9142    4.1697 H   0  0  0  0  0  0  0  0  0  0  0  0
   -1.4109    2.5156    3.9642 H   0  0  0  0  0  0  0  0  0  0  0  0
   -0.6476   -0.0247   -4.9660 H   0  0  0  0  0  0  0  0  0  0  0  0
   -2.0951    0.5036   -4.2170 H   0  0  0  0  0  0  0  0  0  0  0  0
   -3.7174    1.7193    2.2936 H   0  0  0  0  0  0  0  0  0  0  0  0
   -2.4456    0.8475    3.0977 H   0  0  0  0  0  0  0  0  0  0  0  0
   -5.1797    2.1267    1.2202 H   0  0  0  0  0  0  0  0  0  0  0  0
   -4.8495    3.4546    0.2235 H   0  0  0  0  0  0  0  0  0  0  0  0
   -0.7430    2.8078   -2.2286 H   0  0  0  0  0  0  0  0  0  0  0  0
   -0.9358    3.8431   -3.4899 H   0  0  0  0  0  0  0  0  0  0  0  0
   -3.1069    5.0806   -2.7790 H   0  0  0  0  0  0  0  0  0  0  0  0
   -4.2769    4.1497   -1.9338 H   0  0  0  0  0  0  0  0  0  0  0  0
   -2.7700    4.7675    2.9625 H   0  0  0  0  0  0  0  0  0  0  0  0
   -1.6319    3.9904    2.1815 H   0  0  0  0  0  0  0  0  0  0  0  0
   -2.0200   -0.7850   -0.5071 H   0  0  0  0  0  0  0  0  0  0  0  0
   -2.3405    4.7646    0.9076 H   0  0  0  0  0  0  0  0  0  0  0  0
  1 33  1  0  0  0  0
  1 34  1  0  0  0  0
  1 35  1  0  0  0  0
  2 36  1  0  0  0  0
  2 37  1  0  0  0  0
  2 38  1  0  0  0  0
  3  1  1  0  0  0  0
  3 39  1  0  0  0  0
  3 40  1  0  0  0  0
  4  2  1  0  0  0  0
  4 41  1  0  0  0  0
  4 42  1  0  0  0  0
  5  3  1  0  0  0  0
  5 43  1  0  0  0  0
  5 44  1  0  0  0  0
  6  4  1  0  0  0  0
  6 45  1  0  0  0  0
  6 46  1  0  0  0  0
  7  5  1  0  0  0  0
  7 47  1  0  0  0  0
  7 48  1  0  0  0  0
  8  6  1  0  0  0  0
  8 49  1  0  0  0  0
  8 50  1  0  0  0  0
  9  7  1  0  0  0  0
  9 51  1  0  0  0  0
  9 52  1  0  0  0  0
 10  9  1  0  0  0  0
 10 53  1  0  0  0  0
 10 54  1  0  0  0  0
 11  8  1  0  0  0  0
 11 55  1  0  0  0  0
 11 56  1  0  0  0  0
 12 10  1  0  0  0  0
 12 57  1  0  0  0  0
 12 58  1  0  0  0  0
 13 11  1  0  0  0  0
 13 59  1  0  0  0  0
 13 60  1  0  0  0  0
 14 61  1  0  0  0  0
 14 62  1  0  0  0  0
 15 12  1  0  0  0  0
 15 63  1  0  0  0  0
 15 64  1  0  0  0  0
 16 14  1  0  0  0  0
 16 65  1  0  0  0  0
 16 66  1  0  0  0  0
 17 13  1  0  0  0  0
 17 67  1  0  0  0  0
 17 68  1  0  0  0  0
 18 69  1  0  0  0  0
 18 70  1  0  0  0  0
 19 71  1  0  0  0  0
 19 72  1  0  0  0  0
 20 29  1  0  0  0  0
 20 32  1  6  0  0  0
 20 19  1  0  0  0  0
 20 18  1  0  0  0  0
 21 14  1  0  0  0  0
 21 73  1  0  0  0  0
 21 74  1  0  0  0  0
 22 75  1  0  0  0  0
 24 76  1  0  0  0  0
 26 15  1  0  0  0  0
 26 18  1  0  0  0  0
 27 16  1  0  0  0  0
 28 19  1  0  0  0  0
 30 17  1  0  0  0  0
 30 22  1  0  0  0  0
 30 23  2  0  0  0  0
 30 29  1  0  0  0  0
 31 24  1  0  0  0  0
 31 25  2  0  0  0  0
 31 27  1  0  0  0  0
 31 28  1  0  0  0  0
M  END
>  <DRUGBANK_ID>
DB03565

>  <SECONDARY_ACCESSION_NUMBERS>
EXPT01580

>  <COMMON_NAME>
1-O-Octyl-2-Heptylphosphonyl-Sn-Glycero-3-Phosphoethanolamine

$$$$
