
 OpenBabel10282417233D

 27 29  0  0  0  0  0  0  0  0999 V2000
    0.6746    1.2263   -0.0016 C   0  0  0  0  0  0  0  0  0  0  0  0
    0.7686   -1.1781   -0.0240 C   0  0  0  0  0  0  0  0  0  0  0  0
    6.2031   -0.5119   -1.3309 C   0  0  0  0  0  0  0  0  0  0  0  0
   -0.7035    1.1233   -0.0064 C   0  0  0  0  0  0  0  0  0  0  0  0
   -0.6149   -1.1757   -0.0104 C   0  0  0  0  0  0  0  0  0  0  0  0
    7.4950   -0.0480   -0.6164 C   0  0  0  0  0  0  0  0  0  0  0  0
    3.6728    0.7136    1.0112 C   0  0  0  0  0  0  0  0  0  0  0  0
    1.4230    0.0509   -0.0136 C   0  0  0  0  0  0  0  0  0  0  0  0
    5.0130    0.5322    0.6193 C   0  0  0  0  0  0  0  0  0  0  0  0
    4.9956   -0.1471   -0.5709 C   0  0  0  0  0  0  0  0  0  0  0  0
    2.8710    0.1226    0.0487 C   0  0  0  0  0  0  0  0  0  0  0  0
    6.2576    0.9116    1.2062 C   0  0  0  0  0  0  0  0  0  0  0  0
   -1.3664   -0.0530   -0.0097 N   0  0  0  0  0  0  0  0  0  0  0  0
    7.4017    0.6613    0.6859 N   0  0  0  0  0  0  0  0  0  0  0  0
    3.7012   -0.4055   -0.9175 N   0  0  0  0  0  0  0  0  0  0  0  0
    6.1957    1.5708    2.3728 O   0  0  0  0  0  0  0  0  0  0  0  0
    1.1540    2.1994    0.0156 H   0  0  0  0  0  0  0  0  0  0  0  0
    1.3157   -2.1139   -0.0036 H   0  0  0  0  0  0  0  0  0  0  0  0
    6.1620   -0.0541   -2.3265 H   0  0  0  0  0  0  0  0  0  0  0  0
    6.2382   -1.5971   -1.4834 H   0  0  0  0  0  0  0  0  0  0  0  0
   -1.3272    2.0120   -0.0012 H   0  0  0  0  0  0  0  0  0  0  0  0
   -1.1735   -2.1066    0.0132 H   0  0  0  0  0  0  0  0  0  0  0  0
    8.0382    0.6123   -1.3026 H   0  0  0  0  0  0  0  0  0  0  0  0
    8.1381   -0.9241   -0.4707 H   0  0  0  0  0  0  0  0  0  0  0  0
    3.3253    1.2145    1.9054 H   0  0  0  0  0  0  0  0  0  0  0  0
    3.3919   -0.8796   -1.7570 H   0  0  0  0  0  0  0  0  0  0  0  0
    7.1091    1.7584    2.6387 H   0  0  0  0  0  0  0  0  0  0  0  0
  1 17  1  0  0  0  0
  2 18  1  0  0  0  0
  3 19  1  0  0  0  0
  3 20  1  0  0  0  0
  4  1  1  0  0  0  0
  4 21  1  0  0  0  0
  5  2  2  0  0  0  0
  5 22  1  0  0  0  0
  6  3  1  0  0  0  0
  6 23  1  0  0  0  0
  6 24  1  0  0  0  0
  7 25  1  0  0  0  0
  8  1  2  0  0  0  0
  8  2  1  0  0  0  0
  9  7  1  0  0  0  0
 10  3  1  0  0  0  0
 10  9  2  0  0  0  0
 11  7  2  0  0  0  0
 11  8  1  0  0  0  0
 12  9  1  0  0  0  0
 13  4  2  0  0  0  0
 13  5  1  0  0  0  0
 14  6  1  0  0  0  0
 14 12  2  0  0  0  0
 15 10  1  0  0  0  0
 15 11  1  0  0  0  0
 15 26  1  0  0  0  0
 16 12  1  0  0  0  0
 16 27  1  0  0  0  0
M  END
>  <DRUGBANK_ID>
DB17043

>  <COMMON_NAME>
PHA-767491

>  <CAS_NUMBER>
845714-00-3

>  <UNII>
5M2GUN688C

$$$$
