
 OpenBabel10282417183D

 13 13  0  0  0  0  0  0  0  0999 V2000
    1.0217   -0.1336    0.1324 Cl  0  0  0  0  0  0  0  0  0  0  0  0
    2.7411    2.2704   -0.0221 O   0  0  0  0  0  0  0  0  0  0  0  0
    6.7521   -0.2159   -0.4530 O   0  0  0  0  0  0  0  0  0  0  0  0
    4.7804   -1.3166   -0.1042 N   0  0  0  0  0  0  0  0  0  0  0  0
    3.4855    1.1099   -0.0395 C   0  0  0  0  0  0  0  0  0  0  0  0
    2.7435   -0.1377    0.0403 C   0  0  0  0  0  0  0  0  0  0  0  0
    4.8273    1.1079   -0.0882 C   0  0  0  0  0  0  0  0  0  0  0  0
    3.4152   -1.2986    0.0563 C   0  0  0  0  0  0  0  0  0  0  0  0
    5.5452   -0.1842   -0.2272 C   0  0  0  0  0  0  0  0  0  0  0  0
    3.3302    3.0314   -0.1578 H   0  0  0  0  0  0  0  0  0  0  0  0
    5.2696   -2.1984   -0.2085 H   0  0  0  0  0  0  0  0  0  0  0  0
    5.4393    1.9980   -0.0646 H   0  0  0  0  0  0  0  0  0  0  0  0
    2.9274   -2.2613    0.1689 H   0  0  0  0  0  0  0  0  0  0  0  0
  1  6  1  0  0  0  0
  2  5  1  0  0  0  0
  2 10  1  0  0  0  0
  3  9  2  0  0  0  0
  4  8  1  0  0  0  0
  4  9  1  0  0  0  0
  4 11  1  0  0  0  0
  5  6  1  0  0  0  0
  5  7  2  0  0  0  0
  6  8  2  0  0  0  0
  7  9  1  0  0  0  0
  7 12  1  0  0  0  0
  8 13  1  0  0  0  0
M  END
>  <DRUGBANK_ID>
DB09257

>  <COMMON_NAME>
Gimeracil

>  <CAS_NUMBER>
103766-25-2

>  <UNII>
UA8SE1325T

>  <SYNONYMS>
5-Chloro-2,4-dihydroxypyridine; 5-Chloro-4-hydroxy-2-pyridone; Gimeracil; gimestat; Teysuno; Ts-1 (TN)

$$$$
