
 OpenBabel10282417123D

  7  6  0  0  0  0  0  0  0  0999 V2000
    1.2340   -0.0081    0.4880 O   0  0  0  0  0  0  0  0  0  0  0  0
    2.5397    0.0307   -0.2429 P   0  0  0  0  0  0  0  0  0  0  0  0
    3.8637   -0.0331    0.4478 O   0  5  0  0  0  0  0  0  0  0  0  0
    2.4670   -1.1298   -1.3457 O   0  0  0  0  0  0  0  0  0  0  0  0
    2.4696   -1.9485   -0.8251 H   0  0  0  0  0  0  0  0  0  0  0  0
    2.4445    1.3230   -1.1831 O   0  0  0  0  0  0  0  0  0  0  0  0
    1.6130    1.7339   -0.8907 H   0  0  0  0  0  0  0  0  0  0  0  0
  2  4  1  0  0  0  0
  2  1  2  0  0  0  0
  2  6  1  0  0  0  0
  2  3  1  0  0  0  0
  4  5  1  0  0  0  0
  6  7  1  0  0  0  0
M  CHG  1   3  -1
M  END
>  <DRUGBANK_ID>
DB02831

>  <SECONDARY_ACCESSION_NUMBERS>
EXPT00124

>  <COMMON_NAME>
Dihydrogenphosphate

>  <CAS_NUMBER>
29505-79-1

>  <SYNONYMS>
Dihydrogenphosphate ion

$$$$
