
 OpenBabel10282417193D

 33 34  0  0  1  0  0  0  0  0999 V2000
    4.4758   -3.0027   -0.6976 C   0  0  0  0  0  0  0  0  0  0  0  0
    3.2406   -3.4046   -1.2698 O   0  0  0  0  0  0  0  0  0  0  0  0
    2.1876   -2.6548   -0.8632 C   0  0  0  0  0  0  0  0  0  0  0  0
    2.2159   -1.7624   -0.0201 O   0  0  0  0  0  0  0  0  0  0  0  0
    0.9486   -3.1270   -1.5286 C   0  0  0  0  0  0  0  0  0  0  0  0
    0.8628   -2.9654   -3.0721 C   0  0  2  0  0  0  0  0  0  0  0  0
    0.3130   -4.3451   -3.5372 C   0  0  0  0  0  0  0  0  0  0  0  0
    1.5915   -5.1530   -3.7935 C   0  0  1  0  0  0  0  0  0  0  0  0
    1.6401   -5.9653   -5.0985 C   0  0  0  0  0  0  0  0  0  0  0  0
    2.0229   -4.6537   -5.8198 C   0  0  0  0  0  0  0  0  0  0  0  0
    2.5671   -4.1514   -4.4408 C   0  0  1  0  0  0  0  0  0  0  0  0
    2.1430   -2.7800   -3.9549 C   0  0  0  0  0  0  0  0  0  0  0  0
   -0.0000   -1.7204   -3.3762 C   0  0  0  0  0  0  0  0  0  0  0  0
   -0.7250   -1.9413   -4.6133 N   0  0  0  0  0  0  0  0  0  0  0  0
    5.2647   -3.6108   -1.1449 H   0  0  0  0  0  0  0  0  0  0  0  0
    4.4581   -3.1773    0.3811 H   0  0  0  0  0  0  0  0  0  0  0  0
    4.6732   -1.9508   -0.9251 H   0  0  0  0  0  0  0  0  0  0  0  0
    0.8220   -4.1710   -1.2041 H   0  0  0  0  0  0  0  0  0  0  0  0
    0.0941   -2.6312   -1.0467 H   0  0  0  0  0  0  0  0  0  0  0  0
   -0.3162   -4.8434   -2.7903 H   0  0  0  0  0  0  0  0  0  0  0  0
   -0.2994   -4.2923   -4.4403 H   0  0  0  0  0  0  0  0  0  0  0  0
    1.9857   -5.6566   -2.9042 H   0  0  0  0  0  0  0  0  0  0  0  0
    0.6961   -6.4342   -5.3862 H   0  0  0  0  0  0  0  0  0  0  0  0
    2.4353   -6.7180   -5.1158 H   0  0  0  0  0  0  0  0  0  0  0  0
    1.1634   -4.0958   -6.2144 H   0  0  0  0  0  0  0  0  0  0  0  0
    2.7576   -4.7569   -6.6211 H   0  0  0  0  0  0  0  0  0  0  0  0
    3.6387   -4.3444   -4.3216 H   0  0  0  0  0  0  0  0  0  0  0  0
    1.9396   -2.1726   -4.8486 H   0  0  0  0  0  0  0  0  0  0  0  0
    2.9416   -2.2375   -3.4407 H   0  0  0  0  0  0  0  0  0  0  0  0
   -0.6923   -1.4737   -2.5678 H   0  0  0  0  0  0  0  0  0  0  0  0
    0.6443   -0.8295   -3.4790 H   0  0  0  0  0  0  0  0  0  0  0  0
   -1.4687   -1.2682   -4.7419 H   0  0  0  0  0  0  0  0  0  0  0  0
   -0.0909   -1.8966   -5.4086 H   0  0  0  0  0  0  0  0  0  0  0  0
  1  2  1  0  0  0  0
  1 15  1  0  0  0  0
  1 16  1  0  0  0  0
  1 17  1  0  0  0  0
  2  3  1  0  0  0  0
  3  4  2  0  0  0  0
  3  5  1  0  0  0  0
  5 18  1  0  0  0  0
  5 19  1  0  0  0  0
  6  7  1  0  0  0  0
  6 12  1  0  0  0  0
  6 13  1  6  0  0  0
  6  5  1  0  0  0  0
  7  8  1  0  0  0  0
  7 20  1  0  0  0  0
  7 21  1  0  0  0  0
  8  9  1  0  0  0  0
  8 11  1  0  0  0  0
  8 22  1  1  0  0  0
  9 10  1  0  0  0  0
  9 23  1  0  0  0  0
  9 24  1  0  0  0  0
 10 25  1  0  0  0  0
 10 26  1  0  0  0  0
 11 10  1  0  0  0  0
 11 12  1  0  0  0  0
 11 27  1  1  0  0  0
 12 28  1  0  0  0  0
 12 29  1  0  0  0  0
 13 14  1  0  0  0  0
 13 30  1  0  0  0  0
 13 31  1  0  0  0  0
 14 32  1  0  0  0  0
 14 33  1  0  0  0  0
M  END
>  <DRUGBANK_ID>
DB12493

>  <COMMON_NAME>
PD-217014

>  <CAS_NUMBER>
444088-20-4

>  <UNII>
K2T93E812G

$$$$
