
 OpenBabel10282417183D

 44 45  0  0  0  0  0  0  0  0999 V2000
    0.8175   -0.0168   -0.0281 C   0  0  0  0  0  0  0  0  0  0  0  0
    0.1536   -1.1697    0.0558 N   0  0  0  0  0  0  0  0  0  0  0  0
    0.2105    1.0927    0.0229 O   0  0  0  0  0  0  0  0  0  0  0  0
    2.2221   -0.1648   -0.2642 C   0  0  0  0  0  0  0  0  0  0  0  0
    3.0338   -1.7190   -0.2747 S   0  0  0  0  0  0  0  0  0  0  0  0
    3.0616    0.8706   -0.5109 C   0  0  0  0  0  0  0  0  0  0  0  0
    4.5862   -1.0807   -0.7004 C   0  0  0  0  0  0  0  0  0  0  0  0
    4.3123    0.3472   -0.9765 C   0  0  0  0  0  0  0  0  0  0  0  0
    6.1984   -1.9636   -0.4263 C   0  0  0  0  0  0  0  0  0  0  0  0
    7.1998   -1.8749    0.8126 N   0  0  0  0  0  0  0  0  0  0  0  0
    6.9823   -2.2499   -1.5084 C   0  0  0  0  0  0  0  0  0  0  0  0
    8.4881   -1.8081    0.5126 C   0  0  0  0  0  0  0  0  0  0  0  0
    8.6932   -2.3455   -1.1327 S   0  0  0  0  0  0  0  0  0  0  0  0
    9.9094   -1.3586    1.5987 S   0  0  0  0  0  0  0  0  0  0  0  0
    9.4964   -0.2394    3.0825 C   0  0  0  0  0  0  0  0  0  0  0  0
    9.1996    1.2595    2.8368 C   0  0  3  0  0  0  0  0  0  0  0  0
    7.9798    1.3607    2.0219 C   0  0  0  0  0  0  0  0  0  0  0  0
    8.8944    1.9801    4.0284 O   0  0  0  0  0  0  0  0  0  0  0  0
    6.8057    0.8066    2.8059 N   0  0  0  0  0  0  0  0  0  0  0  0
    5.5564    0.8980    2.0176 C   0  0  0  0  0  0  0  0  0  0  0  0
    6.0703    0.2198    0.8546 C   0  0  0  0  0  0  0  0  0  0  0  0
    4.4151    0.0275    2.6609 C   0  0  0  0  0  0  0  0  0  0  0  0
    5.1607    2.2774    1.6074 C   0  0  0  0  0  0  0  0  0  0  0  0
   -0.8516   -1.1740    0.0155 H   0  0  0  0  0  0  0  0  0  0  0  0
    0.6893   -2.0271   -0.0434 H   0  0  0  0  0  0  0  0  0  0  0  0
    2.7764    1.9285   -0.3791 H   0  0  0  0  0  0  0  0  0  0  0  0
    5.0370    1.1553   -1.1527 H   0  0  0  0  0  0  0  0  0  0  0  0
    6.6075   -2.3362   -2.5070 H   0  0  0  0  0  0  0  0  0  0  0  0
    8.7148   -0.7112    3.6873 H   0  0  0  0  0  0  0  0  0  0  0  0
   10.3551   -0.2046    3.7703 H   0  0  0  0  0  0  0  0  0  0  0  0
   10.0045    1.7575    2.2860 H   0  0  0  0  0  0  0  0  0  0  0  0
    7.7555    2.3701    1.6816 H   0  0  0  0  0  0  0  0  0  0  0  0
    8.3608    0.8217    1.1446 H   0  0  0  0  0  0  0  0  0  0  0  0
    7.9578    1.7341    4.2209 H   0  0  0  0  0  0  0  0  0  0  0  0
    6.9657   -0.2152    2.8941 H   0  0  0  0  0  0  0  0  0  0  0  0
    5.8543   -0.7613    1.2186 H   0  0  0  0  0  0  0  0  0  0  0  0
    6.0683    0.2380   -0.2067 H   0  0  0  0  0  0  0  0  0  0  0  0
    7.0023    0.5592    0.4848 H   0  0  0  0  0  0  0  0  0  0  0  0
    4.0541    0.4741    3.5809 H   0  0  0  0  0  0  0  0  0  0  0  0
    3.5455   -0.1012    2.0119 H   0  0  0  0  0  0  0  0  0  0  0  0
    4.7182   -1.0143    2.8909 H   0  0  0  0  0  0  0  0  0  0  0  0
    5.0246    2.8856    2.4900 H   0  0  0  0  0  0  0  0  0  0  0  0
    5.9053    2.7007    0.9241 H   0  0  0  0  0  0  0  0  0  0  0  0
    4.2369    2.2947    1.0467 H   0  0  0  0  0  0  0  0  0  0  0  0
  1  2  1  0  0  0  0
  1  3  2  0  0  0  0
  1  4  1  0  0  0  0
  2 24  1  0  0  0  0
  2 25  1  0  0  0  0
  4  5  1  0  0  0  0
  4  6  2  0  0  0  0
  5  7  1  0  0  0  0
  6  8  1  0  0  0  0
  6 26  1  0  0  0  0
  7  8  2  0  0  0  0
  7  9  1  0  0  0  0
  8 27  1  0  0  0  0
  9 10  1  0  0  0  0
  9 11  2  0  0  0  0
 10 12  2  0  0  0  0
 11 13  1  0  0  0  0
 11 28  1  0  0  0  0
 12 13  1  0  0  0  0
 12 14  1  0  0  0  0
 14 15  1  0  0  0  0
 15 29  1  0  0  0  0
 15 30  1  0  0  0  0
 16 15  1  0  0  0  0
 16 17  1  0  0  0  0
 16 18  1  0  0  0  0
 16 31  1  0  0  0  0
 17 19  1  0  0  0  0
 17 32  1  0  0  0  0
 17 33  1  0  0  0  0
 18 34  1  0  0  0  0
 19 20  1  0  0  0  0
 19 35  1  0  0  0  0
 20 21  1  0  0  0  0
 20 22  1  0  0  0  0
 20 23  1  0  0  0  0
 21 36  1  0  0  0  0
 21 37  1  0  0  0  0
 21 38  1  0  0  0  0
 22 39  1  0  0  0  0
 22 40  1  0  0  0  0
 22 41  1  0  0  0  0
 23 42  1  0  0  0  0
 23 43  1  0  0  0  0
 23 44  1  0  0  0  0
M  END
>  <DRUGBANK_ID>
DB09204

>  <COMMON_NAME>
Arotinolol

>  <CAS_NUMBER>
68377-92-4

>  <UNII>
394E3P3B99

>  <SYNONYMS>
Arotinolol

$$$$
