
 OpenBabel10282417103D

 22 21  0  0  1  0  0  0  0  0999 V2000
   -0.5985   -3.6652   -0.7591 O   0  0  0  0  0  0  0  0  0  0  0  0
    0.9395    0.8298   -2.5500 C   0  0  0  0  0  0  0  0  0  0  0  0
    0.3958   -0.9875   -0.8462 C   0  0  0  0  0  0  0  0  0  0  0  0
    0.6963   -3.5102   -1.1165 C   0  0  0  0  0  0  0  0  0  0  0  0
    1.4816   -4.4530   -1.1178 O   0  0  0  0  0  0  0  0  0  0  0  0
    1.0568   -2.1188   -1.6485 C   0  0  1  0  0  0  0  0  0  0  0  0
    0.7068   -2.0385   -3.0745 N   0  0  0  0  0  0  0  0  0  0  0  0
    1.0406    0.3875   -1.0902 C   0  0  0  0  0  0  0  0  0  0  0  0
    0.3659    1.4337   -0.2062 C   0  0  0  0  0  0  0  0  0  0  0  0
   -1.1441   -2.8628   -0.8516 H   0  0  0  0  0  0  0  0  0  0  0  0
   -0.1063    0.8429   -2.8784 H   0  0  0  0  0  0  0  0  0  0  0  0
    1.3654    1.8248   -2.6940 H   0  0  0  0  0  0  0  0  0  0  0  0
    1.5037    0.1721   -3.2144 H   0  0  0  0  0  0  0  0  0  0  0  0
   -0.6749   -0.9223   -1.0830 H   0  0  0  0  0  0  0  0  0  0  0  0
    0.4513   -1.2283    0.2252 H   0  0  0  0  0  0  0  0  0  0  0  0
    2.1444   -2.0118   -1.5394 H   0  0  0  0  0  0  0  0  0  0  0  0
    1.2284   -2.7396   -3.6009 H   0  0  0  0  0  0  0  0  0  0  0  0
   -0.2835   -2.1935   -3.2367 H   0  0  0  0  0  0  0  0  0  0  0  0
    2.1002    0.3291   -0.8110 H   0  0  0  0  0  0  0  0  0  0  0  0
    0.4514    1.1692    0.8524 H   0  0  0  0  0  0  0  0  0  0  0  0
    0.8327    2.4128   -0.3512 H   0  0  0  0  0  0  0  0  0  0  0  0
   -0.6985    1.5238   -0.4501 H   0  0  0  0  0  0  0  0  0  0  0  0
  1  4  1  0  0  0  0
  1 10  1  0  0  0  0
  2  8  1  0  0  0  0
  2 11  1  0  0  0  0
  2 12  1  0  0  0  0
  2 13  1  0  0  0  0
  3 14  1  0  0  0  0
  3 15  1  0  0  0  0
  4  5  2  0  0  0  0
  6  7  1  0  0  0  0
  6 16  1  1  0  0  0
  6  3  1  0  0  0  0
  6  4  1  0  0  0  0
  7 17  1  0  0  0  0
  7 18  1  0  0  0  0
  8  3  1  0  0  0  0
  8  9  1  0  0  0  0
  8 19  1  0  0  0  0
  9 20  1  0  0  0  0
  9 21  1  0  0  0  0
  9 22  1  0  0  0  0
M  END
>  <DRUGBANK_ID>
DB00149

>  <SECONDARY_ACCESSION_NUMBERS>
NUTR00033

>  <COMMON_NAME>
Leucine

>  <CAS_NUMBER>
61-90-5

>  <UNII>
GMW67QNF9C

>  <SYNONYMS>
(2S)-2-Amino-4-methylpentanoic acid; (2S)-alpha-2-Amino-4-methylvaleric acid; (2S)-alpha-Leucine; (S)-(+)-Leucine; (S)-Leucine; 2-Amino-4-methylvaleric acid; L; L-Leucin; L-Leucine; L-Leuzin; Leu; Leucine

$$$$
