1484
 OpenBabel10282417113D

 31 31  0  0  1  0  0  0  0  0999 V2000
   -1.5807    0.5348   -0.0227 Br  0  0  0  0  0  0  0  0  0  0  0  0
    3.0496    2.5093    0.1661 O   0  0  0  0  0  0  0  0  0  0  0  0
    0.3463   -2.3659   -0.0240 O   0  0  0  0  0  0  0  0  0  0  0  0
    4.6128    1.6145   -2.1681 N   0  0  0  0  0  0  0  0  0  0  0  0
    4.5856   -0.1206   -0.1573 C   0  0  0  0  0  0  0  0  0  0  0  0
    5.1675    0.4127   -1.5137 C   0  0  3  0  0  0  0  0  0  0  0  0
    3.1031    0.0217    0.0226 C   0  0  0  0  0  0  0  0  0  0  0  0
    2.4784    1.2670    0.1438 C   0  0  0  0  0  0  0  0  0  0  0  0
    6.6795    0.5846   -1.3189 C   0  0  0  0  0  0  0  0  0  0  0  0
    2.2982   -1.1452    0.0023 C   0  0  0  0  0  0  0  0  0  0  0  0
    0.8903   -1.1115    0.0110 C   0  0  0  0  0  0  0  0  0  0  0  0
    1.0843    1.3043    0.0939 C   0  0  0  0  0  0  0  0  0  0  0  0
    0.2830    0.1513    0.0313 C   0  0  0  0  0  0  0  0  0  0  0  0
    4.3703    2.7532    0.6412 C   0  0  0  0  0  0  0  0  0  0  0  0
   -1.0628   -2.5281   -0.0357 C   0  0  0  0  0  0  0  0  0  0  0  0
    5.2312    2.4212   -2.0996 H   0  0  0  0  0  0  0  0  0  0  0  0
    3.7316    1.9093   -1.7416 H   0  0  0  0  0  0  0  0  0  0  0  0
    5.0696    0.3174    0.7249 H   0  0  0  0  0  0  0  0  0  0  0  0
    4.8683   -1.1812   -0.0831 H   0  0  0  0  0  0  0  0  0  0  0  0
    4.9953   -0.3741   -2.2527 H   0  0  0  0  0  0  0  0  0  0  0  0
    7.1463   -0.3984   -1.2154 H   0  0  0  0  0  0  0  0  0  0  0  0
    7.1481    1.1034   -2.1598 H   0  0  0  0  0  0  0  0  0  0  0  0
    6.9197    1.1530   -0.4106 H   0  0  0  0  0  0  0  0  0  0  0  0
    2.7833   -2.1259   -0.0473 H   0  0  0  0  0  0  0  0  0  0  0  0
    0.6041    2.2844    0.0814 H   0  0  0  0  0  0  0  0  0  0  0  0
    4.5125    2.4509    1.6793 H   0  0  0  0  0  0  0  0  0  0  0  0
    5.1490    2.3029    0.0412 H   0  0  0  0  0  0  0  0  0  0  0  0
    4.5709    3.8220    0.5260 H   0  0  0  0  0  0  0  0  0  0  0  0
   -1.5101   -2.1211    0.8757 H   0  0  0  0  0  0  0  0  0  0  0  0
   -1.4936   -2.1075   -0.9490 H   0  0  0  0  0  0  0  0  0  0  0  0
   -1.2966   -3.5975   -0.0461 H   0  0  0  0  0  0  0  0  0  0  0  0
  1 13  1  0  0  0  0
  2  8  1  0  0  0  0
  2 14  1  0  0  0  0
  3 11  1  0  0  0  0
  3 15  1  0  0  0  0
  4  6  1  0  0  0  0
  4 16  1  0  0  0  0
  4 17  1  0  0  0  0
  5  6  1  0  0  0  0
  5  7  1  0  0  0  0
  5 18  1  0  0  0  0
  5 19  1  0  0  0  0
  6  9  1  0  0  0  0
  6 20  1  0  0  0  0
  7  8  1  0  0  0  0
  7 10  2  0  0  0  0
  8 12  2  0  0  0  0
  9 21  1  0  0  0  0
  9 22  1  0  0  0  0
  9 23  1  0  0  0  0
 10 11  1  0  0  0  0
 10 24  1  0  0  0  0
 11 13  2  0  0  0  0
 12 13  1  0  0  0  0
 12 25  1  0  0  0  0
 14 26  1  0  0  0  0
 14 27  1  0  0  0  0
 14 28  1  0  0  0  0
 15 29  1  0  0  0  0
 15 30  1  0  0  0  0
 15 31  1  0  0  0  0
M  END
>  <DRUGBANK_ID>
DB01484

>  <COMMON_NAME>
4-Bromo-2,5-dimethoxyamphetamine

>  <CAS_NUMBER>
32156-26-6

>  <UNII>
67WJC4Y2QY

$$$$
