
 OpenBabel10282417153D

 73 79  0  0  0  0  0  0  0  0999 V2000
    1.0712   -0.0726   -0.1054 C   0  0  0  0  0  0  0  0  0  0  0  0
    0.5375   -0.9724    0.8547 O   0  0  0  0  0  0  0  0  0  0  0  0
    0.8707   -2.3041    0.6392 C   0  0  0  0  0  0  0  0  0  0  0  0
    2.2212   -2.6314    0.5309 C   0  0  0  0  0  0  0  0  0  0  0  0
    2.6190   -3.9556    0.6717 C   0  0  0  0  0  0  0  0  0  0  0  0
    1.6846   -4.9562    0.9756 C   0  0  0  0  0  0  0  0  0  0  0  0
    0.3270   -4.6466    1.1622 C   0  0  0  0  0  0  0  0  0  0  0  0
   -0.1133   -3.3070    0.9518 C   0  0  0  0  0  0  0  0  0  0  0  0
   -1.4792   -2.8329    1.3172 C   0  0  0  0  0  0  0  0  0  0  0  0
   -2.1512   -1.7665    0.7384 C   0  0  0  0  0  0  0  0  0  0  0  0
   -3.5246   -2.0130    0.9467 C   0  0  0  0  0  0  0  0  0  0  0  0
   -3.6103   -2.7283    2.0925 N   0  0  0  0  0  0  0  0  0  0  0  0
   -2.2869   -3.0284    2.4297 N   0  0  0  0  0  0  0  0  0  0  0  0
   -1.9275   -3.3465    3.7845 C   0  0  0  0  0  0  0  0  0  0  0  0
   -2.8333   -3.0590    4.7679 C   0  0  0  0  0  0  0  0  0  0  0  0
   -2.5935   -3.5256    6.0453 C   0  0  0  0  0  0  0  0  0  0  0  0
   -1.4568   -4.1709    6.4247 N   0  0  0  0  0  0  0  0  0  0  0  0
   -0.4345   -4.1820    5.5499 C   0  0  0  0  0  0  0  0  0  0  0  0
   -0.6507   -3.6590    4.2716 C   0  0  0  0  0  0  0  0  0  0  0  0
    0.4737   -3.1992    3.6348 C   0  0  0  0  0  0  0  0  0  0  0  0
    1.7417   -3.6692    3.8735 C   0  0  0  0  0  0  0  0  0  0  0  0
    1.9571   -4.3700    5.0188 C   0  0  0  0  0  0  0  0  0  0  0  0
    0.8846   -4.5693    5.8901 C   0  0  0  0  0  0  0  0  0  0  0  0
    3.5842   -4.7776    5.3710 Cl  0  0  0  0  0  0  0  0  0  0  0  0
   -4.6819   -1.6900    0.0305 C   0  0  0  0  0  0  0  0  0  0  0  0
   -5.8526   -1.6469    0.4221 O   0  0  0  0  0  0  0  0  0  0  0  0
   -4.4846   -1.5008   -1.3502 N   0  0  0  0  0  0  0  0  0  0  0  0
   -3.2220   -1.5994   -2.1299 C   0  0  3  0  0  0  0  0  0  0  0  0
   -3.4190   -1.6623   -3.6876 C   0  0  3  0  0  0  0  0  0  0  0  0
   -4.2488   -2.9067   -4.0876 C   0  0  0  0  0  0  0  0  0  0  0  0
   -3.5479   -4.2069   -3.6534 C   0  0  3  0  0  0  0  0  0  0  0  0
   -2.1299   -4.3071   -4.2512 C   0  0  0  0  0  0  0  0  0  0  0  0
   -1.2926   -3.0695   -3.8910 C   0  0  3  0  0  0  0  0  0  0  0  0
   -2.0360   -1.8161   -4.3951 C   0  0  0  0  0  0  0  0  0  0  0  0
   -1.1478   -3.0501   -2.3775 C   0  0  0  0  0  0  0  0  0  0  0  0
   -2.5428   -2.9645   -1.7845 C   0  0  3  0  0  0  0  0  0  0  0  0
   -3.4119   -4.1691   -2.1530 C   0  0  0  0  0  0  0  0  0  0  0  0
   -2.5000   -0.2242   -1.8249 C   0  0  0  0  0  0  0  0  0  0  0  0
   -2.9544    0.7166   -1.1434 O   0  0  0  0  0  0  0  0  0  0  0  0
   -1.2510   -0.0927   -2.2839 O   0  0  0  0  0  0  0  0  0  0  0  0
   -0.5461   -5.5182    1.7860 O   0  0  0  0  0  0  0  0  0  0  0  0
    0.0078   -6.6069    2.5435 C   0  0  0  0  0  0  0  0  0  0  0  0
    0.6239    0.9147    0.0583 H   0  0  0  0  0  0  0  0  0  0  0  0
    0.8088   -0.4133   -1.1055 H   0  0  0  0  0  0  0  0  0  0  0  0
    2.1535    0.0386   -0.0201 H   0  0  0  0  0  0  0  0  0  0  0  0
    2.9822   -1.8550    0.5258 H   0  0  0  0  0  0  0  0  0  0  0  0
    3.6824   -4.1773    0.7376 H   0  0  0  0  0  0  0  0  0  0  0  0
    2.0790   -5.9302    1.2507 H   0  0  0  0  0  0  0  0  0  0  0  0
   -1.6758   -1.2477   -0.0621 H   0  0  0  0  0  0  0  0  0  0  0  0
   -3.5308   -2.2476    4.5805 H   0  0  0  0  0  0  0  0  0  0  0  0
   -3.3061   -3.3057    6.8327 H   0  0  0  0  0  0  0  0  0  0  0  0
    0.3442   -2.4022    2.9300 H   0  0  0  0  0  0  0  0  0  0  0  0
    2.5326   -3.4596    3.1690 H   0  0  0  0  0  0  0  0  0  0  0  0
    1.0876   -4.9795    6.8711 H   0  0  0  0  0  0  0  0  0  0  0  0
   -5.3239   -1.1982   -1.8336 H   0  0  0  0  0  0  0  0  0  0  0  0
   -3.9163   -0.7549   -4.0523 H   0  0  0  0  0  0  0  0  0  0  0  0
   -5.2451   -2.8477   -3.6335 H   0  0  0  0  0  0  0  0  0  0  0  0
   -4.3899   -2.9274   -5.1727 H   0  0  0  0  0  0  0  0  0  0  0  0
   -4.1424   -5.0821   -3.9299 H   0  0  0  0  0  0  0  0  0  0  0  0
   -2.1919   -4.4060   -5.3358 H   0  0  0  0  0  0  0  0  0  0  0  0
   -1.6282   -5.2030   -3.8599 H   0  0  0  0  0  0  0  0  0  0  0  0
   -0.2948   -3.1279   -4.3366 H   0  0  0  0  0  0  0  0  0  0  0  0
   -2.1748   -1.8860   -5.4790 H   0  0  0  0  0  0  0  0  0  0  0  0
   -1.4112   -0.9303   -4.2671 H   0  0  0  0  0  0  0  0  0  0  0  0
   -0.6469   -3.9523   -2.0067 H   0  0  0  0  0  0  0  0  0  0  0  0
   -0.5142   -2.2266   -2.0412 H   0  0  0  0  0  0  0  0  0  0  0  0
   -2.4526   -3.2051   -0.7565 H   0  0  0  0  0  0  0  0  0  0  0  0
   -2.9384   -5.0821   -1.7669 H   0  0  0  0  0  0  0  0  0  0  0  0
   -4.3902   -4.1123   -1.6563 H   0  0  0  0  0  0  0  0  0  0  0  0
   -0.9171    0.7718   -1.9661 H   0  0  0  0  0  0  0  0  0  0  0  0
    0.3638   -7.3789    1.8597 H   0  0  0  0  0  0  0  0  0  0  0  0
    0.8137   -6.3222    3.2331 H   0  0  0  0  0  0  0  0  0  0  0  0
   -0.7836   -7.0399    3.1675 H   0  0  0  0  0  0  0  0  0  0  0  0
  1  2  1  0  0  0  0
  1 43  1  0  0  0  0
  1 44  1  0  0  0  0
  1 45  1  0  0  0  0
  2  3  1  0  0  0  0
  3  4  2  0  0  0  0
  3  8  1  0  0  0  0
  4  5  1  0  0  0  0
  4 46  1  0  0  0  0
  5  6  2  0  0  0  0
  5 47  1  0  0  0  0
  6  7  1  0  0  0  0
  6 48  1  0  0  0  0
  7  8  2  0  0  0  0
  7 41  1  0  0  0  0
  8  9  1  0  0  0  0
  9 10  2  0  0  0  0
  9 13  1  0  0  0  0
 10 11  1  0  0  0  0
 10 49  1  0  0  0  0
 11 12  2  0  0  0  0
 11 25  1  0  0  0  0
 12 13  1  0  0  0  0
 13 14  1  0  0  0  0
 14 15  1  0  0  0  0
 14 19  2  0  0  0  0
 15 16  2  0  0  0  0
 15 50  1  0  0  0  0
 16 17  1  0  0  0  0
 16 51  1  0  0  0  0
 17 18  2  0  0  0  0
 18 19  1  0  0  0  0
 18 23  1  0  0  0  0
 19 20  1  0  0  0  0
 20 21  2  0  0  0  0
 20 52  1  0  0  0  0
 21 22  1  0  0  0  0
 21 53  1  0  0  0  0
 22 23  2  0  0  0  0
 22 24  1  0  0  0  0
 23 54  1  0  0  0  0
 25 26  2  0  0  0  0
 25 27  1  0  0  0  0
 27 28  1  0  0  0  0
 27 55  1  0  0  0  0
 28 29  1  0  0  0  0
 28 36  1  0  0  0  0
 28 38  1  0  0  0  0
 29 34  1  0  0  0  0
 29 30  1  0  0  0  0
 29 56  1  0  0  0  0
 30 31  1  0  0  0  0
 30 57  1  0  0  0  0
 30 58  1  0  0  0  0
 31 37  1  0  0  0  0
 31 32  1  0  0  0  0
 31 59  1  0  0  0  0
 32 33  1  0  0  0  0
 32 60  1  0  0  0  0
 32 61  1  0  0  0  0
 33 34  1  0  0  0  0
 33 35  1  0  0  0  0
 33 62  1  0  0  0  0
 34 63  1  0  0  0  0
 34 64  1  0  0  0  0
 35 36  1  0  0  0  0
 35 65  1  0  0  0  0
 35 66  1  0  0  0  0
 36 37  1  0  0  0  0
 36 67  1  0  0  0  0
 37 68  1  0  0  0  0
 37 69  1  0  0  0  0
 38 39  2  0  0  0  0
 38 40  1  0  0  0  0
 40 70  1  0  0  0  0
 41 42  1  0  0  0  0
 42 71  1  0  0  0  0
 42 72  1  0  0  0  0
 42 73  1  0  0  0  0
M  END
>  <DRUGBANK_ID>
DB06455

>  <COMMON_NAME>
Meclinertant

>  <CAS_NUMBER>
146362-70-1

>  <UNII>
5JBP4SI96H

>  <SYNONYMS>
Meclinertant; Reminertant

$$$$
