
 OpenBabel10282417153D

 45 44  0  0  1  0  0  0  0  0999 V2000
    0.0374    1.8805    0.0820 C   0  0  0  0  0  0  0  0  0  0  0  0
    1.9567    1.1509    0.3423 C   0  0  0  0  0  0  0  0  0  0  0  0
    1.9453   -1.2875    0.3383 S   0  0  0  0  0  0  0  0  0  0  0  0
   -0.5804   -1.5271   -0.3281 S   0  0  0  0  0  0  0  0  0  0  0  0
   -1.1609    0.6970   -0.6960 C   0  0  2  0  0  0  0  0  0  0  0  0
   -1.3393    1.0038   -2.2036 C   0  0  0  0  0  0  0  0  0  0  0  0
   -2.1505   -0.1150   -2.7724 C   0  0  0  0  0  0  0  0  0  0  0  0
   -3.5640    0.0185   -2.2732 C   0  0  0  0  0  0  0  0  0  0  0  0
   -4.1080    1.3903   -2.6645 C   0  0  0  0  0  0  0  0  0  0  0  0
   -4.0463    1.6079   -4.1634 C   0  0  0  0  0  0  0  0  0  0  0  0
   -5.0168    1.6705   -4.8963 O   0  0  0  0  0  0  0  0  0  0  0  0
   -2.7965    1.7069   -4.6675 O   0  0  0  0  0  0  0  0  0  0  0  0
    0.8610    0.2138   -0.8883 C   0  0  0  0  0  0  0  0  0  0  0  0
    0.3814    0.2627    1.2620 C   0  0  0  0  0  0  0  0  0  0  0  0
    0.9980    1.7652    2.2985 C   0  0  0  0  0  0  0  0  0  0  0  0
    1.0890    3.1445    1.7843 O   0  0  0  0  0  0  0  0  0  0  0  0
   -1.2292    0.0649    1.8876 C   0  0  0  0  0  0  0  0  0  0  0  0
   -1.8238   -1.2378    1.9315 O   0  0  0  0  0  0  0  0  0  0  0  0
    0.9307   -0.6822    2.4686 N   0  0  0  0  0  0  0  0  0  0  0  0
    1.0669    1.3325   -1.8851 O   0  0  0  0  0  0  0  0  0  0  0  0
   -0.5622    2.0935    1.0035 H   0  0  0  0  0  0  0  0  0  0  0  0
   -0.1101    2.8761   -0.3605 H   0  0  0  0  0  0  0  0  0  0  0  0
    2.5112    1.5642   -0.5188 H   0  0  0  0  0  0  0  0  0  0  0  0
    2.7085    1.4468    1.0580 H   0  0  0  0  0  0  0  0  0  0  0  0
   -2.1485    0.9954   -0.2858 H   0  0  0  0  0  0  0  0  0  0  0  0
   -1.6707    2.0498   -2.3401 H   0  0  0  0  0  0  0  0  0  0  0  0
   -0.4962    0.9868   -2.8781 H   0  0  0  0  0  0  0  0  0  0  0  0
   -2.0410   -0.1098   -3.8542 H   0  0  0  0  0  0  0  0  0  0  0  0
   -1.7245   -1.0853   -2.5409 H   0  0  0  0  0  0  0  0  0  0  0  0
   -4.1460   -0.8032   -2.6864 H   0  0  0  0  0  0  0  0  0  0  0  0
   -3.6108   -0.1020   -1.1798 H   0  0  0  0  0  0  0  0  0  0  0  0
   -5.1385    1.4635   -2.3187 H   0  0  0  0  0  0  0  0  0  0  0  0
   -3.5952    2.2182   -2.1573 H   0  0  0  0  0  0  0  0  0  0  0  0
   -2.8358    1.6057   -5.6419 H   0  0  0  0  0  0  0  0  0  0  0  0
    0.7094   -0.6317   -1.5991 H   0  0  0  0  0  0  0  0  0  0  0  0
    1.9545    0.0184   -1.1568 H   0  0  0  0  0  0  0  0  0  0  0  0
    0.4259    1.8442    3.2207 H   0  0  0  0  0  0  0  0  0  0  0  0
    2.0260    1.5703    2.6504 H   0  0  0  0  0  0  0  0  0  0  0  0
    1.3751    3.2318    0.8532 H   0  0  0  0  0  0  0  0  0  0  0  0
   -1.2607    0.3986    2.9258 H   0  0  0  0  0  0  0  0  0  0  0  0
   -1.9523    0.7167    1.4328 H   0  0  0  0  0  0  0  0  0  0  0  0
   -1.5981   -1.6843    1.0900 H   0  0  0  0  0  0  0  0  0  0  0  0
    1.9447   -0.7851    2.4090 H   0  0  0  0  0  0  0  0  0  0  0  0
    0.6277   -0.4575    3.4163 H   0  0  0  0  0  0  0  0  0  0  0  0
    0.8651    2.2255   -1.6105 H   0  0  0  0  0  0  0  0  0  0  0  0
  1  2  1  0  0  0  0
  1  5  1  0  0  0  0
  1 21  1  0  0  0  0
  1 22  1  0  0  0  0
  2  3  1  0  0  0  0
  2 23  1  0  0  0  0
  2 24  1  0  0  0  0
  3  4  1  0  0  0  0
  4  5  1  0  0  0  0
  5 25  1  1  0  0  0
  5  6  1  0  0  0  0
  6  7  1  0  0  0  0
  6 26  1  0  0  0  0
  6 27  1  0  0  0  0
  7  8  1  0  0  0  0
  7 28  1  0  0  0  0
  7 29  1  0  0  0  0
  8  9  1  0  0  0  0
  8 30  1  0  0  0  0
  8 31  1  0  0  0  0
  9 10  1  0  0  0  0
  9 32  1  0  0  0  0
  9 33  1  0  0  0  0
 10 11  2  0  0  0  0
 10 12  1  0  0  0  0
 12 34  1  0  0  0  0
 13 14  1  0  0  0  0
 13 20  1  0  0  0  0
 13 35  1  0  0  0  0
 13 36  1  0  0  0  0
 14 15  1  0  0  0  0
 14 17  1  0  0  0  0
 14 19  1  0  0  0  0
 15 16  1  0  0  0  0
 15 37  1  0  0  0  0
 15 38  1  0  0  0  0
 16 39  1  0  0  0  0
 17 18  1  0  0  0  0
 17 40  1  0  0  0  0
 17 41  1  0  0  0  0
 18 42  1  0  0  0  0
 19 43  1  0  0  0  0
 19 44  1  0  0  0  0
 20 45  1  0  0  0  0
M  END
>  <DRUGBANK_ID>
DB06253

>  <COMMON_NAME>
Thioctic acid tromethamine

>  <CAS_NUMBER>
137314-40-0

>  <UNII>
HK7B1AJA3Q

>  <SYNONYMS>
(R)-5-(1,2-dithiolaln-3-yl)-pentanoic acid tromethamine; Thioctic acid tromethamine

$$$$
