
 OpenBabel10282417123D

 62 65  0  0  0  0  0  0  0  0999 V2000
    1.0424    0.0746   -0.1334 C   0  0  0  0  0  0  0  0  0  0  0  0
    0.5498    0.9410    1.0384 C   0  0  0  0  0  0  0  0  0  0  0  0
    1.0205    2.3888    0.7836 C   0  0  0  0  0  0  0  0  0  0  0  0
   -0.9216    0.9260    1.0298 N   0  0  0  0  0  0  0  0  0  0  0  0
    1.0111    0.4011    2.3926 C   0  0  0  0  0  0  0  0  0  0  0  0
    1.3498    1.2730    3.4382 C   0  0  0  0  0  0  0  0  0  0  0  0
    1.6050    0.7970    4.7165 C   0  0  0  0  0  0  0  0  0  0  0  0
    1.5029   -0.5653    5.0071 C   0  0  0  0  0  0  0  0  0  0  0  0
    1.2054   -1.4537    3.9686 C   0  0  0  0  0  0  0  0  0  0  0  0
    0.9866   -0.9776    2.6738 C   0  0  0  0  0  0  0  0  0  0  0  0
    1.7525   -1.0235    6.3693 C   0  0  0  0  0  0  0  0  0  0  0  0
    2.8544   -1.7692    6.4848 N   0  0  0  0  0  0  0  0  0  0  0  0
    3.2750   -2.1070    7.7162 C   0  0  0  0  0  0  0  0  0  0  0  0
    4.4275   -2.8206    7.8441 N   0  0  0  0  0  0  0  0  0  0  0  0
    5.2596   -3.2019    6.8047 C   0  0  0  0  0  0  0  0  0  0  0  0
    5.7711   -2.2679    5.8894 C   0  0  0  0  0  0  0  0  0  0  0  0
    6.5653   -2.6601    4.8231 C   0  0  0  0  0  0  0  0  0  0  0  0
    6.9351   -3.9863    4.7274 C   0  0  0  0  0  0  0  0  0  0  0  0
    7.6150   -4.4296    3.4490 C   0  0  0  0  0  0  0  0  0  0  0  0
    8.6676   -5.5329    3.6360 C   0  0  0  0  0  0  0  0  0  0  0  0
    8.1270   -6.7848    4.2133 N   0  0  0  0  0  0  0  0  0  0  0  0
    8.8890   -7.9909    3.8560 C   0  0  0  0  0  0  0  0  0  0  0  0
    8.6318   -8.4083    2.3906 C   0  0  0  0  0  0  0  0  0  0  0  0
    7.2324   -8.5643    2.0803 O   0  0  0  0  0  0  0  0  0  0  0  0
    6.5534   -7.3523    2.3689 C   0  0  0  0  0  0  0  0  0  0  0  0
    6.7139   -7.0641    3.8398 C   0  0  0  0  0  0  0  0  0  0  0  0
    6.4986   -4.8734    5.7402 C   0  0  0  0  0  0  0  0  0  0  0  0
    5.5412   -4.5320    6.6604 C   0  0  0  0  0  0  0  0  0  0  0  0
    2.6277   -1.7775    8.8394 N   0  0  0  0  0  0  0  0  0  0  0  0
    1.5145   -1.0466    8.6859 C   0  0  0  0  0  0  0  0  0  0  0  0
    1.0166   -0.6324    7.4702 C   0  0  0  0  0  0  0  0  0  0  0  0
   -0.4096    0.3126    7.3948 Cl  0  0  0  0  0  0  0  0  0  0  0  0
    0.7111    0.4805   -1.0961 H   0  0  0  0  0  0  0  0  0  0  0  0
    0.6678   -0.9536   -0.0859 H   0  0  0  0  0  0  0  0  0  0  0  0
    2.1374    0.0264   -0.1457 H   0  0  0  0  0  0  0  0  0  0  0  0
    0.6919    2.7582   -0.1932 H   0  0  0  0  0  0  0  0  0  0  0  0
    0.6250    3.0931    1.5254 H   0  0  0  0  0  0  0  0  0  0  0  0
    2.1154    2.4503    0.8167 H   0  0  0  0  0  0  0  0  0  0  0  0
   -1.2626    1.5085    1.7944 H   0  0  0  0  0  0  0  0  0  0  0  0
   -1.2725    1.3400    0.1702 H   0  0  0  0  0  0  0  0  0  0  0  0
    1.3994    2.3475    3.3018 H   0  0  0  0  0  0  0  0  0  0  0  0
    1.8571    1.5104    5.4978 H   0  0  0  0  0  0  0  0  0  0  0  0
    1.1118   -2.5205    4.1630 H   0  0  0  0  0  0  0  0  0  0  0  0
    0.7564   -1.7045    1.8991 H   0  0  0  0  0  0  0  0  0  0  0  0
    4.6115   -3.1944    8.7620 H   0  0  0  0  0  0  0  0  0  0  0  0
    5.5352   -1.2172    6.0014 H   0  0  0  0  0  0  0  0  0  0  0  0
    6.8974   -1.9370    4.0855 H   0  0  0  0  0  0  0  0  0  0  0  0
    6.8216   -4.7439    2.7561 H   0  0  0  0  0  0  0  0  0  0  0  0
    8.0671   -3.5841    2.9147 H   0  0  0  0  0  0  0  0  0  0  0  0
    9.1510   -5.7090    2.6677 H   0  0  0  0  0  0  0  0  0  0  0  0
    9.4545   -5.1290    4.2896 H   0  0  0  0  0  0  0  0  0  0  0  0
    8.5392   -8.7918    4.5229 H   0  0  0  0  0  0  0  0  0  0  0  0
    9.9595   -7.8736    4.0622 H   0  0  0  0  0  0  0  0  0  0  0  0
    9.0503   -7.6626    1.7068 H   0  0  0  0  0  0  0  0  0  0  0  0
    9.1056   -9.3666    2.1843 H   0  0  0  0  0  0  0  0  0  0  0  0
    5.4837   -7.4073    2.1475 H   0  0  0  0  0  0  0  0  0  0  0  0
    6.9633   -6.5507    1.7431 H   0  0  0  0  0  0  0  0  0  0  0  0
    6.3601   -7.8779    4.4853 H   0  0  0  0  0  0  0  0  0  0  0  0
    6.0075   -6.2608    4.0300 H   0  0  0  0  0  0  0  0  0  0  0  0
    6.8130   -5.9030    5.8363 H   0  0  0  0  0  0  0  0  0  0  0  0
    5.0451   -5.3046    7.2449 H   0  0  0  0  0  0  0  0  0  0  0  0
    1.0228   -0.7785    9.6140 H   0  0  0  0  0  0  0  0  0  0  0  0
  1  2  1  0  0  0  0
  1 33  1  0  0  0  0
  1 34  1  0  0  0  0
  1 35  1  0  0  0  0
  2  3  1  0  0  0  0
  2  4  1  0  0  0  0
  2  5  1  0  0  0  0
  3 36  1  0  0  0  0
  3 37  1  0  0  0  0
  3 38  1  0  0  0  0
  4 39  1  0  0  0  0
  4 40  1  0  0  0  0
  5  6  2  0  0  0  0
  5 10  1  0  0  0  0
  6  7  1  0  0  0  0
  6 41  1  0  0  0  0
  7  8  2  0  0  0  0
  7 42  1  0  0  0  0
  8  9  1  0  0  0  0
  8 11  1  0  0  0  0
  9 10  2  0  0  0  0
  9 43  1  0  0  0  0
 10 44  1  0  0  0  0
 11 12  2  0  0  0  0
 11 31  1  0  0  0  0
 12 13  1  0  0  0  0
 13 14  1  0  0  0  0
 13 29  2  0  0  0  0
 14 15  1  0  0  0  0
 14 45  1  0  0  0  0
 15 16  2  0  0  0  0
 15 28  1  0  0  0  0
 16 17  1  0  0  0  0
 16 46  1  0  0  0  0
 17 18  2  0  0  0  0
 17 47  1  0  0  0  0
 18 19  1  0  0  0  0
 18 27  1  0  0  0  0
 19 20  1  0  0  0  0
 19 48  1  0  0  0  0
 19 49  1  0  0  0  0
 20 21  1  0  0  0  0
 20 50  1  0  0  0  0
 20 51  1  0  0  0  0
 21 22  1  0  0  0  0
 21 26  1  0  0  0  0
 22 23  1  0  0  0  0
 22 52  1  0  0  0  0
 22 53  1  0  0  0  0
 23 24  1  0  0  0  0
 23 54  1  0  0  0  0
 23 55  1  0  0  0  0
 24 25  1  0  0  0  0
 25 26  1  0  0  0  0
 25 56  1  0  0  0  0
 25 57  1  0  0  0  0
 26 58  1  0  0  0  0
 26 59  1  0  0  0  0
 27 28  2  0  0  0  0
 27 60  1  0  0  0  0
 28 61  1  0  0  0  0
 29 30  1  0  0  0  0
 30 31  2  0  0  0  0
 30 62  1  0  0  0  0
 31 32  1  0  0  0  0
M  END
>  <DRUGBANK_ID>
DB02491

>  <SECONDARY_ACCESSION_NUMBERS>
EXPT00378

>  <COMMON_NAME>
4-[4-(1-Amino-1-Methylethyl)Phenyl]-5-Chloro-N-[4-(2-Morpholin-4-Ylethyl)Phenyl]Pyrimidin-2-Amine

$$$$
