
 OpenBabel10282417143D

 21 20  0  0  0  0  0  0  0  0999 V2000
    0.9654    0.1013    0.0874 O   0  0  0  0  0  0  0  0  0  0  0  0
    0.5251   -1.2451    0.1585 C   0  0  0  0  0  0  0  0  0  0  0  0
    1.1061   -2.0635   -0.9906 C   0  0  0  0  0  0  0  0  0  0  0  0
    2.6385   -2.1242   -0.9646 C   0  0  0  0  0  0  0  0  0  0  0  0
    3.1929   -2.7611    0.3149 C   0  0  0  0  0  0  0  0  0  0  0  0
    2.7603   -4.2218    0.5032 C   0  0  0  0  0  0  0  0  0  0  0  0
    3.1806   -5.1415   -0.6348 C   0  0  0  0  0  0  0  0  0  0  0  0
    5.1190   -5.2863   -0.7426 Br  0  0  0  0  0  0  0  0  0  0  0  0
    1.9398    0.1045    0.1673 H   0  0  0  0  0  0  0  0  0  0  0  0
    0.7960   -1.6554    1.1362 H   0  0  0  0  0  0  0  0  0  0  0  0
   -0.5676   -1.2443    0.1050 H   0  0  0  0  0  0  0  0  0  0  0  0
    0.6845   -3.0747   -0.9690 H   0  0  0  0  0  0  0  0  0  0  0  0
    0.7979   -1.6194   -1.9442 H   0  0  0  0  0  0  0  0  0  0  0  0
    2.9913   -2.6711   -1.8458 H   0  0  0  0  0  0  0  0  0  0  0  0
    3.0574   -1.1179   -1.0746 H   0  0  0  0  0  0  0  0  0  0  0  0
    4.2853   -2.6862    0.3063 H   0  0  0  0  0  0  0  0  0  0  0  0
    2.8815   -2.1819    1.1920 H   0  0  0  0  0  0  0  0  0  0  0  0
    3.1558   -4.5910    1.4567 H   0  0  0  0  0  0  0  0  0  0  0  0
    1.6684   -4.2673    0.6027 H   0  0  0  0  0  0  0  0  0  0  0  0
    2.8098   -6.1564   -0.4763 H   0  0  0  0  0  0  0  0  0  0  0  0
    2.8288   -4.7988   -1.6109 H   0  0  0  0  0  0  0  0  0  0  0  0
  1  2  1  0  0  0  0
  1  9  1  0  0  0  0
  2  3  1  0  0  0  0
  2 10  1  0  0  0  0
  2 11  1  0  0  0  0
  3  4  1  0  0  0  0
  3 12  1  0  0  0  0
  3 13  1  0  0  0  0
  4  5  1  0  0  0  0
  4 14  1  0  0  0  0
  4 15  1  0  0  0  0
  5  6  1  0  0  0  0
  5 16  1  0  0  0  0
  5 17  1  0  0  0  0
  6  7  1  0  0  0  0
  6 18  1  0  0  0  0
  6 19  1  0  0  0  0
  7  8  1  0  0  0  0
  7 20  1  0  0  0  0
  7 21  1  0  0  0  0
M  END
>  <DRUGBANK_ID>
DB04637

>  <COMMON_NAME>
6-Bromo-1-hexanol

>  <CAS_NUMBER>
4286-55-9

>  <UNII>
3U3A1ZLY0T

$$$$
