
 OpenBabel10282417223D

 87 87  0  0  0  0  0  0  0  0999 V2000
   -4.5651   -1.4373   -3.1925 C   0  0  0  0  0  0  0  0  0  0  0  0
   -6.7926   -2.5220   -3.6852 C   0  0  0  0  0  0  0  0  0  0  0  0
   -7.2259   -3.0227   -5.0707 C   0  0  0  0  0  0  0  0  0  0  0  0
   -6.9305   -4.5030   -5.1801 C   0  0  0  0  0  0  0  0  0  0  0  0
   -7.4475   -5.5872   -4.2505 C   0  0  1  0  0  0  0  0  0  0  0  0
   -8.9149   -5.6717   -4.5512 C   0  0  0  0  0  0  0  0  0  0  0  0
   -5.9193   -7.4149   -3.4518 C   0  0  0  0  0  0  0  0  0  0  0  0
   -5.5151   -8.9392   -3.5258 C   0  0  2  0  0  0  0  0  0  0  0  0
   -6.0769   -9.7749   -2.3229 C   0  0  0  0  0  0  0  0  0  0  0  0
   -6.7114   -8.8937   -1.2443 C   0  0  0  0  0  0  0  0  0  0  0  0
   -7.1214  -10.8044   -2.7730 C   0  0  0  0  0  0  0  0  0  0  0  0
   -3.3644   -9.8256   -4.4742 C   0  0  0  0  0  0  0  0  0  0  0  0
   -1.8018   -9.6508   -4.6064 C   0  0  2  0  0  0  0  0  0  0  0  0
   -1.3387   -8.2383   -5.0275 C   0  0  0  0  0  0  0  0  0  0  0  0
   -1.6677   -7.8776   -6.4859 C   0  0  0  0  0  0  0  0  0  0  0  0
   -3.1306   -8.0545   -6.8513 C   0  0  0  0  0  0  0  0  0  0  0  0
   -4.5021   -6.1761   -6.5668 C   0  0  0  0  0  0  0  0  0  0  0  0
   -0.4470  -11.6797   -5.0795 C   0  0  0  0  0  0  0  0  0  0  0  0
    0.8515  -13.7127   -5.7122 C   0  0  2  0  0  0  0  0  0  0  0  0
    2.2141  -13.5256   -6.4117 C   0  0  0  0  0  0  0  0  0  0  0  0
    0.1422  -15.0484   -6.0624 C   0  0  0  0  0  0  0  0  0  0  0  0
    0.9827  -16.3062   -5.9700 C   0  0  0  0  0  0  0  0  0  0  0  0
    1.9559  -16.5630   -6.9492 C   0  0  0  0  0  0  0  0  0  0  0  0
    2.8917  -17.5822   -6.7814 C   0  0  0  0  0  0  0  0  0  0  0  0
    2.8202  -18.4090   -5.6660 C   0  0  0  0  0  0  0  0  0  0  0  0
    1.8142  -18.2124   -4.7202 C   0  0  0  0  0  0  0  0  0  0  0  0
    0.8776  -17.1860   -4.8855 C   0  0  0  0  0  0  0  0  0  0  0  0
   -6.7512   -6.8895   -4.4215 N   0  0  0  0  0  0  0  0  0  0  0  0
   -4.0271   -9.0238   -3.5547 N   0  0  0  0  0  0  0  0  0  0  0  0
   -3.9639   -7.2595   -5.9949 N   0  0  0  0  0  0  0  0  0  0  0  0
   -4.2943   -5.1499   -5.7390 N   0  0  0  0  0  0  0  0  0  0  0  0
   -5.0839   -6.1452   -7.6861 N   0  0  0  0  0  0  0  0  0  0  0  0
   -1.2107  -10.6433   -5.5372 N   0  0  0  0  0  0  0  0  0  0  0  0
   -0.0505  -12.5728   -6.0376 N   0  0  0  0  0  0  0  0  0  0  0  0
   -5.3347   -2.4940   -3.5357 N   0  0  0  0  0  0  0  0  0  0  0  0
   -5.1679   -0.2495   -3.1287 N   0  0  0  0  0  0  0  0  0  0  0  0
   -3.3043   -1.4908   -2.9461 N   0  0  0  0  0  0  0  0  0  0  0  0
   -9.4895   -6.6857   -4.9231 O   0  0  0  0  0  0  0  0  0  0  0  0
   -5.4876   -6.6763   -2.5609 O   0  0  0  0  0  0  0  0  0  0  0  0
   -3.9907  -10.5789   -5.2226 O   0  0  0  0  0  0  0  0  0  0  0  0
   -0.1402  -11.7935   -3.8993 O   0  0  0  0  0  0  0  0  0  0  0  0
    2.4399  -12.8312   -7.3924 O   0  0  0  0  0  0  0  0  0  0  0  0
    3.1962  -14.2952   -5.8873 O   0  0  0  0  0  0  0  0  0  0  0  0
   -7.2111   -3.1660   -2.9088 H   0  0  0  0  0  0  0  0  0  0  0  0
   -7.2508   -1.5464   -3.5522 H   0  0  0  0  0  0  0  0  0  0  0  0
   -8.2744   -2.8176   -5.2952 H   0  0  0  0  0  0  0  0  0  0  0  0
   -6.6267   -2.5029   -5.8392 H   0  0  0  0  0  0  0  0  0  0  0  0
   -6.9625   -4.8196   -6.2271 H   0  0  0  0  0  0  0  0  0  0  0  0
   -5.9487   -4.4225   -4.7977 H   0  0  0  0  0  0  0  0  0  0  0  0
   -7.3088   -5.2787   -3.2108 H   0  0  0  0  0  0  0  0  0  0  0  0
   -9.4491   -4.7107   -4.4453 H   0  0  0  0  0  0  0  0  0  0  0  0
   -5.8998   -9.3528   -4.4652 H   0  0  0  0  0  0  0  0  0  0  0  0
   -5.2622  -10.3452   -1.8516 H   0  0  0  0  0  0  0  0  0  0  0  0
   -7.5260   -8.2993   -1.6745 H   0  0  0  0  0  0  0  0  0  0  0  0
   -7.1346   -9.4711   -0.4189 H   0  0  0  0  0  0  0  0  0  0  0  0
   -5.9600   -8.2258   -0.8138 H   0  0  0  0  0  0  0  0  0  0  0  0
   -6.6775  -11.5671   -3.4207 H   0  0  0  0  0  0  0  0  0  0  0  0
   -7.5538  -11.3231   -1.9074 H   0  0  0  0  0  0  0  0  0  0  0  0
   -7.9405  -10.3213   -3.3142 H   0  0  0  0  0  0  0  0  0  0  0  0
   -1.4096   -9.8335   -3.6009 H   0  0  0  0  0  0  0  0  0  0  0  0
   -1.7454   -7.4799   -4.3464 H   0  0  0  0  0  0  0  0  0  0  0  0
   -0.2469   -8.1647   -4.9167 H   0  0  0  0  0  0  0  0  0  0  0  0
   -1.3477   -6.8449   -6.6852 H   0  0  0  0  0  0  0  0  0  0  0  0
   -1.0894   -8.5109   -7.1659 H   0  0  0  0  0  0  0  0  0  0  0  0
   -3.2765   -7.7898   -7.8995 H   0  0  0  0  0  0  0  0  0  0  0  0
   -3.4574   -9.0821   -6.7866 H   0  0  0  0  0  0  0  0  0  0  0  0
    1.0653  -13.6865   -4.6374 H   0  0  0  0  0  0  0  0  0  0  0  0
   -0.7247  -15.1501   -5.3938 H   0  0  0  0  0  0  0  0  0  0  0  0
   -0.2781  -14.9960   -7.0745 H   0  0  0  0  0  0  0  0  0  0  0  0
    2.0464  -15.9083   -7.8131 H   0  0  0  0  0  0  0  0  0  0  0  0
    3.6971  -17.7001   -7.5009 H   0  0  0  0  0  0  0  0  0  0  0  0
    3.5474  -19.2056   -5.5342 H   0  0  0  0  0  0  0  0  0  0  0  0
    1.7803  -18.8424   -3.8346 H   0  0  0  0  0  0  0  0  0  0  0  0
    0.0838  -17.0740   -4.1499 H   0  0  0  0  0  0  0  0  0  0  0  0
   -6.8803   -7.4061   -5.2919 H   0  0  0  0  0  0  0  0  0  0  0  0
   -3.5248   -8.6288   -2.7670 H   0  0  0  0  0  0  0  0  0  0  0  0
   -3.6219   -7.1169   -5.0526 H   0  0  0  0  0  0  0  0  0  0  0  0
   -4.7706   -4.3307   -6.0956 H   0  0  0  0  0  0  0  0  0  0  0  0
   -4.6299   -5.4435   -4.8202 H   0  0  0  0  0  0  0  0  0  0  0  0
   -5.4298   -5.2118   -7.9109 H   0  0  0  0  0  0  0  0  0  0  0  0
   -1.5702  -10.6746   -6.4816 H   0  0  0  0  0  0  0  0  0  0  0  0
   -0.2068  -12.3696   -7.0161 H   0  0  0  0  0  0  0  0  0  0  0  0
   -4.8610   -3.3888   -3.4513 H   0  0  0  0  0  0  0  0  0  0  0  0
   -4.6026    0.5409   -2.8605 H   0  0  0  0  0  0  0  0  0  0  0  0
   -6.1491   -0.1061   -3.2614 H   0  0  0  0  0  0  0  0  0  0  0  0
   -2.9362   -2.4366   -3.0418 H   0  0  0  0  0  0  0  0  0  0  0  0
    3.9272  -14.3209   -6.5393 H   0  0  0  0  0  0  0  0  0  0  0  0
  1 35  1  0  0  0  0
  1 36  1  0  0  0  0
  1 37  2  0  0  0  0
  2  3  1  0  0  0  0
  2 35  1  0  0  0  0
  2 44  1  0  0  0  0
  2 45  1  0  0  0  0
  3  4  1  0  0  0  0
  3 46  1  0  0  0  0
  3 47  1  0  0  0  0
  4  5  1  0  0  0  0
  4 48  1  0  0  0  0
  4 49  1  0  0  0  0
  5  6  1  0  0  0  0
  5 28  1  0  0  0  0
  5 50  1  1  0  0  0
  6 38  2  0  0  0  0
  6 51  1  0  0  0  0
  7 28  1  0  0  0  0
  7 39  2  0  0  0  0
  8 29  1  0  0  0  0
  8 52  1  6  0  0  0
  8  9  1  0  0  0  0
  8  7  1  0  0  0  0
  9 10  1  0  0  0  0
  9 11  1  0  0  0  0
  9 53  1  0  0  0  0
 10 54  1  0  0  0  0
 10 55  1  0  0  0  0
 10 56  1  0  0  0  0
 11 57  1  0  0  0  0
 11 58  1  0  0  0  0
 11 59  1  0  0  0  0
 12 29  1  0  0  0  0
 12 40  2  0  0  0  0
 13 33  1  0  0  0  0
 13 60  1  1  0  0  0
 13 14  1  0  0  0  0
 13 12  1  0  0  0  0
 14 15  1  0  0  0  0
 14 61  1  0  0  0  0
 14 62  1  0  0  0  0
 15 16  1  0  0  0  0
 15 63  1  0  0  0  0
 15 64  1  0  0  0  0
 16 30  1  0  0  0  0
 16 65  1  0  0  0  0
 16 66  1  0  0  0  0
 17 30  1  0  0  0  0
 17 31  1  0  0  0  0
 17 32  2  0  0  0  0
 18 33  1  0  0  0  0
 18 34  1  0  0  0  0
 18 41  2  0  0  0  0
 19 34  1  0  0  0  0
 19 67  1  1  0  0  0
 19 21  1  0  0  0  0
 19 20  1  0  0  0  0
 20 42  2  0  0  0  0
 20 43  1  0  0  0  0
 21 22  1  0  0  0  0
 21 68  1  0  0  0  0
 21 69  1  0  0  0  0
 22 23  2  0  0  0  0
 22 27  1  0  0  0  0
 23 24  1  0  0  0  0
 23 70  1  0  0  0  0
 24 25  2  0  0  0  0
 24 71  1  0  0  0  0
 25 26  1  0  0  0  0
 25 72  1  0  0  0  0
 26 27  2  0  0  0  0
 26 73  1  0  0  0  0
 27 74  1  0  0  0  0
 28 75  1  0  0  0  0
 29 76  1  0  0  0  0
 30 77  1  0  0  0  0
 31 78  1  0  0  0  0
 31 79  1  0  0  0  0
 32 80  1  0  0  0  0
 33 81  1  0  0  0  0
 34 82  1  0  0  0  0
 35 83  1  0  0  0  0
 36 84  1  0  0  0  0
 36 85  1  0  0  0  0
 37 86  1  0  0  0  0
 43 87  1  0  0  0  0
M  END
>  <DRUGBANK_ID>
DB15251

>  <COMMON_NAME>
Antipain

>  <CAS_NUMBER>
37691-11-5

>  <UNII>
47V479BE6L

$$$$
