
 OpenBabel10282417193D

 56 58  0  0  0  0  0  0  0  0999 V2000
    1.1382   -0.0938   -0.0670 C   0  0  0  0  0  0  0  0  0  0  0  0
    0.5274   -0.4678    1.1880 N   0  0  0  0  0  0  0  0  0  0  0  0
   -0.2404    0.2942    2.0248 C   0  0  0  0  0  0  0  0  0  0  0  0
   -0.5768   -0.1475    3.1296 O   0  0  0  0  0  0  0  0  0  0  0  0
   -0.6444    1.6624    1.6359 C   0  0  0  0  0  0  0  0  0  0  0  0
   -1.1570    1.9640    0.3675 C   0  0  0  0  0  0  0  0  0  0  0  0
   -1.4852    3.2846    0.0282 C   0  0  0  0  0  0  0  0  0  0  0  0
   -1.3927    4.3044    0.9821 C   0  0  0  0  0  0  0  0  0  0  0  0
   -0.9801    3.9522    2.2782 C   0  0  0  0  0  0  0  0  0  0  0  0
   -0.5571    2.6647    2.5949 C   0  0  0  0  0  0  0  0  0  0  0  0
   -1.6250    5.6486    0.6396 N   0  0  0  0  0  0  0  0  0  0  0  0
   -1.5686    6.7331    1.5199 C   0  0  0  0  0  0  0  0  0  0  0  0
   -2.6850    7.4243    1.7647 N   0  0  0  0  0  0  0  0  0  0  0  0
   -2.6212    8.3156    2.7772 C   0  0  0  0  0  0  0  0  0  0  0  0
   -1.4791    8.5948    3.4936 C   0  0  0  0  0  0  0  0  0  0  0  0
   -0.3492    7.9180    3.1194 C   0  0  0  0  0  0  0  0  0  0  0  0
   -0.4113    6.9675    2.1672 N   0  0  0  0  0  0  0  0  0  0  0  0
    0.8223    8.0916    3.8470 N   0  0  0  0  0  0  0  0  0  0  0  0
    2.0290    7.4548    3.3695 C   0  0  0  0  0  0  0  0  0  0  0  0
    3.1401    8.3256    2.8539 C   0  0  0  0  0  0  0  0  0  0  0  0
    4.3267    7.7573    2.3187 C   0  0  0  0  0  0  0  0  0  0  0  0
    5.2748    8.5901    1.8262 N   0  0  0  0  0  0  0  0  0  0  0  0
    5.0385    9.9285    1.8828 C   0  0  0  0  0  0  0  0  0  0  0  0
    3.8934   10.4624    2.4366 C   0  0  0  0  0  0  0  0  0  0  0  0
    2.9236    9.6797    2.9419 N   0  0  0  0  0  0  0  0  0  0  0  0
    4.6529    6.3313    2.2498 N   0  0  0  0  0  0  0  0  0  0  0  0
    3.8206    5.2382    2.7521 C   0  0  0  0  0  0  0  0  0  0  0  0
    6.1309    5.8582    1.5408 S   0  0  0  0  0  0  0  0  0  0  0  0
    6.0959    6.1662    0.1247 O   0  0  0  0  0  0  0  0  0  0  0  0
    7.2210    6.2923    2.3903 O   0  0  0  0  0  0  0  0  0  0  0  0
    6.1184    4.0594    1.6468 C   0  0  0  0  0  0  0  0  0  0  0  0
   -1.4384    9.5798    4.5971 C   0  0  0  0  0  0  0  0  0  0  0  0
   -1.0544    9.0400    5.7887 F   0  0  0  0  0  0  0  0  0  0  0  0
   -0.5546   10.5906    4.3546 F   0  0  0  0  0  0  0  0  0  0  0  0
   -2.6333   10.1837    4.8352 F   0  0  0  0  0  0  0  0  0  0  0  0
    0.9515    0.9436   -0.3342 H   0  0  0  0  0  0  0  0  0  0  0  0
    0.7368   -0.7522   -0.8402 H   0  0  0  0  0  0  0  0  0  0  0  0
    2.2182   -0.2223    0.0154 H   0  0  0  0  0  0  0  0  0  0  0  0
    0.7433   -1.3838    1.5670 H   0  0  0  0  0  0  0  0  0  0  0  0
   -1.2800    1.1780   -0.3730 H   0  0  0  0  0  0  0  0  0  0  0  0
   -1.8282    3.4912   -0.9828 H   0  0  0  0  0  0  0  0  0  0  0  0
   -0.9913    4.6892    3.0761 H   0  0  0  0  0  0  0  0  0  0  0  0
   -0.1680    2.4578    3.5887 H   0  0  0  0  0  0  0  0  0  0  0  0
   -2.1365    5.8458   -0.2056 H   0  0  0  0  0  0  0  0  0  0  0  0
   -3.5615    8.8075    3.0149 H   0  0  0  0  0  0  0  0  0  0  0  0
    1.0120    8.9953    4.2696 H   0  0  0  0  0  0  0  0  0  0  0  0
    2.4230    6.9639    4.2635 H   0  0  0  0  0  0  0  0  0  0  0  0
    1.7943    6.7622    2.5601 H   0  0  0  0  0  0  0  0  0  0  0  0
    5.8068   10.5723    1.4650 H   0  0  0  0  0  0  0  0  0  0  0  0
    3.7177   11.5318    2.4846 H   0  0  0  0  0  0  0  0  0  0  0  0
    3.4756    4.6189    1.9209 H   0  0  0  0  0  0  0  0  0  0  0  0
    4.3624    4.6668    3.5070 H   0  0  0  0  0  0  0  0  0  0  0  0
    2.9226    5.4700    3.2850 H   0  0  0  0  0  0  0  0  0  0  0  0
    6.0830    3.7462    2.6927 H   0  0  0  0  0  0  0  0  0  0  0  0
    5.2737    3.6579    1.0824 H   0  0  0  0  0  0  0  0  0  0  0  0
    7.0429    3.6800    1.2075 H   0  0  0  0  0  0  0  0  0  0  0  0
  1  2  1  0  0  0  0
  1 36  1  0  0  0  0
  1 37  1  0  0  0  0
  1 38  1  0  0  0  0
  2  3  1  0  0  0  0
  2 39  1  0  0  0  0
  3  4  2  0  0  0  0
  3  5  1  0  0  0  0
  5  6  2  0  0  0  0
  5 10  1  0  0  0  0
  6  7  1  0  0  0  0
  6 40  1  0  0  0  0
  7  8  2  0  0  0  0
  7 41  1  0  0  0  0
  8  9  1  0  0  0  0
  8 11  1  0  0  0  0
  9 10  2  0  0  0  0
  9 42  1  0  0  0  0
 10 43  1  0  0  0  0
 11 12  1  0  0  0  0
 11 44  1  0  0  0  0
 12 13  2  0  0  0  0
 12 17  1  0  0  0  0
 13 14  1  0  0  0  0
 14 15  2  0  0  0  0
 14 45  1  0  0  0  0
 15 16  1  0  0  0  0
 15 32  1  0  0  0  0
 16 17  2  0  0  0  0
 16 18  1  0  0  0  0
 18 19  1  0  0  0  0
 18 46  1  0  0  0  0
 19 20  1  0  0  0  0
 19 47  1  0  0  0  0
 19 48  1  0  0  0  0
 20 21  2  0  0  0  0
 20 25  1  0  0  0  0
 21 22  1  0  0  0  0
 21 26  1  0  0  0  0
 22 23  2  0  0  0  0
 23 24  1  0  0  0  0
 23 49  1  0  0  0  0
 24 25  2  0  0  0  0
 24 50  1  0  0  0  0
 26 27  1  0  0  0  0
 26 28  1  0  0  0  0
 27 51  1  0  0  0  0
 27 52  1  0  0  0  0
 27 53  1  0  0  0  0
 28 29  2  0  0  0  0
 28 30  2  0  0  0  0
 28 31  1  0  0  0  0
 31 54  1  0  0  0  0
 31 55  1  0  0  0  0
 31 56  1  0  0  0  0
 32 33  1  0  0  0  0
 32 34  1  0  0  0  0
 32 35  1  0  0  0  0
M  END
>  <DRUGBANK_ID>
DB12282

>  <COMMON_NAME>
Defactinib

>  <CAS_NUMBER>
1073154-85-4

>  <UNII>
53O87HA2QU

>  <SYNONYMS>
Defactinib; N-methyl-4-[[4-[[3-[methyl(methylsulfonyl)amino]pyrazin-2-yl]methylamino]-5-(trifluoromethyl)pyrimidin-2-yl]amino]benzamide

$$$$
