VXX
 OpenBabel10282417173D

 23 23  0  0  0  0  0  0  0  0999 V2000
   -1.2373   -1.2265   -0.0013 C   0  0  0  0  0  0  0  0  0  0  0  0
   -1.8904    0.0174   -0.0114 C   0  0  0  0  0  0  0  0  0  0  0  0
    0.1669   -1.2554    0.0112 C   0  0  0  0  0  0  0  0  0  0  0  0
   -1.1619    1.2105    0.0008 C   0  0  0  0  0  0  0  0  0  0  0  0
    0.9050   -0.0591    0.0116 C   0  0  0  0  0  0  0  0  0  0  0  0
    2.2753    0.0338    0.0081 O   0  0  0  0  0  0  0  0  0  0  0  0
    0.2250    1.1652    0.0148 C   0  0  0  0  0  0  0  0  0  0  0  0
   -2.0813   -2.4649   -0.0050 C   0  0  0  0  0  0  0  0  0  0  0  0
    2.9827   -1.2021   -0.0244 C   0  0  0  0  0  0  0  0  0  0  0  0
   -3.3050   -2.4278   -0.0185 O   0  0  0  0  0  0  0  0  0  0  0  0
   -1.3394   -3.6044    0.0088 O   0  0  0  0  0  0  0  0  0  0  0  0
    0.8964    2.3584    0.0332 O   0  0  0  0  0  0  0  0  0  0  0  0
   -2.1168   -4.8138    0.0061 C   0  0  0  0  0  0  0  0  0  0  0  0
   -2.9774    0.0660   -0.0267 H   0  0  0  0  0  0  0  0  0  0  0  0
    0.6656   -2.2179    0.0213 H   0  0  0  0  0  0  0  0  0  0  0  0
   -1.6726    2.1697   -0.0008 H   0  0  0  0  0  0  0  0  0  0  0  0
    2.7726   -1.7941    0.8727 H   0  0  0  0  0  0  0  0  0  0  0  0
    2.7481   -1.7658   -0.9341 H   0  0  0  0  0  0  0  0  0  0  0  0
    4.0538   -0.9819   -0.0355 H   0  0  0  0  0  0  0  0  0  0  0  0
    1.8475    2.1410    0.0518 H   0  0  0  0  0  0  0  0  0  0  0  0
   -2.7488   -4.8745    0.8989 H   0  0  0  0  0  0  0  0  0  0  0  0
   -2.7287   -4.8830   -0.9001 H   0  0  0  0  0  0  0  0  0  0  0  0
   -1.4322   -5.6682    0.0178 H   0  0  0  0  0  0  0  0  0  0  0  0
  1  2  1  0  0  0  0
  1  3  2  0  0  0  0
  1  8  1  0  0  0  0
  2  4  2  0  0  0  0
  2 14  1  0  0  0  0
  3  5  1  0  0  0  0
  3 15  1  0  0  0  0
  4  7  1  0  0  0  0
  4 16  1  0  0  0  0
  5  6  1  0  0  0  0
  5  7  2  0  0  0  0
  6  9  1  0  0  0  0
  7 12  1  0  0  0  0
  8 10  2  0  0  0  0
  8 11  1  0  0  0  0
  9 17  1  0  0  0  0
  9 18  1  0  0  0  0
  9 19  1  0  0  0  0
 11 13  1  0  0  0  0
 12 20  1  0  0  0  0
 13 21  1  0  0  0  0
 13 22  1  0  0  0  0
 13 23  1  0  0  0  0
M  END
>  <DRUGBANK_ID>
DB08711

>  <COMMON_NAME>
Methyl vanillate

>  <CAS_NUMBER>
3943-74-6

>  <UNII>
2HXG8QSO3D

>  <SYNONYMS>
4-hydroxy-3-methoxy methyl benzoate; 4-hydroxy-3-methoxybenzoic acid methyl ester; Methyl 3-methoxy-4-hydroxybenzoate; Methyl 4-hydroxy-3-methoxybenzoate; Vanillic acid, methyl ester

$$$$
