
 OpenBabel10282417183D

 95 95  0  0  0  0  0  0  0  0999 V2000
    1.0992   -0.0415    0.0297 C   0  0  0  0  0  0  0  0  0  0  0  0
    0.6518    1.3346    0.4944 C   0  0  0  0  0  0  0  0  0  0  0  0
    1.1519    2.4081   -0.4727 C   0  0  0  0  0  0  0  0  0  0  0  0
    0.6008    2.1780   -1.8842 C   0  0  0  0  0  0  0  0  0  0  0  0
   -0.9312    2.1940   -1.8701 C   0  0  0  0  0  0  0  0  0  0  0  0
   -1.4257    3.5545   -1.3765 C   0  0  0  0  0  0  0  0  0  0  0  0
   -0.8979    4.6469   -2.3108 C   0  0  0  0  0  0  0  0  0  0  0  0
   -1.4202    4.3848   -3.7280 C   0  0  0  0  0  0  0  0  0  0  0  0
   -2.9487    4.3988   -3.6788 C   0  0  0  0  0  0  0  0  0  0  0  0
   -3.3821    5.7378   -3.0539 C   0  0  0  0  0  0  0  0  0  0  0  0
   -2.7555    6.9053   -3.8384 C   0  0  0  0  0  0  0  0  0  0  0  0
   -3.1652    6.7773   -5.2590 C   0  0  0  0  0  0  0  0  0  0  0  0
   -4.6518    6.8950   -5.1694 C   0  0  0  0  0  0  0  0  0  0  0  0
   -5.2263    8.2821   -4.9855 C   0  0  0  0  0  0  0  0  0  0  0  0
   -4.8642    9.1602   -6.1680 C   0  0  0  0  0  0  0  0  0  0  0  0
   -5.4846    8.8452   -7.5688 C   0  0  0  0  0  0  0  0  0  0  0  0
   -6.2780    9.6599   -8.0554 O   0  0  0  0  0  0  0  0  0  0  0  0
   -5.2334    7.7349   -8.3386 N   0  0  0  0  0  0  0  0  0  0  0  0
   -4.4631    6.5395   -8.0690 C   0  0  0  0  0  0  0  0  0  0  0  0
   -5.2499    5.1994   -7.6552 C   0  0  0  0  0  0  0  0  0  0  0  0
   -4.7194    4.1084   -7.9130 O   0  0  0  0  0  0  0  0  0  0  0  0
   -6.3963    5.1515   -6.8614 N   0  0  0  0  0  0  0  0  0  0  0  0
   -7.2227    6.1794   -6.1011 C   0  0  1  0  0  0  0  0  0  0  0  0
   -8.4700    6.6260   -6.8490 C   0  0  0  0  0  0  0  0  0  0  0  0
   -9.4562    5.5730   -7.1523 C   0  0  0  0  0  0  0  0  0  0  0  0
  -10.8062    5.6773   -6.9401 C   0  0  0  0  0  0  0  0  0  0  0  0
  -11.2348    4.3749   -6.7829 N   0  0  0  0  0  0  0  0  0  0  0  0
  -10.1689    3.5602   -7.0476 C   0  0  0  0  0  0  0  0  0  0  0  0
   -9.1056    4.2581   -7.3801 N   0  0  0  0  0  0  0  0  0  0  0  0
   -7.3139    6.0976   -4.3845 C   0  0  0  0  0  0  0  0  0  0  0  0
   -6.9377    6.9468   -3.5714 O   0  0  0  0  0  0  0  0  0  0  0  0
   -7.8013    5.0264   -3.7235 N   0  0  0  0  0  0  0  0  0  0  0  0
   -8.7491    4.2069   -4.3535 C   0  0  1  0  0  0  0  0  0  0  0  0
   -8.1824    2.7741   -4.4197 C   0  0  0  0  0  0  0  0  0  0  0  0
   -8.3214    2.0603   -3.0962 C   0  0  0  0  0  0  0  0  0  0  0  0
   -9.7892    1.9316   -2.7439 C   0  0  0  0  0  0  0  0  0  0  0  0
  -10.7215    1.3711   -3.8041 C   0  0  0  0  0  0  0  0  0  0  0  0
  -10.4057   -0.0329   -3.8572 N   0  0  0  0  0  0  0  0  0  0  0  0
  -10.1991    4.7915   -3.9079 C   0  0  0  0  0  0  0  0  0  0  0  0
  -11.0399    5.3601   -4.5334 O   0  0  0  0  0  0  0  0  0  0  0  0
  -10.6154    4.6477   -2.6431 O   0  0  0  0  0  0  0  0  0  0  0  0
    0.7050   -0.2913   -0.9609 H   0  0  0  0  0  0  0  0  0  0  0  0
    0.7453   -0.8148    0.7114 H   0  0  0  0  0  0  0  0  0  0  0  0
    2.1911   -0.0751   -0.0258 H   0  0  0  0  0  0  0  0  0  0  0  0
   -0.4411    1.3566    0.5833 H   0  0  0  0  0  0  0  0  0  0  0  0
    1.0288    1.5403    1.4995 H   0  0  0  0  0  0  0  0  0  0  0  0
    0.8681    3.3986   -0.0956 H   0  0  0  0  0  0  0  0  0  0  0  0
    2.2450    2.4192   -0.5029 H   0  0  0  0  0  0  0  0  0  0  0  0
    1.0101    2.9326   -2.5641 H   0  0  0  0  0  0  0  0  0  0  0  0
    0.9558    1.2380   -2.3113 H   0  0  0  0  0  0  0  0  0  0  0  0
   -1.3108    1.9554   -2.8690 H   0  0  0  0  0  0  0  0  0  0  0  0
   -1.3526    1.4004   -1.2494 H   0  0  0  0  0  0  0  0  0  0  0  0
   -2.5189    3.5467   -1.3111 H   0  0  0  0  0  0  0  0  0  0  0  0
   -1.1218    3.7677   -0.3495 H   0  0  0  0  0  0  0  0  0  0  0  0
   -1.1889    5.6282   -1.9245 H   0  0  0  0  0  0  0  0  0  0  0  0
    0.1900    4.7187   -2.3208 H   0  0  0  0  0  0  0  0  0  0  0  0
   -1.0179    5.1323   -4.4188 H   0  0  0  0  0  0  0  0  0  0  0  0
   -1.0617    3.4454   -4.1540 H   0  0  0  0  0  0  0  0  0  0  0  0
   -3.3571    4.2146   -4.6799 H   0  0  0  0  0  0  0  0  0  0  0  0
   -3.3689    3.5708   -3.1014 H   0  0  0  0  0  0  0  0  0  0  0  0
   -4.4726    5.7541   -2.9853 H   0  0  0  0  0  0  0  0  0  0  0  0
   -3.1172    5.8548   -2.0059 H   0  0  0  0  0  0  0  0  0  0  0  0
   -3.0993    7.8657   -3.4553 H   0  0  0  0  0  0  0  0  0  0  0  0
   -1.6684    6.9509   -3.8179 H   0  0  0  0  0  0  0  0  0  0  0  0
   -2.6879    7.5354   -5.8784 H   0  0  0  0  0  0  0  0  0  0  0  0
   -2.8998    5.8210   -5.7406 H   0  0  0  0  0  0  0  0  0  0  0  0
   -5.0114    6.6237   -6.0953 H   0  0  0  0  0  0  0  0  0  0  0  0
   -5.0733    6.0456   -4.6369 H   0  0  0  0  0  0  0  0  0  0  0  0
   -6.3176    8.3376   -4.9603 H   0  0  0  0  0  0  0  0  0  0  0  0
   -4.9474    8.6621   -4.0008 H   0  0  0  0  0  0  0  0  0  0  0  0
   -5.2632   10.1413   -5.8797 H   0  0  0  0  0  0  0  0  0  0  0  0
   -3.7854    9.2731   -6.2345 H   0  0  0  0  0  0  0  0  0  0  0  0
   -5.7252    7.7251   -9.2227 H   0  0  0  0  0  0  0  0  0  0  0  0
   -3.6829    6.3189   -8.8085 H   0  0  0  0  0  0  0  0  0  0  0  0
   -3.7903    6.8886   -7.3199 H   0  0  0  0  0  0  0  0  0  0  0  0
   -6.7316    4.2005   -6.7520 H   0  0  0  0  0  0  0  0  0  0  0  0
   -6.7097    7.0998   -6.2876 H   0  0  0  0  0  0  0  0  0  0  0  0
   -8.9135    7.4352   -6.2478 H   0  0  0  0  0  0  0  0  0  0  0  0
   -8.1741    7.0647   -7.8063 H   0  0  0  0  0  0  0  0  0  0  0  0
  -11.3615    6.5071   -6.5123 H   0  0  0  0  0  0  0  0  0  0  0  0
  -11.9784    4.1356   -6.1401 H   0  0  0  0  0  0  0  0  0  0  0  0
  -10.1714    2.5028   -6.8157 H   0  0  0  0  0  0  0  0  0  0  0  0
   -7.8395    5.1274   -2.7122 H   0  0  0  0  0  0  0  0  0  0  0  0
   -8.6075    4.4877   -5.3615 H   0  0  0  0  0  0  0  0  0  0  0  0
   -8.6085    2.1831   -5.2373 H   0  0  0  0  0  0  0  0  0  0  0  0
   -7.1098    2.8065   -4.6893 H   0  0  0  0  0  0  0  0  0  0  0  0
   -7.8222    1.0914   -3.1031 H   0  0  0  0  0  0  0  0  0  0  0  0
   -7.8204    2.6845   -2.3456 H   0  0  0  0  0  0  0  0  0  0  0  0
   -9.9898    1.5508   -1.7449 H   0  0  0  0  0  0  0  0  0  0  0  0
  -10.0549    2.9281   -2.5956 H   0  0  0  0  0  0  0  0  0  0  0  0
  -11.7721    1.5685   -3.5586 H   0  0  0  0  0  0  0  0  0  0  0  0
  -10.5868    1.8204   -4.7922 H   0  0  0  0  0  0  0  0  0  0  0  0
  -10.9035   -0.4970   -4.6076 H   0  0  0  0  0  0  0  0  0  0  0  0
   -9.4090   -0.1347   -4.0513 H   0  0  0  0  0  0  0  0  0  0  0  0
  -11.5851    4.5888   -2.8387 H   0  0  0  0  0  0  0  0  0  0  0  0
  1  2  1  0  0  0  0
  1 42  1  0  0  0  0
  1 43  1  0  0  0  0
  1 44  1  0  0  0  0
  2  3  1  0  0  0  0
  2 45  1  0  0  0  0
  2 46  1  0  0  0  0
  3  4  1  0  0  0  0
  3 47  1  0  0  0  0
  3 48  1  0  0  0  0
  4  5  1  0  0  0  0
  4 49  1  0  0  0  0
  4 50  1  0  0  0  0
  5  6  1  0  0  0  0
  5 51  1  0  0  0  0
  5 52  1  0  0  0  0
  6  7  1  0  0  0  0
  6 53  1  0  0  0  0
  6 54  1  0  0  0  0
  7  8  1  0  0  0  0
  7 55  1  0  0  0  0
  7 56  1  0  0  0  0
  8  9  1  0  0  0  0
  8 57  1  0  0  0  0
  8 58  1  0  0  0  0
  9 10  1  0  0  0  0
  9 59  1  0  0  0  0
  9 60  1  0  0  0  0
 10 11  1  0  0  0  0
 10 61  1  0  0  0  0
 10 62  1  0  0  0  0
 11 12  1  0  0  0  0
 11 63  1  0  0  0  0
 11 64  1  0  0  0  0
 12 13  1  0  0  0  0
 12 65  1  0  0  0  0
 12 66  1  0  0  0  0
 13 14  1  0  0  0  0
 13 67  1  0  0  0  0
 13 68  1  0  0  0  0
 14 15  1  0  0  0  0
 14 69  1  0  0  0  0
 14 70  1  0  0  0  0
 15 16  1  0  0  0  0
 15 71  1  0  0  0  0
 15 72  1  0  0  0  0
 16 17  2  0  0  0  0
 16 18  1  0  0  0  0
 18 19  1  0  0  0  0
 18 73  1  0  0  0  0
 19 20  1  0  0  0  0
 19 74  1  0  0  0  0
 19 75  1  0  0  0  0
 20 21  2  0  0  0  0
 20 22  1  0  0  0  0
 22 76  1  0  0  0  0
 23 22  1  0  0  0  0
 23 24  1  0  0  0  0
 23 30  1  0  0  0  0
 23 77  1  6  0  0  0
 24 25  1  0  0  0  0
 24 78  1  0  0  0  0
 24 79  1  0  0  0  0
 25 26  2  0  0  0  0
 25 29  1  0  0  0  0
 26 27  1  0  0  0  0
 26 80  1  0  0  0  0
 27 28  1  0  0  0  0
 27 81  1  0  0  0  0
 28 29  2  0  0  0  0
 28 82  1  0  0  0  0
 30 31  2  0  0  0  0
 30 32  1  0  0  0  0
 32 83  1  0  0  0  0
 33 32  1  0  0  0  0
 33 34  1  0  0  0  0
 33 39  1  0  0  0  0
 33 84  1  6  0  0  0
 34 35  1  0  0  0  0
 34 85  1  0  0  0  0
 34 86  1  0  0  0  0
 35 36  1  0  0  0  0
 35 87  1  0  0  0  0
 35 88  1  0  0  0  0
 36 37  1  0  0  0  0
 36 89  1  0  0  0  0
 36 90  1  0  0  0  0
 37 38  1  0  0  0  0
 37 91  1  0  0  0  0
 37 92  1  0  0  0  0
 38 93  1  0  0  0  0
 38 94  1  0  0  0  0
 39 40  2  0  0  0  0
 39 41  1  0  0  0  0
 41 95  1  0  0  0  0
M  END
>  <DRUGBANK_ID>
DB11297

>  <COMMON_NAME>
Palmitoyl oligopeptide

>  <CAS_NUMBER>
147732-56-7

>  <UNII>
RV743D216M

>  <SYNONYMS>
Palmitoyl oligopeptide; Palmitoyl tripeptide-1

$$$$
