
 OpenBabel10282417123D

140144  0  0  0  0  0  0  0  0999 V2000
    0.9284   -0.0313   -0.0676 Mg  0  2  0  0  0  0  0  0  0  0  0  0
    2.8479  -14.0734   -3.2650 O   0  0  0  0  0  0  0  0  0  0  0  0
    0.8506  -15.7503   -4.8819 O   0  0  0  0  0  0  0  0  0  0  0  0
    0.8723  -14.0027   -5.0610 O   0  0  0  0  0  0  0  0  0  0  0  0
    1.6495  -14.5334   11.6464 O   0  0  0  0  0  0  0  0  0  0  0  0
    2.5915  -13.8133    9.7353 O   0  0  0  0  0  0  0  0  0  0  0  0
    4.9388   -6.0274    3.1790 O   0  0  0  0  0  0  0  0  0  0  0  0
   -0.7167  -11.4164   -1.8580 N   0  5  0  0  0  0  0  0  0  0  0  0
    0.9278  -10.8652    4.6106 N   0  0  0  0  0  0  0  0  0  0  0  0
    3.3442   -9.9378    3.2459 N   0  5  0  0  0  0  0  0  0  0  0  0
    2.3368   -8.6917    0.4013 N   0  0  0  0  0  0  0  0  0  0  0  0
    1.1077  -11.8994    6.0196 C   0  0  1  0  0  0  0  0  0  0  0  0
    0.7559  -12.0770    7.3991 C   0  0  1  0  0  0  0  0  0  0  0  0
    0.9571  -12.1898    3.4701 C   0  0  0  0  0  0  0  0  0  0  0  0
    0.7880  -12.7564    1.0628 C   0  0  0  0  0  0  0  0  0  0  0  0
    0.1549  -12.3675   -0.6972 C   0  0  0  0  0  0  0  0  0  0  0  0
    0.8420  -13.7895   -1.2164 C   0  0  2  0  0  0  0  0  0  0  0  0
    0.9944  -11.5155    8.3916 C   0  0  0  0  0  0  0  0  0  0  0  0
    1.7201  -10.7857    6.2233 C   0  0  0  0  0  0  0  0  0  0  0  0
    0.7958  -12.5173   -2.5232 C   0  0  0  0  0  0  0  0  0  0  0  0
    1.7712  -13.6267   -2.8916 C   0  0  0  0  0  0  0  0  0  0  0  0
    0.2901  -10.4995   -1.9881 C   0  0  0  0  0  0  0  0  0  0  0  0
    3.2065   -8.7342   -1.8093 C   0  0  2  0  0  0  0  0  0  0  0  0
    1.2987  -11.3777   -2.2943 C   0  0  0  0  0  0  0  0  0  0  0  0
    4.2172   -8.0057   -0.9023 C   0  0  2  0  0  0  0  0  0  0  0  0
    1.3484  -13.4031    7.2327 C   0  0  0  0  0  0  0  0  0  0  0  0
    1.9859   -8.8578   -0.8522 C   0  0  0  0  0  0  0  0  0  0  0  0
    2.7922  -10.9867    5.3804 C   0  0  0  0  0  0  0  0  0  0  0  0
    0.5140  -12.8689    9.9416 C   0  0  0  0  0  0  0  0  0  0  0  0
    3.0849   -9.8510    4.5367 C   0  0  0  0  0  0  0  0  0  0  0  0
    0.5904   -9.3195   -1.3992 C   0  0  0  0  0  0  0  0  0  0  0  0
    3.7136   -8.3883    0.4756 C   0  0  0  0  0  0  0  0  0  0  0  0
    3.8921   -8.7687    2.9385 C   0  0  0  0  0  0  0  0  0  0  0  0
    3.9769   -9.9637   -2.2820 C   0  0  0  0  0  0  0  0  0  0  0  0
    0.7159  -14.4095   -3.5120 C   0  0  0  0  0  0  0  0  0  0  0  0
    3.2517   -8.6096    5.0444 C   0  0  0  0  0  0  0  0  0  0  0  0
    4.4686   -8.4024    1.6033 C   0  0  0  0  0  0  0  0  0  0  0  0
    2.5235  -11.4975   -1.6275 C   0  0  0  0  0  0  0  0  0  0  0  0
    3.8786   -7.9375    4.0398 C   0  0  0  0  0  0  0  0  0  0  0  0
    4.1359   -6.5290   -1.1738 C   0  0  0  0  0  0  0  0  0  0  0  0
    1.6264  -13.7905   10.4900 C   0  0  0  0  0  0  0  0  0  0  0  0
    3.4928  -10.8038   -3.6904 C   0  0  0  0  0  0  0  0  0  0  0  0
    3.0123   -8.1137    6.3838 C   0  0  0  0  0  0  0  0  0  0  0  0
    4.3938   -6.6152    4.1139 C   0  0  0  0  0  0  0  0  0  0  0  0
   -6.8139   -8.8953   12.2040 C   0  0  1  0  0  0  0  0  0  0  0  0
   -5.6652   -8.7756   11.2409 C   0  0  0  0  0  0  0  0  0  0  0  0
   -3.8327  -10.7314   12.5651 C   0  0  2  0  0  0  0  0  0  0  0  0
   -4.3883   -8.3961   11.9214 C   0  0  0  0  0  0  0  0  0  0  0  0
   -4.0672   -9.3263   13.0736 C   0  0  0  0  0  0  0  0  0  0  0  0
   -7.0469   -7.4959   12.7104 C   0  0  0  0  0  0  0  0  0  0  0  0
   -2.6684  -10.6907   11.5796 C   0  0  0  0  0  0  0  0  0  0  0  0
   -7.3664   -6.5654   11.5551 C   0  0  0  0  0  0  0  0  0  0  0  0
   -1.4098  -10.2456   12.2822 C   0  0  0  0  0  0  0  0  0  0  0  0
    4.2685   -5.8598    5.4384 C   0  0  0  0  0  0  0  0  0  0  0  0
   -8.6460   -6.9354   10.8716 C   0  0  0  0  0  0  0  0  0  0  0  0
   -8.0153   -9.5209   11.5859 C   0  0  0  0  0  0  0  0  0  0  0  0
    0.7524  -17.3233   -4.9316 C   0  0  0  0  0  0  0  0  0  0  0  0
   -5.0420  -11.3491   11.9532 C   0  0  0  0  0  0  0  0  0  0  0  0
   -9.8010   -7.0573   11.8241 C   0  0  0  0  0  0  0  0  0  0  0  0
   -1.0793  -11.1723   13.4372 C   0  0  0  0  0  0  0  0  0  0  0  0
    0.5844  -14.5599   12.6101 C   0  0  0  0  0  0  0  0  0  0  0  0
   -0.8547  -12.5834   12.9757 C   0  0  0  0  0  0  0  0  0  0  0  0
    0.3323  -13.1885   13.1522 C   0  0  0  0  0  0  0  0  0  0  0  0
  -10.0282   -5.6732   12.3519 C   0  0  0  0  0  0  0  0  0  0  0  0
  -11.0301   -7.5761   11.1291 C   0  0  0  0  0  0  0  0  0  0  0  0
   -1.9554  -13.3254   12.2435 C   0  0  0  0  0  0  0  0  0  0  0  0
    2.0927  -11.7949    7.3931 H   0  0  0  0  0  0  0  0  0  0  0  0
   -0.2334  -11.5996    7.4676 H   0  0  0  0  0  0  0  0  0  0  0  0
    0.4070  -14.8655   -2.2920 H   0  0  0  0  0  0  0  0  0  0  0  0
    1.2994  -11.2332   10.0099 H   0  0  0  0  0  0  0  0  0  0  0  0
    0.0197  -10.9223    9.4971 H   0  0  0  0  0  0  0  0  0  0  0  0
    2.9368   -8.2468   -2.7185 H   0  0  0  0  0  0  0  0  0  0  0  0
    5.2595   -8.2868   -1.1086 H   0  0  0  0  0  0  0  0  0  0  0  0
    0.8894  -13.9171    7.9937 H   0  0  0  0  0  0  0  0  0  0  0  0
    0.9606  -13.5662    6.2686 H   0  0  0  0  0  0  0  0  0  0  0  0
    2.4549  -13.4223    7.2814 H   0  0  0  0  0  0  0  0  0  0  0  0
    2.4246  -12.0080    4.9202 H   0  0  0  0  0  0  0  0  0  0  0  0
   -0.2228  -12.9367   10.8765 H   0  0  0  0  0  0  0  0  0  0  0  0
   -0.1654  -13.3467    9.3143 H   0  0  0  0  0  0  0  0  0  0  0  0
   -0.2239   -8.6695   -1.1688 H   0  0  0  0  0  0  0  0  0  0  0  0
    4.9288   -9.6202   -2.4452 H   0  0  0  0  0  0  0  0  0  0  0  0
    4.2093  -10.6686   -1.3302 H   0  0  0  0  0  0  0  0  0  0  0  0
    5.5287   -8.0954    1.6090 H   0  0  0  0  0  0  0  0  0  0  0  0
    2.9891  -12.2269   -1.0731 H   0  0  0  0  0  0  0  0  0  0  0  0
    3.3489  -11.7734   -2.2470 H   0  0  0  0  0  0  0  0  0  0  0  0
    2.6002  -10.5653   -1.1978 H   0  0  0  0  0  0  0  0  0  0  0  0
    3.8121   -6.3441   -2.1992 H   0  0  0  0  0  0  0  0  0  0  0  0
    3.4346   -6.0657   -0.4894 H   0  0  0  0  0  0  0  0  0  0  0  0
    5.1167   -6.0683   -1.0424 H   0  0  0  0  0  0  0  0  0  0  0  0
    3.2510  -10.1412   -4.4548 H   0  0  0  0  0  0  0  0  0  0  0  0
    4.1930  -11.6582   -3.7433 H   0  0  0  0  0  0  0  0  0  0  0  0
    2.5510  -11.3872   -3.6493 H   0  0  0  0  0  0  0  0  0  0  0  0
    3.9552   -7.8896    6.8667 H   0  0  0  0  0  0  0  0  0  0  0  0
    2.3707   -7.2436    6.3335 H   0  0  0  0  0  0  0  0  0  0  0  0
    2.5099   -8.8183    6.9960 H   0  0  0  0  0  0  0  0  0  0  0  0
   -6.5925   -9.5491   13.0373 H   0  0  0  0  0  0  0  0  0  0  0  0
   -5.8747   -8.2035   10.3638 H   0  0  0  0  0  0  0  0  0  0  0  0
   -5.5604   -9.6141   10.6472 H   0  0  0  0  0  0  0  0  0  0  0  0
   -3.6162  -11.3845   13.4047 H   0  0  0  0  0  0  0  0  0  0  0  0
   -4.5190   -7.3890   12.2824 H   0  0  0  0  0  0  0  0  0  0  0  0
   -3.5680   -8.3749   11.2101 H   0  0  0  0  0  0  0  0  0  0  0  0
   -4.8710   -9.3298   13.8022 H   0  0  0  0  0  0  0  0  0  0  0  0
   -3.1858   -8.9634   13.5979 H   0  0  0  0  0  0  0  0  0  0  0  0
   -7.8480   -7.5015   13.4369 H   0  0  0  0  0  0  0  0  0  0  0  0
   -6.1618   -7.1349   13.2318 H   0  0  0  0  0  0  0  0  0  0  0  0
   -2.8913  -10.0755   10.7260 H   0  0  0  0  0  0  0  0  0  0  0  0
   -2.4990  -11.6377   11.1016 H   0  0  0  0  0  0  0  0  0  0  0  0
   -7.4946   -5.5597   11.9157 H   0  0  0  0  0  0  0  0  0  0  0  0
   -6.5446   -6.5439   10.8438 H   0  0  0  0  0  0  0  0  0  0  0  0
   -1.5503   -9.2281   12.6433 H   0  0  0  0  0  0  0  0  0  0  0  0
   -0.5840  -10.2214   11.5824 H   0  0  0  0  0  0  0  0  0  0  0  0
    3.2224   -5.7258    5.7191 H   0  0  0  0  0  0  0  0  0  0  0  0
    4.7992   -6.3771    6.2392 H   0  0  0  0  0  0  0  0  0  0  0  0
    4.7040   -4.8685    5.3587 H   0  0  0  0  0  0  0  0  0  0  0  0
   -8.8602   -6.3521   10.0041 H   0  0  0  0  0  0  0  0  0  0  0  0
   -8.5362   -7.7810   10.2823 H   0  0  0  0  0  0  0  0  0  0  0  0
   -7.8781  -10.4813   11.1536 H   0  0  0  0  0  0  0  0  0  0  0  0
   -8.8939   -9.4489   12.2056 H   0  0  0  0  0  0  0  0  0  0  0  0
   -8.2224   -9.1201   10.6519 H   0  0  0  0  0  0  0  0  0  0  0  0
    1.5058  -17.3914   -4.2002 H   0  0  0  0  0  0  0  0  0  0  0  0
   -0.2528  -17.3948   -4.5944 H   0  0  0  0  0  0  0  0  0  0  0  0
    0.8984  -18.3096   -5.5666 H   0  0  0  0  0  0  0  0  0  0  0  0
   -4.9072  -12.3089   11.5198 H   0  0  0  0  0  0  0  0  0  0  0  0
   -5.9194  -11.2767   12.5734 H   0  0  0  0  0  0  0  0  0  0  0  0
   -5.2475  -10.9493   11.0188 H   0  0  0  0  0  0  0  0  0  0  0  0
   -9.5791   -7.7232   12.6589 H   0  0  0  0  0  0  0  0  0  0  0  0
   -1.8905  -11.1621   14.1655 H   0  0  0  0  0  0  0  0  0  0  0  0
   -0.1944  -10.7954   13.9507 H   0  0  0  0  0  0  0  0  0  0  0  0
   -0.2961  -14.9687   12.1148 H   0  0  0  0  0  0  0  0  0  0  0  0
    0.8193  -15.2406   13.4383 H   0  0  0  0  0  0  0  0  0  0  0  0
    1.1365  -12.6677   13.6595 H   0  0  0  0  0  0  0  0  0  0  0  0
  -10.2493   -5.0042   11.5205 H   0  0  0  0  0  0  0  0  0  0  0  0
  -10.8484   -5.6703   13.0543 H   0  0  0  0  0  0  0  0  0  0  0  0
   -9.1396   -5.3055   12.8634 H   0  0  0  0  0  0  0  0  0  0  0  0
  -10.8716   -8.5880   10.7555 H   0  0  0  0  0  0  0  0  0  0  0  0
  -11.8678   -7.5877   11.8247 H   0  0  0  0  0  0  0  0  0  0  0  0
  -11.2763   -6.9275   10.2901 H   0  0  0  0  0  0  0  0  0  0  0  0
   -1.7203  -13.5828   11.2056 H   0  0  0  0  0  0  0  0  0  0  0  0
   -2.2274  -14.2312   12.7397 H   0  0  0  0  0  0  0  0  0  0  0  0
   -2.8680  -12.7793   12.1963 H   0  0  0  0  0  0  0  0  0  0  0  0
  2 21  2  0  0  0  0
  3 35  1  0  0  0  0
  3 57  1  0  0  0  0
  4 35  2  0  0  0  0
  5 41  1  0  0  0  0
  5 61  1  0  0  0  0
  6 41  2  0  0  0  0
  7 44  2  0  0  0  0
  8 16  1  0  0  0  0
  8 22  1  0  0  0  0
  9 14  2  0  0  0  0
  9 19  1  0  0  0  0
 10 30  1  0  0  0  0
 10 33  1  0  0  0  0
 11 27  2  0  0  0  0
 11 32  1  0  0  0  0
 12 13  1  0  0  0  0
 12 14  1  0  0  0  0
 12 18  1  0  0  0  0
 12 67  1  1  0  0  0
 13 19  1  0  0  0  0
 13 26  1  0  0  0  0
 13 68  1  6  0  0  0
 14 15  1  0  0  0  0
 15 16  2  0  0  0  0
 15 17  1  0  0  0  0
 16 20  1  0  0  0  0
 17 21  1  0  0  0  0
 17 35  1  0  0  0  0
 17 69  1  1  0  0  0
 18 29  1  0  0  0  0
 18 70  1  0  0  0  0
 18 71  1  0  0  0  0
 19 28  2  0  0  0  0
 20 21  1  0  0  0  0
 20 24  2  0  0  0  0
 22 24  1  0  0  0  0
 22 31  2  0  0  0  0
 23 25  1  0  0  0  0
 23 27  1  0  0  0  0
 23 72  1  6  0  0  0
 23 34  1  0  0  0  0
 24 38  1  0  0  0  0
 25 32  1  0  0  0  0
 25 73  1  6  0  0  0
 25 40  1  0  0  0  0
 26 74  1  0  0  0  0
 26 75  1  0  0  0  0
 26 76  1  0  0  0  0
 27 31  1  0  0  0  0
 28 30  1  0  0  0  0
 28 77  1  0  0  0  0
 29 41  1  0  0  0  0
 29 78  1  0  0  0  0
 29 79  1  0  0  0  0
 30 36  2  0  0  0  0
 31 80  1  0  0  0  0
 32 37  2  0  0  0  0
 33 37  1  0  0  0  0
 33 39  2  0  0  0  0
 34 42  1  0  0  0  0
 34 81  1  0  0  0  0
 34 82  1  0  0  0  0
 36 39  1  0  0  0  0
 36 43  1  0  0  0  0
 37 83  1  0  0  0  0
 38 84  1  0  0  0  0
 38 85  1  0  0  0  0
 38 86  1  0  0  0  0
 39 44  1  0  0  0  0
 40 87  1  0  0  0  0
 40 88  1  0  0  0  0
 40 89  1  0  0  0  0
 42 90  1  0  0  0  0
 42 91  1  0  0  0  0
 42 92  1  0  0  0  0
 43 93  1  0  0  0  0
 43 94  1  0  0  0  0
 43 95  1  0  0  0  0
 44 54  1  0  0  0  0
 45 46  1  0  0  0  0
 45 50  1  0  0  0  0
 45 56  1  0  0  0  0
 45 96  1  1  0  0  0
 46 48  1  0  0  0  0
 46 97  1  0  0  0  0
 46 98  1  0  0  0  0
 47 49  1  0  0  0  0
 47 51  1  0  0  0  0
 47 58  1  0  0  0  0
 47 99  1  1  0  0  0
 48 49  1  0  0  0  0
 48100  1  0  0  0  0
 48101  1  0  0  0  0
 49102  1  0  0  0  0
 49103  1  0  0  0  0
 50 52  1  0  0  0  0
 50104  1  0  0  0  0
 50105  1  0  0  0  0
 51 53  1  0  0  0  0
 51106  1  0  0  0  0
 51107  1  0  0  0  0
 52 55  1  0  0  0  0
 52108  1  0  0  0  0
 52109  1  0  0  0  0
 53 60  1  0  0  0  0
 53110  1  0  0  0  0
 53111  1  0  0  0  0
 54112  1  0  0  0  0
 54113  1  0  0  0  0
 54114  1  0  0  0  0
 55 59  1  0  0  0  0
 55115  1  0  0  0  0
 55116  1  0  0  0  0
 56117  1  0  0  0  0
 56118  1  0  0  0  0
 56119  1  0  0  0  0
 57120  1  0  0  0  0
 57121  1  0  0  0  0
 57122  1  0  0  0  0
 58123  1  0  0  0  0
 58124  1  0  0  0  0
 58125  1  0  0  0  0
 59 64  1  0  0  0  0
 59 65  1  0  0  0  0
 59126  1  0  0  0  0
 60 62  1  0  0  0  0
 60127  1  0  0  0  0
 60128  1  0  0  0  0
 61 63  1  0  0  0  0
 61129  1  0  0  0  0
 61130  1  0  0  0  0
 62 63  2  0  0  0  0
 62 66  1  0  0  0  0
 63131  1  0  0  0  0
 64132  1  0  0  0  0
 64133  1  0  0  0  0
 64134  1  0  0  0  0
 65135  1  0  0  0  0
 65136  1  0  0  0  0
 65137  1  0  0  0  0
 66138  1  0  0  0  0
 66139  1  0  0  0  0
 66140  1  0  0  0  0
M  CHG  3   1   2   8  -1  10  -1
M  END
>  <DRUGBANK_ID>
DB01853

>  <SECONDARY_ACCESSION_NUMBERS>
EXPT00640

>  <COMMON_NAME>
Bacteriochlorophyll A

>  <CAS_NUMBER>
17499-98-8

>  <SYNONYMS>
Bacterio-chlorophyll A

$$$$
