NPA
 OpenBabel10282417173D

 21 21  0  0  0  0  0  0  0  0999 V2000
   -1.8873    0.0271    0.0035 C   0  0  0  0  0  0  0  0  0  0  0  0
   -1.2187   -1.2062    0.0041 C   0  0  0  0  0  0  0  0  0  0  0  0
    0.1869   -1.2459    0.0118 C   0  0  0  0  0  0  0  0  0  0  0  0
    0.9252   -0.0548    0.0067 C   0  0  0  0  0  0  0  0  0  0  0  0
    0.2574    1.1687    0.0042 C   0  0  0  0  0  0  0  0  0  0  0  0
   -1.1368    1.2114   -0.0044 C   0  0  0  0  0  0  0  0  0  0  0  0
   -3.3957    0.0918    0.0202 C   0  0  0  0  0  0  0  0  0  0  0  0
   -3.9378    0.8301    1.2180 C   0  0  0  0  0  0  0  0  0  0  0  0
    0.8558   -2.5493    0.0400 N   0  3  0  0  0  0  0  0  0  0  0  0
    0.1515   -3.5684    0.0536 O   0  5  0  0  0  0  0  0  0  0  0  0
    2.0979   -2.5550    0.0488 O   0  0  0  0  0  0  0  0  0  0  0  0
    2.2906    0.0328    0.0013 O   0  0  0  0  0  0  0  0  0  0  0  0
   -4.6169    1.8452    1.1862 O   0  0  0  0  0  0  0  0  0  0  0  0
   -3.5994    0.2619    2.3931 O   0  0  0  0  0  0  0  0  0  0  0  0
   -1.7990   -2.1282    0.0091 H   0  0  0  0  0  0  0  0  0  0  0  0
    0.8243    2.0970    0.0135 H   0  0  0  0  0  0  0  0  0  0  0  0
   -1.6349    2.1807   -0.0069 H   0  0  0  0  0  0  0  0  0  0  0  0
   -3.7351    0.6005   -0.8902 H   0  0  0  0  0  0  0  0  0  0  0  0
   -3.8428   -0.9088    0.0041 H   0  0  0  0  0  0  0  0  0  0  0  0
    2.6832   -0.8654   -0.0087 H   0  0  0  0  0  0  0  0  0  0  0  0
   -3.9735    0.8514    3.0812 H   0  0  0  0  0  0  0  0  0  0  0  0
  1  2  2  0  0  0  0
  1  6  1  0  0  0  0
  1  7  1  0  0  0  0
  2  3  1  0  0  0  0
  2 15  1  0  0  0  0
  3  4  2  0  0  0  0
  3  9  1  0  0  0  0
  4  5  1  0  0  0  0
  4 12  1  0  0  0  0
  5  6  2  0  0  0  0
  5 16  1  0  0  0  0
  6 17  1  0  0  0  0
  7  8  1  0  0  0  0
  7 18  1  0  0  0  0
  7 19  1  0  0  0  0
  8 13  2  0  0  0  0
  8 14  1  0  0  0  0
  9 10  1  0  0  0  0
  9 11  2  0  0  0  0
 12 20  1  0  0  0  0
 14 21  1  0  0  0  0
M  CHG  2   9   1  10  -1
M  END
>  <DRUGBANK_ID>
DB08294

>  <COMMON_NAME>
2-(4-HYDROXY-3-NITROPHENYL)ACETIC ACID

$$$$
