299
 OpenBabel10282417103D

 33 34  0  0  0  0  0  0  0  0999 V2000
    0.9598    0.1358    0.0826 O   0  0  0  0  0  0  0  0  0  0  0  0
   -1.0721   -3.4795    0.7682 O   0  0  0  0  0  0  0  0  0  0  0  0
    1.0638   -6.1946    5.6623 O   0  0  0  0  0  0  0  0  0  0  0  0
    2.8100   -3.3468    2.5646 N   0  0  0  0  0  0  0  0  0  0  0  0
    1.4324   -2.3727    4.3803 N   0  0  0  0  0  0  0  0  0  0  0  0
    2.5439   -5.4892    3.1459 N   0  0  0  0  0  0  0  0  0  0  0  0
    0.5721   -3.9613    5.9430 N   0  0  0  0  0  0  0  0  0  0  0  0
    0.1081   -1.7264    6.1426 N   0  0  0  0  0  0  0  0  0  0  0  0
    0.9966   -2.3106    0.1995 C   0  0  0  0  0  0  0  0  0  0  0  0
    2.5429   -2.3704    0.2609 C   0  0  0  0  0  0  0  0  0  0  0  0
    3.1364   -2.2466    1.6812 C   0  0  0  0  0  0  0  0  0  0  0  0
    0.4742   -0.9942    0.7912 C   0  0  0  0  0  0  0  0  0  0  0  0
    0.3366   -3.5140    0.8857 C   0  0  0  0  0  0  0  0  0  0  0  0
    2.0701   -3.3551    3.7147 C   0  0  0  0  0  0  0  0  0  0  0  0
    1.9426   -4.6752    4.0807 C   0  0  0  0  0  0  0  0  0  0  0  0
    3.0521   -4.6684    2.2528 C   0  0  0  0  0  0  0  0  0  0  0  0
    1.1713   -5.0300    5.2748 C   0  0  0  0  0  0  0  0  0  0  0  0
    0.7072   -2.7476    5.4904 C   0  0  0  0  0  0  0  0  0  0  0  0
    1.9295    0.1400    0.0869 H   0  0  0  0  0  0  0  0  0  0  0  0
   -1.3909   -2.8352    1.4254 H   0  0  0  0  0  0  0  0  0  0  0  0
    1.3809   -1.4094    4.0815 H   0  0  0  0  0  0  0  0  0  0  0  0
    0.1800   -0.7540    5.8928 H   0  0  0  0  0  0  0  0  0  0  0  0
   -0.3504   -1.9473    7.0213 H   0  0  0  0  0  0  0  0  0  0  0  0
    0.7042   -2.3383   -0.8594 H   0  0  0  0  0  0  0  0  0  0  0  0
    2.8924   -3.2901   -0.2256 H   0  0  0  0  0  0  0  0  0  0  0  0
    2.9568   -1.5603   -0.3547 H   0  0  0  0  0  0  0  0  0  0  0  0
    4.2296   -2.2140    1.6225 H   0  0  0  0  0  0  0  0  0  0  0  0
    2.8219   -1.3141    2.1582 H   0  0  0  0  0  0  0  0  0  0  0  0
    0.7562   -0.8873    1.8423 H   0  0  0  0  0  0  0  0  0  0  0  0
   -0.6162   -0.9492    0.7561 H   0  0  0  0  0  0  0  0  0  0  0  0
    0.7181   -4.4617    0.4890 H   0  0  0  0  0  0  0  0  0  0  0  0
    0.5095   -3.5015    1.9499 H   0  0  0  0  0  0  0  0  0  0  0  0
    3.5428   -4.9684    1.3344 H   0  0  0  0  0  0  0  0  0  0  0  0
  1 12  1  0  0  0  0
  1 19  1  0  0  0  0
  2 13  1  0  0  0  0
  2 20  1  0  0  0  0
  3 17  2  0  0  0  0
  4 11  1  0  0  0  0
  4 14  1  0  0  0  0
  4 16  1  0  0  0  0
  5 14  1  0  0  0  0
  5 18  1  0  0  0  0
  5 21  1  0  0  0  0
  6 15  1  0  0  0  0
  6 16  2  0  0  0  0
  7 17  1  0  0  0  0
  7 18  2  0  0  0  0
  8 18  1  0  0  0  0
  8 22  1  0  0  0  0
  8 23  1  0  0  0  0
  9 10  1  0  0  0  0
  9 12  1  0  0  0  0
  9 13  1  0  0  0  0
  9 24  1  0  0  0  0
 10 11  1  0  0  0  0
 10 25  1  0  0  0  0
 10 26  1  0  0  0  0
 11 27  1  0  0  0  0
 11 28  1  0  0  0  0
 12 29  1  0  0  0  0
 12 30  1  0  0  0  0
 13 31  1  0  0  0  0
 13 32  1  0  0  0  0
 14 15  2  0  0  0  0
 15 17  1  0  0  0  0
 16 33  1  0  0  0  0
M  END
>  <DRUGBANK_ID>
DB00299

>  <SECONDARY_ACCESSION_NUMBERS>
APRD00041; DB01730

>  <COMMON_NAME>
Penciclovir

>  <CAS_NUMBER>
39809-25-1

>  <UNII>
359HUE8FJC

>  <SYNONYMS>
9-(4-hydroxy-3-(hydroxymethyl)butyl)guanine; 9-(4-hydroxy-3-hydroxymethylbut-1-yl)-guanine; 9-[2-hydroxy-1-(hydroxymethyl)-ethoxymethyl]guanine; 9-[4-hydroxy-3-(hydroxymethyl)but-1-yl]guanine; PCV; PE2; Penciclovir; Penciclovirum

$$$$
