
 OpenBabel10282417153D

 78 81  0  0  1  0  0  0  0  0999 V2000
   -0.1844    1.0857   -7.9611 C   0  0  0  0  0  0  0  0  0  0  0  0
   -1.4169    1.8588   -7.7694 C   0  0  0  0  0  0  0  0  0  0  0  0
   -2.1888    1.8282   -9.0751 C   0  0  0  0  0  0  0  0  0  0  0  0
   -3.3824    2.4116   -9.2833 C   0  0  0  0  0  0  0  0  0  0  0  0
   -3.6311    3.1440   -8.1856 C   0  0  0  0  0  0  0  0  0  0  0  0
   -2.7273    3.3811   -6.8028 C   0  0  0  0  0  0  0  0  0  0  0  0
   -1.7544    2.4517   -6.5023 C   0  0  0  0  0  0  0  0  0  0  0  0
   -1.7348    1.5978   -4.9409 C   0  0  1  0  0  0  0  0  0  0  0  0
   -2.9276    0.7621   -3.9759 C   0  0  0  0  0  0  0  0  0  0  0  0
   -3.5415   -0.5945   -4.5417 C   0  0  2  0  0  0  0  0  0  0  0  0
   -2.2420   -1.4292   -4.8655 C   0  0  0  0  0  0  0  0  0  0  0  0
   -1.1134   -0.7058   -5.5942 C   0  0  0  0  0  0  0  0  0  0  0  0
   -0.6849    0.5705   -5.0093 N   0  0  0  0  0  0  0  0  0  0  0  0
    0.5251    1.0191   -4.5128 C   0  0  0  0  0  0  0  0  0  0  0  0
    0.4932    1.9265   -3.7419 O   0  0  0  0  0  0  0  0  0  0  0  0
    1.7150    0.4702   -4.9964 N   0  0  0  0  0  0  0  0  0  0  0  0
    1.9031   -0.7103   -5.8207 C   0  0  0  0  0  0  0  0  0  0  0  0
    3.0021    0.9695   -4.4589 C   0  0  2  0  0  0  0  0  0  0  0  0
    3.6033   -0.1586   -3.5886 C   0  0  0  0  0  0  0  0  0  0  0  0
    3.0179    2.3558   -3.8369 C   0  0  0  0  0  0  0  0  0  0  0  0
    3.5004    2.5379   -2.5424 C   0  0  0  0  0  0  0  0  0  0  0  0
    3.5518    3.7817   -1.9282 C   0  0  0  0  0  0  0  0  0  0  0  0
    3.0241    4.8841   -2.5930 C   0  0  0  0  0  0  0  0  0  0  0  0
    2.5366    4.7538   -3.9007 C   0  0  0  0  0  0  0  0  0  0  0  0
    2.5282    3.4888   -4.5127 C   0  0  0  0  0  0  0  0  0  0  0  0
    2.1199    5.9670   -4.6838 C   0  0  0  0  0  0  0  0  0  0  0  0
    2.8006    6.0527   -5.8616 F   0  0  0  0  0  0  0  0  0  0  0  0
    0.7999    5.9938   -5.0048 F   0  0  0  0  0  0  0  0  0  0  0  0
    2.3759    7.1340   -4.0277 F   0  0  0  0  0  0  0  0  0  0  0  0
    4.2627    3.8950   -0.6123 C   0  0  0  0  0  0  0  0  0  0  0  0
    5.3326    4.7311   -0.6976 F   0  0  0  0  0  0  0  0  0  0  0  0
    3.4735    4.3666    0.3842 F   0  0  0  0  0  0  0  0  0  0  0  0
    4.7659    2.7061   -0.1672 F   0  0  0  0  0  0  0  0  0  0  0  0
   -4.5512   -0.6202   -5.6921 N   0  0  0  0  0  0  0  0  0  0  0  0
   -3.9769    0.2039   -6.6713 C   0  0  0  0  0  0  0  0  0  0  0  0
   -4.2772    1.6331   -6.2261 C   0  0  0  0  0  0  0  0  0  0  0  0
   -5.4113    2.4995   -6.2746 N   0  0  0  0  0  0  0  0  0  0  0  0
   -6.3110    1.6303   -5.4768 C   0  0  0  0  0  0  0  0  0  0  0  0
   -5.9665   -0.0089   -5.7747 C   0  0  0  0  0  0  0  0  0  0  0  0
   -5.5110    4.0663   -6.6100 C   0  0  0  0  0  0  0  0  0  0  0  0
   -6.6621    4.5906   -6.4882 O   0  0  0  0  0  0  0  0  0  0  0  0
   -4.3180    5.2584   -7.4087 C   0  0  0  0  0  0  0  0  0  0  0  0
   -4.3208    2.1282  -10.1724 F   0  0  0  0  0  0  0  0  0  0  0  0
   -0.4900    0.1173   -8.3589 H   0  0  0  0  0  0  0  0  0  0  0  0
    0.4483    1.6306   -8.6516 H   0  0  0  0  0  0  0  0  0  0  0  0
    0.3359    0.9912   -7.0350 H   0  0  0  0  0  0  0  0  0  0  0  0
   -1.8995    1.1727   -9.8798 H   0  0  0  0  0  0  0  0  0  0  0  0
   -4.7457    3.2117   -8.2379 H   0  0  0  0  0  0  0  0  0  0  0  0
   -3.2331    3.8099   -5.8983 H   0  0  0  0  0  0  0  0  0  0  0  0
   -1.5130    2.4349   -4.2500 H   0  0  0  0  0  0  0  0  0  0  0  0
   -3.7356    1.3943   -3.5798 H   0  0  0  0  0  0  0  0  0  0  0  0
   -2.4029    0.4817   -3.0392 H   0  0  0  0  0  0  0  0  0  0  0  0
   -4.0320   -1.1594   -3.7414 H   0  0  0  0  0  0  0  0  0  0  0  0
   -1.7812   -1.7850   -3.9321 H   0  0  0  0  0  0  0  0  0  0  0  0
   -2.4714   -2.3216   -5.4602 H   0  0  0  0  0  0  0  0  0  0  0  0
   -0.3649   -1.4750   -5.6534 H   0  0  0  0  0  0  0  0  0  0  0  0
   -1.3435   -0.5464   -6.6393 H   0  0  0  0  0  0  0  0  0  0  0  0
    2.6433   -0.5079   -6.5934 H   0  0  0  0  0  0  0  0  0  0  0  0
    2.2085   -1.5435   -5.1795 H   0  0  0  0  0  0  0  0  0  0  0  0
    1.0571   -1.0211   -6.3969 H   0  0  0  0  0  0  0  0  0  0  0  0
    3.6570    1.0765   -5.3396 H   0  0  0  0  0  0  0  0  0  0  0  0
    2.8044   -0.7526   -3.1280 H   0  0  0  0  0  0  0  0  0  0  0  0
    4.2060   -0.8228   -4.2161 H   0  0  0  0  0  0  0  0  0  0  0  0
    4.2799    0.1394   -2.7936 H   0  0  0  0  0  0  0  0  0  0  0  0
    3.8442    1.7049   -1.9444 H   0  0  0  0  0  0  0  0  0  0  0  0
    3.0284    5.8552   -2.1016 H   0  0  0  0  0  0  0  0  0  0  0  0
    2.0431    3.3776   -5.4849 H   0  0  0  0  0  0  0  0  0  0  0  0
   -2.9140    0.1144   -6.6320 H   0  0  0  0  0  0  0  0  0  0  0  0
   -4.1146   -0.0590   -7.7317 H   0  0  0  0  0  0  0  0  0  0  0  0
   -3.8735    1.9329   -5.2897 H   0  0  0  0  0  0  0  0  0  0  0  0
   -3.6722    1.7531   -7.0115 H   0  0  0  0  0  0  0  0  0  0  0  0
   -6.0666    1.7667   -4.4129 H   0  0  0  0  0  0  0  0  0  0  0  0
   -7.3382    1.8913   -5.6970 H   0  0  0  0  0  0  0  0  0  0  0  0
   -6.1817   -0.0625   -6.8714 H   0  0  0  0  0  0  0  0  0  0  0  0
   -6.6804   -0.6963   -5.3392 H   0  0  0  0  0  0  0  0  0  0  0  0
   -3.5888    5.7334   -6.7322 H   0  0  0  0  0  0  0  0  0  0  0  0
   -3.5997    5.0222   -8.2386 H   0  0  0  0  0  0  0  0  0  0  0  0
   -4.8257    5.9781   -8.0625 H   0  0  0  0  0  0  0  0  0  0  0  0
  1  2  1  0  0  0  0
  1 44  1  0  0  0  0
  1 45  1  0  0  0  0
  1 46  1  0  0  0  0
  2  3  2  0  0  0  0
  2  7  1  0  0  0  0
  3  4  1  0  0  0  0
  3 47  1  0  0  0  0
  4  5  2  0  0  0  0
  4 43  1  0  0  0  0
  5  6  1  0  0  0  0
  5 48  1  0  0  0  0
  6  7  2  0  0  0  0
  6 49  1  0  0  0  0
  8  9  1  0  0  0  0
  8 13  1  0  0  0  0
  8 50  1  1  0  0  0
  8  7  1  0  0  0  0
  9 10  1  0  0  0  0
  9 51  1  0  0  0  0
  9 52  1  0  0  0  0
 10 11  1  0  0  0  0
 10 53  1  1  0  0  0
 10 34  1  0  0  0  0
 11 12  1  0  0  0  0
 11 54  1  0  0  0  0
 11 55  1  0  0  0  0
 12 13  1  0  0  0  0
 12 56  1  0  0  0  0
 12 57  1  0  0  0  0
 13 14  1  0  0  0  0
 14 15  2  0  0  0  0
 14 16  1  0  0  0  0
 16 17  1  0  0  0  0
 17 58  1  0  0  0  0
 17 59  1  0  0  0  0
 17 60  1  0  0  0  0
 18 20  1  0  0  0  0
 18 61  1  6  0  0  0
 18 19  1  0  0  0  0
 18 16  1  0  0  0  0
 19 62  1  0  0  0  0
 19 63  1  0  0  0  0
 19 64  1  0  0  0  0
 20 21  2  0  0  0  0
 20 25  1  0  0  0  0
 21 22  1  0  0  0  0
 21 65  1  0  0  0  0
 22 23  2  0  0  0  0
 22 30  1  0  0  0  0
 23 24  1  0  0  0  0
 23 66  1  0  0  0  0
 24 25  2  0  0  0  0
 24 26  1  0  0  0  0
 25 67  1  0  0  0  0
 26 27  1  0  0  0  0
 26 28  1  0  0  0  0
 26 29  1  0  0  0  0
 30 31  1  0  0  0  0
 30 32  1  0  0  0  0
 30 33  1  0  0  0  0
 34 35  1  0  0  0  0
 34 39  1  0  0  0  0
 35 36  1  0  0  0  0
 35 68  1  0  0  0  0
 35 69  1  0  0  0  0
 36 37  1  0  0  0  0
 36 70  1  0  0  0  0
 36 71  1  0  0  0  0
 37 38  1  0  0  0  0
 37 40  1  0  0  0  0
 38 39  1  0  0  0  0
 38 72  1  0  0  0  0
 38 73  1  0  0  0  0
 39 74  1  0  0  0  0
 39 75  1  0  0  0  0
 40 41  2  0  0  0  0
 40 42  1  0  0  0  0
 42 76  1  0  0  0  0
 42 77  1  0  0  0  0
 42 78  1  0  0  0  0
M  END
>  <DRUGBANK_ID>
DB06634

>  <COMMON_NAME>
Casopitant

>  <CAS_NUMBER>
414910-27-3

>  <UNII>
3B03KPM27L

>  <SYNONYMS>
Casopitant

$$$$
