
 OpenBabel10282417193D

 68 71  0  0  1  0  0  0  0  0999 V2000
   -2.2669    0.8642    4.9286 C   0  0  0  0  0  0  0  0  0  0  0  0
   -3.4203    1.5997    3.8601 C   0  0  0  0  0  0  0  0  0  0  0  0
   -3.4380    3.1221    3.6530 C   0  0  0  0  0  0  0  0  0  0  0  0
   -3.3766    0.7152    2.2229 C   0  0  2  0  0  0  0  0  0  0  0  0
   -4.4983    1.7365    0.9893 C   0  0  0  0  0  0  0  0  0  0  0  0
   -5.4420    0.5213   -0.0799 C   0  0  0  0  0  0  0  0  0  0  0  0
   -5.0907   -1.3514    0.4034 C   0  0  2  0  0  0  0  0  0  0  0  0
   -3.8850   -1.3263    1.9060 C   0  0  0  0  0  0  0  0  0  0  0  0
   -3.8963   -1.8527   -0.0128 N   0  0  0  0  0  0  0  0  0  0  0  0
   -3.6407   -0.4110    0.2989 C   0  0  1  0  0  0  0  0  0  0  0  0
   -4.9800   -0.0222    1.9201 C   0  0  0  0  0  0  0  0  0  0  0  0
   -4.0042   -0.6054    3.5964 C   0  0  0  0  0  0  0  0  0  0  0  0
   -2.2514   -0.9076    3.2721 O   0  0  0  0  0  0  0  0  0  0  0  0
   -1.4086   -1.0719    1.7536 C   0  0  0  0  0  0  0  0  0  0  0  0
   -1.9711   -0.4220    0.1981 C   0  0  1  0  0  0  0  0  0  0  0  0
   -1.1904   -0.8468   -0.8960 O   0  0  0  0  0  0  0  0  0  0  0  0
   -1.1269   -2.2176   -0.7389 C   0  0  0  0  0  0  0  0  0  0  0  0
   -1.9354    1.1602    2.1919 C   0  0  0  0  0  0  0  0  0  0  0  0
   -1.0804    2.1180    1.6385 N   0  0  0  0  0  0  0  0  0  0  0  0
   -0.7049    2.6164    2.9493 C   0  0  0  0  0  0  0  0  0  0  0  0
   -0.3758    4.0280    2.9936 C   0  0  0  0  0  0  0  0  0  0  0  0
   -0.9726    4.8422    1.8918 C   0  0  0  0  0  0  0  0  0  0  0  0
   -1.6369    4.3056    0.7939 C   0  0  0  0  0  0  0  0  0  0  0  0
   -2.2807    5.0558   -0.1705 C   0  0  0  0  0  0  0  0  0  0  0  0
   -2.0464    6.3921   -0.1086 C   0  0  0  0  0  0  0  0  0  0  0  0
   -1.3148    6.8738    0.9689 C   0  0  0  0  0  0  0  0  0  0  0  0
   -0.8266    6.1495    1.9934 N   0  0  0  0  0  0  0  0  0  0  0  0
   -2.5147    7.2649   -1.1990 C   0  0  0  0  0  0  0  0  0  0  0  0
   -2.0284    6.8727   -2.4081 F   0  0  0  0  0  0  0  0  0  0  0  0
   -3.8687    7.2573   -1.3170 F   0  0  0  0  0  0  0  0  0  0  0  0
   -2.1396    8.5548   -1.0283 F   0  0  0  0  0  0  0  0  0  0  0  0
   -1.8891    2.8953    0.7513 C   0  0  0  0  0  0  0  0  0  0  0  0
   -1.2655    0.6682    4.5192 H   0  0  0  0  0  0  0  0  0  0  0  0
   -2.5052   -0.1777    5.2160 H   0  0  0  0  0  0  0  0  0  0  0  0
   -2.0823    1.4097    5.8368 H   0  0  0  0  0  0  0  0  0  0  0  0
   -4.3591    1.5924    4.4317 H   0  0  0  0  0  0  0  0  0  0  0  0
   -2.7624    3.4711    2.9167 H   0  0  0  0  0  0  0  0  0  0  0  0
   -4.3092    3.4956    3.1213 H   0  0  0  0  0  0  0  0  0  0  0  0
   -3.1036    3.6281    4.5546 H   0  0  0  0  0  0  0  0  0  0  0  0
   -5.2123    2.3621    1.6175 H   0  0  0  0  0  0  0  0  0  0  0  0
   -4.1039    2.3878    0.2222 H   0  0  0  0  0  0  0  0  0  0  0  0
   -6.5017    0.7019   -0.0438 H   0  0  0  0  0  0  0  0  0  0  0  0
   -5.0255    0.8130   -1.0693 H   0  0  0  0  0  0  0  0  0  0  0  0
   -5.9320   -1.9672    0.7616 H   0  0  0  0  0  0  0  0  0  0  0  0
   -3.3836   -2.2816    2.2815 H   0  0  0  0  0  0  0  0  0  0  0  0
   -4.9784   -1.6967    2.5886 H   0  0  0  0  0  0  0  0  0  0  0  0
   -3.9336   -2.1614   -0.9641 H   0  0  0  0  0  0  0  0  0  0  0  0
   -3.6925   -0.1264   -0.7957 H   0  0  0  0  0  0  0  0  0  0  0  0
   -5.5859    0.8678    2.2479 H   0  0  0  0  0  0  0  0  0  0  0  0
   -5.9971   -0.4637    1.8184 H   0  0  0  0  0  0  0  0  0  0  0  0
   -4.4709   -0.0057    4.3447 H   0  0  0  0  0  0  0  0  0  0  0  0
   -4.1182   -1.5701    4.0964 H   0  0  0  0  0  0  0  0  0  0  0  0
   -1.4004   -2.1326    1.7688 H   0  0  0  0  0  0  0  0  0  0  0  0
   -0.3521   -0.6444    1.8333 H   0  0  0  0  0  0  0  0  0  0  0  0
   -1.8258    0.6576   -0.0846 H   0  0  0  0  0  0  0  0  0  0  0  0
   -0.7504   -2.5116    0.2288 H   0  0  0  0  0  0  0  0  0  0  0  0
   -2.1179   -2.5938   -0.8631 H   0  0  0  0  0  0  0  0  0  0  0  0
   -0.4910   -2.6473   -1.4717 H   0  0  0  0  0  0  0  0  0  0  0  0
   -1.2291    0.6189    2.7767 H   0  0  0  0  0  0  0  0  0  0  0  0
   -2.2242    0.6598    1.4150 H   0  0  0  0  0  0  0  0  0  0  0  0
   -1.4928    2.5213    3.6644 H   0  0  0  0  0  0  0  0  0  0  0  0
   -0.0646    1.9737    3.5745 H   0  0  0  0  0  0  0  0  0  0  0  0
   -0.7244    4.3680    3.9786 H   0  0  0  0  0  0  0  0  0  0  0  0
    0.6899    3.9267    2.8965 H   0  0  0  0  0  0  0  0  0  0  0  0
   -2.8957    4.5978   -0.9524 H   0  0  0  0  0  0  0  0  0  0  0  0
   -1.0569    7.9157    1.0464 H   0  0  0  0  0  0  0  0  0  0  0  0
   -2.0101    2.5358   -0.2861 H   0  0  0  0  0  0  0  0  0  0  0  0
   -2.8659    2.9671    1.1715 H   0  0  0  0  0  0  0  0  0  0  0  0
  1  2  1  0  0  0  0
  1 33  1  0  0  0  0
  1 34  1  0  0  0  0
  1 35  1  0  0  0  0
  2  3  1  0  0  0  0
  2 36  1  0  0  0  0
  3 37  1  0  0  0  0
  3 38  1  0  0  0  0
  3 39  1  0  0  0  0
  4  2  1  1  0  0  0
  4  5  1  0  0  0  0
  4  8  1  0  0  0  0
  4 18  1  0  0  0  0
  5  6  1  0  0  0  0
  5 40  1  0  0  0  0
  5 41  1  0  0  0  0
  6  7  1  0  0  0  0
  6 42  1  0  0  0  0
  6 43  1  0  0  0  0
  7  8  1  0  0  0  0
  7 44  1  1  0  0  0
  7  9  1  0  0  0  0
  8 45  1  0  0  0  0
  8 46  1  0  0  0  0
  9 47  1  0  0  0  0
 10 11  1  0  0  0  0
 10 15  1  0  0  0  0
 10 48  1  6  0  0  0
 10  9  1  0  0  0  0
 11 12  1  0  0  0  0
 11 49  1  0  0  0  0
 11 50  1  0  0  0  0
 12 13  1  0  0  0  0
 12 51  1  0  0  0  0
 12 52  1  0  0  0  0
 13 14  1  0  0  0  0
 14 15  1  0  0  0  0
 14 53  1  0  0  0  0
 14 54  1  0  0  0  0
 15 16  1  0  0  0  0
 15 55  1  1  0  0  0
 16 17  1  0  0  0  0
 17 56  1  0  0  0  0
 17 57  1  0  0  0  0
 17 58  1  0  0  0  0
 18 19  1  0  0  0  0
 18 59  1  0  0  0  0
 18 60  1  0  0  0  0
 19 20  1  0  0  0  0
 19 32  1  0  0  0  0
 20 21  1  0  0  0  0
 20 61  1  0  0  0  0
 20 62  1  0  0  0  0
 21 22  1  0  0  0  0
 21 63  1  0  0  0  0
 21 64  1  0  0  0  0
 22 23  2  0  0  0  0
 22 27  1  0  0  0  0
 23 24  1  0  0  0  0
 23 32  1  0  0  0  0
 24 25  2  0  0  0  0
 24 65  1  0  0  0  0
 25 26  1  0  0  0  0
 25 28  1  0  0  0  0
 26 27  2  0  0  0  0
 26 66  1  0  0  0  0
 28 29  1  0  0  0  0
 28 30  1  0  0  0  0
 28 31  1  0  0  0  0
 32 67  1  0  0  0  0
 32 68  1  0  0  0  0
M  END
>  <DRUGBANK_ID>
DB11990

>  <COMMON_NAME>
MK-0812

>  <CAS_NUMBER>
624733-88-6

>  <UNII>
P3LKY4ZL5O

$$$$
