
 OpenBabel10282417173D

 18 17  0  0  0  0  0  0  0  0999 V2000
    0.9785    0.0035   -0.0824 C   0  0  0  0  0  0  0  0  0  0  0  0
    4.1360    5.2990    0.6565 C   0  0  0  0  0  0  0  0  0  0  0  0
    1.7154    2.4611   -1.3000 C   0  0  0  0  0  0  0  0  0  0  0  0
    2.0644    3.6235   -1.8750 C   0  0  0  0  0  0  0  0  0  0  0  0
    0.8618    1.4985   -2.0334 C   0  0  0  0  0  0  0  0  0  0  0  0
    2.9107    4.6612   -1.2426 C   0  0  0  0  0  0  0  0  0  0  0  0
    0.4564    1.7313   -3.1667 O   0  0  0  0  0  0  0  0  0  0  0  0
    3.1937    5.7020   -1.8206 O   0  0  0  0  0  0  0  0  0  0  0  0
    0.5391    0.3394   -1.4061 O   0  0  0  0  0  0  0  0  0  0  0  0
    3.3123    4.3187    0.0073 O   0  0  0  0  0  0  0  0  0  0  0  0
    2.0528    2.2216   -0.3049 H   0  0  0  0  0  0  0  0  0  0  0  0
    1.7319    3.8792   -2.8782 H   0  0  0  0  0  0  0  0  0  0  0  0
    0.5755   -0.9807    0.1740 H   0  0  0  0  0  0  0  0  0  0  0  0
    0.5916    0.7296    0.6376 H   0  0  0  0  0  0  0  0  0  0  0  0
    2.0699   -0.0556   -0.0525 H   0  0  0  0  0  0  0  0  0  0  0  0
    5.0644    5.4617    0.0986 H   0  0  0  0  0  0  0  0  0  0  0  0
    3.5945    6.2423    0.7848 H   0  0  0  0  0  0  0  0  0  0  0  0
    4.3989    4.9210    1.6496 H   0  0  0  0  0  0  0  0  0  0  0  0
  1 13  1  0  0  0  0
  1 14  1  0  0  0  0
  1 15  1  0  0  0  0
  2 16  1  0  0  0  0
  2 17  1  0  0  0  0
  2 18  1  0  0  0  0
  4  3  2  0  0  0  0
  5  3  1  0  0  0  0
  6  4  1  0  0  0  0
  7  5  2  0  0  0  0
  8  6  2  0  0  0  0
  9  1  1  0  0  0  0
  9  5  1  0  0  0  0
 10  2  1  0  0  0  0
 10  6  1  0  0  0  0
 11  3  1  0  0  0  0
 12  4  1  0  0  0  0
M  END
>  <DRUGBANK_ID>
DB08908

>  <COMMON_NAME>
Dimethyl fumarate

>  <CAS_NUMBER>
624-49-7

>  <UNII>
FO2303MNI2

>  <SYNONYMS>
(E)-But-2-enedioic acid dimethyl ester; 1,2-bis(methoxycarbonyl)-trans-ethylene; Dimethyl fumarate; Dimethyl trans-ethylenedicarboxylate; Dimethylfumarat; Fumaric acid, dimethyl ester; trans-1,2-Ethylenedicarboxylic acid dimethyl ester; trans-Butenedioic acid dimethyl ester

$$$$
