
 OpenBabel10282417233D

  6  4  0  0  0  0  0  0  0  0999 V2000
    0.6728   -0.2612    0.2761 Cl  0  0  0  0  0  0  0  0  0  0  0  0
    0.1881   -1.5952    0.5276 O   0  0  0  0  0  0  0  0  0  0  0  0
    0.2232    0.6996    1.2523 O   0  0  0  0  0  0  0  0  0  0  0  0
    0.2720    0.1909   -1.0458 O   0  0  0  0  0  0  0  0  0  0  0  0
    2.1255   -0.2418    0.2342 O   0  5  0  0  0  0  0  0  0  0  0  0
    2.2789    1.0611   -1.5952 Na  0  3  0  0  0  0  0  0  0  0  0  0
  1  2  2  0  0  0  0
  1  3  2  0  0  0  0
  1  4  2  0  0  0  0
  1  5  1  0  0  0  0
M  CHG  2   5  -1   6   1
M  END
>  <DRUGBANK_ID>
DB16608

>  <COMMON_NAME>
Sodium perchlorate

>  <CAS_NUMBER>
7601-89-0

>  <UNII>
97F4MTY3VA

>  <SYNONYMS>
Natriumperchloraat; Natriumperchlorat; Perchlorate de sodium; Perchloric acid, sodium salt

$$$$
