
 OpenBabel10282417123D

 79 82  0  0  0  0  0  0  0  0999 V2000
   10.8661   -2.7395    5.1014 C   0  0  0  0  0  0  0  0  0  0  0  0
   10.8232   -4.1177    5.3198 C   0  0  0  0  0  0  0  0  0  0  0  0
   11.0577   -4.9962    4.2692 C   0  0  0  0  0  0  0  0  0  0  0  0
   11.3117   -4.5015    2.9897 C   0  0  0  0  0  0  0  0  0  0  0  0
   11.3361   -3.1287    2.7550 C   0  0  0  0  0  0  0  0  0  0  0  0
   11.1531   -2.2500    3.8156 C   0  0  0  0  0  0  0  0  0  0  0  0
   10.5370   -1.8183    6.1747 C   0  0  0  0  0  0  0  0  0  0  0  0
    9.9088    0.0759    8.1622 C   0  0  0  0  0  0  0  0  0  0  0  0
   10.9413   -0.8421    8.3702 C   0  0  0  0  0  0  0  0  0  0  0  0
   11.2497   -1.7815    7.3810 C   0  0  0  0  0  0  0  0  0  0  0  0
    9.4809   -0.9391    5.9878 C   0  0  0  0  0  0  0  0  0  0  0  0
    9.2080    0.0108    6.9481 C   0  0  0  0  0  0  0  0  0  0  0  0
    9.5040    1.0684    9.2338 C   0  0  0  0  0  0  0  0  0  0  0  0
   10.0499    4.5184   10.1230 C   0  0  0  0  0  0  0  0  0  0  0  0
   10.6532    3.2958    9.4282 C   0  0  0  0  0  0  0  0  0  0  0  0
    8.7342    2.9361    7.8453 C   0  0  0  0  0  0  0  0  0  0  0  0
    8.6181    5.3151    8.1517 C   0  0  0  0  0  0  0  0  0  0  0  0
    9.6998    5.6458    9.1623 C   0  0  0  0  0  0  0  0  0  0  0  0
    9.6415    2.4560    8.7846 N   0  0  0  0  0  0  0  0  0  0  0  0
    7.6622    2.3700    7.6036 O   0  0  0  0  0  0  0  0  0  0  0  0
    9.0470    4.2628    7.1392 C   0  0  2  0  0  0  0  0  0  0  0  0
    8.2810    4.3146    5.8693 N   0  0  0  0  0  0  0  0  0  0  0  0
    7.9491    5.4725    5.1891 C   0  0  0  0  0  0  0  0  0  0  0  0
    8.2679    6.5993    5.5763 O   0  0  0  0  0  0  0  0  0  0  0  0
    7.1692    5.3133    3.8644 C   0  0  1  0  0  0  0  0  0  0  0  0
    6.8922    6.6612    3.2962 N   0  0  0  0  0  0  0  0  0  0  0  0
    5.6325    7.1765    3.1735 C   0  0  0  0  0  0  0  0  0  0  0  0
    5.5231    8.5896    2.6610 C   0  0  0  0  0  0  0  0  0  0  0  0
    4.6177    6.4834    3.3500 O   0  0  0  0  0  0  0  0  0  0  0  0
    8.0194    4.4994    2.8665 C   0  0  0  0  0  0  0  0  0  0  0  0
    7.1502    3.6359    1.9834 C   0  0  0  0  0  0  0  0  0  0  0  0
    5.9119    1.5864    1.7313 C   0  0  0  0  0  0  0  0  0  0  0  0
    6.8935    2.3173    2.3772 C   0  0  0  0  0  0  0  0  0  0  0  0
    6.4471    4.2038    0.9076 C   0  0  0  0  0  0  0  0  0  0  0  0
    5.3383    3.5352    0.3680 C   0  0  0  0  0  0  0  0  0  0  0  0
    5.1347    2.1895    0.7323 C   0  0  0  0  0  0  0  0  0  0  0  0
    3.9173    4.4426   -0.2169 P   0  0  0  0  0  0  0  0  0  0  0  0
    2.5828    3.8795    0.1385 O   0  0  0  0  0  0  0  0  0  0  0  0
    3.9670    4.7145   -1.7985 O   0  0  0  0  0  0  0  0  0  0  0  0
    4.1342    5.9208    0.3753 O   0  0  0  0  0  0  0  0  0  0  0  0
    3.9475    1.2044   -0.2521 P   0  0  0  0  0  0  0  0  0  0  0  0
    3.0887    0.9097    0.9815 O   0  0  0  0  0  0  0  0  0  0  0  0
    2.8252    0.2731   -1.1827 O   0  0  0  0  0  0  0  0  0  0  0  0
    4.9782   -0.0689   -0.3742 O   0  0  0  0  0  0  0  0  0  0  0  0
   10.5826   -4.5018    6.3085 H   0  0  0  0  0  0  0  0  0  0  0  0
   11.0196   -6.0654    4.4502 H   0  0  0  0  0  0  0  0  0  0  0  0
   11.4904   -5.1911    2.1710 H   0  0  0  0  0  0  0  0  0  0  0  0
   11.4874   -2.7423    1.7514 H   0  0  0  0  0  0  0  0  0  0  0  0
   11.2212   -1.1768    3.6411 H   0  0  0  0  0  0  0  0  0  0  0  0
   11.5174   -0.8399    9.2919 H   0  0  0  0  0  0  0  0  0  0  0  0
   12.0558   -2.4912    7.5484 H   0  0  0  0  0  0  0  0  0  0  0  0
    8.8520   -0.9809    5.1003 H   0  0  0  0  0  0  0  0  0  0  0  0
    8.4110    0.6863    6.6866 H   0  0  0  0  0  0  0  0  0  0  0  0
    8.4627    0.8797    9.5202 H   0  0  0  0  0  0  0  0  0  0  0  0
   10.1031    0.9076   10.1398 H   0  0  0  0  0  0  0  0  0  0  0  0
   10.7863    4.9207   10.8295 H   0  0  0  0  0  0  0  0  0  0  0  0
    9.1664    4.2373   10.7097 H   0  0  0  0  0  0  0  0  0  0  0  0
   11.3932    3.5910    8.6788 H   0  0  0  0  0  0  0  0  0  0  0  0
   11.1832    2.7073   10.1875 H   0  0  0  0  0  0  0  0  0  0  0  0
    8.3755    6.2592    7.6780 H   0  0  0  0  0  0  0  0  0  0  0  0
    7.6968    4.9952    8.6559 H   0  0  0  0  0  0  0  0  0  0  0  0
   10.6021    5.9723    8.6310 H   0  0  0  0  0  0  0  0  0  0  0  0
    9.3452    6.5047    9.7418 H   0  0  0  0  0  0  0  0  0  0  0  0
   10.1085    4.2995    6.8633 H   0  0  0  0  0  0  0  0  0  0  0  0
    8.0127    3.4091    5.4920 H   0  0  0  0  0  0  0  0  0  0  0  0
    6.2152    4.8258    4.1100 H   0  0  0  0  0  0  0  0  0  0  0  0
    7.6680    7.3165    3.3337 H   0  0  0  0  0  0  0  0  0  0  0  0
    4.9996    8.5716    1.6981 H   0  0  0  0  0  0  0  0  0  0  0  0
    4.9448    9.1980    3.3627 H   0  0  0  0  0  0  0  0  0  0  0  0
    6.4996    9.0559    2.5073 H   0  0  0  0  0  0  0  0  0  0  0  0
    8.6239    5.1685    2.2445 H   0  0  0  0  0  0  0  0  0  0  0  0
    8.7327    3.8496    3.3843 H   0  0  0  0  0  0  0  0  0  0  0  0
    5.6966    0.5618    2.0322 H   0  0  0  0  0  0  0  0  0  0  0  0
    7.4326    1.8578    3.2022 H   0  0  0  0  0  0  0  0  0  0  0  0
    6.6628    5.2307    0.6150 H   0  0  0  0  0  0  0  0  0  0  0  0
    3.0545    4.8746   -2.1390 H   0  0  0  0  0  0  0  0  0  0  0  0
    4.6524    5.8967    1.2107 H   0  0  0  0  0  0  0  0  0  0  0  0
    2.6910   -0.5301   -0.6402 H   0  0  0  0  0  0  0  0  0  0  0  0
    5.5874   -0.0327   -1.1293 H   0  0  0  0  0  0  0  0  0  0  0  0
  1  2  2  0  0  0  0
  1  6  1  0  0  0  0
  1  7  1  0  0  0  0
  2  3  1  0  0  0  0
  2 45  1  0  0  0  0
  3  4  2  0  0  0  0
  3 46  1  0  0  0  0
  4  5  1  0  0  0  0
  4 47  1  0  0  0  0
  5  6  2  0  0  0  0
  5 48  1  0  0  0  0
  6 49  1  0  0  0  0
  7 10  1  0  0  0  0
  7 11  2  0  0  0  0
  8  9  1  0  0  0  0
  8 12  2  0  0  0  0
  8 13  1  0  0  0  0
  9 10  2  0  0  0  0
  9 50  1  0  0  0  0
 10 51  1  0  0  0  0
 11 12  1  0  0  0  0
 11 52  1  0  0  0  0
 12 53  1  0  0  0  0
 13 19  1  0  0  0  0
 13 54  1  0  0  0  0
 13 55  1  0  0  0  0
 14 15  1  0  0  0  0
 14 18  1  0  0  0  0
 14 56  1  0  0  0  0
 14 57  1  0  0  0  0
 15 19  1  0  0  0  0
 15 58  1  0  0  0  0
 15 59  1  0  0  0  0
 16 19  1  0  0  0  0
 16 21  1  0  0  0  0
 16 20  2  0  0  0  0
 17 21  1  0  0  0  0
 17 18  1  0  0  0  0
 17 60  1  0  0  0  0
 17 61  1  0  0  0  0
 18 62  1  0  0  0  0
 18 63  1  0  0  0  0
 21 64  1  6  0  0  0
 21 22  1  0  0  0  0
 22 23  1  0  0  0  0
 22 65  1  0  0  0  0
 23 24  2  0  0  0  0
 25 26  1  0  0  0  0
 25 66  1  1  0  0  0
 25 30  1  0  0  0  0
 25 23  1  0  0  0  0
 26 27  1  0  0  0  0
 26 67  1  0  0  0  0
 27 28  1  0  0  0  0
 27 29  2  0  0  0  0
 28 68  1  0  0  0  0
 28 69  1  0  0  0  0
 28 70  1  0  0  0  0
 30 31  1  0  0  0  0
 30 71  1  0  0  0  0
 30 72  1  0  0  0  0
 31 33  1  0  0  0  0
 31 34  2  0  0  0  0
 32 36  1  0  0  0  0
 32 33  2  0  0  0  0
 32 73  1  0  0  0  0
 33 74  1  0  0  0  0
 34 35  1  0  0  0  0
 34 75  1  0  0  0  0
 35 36  2  0  0  0  0
 35 37  1  0  0  0  0
 36 41  1  0  0  0  0
 37 38  2  0  0  0  0
 37 40  1  0  0  0  0
 37 39  1  0  0  0  0
 39 76  1  0  0  0  0
 40 77  1  0  0  0  0
 41 44  1  0  0  0  0
 41 42  2  0  0  0  0
 41 43  1  0  0  0  0
 43 78  1  0  0  0  0
 44 79  1  0  0  0  0
M  END
>  <DRUGBANK_ID>
DB02336

>  <SECONDARY_ACCESSION_NUMBERS>
EXPT00328

>  <COMMON_NAME>
RU83876

$$$$
