
 OpenBabel10282417193D

 76 78  0  0  1  0  0  0  0  0999 V2000
   -2.6809   -5.3910    2.3089 C   0  0  0  0  0  0  0  0  0  0  0  0
   -3.3040   -3.9469    2.2321 C   0  0  0  0  0  0  0  0  0  0  0  0
   -2.7755   -3.0769    3.2560 C   0  0  0  0  0  0  0  0  0  0  0  0
   -1.3469   -3.1752    2.8333 C   0  0  1  0  0  0  0  0  0  0  0  0
   -0.9785   -2.6356    1.3391 C   0  0  0  0  0  0  0  0  0  0  0  0
   -0.2567   -1.6534    1.2691 O   0  0  0  0  0  0  0  0  0  0  0  0
   -1.3549   -3.2562    0.0992 N   0  0  0  0  0  0  0  0  0  0  0  0
   -2.3598   -4.1772   -0.3754 C   0  0  0  0  0  0  0  0  0  0  0  0
   -3.7786   -4.1366   -0.3426 C   0  0  0  0  0  0  0  0  0  0  0  0
   -4.1488   -5.4759   -0.1131 N   0  0  0  0  0  0  0  0  0  0  0  0
   -3.1188   -6.1634   -0.7322 C   0  0  0  0  0  0  0  0  0  0  0  0
   -2.0222   -5.4223   -0.8407 N   0  0  0  0  0  0  0  0  0  0  0  0
   -5.2073   -6.1091    0.7775 C   0  0  0  0  0  0  0  0  0  0  0  0
   -6.3281   -6.4746   -0.1948 C   0  0  0  0  0  0  0  0  0  0  0  0
   -4.8747   -7.4727    1.5590 C   0  0  0  0  0  0  0  0  0  0  0  0
   -5.9006   -5.2525    1.9214 C   0  0  0  0  0  0  0  0  0  0  0  0
   -5.2819   -5.0666    3.2422 N   0  0  0  0  0  0  0  0  0  0  0  0
   -5.7569   -4.0156    4.1226 C   0  0  0  0  0  0  0  0  0  0  0  0
   -7.0114   -4.5116    4.8176 C   0  0  0  0  0  0  0  0  0  0  0  0
   -6.6457   -5.8104    5.5674 C   0  0  0  0  0  0  0  0  0  0  0  0
   -7.4813   -3.4360    5.7891 C   0  0  0  0  0  0  0  0  0  0  0  0
   -8.1496   -4.7278    3.8121 C   0  0  0  0  0  0  0  0  0  0  0  0
   -0.7720   -2.4668    3.9455 N   0  0  0  0  0  0  0  0  0  0  0  0
    0.6147   -2.8441    4.0975 C   0  0  1  0  0  0  0  0  0  0  0  0
    1.2886   -1.6378    4.7006 C   0  0  0  0  0  0  0  0  0  0  0  0
    0.6365   -1.2755    6.0343 C   0  0  0  0  0  0  0  0  0  0  0  0
    0.4720   -2.4718    6.9400 C   0  0  0  0  0  0  0  0  0  0  0  0
    0.2094   -2.2533    8.2940 C   0  0  0  0  0  0  0  0  0  0  0  0
    0.0484   -3.3337    9.1535 C   0  0  0  0  0  0  0  0  0  0  0  0
    0.1206   -4.6400    8.6932 C   0  0  0  0  0  0  0  0  0  0  0  0
    0.3480   -4.8613    7.3437 C   0  0  0  0  0  0  0  0  0  0  0  0
    0.5144   -3.7946    6.4531 C   0  0  0  0  0  0  0  0  0  0  0  0
    0.7728   -4.0872    4.9981 C   0  0  0  0  0  0  0  0  0  0  0  0
    0.4131   -6.1243    6.8957 F   0  0  0  0  0  0  0  0  0  0  0  0
   -0.1725   -3.1033   10.4535 F   0  0  0  0  0  0  0  0  0  0  0  0
   -1.6264   -5.4833    2.0359 H   0  0  0  0  0  0  0  0  0  0  0  0
   -3.0213   -6.1229    1.6107 H   0  0  0  0  0  0  0  0  0  0  0  0
   -2.8365   -5.8465    3.2842 H   0  0  0  0  0  0  0  0  0  0  0  0
   -3.0521   -3.3140    1.4178 H   0  0  0  0  0  0  0  0  0  0  0  0
   -4.3439   -3.7516    2.0704 H   0  0  0  0  0  0  0  0  0  0  0  0
   -3.2032   -2.0695    3.1419 H   0  0  0  0  0  0  0  0  0  0  0  0
   -3.0231   -3.4627    4.2467 H   0  0  0  0  0  0  0  0  0  0  0  0
   -0.9372   -4.1730    2.9340 H   0  0  0  0  0  0  0  0  0  0  0  0
   -0.8750   -2.7937   -0.6631 H   0  0  0  0  0  0  0  0  0  0  0  0
   -4.4526   -3.3261   -0.0847 H   0  0  0  0  0  0  0  0  0  0  0  0
   -3.1910   -7.2240   -0.9196 H   0  0  0  0  0  0  0  0  0  0  0  0
   -5.9639   -7.2206   -0.9037 H   0  0  0  0  0  0  0  0  0  0  0  0
   -7.1903   -6.9034    0.3295 H   0  0  0  0  0  0  0  0  0  0  0  0
   -6.6641   -5.5850   -0.7327 H   0  0  0  0  0  0  0  0  0  0  0  0
   -4.2487   -7.3682    2.4561 H   0  0  0  0  0  0  0  0  0  0  0  0
   -5.7995   -7.8951    1.9869 H   0  0  0  0  0  0  0  0  0  0  0  0
   -4.4137   -8.2374    0.9377 H   0  0  0  0  0  0  0  0  0  0  0  0
   -6.2730   -4.3021    1.5229 H   0  0  0  0  0  0  0  0  0  0  0  0
   -6.7472   -5.8758    2.1462 H   0  0  0  0  0  0  0  0  0  0  0  0
   -4.8772   -5.8621    3.7193 H   0  0  0  0  0  0  0  0  0  0  0  0
   -4.9950   -3.7992    4.8911 H   0  0  0  0  0  0  0  0  0  0  0  0
   -5.8837   -3.0548    3.6001 H   0  0  0  0  0  0  0  0  0  0  0  0
   -5.8699   -5.6176    6.3207 H   0  0  0  0  0  0  0  0  0  0  0  0
   -7.5177   -6.2497    6.0450 H   0  0  0  0  0  0  0  0  0  0  0  0
   -6.2398   -6.5867    4.9050 H   0  0  0  0  0  0  0  0  0  0  0  0
   -7.6814   -2.4992    5.2546 H   0  0  0  0  0  0  0  0  0  0  0  0
   -8.4082   -3.7618    6.2671 H   0  0  0  0  0  0  0  0  0  0  0  0
   -6.7376   -3.2326    6.5645 H   0  0  0  0  0  0  0  0  0  0  0  0
   -8.2005   -3.8904    3.1013 H   0  0  0  0  0  0  0  0  0  0  0  0
   -8.0599   -5.6570    3.2587 H   0  0  0  0  0  0  0  0  0  0  0  0
   -9.1102   -4.8389    4.3069 H   0  0  0  0  0  0  0  0  0  0  0  0
   -0.9729   -1.4762    3.8757 H   0  0  0  0  0  0  0  0  0  0  0  0
    1.0554   -3.0674    3.1205 H   0  0  0  0  0  0  0  0  0  0  0  0
    2.3473   -1.8694    4.8330 H   0  0  0  0  0  0  0  0  0  0  0  0
    1.2130   -0.7935    4.0033 H   0  0  0  0  0  0  0  0  0  0  0  0
    1.2476   -0.5079    6.5147 H   0  0  0  0  0  0  0  0  0  0  0  0
   -0.3581   -0.8324    5.8752 H   0  0  0  0  0  0  0  0  0  0  0  0
    0.1339   -1.2427    8.6835 H   0  0  0  0  0  0  0  0  0  0  0  0
    0.0013   -5.4730    9.3737 H   0  0  0  0  0  0  0  0  0  0  0  0
    0.1155   -4.9066    4.6700 H   0  0  0  0  0  0  0  0  0  0  0  0
    1.8002   -4.4554    4.8944 H   0  0  0  0  0  0  0  0  0  0  0  0
  1  2  1  0  0  0  0
  1 36  1  0  0  0  0
  1 37  1  0  0  0  0
  1 38  1  0  0  0  0
  2  3  1  0  0  0  0
  2 39  1  0  0  0  0
  2 40  1  0  0  0  0
  3  4  1  0  0  0  0
  3 41  1  0  0  0  0
  3 42  1  0  0  0  0
  4  5  1  0  0  0  0
  4 23  1  0  0  0  0
  4 43  1  1  0  0  0
  5  6  2  0  0  0  0
  5  7  1  0  0  0  0
  7  8  1  0  0  0  0
  7 44  1  0  0  0  0
  8  9  2  0  0  0  0
  8 12  1  0  0  0  0
  9 10  1  0  0  0  0
  9 45  1  0  0  0  0
 10 11  1  0  0  0  0
 10 13  1  0  0  0  0
 11 12  2  0  0  0  0
 11 46  1  0  0  0  0
 13 14  1  0  0  0  0
 13 15  1  0  0  0  0
 13 16  1  0  0  0  0
 14 47  1  0  0  0  0
 14 48  1  0  0  0  0
 14 49  1  0  0  0  0
 15 50  1  0  0  0  0
 15 51  1  0  0  0  0
 15 52  1  0  0  0  0
 16 17  1  0  0  0  0
 16 53  1  0  0  0  0
 16 54  1  0  0  0  0
 17 18  1  0  0  0  0
 17 55  1  0  0  0  0
 18 19  1  0  0  0  0
 18 56  1  0  0  0  0
 18 57  1  0  0  0  0
 19 20  1  0  0  0  0
 19 21  1  0  0  0  0
 19 22  1  0  0  0  0
 20 58  1  0  0  0  0
 20 59  1  0  0  0  0
 20 60  1  0  0  0  0
 21 61  1  0  0  0  0
 21 62  1  0  0  0  0
 21 63  1  0  0  0  0
 22 64  1  0  0  0  0
 22 65  1  0  0  0  0
 22 66  1  0  0  0  0
 23 67  1  0  0  0  0
 24 25  1  0  0  0  0
 24 33  1  0  0  0  0
 24 68  1  6  0  0  0
 24 23  1  0  0  0  0
 25 26  1  0  0  0  0
 25 69  1  0  0  0  0
 25 70  1  0  0  0  0
 26 27  1  0  0  0  0
 26 71  1  0  0  0  0
 26 72  1  0  0  0  0
 27 28  2  0  0  0  0
 27 32  1  0  0  0  0
 28 29  1  0  0  0  0
 28 73  1  0  0  0  0
 29 30  2  0  0  0  0
 29 35  1  0  0  0  0
 30 31  1  0  0  0  0
 30 74  1  0  0  0  0
 31 32  2  0  0  0  0
 31 34  1  0  0  0  0
 32 33  1  0  0  0  0
 33 75  1  0  0  0  0
 33 76  1  0  0  0  0
M  END
>  <DRUGBANK_ID>
DB12005

>  <COMMON_NAME>
Nirogacestat

>  <CAS_NUMBER>
1290543-63-3

>  <UNII>
QZ62892OFJ

>  <SYNONYMS>
Nirogacestat

$$$$
