
 OpenBabel10282417223D

 46 49  0  0  1  0  0  0  0  0999 V2000
   -3.1417   -1.1918    2.8479 F   0  0  0  0  0  0  0  0  0  0  0  0
   -3.1886    0.1754    2.7684 C   0  0  0  0  0  0  0  0  0  0  0  0
   -2.9523    1.0698    1.4878 C   0  0  0  0  0  0  0  0  0  0  0  0
   -2.4249    0.5185   -0.3019 N   0  0  0  0  0  0  0  0  0  0  0  0
   -2.0084    0.7262   -1.5735 C   0  0  0  0  0  0  0  0  0  0  0  0
   -1.8664   -0.1985   -2.3750 O   0  0  0  0  0  0  0  0  0  0  0  0
   -1.5080    1.9319   -1.7254 N   0  0  0  0  0  0  0  0  0  0  0  0
   -1.6829    2.4309   -0.4601 C   0  0  1  0  0  0  0  0  0  0  0  0
   -3.4094    2.7317   -0.4711 N   0  0  0  0  0  0  0  0  0  0  0  0
   -4.4268    1.9010   -0.1934 C   0  0  0  0  0  0  0  0  0  0  0  0
   -5.7904    2.5445    0.1732 C   0  0  0  0  0  0  0  0  0  0  0  0
   -6.2995    3.5592   -0.6376 C   0  0  0  0  0  0  0  0  0  0  0  0
   -7.4969    4.2093   -0.3090 C   0  0  0  0  0  0  0  0  0  0  0  0
   -8.2694    3.7598    0.7594 C   0  0  0  0  0  0  0  0  0  0  0  0
   -7.8362    2.6672    1.5078 C   0  0  0  0  0  0  0  0  0  0  0  0
   -6.5572    2.1262    1.2820 C   0  0  0  0  0  0  0  0  0  0  0  0
   -4.4672    0.1385    0.0040 C   0  0  0  0  0  0  0  0  0  0  0  0
   -3.2714   -0.9679    0.6939 C   0  0  0  0  0  0  0  0  0  0  0  0
   -1.4763   -0.4386    1.1223 N   0  0  0  0  0  0  0  0  0  0  0  0
   -0.8392    1.2167    0.8362 C   0  0  0  0  0  0  0  0  0  0  0  0
   -0.1032    1.6999    1.7203 O   0  0  0  0  0  0  0  0  0  0  0  0
   -3.3065   -2.2557    0.4616 C   0  0  0  0  0  0  0  0  0  0  0  0
   -4.2297   -2.5326   -0.5290 C   0  0  0  0  0  0  0  0  0  0  0  0
   -5.2082   -1.6281   -1.1556 C   0  0  0  0  0  0  0  0  0  0  0  0
   -5.3776   -0.2886   -0.8988 C   0  0  0  0  0  0  0  0  0  0  0  0
   -2.8597    2.3574    1.8461 C   0  0  0  0  0  0  0  0  0  0  0  0
   -2.6722    2.8303    3.0902 C   0  0  0  0  0  0  0  0  0  0  0  0
   -2.8339    2.0118    4.1676 C   0  0  0  0  0  0  0  0  0  0  0  0
   -3.1409    0.6793    4.0413 C   0  0  0  0  0  0  0  0  0  0  0  0
   -1.9052   -0.4054   -0.2586 H   0  0  0  0  0  0  0  0  0  0  0  0
   -1.4293    2.3755   -2.6199 H   0  0  0  0  0  0  0  0  0  0  0  0
   -1.2442    3.4296   -0.3362 H   0  0  0  0  0  0  0  0  0  0  0  0
   -5.7710    3.8259   -1.5452 H   0  0  0  0  0  0  0  0  0  0  0  0
   -7.8391    5.0527   -0.9040 H   0  0  0  0  0  0  0  0  0  0  0  0
   -9.2077    4.2585    0.9965 H   0  0  0  0  0  0  0  0  0  0  0  0
   -8.4995    2.2410    2.2606 H   0  0  0  0  0  0  0  0  0  0  0  0
   -6.1890    1.3786    1.9813 H   0  0  0  0  0  0  0  0  0  0  0  0
   -1.2870   -0.6149    2.1173 H   0  0  0  0  0  0  0  0  0  0  0  0
   -2.4788   -2.8282    0.8387 H   0  0  0  0  0  0  0  0  0  0  0  0
   -4.1170   -3.5175   -0.9485 H   0  0  0  0  0  0  0  0  0  0  0  0
   -5.8480   -2.0382   -1.9244 H   0  0  0  0  0  0  0  0  0  0  0  0
   -6.0301    0.3898   -1.4523 H   0  0  0  0  0  0  0  0  0  0  0  0
   -2.4847    3.0947    1.2024 H   0  0  0  0  0  0  0  0  0  0  0  0
   -2.2297    3.8151    3.0251 H   0  0  0  0  0  0  0  0  0  0  0  0
   -2.6682    2.4751    5.1137 H   0  0  0  0  0  0  0  0  0  0  0  0
   -3.1812   -0.0173    4.8717 H   0  0  0  0  0  0  0  0  0  0  0  0
  1  2  1  0  0  0  0
  2  3  2  0  0  0  0
  2 29  1  0  0  0  0
  3  4  1  0  0  0  0
  3 26  1  0  0  0  0
  4  5  1  0  0  0  0
  4 30  1  0  0  0  0
  5  6  2  0  0  0  0
  5  7  1  0  0  0  0
  7 31  1  0  0  0  0
  8  9  1  0  0  0  0
  8 20  1  0  0  0  0
  8 32  1  1  0  0  0
  8  7  1  0  0  0  0
  9 10  2  0  0  0  0
 10 11  1  0  0  0  0
 10 17  1  0  0  0  0
 11 12  2  0  0  0  0
 11 16  1  0  0  0  0
 12 13  1  0  0  0  0
 12 33  1  0  0  0  0
 13 14  2  0  0  0  0
 13 34  1  0  0  0  0
 14 15  1  0  0  0  0
 14 35  1  0  0  0  0
 15 16  2  0  0  0  0
 15 36  1  0  0  0  0
 16 37  1  0  0  0  0
 17 18  2  0  0  0  0
 17 25  1  0  0  0  0
 18 19  1  0  0  0  0
 18 22  1  0  0  0  0
 19 20  1  0  0  0  0
 19 38  1  0  0  0  0
 20 21  2  0  0  0  0
 22 23  2  0  0  0  0
 22 39  1  0  0  0  0
 23 24  1  0  0  0  0
 23 40  1  0  0  0  0
 24 25  2  0  0  0  0
 24 41  1  0  0  0  0
 25 42  1  0  0  0  0
 26 27  2  0  0  0  0
 26 43  1  0  0  0  0
 27 28  1  0  0  0  0
 27 44  1  0  0  0  0
 28 29  2  0  0  0  0
 28 45  1  0  0  0  0
 29 46  1  0  0  0  0
M  END
>  <DRUGBANK_ID>
DB15197

>  <COMMON_NAME>
RSV-604

>  <CAS_NUMBER>
676128-63-5

>  <UNII>
6NF9HI6D98

$$$$
