
 OpenBabel10282417123D

 75 76  0  0  0  0  0  0  0  0999 V2000
   -1.6396   -2.2259    1.5750 C   0  0  0  0  0  0  0  0  0  0  0  0
   -0.3810   -2.5336    2.4739 C   0  0  2  0  0  0  0  0  0  0  0  0
   -0.8616   -3.0462    3.7445 O   0  0  0  0  0  0  0  0  0  0  0  0
   -2.0517   -5.0721    3.5427 C   0  0  0  0  0  0  0  0  0  0  0  0
   -0.7406   -4.4070    3.8600 C   0  0  0  0  0  0  0  0  0  0  0  0
   -2.2084   -3.0529   -2.7829 C   0  0  0  0  0  0  0  0  0  0  0  0
   -1.7894   -4.3181   -2.2304 C   0  0  0  0  0  0  0  0  0  0  0  0
   -3.0667   -5.0838   -1.9641 C   0  0  1  0  0  0  0  0  0  0  0  0
   -3.2891   -6.7236   -0.1269 C   0  0  2  0  0  0  0  0  0  0  0  0
   -2.5485   -6.3978   -1.4003 C   0  0  1  0  0  0  0  0  0  0  0  0
   -2.1103   -6.6023    3.4872 C   0  0  1  0  0  0  0  0  0  0  0  0
   -3.1213   -7.0897    2.4091 C   0  0  0  0  0  0  0  0  0  0  0  0
   -2.4180   -7.0268    1.0305 C   0  0  0  0  0  0  0  0  0  0  0  0
   -1.4554   -1.9970    0.0922 C   0  0  0  0  0  0  0  0  0  0  0  0
   -2.3729   -1.6135   -0.9664 C   0  0  0  0  0  0  0  0  0  0  0  0
   -1.4263   -1.5157   -1.8201 C   0  0  0  0  0  0  0  0  0  0  0  0
    0.3108   -4.9571    4.1353 O   0  0  0  0  0  0  0  0  0  0  0  0
   -0.8523   -7.2397    3.3126 O   0  0  0  0  0  0  0  0  0  0  0  0
   -3.4283   -8.5708    2.6382 C   0  0  0  0  0  0  0  0  0  0  0  0
   -4.4339   -6.2349    2.5000 C   0  0  0  0  0  0  0  0  0  0  0  0
   -1.1949   -7.0964    0.8958 O   0  0  0  0  0  0  0  0  0  0  0  0
   -4.4638   -7.6310   -0.3572 C   0  0  0  0  0  0  0  0  0  0  0  0
   -2.7384   -7.3910   -2.4086 O   0  0  0  0  0  0  0  0  0  0  0  0
   -4.0003   -4.2530   -1.0244 C   0  0  0  0  0  0  0  0  0  0  0  0
   -2.1844   -1.0749   -2.8490 C   0  0  0  0  0  0  0  0  0  0  0  0
    0.4461   -1.2699    2.7184 C   0  0  0  0  0  0  0  0  0  0  0  0
    1.7403   -1.1885    2.3300 C   0  0  0  0  0  0  0  0  0  0  0  0
    2.5803   -0.0458    2.5077 C   0  0  0  0  0  0  0  0  0  0  0  0
    2.5481    0.6194    3.7146 N   0  0  0  0  0  0  0  0  0  0  0  0
    3.2971    1.6958    3.6608 C   0  0  0  0  0  0  0  0  0  0  0  0
    3.4239    0.4868    1.5591 C   0  0  0  0  0  0  0  0  0  0  0  0
    4.1537    1.9147    2.1865 S   0  0  0  0  0  0  0  0  0  0  0  0
    3.4224    2.6680    4.7803 C   0  0  0  0  0  0  0  0  0  0  0  0
   -0.2800   -0.0915    3.3355 C   0  0  0  0  0  0  0  0  0  0  0  0
    0.2434   -3.3090    2.0027 H   0  0  0  0  0  0  0  0  0  0  0  0
   -2.3438   -3.0376    1.6791 H   0  0  0  0  0  0  0  0  0  0  0  0
   -2.1372   -1.3507    1.9872 H   0  0  0  0  0  0  0  0  0  0  0  0
   -2.3202   -4.7073    2.5538 H   0  0  0  0  0  0  0  0  0  0  0  0
   -2.8218   -4.7138    4.2410 H   0  0  0  0  0  0  0  0  0  0  0  0
   -3.3472   -3.0027   -2.9161 H   0  0  0  0  0  0  0  0  0  0  0  0
   -2.0481   -3.0605   -3.8974 H   0  0  0  0  0  0  0  0  0  0  0  0
   -1.1189   -4.7988   -2.9470 H   0  0  0  0  0  0  0  0  0  0  0  0
   -1.2482   -4.1040   -1.3184 H   0  0  0  0  0  0  0  0  0  0  0  0
   -3.6090   -5.2612   -2.9058 H   0  0  0  0  0  0  0  0  0  0  0  0
   -3.6510   -5.8100    0.3168 H   0  0  0  0  0  0  0  0  0  0  0  0
   -1.4609   -6.3505   -1.2529 H   0  0  0  0  0  0  0  0  0  0  0  0
   -2.4641   -6.9508    4.4615 H   0  0  0  0  0  0  0  0  0  0  0  0
   -0.3511   -2.1199   -0.1048 H   0  0  0  0  0  0  0  0  0  0  0  0
   -2.1078   -0.2877   -1.4426 H   0  0  0  0  0  0  0  0  0  0  0  0
   -0.3551   -1.1817   -1.7583 H   0  0  0  0  0  0  0  0  0  0  0  0
   -0.5918   -7.1919    2.3631 H   0  0  0  0  0  0  0  0  0  0  0  0
   -3.8830   -8.7131    3.6182 H   0  0  0  0  0  0  0  0  0  0  0  0
   -4.1219   -9.0028    1.9186 H   0  0  0  0  0  0  0  0  0  0  0  0
   -2.5177   -9.1696    2.5497 H   0  0  0  0  0  0  0  0  0  0  0  0
   -4.2716   -5.1654    2.3054 H   0  0  0  0  0  0  0  0  0  0  0  0
   -5.2037   -6.5052    1.7745 H   0  0  0  0  0  0  0  0  0  0  0  0
   -4.8938   -6.3222    3.4854 H   0  0  0  0  0  0  0  0  0  0  0  0
   -4.1797   -8.4888   -0.9616 H   0  0  0  0  0  0  0  0  0  0  0  0
   -4.8719   -8.0408    0.5493 H   0  0  0  0  0  0  0  0  0  0  0  0
   -5.2792   -7.0722   -0.8233 H   0  0  0  0  0  0  0  0  0  0  0  0
   -3.6847   -7.3898   -2.6354 H   0  0  0  0  0  0  0  0  0  0  0  0
   -4.3930   -3.3139   -1.4137 H   0  0  0  0  0  0  0  0  0  0  0  0
   -4.9013   -4.8099   -0.7608 H   0  0  0  0  0  0  0  0  0  0  0  0
   -3.4437   -3.9776   -0.1203 H   0  0  0  0  0  0  0  0  0  0  0  0
   -3.1707   -1.1830   -3.2911 H   0  0  0  0  0  0  0  0  0  0  0  0
   -1.7431   -0.0616   -3.1376 H   0  0  0  0  0  0  0  0  0  0  0  0
   -1.0947   -1.7151   -3.5044 H   0  0  0  0  0  0  0  0  0  0  0  0
    2.1940   -2.0401    1.8265 H   0  0  0  0  0  0  0  0  0  0  0  0
    3.6204    0.1478    0.5525 H   0  0  0  0  0  0  0  0  0  0  0  0
    4.4488    2.6931    5.1559 H   0  0  0  0  0  0  0  0  0  0  0  0
    3.1301    3.6759    4.4691 H   0  0  0  0  0  0  0  0  0  0  0  0
    2.7689    2.3773    5.6113 H   0  0  0  0  0  0  0  0  0  0  0  0
   -1.1135    0.2312    2.7079 H   0  0  0  0  0  0  0  0  0  0  0  0
   -0.6447   -0.3355    4.3355 H   0  0  0  0  0  0  0  0  0  0  0  0
    0.3237    0.8118    3.4190 H   0  0  0  0  0  0  0  0  0  0  0  0
  1 36  1  0  0  0  0
  1 37  1  0  0  0  0
  2  1  1  0  0  0  0
  2 26  1  0  0  0  0
  2 35  1  6  0  0  0
  3  2  1  0  0  0  0
  4 38  1  0  0  0  0
  4 39  1  0  0  0  0
  5  3  1  0  0  0  0
  5  4  1  0  0  0  0
  5 17  2  0  0  0  0
  6 40  1  0  0  0  0
  6 41  1  0  0  0  0
  7  6  1  0  0  0  0
  7 42  1  0  0  0  0
  7 43  1  0  0  0  0
  8  7  1  0  0  0  0
  8 24  1  0  0  0  0
  8 44  1  6  0  0  0
  9 45  1  1  0  0  0
  9 22  1  0  0  0  0
 10  8  1  0  0  0  0
 10  9  1  0  0  0  0
 10 23  1  0  0  0  0
 10 46  1  1  0  0  0
 11  4  1  0  0  0  0
 11 47  1  1  0  0  0
 11 18  1  0  0  0  0
 12 11  1  0  0  0  0
 12 19  1  0  0  0  0
 12 20  1  0  0  0  0
 13 12  1  0  0  0  0
 13  9  1  0  0  0  0
 13 21  2  0  0  0  0
 14  1  1  0  0  0  0
 14 48  1  0  0  0  0
 15 14  2  0  0  0  0
 15 25  1  0  0  0  0
 16 15  1  0  0  0  0
 16  6  1  0  0  0  0
 16 49  1  0  0  0  0
 16 50  1  0  0  0  0
 18 51  1  0  0  0  0
 19 52  1  0  0  0  0
 19 53  1  0  0  0  0
 19 54  1  0  0  0  0
 20 55  1  0  0  0  0
 20 56  1  0  0  0  0
 20 57  1  0  0  0  0
 22 58  1  0  0  0  0
 22 59  1  0  0  0  0
 22 60  1  0  0  0  0
 23 61  1  0  0  0  0
 24 62  1  0  0  0  0
 24 63  1  0  0  0  0
 24 64  1  0  0  0  0
 25 65  1  0  0  0  0
 25 66  1  0  0  0  0
 25 67  1  0  0  0  0
 26 27  2  0  0  0  0
 26 34  1  0  0  0  0
 27 28  1  0  0  0  0
 27 68  1  0  0  0  0
 28 29  1  0  0  0  0
 30 29  2  0  0  0  0
 30 33  1  0  0  0  0
 31 28  2  0  0  0  0
 31 69  1  0  0  0  0
 32 30  1  0  0  0  0
 32 31  1  0  0  0  0
 33 70  1  0  0  0  0
 33 71  1  0  0  0  0
 33 72  1  0  0  0  0
 34 73  1  0  0  0  0
 34 74  1  0  0  0  0
 34 75  1  0  0  0  0
M  END
>  <DRUGBANK_ID>
DB01873

>  <SECONDARY_ACCESSION_NUMBERS>
EXPT01350

>  <COMMON_NAME>
Epothilone D

>  <CAS_NUMBER>
189453-10-9

>  <UNII>
T0358E0YUF

>  <SYNONYMS>
(-)-desoxyepothilone B; 12,13-desoxyepothilone B; Desoxyepothilone B

$$$$
