8MR
 OpenBabel10282417163D

 31 31  0  0  0  0  0  0  0  0999 V2000
   -2.8542    3.8484    1.5920 C   0  0  0  0  0  0  0  0  0  0  0  0
   -1.5088    4.0005    2.0369 O   0  0  0  0  0  0  0  0  0  0  0  0
   -1.2338    3.6025    3.3168 C   0  0  0  0  0  0  0  0  0  0  0  0
   -0.2273    4.3187    3.9746 C   0  0  0  0  0  0  0  0  0  0  0  0
    0.2333    3.9209    5.2380 C   0  0  0  0  0  0  0  0  0  0  0  0
   -1.8025    2.4966    3.9474 C   0  0  0  0  0  0  0  0  0  0  0  0
   -1.3776    2.1149    5.2288 C   0  0  0  0  0  0  0  0  0  0  0  0
   -0.3620    2.8293    5.8738 C   0  0  0  0  0  0  0  0  0  0  0  0
    0.0402    2.4632    7.5808 S   0  0  0  0  0  0  0  0  0  0  0  0
   -0.1387    3.7169    8.2872 O   0  0  0  0  0  0  0  0  0  0  0  0
   -0.7292    1.2929    7.9607 O   0  0  0  0  0  0  0  0  0  0  0  0
    1.7531    1.9946    7.6313 C   0  0  1  0  0  0  0  0  0  0  0  0
    2.1219    1.8118    9.0910 C   0  0  0  0  0  0  0  0  0  0  0  0
    2.0547    2.9844    9.7645 F   0  0  0  0  0  0  0  0  0  0  0  0
    3.4266    1.4292    9.1680 F   0  0  0  0  0  0  0  0  0  0  0  0
    1.9710    0.6814    6.8792 C   0  0  0  0  0  0  0  0  0  0  0  0
    3.3020    0.6100    6.1982 C   0  0  0  0  0  0  0  0  0  0  0  0
    4.1338   -0.2728    6.3427 O   0  0  0  0  0  0  0  0  0  0  0  0
    3.4751    1.5844    5.2890 O   0  0  0  0  0  0  0  0  0  0  0  0
    2.3341    2.8264    7.2205 H   0  0  0  0  0  0  0  0  0  0  0  0
   -2.8839    4.0925    0.5241 H   0  0  0  0  0  0  0  0  0  0  0  0
   -3.5009    4.5570    2.1174 H   0  0  0  0  0  0  0  0  0  0  0  0
   -3.2345    2.8279    1.6901 H   0  0  0  0  0  0  0  0  0  0  0  0
    0.1879    5.2089    3.5049 H   0  0  0  0  0  0  0  0  0  0  0  0
    1.0336    4.4828    5.7125 H   0  0  0  0  0  0  0  0  0  0  0  0
   -2.5699    1.9027    3.4626 H   0  0  0  0  0  0  0  0  0  0  0  0
   -1.8555    1.2635    5.7087 H   0  0  0  0  0  0  0  0  0  0  0  0
    1.5165    1.0665    9.6174 H   0  0  0  0  0  0  0  0  0  0  0  0
    1.9043   -0.1714    7.5666 H   0  0  0  0  0  0  0  0  0  0  0  0
    1.2143    0.5086    6.1080 H   0  0  0  0  0  0  0  0  0  0  0  0
    4.3318    1.3724    4.8541 H   0  0  0  0  0  0  0  0  0  0  0  0
  1  2  1  0  0  0  0
  1 21  1  0  0  0  0
  1 22  1  0  0  0  0
  1 23  1  0  0  0  0
  2  3  1  0  0  0  0
  3  6  1  0  0  0  0
  3  4  2  0  0  0  0
  4  5  1  0  0  0  0
  4 24  1  0  0  0  0
  5  8  2  0  0  0  0
  5 25  1  0  0  0  0
  6  7  2  0  0  0  0
  6 26  1  0  0  0  0
  7  8  1  0  0  0  0
  7 27  1  0  0  0  0
  8  9  1  0  0  0  0
  9 10  2  0  0  0  0
  9 11  2  0  0  0  0
 12 13  1  0  0  0  0
 12 20  1  6  0  0  0
 12 16  1  0  0  0  0
 12  9  1  0  0  0  0
 13 15  1  0  0  0  0
 13 14  1  0  0  0  0
 13 28  1  0  0  0  0
 16 17  1  0  0  0  0
 16 29  1  0  0  0  0
 16 30  1  0  0  0  0
 17 18  2  0  0  0  0
 17 19  1  0  0  0  0
 19 31  1  0  0  0  0
M  END
>  <DRUGBANK_ID>
DB07285

>  <COMMON_NAME>
(3R)-4,4-DIFLUORO-3-[(4-METHOXYPHENYL)SULFONYL]BUTANOIC ACID

$$$$
