
 OpenBabel10282417223D

 50 53  0  0  1  0  0  0  0  0999 V2000
    2.8121   -0.0480   -0.1842 F   0  0  0  0  0  0  0  0  0  0  0  0
    1.5253   -0.0921    0.1554 C   0  0  0  0  0  0  0  0  0  0  0  0
    0.8620    1.1414    0.3245 C   0  0  0  0  0  0  0  0  0  0  0  0
   -0.4244    1.1260    0.7805 C   0  0  0  0  0  0  0  0  0  0  0  0
   -1.0432   -0.0762    0.8450 C   0  0  0  0  0  0  0  0  0  0  0  0
   -0.4739   -1.0655    0.1190 C   0  0  0  0  0  0  0  0  0  0  0  0
    0.8193   -1.2932    0.1800 C   0  0  0  0  0  0  0  0  0  0  0  0
    1.1065   -2.6205   -0.2628 N   0  0  0  0  0  0  0  0  0  0  0  0
   -0.0361   -4.0144    0.0155 S   0  0  0  0  0  0  0  0  0  0  0  0
    0.2279   -4.8169   -1.1505 O   0  0  0  0  0  0  0  0  0  0  0  0
    0.2761   -4.5202    1.3525 O   0  0  0  0  0  0  0  0  0  0  0  0
   -1.9233   -3.7627   -0.0172 C   0  0  0  0  0  0  0  0  0  0  0  0
   -2.7597   -4.8487   -0.1144 C   0  0  0  0  0  0  0  0  0  0  0  0
   -2.2920   -6.1019   -0.0460 F   0  0  0  0  0  0  0  0  0  0  0  0
   -4.1648   -4.6327   -0.1490 C   0  0  0  0  0  0  0  0  0  0  0  0
   -4.7597   -3.3206   -0.2246 C   0  0  0  0  0  0  0  0  0  0  0  0
   -6.4854   -3.2554   -0.1965 Cl  0  0  0  0  0  0  0  0  0  0  0  0
   -3.9641   -2.1778   -0.1844 C   0  0  0  0  0  0  0  0  0  0  0  0
   -2.6420   -2.5443    0.1493 C   0  0  0  0  0  0  0  0  0  0  0  0
   -4.4692   -0.6619   -0.1139 C   0  0  0  0  0  0  0  0  0  0  0  0
   -5.6438   -0.4351    0.1759 O   0  0  0  0  0  0  0  0  0  0  0  0
   -3.6045    0.4842   -0.2900 N   0  0  0  0  0  0  0  0  0  0  0  0
   -2.7253    0.6628   -1.4934 C   0  0  0  0  0  0  0  0  0  0  0  0
   -2.0541    2.0496   -1.7429 C   0  0  0  0  0  0  0  0  0  0  0  0
   -2.4794    3.1710   -0.9362 N   0  0  3  0  0  0  0  0  0  0  0  0
   -1.5844    4.3150   -0.8310 C   0  0  0  0  0  0  0  0  0  0  0  0
   -2.1490    5.0980    0.3433 C   0  0  0  0  0  0  0  0  0  0  0  0
   -2.7456    4.0249    1.2517 C   0  0  0  0  0  0  0  0  0  0  0  0
   -3.3291    3.0046    0.2436 C   0  0  2  0  0  0  0  0  0  0  0  0
   -3.5828    1.5824    0.7855 C   0  0  0  0  0  0  0  0  0  0  0  0
    1.2627    2.1100    0.0566 H   0  0  0  0  0  0  0  0  0  0  0  0
   -0.9924    2.0362    0.8528 H   0  0  0  0  0  0  0  0  0  0  0  0
   -2.0892   -0.1774    1.0376 H   0  0  0  0  0  0  0  0  0  0  0  0
   -0.9795   -1.6299   -0.6484 H   0  0  0  0  0  0  0  0  0  0  0  0
    2.0404   -2.8958    0.0603 H   0  0  0  0  0  0  0  0  0  0  0  0
   -4.8119   -5.5083   -0.0878 H   0  0  0  0  0  0  0  0  0  0  0  0
   -2.2854   -1.9971    1.0061 H   0  0  0  0  0  0  0  0  0  0  0  0
   -1.8936   -0.0263   -1.4332 H   0  0  0  0  0  0  0  0  0  0  0  0
   -3.2364    0.2863   -2.3825 H   0  0  0  0  0  0  0  0  0  0  0  0
   -0.9616    1.9299   -1.6600 H   0  0  0  0  0  0  0  0  0  0  0  0
   -2.1648    2.3011   -2.8056 H   0  0  0  0  0  0  0  0  0  0  0  0
   -0.5399    4.0399   -0.6259 H   0  0  0  0  0  0  0  0  0  0  0  0
   -1.6002    4.9048   -1.7525 H   0  0  0  0  0  0  0  0  0  0  0  0
   -1.3954    5.7182    0.8418 H   0  0  0  0  0  0  0  0  0  0  0  0
   -2.9507    5.7549   -0.0109 H   0  0  0  0  0  0  0  0  0  0  0  0
   -1.9537    3.6219    1.8997 H   0  0  0  0  0  0  0  0  0  0  0  0
   -3.5131    4.4439    1.9094 H   0  0  0  0  0  0  0  0  0  0  0  0
   -4.3163    3.3619   -0.0506 H   0  0  0  0  0  0  0  0  0  0  0  0
   -4.4434    1.5082    1.4608 H   0  0  0  0  0  0  0  0  0  0  0  0
   -2.8024    1.3932    1.5317 H   0  0  0  0  0  0  0  0  0  0  0  0
  1  2  1  0  0  0  0
  2  3  2  0  0  0  0
  2  7  1  0  0  0  0
  3  4  1  0  0  0  0
  3 31  1  0  0  0  0
  4  5  2  0  0  0  0
  4 32  1  0  0  0  0
  5  6  1  0  0  0  0
  5 33  1  0  0  0  0
  6  7  2  0  0  0  0
  6 34  1  0  0  0  0
  7  8  1  0  0  0  0
  8  9  1  0  0  0  0
  8 35  1  0  0  0  0
  9 10  2  0  0  0  0
  9 11  2  0  0  0  0
  9 12  1  0  0  0  0
 12 13  2  0  0  0  0
 12 19  1  0  0  0  0
 13 14  1  0  0  0  0
 13 15  1  0  0  0  0
 15 16  2  0  0  0  0
 15 36  1  0  0  0  0
 16 17  1  0  0  0  0
 16 18  1  0  0  0  0
 18 19  2  0  0  0  0
 18 20  1  0  0  0  0
 19 37  1  0  0  0  0
 20 21  2  0  0  0  0
 20 22  1  0  0  0  0
 22 23  1  0  0  0  0
 22 30  1  0  0  0  0
 23 24  1  0  0  0  0
 23 38  1  0  0  0  0
 23 39  1  0  0  0  0
 24 25  1  0  0  0  0
 24 40  1  0  0  0  0
 24 41  1  0  0  0  0
 25 26  1  0  0  0  0
 26 27  1  0  0  0  0
 26 42  1  0  0  0  0
 26 43  1  0  0  0  0
 27 28  1  0  0  0  0
 27 44  1  0  0  0  0
 27 45  1  0  0  0  0
 28 46  1  0  0  0  0
 28 47  1  0  0  0  0
 29 28  1  0  0  0  0
 29 25  1  0  0  0  0
 29 30  1  0  0  0  0
 29 48  1  6  0  0  0
 30 49  1  0  0  0  0
 30 50  1  0  0  0  0
M  END
>  <DRUGBANK_ID>
DB15055

>  <COMMON_NAME>
ABT-639

>  <CAS_NUMBER>
1235560-28-7

>  <UNII>
0G7D0CQ88I

$$$$
