DET
 OpenBabel10282417163D

 44 43  0  0  0  0  0  0  0  0999 V2000
    0.8587    0.0468    0.0787 N   0  3  0  0  0  0  0  0  0  0  0  0
    0.2948   -0.9691   -0.6473 O   0  5  0  0  0  0  0  0  0  0  0  0
    0.2972    0.0429    1.4699 C   0  0  0  0  0  0  0  0  0  0  0  0
    0.4687    1.3011   -0.6359 C   0  0  0  0  0  0  0  0  0  0  0  0
    2.3834   -0.0399    0.1476 C   0  0  0  0  0  0  0  0  0  0  0  0
    2.9025   -1.3028    0.8457 C   0  0  0  0  0  0  0  0  0  0  0  0
    2.4740   -2.5809    0.1219 C   0  0  0  0  0  0  0  0  0  0  0  0
    2.9762   -2.5845   -1.3246 C   0  0  0  0  0  0  0  0  0  0  0  0
    4.5071   -2.5903   -1.3527 C   0  0  0  0  0  0  0  0  0  0  0  0
    5.0460   -3.8374   -0.6432 C   0  0  0  0  0  0  0  0  0  0  0  0
    4.5375   -5.1083   -1.3309 C   0  0  0  0  0  0  0  0  0  0  0  0
    5.0171   -5.1692   -2.7844 C   0  0  0  0  0  0  0  0  0  0  0  0
    6.5470   -5.2023   -2.8673 C   0  0  0  0  0  0  0  0  0  0  0  0
    7.1368   -6.4012   -2.1222 C   0  0  0  0  0  0  0  0  0  0  0  0
    6.6341   -7.7091   -2.7113 C   0  0  0  0  0  0  0  0  0  0  0  0
    0.7368    0.8877    2.0070 H   0  0  0  0  0  0  0  0  0  0  0  0
   -0.7862    0.1148    1.3961 H   0  0  0  0  0  0  0  0  0  0  0  0
    0.5625   -0.9070    1.9436 H   0  0  0  0  0  0  0  0  0  0  0  0
    0.8831    2.1511   -0.0943 H   0  0  0  0  0  0  0  0  0  0  0  0
    0.8680    1.2305   -1.6521 H   0  0  0  0  0  0  0  0  0  0  0  0
   -0.6249    1.3237   -0.6632 H   0  0  0  0  0  0  0  0  0  0  0  0
    2.7485    0.0509   -0.8769 H   0  0  0  0  0  0  0  0  0  0  0  0
    2.7204    0.8526    0.6909 H   0  0  0  0  0  0  0  0  0  0  0  0
    3.9972   -1.2462    0.9038 H   0  0  0  0  0  0  0  0  0  0  0  0
    2.5866   -1.3489    1.8876 H   0  0  0  0  0  0  0  0  0  0  0  0
    2.8356   -3.4520    0.6795 H   0  0  0  0  0  0  0  0  0  0  0  0
    1.3928   -2.7235    0.1516 H   0  0  0  0  0  0  0  0  0  0  0  0
    2.5559   -3.4404   -1.8598 H   0  0  0  0  0  0  0  0  0  0  0  0
    2.6067   -1.7248   -1.8946 H   0  0  0  0  0  0  0  0  0  0  0  0
    4.8571   -2.5299   -2.3864 H   0  0  0  0  0  0  0  0  0  0  0  0
    4.9211   -1.6926   -0.8838 H   0  0  0  0  0  0  0  0  0  0  0  0
    6.1390   -3.8000   -0.6145 H   0  0  0  0  0  0  0  0  0  0  0  0
    4.7643   -3.8547    0.4131 H   0  0  0  0  0  0  0  0  0  0  0  0
    4.8563   -5.9865   -0.7617 H   0  0  0  0  0  0  0  0  0  0  0  0
    3.4444   -5.1705   -1.3058 H   0  0  0  0  0  0  0  0  0  0  0  0
    4.5744   -6.0364   -3.2810 H   0  0  0  0  0  0  0  0  0  0  0  0
    4.6428   -4.3156   -3.3611 H   0  0  0  0  0  0  0  0  0  0  0  0
    6.8528   -5.2226   -3.9177 H   0  0  0  0  0  0  0  0  0  0  0  0
    6.9752   -4.2784   -2.4598 H   0  0  0  0  0  0  0  0  0  0  0  0
    8.2288   -6.3610   -2.1775 H   0  0  0  0  0  0  0  0  0  0  0  0
    6.8936   -6.3605   -1.0541 H   0  0  0  0  0  0  0  0  0  0  0  0
    6.9054   -7.7719   -3.7691 H   0  0  0  0  0  0  0  0  0  0  0  0
    7.0644   -8.5607   -2.1816 H   0  0  0  0  0  0  0  0  0  0  0  0
    5.5458   -7.8015   -2.6351 H   0  0  0  0  0  0  0  0  0  0  0  0
  1  2  1  0  0  0  0
  1  3  1  0  0  0  0
  1  4  1  0  0  0  0
  1  5  1  0  0  0  0
  3 16  1  0  0  0  0
  3 17  1  0  0  0  0
  3 18  1  0  0  0  0
  4 19  1  0  0  0  0
  4 20  1  0  0  0  0
  4 21  1  0  0  0  0
  5  6  1  0  0  0  0
  5 22  1  0  0  0  0
  5 23  1  0  0  0  0
  6  7  1  0  0  0  0
  6 24  1  0  0  0  0
  6 25  1  0  0  0  0
  7  8  1  0  0  0  0
  7 26  1  0  0  0  0
  7 27  1  0  0  0  0
  8  9  1  0  0  0  0
  8 28  1  0  0  0  0
  8 29  1  0  0  0  0
  9 10  1  0  0  0  0
  9 30  1  0  0  0  0
  9 31  1  0  0  0  0
 10 11  1  0  0  0  0
 10 32  1  0  0  0  0
 10 33  1  0  0  0  0
 11 12  1  0  0  0  0
 11 34  1  0  0  0  0
 11 35  1  0  0  0  0
 12 13  1  0  0  0  0
 12 36  1  0  0  0  0
 12 37  1  0  0  0  0
 13 14  1  0  0  0  0
 13 38  1  0  0  0  0
 13 39  1  0  0  0  0
 14 15  1  0  0  0  0
 14 40  1  0  0  0  0
 14 41  1  0  0  0  0
 15 42  1  0  0  0  0
 15 43  1  0  0  0  0
 15 44  1  0  0  0  0
M  CHG  2   1   1   2  -1
M  END
>  <DRUGBANK_ID>
DB07646

>  <COMMON_NAME>
UNDECYLAMINE-N,N-DIMETHYL-N-OXIDE

$$$$
