
 OpenBabel10282417183D

 30 31  0  0  0  0  0  0  0  0999 V2000
    0.9881   -0.0620    0.1292 C   0  0  0  0  0  0  0  0  0  0  0  0
   -0.0268   -4.7394    8.4156 C   0  0  0  0  0  0  0  0  0  0  0  0
   -1.0893   -5.4196    7.8161 C   0  0  0  0  0  0  0  0  0  0  0  0
    0.9420   -4.1282    7.6216 C   0  0  0  0  0  0  0  0  0  0  0  0
   -1.1917   -5.4907    6.4232 C   0  0  0  0  0  0  0  0  0  0  0  0
   -0.0781   -1.0902    3.2625 C   0  0  0  0  0  0  0  0  0  0  0  0
    0.2503   -2.0133    4.2586 C   0  0  0  0  0  0  0  0  0  0  0  0
    2.2277   -1.0408    2.5639 C   0  0  0  0  0  0  0  0  0  0  0  0
    0.9039   -0.6344    2.3912 C   0  0  0  0  0  0  0  0  0  0  0  0
    0.8363   -4.1924    6.2262 C   0  0  0  0  0  0  0  0  0  0  0  0
    1.5627   -2.5051    4.3944 C   0  0  0  0  0  0  0  0  0  0  0  0
   -0.2222   -4.8842    5.6297 C   0  0  0  0  0  0  0  0  0  0  0  0
    2.5524   -1.9771    3.5528 C   0  0  0  0  0  0  0  0  0  0  0  0
    1.8930   -3.5585    5.4162 C   0  0  0  0  0  0  0  0  0  0  0  0
   -0.3009   -4.9527    4.2670 O   0  0  0  0  0  0  0  0  0  0  0  0
    3.8558   -2.3669    3.6851 O   0  0  0  0  0  0  0  0  0  0  0  0
    3.0416   -3.9340    5.6540 O   0  0  0  0  0  0  0  0  0  0  0  0
    0.5086    0.2605    1.4345 O   0  0  0  0  0  0  0  0  0  0  0  0
    0.5956    0.6855   -0.5668 H   0  0  0  0  0  0  0  0  0  0  0  0
    0.6238   -1.0455   -0.1880 H   0  0  0  0  0  0  0  0  0  0  0  0
    2.0793   -0.0186    0.0693 H   0  0  0  0  0  0  0  0  0  0  0  0
    0.0525   -4.6955    9.4994 H   0  0  0  0  0  0  0  0  0  0  0  0
   -1.8345   -5.9075    8.4399 H   0  0  0  0  0  0  0  0  0  0  0  0
    1.7807   -3.6104    8.0834 H   0  0  0  0  0  0  0  0  0  0  0  0
   -2.0217   -6.0304    5.9789 H   0  0  0  0  0  0  0  0  0  0  0  0
   -1.1057   -0.7496    3.1609 H   0  0  0  0  0  0  0  0  0  0  0  0
   -0.5544   -2.3571    4.9010 H   0  0  0  0  0  0  0  0  0  0  0  0
    3.0088   -0.6211    1.9412 H   0  0  0  0  0  0  0  0  0  0  0  0
   -1.1255   -5.3870    3.9988 H   0  0  0  0  0  0  0  0  0  0  0  0
    4.4294   -1.9024    3.0595 H   0  0  0  0  0  0  0  0  0  0  0  0
  1 19  1  0  0  0  0
  1 20  1  0  0  0  0
  1 21  1  0  0  0  0
  2 22  1  0  0  0  0
  3  2  2  0  0  0  0
  3 23  1  0  0  0  0
  4  2  1  0  0  0  0
  4 24  1  0  0  0  0
  5  3  1  0  0  0  0
  5 25  1  0  0  0  0
  6 26  1  0  0  0  0
  7  6  2  0  0  0  0
  7 27  1  0  0  0  0
  8 28  1  0  0  0  0
  9  6  1  0  0  0  0
  9  8  2  0  0  0  0
 10  4  2  0  0  0  0
 11  7  1  0  0  0  0
 12  5  2  0  0  0  0
 12 10  1  0  0  0  0
 13  8  1  0  0  0  0
 13 11  2  0  0  0  0
 14 10  1  0  0  0  0
 14 11  1  0  0  0  0
 15 12  1  0  0  0  0
 15 29  1  0  0  0  0
 16 13  1  0  0  0  0
 16 30  1  0  0  0  0
 17 14  2  0  0  0  0
 18  1  1  0  0  0  0
 18  9  1  0  0  0  0
M  END
>  <DRUGBANK_ID>
DB11221

>  <COMMON_NAME>
Dioxybenzone

>  <CAS_NUMBER>
131-53-3

>  <UNII>
B762XZ551X

>  <SYNONYMS>
2,2'-Dihydroxy-4-methoxybenzophenone; Dioxybenzone

$$$$
