
 OpenBabel10282417213D

 67 68  0  0  1  0  0  0  0  0999 V2000
    1.2030   -0.0025   -0.2008 C   0  0  0  0  0  0  0  0  0  0  0  0
    0.8240    0.6981    1.0772 C   0  0  0  0  0  0  0  0  0  0  0  0
    1.3891    2.1488    1.0790 C   0  0  0  0  0  0  0  0  0  0  0  0
   -0.6754    0.7268    1.3690 C   0  0  1  0  0  0  0  0  0  0  0  0
   -1.4021   -0.5405    1.3977 N   0  0  0  0  0  0  0  0  0  0  0  0
   -2.6635   -0.8307    1.8718 C   0  0  0  0  0  0  0  0  0  0  0  0
   -3.0670   -1.9528    1.7471 O   0  0  0  0  0  0  0  0  0  0  0  0
   -3.3319    0.0914    2.6618 N   0  0  0  0  0  0  0  0  0  0  0  0
   -3.1238    1.4960    2.7588 C   0  0  0  0  0  0  0  0  0  0  0  0
   -4.0831    2.4981    3.2804 C   0  0  0  0  0  0  0  0  0  0  0  0
   -4.6988    2.1505    4.6379 C   0  0  0  0  0  0  0  0  0  0  0  0
   -3.2865    3.8421    3.4664 C   0  0  0  0  0  0  0  0  0  0  0  0
   -4.9703    2.4102    2.1943 O   0  0  0  0  0  0  0  0  0  0  0  0
   -0.6523    1.4999    2.7433 C   0  0  0  0  0  0  0  0  0  0  0  0
   -0.7698    2.7330    2.6822 O   0  0  0  0  0  0  0  0  0  0  0  0
   -0.6392    0.7435    3.9602 N   0  0  0  0  0  0  0  0  0  0  0  0
    0.6306    0.3454    4.4738 C   0  0  0  0  0  0  0  0  0  0  0  0
    0.4540   -1.0714    5.0432 C   0  0  0  0  0  0  0  0  0  0  0  0
   -0.6897   -1.1978    6.1597 C   0  0  2  0  0  0  0  0  0  0  0  0
   -0.3041   -0.3793    7.2662 O   0  0  0  0  0  0  0  0  0  0  0  0
   -0.9664   -2.6083    6.6799 C   0  0  0  0  0  0  0  0  0  0  0  0
    0.0871   -3.3282    7.1831 C   0  0  0  0  0  0  0  0  0  0  0  0
   -0.1180   -4.6701    7.4858 C   0  0  0  0  0  0  0  0  0  0  0  0
   -1.3505   -5.3055    7.2572 C   0  0  0  0  0  0  0  0  0  0  0  0
   -1.5606   -6.9741    7.5577 Cl  0  0  0  0  0  0  0  0  0  0  0  0
   -2.4315   -4.6013    6.8081 C   0  0  0  0  0  0  0  0  0  0  0  0
   -2.2417   -3.2612    6.6201 C   0  0  0  0  0  0  0  0  0  0  0  0
   -2.0039   -0.6736    5.6150 C   0  0  0  0  0  0  0  0  0  0  0  0
   -2.4135   -1.6671    4.4799 C   0  0  0  0  0  0  0  0  0  0  0  0
   -3.1654   -0.4614    6.6797 C   0  0  0  0  0  0  0  0  0  0  0  0
   -1.6324    0.7438    5.1197 C   0  0  0  0  0  0  0  0  0  0  0  0
    0.8040    0.5165   -1.0741 H   0  0  0  0  0  0  0  0  0  0  0  0
    0.8412   -1.0332   -0.1918 H   0  0  0  0  0  0  0  0  0  0  0  0
    2.2956   -0.0288   -0.2580 H   0  0  0  0  0  0  0  0  0  0  0  0
    1.2921    0.1148    1.8656 H   0  0  0  0  0  0  0  0  0  0  0  0
    0.9306    2.7460    0.2807 H   0  0  0  0  0  0  0  0  0  0  0  0
    1.2153    2.7043    2.0066 H   0  0  0  0  0  0  0  0  0  0  0  0
    2.4727    2.1628    1.0005 H   0  0  0  0  0  0  0  0  0  0  0  0
   -1.1691    1.2826    0.5507 H   0  0  0  0  0  0  0  0  0  0  0  0
   -1.1932   -1.2240    0.6750 H   0  0  0  0  0  0  0  0  0  0  0  0
   -3.9954   -0.3011    3.3139 H   0  0  0  0  0  0  0  0  0  0  0  0
   -2.4145    1.7439    3.4860 H   0  0  0  0  0  0  0  0  0  0  0  0
   -2.7886    1.7705    1.7735 H   0  0  0  0  0  0  0  0  0  0  0  0
   -4.0264    2.3504    5.4914 H   0  0  0  0  0  0  0  0  0  0  0  0
   -5.5804    2.7621    4.8054 H   0  0  0  0  0  0  0  0  0  0  0  0
   -4.9869    1.0986    4.6931 H   0  0  0  0  0  0  0  0  0  0  0  0
   -2.6654    4.1088    2.6020 H   0  0  0  0  0  0  0  0  0  0  0  0
   -3.9643    4.6723    3.6342 H   0  0  0  0  0  0  0  0  0  0  0  0
   -2.5853    3.8063    4.3295 H   0  0  0  0  0  0  0  0  0  0  0  0
   -5.5714    3.1490    2.1867 H   0  0  0  0  0  0  0  0  0  0  0  0
    1.4167    0.4239    3.7233 H   0  0  0  0  0  0  0  0  0  0  0  0
    0.9028    1.0824    5.2378 H   0  0  0  0  0  0  0  0  0  0  0  0
    0.2329   -1.7277    4.1886 H   0  0  0  0  0  0  0  0  0  0  0  0
    1.4216   -1.3763    5.4330 H   0  0  0  0  0  0  0  0  0  0  0  0
   -0.9714   -0.5258    7.9584 H   0  0  0  0  0  0  0  0  0  0  0  0
    1.0477   -2.8386    7.3194 H   0  0  0  0  0  0  0  0  0  0  0  0
    0.7119   -5.2292    7.8891 H   0  0  0  0  0  0  0  0  0  0  0  0
   -3.4038   -5.0251    6.5679 H   0  0  0  0  0  0  0  0  0  0  0  0
   -3.1646   -2.8075    6.2597 H   0  0  0  0  0  0  0  0  0  0  0  0
   -2.2172   -2.7453    4.5217 H   0  0  0  0  0  0  0  0  0  0  0  0
   -3.4872   -1.6867    4.2878 H   0  0  0  0  0  0  0  0  0  0  0  0
   -1.7303   -1.5018    3.6672 H   0  0  0  0  0  0  0  0  0  0  0  0
   -2.9371    0.3581    7.3672 H   0  0  0  0  0  0  0  0  0  0  0  0
   -4.1203   -0.2370    6.1919 H   0  0  0  0  0  0  0  0  0  0  0  0
   -3.3874   -1.2965    7.3487 H   0  0  0  0  0  0  0  0  0  0  0  0
   -1.2536    1.4151    5.9040 H   0  0  0  0  0  0  0  0  0  0  0  0
   -2.6147    1.1373    4.9830 H   0  0  0  0  0  0  0  0  0  0  0  0
  1  2  1  0  0  0  0
  1 32  1  0  0  0  0
  1 33  1  0  0  0  0
  1 34  1  0  0  0  0
  2  3  1  0  0  0  0
  2 35  1  0  0  0  0
  3 36  1  0  0  0  0
  3 37  1  0  0  0  0
  3 38  1  0  0  0  0
  4  2  1  0  0  0  0
  4  5  1  0  0  0  0
  4 14  1  0  0  0  0
  4 39  1  6  0  0  0
  5  6  1  0  0  0  0
  5 40  1  0  0  0  0
  6  7  2  0  0  0  0
  6  8  1  0  0  0  0
  8  9  1  0  0  0  0
  8 41  1  0  0  0  0
  9 10  1  0  0  0  0
  9 42  1  0  0  0  0
  9 43  1  0  0  0  0
 10 11  1  0  0  0  0
 10 12  1  0  0  0  0
 10 13  1  0  0  0  0
 11 44  1  0  0  0  0
 11 45  1  0  0  0  0
 11 46  1  0  0  0  0
 12 47  1  0  0  0  0
 12 48  1  0  0  0  0
 12 49  1  0  0  0  0
 13 50  1  0  0  0  0
 14 15  2  0  0  0  0
 14 16  1  0  0  0  0
 16 17  1  0  0  0  0
 16 31  1  0  0  0  0
 17 18  1  0  0  0  0
 17 51  1  0  0  0  0
 17 52  1  0  0  0  0
 18 53  1  0  0  0  0
 18 54  1  0  0  0  0
 19 18  1  0  0  0  0
 19 28  1  0  0  0  0
 19 21  1  0  0  0  0
 19 20  1  1  0  0  0
 20 55  1  0  0  0  0
 21 22  2  0  0  0  0
 21 27  1  0  0  0  0
 22 23  1  0  0  0  0
 22 56  1  0  0  0  0
 23 24  2  0  0  0  0
 23 57  1  0  0  0  0
 24 25  1  0  0  0  0
 24 26  1  0  0  0  0
 26 27  2  0  0  0  0
 26 58  1  0  0  0  0
 27 59  1  0  0  0  0
 28 29  1  0  0  0  0
 28 30  1  0  0  0  0
 28 31  1  0  0  0  0
 29 60  1  0  0  0  0
 29 61  1  0  0  0  0
 29 62  1  0  0  0  0
 30 63  1  0  0  0  0
 30 64  1  0  0  0  0
 30 65  1  0  0  0  0
 31 66  1  0  0  0  0
 31 67  1  0  0  0  0
M  END
>  <DRUGBANK_ID>
DB14941

>  <COMMON_NAME>
BMS-817399

>  <CAS_NUMBER>
1202400-18-7

>  <UNII>
AKQ3X6FEH0

$$$$
