2D9
 OpenBabel10282417163D

 54 57  0  0  0  0  0  0  0  0999 V2000
    1.0517    0.1131    0.0434 C   0  0  0  0  0  0  0  0  0  0  0  0
    0.4517    1.6571    0.6787 S   0  0  0  0  0  0  0  0  0  0  0  0
    1.0414    2.7111   -0.1413 O   0  0  0  0  0  0  0  0  0  0  0  0
   -0.9762    1.5514    0.8445 O   0  0  0  0  0  0  0  0  0  0  0  0
    1.1580    1.8537    2.2984 C   0  0  0  0  0  0  0  0  0  0  0  0
    1.2098    3.1341    2.8582 C   0  0  0  0  0  0  0  0  0  0  0  0
    1.6446    3.3058    4.1805 C   0  0  0  0  0  0  0  0  0  0  0  0
    1.6770    0.7725    2.9991 C   0  0  0  0  0  0  0  0  0  0  0  0
    2.2470    0.9815    4.2639 C   0  0  0  0  0  0  0  0  0  0  0  0
    2.0967    2.2090    4.9293 C   0  0  0  0  0  0  0  0  0  0  0  0
    2.2849    2.3068    6.4396 C   0  0  0  0  0  0  0  0  0  0  0  0
    1.2545    1.7302    7.3339 N   0  0  0  0  0  0  0  0  0  0  0  0
    1.0438    0.2735    7.1995 C   0  0  0  0  0  0  0  0  0  0  0  0
    0.1200   -0.1377    6.0374 C   0  0  0  0  0  0  0  0  0  0  0  0
   -0.0567    2.4226    7.2899 C   0  0  0  0  0  0  0  0  0  0  0  0
   -0.9206    2.0946    6.0469 C   0  0  0  0  0  0  0  0  0  0  0  0
   -1.1067    0.6508    6.0170 N   0  0  0  0  0  0  0  0  0  0  0  0
   -2.2178    0.0522    5.5696 C   0  0  0  0  0  0  0  0  0  0  0  0
   -3.0283    0.2541    4.4431 C   0  0  0  0  0  0  0  0  0  0  0  0
   -4.0600   -0.6012    4.4345 N   0  0  0  0  0  0  0  0  0  0  0  0
   -3.8989   -1.3070    5.5723 N   0  0  0  0  0  0  0  0  0  0  0  0
   -2.7537   -1.0079    6.2522 C   0  0  0  0  0  0  0  0  0  0  0  0
   -2.3439   -1.6129    7.5122 C   0  0  0  0  0  0  0  0  0  0  0  0
   -2.0932   -0.7822    8.6197 C   0  0  0  0  0  0  0  0  0  0  0  0
   -1.7754   -1.3281    9.8579 C   0  0  0  0  0  0  0  0  0  0  0  0
   -1.5201   -0.2836   11.2042 Cl  0  0  0  0  0  0  0  0  0  0  0  0
   -1.7166   -2.7126    9.9983 C   0  0  0  0  0  0  0  0  0  0  0  0
   -1.4209   -3.3118   11.1915 O   0  0  0  0  0  0  0  0  0  0  0  0
   -1.9431   -3.5451    8.9036 C   0  0  0  0  0  0  0  0  0  0  0  0
   -2.1845   -2.9914    7.6506 C   0  0  0  0  0  0  0  0  0  0  0  0
   -2.2231   -3.8425    6.5797 O   0  0  0  0  0  0  0  0  0  0  0  0
    0.6910    0.0021   -0.9818 H   0  0  0  0  0  0  0  0  0  0  0  0
    0.6593   -0.7088    0.6460 H   0  0  0  0  0  0  0  0  0  0  0  0
    2.1429    0.1201    0.0496 H   0  0  0  0  0  0  0  0  0  0  0  0
    0.8578    3.9929    2.2903 H   0  0  0  0  0  0  0  0  0  0  0  0
    1.5447    4.2850    4.6450 H   0  0  0  0  0  0  0  0  0  0  0  0
    1.5687   -0.2499    2.6469 H   0  0  0  0  0  0  0  0  0  0  0  0
    2.5868    0.1072    4.8214 H   0  0  0  0  0  0  0  0  0  0  0  0
    3.2516    1.8529    6.6883 H   0  0  0  0  0  0  0  0  0  0  0  0
    2.3932    3.3636    6.7150 H   0  0  0  0  0  0  0  0  0  0  0  0
    2.0027   -0.2565    7.1550 H   0  0  0  0  0  0  0  0  0  0  0  0
    0.5806   -0.0846    8.1294 H   0  0  0  0  0  0  0  0  0  0  0  0
    0.5214    0.0577    5.0706 H   0  0  0  0  0  0  0  0  0  0  0  0
   -0.0013   -1.2269    6.0001 H   0  0  0  0  0  0  0  0  0  0  0  0
   -0.6271    2.0956    8.1741 H   0  0  0  0  0  0  0  0  0  0  0  0
    0.0724    3.5012    7.4166 H   0  0  0  0  0  0  0  0  0  0  0  0
   -0.4445    2.4287    5.1313 H   0  0  0  0  0  0  0  0  0  0  0  0
   -1.8729    2.6314    6.0972 H   0  0  0  0  0  0  0  0  0  0  0  0
   -2.9091    0.9525    3.6232 H   0  0  0  0  0  0  0  0  0  0  0  0
   -4.6096   -1.9768    5.8417 H   0  0  0  0  0  0  0  0  0  0  0  0
   -2.1341    0.2991    8.5050 H   0  0  0  0  0  0  0  0  0  0  0  0
   -1.1898   -2.6089   11.8273 H   0  0  0  0  0  0  0  0  0  0  0  0
   -1.9344   -4.6222    9.0280 H   0  0  0  0  0  0  0  0  0  0  0  0
   -2.0667   -3.3295    5.7644 H   0  0  0  0  0  0  0  0  0  0  0  0
  1  2  1  0  0  0  0
  1 32  1  0  0  0  0
  1 33  1  0  0  0  0
  1 34  1  0  0  0  0
  2  3  2  0  0  0  0
  2  4  2  0  0  0  0
  2  5  1  0  0  0  0
  5  6  2  0  0  0  0
  5  8  1  0  0  0  0
  6  7  1  0  0  0  0
  6 35  1  0  0  0  0
  7 10  2  0  0  0  0
  7 36  1  0  0  0  0
  8  9  2  0  0  0  0
  8 37  1  0  0  0  0
  9 10  1  0  0  0  0
  9 38  1  0  0  0  0
 10 11  1  0  0  0  0
 11 12  1  0  0  0  0
 11 39  1  0  0  0  0
 11 40  1  0  0  0  0
 12 13  1  0  0  0  0
 12 15  1  0  0  0  0
 13 14  1  0  0  0  0
 13 41  1  0  0  0  0
 13 42  1  0  0  0  0
 14 17  1  0  0  0  0
 14 43  1  0  0  0  0
 14 44  1  0  0  0  0
 15 16  1  0  0  0  0
 15 45  1  0  0  0  0
 15 46  1  0  0  0  0
 16 17  1  0  0  0  0
 16 47  1  0  0  0  0
 16 48  1  0  0  0  0
 17 18  1  0  0  0  0
 18 19  1  0  0  0  0
 18 22  2  0  0  0  0
 19 20  2  0  0  0  0
 19 49  1  0  0  0  0
 20 21  1  0  0  0  0
 21 22  1  0  0  0  0
 21 50  1  0  0  0  0
 22 23  1  0  0  0  0
 23 24  2  0  0  0  0
 23 30  1  0  0  0  0
 24 25  1  0  0  0  0
 24 51  1  0  0  0  0
 25 26  1  0  0  0  0
 25 27  2  0  0  0  0
 27 28  1  0  0  0  0
 27 29  1  0  0  0  0
 28 52  1  0  0  0  0
 29 30  2  0  0  0  0
 29 53  1  0  0  0  0
 30 31  1  0  0  0  0
 31 54  1  0  0  0  0
M  END
>  <DRUGBANK_ID>
DB06957

>  <COMMON_NAME>
4-CHLORO-6-(4-{4-[4-(METHYLSULFONYL)BENZYL]PIPERAZIN-1-YL}-1H-PYRAZOL-5-YL)BENZENE-1,3-DIOL

$$$$
