
 OpenBabel10282417103D

155161  0  0  0  0  0  0  0  0999 V2000
    7.2158    9.7775   -1.5969 C   0  0  0  0  0  0  0  0  0  0  0  0
    5.7522    9.7033   -2.7269 N   0  0  0  0  0  0  0  0  0  0  0  0
    3.8919    9.3855   -2.3814 C   0  0  1  0  0  0  0  0  0  0  0  0
    4.8939    9.7023   -0.7244 C   0  0  2  0  0  0  0  0  0  0  0  0
    6.5092   10.2574   -0.4093 C   0  0  1  0  0  0  0  0  0  0  0  0
   -3.0382    6.9036   -1.5694 C   0  0  0  0  0  0  0  0  0  0  0  0
   -2.1003    7.9470   -2.1435 C   0  0  2  0  0  0  0  0  0  0  0  0
   -1.7243    8.0343   -3.5703 C   0  0  2  0  0  0  0  0  0  0  0  0
    0.1657    8.7109   -3.6435 N   0  0  0  0  0  0  0  0  0  0  0  0
    1.8985    9.1820   -3.3478 C   0  0  0  0  0  0  0  0  0  0  0  0
   -2.7366    6.8157   -0.0045 C   0  0  1  0  0  0  0  0  0  0  0  0
   -1.2930    6.3313    0.0029 C   0  0  0  0  0  0  0  0  0  0  0  0
   -0.4331    6.8779    0.9763 N   0  0  0  0  0  0  0  0  0  0  0  0
   -0.9385    5.6445   -0.9344 O   0  0  0  0  0  0  0  0  0  0  0  0
    1.7634    7.6106    0.5685 C   0  0  2  0  0  0  0  0  0  0  0  0
    0.9201    6.5166    1.1155 C   0  0  1  0  0  0  0  0  0  0  0  0
    1.6533    6.1647    2.4865 C   0  0  0  0  0  0  0  0  0  0  0  0
    1.6306    8.8296    1.3100 O   0  0  0  0  0  0  0  0  0  0  0  0
    3.0352    7.0870    4.4596 C   0  0  0  0  0  0  0  0  0  0  0  0
    2.5993    7.0727    3.0634 N   0  0  0  0  0  0  0  0  0  0  0  0
    3.7918    7.6253    2.3316 C   0  0  1  0  0  0  0  0  0  0  0  0
    4.6025    8.3822    3.3647 C   0  0  0  0  0  0  0  0  0  0  0  0
    3.5380    8.5872    4.5280 C   0  0  1  0  0  0  0  0  0  0  0  0
    4.3832    6.6019    1.2360 C   0  0  0  0  0  0  0  0  0  0  0  0
    4.3170    7.0260   -0.1324 N   0  0  0  0  0  0  0  0  0  0  0  0
    4.7856    6.3741   -1.3396 C   0  0  1  0  0  0  0  0  0  0  0  0
    4.0587    5.1214   -1.5993 C   0  0  1  0  0  0  0  0  0  0  0  0
    2.6411    4.8301   -1.0778 C   0  0  2  0  0  0  0  0  0  0  0  0
    1.9066    3.8400   -1.8763 C   0  0  0  0  0  0  0  0  0  0  0  0
    2.5700    3.1353   -2.8381 C   0  0  0  0  0  0  0  0  0  0  0  0
    1.9048    2.3624   -3.7324 C   0  0  0  0  0  0  0  0  0  0  0  0
    0.5388    2.2250   -3.6006 C   0  0  0  0  0  0  0  0  0  0  0  0
   -0.1718    2.9203   -2.6529 C   0  0  0  0  0  0  0  0  0  0  0  0
    0.5361    3.6928   -1.7794 C   0  0  0  0  0  0  0  0  0  0  0  0
   -0.1534    1.3459   -4.3595 O   0  0  0  0  0  0  0  0  0  0  0  0
    4.4921    5.4141    1.4918 O   0  0  0  0  0  0  0  0  0  0  0  0
    1.7491    5.8701   -1.2822 O   0  0  0  0  0  0  0  0  0  0  0  0
    4.1502    5.0827   -3.0230 O   0  0  0  0  0  0  0  0  0  0  0  0
    6.4664    9.2967   -3.8543 C   0  0  0  0  0  0  0  0  0  0  0  0
    5.6240    8.4849   -4.7347 C   0  0  2  0  0  0  0  0  0  0  0  0
    5.1995    8.5788   -6.1692 C   0  0  1  0  0  0  0  0  0  0  0  0
    7.6990    9.3349   -4.0023 O   0  0  0  0  0  0  0  0  0  0  0  0
   -3.1986    7.9163   -4.3318 O   0  0  0  0  0  0  0  0  0  0  0  0
   -0.7588    7.6421   -1.9312 O   0  0  0  0  0  0  0  0  0  0  0  0
    3.4435    8.8662    5.9390 O   0  0  0  0  0  0  0  0  0  0  0  0
    5.5890    6.9774   -2.6442 C   0  0  0  0  0  0  0  0  0  0  0  0
    4.9893    7.4178   -3.8581 N   0  0  0  0  0  0  0  0  0  0  0  0
    6.7928    7.1520   -2.4485 O   0  0  0  0  0  0  0  0  0  0  0  0
    1.7528    9.8545   -4.4159 O   0  0  0  0  0  0  0  0  0  0  0  0
    6.5691    8.2756   -5.1971 H   0  0  0  0  0  0  0  0  0  0  0  0
    1.4314    5.0547    2.9702 O   0  0  0  0  0  0  0  0  0  0  0  0
    5.3325    8.8046    0.2937 O   0  0  0  0  0  0  0  0  0  0  0  0
    7.1609   10.6269    1.0773 C   0  0  0  0  0  0  0  0  0  0  0  0
    1.8647    8.0970   -0.8346 C   0  0  0  0  0  0  0  0  0  0  0  0
    3.8632    9.1972   -6.2637 C   0  0  0  0  0  0  0  0  0  0  0  0
    6.0982    9.3507   -6.9880 O   0  0  0  0  0  0  0  0  0  0  0  0
   -2.4458    7.7274    1.0923 N   0  0  0  0  0  0  0  0  0  0  0  0
   -2.8708    8.9726    1.3042 C   0  0  0  0  0  0  0  0  0  0  0  0
   -2.2951    9.6691    2.4899 C   0  0  0  0  0  0  0  0  0  0  0  0
   -3.6598    9.4997    0.5412 O   0  0  0  0  0  0  0  0  0  0  0  0
   -0.9252    9.7152    2.7572 C   0  0  0  0  0  0  0  0  0  0  0  0
   -0.3898   10.5213    3.7544 C   0  0  0  0  0  0  0  0  0  0  0  0
   -1.2358   11.2941    4.5305 C   0  0  0  0  0  0  0  0  0  0  0  0
   -2.5995   11.3119    4.2115 C   0  0  0  0  0  0  0  0  0  0  0  0
   -3.1399   10.4335    3.2719 C   0  0  0  0  0  0  0  0  0  0  0  0
   -0.7299   12.0608    5.6581 C   0  0  0  0  0  0  0  0  0  0  0  0
    0.2288   13.0544    5.4542 C   0  0  0  0  0  0  0  0  0  0  0  0
    0.6408   13.8613    6.4997 C   0  0  0  0  0  0  0  0  0  0  0  0
    0.1168   13.6482    7.7723 C   0  0  0  0  0  0  0  0  0  0  0  0
   -0.9035   12.7265    7.9652 C   0  0  0  0  0  0  0  0  0  0  0  0
   -1.2380   11.8558    6.9468 C   0  0  0  0  0  0  0  0  0  0  0  0
    0.6295   14.3371    8.9204 C   0  0  0  0  0  0  0  0  0  0  0  0
    0.4903   15.6650    8.9918 C   0  0  0  0  0  0  0  0  0  0  0  0
    0.8440   16.1371   10.2328 C   0  0  0  0  0  0  0  0  0  0  0  0
    1.5457   15.6555   11.2959 C   0  0  0  0  0  0  0  0  0  0  0  0
    1.7109   14.3315   11.1861 C   0  0  0  0  0  0  0  0  0  0  0  0
    1.2133   13.6758   10.0343 C   0  0  0  0  0  0  0  0  0  0  0  0
    2.0849   16.3992   12.3034 O   0  0  0  0  0  0  0  0  0  0  0  0
    2.0220   17.8543   12.3258 C   0  0  0  0  0  0  0  0  0  0  0  0
    2.8638   18.5608   11.2361 C   0  0  0  0  0  0  0  0  0  0  0  0
    2.3430   18.3323    9.8201 C   0  0  0  0  0  0  0  0  0  0  0  0
    0.8086   18.8196    9.6956 C   0  0  0  0  0  0  0  0  0  0  0  0
    0.6964   20.2702    9.8577 C   0  0  0  0  0  0  0  0  0  0  0  0
    8.0375   10.5146   -1.8990 H   0  0  0  0  0  0  0  0  0  0  0  0
    8.0642    8.9797   -1.4546 H   0  0  0  0  0  0  0  0  0  0  0  0
    3.9471    8.3396   -2.1960 H   0  0  0  0  0  0  0  0  0  0  0  0
    4.2297   10.2654   -0.1532 H   0  0  0  0  0  0  0  0  0  0  0  0
    6.4288   11.2794   -0.6024 H   0  0  0  0  0  0  0  0  0  0  0  0
   -4.1289    6.8435   -1.7302 H   0  0  0  0  0  0  0  0  0  0  0  0
   -2.8221    6.0115   -2.1997 H   0  0  0  0  0  0  0  0  0  0  0  0
   -2.2574    8.8520   -1.5855 H   0  0  0  0  0  0  0  0  0  0  0  0
   -1.5869    7.0994   -4.1060 H   0  0  0  0  0  0  0  0  0  0  0  0
    0.0594    8.5299   -4.6535 H   0  0  0  0  0  0  0  0  0  0  0  0
   -3.6361    6.4039    0.4425 H   0  0  0  0  0  0  0  0  0  0  0  0
   -0.5194    7.8904    0.9829 H   0  0  0  0  0  0  0  0  0  0  0  0
    2.5437    6.8861    0.6317 H   0  0  0  0  0  0  0  0  0  0  0  0
    0.9484    5.5646    0.5917 H   0  0  0  0  0  0  0  0  0  0  0  0
    2.1226    9.0915    2.1204 H   0  0  0  0  0  0  0  0  0  0  0  0
    2.3129    6.7724    5.2296 H   0  0  0  0  0  0  0  0  0  0  0  0
    3.7684    6.2660    4.5308 H   0  0  0  0  0  0  0  0  0  0  0  0
    3.5230    8.5343    1.7944 H   0  0  0  0  0  0  0  0  0  0  0  0
    5.6202    8.3467    3.7614 H   0  0  0  0  0  0  0  0  0  0  0  0
    4.8952    9.2259    2.7106 H   0  0  0  0  0  0  0  0  0  0  0  0
    4.3496    9.2966    4.6713 H   0  0  0  0  0  0  0  0  0  0  0  0
    3.7875    7.8345   -0.3820 H   0  0  0  0  0  0  0  0  0  0  0  0
    5.6973    6.0103   -0.9108 H   0  0  0  0  0  0  0  0  0  0  0  0
    4.6880    4.3852   -1.0883 H   0  0  0  0  0  0  0  0  0  0  0  0
    2.6557    4.5723   -0.0108 H   0  0  0  0  0  0  0  0  0  0  0  0
    3.6434    3.1789   -2.9111 H   0  0  0  0  0  0  0  0  0  0  0  0
    2.5258    1.8689   -4.4575 H   0  0  0  0  0  0  0  0  0  0  0  0
   -1.2420    2.8319   -2.5416 H   0  0  0  0  0  0  0  0  0  0  0  0
    0.0226    4.1601   -0.9740 H   0  0  0  0  0  0  0  0  0  0  0  0
    0.4774    0.8780   -4.9261 H   0  0  0  0  0  0  0  0  0  0  0  0
    1.5645    6.1423   -2.1914 H   0  0  0  0  0  0  0  0  0  0  0  0
    3.3022    5.3942   -3.3745 H   0  0  0  0  0  0  0  0  0  0  0  0
    5.2333    7.5389   -6.5428 H   0  0  0  0  0  0  0  0  0  0  0  0
   -3.5988    6.9726   -4.1721 H   0  0  0  0  0  0  0  0  0  0  0  0
   -0.3108    8.3992   -2.3902 H   0  0  0  0  0  0  0  0  0  0  0  0
    3.7709    9.7739    6.1335 H   0  0  0  0  0  0  0  0  0  0  0  0
    4.1685    6.9488   -4.2088 H   0  0  0  0  0  0  0  0  0  0  0  0
    4.5076    8.5662    0.6486 H   0  0  0  0  0  0  0  0  0  0  0  0
    8.0563   11.3061    1.1653 H   0  0  0  0  0  0  0  0  0  0  0  0
    6.3908   11.3056    1.4732 H   0  0  0  0  0  0  0  0  0  0  0  0
    7.3254    9.8414    1.8308 H   0  0  0  0  0  0  0  0  0  0  0  0
    2.2940    9.0754   -0.9244 H   0  0  0  0  0  0  0  0  0  0  0  0
    2.5016    7.5394   -1.5367 H   0  0  0  0  0  0  0  0  0  0  0  0
    0.9064    8.0817   -1.2232 H   0  0  0  0  0  0  0  0  0  0  0  0
    3.9214   10.2131   -5.8606 H   0  0  0  0  0  0  0  0  0  0  0  0
    3.5889    9.2379   -7.3138 H   0  0  0  0  0  0  0  0  0  0  0  0
    3.1494    8.6036   -5.6980 H   0  0  0  0  0  0  0  0  0  0  0  0
    6.3191   10.1800   -6.5225 H   0  0  0  0  0  0  0  0  0  0  0  0
   -1.8616    7.2670    1.8121 H   0  0  0  0  0  0  0  0  0  0  0  0
   -0.2230    9.1377    2.2065 H   0  0  0  0  0  0  0  0  0  0  0  0
    0.6847   10.5515    3.9109 H   0  0  0  0  0  0  0  0  0  0  0  0
   -3.2417   12.0470    4.6885 H   0  0  0  0  0  0  0  0  0  0  0  0
   -4.2143   10.3435    3.1586 H   0  0  0  0  0  0  0  0  0  0  0  0
    0.6646   13.1922    4.4728 H   0  0  0  0  0  0  0  0  0  0  0  0
    1.3640   14.6516    6.3205 H   0  0  0  0  0  0  0  0  0  0  0  0
   -1.4227   12.7057    8.9202 H   0  0  0  0  0  0  0  0  0  0  0  0
   -1.8877   11.0151    7.1719 H   0  0  0  0  0  0  0  0  0  0  0  0
    0.1307   16.3118    8.1881 H   0  0  0  0  0  0  0  0  0  0  0  0
    0.7226   17.1166   10.3873 H   0  0  0  0  0  0  0  0  0  0  0  0
    2.1929   13.8261   12.0000 H   0  0  0  0  0  0  0  0  0  0  0  0
    1.2845   12.6039   10.0088 H   0  0  0  0  0  0  0  0  0  0  0  0
    0.9813   18.2006   12.3463 H   0  0  0  0  0  0  0  0  0  0  0  0
    2.4272   18.1752   13.2986 H   0  0  0  0  0  0  0  0  0  0  0  0
    2.8682   19.6397   11.3993 H   0  0  0  0  0  0  0  0  0  0  0  0
    3.8963   18.2040   11.3061 H   0  0  0  0  0  0  0  0  0  0  0  0
    2.9281   18.7582    9.0065 H   0  0  0  0  0  0  0  0  0  0  0  0
    2.5902   17.2741    9.6286 H   0  0  0  0  0  0  0  0  0  0  0  0
    0.3551   18.4305    8.7738 H   0  0  0  0  0  0  0  0  0  0  0  0
    0.0885   18.5256   10.5104 H   0  0  0  0  0  0  0  0  0  0  0  0
    1.2873   20.6849    9.0564 H   0  0  0  0  0  0  0  0  0  0  0  0
   -0.3644   20.5200    9.8131 H   0  0  0  0  0  0  0  0  0  0  0  0
    1.0775   20.5197   10.8493 H   0  0  0  0  0  0  0  0  0  0  0  0
  1  2  1  0  0  0  0
  1 84  1  0  0  0  0
  1 85  1  0  0  0  0
  2  3  1  0  0  0  0
  2 39  1  0  0  0  0
  3  4  1  0  0  0  0
  3 10  1  0  0  0  0
  3 86  1  1  0  0  0
  4  5  1  0  0  0  0
  4 52  1  0  0  0  0
  4 87  1  1  0  0  0
  5  1  1  0  0  0  0
  5 53  1  0  0  0  0
  5 88  1  6  0  0  0
  6  7  1  0  0  0  0
  6 11  1  0  0  0  0
  6 89  1  0  0  0  0
  6 90  1  0  0  0  0
  7  8  1  0  0  0  0
  7 91  1  1  0  0  0
  7 44  1  0  0  0  0
  8  9  1  0  0  0  0
  8 43  1  0  0  0  0
  8 92  1  6  0  0  0
  9 93  1  0  0  0  0
 10  9  1  0  0  0  0
 10 49  2  0  0  0  0
 11 12  1  0  0  0  0
 11 94  1  1  0  0  0
 11 57  1  0  0  0  0
 12 13  1  0  0  0  0
 12 14  2  0  0  0  0
 13 95  1  0  0  0  0
 15 96  1  1  0  0  0
 15 54  1  0  0  0  0
 15 18  1  0  0  0  0
 16 13  1  0  0  0  0
 16 17  1  0  0  0  0
 16 97  1  6  0  0  0
 16 15  1  0  0  0  0
 17 20  1  0  0  0  0
 17 51  2  0  0  0  0
 18 98  1  0  0  0  0
 19 20  1  0  0  0  0
 19 99  1  0  0  0  0
 19100  1  0  0  0  0
 20 21  1  0  0  0  0
 21 22  1  0  0  0  0
 21 24  1  0  0  0  0
 21101  1  6  0  0  0
 22 23  1  0  0  0  0
 22102  1  0  0  0  0
 22103  1  0  0  0  0
 23 19  1  0  0  0  0
 23 45  1  0  0  0  0
 23104  1  1  0  0  0
 24 25  1  0  0  0  0
 24 36  2  0  0  0  0
 25105  1  0  0  0  0
 26 46  1  0  0  0  0
 26 25  1  0  0  0  0
 26 27  1  0  0  0  0
 26106  1  1  0  0  0
 27 38  1  0  0  0  0
 27107  1  1  0  0  0
 28 37  1  0  0  0  0
 28108  1  1  0  0  0
 28 29  1  0  0  0  0
 28 27  1  0  0  0  0
 29 30  1  0  0  0  0
 29 34  2  0  0  0  0
 30 31  2  0  0  0  0
 30109  1  0  0  0  0
 31 32  1  0  0  0  0
 31110  1  0  0  0  0
 32 33  2  0  0  0  0
 32 35  1  0  0  0  0
 33 34  1  0  0  0  0
 33111  1  0  0  0  0
 34112  1  0  0  0  0
 35113  1  0  0  0  0
 37114  1  0  0  0  0
 38115  1  0  0  0  0
 39 40  1  0  0  0  0
 39 42  2  0  0  0  0
 40 47  1  0  0  0  0
 40 41  1  0  0  0  0
 40 50  1  6  0  0  0
 41 55  1  0  0  0  0
 41 56  1  0  0  0  0
 41116  1  6  0  0  0
 43117  1  0  0  0  0
 44118  1  0  0  0  0
 45119  1  0  0  0  0
 46 48  2  0  0  0  0
 47 46  1  0  0  0  0
 47120  1  0  0  0  0
 52121  1  0  0  0  0
 53122  1  0  0  0  0
 53123  1  0  0  0  0
 53124  1  0  0  0  0
 54125  1  0  0  0  0
 54126  1  0  0  0  0
 54127  1  0  0  0  0
 55128  1  0  0  0  0
 55129  1  0  0  0  0
 55130  1  0  0  0  0
 56131  1  0  0  0  0
 57 58  1  0  0  0  0
 57132  1  0  0  0  0
 58 59  1  0  0  0  0
 58 60  2  0  0  0  0
 59 61  2  0  0  0  0
 61 62  1  0  0  0  0
 61133  1  0  0  0  0
 62 63  2  0  0  0  0
 62134  1  0  0  0  0
 63 64  1  0  0  0  0
 63 66  1  0  0  0  0
 64 65  2  0  0  0  0
 64135  1  0  0  0  0
 65 59  1  0  0  0  0
 65136  1  0  0  0  0
 66 67  2  0  0  0  0
 67 68  1  0  0  0  0
 67137  1  0  0  0  0
 68 69  2  0  0  0  0
 68138  1  0  0  0  0
 69 70  1  0  0  0  0
 69 72  1  0  0  0  0
 70 71  2  0  0  0  0
 70139  1  0  0  0  0
 71 66  1  0  0  0  0
 71140  1  0  0  0  0
 72 73  2  0  0  0  0
 73 74  1  0  0  0  0
 73141  1  0  0  0  0
 74 75  2  0  0  0  0
 74142  1  0  0  0  0
 75 76  1  0  0  0  0
 75 78  1  0  0  0  0
 76 77  2  0  0  0  0
 76143  1  0  0  0  0
 77 72  1  0  0  0  0
 77144  1  0  0  0  0
 78 79  1  0  0  0  0
 79 80  1  0  0  0  0
 79145  1  0  0  0  0
 79146  1  0  0  0  0
 80 81  1  0  0  0  0
 80147  1  0  0  0  0
 80148  1  0  0  0  0
 81 82  1  0  0  0  0
 81149  1  0  0  0  0
 81150  1  0  0  0  0
 82 83  1  0  0  0  0
 82151  1  0  0  0  0
 82152  1  0  0  0  0
 83153  1  0  0  0  0
 83154  1  0  0  0  0
 83155  1  0  0  0  0
M  END
>  <DRUGBANK_ID>
DB00362

>  <SECONDARY_ACCESSION_NUMBERS>
APRD01301

>  <COMMON_NAME>
Anidulafungin

>  <CAS_NUMBER>
166663-25-8

>  <UNII>
9HLM53094I

>  <SYNONYMS>
Anidulafungin; Anidulafungina; Anidulafungine; Anidulafunginum

$$$$
