710
 OpenBabel10282417163D

 57 62  0  0  0  0  0  0  0  0999 V2000
    2.2351   -0.6892    0.0666 C   0  0  0  0  0  0  0  0  0  0  0  0
    2.2183    0.7133    0.0624 C   0  0  0  0  0  0  0  0  0  0  0  0
    1.0045    1.4185    0.0577 C   0  0  0  0  0  0  0  0  0  0  0  0
    1.0474   -1.4255    0.0774 C   0  0  0  0  0  0  0  0  0  0  0  0
   -0.1747   -0.7313    0.0944 C   0  0  0  0  0  0  0  0  0  0  0  0
   -0.1704    0.6584    0.0558 C   0  0  0  0  0  0  0  0  0  0  0  0
   -1.4920    1.0171    0.0041 N   0  0  0  0  0  0  0  0  0  0  0  0
   -2.3425   -0.0217   -0.0661 N   0  0  0  0  0  0  0  0  0  0  0  0
   -1.5453   -1.0857    0.0714 C   0  0  0  0  0  0  0  0  0  0  0  0
   -2.0632   -2.4703    0.0589 C   0  0  0  0  0  0  0  0  0  0  0  0
   -1.7695   -3.4619    0.9643 N   0  0  0  0  0  0  0  0  0  0  0  0
   -2.8453   -3.0049   -0.9297 C   0  0  0  0  0  0  0  0  0  0  0  0
   -2.9280   -4.3935   -0.6737 C   0  0  0  0  0  0  0  0  0  0  0  0
   -2.3335   -4.6531    0.5557 C   0  0  0  0  0  0  0  0  0  0  0  0
   -2.3432   -5.9326    1.1326 C   0  0  0  0  0  0  0  0  0  0  0  0
   -3.0063   -6.9584    0.4352 C   0  0  0  0  0  0  0  0  0  0  0  0
   -3.5921   -6.7296   -0.8150 C   0  0  0  0  0  0  0  0  0  0  0  0
   -3.4627   -5.4598   -1.3971 C   0  0  0  0  0  0  0  0  0  0  0  0
   -4.4271   -7.7890   -1.5141 C   0  0  0  0  0  0  0  0  0  0  0  0
   -5.8800   -7.4954   -1.6123 N   0  0  0  0  0  0  0  0  0  0  0  0
   -6.4950   -7.3736   -0.2824 C   0  0  0  0  0  0  0  0  0  0  0  0
   -7.9992   -7.1081   -0.3897 C   0  0  0  0  0  0  0  0  0  0  0  0
   -8.2955   -5.8749   -1.2392 C   0  0  0  0  0  0  0  0  0  0  0  0
   -7.6327   -6.0008   -2.6045 C   0  0  0  0  0  0  0  0  0  0  0  0
   -6.1559   -6.2972   -2.4176 C   0  0  0  0  0  0  0  0  0  0  0  0
    3.4765    1.4361   -0.0072 C   0  0  0  0  0  0  0  0  0  0  0  0
    4.4782    1.3516   -1.0123 C   0  0  0  0  0  0  0  0  0  0  0  0
    5.5021    2.1567   -0.6878 N   0  0  0  0  0  0  0  0  0  0  0  0
    5.0767    2.6812    0.4715 N   0  0  0  0  0  0  0  0  0  0  0  0
    3.8640    2.3218    0.9229 N   0  0  0  0  0  0  0  0  0  0  0  0
    4.4615    0.5324   -2.2583 C   0  0  0  0  0  0  0  0  0  0  0  0
    4.5128    1.3158   -3.4499 O   0  0  0  0  0  0  0  0  0  0  0  0
    3.1799   -1.2297    0.0488 H   0  0  0  0  0  0  0  0  0  0  0  0
    0.9815    2.5038    0.0268 H   0  0  0  0  0  0  0  0  0  0  0  0
    1.0721   -2.5107    0.0356 H   0  0  0  0  0  0  0  0  0  0  0  0
   -1.8780    1.9543   -0.0171 H   0  0  0  0  0  0  0  0  0  0  0  0
   -1.2468   -3.3316    1.8154 H   0  0  0  0  0  0  0  0  0  0  0  0
   -3.2269   -2.4799   -1.7968 H   0  0  0  0  0  0  0  0  0  0  0  0
   -1.8784   -6.1313    2.0923 H   0  0  0  0  0  0  0  0  0  0  0  0
   -3.0609   -7.9497    0.8831 H   0  0  0  0  0  0  0  0  0  0  0  0
   -3.8453   -5.2495   -2.3886 H   0  0  0  0  0  0  0  0  0  0  0  0
   -4.0158   -7.9521   -2.5192 H   0  0  0  0  0  0  0  0  0  0  0  0
   -4.3016   -8.7541   -1.0036 H   0  0  0  0  0  0  0  0  0  0  0  0
   -6.0384   -6.5575    0.2917 H   0  0  0  0  0  0  0  0  0  0  0  0
   -6.3409   -8.2978    0.2878 H   0  0  0  0  0  0  0  0  0  0  0  0
   -8.4135   -6.9675    0.6143 H   0  0  0  0  0  0  0  0  0  0  0  0
   -8.4952   -7.9805   -0.8308 H   0  0  0  0  0  0  0  0  0  0  0  0
   -9.3731   -5.7341   -1.3581 H   0  0  0  0  0  0  0  0  0  0  0  0
   -7.9080   -4.9832   -0.7269 H   0  0  0  0  0  0  0  0  0  0  0  0
   -8.1082   -6.7789   -3.2088 H   0  0  0  0  0  0  0  0  0  0  0  0
   -7.7309   -5.0514   -3.1464 H   0  0  0  0  0  0  0  0  0  0  0  0
   -5.6703   -6.3732   -3.3973 H   0  0  0  0  0  0  0  0  0  0  0  0
   -5.7859   -5.4044   -1.9100 H   0  0  0  0  0  0  0  0  0  0  0  0
    5.6579    3.3345    0.9928 H   0  0  0  0  0  0  0  0  0  0  0  0
    5.3068   -0.1624   -2.2639 H   0  0  0  0  0  0  0  0  0  0  0  0
    3.5495   -0.0680   -2.3207 H   0  0  0  0  0  0  0  0  0  0  0  0
    3.8311    2.0024   -3.3598 H   0  0  0  0  0  0  0  0  0  0  0  0
  1  2  1  0  0  0  0
  1  4  2  0  0  0  0
  1 33  1  0  0  0  0
  2  3  2  0  0  0  0
  2 26  1  0  0  0  0
  3  6  1  0  0  0  0
  3 34  1  0  0  0  0
  4  5  1  0  0  0  0
  4 35  1  0  0  0  0
  5  6  2  0  0  0  0
  5  9  1  0  0  0  0
  6  7  1  0  0  0  0
  7  8  1  0  0  0  0
  7 36  1  0  0  0  0
  8  9  2  0  0  0  0
  9 10  1  0  0  0  0
 10 11  1  0  0  0  0
 10 12  2  0  0  0  0
 11 14  1  0  0  0  0
 11 37  1  0  0  0  0
 12 13  1  0  0  0  0
 12 38  1  0  0  0  0
 13 14  2  0  0  0  0
 13 18  1  0  0  0  0
 14 15  1  0  0  0  0
 15 16  2  0  0  0  0
 15 39  1  0  0  0  0
 16 17  1  0  0  0  0
 16 40  1  0  0  0  0
 17 18  2  0  0  0  0
 17 19  1  0  0  0  0
 18 41  1  0  0  0  0
 19 20  1  0  0  0  0
 19 42  1  0  0  0  0
 19 43  1  0  0  0  0
 20 21  1  0  0  0  0
 20 25  1  0  0  0  0
 21 22  1  0  0  0  0
 21 44  1  0  0  0  0
 21 45  1  0  0  0  0
 22 23  1  0  0  0  0
 22 46  1  0  0  0  0
 22 47  1  0  0  0  0
 23 24  1  0  0  0  0
 23 48  1  0  0  0  0
 23 49  1  0  0  0  0
 24 25  1  0  0  0  0
 24 50  1  0  0  0  0
 24 51  1  0  0  0  0
 25 52  1  0  0  0  0
 25 53  1  0  0  0  0
 26 27  1  0  0  0  0
 26 30  2  0  0  0  0
 27 28  2  0  0  0  0
 27 31  1  0  0  0  0
 28 29  1  0  0  0  0
 29 30  1  0  0  0  0
 29 54  1  0  0  0  0
 31 32  1  0  0  0  0
 31 55  1  0  0  0  0
 31 56  1  0  0  0  0
 32 57  1  0  0  0  0
M  END
>  <DRUGBANK_ID>
DB07213

>  <COMMON_NAME>
(5-{3-[5-(PIPERIDIN-1-YLMETHYL)-1H-INDOL-2-YL]-1H-INDAZOL-6-YL}-2H-1,2,3-TRIAZOL-4-YL)METHANOL

>  <UNII>
U77F86VL6N

$$$$
