
 OpenBabel10282417183D

 50 53  0  0  0  0  0  0  0  0999 V2000
    0.7040    1.5723    0.0036 C   0  0  0  0  0  0  0  0  0  0  0  0
    2.0125    1.0802    0.0037 C   0  0  0  0  0  0  0  0  0  0  0  0
    2.2448   -0.2966    0.0028 C   0  0  0  0  0  0  0  0  0  0  0  0
    1.1729   -1.1976   -0.0043 C   0  0  0  0  0  0  0  0  0  0  0  0
   -0.1415   -0.7283   -0.0145 C   0  0  0  0  0  0  0  0  0  0  0  0
   -0.3562    0.6650   -0.0014 C   0  0  0  0  0  0  0  0  0  0  0  0
   -2.1112    1.0655    0.0124 S   0  0  0  0  0  0  0  0  0  0  0  0
   -1.3321   -1.4921   -0.0470 N   0  0  0  0  0  0  0  0  0  0  0  0
   -2.4812   -0.6866   -0.0379 C   0  0  0  0  0  0  0  0  0  0  0  0
   -3.7708   -1.1538   -0.0395 C   0  0  0  0  0  0  0  0  0  0  0  0
   -5.0074   -0.4325    0.1495 C   0  0  0  0  0  0  0  0  0  0  0  0
   -6.2490   -1.0034    0.2592 C   0  0  0  0  0  0  0  0  0  0  0  0
   -7.4024   -0.1468    0.4983 C   0  0  0  0  0  0  0  0  0  0  0  0
   -8.6735   -0.3236    0.0313 C   0  0  0  0  0  0  0  0  0  0  0  0
   -9.3164    0.8301   -0.6205 C   0  0  0  0  0  0  0  0  0  0  0  0
   -7.5371    2.4123   -1.0587 C   0  0  0  0  0  0  0  0  0  0  0  0
   -8.4311    1.3192   -2.1197 S   0  0  0  0  0  0  0  0  0  0  0  0
   -9.5781    2.0296   -0.0873 N   0  3  0  0  0  0  0  0  0  0  0  0
   -8.4320    2.8069   -0.0595 C   0  0  0  0  0  0  0  0  0  0  0  0
   -5.8002    3.5524    0.0848 C   0  0  0  0  0  0  0  0  0  0  0  0
   -6.1993    2.8012   -1.0311 C   0  0  0  0  0  0  0  0  0  0  0  0
   -8.0803    3.7425    0.9171 C   0  0  0  0  0  0  0  0  0  0  0  0
   -6.7228    4.0486    1.0137 C   0  0  0  0  0  0  0  0  0  0  0  0
  -10.8854    2.7034   -0.0136 C   0  0  0  0  0  0  0  0  0  0  0  0
  -11.7604    2.5363   -1.2446 C   0  0  0  0  0  0  0  0  0  0  0  0
   -1.2774   -2.9502   -0.0063 C   0  0  0  0  0  0  0  0  0  0  0  0
   -1.8489   -3.5021    1.2930 C   0  0  0  0  0  0  0  0  0  0  0  0
   -3.9050   -2.2222   -0.1339 H   0  0  0  0  0  0  0  0  0  0  0  0
   -4.9056    0.6416    0.2392 H   0  0  0  0  0  0  0  0  0  0  0  0
   -6.3851   -2.0659    0.1141 H   0  0  0  0  0  0  0  0  0  0  0  0
   -7.0841    0.8284    0.8412 H   0  0  0  0  0  0  0  0  0  0  0  0
   -9.0038   -1.3070   -0.2863 H   0  0  0  0  0  0  0  0  0  0  0  0
    0.5314    2.6430    0.0051 H   0  0  0  0  0  0  0  0  0  0  0  0
    2.8594    1.7643    0.0055 H   0  0  0  0  0  0  0  0  0  0  0  0
    3.2651   -0.6772    0.0039 H   0  0  0  0  0  0  0  0  0  0  0  0
    1.4148   -2.2534   -0.0057 H   0  0  0  0  0  0  0  0  0  0  0  0
   -4.7370    3.7340    0.2486 H   0  0  0  0  0  0  0  0  0  0  0  0
   -5.4708    2.3955   -1.7285 H   0  0  0  0  0  0  0  0  0  0  0  0
   -8.7768    4.0833    1.6768 H   0  0  0  0  0  0  0  0  0  0  0  0
   -6.3704    4.6385    1.8596 H   0  0  0  0  0  0  0  0  0  0  0  0
  -11.4050    2.4012    0.8998 H   0  0  0  0  0  0  0  0  0  0  0  0
  -10.7007    3.7845    0.0766 H   0  0  0  0  0  0  0  0  0  0  0  0
  -12.1454    1.5168   -1.3192 H   0  0  0  0  0  0  0  0  0  0  0  0
  -12.6134    3.2230   -1.1977 H   0  0  0  0  0  0  0  0  0  0  0  0
  -11.2070    2.7675   -2.1606 H   0  0  0  0  0  0  0  0  0  0  0  0
   -1.8177   -3.3529   -0.8701 H   0  0  0  0  0  0  0  0  0  0  0  0
   -0.2621   -3.3409   -0.0997 H   0  0  0  0  0  0  0  0  0  0  0  0
   -2.9092   -3.2719    1.4171 H   0  0  0  0  0  0  0  0  0  0  0  0
   -1.7548   -4.5916    1.3056 H   0  0  0  0  0  0  0  0  0  0  0  0
   -1.3228   -3.0942    2.1614 H   0  0  0  0  0  0  0  0  0  0  0  0
  1  2  2  0  0  0  0
  1  6  1  0  0  0  0
  1 33  1  0  0  0  0
  2  3  1  0  0  0  0
  2 34  1  0  0  0  0
  3  4  2  0  0  0  0
  3 35  1  0  0  0  0
  4  5  1  0  0  0  0
  4 36  1  0  0  0  0
  5  8  1  0  0  0  0
  6  5  2  0  0  0  0
  7  6  1  0  0  0  0
  7  9  1  0  0  0  0
  8  9  1  0  0  0  0
  8 26  1  0  0  0  0
  9 10  2  3  0  0  0
 10 11  1  0  0  0  0
 10 28  1  0  0  0  0
 11 12  2  3  0  0  0
 11 29  1  0  0  0  0
 12 13  1  0  0  0  0
 12 30  1  0  0  0  0
 13 14  2  3  0  0  0
 13 31  1  0  0  0  0
 14 15  1  0  0  0  0
 14 32  1  0  0  0  0
 15 18  2  0  0  0  0
 16 17  1  0  0  0  0
 16 19  1  0  0  0  0
 17 15  1  0  0  0  0
 18 19  1  0  0  0  0
 18 24  1  0  0  0  0
 19 22  2  0  0  0  0
 20 21  1  0  0  0  0
 20 23  2  0  0  0  0
 20 37  1  0  0  0  0
 21 16  2  0  0  0  0
 21 38  1  0  0  0  0
 22 23  1  0  0  0  0
 22 39  1  0  0  0  0
 23 40  1  0  0  0  0
 24 25  1  0  0  0  0
 24 41  1  0  0  0  0
 24 42  1  0  0  0  0
 25 43  1  0  0  0  0
 25 44  1  0  0  0  0
 25 45  1  0  0  0  0
 26 27  1  0  0  0  0
 26 46  1  0  0  0  0
 26 47  1  0  0  0  0
 27 48  1  0  0  0  0
 27 49  1  0  0  0  0
 27 50  1  0  0  0  0
M  CHG  1  18   1
M  END
>  <DRUGBANK_ID>
DB11516

>  <COMMON_NAME>
Dithiazanine

>  <CAS_NUMBER>
7187-55-5

>  <UNII>
5L7E7IY5EH

>  <SYNONYMS>
3,3'-Diethylthiadicarbocyanine; Dithiazaninum

$$$$
