
 OpenBabel10282417113D

 60 59  0  0  0  0  0  0  0  0999 V2000
    1.0665    0.0744    0.0063 C   0  0  0  0  0  0  0  0  0  0  0  0
    0.3065    1.2787   -0.5253 C   0  0  0  0  0  0  0  0  0  0  0  0
    0.4311   -0.9325    0.4508 O   0  0  0  0  0  0  0  0  0  0  0  0
   -0.5674    0.8511   -1.6932 C   0  0  0  0  0  0  0  0  0  0  0  0
   -1.5551   -0.2058   -1.2266 C   0  0  0  0  0  0  0  0  0  0  0  0
   -2.4290    0.3691   -0.1238 C   0  0  0  0  0  0  0  0  0  0  0  0
   -3.1890    1.5733   -0.6554 C   0  0  0  0  0  0  0  0  0  0  0  0
   -4.0629    1.1458   -1.8233 C   0  0  0  0  0  0  0  0  0  0  0  0
   -5.0506    0.0888   -1.3567 C   0  0  0  0  0  0  0  0  0  0  0  0
   -5.9245    0.6637   -0.2538 C   0  0  0  0  0  0  0  0  0  0  0  0
   -6.6845    1.8680   -0.7855 C   0  0  0  0  0  0  0  0  0  0  0  0
   -7.5583    1.4404   -1.9533 C   0  0  0  0  0  0  0  0  0  0  0  0
   -8.5461    0.3835   -1.4868 C   0  0  0  0  0  0  0  0  0  0  0  0
   -9.4200    0.9584   -0.3839 C   0  0  0  0  0  0  0  0  0  0  0  0
  -10.1800    2.1626   -0.9155 C   0  0  0  0  0  0  0  0  0  0  0  0
  -11.0538    1.7351   -2.0834 C   0  0  0  0  0  0  0  0  0  0  0  0
  -12.0416    0.6782   -1.6168 C   0  0  0  0  0  0  0  0  0  0  0  0
  -12.9155    1.2530   -0.5140 C   0  0  0  0  0  0  0  0  0  0  0  0
  -13.6755    2.4573   -1.0456 C   0  0  0  0  0  0  0  0  0  0  0  0
    2.4865    0.0744    0.0063 O   0  0  0  0  0  0  0  0  0  0  0  0
    2.4865    3.0375   -1.3017 O   0  0  0  0  0  0  0  0  0  0  0  0
    3.4215    1.5559   -0.6477 Al  0  0  0  0  0  0  0  0  0  0  0  0
    5.2915    1.5559   -0.6477 O   0  0  0  0  0  0  0  0  0  0  0  0
   -0.3086    1.6833    0.2510 H   0  0  0  0  0  0  0  0  0  0  0  0
    1.0018    2.0227   -0.8537 H   0  0  0  0  0  0  0  0  0  0  0  0
   -1.1024    1.6988   -2.0674 H   0  0  0  0  0  0  0  0  0  0  0  0
    0.0478    0.4464   -2.4695 H   0  0  0  0  0  0  0  0  0  0  0  0
   -2.1703   -0.5068   -2.0488 H   0  0  0  0  0  0  0  0  0  0  0  0
   -1.0201   -1.0535   -0.8524 H   0  0  0  0  0  0  0  0  0  0  0  0
   -3.1243   -0.3750    0.2047 H   0  0  0  0  0  0  0  0  0  0  0  0
   -1.8138    0.6700    0.6984 H   0  0  0  0  0  0  0  0  0  0  0  0
   -3.8041    1.9780    0.1210 H   0  0  0  0  0  0  0  0  0  0  0  0
   -2.4937    2.3173   -0.9838 H   0  0  0  0  0  0  0  0  0  0  0  0
   -4.5979    1.9935   -2.1975 H   0  0  0  0  0  0  0  0  0  0  0  0
   -3.4477    0.7411   -2.5996 H   0  0  0  0  0  0  0  0  0  0  0  0
   -5.6658   -0.2121   -2.1788 H   0  0  0  0  0  0  0  0  0  0  0  0
   -4.5156   -0.7589   -0.9825 H   0  0  0  0  0  0  0  0  0  0  0  0
   -6.6198   -0.0803    0.0746 H   0  0  0  0  0  0  0  0  0  0  0  0
   -5.3093    0.9647    0.5683 H   0  0  0  0  0  0  0  0  0  0  0  0
   -7.2996    2.2726   -0.0091 H   0  0  0  0  0  0  0  0  0  0  0  0
   -5.9892    2.6120   -1.1139 H   0  0  0  0  0  0  0  0  0  0  0  0
   -8.0933    2.2881   -2.3276 H   0  0  0  0  0  0  0  0  0  0  0  0
   -6.9432    1.0357   -2.7297 H   0  0  0  0  0  0  0  0  0  0  0  0
   -9.1613    0.0825   -2.3089 H   0  0  0  0  0  0  0  0  0  0  0  0
   -8.0111   -0.4642   -1.1125 H   0  0  0  0  0  0  0  0  0  0  0  0
  -10.1153    0.2144   -0.0555 H   0  0  0  0  0  0  0  0  0  0  0  0
   -8.8048    1.2593    0.4382 H   0  0  0  0  0  0  0  0  0  0  0  0
  -10.7951    2.5673   -0.1392 H   0  0  0  0  0  0  0  0  0  0  0  0
   -9.4846    2.9066   -1.2440 H   0  0  0  0  0  0  0  0  0  0  0  0
  -11.5888    2.5828   -2.4576 H   0  0  0  0  0  0  0  0  0  0  0  0
  -10.4387    1.3304   -2.8598 H   0  0  0  0  0  0  0  0  0  0  0  0
  -12.6567    0.3772   -2.4390 H   0  0  0  0  0  0  0  0  0  0  0  0
  -11.5066   -0.1696   -1.2426 H   0  0  0  0  0  0  0  0  0  0  0  0
  -13.6108    0.5090   -0.1855 H   0  0  0  0  0  0  0  0  0  0  0  0
  -12.3003    1.5540    0.3081 H   0  0  0  0  0  0  0  0  0  0  0  0
  -14.2906    2.1563   -1.8677 H   0  0  0  0  0  0  0  0  0  0  0  0
  -14.2906    2.8619   -0.2692 H   0  0  0  0  0  0  0  0  0  0  0  0
  -12.9801    3.2013   -1.3740 H   0  0  0  0  0  0  0  0  0  0  0  0
    1.5033    2.8703   -1.2279 H   0  0  0  0  0  0  0  0  0  0  0  0
    5.6248    2.4185   -1.0285 H   0  0  0  0  0  0  0  0  0  0  0  0
  1  2  1  0  0  0  0
  1  3  2  0  0  0  0
  1 20  1  0  0  0  0
  2  4  1  0  0  0  0
  2 24  1  0  0  0  0
  2 25  1  0  0  0  0
  4  5  1  0  0  0  0
  4 26  1  0  0  0  0
  4 27  1  0  0  0  0
  5  6  1  0  0  0  0
  5 28  1  0  0  0  0
  5 29  1  0  0  0  0
  6  7  1  0  0  0  0
  6 30  1  0  0  0  0
  6 31  1  0  0  0  0
  7  8  1  0  0  0  0
  7 32  1  0  0  0  0
  7 33  1  0  0  0  0
  8  9  1  0  0  0  0
  8 34  1  0  0  0  0
  8 35  1  0  0  0  0
  9 10  1  0  0  0  0
  9 36  1  0  0  0  0
  9 37  1  0  0  0  0
 10 11  1  0  0  0  0
 10 38  1  0  0  0  0
 10 39  1  0  0  0  0
 11 40  1  0  0  0  0
 11 41  1  0  0  0  0
 12 11  1  0  0  0  0
 12 42  1  0  0  0  0
 12 43  1  0  0  0  0
 13 12  1  0  0  0  0
 13 44  1  0  0  0  0
 13 45  1  0  0  0  0
 14 13  1  0  0  0  0
 14 46  1  0  0  0  0
 14 47  1  0  0  0  0
 15 14  1  0  0  0  0
 15 48  1  0  0  0  0
 15 49  1  0  0  0  0
 16 15  1  0  0  0  0
 16 50  1  0  0  0  0
 16 51  1  0  0  0  0
 17 16  1  0  0  0  0
 17 52  1  0  0  0  0
 17 53  1  0  0  0  0
 18 17  1  0  0  0  0
 18 54  1  0  0  0  0
 18 55  1  0  0  0  0
 19 18  1  0  0  0  0
 19 56  1  0  0  0  0
 19 57  1  0  0  0  0
 19 58  1  0  0  0  0
 20 22  1  0  0  0  0
 21 59  1  0  0  0  0
 22 21  1  0  0  0  0
 22 23  1  0  0  0  0
 23 60  1  0  0  0  0
M  END
>  <DRUGBANK_ID>
DB01375

>  <COMMON_NAME>
Aluminium monostearate

>  <CAS_NUMBER>
7047-84-9

>  <UNII>
P9BC99461E

>  <SYNONYMS>
Aluminium, dihydroxide stearate; Aluminum monostearate; Aluminum stearate 300; Dibasic aluminium stearate; Dibasic aluminum stearate; Dihydroxy(stearato)aluminium; Dihydroxy(stearato)aluminum; Dihydroxyaluminum stearate

$$$$
