
 OpenBabel10282417203D

 64 63  0  0  0  0  0  0  0  0999 V2000
    1.0462   -0.0310    0.0181 N   0  0  0  0  0  0  0  0  0  0  0  0
    3.4973   -2.2852   -1.9855 N   0  0  0  0  0  0  0  0  0  0  0  0
    1.4006   -1.2685   -2.0788 C   0  0  0  0  0  0  0  0  0  0  0  0
    0.6752   -1.2337   -0.7537 C   0  0  0  0  0  0  0  0  0  0  0  0
    2.8689   -1.0509   -2.3247 C   0  0  0  0  0  0  0  0  0  0  0  0
    0.5820    1.2860   -0.4805 C   0  0  0  0  0  0  0  0  0  0  0  0
    0.3056    1.1805   -3.1815 C   0  0  0  0  0  0  0  0  0  0  0  0
    0.9911    1.8106   -1.9112 C   0  0  0  0  0  0  0  0  0  0  0  0
   -6.7063    1.1962   -0.8482 C   0  0  0  0  0  0  0  0  0  0  0  0
   -7.9880    1.2045   -0.7891 N   0  0  0  0  0  0  0  0  0  0  0  0
   -6.0783    1.3987   -2.0080 N   0  0  0  0  0  0  0  0  0  0  0  0
   -5.9134    0.9771    0.2045 N   0  0  0  0  0  0  0  0  0  0  0  0
   -6.8412    1.7079   -3.2054 C   0  0  0  0  0  0  0  0  0  0  0  0
   -6.5156    3.0943   -3.6572 C   0  0  0  0  0  0  0  0  0  0  0  0
   -4.8021    2.1860   -5.2406 C   0  0  0  0  0  0  0  0  0  0  0  0
   -5.0690    3.0912   -3.9930 C   0  0  0  0  0  0  0  0  0  0  0  0
   -2.1621    3.8915   -6.4243 N   0  0  0  0  0  0  0  0  0  0  0  0
   -2.2353    3.8105   -4.9870 C   0  0  2  0  0  0  0  0  0  0  0  0
   -1.9895    2.2916   -4.5347 C   0  0  0  0  0  0  0  0  0  0  0  0
   -3.1326    4.0133   -7.3843 C   0  0  0  0  0  0  0  0  0  0  0  0
   -1.8993    1.3511   -5.3037 O   0  0  0  0  0  0  0  0  0  0  0  0
   -2.7131    4.3331   -8.5311 O   0  0  0  0  0  0  0  0  0  0  0  0
   -1.8303    2.1079   -3.1681 N   0  0  0  0  0  0  0  0  0  0  0  0
   -3.2225    4.7164   -4.7141 O   0  0  0  0  0  0  0  0  0  0  0  0
   -4.6968    3.9213   -7.1531 C   0  0  0  0  0  0  0  0  0  0  0  0
   -1.1520    0.8879   -2.8886 C   0  0  0  0  0  0  0  0  0  0  0  0
   -5.2958    2.6004   -6.6167 C   0  0  0  0  0  0  0  0  0  0  0  0
    2.0615   -0.0051    0.0959 H   0  0  0  0  0  0  0  0  0  0  0  0
    4.4972   -2.1330   -1.9314 H   0  0  0  0  0  0  0  0  0  0  0  0
    3.1694   -2.5304   -1.0533 H   0  0  0  0  0  0  0  0  0  0  0  0
    0.8881   -1.8315   -2.8676 H   0  0  0  0  0  0  0  0  0  0  0  0
    1.2187   -0.2721   -2.2477 H   0  0  0  0  0  0  0  0  0  0  0  0
    0.8731   -2.1563   -0.2079 H   0  0  0  0  0  0  0  0  0  0  0  0
   -0.4093   -1.2066   -0.9373 H   0  0  0  0  0  0  0  0  0  0  0  0
    3.0304   -0.7309   -3.3703 H   0  0  0  0  0  0  0  0  0  0  0  0
    3.2524   -0.2173   -1.7182 H   0  0  0  0  0  0  0  0  0  0  0  0
   -0.4998    1.3675   -0.3320 H   0  0  0  0  0  0  0  0  0  0  0  0
    0.9789    2.0188    0.2368 H   0  0  0  0  0  0  0  0  0  0  0  0
    0.5843    1.7739   -4.0603 H   0  0  0  0  0  0  0  0  0  0  0  0
    0.6289    0.2349   -3.6308 H   0  0  0  0  0  0  0  0  0  0  0  0
    0.7523    2.8832   -1.9376 H   0  0  0  0  0  0  0  0  0  0  0  0
    2.0837    1.7714   -2.0043 H   0  0  0  0  0  0  0  0  0  0  0  0
   -8.2979    1.0114    0.1530 H   0  0  0  0  0  0  0  0  0  0  0  0
   -5.0676    1.4003   -2.0482 H   0  0  0  0  0  0  0  0  0  0  0  0
   -6.3281    0.7463    1.0932 H   0  0  0  0  0  0  0  0  0  0  0  0
   -4.9070    0.9539    0.1441 H   0  0  0  0  0  0  0  0  0  0  0  0
   -7.9199    1.6661   -3.0802 H   0  0  0  0  0  0  0  0  0  0  0  0
   -6.6052    0.9691   -3.9697 H   0  0  0  0  0  0  0  0  0  0  0  0
   -6.7230    3.8606   -2.8961 H   0  0  0  0  0  0  0  0  0  0  0  0
   -7.0534    3.4027   -4.5597 H   0  0  0  0  0  0  0  0  0  0  0  0
   -4.9918    1.1300   -5.0075 H   0  0  0  0  0  0  0  0  0  0  0  0
   -3.7819    2.1034   -5.4950 H   0  0  0  0  0  0  0  0  0  0  0  0
   -4.3971    2.8330   -3.1581 H   0  0  0  0  0  0  0  0  0  0  0  0
   -4.9735    4.1697   -4.0329 H   0  0  0  0  0  0  0  0  0  0  0  0
   -1.2120    3.9533   -6.7599 H   0  0  0  0  0  0  0  0  0  0  0  0
   -1.4182    4.3083   -4.4766 H   0  0  0  0  0  0  0  0  0  0  0  0
   -1.5084    2.9119   -2.6454 H   0  0  0  0  0  0  0  0  0  0  0  0
   -3.9158    4.3589   -5.2766 H   0  0  0  0  0  0  0  0  0  0  0  0
   -5.0583    4.7702   -6.5565 H   0  0  0  0  0  0  0  0  0  0  0  0
   -5.1740    4.1136   -8.1255 H   0  0  0  0  0  0  0  0  0  0  0  0
   -1.4968    0.0497   -3.5103 H   0  0  0  0  0  0  0  0  0  0  0  0
   -1.3814    0.5591   -1.8765 H   0  0  0  0  0  0  0  0  0  0  0  0
   -6.3891    2.6115   -6.6062 H   0  0  0  0  0  0  0  0  0  0  0  0
   -5.0037    1.8105   -7.3240 H   0  0  0  0  0  0  0  0  0  0  0  0
  1  6  1  0  0  0  0
  1 28  1  0  0  0  0
  2  5  1  0  0  0  0
  2 29  1  0  0  0  0
  2 30  1  0  0  0  0
  3  4  1  0  0  0  0
  3 31  1  0  0  0  0
  3 32  1  0  0  0  0
  4  1  1  0  0  0  0
  4 33  1  0  0  0  0
  4 34  1  0  0  0  0
  5  3  1  0  0  0  0
  5 35  1  0  0  0  0
  5 36  1  0  0  0  0
  6  8  1  0  0  0  0
  6 37  1  0  0  0  0
  6 38  1  0  0  0  0
  7 39  1  0  0  0  0
  7 40  1  0  0  0  0
  8  7  1  0  0  0  0
  8 41  1  0  0  0  0
  8 42  1  0  0  0  0
  9 11  1  0  0  0  0
 10  9  2  0  0  0  0
 10 43  1  0  0  0  0
 11 13  1  0  0  0  0
 11 44  1  0  0  0  0
 12  9  1  0  0  0  0
 12 45  1  0  0  0  0
 12 46  1  0  0  0  0
 13 14  1  0  0  0  0
 13 47  1  0  0  0  0
 13 48  1  0  0  0  0
 14 16  1  0  0  0  0
 14 49  1  0  0  0  0
 14 50  1  0  0  0  0
 15 51  1  0  0  0  0
 15 52  1  0  0  0  0
 16 15  1  0  0  0  0
 16 53  1  0  0  0  0
 16 54  1  0  0  0  0
 17 55  1  0  0  0  0
 18 17  1  0  0  0  0
 18 24  1  0  0  0  0
 18 56  1  1  0  0  0
 19 18  1  0  0  0  0
 20 17  1  0  0  0  0
 21 19  2  0  0  0  0
 22 20  2  0  0  0  0
 23 19  1  0  0  0  0
 23 57  1  0  0  0  0
 24 58  1  0  0  0  0
 25 20  1  0  0  0  0
 25 59  1  0  0  0  0
 25 60  1  0  0  0  0
 26 23  1  0  0  0  0
 26  7  1  0  0  0  0
 26 61  1  0  0  0  0
 26 62  1  0  0  0  0
 27 25  1  0  0  0  0
 27 15  1  0  0  0  0
 27 63  1  0  0  0  0
 27 64  1  0  0  0  0
M  END
>  <DRUGBANK_ID>
DB12991

>  <COMMON_NAME>
Deoxyspergualin

>  <CAS_NUMBER>
89149-10-0

>  <UNII>
57F9XM233R

>  <SYNONYMS>
(-)-Gusperimus; 15-Desoxyspergualin; Deoxyspergualin

$$$$
