
 OpenBabel10282417173D

  4  3  0  0  0  0  0  0  0  0999 V2000
    0.8548   -0.0364   -0.0079 O   0  0  0  0  0  0  0  0  0  0  0  0
   -0.9214    1.0336    0.5873 O   0  0  0  0  0  0  0  0  0  0  0  0
    0.3115    1.0765    0.6112 N   0  0  0  0  0  0  0  0  0  0  0  0
    1.8049    0.1374    0.0888 H   0  0  0  0  0  0  0  0  0  0  0  0
  1  3  1  0  0  0  0
  1  4  1  0  0  0  0
  2  3  2  0  0  0  0
M  END
>  <DRUGBANK_ID>
DB09112

>  <COMMON_NAME>
Nitrous acid

>  <CAS_NUMBER>
7782-77-6

>  <UNII>
T2I5UM75DN

>  <SYNONYMS>
dioxonitric acid; hydroxidooxidonitrogen; nitrosyl hydroxide

$$$$
