
 OpenBabel10282417203D

 74 78  0  0  0  0  0  0  0  0999 V2000
    1.0051    0.0562   -0.0533 N   0  0  0  0  0  0  0  0  0  0  0  0
    0.3079   -0.8793   -0.8326 C   0  0  0  0  0  0  0  0  0  0  0  0
   -0.6547   -0.4742   -1.4469 O   0  0  0  0  0  0  0  0  0  0  0  0
    0.6504   -2.3856   -0.7410 C   0  0  0  0  0  0  0  0  0  0  0  0
    1.7553   -2.8927   -0.0193 C   0  0  0  0  0  0  0  0  0  0  0  0
    2.0225   -4.3005    0.2189 C   0  0  0  0  0  0  0  0  0  0  0  0
    3.1707   -4.5276    0.9985 N   0  0  0  0  0  0  0  0  0  0  0  0
    3.7121   -5.8509    1.2175 C   0  0  1  0  0  0  0  0  0  0  0  0
    5.0468   -6.1373    0.5719 C   0  0  0  0  0  0  0  0  0  0  0  0
    6.1455   -5.3874    1.2545 C   0  0  0  0  0  0  0  0  0  0  0  0
    3.5357   -6.3593    2.6382 C   0  0  0  0  0  0  0  0  0  0  0  0
    1.1468   -5.2746   -0.3720 C   0  0  0  0  0  0  0  0  0  0  0  0
    0.0700   -4.7453   -1.1133 C   0  0  0  0  0  0  0  0  0  0  0  0
   -0.2159   -3.3539   -1.2806 C   0  0  0  0  0  0  0  0  0  0  0  0
   -1.4830   -3.0733   -2.0519 C   0  0  0  0  0  0  0  0  0  0  0  0
    1.1902   -6.8555   -0.3125 C   0  0  0  0  0  0  0  0  0  0  0  0
    0.4449   -7.6042   -1.1785 N   0  0  0  0  0  0  0  0  0  0  0  0
    1.7902   -7.6248    0.4369 O   0  0  0  0  0  0  0  0  0  0  0  0
    0.1839    1.0443    0.7008 C   0  0  1  0  0  0  0  0  0  0  0  0
   -0.8753    0.2786    1.5482 C   0  0  0  0  0  0  0  0  0  0  0  0
   -0.2917   -0.2451    2.8856 C   0  0  2  0  0  0  0  0  0  0  0  0
    0.0928    0.9475    3.5925 N   0  0  0  0  0  0  0  0  0  0  0  0
    1.3196    1.4485    2.9967 C   0  0  2  0  0  0  0  0  0  0  0  0
    0.9528    2.0443    1.6193 C   0  0  0  0  0  0  0  0  0  0  0  0
    2.1305    0.1593    2.8030 C   0  0  0  0  0  0  0  0  0  0  0  0
    1.0627   -0.9482    2.7435 C   0  0  0  0  0  0  0  0  0  0  0  0
   -0.5180    1.3626    4.7320 C   0  0  0  0  0  0  0  0  0  0  0  0
   -0.9690    2.6717    4.8128 C   0  0  0  0  0  0  0  0  0  0  0  0
   -1.6755    3.1088    5.9288 C   0  0  0  0  0  0  0  0  0  0  0  0
   -1.9007    2.2458    6.9838 C   0  0  0  0  0  0  0  0  0  0  0  0
   -1.4162    0.9468    6.8375 C   0  0  0  0  0  0  0  0  0  0  0  0
   -0.7573    0.4895    5.7321 N   0  0  0  0  0  0  0  0  0  0  0  0
   -2.6368    2.6241    8.2092 C   0  0  0  0  0  0  0  0  0  0  0  0
   -2.7993    1.7572    9.0633 O   0  0  0  0  0  0  0  0  0  0  0  0
   -3.2524    3.9588    8.4914 C   0  0  0  0  0  0  0  0  0  0  0  0
   -4.3210    4.4317    7.5104 C   0  0  0  0  0  0  0  0  0  0  0  0
   -3.2050    5.3426    7.9072 C   0  0  0  0  0  0  0  0  0  0  0  0
    1.9907   -0.0502    0.1156 H   0  0  0  0  0  0  0  0  0  0  0  0
    2.4468   -2.1822    0.4316 H   0  0  0  0  0  0  0  0  0  0  0  0
    3.6663   -3.7487    1.4177 H   0  0  0  0  0  0  0  0  0  0  0  0
    3.1756   -6.4592    0.5655 H   0  0  0  0  0  0  0  0  0  0  0  0
    5.2270   -7.2229    0.6206 H   0  0  0  0  0  0  0  0  0  0  0  0
    4.9983   -5.8922   -0.4987 H   0  0  0  0  0  0  0  0  0  0  0  0
    6.1994   -5.6809    2.3052 H   0  0  0  0  0  0  0  0  0  0  0  0
    7.0993   -5.6072    0.7766 H   0  0  0  0  0  0  0  0  0  0  0  0
    5.9430   -4.3161    1.1956 H   0  0  0  0  0  0  0  0  0  0  0  0
    2.5052   -6.2349    2.9890 H   0  0  0  0  0  0  0  0  0  0  0  0
    3.7668   -7.4312    2.6805 H   0  0  0  0  0  0  0  0  0  0  0  0
    4.1916   -5.8468    3.3467 H   0  0  0  0  0  0  0  0  0  0  0  0
   -0.6268   -5.4247   -1.5926 H   0  0  0  0  0  0  0  0  0  0  0  0
   -1.3704   -3.4422   -3.0752 H   0  0  0  0  0  0  0  0  0  0  0  0
   -2.3306   -3.5757   -1.5720 H   0  0  0  0  0  0  0  0  0  0  0  0
   -1.7808   -2.0361   -2.1337 H   0  0  0  0  0  0  0  0  0  0  0  0
    0.5713   -8.5919   -0.9719 H   0  0  0  0  0  0  0  0  0  0  0  0
   -0.4092   -7.3305   -1.6249 H   0  0  0  0  0  0  0  0  0  0  0  0
   -0.3227    1.6484   -0.0649 H   0  0  0  0  0  0  0  0  0  0  0  0
   -1.7115    0.9619    1.7540 H   0  0  0  0  0  0  0  0  0  0  0  0
   -1.3082   -0.5598    0.9964 H   0  0  0  0  0  0  0  0  0  0  0  0
   -1.0250   -0.8850    3.3859 H   0  0  0  0  0  0  0  0  0  0  0  0
    1.8508    2.1710    3.6256 H   0  0  0  0  0  0  0  0  0  0  0  0
    1.8401    2.4489    1.1219 H   0  0  0  0  0  0  0  0  0  0  0  0
    0.2846    2.8982    1.8131 H   0  0  0  0  0  0  0  0  0  0  0  0
    2.7738    0.2044    1.9177 H   0  0  0  0  0  0  0  0  0  0  0  0
    2.8001   -0.0229    3.6486 H   0  0  0  0  0  0  0  0  0  0  0  0
    1.0875   -1.5143    1.8294 H   0  0  0  0  0  0  0  0  0  0  0  0
    1.2370   -1.6709    3.5444 H   0  0  0  0  0  0  0  0  0  0  0  0
   -0.8349    3.3436    3.9738 H   0  0  0  0  0  0  0  0  0  0  0  0
   -2.0497    4.1178    5.9187 H   0  0  0  0  0  0  0  0  0  0  0  0
   -1.5474    0.1997    7.6204 H   0  0  0  0  0  0  0  0  0  0  0  0
   -3.3970    4.0510    9.5675 H   0  0  0  0  0  0  0  0  0  0  0  0
   -4.3239    4.1059    6.4746 H   0  0  0  0  0  0  0  0  0  0  0  0
   -5.3202    4.5726    7.9041 H   0  0  0  0  0  0  0  0  0  0  0  0
   -3.4965    6.1714    8.5546 H   0  0  0  0  0  0  0  0  0  0  0  0
   -2.4384    5.6471    7.2126 H   0  0  0  0  0  0  0  0  0  0  0  0
  1  2  1  0  0  0  0
  1 38  1  0  0  0  0
  2  3  2  0  0  0  0
  2  4  1  0  0  0  0
  4  5  2  0  0  0  0
  4 14  1  0  0  0  0
  5  6  1  0  0  0  0
  5 39  1  0  0  0  0
  6  7  1  0  0  0  0
  6 12  2  0  0  0  0
  7  8  1  0  0  0  0
  7 40  1  0  0  0  0
  8  9  1  0  0  0  0
  8 11  1  0  0  0  0
  8 41  1  6  0  0  0
  9 10  1  0  0  0  0
  9 42  1  0  0  0  0
  9 43  1  0  0  0  0
 10 44  1  0  0  0  0
 10 45  1  0  0  0  0
 10 46  1  0  0  0  0
 11 47  1  0  0  0  0
 11 48  1  0  0  0  0
 11 49  1  0  0  0  0
 12 16  1  0  0  0  0
 13 12  1  0  0  0  0
 13 50  1  0  0  0  0
 14 13  2  0  0  0  0
 14 15  1  0  0  0  0
 15 51  1  0  0  0  0
 15 52  1  0  0  0  0
 15 53  1  0  0  0  0
 16 17  1  0  0  0  0
 16 18  2  0  0  0  0
 17 54  1  0  0  0  0
 17 55  1  0  0  0  0
 19  1  1  0  0  0  0
 19 20  1  0  0  0  0
 19 24  1  0  0  0  0
 19 56  1  6  0  0  0
 20 21  1  0  0  0  0
 20 57  1  0  0  0  0
 20 58  1  0  0  0  0
 21 22  1  0  0  0  0
 21 26  1  0  0  0  0
 21 59  1  1  0  0  0
 22 27  1  0  0  0  0
 23 22  1  0  0  0  0
 23 25  1  0  0  0  0
 23 60  1  1  0  0  0
 24 23  1  0  0  0  0
 24 61  1  0  0  0  0
 24 62  1  0  0  0  0
 25 63  1  0  0  0  0
 25 64  1  0  0  0  0
 26 25  1  0  0  0  0
 26 65  1  0  0  0  0
 26 66  1  0  0  0  0
 27 28  2  0  0  0  0
 27 32  1  0  0  0  0
 28 29  1  0  0  0  0
 28 67  1  0  0  0  0
 29 30  2  0  0  0  0
 29 68  1  0  0  0  0
 30 33  1  0  0  0  0
 31 30  1  0  0  0  0
 31 69  1  0  0  0  0
 32 31  2  0  0  0  0
 33 34  2  0  0  0  0
 33 35  1  0  0  0  0
 35 36  1  0  0  0  0
 35 37  1  0  0  0  0
 35 70  1  0  0  0  0
 36 37  1  0  0  0  0
 36 71  1  0  0  0  0
 36 72  1  0  0  0  0
 37 73  1  0  0  0  0
 37 74  1  0  0  0  0
M  END
>  <DRUGBANK_ID>
DB12981

>  <COMMON_NAME>
XL-888

>  <CAS_NUMBER>
1149705-71-4

>  <UNII>
7M346920EV

>  <SYNONYMS>
EXEL-4888; XL888

$$$$
