
 OpenBabel10282417133D

 34 33  0  0  1  0  0  0  0  0999 V2000
    5.5977    1.6388   -0.3231 C   0  0  0  0  0  0  0  0  0  0  0  0
    5.6611    2.1711   -1.7618 C   0  0  0  0  0  0  0  0  0  0  0  0
    1.7459   -2.8991   -4.1496 C   0  0  0  0  0  0  0  0  0  0  0  0
    2.9441    1.3761   -2.1601 C   0  0  0  0  0  0  0  0  0  0  0  0
    5.2176    2.7432    0.6626 C   0  0  1  0  0  0  0  0  0  0  0  0
    1.5810   -1.5564   -3.4528 C   0  0  0  0  0  0  0  0  0  0  0  0
    3.3063    0.1498   -3.0173 C   0  0  2  0  0  0  0  0  0  0  0  0
    2.6947   -1.1591   -2.5058 C   0  0  1  0  0  0  0  0  0  0  0  0
    5.1825    2.2301    2.1004 C   0  0  0  0  0  0  0  0  0  0  0  0
    6.2025    3.8377    0.5288 N   0  0  0  0  0  0  0  0  0  0  0  0
    0.7037   -3.7969   -3.8254 O   0  0  0  0  0  0  0  0  0  0  0  0
    0.5939   -0.8399   -3.6219 O   0  0  0  0  0  0  0  0  0  0  0  0
    4.7105   -0.1314   -3.0712 O   0  0  0  0  0  0  0  0  0  0  0  0
    2.2798   -1.0898   -1.1501 O   0  0  0  0  0  0  0  0  0  0  0  0
    5.8367    2.6674    3.0400 O   0  0  0  0  0  0  0  0  0  0  0  0
    4.2985    1.2315    2.2917 O   0  0  0  0  0  0  0  0  0  0  0  0
    4.0624    2.8036   -2.4254 S   0  0  0  0  0  0  0  0  0  0  0  0
    4.2202    3.1388    0.4432 H   0  0  0  0  0  0  0  0  0  0  0  0
    3.0178    0.3568   -4.0554 H   0  0  0  0  0  0  0  0  0  0  0  0
    3.4630   -1.9429   -2.5435 H   0  0  0  0  0  0  0  0  0  0  0  0
    6.5781    1.2192   -0.0530 H   0  0  0  0  0  0  0  0  0  0  0  0
    4.9086    0.7891   -0.2334 H   0  0  0  0  0  0  0  0  0  0  0  0
    6.3764    2.9946   -1.8299 H   0  0  0  0  0  0  0  0  0  0  0  0
    6.1009    1.4292   -2.4295 H   0  0  0  0  0  0  0  0  0  0  0  0
    1.7606   -2.7228   -5.2291 H   0  0  0  0  0  0  0  0  0  0  0  0
    2.6968   -3.3701   -3.8825 H   0  0  0  0  0  0  0  0  0  0  0  0
    2.9198    1.1633   -1.0874 H   0  0  0  0  0  0  0  0  0  0  0  0
    1.9229    1.6943   -2.4120 H   0  0  0  0  0  0  0  0  0  0  0  0
    5.9495    4.5913    1.1657 H   0  0  0  0  0  0  0  0  0  0  0  0
    7.1157    3.5048    0.8393 H   0  0  0  0  0  0  0  0  0  0  0  0
    0.6353   -3.8334   -2.8553 H   0  0  0  0  0  0  0  0  0  0  0  0
    5.0104   -0.2059   -2.1507 H   0  0  0  0  0  0  0  0  0  0  0  0
    2.8552   -1.6632   -0.6157 H   0  0  0  0  0  0  0  0  0  0  0  0
    4.3372    1.0541    3.2561 H   0  0  0  0  0  0  0  0  0  0  0  0
  1 21  1  0  0  0  0
  1 22  1  0  0  0  0
  2  1  1  0  0  0  0
  2 23  1  0  0  0  0
  2 24  1  0  0  0  0
  3 25  1  0  0  0  0
  3 26  1  0  0  0  0
  4 27  1  0  0  0  0
  4 28  1  0  0  0  0
  5  1  1  0  0  0  0
  5 10  1  0  0  0  0
  5 18  1  6  0  0  0
  6  3  1  0  0  0  0
  7 13  1  0  0  0  0
  7 19  1  6  0  0  0
  7  8  1  0  0  0  0
  7  4  1  0  0  0  0
  8 20  1  6  0  0  0
  8 14  1  0  0  0  0
  8  6  1  0  0  0  0
  9  5  1  0  0  0  0
 10 29  1  0  0  0  0
 10 30  1  0  0  0  0
 11  3  1  0  0  0  0
 11 31  1  0  0  0  0
 12  6  2  0  0  0  0
 13 32  1  0  0  0  0
 14 33  1  0  0  0  0
 15  9  2  0  0  0  0
 16  9  1  0  0  0  0
 16 34  1  0  0  0  0
 17  2  1  0  0  0  0
 17  4  1  0  0  0  0
M  END
>  <DRUGBANK_ID>
DB04182

>  <SECONDARY_ACCESSION_NUMBERS>
EXPT01982

>  <COMMON_NAME>
(S)-2-Amino-4-[(2s,3r)-2,3,5-Trihydroxy-4-Oxo-Pentyl]Mercapto-Butyric Acid

$$$$
