
 OpenBabel10282417203D

 62 65  0  0  0  0  0  0  0  0999 V2000
    0.9507   -0.3491   -0.0697 C   0  0  0  0  0  0  0  0  0  0  0  0
    0.4737   -1.5334   -0.8827 C   0  0  0  0  0  0  0  0  0  0  0  0
   -0.2795   -1.4131   -1.9995 C   0  0  0  0  0  0  0  0  0  0  0  0
   -0.4144   -2.7794   -2.5716 C   0  0  0  0  0  0  0  0  0  0  0  0
   -0.9115   -3.0276   -3.6436 O   0  0  0  0  0  0  0  0  0  0  0  0
    0.1535   -3.6693   -1.6660 N   0  0  0  0  0  0  0  0  0  0  0  0
    0.7444   -2.8951   -0.6069 N   0  0  0  0  0  0  0  0  0  0  0  0
    1.5571   -3.4854    0.4463 C   0  0  0  0  0  0  0  0  0  0  0  0
    0.3057   -5.0503   -1.9775 C   0  0  0  0  0  0  0  0  0  0  0  0
    0.7486   -5.4617   -3.2560 C   0  0  0  0  0  0  0  0  0  0  0  0
    0.8041   -6.8170   -3.6285 C   0  0  0  0  0  0  0  0  0  0  0  0
    0.3696   -7.7939   -2.7431 C   0  0  0  0  0  0  0  0  0  0  0  0
   -0.1449   -7.4052   -1.5062 C   0  0  0  0  0  0  0  0  0  0  0  0
   -0.2140   -6.0437   -1.1432 C   0  0  0  0  0  0  0  0  0  0  0  0
   -0.9245   -0.2724   -2.7189 C   0  0  3  0  0  0  0  0  0  0  0  0
   -0.2999   -0.1244   -4.0783 N   0  0  0  0  0  0  0  0  0  0  0  0
   -1.0250   -0.1249   -5.2471 C   0  0  0  0  0  0  0  0  0  0  0  0
   -2.1834    0.5960   -5.2908 C   0  0  0  0  0  0  0  0  0  0  0  0
   -3.1579    0.2808   -6.2110 C   0  0  0  0  0  0  0  0  0  0  0  0
   -2.8454   -0.2526   -7.4288 C   0  0  0  0  0  0  0  0  0  0  0  0
   -1.5851   -0.8431   -7.5300 C   0  0  0  0  0  0  0  0  0  0  0  0
   -0.7466   -0.8976   -6.3791 C   0  0  0  0  0  0  0  0  0  0  0  0
   -3.9904   -0.1440   -8.7969 S   0  0  0  0  0  0  0  0  0  0  0  0
   -3.2763    0.5238   -9.8681 O   0  0  0  0  0  0  0  0  0  0  0  0
   -4.4961   -1.4869   -8.9951 O   0  0  0  0  0  0  0  0  0  0  0  0
   -5.3407    0.8529   -8.5214 N   0  0  0  0  0  0  0  0  0  0  0  0
   -5.5913    1.6042   -7.3486 C   0  0  0  0  0  0  0  0  0  0  0  0
   -4.6789    2.5269   -6.8766 C   0  0  0  0  0  0  0  0  0  0  0  0
   -4.7537    2.9326   -5.5326 C   0  0  0  0  0  0  0  0  0  0  0  0
   -5.8251    2.5482   -4.7464 C   0  0  0  0  0  0  0  0  0  0  0  0
   -6.7761    1.7508   -5.2810 N   0  0  0  0  0  0  0  0  0  0  0  0
   -6.6417    1.2406   -6.5888 N   0  0  0  0  0  0  0  0  0  0  0  0
   -5.9891    2.8768   -3.4262 O   0  0  0  0  0  0  0  0  0  0  0  0
   -4.9354    3.6238   -2.8176 C   0  0  0  0  0  0  0  0  0  0  0  0
   -2.8450   -0.5446   -2.4304 S   0  0  0  0  0  0  0  0  0  0  0  0
   -3.1115   -1.0065   -1.0890 O   0  0  0  0  0  0  0  0  0  0  0  0
   -3.6321    0.5789   -2.9152 O   0  0  0  0  0  0  0  0  0  0  0  0
   -3.1632   -1.7687   -3.4288 O   0  0  0  0  0  0  0  0  0  0  0  0
    0.5757   -0.3478    0.9587 H   0  0  0  0  0  0  0  0  0  0  0  0
    0.6135    0.6017   -0.5081 H   0  0  0  0  0  0  0  0  0  0  0  0
    2.0443   -0.2776   -0.0470 H   0  0  0  0  0  0  0  0  0  0  0  0
    0.9869   -4.2160    1.0313 H   0  0  0  0  0  0  0  0  0  0  0  0
    2.4491   -3.9860    0.0513 H   0  0  0  0  0  0  0  0  0  0  0  0
    1.9127   -2.7309    1.1625 H   0  0  0  0  0  0  0  0  0  0  0  0
    1.0460   -4.7266   -4.0019 H   0  0  0  0  0  0  0  0  0  0  0  0
    1.1828   -7.1063   -4.6079 H   0  0  0  0  0  0  0  0  0  0  0  0
    0.4038   -8.8456   -3.0250 H   0  0  0  0  0  0  0  0  0  0  0  0
   -0.5102   -8.1708   -0.8256 H   0  0  0  0  0  0  0  0  0  0  0  0
   -0.7765   -5.7713   -0.2549 H   0  0  0  0  0  0  0  0  0  0  0  0
   -0.7541    0.6740   -2.1897 H   0  0  0  0  0  0  0  0  0  0  0  0
    0.7077   -0.1701   -4.1395 H   0  0  0  0  0  0  0  0  0  0  0  0
   -2.4019    1.3260   -4.5244 H   0  0  0  0  0  0  0  0  0  0  0  0
   -4.1653    0.4852   -5.9161 H   0  0  0  0  0  0  0  0  0  0  0  0
   -1.2714   -1.3252   -8.4527 H   0  0  0  0  0  0  0  0  0  0  0  0
    0.1016   -1.5777   -6.3741 H   0  0  0  0  0  0  0  0  0  0  0  0
   -6.1765    0.5417   -9.0138 H   0  0  0  0  0  0  0  0  0  0  0  0
   -3.7780    2.7309   -7.4456 H   0  0  0  0  0  0  0  0  0  0  0  0
   -3.8826    3.4110   -5.1009 H   0  0  0  0  0  0  0  0  0  0  0  0
   -4.0244    3.0251   -2.7189 H   0  0  0  0  0  0  0  0  0  0  0  0
   -4.7207    4.5465   -3.3679 H   0  0  0  0  0  0  0  0  0  0  0  0
   -5.2439    3.9144   -1.8081 H   0  0  0  0  0  0  0  0  0  0  0  0
   -4.1178   -1.8576   -3.6090 H   0  0  0  0  0  0  0  0  0  0  0  0
  1  2  1  0  0  0  0
  1 39  1  0  0  0  0
  1 40  1  0  0  0  0
  1 41  1  0  0  0  0
  2  3  2  0  0  0  0
  2  7  1  0  0  0  0
  3  4  1  0  0  0  0
  3 15  1  0  0  0  0
  4  5  2  0  0  0  0
  4  6  1  0  0  0  0
  6  7  1  0  0  0  0
  6  9  1  0  0  0  0
  7  8  1  0  0  0  0
  8 42  1  0  0  0  0
  8 43  1  0  0  0  0
  8 44  1  0  0  0  0
  9 10  2  0  0  0  0
  9 14  1  0  0  0  0
 10 11  1  0  0  0  0
 10 45  1  0  0  0  0
 11 12  2  0  0  0  0
 11 46  1  0  0  0  0
 12 13  1  0  0  0  0
 12 47  1  0  0  0  0
 13 14  2  0  0  0  0
 13 48  1  0  0  0  0
 14 49  1  0  0  0  0
 15 16  1  0  0  0  0
 15 35  1  0  0  0  0
 15 50  1  0  0  0  0
 16 17  1  0  0  0  0
 16 51  1  0  0  0  0
 17 18  2  0  0  0  0
 17 22  1  0  0  0  0
 18 19  1  0  0  0  0
 18 52  1  0  0  0  0
 19 20  2  0  0  0  0
 19 53  1  0  0  0  0
 20 21  1  0  0  0  0
 20 23  1  0  0  0  0
 21 22  2  0  0  0  0
 21 54  1  0  0  0  0
 22 55  1  0  0  0  0
 23 24  2  0  0  0  0
 23 25  2  0  0  0  0
 23 26  1  0  0  0  0
 26 27  1  0  0  0  0
 26 56  1  0  0  0  0
 27 28  2  0  0  0  0
 27 32  1  0  0  0  0
 28 29  1  0  0  0  0
 28 57  1  0  0  0  0
 29 30  2  0  0  0  0
 29 58  1  0  0  0  0
 30 31  1  0  0  0  0
 30 33  1  0  0  0  0
 31 32  2  0  0  0  0
 33 34  1  0  0  0  0
 34 59  1  0  0  0  0
 34 60  1  0  0  0  0
 34 61  1  0  0  0  0
 35 36  2  0  0  0  0
 35 37  2  0  0  0  0
 35 38  1  0  0  0  0
 38 62  1  0  0  0  0
M  END
>  <DRUGBANK_ID>
DB13556

>  <COMMON_NAME>
Sulfamazone

>  <CAS_NUMBER>
65761-24-2

>  <UNII>
D7B8U8VA9J

>  <SYNONYMS>
Sulfamazone

$$$$
