
 OpenBabel10282417133D

 97102  0  0  0  0  0  0  0  0999 V2000
    0.9641    0.0205   -0.0911 P   0  0  3  0  0  0  0  0  0  0  0  0
    2.5952    0.9370   -2.2078 P   0  0  3  0  0  0  0  0  0  0  0  0
   -1.6285    0.3194    2.1449 O   0  0  0  0  0  0  0  0  0  0  0  0
   -2.6366   -2.3663   -0.3945 O   0  0  0  0  0  0  0  0  0  0  0  0
   -1.6229   -2.8611    2.3377 O   0  0  0  0  0  0  0  0  0  0  0  0
    0.7754    1.0318    1.1507 O   0  0  0  0  0  0  0  0  0  0  0  0
    3.6684    1.5590   -7.1280 O   0  0  0  0  0  0  0  0  0  0  0  0
    2.3912    4.6869   -5.5395 O   0  0  0  0  0  0  0  0  0  0  0  0
    0.9641    0.7079   -1.6786 O   0  0  0  0  0  0  0  0  0  0  0  0
    2.4665    2.5027   -2.1525 O   0  0  0  0  0  0  0  0  0  0  0  0
    3.0420    1.2552   -4.7569 O   0  0  0  0  0  0  0  0  0  0  0  0
   -0.7659    0.0205   -0.0911 O   0  0  0  0  0  0  0  0  0  0  0  0
    2.5125    0.0205   -0.0911 O   0  0  0  0  0  0  0  0  0  0  0  0
    2.8515   10.1799   -8.2131 O   0  0  0  0  0  0  0  0  0  0  0  0
    4.9125    9.1937   -8.7849 O   0  5  0  0  0  0  0  0  0  0  0  0
    3.0116   -0.5961   -2.0712 O   0  0  0  0  0  0  0  0  0  0  0  0
    4.0550    1.1421   -2.6815 O   0  0  0  0  0  0  0  0  0  0  0  0
    7.2320    5.4681   -9.4010 O   0  0  0  0  0  0  0  0  0  0  0  0
   -2.6894    1.3824   -0.3799 N   0  3  0  0  0  0  0  0  0  0  0  0
    2.7396    4.9356   -8.3697 N   0  0  0  0  0  0  0  0  0  0  0  0
    2.3513    7.7873   -8.1378 N   0  0  0  0  0  0  0  0  0  0  0  0
   -1.8868    3.5446    0.3310 N   0  0  0  0  0  0  0  0  0  0  0  0
   -2.4323    3.4002   -2.4781 N   0  0  0  0  0  0  0  0  0  0  0  0
    5.0640    5.3576   -8.8502 N   0  0  0  0  0  0  0  0  0  0  0  0
   -0.7598    5.2004   -2.4045 N   0  0  0  0  0  0  0  0  0  0  0  0
    6.1092    7.3997   -9.0971 N   0  0  0  0  0  0  0  0  0  0  0  0
    1.0890    4.5877   -1.2428 N   0  0  0  0  0  0  0  0  0  0  0  0
   -1.7754   -1.5791    0.3616 C   0  0  2  0  0  0  0  0  0  0  0  0
   -0.8409   -1.9616    1.5817 C   0  0  1  0  0  0  0  0  0  0  0  0
   -2.4563    0.0174    0.8552 C   0  0  1  0  0  0  0  0  0  0  0  0
   -0.5309   -0.6699    2.4540 C   0  0  1  0  0  0  0  0  0  0  0  0
    0.8179    0.1988    2.3608 C   0  0  0  0  0  0  0  0  0  0  0  0
   -1.8077    2.6023   -1.5852 C   0  0  0  0  0  0  0  0  0  0  0  0
   -2.9079    2.4948    0.2567 C   0  0  0  0  0  0  0  0  0  0  0  0
    2.9460    3.4818   -8.3230 C   0  0  0  0  0  0  0  0  0  0  0  0
    3.4555    2.9770   -6.9696 C   0  0  1  0  0  0  0  0  0  0  0  0
   -1.0647    3.4787   -0.7009 C   0  0  0  0  0  0  0  0  0  0  0  0
    1.4546    5.4188   -8.0116 C   0  0  0  0  0  0  0  0  0  0  0  0
    2.4759    3.2945   -5.8193 C   0  0  1  0  0  0  0  0  0  0  0  0
    1.2742    6.7875   -7.8818 C   0  0  0  0  0  0  0  0  0  0  0  0
    3.8106    5.8635   -8.5604 C   0  0  0  0  0  0  0  0  0  0  0  0
    3.6505    7.2277   -8.4824 C   0  0  0  0  0  0  0  0  0  0  0  0
    2.9664    2.6688   -4.5460 C   0  0  1  0  0  0  0  0  0  0  0  0
    0.3156    4.5701   -7.7005 C   0  0  0  0  0  0  0  0  0  0  0  0
   -0.0188    7.1162   -7.4779 C   0  0  0  0  0  0  0  0  0  0  0  0
   -0.9499    5.0393   -7.2624 C   0  0  0  0  0  0  0  0  0  0  0  0
    1.9938    2.9824   -3.4164 C   0  0  0  0  0  0  0  0  0  0  0  0
   -1.1320    6.3745   -7.1727 C   0  0  0  0  0  0  0  0  0  0  0  0
    2.1159    9.2065   -8.0443 C   0  0  0  0  0  0  0  0  0  0  0  0
   -0.1736    4.4693   -1.4292 C   0  0  0  0  0  0  0  0  0  0  0  0
    0.7682    9.7761   -7.6800 C   0  0  0  0  0  0  0  0  0  0  0  0
    4.9813    7.9770   -8.8069 C   0  0  0  0  0  0  0  0  0  0  0  0
   -1.9491    4.7658   -2.7180 C   0  0  0  0  0  0  0  0  0  0  0  0
   -2.1103    4.1823   -6.9221 C   0  0  0  0  0  0  0  0  0  0  0  0
   -2.3735    7.1587   -6.8302 C   0  0  0  0  0  0  0  0  0  0  0  0
    6.1806    6.0752   -9.1267 C   0  0  0  0  0  0  0  0  0  0  0  0
   -0.2293    9.5352   -8.8668 C   0  0  0  0  0  0  0  0  0  0  0  0
    0.5045    9.5308   -6.1503 C   0  0  0  0  0  0  0  0  0  0  0  0
   -3.5002   -2.3663    0.0154 H   0  0  0  0  0  0  0  0  0  0  0  0
   -2.5035   -2.4575    2.3905 H   0  0  0  0  0  0  0  0  0  0  0  0
    3.8457    1.1956   -6.2350 H   0  0  0  0  0  0  0  0  0  0  0  0
    1.4936    4.9263   -5.2553 H   0  0  0  0  0  0  0  0  0  0  0  0
    3.8229    0.9888   -4.2005 H   0  0  0  0  0  0  0  0  0  0  0  0
   -0.6572    0.7200    0.6320 H   0  0  0  0  0  0  0  0  0  0  0  0
    3.2405   -0.7472   -1.1233 H   0  0  0  0  0  0  0  0  0  0  0  0
    5.2372    4.3754   -8.9087 H   0  0  0  0  0  0  0  0  0  0  0  0
    1.5076    5.2473   -1.9371 H   0  0  0  0  0  0  0  0  0  0  0  0
   -0.9408   -1.7011   -0.3807 H   0  0  0  0  0  0  0  0  0  0  0  0
    0.1127   -2.4634    1.3060 H   0  0  0  0  0  0  0  0  0  0  0  0
   -3.4645   -0.1055    1.2333 H   0  0  0  0  0  0  0  0  0  0  0  0
   -0.5381   -0.9987    3.5117 H   0  0  0  0  0  0  0  0  0  0  0  0
    1.7553   -0.3898    2.3985 H   0  0  0  0  0  0  0  0  0  0  0  0
    0.8865    0.9007    3.2055 H   0  0  0  0  0  0  0  0  0  0  0  0
   -3.9938    2.6319    0.3726 H   0  0  0  0  0  0  0  0  0  0  0  0
    3.6516    3.1614   -9.0985 H   0  0  0  0  0  0  0  0  0  0  0  0
    2.0525    2.9139   -8.6057 H   0  0  0  0  0  0  0  0  0  0  0  0
    4.4275    3.4225   -6.7352 H   0  0  0  0  0  0  0  0  0  0  0  0
    1.4916    2.8592   -6.0396 H   0  0  0  0  0  0  0  0  0  0  0  0
    3.9523    3.0751   -4.2848 H   0  0  0  0  0  0  0  0  0  0  0  0
    0.3993    3.4923   -7.7512 H   0  0  0  0  0  0  0  0  0  0  0  0
   -0.3502    8.1017   -7.3671 H   0  0  0  0  0  0  0  0  0  0  0  0
    1.0051    2.5423   -3.6129 H   0  0  0  0  0  0  0  0  0  0  0  0
    1.8797    4.0574   -3.3754 H   0  0  0  0  0  0  0  0  0  0  0  0
    0.8576   10.8712   -7.7022 H   0  0  0  0  0  0  0  0  0  0  0  0
   -2.5818    5.5870   -3.1591 H   0  0  0  0  0  0  0  0  0  0  0  0
   -2.4414    4.4210   -5.9025 H   0  0  0  0  0  0  0  0  0  0  0  0
   -2.9249    4.4097   -7.6187 H   0  0  0  0  0  0  0  0  0  0  0  0
   -1.8561    3.1287   -6.9770 H   0  0  0  0  0  0  0  0  0  0  0  0
   -2.1894    7.8109   -5.9644 H   0  0  0  0  0  0  0  0  0  0  0  0
   -2.6509    7.8106   -7.6717 H   0  0  0  0  0  0  0  0  0  0  0  0
   -3.2304    6.5314   -6.6002 H   0  0  0  0  0  0  0  0  0  0  0  0
   -0.3322    8.5053   -9.2369 H   0  0  0  0  0  0  0  0  0  0  0  0
   -1.2303    9.8778   -8.5997 H   0  0  0  0  0  0  0  0  0  0  0  0
    0.1238   10.0229   -9.7794 H   0  0  0  0  0  0  0  0  0  0  0  0
    1.2666   10.0185   -5.5366 H   0  0  0  0  0  0  0  0  0  0  0  0
   -0.4958    9.8718   -5.8769 H   0  0  0  0  0  0  0  0  0  0  0  0
    0.6044    8.4988   -5.7824 H   0  0  0  0  0  0  0  0  0  0  0  0
  1  6  1  0  0  0  0
  1  9  1  0  0  0  0
  1 12  1  0  0  0  0
  1 13  2  0  0  0  0
  2  9  1  0  0  0  0
  2 10  1  0  0  0  0
  2 16  1  0  0  0  0
  2 17  2  0  0  0  0
  3 30  1  0  0  0  0
  3 31  1  0  0  0  0
  4 59  1  0  0  0  0
  5 60  1  0  0  0  0
  6 32  1  0  0  0  0
  7 61  1  0  0  0  0
  8 62  1  0  0  0  0
 10 47  1  0  0  0  0
 11 63  1  0  0  0  0
 12 64  1  0  0  0  0
 14 49  2  0  0  0  0
 15 52  1  0  0  0  0
 16 65  1  0  0  0  0
 18 56  2  0  0  0  0
 19 33  1  0  0  0  0
 19 34  2  0  0  0  0
 20 35  1  0  0  0  0
 20 38  1  0  0  0  0
 20 41  1  0  0  0  0
 21 40  1  0  0  0  0
 21 42  1  0  0  0  0
 21 49  1  0  0  0  0
 22 34  1  0  0  0  0
 22 37  2  0  0  0  0
 23 33  2  0  0  0  0
 23 53  1  0  0  0  0
 24 41  1  0  0  0  0
 24 56  1  0  0  0  0
 24 66  1  0  0  0  0
 25 50  1  0  0  0  0
 25 53  2  0  0  0  0
 26 52  2  0  0  0  0
 26 56  1  0  0  0  0
 27 50  2  0  0  0  0
 27 67  1  0  0  0  0
 28  4  1  0  0  0  0
 28 29  1  0  0  0  0
 28 30  1  0  0  0  0
 28 68  1  6  0  0  0
 29  5  1  0  0  0  0
 29 31  1  0  0  0  0
 29 69  1  6  0  0  0
 30 70  1  1  0  0  0
 30 19  1  0  0  0  0
 31 32  1  0  0  0  0
 31 71  1  1  0  0  0
 32 72  1  0  0  0  0
 32 73  1  0  0  0  0
 33 37  1  0  0  0  0
 34 74  1  0  0  0  0
 35 36  1  0  0  0  0
 35 75  1  0  0  0  0
 35 76  1  0  0  0  0
 36  7  1  0  0  0  0
 36 39  1  0  0  0  0
 36 77  1  1  0  0  0
 37 50  1  0  0  0  0
 38 40  2  0  0  0  0
 38 44  1  0  0  0  0
 39  8  1  0  0  0  0
 39 43  1  0  0  0  0
 39 78  1  6  0  0  0
 40 45  1  0  0  0  0
 41 42  2  0  0  0  0
 42 52  1  0  0  0  0
 43 11  1  0  0  0  0
 43 47  1  0  0  0  0
 43 79  1  1  0  0  0
 44 46  2  0  0  0  0
 44 80  1  0  0  0  0
 45 48  2  0  0  0  0
 45 81  1  0  0  0  0
 46 48  1  0  0  0  0
 46 54  1  0  0  0  0
 47 82  1  0  0  0  0
 47 83  1  0  0  0  0
 48 55  1  0  0  0  0
 49 51  1  0  0  0  0
 51 57  1  0  0  0  0
 51 58  1  0  0  0  0
 51 84  1  0  0  0  0
 53 85  1  0  0  0  0
 54 86  1  0  0  0  0
 54 87  1  0  0  0  0
 54 88  1  0  0  0  0
 55 89  1  0  0  0  0
 55 90  1  0  0  0  0
 55 91  1  0  0  0  0
 57 92  1  0  0  0  0
 57 93  1  0  0  0  0
 57 94  1  0  0  0  0
 58 95  1  0  0  0  0
 58 96  1  0  0  0  0
 58 97  1  0  0  0  0
M  CHG  2  15  -1  19   1
M  END
>  <DRUGBANK_ID>
DB03531

>  <SECONDARY_ACCESSION_NUMBERS>
EXPT01389

>  <COMMON_NAME>
Flavin-adenine dinucleotide-N5-isobutyl ketone

$$$$
