
 OpenBabel10282417153D

 48 51  0  0  1  0  0  0  0  0999 V2000
   -2.6106    0.2256    2.3120 C   0  0  0  0  0  0  0  0  0  0  0  0
   -1.5281    0.0407    1.2558 C   0  0  1  0  0  0  0  0  0  0  0  0
   -1.9163   -1.0814    0.3510 C   0  0  0  0  0  0  0  0  0  0  0  0
   -3.1252   -1.5917    0.3207 N   0  0  0  0  0  0  0  0  0  0  0  0
   -3.1613   -2.6034   -0.6018 C   0  0  0  0  0  0  0  0  0  0  0  0
   -1.9801   -2.8320   -1.2762 C   0  0  0  0  0  0  0  0  0  0  0  0
   -0.7458   -1.8397   -0.6512 S   0  0  0  0  0  0  0  0  0  0  0  0
   -4.3833   -3.3263   -0.8661 C   0  0  0  0  0  0  0  0  0  0  0  0
   -5.5407   -2.6348   -1.2414 C   0  0  0  0  0  0  0  0  0  0  0  0
   -6.7042   -3.3401   -1.5606 C   0  0  0  0  0  0  0  0  0  0  0  0
   -6.7174   -4.7382   -1.5032 C   0  0  0  0  0  0  0  0  0  0  0  0
   -5.5750   -5.4240   -1.0761 C   0  0  0  0  0  0  0  0  0  0  0  0
   -4.4124   -4.7199   -0.7564 C   0  0  0  0  0  0  0  0  0  0  0  0
   -7.8778   -5.4600   -1.9185 C   0  0  0  0  0  0  0  0  0  0  0  0
   -8.8190   -6.0469   -2.2893 N   0  0  0  0  0  0  0  0  0  0  0  0
   -1.0375    1.3585    0.4995 C   0  0  2  0  0  0  0  0  0  0  0  0
    0.5409    1.3149    0.5645 C   0  0  0  0  0  0  0  0  0  0  0  0
    1.0875    1.5464    1.8999 N   0  0  0  0  0  0  0  0  0  0  0  0
    0.6391    1.1323    3.1204 C   0  0  0  0  0  0  0  0  0  0  0  0
    1.4085    1.5729    4.0783 N   0  0  0  0  0  0  0  0  0  0  0  0
    2.3424    2.2748    3.3936 C   0  0  0  0  0  0  0  0  0  0  0  0
    2.1984    2.2915    2.0649 N   0  0  0  0  0  0  0  0  0  0  0  0
   -1.5096    2.7579    0.9465 C   0  0  0  0  0  0  0  0  0  0  0  0
   -2.5275    3.0156    1.8762 C   0  0  0  0  0  0  0  0  0  0  0  0
   -2.7546    4.2527    2.4526 C   0  0  0  0  0  0  0  0  0  0  0  0
   -2.0787    5.3355    1.9586 C   0  0  0  0  0  0  0  0  0  0  0  0
   -1.1739    5.1815    0.9220 C   0  0  0  0  0  0  0  0  0  0  0  0
   -0.8935    3.9087    0.4299 C   0  0  0  0  0  0  0  0  0  0  0  0
   -0.0244    3.8209   -0.5866 F   0  0  0  0  0  0  0  0  0  0  0  0
   -2.3654    6.5456    2.4436 F   0  0  0  0  0  0  0  0  0  0  0  0
   -1.4456    1.2828   -0.8833 O   0  0  0  0  0  0  0  0  0  0  0  0
   -3.5363    0.5443    1.8161 H   0  0  0  0  0  0  0  0  0  0  0  0
   -2.2765    0.9279    3.0838 H   0  0  0  0  0  0  0  0  0  0  0  0
   -2.8663   -0.6717    2.8727 H   0  0  0  0  0  0  0  0  0  0  0  0
   -0.6835   -0.4051    1.7819 H   0  0  0  0  0  0  0  0  0  0  0  0
   -1.7710   -3.5154   -2.0809 H   0  0  0  0  0  0  0  0  0  0  0  0
   -5.5354   -1.5485   -1.3122 H   0  0  0  0  0  0  0  0  0  0  0  0
   -7.5926   -2.7939   -1.8712 H   0  0  0  0  0  0  0  0  0  0  0  0
   -5.5754   -6.5093   -1.0027 H   0  0  0  0  0  0  0  0  0  0  0  0
   -3.5305   -5.2639   -0.4244 H   0  0  0  0  0  0  0  0  0  0  0  0
    0.9427    0.3568    0.2112 H   0  0  0  0  0  0  0  0  0  0  0  0
    1.0046    2.0345   -0.1219 H   0  0  0  0  0  0  0  0  0  0  0  0
   -0.2255    0.5322    3.3280 H   0  0  0  0  0  0  0  0  0  0  0  0
    3.1484    2.7839    3.8986 H   0  0  0  0  0  0  0  0  0  0  0  0
   -3.2512    2.3130    2.2368 H   0  0  0  0  0  0  0  0  0  0  0  0
   -3.4867    4.3364    3.2501 H   0  0  0  0  0  0  0  0  0  0  0  0
   -0.6821    6.0428    0.4940 H   0  0  0  0  0  0  0  0  0  0  0  0
   -2.4143    1.1626   -0.9040 H   0  0  0  0  0  0  0  0  0  0  0  0
  1 32  1  0  0  0  0
  1 33  1  0  0  0  0
  1 34  1  0  0  0  0
  2  1  1  0  0  0  0
  2  3  1  0  0  0  0
  2 35  1  1  0  0  0
  3  4  2  0  0  0  0
  3  7  1  0  0  0  0
  4  5  1  0  0  0  0
  5  6  2  0  0  0  0
  5  8  1  0  0  0  0
  6  7  1  0  0  0  0
  6 36  1  0  0  0  0
  8  9  2  0  0  0  0
  8 13  1  0  0  0  0
  9 10  1  0  0  0  0
  9 37  1  0  0  0  0
 10 11  2  0  0  0  0
 10 38  1  0  0  0  0
 11 12  1  0  0  0  0
 11 14  1  0  0  0  0
 12 13  2  0  0  0  0
 12 39  1  0  0  0  0
 13 40  1  0  0  0  0
 14 15  3  0  0  0  0
 16 23  1  0  0  0  0
 16 31  1  6  0  0  0
 16 17  1  0  0  0  0
 16  2  1  0  0  0  0
 17 18  1  0  0  0  0
 17 41  1  0  0  0  0
 17 42  1  0  0  0  0
 18 19  1  0  0  0  0
 18 22  1  0  0  0  0
 19 20  2  0  0  0  0
 19 43  1  0  0  0  0
 20 21  1  0  0  0  0
 21 22  2  0  0  0  0
 21 44  1  0  0  0  0
 23 24  2  0  0  0  0
 23 28  1  0  0  0  0
 24 25  1  0  0  0  0
 24 45  1  0  0  0  0
 25 26  2  0  0  0  0
 25 46  1  0  0  0  0
 26 27  1  0  0  0  0
 26 30  1  0  0  0  0
 27 28  2  0  0  0  0
 27 47  1  0  0  0  0
 28 29  1  0  0  0  0
 31 48  1  0  0  0  0
M  END
>  <DRUGBANK_ID>
DB06440

>  <COMMON_NAME>
Ravuconazole

>  <CAS_NUMBER>
182760-06-1

>  <UNII>
95YH599JWV

>  <SYNONYMS>
Ravuconazole

$$$$
