
 OpenBabel10282417163D

 55 57  0  0  0  0  0  0  0  0999 V2000
    2.2851   -0.0414   -0.1271 F   0  0  0  0  0  0  0  0  0  0  0  0
   -1.8136    3.5633    1.1789 O   0  0  0  0  0  0  0  0  0  0  0  0
    1.0073    4.6199   -0.1608 O   0  0  0  0  0  0  0  0  0  0  0  0
   -1.3049   -3.8398   -0.0887 O   0  0  0  0  0  0  0  0  0  0  0  0
   -3.1619   -2.5829   -0.0814 O   0  0  0  0  0  0  0  0  0  0  0  0
    0.8174    2.3796    0.0839 N   0  0  0  0  0  0  0  0  0  0  0  0
   -3.0423    4.1193   -4.7730 C   0  0  0  0  0  0  0  0  0  0  0  0
   -3.2150    1.0175   -4.9067 C   0  0  0  0  0  0  0  0  0  0  0  0
   -3.7279    3.3726   -5.9229 C   0  0  0  0  0  0  0  0  0  0  0  0
   -3.4421    1.8978   -6.1341 C   0  0  0  0  0  0  0  0  0  0  0  0
   -2.6520    3.2242   -3.6389 C   0  0  0  0  0  0  0  0  0  0  0  0
   -2.7680    1.8249   -3.7137 C   0  0  0  0  0  0  0  0  0  0  0  0
   -1.7535    4.8158   -5.2412 C   0  0  0  0  0  0  0  0  0  0  0  0
   -4.0836    5.1476   -4.2602 C   0  0  0  0  0  0  0  0  0  0  0  0
   -2.0899    0.0133   -5.2692 C   0  0  0  0  0  0  0  0  0  0  0  0
   -4.4990    0.1932   -4.5960 C   0  0  0  0  0  0  0  0  0  0  0  0
   -2.1514    3.8743   -2.4751 C   0  0  0  0  0  0  0  0  0  0  0  0
   -2.5452    1.1332   -2.5615 C   0  0  0  0  0  0  0  0  0  0  0  0
   -1.9474    3.1854   -1.3174 C   0  0  0  0  0  0  0  0  0  0  0  0
   -2.3735    1.8736   -1.4144 C   0  0  0  0  0  0  0  0  0  0  0  0
   -1.2893    3.8546   -0.1147 C   0  0  2  0  0  0  0  0  0  0  0  0
    0.2525    3.6403   -0.0882 C   0  0  0  0  0  0  0  0  0  0  0  0
    0.2473    1.0814    0.2824 C   0  0  0  0  0  0  0  0  0  0  0  0
    0.9582   -0.0922    0.0566 C   0  0  0  0  0  0  0  0  0  0  0  0
   -1.0502    0.8519    0.6935 C   0  0  0  0  0  0  0  0  0  0  0  0
    0.3180   -1.3637    0.0145 C   0  0  0  0  0  0  0  0  0  0  0  0
   -1.7374   -0.3546    0.5335 C   0  0  0  0  0  0  0  0  0  0  0  0
   -1.0685   -1.4810    0.1543 C   0  0  0  0  0  0  0  0  0  0  0  0
   -1.9621   -2.6659   -0.0261 C   0  0  0  0  0  0  0  0  0  0  0  0
   -1.0595    3.1922    1.6835 H   0  0  0  0  0  0  0  0  0  0  0  0
   -0.3441   -3.7833   -0.0026 H   0  0  0  0  0  0  0  0  0  0  0  0
    1.8241    2.4129   -0.0692 H   0  0  0  0  0  0  0  0  0  0  0  0
   -4.8145    3.4662   -5.8166 H   0  0  0  0  0  0  0  0  0  0  0  0
   -3.4717    3.8817   -6.8577 H   0  0  0  0  0  0  0  0  0  0  0  0
   -4.2926    1.4961   -6.6991 H   0  0  0  0  0  0  0  0  0  0  0  0
   -2.5777    1.8179   -6.7991 H   0  0  0  0  0  0  0  0  0  0  0  0
   -1.2793    5.4097   -4.4478 H   0  0  0  0  0  0  0  0  0  0  0  0
   -1.0084    4.0768   -5.5617 H   0  0  0  0  0  0  0  0  0  0  0  0
   -1.9577    5.4985   -6.0659 H   0  0  0  0  0  0  0  0  0  0  0  0
   -4.9847    4.6292   -3.8989 H   0  0  0  0  0  0  0  0  0  0  0  0
   -3.7360    5.7672   -3.4274 H   0  0  0  0  0  0  0  0  0  0  0  0
   -4.3788    5.8202   -5.0687 H   0  0  0  0  0  0  0  0  0  0  0  0
   -1.9540   -0.7758   -4.5195 H   0  0  0  0  0  0  0  0  0  0  0  0
   -2.3058   -0.4801   -6.2221 H   0  0  0  0  0  0  0  0  0  0  0  0
   -1.1302    0.5370   -5.3624 H   0  0  0  0  0  0  0  0  0  0  0  0
   -4.8610   -0.3153   -5.4971 H   0  0  0  0  0  0  0  0  0  0  0  0
   -4.3309   -0.6003   -3.8540 H   0  0  0  0  0  0  0  0  0  0  0  0
   -5.3079    0.8251   -4.2125 H   0  0  0  0  0  0  0  0  0  0  0  0
   -2.0043    4.9526   -2.4532 H   0  0  0  0  0  0  0  0  0  0  0  0
   -2.6847    0.0562   -2.4933 H   0  0  0  0  0  0  0  0  0  0  0  0
   -2.7971    1.3809   -0.5709 H   0  0  0  0  0  0  0  0  0  0  0  0
   -1.4800    4.9316   -0.2075 H   0  0  0  0  0  0  0  0  0  0  0  0
   -1.7344    1.6163    0.9813 H   0  0  0  0  0  0  0  0  0  0  0  0
    0.9438   -2.2276   -0.1515 H   0  0  0  0  0  0  0  0  0  0  0  0
   -2.8312   -0.3373    0.5950 H   0  0  0  0  0  0  0  0  0  0  0  0
  1 24  1  0  0  0  0
  2 30  1  0  0  0  0
  3 22  2  0  0  0  0
  4 29  1  0  0  0  0
  4 31  1  0  0  0  0
  5 29  2  0  0  0  0
  6 22  1  0  0  0  0
  6 23  1  0  0  0  0
  6 32  1  0  0  0  0
  7  9  1  0  0  0  0
  7 11  1  0  0  0  0
  7 13  1  0  0  0  0
  7 14  1  0  0  0  0
  8 10  1  0  0  0  0
  8 12  1  0  0  0  0
  8 15  1  0  0  0  0
  8 16  1  0  0  0  0
  9 10  1  0  0  0  0
  9 33  1  0  0  0  0
  9 34  1  0  0  0  0
 10 35  1  0  0  0  0
 10 36  1  0  0  0  0
 11 12  2  0  0  0  0
 11 17  1  0  0  0  0
 12 18  1  0  0  0  0
 13 37  1  0  0  0  0
 13 38  1  0  0  0  0
 13 39  1  0  0  0  0
 14 40  1  0  0  0  0
 14 41  1  0  0  0  0
 14 42  1  0  0  0  0
 15 43  1  0  0  0  0
 15 44  1  0  0  0  0
 15 45  1  0  0  0  0
 16 46  1  0  0  0  0
 16 47  1  0  0  0  0
 16 48  1  0  0  0  0
 17 19  2  0  0  0  0
 17 49  1  0  0  0  0
 18 20  2  0  0  0  0
 18 50  1  0  0  0  0
 19 20  1  0  0  0  0
 20 51  1  0  0  0  0
 21 22  1  0  0  0  0
 21 52  1  6  0  0  0
 21 19  1  0  0  0  0
 21  2  1  0  0  0  0
 23 24  2  0  0  0  0
 23 25  1  0  0  0  0
 24 26  1  0  0  0  0
 25 27  2  0  0  0  0
 25 53  1  0  0  0  0
 26 28  2  0  0  0  0
 26 54  1  0  0  0  0
 27 28  1  0  0  0  0
 27 55  1  0  0  0  0
 28 29  1  0  0  0  0
M  END
>  <DRUGBANK_ID>
DB07031

>  <COMMON_NAME>
3-Fluoro-4-{[(2R)-2-hydroxy-2-(5,5,8,8-tetramethyl-5,6,7,8-tetrahydro-2-naphthalenyl)acetyl]amino}benzoic acid

$$$$
