
 OpenBabel10282417173D

 29 28  0  0  0  0  0  0  0  0999 V2000
    1.1232   -0.0719    0.0501 O   0  0  0  0  0  0  0  0  0  0  0  0
    0.5139   -0.8348    1.0836 C   0  0  0  0  0  0  0  0  0  0  0  0
    0.9169   -2.2847    0.9416 C   0  0  0  0  0  0  0  0  0  0  0  0
    2.5247    0.1638    0.2136 C   0  0  0  0  0  0  0  0  0  0  0  0
    3.0823    1.3369   -0.6266 C   0  0  0  0  0  0  0  0  0  0  0  0
    2.2988    2.5126   -0.6910 O   0  0  0  0  0  0  0  0  0  0  0  0
    0.9124    2.3304   -1.0276 C   0  0  0  0  0  0  0  0  0  0  0  0
    0.4122    1.6958   -2.3799 C   0  0  0  0  0  0  0  0  0  0  0  0
    0.6566    0.3426   -2.8181 O   0  0  0  0  0  0  0  0  0  0  0  0
    1.9914   -0.0381   -3.0748 C   0  0  0  0  0  0  0  0  0  0  0  0
    2.7908    0.9728   -3.8907 C   0  0  0  0  0  0  0  0  0  0  0  0
    0.7793   -0.4211    2.0638 H   0  0  0  0  0  0  0  0  0  0  0  0
   -0.5744   -0.7443    0.9837 H   0  0  0  0  0  0  0  0  0  0  0  0
    2.0037   -2.3893    0.9676 H   0  0  0  0  0  0  0  0  0  0  0  0
    0.4895   -2.8953    1.7387 H   0  0  0  0  0  0  0  0  0  0  0  0
    0.5837   -2.6678   -0.0293 H   0  0  0  0  0  0  0  0  0  0  0  0
    2.7286    0.3810    1.2691 H   0  0  0  0  0  0  0  0  0  0  0  0
    3.0438   -0.7550   -0.0681 H   0  0  0  0  0  0  0  0  0  0  0  0
    4.1237    1.5214   -0.3393 H   0  0  0  0  0  0  0  0  0  0  0  0
    3.2801    1.1361   -1.6676 H   0  0  0  0  0  0  0  0  0  0  0  0
    0.3964    1.9078   -0.1645 H   0  0  0  0  0  0  0  0  0  0  0  0
    0.5264    3.3568   -1.0429 H   0  0  0  0  0  0  0  0  0  0  0  0
   -0.6820    1.7299   -2.3081 H   0  0  0  0  0  0  0  0  0  0  0  0
    0.6479    2.3670   -3.2077 H   0  0  0  0  0  0  0  0  0  0  0  0
    2.3911   -0.2835   -2.0909 H   0  0  0  0  0  0  0  0  0  0  0  0
    2.0998   -1.0431   -3.4988 H   0  0  0  0  0  0  0  0  0  0  0  0
    2.5640    2.0178   -3.6477 H   0  0  0  0  0  0  0  0  0  0  0  0
    3.8682    0.8624   -3.7616 H   0  0  0  0  0  0  0  0  0  0  0  0
    2.5476    0.8497   -4.9538 H   0  0  0  0  0  0  0  0  0  0  0  0
  1  4  1  0  0  0  0
  2  1  1  0  0  0  0
  2 12  1  0  0  0  0
  2 13  1  0  0  0  0
  3  2  1  0  0  0  0
  3 14  1  0  0  0  0
  3 15  1  0  0  0  0
  3 16  1  0  0  0  0
  4  5  1  0  0  0  0
  4 17  1  0  0  0  0
  4 18  1  0  0  0  0
  5  6  1  0  0  0  0
  5 19  1  0  0  0  0
  5 20  1  0  0  0  0
  6  7  1  0  0  0  0
  7  8  1  0  0  0  0
  7 21  1  0  0  0  0
  7 22  1  0  0  0  0
  8  9  1  0  0  0  0
  8 23  1  0  0  0  0
  8 24  1  0  0  0  0
  9 10  1  0  0  0  0
 10 11  1  0  0  0  0
 10 25  1  0  0  0  0
 10 26  1  0  0  0  0
 11 27  1  0  0  0  0
 11 28  1  0  0  0  0
 11 29  1  0  0  0  0
M  END
>  <DRUGBANK_ID>
DB08357

>  <COMMON_NAME>
Diethylene glycol diethyl ether

>  <CAS_NUMBER>
112-36-7

>  <UNII>
ZH086O935Z

>  <SYNONYMS>
1-ethoxy-2-(2-ethoxyethoxy)ethane; 1-Ethoxy-2-(beta-ethoxyethoxy)ethane; Diethyl carbitol; Diethyldiethylene glycol; Diethylene glycol diethyl ether; Ethyl diglyme

$$$$
