1187
 OpenBabel10282417113D

 51 51  0  0  1  0  0  0  0  0999 V2000
   -1.3111   -0.3036    0.0230 I   0  0  0  0  0  0  0  0  0  0  0  0
    4.5562   10.9859    1.1640 O   0  0  0  0  0  0  0  0  0  0  0  0
    3.6058    9.4788    2.4897 O   0  0  0  0  0  0  0  0  0  0  0  0
    2.6092    3.6330    1.3802 C   0  0  0  0  0  0  0  0  0  0  0  0
    1.1351    3.2353    1.2815 C   0  0  0  0  0  0  0  0  0  0  0  0
    3.0520    4.4839    0.1909 C   0  0  0  0  0  0  0  0  0  0  0  0
    0.7281    2.4563    0.0024 C   0  0  3  0  0  0  0  0  0  0  0  0
    2.2035    5.7522    0.1326 C   0  0  0  0  0  0  0  0  0  0  0  0
    2.5376    6.5643    1.3750 C   0  0  0  0  0  0  0  0  0  0  0  0
    4.0368    6.8768    1.3701 C   0  0  0  0  0  0  0  0  0  0  0  0
    1.4486    1.1182   -0.0649 C   0  0  0  0  0  0  0  0  0  0  0  0
    4.3797    7.7193    0.1422 C   0  0  0  0  0  0  0  0  0  0  0  0
    0.8112    3.1710   -1.3539 C   0  0  0  0  0  0  0  0  0  0  0  0
    3.5345    8.9959    0.1368 C   0  0  0  0  0  0  0  0  0  0  0  0
    0.7836   -0.1084    0.0040 C   0  0  0  0  0  0  0  0  0  0  0  0
    2.8595    1.0807   -0.1828 C   0  0  0  0  0  0  0  0  0  0  0  0
    1.5191   -1.2998    0.0215 C   0  0  0  0  0  0  0  0  0  0  0  0
    3.5932   -0.0928   -0.0948 C   0  0  0  0  0  0  0  0  0  0  0  0
    3.8770    9.8356    1.3568 C   0  0  0  0  0  0  0  0  0  0  0  0
    2.9156   -1.2909   -0.0026 C   0  0  0  0  0  0  0  0  0  0  0  0
    4.7678   11.5506   -0.1318 C   0  0  0  0  0  0  0  0  0  0  0  0
    5.8117   10.7738   -0.9164 C   0  0  0  0  0  0  0  0  0  0  0  0
    2.7832    4.1574    2.3245 H   0  0  0  0  0  0  0  0  0  0  0  0
    3.2542    2.7654    1.5134 H   0  0  0  0  0  0  0  0  0  0  0  0
    0.4953    4.1224    1.3858 H   0  0  0  0  0  0  0  0  0  0  0  0
    0.8917    2.6362    2.1700 H   0  0  0  0  0  0  0  0  0  0  0  0
    4.1238    4.6683    0.2529 H   0  0  0  0  0  0  0  0  0  0  0  0
    3.0532    3.9832   -0.7640 H   0  0  0  0  0  0  0  0  0  0  0  0
   -0.3459    2.3163    0.1455 H   0  0  0  0  0  0  0  0  0  0  0  0
    2.3791    6.2908   -0.8048 H   0  0  0  0  0  0  0  0  0  0  0  0
    1.1269    5.5665    0.1110 H   0  0  0  0  0  0  0  0  0  0  0  0
    1.9049    7.4520    1.4188 H   0  0  0  0  0  0  0  0  0  0  0  0
    2.2675    6.0352    2.2908 H   0  0  0  0  0  0  0  0  0  0  0  0
    4.3240    7.3575    2.3025 H   0  0  0  0  0  0  0  0  0  0  0  0
    4.6670    5.9843    1.3891 H   0  0  0  0  0  0  0  0  0  0  0  0
    5.4549    7.9211    0.1416 H   0  0  0  0  0  0  0  0  0  0  0  0
    4.2048    7.1628   -0.7900 H   0  0  0  0  0  0  0  0  0  0  0  0
    0.2974    2.5998   -2.1301 H   0  0  0  0  0  0  0  0  0  0  0  0
    0.3624    4.1668   -1.3152 H   0  0  0  0  0  0  0  0  0  0  0  0
    1.8168    3.2470   -1.7593 H   0  0  0  0  0  0  0  0  0  0  0  0
    3.6247    9.5080   -0.8167 H   0  0  0  0  0  0  0  0  0  0  0  0
    2.4593    8.8042    0.1551 H   0  0  0  0  0  0  0  0  0  0  0  0
    3.4488    1.9797   -0.3197 H   0  0  0  0  0  0  0  0  0  0  0  0
    1.0071   -2.2554    0.0543 H   0  0  0  0  0  0  0  0  0  0  0  0
    4.6796   -0.0513   -0.1073 H   0  0  0  0  0  0  0  0  0  0  0  0
    3.4737   -2.2198    0.0269 H   0  0  0  0  0  0  0  0  0  0  0  0
    3.8089   11.6516   -0.6534 H   0  0  0  0  0  0  0  0  0  0  0  0
    5.1401   12.5634    0.0434 H   0  0  0  0  0  0  0  0  0  0  0  0
    5.5370    9.7398   -1.1193 H   0  0  0  0  0  0  0  0  0  0  0  0
    5.9799   11.2374   -1.8880 H   0  0  0  0  0  0  0  0  0  0  0  0
    6.7422   10.7069   -0.3483 H   0  0  0  0  0  0  0  0  0  0  0  0
  1 15  1  0  0  0  0
  2 19  1  0  0  0  0
  2 21  1  0  0  0  0
  3 19  2  0  0  0  0
  4  5  1  0  0  0  0
  4  6  1  0  0  0  0
  4 23  1  0  0  0  0
  4 24  1  0  0  0  0
  5  7  1  0  0  0  0
  5 25  1  0  0  0  0
  5 26  1  0  0  0  0
  6  8  1  0  0  0  0
  6 27  1  0  0  0  0
  6 28  1  0  0  0  0
  7 11  1  0  0  0  0
  7 13  1  0  0  0  0
  7 29  1  0  0  0  0
  8  9  1  0  0  0  0
  8 30  1  0  0  0  0
  8 31  1  0  0  0  0
  9 10  1  0  0  0  0
  9 32  1  0  0  0  0
  9 33  1  0  0  0  0
 10 12  1  0  0  0  0
 10 34  1  0  0  0  0
 10 35  1  0  0  0  0
 11 15  1  0  0  0  0
 11 16  2  0  0  0  0
 12 14  1  0  0  0  0
 12 36  1  0  0  0  0
 12 37  1  0  0  0  0
 13 38  1  0  0  0  0
 13 39  1  0  0  0  0
 13 40  1  0  0  0  0
 14 19  1  0  0  0  0
 14 41  1  0  0  0  0
 14 42  1  0  0  0  0
 15 17  2  0  0  0  0
 16 18  1  0  0  0  0
 16 43  1  0  0  0  0
 17 20  1  0  0  0  0
 17 44  1  0  0  0  0
 18 20  2  0  0  0  0
 18 45  1  0  0  0  0
 20 46  1  0  0  0  0
 21 22  1  0  0  0  0
 21 47  1  0  0  0  0
 21 48  1  0  0  0  0
 22 49  1  0  0  0  0
 22 50  1  0  0  0  0
 22 51  1  0  0  0  0
M  END
>  <DRUGBANK_ID>
DB01187

>  <SECONDARY_ACCESSION_NUMBERS>
APRD01312; DB13498

>  <COMMON_NAME>
Iophendylate

>  <CAS_NUMBER>
99-79-6

>  <UNII>
5153M06QEA

>  <SYNONYMS>
Ethyl 10-(p-iodophenyl)-undecanoate; Ethyl 10-(p-iodophenyl)hendecanoate; Ethyl 10-(p-iodophenyl)undecylate; Iofendylate

$$$$
