
 OpenBabel10282417133D

 59 59  0  0  0  0  0  0  0  0999 V2000
    5.1369    2.7015   -6.0429 O   0  0  0  0  0  0  0  0  0  0  0  0
    4.0697    5.2663   -1.4364 O   0  0  0  0  0  0  0  0  0  0  0  0
    1.7829    0.1378   -5.8340 O   0  0  0  0  0  0  0  0  0  0  0  0
    0.5984    2.1450   -3.9551 O   0  0  0  0  0  0  0  0  0  0  0  0
    1.8177    4.3738   -3.3123 O   0  0  0  0  0  0  0  0  0  0  0  0
    4.1232   -0.5808   -2.0911 O   0  0  0  0  0  0  0  0  0  0  0  0
    5.4537   -0.3113   -6.8822 O   0  0  0  0  0  0  0  0  0  0  0  0
    5.2383    0.1875   -4.6524 N   0  0  0  0  0  0  0  0  0  0  0  0
    4.5781    1.5329   -1.2469 N   0  0  0  0  0  0  0  0  0  0  0  0
    4.9272    1.1701   -3.5493 C   0  0  1  0  0  0  0  0  0  0  0  0
    4.0199    2.6005   -3.7779 C   0  0  0  0  0  0  0  0  0  0  0  0
    4.3706    4.0539   -3.4015 C   0  0  0  0  0  0  0  0  0  0  0  0
    4.5607    4.0259   -1.9334 C   0  0  2  0  0  0  0  0  0  0  0  0
    2.5432    1.2555   -5.2998 C   0  0  1  0  0  0  0  0  0  0  0  0
    4.0537    1.5138   -6.2075 C   0  0  2  0  0  0  0  0  0  0  0  0
    1.4737    2.4940   -5.0655 C   0  0  2  0  0  0  0  0  0  0  0  0
    3.8503    2.8139   -1.2255 C   0  0  0  0  0  0  0  0  0  0  0  0
    4.4121    0.5694   -2.2573 C   0  0  0  0  0  0  0  0  0  0  0  0
    1.8209    3.9954   -4.7213 C   0  0  1  0  0  0  0  0  0  0  0  0
    4.9469    0.3378   -5.9940 C   0  0  0  0  0  0  0  0  0  0  0  0
   -0.3521    6.8317   -6.0135 C   0  0  0  0  0  0  0  0  0  0  0  0
    0.7419    4.8937   -5.0467 C   0  0  0  0  0  0  0  0  0  0  0  0
    0.8549    5.9814   -5.8037 C   0  0  0  0  0  0  0  0  0  0  0  0
   -0.0163    8.2758   -5.6585 C   0  0  0  0  0  0  0  0  0  0  0  0
   -0.6856    6.6587   -7.4910 C   0  0  0  0  0  0  0  0  0  0  0  0
   -1.5388    6.3504   -5.1468 C   0  0  0  0  0  0  0  0  0  0  0  0
    6.2693    2.8524   -5.0668 C   0  0  0  0  0  0  0  0  0  0  0  0
    6.0033   -0.4795   -4.5305 H   0  0  0  0  0  0  0  0  0  0  0  0
    4.7609    1.1197   -0.3492 H   0  0  0  0  0  0  0  0  0  0  0  0
    3.2232    5.4709   -1.8942 H   0  0  0  0  0  0  0  0  0  0  0  0
    0.8384    0.2990   -5.6627 H   0  0  0  0  0  0  0  0  0  0  0  0
    0.1055    1.3318   -4.1211 H   0  0  0  0  0  0  0  0  0  0  0  0
    1.7598    3.5865   -2.7620 H   0  0  0  0  0  0  0  0  0  0  0  0
    5.9497    1.3479   -3.2022 H   0  0  0  0  0  0  0  0  0  0  0  0
    3.0618    2.3571   -3.3477 H   0  0  0  0  0  0  0  0  0  0  0  0
    3.7458    2.8379   -4.7723 H   0  0  0  0  0  0  0  0  0  0  0  0
    3.6613    4.8484   -3.6615 H   0  0  0  0  0  0  0  0  0  0  0  0
    5.0894    4.5674   -4.0546 H   0  0  0  0  0  0  0  0  0  0  0  0
    5.6394    3.9696   -1.7973 H   0  0  0  0  0  0  0  0  0  0  0  0
    2.7552    0.7913   -4.3231 H   0  0  0  0  0  0  0  0  0  0  0  0
    3.7130    1.5875   -7.2397 H   0  0  0  0  0  0  0  0  0  0  0  0
    0.9060    2.5191   -5.9983 H   0  0  0  0  0  0  0  0  0  0  0  0
    2.8422    2.5833   -1.5971 H   0  0  0  0  0  0  0  0  0  0  0  0
    3.6413    3.0827   -0.1987 H   0  0  0  0  0  0  0  0  0  0  0  0
    2.6868    4.3662   -5.2828 H   0  0  0  0  0  0  0  0  0  0  0  0
   -0.1314    4.6696   -4.4455 H   0  0  0  0  0  0  0  0  0  0  0  0
    1.7969    6.2317   -6.2950 H   0  0  0  0  0  0  0  0  0  0  0  0
    0.8096    8.6617   -6.2668 H   0  0  0  0  0  0  0  0  0  0  0  0
   -0.8902    8.9113   -5.8221 H   0  0  0  0  0  0  0  0  0  0  0  0
    0.2800    8.3690   -4.6054 H   0  0  0  0  0  0  0  0  0  0  0  0
   -0.8468    5.5981   -7.7316 H   0  0  0  0  0  0  0  0  0  0  0  0
   -1.5920    7.2081   -7.7442 H   0  0  0  0  0  0  0  0  0  0  0  0
    0.1338    7.0113   -8.1297 H   0  0  0  0  0  0  0  0  0  0  0  0
   -1.7854    5.2991   -5.3636 H   0  0  0  0  0  0  0  0  0  0  0  0
   -1.2928    6.4213   -4.0753 H   0  0  0  0  0  0  0  0  0  0  0  0
   -2.4438    6.9243   -5.3231 H   0  0  0  0  0  0  0  0  0  0  0  0
    6.0511    2.8918   -3.9972 H   0  0  0  0  0  0  0  0  0  0  0  0
    7.0463    2.0910   -5.0778 H   0  0  0  0  0  0  0  0  0  0  0  0
    6.6642    3.8801   -5.0585 H   0  0  0  0  0  0  0  0  0  0  0  0
  1 27  1  0  0  0  0
  2 30  1  0  0  0  0
  3 31  1  0  0  0  0
  4 32  1  0  0  0  0
  5 33  1  0  0  0  0
  6 18  2  0  0  0  0
  7 20  2  0  0  0  0
  8 20  1  0  0  0  0
  8 28  1  0  0  0  0
  9 17  1  0  0  0  0
  9 18  1  0  0  0  0
  9 29  1  0  0  0  0
 10 11  1  0  0  0  0
 10 18  1  0  0  0  0
 10 34  1  1  0  0  0
 10  8  1  0  0  0  0
 11 12  1  0  0  0  0
 11 35  1  0  0  0  0
 11 36  1  0  0  0  0
 12 13  1  0  0  0  0
 12 37  1  0  0  0  0
 12 38  1  0  0  0  0
 13  2  1  0  0  0  0
 13 17  1  0  0  0  0
 13 39  1  1  0  0  0
 14 16  1  0  0  0  0
 14 40  1  1  0  0  0
 14 15  1  0  0  0  0
 14  3  1  0  0  0  0
 15 41  1  6  0  0  0
 15 20  1  0  0  0  0
 15  1  1  0  0  0  0
 16  4  1  0  0  0  0
 16 42  1  6  0  0  0
 17 43  1  0  0  0  0
 17 44  1  0  0  0  0
 19 22  1  0  0  0  0
 19 45  1  6  0  0  0
 19 16  1  0  0  0  0
 19  5  1  0  0  0  0
 21 23  1  0  0  0  0
 21 24  1  0  0  0  0
 21 25  1  0  0  0  0
 21 26  1  0  0  0  0
 22 23  2  0  0  0  0
 22 46  1  0  0  0  0
 23 47  1  0  0  0  0
 24 48  1  0  0  0  0
 24 49  1  0  0  0  0
 24 50  1  0  0  0  0
 25 51  1  0  0  0  0
 25 52  1  0  0  0  0
 25 53  1  0  0  0  0
 26 54  1  0  0  0  0
 26 55  1  0  0  0  0
 26 56  1  0  0  0  0
 27 57  1  0  0  0  0
 27 58  1  0  0  0  0
 27 59  1  0  0  0  0
M  END
>  <DRUGBANK_ID>
DB03396

>  <SECONDARY_ACCESSION_NUMBERS>
EXPT03029

>  <COMMON_NAME>
(2R,3R,4S,5R,6E)-3,4,5-Trihydroxy-N-[(3S,6R)-6-hydroxy-2-oxo-3-azepanyl]-2-methoxy-8,8-dimethyl-6-nonenamide

$$$$
