
 OpenBabel10282417203D

 23 24  0  0  0  0  0  0  0  0999 V2000
   -1.5452   -1.0668   -0.0094 N   0  0  0  0  0  0  0  0  0  0  0  0
   -2.3072    0.0834    0.0016 C   0  0  0  0  0  0  0  0  0  0  0  0
   -1.5316    1.1394    0.0071 N   0  0  0  0  0  0  0  0  0  0  0  0
   -0.2491    0.6826    0.0025 C   0  0  0  0  0  0  0  0  0  0  0  0
    0.9425    1.4156   -0.0035 C   0  0  0  0  0  0  0  0  0  0  0  0
    2.1530    0.7204   -0.0127 C   0  0  0  0  0  0  0  0  0  0  0  0
    2.1698   -0.6768   -0.0016 C   0  0  0  0  0  0  0  0  0  0  0  0
    0.9826   -1.4275    0.0077 C   0  0  0  0  0  0  0  0  0  0  0  0
   -0.2153   -0.7052    0.0020 C   0  0  0  0  0  0  0  0  0  0  0  0
   -3.6812    0.0706    0.0051 N   0  0  0  0  0  0  0  0  0  0  0  0
   -4.4609    1.2086    0.0220 C   0  0  0  0  0  0  0  0  0  0  0  0
   -5.6883    1.1234    0.0290 O   0  0  0  0  0  0  0  0  0  0  0  0
   -3.7845    2.3847    0.0301 O   0  0  0  0  0  0  0  0  0  0  0  0
   -4.5545    3.5861    0.0476 C   0  0  0  0  0  0  0  0  0  0  0  0
   -1.8918   -2.0136   -0.0286 H   0  0  0  0  0  0  0  0  0  0  0  0
    0.9070    2.4990   -0.0054 H   0  0  0  0  0  0  0  0  0  0  0  0
    3.0852    1.2796   -0.0287 H   0  0  0  0  0  0  0  0  0  0  0  0
    3.1299   -1.1901   -0.0021 H   0  0  0  0  0  0  0  0  0  0  0  0
    1.0103   -2.5115    0.0158 H   0  0  0  0  0  0  0  0  0  0  0  0
   -4.1940   -0.7966    0.0005 H   0  0  0  0  0  0  0  0  0  0  0  0
   -5.1751    3.6642   -0.8496 H   0  0  0  0  0  0  0  0  0  0  0  0
   -5.1637    3.6455    0.9541 H   0  0  0  0  0  0  0  0  0  0  0  0
   -3.8548    4.4288    0.0519 H   0  0  0  0  0  0  0  0  0  0  0  0
  1  2  1  0  0  0  0
  1  9  1  0  0  0  0
  1 15  1  0  0  0  0
  2  3  2  0  0  0  0
  2 10  1  0  0  0  0
  3  4  1  0  0  0  0
  4  5  2  0  0  0  0
  4  9  1  0  0  0  0
  5  6  1  0  0  0  0
  5 16  1  0  0  0  0
  6  7  2  0  0  0  0
  6 17  1  0  0  0  0
  7  8  1  0  0  0  0
  7 18  1  0  0  0  0
  8  9  2  0  0  0  0
  8 19  1  0  0  0  0
 10 11  1  0  0  0  0
 10 20  1  0  0  0  0
 11 12  2  0  0  0  0
 11 13  1  0  0  0  0
 13 14  1  0  0  0  0
 14 21  1  0  0  0  0
 14 22  1  0  0  0  0
 14 23  1  0  0  0  0
M  END
>  <DRUGBANK_ID>
DB13009

>  <COMMON_NAME>
Carbendazim

>  <CAS_NUMBER>
10605-21-7

>  <UNII>
H75J14AA89

$$$$
