MGI
 OpenBabel10282417173D

 38 39  0  0  0  0  0  0  0  0999 V2000
    1.1869    0.0047   -0.0300 O   0  0  0  0  0  0  0  0  0  0  0  0
    2.4162    0.0115   -0.0122 C   0  0  0  0  0  0  0  0  0  0  0  0
    3.1341   -0.2886   -1.1271 O   0  0  0  0  0  0  0  0  0  0  0  0
    4.5409   -0.6166   -1.1577 C   0  0  0  0  0  0  0  0  0  0  0  0
    3.1361    0.4840    1.1954 C   0  0  0  0  0  0  0  0  0  0  0  0
    4.1191    1.4748    1.0679 C   0  0  0  0  0  0  0  0  0  0  0  0
    4.4377    2.1196   -0.0988 O   0  0  0  0  0  0  0  0  0  0  0  0
    4.8304    1.9307    2.1716 C   0  0  0  0  0  0  0  0  0  0  0  0
    2.7776    0.0468    2.4928 C   0  0  0  0  0  0  0  0  0  0  0  0
    1.6975   -0.9639    2.7836 C   0  0  0  0  0  0  0  0  0  0  0  0
    3.4439    0.6026    3.6105 C   0  0  0  0  0  0  0  0  0  0  0  0
    4.4707    1.5393    3.4559 C   0  0  0  0  0  0  0  0  0  0  0  0
    5.0493    2.0085    4.6185 O   0  0  0  0  0  0  0  0  0  0  0  0
    6.0222    2.9830    4.5346 C   0  0  0  0  0  0  0  0  0  0  0  0
    5.7771    4.2431    3.9613 C   0  0  0  0  0  0  0  0  0  0  0  0
    7.2749    2.7030    5.0859 C   0  0  0  0  0  0  0  0  0  0  0  0
    7.5467    1.5071    5.6976 O   0  0  0  0  0  0  0  0  0  0  0  0
    8.2896    3.6514    5.0079 C   0  0  0  0  0  0  0  0  0  0  0  0
    9.5380    3.4068    5.5054 O   0  0  0  0  0  0  0  0  0  0  0  0
    8.0640    4.8833    4.4081 C   0  0  0  0  0  0  0  0  0  0  0  0
    6.8063    5.1929    3.8762 C   0  0  0  0  0  0  0  0  0  0  0  0
    6.6089    6.5327    3.2302 C   0  0  0  0  0  0  0  0  0  0  0  0
    5.1570    0.2815   -1.1487 H   0  0  0  0  0  0  0  0  0  0  0  0
    4.8212   -1.2865   -0.3436 H   0  0  0  0  0  0  0  0  0  0  0  0
    4.7472   -1.0860   -2.1230 H   0  0  0  0  0  0  0  0  0  0  0  0
    3.8490    1.8337   -0.8209 H   0  0  0  0  0  0  0  0  0  0  0  0
    5.6373    2.6313    1.9866 H   0  0  0  0  0  0  0  0  0  0  0  0
    2.1184   -1.8015    3.3511 H   0  0  0  0  0  0  0  0  0  0  0  0
    0.9040   -0.5008    3.3815 H   0  0  0  0  0  0  0  0  0  0  0  0
    1.2376   -1.3896    1.8910 H   0  0  0  0  0  0  0  0  0  0  0  0
    3.1497    0.3004    4.6159 H   0  0  0  0  0  0  0  0  0  0  0  0
    4.7977    4.4681    3.5432 H   0  0  0  0  0  0  0  0  0  0  0  0
    6.7163    0.9941    5.6809 H   0  0  0  0  0  0  0  0  0  0  0  0
    9.5066    2.5016    5.8677 H   0  0  0  0  0  0  0  0  0  0  0  0
    8.8740    5.6057    4.3598 H   0  0  0  0  0  0  0  0  0  0  0  0
    6.7880    7.3259    3.9635 H   0  0  0  0  0  0  0  0  0  0  0  0
    7.3133    6.6554    2.3997 H   0  0  0  0  0  0  0  0  0  0  0  0
    5.5964    6.6556    2.8347 H   0  0  0  0  0  0  0  0  0  0  0  0
  1  2  2  0  0  0  0
  2  3  1  0  0  0  0
  2  5  1  0  0  0  0
  3  4  1  0  0  0  0
  4 23  1  0  0  0  0
  4 24  1  0  0  0  0
  4 25  1  0  0  0  0
  5  9  2  0  0  0  0
  5  6  1  0  0  0  0
  6  8  2  0  0  0  0
  6  7  1  0  0  0  0
  7 26  1  0  0  0  0
  8 12  1  0  0  0  0
  8 27  1  0  0  0  0
  9 10  1  0  0  0  0
  9 11  1  0  0  0  0
 10 28  1  0  0  0  0
 10 29  1  0  0  0  0
 10 30  1  0  0  0  0
 11 12  2  0  0  0  0
 11 31  1  0  0  0  0
 12 13  1  0  0  0  0
 13 14  1  0  0  0  0
 14 15  1  0  0  0  0
 14 16  2  0  0  0  0
 15 21  2  0  0  0  0
 15 32  1  0  0  0  0
 16 18  1  0  0  0  0
 16 17  1  0  0  0  0
 17 33  1  0  0  0  0
 18 20  2  0  0  0  0
 18 19  1  0  0  0  0
 19 34  1  0  0  0  0
 20 21  1  0  0  0  0
 20 35  1  0  0  0  0
 21 22  1  0  0  0  0
 22 36  1  0  0  0  0
 22 37  1  0  0  0  0
 22 38  1  0  0  0  0
M  END
>  <DRUGBANK_ID>
DB08179

>  <COMMON_NAME>
methyl 4-(2,3-dihydroxy-5-methylphenoxy)-2-hydroxy-6-methylbenzoate

>  <UNII>
JWQ46YJR3Q

$$$$
