
 OpenBabel10282417163D

 31 32  0  0  0  0  0  0  0  0999 V2000
    1.8494    0.0105   -0.8403 S   0  0  0  0  0  0  0  0  0  0  0  0
   -2.7864    0.0387   -0.8318 O   0  0  0  0  0  0  0  0  0  0  0  0
    3.8447    6.3865    1.4879 O   0  0  0  0  0  0  0  0  0  0  0  0
   -1.1044    1.0368    0.3787 N   0  0  0  0  0  0  0  0  0  0  0  0
   -1.1258   -1.1767    0.2324 N   0  0  0  0  0  0  0  0  0  0  0  0
    0.1044    0.6345    1.0728 C   0  0  1  0  0  0  0  0  0  0  0  0
    0.0988   -0.9020    0.9570 C   0  0  2  0  0  0  0  0  0  0  0  0
    1.3886    1.1906    0.4403 C   0  0  2  0  0  0  0  0  0  0  0  0
    1.3544   -1.3693    0.2149 C   0  0  0  0  0  0  0  0  0  0  0  0
    1.2303    2.6139   -0.0775 C   0  0  0  0  0  0  0  0  0  0  0  0
    0.8553    3.5533    1.0780 C   0  0  0  0  0  0  0  0  0  0  0  0
   -1.7769   -0.0301   -0.1506 C   0  0  0  0  0  0  0  0  0  0  0  0
    1.9397    3.6021    2.1621 C   0  0  0  0  0  0  0  0  0  0  0  0
    3.2885    4.0479    1.6081 C   0  0  0  0  0  0  0  0  0  0  0  0
    3.1858    5.4466    1.0586 C   0  0  0  0  0  0  0  0  0  0  0  0
    0.0035    0.9670    2.1128 H   0  0  0  0  0  0  0  0  0  0  0  0
    0.0213   -1.3871    1.9353 H   0  0  0  0  0  0  0  0  0  0  0  0
   -1.4065    1.9796    0.1678 H   0  0  0  0  0  0  0  0  0  0  0  0
   -1.4842   -2.0831   -0.0319 H   0  0  0  0  0  0  0  0  0  0  0  0
    2.2028    1.1301    1.1717 H   0  0  0  0  0  0  0  0  0  0  0  0
    2.1650   -1.5364    0.9327 H   0  0  0  0  0  0  0  0  0  0  0  0
    1.1992   -2.2743   -0.3735 H   0  0  0  0  0  0  0  0  0  0  0  0
    2.1501    2.9470   -0.5698 H   0  0  0  0  0  0  0  0  0  0  0  0
    0.4613    2.6689   -0.8567 H   0  0  0  0  0  0  0  0  0  0  0  0
    0.6576    4.5522    0.6792 H   0  0  0  0  0  0  0  0  0  0  0  0
   -0.0889    3.2483    1.5428 H   0  0  0  0  0  0  0  0  0  0  0  0
    1.6151    4.2732    2.9644 H   0  0  0  0  0  0  0  0  0  0  0  0
    2.0518    2.6182    2.6351 H   0  0  0  0  0  0  0  0  0  0  0  0
    4.0457    4.0230    2.3957 H   0  0  0  0  0  0  0  0  0  0  0  0
    3.6457    3.3874    0.8115 H   0  0  0  0  0  0  0  0  0  0  0  0
    2.4806    5.5919    0.2212 H   0  0  0  0  0  0  0  0  0  0  0  0
  1  8  1  0  0  0  0
  1  9  1  0  0  0  0
  2 12  2  0  0  0  0
  3 15  2  0  0  0  0
  4  6  1  0  0  0  0
  4 12  1  0  0  0  0
  4 18  1  0  0  0  0
  5  7  1  0  0  0  0
  5 12  1  0  0  0  0
  5 19  1  0  0  0  0
  6  7  1  0  0  0  0
  6  8  1  0  0  0  0
  6 16  1  1  0  0  0
  7  9  1  0  0  0  0
  7 17  1  1  0  0  0
  8 10  1  0  0  0  0
  8 20  1  1  0  0  0
  9 21  1  0  0  0  0
  9 22  1  0  0  0  0
 10 11  1  0  0  0  0
 10 23  1  0  0  0  0
 10 24  1  0  0  0  0
 11 13  1  0  0  0  0
 11 25  1  0  0  0  0
 11 26  1  0  0  0  0
 13 14  1  0  0  0  0
 13 27  1  0  0  0  0
 13 28  1  0  0  0  0
 14 15  1  0  0  0  0
 14 29  1  0  0  0  0
 14 30  1  0  0  0  0
 15 31  1  0  0  0  0
M  END
>  <DRUGBANK_ID>
DB07497

>  <COMMON_NAME>
5-(hexahydro-2-oxo-1H-thieno[3,4-D]imidazol-6-yl)pentanal

>  <SYNONYMS>
Biotin aldehyde

$$$$
