
 OpenBabel10282417103D

 56 54  0  0  0  0  0  0  0  0999 V2000
    1.0481    0.0672   -0.0563 C   0  0  0  0  0  0  0  0  0  0  0  0
    0.5414   -1.3048   -0.4704 C   0  0  0  0  0  0  0  0  0  0  0  0
   -0.3037   -2.0836    0.4462 N   0  0  0  0  0  0  0  0  0  0  0  0
   -0.7937   -3.4104    0.0458 C   0  0  0  0  0  0  0  0  0  0  0  0
    0.8485   -1.7786   -1.6090 O   0  0  0  0  0  0  0  0  0  0  0  0
    0.5581    0.3838    1.2929 N   0  0  0  0  0  0  0  0  0  0  0  0
   -0.9119    0.3838    1.2929 C   0  0  0  0  0  0  0  0  0  0  0  0
   -1.4186   -0.9881    0.8789 C   0  0  0  0  0  0  0  0  0  0  0  0
   -2.1492   -1.6615    1.6713 O   0  0  0  0  0  0  0  0  0  0  0  0
   -1.0755   -1.5175   -0.3933 O   0  5  0  0  0  0  0  0  0  0  0  0
    1.0481   -0.6264    2.2418 C   0  0  0  0  0  0  0  0  0  0  0  0
    0.5414   -1.9983    1.8278 C   0  0  0  0  0  0  0  0  0  0  0  0
    1.0314   -2.3150    0.4785 N   0  0  0  0  0  0  0  0  0  0  0  0
    0.5414   -3.6418    0.0781 C   0  0  0  0  0  0  0  0  0  0  0  0
   -0.9786   -3.6418    0.0781 C   0  0  0  0  0  0  0  0  0  0  0  0
   -1.6140   -3.8932   -0.9935 O   0  0  0  0  0  0  0  0  0  0  0  0
   -1.6886   -3.3608    1.2753 O   0  5  0  0  0  0  0  0  0  0  0  0
    0.5414   -1.3048   -0.4704 C   0  0  0  0  0  0  0  0  0  0  0  0
   -0.9786   -1.3048   -0.4704 C   0  0  0  0  0  0  0  0  0  0  0  0
   -1.4686   -0.9881    0.8789 N   0  0  0  0  0  0  0  0  0  0  0  0
   -2.9386   -0.9881    0.8789 C   0  0  0  0  0  0  0  0  0  0  0  0
   -3.4452   -2.3601    0.4649 C   0  0  0  0  0  0  0  0  0  0  0  0
   -4.1759   -3.0334    1.2573 O   0  0  0  0  0  0  0  0  0  0  0  0
   -3.1022   -2.8894   -0.8073 O   0  5  0  0  0  0  0  0  0  0  0  0
   -0.9786   -1.9983    1.8278 C   0  0  0  0  0  0  0  0  0  0  0  0
   -1.4852   -3.3703    1.4137 C   0  0  0  0  0  0  0  0  0  0  0  0
   -0.5300   -4.4399    1.0909 N   0  0  0  0  0  0  0  0  0  0  0  0
   -1.0200   -5.7668    0.6905 C   0  0  0  0  0  0  0  0  0  0  0  0
   -2.7347   -3.5926    1.3466 O   0  0  0  0  0  0  0  0  0  0  0  0
    0.9144    0.0004   -0.0516 Gd  0  1  0  0  0  0  0  0  0  0  0  0
    0.6914    0.8025   -0.7470 H   0  0  0  0  0  0  0  0  0  0  0  0
    2.1181    0.0672   -0.0563 H   0  0  0  0  0  0  0  0  0  0  0  0
   -0.5501   -1.7033    1.3600 H   0  0  0  0  0  0  0  0  0  0  0  0
   -0.4370   -4.1457    0.7365 H   0  0  0  0  0  0  0  0  0  0  0  0
   -1.8637   -3.4104    0.0458 H   0  0  0  0  0  0  0  0  0  0  0  0
   -0.4370   -3.6409   -0.9363 H   0  0  0  0  0  0  0  0  0  0  0  0
   -1.2686    0.6143    2.2751 H   0  0  0  0  0  0  0  0  0  0  0  0
   -1.2686    1.1191    0.6023 H   0  0  0  0  0  0  0  0  0  0  0  0
    2.1181   -0.6264    2.2418 H   0  0  0  0  0  0  0  0  0  0  0  0
    0.6914   -0.3959    3.2239 H   0  0  0  0  0  0  0  0  0  0  0  0
    0.8981   -2.7336    2.5184 H   0  0  0  0  0  0  0  0  0  0  0  0
   -0.5286   -1.9983    1.8278 H   0  0  0  0  0  0  0  0  0  0  0  0
    0.8981   -3.8723   -0.9041 H   0  0  0  0  0  0  0  0  0  0  0  0
    0.8981   -4.3771    0.7687 H   0  0  0  0  0  0  0  0  0  0  0  0
    0.8981   -0.3390   -0.1789 H   0  0  0  0  0  0  0  0  0  0  0  0
    0.8981   -1.5352   -1.4525 H   0  0  0  0  0  0  0  0  0  0  0  0
   -1.3352   -0.5695   -1.1610 H   0  0  0  0  0  0  0  0  0  0  0  0
   -1.3352   -2.2705   -0.7618 H   0  0  0  0  0  0  0  0  0  0  0  0
   -3.2952   -0.7576    1.8610 H   0  0  0  0  0  0  0  0  0  0  0  0
   -3.2952   -0.2528    0.1882 H   0  0  0  0  0  0  0  0  0  0  0  0
    0.0914   -1.9983    1.8278 H   0  0  0  0  0  0  0  0  0  0  0  0
   -1.3352   -1.7678    2.8099 H   0  0  0  0  0  0  0  0  0  0  0  0
    0.4728   -4.2615    1.1447 H   0  0  0  0  0  0  0  0  0  0  0  0
   -0.6633   -5.9972   -0.2917 H   0  0  0  0  0  0  0  0  0  0  0  0
   -0.6633   -6.5021    1.3811 H   0  0  0  0  0  0  0  0  0  0  0  0
   -2.0900   -5.7668    0.6905 H   0  0  0  0  0  0  0  0  0  0  0  0
  1 31  1  0  0  0  0
  1 32  1  0  0  0  0
  2  1  1  0  0  0  0
  2  3  1  0  0  0  0
  3  4  1  0  0  0  0
  3 33  1  0  0  0  0
  4 34  1  0  0  0  0
  4 35  1  0  0  0  0
  4 36  1  0  0  0  0
  5  2  2  0  0  0  0
  6  1  1  0  0  0  0
  6  7  1  0  0  0  0
  7  8  1  0  0  0  0
  7 37  1  0  0  0  0
  7 38  1  0  0  0  0
  8  9  2  0  0  0  0
 10  8  1  0  0  0  0
 11  6  1  0  0  0  0
 11 12  1  0  0  0  0
 11 39  1  0  0  0  0
 11 40  1  0  0  0  0
 12 41  1  0  0  0  0
 12 42  1  0  0  0  0
 13 12  1  0  0  0  0
 13 14  1  0  0  0  0
 14 15  1  0  0  0  0
 14 43  1  0  0  0  0
 14 44  1  0  0  0  0
 15 16  2  0  0  0  0
 15 17  1  0  0  0  0
 18 13  1  0  0  0  0
 18 19  1  0  0  0  0
 18 45  1  0  0  0  0
 18 46  1  0  0  0  0
 19 20  1  0  0  0  0
 19 47  1  0  0  0  0
 19 48  1  0  0  0  0
 20 21  1  0  0  0  0
 20 25  1  0  0  0  0
 21 22  1  0  0  0  0
 21 49  1  0  0  0  0
 21 50  1  0  0  0  0
 22 23  2  0  0  0  0
 24 22  1  0  0  0  0
 25 26  1  0  0  0  0
 25 51  1  0  0  0  0
 25 52  1  0  0  0  0
 26 27  1  0  0  0  0
 26 29  2  0  0  0  0
 27 28  1  0  0  0  0
 27 53  1  0  0  0  0
 28 54  1  0  0  0  0
 28 55  1  0  0  0  0
 28 56  1  0  0  0  0
M  CHG  4  10  -1  17  -1  24  -1  30   3
M  END
>  <DRUGBANK_ID>
DB00225

>  <SECONDARY_ACCESSION_NUMBERS>
APRD00990

>  <COMMON_NAME>
Gadodiamide

>  <CAS_NUMBER>
131410-48-5

>  <UNII>
84F6U3J2R6

>  <SYNONYMS>
Gadodiamida; Gadodiamide; Gadodiamide anhydrous

$$$$
