
 OpenBabel10282417203D

197194  0  0  1  0  0  0  0  0999 V2000
    7.4138    8.3729   -9.8893 C   0  0  0  0  0  0  0  0  0  0  0  0
    6.5457    8.3922  -11.1365 C   0  0  0  0  0  0  0  0  0  0  0  0
    6.0424    6.9830  -11.4499 C   0  0  0  0  0  0  0  0  0  0  0  0
    5.2052    6.4294  -10.2917 C   0  0  0  0  0  0  0  0  0  0  0  0
    4.0021    7.3386  -10.0186 C   0  0  0  0  0  0  0  0  0  0  0  0
    3.1110    7.4079  -11.2616 C   0  0  0  0  0  0  0  0  0  0  0  0
    2.6166    6.0024  -11.6128 C   0  0  0  0  0  0  0  0  0  0  0  0
    1.8210    5.4370  -10.4329 C   0  0  0  0  0  0  0  0  0  0  0  0
    0.6288    6.3535  -10.1490 C   0  0  0  0  0  0  0  0  0  0  0  0
   -0.2424    6.4247  -11.4043 C   0  0  0  0  0  0  0  0  0  0  0  0
   -0.6967    5.0057  -11.7620 C   0  0  0  0  0  0  0  0  0  0  0  0
   -1.4858    4.4404  -10.5849 C   0  0  0  0  0  0  0  0  0  0  0  0
   -2.6649    5.3746  -10.3577 C   0  0  0  0  0  0  0  0  0  0  0  0
   -3.4882    5.3763  -11.6546 C   0  0  0  0  0  0  0  0  0  0  0  0
   -3.9236    3.9660  -11.9629 C   0  0  0  0  0  0  0  0  0  0  0  0
   -4.7494    3.5741  -10.8106 C   0  0  0  0  0  0  0  0  0  0  0  0
   -5.9409    3.7535  -11.0038 O   0  0  0  0  0  0  0  0  0  0  0  0
   -4.1734    3.2163   -9.5976 O   0  0  0  0  0  0  0  0  0  0  0  0
   -4.8833    3.0121   -8.2796 C   0  0  0  0  0  0  0  0  0  0  0  0
   -6.1887    3.7913   -8.1488 C   0  0  2  0  0  0  0  0  0  0  0  0
   -7.4195    3.3041   -8.9994 C   0  0  0  0  0  0  0  0  0  0  0  0
   -7.4134    1.8873   -9.2750 O   0  0  0  0  0  0  0  0  0  0  0  0
   -5.8874    1.3120   -9.8525 P   0  0  3  0  0  0  0  0  0  0  0  0
   -6.7252    0.1577  -10.0056 O   0  0  0  0  0  0  0  0  0  0  0  0
   -6.0861    1.7082  -11.3313 O   0  5  0  0  0  0  0  0  0  0  0  0
   -4.3615    0.7367  -10.4299 O   0  0  0  0  0  0  0  0  0  0  0  0
   -4.5217   -0.4097  -11.2064 C   0  0  0  0  0  0  0  0  0  0  0  0
   -5.0048   -1.5570  -10.2784 C   0  0  0  0  0  0  0  0  0  0  0  0
   -6.4791   -1.7586   -9.6967 N   0  0  0  0  0  0  0  0  0  0  0  0
   -7.8304   -1.5509  -10.3244 C   0  0  0  0  0  0  0  0  0  0  0  0
   -8.8231   -1.1527   -9.6872 O   0  0  0  0  0  0  0  0  0  0  0  0
   -8.0198   -2.2288  -11.6193 C   0  0  2  0  0  0  0  0  0  0  0  0
   -6.6375   -2.3575  -12.2800 C   0  0  0  0  0  0  0  0  0  0  0  0
   -9.2115   -2.2733  -12.4600 N   0  0  0  0  0  0  0  0  0  0  0  0
  -10.1680   -3.2978  -12.6264 C   0  0  0  0  0  0  0  0  0  0  0  0
  -10.8946   -3.1959  -13.6229 O   0  0  0  0  0  0  0  0  0  0  0  0
  -10.1436   -4.6717  -11.8750 C   0  0  0  0  0  0  0  0  0  0  0  0
   -8.9773   -5.7541  -12.2040 C   0  0  0  0  0  0  0  0  0  0  0  0
   -7.5363   -5.0858  -12.3372 C   0  0  2  0  0  0  0  0  0  0  0  0
   -7.1938   -4.6400  -13.7187 C   0  0  0  0  0  0  0  0  0  0  0  0
   -6.1186   -4.9916  -14.2044 O   0  0  0  0  0  0  0  0  0  0  0  0
   -7.9389   -3.6472  -14.2911 N   0  0  0  0  0  0  0  0  0  0  0  0
   -5.9579   -5.0732  -11.5591 N   0  0  0  0  0  0  0  0  0  0  0  0
   -5.2792   -4.5575  -10.0779 C   0  0  0  0  0  0  0  0  0  0  0  0
   -3.9816   -4.8581   -9.9568 O   0  0  0  0  0  0  0  0  0  0  0  0
   -6.2652   -4.1064   -8.4749 C   0  0  2  0  0  0  0  0  0  0  0  0
   -7.9063   -3.5293   -8.3018 C   0  0  0  0  0  0  0  0  0  0  0  0
   -5.4717   -3.4653   -7.4884 N   0  0  0  0  0  0  0  0  0  0  0  0
   -5.1703   -3.9112   -6.2473 C   0  0  0  0  0  0  0  0  0  0  0  0
   -4.1988   -3.3471   -5.7116 O   0  0  0  0  0  0  0  0  0  0  0  0
   -5.9927   -5.0992   -5.5243 C   0  0  1  0  0  0  0  0  0  0  0  0
   -7.4732   -4.6861   -5.4101 C   0  0  0  0  0  0  0  0  0  0  0  0
   -5.9121   -6.5494   -5.7885 O   0  0  0  0  0  0  0  0  0  0  0  0
   -6.3593   -6.9364   -7.1090 C   0  0  2  0  0  0  0  0  0  0  0  0
   -7.0797   -8.2546   -7.4837 C   0  0  2  0  0  0  0  0  0  0  0  0
   -7.2630   -9.0324   -6.2427 C   0  0  0  0  0  0  0  0  0  0  0  0
   -6.8400  -10.1731   -6.1102 O   0  0  0  0  0  0  0  0  0  0  0  0
   -6.8331   -9.1385   -8.6963 N   0  0  0  0  0  0  0  0  0  0  0  0
   -5.8959   -9.4020   -9.6855 C   0  0  0  0  0  0  0  0  0  0  0  0
   -6.3726   -9.8664  -10.7332 O   0  0  0  0  0  0  0  0  0  0  0  0
   -4.4186   -8.9636   -9.6680 C   0  0  0  0  0  0  0  0  0  0  0  0
   -5.2689   -6.7303   -8.1293 C   0  0  1  0  0  0  0  0  0  0  0  0
   -6.0017   -6.6910   -9.6635 C   0  0  1  0  0  0  0  0  0  0  0  0
   -7.3021   -5.7719   -9.7866 C   0  0  0  0  0  0  0  0  0  0  0  0
   -7.3237   -4.3624  -10.1762 O   0  0  0  0  0  0  0  0  0  0  0  0
   -5.1289   -6.9297  -10.8921 O   0  0  0  0  0  0  0  0  0  0  0  0
   -4.2855   -5.7889   -7.6814 O   0  0  0  0  0  0  0  0  0  0  0  0
   -5.6964    5.1687   -8.2280 O   0  0  0  0  0  0  0  0  0  0  0  0
   -5.6495    5.8390   -9.3886 C   0  0  0  0  0  0  0  0  0  0  0  0
   -6.3763    5.6398  -10.3927 O   0  0  0  0  0  0  0  0  0  0  0  0
   -5.0300    7.1623   -9.4673 C   0  0  0  0  0  0  0  0  0  0  0  0
   -6.3113    7.9639   -9.3419 C   0  0  0  0  0  0  0  0  0  0  0  0
   -6.8490    7.6937   -7.9394 C   0  0  0  0  0  0  0  0  0  0  0  0
   -5.7053    7.9787   -6.9553 C   0  0  0  0  0  0  0  0  0  0  0  0
   -5.2709    9.4302   -7.1675 C   0  0  0  0  0  0  0  0  0  0  0  0
   -6.4964   10.3154   -6.9450 C   0  0  0  0  0  0  0  0  0  0  0  0
   -7.0243   10.0639   -5.5304 C   0  0  0  0  0  0  0  0  0  0  0  0
   -5.9223   10.4064   -4.5256 C   0  0  0  0  0  0  0  0  0  0  0  0
   -5.5283   11.8750   -4.7005 C   0  0  0  0  0  0  0  0  0  0  0  0
   -6.7545   12.7596   -4.4606 C   0  0  0  0  0  0  0  0  0  0  0  0
   -7.2800   12.5291   -3.0412 C   0  0  0  0  0  0  0  0  0  0  0  0
   -6.1920   12.8807   -2.0208 C   0  0  0  0  0  0  0  0  0  0  0  0
   -5.7936   14.3549   -2.1498 C   0  0  0  0  0  0  0  0  0  0  0  0
   -6.9985   15.2690   -1.9258 C   0  0  0  0  0  0  0  0  0  0  0  0
   -7.5697   15.0511   -0.5345 C   0  0  0  0  0  0  0  0  0  0  0  0
    0.8362    0.0515    0.0498 O   0  0  0  0  0  0  0  0  0  0  0  0
    2.0491   -0.5781    1.6459 Na  0  3  0  0  0  0  0  0  0  0  0  0
    6.8651    8.0213   -9.0093 H   0  0  0  0  0  0  0  0  0  0  0  0
    7.7744    9.3737   -9.6526 H   0  0  0  0  0  0  0  0  0  0  0  0
    8.2649    7.7032  -10.0431 H   0  0  0  0  0  0  0  0  0  0  0  0
    5.7121    9.0904  -10.9946 H   0  0  0  0  0  0  0  0  0  0  0  0
    7.1082    8.7814  -11.9889 H   0  0  0  0  0  0  0  0  0  0  0  0
    5.4627    7.0012  -12.3811 H   0  0  0  0  0  0  0  0  0  0  0  0
    6.8818    6.3114  -11.6512 H   0  0  0  0  0  0  0  0  0  0  0  0
    4.8969    5.4035  -10.5187 H   0  0  0  0  0  0  0  0  0  0  0  0
    5.7977    6.3178   -9.3811 H   0  0  0  0  0  0  0  0  0  0  0  0
    3.4577    6.9747   -9.1415 H   0  0  0  0  0  0  0  0  0  0  0  0
    4.3020    8.3467   -9.7229 H   0  0  0  0  0  0  0  0  0  0  0  0
    2.2868    8.1063  -11.0867 H   0  0  0  0  0  0  0  0  0  0  0  0
    3.6276    7.8436  -12.1200 H   0  0  0  0  0  0  0  0  0  0  0  0
    2.0313    6.0370  -12.5362 H   0  0  0  0  0  0  0  0  0  0  0  0
    3.4322    5.3225  -11.8682 H   0  0  0  0  0  0  0  0  0  0  0  0
    1.5195    4.4085  -10.6500 H   0  0  0  0  0  0  0  0  0  0  0  0
    2.4245    5.3240   -9.5301 H   0  0  0  0  0  0  0  0  0  0  0  0
    0.0827    5.9914   -9.2732 H   0  0  0  0  0  0  0  0  0  0  0  0
    0.9276    7.3596   -9.8473 H   0  0  0  0  0  0  0  0  0  0  0  0
   -1.0700    7.1208  -11.2391 H   0  0  0  0  0  0  0  0  0  0  0  0
    0.2670    6.8733  -12.2585 H   0  0  0  0  0  0  0  0  0  0  0  0
   -1.2683    5.0265  -12.6923 H   0  0  0  0  0  0  0  0  0  0  0  0
    0.1198    4.3310  -12.0156 H   0  0  0  0  0  0  0  0  0  0  0  0
   -1.7931    3.4121  -10.7922 H   0  0  0  0  0  0  0  0  0  0  0  0
   -0.9052    4.3353   -9.6662 H   0  0  0  0  0  0  0  0  0  0  0  0
   -3.1913    5.0555   -9.4606 H   0  0  0  0  0  0  0  0  0  0  0  0
   -2.3816    6.3865  -10.0675 H   0  0  0  0  0  0  0  0  0  0  0  0
   -4.3648    6.0118  -11.6324 H   0  0  0  0  0  0  0  0  0  0  0  0
   -2.9594    5.8210  -12.4966 H   0  0  0  0  0  0  0  0  0  0  0  0
   -4.5913    4.0132  -12.8370 H   0  0  0  0  0  0  0  0  0  0  0  0
   -3.1716    3.2255  -12.2124 H   0  0  0  0  0  0  0  0  0  0  0  0
   -5.0265    1.9512   -8.0174 H   0  0  0  0  0  0  0  0  0  0  0  0
   -4.1731    3.2679   -7.4866 H   0  0  0  0  0  0  0  0  0  0  0  0
   -6.5318    3.6304   -7.1115 H   0  0  0  0  0  0  0  0  0  0  0  0
   -8.3507    3.5285   -8.4627 H   0  0  0  0  0  0  0  0  0  0  0  0
   -7.6153    3.8504   -9.9161 H   0  0  0  0  0  0  0  0  0  0  0  0
   -5.0899   -0.1439  -12.0985 H   0  0  0  0  0  0  0  0  0  0  0  0
   -3.5370   -0.6743  -11.6041 H   0  0  0  0  0  0  0  0  0  0  0  0
   -4.6784   -2.4334  -10.7982 H   0  0  0  0  0  0  0  0  0  0  0  0
   -4.3834   -1.5420   -9.3822 H   0  0  0  0  0  0  0  0  0  0  0  0
   -6.6210   -0.8835   -9.1482 H   0  0  0  0  0  0  0  0  0  0  0  0
   -8.4110   -3.0310  -11.0486 H   0  0  0  0  0  0  0  0  0  0  0  0
   -6.3065   -2.8035  -13.1914 H   0  0  0  0  0  0  0  0  0  0  0  0
   -6.2266   -1.3967  -12.4558 H   0  0  0  0  0  0  0  0  0  0  0  0
   -5.9872   -2.9803  -11.6996 H   0  0  0  0  0  0  0  0  0  0  0  0
   -9.2966   -1.4314  -13.0132 H   0  0  0  0  0  0  0  0  0  0  0  0
  -10.2178   -4.4585  -10.7965 H   0  0  0  0  0  0  0  0  0  0  0  0
  -11.0936   -5.1865  -12.1034 H   0  0  0  0  0  0  0  0  0  0  0  0
   -9.1575   -6.5338  -11.4481 H   0  0  0  0  0  0  0  0  0  0  0  0
   -9.1473   -6.2559  -13.1542 H   0  0  0  0  0  0  0  0  0  0  0  0
   -7.9914   -4.3483  -11.7881 H   0  0  0  0  0  0  0  0  0  0  0  0
   -8.6116   -3.2187  -13.6822 H   0  0  0  0  0  0  0  0  0  0  0  0
   -7.4034   -2.8210  -14.5517 H   0  0  0  0  0  0  0  0  0  0  0  0
   -5.5780   -5.9353  -11.9633 H   0  0  0  0  0  0  0  0  0  0  0  0
   -6.5273   -5.0053   -7.9614 H   0  0  0  0  0  0  0  0  0  0  0  0
   -7.9262   -2.5705   -7.8227 H   0  0  0  0  0  0  0  0  0  0  0  0
   -8.4454   -3.3256   -9.2211 H   0  0  0  0  0  0  0  0  0  0  0  0
   -8.6889   -4.2699   -8.0576 H   0  0  0  0  0  0  0  0  0  0  0  0
   -4.8719   -2.7758   -7.9022 H   0  0  0  0  0  0  0  0  0  0  0  0
   -5.6005   -5.0163   -4.5010 H   0  0  0  0  0  0  0  0  0  0  0  0
   -8.0154   -4.7445   -6.3453 H   0  0  0  0  0  0  0  0  0  0  0  0
   -8.0203   -5.3811   -4.7720 H   0  0  0  0  0  0  0  0  0  0  0  0
   -7.5872   -3.6510   -5.0817 H   0  0  0  0  0  0  0  0  0  0  0  0
   -7.2406   -6.3207   -7.1582 H   0  0  0  0  0  0  0  0  0  0  0  0
   -8.0923   -7.8791   -7.7546 H   0  0  0  0  0  0  0  0  0  0  0  0
   -7.8043   -8.4936   -5.4458 H   0  0  0  0  0  0  0  0  0  0  0  0
   -7.7169   -9.5164   -9.0333 H   0  0  0  0  0  0  0  0  0  0  0  0
   -4.2560   -7.9135   -9.5582 H   0  0  0  0  0  0  0  0  0  0  0  0
   -3.8547   -9.2369   -8.7920 H   0  0  0  0  0  0  0  0  0  0  0  0
   -3.9513   -8.9972  -10.6610 H   0  0  0  0  0  0  0  0  0  0  0  0
   -4.6302   -7.5733   -7.9206 H   0  0  0  0  0  0  0  0  0  0  0  0
   -6.6302   -7.5246   -9.8899 H   0  0  0  0  0  0  0  0  0  0  0  0
   -7.7335   -6.2741  -10.6011 H   0  0  0  0  0  0  0  0  0  0  0  0
   -8.0814   -5.8877   -9.0495 H   0  0  0  0  0  0  0  0  0  0  0  0
   -6.7019   -3.5381  -10.1015 H   0  0  0  0  0  0  0  0  0  0  0  0
   -4.3403   -6.3240  -10.9198 H   0  0  0  0  0  0  0  0  0  0  0  0
   -4.1873   -4.9667   -8.1914 H   0  0  0  0  0  0  0  0  0  0  0  0
   -4.1707    7.3176   -8.8118 H   0  0  0  0  0  0  0  0  0  0  0  0
   -4.6401    7.3842  -10.4559 H   0  0  0  0  0  0  0  0  0  0  0  0
   -6.1152    9.0033   -9.5899 H   0  0  0  0  0  0  0  0  0  0  0  0
   -7.0613    7.6541  -10.0875 H   0  0  0  0  0  0  0  0  0  0  0  0
   -7.7577    8.2701   -7.7844 H   0  0  0  0  0  0  0  0  0  0  0  0
   -7.2221    6.6746   -7.8024 H   0  0  0  0  0  0  0  0  0  0  0  0
   -6.0217    7.7427   -5.9407 H   0  0  0  0  0  0  0  0  0  0  0  0
   -4.8340    7.3243   -7.0590 H   0  0  0  0  0  0  0  0  0  0  0  0
   -4.4327    9.6684   -6.5107 H   0  0  0  0  0  0  0  0  0  0  0  0
   -4.8541    9.6184   -8.1626 H   0  0  0  0  0  0  0  0  0  0  0  0
   -6.2411   11.3583   -7.1345 H   0  0  0  0  0  0  0  0  0  0  0  0
   -7.2907   10.1340   -7.6739 H   0  0  0  0  0  0  0  0  0  0  0  0
   -7.9408   10.6346   -5.3721 H   0  0  0  0  0  0  0  0  0  0  0  0
   -7.3577    9.0339   -5.3742 H   0  0  0  0  0  0  0  0  0  0  0  0
   -6.2615   10.1768   -3.5132 H   0  0  0  0  0  0  0  0  0  0  0  0
   -5.0386    9.7711   -4.6345 H   0  0  0  0  0  0  0  0  0  0  0  0
   -4.6993   12.1174   -4.0321 H   0  0  0  0  0  0  0  0  0  0  0  0
   -5.1113   12.0817   -5.6902 H   0  0  0  0  0  0  0  0  0  0  0  0
   -6.4977   13.8054   -4.6443 H   0  0  0  0  0  0  0  0  0  0  0  0
   -7.5524   12.5689   -5.1851 H   0  0  0  0  0  0  0  0  0  0  0  0
   -8.1950   13.1062   -2.8881 H   0  0  0  0  0  0  0  0  0  0  0  0
   -7.6093   11.4966   -2.8867 H   0  0  0  0  0  0  0  0  0  0  0  0
   -6.5397   12.6420   -1.0134 H   0  0  0  0  0  0  0  0  0  0  0  0
   -5.3053   12.2489   -2.1373 H   0  0  0  0  0  0  0  0  0  0  0  0
   -4.9988   14.5854   -1.4347 H   0  0  0  0  0  0  0  0  0  0  0  0
   -5.3581   14.5602   -3.1355 H   0  0  0  0  0  0  0  0  0  0  0  0
   -6.7004   16.3121   -2.0586 H   0  0  0  0  0  0  0  0  0  0  0  0
   -7.7781   15.0913   -2.6763 H   0  0  0  0  0  0  0  0  0  0  0  0
   -6.8024   15.2620    0.2160 H   0  0  0  0  0  0  0  0  0  0  0  0
   -8.4332   15.6939   -0.3650 H   0  0  0  0  0  0  0  0  0  0  0  0
   -7.9114   14.0216   -0.3847 H   0  0  0  0  0  0  0  0  0  0  0  0
    0.1810   -0.6351   -0.1993 H   0  0  0  0  0  0  0  0  0  0  0  0
    1.3529    0.1571   -0.7771 H   0  0  0  0  0  0  0  0  0  0  0  0
  1  2  1  0  0  0  0
  1 88  1  0  0  0  0
  1 89  1  0  0  0  0
  1 90  1  0  0  0  0
  2  3  1  0  0  0  0
  2 91  1  0  0  0  0
  2 92  1  0  0  0  0
  3  4  1  0  0  0  0
  3 93  1  0  0  0  0
  3 94  1  0  0  0  0
  4  5  1  0  0  0  0
  4 95  1  0  0  0  0
  4 96  1  0  0  0  0
  5  6  1  0  0  0  0
  5 97  1  0  0  0  0
  5 98  1  0  0  0  0
  6  7  1  0  0  0  0
  6 99  1  0  0  0  0
  6100  1  0  0  0  0
  7  8  1  0  0  0  0
  7101  1  0  0  0  0
  7102  1  0  0  0  0
  8  9  1  0  0  0  0
  8103  1  0  0  0  0
  8104  1  0  0  0  0
  9 10  1  0  0  0  0
  9105  1  0  0  0  0
  9106  1  0  0  0  0
 10 11  1  0  0  0  0
 10107  1  0  0  0  0
 10108  1  0  0  0  0
 11 12  1  0  0  0  0
 11109  1  0  0  0  0
 11110  1  0  0  0  0
 12 13  1  0  0  0  0
 12111  1  0  0  0  0
 12112  1  0  0  0  0
 13 14  1  0  0  0  0
 13113  1  0  0  0  0
 13114  1  0  0  0  0
 14 15  1  0  0  0  0
 14115  1  0  0  0  0
 14116  1  0  0  0  0
 15 16  1  0  0  0  0
 15117  1  0  0  0  0
 15118  1  0  0  0  0
 16 17  2  0  0  0  0
 16 18  1  0  0  0  0
 18 19  1  0  0  0  0
 19119  1  0  0  0  0
 19120  1  0  0  0  0
 20 68  1  0  0  0  0
 20121  1  1  0  0  0
 20 21  1  0  0  0  0
 20 19  1  0  0  0  0
 21 22  1  0  0  0  0
 21122  1  0  0  0  0
 21123  1  0  0  0  0
 22 23  1  0  0  0  0
 23 24  2  0  0  0  0
 23 25  1  0  0  0  0
 23 26  1  0  0  0  0
 26 27  1  0  0  0  0
 27 28  1  0  0  0  0
 27124  1  0  0  0  0
 27125  1  0  0  0  0
 28 29  1  0  0  0  0
 28126  1  0  0  0  0
 28127  1  0  0  0  0
 29 30  1  0  0  0  0
 29128  1  0  0  0  0
 30 31  2  0  0  0  0
 32 34  1  0  0  0  0
 32129  1  1  0  0  0
 32 33  1  0  0  0  0
 32 30  1  0  0  0  0
 33130  1  0  0  0  0
 33131  1  0  0  0  0
 33132  1  0  0  0  0
 34 35  1  0  0  0  0
 34133  1  0  0  0  0
 35 36  2  0  0  0  0
 35 37  1  0  0  0  0
 37 38  1  0  0  0  0
 37134  1  0  0  0  0
 37135  1  0  0  0  0
 38136  1  0  0  0  0
 38137  1  0  0  0  0
 39 43  1  0  0  0  0
 39138  1  1  0  0  0
 39 40  1  0  0  0  0
 39 38  1  0  0  0  0
 40 41  2  0  0  0  0
 40 42  1  0  0  0  0
 42139  1  0  0  0  0
 42140  1  0  0  0  0
 43 44  1  0  0  0  0
 43141  1  0  0  0  0
 44 45  2  0  0  0  0
 46 48  1  0  0  0  0
 46142  1  1  0  0  0
 46 47  1  0  0  0  0
 46 44  1  0  0  0  0
 47143  1  0  0  0  0
 47144  1  0  0  0  0
 47145  1  0  0  0  0
 48 49  1  0  0  0  0
 48146  1  0  0  0  0
 49 50  2  0  0  0  0
 49 51  1  0  0  0  0
 51 52  1  0  0  0  0
 51 53  1  0  0  0  0
 51147  1  1  0  0  0
 52148  1  0  0  0  0
 52149  1  0  0  0  0
 52150  1  0  0  0  0
 54 62  1  0  0  0  0
 54151  1  6  0  0  0
 54 55  1  0  0  0  0
 54 53  1  0  0  0  0
 55152  1  6  0  0  0
 55 58  1  0  0  0  0
 55 56  1  0  0  0  0
 56 57  2  0  0  0  0
 56153  1  0  0  0  0
 58 59  1  0  0  0  0
 58154  1  0  0  0  0
 59 60  2  0  0  0  0
 59 61  1  0  0  0  0
 61155  1  0  0  0  0
 61156  1  0  0  0  0
 61157  1  0  0  0  0
 62 63  1  0  0  0  0
 62 67  1  0  0  0  0
 62158  1  1  0  0  0
 63 64  1  0  0  0  0
 63 66  1  0  0  0  0
 63159  1  1  0  0  0
 64 65  1  0  0  0  0
 64160  1  0  0  0  0
 64161  1  0  0  0  0
 65162  1  0  0  0  0
 66163  1  0  0  0  0
 67164  1  0  0  0  0
 68 69  1  0  0  0  0
 69 70  2  0  0  0  0
 69 71  1  0  0  0  0
 71 72  1  0  0  0  0
 71165  1  0  0  0  0
 71166  1  0  0  0  0
 72 73  1  0  0  0  0
 72167  1  0  0  0  0
 72168  1  0  0  0  0
 73 74  1  0  0  0  0
 73169  1  0  0  0  0
 73170  1  0  0  0  0
 74 75  1  0  0  0  0
 74171  1  0  0  0  0
 74172  1  0  0  0  0
 75 76  1  0  0  0  0
 75173  1  0  0  0  0
 75174  1  0  0  0  0
 76 77  1  0  0  0  0
 76175  1  0  0  0  0
 76176  1  0  0  0  0
 77 78  1  0  0  0  0
 77177  1  0  0  0  0
 77178  1  0  0  0  0
 78 79  1  0  0  0  0
 78179  1  0  0  0  0
 78180  1  0  0  0  0
 79 80  1  0  0  0  0
 79181  1  0  0  0  0
 79182  1  0  0  0  0
 80 81  1  0  0  0  0
 80183  1  0  0  0  0
 80184  1  0  0  0  0
 81 82  1  0  0  0  0
 81185  1  0  0  0  0
 81186  1  0  0  0  0
 82 83  1  0  0  0  0
 82187  1  0  0  0  0
 82188  1  0  0  0  0
 83 84  1  0  0  0  0
 83189  1  0  0  0  0
 83190  1  0  0  0  0
 84 85  1  0  0  0  0
 84191  1  0  0  0  0
 84192  1  0  0  0  0
 85193  1  0  0  0  0
 85194  1  0  0  0  0
 85195  1  0  0  0  0
 86196  1  0  0  0  0
 86197  1  0  0  0  0
M  CHG  2  25  -1  87   1
M  END
>  <DRUGBANK_ID>
DB13615

>  <COMMON_NAME>
Mifamurtide

>  <CAS_NUMBER>
83461-56-7

>  <UNII>
1LM890Q4FY

>  <SYNONYMS>
Mifamurtida; Mifamurtide

$$$$
