
 OpenBabel10282417213D

 48 49  0  0  0  0  0  0  0  0999 V2000
    1.0992   -0.0829    0.1021 O   0  0  0  0  0  0  0  0  0  0  0  0
   -5.8629    7.5227    7.0755 O   0  0  0  0  0  0  0  0  0  0  0  0
    3.0666   -0.7803   -0.7908 O   0  0  0  0  0  0  0  0  0  0  0  0
   -5.5829    9.3641    5.6214 O   0  0  0  0  0  0  0  0  0  0  0  0
   -1.6568    3.9774    3.0954 C   0  0  0  0  0  0  0  0  0  0  0  0
   -2.8215    3.7244    4.0879 C   0  0  0  0  0  0  0  0  0  0  0  0
   -1.0909    2.9167    2.1407 C   0  0  0  0  0  0  0  0  0  0  0  0
   -3.4599    4.7858    4.9295 C   0  0  0  0  0  0  0  0  0  0  0  0
   -0.1339    3.2096    1.1738 C   0  0  0  0  0  0  0  0  0  0  0  0
   -3.8227    5.9939    4.3556 C   0  0  0  0  0  0  0  0  0  0  0  0
   -1.4620    1.5660    2.0990 C   0  0  0  0  0  0  0  0  0  0  0  0
   -3.8507    4.5458    6.2653 C   0  0  0  0  0  0  0  0  0  0  0  0
    0.3834    0.9142    0.7582 C   0  0  0  0  0  0  0  0  0  0  0  0
   -5.0704    6.6154    6.3320 C   0  0  0  0  0  0  0  0  0  0  0  0
   -1.0710    5.2173    3.1300 C   0  0  0  0  0  0  0  0  0  0  0  0
   -3.4284    2.5242    4.2547 C   0  0  0  0  0  0  0  0  0  0  0  0
    0.6044    2.2470    0.5027 C   0  0  0  0  0  0  0  0  0  0  0  0
   -4.5722    6.9117    5.0670 C   0  0  0  0  0  0  0  0  0  0  0  0
   -0.6947    0.5523    1.5228 C   0  0  0  0  0  0  0  0  0  0  0  0
   -4.7626    5.3878    6.9116 C   0  0  0  0  0  0  0  0  0  0  0  0
    2.4790   -0.0215   -0.0223 C   0  0  0  0  0  0  0  0  0  0  0  0
   -6.0151    8.8435    6.6581 C   0  0  0  0  0  0  0  0  0  0  0  0
    0.0687    5.9050    2.4205 C   0  0  0  0  0  0  0  0  0  0  0  0
   -4.6625    2.0514    4.9648 C   0  0  0  0  0  0  0  0  0  0  0  0
    3.2171    0.9655    0.8482 C   0  0  0  0  0  0  0  0  0  0  0  0
   -6.7776    9.6630    7.6318 C   0  0  0  0  0  0  0  0  0  0  0  0
    0.0440    4.2034    0.8059 H   0  0  0  0  0  0  0  0  0  0  0  0
   -3.5339    6.2615    3.3441 H   0  0  0  0  0  0  0  0  0  0  0  0
   -2.4434    1.2201    2.3636 H   0  0  0  0  0  0  0  0  0  0  0  0
   -3.5560    3.6166    6.7551 H   0  0  0  0  0  0  0  0  0  0  0  0
   -1.4498    5.9563    3.8322 H   0  0  0  0  0  0  0  0  0  0  0  0
   -2.9995    1.6328    3.8709 H   0  0  0  0  0  0  0  0  0  0  0  0
    1.3348    2.5914   -0.2169 H   0  0  0  0  0  0  0  0  0  0  0  0
   -4.7669    7.8333    4.5430 H   0  0  0  0  0  0  0  0  0  0  0  0
   -1.0053   -0.4818    1.6323 H   0  0  0  0  0  0  0  0  0  0  0  0
   -5.2366    5.0464    7.8286 H   0  0  0  0  0  0  0  0  0  0  0  0
   -0.3161    6.5910    1.6543 H   0  0  0  0  0  0  0  0  0  0  0  0
    0.6627    6.4771    3.1363 H   0  0  0  0  0  0  0  0  0  0  0  0
    0.8249    5.2639    1.9843 H   0  0  0  0  0  0  0  0  0  0  0  0
   -5.3530    1.6117    4.2392 H   0  0  0  0  0  0  0  0  0  0  0  0
   -4.3612    1.2729    5.6730 H   0  0  0  0  0  0  0  0  0  0  0  0
   -5.2341    2.8052    5.4969 H   0  0  0  0  0  0  0  0  0  0  0  0
    3.1109    1.9955    0.5046 H   0  0  0  0  0  0  0  0  0  0  0  0
    2.9118    0.8694    1.8934 H   0  0  0  0  0  0  0  0  0  0  0  0
    4.2850    0.7531    0.7813 H   0  0  0  0  0  0  0  0  0  0  0  0
   -7.7771    9.2561    7.7827 H   0  0  0  0  0  0  0  0  0  0  0  0
   -6.2204    9.7671    8.5638 H   0  0  0  0  0  0  0  0  0  0  0  0
   -6.8815   10.6611    7.1875 H   0  0  0  0  0  0  0  0  0  0  0  0
  1 13  1  0  0  0  0
  1 21  1  0  0  0  0
  2 14  1  0  0  0  0
  2 22  1  0  0  0  0
  3 21  2  0  0  0  0
  4 22  2  0  0  0  0
  5  6  1  0  0  0  0
  5  7  1  0  0  0  0
  5 15  2  0  0  0  0
  6  8  1  0  0  0  0
  6 16  2  0  0  0  0
  7  9  2  0  0  0  0
  7 11  1  0  0  0  0
  8 10  2  0  0  0  0
  8 12  1  0  0  0  0
  9 17  1  0  0  0  0
  9 27  1  0  0  0  0
 10 18  1  0  0  0  0
 10 28  1  0  0  0  0
 11 19  2  0  0  0  0
 11 29  1  0  0  0  0
 12 20  2  0  0  0  0
 12 30  1  0  0  0  0
 13 17  2  0  0  0  0
 13 19  1  0  0  0  0
 14 18  2  0  0  0  0
 14 20  1  0  0  0  0
 15 23  1  0  0  0  0
 15 31  1  0  0  0  0
 16 24  1  0  0  0  0
 16 32  1  0  0  0  0
 17 33  1  0  0  0  0
 18 34  1  0  0  0  0
 19 35  1  0  0  0  0
 20 36  1  0  0  0  0
 21 25  1  0  0  0  0
 22 26  1  0  0  0  0
 23 37  1  0  0  0  0
 23 38  1  0  0  0  0
 23 39  1  0  0  0  0
 24 40  1  0  0  0  0
 24 41  1  0  0  0  0
 24 42  1  0  0  0  0
 25 43  1  0  0  0  0
 25 44  1  0  0  0  0
 25 45  1  0  0  0  0
 26 46  1  0  0  0  0
 26 47  1  0  0  0  0
 26 48  1  0  0  0  0
M  END
>  <DRUGBANK_ID>
DB14668

>  <SECONDARY_ACCESSION_NUMBERS>
DBSALT002243

>  <COMMON_NAME>
Dienestrol diacetate

>  <CAS_NUMBER>
24705-61-1

>  <UNII>
D20D148WPQ

>  <SYNONYMS>
Dienestrol acetate; Lipamone

$$$$
