
 OpenBabel10282417123D

 15 14  0  0  1  0  0  0  0  0999 V2000
    0.8922   -0.0585    0.0338 N   0  0  0  0  0  0  0  0  0  0  0  0
    0.3804    0.3667    1.3566 C   0  0  1  0  0  0  0  0  0  0  0  0
    0.9174    1.7508    1.7683 C   0  0  0  0  0  0  0  0  0  0  0  0
    0.4646    3.1906    0.7217 S   0  0  0  0  0  0  0  0  0  0  0  0
    0.9773    2.6773   -0.7759 O   0  0  0  0  0  0  0  0  0  0  0  0
   -1.1608    0.3508    1.3570 C   0  0  0  0  0  0  0  0  0  0  0  0
   -1.7237   -0.5225    2.2263 O   0  0  0  0  0  0  0  0  0  0  0  0
   -1.8619    1.0564    0.6394 O   0  0  0  0  0  0  0  0  0  0  0  0
    0.5930    0.6861   -0.6159 H   0  0  0  0  0  0  0  0  0  0  0  0
    1.9086    0.0482    0.0234 H   0  0  0  0  0  0  0  0  0  0  0  0
    0.7410   -0.3713    2.0849 H   0  0  0  0  0  0  0  0  0  0  0  0
    0.5725    1.9804    2.7823 H   0  0  0  0  0  0  0  0  0  0  0  0
    2.0131    1.7224    1.8045 H   0  0  0  0  0  0  0  0  0  0  0  0
    0.5589    3.2301   -1.4859 H   0  0  0  0  0  0  0  0  0  0  0  0
   -1.1090   -1.1228    2.6855 H   0  0  0  0  0  0  0  0  0  0  0  0
  1  9  1  0  0  0  0
  1 10  1  0  0  0  0
  2  1  1  0  0  0  0
  2  3  1  0  0  0  0
  2  6  1  0  0  0  0
  2 11  1  1  0  0  0
  3  4  1  0  0  0  0
  3 12  1  0  0  0  0
  3 13  1  0  0  0  0
  4  5  1  0  0  0  0
  5 14  1  0  0  0  0
  6  7  1  0  0  0  0
  6  8  2  0  0  0  0
  7 15  1  0  0  0  0
M  END
>  <DRUGBANK_ID>
DB01915

>  <SECONDARY_ACCESSION_NUMBERS>
EXPT01035; DB03398

>  <COMMON_NAME>
S-Hydroxycysteine

>  <UNII>
FB8KIA847T

$$$$
