
 OpenBabel10282417193D

101104  0  0  1  0  0  0  0  0999 V2000
   -0.0987   -4.8173   -2.5406 C   0  0  0  0  0  0  0  0  0  0  0  0
   -1.3395   -4.4138   -1.7416 C   0  0  0  0  0  0  0  0  0  0  0  0
   -1.9433   -3.0305   -1.8881 C   0  0  0  0  0  0  0  0  0  0  0  0
   -2.2381   -5.4035   -2.3906 C   0  0  0  0  0  0  0  0  0  0  0  0
   -2.4617   -6.4618   -1.8885 O   0  0  0  0  0  0  0  0  0  0  0  0
   -2.6154   -5.2644   -3.6792 N   0  0  0  0  0  0  0  0  0  0  0  0
   -2.4992   -4.5077   -4.9514 C   0  0  1  0  0  0  0  0  0  0  0  0
   -2.0150   -5.5133   -6.1205 C   0  0  0  0  0  0  0  0  0  0  0  0
   -2.9005   -6.5797   -6.9713 C   0  0  0  0  0  0  0  0  0  0  0  0
   -3.4376   -7.8622   -6.7099 C   0  0  0  0  0  0  0  0  0  0  0  0
   -4.5623   -7.9850   -7.5072 N   0  0  0  0  0  0  0  0  0  0  0  0
   -4.4463   -7.0229   -8.4649 C   0  0  0  0  0  0  0  0  0  0  0  0
   -3.4433   -6.1963   -8.2020 N   0  0  0  0  0  0  0  0  0  0  0  0
   -3.7035   -3.5506   -5.2598 C   0  0  0  0  0  0  0  0  0  0  0  0
   -3.5953   -2.3271   -5.1203 O   0  0  0  0  0  0  0  0  0  0  0  0
   -4.9576   -4.0327   -5.5240 N   0  0  0  0  0  0  0  0  0  0  0  0
   -5.2919   -5.4133   -5.8327 C   0  0  2  0  0  0  0  0  0  0  0  0
   -6.7039   -5.9405   -6.0140 C   0  0  0  0  0  0  0  0  0  0  0  0
   -7.5855   -4.9566   -6.6653 C   0  0  0  0  0  0  0  0  0  0  0  0
   -8.8975   -4.8258   -6.2275 C   0  0  0  0  0  0  0  0  0  0  0  0
   -9.6242   -3.7269   -6.6392 C   0  0  0  0  0  0  0  0  0  0  0  0
   -9.0266   -2.7575   -7.4615 C   0  0  0  0  0  0  0  0  0  0  0  0
   -9.7056   -1.6079   -7.8452 C   0  0  0  0  0  0  0  0  0  0  0  0
   -9.0793   -0.6566   -8.6550 C   0  0  0  0  0  0  0  0  0  0  0  0
   -7.7547   -0.8183   -9.0602 C   0  0  0  0  0  0  0  0  0  0  0  0
   -7.0586   -1.9543   -8.6857 C   0  0  0  0  0  0  0  0  0  0  0  0
   -7.7076   -2.9275   -7.9253 C   0  0  0  0  0  0  0  0  0  0  0  0
   -7.0336   -4.0743   -7.5945 C   0  0  0  0  0  0  0  0  0  0  0  0
   -4.7700   -6.2027   -4.7021 C   0  0  0  0  0  0  0  0  0  0  0  0
   -3.8784   -7.0347   -4.6288 O   0  0  0  0  0  0  0  0  0  0  0  0
   -5.0643   -5.9226   -3.4705 N   0  0  0  0  0  0  0  0  0  0  0  0
   -5.5234   -4.8277   -2.7295 C   0  0  2  0  0  0  0  0  0  0  0  0
   -5.2329   -5.1948   -1.2659 C   0  0  0  0  0  0  0  0  0  0  0  0
   -4.8659   -6.6743   -0.8244 C   0  0  0  0  0  0  0  0  0  0  0  0
   -4.7578   -6.8941    0.5243 C   0  0  0  0  0  0  0  0  0  0  0  0
   -4.5645   -8.2063    0.9829 C   0  0  0  0  0  0  0  0  0  0  0  0
   -4.4630   -9.3254    0.1335 C   0  0  0  0  0  0  0  0  0  0  0  0
   -4.5061   -9.1579   -1.2106 C   0  0  0  0  0  0  0  0  0  0  0  0
   -4.6373   -7.8613   -1.6406 C   0  0  0  0  0  0  0  0  0  0  0  0
   -6.9728   -4.7238   -3.1574 C   0  0  0  0  0  0  0  0  0  0  0  0
   -7.3833   -3.7202   -3.7389 O   0  0  0  0  0  0  0  0  0  0  0  0
   -7.7993   -5.8209   -3.0323 N   0  0  0  0  0  0  0  0  0  0  0  0
   -7.4155   -7.1546   -2.5713 C   0  0  1  0  0  0  0  0  0  0  0  0
   -7.9748   -7.3492   -1.1568 C   0  0  0  0  0  0  0  0  0  0  0  0
   -9.4682   -7.5552   -1.2393 C   0  0  0  0  0  0  0  0  0  0  0  0
   -9.7343   -8.8943   -1.9013 C   0  0  0  0  0  0  0  0  0  0  0  0
   -9.1104  -10.1352   -1.3062 C   0  0  0  0  0  0  0  0  0  0  0  0
   -9.7685  -10.3441   -0.0469 N   0  0  0  0  0  0  0  0  0  0  0  0
   -7.2537   -8.3427   -3.6331 C   0  0  0  0  0  0  0  0  0  0  0  0
   -6.3834   -9.2110   -3.6157 O   0  0  0  0  0  0  0  0  0  0  0  0
   -8.2604   -8.5414   -4.5391 N   0  0  0  0  0  0  0  0  0  0  0  0
   -1.1851   -4.7655   -0.3186 N   0  0  0  0  0  0  0  0  0  0  0  0
   -0.2468   -4.7233   -3.6223 H   0  0  0  0  0  0  0  0  0  0  0  0
    0.0922   -5.9018   -2.4159 H   0  0  0  0  0  0  0  0  0  0  0  0
    0.7785   -4.2504   -2.2741 H   0  0  0  0  0  0  0  0  0  0  0  0
   -2.2524   -2.8000   -2.9073 H   0  0  0  0  0  0  0  0  0  0  0  0
   -2.8687   -2.9346   -1.2992 H   0  0  0  0  0  0  0  0  0  0  0  0
   -1.2393   -2.2661   -1.5698 H   0  0  0  0  0  0  0  0  0  0  0  0
   -2.8362   -6.2240   -3.9001 H   0  0  0  0  0  0  0  0  0  0  0  0
   -1.6837   -3.7956   -4.7561 H   0  0  0  0  0  0  0  0  0  0  0  0
   -1.5832   -4.8359   -6.8607 H   0  0  0  0  0  0  0  0  0  0  0  0
   -1.2064   -6.0949   -5.6593 H   0  0  0  0  0  0  0  0  0  0  0  0
   -3.4228   -8.5343   -5.8511 H   0  0  0  0  0  0  0  0  0  0  0  0
   -5.4017   -8.5139   -7.2690 H   0  0  0  0  0  0  0  0  0  0  0  0
   -5.2107   -6.8906   -9.2197 H   0  0  0  0  0  0  0  0  0  0  0  0
   -5.5989   -3.3037   -5.8194 H   0  0  0  0  0  0  0  0  0  0  0  0
   -4.8477   -5.5095   -6.7845 H   0  0  0  0  0  0  0  0  0  0  0  0
   -6.7354   -6.8962   -6.5445 H   0  0  0  0  0  0  0  0  0  0  0  0
   -7.1080   -6.2231   -5.0624 H   0  0  0  0  0  0  0  0  0  0  0  0
   -9.3224   -5.5239   -5.5140 H   0  0  0  0  0  0  0  0  0  0  0  0
  -10.6384   -3.6085   -6.2746 H   0  0  0  0  0  0  0  0  0  0  0  0
  -10.7281   -1.4533   -7.5184 H   0  0  0  0  0  0  0  0  0  0  0  0
   -9.6332    0.2203   -8.9692 H   0  0  0  0  0  0  0  0  0  0  0  0
   -7.2659   -0.0681   -9.6734 H   0  0  0  0  0  0  0  0  0  0  0  0
   -6.0171   -2.0735   -8.9821 H   0  0  0  0  0  0  0  0  0  0  0  0
   -6.0140   -4.2018   -7.9546 H   0  0  0  0  0  0  0  0  0  0  0  0
   -4.2647   -6.2984   -2.9938 H   0  0  0  0  0  0  0  0  0  0  0  0
   -4.9596   -3.9442   -3.0397 H   0  0  0  0  0  0  0  0  0  0  0  0
   -4.4062   -4.5499   -0.9441 H   0  0  0  0  0  0  0  0  0  0  0  0
   -6.1083   -4.8523   -0.7100 H   0  0  0  0  0  0  0  0  0  0  0  0
   -4.8122   -6.0527    1.2056 H   0  0  0  0  0  0  0  0  0  0  0  0
   -4.4905   -8.3675    2.0465 H   0  0  0  0  0  0  0  0  0  0  0  0
   -4.3135  -10.3288    0.5007 H   0  0  0  0  0  0  0  0  0  0  0  0
   -4.4548   -9.9538   -1.9549 H   0  0  0  0  0  0  0  0  0  0  0  0
   -4.5947   -7.9214   -2.7235 H   0  0  0  0  0  0  0  0  0  0  0  0
   -8.6801   -5.7144   -3.5007 H   0  0  0  0  0  0  0  0  0  0  0  0
   -6.4086   -7.0461   -2.3541 H   0  0  0  0  0  0  0  0  0  0  0  0
   -7.4722   -8.1569   -0.6136 H   0  0  0  0  0  0  0  0  0  0  0  0
   -7.7743   -6.4519   -0.5519 H   0  0  0  0  0  0  0  0  0  0  0  0
   -9.9386   -7.4616   -0.2600 H   0  0  0  0  0  0  0  0  0  0  0  0
   -9.8794   -6.7516   -1.8643 H   0  0  0  0  0  0  0  0  0  0  0  0
  -10.7508   -8.9975   -2.2798 H   0  0  0  0  0  0  0  0  0  0  0  0
   -9.1833   -8.8653   -2.7874 H   0  0  0  0  0  0  0  0  0  0  0  0
   -9.2236  -10.9707   -2.0084 H   0  0  0  0  0  0  0  0  0  0  0  0
   -8.0236  -10.0300   -1.1764 H   0  0  0  0  0  0  0  0  0  0  0  0
   -9.3052  -11.1027    0.4426 H   0  0  0  0  0  0  0  0  0  0  0  0
   -9.6267   -9.5086    0.5207 H   0  0  0  0  0  0  0  0  0  0  0  0
   -9.1302   -8.0519   -4.3779 H   0  0  0  0  0  0  0  0  0  0  0  0
   -8.3907   -9.5492   -4.6547 H   0  0  0  0  0  0  0  0  0  0  0  0
   -0.5444   -4.1421    0.1560 H   0  0  0  0  0  0  0  0  0  0  0  0
   -2.0875   -4.7504    0.1577 H   0  0  0  0  0  0  0  0  0  0  0  0
  1  2  1  0  0  0  0
  1 53  1  0  0  0  0
  1 54  1  0  0  0  0
  1 55  1  0  0  0  0
  2  3  1  0  0  0  0
  2  4  1  0  0  0  0
  2 52  1  0  0  0  0
  3 56  1  0  0  0  0
  3 57  1  0  0  0  0
  3 58  1  0  0  0  0
  4  5  2  0  0  0  0
  4  6  1  0  0  0  0
  6 59  1  0  0  0  0
  7  6  1  0  0  0  0
  7  8  1  0  0  0  0
  7 14  1  0  0  0  0
  7 60  1  1  0  0  0
  8  9  1  0  0  0  0
  8 61  1  0  0  0  0
  8 62  1  0  0  0  0
  9 10  2  0  0  0  0
  9 13  1  0  0  0  0
 10 11  1  0  0  0  0
 10 63  1  0  0  0  0
 11 12  1  0  0  0  0
 11 64  1  0  0  0  0
 12 13  2  0  0  0  0
 12 65  1  0  0  0  0
 14 15  2  0  0  0  0
 14 16  1  0  0  0  0
 16 66  1  0  0  0  0
 17 29  1  0  0  0  0
 17 67  1  6  0  0  0
 17 18  1  0  0  0  0
 17 16  1  0  0  0  0
 18 19  1  0  0  0  0
 18 68  1  0  0  0  0
 18 69  1  0  0  0  0
 19 20  2  0  0  0  0
 19 28  1  0  0  0  0
 20 21  1  0  0  0  0
 20 70  1  0  0  0  0
 21 22  2  0  0  0  0
 21 71  1  0  0  0  0
 22 23  1  0  0  0  0
 22 27  1  0  0  0  0
 23 24  2  0  0  0  0
 23 72  1  0  0  0  0
 24 25  1  0  0  0  0
 24 73  1  0  0  0  0
 25 26  2  0  0  0  0
 25 74  1  0  0  0  0
 26 27  1  0  0  0  0
 26 75  1  0  0  0  0
 27 28  2  0  0  0  0
 28 76  1  0  0  0  0
 29 30  2  0  0  0  0
 29 31  1  0  0  0  0
 31 77  1  0  0  0  0
 32 40  1  0  0  0  0
 32 78  1  6  0  0  0
 32 33  1  0  0  0  0
 32 31  1  0  0  0  0
 33 34  1  0  0  0  0
 33 79  1  0  0  0  0
 33 80  1  0  0  0  0
 34 35  2  0  0  0  0
 34 39  1  0  0  0  0
 35 36  1  0  0  0  0
 35 81  1  0  0  0  0
 36 37  2  0  0  0  0
 36 82  1  0  0  0  0
 37 38  1  0  0  0  0
 37 83  1  0  0  0  0
 38 39  2  0  0  0  0
 38 84  1  0  0  0  0
 39 85  1  0  0  0  0
 40 41  2  0  0  0  0
 40 42  1  0  0  0  0
 42 86  1  0  0  0  0
 43 42  1  0  0  0  0
 43 44  1  0  0  0  0
 43 49  1  0  0  0  0
 43 87  1  1  0  0  0
 44 45  1  0  0  0  0
 44 88  1  0  0  0  0
 44 89  1  0  0  0  0
 45 46  1  0  0  0  0
 45 90  1  0  0  0  0
 45 91  1  0  0  0  0
 46 47  1  0  0  0  0
 46 92  1  0  0  0  0
 46 93  1  0  0  0  0
 47 48  1  0  0  0  0
 47 94  1  0  0  0  0
 47 95  1  0  0  0  0
 48 96  1  0  0  0  0
 48 97  1  0  0  0  0
 49 50  2  0  0  0  0
 49 51  1  0  0  0  0
 51 98  1  0  0  0  0
 51 99  1  0  0  0  0
 52100  1  0  0  0  0
 52101  1  0  0  0  0
M  END
>  <DRUGBANK_ID>
DB12370

>  <COMMON_NAME>
Ipamorelin

>  <CAS_NUMBER>
170851-70-4

>  <UNII>
Y9M3S784Z6

>  <SYNONYMS>
Ipamorelin

$$$$
