
 OpenBabel10282417153D

 87 93  0  0  1  0  0  0  0  0999 V2000
  -23.1183   -4.4582  -12.7486 C   0  0  0  0  0  0  0  0  0  0  0  0
  -23.1690   -5.2939  -11.4614 C   0  0  0  0  0  0  0  0  0  0  0  0
  -22.9884   -6.7633  -11.8508 C   0  0  0  0  0  0  0  0  0  0  0  0
  -22.1220   -4.8581  -10.5355 N   0  0  0  0  0  0  0  0  0  0  0  0
  -21.4290   -5.7095   -9.5810 C   0  0  0  0  0  0  0  0  0  0  0  0
  -20.1771   -4.8905   -9.2858 C   0  0  0  0  0  0  0  0  0  0  0  0
  -20.6524   -3.5372   -9.4608 N   0  0  0  0  0  0  0  0  0  0  0  0
  -21.8072   -3.5277  -10.2385 C   0  0  0  0  0  0  0  0  0  0  0  0
  -22.4104   -2.5131  -10.6462 O   0  0  0  0  0  0  0  0  0  0  0  0
  -20.0838   -2.4188   -8.8431 C   0  0  0  0  0  0  0  0  0  0  0  0
  -20.8565   -1.6346   -7.9842 C   0  0  0  0  0  0  0  0  0  0  0  0
  -20.2787   -0.5640   -7.2760 C   0  0  0  0  0  0  0  0  0  0  0  0
  -18.9386   -0.2085   -7.4676 C   0  0  0  0  0  0  0  0  0  0  0  0
  -18.1857   -1.0185   -8.3368 C   0  0  0  0  0  0  0  0  0  0  0  0
  -18.7470   -2.0984   -9.0346 C   0  0  0  0  0  0  0  0  0  0  0  0
  -18.3797    0.9319   -6.9298 N   0  0  0  0  0  0  0  0  0  0  0  0
  -18.3547    1.2898   -5.5104 C   0  0  0  0  0  0  0  0  0  0  0  0
  -19.0171    2.6759   -5.2585 C   0  0  0  0  0  0  0  0  0  0  0  0
  -18.5356    3.7444   -6.1814 N   0  0  0  0  0  0  0  0  0  0  0  0
  -18.5389    3.3563   -7.6011 C   0  0  0  0  0  0  0  0  0  0  0  0
  -17.8335    1.9727   -7.8245 C   0  0  0  0  0  0  0  0  0  0  0  0
  -18.2973    5.0177   -5.7134 C   0  0  0  0  0  0  0  0  0  0  0  0
  -17.3886    5.1388   -4.7323 C   0  0  0  0  0  0  0  0  0  0  0  0
  -16.9493    6.4291   -4.3017 C   0  0  0  0  0  0  0  0  0  0  0  0
  -17.2843    7.6978   -4.5486 C   0  0  0  0  0  0  0  0  0  0  0  0
  -18.1905    7.6064   -5.5766 C   0  0  0  0  0  0  0  0  0  0  0  0
  -18.6871    6.2904   -6.1469 C   0  0  0  0  0  0  0  0  0  0  0  0
  -16.4937    8.7444   -4.0685 O   0  0  0  0  0  0  0  0  0  0  0  0
  -15.2639    8.7041   -3.1220 C   0  0  0  0  0  0  0  0  0  0  0  0
  -15.1751    7.6647   -1.9600 C   0  0  1  0  0  0  0  0  0  0  0  0
  -16.4805    7.2423   -1.6473 O   0  0  0  0  0  0  0  0  0  0  0  0
  -16.5043    5.8365   -1.9020 C   0  0  0  0  0  0  0  0  0  0  0  0
  -15.0991    5.3891   -2.6820 C   0  0  2  0  0  0  0  0  0  0  0  0
  -14.2913    6.5220   -2.2324 O   0  0  0  0  0  0  0  0  0  0  0  0
  -14.5577    5.1938   -4.4274 C   0  0  0  0  0  0  0  0  0  0  0  0
  -14.4502    6.3196   -5.4389 N   0  0  0  0  0  0  0  0  0  0  0  0
  -13.6418    7.3926   -5.2200 C   0  0  0  0  0  0  0  0  0  0  0  0
  -14.0826    8.4686   -5.8323 N   0  0  0  0  0  0  0  0  0  0  0  0
  -15.1775    8.0094   -6.5005 C   0  0  0  0  0  0  0  0  0  0  0  0
  -15.3067    6.6599   -6.4717 N   0  0  0  0  0  0  0  0  0  0  0  0
  -14.9012    4.0332   -2.0265 C   0  0  0  0  0  0  0  0  0  0  0  0
  -15.6658    2.8846   -2.3650 C   0  0  0  0  0  0  0  0  0  0  0  0
  -15.4707    1.6824   -1.6871 C   0  0  0  0  0  0  0  0  0  0  0  0
  -14.5272    1.6334   -0.6720 C   0  0  0  0  0  0  0  0  0  0  0  0
  -13.7847    2.7497   -0.3238 C   0  0  0  0  0  0  0  0  0  0  0  0
  -14.0220    3.9482   -0.9591 C   0  0  0  0  0  0  0  0  0  0  0  0
  -13.4249    5.0455   -0.4824 F   0  0  0  0  0  0  0  0  0  0  0  0
  -14.3571    0.4996    0.0148 F   0  0  0  0  0  0  0  0  0  0  0  0
  -22.1176   -4.5057  -13.1950 H   0  0  0  0  0  0  0  0  0  0  0  0
  -23.3423   -3.4045  -12.5642 H   0  0  0  0  0  0  0  0  0  0  0  0
  -23.8467   -4.8060  -13.4855 H   0  0  0  0  0  0  0  0  0  0  0  0
  -24.1413   -5.1578  -10.9722 H   0  0  0  0  0  0  0  0  0  0  0  0
  -21.9910   -6.9225  -12.2800 H   0  0  0  0  0  0  0  0  0  0  0  0
  -23.0871   -7.4213  -10.9816 H   0  0  0  0  0  0  0  0  0  0  0  0
  -23.7291   -7.0772  -12.5919 H   0  0  0  0  0  0  0  0  0  0  0  0
  -21.1938   -6.7010   -9.9728 H   0  0  0  0  0  0  0  0  0  0  0  0
  -22.0587   -5.8108   -8.6863 H   0  0  0  0  0  0  0  0  0  0  0  0
  -19.4077   -5.1004  -10.0379 H   0  0  0  0  0  0  0  0  0  0  0  0
  -19.7851   -5.0702   -8.2812 H   0  0  0  0  0  0  0  0  0  0  0  0
  -21.9111   -1.8654   -7.8494 H   0  0  0  0  0  0  0  0  0  0  0  0
  -20.9164    0.0154   -6.6150 H   0  0  0  0  0  0  0  0  0  0  0  0
  -17.1283   -0.8078   -8.4724 H   0  0  0  0  0  0  0  0  0  0  0  0
  -18.1526   -2.6243   -9.7770 H   0  0  0  0  0  0  0  0  0  0  0  0
  -18.8102    0.5222   -4.8726 H   0  0  0  0  0  0  0  0  0  0  0  0
  -17.2973    1.3465   -5.2104 H   0  0  0  0  0  0  0  0  0  0  0  0
  -20.0957    2.5799   -5.4112 H   0  0  0  0  0  0  0  0  0  0  0  0
  -18.8562    2.9426   -4.2070 H   0  0  0  0  0  0  0  0  0  0  0  0
  -19.5814    3.2809   -7.9236 H   0  0  0  0  0  0  0  0  0  0  0  0
  -18.0274    4.1009   -8.2186 H   0  0  0  0  0  0  0  0  0  0  0  0
  -16.7615    2.0629   -7.6063 H   0  0  0  0  0  0  0  0  0  0  0  0
  -17.9280    1.6880   -8.8790 H   0  0  0  0  0  0  0  0  0  0  0  0
  -16.8750    4.2286   -4.4564 H   0  0  0  0  0  0  0  0  0  0  0  0
  -16.0072    6.5650   -3.8792 H   0  0  0  0  0  0  0  0  0  0  0  0
  -18.3987    8.5011   -6.1427 H   0  0  0  0  0  0  0  0  0  0  0  0
  -19.3662    6.3484   -6.9841 H   0  0  0  0  0  0  0  0  0  0  0  0
  -14.2787    8.7066   -3.5985 H   0  0  0  0  0  0  0  0  0  0  0  0
  -15.1729    9.7265   -2.7199 H   0  0  0  0  0  0  0  0  0  0  0  0
  -14.7457    8.1651   -1.0804 H   0  0  0  0  0  0  0  0  0  0  0  0
  -16.6235    5.4207   -0.8981 H   0  0  0  0  0  0  0  0  0  0  0  0
  -17.4701    5.5622   -2.3460 H   0  0  0  0  0  0  0  0  0  0  0  0
  -13.5026    4.9057   -4.3451 H   0  0  0  0  0  0  0  0  0  0  0  0
  -15.0134    4.3385   -4.9441 H   0  0  0  0  0  0  0  0  0  0  0  0
  -12.9490    7.3445   -4.4028 H   0  0  0  0  0  0  0  0  0  0  0  0
  -15.9463    8.7084   -6.8655 H   0  0  0  0  0  0  0  0  0  0  0  0
  -16.4510    2.8791   -3.1158 H   0  0  0  0  0  0  0  0  0  0  0  0
  -16.0415    0.7914   -1.9403 H   0  0  0  0  0  0  0  0  0  0  0  0
  -13.0281    2.7147    0.4451 H   0  0  0  0  0  0  0  0  0  0  0  0
  1  2  1  0  0  0  0
  1 49  1  0  0  0  0
  1 50  1  0  0  0  0
  1 51  1  0  0  0  0
  2  3  1  0  0  0  0
  2  4  1  0  0  0  0
  2 52  1  0  0  0  0
  3 53  1  0  0  0  0
  3 54  1  0  0  0  0
  3 55  1  0  0  0  0
  4  5  1  0  0  0  0
  4  8  1  0  0  0  0
  5  6  1  0  0  0  0
  5 56  1  0  0  0  0
  5 57  1  0  0  0  0
  6  7  1  0  0  0  0
  6 58  1  0  0  0  0
  6 59  1  0  0  0  0
  7  8  1  0  0  0  0
  7 10  1  0  0  0  0
  8  9  2  0  0  0  0
 10 11  2  0  0  0  0
 10 15  1  0  0  0  0
 11 12  1  0  0  0  0
 11 60  1  0  0  0  0
 12 13  2  0  0  0  0
 12 61  1  0  0  0  0
 13 14  1  0  0  0  0
 13 16  1  0  0  0  0
 14 15  2  0  0  0  0
 14 62  1  0  0  0  0
 15 63  1  0  0  0  0
 16 17  1  0  0  0  0
 16 21  1  0  0  0  0
 17 18  1  0  0  0  0
 17 64  1  0  0  0  0
 17 65  1  0  0  0  0
 18 19  1  0  0  0  0
 18 66  1  0  0  0  0
 18 67  1  0  0  0  0
 19 20  1  0  0  0  0
 19 22  1  0  0  0  0
 20 21  1  0  0  0  0
 20 68  1  0  0  0  0
 20 69  1  0  0  0  0
 21 70  1  0  0  0  0
 21 71  1  0  0  0  0
 22 23  2  0  0  0  0
 22 27  1  0  0  0  0
 23 24  1  0  0  0  0
 23 72  1  0  0  0  0
 24 25  2  0  0  0  0
 24 73  1  0  0  0  0
 25 26  1  0  0  0  0
 25 28  1  0  0  0  0
 26 27  2  0  0  0  0
 26 74  1  0  0  0  0
 27 75  1  0  0  0  0
 28 29  1  0  0  0  0
 29 76  1  0  0  0  0
 29 77  1  0  0  0  0
 30 31  1  0  0  0  0
 30 34  1  0  0  0  0
 30 78  1  1  0  0  0
 30 29  1  0  0  0  0
 31 32  1  0  0  0  0
 32 33  1  0  0  0  0
 32 79  1  0  0  0  0
 32 80  1  0  0  0  0
 33 34  1  0  0  0  0
 33 41  1  0  0  0  0
 33 35  1  6  0  0  0
 35 36  1  0  0  0  0
 35 81  1  0  0  0  0
 35 82  1  0  0  0  0
 36 37  1  0  0  0  0
 36 40  1  0  0  0  0
 37 38  2  0  0  0  0
 37 83  1  0  0  0  0
 38 39  1  0  0  0  0
 39 40  2  0  0  0  0
 39 84  1  0  0  0  0
 41 42  2  0  0  0  0
 41 46  1  0  0  0  0
 42 43  1  0  0  0  0
 42 85  1  0  0  0  0
 43 44  2  0  0  0  0
 43 86  1  0  0  0  0
 44 45  1  0  0  0  0
 44 48  1  0  0  0  0
 45 46  2  0  0  0  0
 45 87  1  0  0  0  0
 46 47  1  0  0  0  0
M  END
>  <DRUGBANK_ID>
DB06295

>  <COMMON_NAME>
Pramiconazole

>  <CAS_NUMBER>
219923-85-0

>  <UNII>
4SYH0R661F

>  <SYNONYMS>
Pramiconazole

$$$$
