754
 OpenBabel10282417113D

 27 28  0  0  1  0  0  0  0  0999 V2000
   -2.3054    0.5232    0.0963 O   0  0  0  0  0  0  0  0  0  0  0  0
    2.2592    0.5265   -0.0050 O   0  0  0  0  0  0  0  0  0  0  0  0
   -0.0256    0.9202    0.0541 N   0  0  0  0  0  0  0  0  0  0  0  0
    0.7237   -1.1665    0.0111 N   0  0  0  0  0  0  0  0  0  0  0  0
   -0.7064   -1.3300    0.0117 C   0  0  3  0  0  0  0  0  0  0  0  0
   -1.1454    0.1312    0.0592 C   0  0  0  0  0  0  0  0  0  0  0  0
   -1.1762   -2.1542   -1.1598 C   0  0  0  0  0  0  0  0  0  0  0  0
    1.0956    0.1527    0.0161 C   0  0  0  0  0  0  0  0  0  0  0  0
   -0.0390    2.3649    0.1020 C   0  0  0  0  0  0  0  0  0  0  0  0
   -0.7448   -3.4899   -1.2346 C   0  0  0  0  0  0  0  0  0  0  0  0
   -2.0614   -1.6832   -2.1416 C   0  0  0  0  0  0  0  0  0  0  0  0
   -0.7421    2.9589   -1.1068 C   0  0  0  0  0  0  0  0  0  0  0  0
   -1.1735   -4.3259   -2.2622 C   0  0  0  0  0  0  0  0  0  0  0  0
   -2.5377   -2.5408   -3.1356 C   0  0  0  0  0  0  0  0  0  0  0  0
   -2.0684   -3.8495   -3.2148 C   0  0  0  0  0  0  0  0  0  0  0  0
    1.4092   -1.9073   -0.0257 H   0  0  0  0  0  0  0  0  0  0  0  0
   -1.0024   -1.8056    0.9530 H   0  0  0  0  0  0  0  0  0  0  0  0
   -0.5579    2.6651    1.0189 H   0  0  0  0  0  0  0  0  0  0  0  0
    0.9895    2.7378    0.1532 H   0  0  0  0  0  0  0  0  0  0  0  0
   -0.0692   -3.8869   -0.4798 H   0  0  0  0  0  0  0  0  0  0  0  0
   -2.4130   -0.6529   -2.1482 H   0  0  0  0  0  0  0  0  0  0  0  0
   -1.7871    2.6377   -1.1600 H   0  0  0  0  0  0  0  0  0  0  0  0
   -0.7324    4.0506   -1.0563 H   0  0  0  0  0  0  0  0  0  0  0  0
   -0.2526    2.6423   -2.0331 H   0  0  0  0  0  0  0  0  0  0  0  0
   -0.8208   -5.3523   -2.3058 H   0  0  0  0  0  0  0  0  0  0  0  0
   -3.2847   -2.1884   -3.8432 H   0  0  0  0  0  0  0  0  0  0  0  0
   -2.4021   -4.4984   -4.0194 H   0  0  0  0  0  0  0  0  0  0  0  0
  1  6  2  0  0  0  0
  2  8  2  0  0  0  0
  3  6  1  0  0  0  0
  3  8  1  0  0  0  0
  3  9  1  0  0  0  0
  4  5  1  0  0  0  0
  4  8  1  0  0  0  0
  4 16  1  0  0  0  0
  5  6  1  0  0  0  0
  5  7  1  0  0  0  0
  5 17  1  0  0  0  0
  7 10  2  0  0  0  0
  7 11  1  0  0  0  0
  9 12  1  0  0  0  0
  9 18  1  0  0  0  0
  9 19  1  0  0  0  0
 10 13  1  0  0  0  0
 10 20  1  0  0  0  0
 11 14  2  0  0  0  0
 11 21  1  0  0  0  0
 12 22  1  0  0  0  0
 12 23  1  0  0  0  0
 12 24  1  0  0  0  0
 13 15  2  0  0  0  0
 13 25  1  0  0  0  0
 14 15  1  0  0  0  0
 14 26  1  0  0  0  0
 15 27  1  0  0  0  0
M  END
>  <DRUGBANK_ID>
DB00754

>  <SECONDARY_ACCESSION_NUMBERS>
APRD00962

>  <COMMON_NAME>
Ethotoin

>  <CAS_NUMBER>
86-35-1

>  <UNII>
46QG38NC4U

>  <SYNONYMS>
(±)-3-ethyl-5-phenylhydantoin; 1-ethyl-2,5-dioxo-4-phenylimidazolidine; 3-ethyl-5-phenyl-2,4-imidazolidinedione; 3-Ethyl-5-phenyl-imidazolidine-2,4-dione; 3-ethyl-5-phenylhydantoin; 3-ethyl-5-phenylimidazolidin-2,4-dione; Ethotoin; Ethotoïne; Ethotoinum; Etotoina

$$$$
