KOM
 OpenBabel10282417173D

 29 31  0  0  0  0  0  0  0  0999 V2000
    0.8728    0.0176    0.0615 O   0  0  0  0  0  0  0  0  0  0  0  0
    2.1075    0.0251    0.0962 C   0  0  0  0  0  0  0  0  0  0  0  0
    2.8406    1.1923    0.1764 O   0  0  0  0  0  0  0  0  0  0  0  0
    4.2459    1.1609    0.1245 C   0  0  0  0  0  0  0  0  0  0  0  0
    4.9433    2.3613    0.1003 C   0  0  0  0  0  0  0  0  0  0  0  0
    4.2961    3.5440    0.3165 O   0  0  0  0  0  0  0  0  0  0  0  0
    6.3154    2.3524   -0.1472 C   0  0  0  0  0  0  0  0  0  0  0  0
    6.9786    3.5452   -0.2035 O   0  0  0  0  0  0  0  0  0  0  0  0
    6.9994    1.1560   -0.3110 C   0  0  0  0  0  0  0  0  0  0  0  0
    2.8492   -1.2408    0.0759 C   0  0  0  0  0  0  0  0  0  0  0  0
    4.1902   -1.3062    0.0790 C   0  0  0  0  0  0  0  0  0  0  0  0
    4.9330   -0.0473    0.0667 C   0  0  0  0  0  0  0  0  0  0  0  0
    6.3266   -0.0367   -0.0812 C   0  0  0  0  0  0  0  0  0  0  0  0
    4.8041   -2.6432    0.0782 C   0  0  0  0  0  0  0  0  0  0  0  0
    4.6527   -3.5019   -1.0151 C   0  0  0  0  0  0  0  0  0  0  0  0
    5.2711   -4.7495   -1.0044 C   0  0  0  0  0  0  0  0  0  0  0  0
    5.9165   -5.1935    0.1494 C   0  0  0  0  0  0  0  0  0  0  0  0
    6.0209   -4.3596    1.2599 C   0  0  0  0  0  0  0  0  0  0  0  0
    5.5664   -3.0494    1.1794 C   0  0  0  0  0  0  0  0  0  0  0  0
    4.9971    4.2232    0.3292 H   0  0  0  0  0  0  0  0  0  0  0  0
    7.9288    3.3501   -0.2904 H   0  0  0  0  0  0  0  0  0  0  0  0
    8.0396    1.1157   -0.6161 H   0  0  0  0  0  0  0  0  0  0  0  0
    2.2276   -2.1299    0.0629 H   0  0  0  0  0  0  0  0  0  0  0  0
    6.9032   -0.9581   -0.0569 H   0  0  0  0  0  0  0  0  0  0  0  0
    4.0709   -3.1965   -1.8819 H   0  0  0  0  0  0  0  0  0  0  0  0
    5.2267   -5.3838   -1.8852 H   0  0  0  0  0  0  0  0  0  0  0  0
    6.3445   -6.1910    0.1832 H   0  0  0  0  0  0  0  0  0  0  0  0
    6.4524   -4.7225    2.1881 H   0  0  0  0  0  0  0  0  0  0  0  0
    5.8058   -2.3515    1.9793 H   0  0  0  0  0  0  0  0  0  0  0  0
  1  2  2  0  0  0  0
  2  3  1  0  0  0  0
  2 10  1  0  0  0  0
  3  4  1  0  0  0  0
  4  5  2  0  0  0  0
  4 12  1  0  0  0  0
  5  6  1  0  0  0  0
  5  7  1  0  0  0  0
  6 20  1  0  0  0  0
  7  8  1  0  0  0  0
  7  9  2  0  0  0  0
  8 21  1  0  0  0  0
  9 13  1  0  0  0  0
  9 22  1  0  0  0  0
 10 11  2  0  0  0  0
 10 23  1  0  0  0  0
 11 12  1  0  0  0  0
 11 14  1  0  0  0  0
 12 13  2  0  0  0  0
 13 24  1  0  0  0  0
 14 15  2  0  0  0  0
 14 19  1  0  0  0  0
 15 16  1  0  0  0  0
 15 25  1  0  0  0  0
 16 17  2  0  0  0  0
 16 26  1  0  0  0  0
 17 18  1  0  0  0  0
 17 27  1  0  0  0  0
 18 19  2  0  0  0  0
 18 28  1  0  0  0  0
 19 29  1  0  0  0  0
M  END
>  <DRUGBANK_ID>
DB08049

>  <COMMON_NAME>
7,8-dihydroxy-4-phenyl-2H-chromen-2-one

$$$$
