INL
 OpenBabel10282417133D

 51 54  0  0  0  0  0  0  0  0999 V2000
    0.7338   -0.0511   -0.0405 S   0  0  0  0  0  0  0  0  0  0  0  0
    0.3816    0.5012    1.2363 O   0  0  0  0  0  0  0  0  0  0  0  0
    0.3264    0.5292   -1.3060 O   0  0  0  0  0  0  0  0  0  0  0  0
    0.2389   -1.6489   -0.0289 N   0  0  0  0  0  0  0  0  0  0  0  0
    2.4802   -0.1156   -0.1084 C   0  0  0  0  0  0  0  0  0  0  0  0
    3.4307   -1.1199   -0.2659 C   0  0  0  0  0  0  0  0  0  0  0  0
    4.7131   -0.5500   -0.5521 C   0  0  0  0  0  0  0  0  0  0  0  0
    4.6725    0.7804   -0.2646 C   0  0  0  0  0  0  0  0  0  0  0  0
    3.1640    1.4317    0.0064 S   0  0  0  0  0  0  0  0  0  0  0  0
    5.9999   -1.1680   -0.8222 C   0  0  0  0  0  0  0  0  0  0  0  0
    7.2093   -0.6466   -0.4637 C   0  0  0  0  0  0  0  0  0  0  0  0
    7.3009    0.7563   -0.0924 N   0  0  0  0  0  0  0  0  0  0  0  0
    6.0095    1.8323   -0.1160 S   0  0  0  0  0  0  0  0  0  0  0  0
    5.8785    2.4334    1.1886 O   0  0  0  0  0  0  0  0  0  0  0  0
    6.0155    2.5955   -1.3519 O   0  0  0  0  0  0  0  0  0  0  0  0
    8.4351   -1.5386   -0.1356 C   0  0  0  0  0  0  0  0  0  0  0  0
    7.3796   -3.2689    1.2840 C   0  0  0  0  0  0  0  0  0  0  0  0
    6.0589   -2.6509    1.7728 C   0  0  0  0  0  0  0  0  0  0  0  0
    6.1819   -1.8820    2.9686 O   0  0  0  0  0  0  0  0  0  0  0  0
    7.1319   -0.8178    2.7377 C   0  0  0  0  0  0  0  0  0  0  0  0
    8.4893   -1.4322    2.3705 C   0  0  0  0  0  0  0  0  0  0  0  0
    8.4581   -2.2783    1.1495 N   0  0  0  0  0  0  0  0  0  0  0  0
    9.3759    1.2949   -1.1668 C   0  0  0  0  0  0  0  0  0  0  0  0
    8.5509    1.4102   -0.0580 C   0  0  0  0  0  0  0  0  0  0  0  0
    8.8581    2.2634    0.9993 C   0  0  0  0  0  0  0  0  0  0  0  0
   10.0350    2.9827    0.9578 C   0  0  0  0  0  0  0  0  0  0  0  0
   10.9046    2.8089   -0.1240 C   0  0  0  0  0  0  0  0  0  0  0  0
   10.5576    2.0022   -1.2146 C   0  0  0  0  0  0  0  0  0  0  0  0
   11.4019    1.9791   -2.2893 O   0  0  0  0  0  0  0  0  0  0  0  0
   10.9315    1.2527   -3.4304 C   0  0  0  0  0  0  0  0  0  0  0  0
    0.5857   -2.1028    0.8152 H   0  0  0  0  0  0  0  0  0  0  0  0
   -0.7787   -1.6629   -0.0811 H   0  0  0  0  0  0  0  0  0  0  0  0
    3.1821   -2.1762   -0.2225 H   0  0  0  0  0  0  0  0  0  0  0  0
    5.9667   -2.2405   -1.0354 H   0  0  0  0  0  0  0  0  0  0  0  0
    8.6036   -2.2310   -0.9703 H   0  0  0  0  0  0  0  0  0  0  0  0
    9.3579   -0.9519   -0.1185 H   0  0  0  0  0  0  0  0  0  0  0  0
    7.6885   -4.0223    2.0172 H   0  0  0  0  0  0  0  0  0  0  0  0
    7.2621   -3.8042    0.3328 H   0  0  0  0  0  0  0  0  0  0  0  0
    5.7075   -1.9178    1.0976 H   0  0  0  0  0  0  0  0  0  0  0  0
    5.2318   -3.3645    1.7732 H   0  0  0  0  0  0  0  0  0  0  0  0
    7.1859   -0.1839    3.6249 H   0  0  0  0  0  0  0  0  0  0  0  0
    6.7644   -0.1538    1.9616 H   0  0  0  0  0  0  0  0  0  0  0  0
    8.7568   -2.0871    3.2120 H   0  0  0  0  0  0  0  0  0  0  0  0
    9.2791   -0.6770    2.3086 H   0  0  0  0  0  0  0  0  0  0  0  0
    9.0693    0.6315   -1.9670 H   0  0  0  0  0  0  0  0  0  0  0  0
    8.1802    2.3897    1.8413 H   0  0  0  0  0  0  0  0  0  0  0  0
   10.2546    3.6841    1.7576 H   0  0  0  0  0  0  0  0  0  0  0  0
   11.8587    3.3233   -0.1118 H   0  0  0  0  0  0  0  0  0  0  0  0
   10.8946    0.1781   -3.2136 H   0  0  0  0  0  0  0  0  0  0  0  0
    9.9499    1.6069   -3.7756 H   0  0  0  0  0  0  0  0  0  0  0  0
   11.6385    1.4055   -4.2476 H   0  0  0  0  0  0  0  0  0  0  0  0
  1  2  2  0  0  0  0
  1  3  2  0  0  0  0
  1  4  1  0  0  0  0
  1  5  1  0  0  0  0
  4 31  1  0  0  0  0
  4 32  1  0  0  0  0
  5  6  2  0  0  0  0
  5  9  1  0  0  0  0
  6  7  1  0  0  0  0
  6 33  1  0  0  0  0
  7  8  2  0  0  0  0
  7 10  1  0  0  0  0
  8  9  1  0  0  0  0
  8 13  1  0  0  0  0
 10 11  2  0  0  0  0
 10 34  1  0  0  0  0
 11 12  1  0  0  0  0
 11 16  1  0  0  0  0
 12 13  1  0  0  0  0
 12 24  1  0  0  0  0
 13 14  2  0  0  0  0
 13 15  2  0  0  0  0
 16 22  1  0  0  0  0
 16 35  1  0  0  0  0
 16 36  1  0  0  0  0
 17 18  1  0  0  0  0
 17 22  1  0  0  0  0
 17 37  1  0  0  0  0
 17 38  1  0  0  0  0
 18 19  1  0  0  0  0
 18 39  1  0  0  0  0
 18 40  1  0  0  0  0
 19 20  1  0  0  0  0
 20 21  1  0  0  0  0
 20 41  1  0  0  0  0
 20 42  1  0  0  0  0
 21 22  1  0  0  0  0
 21 43  1  0  0  0  0
 21 44  1  0  0  0  0
 23 24  2  0  0  0  0
 23 28  1  0  0  0  0
 23 45  1  0  0  0  0
 24 25  1  0  0  0  0
 25 26  2  0  0  0  0
 25 46  1  0  0  0  0
 26 27  1  0  0  0  0
 26 47  1  0  0  0  0
 27 28  2  0  0  0  0
 27 48  1  0  0  0  0
 28 29  1  0  0  0  0
 29 30  1  0  0  0  0
 30 49  1  0  0  0  0
 30 50  1  0  0  0  0
 30 51  1  0  0  0  0
M  END
>  <DRUGBANK_ID>
DB03598

>  <SECONDARY_ACCESSION_NUMBERS>
EXPT01889

>  <COMMON_NAME>
Al-6629, [2h-Thieno[3,2-E]-1,2-Thiazine-6-Sulfonamide,2-(3-Methoxyphenyl)-3-(4-Morpholinyl)-, 1,1-Dioxide]

$$$$
