TRW
 OpenBabel10282417173D

 41 43  0  0  0  0  0  0  0  0999 V2000
    1.0301   -0.1575   -0.0750 N   0  0  0  0  0  0  0  0  0  0  0  0
    0.5777   -0.5775    1.2725 C   0  0  1  0  0  0  0  0  0  0  0  0
    1.0178    0.4207    2.3603 C   0  0  0  0  0  0  0  0  0  0  0  0
    0.5819    1.8430    2.1327 C   0  0  0  0  0  0  0  0  0  0  0  0
    1.3061    3.0319    2.4920 C   0  0  0  0  0  0  0  0  0  0  0  0
    0.5364    4.1008    2.0687 C   0  0  0  0  0  0  0  0  0  0  0  0
    2.5282    3.3316    3.1203 C   0  0  0  0  0  0  0  0  0  0  0  0
   -0.5826    2.2740    1.5197 C   0  0  0  0  0  0  0  0  0  0  0  0
   -0.5895    3.6246    1.4753 N   0  0  0  0  0  0  0  0  0  0  0  0
    0.8707    5.4314    2.2035 C   0  0  0  0  0  0  0  0  0  0  0  0
    2.9039    4.6895    3.2589 C   0  0  0  0  0  0  0  0  0  0  0  0
    2.0918    5.7578    2.8033 C   0  0  0  0  0  0  0  0  0  0  0  0
    2.6113    7.0825    2.8506 N   0  0  0  0  0  0  0  0  0  0  0  0
   -0.0618    6.2855    1.7061 O   0  0  0  0  0  0  0  0  0  0  0  0
   -0.9319   -0.8425    1.2724 C   0  0  0  0  0  0  0  0  0  0  0  0
   -1.4547   -1.8825    1.6279 O   0  0  0  0  0  0  0  0  0  0  0  0
    1.8587    8.2116    2.7850 N   0  0  0  0  0  0  0  0  0  0  0  0
    2.3252    9.5226    2.9080 C   0  0  0  0  0  0  0  0  0  0  0  0
    3.6321    9.8931    2.6164 C   0  0  0  0  0  0  0  0  0  0  0  0
    4.0348   11.2042    2.8487 C   0  0  0  0  0  0  0  0  0  0  0  0
    3.1959   12.0742    3.5482 C   0  0  0  0  0  0  0  0  0  0  0  0
    1.9132   11.6759    3.9077 C   0  0  0  0  0  0  0  0  0  0  0  0
    1.4403   10.4527    3.4664 C   0  0  0  0  0  0  0  0  0  0  0  0
    1.0357   -1.5493    1.4867 H   0  0  0  0  0  0  0  0  0  0  0  0
    0.7395    0.8106   -0.2383 H   0  0  0  0  0  0  0  0  0  0  0  0
    2.0503   -0.0980   -0.0577 H   0  0  0  0  0  0  0  0  0  0  0  0
    0.6638    0.0947    3.3456 H   0  0  0  0  0  0  0  0  0  0  0  0
    2.1173    0.3999    2.4050 H   0  0  0  0  0  0  0  0  0  0  0  0
    3.1786    2.5380    3.4787 H   0  0  0  0  0  0  0  0  0  0  0  0
   -1.4296    1.7961    1.0706 H   0  0  0  0  0  0  0  0  0  0  0  0
   -1.2994    4.2180    1.0670 H   0  0  0  0  0  0  0  0  0  0  0  0
    3.8594    4.8926    3.7414 H   0  0  0  0  0  0  0  0  0  0  0  0
    3.3634    7.1427    3.5443 H   0  0  0  0  0  0  0  0  0  0  0  0
    0.3917    7.1081    1.5232 H   0  0  0  0  0  0  0  0  0  0  0  0
   -1.5825   -0.0223    0.9429 H   0  0  0  0  0  0  0  0  0  0  0  0
    0.8956    8.2374    2.4966 H   0  0  0  0  0  0  0  0  0  0  0  0
    4.3118    9.1784    2.1613 H   0  0  0  0  0  0  0  0  0  0  0  0
    5.0126   11.5358    2.5145 H   0  0  0  0  0  0  0  0  0  0  0  0
    3.5402   13.0680    3.8135 H   0  0  0  0  0  0  0  0  0  0  0  0
    1.2840   12.2982    4.5362 H   0  0  0  0  0  0  0  0  0  0  0  0
    0.3943   10.1945    3.6169 H   0  0  0  0  0  0  0  0  0  0  0  0
  1 25  1  0  0  0  0
  1 26  1  0  0  0  0
  2  1  1  0  0  0  0
  2  3  1  0  0  0  0
  2 15  1  0  0  0  0
  2 24  1  1  0  0  0
  3  4  1  0  0  0  0
  3 27  1  0  0  0  0
  3 28  1  0  0  0  0
  4  5  1  0  0  0  0
  4  8  2  0  0  0  0
  5  6  2  0  0  0  0
  5  7  1  0  0  0  0
  6  9  1  0  0  0  0
  6 10  1  0  0  0  0
  7 11  2  0  0  0  0
  7 29  1  0  0  0  0
  8  9  1  0  0  0  0
  8 30  1  0  0  0  0
  9 31  1  0  0  0  0
 10 12  2  0  0  0  0
 10 14  1  0  0  0  0
 11 12  1  0  0  0  0
 11 32  1  0  0  0  0
 12 13  1  0  0  0  0
 13 17  1  0  0  0  0
 13 33  1  0  0  0  0
 14 34  1  0  0  0  0
 15 16  2  0  0  0  0
 15 35  1  0  0  0  0
 17 18  1  0  0  0  0
 17 36  1  0  0  0  0
 18 19  2  0  0  0  0
 18 23  1  0  0  0  0
 19 20  1  0  0  0  0
 19 37  1  0  0  0  0
 20 21  2  0  0  0  0
 20 38  1  0  0  0  0
 21 22  1  0  0  0  0
 21 39  1  0  0  0  0
 22 23  2  0  0  0  0
 22 40  1  0  0  0  0
 23 41  1  0  0  0  0
M  END
>  <DRUGBANK_ID>
DB08646

>  <COMMON_NAME>
TRW3-(2-AMINO-3-HYDROXY-PROPYL)-6-(N'-CYCLOHEXYL-HYDRAZINO)OCTAHYDRO-INDOL-7-OL

$$$$
