
 OpenBabel10282417193D

 84 88  0  0  1  0  0  0  0  0999 V2000
   -4.6053   -4.2703   -4.0350 C   0  0  0  0  0  0  0  0  0  0  0  0
   -4.6079   -2.3358   -3.9331 C   0  0  1  0  0  0  0  0  0  0  0  0
   -5.6224   -2.7932   -2.4231 C   0  0  0  0  0  0  0  0  0  0  0  0
   -6.9178   -2.4039   -2.7077 C   0  0  0  0  0  0  0  0  0  0  0  0
   -6.4732   -0.9596   -2.8125 C   0  0  1  0  0  0  0  0  0  0  0  0
   -7.7018   -0.4122   -2.2371 C   0  0  0  0  0  0  0  0  0  0  0  0
   -8.1192    0.8869   -2.7783 C   0  0  0  0  0  0  0  0  0  0  0  0
   -7.3462    1.5171   -3.9344 C   0  0  0  0  0  0  0  0  0  0  0  0
   -5.9032    1.2441   -3.8814 C   0  0  0  0  0  0  0  0  0  0  0  0
   -5.8182   -0.2410   -3.9728 C   0  0  1  0  0  0  0  0  0  0  0  0
   -4.4253   -0.3198   -3.6852 C   0  0  1  0  0  0  0  0  0  0  0  0
   -3.2555    0.4130   -2.0336 C   0  0  0  0  0  0  0  0  0  0  0  0
   -3.7105    0.5441   -0.8584 O   0  0  0  0  0  0  0  0  0  0  0  0
   -1.5909   -0.6230   -2.0197 C   0  0  0  0  0  0  0  0  0  0  0  0
   -1.4248   -1.7927   -3.1398 C   0  0  0  0  0  0  0  0  0  0  0  0
   -2.8451   -2.1922   -4.3635 C   0  0  1  0  0  0  0  0  0  0  0  0
   -2.4065   -3.4783   -4.7572 C   0  0  0  0  0  0  0  0  0  0  0  0
   -1.7941   -3.3568   -6.1008 C   0  0  0  0  0  0  0  0  0  0  0  0
   -0.7369   -3.9476   -5.3965 C   0  0  2  0  0  0  0  0  0  0  0  0
   -0.4191   -2.2777   -4.2103 C   0  0  2  0  0  0  0  0  0  0  0  0
    0.8022   -2.8203   -3.7396 C   0  0  0  0  0  0  0  0  0  0  0  0
    0.9663   -2.9894   -5.0573 C   0  0  0  0  0  0  0  0  0  0  0  0
    1.4244   -4.3278   -5.3986 C   0  0  0  0  0  0  0  0  0  0  0  0
    2.1832   -5.0325   -4.7597 O   0  0  0  0  0  0  0  0  0  0  0  0
    0.4314   -4.6978   -6.3949 C   0  0  0  0  0  0  0  0  0  0  0  0
    0.6890   -6.2084   -6.7487 C   0  0  0  0  0  0  0  0  0  0  0  0
    0.5000   -3.9683   -7.7270 C   0  0  0  0  0  0  0  0  0  0  0  0
    1.5862   -1.9076   -5.9266 C   0  0  0  0  0  0  0  0  0  0  0  0
    2.1005   -1.0101   -6.6477 N   0  0  0  0  0  0  0  0  0  0  0  0
    0.1260   -0.4624   -4.2262 C   0  0  0  0  0  0  0  0  0  0  0  0
   -2.9346   -1.2503   -5.6854 C   0  0  0  0  0  0  0  0  0  0  0  0
   -7.4616    3.0019   -3.7501 C   0  0  0  0  0  0  0  0  0  0  0  0
   -7.7934    1.0006   -5.2926 C   0  0  0  0  0  0  0  0  0  0  0  0
   -5.3182   -0.6785   -1.7642 N   0  0  0  0  0  0  0  0  0  0  0  0
   -3.8502   -1.6125   -1.9136 C   0  0  0  0  0  0  0  0  0  0  0  0
   -3.1322   -1.2394   -2.8525 O   0  0  0  0  0  0  0  0  0  0  0  0
   -3.5364   -3.0421   -1.3772 C   0  0  0  0  0  0  0  0  0  0  0  0
   -4.3818   -3.2749   -0.1011 C   0  0  0  0  0  0  0  0  0  0  0  0
   -4.0733   -3.9209   -2.2022 F   0  0  0  0  0  0  0  0  0  0  0  0
   -2.3333   -3.6576   -1.5984 F   0  0  0  0  0  0  0  0  0  0  0  0
   -5.3802   -4.8364   -3.4648 H   0  0  0  0  0  0  0  0  0  0  0  0
   -3.6958   -4.9123   -3.5438 H   0  0  0  0  0  0  0  0  0  0  0  0
   -4.8034   -4.6528   -5.0477 H   0  0  0  0  0  0  0  0  0  0  0  0
   -5.7652   -3.7545   -1.9071 H   0  0  0  0  0  0  0  0  0  0  0  0
   -5.4355   -2.3089   -1.4599 H   0  0  0  0  0  0  0  0  0  0  0  0
   -7.1004   -3.1256   -3.4896 H   0  0  0  0  0  0  0  0  0  0  0  0
   -7.3867   -2.6941   -1.7323 H   0  0  0  0  0  0  0  0  0  0  0  0
   -7.4834   -0.3530   -1.1657 H   0  0  0  0  0  0  0  0  0  0  0  0
   -8.5467   -1.1097   -2.3468 H   0  0  0  0  0  0  0  0  0  0  0  0
   -8.0614    1.5137   -1.8894 H   0  0  0  0  0  0  0  0  0  0  0  0
   -9.1514    0.7405   -3.0867 H   0  0  0  0  0  0  0  0  0  0  0  0
   -5.5318    1.6849   -2.9476 H   0  0  0  0  0  0  0  0  0  0  0  0
   -5.2481    1.7174   -4.6300 H   0  0  0  0  0  0  0  0  0  0  0  0
   -5.9275   -0.7394   -4.9753 H   0  0  0  0  0  0  0  0  0  0  0  0
   -3.8466    0.2704   -4.3630 H   0  0  0  0  0  0  0  0  0  0  0  0
   -0.9288    0.0572   -1.4633 H   0  0  0  0  0  0  0  0  0  0  0  0
   -3.0527   -4.2358   -5.0486 H   0  0  0  0  0  0  0  0  0  0  0  0
   -1.9007   -3.9156   -3.8264 H   0  0  0  0  0  0  0  0  0  0  0  0
   -2.4443   -3.7878   -6.8442 H   0  0  0  0  0  0  0  0  0  0  0  0
   -1.2593   -2.5008   -6.4841 H   0  0  0  0  0  0  0  0  0  0  0  0
   -1.1574   -4.9494   -5.0788 H   0  0  0  0  0  0  0  0  0  0  0  0
    1.0416   -2.0232   -3.0558 H   0  0  0  0  0  0  0  0  0  0  0  0
    0.0654   -6.5976   -7.5653 H   0  0  0  0  0  0  0  0  0  0  0  0
    1.7212   -6.2980   -7.1560 H   0  0  0  0  0  0  0  0  0  0  0  0
    0.6659   -6.9306   -5.9251 H   0  0  0  0  0  0  0  0  0  0  0  0
    0.2032   -2.9296   -7.6338 H   0  0  0  0  0  0  0  0  0  0  0  0
    1.5189   -3.9686   -8.1115 H   0  0  0  0  0  0  0  0  0  0  0  0
   -0.1988   -4.4023   -8.4476 H   0  0  0  0  0  0  0  0  0  0  0  0
   -0.5107    0.3758   -4.5878 H   0  0  0  0  0  0  0  0  0  0  0  0
    0.2246   -0.1051   -3.1553 H   0  0  0  0  0  0  0  0  0  0  0  0
    1.1893   -0.2166   -4.4170 H   0  0  0  0  0  0  0  0  0  0  0  0
   -3.6457   -1.7890   -6.3205 H   0  0  0  0  0  0  0  0  0  0  0  0
   -3.3574   -0.2598   -5.7685 H   0  0  0  0  0  0  0  0  0  0  0  0
   -1.9825   -1.0053   -6.1555 H   0  0  0  0  0  0  0  0  0  0  0  0
   -6.8491    3.5181   -4.4885 H   0  0  0  0  0  0  0  0  0  0  0  0
   -8.5095    3.2666   -3.8286 H   0  0  0  0  0  0  0  0  0  0  0  0
   -7.0925    3.2870   -2.7509 H   0  0  0  0  0  0  0  0  0  0  0  0
   -7.6874   -0.0887   -5.3951 H   0  0  0  0  0  0  0  0  0  0  0  0
   -8.8411    1.2119   -5.4370 H   0  0  0  0  0  0  0  0  0  0  0  0
   -7.1664    1.4544   -6.0692 H   0  0  0  0  0  0  0  0  0  0  0  0
   -5.2271    0.3366   -1.8902 H   0  0  0  0  0  0  0  0  0  0  0  0
   -5.4642   -2.9207   -0.0091 H   0  0  0  0  0  0  0  0  0  0  0  0
   -4.6719   -4.3256   -0.0056 H   0  0  0  0  0  0  0  0  0  0  0  0
   -4.0017   -2.5801    0.6143 H   0  0  0  0  0  0  0  0  0  0  0  0
  1 41  1  0  0  0  0
  1 42  1  0  0  0  0
  1 43  1  0  0  0  0
  2  1  1  1  0  0  0
  2  3  1  0  0  0  0
  2 11  1  0  0  0  0
  2 16  1  0  0  0  0
  3  4  1  0  0  0  0
  3 44  1  0  0  0  0
  3 45  1  0  0  0  0
  4  5  1  0  0  0  0
  4 46  1  0  0  0  0
  4 47  1  0  0  0  0
  5  6  1  0  0  0  0
  5 10  1  0  0  0  0
  5 34  1  6  0  0  0
  6  7  1  0  0  0  0
  6 48  1  0  0  0  0
  6 49  1  0  0  0  0
  7  8  1  0  0  0  0
  7 50  1  0  0  0  0
  7 51  1  0  0  0  0
  8  9  1  0  0  0  0
  8 32  1  0  0  0  0
  8 33  1  0  0  0  0
  9 52  1  0  0  0  0
  9 53  1  0  0  0  0
 10  9  1  0  0  0  0
 10 11  1  0  0  0  0
 10 54  1  6  0  0  0
 11 12  1  0  0  0  0
 11 55  1  6  0  0  0
 12 13  2  0  0  0  0
 12 14  1  0  0  0  0
 14 15  2  0  0  0  0
 14 56  1  0  0  0  0
 15 16  1  0  0  0  0
 15 20  1  0  0  0  0
 16 17  1  0  0  0  0
 16 31  1  6  0  0  0
 17 18  1  0  0  0  0
 17 57  1  0  0  0  0
 17 58  1  0  0  0  0
 18 59  1  0  0  0  0
 18 60  1  0  0  0  0
 19 18  1  0  0  0  0
 19 20  1  0  0  0  0
 19 25  1  0  0  0  0
 19 61  1  1  0  0  0
 20 21  1  0  0  0  0
 20 30  1  6  0  0  0
 21 22  2  0  0  0  0
 21 62  1  0  0  0  0
 22 23  1  0  0  0  0
 22 28  1  0  0  0  0
 23 24  2  0  0  0  0
 23 25  1  0  0  0  0
 25 26  1  0  0  0  0
 25 27  1  0  0  0  0
 26 63  1  0  0  0  0
 26 64  1  0  0  0  0
 26 65  1  0  0  0  0
 27 66  1  0  0  0  0
 27 67  1  0  0  0  0
 27 68  1  0  0  0  0
 28 29  3  0  0  0  0
 30 69  1  0  0  0  0
 30 70  1  0  0  0  0
 30 71  1  0  0  0  0
 31 72  1  0  0  0  0
 31 73  1  0  0  0  0
 31 74  1  0  0  0  0
 32 75  1  0  0  0  0
 32 76  1  0  0  0  0
 32 77  1  0  0  0  0
 33 78  1  0  0  0  0
 33 79  1  0  0  0  0
 33 80  1  0  0  0  0
 34 35  1  0  0  0  0
 34 81  1  0  0  0  0
 35 36  2  0  0  0  0
 35 37  1  0  0  0  0
 37 38  1  0  0  0  0
 37 39  1  0  0  0  0
 37 40  1  0  0  0  0
 38 82  1  0  0  0  0
 38 83  1  0  0  0  0
 38 84  1  0  0  0  0
M  END
>  <DRUGBANK_ID>
DB12513

>  <COMMON_NAME>
Omaveloxolone

>  <CAS_NUMBER>
1474034-05-3

>  <UNII>
G69Z98951Q

>  <SYNONYMS>
Omaveloxolone; Propanamide, N-(2-cyano-3,12-dioxo-28-noroleana-1,9(11)-dien-17-yl)-2,2-difluoro-

$$$$
