
 OpenBabel10282417203D

 27 27  0  0  0  0  0  0  0  0999 V2000
    0.8713    0.1456    0.0369 C   0  0  0  0  0  0  0  0  0  0  0  0
    0.3114   -0.9774   -0.8635 C   0  0  0  0  0  0  0  0  0  0  0  0
    1.0912   -2.3416   -0.7582 C   0  0  0  0  0  0  0  0  0  0  0  0
    2.3283   -1.9040   -1.5914 C   0  0  0  0  0  0  0  0  0  0  0  0
    3.3906   -1.4934   -1.1083 O   0  0  0  0  0  0  0  0  0  0  0  0
    2.0359   -1.7869   -3.1238 C   0  0  0  0  0  0  0  0  0  0  0  0
    1.6305   -3.1529   -3.6028 C   0  0  0  0  0  0  0  0  0  0  0  0
    0.4537   -3.5618   -2.8624 N   0  0  0  0  0  0  0  0  0  0  0  0
    0.6697   -3.6540   -1.5180 C   0  0  0  0  0  0  0  0  0  0  0  0
    0.7443   -4.7997   -1.0636 O   0  0  0  0  0  0  0  0  0  0  0  0
    0.9059   -2.8718    0.7022 C   0  0  0  0  0  0  0  0  0  0  0  0
    1.4267   -2.1598    1.9204 C   0  0  0  0  0  0  0  0  0  0  0  0
    0.3938    0.1527    1.0126 H   0  0  0  0  0  0  0  0  0  0  0  0
    0.6654    1.1312   -0.3903 H   0  0  0  0  0  0  0  0  0  0  0  0
    1.9604    0.0907    0.1681 H   0  0  0  0  0  0  0  0  0  0  0  0
   -0.7654   -1.1077   -0.7598 H   0  0  0  0  0  0  0  0  0  0  0  0
    0.4118   -0.5092   -1.8410 H   0  0  0  0  0  0  0  0  0  0  0  0
    1.1771   -1.1418   -3.3421 H   0  0  0  0  0  0  0  0  0  0  0  0
    2.8687   -1.3438   -3.6682 H   0  0  0  0  0  0  0  0  0  0  0  0
    1.3578   -3.1677   -4.6598 H   0  0  0  0  0  0  0  0  0  0  0  0
    2.4519   -3.8594   -3.4279 H   0  0  0  0  0  0  0  0  0  0  0  0
    0.0611   -4.4412   -3.1850 H   0  0  0  0  0  0  0  0  0  0  0  0
   -0.1899   -2.9712    0.8361 H   0  0  0  0  0  0  0  0  0  0  0  0
    1.2756   -3.8961    0.8322 H   0  0  0  0  0  0  0  0  0  0  0  0
    0.8981   -1.2406    2.1442 H   0  0  0  0  0  0  0  0  0  0  0  0
    1.2371   -2.7862    2.8009 H   0  0  0  0  0  0  0  0  0  0  0  0
    2.4962   -1.9879    1.8246 H   0  0  0  0  0  0  0  0  0  0  0  0
  1  2  1  0  0  0  0
  1 13  1  0  0  0  0
  1 14  1  0  0  0  0
  1 15  1  0  0  0  0
  2  3  1  0  0  0  0
  2 16  1  0  0  0  0
  2 17  1  0  0  0  0
  3  4  1  0  0  0  0
  3  9  1  0  0  0  0
  3 11  1  0  0  0  0
  4  5  2  0  0  0  0
  4  6  1  0  0  0  0
  6  7  1  0  0  0  0
  6 18  1  0  0  0  0
  6 19  1  0  0  0  0
  7  8  1  0  0  0  0
  7 20  1  0  0  0  0
  7 21  1  0  0  0  0
  8  9  1  0  0  0  0
  8 22  1  0  0  0  0
  9 10  2  0  0  0  0
 11 12  1  0  0  0  0
 11 23  1  0  0  0  0
 11 24  1  0  0  0  0
 12 25  1  0  0  0  0
 12 26  1  0  0  0  0
 12 27  1  0  0  0  0
M  END
>  <DRUGBANK_ID>
DB13224

>  <COMMON_NAME>
Piperidione

>  <CAS_NUMBER>
77-03-2

>  <UNII>
BZ6KL0Q8UD

$$$$
