1104
 OpenBabel10282417113D

 37 39  0  0  1  0  0  0  0  0999 V2000
    1.3545    1.6150    0.0020 Cl  0  0  0  0  0  0  0  0  0  0  0  0
    1.3999   -1.6390    0.0327 Cl  0  0  0  0  0  0  0  0  0  0  0  0
   -3.1779    5.4535    0.8058 N   0  0  0  0  0  0  0  0  0  0  0  0
   -3.8759    1.3304    0.0001 C   0  0  2  0  0  0  0  0  0  0  0  0
   -4.2620    2.3641   -1.0689 C   0  0  0  0  0  0  0  0  0  0  0  0
   -4.0778    4.2943    0.6072 C   0  0  1  0  0  0  0  0  0  0  0  0
   -3.6808    3.7430   -0.7928 C   0  0  0  0  0  0  0  0  0  0  0  0
   -3.9424    1.8619    1.4194 C   0  0  0  0  0  0  0  0  0  0  0  0
   -4.0299    3.2326    1.7094 C   0  0  0  0  0  0  0  0  0  0  0  0
   -2.5241    0.6375   -0.1800 C   0  0  0  0  0  0  0  0  0  0  0  0
   -3.8138    0.9257    2.4746 C   0  0  0  0  0  0  0  0  0  0  0  0
   -4.1237    3.5659    3.0718 C   0  0  0  0  0  0  0  0  0  0  0  0
   -1.3074    1.3394   -0.1392 C   0  0  0  0  0  0  0  0  0  0  0  0
   -2.4844   -0.7651   -0.1212 C   0  0  0  0  0  0  0  0  0  0  0  0
   -3.7002    1.3219    3.7950 C   0  0  0  0  0  0  0  0  0  0  0  0
   -3.8622    2.6597    4.0979 C   0  0  0  0  0  0  0  0  0  0  0  0
   -3.4474    6.2867    1.9647 C   0  0  0  0  0  0  0  0  0  0  0  0
   -0.0856    0.6623   -0.0797 C   0  0  0  0  0  0  0  0  0  0  0  0
   -1.2689   -1.4430   -0.0418 C   0  0  0  0  0  0  0  0  0  0  0  0
   -0.0671   -0.7330   -0.0404 C   0  0  0  0  0  0  0  0  0  0  0  0
   -2.2144    5.1249    0.8530 H   0  0  0  0  0  0  0  0  0  0  0  0
   -4.6555    0.5573   -0.0843 H   0  0  0  0  0  0  0  0  0  0  0  0
   -5.3568    2.4663   -1.0887 H   0  0  0  0  0  0  0  0  0  0  0  0
   -3.9733    2.0140   -2.0687 H   0  0  0  0  0  0  0  0  0  0  0  0
   -5.1152    4.6449    0.5275 H   0  0  0  0  0  0  0  0  0  0  0  0
   -2.5940    3.6975   -0.9118 H   0  0  0  0  0  0  0  0  0  0  0  0
   -4.0108    4.4370   -1.5789 H   0  0  0  0  0  0  0  0  0  0  0  0
   -3.7384   -0.1386    2.2565 H   0  0  0  0  0  0  0  0  0  0  0  0
   -4.3991    4.5634    3.3925 H   0  0  0  0  0  0  0  0  0  0  0  0
   -1.2924    2.4216   -0.0661 H   0  0  0  0  0  0  0  0  0  0  0  0
   -3.4098   -1.3355   -0.0489 H   0  0  0  0  0  0  0  0  0  0  0  0
   -3.5121    0.5966    4.5779 H   0  0  0  0  0  0  0  0  0  0  0  0
   -3.7999    3.0033    5.1243 H   0  0  0  0  0  0  0  0  0  0  0  0
   -3.0351    5.8378    2.8721 H   0  0  0  0  0  0  0  0  0  0  0  0
   -2.9318    7.2464    1.8882 H   0  0  0  0  0  0  0  0  0  0  0  0
   -4.5174    6.4864    2.0872 H   0  0  0  0  0  0  0  0  0  0  0  0
   -1.2714   -2.5256    0.0510 H   0  0  0  0  0  0  0  0  0  0  0  0
  1 18  1  0  0  0  0
  2 20  1  0  0  0  0
  3 17  1  0  0  0  0
  3 21  1  0  0  0  0
  4  5  1  0  0  0  0
  4  8  1  0  0  0  0
  4 10  1  0  0  0  0
  4 22  1  6  0  0  0
  5  7  1  0  0  0  0
  5 23  1  0  0  0  0
  5 24  1  0  0  0  0
  6  3  1  0  0  0  0
  6  7  1  0  0  0  0
  6  9  1  0  0  0  0
  6 25  1  6  0  0  0
  7 26  1  0  0  0  0
  7 27  1  0  0  0  0
  8  9  1  0  0  0  0
  8 11  2  0  0  0  0
  9 12  2  0  0  0  0
 10 13  2  0  0  0  0
 10 14  1  0  0  0  0
 11 15  1  0  0  0  0
 11 28  1  0  0  0  0
 12 16  1  0  0  0  0
 12 29  1  0  0  0  0
 13 18  1  0  0  0  0
 13 30  1  0  0  0  0
 14 19  2  0  0  0  0
 14 31  1  0  0  0  0
 15 16  2  0  0  0  0
 15 32  1  0  0  0  0
 16 33  1  0  0  0  0
 17 34  1  0  0  0  0
 17 35  1  0  0  0  0
 17 36  1  0  0  0  0
 18 20  2  0  0  0  0
 19 20  1  0  0  0  0
 19 37  1  0  0  0  0
M  END
>  <DRUGBANK_ID>
DB01104

>  <SECONDARY_ACCESSION_NUMBERS>
APRD00175; DB08567

>  <COMMON_NAME>
Sertraline

>  <CAS_NUMBER>
79617-96-2

>  <UNII>
QUC7NX6WMB

>  <SYNONYMS>
(+)-Sertraline; (1S-cis)-1,2,3,4-tetrahydro-4-(3,4-dichlorophenyl)-N-methyl-1-naphthalenamine; (1S,4S)-sertraline; cis-(+)-sertraline; Sertralina; Sertraline; Sertralinum

$$$$
