5HD
 OpenBabel10282417163D

 38 37  0  0  0  0  0  0  0  0999 V2000
    1.1031    0.0378    0.0449 C   0  0  0  0  0  0  0  0  0  0  0  0
    0.5853    1.4146   -0.3774 C   0  0  0  0  0  0  0  0  0  0  0  0
    1.0735    1.8802   -1.7458 C   0  0  0  0  0  0  0  0  0  0  0  0
   -1.4388   -5.7955    1.5270 O   0  0  0  0  0  0  0  0  0  0  0  0
   -1.1451   -5.3146    0.2240 C   0  0  0  0  0  0  0  0  0  0  0  0
   -1.7457   -3.9225    0.0603 C   0  0  0  0  0  0  0  0  0  0  0  0
   -1.0152   -2.8644    0.8948 C   0  0  0  0  0  0  0  0  0  0  0  0
    0.5226   -2.8807    0.8020 C   0  0  0  0  0  0  0  0  0  0  0  0
    1.1222   -2.4671   -0.5618 C   0  0  0  0  0  0  0  0  0  0  0  0
    0.8071   -3.4339   -1.7371 C   0  0  0  0  0  0  0  0  0  0  0  0
    1.3306   -3.0793   -3.1261 C   0  0  0  0  0  0  0  0  0  0  0  0
    2.7407   -3.0176   -3.1509 O   0  0  0  0  0  0  0  0  0  0  0  0
    0.6714   -1.0558   -0.9253 C   0  0  0  0  0  0  0  0  0  0  0  0
    0.4560    1.1544   -2.8067 O   0  0  0  0  0  0  0  0  0  0  0  0
    0.7294   -0.1577    1.0554 H   0  0  0  0  0  0  0  0  0  0  0  0
    2.1978    0.0520    0.1072 H   0  0  0  0  0  0  0  0  0  0  0  0
   -0.5116    1.3959   -0.3607 H   0  0  0  0  0  0  0  0  0  0  0  0
    0.9132    2.1394    0.3767 H   0  0  0  0  0  0  0  0  0  0  0  0
    0.8049    2.9268   -1.8890 H   0  0  0  0  0  0  0  0  0  0  0  0
    2.1623    1.7869   -1.8308 H   0  0  0  0  0  0  0  0  0  0  0  0
   -1.1022   -5.1388    2.1608 H   0  0  0  0  0  0  0  0  0  0  0  0
   -1.5567   -6.0077   -0.5135 H   0  0  0  0  0  0  0  0  0  0  0  0
   -0.0603   -5.3449    0.0974 H   0  0  0  0  0  0  0  0  0  0  0  0
   -2.7977   -3.9381    0.3616 H   0  0  0  0  0  0  0  0  0  0  0  0
   -1.7919   -3.6257   -0.9874 H   0  0  0  0  0  0  0  0  0  0  0  0
   -1.2928   -3.0049    1.9460 H   0  0  0  0  0  0  0  0  0  0  0  0
   -1.4051   -1.8730    0.6364 H   0  0  0  0  0  0  0  0  0  0  0  0
    0.9321   -3.8473    1.1125 H   0  0  0  0  0  0  0  0  0  0  0  0
    0.8997   -2.1956    1.5734 H   0  0  0  0  0  0  0  0  0  0  0  0
    2.2128   -2.4549   -0.4333 H   0  0  0  0  0  0  0  0  0  0  0  0
    1.1564   -4.4373   -1.4756 H   0  0  0  0  0  0  0  0  0  0  0  0
   -0.2592   -3.4764   -1.9089 H   0  0  0  0  0  0  0  0  0  0  0  0
    1.0026   -3.8484   -3.8350 H   0  0  0  0  0  0  0  0  0  0  0  0
    0.9114   -2.1359   -3.4916 H   0  0  0  0  0  0  0  0  0  0  0  0
    3.0228   -2.4025   -2.4566 H   0  0  0  0  0  0  0  0  0  0  0  0
   -0.4133   -1.0197   -1.0832 H   0  0  0  0  0  0  0  0  0  0  0  0
    1.1437   -0.8458   -1.8749 H   0  0  0  0  0  0  0  0  0  0  0  0
    1.0927    0.5214   -3.1427 H   0  0  0  0  0  0  0  0  0  0  0  0
  1  2  1  0  0  0  0
  1 15  1  0  0  0  0
  1 16  1  0  0  0  0
  2  3  1  0  0  0  0
  2 17  1  0  0  0  0
  2 18  1  0  0  0  0
  3 14  1  0  0  0  0
  3 19  1  0  0  0  0
  3 20  1  0  0  0  0
  4 21  1  0  0  0  0
  5  4  1  0  0  0  0
  5  6  1  0  0  0  0
  5 22  1  0  0  0  0
  5 23  1  0  0  0  0
  6  7  1  0  0  0  0
  6 24  1  0  0  0  0
  6 25  1  0  0  0  0
  7  8  1  0  0  0  0
  7 26  1  0  0  0  0
  7 27  1  0  0  0  0
  8 28  1  0  0  0  0
  8 29  1  0  0  0  0
  9  8  1  0  0  0  0
  9 13  1  0  0  0  0
  9 30  1  0  0  0  0
 10  9  1  0  0  0  0
 10 31  1  0  0  0  0
 10 32  1  0  0  0  0
 11 10  1  0  0  0  0
 11 33  1  0  0  0  0
 11 34  1  0  0  0  0
 12 11  1  0  0  0  0
 12 35  1  0  0  0  0
 13  1  1  0  0  0  0
 13 36  1  0  0  0  0
 13 37  1  0  0  0  0
 14 38  1  0  0  0  0
M  END
>  <DRUGBANK_ID>
DB07171

>  <COMMON_NAME>
5-(2-hydroxyethyl)nonane-1,9-diol

$$$$
