
 OpenBabel10282417123D

 53 54  0  0  0  0  0  0  0  0999 V2000
    5.5755    3.9896    6.2413 P   0  0  0  0  0  0  0  0  0  0  0  0
    0.0349   -0.6398   11.5510 O   0  0  0  0  0  0  0  0  0  0  0  0
    1.1983   -3.8201   10.1273 O   0  0  0  0  0  0  0  0  0  0  0  0
    3.5485   -0.4426    8.4452 O   0  0  0  0  0  0  0  0  0  0  0  0
   -1.4703   -2.0798    9.4440 O   0  0  0  0  0  0  0  0  0  0  0  0
    2.2351    4.7263    9.4305 O   0  0  0  0  0  0  0  0  0  0  0  0
   -3.4125   -2.9667   11.0735 O   0  0  0  0  0  0  0  0  0  0  0  0
    4.5601    3.8049    4.9722 O   0  0  0  0  0  0  0  0  0  0  0  0
   -1.6794    3.1231   11.1520 O   0  0  0  0  0  0  0  0  0  0  0  0
    6.8772    4.7068    5.5862 O   0  0  0  0  0  0  0  0  0  0  0  0
    6.2944    2.5057    5.7179 O   0  0  0  0  0  0  0  0  0  0  0  0
    4.9322    5.3178    6.7098 O   0  0  0  0  0  0  0  0  0  0  0  0
    1.5096    0.2336    9.2713 N   0  0  0  0  0  0  0  0  0  0  0  0
    2.9414    1.8289    8.8626 N   0  0  0  0  0  0  0  0  0  0  0  0
   -0.2601    1.6586   10.1588 N   0  0  0  0  0  0  0  0  0  0  0  0
    0.2588    3.9301   10.2640 N   0  0  0  0  0  0  0  0  0  0  0  0
    1.0533   -1.0915    9.3607 C   0  0  0  0  0  0  0  0  0  0  0  0
    0.8939   -1.5188   10.8181 C   0  0  2  0  0  0  0  0  0  0  0  0
    0.9386    1.4271    9.5951 C   0  0  0  0  0  0  0  0  0  0  0  0
    1.8121    2.3951    9.3539 C   0  0  0  0  0  0  0  0  0  0  0  0
    0.3581   -2.9452   10.8936 C   0  0  1  0  0  0  0  0  0  0  0  0
    2.7875    0.4448    8.8145 C   0  0  0  0  0  0  0  0  0  0  0  0
    4.0670    2.4794    8.3801 C   0  0  0  0  0  0  0  0  0  0  0  0
   -1.1102   -3.0645   10.4260 C   0  0  1  0  0  0  0  0  0  0  0  0
    4.5971    1.6638    7.2334 C   0  0  0  0  0  0  0  0  0  0  0  0
    1.4866    3.7877    9.6609 C   0  0  0  0  0  0  0  0  0  0  0  0
    3.7125    1.7391    5.9392 C   0  0  0  0  0  0  0  0  0  0  0  0
   -2.0804   -2.9130   11.5909 C   0  0  0  0  0  0  0  0  0  0  0  0
   -0.6286    2.9179   10.5569 C   0  0  0  0  0  0  0  0  0  0  0  0
    3.3698    3.1385    5.3999 C   0  0  0  0  0  0  0  0  0  0  0  0
   -0.8907    0.8865   10.3542 H   0  0  0  0  0  0  0  0  0  0  0  0
   -0.0063    4.8660   10.5282 H   0  0  0  0  0  0  0  0  0  0  0  0
    0.4955    0.2182   11.5818 H   0  0  0  0  0  0  0  0  0  0  0  0
    1.1028   -3.5921    9.1854 H   0  0  0  0  0  0  0  0  0  0  0  0
   -2.4082   -2.2229    9.2350 H   0  0  0  0  0  0  0  0  0  0  0  0
   -3.6170   -2.0776   10.7336 H   0  0  0  0  0  0  0  0  0  0  0  0
    6.8421    5.6281    5.9264 H   0  0  0  0  0  0  0  0  0  0  0  0
    6.9758    2.7902    5.0750 H   0  0  0  0  0  0  0  0  0  0  0  0
    0.1976   -1.1278    8.6976 H   0  0  0  0  0  0  0  0  0  0  0  0
    1.7949   -1.7519    8.8887 H   0  0  0  0  0  0  0  0  0  0  0  0
    1.8798   -1.4690   11.3023 H   0  0  0  0  0  0  0  0  0  0  0  0
    0.4388   -3.2921   11.9302 H   0  0  0  0  0  0  0  0  0  0  0  0
    4.8091    2.5814    9.1773 H   0  0  0  0  0  0  0  0  0  0  0  0
    3.8044    3.4927    8.0689 H   0  0  0  0  0  0  0  0  0  0  0  0
   -1.2565   -4.0251    9.9252 H   0  0  0  0  0  0  0  0  0  0  0  0
    4.8695    0.6217    7.3747 H   0  0  0  0  0  0  0  0  0  0  0  0
    5.6166    1.9927    7.3168 H   0  0  0  0  0  0  0  0  0  0  0  0
    2.7670    1.2156    6.1281 H   0  0  0  0  0  0  0  0  0  0  0  0
    4.2069    1.1811    5.1338 H   0  0  0  0  0  0  0  0  0  0  0  0
   -1.9437   -3.7297   12.3038 H   0  0  0  0  0  0  0  0  0  0  0  0
   -1.9632   -1.9612   12.1175 H   0  0  0  0  0  0  0  0  0  0  0  0
    2.8561    3.7421    6.1585 H   0  0  0  0  0  0  0  0  0  0  0  0
    2.6790    3.0754    4.5523 H   0  0  0  0  0  0  0  0  0  0  0  0
  1  8  1  0  0  0  0
  1 10  1  0  0  0  0
  1 11  1  0  0  0  0
  1 12  2  0  0  0  0
  2 33  1  0  0  0  0
  3 34  1  0  0  0  0
  4 22  2  0  0  0  0
  5 35  1  0  0  0  0
  6 26  2  0  0  0  0
  7 28  1  0  0  0  0
  7 36  1  0  0  0  0
  8 30  1  0  0  0  0
  9 29  2  0  0  0  0
 10 37  1  0  0  0  0
 11 38  1  0  0  0  0
 13 17  1  0  0  0  0
 13 19  1  0  0  0  0
 13 22  1  0  0  0  0
 14 20  1  0  0  0  0
 14 22  1  0  0  0  0
 14 23  1  0  0  0  0
 15 19  1  0  0  0  0
 15 29  1  0  0  0  0
 15 31  1  0  0  0  0
 16 26  1  0  0  0  0
 16 29  1  0  0  0  0
 16 32  1  0  0  0  0
 17 18  1  0  0  0  0
 17 39  1  0  0  0  0
 17 40  1  0  0  0  0
 18  2  1  0  0  0  0
 18 41  1  1  0  0  0
 19 20  2  0  0  0  0
 20 26  1  0  0  0  0
 21 42  1  1  0  0  0
 21 18  1  0  0  0  0
 21  3  1  0  0  0  0
 23 25  1  0  0  0  0
 23 43  1  0  0  0  0
 23 44  1  0  0  0  0
 24 28  1  0  0  0  0
 24 45  1  6  0  0  0
 24 21  1  0  0  0  0
 24  5  1  0  0  0  0
 25 27  1  0  0  0  0
 25 46  1  0  0  0  0
 25 47  1  0  0  0  0
 27 30  1  0  0  0  0
 27 48  1  0  0  0  0
 27 49  1  0  0  0  0
 28 50  1  0  0  0  0
 28 51  1  0  0  0  0
 30 52  1  0  0  0  0
 30 53  1  0  0  0  0
M  END
>  <DRUGBANK_ID>
DB02135

>  <SECONDARY_ACCESSION_NUMBERS>
EXPT03118

>  <COMMON_NAME>
1-deoxy-1-{2,6,8-trioxo-7-[4-(phosphonooxy)butyl]-1,2,3,6,7,8-hexahydro-9H-purin-9-yl}-D-arabinitol

>  <SYNONYMS>
4-[2,6,8-trioxo-9-[(2R,3S,4R)-2,3,4,5-tetrahydroxypentyl]-3H-purin-7-yl]butyl dihydrogen phosphate

$$$$
