
 OpenBabel10282417183D

 22 22  0  0  0  0  0  0  0  0999 V2000
    0.9446   -0.0232    0.0514 N   0  0  0  0  0  0  0  0  0  0  0  0
    0.4495    0.3222    1.3767 N   0  0  0  0  0  0  0  0  0  0  0  0
    1.0114    2.4296   -0.6364 C   0  0  0  0  0  0  0  0  0  0  0  0
    0.5398    1.0091   -0.9413 C   0  0  3  0  0  0  0  0  0  0  0  0
    0.4306    3.5052   -1.3229 C   0  0  0  0  0  0  0  0  0  0  0  0
    1.9556    2.7155    0.3665 C   0  0  0  0  0  0  0  0  0  0  0  0
    0.7419    4.8235   -0.9805 C   0  0  0  0  0  0  0  0  0  0  0  0
    2.2178    4.0294    0.7502 C   0  0  0  0  0  0  0  0  0  0  0  0
    1.6190    5.0805    0.0731 C   0  0  0  0  0  0  0  0  0  0  0  0
    1.0229    0.5653   -2.3268 C   0  0  0  0  0  0  0  0  0  0  0  0
    1.9683   -0.0729    0.0357 H   0  0  0  0  0  0  0  0  0  0  0  0
   -0.5719    0.3599    1.4045 H   0  0  0  0  0  0  0  0  0  0  0  0
    0.7401   -0.3515    2.0869 H   0  0  0  0  0  0  0  0  0  0  0  0
   -0.5594    1.0202   -0.9611 H   0  0  0  0  0  0  0  0  0  0  0  0
   -0.2921    3.3248   -2.1171 H   0  0  0  0  0  0  0  0  0  0  0  0
    2.4529    1.9200    0.9107 H   0  0  0  0  0  0  0  0  0  0  0  0
    0.2778    5.6456   -1.5138 H   0  0  0  0  0  0  0  0  0  0  0  0
    2.8715    4.2144    1.5992 H   0  0  0  0  0  0  0  0  0  0  0  0
    1.8301    6.1041    0.3696 H   0  0  0  0  0  0  0  0  0  0  0  0
    0.6548   -0.4382   -2.5699 H   0  0  0  0  0  0  0  0  0  0  0  0
    0.6563    1.2393   -3.1099 H   0  0  0  0  0  0  0  0  0  0  0  0
    2.1168    0.5535   -2.3887 H   0  0  0  0  0  0  0  0  0  0  0  0
  1  2  1  0  0  0  0
  1  4  1  0  0  0  0
  1 11  1  0  0  0  0
  2 12  1  0  0  0  0
  2 13  1  0  0  0  0
  3  4  1  0  0  0  0
  3  5  2  0  0  0  0
  3  6  1  0  0  0  0
  4 10  1  0  0  0  0
  4 14  1  0  0  0  0
  5  7  1  0  0  0  0
  5 15  1  0  0  0  0
  6  8  2  0  0  0  0
  6 16  1  0  0  0  0
  7  9  2  0  0  0  0
  7 17  1  0  0  0  0
  8  9  1  0  0  0  0
  8 18  1  0  0  0  0
  9 19  1  0  0  0  0
 10 20  1  0  0  0  0
 10 21  1  0  0  0  0
 10 22  1  0  0  0  0
M  END
>  <DRUGBANK_ID>
DB09248

>  <COMMON_NAME>
Mebanazine

>  <CAS_NUMBER>
65-64-5

>  <UNII>
Z5R55CJ4CG

>  <SYNONYMS>
Mebanazine

$$$$
