
 OpenBabel10282417173D

 35 37  0  0  0  0  0  0  0  0999 V2000
   -0.9765   -2.0320    0.0534 C   0  0  0  0  0  0  0  0  0  0  0  0
    0.1268   -1.1722    0.0405 C   0  0  0  0  0  0  0  0  0  0  0  0
   -0.0894    0.2048   -0.0135 C   0  0  0  0  0  0  0  0  0  0  0  0
    1.0613    1.1060    0.0237 C   0  0  0  0  0  0  0  0  0  0  0  0
   -1.3872    0.7183   -0.0460 C   0  0  0  0  0  0  0  0  0  0  0  0
    1.3690   -1.7483    0.1445 O   0  0  0  0  0  0  0  0  0  0  0  0
    2.3875    0.4874    0.2627 C   0  0  0  0  0  0  0  0  0  0  0  0
   -2.4791   -0.1391   -0.0461 C   0  0  0  0  0  0  0  0  0  0  0  0
    2.4554   -0.9231   -0.3106 C   0  0  1  0  0  0  0  0  0  0  0  0
   -2.2827   -1.5198    0.0051 C   0  0  0  0  0  0  0  0  0  0  0  0
    0.9032    2.3257   -0.0429 O   0  0  0  0  0  0  0  0  0  0  0  0
   -1.6655    2.0593   -0.0541 O   0  0  0  0  0  0  0  0  0  0  0  0
    3.7889   -1.5926    0.0341 C   0  0  0  0  0  0  0  0  0  0  0  0
    4.0611   -2.9000   -0.4010 C   0  0  0  0  0  0  0  0  0  0  0  0
    4.8147   -0.8997    0.7080 C   0  0  0  0  0  0  0  0  0  0  0  0
    5.3374   -3.4580   -0.2356 C   0  0  0  0  0  0  0  0  0  0  0  0
    6.0807   -1.4504    0.8713 C   0  0  0  0  0  0  0  0  0  0  0  0
    6.3419   -2.7148    0.3778 C   0  0  0  0  0  0  0  0  0  0  0  0
    7.6165   -3.1751    0.5142 O   0  0  0  0  0  0  0  0  0  0  0  0
   -3.2879   -2.4509    0.0217 O   0  0  0  0  0  0  0  0  0  0  0  0
   -4.6197   -1.9392   -0.0095 C   0  0  0  0  0  0  0  0  0  0  0  0
   -0.8230   -3.1080    0.1020 H   0  0  0  0  0  0  0  0  0  0  0  0
    3.1446    1.1203   -0.2160 H   0  0  0  0  0  0  0  0  0  0  0  0
    2.5346    0.4882    1.3490 H   0  0  0  0  0  0  0  0  0  0  0  0
   -3.4672    0.3061   -0.0773 H   0  0  0  0  0  0  0  0  0  0  0  0
    2.4026   -0.8734   -1.4093 H   0  0  0  0  0  0  0  0  0  0  0  0
   -0.8133    2.5520   -0.0296 H   0  0  0  0  0  0  0  0  0  0  0  0
    3.2842   -3.4851   -0.8910 H   0  0  0  0  0  0  0  0  0  0  0  0
    4.6750    0.1017    1.1050 H   0  0  0  0  0  0  0  0  0  0  0  0
    5.5300   -4.4597   -0.6063 H   0  0  0  0  0  0  0  0  0  0  0  0
    6.8611   -0.8763    1.3619 H   0  0  0  0  0  0  0  0  0  0  0  0
    7.6833   -4.0474    0.0962 H   0  0  0  0  0  0  0  0  0  0  0  0
   -4.8251   -1.3176    0.8696 H   0  0  0  0  0  0  0  0  0  0  0  0
   -4.8059   -1.3832   -0.9353 H   0  0  0  0  0  0  0  0  0  0  0  0
   -5.3127   -2.7848    0.0141 H   0  0  0  0  0  0  0  0  0  0  0  0
  1 10  1  0  0  0  0
  1 22  1  0  0  0  0
  2  1  2  0  0  0  0
  2  6  1  0  0  0  0
  3  2  1  0  0  0  0
  3  4  1  0  0  0  0
  3  5  2  0  0  0  0
  4 11  2  0  0  0  0
  4  7  1  0  0  0  0
  5 12  1  0  0  0  0
  5  8  1  0  0  0  0
  6  9  1  0  0  0  0
  7  9  1  0  0  0  0
  7 23  1  0  0  0  0
  7 24  1  0  0  0  0
  8 10  2  0  0  0  0
  8 25  1  0  0  0  0
  9 26  1  6  0  0  0
  9 13  1  0  0  0  0
 10 20  1  0  0  0  0
 12 27  1  0  0  0  0
 13 14  2  0  0  0  0
 13 15  1  0  0  0  0
 14 16  1  0  0  0  0
 14 28  1  0  0  0  0
 15 17  2  0  0  0  0
 15 29  1  0  0  0  0
 16 18  2  0  0  0  0
 16 30  1  0  0  0  0
 17 18  1  0  0  0  0
 17 31  1  0  0  0  0
 18 19  1  0  0  0  0
 19 32  1  0  0  0  0
 20 21  1  0  0  0  0
 21 33  1  0  0  0  0
 21 34  1  0  0  0  0
 21 35  1  0  0  0  0
M  END
>  <DRUGBANK_ID>
DB08517

>  <COMMON_NAME>
Sakuranetin

>  <CAS_NUMBER>
2957-21-3

>  <UNII>
3O38P61299

>  <SYNONYMS>
(2S)-sakuranetin; (S)-(âˆ’)-4',5-dihydroxy-7-methoxyflavanone; 4',5-dihydroxy-7-methoxyflavanone; 5-hydroxy-2-(4-hydroxyphenyl)-7-methoxy-chroman-4-one; 5,4'-Dihydroxy-7-methoxyflavanone; Naringenin 7-methyl ether

$$$$
