
 OpenBabel10282417183D

 37 39  0  0  0  0  0  0  0  0999 V2000
    1.0547    0.0045    0.0210 C   0  0  0  0  0  0  0  0  0  0  0  0
    0.6237   -1.2322   -0.7341 C   0  0  0  0  0  0  0  0  0  0  0  0
   -0.2060   -1.1796   -1.8786 C   0  0  0  0  0  0  0  0  0  0  0  0
   -0.5284   -2.3751   -2.5569 C   0  0  0  0  0  0  0  0  0  0  0  0
   -0.0340   -3.6109   -2.0986 N   0  3  0  0  0  0  0  0  0  0  0  0
    0.7635   -3.6655   -0.9512 C   0  0  0  0  0  0  0  0  0  0  0  0
    1.0798   -2.4832   -0.2724 C   0  0  0  0  0  0  0  0  0  0  0  0
    2.0544   -2.5586    1.1690 Cl  0  0  0  0  0  0  0  0  0  0  0  0
    1.2513   -5.0234   -0.5389 C   0  0  0  0  0  0  0  0  0  0  0  0
   -0.2996   -4.6965   -2.7250 O   0  5  0  0  0  0  0  0  0  0  0  0
   -1.5044   -2.3466   -4.0073 Cl  0  0  0  0  0  0  0  0  0  0  0  0
   -0.7392    0.0938   -2.3560 C   0  0  0  0  0  0  0  0  0  0  0  0
    0.0685    1.1152   -2.8132 N   0  0  0  0  0  0  0  0  0  0  0  0
   -0.7953    2.0807   -3.0428 C   0  0  0  0  0  0  0  0  0  0  0  0
   -2.0869    1.7158   -2.7878 O   0  0  0  0  0  0  0  0  0  0  0  0
   -2.0457    0.3988   -2.3251 N   0  0  0  0  0  0  0  0  0  0  0  0
   -0.5905    3.4519   -3.4924 C   0  0  0  0  0  0  0  0  0  0  0  0
    0.1295    3.7303   -4.6666 C   0  0  0  0  0  0  0  0  0  0  0  0
    0.3126    5.0645   -5.0923 C   0  0  0  0  0  0  0  0  0  0  0  0
   -0.2052    6.1264   -4.3398 C   0  0  0  0  0  0  0  0  0  0  0  0
   -0.9015    5.8346   -3.1678 C   0  0  0  0  0  0  0  0  0  0  0  0
   -1.0990    4.5228   -2.7437 C   0  0  0  0  0  0  0  0  0  0  0  0
   -1.4144    6.8404   -2.3963 O   0  0  0  0  0  0  0  0  0  0  0  0
   -0.0928    7.4589   -4.6471 O   0  0  0  0  0  0  0  0  0  0  0  0
    1.0461    5.3227   -6.3346 N   0  3  0  0  0  0  0  0  0  0  0  0
    1.1845    6.5054   -6.6803 O   0  0  0  0  0  0  0  0  0  0  0  0
    1.4820    4.3496   -6.9666 O   0  5  0  0  0  0  0  0  0  0  0  0
    0.6811   -0.0329    1.0500 H   0  0  0  0  0  0  0  0  0  0  0  0
    0.7023    0.9395   -0.4116 H   0  0  0  0  0  0  0  0  0  0  0  0
    2.1498    0.0562    0.0325 H   0  0  0  0  0  0  0  0  0  0  0  0
    0.4057   -5.6846   -0.3269 H   0  0  0  0  0  0  0  0  0  0  0  0
    1.8708   -5.4578   -1.3298 H   0  0  0  0  0  0  0  0  0  0  0  0
    1.8673   -5.0049    0.3630 H   0  0  0  0  0  0  0  0  0  0  0  0
    0.5322    2.9017   -5.2502 H   0  0  0  0  0  0  0  0  0  0  0  0
   -1.6407    4.3490   -1.8158 H   0  0  0  0  0  0  0  0  0  0  0  0
   -1.1924    7.6757   -2.8553 H   0  0  0  0  0  0  0  0  0  0  0  0
    0.4041    7.5648   -5.4891 H   0  0  0  0  0  0  0  0  0  0  0  0
  1  2  1  0  0  0  0
  1 28  1  0  0  0  0
  1 29  1  0  0  0  0
  1 30  1  0  0  0  0
  2  3  2  0  0  0  0
  2  7  1  0  0  0  0
  3  4  1  0  0  0  0
  3 12  1  0  0  0  0
  4  5  2  0  0  0  0
  4 11  1  0  0  0  0
  5  6  1  0  0  0  0
  5 10  1  0  0  0  0
  6  7  2  0  0  0  0
  6  9  1  0  0  0  0
  7  8  1  0  0  0  0
  9 31  1  0  0  0  0
  9 32  1  0  0  0  0
  9 33  1  0  0  0  0
 12 13  1  0  0  0  0
 12 16  2  0  0  0  0
 13 14  2  0  0  0  0
 14 15  1  0  0  0  0
 14 17  1  0  0  0  0
 15 16  1  0  0  0  0
 17 18  2  0  0  0  0
 17 22  1  0  0  0  0
 18 19  1  0  0  0  0
 18 34  1  0  0  0  0
 19 20  2  0  0  0  0
 19 25  1  0  0  0  0
 20 21  1  0  0  0  0
 20 24  1  0  0  0  0
 21 22  2  0  0  0  0
 21 23  1  0  0  0  0
 22 35  1  0  0  0  0
 23 36  1  0  0  0  0
 24 37  1  0  0  0  0
 25 26  2  0  0  0  0
 25 27  1  0  0  0  0
M  CHG  4   5   1  10  -1  25   1  27  -1
M  END
>  <DRUGBANK_ID>
DB11632

>  <COMMON_NAME>
Opicapone

>  <CAS_NUMBER>
923287-50-7

>  <UNII>
Y5929UIJ5N

>  <SYNONYMS>
Opicapona; Opicapone

$$$$
