
 OpenBabel10282417183D

 81 83  0  0  0  0  0  0  0  0999 V2000
   -0.5556    1.4448   -4.3857 C   0  0  1  0  0  0  0  0  0  0  0  0
   -0.8318    2.1951   -3.1302 C   0  0  1  0  0  0  0  0  0  0  0  0
    1.9761    0.9832   -4.2163 O   0  0  0  0  0  0  0  0  0  0  0  0
    0.6646    0.4466   -4.2868 C   0  0  1  0  0  0  0  0  0  0  0  0
    0.5142    2.6569   -2.6344 C   0  0  2  0  0  0  0  0  0  0  0  0
    2.2130    1.7136   -3.0176 C   0  0  2  0  0  0  0  0  0  0  0  0
   -0.1859   -1.7549   -0.0114 C   0  0  2  0  0  0  0  0  0  0  0  0
   -0.8476   -2.7572    0.8696 C   0  0  0  0  0  0  0  0  0  0  0  0
   -1.1655   -0.7592   -0.2211 O   0  0  0  0  0  0  0  0  0  0  0  0
   -0.7688   -0.0009   -1.3345 C   0  0  2  0  0  0  0  0  0  0  0  0
    0.4078   -0.6605   -2.0582 C   0  0  2  0  0  0  0  0  0  0  0  0
   -0.5435    1.3893   -0.8713 O   0  0  0  0  0  0  0  0  0  0  0  0
    1.8709    1.0475    1.8755 C   0  0  1  0  0  0  0  0  0  0  0  0
    1.7836   -0.1240    2.6957 O   0  0  0  0  0  0  0  0  0  0  0  0
    0.5581    2.0126   -0.0854 C   0  0  2  0  0  0  0  0  0  0  0  0
    3.3419    2.1719    0.1428 C   0  0  1  0  0  0  0  0  0  0  0  0
    4.5940    1.7482   -0.4444 O   0  0  0  0  0  0  0  0  0  0  0  0
    2.1019    2.4767   -0.8046 C   0  0  2  0  0  0  0  0  0  0  0  0
    3.1258    0.9657    1.0527 C   0  0  1  0  0  0  0  0  0  0  0  0
    0.7044    1.0126    0.9783 C   0  0  2  0  0  0  0  0  0  0  0  0
   -0.5251    0.9446    1.6907 O   0  0  0  0  0  0  0  0  0  0  0  0
    2.2614    3.8280   -2.1805 N   0  0  0  0  0  0  0  0  0  0  0  0
    1.6485    4.6877   -4.6081 N   0  0  0  0  0  0  0  0  0  0  0  0
    2.3702    3.7939   -3.8900 C   0  0  0  0  0  0  0  0  0  0  0  0
    2.9199    3.0616   -4.8255 N   0  0  0  0  0  0  0  0  0  0  0  0
    0.4498   -0.7276   -3.4837 O   0  0  0  0  0  0  0  0  0  0  0  0
    0.1520    3.8182   -1.5282 O   0  0  0  0  0  0  0  0  0  0  0  0
   -1.7608    3.3140   -3.2072 O   0  0  0  0  0  0  0  0  0  0  0  0
    3.9948    2.4804   -2.7702 C   0  0  0  0  0  0  0  0  0  0  0  0
    4.3727    3.5246   -1.7315 O   0  0  0  0  0  0  0  0  0  0  0  0
   -1.7153    0.0524   -5.8995 C   0  0  0  0  0  0  0  0  0  0  0  0
   -1.7804    0.6756   -4.6087 N   0  0  0  0  0  0  0  0  0  0  0  0
    4.2506    0.9043    1.9686 N   0  0  0  0  0  0  0  0  0  0  0  0
    6.3284    0.3265    2.5085 N   0  0  0  0  0  0  0  0  0  0  0  0
    5.2464    0.0033    1.7487 C   0  0  0  0  0  0  0  0  0  0  0  0
    5.1601   -0.9802    0.9813 N   0  0  0  0  0  0  0  0  0  0  0  0
    1.9313   -2.4737   -1.2027 C   0  0  0  0  0  0  0  0  0  0  0  0
    1.9740   -3.6296   -0.3739 O   0  0  0  0  0  0  0  0  0  0  0  0
    0.4673   -2.0281   -1.3710 C   0  0  1  0  0  0  0  0  0  0  0  0
   -0.2902   -2.9866   -2.0890 O   0  0  0  0  0  0  0  0  0  0  0  0
   -0.3861    2.2220   -5.1453 H   0  0  0  0  0  0  0  0  0  0  0  0
   -1.4592    1.5861   -2.5338 H   0  0  0  0  0  0  0  0  0  0  0  0
    0.7505    0.0733   -5.3062 H   0  0  0  0  0  0  0  0  0  0  0  0
    0.4884    3.4186   -3.3786 H   0  0  0  0  0  0  0  0  0  0  0  0
    2.5132    0.7988   -2.4884 H   0  0  0  0  0  0  0  0  0  0  0  0
    0.5954   -1.4084    0.6525 H   0  0  0  0  0  0  0  0  0  0  0  0
   -0.3538   -2.7046    1.8509 H   0  0  0  0  0  0  0  0  0  0  0  0
   -1.8915   -2.4811    1.0473 H   0  0  0  0  0  0  0  0  0  0  0  0
   -0.7495   -3.7564    0.4717 H   0  0  0  0  0  0  0  0  0  0  0  0
   -1.6516   -0.0846   -1.9906 H   0  0  0  0  0  0  0  0  0  0  0  0
    1.2893   -0.1573   -1.7416 H   0  0  0  0  0  0  0  0  0  0  0  0
    1.8339    1.9558    2.4691 H   0  0  0  0  0  0  0  0  0  0  0  0
    2.0552   -0.8891    2.1549 H   0  0  0  0  0  0  0  0  0  0  0  0
    0.1035    2.8716    0.4138 H   0  0  0  0  0  0  0  0  0  0  0  0
    3.5207    3.0718    0.7203 H   0  0  0  0  0  0  0  0  0  0  0  0
    4.5498    0.9025   -0.9311 H   0  0  0  0  0  0  0  0  0  0  0  0
    2.1332    1.4897   -1.1676 H   0  0  0  0  0  0  0  0  0  0  0  0
    3.1061    0.0552    0.4238 H   0  0  0  0  0  0  0  0  0  0  0  0
    0.9010    0.1657    0.3644 H   0  0  0  0  0  0  0  0  0  0  0  0
   -1.2344    1.2533    1.0824 H   0  0  0  0  0  0  0  0  0  0  0  0
    1.6136    4.5945   -2.0282 H   0  0  0  0  0  0  0  0  0  0  0  0
    1.9215    4.4438   -5.5810 H   0  0  0  0  0  0  0  0  0  0  0  0
    2.0112    5.5982   -4.4508 H   0  0  0  0  0  0  0  0  0  0  0  0
    2.3121    2.3339   -5.2767 H   0  0  0  0  0  0  0  0  0  0  0  0
    0.8233    4.0139   -0.8337 H   0  0  0  0  0  0  0  0  0  0  0  0
   -1.4252    3.9874   -2.5707 H   0  0  0  0  0  0  0  0  0  0  0  0
    4.7515    1.7001   -2.7509 H   0  0  0  0  0  0  0  0  0  0  0  0
    4.3781    3.0979   -3.5780 H   0  0  0  0  0  0  0  0  0  0  0  0
    3.5582    4.0429   -1.5535 H   0  0  0  0  0  0  0  0  0  0  0  0
   -2.6077   -0.5406   -6.0561 H   0  0  0  0  0  0  0  0  0  0  0  0
   -1.5916    0.8207   -6.6642 H   0  0  0  0  0  0  0  0  0  0  0  0
   -0.8804   -0.6506   -5.9637 H   0  0  0  0  0  0  0  0  0  0  0  0
   -2.6070    1.2557   -4.4546 H   0  0  0  0  0  0  0  0  0  0  0  0
    4.5788    1.8279    2.1962 H   0  0  0  0  0  0  0  0  0  0  0  0
    7.0568   -0.3497    2.6409 H   0  0  0  0  0  0  0  0  0  0  0  0
    6.2868    1.0972    3.1465 H   0  0  0  0  0  0  0  0  0  0  0  0
    6.0487   -1.5060    1.0072 H   0  0  0  0  0  0  0  0  0  0  0  0
    2.3921   -2.7123   -2.1657 H   0  0  0  0  0  0  0  0  0  0  0  0
    2.5583   -1.7020   -0.7346 H   0  0  0  0  0  0  0  0  0  0  0  0
    1.7324   -3.3675    0.5319 H   0  0  0  0  0  0  0  0  0  0  0  0
   -0.2061   -3.8175   -1.5916 H   0  0  0  0  0  0  0  0  0  0  0  0
  1  4  1  0  0  0  0
  1 41  1  6  0  0  0
  1 32  1  0  0  0  0
  2  1  1  0  0  0  0
  2 28  1  0  0  0  0
  2 42  1  1  0  0  0
  3  4  1  0  0  0  0
  3  6  1  0  0  0  0
  4 43  1  6  0  0  0
  4 26  1  0  0  0  0
  5  2  1  0  0  0  0
  5 27  1  0  0  0  0
  5 44  1  6  0  0  0
  6  5  1  0  0  0  0
  6 29  1  0  0  0  0
  6 45  1  1  0  0  0
  7 39  1  0  0  0  0
  7 46  1  1  0  0  0
  7  8  1  0  0  0  0
  8 47  1  0  0  0  0
  8 48  1  0  0  0  0
  8 49  1  0  0  0  0
  9  7  1  0  0  0  0
  9 10  1  0  0  0  0
 10 50  1  6  0  0  0
 10 12  1  0  0  0  0
 11 10  1  0  0  0  0
 11 51  1  1  0  0  0
 11 26  1  0  0  0  0
 13 14  1  0  0  0  0
 13 52  1  1  0  0  0
 14 53  1  0  0  0  0
 15 12  1  0  0  0  0
 15 20  1  0  0  0  0
 15 54  1  1  0  0  0
 16 18  1  0  0  0  0
 16 55  1  1  0  0  0
 16 17  1  0  0  0  0
 17 56  1  0  0  0  0
 18 15  1  0  0  0  0
 18 22  1  0  0  0  0
 18 57  1  6  0  0  0
 19 13  1  0  0  0  0
 19 16  1  0  0  0  0
 19 33  1  0  0  0  0
 19 58  1  6  0  0  0
 20 13  1  0  0  0  0
 20 59  1  6  0  0  0
 20 21  1  0  0  0  0
 21 60  1  0  0  0  0
 22 24  1  0  0  0  0
 22 61  1  0  0  0  0
 23 62  1  0  0  0  0
 23 63  1  0  0  0  0
 24 23  1  0  0  0  0
 24 25  2  0  0  0  0
 25 64  1  0  0  0  0
 27 65  1  0  0  0  0
 28 66  1  0  0  0  0
 29 30  1  0  0  0  0
 29 67  1  0  0  0  0
 29 68  1  0  0  0  0
 30 69  1  0  0  0  0
 31 70  1  0  0  0  0
 31 71  1  0  0  0  0
 31 72  1  0  0  0  0
 32 31  1  0  0  0  0
 32 73  1  0  0  0  0
 33 74  1  0  0  0  0
 34 35  1  0  0  0  0
 34 75  1  0  0  0  0
 34 76  1  0  0  0  0
 35 33  1  0  0  0  0
 35 36  2  0  0  0  0
 36 77  1  0  0  0  0
 37 38  1  0  0  0  0
 37 78  1  0  0  0  0
 37 79  1  0  0  0  0
 38 80  1  0  0  0  0
 39 11  1  0  0  0  0
 39 37  1  0  0  0  0
 39 40  1  6  0  0  0
 40 81  1  0  0  0  0
M  END
>  <DRUGBANK_ID>
DB11512

>  <COMMON_NAME>
Dihydrostreptomycin

>  <CAS_NUMBER>
128-46-1

>  <UNII>
P2I6R8W6UA

>  <SYNONYMS>
DHMS; Dihidroestreptomicina; Dihydrostreptomycin; Dihydrostreptomycine; Dihydrostreptomycinum; DST; N,N'''-[(1R,2R,3S,4R,5R,6S)-4-({5-deoxy-2-O-[2-deoxy-2-(methylamino)-a-L-glucopyranosyl]-3-C-(hydroxymethyl)-a-L-lyxofuranosyl}oxy)-2,5,6-trihydroxycyclohexane-1,3-diyl]diguanidine; N,N'''-[(1R,2R,3S,4R,5R,6S)-4-({5-deoxy-2-O-[2-deoxy-2-(methylamino)-alpha-L-glucopyranosyl]-3-C-(hydroxymethyl)-alpha-L-lyxofuranosyl}oxy)-2,5,6-trihydroxycyclohexane-1,3-diyl]diguanidine; N,N'''-[(1R,2R,3S,4R,5R,6S)-4-({5-deoxy-2-O-[2-deoxy-2-(methylamino)-α-L-glucopyranosyl]-3-C-(hydroxymethyl)-α-L-lyxofuranosyl}oxy)-2,5,6-trihydroxycyclohexane-1,3-diyl]diguanidine

$$$$
