
 OpenBabel10282417233D

 70 72  0  0  1  0  0  0  0  0999 V2000
   -2.0275   -3.3344   -7.8693 C   0  0  0  0  0  0  0  0  0  0  0  0
   -2.4671   -2.2604   -6.8683 C   0  0  0  0  0  0  0  0  0  0  0  0
   -3.0757   -2.9976   -5.7436 C   0  0  0  0  0  0  0  0  0  0  0  0
   -1.9444   -3.7066   -5.0025 C   0  0  0  0  0  0  0  0  0  0  0  0
   -0.9368   -2.7445   -4.3428 C   0  0  0  0  0  0  0  0  0  0  0  0
   -1.4895   -1.7189   -3.3108 C   0  0  2  0  0  0  0  0  0  0  0  0
   -0.9705   -2.0423   -2.0226 O   0  0  0  0  0  0  0  0  0  0  0  0
   -2.9889   -1.6400   -3.1192 C   0  0  0  0  0  0  0  0  0  0  0  0
   -3.7263   -2.8183   -2.8810 C   0  0  0  0  0  0  0  0  0  0  0  0
   -5.1101   -2.8507   -2.9943 C   0  0  0  0  0  0  0  0  0  0  0  0
   -5.8088   -1.6614   -3.1304 C   0  0  0  0  0  0  0  0  0  0  0  0
   -5.1024   -0.4554   -3.2224 C   0  0  0  0  0  0  0  0  0  0  0  0
   -3.7005   -0.4452   -3.2877 C   0  0  0  0  0  0  0  0  0  0  0  0
   -7.2114   -1.6954   -3.1480 N   0  0  0  0  0  0  0  0  0  0  0  0
   -8.0124   -1.0742   -4.1729 C   0  0  1  0  0  0  0  0  0  0  0  0
   -8.0380   -1.8751   -5.4852 C   0  0  0  0  0  0  0  0  0  0  0  0
   -8.8468   -1.1632   -6.5884 C   0  0  0  0  0  0  0  0  0  0  0  0
   -8.3429    0.2537   -6.8872 C   0  0  0  0  0  0  0  0  0  0  0  0
   -6.9410    0.3447   -7.4367 C   0  0  0  0  0  0  0  0  0  0  0  0
   -6.1925    1.4929   -7.6035 C   0  0  0  0  0  0  0  0  0  0  0  0
   -4.8931    1.2435   -8.1403 C   0  0  0  0  0  0  0  0  0  0  0  0
   -4.7156   -0.0790   -8.4751 C   0  0  0  0  0  0  0  0  0  0  0  0
   -6.0843   -1.0059   -8.0352 S   0  0  0  0  0  0  0  0  0  0  0  0
   -3.6146   -0.7622   -9.1167 C   0  0  0  0  0  0  0  0  0  0  0  0
   -3.7222   -1.9240   -9.5356 O   0  0  0  0  0  0  0  0  0  0  0  0
   -2.4474   -0.0393   -9.0838 O   0  0  0  0  0  0  0  0  0  0  0  0
   -1.1826   -0.5502   -9.6276 C   0  0  0  0  0  0  0  0  0  0  0  0
   -0.1746   -1.0739   -8.5829 C   0  0  0  0  0  0  0  0  0  0  0  0
   -1.3700   -1.4353  -10.8650 C   0  0  0  0  0  0  0  0  0  0  0  0
   -9.4000   -1.0377   -3.5475 C   0  0  0  0  0  0  0  0  0  0  0  0
   -9.4161   -2.2597   -2.6425 C   0  0  0  0  0  0  0  0  0  0  0  0
   -7.9789   -2.3860   -2.2149 C   0  0  0  0  0  0  0  0  0  0  0  0
   -7.6043   -2.9819   -1.2180 O   0  0  0  0  0  0  0  0  0  0  0  0
   -1.1269   -3.8461   -7.5175 H   0  0  0  0  0  0  0  0  0  0  0  0
   -1.7425   -2.9743   -8.8455 H   0  0  0  0  0  0  0  0  0  0  0  0
   -2.8184   -4.0608   -8.0489 H   0  0  0  0  0  0  0  0  0  0  0  0
   -1.7039   -1.5625   -6.4995 H   0  0  0  0  0  0  0  0  0  0  0  0
   -3.2338   -1.5771   -7.1759 H   0  0  0  0  0  0  0  0  0  0  0  0
   -3.6265   -2.2264   -5.2214 H   0  0  0  0  0  0  0  0  0  0  0  0
   -3.8518   -3.6774   -6.1052 H   0  0  0  0  0  0  0  0  0  0  0  0
   -2.3361   -4.4387   -4.3038 H   0  0  0  0  0  0  0  0  0  0  0  0
   -1.3928   -4.3545   -5.6879 H   0  0  0  0  0  0  0  0  0  0  0  0
   -0.1405   -3.3508   -3.8957 H   0  0  0  0  0  0  0  0  0  0  0  0
   -0.4026   -2.1860   -5.1281 H   0  0  0  0  0  0  0  0  0  0  0  0
   -1.0930   -0.7278   -3.5784 H   0  0  0  0  0  0  0  0  0  0  0  0
   -0.0036   -2.0240   -2.0788 H   0  0  0  0  0  0  0  0  0  0  0  0
   -3.2174   -3.7669   -2.7585 H   0  0  0  0  0  0  0  0  0  0  0  0
   -5.6149   -3.8133   -3.0267 H   0  0  0  0  0  0  0  0  0  0  0  0
   -5.6339    0.4896   -3.1834 H   0  0  0  0  0  0  0  0  0  0  0  0
   -3.1834    0.4908   -3.4867 H   0  0  0  0  0  0  0  0  0  0  0  0
   -7.6298   -0.0647   -4.3359 H   0  0  0  0  0  0  0  0  0  0  0  0
   -7.0054   -2.0405   -5.7979 H   0  0  0  0  0  0  0  0  0  0  0  0
   -8.4379   -2.8872   -5.3420 H   0  0  0  0  0  0  0  0  0  0  0  0
   -8.8490   -1.7645   -7.5055 H   0  0  0  0  0  0  0  0  0  0  0  0
   -9.9028   -1.1036   -6.2975 H   0  0  0  0  0  0  0  0  0  0  0  0
   -9.0253    0.7322   -7.5990 H   0  0  0  0  0  0  0  0  0  0  0  0
   -8.4144    0.8703   -5.9815 H   0  0  0  0  0  0  0  0  0  0  0  0
   -6.5747    2.4760   -7.3648 H   0  0  0  0  0  0  0  0  0  0  0  0
   -4.1495    1.9990   -8.3435 H   0  0  0  0  0  0  0  0  0  0  0  0
   -0.6731    0.3453   -9.9986 H   0  0  0  0  0  0  0  0  0  0  0  0
   -0.5302   -1.8102   -7.9031 H   0  0  0  0  0  0  0  0  0  0  0  0
    0.6779   -1.5936   -9.0272 H   0  0  0  0  0  0  0  0  0  0  0  0
    0.1301   -0.3012   -7.8720 H   0  0  0  0  0  0  0  0  0  0  0  0
   -1.8483   -0.8440  -11.6520 H   0  0  0  0  0  0  0  0  0  0  0  0
   -0.4250   -1.8401  -11.2289 H   0  0  0  0  0  0  0  0  0  0  0  0
   -2.0204   -2.2985  -10.7248 H   0  0  0  0  0  0  0  0  0  0  0  0
  -10.2295   -1.0603   -4.2578 H   0  0  0  0  0  0  0  0  0  0  0  0
   -9.5058   -0.1205   -2.9588 H   0  0  0  0  0  0  0  0  0  0  0  0
   -9.6967   -3.1674   -3.1863 H   0  0  0  0  0  0  0  0  0  0  0  0
  -10.0741   -2.1053   -1.7872 H   0  0  0  0  0  0  0  0  0  0  0  0
  1  2  1  0  0  0  0
  1 34  1  0  0  0  0
  1 35  1  0  0  0  0
  1 36  1  0  0  0  0
  2  3  1  0  0  0  0
  2 37  1  0  0  0  0
  2 38  1  0  0  0  0
  3  4  1  0  0  0  0
  3 39  1  0  0  0  0
  3 40  1  0  0  0  0
  4  5  1  0  0  0  0
  4 41  1  0  0  0  0
  4 42  1  0  0  0  0
  5 43  1  0  0  0  0
  5 44  1  0  0  0  0
  6  8  1  0  0  0  0
  6 45  1  6  0  0  0
  6  7  1  0  0  0  0
  6  5  1  0  0  0  0
  7 46  1  0  0  0  0
  8  9  2  0  0  0  0
  8 13  1  0  0  0  0
  9 10  1  0  0  0  0
  9 47  1  0  0  0  0
 10 11  2  0  0  0  0
 10 48  1  0  0  0  0
 11 12  1  0  0  0  0
 11 14  1  0  0  0  0
 12 13  2  0  0  0  0
 12 49  1  0  0  0  0
 13 50  1  0  0  0  0
 14 32  1  0  0  0  0
 15 14  1  0  0  0  0
 15 16  1  0  0  0  0
 15 30  1  0  0  0  0
 15 51  1  6  0  0  0
 16 17  1  0  0  0  0
 16 52  1  0  0  0  0
 16 53  1  0  0  0  0
 17 18  1  0  0  0  0
 17 54  1  0  0  0  0
 17 55  1  0  0  0  0
 18 19  1  0  0  0  0
 18 56  1  0  0  0  0
 18 57  1  0  0  0  0
 19 20  2  0  0  0  0
 19 23  1  0  0  0  0
 20 21  1  0  0  0  0
 20 58  1  0  0  0  0
 21 22  2  0  0  0  0
 21 59  1  0  0  0  0
 22 23  1  0  0  0  0
 22 24  1  0  0  0  0
 24 25  2  0  0  0  0
 24 26  1  0  0  0  0
 26 27  1  0  0  0  0
 27 28  1  0  0  0  0
 27 29  1  0  0  0  0
 27 60  1  0  0  0  0
 28 61  1  0  0  0  0
 28 62  1  0  0  0  0
 28 63  1  0  0  0  0
 29 64  1  0  0  0  0
 29 65  1  0  0  0  0
 29 66  1  0  0  0  0
 30 31  1  0  0  0  0
 30 67  1  0  0  0  0
 30 68  1  0  0  0  0
 31 32  1  0  0  0  0
 31 69  1  0  0  0  0
 31 70  1  0  0  0  0
 32 33  2  0  0  0  0
M  END
>  <DRUGBANK_ID>
DB16085

>  <COMMON_NAME>
Aganepag isopropyl

>  <CAS_NUMBER>
910562-20-8

>  <UNII>
R096XE6760

>  <SYNONYMS>
Aganepag isopropyl

$$$$
