
 OpenBabel10282417153D

 52 55  0  0  0  0  0  0  0  0999 V2000
    1.3316   -1.5259    0.1465 C   0  0  1  0  0  0  0  0  0  0  0  0
   -0.0731   -0.7979   -0.1317 C   0  0  1  0  0  0  0  0  0  0  0  0
   -0.0581    0.7282    0.2114 C   0  0  1  0  0  0  0  0  0  0  0  0
   -1.3375    1.5032   -0.2400 C   0  0  1  0  0  0  0  0  0  0  0  0
   -2.5454    2.2512    2.3451 C   0  0  2  0  0  0  0  0  0  0  0  0
   -2.5725    0.7302    0.3117 C   0  0  2  0  0  0  0  0  0  0  0  0
   -1.3177   -1.5487    0.3236 C   0  0  2  0  0  0  0  0  0  0  0  0
    2.3491   -0.7129   -0.6915 C   0  0  1  0  0  0  0  0  0  0  0  0
    1.5949   -1.5128    1.2106 H   0  0  0  0  0  0  0  0  0  0  0  0
   -0.2522   -0.7681   -1.1961 H   0  0  0  0  0  0  0  0  0  0  0  0
    0.0426    0.7415    1.3035 H   0  0  0  0  0  0  0  0  0  0  0  0
   -1.4023    1.6052   -1.7970 C   0  0  0  0  0  0  0  0  0  0  0  0
   -1.2490    2.9530    0.3444 C   0  0  0  0  0  0  0  0  0  0  0  0
   -1.2442    2.9150    1.8779 C   0  0  0  0  0  0  0  0  0  0  0  0
   -2.6361    2.2840    3.7637 O   0  0  0  0  0  0  0  0  0  0  0  0
   -2.6428    0.8098    1.8451 C   0  0  0  0  0  0  0  0  0  0  0  0
   -3.4808    1.1961   -0.0991 H   0  0  0  0  0  0  0  0  0  0  0  0
   -2.5408   -0.7404   -0.1574 C   0  0  0  0  0  0  0  0  0  0  0  0
   -1.2322   -1.8417    1.7048 O   0  0  0  0  0  0  0  0  0  0  0  0
    1.1591    1.4392   -0.3909 C   0  0  0  0  0  0  0  0  0  0  0  0
    2.3361    0.6586    0.0050 C   0  0  0  0  0  0  0  0  0  0  0  0
    3.8399   -1.0362   -0.5910 C   0  0  0  0  0  0  0  0  0  0  0  0
    1.6975   -1.3423   -2.0530 C   0  0  0  0  0  0  0  0  0  0  0  0
    1.0258   -0.8400   -2.9108 O   0  0  0  0  0  0  0  0  0  0  0  0
    1.7658   -2.8559   -1.8669 C   0  0  0  0  0  0  0  0  0  0  0  0
    1.3888   -2.9776   -0.3876 C   0  0  0  0  0  0  0  0  0  0  0  0
   -3.3836    2.8282    1.9442 H   0  0  0  0  0  0  0  0  0  0  0  0
   -1.4119   -2.5142   -0.1849 H   0  0  0  0  0  0  0  0  0  0  0  0
   -2.3238    2.0812   -2.1392 H   0  0  0  0  0  0  0  0  0  0  0  0
   -0.5776    2.1942   -2.2113 H   0  0  0  0  0  0  0  0  0  0  0  0
   -1.3406    0.6322   -2.2936 H   0  0  0  0  0  0  0  0  0  0  0  0
   -2.0563    3.6103   -0.0028 H   0  0  0  0  0  0  0  0  0  0  0  0
   -0.3525    3.4504   -0.0400 H   0  0  0  0  0  0  0  0  0  0  0  0
   -1.1230    3.9114    2.3147 H   0  0  0  0  0  0  0  0  0  0  0  0
   -0.3653    2.3768    2.2566 H   0  0  0  0  0  0  0  0  0  0  0  0
   -3.2431    1.5754    4.0445 H   0  0  0  0  0  0  0  0  0  0  0  0
   -3.5469    0.3154    2.2227 H   0  0  0  0  0  0  0  0  0  0  0  0
   -1.8233    0.2492    2.3000 H   0  0  0  0  0  0  0  0  0  0  0  0
   -3.4862   -1.2487    0.0467 H   0  0  0  0  0  0  0  0  0  0  0  0
   -2.4778   -0.7358   -1.2550 H   0  0  0  0  0  0  0  0  0  0  0  0
   -0.2998   -1.7550    1.9768 H   0  0  0  0  0  0  0  0  0  0  0  0
    1.3113    2.4659   -0.0407 H   0  0  0  0  0  0  0  0  0  0  0  0
    1.1360    1.4674   -1.4790 H   0  0  0  0  0  0  0  0  0  0  0  0
    3.2507    1.2519   -0.1055 H   0  0  0  0  0  0  0  0  0  0  0  0
    2.2856    0.5229    1.1064 H   0  0  0  0  0  0  0  0  0  0  0  0
    4.3739   -0.4468   -1.3521 H   0  0  0  0  0  0  0  0  0  0  0  0
    4.2368   -0.7107    0.3799 H   0  0  0  0  0  0  0  0  0  0  0  0
    4.1131   -2.0796   -0.7001 H   0  0  0  0  0  0  0  0  0  0  0  0
    1.2808   -3.5606   -2.5477 H   0  0  0  0  0  0  0  0  0  0  0  0
    2.8297   -3.0198   -2.0217 H   0  0  0  0  0  0  0  0  0  0  0  0
    2.1633   -3.5858    0.0930 H   0  0  0  0  0  0  0  0  0  0  0  0
    0.4473   -3.4892   -0.1628 H   0  0  0  0  0  0  0  0  0  0  0  0
  1  2  1  0  0  0  0
  1  8  1  0  0  0  0
  1 26  1  0  0  0  0
  1  9  1  6  0  0  0
  2  7  1  0  0  0  0
  2 10  1  1  0  0  0
  3  2  1  0  0  0  0
  3  4  1  0  0  0  0
  3 11  1  6  0  0  0
  4 12  1  1  0  0  0
  5 14  1  0  0  0  0
  5 27  1  6  0  0  0
  5 15  1  0  0  0  0
  6  4  1  0  0  0  0
  6 16  1  0  0  0  0
  6 17  1  6  0  0  0
  7 18  1  0  0  0  0
  7 28  1  6  0  0  0
  7 19  1  0  0  0  0
  8 21  1  0  0  0  0
  8 22  1  1  0  0  0
 12 29  1  0  0  0  0
 12 30  1  0  0  0  0
 12 31  1  0  0  0  0
 13  4  1  0  0  0  0
 13 32  1  0  0  0  0
 13 33  1  0  0  0  0
 14 13  1  0  0  0  0
 14 34  1  0  0  0  0
 14 35  1  0  0  0  0
 15 36  1  0  0  0  0
 16  5  1  0  0  0  0
 16 37  1  0  0  0  0
 16 38  1  0  0  0  0
 18  6  1  0  0  0  0
 18 39  1  0  0  0  0
 18 40  1  0  0  0  0
 19 41  1  0  0  0  0
 20  3  1  0  0  0  0
 20 42  1  0  0  0  0
 20 43  1  0  0  0  0
 21 20  1  0  0  0  0
 21 44  1  0  0  0  0
 21 45  1  0  0  0  0
 22 46  1  0  0  0  0
 22 47  1  0  0  0  0
 22 48  1  0  0  0  0
 23  8  1  0  0  0  0
 23 24  2  0  0  0  0
 25 23  1  0  0  0  0
 25 49  1  0  0  0  0
 25 50  1  0  0  0  0
 26 25  1  0  0  0  0
 26 51  1  0  0  0  0
 26 52  1  0  0  0  0
M  END
>  <DRUGBANK_ID>
DB06622

>  <COMMON_NAME>
7-beta-Hydroxyepiandrosterone

>  <CAS_NUMBER>
25848-69-5

>  <UNII>
OCP3E5KD08

>  <SYNONYMS>
(3beta,5alpha,7beta)-3,7-Dihydroxyandrostan-17-one; 7beta-OH-Epia; 7β-Hydroxyepiandrosterone; 7β-OH-EPIA

$$$$
