
 OpenBabel10282417203D

 51 54  0  0  1  0  0  0  0  0999 V2000
    0.7835   -0.3093    0.4670 C   0  0  0  0  0  0  0  0  0  0  0  0
    0.2647    0.8742    1.1704 C   0  0  0  0  0  0  0  0  0  0  0  0
    0.7618    1.9685    0.4407 N   0  0  0  0  0  0  0  0  0  0  0  0
    2.3900    1.6568   -0.1197 C   0  0  2  0  0  0  0  0  0  0  0  0
    2.9559    2.9074   -1.0898 C   0  0  0  0  0  0  0  0  0  0  0  0
    0.8777    3.8039   -1.7585 C   0  0  0  0  0  0  0  0  0  0  0  0
   -0.2254    2.8404   -0.7761 C   0  0  1  0  0  0  0  0  0  0  0  0
   -0.4368    1.8613   -1.8742 C   0  0  0  0  0  0  0  0  0  0  0  0
    0.9004    1.2041   -2.4129 C   0  0  2  0  0  0  0  0  0  0  0  0
    1.9165    0.8033   -1.2824 C   0  0  0  0  0  0  0  0  0  0  0  0
    1.4671    1.9061   -3.5447 O   0  0  0  0  0  0  0  0  0  0  0  0
    2.7089    2.5967   -3.2965 C   0  0  0  0  0  0  0  0  0  0  0  0
    2.5354    4.1787   -2.2108 C   0  0  0  0  0  0  0  0  0  0  0  0
    1.8255    3.9112   -0.3184 C   0  0  0  0  0  0  0  0  0  0  0  0
    1.6957    4.1648    0.9361 C   0  0  0  0  0  0  0  0  0  0  0  0
    2.0930    5.3700    0.6721 C   0  0  0  0  0  0  0  0  0  0  0  0
    2.6913    5.8952   -0.7307 C   0  0  0  0  0  0  0  0  0  0  0  0
    2.9325    5.3394   -2.1781 C   0  0  0  0  0  0  0  0  0  0  0  0
    3.9563    1.4498   -3.0675 C   0  0  0  0  0  0  0  0  0  0  0  0
    5.2168    1.9350   -2.7401 C   0  0  0  0  0  0  0  0  0  0  0  0
    6.1196    1.1521   -2.0104 C   0  0  0  0  0  0  0  0  0  0  0  0
    5.7632   -0.0824   -1.4807 C   0  0  0  0  0  0  0  0  0  0  0  0
    4.5083   -0.5574   -1.7166 C   0  0  0  0  0  0  0  0  0  0  0  0
    3.7788    0.0392   -2.7989 C   0  0  0  0  0  0  0  0  0  0  0  0
    0.3076   -0.2451   -0.5327 H   0  0  0  0  0  0  0  0  0  0  0  0
    0.5537   -1.2907    0.7583 H   0  0  0  0  0  0  0  0  0  0  0  0
    1.9080   -0.2931    0.5396 H   0  0  0  0  0  0  0  0  0  0  0  0
   -0.7907    1.0519    1.0718 H   0  0  0  0  0  0  0  0  0  0  0  0
    0.7969    1.0200    2.1099 H   0  0  0  0  0  0  0  0  0  0  0  0
    3.2320    1.4690    0.5952 H   0  0  0  0  0  0  0  0  0  0  0  0
    3.9370    3.0402   -1.6327 H   0  0  0  0  0  0  0  0  0  0  0  0
    3.6855    3.8561   -0.3524 H   0  0  0  0  0  0  0  0  0  0  0  0
    0.5698    4.1134   -2.7715 H   0  0  0  0  0  0  0  0  0  0  0  0
    0.6852    5.0678   -1.2782 H   0  0  0  0  0  0  0  0  0  0  0  0
   -0.9470    3.5861   -0.3609 H   0  0  0  0  0  0  0  0  0  0  0  0
   -0.9450    2.3626   -2.6997 H   0  0  0  0  0  0  0  0  0  0  0  0
   -1.0388    1.1389   -1.3507 H   0  0  0  0  0  0  0  0  0  0  0  0
    0.5334    0.2561   -2.8431 H   0  0  0  0  0  0  0  0  0  0  0  0
    1.8634   -0.2783   -1.2616 H   0  0  0  0  0  0  0  0  0  0  0  0
    2.9318    0.7667   -1.3567 H   0  0  0  0  0  0  0  0  0  0  0  0
    3.0774    3.1466   -4.1469 H   0  0  0  0  0  0  0  0  0  0  0  0
    1.4234    2.6807   -0.9120 H   0  0  0  0  0  0  0  0  0  0  0  0
    1.3725    3.5478    1.7409 H   0  0  0  0  0  0  0  0  0  0  0  0
    1.7794    5.9627    1.4982 H   0  0  0  0  0  0  0  0  0  0  0  0
    2.9566    6.9026   -0.5768 H   0  0  0  0  0  0  0  0  0  0  0  0
    2.9849    5.8297   -3.0896 H   0  0  0  0  0  0  0  0  0  0  0  0
    5.4442    2.9733   -2.9570 H   0  0  0  0  0  0  0  0  0  0  0  0
    7.1215    1.5218   -1.8665 H   0  0  0  0  0  0  0  0  0  0  0  0
    6.4694   -0.7505   -1.0102 H   0  0  0  0  0  0  0  0  0  0  0  0
    4.0646   -1.2613   -0.9847 H   0  0  0  0  0  0  0  0  0  0  0  0
    2.7776   -0.3839   -2.9401 H   0  0  0  0  0  0  0  0  0  0  0  0
  1  2  1  0  0  0  0
  1 25  1  0  0  0  0
  1 26  1  0  0  0  0
  1 27  1  0  0  0  0
  2  3  1  0  0  0  0
  2 28  1  0  0  0  0
  2 29  1  0  0  0  0
  4  3  1  0  0  0  0
  4  5  1  0  0  0  0
  4 10  1  0  0  0  0
  4 30  1  1  0  0  0
  5  6  1  0  0  0  0
  5 31  1  0  0  0  0
  5 32  1  0  0  0  0
  6  7  1  0  0  0  0
  6 33  1  0  0  0  0
  6 34  1  0  0  0  0
  7  3  1  0  0  0  0
  7  8  1  0  0  0  0
  7 35  1  1  0  0  0
  8  9  1  0  0  0  0
  8 36  1  0  0  0  0
  8 37  1  0  0  0  0
  9 10  1  0  0  0  0
  9 38  1  6  0  0  0
  9 11  1  0  0  0  0
 10 39  1  0  0  0  0
 10 40  1  0  0  0  0
 11 12  1  0  0  0  0
 12 13  1  0  0  0  0
 12 19  1  0  0  0  0
 12 41  1  0  0  0  0
 13 14  2  0  0  0  0
 13 18  1  0  0  0  0
 14 15  1  0  0  0  0
 14 42  1  0  0  0  0
 15 16  2  0  0  0  0
 15 43  1  0  0  0  0
 16 17  1  0  0  0  0
 16 44  1  0  0  0  0
 17 18  2  0  0  0  0
 17 45  1  0  0  0  0
 18 46  1  0  0  0  0
 19 20  2  0  0  0  0
 19 24  1  0  0  0  0
 20 21  1  0  0  0  0
 20 47  1  0  0  0  0
 21 22  2  0  0  0  0
 21 48  1  0  0  0  0
 22 23  1  0  0  0  0
 22 49  1  0  0  0  0
 23 24  2  0  0  0  0
 23 50  1  0  0  0  0
 24 51  1  0  0  0  0
M  END
>  <DRUGBANK_ID>
DB13468

>  <COMMON_NAME>
Etybenzatropine

>  <CAS_NUMBER>
524-83-4

>  <UNII>
G1X2X9N95N

>  <SYNONYMS>
Ethybenztropine; Etybenzatropine

$$$$
