
 OpenBabel10282417153D

 49 51  0  0  0  0  0  0  0  0999 V2000
    1.3605   -0.2558    0.5980 C   0  0  0  0  0  0  0  0  0  0  0  0
    0.4685   -1.2921    0.2558 C   0  0  0  0  0  0  0  0  0  0  0  0
   -0.9097   -1.0396    0.0323 C   0  0  0  0  0  0  0  0  0  0  0  0
   -1.4222    0.2678    0.0428 C   0  0  0  0  0  0  0  0  0  0  0  0
   -0.5019    1.3032    0.2475 C   0  0  0  0  0  0  0  0  0  0  0  0
    0.8607    1.0489    0.4938 C   0  0  0  0  0  0  0  0  0  0  0  0
   -2.8667    0.5303   -0.1789 C   0  0  0  0  0  0  0  0  0  0  0  0
   -3.4226    1.7573   -0.2550 C   0  0  0  0  0  0  0  0  0  0  0  0
   -4.8713    1.9747   -0.4365 C   0  0  0  0  0  0  0  0  0  0  0  0
   -5.2561    3.2795   -0.4666 N   0  0  0  0  0  0  0  0  0  0  0  0
   -5.6973    1.0278   -0.5484 O   0  0  0  0  0  0  0  0  0  0  0  0
   -6.6326    3.5627   -0.6213 O   0  0  0  0  0  0  0  0  0  0  0  0
    2.8218   -0.5254    1.0938 C   0  0  0  0  0  0  0  0  0  0  0  0
    3.8046    0.3092    0.3904 N   0  0  0  0  0  0  0  0  0  0  0  0
    5.1299   -0.1393   -0.1145 C   0  0  0  0  0  0  0  0  0  0  0  0
    4.9192   -1.4530   -0.8581 C   0  0  0  0  0  0  0  0  0  0  0  0
    3.7997   -1.1080   -1.9482 C   0  0  0  0  0  0  0  0  0  0  0  0
    3.0872    0.3425   -2.1992 C   0  0  0  0  0  0  0  0  0  0  0  0
    3.4264    0.0681   -3.4988 N   0  0  0  0  0  0  0  0  0  0  0  0
    2.5305   -1.0404   -3.6103 C   0  0  0  0  0  0  0  0  0  0  0  0
    3.1145   -2.0056   -2.8036 C   0  0  0  0  0  0  0  0  0  0  0  0
    1.1281   -1.1422   -3.6778 C   0  0  0  0  0  0  0  0  0  0  0  0
    0.5369   -2.3658   -3.4414 C   0  0  0  0  0  0  0  0  0  0  0  0
    1.3476   -3.4824   -3.3198 C   0  0  0  0  0  0  0  0  0  0  0  0
    2.7066   -3.3436   -2.9524 C   0  0  0  0  0  0  0  0  0  0  0  0
    1.7320    1.2260   -2.3106 C   0  0  0  0  0  0  0  0  0  0  0  0
    0.8275   -2.3144    0.1415 H   0  0  0  0  0  0  0  0  0  0  0  0
   -1.5720   -1.8914   -0.1269 H   0  0  0  0  0  0  0  0  0  0  0  0
   -0.8046    2.3436    0.2026 H   0  0  0  0  0  0  0  0  0  0  0  0
    1.5515    1.8921    0.4734 H   0  0  0  0  0  0  0  0  0  0  0  0
   -3.5076   -0.3466   -0.2739 H   0  0  0  0  0  0  0  0  0  0  0  0
   -2.8308    2.6594   -0.1771 H   0  0  0  0  0  0  0  0  0  0  0  0
   -4.6407    4.0830   -0.3727 H   0  0  0  0  0  0  0  0  0  0  0  0
   -7.0273    2.6651   -0.6771 H   0  0  0  0  0  0  0  0  0  0  0  0
    2.8968   -0.2322    2.1316 H   0  0  0  0  0  0  0  0  0  0  0  0
    2.9858   -1.5966    0.9533 H   0  0  0  0  0  0  0  0  0  0  0  0
    3.3005    0.0728   -0.4386 H   0  0  0  0  0  0  0  0  0  0  0  0
    5.4914    0.5195   -0.9390 H   0  0  0  0  0  0  0  0  0  0  0  0
    5.9122   -0.0328    0.6377 H   0  0  0  0  0  0  0  0  0  0  0  0
    5.8791   -1.8262   -1.2703 H   0  0  0  0  0  0  0  0  0  0  0  0
    4.6109   -2.2350   -0.1490 H   0  0  0  0  0  0  0  0  0  0  0  0
    4.4388    0.1310   -3.5460 H   0  0  0  0  0  0  0  0  0  0  0  0
    0.4789   -0.2783   -3.6831 H   0  0  0  0  0  0  0  0  0  0  0  0
   -0.5457   -2.4009   -3.3742 H   0  0  0  0  0  0  0  0  0  0  0  0
    0.8738   -4.4527   -3.4274 H   0  0  0  0  0  0  0  0  0  0  0  0
    3.2390   -4.2279   -2.6141 H   0  0  0  0  0  0  0  0  0  0  0  0
    1.5283    1.4707   -3.3737 H   0  0  0  0  0  0  0  0  0  0  0  0
    0.8044    0.7618   -1.9583 H   0  0  0  0  0  0  0  0  0  0  0  0
    1.7834    2.2280   -1.8662 H   0  0  0  0  0  0  0  0  0  0  0  0
  1  2  2  0  0  0  0
  1  6  1  0  0  0  0
  1 13  1  0  0  0  0
  2  3  1  0  0  0  0
  2 27  1  0  0  0  0
  3  4  2  0  0  0  0
  3 28  1  0  0  0  0
  4  5  1  0  0  0  0
  4  7  1  0  0  0  0
  5  6  2  0  0  0  0
  5 29  1  0  0  0  0
  6 30  1  0  0  0  0
  7  8  2  0  0  0  0
  7 31  1  0  0  0  0
  8  9  1  0  0  0  0
  8 32  1  0  0  0  0
  9 10  1  0  0  0  0
  9 11  2  0  0  0  0
 10 12  1  0  0  0  0
 10 33  1  0  0  0  0
 12 34  1  0  0  0  0
 13 14  1  0  0  0  0
 13 35  1  0  0  0  0
 13 36  1  0  0  0  0
 14 15  1  0  0  0  0
 14 37  1  0  0  0  0
 15 16  1  0  0  0  0
 15 38  1  0  0  0  0
 15 39  1  0  0  0  0
 16 17  1  0  0  0  0
 16 40  1  0  0  0  0
 16 41  1  0  0  0  0
 17 18  2  0  0  0  0
 17 21  1  0  0  0  0
 18 19  1  0  0  0  0
 18 26  1  0  0  0  0
 19 20  1  0  0  0  0
 19 42  1  0  0  0  0
 20 21  1  0  0  0  0
 20 22  2  0  0  0  0
 21 25  2  0  0  0  0
 22 23  1  0  0  0  0
 22 43  1  0  0  0  0
 23 24  2  0  0  0  0
 23 44  1  0  0  0  0
 24 25  1  0  0  0  0
 24 45  1  0  0  0  0
 25 46  1  0  0  0  0
 26 47  1  0  0  0  0
 26 48  1  0  0  0  0
 26 49  1  0  0  0  0
M  END
>  <DRUGBANK_ID>
DB06603

>  <COMMON_NAME>
Panobinostat

>  <CAS_NUMBER>
404950-80-7

>  <UNII>
9647FM7Y3Z

>  <SYNONYMS>
(2E)-N-hydroxy-3-[4-({[2-(2-methyl-1H-indol-3-yl)ethyl]amino}methyl)phenyl]acrylamide; 2-PROPENAMIDE, N-HYDROXY-3-(4-(((2-(2-METHYL-1H-INDOL-3-YL)ETHYL)AMINO)METHYL)PHENYL)-, (2E)-; hydroxypropyl-B-cyclodextrin-panobinostat complex; Panobinostat; Panobinostatum

$$$$
