
 OpenBabel10282417153D

 82 85  0  0  1  0  0  0  0  0999 V2000
   -3.6731   -1.1367    2.1989 C   0  0  0  0  0  0  0  0  0  0  0  0
   -3.1394   -1.6229    3.6017 C   0  0  0  0  0  0  0  0  0  0  0  0
   -1.9328   -2.5864    4.3198 C   0  0  0  0  0  0  0  0  0  0  0  0
   -2.2669   -0.4137    3.6065 C   0  0  0  0  0  0  0  0  0  0  0  0
   -2.4498    0.5271    4.3060 O   0  0  0  0  0  0  0  0  0  0  0  0
   -1.2240   -0.5454    2.6484 N   0  0  0  0  0  0  0  0  0  0  0  0
   -1.0125   -1.6396    1.5490 C   0  0  2  0  0  0  0  0  0  0  0  0
   -1.2096   -1.0667    0.0195 C   0  0  0  0  0  0  0  0  0  0  0  0
   -0.8615   -2.0324   -1.0716 C   0  0  0  0  0  0  0  0  0  0  0  0
   -0.5773   -3.3352   -0.8416 C   0  0  0  0  0  0  0  0  0  0  0  0
   -1.4465   -3.8562   -1.7856 N   0  0  0  0  0  0  0  0  0  0  0  0
   -1.3247   -3.3273   -2.9805 C   0  0  0  0  0  0  0  0  0  0  0  0
   -1.0923   -2.0519   -2.5123 C   0  0  0  0  0  0  0  0  0  0  0  0
   -1.1749   -1.1236   -3.4952 C   0  0  0  0  0  0  0  0  0  0  0  0
   -1.0252   -1.6680   -4.7901 C   0  0  0  0  0  0  0  0  0  0  0  0
   -1.1181   -3.0426   -5.1338 C   0  0  0  0  0  0  0  0  0  0  0  0
   -1.4697   -3.9464   -4.1886 C   0  0  0  0  0  0  0  0  0  0  0  0
   -1.4776   -3.3545    1.9978 C   0  0  0  0  0  0  0  0  0  0  0  0
   -0.4800   -4.0658    2.2517 O   0  0  0  0  0  0  0  0  0  0  0  0
   -2.9189   -3.9325    2.3191 N   0  0  0  0  0  0  0  0  0  0  0  0
   -3.3262   -4.7237    3.5941 C   0  0  0  0  0  0  0  0  0  0  0  0
   -4.1563   -5.9301    3.2601 C   0  0  0  0  0  0  0  0  0  0  0  0
   -5.3959   -5.6035    2.4050 C   0  0  0  0  0  0  0  0  0  0  0  0
   -4.9940   -4.8588    1.1345 C   0  0  2  0  0  0  0  0  0  0  0  0
   -4.2462   -3.7135    1.7318 C   0  0  0  0  0  0  0  0  0  0  0  0
   -6.1861   -4.1311    0.3264 C   0  0  0  0  0  0  0  0  0  0  0  0
   -7.0604   -3.1090    1.1157 C   0  0  0  0  0  0  0  0  0  0  0  0
   -6.7171   -1.7697    1.4260 C   0  0  0  0  0  0  0  0  0  0  0  0
   -7.3592   -0.9998    2.4054 C   0  0  0  0  0  0  0  0  0  0  0  0
   -8.6141   -1.3959    2.7901 C   0  0  0  0  0  0  0  0  0  0  0  0
   -9.1135   -2.5974    2.2810 C   0  0  0  0  0  0  0  0  0  0  0  0
   -8.3068   -3.4964    1.5612 C   0  0  0  0  0  0  0  0  0  0  0  0
   -4.0544   -5.7638    0.2483 C   0  0  0  0  0  0  0  0  0  0  0  0
   -4.2843   -6.9172    0.0840 O   0  0  0  0  0  0  0  0  0  0  0  0
   -2.9561   -5.0510   -0.3436 N   0  0  0  0  0  0  0  0  0  0  0  0
   -3.1963   -3.5310   -0.4819 C   0  0  0  0  0  0  0  0  0  0  0  0
   -1.7450   -6.0802   -1.1710 N   0  0  0  0  0  0  0  0  0  0  0  0
   -2.4600   -6.5571   -2.3825 C   0  0  0  0  0  0  0  0  0  0  0  0
   -0.0999   -5.7332   -1.6013 C   0  0  0  0  0  0  0  0  0  0  0  0
   -4.4078   -1.6219    4.3588 N   0  0  0  0  0  0  0  0  0  0  0  0
   -3.0337   -1.3580    1.3895 H   0  0  0  0  0  0  0  0  0  0  0  0
   -3.9788   -0.0950    2.0107 H   0  0  0  0  0  0  0  0  0  0  0  0
   -4.5684   -1.5948    1.9191 H   0  0  0  0  0  0  0  0  0  0  0  0
   -0.8849   -2.2866    4.1630 H   0  0  0  0  0  0  0  0  0  0  0  0
   -2.1266   -2.7490    5.3760 H   0  0  0  0  0  0  0  0  0  0  0  0
   -1.6999   -3.6135    4.0581 H   0  0  0  0  0  0  0  0  0  0  0  0
   -0.6310    0.2724    2.6669 H   0  0  0  0  0  0  0  0  0  0  0  0
    0.0955   -1.6700    1.5798 H   0  0  0  0  0  0  0  0  0  0  0  0
   -2.2596   -0.8123   -0.1569 H   0  0  0  0  0  0  0  0  0  0  0  0
   -0.6885   -0.1270   -0.1752 H   0  0  0  0  0  0  0  0  0  0  0  0
   -0.4966   -3.9874    0.0306 H   0  0  0  0  0  0  0  0  0  0  0  0
   -1.9977   -4.6724   -1.6119 H   0  0  0  0  0  0  0  0  0  0  0  0
   -1.0776   -0.1076   -3.1765 H   0  0  0  0  0  0  0  0  0  0  0  0
   -0.7208   -0.9845   -5.5574 H   0  0  0  0  0  0  0  0  0  0  0  0
   -0.8729   -3.4379   -6.1095 H   0  0  0  0  0  0  0  0  0  0  0  0
   -1.5575   -5.0248   -4.3512 H   0  0  0  0  0  0  0  0  0  0  0  0
   -3.9940   -4.0590    4.1806 H   0  0  0  0  0  0  0  0  0  0  0  0
   -2.5858   -5.0470    4.3293 H   0  0  0  0  0  0  0  0  0  0  0  0
   -4.4708   -6.3751    4.2072 H   0  0  0  0  0  0  0  0  0  0  0  0
   -3.4465   -6.5738    2.7449 H   0  0  0  0  0  0  0  0  0  0  0  0
   -5.9395   -6.5104    2.1735 H   0  0  0  0  0  0  0  0  0  0  0  0
   -6.0496   -4.9436    2.9995 H   0  0  0  0  0  0  0  0  0  0  0  0
   -4.4992   -2.9733    1.0263 H   0  0  0  0  0  0  0  0  0  0  0  0
   -4.8567   -3.3416    2.5362 H   0  0  0  0  0  0  0  0  0  0  0  0
   -5.7819   -3.5643   -0.5309 H   0  0  0  0  0  0  0  0  0  0  0  0
   -6.8062   -4.9008   -0.1391 H   0  0  0  0  0  0  0  0  0  0  0  0
   -5.9372   -1.2284    0.9047 H   0  0  0  0  0  0  0  0  0  0  0  0
   -6.9180   -0.0685    2.7704 H   0  0  0  0  0  0  0  0  0  0  0  0
   -9.2190   -0.7364    3.4068 H   0  0  0  0  0  0  0  0  0  0  0  0
  -10.1600   -2.8336    2.4254 H   0  0  0  0  0  0  0  0  0  0  0  0
   -8.6827   -4.4755    1.2870 H   0  0  0  0  0  0  0  0  0  0  0  0
   -2.3329   -3.2908    0.0775 H   0  0  0  0  0  0  0  0  0  0  0  0
   -3.5012   -3.0697   -1.4192 H   0  0  0  0  0  0  0  0  0  0  0  0
   -3.3924   -2.6360    0.1048 H   0  0  0  0  0  0  0  0  0  0  0  0
   -2.9573   -5.7299   -2.9055 H   0  0  0  0  0  0  0  0  0  0  0  0
   -1.7997   -7.0618   -3.0868 H   0  0  0  0  0  0  0  0  0  0  0  0
   -3.2832   -7.1982   -2.0868 H   0  0  0  0  0  0  0  0  0  0  0  0
    0.1768   -4.8541   -2.2357 H   0  0  0  0  0  0  0  0  0  0  0  0
    0.5876   -5.5333   -0.7563 H   0  0  0  0  0  0  0  0  0  0  0  0
    0.2993   -6.3937   -2.3781 H   0  0  0  0  0  0  0  0  0  0  0  0
   -5.0893   -2.3012    3.9933 H   0  0  0  0  0  0  0  0  0  0  0  0
   -4.2492   -1.9028    5.3147 H   0  0  0  0  0  0  0  0  0  0  0  0
  1  2  1  0  0  0  0
  1 41  1  0  0  0  0
  1 42  1  0  0  0  0
  1 43  1  0  0  0  0
  2  3  1  0  0  0  0
  2  4  1  0  0  0  0
  2 40  1  0  0  0  0
  3 44  1  0  0  0  0
  3 45  1  0  0  0  0
  3 46  1  0  0  0  0
  4  5  2  0  0  0  0
  4  6  1  0  0  0  0
  6 47  1  0  0  0  0
  7 18  1  0  0  0  0
  7 48  1  1  0  0  0
  7  8  1  0  0  0  0
  7  6  1  0  0  0  0
  8  9  1  0  0  0  0
  8 49  1  0  0  0  0
  8 50  1  0  0  0  0
  9 10  2  0  0  0  0
  9 13  1  0  0  0  0
 10 11  1  0  0  0  0
 10 51  1  0  0  0  0
 11 12  1  0  0  0  0
 11 52  1  0  0  0  0
 12 13  1  0  0  0  0
 12 17  2  0  0  0  0
 13 14  2  0  0  0  0
 14 15  1  0  0  0  0
 14 53  1  0  0  0  0
 15 16  2  0  0  0  0
 15 54  1  0  0  0  0
 16 17  1  0  0  0  0
 16 55  1  0  0  0  0
 17 56  1  0  0  0  0
 18 19  2  0  0  0  0
 18 20  1  0  0  0  0
 20 21  1  0  0  0  0
 20 25  1  0  0  0  0
 21 22  1  0  0  0  0
 21 57  1  0  0  0  0
 21 58  1  0  0  0  0
 22 23  1  0  0  0  0
 22 59  1  0  0  0  0
 22 60  1  0  0  0  0
 23 24  1  0  0  0  0
 23 61  1  0  0  0  0
 23 62  1  0  0  0  0
 24 25  1  0  0  0  0
 24 33  1  6  0  0  0
 24 26  1  0  0  0  0
 25 63  1  0  0  0  0
 25 64  1  0  0  0  0
 26 27  1  0  0  0  0
 26 65  1  0  0  0  0
 26 66  1  0  0  0  0
 27 28  2  0  0  0  0
 27 32  1  0  0  0  0
 28 29  1  0  0  0  0
 28 67  1  0  0  0  0
 29 30  2  0  0  0  0
 29 68  1  0  0  0  0
 30 31  1  0  0  0  0
 30 69  1  0  0  0  0
 31 32  2  0  0  0  0
 31 70  1  0  0  0  0
 32 71  1  0  0  0  0
 33 34  2  0  0  0  0
 33 35  1  0  0  0  0
 35 36  1  0  0  0  0
 35 37  1  0  0  0  0
 36 72  1  0  0  0  0
 36 73  1  0  0  0  0
 36 74  1  0  0  0  0
 37 38  1  0  0  0  0
 37 39  1  0  0  0  0
 38 75  1  0  0  0  0
 38 76  1  0  0  0  0
 38 77  1  0  0  0  0
 39 78  1  0  0  0  0
 39 79  1  0  0  0  0
 39 80  1  0  0  0  0
 40 81  1  0  0  0  0
 40 82  1  0  0  0  0
M  END
>  <DRUGBANK_ID>
DB06645

>  <COMMON_NAME>
Anamorelin

>  <CAS_NUMBER>
249921-19-5

>  <UNII>
DD5RBA1NKF

>  <SYNONYMS>
Anamorelin

$$$$
