
 OpenBabel10282417193D

 32 35  0  0  1  0  0  0  0  0999 V2000
   -3.5869    0.0628    0.4069 C   0  0  0  0  0  0  0  0  0  0  0  0
   -2.6289    1.0760    0.3576 C   0  0  0  0  0  0  0  0  0  0  0  0
   -1.3266    0.7830   -0.0154 C   0  0  0  0  0  0  0  0  0  0  0  0
   -1.0200   -0.5510   -0.2643 C   0  0  0  0  0  0  0  0  0  0  0  0
   -1.9315   -1.5560   -0.2263 N   0  0  0  0  0  0  0  0  0  0  0  0
   -3.1913   -1.2318    0.0976 C   0  0  0  0  0  0  0  0  0  0  0  0
    0.3440   -0.9470   -0.6678 C   0  0  0  0  0  0  0  0  0  0  0  0
    1.3896    0.1146   -0.4020 C   0  0  2  0  0  0  0  0  0  0  0  0
    2.6652   -0.3351   -1.1909 C   0  0  0  0  0  0  0  0  0  0  0  0
    3.8011   -0.2334   -0.1740 C   0  0  0  0  0  0  0  0  0  0  0  0
    3.2790    0.7879    0.7504 N   0  0  2  0  0  0  0  0  0  0  0  0
    1.9025    0.2761    1.0303 C   0  0  0  0  0  0  0  0  0  0  0  0
    3.2358    2.0678   -0.0528 C   0  0  0  0  0  0  0  0  0  0  0  0
    1.8190    2.6213   -0.1894 C   0  0  0  0  0  0  0  0  0  0  0  0
    0.8474    1.5310   -0.7316 C   0  0  2  0  0  0  0  0  0  0  0  0
   -0.4322    1.8088   -0.0997 O   0  0  0  0  0  0  0  0  0  0  0  0
   -4.6150    0.2685    0.6686 H   0  0  0  0  0  0  0  0  0  0  0  0
   -2.9117    2.0996    0.5980 H   0  0  0  0  0  0  0  0  0  0  0  0
   -3.8946   -2.0575    0.1025 H   0  0  0  0  0  0  0  0  0  0  0  0
    0.2981   -1.1354   -1.7506 H   0  0  0  0  0  0  0  0  0  0  0  0
    0.6255   -1.8925   -0.1880 H   0  0  0  0  0  0  0  0  0  0  0  0
    2.8280    0.3045   -2.0659 H   0  0  0  0  0  0  0  0  0  0  0  0
    2.6046   -1.3599   -1.5725 H   0  0  0  0  0  0  0  0  0  0  0  0
    4.7653    0.0751   -0.5913 H   0  0  0  0  0  0  0  0  0  0  0  0
    3.9700   -1.2007    0.3205 H   0  0  0  0  0  0  0  0  0  0  0  0
    1.8616   -0.6559    1.6061 H   0  0  0  0  0  0  0  0  0  0  0  0
    1.3536    1.0017    1.6482 H   0  0  0  0  0  0  0  0  0  0  0  0
    3.9331    2.7947    0.3718 H   0  0  0  0  0  0  0  0  0  0  0  0
    3.6209    1.9275   -1.0756 H   0  0  0  0  0  0  0  0  0  0  0  0
    1.7887    3.5091   -0.8302 H   0  0  0  0  0  0  0  0  0  0  0  0
    1.5039    2.9755    0.8016 H   0  0  0  0  0  0  0  0  0  0  0  0
    0.7081    1.6529   -1.8120 H   0  0  0  0  0  0  0  0  0  0  0  0
  1  2  2  0  0  0  0
  1  6  1  0  0  0  0
  1 17  1  0  0  0  0
  2  3  1  0  0  0  0
  2 18  1  0  0  0  0
  3  4  2  0  0  0  0
  3 16  1  0  0  0  0
  4  5  1  0  0  0  0
  4  7  1  0  0  0  0
  5  6  2  0  0  0  0
  6 19  1  0  0  0  0
  7 20  1  0  0  0  0
  7 21  1  0  0  0  0
  8  7  1  6  0  0  0
  8  9  1  0  0  0  0
  8 12  1  0  0  0  0
  8 15  1  0  0  0  0
  9 10  1  0  0  0  0
  9 22  1  0  0  0  0
  9 23  1  0  0  0  0
 10 24  1  0  0  0  0
 10 25  1  0  0  0  0
 11 10  1  6  0  0  0
 11 12  1  0  0  0  0
 11 13  1  0  0  0  0
 12 26  1  0  0  0  0
 12 27  1  0  0  0  0
 13 14  1  0  0  0  0
 13 28  1  0  0  0  0
 13 29  1  0  0  0  0
 14 15  1  0  0  0  0
 14 30  1  0  0  0  0
 14 31  1  0  0  0  0
 15 16  1  0  0  0  0
 15 32  1  6  0  0  0
M  END
>  <DRUGBANK_ID>
DB12125

>  <COMMON_NAME>
Dianicline

>  <CAS_NUMBER>
292634-27-6

>  <UNII>
Y0SNM34C6O

>  <SYNONYMS>
Dianicline

$$$$
