
 OpenBabel10282417133D

 81 83  0  0  0  0  0  0  0  0999 V2000
   -7.8401   -3.1577    6.0542 P   0  0  2  0  0  0  0  0  0  0  0  0
   -8.9548   -5.3591    3.5204 P   0  0  1  0  0  0  0  0  0  0  0  0
   -2.9506    1.9983    0.2547 P   0  0  0  0  0  0  0  0  0  0  0  0
   -5.8941    0.0347    5.7203 O   0  0  0  0  0  0  0  0  0  0  0  0
   -4.6448    0.1798    2.0195 O   0  0  0  0  0  0  0  0  0  0  0  0
   -8.4393   -1.9195    5.0762 O   0  0  0  0  0  0  0  0  0  0  0  0
   -6.6328   -1.8176    5.5576 O   0  0  0  0  0  0  0  0  0  0  0  0
   -2.8545   -0.8473    3.8388 O   0  0  0  0  0  0  0  0  0  0  0  0
   -6.4544   -4.7245    6.8880 O   0  0  0  0  0  0  0  0  0  0  0  0
   -9.2144   -5.9370    7.2486 O   0  0  0  0  0  0  0  0  0  0  0  0
   -8.4956   -3.8579    2.7935 O   0  0  0  0  0  0  0  0  0  0  0  0
   -4.4460    0.5228    7.6206 O   0  0  0  0  0  0  0  0  0  0  0  0
   -3.7373    2.2506    1.6476 O   0  0  0  0  0  0  0  0  0  0  0  0
   -8.7210   -4.3098    4.6252 O   0  0  0  0  0  0  0  0  0  0  0  0
   -9.1240   -2.9439    4.1848 O   0  0  0  0  0  0  0  0  0  0  0  0
   -8.3969   -2.7924    7.3810 O   0  0  0  0  0  0  0  0  0  0  0  0
   -8.4126   -1.3676    0.1803 O   0  0  0  0  0  0  0  0  0  0  0  0
   -5.5008    3.0815   -0.1358 O   0  0  0  0  0  0  0  0  0  0  0  0
  -10.2668   -5.5416    2.6128 O   0  0  0  0  0  0  0  0  0  0  0  0
  -10.5321   -3.3316    2.4583 O   0  0  0  0  0  0  0  0  0  0  0  0
   -7.2503    2.1814    0.7916 O   0  0  0  0  0  0  0  0  0  0  0  0
   -9.3658   -6.7027    4.1710 O   0  0  0  0  0  0  0  0  0  0  0  0
   -1.5455    2.4588    0.8264 O   0  0  0  0  0  0  0  0  0  0  0  0
   -3.1898    0.4603   -0.0236 O   0  0  0  0  0  0  0  0  0  0  0  0
   -3.2727    2.8569   -0.9180 O   0  0  0  0  0  0  0  0  0  0  0  0
  -14.2591   -3.0957    2.6911 O   0  0  0  0  0  0  0  0  0  0  0  0
   -7.6002   -1.0277    2.3285 N   0  0  0  0  0  0  0  0  0  0  0  0
  -11.0518   -3.5365    4.8642 N   0  0  0  0  0  0  0  0  0  0  0  0
  -12.3289   -4.1664    3.0390 N   0  0  0  0  0  0  0  0  0  0  0  0
   -5.1634   -0.6300    3.1055 C   0  0  2  0  0  0  0  0  0  0  0  0
   -6.6964   -0.4589    3.3936 C   0  0  2  0  0  0  0  0  0  0  0  0
   -4.1293   -0.3412    4.1947 C   0  0  1  0  0  0  0  0  0  0  0  0
   -4.6325   -0.6938    5.5537 C   0  0  1  0  0  0  0  0  0  0  0  0
   -6.9150   -0.5605    4.9637 C   0  0  2  0  0  0  0  0  0  0  0  0
   -7.0892   -4.9809    5.5429 C   0  0  1  0  0  0  0  0  0  0  0  0
   -8.9194   -5.0648    6.2383 C   0  0  2  0  0  0  0  0  0  0  0  0
   -7.0082   -3.3035    4.3670 C   0  0  1  0  0  0  0  0  0  0  0  0
   -9.8387   -3.2853    5.7798 C   0  0  1  0  0  0  0  0  0  0  0  0
   -3.7172   -0.1837    6.6253 C   0  0  0  0  0  0  0  0  0  0  0  0
   -4.9633    1.6152    1.9445 C   0  0  2  0  0  0  0  0  0  0  0  0
   -7.0340   -3.6886    2.9254 C   0  0  0  0  0  0  0  0  0  0  0  0
   -7.5582   -0.9216    0.9285 C   0  0  0  0  0  0  0  0  0  0  0  0
   -5.5784    2.0808    3.2724 C   0  0  0  0  0  0  0  0  0  0  0  0
   -6.0322    2.3395    0.8292 C   0  0  0  0  0  0  0  0  0  0  0  0
  -11.1994   -3.6015    3.4597 C   0  0  0  0  0  0  0  0  0  0  0  0
  -12.1652   -3.2470    5.5448 C   0  0  0  0  0  0  0  0  0  0  0  0
   -6.3937   -0.2724    0.3373 C   0  0  0  0  0  0  0  0  0  0  0  0
  -13.2339   -2.9491    4.8244 C   0  0  0  0  0  0  0  0  0  0  0  0
  -13.3233   -3.3775    3.4158 C   0  0  0  0  0  0  0  0  0  0  0  0
   -8.5047   -1.3523    2.6346 H   0  0  0  0  0  0  0  0  0  0  0  0
  -12.2771   -4.3960    2.0508 H   0  0  0  0  0  0  0  0  0  0  0  0
   -2.9114   -1.7970    3.6882 H   0  0  0  0  0  0  0  0  0  0  0  0
   -7.0595   -4.2450    7.5341 H   0  0  0  0  0  0  0  0  0  0  0  0
   -8.8773   -5.4517    7.9810 H   0  0  0  0  0  0  0  0  0  0  0  0
   -5.0094    1.1638    7.1389 H   0  0  0  0  0  0  0  0  0  0  0  0
   -8.5901   -2.7215    3.3966 H   0  0  0  0  0  0  0  0  0  0  0  0
   -4.5761    3.3786   -0.0795 H   0  0  0  0  0  0  0  0  0  0  0  0
  -10.4317   -4.8315    1.9777 H   0  0  0  0  0  0  0  0  0  0  0  0
   -1.6035    3.4443    0.9140 H   0  0  0  0  0  0  0  0  0  0  0  0
   -3.7601    0.0499    0.6582 H   0  0  0  0  0  0  0  0  0  0  0  0
   -5.0242   -1.7091    2.8804 H   0  0  0  0  0  0  0  0  0  0  0  0
   -7.1760    0.4770    3.2559 H   0  0  0  0  0  0  0  0  0  0  0  0
   -3.8762    0.7042    4.2348 H   0  0  0  0  0  0  0  0  0  0  0  0
   -4.6153   -1.8066    5.6050 H   0  0  0  0  0  0  0  0  0  0  0  0
   -7.9068   -0.1189    5.2087 H   0  0  0  0  0  0  0  0  0  0  0  0
   -6.5352   -5.7845    5.0256 H   0  0  0  0  0  0  0  0  0  0  0  0
   -9.3237   -5.7657    5.5946 H   0  0  0  0  0  0  0  0  0  0  0  0
   -5.9378   -3.2455    4.8421 H   0  0  0  0  0  0  0  0  0  0  0  0
  -10.1355   -3.0556    6.7663 H   0  0  0  0  0  0  0  0  0  0  0  0
   -3.1979   -1.0291    7.0744 H   0  0  0  0  0  0  0  0  0  0  0  0
   -2.9881    0.4952    6.1897 H   0  0  0  0  0  0  0  0  0  0  0  0
   -6.3900   -4.5570    2.7103 H   0  0  0  0  0  0  0  0  0  0  0  0
   -6.6448   -2.8216    2.4177 H   0  0  0  0  0  0  0  0  0  0  0  0
   -5.5521    3.1312    3.4117 H   0  0  0  0  0  0  0  0  0  0  0  0
   -6.6457    1.9476    3.2802 H   0  0  0  0  0  0  0  0  0  0  0  0
   -5.2961    1.6153    4.2064 H   0  0  0  0  0  0  0  0  0  0  0  0
  -12.0265   -3.0858    6.6020 H   0  0  0  0  0  0  0  0  0  0  0  0
   -6.4127    0.4283    1.1241 H   0  0  0  0  0  0  0  0  0  0  0  0
   -5.4477   -0.7763    0.3953 H   0  0  0  0  0  0  0  0  0  0  0  0
   -6.4536    0.2557   -0.6149 H   0  0  0  0  0  0  0  0  0  0  0  0
  -14.0513   -2.4332    5.2418 H   0  0  0  0  0  0  0  0  0  0  0  0
  1  7  1  0  0  0  0
  1 14  1  0  0  0  0
  1 15  1  0  0  0  0
  1 16  2  1  0  0  0
  2 19  1  0  0  0  0
  2 22  2  6  0  0  0
  2 14  1  0  0  0  0
  2 11  1  0  0  0  0
  3 13  1  0  0  0  0
  3 23  1  0  0  0  0
  3 24  1  0  0  0  0
  3 25  2  0  0  0  0
  4 33  1  0  0  0  0
  4 34  1  0  0  0  0
  6 37  1  0  0  0  0
  6 38  1  0  0  0  0
  8 52  1  0  0  0  0
  9 53  1  0  0  0  0
 10 54  1  0  0  0  0
 11 41  1  0  0  0  0
 12 39  1  0  0  0  0
 12 55  1  0  0  0  0
 15 56  1  0  0  0  0
 17 42  2  0  0  0  0
 18 44  1  0  0  0  0
 18 57  1  0  0  0  0
 19 58  1  0  0  0  0
 20 45  2  0  0  0  0
 21 44  2  0  0  0  0
 23 59  1  0  0  0  0
 24 60  1  0  0  0  0
 26 49  2  0  0  0  0
 27 42  1  0  0  0  0
 27 50  1  0  0  0  0
 28 45  1  0  0  0  0
 28 46  1  0  0  0  0
 29 45  1  0  0  0  0
 29 49  1  0  0  0  0
 29 51  1  0  0  0  0
 30  5  1  0  0  0  0
 30 31  1  0  0  0  0
 30 32  1  0  0  0  0
 30 61  1  6  0  0  0
 31 34  1  0  0  0  0
 31 62  1  6  0  0  0
 31 27  1  0  0  0  0
 32  8  1  0  0  0  0
 32 33  1  0  0  0  0
 32 63  1  1  0  0  0
 33 64  1  1  0  0  0
 33 39  1  0  0  0  0
 34  7  1  0  0  0  0
 34 65  1  1  0  0  0
 35  9  1  0  0  0  0
 35 36  1  0  0  0  0
 35 37  1  0  0  0  0
 35 66  1  6  0  0  0
 36 10  1  0  0  0  0
 36 38  1  0  0  0  0
 36 67  1  6  0  0  0
 37 41  1  0  0  0  0
 37 68  1  1  0  0  0
 38 69  1  1  0  0  0
 38 28  1  0  0  0  0
 39 70  1  0  0  0  0
 39 71  1  0  0  0  0
 40 43  1  0  0  0  0
 40 44  1  6  0  0  0
 40 13  1  0  0  0  0
 40  5  1  0  0  0  0
 41 72  1  0  0  0  0
 41 73  1  0  0  0  0
 42 47  1  0  0  0  0
 43 74  1  0  0  0  0
 43 75  1  0  0  0  0
 43 76  1  0  0  0  0
 46 48  2  0  0  0  0
 46 77  1  0  0  0  0
 47 78  1  0  0  0  0
 47 79  1  0  0  0  0
 47 80  1  0  0  0  0
 48 49  1  0  0  0  0
 48 81  1  0  0  0  0
M  END
>  <DRUGBANK_ID>
DB04174

>  <SECONDARY_ACCESSION_NUMBERS>
EXPT03170

>  <COMMON_NAME>
3'-1-carboxy-1-phosphonooxy-ethoxy-uridine-diphosphate-N-acetylglucosamine

$$$$
