
 OpenBabel10282417203D

 47 47  0  0  0  0  0  0  0  0999 V2000
    1.5453   -0.1721    0.4761 C   0  0  0  0  0  0  0  0  0  0  0  0
    1.1091    1.6369    2.1443 C   0  0  0  0  0  0  0  0  0  0  0  0
   -0.4375    0.8120   -1.1644 C   0  0  0  0  0  0  0  0  0  0  0  0
   -0.2523    3.3617   -0.9440 C   0  0  0  0  0  0  0  0  0  0  0  0
   -7.6861    4.0001   -2.2399 C   0  0  0  0  0  0  0  0  0  0  0  0
   -5.2911    1.2249    1.8917 C   0  0  0  0  0  0  0  0  0  0  0  0
   -3.9032    1.1779    1.9904 C   0  0  0  0  0  0  0  0  0  0  0  0
   -7.4172    1.4427    0.5620 C   0  0  0  0  0  0  0  0  0  0  0  0
   -7.7858    2.7652   -0.1511 C   0  0  0  0  0  0  0  0  0  0  0  0
   -5.1434    1.0437   -0.5120 C   0  0  0  0  0  0  0  0  0  0  0  0
    0.6768    0.2320    1.7375 C   0  0  0  0  0  0  0  0  0  0  0  0
   -1.1037    2.1527   -1.1898 C   0  0  0  0  0  0  0  0  0  0  0  0
   -5.9237    1.2005    0.6436 C   0  0  0  0  0  0  0  0  0  0  0  0
   -3.1228    1.0640    0.8452 C   0  0  0  0  0  0  0  0  0  0  0  0
   -3.7500    1.1001   -0.4380 C   0  0  0  0  0  0  0  0  0  0  0  0
   -0.9365    0.0534    1.8103 C   0  0  0  0  0  0  0  0  0  0  0  0
   -2.0139    1.9201   -2.3100 C   0  0  0  0  0  0  0  0  0  0  0  0
   -7.3641    2.7652   -1.5562 N   0  0  0  0  0  0  0  0  0  0  0  0
   -1.4818   -0.8440    2.4381 O   0  0  0  0  0  0  0  0  0  0  0  0
   -1.6886    1.9814   -3.4699 O   0  0  0  0  0  0  0  0  0  0  0  0
   -1.6907    1.0331    1.1108 O   0  0  0  0  0  0  0  0  0  0  0  0
   -3.2002    1.3159   -1.7858 O   0  0  0  0  0  0  0  0  0  0  0  0
    1.7191    0.6793   -0.2119 H   0  0  0  0  0  0  0  0  0  0  0  0
    1.0990   -0.9988   -0.0900 H   0  0  0  0  0  0  0  0  0  0  0  0
    2.5883   -0.4066    0.6948 H   0  0  0  0  0  0  0  0  0  0  0  0
    0.7366    2.3676    1.4443 H   0  0  0  0  0  0  0  0  0  0  0  0
    0.7174    1.9391    3.1148 H   0  0  0  0  0  0  0  0  0  0  0  0
    2.1996    1.7400    2.1214 H   0  0  0  0  0  0  0  0  0  0  0  0
    0.3507    0.6554   -1.9012 H   0  0  0  0  0  0  0  0  0  0  0  0
   -0.0231    0.9256   -0.2088 H   0  0  0  0  0  0  0  0  0  0  0  0
   -1.0443   -0.1099   -1.0983 H   0  0  0  0  0  0  0  0  0  0  0  0
   -0.9076    4.2336   -0.8892 H   0  0  0  0  0  0  0  0  0  0  0  0
    0.1868    3.3440    0.0557 H   0  0  0  0  0  0  0  0  0  0  0  0
    0.5621    3.4764   -1.6458 H   0  0  0  0  0  0  0  0  0  0  0  0
   -7.1888    4.8474   -1.7593 H   0  0  0  0  0  0  0  0  0  0  0  0
   -7.3089    3.9281   -3.2654 H   0  0  0  0  0  0  0  0  0  0  0  0
   -8.7640    4.1590   -2.2773 H   0  0  0  0  0  0  0  0  0  0  0  0
   -5.8760    1.2704    2.8065 H   0  0  0  0  0  0  0  0  0  0  0  0
   -3.4262    1.2608    2.9601 H   0  0  0  0  0  0  0  0  0  0  0  0
   -7.9061    0.5860    0.0855 H   0  0  0  0  0  0  0  0  0  0  0  0
   -7.8214    1.5010    1.5823 H   0  0  0  0  0  0  0  0  0  0  0  0
   -8.8721    2.8989   -0.0938 H   0  0  0  0  0  0  0  0  0  0  0  0
   -7.3164    3.6053    0.3777 H   0  0  0  0  0  0  0  0  0  0  0  0
   -5.6136    0.9368   -1.4906 H   0  0  0  0  0  0  0  0  0  0  0  0
    1.0211   -0.4650    2.5064 H   0  0  0  0  0  0  0  0  0  0  0  0
   -1.7726    2.3632   -0.3772 H   0  0  0  0  0  0  0  0  0  0  0  0
   -6.3479    2.7152   -1.5734 H   0  0  0  0  0  0  0  0  0  0  0  0
  1 23  1  0  0  0  0
  1 24  1  0  0  0  0
  1 25  1  0  0  0  0
  2 26  1  0  0  0  0
  2 27  1  0  0  0  0
  2 28  1  0  0  0  0
  3 29  1  0  0  0  0
  3 30  1  0  0  0  0
  3 31  1  0  0  0  0
  4 32  1  0  0  0  0
  4 33  1  0  0  0  0
  4 34  1  0  0  0  0
  5 35  1  0  0  0  0
  5 36  1  0  0  0  0
  5 37  1  0  0  0  0
  6 38  1  0  0  0  0
  7  6  2  0  0  0  0
  7 39  1  0  0  0  0
  8 40  1  0  0  0  0
  8 41  1  0  0  0  0
  9  8  1  0  0  0  0
  9 42  1  0  0  0  0
  9 43  1  0  0  0  0
 10 44  1  0  0  0  0
 11  1  1  0  0  0  0
 11  2  1  0  0  0  0
 11 45  1  0  0  0  0
 12  3  1  0  0  0  0
 12  4  1  0  0  0  0
 12 46  1  0  0  0  0
 13  6  1  0  0  0  0
 13  8  1  0  0  0  0
 13 10  2  0  0  0  0
 14  7  1  0  0  0  0
 15 10  1  0  0  0  0
 15 14  2  0  0  0  0
 16 11  1  0  0  0  0
 17 12  1  0  0  0  0
 18  5  1  0  0  0  0
 18  9  1  0  0  0  0
 18 47  1  0  0  0  0
 19 16  2  0  0  0  0
 20 17  2  0  0  0  0
 21 14  1  0  0  0  0
 21 16  1  0  0  0  0
 22 15  1  0  0  0  0
 22 17  1  0  0  0  0
M  END
>  <DRUGBANK_ID>
DB13316

>  <COMMON_NAME>
Ibopamine

>  <CAS_NUMBER>
66195-31-1

>  <UNII>
8ZCA2I2L11

>  <SYNONYMS>
Ibopamine

$$$$
