
 OpenBabel10282417223D

 52 53  0  0  1  0  0  0  0  0999 V2000
   -1.1501   -3.2335   -2.0677 C   0  0  0  0  0  0  0  0  0  0  0  0
   -0.3436   -4.4759   -2.4333 C   0  0  0  0  0  0  0  0  0  0  0  0
    1.0462   -4.1578   -2.8849 C   0  0  0  0  0  0  0  0  0  0  0  0
    1.8538   -3.5962   -1.7797 N   0  0  0  0  0  0  0  0  0  0  0  0
    3.1340   -3.0540   -2.2318 C   0  0  0  0  0  0  0  0  0  0  0  0
    2.7508   -2.1128   -3.3198 C   0  0  2  0  0  0  0  0  0  0  0  0
    1.6048   -1.3337   -2.8500 O   0  0  0  0  0  0  0  0  0  0  0  0
    2.6633   -3.0094   -4.7754 C   0  0  0  0  0  0  0  0  0  0  0  0
    1.8607   -2.7341   -6.0290 O   0  0  0  0  0  0  0  0  0  0  0  0
    0.8140   -1.8989   -6.3915 C   0  0  0  0  0  0  0  0  0  0  0  0
   -0.0030   -1.2350   -5.4667 C   0  0  0  0  0  0  0  0  0  0  0  0
   -1.2533   -0.7079   -5.7604 C   0  0  0  0  0  0  0  0  0  0  0  0
   -1.6764   -0.6970   -7.0647 C   0  0  0  0  0  0  0  0  0  0  0  0
   -0.7573   -1.0369   -8.0643 C   0  0  0  0  0  0  0  0  0  0  0  0
    0.5000   -1.6416   -7.7496 C   0  0  0  0  0  0  0  0  0  0  0  0
    1.3940   -1.9160   -8.9523 C   0  0  0  0  0  0  0  0  0  0  0  0
    0.9168   -1.9139  -10.0662 O   0  0  0  0  0  0  0  0  0  0  0  0
    2.8860   -2.2040   -8.7790 C   0  0  0  0  0  0  0  0  0  0  0  0
    3.8335   -0.9660   -8.5589 C   0  0  0  0  0  0  0  0  0  0  0  0
    3.6886   -0.1293   -7.3087 C   0  0  0  0  0  0  0  0  0  0  0  0
    3.7789   -0.8808   -6.2106 C   0  0  0  0  0  0  0  0  0  0  0  0
    3.0270   -0.3796   -5.1738 C   0  0  0  0  0  0  0  0  0  0  0  0
    2.8277    0.8719   -4.7443 C   0  0  0  0  0  0  0  0  0  0  0  0
    3.2223    1.7340   -5.6973 C   0  0  0  0  0  0  0  0  0  0  0  0
    3.4763    1.2292   -7.0270 C   0  0  0  0  0  0  0  0  0  0  0  0
   -0.6558   -2.6213   -1.3068 H   0  0  0  0  0  0  0  0  0  0  0  0
   -2.1154   -3.5426   -1.6688 H   0  0  0  0  0  0  0  0  0  0  0  0
   -1.3307   -2.5887   -2.9376 H   0  0  0  0  0  0  0  0  0  0  0  0
   -0.2457   -5.1502   -1.5870 H   0  0  0  0  0  0  0  0  0  0  0  0
   -0.8446   -4.9949   -3.2575 H   0  0  0  0  0  0  0  0  0  0  0  0
    1.5606   -5.0320   -3.2888 H   0  0  0  0  0  0  0  0  0  0  0  0
    0.8419   -3.5001   -3.7407 H   0  0  0  0  0  0  0  0  0  0  0  0
    1.3783   -2.7639   -1.4052 H   0  0  0  0  0  0  0  0  0  0  0  0
    3.6249   -2.4692   -1.4367 H   0  0  0  0  0  0  0  0  0  0  0  0
    3.8595   -3.7735   -2.6146 H   0  0  0  0  0  0  0  0  0  0  0  0
    3.5706   -1.3785   -3.3050 H   0  0  0  0  0  0  0  0  0  0  0  0
    0.7972   -1.8620   -2.9310 H   0  0  0  0  0  0  0  0  0  0  0  0
    3.7359   -3.0365   -5.0445 H   0  0  0  0  0  0  0  0  0  0  0  0
    2.6099   -4.0907   -4.6503 H   0  0  0  0  0  0  0  0  0  0  0  0
    0.3063   -0.9782   -4.4763 H   0  0  0  0  0  0  0  0  0  0  0  0
   -1.8602   -0.3263   -4.9416 H   0  0  0  0  0  0  0  0  0  0  0  0
   -2.6917   -0.3856   -7.2897 H   0  0  0  0  0  0  0  0  0  0  0  0
   -1.0508   -0.8424   -9.0969 H   0  0  0  0  0  0  0  0  0  0  0  0
    2.9989   -3.0337   -8.0695 H   0  0  0  0  0  0  0  0  0  0  0  0
    3.2137   -2.6790   -9.7200 H   0  0  0  0  0  0  0  0  0  0  0  0
    4.8382   -1.4238   -8.4862 H   0  0  0  0  0  0  0  0  0  0  0  0
    3.8337   -0.3191   -9.4286 H   0  0  0  0  0  0  0  0  0  0  0  0
    3.9585   -1.9287   -6.4079 H   0  0  0  0  0  0  0  0  0  0  0  0
    2.2086   -0.9581   -4.8363 H   0  0  0  0  0  0  0  0  0  0  0  0
    2.2777    1.0335   -3.8178 H   0  0  0  0  0  0  0  0  0  0  0  0
    3.1855    2.7665   -5.4063 H   0  0  0  0  0  0  0  0  0  0  0  0
    3.4499    1.9455   -7.8285 H   0  0  0  0  0  0  0  0  0  0  0  0
  1  2  1  0  0  0  0
  1 26  1  0  0  0  0
  1 27  1  0  0  0  0
  1 28  1  0  0  0  0
  2  3  1  0  0  0  0
  2 29  1  0  0  0  0
  2 30  1  0  0  0  0
  3  4  1  0  0  0  0
  3 31  1  0  0  0  0
  3 32  1  0  0  0  0
  4  5  1  0  0  0  0
  4 33  1  0  0  0  0
  5 34  1  0  0  0  0
  5 35  1  0  0  0  0
  6  8  1  0  0  0  0
  6 36  1  6  0  0  0
  6  7  1  0  0  0  0
  6  5  1  0  0  0  0
  7 37  1  0  0  0  0
  8  9  1  0  0  0  0
  8 38  1  0  0  0  0
  8 39  1  0  0  0  0
  9 10  1  0  0  0  0
 10 11  2  0  0  0  0
 10 15  1  0  0  0  0
 11 12  1  0  0  0  0
 11 40  1  0  0  0  0
 12 13  2  0  0  0  0
 12 41  1  0  0  0  0
 13 14  1  0  0  0  0
 13 42  1  0  0  0  0
 14 15  2  0  0  0  0
 14 43  1  0  0  0  0
 15 16  1  0  0  0  0
 16 17  2  0  0  0  0
 16 18  1  0  0  0  0
 18 19  1  0  0  0  0
 18 44  1  0  0  0  0
 18 45  1  0  0  0  0
 19 20  1  0  0  0  0
 19 46  1  0  0  0  0
 19 47  1  0  0  0  0
 20 21  2  0  0  0  0
 20 25  1  0  0  0  0
 21 22  1  0  0  0  0
 21 48  1  0  0  0  0
 22 23  2  0  0  0  0
 22 49  1  0  0  0  0
 23 24  1  0  0  0  0
 23 50  1  0  0  0  0
 24 25  2  0  0  0  0
 24 51  1  0  0  0  0
 25 52  1  0  0  0  0
M  END
>  <DRUGBANK_ID>
DB15410

>  <COMMON_NAME>
(S)-Propafenone

>  <CAS_NUMBER>
107381-32-8

>  <UNII>
N0BQN4E2YT

>  <SYNONYMS>
(-)-(S)-Propafenone; (-)-Propafenone

$$$$
