
 OpenBabel10282417223D

 67 70  0  0  1  0  0  0  0  0999 V2000
    1.0897   -0.3138    0.1280 C   0  0  0  0  0  0  0  0  0  0  0  0
    0.5998    1.0800    0.0033 C   0  0  0  0  0  0  0  0  0  0  0  0
    1.0956    1.6397   -1.2976 C   0  0  0  0  0  0  0  0  0  0  0  0
    0.5414    1.1225   -2.6311 C   0  0  1  0  0  0  0  0  0  0  0  0
   -1.0043    1.2077   -2.6480 C   0  0  1  0  0  0  0  0  0  0  0  0
   -1.5389    2.6666   -2.6174 C   0  0  0  0  0  0  0  0  0  0  0  0
   -2.8202    3.0595   -2.9625 C   0  0  0  0  0  0  0  0  0  0  0  0
   -2.8648    4.4311   -3.0313 N   0  0  0  0  0  0  0  0  0  0  0  0
   -1.6740    4.9919   -2.6321 C   0  0  0  0  0  0  0  0  0  0  0  0
   -0.8460    3.9475   -2.2560 C   0  0  0  0  0  0  0  0  0  0  0  0
    0.5121    4.3828   -1.9467 C   0  0  0  0  0  0  0  0  0  0  0  0
    1.0405    5.6536   -1.9390 C   0  0  0  0  0  0  0  0  0  0  0  0
    2.5264    5.7502   -1.7088 C   0  0  0  0  0  0  0  0  0  0  0  0
    0.1515    6.6355   -2.2865 C   0  0  0  0  0  0  0  0  0  0  0  0
   -1.1912    6.3189   -2.6332 C   0  0  0  0  0  0  0  0  0  0  0  0
   -1.9995    7.3117   -3.0194 F   0  0  0  0  0  0  0  0  0  0  0  0
   -1.5128    0.3437   -3.8332 C   0  0  0  0  0  0  0  0  0  0  0  0
   -2.0352    0.8500   -5.0302 C   0  0  0  0  0  0  0  0  0  0  0  0
   -2.3367    0.0085   -6.1075 C   0  0  0  0  0  0  0  0  0  0  0  0
   -2.0700   -1.3541   -6.0278 C   0  0  0  0  0  0  0  0  0  0  0  0
   -2.3812   -2.3691   -7.3808 Cl  0  0  0  0  0  0  0  0  0  0  0  0
   -1.5292   -1.8926   -4.8675 C   0  0  0  0  0  0  0  0  0  0  0  0
   -1.2752   -1.0561   -3.7750 C   0  0  0  0  0  0  0  0  0  0  0  0
    1.1142    1.7256   -3.9213 C   0  0  0  0  0  0  0  0  0  0  0  0
    1.6303    0.8770   -4.8537 C   0  0  0  0  0  0  0  0  0  0  0  0
    1.9186    1.3685   -6.1224 C   0  0  0  0  0  0  0  0  0  0  0  0
    1.8363    2.7241   -6.5108 C   0  0  0  0  0  0  0  0  0  0  0  0
    1.3477    3.5807   -5.5817 C   0  0  0  0  0  0  0  0  0  0  0  0
    0.9461    3.0335   -4.3907 C   0  0  0  0  0  0  0  0  0  0  0  0
    2.1222    3.4136   -7.8011 C   0  0  0  0  0  0  0  0  0  0  0  0
    1.9146    4.6057   -7.9366 O   0  0  0  0  0  0  0  0  0  0  0  0
    2.6432    2.7283   -8.8564 N   0  0  0  0  0  0  0  0  0  0  0  0
    2.9572    1.3397   -8.9962 C   0  0  0  0  0  0  0  0  0  0  0  0
    1.9704    0.5880   -9.8506 C   0  0  0  0  0  0  0  0  0  0  0  0
    2.3021    0.9893  -11.2525 C   0  0  0  0  0  0  0  0  0  0  0  0
    2.7914   -0.0212  -12.0028 O   0  0  0  0  0  0  0  0  0  0  0  0
    2.2314    2.1313  -11.6537 O   0  0  0  0  0  0  0  0  0  0  0  0
    0.7021   -0.9154   -0.6963 H   0  0  0  0  0  0  0  0  0  0  0  0
    0.7496   -0.7252    1.0731 H   0  0  0  0  0  0  0  0  0  0  0  0
    2.1816   -0.3034    0.0775 H   0  0  0  0  0  0  0  0  0  0  0  0
   -0.4937    1.1562    0.0648 H   0  0  0  0  0  0  0  0  0  0  0  0
    0.9747    1.7304    0.8084 H   0  0  0  0  0  0  0  0  0  0  0  0
    0.6253    2.5574   -1.0682 H   0  0  0  0  0  0  0  0  0  0  0  0
    2.1799    1.7947   -1.3343 H   0  0  0  0  0  0  0  0  0  0  0  0
    0.8526    0.0680   -2.6480 H   0  0  0  0  0  0  0  0  0  0  0  0
   -1.4182    0.7120   -1.7608 H   0  0  0  0  0  0  0  0  0  0  0  0
   -3.6670    2.4617   -3.2821 H   0  0  0  0  0  0  0  0  0  0  0  0
   -3.6455    4.9544   -3.3986 H   0  0  0  0  0  0  0  0  0  0  0  0
    1.3620    3.7020   -2.0286 H   0  0  0  0  0  0  0  0  0  0  0  0
    2.7867    5.2415   -0.7679 H   0  0  0  0  0  0  0  0  0  0  0  0
    3.0942    5.2318   -2.4995 H   0  0  0  0  0  0  0  0  0  0  0  0
    2.8739    6.7791   -1.6525 H   0  0  0  0  0  0  0  0  0  0  0  0
    0.4954    7.6601   -2.3414 H   0  0  0  0  0  0  0  0  0  0  0  0
   -2.1837    1.9155   -5.1709 H   0  0  0  0  0  0  0  0  0  0  0  0
   -2.7540    0.4391   -7.0136 H   0  0  0  0  0  0  0  0  0  0  0  0
   -1.2882   -2.9514   -4.8098 H   0  0  0  0  0  0  0  0  0  0  0  0
   -0.8260   -1.5041   -2.8881 H   0  0  0  0  0  0  0  0  0  0  0  0
    1.6966   -0.1949   -4.6890 H   0  0  0  0  0  0  0  0  0  0  0  0
    2.1368    0.5211   -6.7311 H   0  0  0  0  0  0  0  0  0  0  0  0
    1.1485    4.6401   -5.7520 H   0  0  0  0  0  0  0  0  0  0  0  0
    0.3547    3.7798   -3.9430 H   0  0  0  0  0  0  0  0  0  0  0  0
    2.7460    3.3259   -9.6748 H   0  0  0  0  0  0  0  0  0  0  0  0
    4.0057    1.2435   -9.2714 H   0  0  0  0  0  0  0  0  0  0  0  0
    2.9583    0.8507   -8.0624 H   0  0  0  0  0  0  0  0  0  0  0  0
    2.0948   -0.4881   -9.6856 H   0  0  0  0  0  0  0  0  0  0  0  0
    0.9226    0.8227   -9.6228 H   0  0  0  0  0  0  0  0  0  0  0  0
    2.8279   -0.8898  -11.5637 H   0  0  0  0  0  0  0  0  0  0  0  0
  1  2  1  0  0  0  0
  1 38  1  0  0  0  0
  1 39  1  0  0  0  0
  1 40  1  0  0  0  0
  2  3  1  0  0  0  0
  2 41  1  0  0  0  0
  2 42  1  0  0  0  0
  3 43  1  0  0  0  0
  3 44  1  0  0  0  0
  4  3  1  0  0  0  0
  4  5  1  0  0  0  0
  4 24  1  0  0  0  0
  4 45  1  6  0  0  0
  5  6  1  0  0  0  0
  5 17  1  0  0  0  0
  5 46  1  1  0  0  0
  6  7  2  0  0  0  0
  6 10  1  0  0  0  0
  7  8  1  0  0  0  0
  7 47  1  0  0  0  0
  8  9  1  0  0  0  0
  8 48  1  0  0  0  0
  9 10  2  0  0  0  0
  9 15  1  0  0  0  0
 10 11  1  0  0  0  0
 11 12  2  0  0  0  0
 11 49  1  0  0  0  0
 12 13  1  0  0  0  0
 12 14  1  0  0  0  0
 13 50  1  0  0  0  0
 13 51  1  0  0  0  0
 13 52  1  0  0  0  0
 14 15  2  0  0  0  0
 14 53  1  0  0  0  0
 15 16  1  0  0  0  0
 17 18  2  0  0  0  0
 17 23  1  0  0  0  0
 18 19  1  0  0  0  0
 18 54  1  0  0  0  0
 19 20  2  0  0  0  0
 19 55  1  0  0  0  0
 20 21  1  0  0  0  0
 20 22  1  0  0  0  0
 22 23  2  0  0  0  0
 22 56  1  0  0  0  0
 23 57  1  0  0  0  0
 24 25  2  0  0  0  0
 24 29  1  0  0  0  0
 25 26  1  0  0  0  0
 25 58  1  0  0  0  0
 26 27  2  0  0  0  0
 26 59  1  0  0  0  0
 27 28  1  0  0  0  0
 27 30  1  0  0  0  0
 28 29  2  0  0  0  0
 28 60  1  0  0  0  0
 29 61  1  0  0  0  0
 30 31  2  0  0  0  0
 30 32  1  0  0  0  0
 32 33  1  0  0  0  0
 32 62  1  0  0  0  0
 33 34  1  0  0  0  0
 33 63  1  0  0  0  0
 33 64  1  0  0  0  0
 34 35  1  0  0  0  0
 34 65  1  0  0  0  0
 34 66  1  0  0  0  0
 35 36  1  0  0  0  0
 35 37  2  0  0  0  0
 36 67  1  0  0  0  0
M  END
>  <DRUGBANK_ID>
DB14957

>  <COMMON_NAME>
MK-3577

>  <CAS_NUMBER>
1019112-29-8

>  <UNII>
03TW1410NL

$$$$
