467
 OpenBabel10282417103D

 40 42  0  0  0  0  0  0  0  0999 V2000
    0.8608    0.0177    0.0694 F   0  0  0  0  0  0  0  0  0  0  0  0
    4.3398   -3.4940    0.0087 O   0  0  0  0  0  0  0  0  0  0  0  0
    8.5915   -3.6771   -0.0066 O   0  0  0  0  0  0  0  0  0  0  0  0
    6.7015   -4.8443    0.0035 O   0  0  0  0  0  0  0  0  0  0  0  0
    2.2478    2.4496   -0.0189 N   0  0  0  0  0  0  0  0  0  0  0  0
    0.4940    4.6419   -0.8123 N   0  0  0  0  0  0  0  0  0  0  0  0
    6.3834   -0.0061   -0.0067 N   0  0  0  0  0  0  0  0  0  0  0  0
    4.2775    1.2244    0.0712 N   0  0  0  0  0  0  0  0  0  0  0  0
    1.2477    2.9478    0.9341 C   0  0  0  0  0  0  0  0  0  0  0  0
    2.7258    3.4489   -0.9685 C   0  0  0  0  0  0  0  0  0  0  0  0
    0.0691    3.6080    0.1632 C   0  0  0  0  0  0  0  0  0  0  0  0
    1.5033    4.0452   -1.7170 C   0  0  0  0  0  0  0  0  0  0  0  0
    2.9106    1.2422    0.0962 C   0  0  0  0  0  0  0  0  0  0  0  0
    4.9610    0.0373    0.0489 C   0  0  0  0  0  0  0  0  0  0  0  0
    4.2726   -1.1742    0.0484 C   0  0  0  0  0  0  0  0  0  0  0  0
    2.2023    0.0357    0.1099 C   0  0  0  0  0  0  0  0  0  0  0  0
    2.8792   -1.1750    0.0739 C   0  0  0  0  0  0  0  0  0  0  0  0
    7.0860    1.2881   -0.0032 C   0  0  0  0  0  0  0  0  0  0  0  0
    5.0004   -2.4605    0.0157 C   0  0  0  0  0  0  0  0  0  0  0  0
    7.0511   -1.2297   -0.0047 C   0  0  0  0  0  0  0  0  0  0  0  0
    6.4949   -2.4555    0.0031 C   0  0  0  0  0  0  0  0  0  0  0  0
    6.8137    2.1007   -1.2617 C   0  0  0  0  0  0  0  0  0  0  0  0
    7.2430   -3.7453   -0.0002 C   0  0  0  0  0  0  0  0  0  0  0  0
    9.0275   -2.8128   -0.0087 H   0  0  0  0  0  0  0  0  0  0  0  0
    0.9374    5.4050   -0.3010 H   0  0  0  0  0  0  0  0  0  0  0  0
    0.8692    2.1772    1.6130 H   0  0  0  0  0  0  0  0  0  0  0  0
    1.7192    3.7227    1.5562 H   0  0  0  0  0  0  0  0  0  0  0  0
    3.2492    4.2460   -0.4271 H   0  0  0  0  0  0  0  0  0  0  0  0
    3.4123    3.0228   -1.7063 H   0  0  0  0  0  0  0  0  0  0  0  0
   -0.4933    2.8350   -0.3739 H   0  0  0  0  0  0  0  0  0  0  0  0
   -0.6279    4.0720    0.8711 H   0  0  0  0  0  0  0  0  0  0  0  0
    1.0131    3.2619   -2.3105 H   0  0  0  0  0  0  0  0  0  0  0  0
    1.8431    4.8110   -2.4215 H   0  0  0  0  0  0  0  0  0  0  0  0
    2.3232   -2.1075    0.0434 H   0  0  0  0  0  0  0  0  0  0  0  0
    6.8432    1.8578    0.9015 H   0  0  0  0  0  0  0  0  0  0  0  0
    8.1718    1.1177    0.0384 H   0  0  0  0  0  0  0  0  0  0  0  0
    8.1256   -1.0882   -0.0103 H   0  0  0  0  0  0  0  0  0  0  0  0
    5.7659    2.3910   -1.3495 H   0  0  0  0  0  0  0  0  0  0  0  0
    7.3964    3.0262   -1.2507 H   0  0  0  0  0  0  0  0  0  0  0  0
    7.0723    1.5314   -2.1595 H   0  0  0  0  0  0  0  0  0  0  0  0
  1 16  1  0  0  0  0
  2 19  2  0  0  0  0
  3 23  1  0  0  0  0
  3 24  1  0  0  0  0
  4 23  2  0  0  0  0
  5  9  1  0  0  0  0
  5 10  1  0  0  0  0
  5 13  1  0  0  0  0
  6 11  1  0  0  0  0
  6 12  1  0  0  0  0
  6 25  1  0  0  0  0
  7 14  1  0  0  0  0
  7 18  1  0  0  0  0
  7 20  1  0  0  0  0
  8 13  1  0  0  0  0
  8 14  2  0  0  0  0
  9 11  1  0  0  0  0
  9 26  1  0  0  0  0
  9 27  1  0  0  0  0
 10 12  1  0  0  0  0
 10 28  1  0  0  0  0
 10 29  1  0  0  0  0
 11 30  1  0  0  0  0
 11 31  1  0  0  0  0
 12 32  1  0  0  0  0
 12 33  1  0  0  0  0
 13 16  2  0  0  0  0
 14 15  1  0  0  0  0
 15 17  2  0  0  0  0
 15 19  1  0  0  0  0
 16 17  1  0  0  0  0
 17 34  1  0  0  0  0
 18 22  1  0  0  0  0
 18 35  1  0  0  0  0
 18 36  1  0  0  0  0
 19 21  1  0  0  0  0
 20 21  2  0  0  0  0
 20 37  1  0  0  0  0
 21 23  1  0  0  0  0
 22 38  1  0  0  0  0
 22 39  1  0  0  0  0
 22 40  1  0  0  0  0
M  END
>  <DRUGBANK_ID>
DB00467

>  <SECONDARY_ACCESSION_NUMBERS>
APRD00947

>  <COMMON_NAME>
Enoxacin

>  <CAS_NUMBER>
74011-58-8

>  <UNII>
325OGW249P

>  <SYNONYMS>
1-ethyl-6-fluoro-1,4-dihydro-4-oxo-7-(1-piperazinyl)-1,8-naphthyridine-3-carboxylic acid; 1-Ethyl-6-fluoro-4-oxo-7-piperazin-1-yl-1,4-dihydro-[1,8]naphthyridine-3-carboxylic acid; Enoxacin; Enoxacina; Ã‰noxacine; Enoxacino; Enoxacinum

$$$$
