
 OpenBabel10282417233D

 59 64  0  0  1  0  0  0  0  0999 V2000
    1.6538   -0.3300   -0.3810 F   0  0  0  0  0  0  0  0  0  0  0  0
    0.7605   -0.2874    0.6402 C   0  0  2  0  0  0  0  0  0  0  0  0
   -0.2465   -1.3769    0.4988 C   0  0  0  0  0  0  0  0  0  0  0  0
   -1.3165   -0.8177   -0.4603 C   0  0  0  0  0  0  0  0  0  0  0  0
   -1.1566    0.6821   -0.4811 N   0  0  0  0  0  0  0  0  0  0  0  0
   -0.0799    0.9289    0.4873 C   0  0  0  0  0  0  0  0  0  0  0  0
   -0.8575    1.3507   -2.0282 S   0  0  0  0  0  0  0  0  0  0  0  0
    0.4246    0.8337   -2.4746 O   0  0  0  0  0  0  0  0  0  0  0  0
   -2.0232    1.1328   -2.8397 O   0  0  0  0  0  0  0  0  0  0  0  0
   -0.6244    3.0222   -1.8535 N   0  0  0  0  0  0  0  0  0  0  0  0
   -0.9311    3.8286   -0.7043 C   0  0  0  0  0  0  0  0  0  0  0  0
   -0.1595    3.7013    0.4434 C   0  0  0  0  0  0  0  0  0  0  0  0
   -0.5841    4.1517    1.6741 C   0  0  0  0  0  0  0  0  0  0  0  0
   -1.5886    5.0811    1.7057 C   0  0  0  0  0  0  0  0  0  0  0  0
   -1.8925    5.5489    2.9186 F   0  0  0  0  0  0  0  0  0  0  0  0
   -2.1665    5.5480    0.5220 C   0  0  0  0  0  0  0  0  0  0  0  0
   -3.0807    6.7211    0.5344 C   0  0  0  0  0  0  0  0  0  0  0  0
   -3.6204    7.0731   -0.5053 O   0  0  0  0  0  0  0  0  0  0  0  0
   -3.3611    7.4377    1.7818 C   0  0  0  0  0  0  0  0  0  0  0  0
   -4.6419    7.6327    2.2744 C   0  0  0  0  0  0  0  0  0  0  0  0
   -4.5623    8.3521    3.4371 N   0  0  0  0  0  0  0  0  0  0  0  0
   -3.2580    8.6439    3.7110 C   0  0  0  0  0  0  0  0  0  0  0  0
   -2.8509    9.3485    4.7817 N   0  0  0  0  0  0  0  0  0  0  0  0
   -1.5112    9.5202    4.8175 C   0  0  0  0  0  0  0  0  0  0  0  0
   -0.5965    9.0295    3.8840 C   0  0  0  0  0  0  0  0  0  0  0  0
   -1.0906    8.3002    2.7941 C   0  0  0  0  0  0  0  0  0  0  0  0
   -2.4769    8.1014    2.6960 C   0  0  0  0  0  0  0  0  0  0  0  0
    0.8218    9.2971    4.0081 C   0  0  0  0  0  0  0  0  0  0  0  0
    1.5725    8.9333    5.1070 C   0  0  0  0  0  0  0  0  0  0  0  0
    2.8847    9.2030    5.2464 N   0  0  0  0  0  0  0  0  0  0  0  0
    3.4821    9.8701    4.2391 C   0  0  0  0  0  0  0  0  0  0  0  0
    2.8305   10.2482    3.1185 N   0  0  0  0  0  0  0  0  0  0  0  0
    1.5268    9.9559    3.0262 C   0  0  0  0  0  0  0  0  0  0  0  0
    4.9589   10.1489    4.3348 C   0  0  0  0  0  0  0  0  0  0  0  0
    5.5138   11.5522    4.3876 C   0  0  0  0  0  0  0  0  0  0  0  0
    5.6520   10.7486    3.1270 C   0  0  0  0  0  0  0  0  0  0  0  0
   -1.8701    4.8631   -0.6857 C   0  0  0  0  0  0  0  0  0  0  0  0
   -2.4141    5.2404   -1.8531 F   0  0  0  0  0  0  0  0  0  0  0  0
    1.3321   -0.2507    1.5699 H   0  0  0  0  0  0  0  0  0  0  0  0
    0.2245   -2.2777    0.1030 H   0  0  0  0  0  0  0  0  0  0  0  0
   -0.6791   -1.5858    1.4824 H   0  0  0  0  0  0  0  0  0  0  0  0
   -2.3138   -1.0745   -0.0823 H   0  0  0  0  0  0  0  0  0  0  0  0
   -1.2107   -1.2532   -1.4564 H   0  0  0  0  0  0  0  0  0  0  0  0
   -0.5209    1.2714    1.4303 H   0  0  0  0  0  0  0  0  0  0  0  0
    0.6265    1.5971    0.0420 H   0  0  0  0  0  0  0  0  0  0  0  0
   -0.5886    3.4827   -2.7646 H   0  0  0  0  0  0  0  0  0  0  0  0
    0.8154    3.2381    0.4298 H   0  0  0  0  0  0  0  0  0  0  0  0
   -0.1016    3.8207    2.5882 H   0  0  0  0  0  0  0  0  0  0  0  0
   -5.5997    7.3175    1.8838 H   0  0  0  0  0  0  0  0  0  0  0  0
   -5.3337    8.6583    4.0116 H   0  0  0  0  0  0  0  0  0  0  0  0
   -1.1653   10.1179    5.6612 H   0  0  0  0  0  0  0  0  0  0  0  0
   -0.4160    7.8793    2.0547 H   0  0  0  0  0  0  0  0  0  0  0  0
    1.1306    8.3858    5.9363 H   0  0  0  0  0  0  0  0  0  0  0  0
    1.0525   10.2899    2.1064 H   0  0  0  0  0  0  0  0  0  0  0  0
    5.5085    9.4213    4.9245 H   0  0  0  0  0  0  0  0  0  0  0  0
    4.8223   12.3867    4.3992 H   0  0  0  0  0  0  0  0  0  0  0  0
    6.4093   11.7166    4.9766 H   0  0  0  0  0  0  0  0  0  0  0  0
    6.6174   10.3518    2.8458 H   0  0  0  0  0  0  0  0  0  0  0  0
    5.0373   11.0238    2.2737 H   0  0  0  0  0  0  0  0  0  0  0  0
  2  1  1  0  0  0  0
  2  3  1  0  0  0  0
  2  6  1  0  0  0  0
  2 39  1  1  0  0  0
  3  4  1  0  0  0  0
  3 40  1  0  0  0  0
  3 41  1  0  0  0  0
  4  5  1  0  0  0  0
  4 42  1  0  0  0  0
  4 43  1  0  0  0  0
  5  6  1  0  0  0  0
  5  7  1  0  0  0  0
  6 44  1  0  0  0  0
  6 45  1  0  0  0  0
  7  8  2  0  0  0  0
  7  9  2  0  0  0  0
  7 10  1  0  0  0  0
 10 11  1  0  0  0  0
 10 46  1  0  0  0  0
 11 12  2  0  0  0  0
 11 37  1  0  0  0  0
 12 13  1  0  0  0  0
 12 47  1  0  0  0  0
 13 14  2  0  0  0  0
 13 48  1  0  0  0  0
 14 15  1  0  0  0  0
 14 16  1  0  0  0  0
 16 17  1  0  0  0  0
 16 37  2  0  0  0  0
 17 18  2  0  0  0  0
 17 19  1  0  0  0  0
 19 20  2  0  0  0  0
 19 27  1  0  0  0  0
 20 21  1  0  0  0  0
 20 49  1  0  0  0  0
 21 22  1  0  0  0  0
 21 50  1  0  0  0  0
 22 23  2  0  0  0  0
 22 27  1  0  0  0  0
 23 24  1  0  0  0  0
 24 25  2  0  0  0  0
 24 51  1  0  0  0  0
 25 26  1  0  0  0  0
 25 28  1  0  0  0  0
 26 27  2  0  0  0  0
 26 52  1  0  0  0  0
 28 29  2  0  0  0  0
 28 33  1  0  0  0  0
 29 30  1  0  0  0  0
 29 53  1  0  0  0  0
 30 31  2  0  0  0  0
 31 32  1  0  0  0  0
 31 34  1  0  0  0  0
 32 33  2  0  0  0  0
 33 54  1  0  0  0  0
 34 35  1  0  0  0  0
 34 36  1  0  0  0  0
 34 55  1  0  0  0  0
 35 36  1  0  0  0  0
 35 56  1  0  0  0  0
 35 57  1  0  0  0  0
 36 58  1  0  0  0  0
 36 59  1  0  0  0  0
 37 38  1  0  0  0  0
M  END
>  <DRUGBANK_ID>
DB16038

>  <COMMON_NAME>
PLX8394

>  <CAS_NUMBER>
1393466-87-9

>  <UNII>
J2L7Z273SG

$$$$
