
 OpenBabel10282417133D

 26 26  0  0  1  0  0  0  0  0999 V2000
   -1.0306    0.1684    2.3085 C   0  0  0  0  0  0  0  0  0  0  0  0
    0.3662   -0.2653    2.7362 C   0  0  0  0  0  0  0  0  0  0  0  0
    0.9327   -1.3894    1.8492 C   0  0  2  0  0  0  0  0  0  0  0  0
    0.5553   -1.1751    0.4350 N   0  0  0  0  0  0  0  0  0  0  0  0
    0.4915   -2.7754    2.3789 C   0  0  0  0  0  0  0  0  0  0  0  0
    0.9846   -3.9588    1.5743 C   0  0  0  0  0  0  0  0  0  0  0  0
    2.0195   -3.8584    0.6343 C   0  0  0  0  0  0  0  0  0  0  0  0
    2.3795   -4.9356   -0.1641 C   0  0  0  0  0  0  0  0  0  0  0  0
    1.7752   -6.1706    0.0503 C   0  0  0  0  0  0  0  0  0  0  0  0
    0.8076   -6.3121    1.0397 C   0  0  0  0  0  0  0  0  0  0  0  0
    0.3831   -5.2084    1.7791 C   0  0  0  0  0  0  0  0  0  0  0  0
   -0.9904    0.6651    1.3319 H   0  0  0  0  0  0  0  0  0  0  0  0
   -1.4625    0.8802    3.0117 H   0  0  0  0  0  0  0  0  0  0  0  0
   -1.6970   -0.6967    2.2274 H   0  0  0  0  0  0  0  0  0  0  0  0
    1.0376    0.6014    2.6999 H   0  0  0  0  0  0  0  0  0  0  0  0
    0.3377   -0.5931    3.7835 H   0  0  0  0  0  0  0  0  0  0  0  0
    2.0272   -1.3380    1.9247 H   0  0  0  0  0  0  0  0  0  0  0  0
   -0.4579   -1.0899    0.3638 H   0  0  0  0  0  0  0  0  0  0  0  0
    0.7255   -2.0246   -0.1043 H   0  0  0  0  0  0  0  0  0  0  0  0
    0.8538   -2.9009    3.4090 H   0  0  0  0  0  0  0  0  0  0  0  0
   -0.6053   -2.8089    2.4222 H   0  0  0  0  0  0  0  0  0  0  0  0
    2.5446   -2.9187    0.4611 H   0  0  0  0  0  0  0  0  0  0  0  0
    3.1264   -4.8032   -0.9379 H   0  0  0  0  0  0  0  0  0  0  0  0
    2.0719   -7.0200   -0.5563 H   0  0  0  0  0  0  0  0  0  0  0  0
    0.3707   -7.2891    1.2353 H   0  0  0  0  0  0  0  0  0  0  0  0
   -0.4146   -5.3222    2.5069 H   0  0  0  0  0  0  0  0  0  0  0  0
  1  2  1  0  0  0  0
  1 12  1  0  0  0  0
  1 13  1  0  0  0  0
  1 14  1  0  0  0  0
  2 15  1  0  0  0  0
  2 16  1  0  0  0  0
  3  5  1  0  0  0  0
  3 17  1  1  0  0  0
  3  4  1  0  0  0  0
  3  2  1  0  0  0  0
  4 18  1  0  0  0  0
  4 19  1  0  0  0  0
  5  6  1  0  0  0  0
  5 20  1  0  0  0  0
  5 21  1  0  0  0  0
  6  7  2  0  0  0  0
  6 11  1  0  0  0  0
  7  8  1  0  0  0  0
  7 22  1  0  0  0  0
  8  9  2  0  0  0  0
  8 23  1  0  0  0  0
  9 10  1  0  0  0  0
  9 24  1  0  0  0  0
 10 11  2  0  0  0  0
 10 25  1  0  0  0  0
 11 26  1  0  0  0  0
M  END
>  <DRUGBANK_ID>
DB02972

>  <SECONDARY_ACCESSION_NUMBERS>
EXPT02626

>  <COMMON_NAME>
1-Benzyl-(R)-Propylamine

>  <UNII>
6TJ3786QZV

$$$$
