
 OpenBabel10282417163D

 53 55  0  0  0  0  0  0  0  0999 V2000
    3.1224   -0.0016   -0.0108 Cl  0  0  0  0  0  0  0  0  0  0  0  0
   -3.1110    0.0448    0.0025 Cl  0  0  0  0  0  0  0  0  0  0  0  0
    3.6996   -5.6312    6.5017 O   0  0  0  0  0  0  0  0  0  0  0  0
    3.8451   -1.9018    7.1514 O   0  0  0  0  0  0  0  0  0  0  0  0
    1.4891   -1.9959    5.4952 N   0  0  0  0  0  0  0  0  0  0  0  0
    0.6590   -6.7210    2.0115 N   0  0  0  0  0  0  0  0  0  0  0  0
    1.3788   -2.4969   -0.0824 N   0  0  0  0  0  0  0  0  0  0  0  0
    1.0154   -4.5857    1.0037 N   0  0  0  0  0  0  0  0  0  0  0  0
   -0.5729   -6.1279    0.1366 N   0  0  0  0  0  0  0  0  0  0  0  0
    3.7580   -3.0627    6.3013 C   0  0  2  0  0  0  0  0  0  0  0  0
    2.7107   -2.7743    5.1881 C   0  0  0  0  0  0  0  0  0  0  0  0
    3.5129   -4.3510    7.1491 C   0  0  0  0  0  0  0  0  0  0  0  0
    0.4776   -2.1463    4.4477 C   0  0  0  0  0  0  0  0  0  0  0  0
    0.8699   -2.2141    6.7987 C   0  0  0  0  0  0  0  0  0  0  0  0
    2.7729   -6.0847    5.6019 C   0  0  0  0  0  0  0  0  0  0  0  0
    1.5092   -5.5467    5.4294 C   0  0  0  0  0  0  0  0  0  0  0  0
    3.1804   -7.0721    4.7093 C   0  0  0  0  0  0  0  0  0  0  0  0
    1.3331   -6.5326    3.2219 C   0  0  0  0  0  0  0  0  0  0  0  0
    0.8514   -5.6774    4.1986 C   0  0  0  0  0  0  0  0  0  0  0  0
    2.4416   -7.3146    3.5393 C   0  0  0  0  0  0  0  0  0  0  0  0
    0.3472   -5.7612    1.0521 C   0  0  0  0  0  0  0  0  0  0  0  0
    0.7622   -3.7658   -0.0227 C   0  0  0  0  0  0  0  0  0  0  0  0
    0.6914   -1.2510    0.0265 C   0  0  0  0  0  0  0  0  0  0  0  0
   -0.1216   -4.1019   -1.0316 C   0  0  0  0  0  0  0  0  0  0  0  0
    1.3940   -0.0309    0.0155 C   0  0  0  0  0  0  0  0  0  0  0  0
   -0.7155   -1.1875    0.0364 C   0  0  0  0  0  0  0  0  0  0  0  0
   -0.7723   -5.2992   -0.8943 C   0  0  0  0  0  0  0  0  0  0  0  0
   -1.3904    0.0323    0.0292 C   0  0  0  0  0  0  0  0  0  0  0  0
    0.7132    1.1948    0.0238 C   0  0  0  0  0  0  0  0  0  0  0  0
   -0.6826    1.2258    0.0262 C   0  0  0  0  0  0  0  0  0  0  0  0
   -0.0499   -7.4433    2.0214 H   0  0  0  0  0  0  0  0  0  0  0  0
    2.2387   -2.4884    0.4659 H   0  0  0  0  0  0  0  0  0  0  0  0
    4.5641   -2.0231    7.7890 H   0  0  0  0  0  0  0  0  0  0  0  0
    4.7358   -3.1520    5.8131 H   0  0  0  0  0  0  0  0  0  0  0  0
    3.2297   -2.2650    4.3642 H   0  0  0  0  0  0  0  0  0  0  0  0
    2.4633   -3.7015    4.7014 H   0  0  0  0  0  0  0  0  0  0  0  0
    2.5716   -4.3264    7.7061 H   0  0  0  0  0  0  0  0  0  0  0  0
    4.2779   -4.3324    7.9397 H   0  0  0  0  0  0  0  0  0  0  0  0
   -0.0836   -3.0757    4.5646 H   0  0  0  0  0  0  0  0  0  0  0  0
   -0.2560   -1.3368    4.5057 H   0  0  0  0  0  0  0  0  0  0  0  0
    0.9113   -2.1302    3.4425 H   0  0  0  0  0  0  0  0  0  0  0  0
    0.3641   -3.1790    6.8858 H   0  0  0  0  0  0  0  0  0  0  0  0
    1.5661   -2.1312    7.6343 H   0  0  0  0  0  0  0  0  0  0  0  0
    0.1054   -1.4500    6.9737 H   0  0  0  0  0  0  0  0  0  0  0  0
    1.1073   -4.8563    6.1511 H   0  0  0  0  0  0  0  0  0  0  0  0
    4.0992   -7.6228    4.8840 H   0  0  0  0  0  0  0  0  0  0  0  0
    0.0096   -5.0327    3.9684 H   0  0  0  0  0  0  0  0  0  0  0  0
    2.7916   -8.0515    2.8222 H   0  0  0  0  0  0  0  0  0  0  0  0
   -0.2843   -3.4496   -1.8745 H   0  0  0  0  0  0  0  0  0  0  0  0
   -1.3154   -2.0910    0.0617 H   0  0  0  0  0  0  0  0  0  0  0  0
   -1.4835   -5.6252   -1.6481 H   0  0  0  0  0  0  0  0  0  0  0  0
    1.2652    2.1314    0.0185 H   0  0  0  0  0  0  0  0  0  0  0  0
   -1.2092    2.1764    0.0241 H   0  0  0  0  0  0  0  0  0  0  0  0
  1 25  1  0  0  0  0
  2 28  1  0  0  0  0
  3 12  1  0  0  0  0
  3 15  1  0  0  0  0
  4 33  1  0  0  0  0
  5 11  1  0  0  0  0
  5 13  1  0  0  0  0
  5 14  1  0  0  0  0
  6 18  1  0  0  0  0
  6 21  1  0  0  0  0
  6 31  1  0  0  0  0
  7 22  1  0  0  0  0
  7 23  1  0  0  0  0
  7 32  1  0  0  0  0
  8 21  1  0  0  0  0
  8 22  2  0  0  0  0
  9 21  2  0  0  0  0
  9 27  1  0  0  0  0
 10 12  1  0  0  0  0
 10 34  1  6  0  0  0
 10 11  1  0  0  0  0
 10  4  1  0  0  0  0
 11 35  1  0  0  0  0
 11 36  1  0  0  0  0
 12 37  1  0  0  0  0
 12 38  1  0  0  0  0
 13 39  1  0  0  0  0
 13 40  1  0  0  0  0
 13 41  1  0  0  0  0
 14 42  1  0  0  0  0
 14 43  1  0  0  0  0
 14 44  1  0  0  0  0
 15 16  2  0  0  0  0
 15 17  1  0  0  0  0
 16 19  1  0  0  0  0
 16 45  1  0  0  0  0
 17 20  2  0  0  0  0
 17 46  1  0  0  0  0
 18 19  2  0  0  0  0
 18 20  1  0  0  0  0
 19 47  1  0  0  0  0
 20 48  1  0  0  0  0
 22 24  1  0  0  0  0
 23 25  2  0  0  0  0
 23 26  1  0  0  0  0
 24 27  2  0  0  0  0
 24 49  1  0  0  0  0
 25 29  1  0  0  0  0
 26 28  2  0  0  0  0
 26 50  1  0  0  0  0
 27 51  1  0  0  0  0
 28 30  1  0  0  0  0
 29 30  2  0  0  0  0
 29 52  1  0  0  0  0
 30 53  1  0  0  0  0
M  END
>  <DRUGBANK_ID>
DB07750

>  <COMMON_NAME>
(2R)-1-[4-({4-[(2,5-Dichlorophenyl)amino]-2-pyrimidinyl}amino)phenoxy]-3-(dimethylamino)-2-propanol

$$$$
