
 OpenBabel10282417213D

 42 43  0  0  0  0  0  0  0  0999 V2000
    1.0450   -0.0158    0.0516 C   0  0  0  0  0  0  0  0  0  0  0  0
    0.4619   -0.1829    1.3304 O   0  0  0  0  0  0  0  0  0  0  0  0
    0.9142   -1.2458    2.0560 C   0  0  0  0  0  0  0  0  0  0  0  0
    2.2357   -1.7169    2.0665 C   0  0  0  0  0  0  0  0  0  0  0  0
    2.6345   -2.6924    2.9797 C   0  0  0  0  0  0  0  0  0  0  0  0
    1.7119   -3.1719    3.8953 C   0  0  0  0  0  0  0  0  0  0  0  0
    0.3951   -2.6771    3.8779 C   0  0  0  0  0  0  0  0  0  0  0  0
   -0.4485   -3.0091    5.0221 C   0  0  0  0  0  0  0  0  0  0  0  0
   -1.6553   -2.6390    5.2558 N   0  0  0  0  0  0  0  0  0  0  0  0
   -2.3147   -2.9401    6.4593 N   0  0  0  0  0  0  0  0  0  0  0  0
   -1.9253   -3.7980    7.5280 C   0  0  0  0  0  0  0  0  0  0  0  0
   -2.7187   -4.1213    8.4362 O   0  0  0  0  0  0  0  0  0  0  0  0
   -0.5261   -4.3886    7.6074 C   0  0  0  0  0  0  0  0  0  0  0  0
   -0.2624   -5.2555    6.5816 F   0  0  0  0  0  0  0  0  0  0  0  0
    0.4598   -3.4388    7.6173 F   0  0  0  0  0  0  0  0  0  0  0  0
   -0.2991   -5.1214    8.7357 F   0  0  0  0  0  0  0  0  0  0  0  0
   -3.6413   -2.3495    6.5172 C   0  0  0  0  0  0  0  0  0  0  0  0
   -4.4758   -2.3771    5.3851 C   0  0  0  0  0  0  0  0  0  0  0  0
   -5.8196   -1.9711    5.4603 C   0  0  0  0  0  0  0  0  0  0  0  0
   -6.3600   -1.5160    6.6655 C   0  0  0  0  0  0  0  0  0  0  0  0
   -7.7655   -0.9929    6.7522 C   0  0  0  0  0  0  0  0  0  0  0  0
   -5.5349   -1.4711    7.7921 C   0  0  0  0  0  0  0  0  0  0  0  0
   -4.1663   -1.7994    7.7086 C   0  0  0  0  0  0  0  0  0  0  0  0
   -3.3007   -1.4118    8.8811 C   0  0  0  0  0  0  0  0  0  0  0  0
   -0.0263   -1.7604    2.9383 C   0  0  0  0  0  0  0  0  0  0  0  0
    0.6665    0.9267   -0.3515 H   0  0  0  0  0  0  0  0  0  0  0  0
    0.7269   -0.8301   -0.6048 H   0  0  0  0  0  0  0  0  0  0  0  0
    2.1340    0.0625    0.0856 H   0  0  0  0  0  0  0  0  0  0  0  0
    2.9944   -1.3075    1.4100 H   0  0  0  0  0  0  0  0  0  0  0  0
    3.6679   -3.0297    3.0176 H   0  0  0  0  0  0  0  0  0  0  0  0
    2.0403   -3.8891    4.6475 H   0  0  0  0  0  0  0  0  0  0  0  0
    0.1568   -3.5817    5.6961 H   0  0  0  0  0  0  0  0  0  0  0  0
   -4.1019   -2.7544    4.4365 H   0  0  0  0  0  0  0  0  0  0  0  0
   -6.4446   -2.0293    4.5714 H   0  0  0  0  0  0  0  0  0  0  0  0
   -8.3558   -1.5617    7.4774 H   0  0  0  0  0  0  0  0  0  0  0  0
   -7.7441    0.0592    7.0606 H   0  0  0  0  0  0  0  0  0  0  0  0
   -8.2752   -1.0374    5.7844 H   0  0  0  0  0  0  0  0  0  0  0  0
   -5.9478   -1.1400    8.7444 H   0  0  0  0  0  0  0  0  0  0  0  0
   -3.4187   -0.3419    9.0846 H   0  0  0  0  0  0  0  0  0  0  0  0
   -3.5728   -1.9831    9.7725 H   0  0  0  0  0  0  0  0  0  0  0  0
   -2.2350   -1.5512    8.6808 H   0  0  0  0  0  0  0  0  0  0  0  0
   -1.0499   -1.3998    2.9378 H   0  0  0  0  0  0  0  0  0  0  0  0
  1  2  1  0  0  0  0
  1 26  1  0  0  0  0
  1 27  1  0  0  0  0
  1 28  1  0  0  0  0
  2  3  1  0  0  0  0
  3  4  1  0  0  0  0
  3 25  2  0  0  0  0
  4  5  2  0  0  0  0
  4 29  1  0  0  0  0
  5  6  1  0  0  0  0
  5 30  1  0  0  0  0
  6  7  2  0  0  0  0
  6 31  1  0  0  0  0
  7  8  1  0  0  0  0
  7 25  1  0  0  0  0
  8  9  2  0  0  0  0
  8 32  1  0  0  0  0
  9 10  1  0  0  0  0
 10 11  1  0  0  0  0
 10 17  1  0  0  0  0
 11 12  2  0  0  0  0
 11 13  1  0  0  0  0
 13 14  1  0  0  0  0
 13 15  1  0  0  0  0
 13 16  1  0  0  0  0
 17 18  1  0  0  0  0
 17 23  2  0  0  0  0
 18 19  2  0  0  0  0
 18 33  1  0  0  0  0
 19 20  1  0  0  0  0
 19 34  1  0  0  0  0
 20 21  1  0  0  0  0
 20 22  2  0  0  0  0
 21 35  1  0  0  0  0
 21 36  1  0  0  0  0
 21 37  1  0  0  0  0
 22 23  1  0  0  0  0
 22 38  1  0  0  0  0
 23 24  1  0  0  0  0
 24 39  1  0  0  0  0
 24 40  1  0  0  0  0
 24 41  1  0  0  0  0
 25 42  1  0  0  0  0
M  END
>  <DRUGBANK_ID>
DB13957

>  <COMMON_NAME>
J147

>  <CAS_NUMBER>
1146963-51-0

>  <UNII>
Z41H3C5BT9

>  <SYNONYMS>
N-(2,4-Dimethylphenyl)-2,2,2-trifluoro-N'-[(E)-(3-methoxyphenyl)methylene]acetohydrazide

$$$$
