
 OpenBabel10282417123D

 20 19  0  0  0  0  0  0  0  0999 V2000
    1.1264   -0.0945    0.0947 C   0  0  0  0  0  0  0  0  0  0  0  0
    0.5001    0.6313   -1.0253 N   0  0  0  0  0  0  0  0  0  0  0  0
   -0.9602    0.3856   -1.2474 C   0  0  0  0  0  0  0  0  0  0  0  0
   -1.6517    1.2298   -0.1899 C   0  0  0  0  0  0  0  0  0  0  0  0
   -2.2382    2.3517   -0.6661 O   0  0  0  0  0  0  0  0  0  0  0  0
   -1.4583    1.0916    1.0116 O   0  0  0  0  0  0  0  0  0  0  0  0
    1.0779    1.8562   -1.5474 C   0  0  0  0  0  0  0  0  0  0  0  0
    0.5698    2.9928   -0.8596 N   0  0  0  0  0  0  0  0  0  0  0  0
    2.4931    1.9470   -1.4267 N   0  0  0  0  0  0  0  0  0  0  0  0
    0.6658   -1.0791    0.2151 H   0  0  0  0  0  0  0  0  0  0  0  0
    0.9822    0.4963    1.0023 H   0  0  0  0  0  0  0  0  0  0  0  0
    2.1943   -0.2382   -0.0750 H   0  0  0  0  0  0  0  0  0  0  0  0
   -1.2430    0.6878   -2.2604 H   0  0  0  0  0  0  0  0  0  0  0  0
   -1.2087   -0.6707   -1.1064 H   0  0  0  0  0  0  0  0  0  0  0  0
   -2.4592    2.3767   -1.6190 H   0  0  0  0  0  0  0  0  0  0  0  0
    0.8199    1.9332   -2.6098 H   0  0  0  0  0  0  0  0  0  0  0  0
    1.1518    3.7978   -0.6604 H   0  0  0  0  0  0  0  0  0  0  0  0
   -0.2975    3.0107   -0.3239 H   0  0  0  0  0  0  0  0  0  0  0  0
    3.0311    2.5872   -2.0031 H   0  0  0  0  0  0  0  0  0  0  0  0
    3.0547    1.3789   -0.8041 H   0  0  0  0  0  0  0  0  0  0  0  0
  1  2  1  0  0  0  0
  1 10  1  0  0  0  0
  1 11  1  0  0  0  0
  1 12  1  0  0  0  0
  2  3  1  0  0  0  0
  2  7  1  0  0  0  0
  3  4  1  0  0  0  0
  3 13  1  0  0  0  0
  3 14  1  0  0  0  0
  4  5  1  0  0  0  0
  4  6  2  0  0  0  0
  5 15  1  0  0  0  0
  7  8  1  0  0  0  0
  7  9  1  0  0  0  0
  7 16  1  0  0  0  0
  8 17  1  0  0  0  0
  8 18  1  0  0  0  0
  9 19  1  0  0  0  0
  9 20  1  0  0  0  0
M  END
>  <DRUGBANK_ID>
DB02490

>  <SECONDARY_ACCESSION_NUMBERS>
EXPT01907

>  <COMMON_NAME>
(Diaminomethyl-Methyl-Amino)-Acetic Acid

$$$$
