
 OpenBabel10282417123D

 33 34  0  0  1  0  0  0  0  0999 V2000
   -0.0732   -1.2292    0.5175 C   0  0  0  0  0  0  0  0  0  0  0  0
    2.1072   -3.0640   -0.2829 C   0  0  0  0  0  0  0  0  0  0  0  0
    0.6048    1.6408    1.8087 C   0  0  0  0  0  0  0  0  0  0  0  0
    3.0572   -3.9835   -0.0976 C   0  0  0  0  0  0  0  0  0  0  0  0
   -0.8788    0.0339    0.5292 C   0  0  1  0  0  0  0  0  0  0  0  0
    0.1899    1.1088    0.4337 C   0  0  2  0  0  0  0  0  0  0  0  0
    1.1232   -0.8693   -0.3567 C   0  0  2  0  0  0  0  0  0  0  0  0
    4.3357   -3.5232    0.4904 C   0  0  0  0  0  0  0  0  0  0  0  0
    3.4722   -1.2262    0.4952 C   0  0  0  0  0  0  0  0  0  0  0  0
    2.7646   -5.9334   -0.6132 I   0  0  0  0  0  0  0  0  0  0  0  0
    4.3829   -2.2015    0.8443 N   0  0  0  0  0  0  0  0  0  0  0  0
    2.2808   -1.7101   -0.0371 N   0  0  0  0  0  0  0  0  0  0  0  0
   -1.7398    0.0613   -0.6088 O   0  0  0  0  0  0  0  0  0  0  0  0
    5.3020   -4.2665    0.6595 O   0  0  0  0  0  0  0  0  0  0  0  0
    3.7608   -0.0477    0.6805 O   0  0  0  0  0  0  0  0  0  0  0  0
   -0.9475    4.4456    0.6304 O   0  0  0  0  0  0  0  0  0  0  0  0
    0.9222    4.9869    2.1267 O   0  0  0  0  0  0  0  0  0  0  0  0
    1.1710    5.0355   -0.2181 O   0  0  0  0  0  0  0  0  0  0  0  0
    0.0099    2.9214    2.0023 O   0  0  0  0  0  0  0  0  0  0  0  0
    1.3415    0.5300   -0.2012 O   0  0  0  0  0  0  0  0  0  0  0  0
    0.6226    4.0370    0.8306 P   0  0  0  0  0  0  0  0  0  0  0  0
   -1.5123    0.1261    1.4155 H   0  0  0  0  0  0  0  0  0  0  0  0
   -0.1635    1.9050   -0.2274 H   0  0  0  0  0  0  0  0  0  0  0  0
    0.8930   -1.0237   -1.4195 H   0  0  0  0  0  0  0  0  0  0  0  0
    0.2678   -1.4701    1.5315 H   0  0  0  0  0  0  0  0  0  0  0  0
   -0.6230   -2.0854    0.1179 H   0  0  0  0  0  0  0  0  0  0  0  0
    1.1322   -3.3577   -0.6632 H   0  0  0  0  0  0  0  0  0  0  0  0
    0.2695    0.9907    2.6225 H   0  0  0  0  0  0  0  0  0  0  0  0
    1.6919    1.7459    1.9025 H   0  0  0  0  0  0  0  0  0  0  0  0
    5.2494   -1.8785    1.2488 H   0  0  0  0  0  0  0  0  0  0  0  0
   -1.2132    0.0677   -1.4266 H   0  0  0  0  0  0  0  0  0  0  0  0
   -1.3004    4.0925   -0.2018 H   0  0  0  0  0  0  0  0  0  0  0  0
    1.1691    4.4451    2.8943 H   0  0  0  0  0  0  0  0  0  0  0  0
  1 25  1  0  0  0  0
  1 26  1  0  0  0  0
  2 27  1  0  0  0  0
  3 28  1  0  0  0  0
  3 29  1  0  0  0  0
  4  2  2  0  0  0  0
  5  1  1  0  0  0  0
  5 13  1  0  0  0  0
  5 22  1  1  0  0  0
  6  5  1  0  0  0  0
  6 23  1  6  0  0  0
  6  3  1  0  0  0  0
  7  1  1  0  0  0  0
  7 24  1  6  0  0  0
  7 12  1  0  0  0  0
  8  4  1  0  0  0  0
 10  4  1  0  0  0  0
 11  8  1  0  0  0  0
 11  9  1  0  0  0  0
 11 30  1  0  0  0  0
 12  2  1  0  0  0  0
 12  9  1  0  0  0  0
 13 31  1  0  0  0  0
 14  8  2  0  0  0  0
 15  9  2  0  0  0  0
 16 32  1  0  0  0  0
 17 33  1  0  0  0  0
 19  3  1  0  0  0  0
 20  6  1  0  0  0  0
 20  7  1  0  0  0  0
 21 16  1  0  0  0  0
 21 17  1  0  0  0  0
 21 18  2  0  0  0  0
 21 19  1  0  0  0  0
M  END
>  <DRUGBANK_ID>
DB02324

>  <SECONDARY_ACCESSION_NUMBERS>
EXPT00249

>  <COMMON_NAME>
5-Iodo-2'-Deoxyuridine-5'-Monophosphate

$$$$
