
 OpenBabel10282417123D

 12 11  0  0  0  0  0  0  0  0999 V2000
    1.0070   -0.1035   -0.0616 C   0  0  0  0  0  0  0  0  0  0  0  0
    0.5310   -1.4712   -0.0553 N   0  0  0  0  0  0  0  0  0  0  0  0
   -0.3024   -1.9388    1.0335 C   0  0  0  0  0  0  0  0  0  0  0  0
    0.8853   -2.3053   -1.0959 C   0  0  0  0  0  0  0  0  0  0  0  0
    1.5840   -1.9902   -2.0518 O   0  0  0  0  0  0  0  0  0  0  0  0
    0.6532    0.4418    0.8165 H   0  0  0  0  0  0  0  0  0  0  0  0
    0.6483    0.3925   -0.9685 H   0  0  0  0  0  0  0  0  0  0  0  0
    2.1010   -0.1089   -0.0720 H   0  0  0  0  0  0  0  0  0  0  0  0
   -1.2598   -2.2804    0.6292 H   0  0  0  0  0  0  0  0  0  0  0  0
    0.1922   -2.7816    1.5253 H   0  0  0  0  0  0  0  0  0  0  0  0
   -0.4783   -1.1440    1.7630 H   0  0  0  0  0  0  0  0  0  0  0  0
    0.4707   -3.3218   -0.9927 H   0  0  0  0  0  0  0  0  0  0  0  0
  1  2  1  0  0  0  0
  1  6  1  0  0  0  0
  1  7  1  0  0  0  0
  1  8  1  0  0  0  0
  2  3  1  0  0  0  0
  2  4  1  0  0  0  0
  3  9  1  0  0  0  0
  3 10  1  0  0  0  0
  3 11  1  0  0  0  0
  4  5  2  0  0  0  0
  4 12  1  0  0  0  0
M  END
>  <DRUGBANK_ID>
DB01844

>  <SECONDARY_ACCESSION_NUMBERS>
EXPT01224

>  <COMMON_NAME>
N,N-dimethylformamide

>  <CAS_NUMBER>
68-12-2

>  <UNII>
8696NH0Y2X

>  <SYNONYMS>
Dimethylformamide; N-Formyldimethylamine; N,N-Dimethylmethanamide

$$$$
