DP4
 OpenBabel10282417163D

 40 41  0  0  0  0  0  0  0  0999 V2000
    1.8828    0.2287   -0.0681 C   0  0  0  0  0  0  0  0  0  0  0  0
    1.1344   -0.9146    0.1043 C   0  0  0  0  0  0  0  0  0  0  0  0
   -0.1877   -0.6738    0.3792 C   0  0  0  0  0  0  0  0  0  0  0  0
   -0.9951    0.4942    0.1457 C   0  0  0  0  0  0  0  0  0  0  0  0
   -0.2017    1.6230   -0.0068 C   0  0  0  0  0  0  0  0  0  0  0  0
    1.2031    1.4567   -0.0735 C   0  0  0  0  0  0  0  0  0  0  0  0
   -3.9100    1.6138    1.4200 C   0  0  0  0  0  0  0  0  0  0  0  0
   -3.4897    1.6628   -1.7479 C   0  0  0  0  0  0  0  0  0  0  0  0
   -3.1689    0.7559   -0.0054 Si  0  0  0  0  0  0  0  0  0  0  0  0
   -4.2613   -1.1076   -0.5178 C   0  0  2  0  0  0  0  0  0  0  0  0
   -4.7311   -2.3950    0.2685 C   0  0  0  0  0  0  0  0  0  0  0  0
   -3.8598   -2.9643    1.3800 C   0  0  0  0  0  0  0  0  0  0  0  0
   -2.2113   -2.0746   -0.0701 C   0  0  0  0  0  0  0  0  0  0  0  0
   -3.0739   -1.6780   -1.2430 C   0  0  0  0  0  0  0  0  0  0  0  0
   -2.4454   -3.1379    0.9322 N   0  3  1  0  0  0  0  0  0  0  0  0
   -1.6788   -2.9609    2.0966 O   0  5  0  0  0  0  0  0  0  0  0  0
   -1.9103   -4.3450    0.2688 C   0  0  0  0  0  0  0  0  0  0  0  0
   -5.0854   -0.7182   -1.1282 H   0  0  0  0  0  0  0  0  0  0  0  0
    2.9481    0.1084   -0.0892 H   0  0  0  0  0  0  0  0  0  0  0  0
    1.5447   -1.9158    0.1696 H   0  0  0  0  0  0  0  0  0  0  0  0
   -0.4834   -1.5802    0.9079 H   0  0  0  0  0  0  0  0  0  0  0  0
   -0.6555    2.6005    0.0076 H   0  0  0  0  0  0  0  0  0  0  0  0
    1.8237    2.3502   -0.1297 H   0  0  0  0  0  0  0  0  0  0  0  0
   -3.4339    2.5883    1.5531 H   0  0  0  0  0  0  0  0  0  0  0  0
   -4.9845    1.7770    1.2896 H   0  0  0  0  0  0  0  0  0  0  0  0
   -3.7584    1.0189    2.3215 H   0  0  0  0  0  0  0  0  0  0  0  0
   -3.1167    1.0472   -2.5747 H   0  0  0  0  0  0  0  0  0  0  0  0
   -4.5674    1.7996   -1.9016 H   0  0  0  0  0  0  0  0  0  0  0  0
   -2.9861    2.6289   -1.7644 H   0  0  0  0  0  0  0  0  0  0  0  0
   -5.7784   -2.3584    0.5662 H   0  0  0  0  0  0  0  0  0  0  0  0
   -4.7085   -3.2078   -0.4853 H   0  0  0  0  0  0  0  0  0  0  0  0
   -3.8537   -2.2308    2.2039 H   0  0  0  0  0  0  0  0  0  0  0  0
   -4.1659   -3.9323    1.7833 H   0  0  0  0  0  0  0  0  0  0  0  0
   -1.2838   -2.3177   -0.5706 H   0  0  0  0  0  0  0  0  0  0  0  0
   -2.2587   -1.3091    0.7069 H   0  0  0  0  0  0  0  0  0  0  0  0
   -3.2683   -2.5058   -1.9139 H   0  0  0  0  0  0  0  0  0  0  0  0
   -2.5472   -0.9305   -1.8504 H   0  0  0  0  0  0  0  0  0  0  0  0
   -2.0951   -4.2575   -0.8052 H   0  0  0  0  0  0  0  0  0  0  0  0
   -0.8145   -4.2823    0.4179 H   0  0  0  0  0  0  0  0  0  0  0  0
   -2.3278   -5.2268    0.7220 H   0  0  0  0  0  0  0  0  0  0  0  0
  1  2  2  0  0  0  0
  1  6  1  0  0  0  0
  1 19  1  0  0  0  0
  2  3  1  0  0  0  0
  2 20  1  0  0  0  0
  3  4  2  0  0  0  0
  3 21  1  0  0  0  0
  4  5  1  0  0  0  0
  4  9  1  0  0  0  0
  5  6  2  0  0  0  0
  5 22  1  0  0  0  0
  6 23  1  0  0  0  0
  7  9  1  0  0  0  0
  7 24  1  0  0  0  0
  7 25  1  0  0  0  0
  7 26  1  0  0  0  0
  8  9  1  0  0  0  0
  8 27  1  0  0  0  0
  8 28  1  0  0  0  0
  8 29  1  0  0  0  0
 10  9  1  0  0  0  0
 10 11  1  0  0  0  0
 10 14  1  0  0  0  0
 10 18  1  6  0  0  0
 11 12  1  0  0  0  0
 11 30  1  0  0  0  0
 11 31  1  0  0  0  0
 12 15  1  0  0  0  0
 12 32  1  0  0  0  0
 12 33  1  0  0  0  0
 13 14  1  0  0  0  0
 13 15  1  0  0  0  0
 13 34  1  0  0  0  0
 13 35  1  0  0  0  0
 14 36  1  0  0  0  0
 14 37  1  0  0  0  0
 15 17  1  0  0  0  0
 15 16  1  1  0  0  0
 17 38  1  0  0  0  0
 17 39  1  0  0  0  0
 17 40  1  0  0  0  0
M  CHG  2  15   1  16  -1
M  END
>  <DRUGBANK_ID>
DB07672

>  <COMMON_NAME>
TRANS-2-(DIMETHYLPHENYLSILYL)-PIPERIDINE-N-OXIDE

$$$$
