
 OpenBabel10282417233D

 55 58  0  0  1  0  0  0  0  0999 V2000
  -10.8379   13.8503   -0.1819 C   0  0  0  0  0  0  0  0  0  0  0  0
   -9.8472   13.6644    0.9947 C   0  0  2  0  0  0  0  0  0  0  0  0
   -8.7228   14.4581    0.6013 O   0  0  0  0  0  0  0  0  0  0  0  0
   -9.4804   12.2062    1.2292 C   0  0  0  0  0  0  0  0  0  0  0  0
  -10.1401   11.2062    0.6545 N   0  0  0  0  0  0  0  0  0  0  0  0
   -9.4730   10.0530    0.9836 C   0  0  0  0  0  0  0  0  0  0  0  0
   -9.9837    8.6905    0.4414 C   0  0  0  0  0  0  0  0  0  0  0  0
   -8.9664    7.8937   -0.2885 N   0  0  0  0  0  0  0  0  0  0  0  0
   -7.8737    7.4098    0.3883 N   0  0  0  0  0  0  0  0  0  0  0  0
   -7.1689    6.7912   -0.5064 C   0  0  0  0  0  0  0  0  0  0  0  0
   -7.7235    6.7273   -1.7474 N   0  0  0  0  0  0  0  0  0  0  0  0
   -7.1520    6.0411   -2.9378 C   0  0  0  0  0  0  0  0  0  0  0  0
   -7.9825    4.8778   -3.4958 C   0  0  2  0  0  0  0  0  0  0  0  0
   -7.1357    3.6996   -3.6435 O   0  0  0  0  0  0  0  0  0  0  0  0
   -8.5753    5.2576   -4.8488 C   0  0  0  0  0  0  0  0  0  0  0  0
   -9.3434    4.2387   -5.3040 F   0  0  0  0  0  0  0  0  0  0  0  0
   -9.3251    6.3665   -4.8099 F   0  0  0  0  0  0  0  0  0  0  0  0
   -7.5942    5.4502   -5.7627 F   0  0  0  0  0  0  0  0  0  0  0  0
   -8.9267    7.4176   -1.6216 C   0  0  0  0  0  0  0  0  0  0  0  0
   -9.7871    7.5394   -2.4923 O   0  0  0  0  0  0  0  0  0  0  0  0
   -5.8533    6.2230   -0.2017 C   0  0  0  0  0  0  0  0  0  0  0  0
   -5.7390    5.2829    0.8233 C   0  0  0  0  0  0  0  0  0  0  0  0
   -4.4792    4.7796    1.1542 C   0  0  0  0  0  0  0  0  0  0  0  0
   -3.3487    5.2219    0.4648 C   0  0  0  0  0  0  0  0  0  0  0  0
   -1.7956    4.6204    0.8945 Cl  0  0  0  0  0  0  0  0  0  0  0  0
   -3.4645    6.1588   -0.5616 C   0  0  0  0  0  0  0  0  0  0  0  0
   -4.7188    6.6735   -0.8879 C   0  0  0  0  0  0  0  0  0  0  0  0
   -8.4549   10.2802    1.8423 N   0  0  0  0  0  0  0  0  0  0  0  0
   -8.4625   11.6523    2.0284 N   0  0  0  0  0  0  0  0  0  0  0  0
   -7.4949   12.2757    2.9146 C   0  0  0  0  0  0  0  0  0  0  0  0
   -7.8753   13.1182    3.9750 C   0  0  0  0  0  0  0  0  0  0  0  0
   -6.8966   13.6982    4.8192 C   0  0  0  0  0  0  0  0  0  0  0  0
   -7.3737   14.7133    6.1319 Cl  0  0  0  0  0  0  0  0  0  0  0  0
   -5.5356   13.4770    4.6177 C   0  0  0  0  0  0  0  0  0  0  0  0
   -5.1468   12.6368    3.5783 C   0  0  0  0  0  0  0  0  0  0  0  0
   -6.1160   12.0180    2.7535 C   0  0  0  0  0  0  0  0  0  0  0  0
  -10.3994   14.4529   -0.9897 H   0  0  0  0  0  0  0  0  0  0  0  0
  -11.7287   14.3964    0.1494 H   0  0  0  0  0  0  0  0  0  0  0  0
  -11.1899   12.9208   -0.6404 H   0  0  0  0  0  0  0  0  0  0  0  0
  -10.2998   14.0842    1.9007 H   0  0  0  0  0  0  0  0  0  0  0  0
   -7.9780   14.3761    1.2094 H   0  0  0  0  0  0  0  0  0  0  0  0
  -10.3592    8.0753    1.2732 H   0  0  0  0  0  0  0  0  0  0  0  0
  -10.8491    8.8618   -0.2170 H   0  0  0  0  0  0  0  0  0  0  0  0
   -6.9403    6.7956   -3.7052 H   0  0  0  0  0  0  0  0  0  0  0  0
   -6.1758    5.6251   -2.6668 H   0  0  0  0  0  0  0  0  0  0  0  0
   -8.7613    4.5879   -2.7868 H   0  0  0  0  0  0  0  0  0  0  0  0
   -7.5183    3.1552   -4.3637 H   0  0  0  0  0  0  0  0  0  0  0  0
   -6.6204    4.9460    1.3640 H   0  0  0  0  0  0  0  0  0  0  0  0
   -4.3837    4.0500    1.9537 H   0  0  0  0  0  0  0  0  0  0  0  0
   -2.5843    6.4969   -1.1017 H   0  0  0  0  0  0  0  0  0  0  0  0
   -4.8042    7.4214   -1.6728 H   0  0  0  0  0  0  0  0  0  0  0  0
   -8.9198   13.2840    4.2200 H   0  0  0  0  0  0  0  0  0  0  0  0
   -4.7855   13.9416    5.2609 H   0  0  0  0  0  0  0  0  0  0  0  0
   -4.0821   12.4679    3.4115 H   0  0  0  0  0  0  0  0  0  0  0  0
   -5.7595   11.3652    1.9586 H   0  0  0  0  0  0  0  0  0  0  0  0
  1 37  1  0  0  0  0
  1 38  1  0  0  0  0
  1 39  1  0  0  0  0
  2  4  1  0  0  0  0
  2 40  1  1  0  0  0
  2  3  1  0  0  0  0
  2  1  1  0  0  0  0
  3 41  1  0  0  0  0
  4  5  2  0  0  0  0
  4 29  1  0  0  0  0
  5  6  1  0  0  0  0
  6  7  1  0  0  0  0
  6 28  2  0  0  0  0
  7  8  1  0  0  0  0
  7 42  1  0  0  0  0
  7 43  1  0  0  0  0
  8  9  1  0  0  0  0
  8 19  1  0  0  0  0
  9 10  2  0  0  0  0
 10 11  1  0  0  0  0
 10 21  1  0  0  0  0
 11 12  1  0  0  0  0
 11 19  1  0  0  0  0
 12 44  1  0  0  0  0
 12 45  1  0  0  0  0
 13 15  1  0  0  0  0
 13 46  1  1  0  0  0
 13 14  1  0  0  0  0
 13 12  1  0  0  0  0
 14 47  1  0  0  0  0
 15 16  1  0  0  0  0
 15 17  1  0  0  0  0
 15 18  1  0  0  0  0
 19 20  2  0  0  0  0
 21 22  2  0  0  0  0
 21 27  1  0  0  0  0
 22 23  1  0  0  0  0
 22 48  1  0  0  0  0
 23 24  2  0  0  0  0
 23 49  1  0  0  0  0
 24 25  1  0  0  0  0
 24 26  1  0  0  0  0
 26 27  2  0  0  0  0
 26 50  1  0  0  0  0
 27 51  1  0  0  0  0
 28 29  1  0  0  0  0
 29 30  1  0  0  0  0
 30 31  2  0  0  0  0
 30 36  1  0  0  0  0
 31 32  1  0  0  0  0
 31 52  1  0  0  0  0
 32 33  1  0  0  0  0
 32 34  2  0  0  0  0
 34 35  1  0  0  0  0
 34 53  1  0  0  0  0
 35 36  2  0  0  0  0
 35 54  1  0  0  0  0
 36 55  1  0  0  0  0
M  END
>  <DRUGBANK_ID>
DB16279

>  <COMMON_NAME>
Pecavaptan

>  <CAS_NUMBER>
1914998-56-3

>  <UNII>
44Q500OSL4

>  <SYNONYMS>
Pecavaptan

$$$$
