
 OpenBabel10282417133D

 44 46  0  0  0  0  0  0  0  0999 V2000
    1.1497   -0.2553    0.1357 N   0  0  0  0  0  0  0  0  0  0  0  0
    0.3040    0.7849   -0.2117 C   0  0  0  0  0  0  0  0  0  0  0  0
    0.8662    1.7804   -0.9523 N   0  0  0  0  0  0  0  0  0  0  0  0
    0.0039    2.5054   -1.6571 C   0  0  0  0  0  0  0  0  0  0  0  0
   -1.4274    2.2920   -1.6721 N   0  0  0  0  0  0  0  0  0  0  0  0
   -2.0467    1.6853   -0.4645 C   0  0  0  0  0  0  0  0  0  0  0  0
   -1.0997    0.8879    0.2621 C   0  0  0  0  0  0  0  0  0  0  0  0
   -1.6473    0.4117    1.3898 N   0  0  0  0  0  0  0  0  0  0  0  0
   -2.8693    0.9170    1.5289 C   0  0  0  0  0  0  0  0  0  0  0  0
   -3.4424    2.1588    0.5592 N   0  0  0  0  0  0  0  0  0  0  0  0
   -4.5038    3.7331    1.1042 C   0  0  2  0  0  0  0  0  0  0  0  0
   -5.0997    4.4013    0.1129 O   0  0  0  0  0  0  0  0  0  0  0  0
   -4.8749    5.8295    0.3335 C   0  0  1  0  0  0  0  0  0  0  0  0
   -4.2999    6.4907    1.8201 C   0  0  1  0  0  0  0  0  0  0  0  0
   -5.2214    6.6024    2.8876 O   0  0  0  0  0  0  0  0  0  0  0  0
   -3.7380    5.3443    2.4377 C   0  0  1  0  0  0  0  0  0  0  0  0
   -3.1578    5.5188    4.0440 O   0  0  0  0  0  0  0  0  0  0  0  0
   -3.1152    4.7425   -1.3208 O   0  0  0  0  0  0  0  0  0  0  0  0
   -0.8948    5.0482   -0.8489 O   0  0  0  0  0  0  0  0  0  0  0  0
   -1.8934    3.9727   -0.3683 P   0  0  3  0  0  0  0  0  0  0  0  0
   -0.6715    3.2028    0.5843 O   0  0  0  0  0  0  0  0  0  0  0  0
   -1.7537    3.2899    2.9651 O   0  0  0  0  0  0  0  0  0  0  0  0
   -3.1188    3.3812    2.2923 P   0  0  0  0  0  0  0  0  0  0  0  0
   -3.6023    2.1226    3.3764 O   0  0  0  0  0  0  0  0  0  0  0  0
   -4.4259    3.9839    3.6112 O   0  0  0  0  0  0  0  0  0  0  0  0
   -3.8581    6.0522   -0.8966 C   0  0  0  0  0  0  0  0  0  0  0  0
   -2.6074    4.7124    1.1456 C   0  0  0  0  0  0  0  0  0  0  0  0
    0.6562   -1.1358    0.0324 H   0  0  0  0  0  0  0  0  0  0  0  0
    2.1044   -0.1770   -0.2006 H   0  0  0  0  0  0  0  0  0  0  0  0
    0.4252    3.5472   -1.9020 H   0  0  0  0  0  0  0  0  0  0  0  0
   -3.3331    0.5803    2.4600 H   0  0  0  0  0  0  0  0  0  0  0  0
   -5.2107    3.2024    1.7870 H   0  0  0  0  0  0  0  0  0  0  0  0
   -5.9011    6.1380    0.3479 H   0  0  0  0  0  0  0  0  0  0  0  0
   -3.4911    7.2639    1.7422 H   0  0  0  0  0  0  0  0  0  0  0  0
   -5.5273    5.6878    3.1032 H   0  0  0  0  0  0  0  0  0  0  0  0
   -2.4058    5.3779    2.6748 H   0  0  0  0  0  0  0  0  0  0  0  0
   -2.8453    4.6466    4.4856 H   0  0  0  0  0  0  0  0  0  0  0  0
    0.2425    2.9531    0.3443 H   0  0  0  0  0  0  0  0  0  0  0  0
   -4.5163    2.2134    3.7108 H   0  0  0  0  0  0  0  0  0  0  0  0
   -4.2724    4.9048    4.1140 H   0  0  0  0  0  0  0  0  0  0  0  0
   -4.4730    6.4246   -1.7032 H   0  0  0  0  0  0  0  0  0  0  0  0
   -3.0620    6.7711   -0.6487 H   0  0  0  0  0  0  0  0  0  0  0  0
   -1.6988    5.3832    1.2575 H   0  0  0  0  0  0  0  0  0  0  0  0
   -3.0325    5.4657    0.6259 H   0  0  0  0  0  0  0  0  0  0  0  0
  1  2  1  0  0  0  0
  1 28  1  0  0  0  0
  1 29  1  0  0  0  0
  2  3  2  0  0  0  0
  2  7  1  0  0  0  0
  3  4  1  0  0  0  0
  4  5  2  0  0  0  0
  4 30  1  0  0  0  0
  5  6  1  0  0  0  0
  6  7  2  0  0  0  0
  6 10  1  0  0  0  0
  7  8  1  0  0  0  0
  8  9  2  0  0  0  0
  9 10  1  0  0  0  0
  9 31  1  0  0  0  0
 11 10  1  0  0  0  0
 11 12  1  0  0  0  0
 11 16  1  0  0  0  0
 11 32  1  1  0  0  0
 12 13  1  0  0  0  0
 13 14  1  0  0  0  0
 13 33  1  6  0  0  0
 13 26  1  0  0  0  0
 14 15  1  0  0  0  0
 14 16  1  0  0  0  0
 14 34  1  6  0  0  0
 15 35  1  0  0  0  0
 16 17  1  0  0  0  0
 16 36  1  6  0  0  0
 17 37  1  0  0  0  0
 18 20  1  0  0  0  0
 20 19  2  0  0  0  0
 20 27  1  0  0  0  0
 20 21  1  0  0  0  0
 21 38  1  0  0  0  0
 23 22  2  0  0  0  0
 23 25  1  0  0  0  0
 23 24  1  0  0  0  0
 24 39  1  0  0  0  0
 25 40  1  0  0  0  0
 26 18  1  0  0  0  0
 26 41  1  0  0  0  0
 26 42  1  0  0  0  0
 27 23  1  0  0  0  0
 27 43  1  0  0  0  0
 27 44  1  0  0  0  0
M  END
>  <DRUGBANK_ID>
DB03148

>  <SECONDARY_ACCESSION_NUMBERS>
EXPT00533; EXPT00363

>  <COMMON_NAME>
Adenosine 5'-methylenediphosphate

>  <CAS_NUMBER>
3768-14-7

>  <UNII>
0T2A5439OE

>  <SYNONYMS>
Adenosine 5'-(hydrogen (phosphonomethyl)phosphonate); Adenosine, 5'-(trihydrogen methylenebis(phosphonate)); Phosphomethylphosphonic acid adenosyl ester

$$$$
