
 OpenBabel10282417233D

 54 56  0  0  1  0  0  0  0  0999 V2000
    2.8170    0.7668   -4.4542 Cl  0  0  0  0  0  0  0  0  0  0  0  0
   -3.2663    4.7340   -0.7637 Cl  0  0  0  0  0  0  0  0  0  0  0  0
    3.4637    4.2824    0.1896 F   0  0  0  0  0  0  0  0  0  0  0  0
    1.2253    4.3154    0.5874 F   0  0  0  0  0  0  0  0  0  0  0  0
    2.7041    5.1458    1.9550 F   0  0  0  0  0  0  0  0  0  0  0  0
    5.0975    6.5652    1.4116 O   0  0  0  0  0  0  0  0  0  0  0  0
    3.2092    7.7505    1.5538 O   0  0  0  0  0  0  0  0  0  0  0  0
    1.9895   -0.7041    0.5944 O   0  0  0  0  0  0  0  0  0  0  0  0
    2.4309    0.6491   -1.2057 N   0  0  0  0  0  0  0  0  0  0  0  0
    1.1437    6.9917   -1.0252 C   0  0  0  0  0  0  0  0  0  0  0  0
   -0.3413    6.7000   -1.0106 C   0  0  0  0  0  0  0  0  0  0  0  0
    0.3500    7.1103   -2.2720 C   0  0  0  0  0  0  0  0  0  0  0  0
    2.2486    5.9715   -0.8433 C   0  0  2  0  0  0  0  0  0  0  0  0
    3.6498    6.6306   -0.5836 C   0  0  0  0  0  0  0  0  0  0  0  0
    2.3258    4.5627   -1.7832 C   0  0  0  0  0  0  0  0  0  0  0  0
    2.4738    3.1315   -1.3935 C   0  0  0  0  0  0  0  0  0  0  0  0
    2.5513    4.6609   -3.1120 C   0  0  0  0  0  0  0  0  0  0  0  0
    3.9308    7.0539    0.8906 C   0  0  0  0  0  0  0  0  0  0  0  0
    2.6042    1.8843   -2.0183 C   0  0  0  0  0  0  0  0  0  0  0  0
    2.7302    3.4544   -3.8744 C   0  0  0  0  0  0  0  0  0  0  0  0
    2.7219    2.0866   -3.3629 C   0  0  0  0  0  0  0  0  0  0  0  0
    1.5891    1.6339    1.1395 C   0  0  2  0  0  0  0  0  0  0  0  0
    2.5415    2.8237    1.7301 C   0  0  2  0  0  0  0  0  0  0  0  0
    2.0756    0.4770    0.1552 C   0  0  0  0  0  0  0  0  0  0  0  0
    0.1724    2.1027    0.6369 C   0  0  0  0  0  0  0  0  0  0  0  0
    2.4492    4.1482    1.1064 C   0  0  0  0  0  0  0  0  0  0  0  0
    4.0759    2.7084    1.6854 C   0  0  0  0  0  0  0  0  0  0  0  0
   -0.0841    2.4480   -0.7104 C   0  0  0  0  0  0  0  0  0  0  0  0
   -0.8290    2.4519    1.5254 C   0  0  0  0  0  0  0  0  0  0  0  0
   -1.0038    3.3909   -1.1143 C   0  0  0  0  0  0  0  0  0  0  0  0
   -1.9294    3.2072    1.0665 C   0  0  0  0  0  0  0  0  0  0  0  0
   -1.9911    3.7157   -0.2327 C   0  0  0  0  0  0  0  0  0  0  0  0
    5.6173    5.9525    0.8671 H   0  0  0  0  0  0  0  0  0  0  0  0
    2.4214   -0.2521   -1.6954 H   0  0  0  0  0  0  0  0  0  0  0  0
    1.2840    7.8088   -0.3070 H   0  0  0  0  0  0  0  0  0  0  0  0
   -0.7093    5.7054   -0.9614 H   0  0  0  0  0  0  0  0  0  0  0  0
   -0.9999    7.3783   -0.4733 H   0  0  0  0  0  0  0  0  0  0  0  0
    0.2627    8.1147   -2.6464 H   0  0  0  0  0  0  0  0  0  0  0  0
    0.4558    6.3345   -3.0153 H   0  0  0  0  0  0  0  0  0  0  0  0
    1.9055    5.8687    0.1710 H   0  0  0  0  0  0  0  0  0  0  0  0
    4.4382    5.9389   -0.8862 H   0  0  0  0  0  0  0  0  0  0  0  0
    3.7272    7.5388   -1.1765 H   0  0  0  0  0  0  0  0  0  0  0  0
    2.4265    2.8035   -0.4087 H   0  0  0  0  0  0  0  0  0  0  0  0
    2.6368    5.6589   -3.5251 H   0  0  0  0  0  0  0  0  0  0  0  0
    2.8971    3.6081   -4.9321 H   0  0  0  0  0  0  0  0  0  0  0  0
    1.4167    1.0985    2.0946 H   0  0  0  0  0  0  0  0  0  0  0  0
    2.1086    3.1401    2.6825 H   0  0  0  0  0  0  0  0  0  0  0  0
    4.5714    3.7106    1.6849 H   0  0  0  0  0  0  0  0  0  0  0  0
    4.4895    2.2276    2.5501 H   0  0  0  0  0  0  0  0  0  0  0  0
    4.4068    2.2781    0.7292 H   0  0  0  0  0  0  0  0  0  0  0  0
    0.5020    2.1762   -1.5591 H   0  0  0  0  0  0  0  0  0  0  0  0
   -0.7564    2.1694    2.5705 H   0  0  0  0  0  0  0  0  0  0  0  0
   -0.8345    3.8960   -2.0701 H   0  0  0  0  0  0  0  0  0  0  0  0
   -2.7291    3.4514    1.7494 H   0  0  0  0  0  0  0  0  0  0  0  0
  1 21  1  0  0  0  0
  2 32  1  0  0  0  0
  3 26  1  0  0  0  0
  4 26  1  0  0  0  0
  5 26  1  0  0  0  0
  6 18  1  0  0  0  0
  6 33  1  0  0  0  0
  7 18  2  0  0  0  0
  8 24  2  0  0  0  0
  9 19  1  0  0  0  0
  9 24  1  0  0  0  0
  9 34  1  0  0  0  0
 10 11  1  0  0  0  0
 10 12  1  0  0  0  0
 10 35  1  0  0  0  0
 11 12  1  0  0  0  0
 11 36  1  0  0  0  0
 11 37  1  0  0  0  0
 12 38  1  0  0  0  0
 12 39  1  0  0  0  0
 13 15  1  0  0  0  0
 13 40  1  1  0  0  0
 13 14  1  0  0  0  0
 13 10  1  0  0  0  0
 14 18  1  0  0  0  0
 14 41  1  0  0  0  0
 14 42  1  0  0  0  0
 15 16  2  0  0  0  0
 15 17  1  0  0  0  0
 16 19  1  0  0  0  0
 16 43  1  0  0  0  0
 17 20  2  0  0  0  0
 17 44  1  0  0  0  0
 19 21  2  0  0  0  0
 20 21  1  0  0  0  0
 20 45  1  0  0  0  0
 22 24  1  0  0  0  0
 22 25  1  0  0  0  0
 22 46  1  1  0  0  0
 23 27  1  0  0  0  0
 23 47  1  1  0  0  0
 23 26  1  0  0  0  0
 23 22  1  0  0  0  0
 25 28  2  0  0  0  0
 25 29  1  0  0  0  0
 27 48  1  0  0  0  0
 27 49  1  0  0  0  0
 27 50  1  0  0  0  0
 28 30  1  0  0  0  0
 28 51  1  0  0  0  0
 29 31  2  0  0  0  0
 29 52  1  0  0  0  0
 30 32  2  0  0  0  0
 30 53  1  0  0  0  0
 31 32  1  0  0  0  0
 31 54  1  0  0  0  0
M  END
>  <DRUGBANK_ID>
DB16700

>  <COMMON_NAME>
Runcaciguat

>  <CAS_NUMBER>
1402936-61-1

>  <UNII>
5EZ01YDT5S

>  <SYNONYMS>
Cyclopropylpropanoic acid; Runcaciguat

$$$$
