
 OpenBabel10282417103D

 40 42  0  0  0  0  0  0  0  0999 V2000
   -0.0104   -0.6488    0.0013 C   0  0  0  0  0  0  0  0  0  0  0  0
   -0.1379    0.7303    0.0031 C   0  0  0  0  0  0  0  0  0  0  0  0
    1.2092   -1.3499    0.0019 N   0  0  0  0  0  0  0  0  0  0  0  0
   -1.2062   -1.3805    0.0071 C   0  0  0  0  0  0  0  0  0  0  0  0
   -1.3762    1.3870    0.0152 C   0  0  0  0  0  0  0  0  0  0  0  0
    1.2916    1.7119   -0.0299 S   0  0  0  0  0  0  0  0  0  0  0  0
    2.3595   -0.7545    0.0340 C   0  0  0  0  0  0  0  0  0  0  0  0
   -2.4739   -0.7511    0.0153 C   0  0  0  0  0  0  0  0  0  0  0  0
   -2.5590    0.6430    0.0236 C   0  0  0  0  0  0  0  0  0  0  0  0
    2.5206    0.6297    0.0338 N   0  0  0  0  0  0  0  0  0  0  0  0
    1.3526    2.3577   -1.3154 O   0  0  0  0  0  0  0  0  0  0  0  0
    1.3332    2.4569    1.2128 O   0  0  0  0  0  0  0  0  0  0  0  0
    3.6683   -1.5230    0.0683 C   0  0  0  0  0  0  0  0  0  0  0  0
   -3.8314   -1.8131    0.0076 Cl  0  0  0  0  0  0  0  0  0  0  0  0
   -4.0767    1.5565   -0.0564 S   0  0  0  0  0  0  0  0  0  0  0  0
    3.7658   -2.6354    1.5113 S   0  0  0  0  0  0  0  0  0  0  0  0
   -4.0421    2.4960    1.3495 N   0  0  0  0  0  0  0  0  0  0  0  0
   -3.9773    2.4765   -1.1659 O   0  0  0  0  0  0  0  0  0  0  0  0
   -5.2251    0.7073    0.1281 O   0  0  0  0  0  0  0  0  0  0  0  0
    3.6988   -1.4520    2.9140 C   0  0  0  0  0  0  0  0  0  0  0  0
    4.8242   -0.4483    2.9245 C   0  0  0  0  0  0  0  0  0  0  0  0
    4.5606    0.9217    3.0666 C   0  0  0  0  0  0  0  0  0  0  0  0
    6.1586   -0.8649    2.8060 C   0  0  0  0  0  0  0  0  0  0  0  0
    5.5822    1.8552    2.8814 C   0  0  0  0  0  0  0  0  0  0  0  0
    7.1915    0.0673    2.7331 C   0  0  0  0  0  0  0  0  0  0  0  0
    6.8949    1.4264    2.6966 C   0  0  0  0  0  0  0  0  0  0  0  0
   -1.1562   -2.4704   -0.0028 H   0  0  0  0  0  0  0  0  0  0  0  0
   -1.3984    2.4773   -0.0052 H   0  0  0  0  0  0  0  0  0  0  0  0
    3.4404    1.0631    0.0407 H   0  0  0  0  0  0  0  0  0  0  0  0
    3.7365   -2.1238   -0.8450 H   0  0  0  0  0  0  0  0  0  0  0  0
    4.5237   -0.8368    0.0573 H   0  0  0  0  0  0  0  0  0  0  0  0
   -4.8841    3.0827    1.3393 H   0  0  0  0  0  0  0  0  0  0  0  0
   -4.0585    1.9133    2.1874 H   0  0  0  0  0  0  0  0  0  0  0  0
    2.7231   -0.9541    2.9101 H   0  0  0  0  0  0  0  0  0  0  0  0
    3.7500   -2.0405    3.8368 H   0  0  0  0  0  0  0  0  0  0  0  0
    3.5597    1.2785    3.3060 H   0  0  0  0  0  0  0  0  0  0  0  0
    6.3999   -1.9249    2.7484 H   0  0  0  0  0  0  0  0  0  0  0  0
    5.3562    2.9191    2.8857 H   0  0  0  0  0  0  0  0  0  0  0  0
    8.2232   -0.2709    2.6860 H   0  0  0  0  0  0  0  0  0  0  0  0
    7.6898    2.1512    2.5426 H   0  0  0  0  0  0  0  0  0  0  0  0
  1  2  2  0  0  0  0
  1  3  1  0  0  0  0
  1  4  1  0  0  0  0
  2  5  1  0  0  0  0
  2  6  1  0  0  0  0
  3  7  2  0  0  0  0
  4  8  2  0  0  0  0
  4 27  1  0  0  0  0
  5  9  2  0  0  0  0
  5 28  1  0  0  0  0
  6 10  1  0  0  0  0
  6 11  2  0  0  0  0
  6 12  2  0  0  0  0
  7 13  1  0  0  0  0
  7 10  1  0  0  0  0
  8 14  1  0  0  0  0
  8  9  1  0  0  0  0
  9 15  1  0  0  0  0
 10 29  1  0  0  0  0
 13 16  1  0  0  0  0
 13 30  1  0  0  0  0
 13 31  1  0  0  0  0
 15 17  1  0  0  0  0
 15 18  2  0  0  0  0
 15 19  2  0  0  0  0
 16 20  1  0  0  0  0
 17 32  1  0  0  0  0
 17 33  1  0  0  0  0
 20 21  1  0  0  0  0
 20 34  1  0  0  0  0
 20 35  1  0  0  0  0
 21 22  1  0  0  0  0
 21 23  2  0  0  0  0
 22 24  2  0  0  0  0
 22 36  1  0  0  0  0
 23 25  1  0  0  0  0
 23 37  1  0  0  0  0
 24 26  1  0  0  0  0
 24 38  1  0  0  0  0
 25 26  2  0  0  0  0
 25 39  1  0  0  0  0
 26 40  1  0  0  0  0
M  END
>  <DRUGBANK_ID>
DB00562

>  <SECONDARY_ACCESSION_NUMBERS>
APRD00728

>  <COMMON_NAME>
Benzthiazide

>  <CAS_NUMBER>
91-33-8

>  <UNII>
1TD8J48L61

>  <SYNONYMS>
3-((benzylthio)methyl)-6-chloro-7-sulfamoyl-2H-benzo-1,2,4-thiadiazine 1,1-dioxide; 3-benzylthiomethyl-6-chloro-2H-1,2,4-benzothiadiazine-7-sulfonamide 1,1-dioxide; 3-benzylthiomethyl-6-chloro-7-sulfamoyl-1,2,4-benzothiadiazine 1,1-dioxide; 6-chloro-1,1-dioxo-3-(phenylmethylsulfanylmethyl)-4H-benzo[e][1,2,4]thiadiazine-7-sulfonamide; 6-chloro-7-sulfamoyl-3-benzylthiomethyl-2H-1,2,4-benzothiadiazine 1,1-dioxide; Benzothiazide; Benzotiazida; Benzthiazid; Benzthiazide; Benzthiazidum; Benztiazide

$$$$
