
 OpenBabel10282417123D

 44 46  0  0  0  0  0  0  0  0999 V2000
   -1.5377    0.6155    0.4286 Br  0  0  0  0  0  0  0  0  0  0  0  0
    0.3073   -2.3321   -0.0524 O   0  0  0  0  0  0  0  0  0  0  0  0
   -5.5388   -5.0896    3.7424 O   0  0  0  0  0  0  0  0  0  0  0  0
   -8.1934   -2.5634   -0.4933 O   0  0  0  0  0  0  0  0  0  0  0  0
   -8.3273   -2.4951    1.7343 O   0  0  0  0  0  0  0  0  0  0  0  0
   -5.7525   -3.8594    1.8894 N   0  0  0  0  0  0  0  0  0  0  0  0
   -3.8470   -2.7257   -0.2016 C   0  0  0  0  0  0  0  0  0  0  0  0
   -1.0436   -2.4439   -0.1664 C   0  0  0  0  0  0  0  0  0  0  0  0
   -3.1820   -2.0511   -1.2371 C   0  0  0  0  0  0  0  0  0  0  0  0
   -3.0334   -3.3443    0.7557 C   0  0  0  0  0  0  0  0  0  0  0  0
   -5.3357   -2.6596   -0.1298 C   0  0  0  0  0  0  0  0  0  0  0  0
   -1.7782   -1.9902   -1.2635 C   0  0  0  0  0  0  0  0  0  0  0  0
   -1.6773   -3.0965    0.8633 C   0  0  0  0  0  0  0  0  0  0  0  0
   -6.2020   -3.1311    0.8017 C   0  0  0  0  0  0  0  0  0  0  0  0
   -7.7031   -4.9562    2.9092 C   0  0  0  0  0  0  0  0  0  0  0  0
    0.8915   -1.0902   -0.0015 C   0  0  0  0  0  0  0  0  0  0  0  0
   -6.2865   -4.6372    2.8748 C   0  0  0  0  0  0  0  0  0  0  0  0
   -8.3661   -5.3427    1.7435 C   0  0  0  0  0  0  0  0  0  0  0  0
   -8.3808   -4.7482    4.1102 C   0  0  0  0  0  0  0  0  0  0  0  0
    0.2875    0.1753    0.0820 C   0  0  0  0  0  0  0  0  0  0  0  0
    2.3007   -1.1697   -0.0161 C   0  0  0  0  0  0  0  0  0  0  0  0
   -9.7509   -5.3787    1.7485 C   0  0  0  0  0  0  0  0  0  0  0  0
   -9.7518   -4.9528    4.1406 C   0  0  0  0  0  0  0  0  0  0  0  0
   -7.6442   -2.6937    0.7282 C   0  0  0  0  0  0  0  0  0  0  0  0
  -10.4391   -5.2096    2.9504 C   0  0  0  0  0  0  0  0  0  0  0  0
    1.0828    1.3179    0.0099 C   0  0  0  0  0  0  0  0  0  0  0  0
    3.0826   -0.0146   -0.0026 C   0  0  0  0  0  0  0  0  0  0  0  0
    2.4675    1.2294   -0.0200 C   0  0  0  0  0  0  0  0  0  0  0  0
   -4.7936   -3.7651    2.1385 H   0  0  0  0  0  0  0  0  0  0  0  0
   -7.6463   -2.1032   -1.1503 H   0  0  0  0  0  0  0  0  0  0  0  0
   -3.7305   -1.5330   -2.0222 H   0  0  0  0  0  0  0  0  0  0  0  0
   -3.3595   -4.0888    1.4577 H   0  0  0  0  0  0  0  0  0  0  0  0
   -5.7336   -2.0581   -0.9421 H   0  0  0  0  0  0  0  0  0  0  0  0
   -1.2737   -1.4599   -2.0655 H   0  0  0  0  0  0  0  0  0  0  0  0
   -1.1413   -3.4331    1.7467 H   0  0  0  0  0  0  0  0  0  0  0  0
   -7.8235   -5.4595    0.8104 H   0  0  0  0  0  0  0  0  0  0  0  0
   -7.8526   -4.3747    4.9857 H   0  0  0  0  0  0  0  0  0  0  0  0
    2.8003   -2.1398   -0.0188 H   0  0  0  0  0  0  0  0  0  0  0  0
  -10.2851   -5.4800    0.8089 H   0  0  0  0  0  0  0  0  0  0  0  0
  -10.2884   -4.8641    5.0789 H   0  0  0  0  0  0  0  0  0  0  0  0
  -11.5233   -5.2433    2.9534 H   0  0  0  0  0  0  0  0  0  0  0  0
    0.6114    2.2963    0.0155 H   0  0  0  0  0  0  0  0  0  0  0  0
    4.1672   -0.0800    0.0186 H   0  0  0  0  0  0  0  0  0  0  0  0
    3.0522    2.1428   -0.0239 H   0  0  0  0  0  0  0  0  0  0  0  0
  1 20  1  0  0  0  0
  2  8  1  0  0  0  0
  2 16  1  0  0  0  0
  3 17  2  0  0  0  0
  4 24  1  0  0  0  0
  4 30  1  0  0  0  0
  5 24  2  0  0  0  0
  6 14  1  0  0  0  0
  6 17  1  0  0  0  0
  6 29  1  0  0  0  0
  7  9  2  0  0  0  0
  7 10  1  0  0  0  0
  7 11  1  0  0  0  0
  8 12  2  0  0  0  0
  8 13  1  0  0  0  0
  9 12  1  0  0  0  0
  9 31  1  0  0  0  0
 10 13  2  0  0  0  0
 10 32  1  0  0  0  0
 11 14  2  0  0  0  0
 11 33  1  0  0  0  0
 12 34  1  0  0  0  0
 13 35  1  0  0  0  0
 14 24  1  0  0  0  0
 15 17  1  0  0  0  0
 15 18  2  0  0  0  0
 15 19  1  0  0  0  0
 16 20  1  0  0  0  0
 16 21  2  0  0  0  0
 18 22  1  0  0  0  0
 18 36  1  0  0  0  0
 19 23  2  0  0  0  0
 19 37  1  0  0  0  0
 20 26  2  0  0  0  0
 21 27  1  0  0  0  0
 21 38  1  0  0  0  0
 22 25  2  0  0  0  0
 22 39  1  0  0  0  0
 23 25  1  0  0  0  0
 23 40  1  0  0  0  0
 25 41  1  0  0  0  0
 26 28  1  0  0  0  0
 26 42  1  0  0  0  0
 27 28  2  0  0  0  0
 27 43  1  0  0  0  0
 28 44  1  0  0  0  0
M  END
>  <DRUGBANK_ID>
DB01720

>  <SECONDARY_ACCESSION_NUMBERS>
EXPT02579

>  <COMMON_NAME>
(2Z)-2-(Benzoylamino)-3-[4-(2-bromophenoxy)phenyl]acrylic acid

>  <CAS_NUMBER>
639517-90-1

>  <SYNONYMS>
(2Z)-2-(benzoylamino)-3-[4-(2-bromophenoxy)phenyl]-2-propenoic acid

$$$$
