
 OpenBabel10282417143D

 72 75  0  0  1  0  0  0  0  0999 V2000
    1.8810    1.5106    0.0314 C   0  0  0  0  0  0  0  0  0  0  0  0
    0.6055    0.7204   -0.0005 C   0  0  0  0  0  0  0  0  0  0  0  0
   -0.6129    1.4076    0.0275 C   0  0  0  0  0  0  0  0  0  0  0  0
   -1.8499    0.7467    0.0683 C   0  0  0  0  0  0  0  0  0  0  0  0
   -3.3691    1.6176    0.3003 S   0  0  0  0  0  0  0  0  0  0  0  0
   -3.1911    3.2665    0.2335 C   0  0  0  0  0  0  0  0  0  0  0  0
   -3.7457    4.0203    1.1836 C   0  0  0  0  0  0  0  0  0  0  0  0
   -4.4148    3.4945    2.2734 O   0  0  0  0  0  0  0  0  0  0  0  0
   -3.5813    5.4749    1.2414 C   0  0  0  0  0  0  0  0  0  0  0  0
   -2.7261    6.0666    0.1158 C   0  0  2  0  0  0  0  0  0  0  0  0
   -3.5675    7.1044   -0.6682 C   0  0  0  0  0  0  0  0  0  0  0  0
   -2.9944    7.6191   -2.0147 C   0  0  0  0  0  0  0  0  0  0  0  0
   -2.8063    6.6138   -3.1421 C   0  0  0  0  0  0  0  0  0  0  0  0
   -3.7516    6.4742   -4.1619 C   0  0  0  0  0  0  0  0  0  0  0  0
   -3.6313    5.4497   -5.1184 C   0  0  0  0  0  0  0  0  0  0  0  0
   -2.6153    4.5074   -5.0063 C   0  0  0  0  0  0  0  0  0  0  0  0
   -2.4865    3.4374   -5.8374 O   0  0  0  0  0  0  0  0  0  0  0  0
   -1.6590    4.6472   -4.0281 C   0  0  0  0  0  0  0  0  0  0  0  0
   -1.6973    5.7526   -3.1768 C   0  0  0  0  0  0  0  0  0  0  0  0
   -2.3082    5.1075   -0.8613 O   0  0  0  0  0  0  0  0  0  0  0  0
   -2.5236    3.8070   -0.9183 C   0  0  0  0  0  0  0  0  0  0  0  0
   -2.0998    3.1049   -1.8398 O   0  0  0  0  0  0  0  0  0  0  0  0
   -1.3870    6.5817    0.6742 C   0  0  0  0  0  0  0  0  0  0  0  0
   -0.5136    5.4367    1.2341 C   0  0  0  0  0  0  0  0  0  0  0  0
    0.4143    6.0930    2.2366 C   0  0  0  0  0  0  0  0  0  0  0  0
   -0.1663    7.4755    2.5288 C   0  0  0  0  0  0  0  0  0  0  0  0
   -1.5205    7.5406    1.8495 C   0  0  0  0  0  0  0  0  0  0  0  0
   -1.8789   -0.6671    0.0337 C   0  0  0  0  0  0  0  0  0  0  0  0
   -0.6276   -1.3404    0.0006 C   0  0  0  0  0  0  0  0  0  0  0  0
    0.6045   -0.6730   -0.0205 C   0  0  0  0  0  0  0  0  0  0  0  0
    1.7856   -1.3929    0.0995 N   0  0  0  0  0  0  0  0  0  0  0  0
   -3.1697   -1.5410    0.0666 C   0  0  0  0  0  0  0  0  0  0  0  0
   -3.2240   -2.4218   -1.1913 C   0  0  0  0  0  0  0  0  0  0  0  0
   -3.1610   -2.3969    1.3433 C   0  0  0  0  0  0  0  0  0  0  0  0
   -4.5368   -0.8268    0.0846 C   0  0  0  0  0  0  0  0  0  0  0  0
    2.4355    1.2732    0.9445 H   0  0  0  0  0  0  0  0  0  0  0  0
    2.4913    1.2792   -0.8467 H   0  0  0  0  0  0  0  0  0  0  0  0
    1.6916    2.5892    0.0304 H   0  0  0  0  0  0  0  0  0  0  0  0
   -0.5623    2.4904    0.0239 H   0  0  0  0  0  0  0  0  0  0  0  0
   -4.4134    2.5232    2.1642 H   0  0  0  0  0  0  0  0  0  0  0  0
   -3.0984    5.6106    2.2092 H   0  0  0  0  0  0  0  0  0  0  0  0
   -4.5469    5.9793    1.3226 H   0  0  0  0  0  0  0  0  0  0  0  0
   -4.5518    6.6599   -0.8822 H   0  0  0  0  0  0  0  0  0  0  0  0
   -3.7646    7.9634   -0.0118 H   0  0  0  0  0  0  0  0  0  0  0  0
   -3.6918    8.3905   -2.3695 H   0  0  0  0  0  0  0  0  0  0  0  0
   -2.0468    8.1325   -1.8319 H   0  0  0  0  0  0  0  0  0  0  0  0
   -4.5829    7.1707   -4.2272 H   0  0  0  0  0  0  0  0  0  0  0  0
   -4.3493    5.3949   -5.9273 H   0  0  0  0  0  0  0  0  0  0  0  0
   -3.0873    3.5488   -6.5870 H   0  0  0  0  0  0  0  0  0  0  0  0
   -0.9375    3.8493   -3.8552 H   0  0  0  0  0  0  0  0  0  0  0  0
   -0.9227    5.8028   -2.4132 H   0  0  0  0  0  0  0  0  0  0  0  0
   -0.8030    7.0585   -0.1268 H   0  0  0  0  0  0  0  0  0  0  0  0
   -1.1016    4.6757    1.7577 H   0  0  0  0  0  0  0  0  0  0  0  0
    0.0370    4.9064    0.4476 H   0  0  0  0  0  0  0  0  0  0  0  0
    0.4809    5.4803    3.1430 H   0  0  0  0  0  0  0  0  0  0  0  0
    1.4233    6.1783    1.8232 H   0  0  0  0  0  0  0  0  0  0  0  0
   -0.2663    7.6473    3.6047 H   0  0  0  0  0  0  0  0  0  0  0  0
    0.4855    8.2484    2.1149 H   0  0  0  0  0  0  0  0  0  0  0  0
   -1.8058    8.5454    1.5293 H   0  0  0  0  0  0  0  0  0  0  0  0
   -2.2714    7.2378    2.5822 H   0  0  0  0  0  0  0  0  0  0  0  0
   -0.6090   -2.4279    0.0066 H   0  0  0  0  0  0  0  0  0  0  0  0
    1.7760   -2.3981   -0.0007 H   0  0  0  0  0  0  0  0  0  0  0  0
    2.6664   -0.9217   -0.0597 H   0  0  0  0  0  0  0  0  0  0  0  0
   -2.3935   -3.1285   -1.2459 H   0  0  0  0  0  0  0  0  0  0  0  0
   -4.1534   -3.0023   -1.2078 H   0  0  0  0  0  0  0  0  0  0  0  0
   -3.2039   -1.8027   -2.0975 H   0  0  0  0  0  0  0  0  0  0  0  0
   -3.0927   -1.7604    2.2352 H   0  0  0  0  0  0  0  0  0  0  0  0
   -4.0878   -2.9759    1.4196 H   0  0  0  0  0  0  0  0  0  0  0  0
   -2.3276   -3.1024    1.3693 H   0  0  0  0  0  0  0  0  0  0  0  0
   -4.6423   -0.2547    1.0154 H   0  0  0  0  0  0  0  0  0  0  0  0
   -4.6457   -0.2054   -0.8160 H   0  0  0  0  0  0  0  0  0  0  0  0
   -5.4087   -1.4774    0.0923 H   0  0  0  0  0  0  0  0  0  0  0  0
  1  2  1  0  0  0  0
  1 36  1  0  0  0  0
  1 37  1  0  0  0  0
  1 38  1  0  0  0  0
  2  3  2  0  0  0  0
  2 30  1  0  0  0  0
  3  4  1  0  0  0  0
  3 39  1  0  0  0  0
  4  5  1  0  0  0  0
  4 28  2  0  0  0  0
  5  6  1  0  0  0  0
  6  7  2  0  0  0  0
  6 21  1  0  0  0  0
  7  8  1  0  0  0  0
  7  9  1  0  0  0  0
  8 40  1  0  0  0  0
  9 10  1  0  0  0  0
  9 41  1  0  0  0  0
  9 42  1  0  0  0  0
 10 20  1  0  0  0  0
 10 23  1  0  0  0  0
 10 11  1  6  0  0  0
 11 12  1  0  0  0  0
 11 43  1  0  0  0  0
 11 44  1  0  0  0  0
 12 13  1  0  0  0  0
 12 45  1  0  0  0  0
 12 46  1  0  0  0  0
 13 14  2  0  0  0  0
 13 19  1  0  0  0  0
 14 15  1  0  0  0  0
 14 47  1  0  0  0  0
 15 16  2  0  0  0  0
 15 48  1  0  0  0  0
 16 17  1  0  0  0  0
 16 18  1  0  0  0  0
 17 49  1  0  0  0  0
 18 19  2  0  0  0  0
 18 50  1  0  0  0  0
 19 51  1  0  0  0  0
 20 21  1  0  0  0  0
 21 22  2  0  0  0  0
 23 24  1  0  0  0  0
 23 27  1  0  0  0  0
 23 52  1  0  0  0  0
 24 25  1  0  0  0  0
 24 53  1  0  0  0  0
 24 54  1  0  0  0  0
 25 26  1  0  0  0  0
 25 55  1  0  0  0  0
 25 56  1  0  0  0  0
 26 27  1  0  0  0  0
 26 57  1  0  0  0  0
 26 58  1  0  0  0  0
 27 59  1  0  0  0  0
 27 60  1  0  0  0  0
 28 29  1  0  0  0  0
 28 32  1  0  0  0  0
 29 30  2  0  0  0  0
 29 61  1  0  0  0  0
 30 31  1  0  0  0  0
 31 62  1  0  0  0  0
 31 63  1  0  0  0  0
 32 33  1  0  0  0  0
 32 34  1  0  0  0  0
 32 35  1  0  0  0  0
 33 64  1  0  0  0  0
 33 65  1  0  0  0  0
 33 66  1  0  0  0  0
 34 67  1  0  0  0  0
 34 68  1  0  0  0  0
 34 69  1  0  0  0  0
 35 70  1  0  0  0  0
 35 71  1  0  0  0  0
 35 72  1  0  0  0  0
M  END
>  <DRUGBANK_ID>
DB04298

>  <SECONDARY_ACCESSION_NUMBERS>
EXPT02340

>  <COMMON_NAME>
3-(4-Amino-2-Tert-Butyl-5-Methyl-Phenylsulfanyl)-6-Cyclopentyl-4-Hydroxy-6-[2-(4-Hydroxy-Phenyl)-Ethyl]-5,6-Dihydro-Pyran-2-One

$$$$
