
 OpenBabel10282417133D

 86 91  0  0  1  0  0  0  0  0999 V2000
   -8.1484    0.3184  -12.9680 C   0  0  0  0  0  0  0  0  0  0  0  0
   -7.4174   -0.4326  -11.8985 C   0  0  0  0  0  0  0  0  0  0  0  0
   -6.0379   -0.2354  -11.7260 C   0  0  0  0  0  0  0  0  0  0  0  0
   -5.3339   -0.8645  -10.6939 C   0  0  0  0  0  0  0  0  0  0  0  0
   -6.0228   -1.6982   -9.7855 C   0  0  0  0  0  0  0  0  0  0  0  0
   -7.3933   -1.9074   -9.9946 C   0  0  0  0  0  0  0  0  0  0  0  0
   -8.1011   -1.2825  -11.0251 C   0  0  0  0  0  0  0  0  0  0  0  0
   -9.5754   -1.5611  -11.1087 C   0  0  0  0  0  0  0  0  0  0  0  0
   -5.3285   -2.2266   -8.6833 N   0  0  0  0  0  0  0  0  0  0  0  0
   -5.9703   -3.2097   -7.8008 C   0  0  0  0  0  0  0  0  0  0  0  0
   -5.3315   -4.6187   -7.7388 C   0  0  2  0  0  0  0  0  0  0  0  0
   -5.0305   -4.7761   -6.3414 O   0  0  0  0  0  0  0  0  0  0  0  0
   -4.2137   -4.8717   -8.7992 C   0  0  2  0  0  0  0  0  0  0  0  0
   -4.6566   -5.8287   -9.7662 O   0  0  0  0  0  0  0  0  0  0  0  0
   -2.8368   -5.1081   -8.2220 C   0  0  2  0  0  0  0  0  0  0  0  0
   -2.0259   -4.0599   -8.7896 O   0  0  0  0  0  0  0  0  0  0  0  0
   -2.0689   -6.3823   -8.5985 C   0  0  0  0  0  0  0  0  0  0  0  0
   -1.0573   -6.7671   -7.6474 O   0  0  0  0  0  0  0  0  0  0  0  0
   -1.3538   -6.7458   -6.0344 P   0  0  2  0  0  0  0  0  0  0  0  0
   -2.9549   -7.2045   -6.5024 O   0  0  0  0  0  0  0  0  0  0  0  0
   -1.9582   -5.5777   -5.2772 O   0  0  0  0  0  0  0  0  0  0  0  0
    0.2473   -6.2870   -5.5664 O   0  0  0  0  0  0  0  0  0  0  0  0
    0.7809   -4.9693   -6.5522 P   0  0  1  0  0  0  0  0  0  0  0  0
    1.6762   -6.0297   -7.4108 O   0  0  0  0  0  0  0  0  0  0  0  0
   -0.5296   -4.6108   -7.1421 O   0  0  0  0  0  0  0  0  0  0  0  0
    1.3146   -3.6517   -7.5381 O   0  0  0  0  0  0  0  0  0  0  0  0
    2.7433   -3.5324   -7.6008 C   0  0  0  0  0  0  0  0  0  0  0  0
    3.3426   -3.4999   -6.1865 C   0  0  1  0  0  0  0  0  0  0  0  0
    3.5590   -4.9012   -5.7801 O   0  0  0  0  0  0  0  0  0  0  0  0
    4.9828   -5.1174   -5.5268 C   0  0  2  0  0  0  0  0  0  0  0  0
    5.7162   -3.9157   -6.1496 C   0  0  2  0  0  0  0  0  0  0  0  0
    6.8872   -3.5453   -5.4277 O   0  0  0  0  0  0  0  0  0  0  0  0
    4.6847   -2.7837   -6.1393 C   0  0  2  0  0  0  0  0  0  0  0  0
    4.8088   -1.9596   -4.9705 O   0  0  0  0  0  0  0  0  0  0  0  0
    5.4078   -6.4834   -5.8997 N   0  0  0  0  0  0  0  0  0  0  0  0
    5.4602   -7.1187   -7.1221 C   0  0  0  0  0  0  0  0  0  0  0  0
    5.9674   -8.3380   -7.0464 N   0  0  0  0  0  0  0  0  0  0  0  0
    6.2604   -8.5293   -5.7193 C   0  0  0  0  0  0  0  0  0  0  0  0
    5.8996   -7.4081   -4.9851 C   0  0  0  0  0  0  0  0  0  0  0  0
    6.0257   -7.2629   -3.6541 N   0  0  0  0  0  0  0  0  0  0  0  0
    6.5805   -8.3643   -3.0931 C   0  0  0  0  0  0  0  0  0  0  0  0
    6.9895   -9.5075   -3.6877 N   0  0  0  0  0  0  0  0  0  0  0  0
    6.8362   -9.6158   -5.0254 C   0  0  0  0  0  0  0  0  0  0  0  0
    7.2433  -10.7744   -5.6530 N   0  0  0  0  0  0  0  0  0  0  0  0
   -4.0115   -1.8215   -8.4624 C   0  0  0  0  0  0  0  0  0  0  0  0
   -3.3641   -2.0790   -7.3654 N   0  0  0  0  0  0  0  0  0  0  0  0
   -2.0112   -1.9086   -7.2643 C   0  0  0  0  0  0  0  0  0  0  0  0
   -1.3802   -2.2440   -6.2584 O   0  0  0  0  0  0  0  0  0  0  0  0
   -1.2915   -1.4387   -8.3246 N   0  0  0  0  0  0  0  0  0  0  0  0
   -1.8067   -0.9090   -9.4780 C   0  0  0  0  0  0  0  0  0  0  0  0
   -1.1541   -0.3124  -10.2935 O   0  0  0  0  0  0  0  0  0  0  0  0
   -3.3022   -1.1003   -9.5853 C   0  0  0  0  0  0  0  0  0  0  0  0
   -3.9435   -0.6340  -10.6174 N   0  0  0  0  0  0  0  0  0  0  0  0
   -8.8593   -0.3368  -13.4797 H   0  0  0  0  0  0  0  0  0  0  0  0
   -7.4668    0.6967  -13.7327 H   0  0  0  0  0  0  0  0  0  0  0  0
   -8.6852    1.1577  -12.5140 H   0  0  0  0  0  0  0  0  0  0  0  0
   -5.4919    0.4270  -12.3949 H   0  0  0  0  0  0  0  0  0  0  0  0
   -7.9842   -2.5381   -9.3422 H   0  0  0  0  0  0  0  0  0  0  0  0
   -9.7376   -2.6307  -11.2781 H   0  0  0  0  0  0  0  0  0  0  0  0
  -10.0642   -1.2627  -10.1754 H   0  0  0  0  0  0  0  0  0  0  0  0
  -10.0700   -1.0204  -11.9156 H   0  0  0  0  0  0  0  0  0  0  0  0
   -5.9945   -2.7579   -6.8030 H   0  0  0  0  0  0  0  0  0  0  0  0
   -7.0212   -3.3976   -8.0181 H   0  0  0  0  0  0  0  0  0  0  0  0
   -6.1121   -5.3636   -7.9369 H   0  0  0  0  0  0  0  0  0  0  0  0
   -4.6351   -5.6374   -6.1286 H   0  0  0  0  0  0  0  0  0  0  0  0
   -4.0993   -3.9962   -9.4304 H   0  0  0  0  0  0  0  0  0  0  0  0
   -4.0368   -6.5652   -9.8102 H   0  0  0  0  0  0  0  0  0  0  0  0
   -2.8841   -4.9085   -7.1539 H   0  0  0  0  0  0  0  0  0  0  0  0
   -1.3364   -3.9905   -8.0803 H   0  0  0  0  0  0  0  0  0  0  0  0
   -2.7140   -7.2512   -8.7271 H   0  0  0  0  0  0  0  0  0  0  0  0
   -1.5612   -6.2206   -9.5536 H   0  0  0  0  0  0  0  0  0  0  0  0
   -2.9490   -8.1101   -6.8626 H   0  0  0  0  0  0  0  0  0  0  0  0
    2.5167   -6.1570   -6.9232 H   0  0  0  0  0  0  0  0  0  0  0  0
    3.1501   -4.3875   -8.1530 H   0  0  0  0  0  0  0  0  0  0  0  0
    2.9693   -2.6373   -8.1828 H   0  0  0  0  0  0  0  0  0  0  0  0
    2.6203   -3.0428   -5.4934 H   0  0  0  0  0  0  0  0  0  0  0  0
    5.1097   -5.0649   -4.4402 H   0  0  0  0  0  0  0  0  0  0  0  0
    5.9954   -4.1320   -7.1841 H   0  0  0  0  0  0  0  0  0  0  0  0
    6.6212   -2.9749   -4.6773 H   0  0  0  0  0  0  0  0  0  0  0  0
    4.8100   -2.0975   -6.9845 H   0  0  0  0  0  0  0  0  0  0  0  0
    4.5519   -2.4347   -4.1632 H   0  0  0  0  0  0  0  0  0  0  0  0
    5.1416   -6.7061   -8.0717 H   0  0  0  0  0  0  0  0  0  0  0  0
    6.7198   -8.3272   -2.0158 H   0  0  0  0  0  0  0  0  0  0  0  0
    7.6936  -11.5010   -5.1183 H   0  0  0  0  0  0  0  0  0  0  0  0
    7.1599  -10.8310   -6.6582 H   0  0  0  0  0  0  0  0  0  0  0  0
   -0.2903   -1.4902   -8.2401 H   0  0  0  0  0  0  0  0  0  0  0  0
  1  2  1  0  0  0  0
  1 54  1  0  0  0  0
  1 55  1  0  0  0  0
  1 56  1  0  0  0  0
  2  3  2  0  0  0  0
  2  7  1  0  0  0  0
  3  4  1  0  0  0  0
  3 57  1  0  0  0  0
  4  5  2  0  0  0  0
  4 53  1  0  0  0  0
  5  6  1  0  0  0  0
  5  9  1  0  0  0  0
  6  7  2  0  0  0  0
  6 58  1  0  0  0  0
  7  8  1  0  0  0  0
  8 59  1  0  0  0  0
  8 60  1  0  0  0  0
  8 61  1  0  0  0  0
  9 10  1  0  0  0  0
  9 45  1  0  0  0  0
 10 62  1  0  0  0  0
 10 63  1  0  0  0  0
 11 64  1  6  0  0  0
 11 12  1  0  0  0  0
 11 10  1  0  0  0  0
 12 65  1  0  0  0  0
 13 66  1  6  0  0  0
 13 14  1  0  0  0  0
 13 11  1  0  0  0  0
 14 67  1  0  0  0  0
 15 17  1  0  0  0  0
 15 68  1  1  0  0  0
 15 16  1  0  0  0  0
 15 13  1  0  0  0  0
 16 69  1  0  0  0  0
 17 18  1  0  0  0  0
 17 70  1  0  0  0  0
 17 71  1  0  0  0  0
 19 21  2  6  0  0  0
 19 22  1  0  0  0  0
 19 20  1  0  0  0  0
 19 18  1  0  0  0  0
 20 72  1  0  0  0  0
 23 22  1  0  0  0  0
 23 24  1  0  0  0  0
 23 25  2  6  0  0  0
 23 26  1  0  0  0  0
 24 73  1  0  0  0  0
 26 27  1  0  0  0  0
 27 74  1  0  0  0  0
 27 75  1  0  0  0  0
 28 27  1  0  0  0  0
 28 29  1  0  0  0  0
 28 33  1  0  0  0  0
 28 76  1  1  0  0  0
 29 30  1  0  0  0  0
 30 31  1  0  0  0  0
 30 77  1  1  0  0  0
 30 35  1  0  0  0  0
 31 32  1  0  0  0  0
 31 33  1  0  0  0  0
 31 78  1  6  0  0  0
 32 79  1  0  0  0  0
 33 34  1  0  0  0  0
 33 80  1  6  0  0  0
 34 81  1  0  0  0  0
 35 36  1  0  0  0  0
 35 39  1  0  0  0  0
 36 37  2  0  0  0  0
 36 82  1  0  0  0  0
 37 38  1  0  0  0  0
 38 39  2  0  0  0  0
 38 43  1  0  0  0  0
 39 40  1  0  0  0  0
 40 41  2  0  0  0  0
 41 42  1  0  0  0  0
 41 83  1  0  0  0  0
 42 43  2  0  0  0  0
 43 44  1  0  0  0  0
 44 84  1  0  0  0  0
 44 85  1  0  0  0  0
 45 46  2  0  0  0  0
 45 52  1  0  0  0  0
 46 47  1  0  0  0  0
 47 48  2  0  0  0  0
 47 49  1  0  0  0  0
 49 50  1  0  0  0  0
 49 86  1  0  0  0  0
 50 51  2  0  0  0  0
 50 52  1  0  0  0  0
 52 53  2  0  0  0  0
M  END
>  <DRUGBANK_ID>
DB03147

>  <SECONDARY_ACCESSION_NUMBERS>
EXPT01391

>  <COMMON_NAME>
Flavin adenine dinucleotide

>  <CAS_NUMBER>
146-14-5

>  <UNII>
ZC44YTI8KK

>  <SYNONYMS>
Adenosine 5'-(trihydrogen pyrophosphate), 5'-5'-ester with riboflavine; adenosine 5'-[3-(riboflavin-5'-yl) dihydrogen diphosphate]; FAD; Flavin adenine dinucleotide; Flavin-Adenine Dinucleotide; Flavine adenine dinucleotide; Riboflavin 5'-(trihydrogen diphosphate), 5'-5'-ester with adenosine; Riboflavin 5'-adenosine diphosphate

$$$$
