
 OpenBabel10282417133D

 62 61  0  0  0  0  0  0  0  0999 V2000
    0.8344   -0.0669    0.0820 C   0  0  0  0  0  0  0  0  0  0  0  0
    0.0988   -1.3636   -0.9690 S   0  0  0  0  0  0  0  0  0  0  0  0
    0.9161   -1.1017   -2.4959 C   0  0  0  0  0  0  0  0  0  0  0  0
    2.0160   -0.3152   -2.3484 N   0  0  0  0  0  0  0  0  0  0  0  0
    0.4498   -1.6028   -3.5655 N   0  0  0  0  0  0  0  0  0  0  0  0
    0.9943   -1.3940   -4.9266 C   0  0  0  0  0  0  0  0  0  0  0  0
    0.5035   -0.0654   -5.5217 C   0  0  0  0  0  0  0  0  0  0  0  0
    1.0651    1.1221   -4.7550 C   0  0  0  0  0  0  0  0  0  0  0  0
    2.6148    1.1218   -4.8190 C   0  0  0  0  0  0  0  0  0  0  0  0
    3.1001    1.4276   -6.2074 C   0  0  0  0  0  0  0  0  0  0  0  0
    2.5889    2.8073   -6.5582 C   0  0  0  0  0  0  0  0  0  0  0  0
    3.1103    3.8046   -5.5095 C   0  0  0  0  0  0  0  0  0  0  0  0
    4.6449    3.7213   -5.4828 C   0  0  0  0  0  0  0  0  0  0  0  0
    5.1662    3.9221   -6.9160 C   0  0  0  0  0  0  0  0  0  0  0  0
    4.6550    5.2482   -7.4336 C   0  0  0  0  0  0  0  0  0  0  0  0
    5.1403    6.3050   -6.4825 C   0  0  0  0  0  0  0  0  0  0  0  0
    6.6901    6.3419   -6.4303 C   0  0  0  0  0  0  0  0  0  0  0  0
    7.2516    6.8615   -7.7449 C   0  0  0  0  0  0  0  0  0  0  0  0
    6.7608    8.2882   -8.0341 C   0  0  0  0  0  0  0  0  0  0  0  0
    7.3054    9.2501   -7.0488 N   0  0  0  0  0  0  0  0  0  0  0  0
    6.8390    9.4651   -5.8873 C   0  0  0  0  0  0  0  0  0  0  0  0
    5.7391    8.9113   -5.3097 N   0  0  0  0  0  0  0  0  0  0  0  0
    7.6563   10.5666   -4.7980 S   0  0  0  0  0  0  0  0  0  0  0  0
    6.9208   10.1238   -3.1887 C   0  0  0  0  0  0  0  0  0  0  0  0
    0.5050   -0.2045    1.1105 H   0  0  0  0  0  0  0  0  0  0  0  0
    0.5110    0.9247   -0.2579 H   0  0  0  0  0  0  0  0  0  0  0  0
    1.9325   -0.0894    0.0867 H   0  0  0  0  0  0  0  0  0  0  0  0
    2.3768   -0.1914   -3.2544 H   0  0  0  0  0  0  0  0  0  0  0  0
    1.7934    0.6055   -1.9868 H   0  0  0  0  0  0  0  0  0  0  0  0
    2.0856   -1.4930   -4.9758 H   0  0  0  0  0  0  0  0  0  0  0  0
    0.6309   -2.1912   -5.5855 H   0  0  0  0  0  0  0  0  0  0  0  0
    0.7911    0.0168   -6.5792 H   0  0  0  0  0  0  0  0  0  0  0  0
   -0.5900   -0.0255   -5.5149 H   0  0  0  0  0  0  0  0  0  0  0  0
    0.6314    2.0568   -5.1221 H   0  0  0  0  0  0  0  0  0  0  0  0
    0.6733    1.1191   -3.7366 H   0  0  0  0  0  0  0  0  0  0  0  0
    3.0079    1.7841   -4.0364 H   0  0  0  0  0  0  0  0  0  0  0  0
    3.1342    0.1822   -4.6285 H   0  0  0  0  0  0  0  0  0  0  0  0
    4.1943    1.3418   -6.2214 H   0  0  0  0  0  0  0  0  0  0  0  0
    2.7746    0.6649   -6.9162 H   0  0  0  0  0  0  0  0  0  0  0  0
    2.8890    3.0458   -7.5784 H   0  0  0  0  0  0  0  0  0  0  0  0
    1.5021    2.8469   -6.6114 H   0  0  0  0  0  0  0  0  0  0  0  0
    2.7329    4.8040   -5.7407 H   0  0  0  0  0  0  0  0  0  0  0  0
    2.7153    3.6392   -4.5017 H   0  0  0  0  0  0  0  0  0  0  0  0
    5.0398    4.4424   -4.7595 H   0  0  0  0  0  0  0  0  0  0  0  0
    5.0222    2.7741   -5.0892 H   0  0  0  0  0  0  0  0  0  0  0  0
    6.2530    3.8590   -6.9362 H   0  0  0  0  0  0  0  0  0  0  0  0
    4.8662    3.1344   -7.6069 H   0  0  0  0  0  0  0  0  0  0  0  0
    4.9805    5.4560   -8.4539 H   0  0  0  0  0  0  0  0  0  0  0  0
    3.5608    5.3099   -7.4949 H   0  0  0  0  0  0  0  0  0  0  0  0
    4.6210    7.1799   -6.8744 H   0  0  0  0  0  0  0  0  0  0  0  0
    4.7472    6.2218   -5.4607 H   0  0  0  0  0  0  0  0  0  0  0  0
    7.0818    6.9370   -5.6039 H   0  0  0  0  0  0  0  0  0  0  0  0
    7.1237    5.3681   -6.1849 H   0  0  0  0  0  0  0  0  0  0  0  0
    8.3451    6.8329   -7.7161 H   0  0  0  0  0  0  0  0  0  0  0  0
    6.9640    6.1791   -8.5571 H   0  0  0  0  0  0  0  0  0  0  0  0
    7.1242    8.5530   -9.0339 H   0  0  0  0  0  0  0  0  0  0  0  0
    5.6695    8.3401   -8.1317 H   0  0  0  0  0  0  0  0  0  0  0  0
    5.9618    8.3730   -4.4798 H   0  0  0  0  0  0  0  0  0  0  0  0
    5.3784    8.2834   -5.9744 H   0  0  0  0  0  0  0  0  0  0  0  0
    5.8227   10.1448   -3.1980 H   0  0  0  0  0  0  0  0  0  0  0  0
    7.2442    9.1196   -2.8881 H   0  0  0  0  0  0  0  0  0  0  0  0
    7.2502   10.8342   -2.4324 H   0  0  0  0  0  0  0  0  0  0  0  0
  1  2  1  0  0  0  0
  1 25  1  0  0  0  0
  1 26  1  0  0  0  0
  1 27  1  0  0  0  0
  2  3  1  0  0  0  0
  3  4  1  0  0  0  0
  3  5  2  0  0  0  0
  4 28  1  0  0  0  0
  4 29  1  0  0  0  0
  5  6  1  0  0  0  0
  6  7  1  0  0  0  0
  6 30  1  0  0  0  0
  6 31  1  0  0  0  0
  7  8  1  0  0  0  0
  7 32  1  0  0  0  0
  7 33  1  0  0  0  0
  8  9  1  0  0  0  0
  8 34  1  0  0  0  0
  8 35  1  0  0  0  0
  9 10  1  0  0  0  0
  9 36  1  0  0  0  0
  9 37  1  0  0  0  0
 10 11  1  0  0  0  0
 10 38  1  0  0  0  0
 10 39  1  0  0  0  0
 11 12  1  0  0  0  0
 11 40  1  0  0  0  0
 11 41  1  0  0  0  0
 12 13  1  0  0  0  0
 12 42  1  0  0  0  0
 12 43  1  0  0  0  0
 13 14  1  0  0  0  0
 13 44  1  0  0  0  0
 13 45  1  0  0  0  0
 14 15  1  0  0  0  0
 14 46  1  0  0  0  0
 14 47  1  0  0  0  0
 15 16  1  0  0  0  0
 15 48  1  0  0  0  0
 15 49  1  0  0  0  0
 16 17  1  0  0  0  0
 16 50  1  0  0  0  0
 16 51  1  0  0  0  0
 17 18  1  0  0  0  0
 17 52  1  0  0  0  0
 17 53  1  0  0  0  0
 18 19  1  0  0  0  0
 18 54  1  0  0  0  0
 18 55  1  0  0  0  0
 19 20  1  0  0  0  0
 19 56  1  0  0  0  0
 19 57  1  0  0  0  0
 20 21  2  0  0  0  0
 21 22  1  0  0  0  0
 21 23  1  0  0  0  0
 22 58  1  0  0  0  0
 22 59  1  0  0  0  0
 23 24  1  0  0  0  0
 24 60  1  0  0  0  0
 24 61  1  0  0  0  0
 24 62  1  0  0  0  0
M  END
>  <DRUGBANK_ID>
DB02979

>  <SECONDARY_ACCESSION_NUMBERS>
EXPT02394

>  <COMMON_NAME>
N1,N14-Bis((S-Methyl)Isothioureido)Tetradecane

$$$$
