
 OpenBabel10282417203D

122129  0  0  1  0  0  0  0  0999 V2000
    0.2009   -1.2644    0.0770 C   0  0  0  0  0  0  0  0  0  0  0  0
    1.9428    0.4957    0.7097 C   0  0  0  0  0  0  0  0  0  0  0  0
   -1.7566    1.7953   -1.2459 C   0  0  0  0  0  0  0  0  0  0  0  0
   -4.5036    1.5145    0.7131 C   0  0  0  0  0  0  0  0  0  0  0  0
   -5.3574    1.6315   -1.2771 C   0  0  0  0  0  0  0  0  0  0  0  0
   -1.6630    1.2512   -4.7926 C   0  0  0  0  0  0  0  0  0  0  0  0
   -2.8109   -1.1060    2.2270 C   0  0  0  0  0  0  0  0  0  0  0  0
   -4.6510   -1.4509    2.8911 C   0  0  0  0  0  0  0  0  0  0  0  0
   -0.2320    0.9494    1.0072 C   0  0  0  0  0  0  0  0  0  0  0  0
   -5.6690   -2.6358   -1.0637 C   0  0  0  0  0  0  0  0  0  0  0  0
   -2.0030    2.2896    1.4885 C   0  0  0  0  0  0  0  0  0  0  0  0
   -6.5084   -2.0218    0.0390 C   0  0  0  0  0  0  0  0  0  0  0  0
   -2.5145   -1.8787   -3.7550 C   0  0  0  0  0  0  0  0  0  0  0  0
   -1.2247    0.6664    1.9296 C   0  0  0  0  0  0  0  0  0  0  0  0
   -4.2164   -1.9693    1.2186 C   0  0  0  0  0  0  0  0  0  0  0  0
   -3.6593   -0.9728   -2.7164 C   0  0  0  0  0  0  0  0  0  0  0  0
   -2.4460   -1.6599   -0.7141 C   0  0  0  0  0  0  0  0  0  0  0  0
    0.8209   -1.6163   -3.4542 C   0  0  0  0  0  0  0  0  0  0  0  0
   -3.8502   -3.1291   -4.4964 C   0  0  0  0  0  0  0  0  0  0  0  0
   -0.5014   -0.2997   -1.8700 C   0  0  2  0  0  0  0  0  0  0  0  0
    1.2340    0.2693   -1.2295 C   0  0  2  0  0  0  0  0  0  0  0  0
   -2.1974   -0.1536   -1.9162 C   0  0  2  0  0  0  0  0  0  0  0  0
   -4.0999   -2.5316   -3.3419 C   0  0  0  0  0  0  0  0  0  0  0  0
   -2.5578    0.3872    2.3070 C   0  0  2  0  0  0  0  0  0  0  0  0
   -0.3801   -0.4289    1.9906 C   0  0  1  0  0  0  0  0  0  0  0  0
   -5.5096   -1.6569   -2.1355 C   0  0  2  0  0  0  0  0  0  0  0  0
   -5.7626   -0.4947    1.9782 C   0  0  2  0  0  0  0  0  0  0  0  0
   -4.4630   -0.0684    2.0905 C   0  0  1  0  0  0  0  0  0  0  0  0
   -3.3570    0.9513   -2.2680 C   0  0  1  0  0  0  0  0  0  0  0  0
   -1.5059    0.6440   -0.5597 C   0  0  1  0  0  0  0  0  0  0  0  0
    1.3896   -1.9711   -1.3725 C   0  0  1  0  0  0  0  0  0  0  0  0
   -4.2021   -0.7712    0.4198 C   0  0  2  0  0  0  0  0  0  0  0  0
   -1.5777   -2.2282   -4.6238 C   0  0  0  0  0  0  0  0  0  0  0  0
   -0.5825   -2.9092   -0.4851 C   0  0  1  0  0  0  0  0  0  0  0  0
   -2.5055   -2.8561   -2.2907 C   0  0  1  0  0  0  0  0  0  0  0  0
   -0.6073   -0.3107   -3.7560 C   0  0  1  0  0  0  0  0  0  0  0  0
   -1.3059    1.4202   -2.7372 C   0  0  2  0  0  0  0  0  0  0  0  0
    0.2935    1.2504   -1.6964 C   0  0  2  0  0  0  0  0  0  0  0  0
   -0.9356   -1.6051   -1.0395 C   0  0  2  0  0  0  0  0  0  0  0  0
   -3.6023    1.3504    1.8284 C   0  0  2  0  0  0  0  0  0  0  0  0
   -5.3619   -0.3519   -0.7767 C   0  0  2  0  0  0  0  0  0  0  0  0
   -6.2047   -0.6275    0.4303 C   0  0  2  0  0  0  0  0  0  0  0  0
   -4.5356    0.4732   -2.6939 O   0  0  0  0  0  0  0  0  0  0  0  0
   -3.0070    2.2345   -0.7658 O   0  0  0  0  0  0  0  0  0  0  0  0
    1.6519   -3.1826   -1.1861 O   0  0  0  0  0  0  0  0  0  0  0  0
   -2.5456   -0.4187    0.4170 O   0  0  0  0  0  0  0  0  0  0  0  0
   -0.5654   -1.9089   -5.1415 O   0  0  0  0  0  0  0  0  0  0  0  0
   -7.0667    0.4260    0.1762 O   0  0  0  0  0  0  0  0  0  0  0  0
   -1.5925    2.1303   -3.7900 O   0  0  0  0  0  0  0  0  0  0  0  0
   -2.5600   -2.8670   -5.0471 O   0  0  0  0  0  0  0  0  0  0  0  0
   -0.9635   -2.3016   -2.5423 O   0  0  0  0  0  0  0  0  0  0  0  0
    0.2490   -1.5258   -1.9019 O   0  0  0  0  0  0  0  0  0  0  0  0
   -2.0431   -0.0071   -3.2853 O   0  0  0  0  0  0  0  0  0  0  0  0
   -0.6008   -2.1993    1.4567 O   0  0  0  0  0  0  0  0  0  0  0  0
   -2.1927   -3.2523   -1.1078 O   0  0  0  0  0  0  0  0  0  0  0  0
    0.3743    1.0596   -3.4483 O   0  0  0  0  0  0  0  0  0  0  0  0
    0.7303   -0.2363   -2.5785 H   0  0  0  0  0  0  0  0  0  0  0  0
    1.9864    0.5393   -1.9841 H   0  0  0  0  0  0  0  0  0  0  0  0
   -3.6699   -0.4065   -1.3072 H   0  0  0  0  0  0  0  0  0  0  0  0
   -2.2746    0.4850    3.2341 H   0  0  0  0  0  0  0  0  0  0  0  0
    0.3837   -0.3359    2.6267 H   0  0  0  0  0  0  0  0  0  0  0  0
   -5.8845   -0.8607   -2.6972 H   0  0  0  0  0  0  0  0  0  0  0  0
   -6.5066   -0.6356    2.6579 H   0  0  0  0  0  0  0  0  0  0  0  0
   -4.6068    0.6884    3.0637 H   0  0  0  0  0  0  0  0  0  0  0  0
   -3.1972    0.6561   -0.9593 H   0  0  0  0  0  0  0  0  0  0  0  0
   -1.3394    1.5512    0.2375 H   0  0  0  0  0  0  0  0  0  0  0  0
    1.4171   -1.1158   -0.8696 H   0  0  0  0  0  0  0  0  0  0  0  0
   -3.5031    0.0114    0.6317 H   0  0  0  0  0  0  0  0  0  0  0  0
   -0.7407   -3.7455   -1.0821 H   0  0  0  0  0  0  0  0  0  0  0  0
   -2.0059   -3.5629   -3.0673 H   0  0  0  0  0  0  0  0  0  0  0  0
   -1.3821   -0.4650   -4.7834 H   0  0  0  0  0  0  0  0  0  0  0  0
   -0.6874    2.5843   -1.6694 H   0  0  0  0  0  0  0  0  0  0  0  0
    0.5801    2.4252   -1.6271 H   0  0  0  0  0  0  0  0  0  0  0  0
   -1.4888   -2.0105    0.3060 H   0  0  0  0  0  0  0  0  0  0  0  0
    0.3384   -2.8198    0.5917 H   0  0  0  0  0  0  0  0  0  0  0  0
   -0.6014   -0.7472    0.4262 H   0  0  0  0  0  0  0  0  0  0  0  0
    1.0835   -1.7851    0.4695 H   0  0  0  0  0  0  0  0  0  0  0  0
    1.4306    1.4387    1.3572 H   0  0  0  0  0  0  0  0  0  0  0  0
    1.4811   -0.4672    1.3433 H   0  0  0  0  0  0  0  0  0  0  0  0
    2.6926    0.2435    0.1160 H   0  0  0  0  0  0  0  0  0  0  0  0
   -1.9457    2.6036   -1.9225 H   0  0  0  0  0  0  0  0  0  0  0  0
   -2.5495    1.4281    0.1035 H   0  0  0  0  0  0  0  0  0  0  0  0
   -0.4873    1.6646   -0.5959 H   0  0  0  0  0  0  0  0  0  0  0  0
   -5.4732    1.8349    0.5063 H   0  0  0  0  0  0  0  0  0  0  0  0
   -4.0099    1.3763   -0.1356 H   0  0  0  0  0  0  0  0  0  0  0  0
   -4.5479    0.7838    0.0023 H   0  0  0  0  0  0  0  0  0  0  0  0
   -4.7171    2.6962   -0.6038 H   0  0  0  0  0  0  0  0  0  0  0  0
   -4.5864    2.1611   -1.8594 H   0  0  0  0  0  0  0  0  0  0  0  0
   -6.1004    1.6579   -1.9461 H   0  0  0  0  0  0  0  0  0  0  0  0
   -0.4241    0.5709   -5.0836 H   0  0  0  0  0  0  0  0  0  0  0  0
   -2.6475    0.5468   -4.7461 H   0  0  0  0  0  0  0  0  0  0  0  0
   -1.3327    1.0216   -5.7191 H   0  0  0  0  0  0  0  0  0  0  0  0
   -2.0298   -1.7173    2.0494 H   0  0  0  0  0  0  0  0  0  0  0  0
   -2.8341   -1.6397    0.9408 H   0  0  0  0  0  0  0  0  0  0  0  0
   -4.9994   -2.5505    2.6223 H   0  0  0  0  0  0  0  0  0  0  0  0
   -3.9504   -1.4544    3.6443 H   0  0  0  0  0  0  0  0  0  0  0  0
    0.7433    1.6887    0.1360 H   0  0  0  0  0  0  0  0  0  0  0  0
    0.5144    0.2061    0.2154 H   0  0  0  0  0  0  0  0  0  0  0  0
   -4.7478   -3.1831   -0.7345 H   0  0  0  0  0  0  0  0  0  0  0  0
   -6.1353   -3.2420   -1.7667 H   0  0  0  0  0  0  0  0  0  0  0  0
   -2.0702    3.1039    0.7788 H   0  0  0  0  0  0  0  0  0  0  0  0
   -3.1924    2.8862    1.3594 H   0  0  0  0  0  0  0  0  0  0  0  0
   -7.4899   -1.9432   -0.3019 H   0  0  0  0  0  0  0  0  0  0  0  0
   -6.3964   -2.6215    0.9207 H   0  0  0  0  0  0  0  0  0  0  0  0
   -1.9060   -1.3639   -2.8394 H   0  0  0  0  0  0  0  0  0  0  0  0
   -0.5380    2.0682    1.8430 H   0  0  0  0  0  0  0  0  0  0  0  0
   -1.9165    0.6518    1.1650 H   0  0  0  0  0  0  0  0  0  0  0  0
   -2.9733   -2.8509    1.1748 H   0  0  0  0  0  0  0  0  0  0  0  0
   -4.7087   -2.8043    0.9045 H   0  0  0  0  0  0  0  0  0  0  0  0
   -4.0553   -1.8369   -1.8281 H   0  0  0  0  0  0  0  0  0  0  0  0
   -3.6605   -0.7264   -3.9996 H   0  0  0  0  0  0  0  0  0  0  0  0
   -3.4006   -1.6503   -0.5823 H   0  0  0  0  0  0  0  0  0  0  0  0
   -2.8128   -1.5455   -1.5292 H   0  0  0  0  0  0  0  0  0  0  0  0
    1.4236   -1.0335   -4.0471 H   0  0  0  0  0  0  0  0  0  0  0  0
    0.2955   -2.5445   -3.6693 H   0  0  0  0  0  0  0  0  0  0  0  0
   -4.4167   -2.2587   -4.7372 H   0  0  0  0  0  0  0  0  0  0  0  0
   -3.8114   -3.8040   -3.6155 H   0  0  0  0  0  0  0  0  0  0  0  0
   -4.0769    1.1488   -3.1158 H   0  0  0  0  0  0  0  0  0  0  0  0
   -3.1745    2.5936   -1.9366 H   0  0  0  0  0  0  0  0  0  0  0  0
    0.8543   -3.4101   -1.7023 H   0  0  0  0  0  0  0  0  0  0  0  0
   -2.1590   -0.5032   -0.3701 H   0  0  0  0  0  0  0  0  0  0  0  0
   -7.1876    0.4384   -0.7914 H   0  0  0  0  0  0  0  0  0  0  0  0
  1 75  1  0  0  0  0
  1 76  1  0  0  0  0
  1 77  1  0  0  0  0
  2 78  1  0  0  0  0
  2 79  1  0  0  0  0
  2 80  1  0  0  0  0
  3 81  1  0  0  0  0
  3 82  1  0  0  0  0
  3 83  1  0  0  0  0
  4 84  1  0  0  0  0
  4 85  1  0  0  0  0
  4 86  1  0  0  0  0
  5 87  1  0  0  0  0
  5 88  1  0  0  0  0
  5 89  1  0  0  0  0
  6 90  1  0  0  0  0
  6 91  1  0  0  0  0
  6 92  1  0  0  0  0
  7 93  1  0  0  0  0
  7 94  1  0  0  0  0
  8  7  1  0  0  0  0
  8 95  1  0  0  0  0
  8 96  1  0  0  0  0
  9 97  1  0  0  0  0
  9 98  1  0  0  0  0
 10 99  1  0  0  0  0
 10100  1  0  0  0  0
 11  9  1  0  0  0  0
 11101  1  0  0  0  0
 11102  1  0  0  0  0
 12 10  1  0  0  0  0
 12103  1  0  0  0  0
 12104  1  0  0  0  0
 13105  1  0  0  0  0
 14106  1  0  0  0  0
 14107  1  0  0  0  0
 15108  1  0  0  0  0
 15109  1  0  0  0  0
 16110  1  0  0  0  0
 16111  1  0  0  0  0
 17112  1  0  0  0  0
 17113  1  0  0  0  0
 18114  1  0  0  0  0
 18115  1  0  0  0  0
 19116  1  0  0  0  0
 19117  1  0  0  0  0
 20  1  1  0  0  0  0
 20 57  1  6  0  0  0
 21 58  1  6  0  0  0
 21  2  1  0  0  0  0
 22 59  1  1  0  0  0
 22  3  1  0  0  0  0
 23 13  2  0  0  0  0
 23 19  1  0  0  0  0
 24  7  1  0  0  0  0
 24 14  1  0  0  0  0
 24 60  1  6  0  0  0
 25  9  1  0  0  0  0
 25 14  1  0  0  0  0
 25 54  1  0  0  0  0
 25 61  1  1  0  0  0
 26 10  1  0  0  0  0
 26 23  1  0  0  0  0
 26 62  1  6  0  0  0
 27  8  1  0  0  0  0
 27 63  1  6  0  0  0
 28 15  1  0  0  0  0
 28 27  1  0  0  0  0
 28 64  1  6  0  0  0
 29 16  1  0  0  0  0
 29 43  1  0  0  0  0
 29 65  1  1  0  0  0
 30 17  1  0  0  0  0
 30 44  1  0  0  0  0
 30 66  1  1  0  0  0
 31 18  1  0  0  0  0
 31 45  1  0  0  0  0
 31 67  1  1  0  0  0
 32 15  1  0  0  0  0
 32 46  1  0  0  0  0
 32 68  1  1  0  0  0
 33 13  1  0  0  0  0
 34 17  1  0  0  0  0
 34 54  1  0  0  0  0
 34 69  1  6  0  0  0
 35 16  1  0  0  0  0
 35 55  1  0  0  0  0
 35 70  1  6  0  0  0
 36 18  1  0  0  0  0
 36 56  1  0  0  0  0
 36 71  1  6  0  0  0
 37 20  1  0  0  0  0
 37 29  1  0  0  0  0
 37 49  1  0  0  0  0
 37 72  1  1  0  0  0
 38 21  1  0  0  0  0
 38 30  1  0  0  0  0
 38 73  1  1  0  0  0
 38 56  1  0  0  0  0
 39 22  1  0  0  0  0
 39 31  1  0  0  0  0
 39 74  1  1  0  0  0
 39 55  1  0  0  0  0
 40  4  1  6  0  0  0
 40 11  1  0  0  0  0
 40 24  1  0  0  0  0
 40 28  1  0  0  0  0
 41  5  1  1  0  0  0
 41 26  1  0  0  0  0
 41 32  1  0  0  0  0
 42 12  1  0  0  0  0
 42 27  1  0  0  0  0
 42 41  1  0  0  0  0
 42 48  1  1  0  0  0
 43118  1  0  0  0  0
 44119  1  0  0  0  0
 45120  1  0  0  0  0
 46121  1  0  0  0  0
 47 33  2  0  0  0  0
 48122  1  0  0  0  0
 49  6  1  0  0  0  0
 50 19  1  0  0  0  0
 50 33  1  0  0  0  0
 51 20  1  0  0  0  0
 51 35  1  0  0  0  0
 52 21  1  0  0  0  0
 52 34  1  0  0  0  0
 53 22  1  0  0  0  0
 53 36  1  0  0  0  0
M  END
>  <DRUGBANK_ID>
DB13401

>  <COMMON_NAME>
Metildigoxin

>  <CAS_NUMBER>
30685-43-9

>  <UNII>
I7GG1YUC5V

>  <SYNONYMS>
Metildigoxin; Metildigoxina

$$$$
