DHC
 OpenBabel10282417123D

 21 21  0  0  0  0  0  0  0  0999 V2000
    0.9746    0.0744    0.0474 C   0  0  0  0  0  0  0  0  0  0  0  0
    0.4151   -0.9076    0.5082 O   0  0  0  0  0  0  0  0  0  0  0  0
    0.2679    1.2461   -0.4928 C   0  0  0  0  0  0  0  0  0  0  0  0
    0.8650    2.3381   -0.9996 C   0  0  0  0  0  0  0  0  0  0  0  0
    0.1154    3.5071   -1.4960 C   0  0  0  0  0  0  0  0  0  0  0  0
    0.5236    4.1675   -2.6632 C   0  0  0  0  0  0  0  0  0  0  0  0
   -0.1620    5.3005   -3.1006 C   0  0  0  0  0  0  0  0  0  0  0  0
   -1.2562    5.7936   -2.3937 C   0  0  0  0  0  0  0  0  0  0  0  0
   -1.6718    5.1572   -1.2305 C   0  0  0  0  0  0  0  0  0  0  0  0
   -0.9799    4.0231   -0.7820 C   0  0  0  0  0  0  0  0  0  0  0  0
   -1.8886    6.9072   -2.8737 O   0  0  0  0  0  0  0  0  0  0  0  0
    0.2667    5.9259   -4.2392 O   0  0  0  0  0  0  0  0  0  0  0  0
    2.3111    0.1733    0.0081 O   0  0  0  0  0  0  0  0  0  0  0  0
   -0.8123    1.1579   -0.4496 H   0  0  0  0  0  0  0  0  0  0  0  0
    1.9497    2.4024   -1.0563 H   0  0  0  0  0  0  0  0  0  0  0  0
    1.3669    3.8098   -3.2469 H   0  0  0  0  0  0  0  0  0  0  0  0
   -2.5156    5.5201   -0.6525 H   0  0  0  0  0  0  0  0  0  0  0  0
   -1.2988    3.5499    0.1444 H   0  0  0  0  0  0  0  0  0  0  0  0
   -2.6268    7.1254   -2.2778 H   0  0  0  0  0  0  0  0  0  0  0  0
   -0.3283    6.6924   -4.3564 H   0  0  0  0  0  0  0  0  0  0  0  0
    2.6340   -0.6660    0.3979 H   0  0  0  0  0  0  0  0  0  0  0  0
  1  2  2  0  0  0  0
  1  3  1  0  0  0  0
  1 13  1  0  0  0  0
  3  4  2  0  0  0  0
  3 14  1  0  0  0  0
  4  5  1  0  0  0  0
  4 15  1  0  0  0  0
  5  6  2  0  0  0  0
  5 10  1  0  0  0  0
  6  7  1  0  0  0  0
  6 16  1  0  0  0  0
  7  8  2  0  0  0  0
  7 12  1  0  0  0  0
  8  9  1  0  0  0  0
  8 11  1  0  0  0  0
  9 10  2  0  0  0  0
  9 17  1  0  0  0  0
 10 18  1  0  0  0  0
 11 19  1  0  0  0  0
 12 20  1  0  0  0  0
 13 21  1  0  0  0  0
M  END
>  <DRUGBANK_ID>
DB01880

>  <SECONDARY_ACCESSION_NUMBERS>
EXPT01188

>  <COMMON_NAME>
3,4-Dihydroxycinnamic Acid

>  <CAS_NUMBER>
331-39-5

>  <UNII>
U2S3A33KVM

$$$$
