
 OpenBabel10282417173D

 56 59  0  0  0  0  0  0  0  0999 V2000
    1.8247   -2.9250   -0.6272 C   0  0  1  0  0  0  0  0  0  0  0  0
    2.6608   -2.6081   -1.9111 C   0  0  2  0  0  0  0  0  0  0  0  0
    2.3566   -3.4447    0.7659 C   0  0  2  0  0  0  0  0  0  0  0  0
    0.3326   -3.3683   -0.6904 C   0  0  2  0  0  0  0  0  0  0  0  0
    1.7003   -1.5406   -0.3923 F   0  0  0  0  0  0  0  0  0  0  0  0
    1.7679   -1.2743   -2.6638 C   0  0  1  0  0  0  0  0  0  0  0  0
    4.0296   -2.2096   -1.2109 C   0  0  0  0  0  0  0  0  0  0  0  0
    3.7196   -3.2606    1.4165 C   0  0  0  0  0  0  0  0  0  0  0  0
    1.7824   -2.2462    1.5297 C   0  0  0  0  0  0  0  0  0  0  0  0
    2.0508   -4.9798    0.8329 C   0  0  0  0  0  0  0  0  0  0  0  0
   -0.3751   -2.2518   -1.3562 C   0  0  0  0  0  0  0  0  0  0  0  0
   -0.3426   -3.3695    0.6011 O   0  0  0  0  0  0  0  0  0  0  0  0
    0.2477   -1.7030   -2.6332 C   0  0  2  0  0  0  0  0  0  0  0  0
    1.7302   -0.0737   -3.8199 C   0  0  0  0  0  0  0  0  0  0  0  0
    4.6205   -3.1007    0.0880 C   0  0  1  0  0  0  0  0  0  0  0  0
    3.7487   -2.9363    2.8316 C   0  0  0  0  0  0  0  0  0  0  0  0
    1.2698   -2.3275    2.7458 C   0  0  0  0  0  0  0  0  0  0  0  0
   -0.5192   -0.4178   -2.9537 C   0  0  2  0  0  0  0  0  0  0  0  0
    0.0871   -2.8278   -3.6439 C   0  0  0  0  0  0  0  0  0  0  0  0
    0.2077    0.2218   -4.1426 C   0  0  2  0  0  0  0  0  0  0  0  0
    4.8345   -4.3781   -0.3763 F   0  0  0  0  0  0  0  0  0  0  0  0
    2.5628   -1.8967    3.3008 C   0  0  0  0  0  0  0  0  0  0  0  0
   -0.6714    0.3646   -1.5802 C   0  0  0  0  0  0  0  0  0  0  0  0
   -0.1442   -0.0991   -5.6310 C   0  0  0  0  0  0  0  0  0  0  0  0
    2.7345   -0.7861    3.8542 O   0  0  0  0  0  0  0  0  0  0  0  0
    0.5402    0.8415   -0.7326 C   0  0  0  0  0  0  0  0  0  0  0  0
   -1.7863    0.3507   -1.0299 O   0  0  0  0  0  0  0  0  0  0  0  0
    0.2172    1.9462    0.0798 O   0  0  0  0  0  0  0  0  0  0  0  0
    2.7477   -3.4382   -2.6247 H   0  0  0  0  0  0  0  0  0  0  0  0
    2.1102   -0.5447   -1.9309 H   0  0  0  0  0  0  0  0  0  0  0  0
    0.1636   -4.3839   -1.0503 H   0  0  0  0  0  0  0  0  0  0  0  0
    4.7961   -2.0903   -1.9859 H   0  0  0  0  0  0  0  0  0  0  0  0
    3.8858   -1.2041   -0.8027 H   0  0  0  0  0  0  0  0  0  0  0  0
    2.4121   -1.3369    1.2923 H   0  0  0  0  0  0  0  0  0  0  0  0
    2.8387   -5.6006    1.2831 H   0  0  0  0  0  0  0  0  0  0  0  0
    1.1165   -5.1926    1.3530 H   0  0  0  0  0  0  0  0  0  0  0  0
    1.9647   -5.4079   -0.1833 H   0  0  0  0  0  0  0  0  0  0  0  0
   -1.4499   -2.4388   -1.4288 H   0  0  0  0  0  0  0  0  0  0  0  0
   -0.3385   -1.4858   -0.5889 H   0  0  0  0  0  0  0  0  0  0  0  0
   -0.2811   -2.4482    0.9441 H   0  0  0  0  0  0  0  0  0  0  0  0
    2.3480   -0.1662   -4.7188 H   0  0  0  0  0  0  0  0  0  0  0  0
    2.0410    0.9039   -3.3925 H   0  0  0  0  0  0  0  0  0  0  0  0
    5.6143   -2.6778    0.2469 H   0  0  0  0  0  0  0  0  0  0  0  0
    3.1593   -3.5544    3.6165 H   0  0  0  0  0  0  0  0  0  0  0  0
    0.8687   -3.3126    2.9533 H   0  0  0  0  0  0  0  0  0  0  0  0
   -1.5638   -0.5839   -3.2447 H   0  0  0  0  0  0  0  0  0  0  0  0
   -0.2273   -3.7532   -3.1504 H   0  0  0  0  0  0  0  0  0  0  0  0
   -0.6748   -2.5867   -4.3766 H   0  0  0  0  0  0  0  0  0  0  0  0
    1.0352   -3.0572   -4.1350 H   0  0  0  0  0  0  0  0  0  0  0  0
   -0.1154    1.2693   -4.0914 H   0  0  0  0  0  0  0  0  0  0  0  0
   -0.1938   -1.1509   -5.9300 H   0  0  0  0  0  0  0  0  0  0  0  0
   -1.1011    0.3599   -5.9194 H   0  0  0  0  0  0  0  0  0  0  0  0
    0.5944    0.3831   -6.2917 H   0  0  0  0  0  0  0  0  0  0  0  0
    0.8492    0.0910   -0.0065 H   0  0  0  0  0  0  0  0  0  0  0  0
    1.3901    1.1218   -1.3406 H   0  0  0  0  0  0  0  0  0  0  0  0
   -0.2868    2.5279   -0.5057 H   0  0  0  0  0  0  0  0  0  0  0  0
  1  2  1  0  0  0  0
  1  3  1  0  0  0  0
  1  4  1  0  0  0  0
  1  5  1  6  0  0  0
  2  6  1  0  0  0  0
  2  7  1  0  0  0  0
  2 29  1  1  0  0  0
  3  8  1  0  0  0  0
  3  9  1  0  0  0  0
  3 10  1  6  0  0  0
  4 11  1  0  0  0  0
  4 31  1  6  0  0  0
  4 12  1  0  0  0  0
  6 13  1  0  0  0  0
  6 14  1  0  0  0  0
  6 30  1  6  0  0  0
  7 15  1  0  0  0  0
  7 32  1  0  0  0  0
  7 33  1  0  0  0  0
  8 16  2  0  0  0  0
  8 15  1  0  0  0  0
  9 17  2  0  0  0  0
  9 34  1  0  0  0  0
 10 35  1  0  0  0  0
 10 36  1  0  0  0  0
 10 37  1  0  0  0  0
 11 13  1  0  0  0  0
 11 38  1  0  0  0  0
 11 39  1  0  0  0  0
 12 40  1  0  0  0  0
 13 18  1  0  0  0  0
 13 19  1  1  0  0  0
 14 20  1  0  0  0  0
 14 41  1  0  0  0  0
 14 42  1  0  0  0  0
 15 21  1  0  0  0  0
 15 43  1  1  0  0  0
 16 22  1  0  0  0  0
 16 44  1  0  0  0  0
 17 22  1  0  0  0  0
 17 45  1  0  0  0  0
 18 20  1  0  0  0  0
 18 46  1  6  0  0  0
 18 23  1  0  0  0  0
 19 47  1  0  0  0  0
 19 48  1  0  0  0  0
 19 49  1  0  0  0  0
 20 24  1  0  0  0  0
 20 50  1  1  0  0  0
 22 25  2  0  0  0  0
 23 26  1  0  0  0  0
 23 27  2  0  0  0  0
 24 51  1  0  0  0  0
 24 52  1  0  0  0  0
 24 53  1  0  0  0  0
 26 28  1  0  0  0  0
 26 54  1  0  0  0  0
 26 55  1  0  0  0  0
 28 56  1  0  0  0  0
M  END
>  <DRUGBANK_ID>
DB09095

>  <COMMON_NAME>
Difluocortolone

>  <CAS_NUMBER>
2607-06-9

>  <UNII>
K253365DXI

>  <SYNONYMS>
Diflucortolona; Diflucortolone; Diflucortolonum

$$$$
