
 OpenBabel10282417143D

 63 64  0  0  0  0  0  0  0  0999 V2000
    0.9499    0.2631    0.2433 O   0  0  0  0  0  0  0  0  0  0  0  0
   -0.1490   -1.2350   -3.8448 O   0  0  0  0  0  0  0  0  0  0  0  0
    1.2838   -2.4372  -11.0832 O   0  0  0  0  0  0  0  0  0  0  0  0
   -2.9450    1.9397   -4.6984 O   0  0  0  0  0  0  0  0  0  0  0  0
   -3.4683   -0.7067   -5.4706 O   0  0  0  0  0  0  0  0  0  0  0  0
   -2.9164   -2.8183   -5.0163 O   0  0  0  0  0  0  0  0  0  0  0  0
   -1.1254    1.0272   -3.3641 C   0  0  0  0  0  0  0  0  0  0  0  0
   -0.1392    0.0150   -3.2234 C   0  0  0  0  0  0  0  0  0  0  0  0
    0.3137    0.4922   -0.9442 C   0  0  0  0  0  0  0  0  0  0  0  0
    0.6920   -0.1119   -2.1176 C   0  0  0  0  0  0  0  0  0  0  0  0
   -1.6153    1.4703   -2.1255 C   0  0  0  0  0  0  0  0  0  0  0  0
   -0.8783    1.2263   -0.9334 C   0  0  0  0  0  0  0  0  0  0  0  0
   -1.7673    1.5484   -4.7276 C   0  0  0  0  0  0  0  0  0  0  0  0
    0.1282   -0.4577   -7.5857 C   0  0  0  0  0  0  0  0  0  0  0  0
    2.3693    0.1148    0.1294 C   0  0  0  0  0  0  0  0  0  0  0  0
   -1.2077    1.2328   -6.2267 C   0  0  0  0  0  0  0  0  0  0  0  0
   -0.0470    0.5673   -6.5093 C   0  0  0  0  0  0  0  0  0  0  0  0
    0.9720   -1.8384   -9.8971 C   0  0  0  0  0  0  0  0  0  0  0  0
    0.0995    0.1783   -8.7671 C   0  0  0  0  0  0  0  0  0  0  0  0
    0.5239   -1.8576   -7.5736 C   0  0  0  0  0  0  0  0  0  0  0  0
    0.5975   -0.5106   -9.8229 C   0  0  0  0  0  0  0  0  0  0  0  0
    0.9550   -2.5434   -8.7281 C   0  0  0  0  0  0  0  0  0  0  0  0
    2.8998   -0.3750    1.4404 C   0  0  0  0  0  0  0  0  0  0  0  0
    3.6725   -1.4682    1.6021 C   0  0  0  0  0  0  0  0  0  0  0  0
    1.2442   -1.5742  -12.2488 C   0  0  0  0  0  0  0  0  0  0  0  0
   -1.1324   -1.3210   -4.7973 C   0  0  0  0  0  0  0  0  0  0  0  0
   -0.1288   -0.9635  -12.5247 C   0  0  0  0  0  0  0  0  0  0  0  0
   -0.3947    0.3695  -12.5770 C   0  0  0  0  0  0  0  0  0  0  0  0
    4.1764   -1.8777    2.9560 C   0  0  0  0  0  0  0  0  0  0  0  0
    4.0750   -2.3401    0.4425 C   0  0  0  0  0  0  0  0  0  0  0  0
   -1.8143    0.8705  -12.6418 C   0  0  0  0  0  0  0  0  0  0  0  0
    0.6779    1.4555  -12.4626 C   0  0  0  0  0  0  0  0  0  0  0  0
   -2.5918   -1.6610   -5.0439 C   0  0  0  0  0  0  0  0  0  0  0  0
   -3.4055    0.2750   -5.4744 H   0  0  0  0  0  0  0  0  0  0  0  0
    1.5058   -0.8284   -2.1932 H   0  0  0  0  0  0  0  0  0  0  0  0
   -2.5829    1.9688   -2.0406 H   0  0  0  0  0  0  0  0  0  0  0  0
   -1.2175    1.6417    0.0136 H   0  0  0  0  0  0  0  0  0  0  0  0
    2.6645   -0.5838   -0.6563 H   0  0  0  0  0  0  0  0  0  0  0  0
    2.8034    1.0904   -0.1084 H   0  0  0  0  0  0  0  0  0  0  0  0
   -2.0433    1.1336   -6.9443 H   0  0  0  0  0  0  0  0  0  0  0  0
    0.7931    0.5383   -5.8332 H   0  0  0  0  0  0  0  0  0  0  0  0
   -0.1799    1.2180   -8.8766 H   0  0  0  0  0  0  0  0  0  0  0  0
    0.5253   -2.5118   -6.7030 H   0  0  0  0  0  0  0  0  0  0  0  0
    0.6844    0.1144  -10.6492 H   0  0  0  0  0  0  0  0  0  0  0  0
    1.2968   -3.5778   -8.6940 H   0  0  0  0  0  0  0  0  0  0  0  0
    2.6191    0.2262    2.3011 H   0  0  0  0  0  0  0  0  0  0  0  0
    2.0230   -0.8096  -12.1350 H   0  0  0  0  0  0  0  0  0  0  0  0
    1.5269   -2.1862  -13.1056 H   0  0  0  0  0  0  0  0  0  0  0  0
   -1.1291   -0.3545   -5.1048 H   0  0  0  0  0  0  0  0  0  0  0  0
   -0.6627   -1.7970   -5.6211 H   0  0  0  0  0  0  0  0  0  0  0  0
   -0.9490   -1.6826  -12.5454 H   0  0  0  0  0  0  0  0  0  0  0  0
    3.8188   -2.8804    3.2103 H   0  0  0  0  0  0  0  0  0  0  0  0
    5.2712   -1.8822    2.9676 H   0  0  0  0  0  0  0  0  0  0  0  0
    3.8393   -1.1938    3.7423 H   0  0  0  0  0  0  0  0  0  0  0  0
    3.1875   -2.7576   -0.0470 H   0  0  0  0  0  0  0  0  0  0  0  0
    4.6433   -1.7583   -0.2922 H   0  0  0  0  0  0  0  0  0  0  0  0
    4.7030   -3.1790    0.7543 H   0  0  0  0  0  0  0  0  0  0  0  0
   -2.0718    1.4488  -11.7449 H   0  0  0  0  0  0  0  0  0  0  0  0
   -1.9310    1.5146  -13.5163 H   0  0  0  0  0  0  0  0  0  0  0  0
   -2.5416    0.0552  -12.7193 H   0  0  0  0  0  0  0  0  0  0  0  0
    1.2732    1.4684  -11.5405 H   0  0  0  0  0  0  0  0  0  0  0  0
    1.4077    1.3359  -13.2614 H   0  0  0  0  0  0  0  0  0  0  0  0
    0.2385    2.4544  -12.4775 H   0  0  0  0  0  0  0  0  0  0  0  0
  1  9  1  0  0  0  0
  1 15  1  0  0  0  0
  2  8  1  0  0  0  0
  2 26  1  0  0  0  0
  3 18  1  0  0  0  0
  3 25  1  0  0  0  0
  4 13  2  0  0  0  0
  5 33  1  0  0  0  0
  5 34  1  0  0  0  0
  6 33  2  0  0  0  0
  7  8  2  0  0  0  0
  7 11  1  0  0  0  0
  7 13  1  0  0  0  0
  8 10  1  0  0  0  0
  9 10  2  0  0  0  0
  9 12  1  0  0  0  0
 10 35  1  0  0  0  0
 11 12  2  0  0  0  0
 11 36  1  0  0  0  0
 12 37  1  0  0  0  0
 13 16  1  0  0  0  0
 14 17  1  0  0  0  0
 14 19  2  0  0  0  0
 14 20  1  0  0  0  0
 15 23  1  0  0  0  0
 15 38  1  0  0  0  0
 15 39  1  0  0  0  0
 16 17  2  0  0  0  0
 16 40  1  0  0  0  0
 17 41  1  0  0  0  0
 18 21  2  0  0  0  0
 18 22  1  0  0  0  0
 19 21  1  0  0  0  0
 19 42  1  0  0  0  0
 20 22  2  0  0  0  0
 20 43  1  0  0  0  0
 21 44  1  0  0  0  0
 22 45  1  0  0  0  0
 23 24  2  0  0  0  0
 23 46  1  0  0  0  0
 24 29  1  0  0  0  0
 24 30  1  0  0  0  0
 25 27  1  0  0  0  0
 25 47  1  0  0  0  0
 25 48  1  0  0  0  0
 26 33  1  0  0  0  0
 26 49  1  0  0  0  0
 26 50  1  0  0  0  0
 27 28  2  0  0  0  0
 27 51  1  0  0  0  0
 28 31  1  0  0  0  0
 28 32  1  0  0  0  0
 29 52  1  0  0  0  0
 29 53  1  0  0  0  0
 29 54  1  0  0  0  0
 30 55  1  0  0  0  0
 30 56  1  0  0  0  0
 30 57  1  0  0  0  0
 31 58  1  0  0  0  0
 31 59  1  0  0  0  0
 31 60  1  0  0  0  0
 32 61  1  0  0  0  0
 32 62  1  0  0  0  0
 32 63  1  0  0  0  0
M  END
>  <DRUGBANK_ID>
DB05197

>  <COMMON_NAME>
Sofalcone

>  <CAS_NUMBER>
64506-49-6

>  <UNII>
2B668TJX8E

>  <SYNONYMS>
Sofalcone

$$$$
