4MP
 OpenBabel10282417143D

 29 30  0  0  0  0  0  0  0  0999 V2000
    1.9505    0.1868   -0.1052 O   0  0  0  0  0  0  0  0  0  0  0  0
   -0.3878   -3.3731   -0.0966 O   0  0  0  0  0  0  0  0  0  0  0  0
    5.9165   -3.7125    0.0035 O   0  0  0  0  0  0  0  0  0  0  0  0
   -0.0375   -1.0930    0.0037 N   0  0  0  0  0  0  0  0  0  0  0  0
    0.7376    0.0743    0.0104 C   0  0  0  0  0  0  0  0  0  0  0  0
   -0.1769    1.2450    0.2246 C   0  0  0  0  0  0  0  0  0  0  0  0
   -1.5093    0.7191   -0.2680 C   0  0  0  0  0  0  0  0  0  0  0  0
   -1.4512   -0.7620    0.0580 C   0  0  0  0  0  0  0  0  0  0  0  0
    0.3919   -2.4227   -0.0530 C   0  0  0  0  0  0  0  0  0  0  0  0
    1.8527   -2.7160   -0.0402 C   0  0  0  0  0  0  0  0  0  0  0  0
    2.6410   -2.3092    1.0399 C   0  0  0  0  0  0  0  0  0  0  0  0
    4.0043   -2.6192    1.0827 C   0  0  0  0  0  0  0  0  0  0  0  0
    4.5886   -3.3804    0.0716 C   0  0  0  0  0  0  0  0  0  0  0  0
    3.7840   -3.8485   -0.9743 C   0  0  0  0  0  0  0  0  0  0  0  0
    2.4288   -3.4875   -1.0550 C   0  0  0  0  0  0  0  0  0  0  0  0
    6.7673   -3.1261    0.9881 C   0  0  0  0  0  0  0  0  0  0  0  0
   -0.1962    1.4895    1.2914 H   0  0  0  0  0  0  0  0  0  0  0  0
    0.1670    2.1043   -0.3553 H   0  0  0  0  0  0  0  0  0  0  0  0
   -2.3604    1.2353    0.1860 H   0  0  0  0  0  0  0  0  0  0  0  0
   -1.5739    0.8589   -1.3542 H   0  0  0  0  0  0  0  0  0  0  0  0
   -1.8327   -0.9668    1.0656 H   0  0  0  0  0  0  0  0  0  0  0  0
   -2.0287   -1.3587   -0.6565 H   0  0  0  0  0  0  0  0  0  0  0  0
    2.2135   -1.7130    1.8400 H   0  0  0  0  0  0  0  0  0  0  0  0
    4.5795   -2.2495    1.9239 H   0  0  0  0  0  0  0  0  0  0  0  0
    4.2140   -4.4994   -1.7330 H   0  0  0  0  0  0  0  0  0  0  0  0
    1.8373   -3.8039   -1.9107 H   0  0  0  0  0  0  0  0  0  0  0  0
    6.7170   -2.0308    0.9672 H   0  0  0  0  0  0  0  0  0  0  0  0
    6.5255   -3.5098    1.9849 H   0  0  0  0  0  0  0  0  0  0  0  0
    7.8010   -3.4096    0.7663 H   0  0  0  0  0  0  0  0  0  0  0  0
  1  5  2  0  0  0  0
  2  9  2  0  0  0  0
  3 13  1  0  0  0  0
  3 16  1  0  0  0  0
  4  5  1  0  0  0  0
  4  8  1  0  0  0  0
  4  9  1  0  0  0  0
  5  6  1  0  0  0  0
  6  7  1  0  0  0  0
  6 17  1  0  0  0  0
  6 18  1  0  0  0  0
  7  8  1  0  0  0  0
  7 19  1  0  0  0  0
  7 20  1  0  0  0  0
  8 21  1  0  0  0  0
  8 22  1  0  0  0  0
  9 10  1  0  0  0  0
 10 11  2  0  0  0  0
 10 15  1  0  0  0  0
 11 12  1  0  0  0  0
 11 23  1  0  0  0  0
 12 13  2  0  0  0  0
 12 24  1  0  0  0  0
 13 14  1  0  0  0  0
 14 15  2  0  0  0  0
 14 25  1  0  0  0  0
 15 26  1  0  0  0  0
 16 27  1  0  0  0  0
 16 28  1  0  0  0  0
 16 29  1  0  0  0  0
M  END
>  <DRUGBANK_ID>
DB04599

>  <COMMON_NAME>
Aniracetam

>  <CAS_NUMBER>
72432-10-1

>  <UNII>
5L16LKN964

>  <SYNONYMS>
1-p-anisoylpyrrolidin-2-one; Aniracetam; Aniracetamun

$$$$
