
 OpenBabel10282417243D

116121  0  0  1  0  0  0  0  0999 V2000
    0.8973    0.0294   -0.0760 H   0  0  0  0  0  0  0  0  0  0  0  0
    1.9904   -0.0002   -0.0435 C   0  0  2  0  0  0  0  0  0  0  0  0
    2.4549    1.3174    0.3969 O   0  0  0  0  0  0  0  0  0  0  0  0
    1.7496    2.5176   -0.1136 C   0  0  1  0  0  0  0  0  0  0  0  0
    2.4816    3.7941    0.3422 C   0  0  2  0  0  0  0  0  0  0  0  0
    2.1470    4.0547    1.7031 O   0  0  0  0  0  0  0  0  0  0  0  0
    2.0858    5.0243   -0.5138 C   0  0  1  0  0  0  0  0  0  0  0  0
    2.8993    6.2620   -0.1058 C   0  0  0  0  0  0  0  0  0  0  0  0
    2.6686    7.3210   -1.0364 O   0  0  0  0  0  0  0  0  0  0  0  0
    2.3140    4.8652   -1.9044 O   0  0  0  0  0  0  0  0  0  0  0  0
    1.7929    3.7153   -2.4945 C   0  0  1  0  0  0  0  0  0  0  0  0
    0.8077    3.9820   -2.8808 H   0  0  0  0  0  0  0  0  0  0  0  0
    2.5517    3.2804   -3.6402 O   0  0  0  0  0  0  0  0  0  0  0  0
    3.9855    3.0471   -3.5232 C   0  0  2  0  0  0  0  0  0  0  0  0
    4.6621    1.6988   -3.0791 C   0  0  1  0  0  0  0  0  0  0  0  0
    4.3436    0.5590   -4.0561 C   0  0  0  0  0  0  0  0  0  0  0  0
    4.7777   -0.6774   -3.4576 O   0  0  0  0  0  0  0  0  0  0  0  0
    6.1193    1.6668   -3.0173 O   0  0  0  0  0  0  0  0  0  0  0  0
    6.7077    2.5785   -2.0859 C   0  0  1  0  0  0  0  0  0  0  0  0
    8.1808    2.7006   -2.2499 O   0  0  0  0  0  0  0  0  0  0  0  0
    8.7770    2.6377   -3.5114 C   0  0  0  0  0  0  0  0  0  0  0  0
    9.4720    1.4291   -3.7179 C   0  0  0  0  0  0  0  0  0  0  0  0
   10.2977    1.2482   -4.8352 C   0  0  0  0  0  0  0  0  0  0  0  0
   11.0478   -0.0573   -5.0311 C   0  0  0  0  0  0  0  0  0  0  0  0
   10.6611   -0.8306   -6.3063 C   0  0  0  0  0  0  0  0  0  0  0  0
   10.9679   -0.1033   -7.6228 C   0  0  0  0  0  0  0  0  0  0  0  0
   12.4278    0.3591   -7.7287 C   0  0  0  0  0  0  0  0  0  0  0  0
   13.3623   -0.8287   -7.8395 C   0  0  0  0  0  0  0  0  0  0  0  0
   10.4274    2.3172   -5.7441 C   0  0  0  0  0  0  0  0  0  0  0  0
    9.7080    3.5009   -5.6269 C   0  0  0  0  0  0  0  0  0  0  0  0
    9.8641    4.3958   -6.6942 O   0  0  0  0  0  0  0  0  0  0  0  0
    8.7411    5.2886   -6.9113 C   0  0  0  0  0  0  0  0  0  0  0  0
    7.6850    4.4453   -7.6959 C   0  0  0  0  0  0  0  0  0  0  0  0
    8.9724    6.4213   -7.9285 C   0  0  0  0  0  0  0  0  0  0  0  0
    8.5991    6.0607   -5.5507 C   0  0  2  0  0  0  0  0  0  0  0  0
    9.5691    6.5261   -5.3154 H   0  0  0  0  0  0  0  0  0  0  0  0
    7.4820    7.1939   -5.5625 C   0  0  0  0  0  0  0  0  0  0  0  0
    6.0854    6.5122   -5.9978 C   0  0  0  0  0  0  0  0  0  0  0  0
    6.0928    5.0925   -5.4020 C   0  0  0  0  0  0  0  0  0  0  0  0
    6.0574    3.6120   -5.8081 C   0  0  0  0  0  0  0  0  0  0  0  0
    6.8526    5.2559   -4.3661 C   0  0  0  0  0  0  0  0  0  0  0  0
    8.3317    5.1000   -4.3686 C   0  0  1  0  0  0  0  0  0  0  0  0
    8.7034    5.5240   -3.4290 H   0  0  0  0  0  0  0  0  0  0  0  0
    8.9152    3.7111   -4.4772 C   0  0  0  0  0  0  0  0  0  0  0  0
    6.1295    3.9470   -2.3183 C   0  0  2  0  0  0  0  0  0  0  0  0
    6.7433    5.0060   -1.5749 O   0  0  0  0  0  0  0  0  0  0  0  0
    4.6693    4.1877   -2.7659 C   0  0  1  0  0  0  0  0  0  0  0  0
    4.3255    5.4363   -3.4273 O   0  0  0  0  0  0  0  0  0  0  0  0
    1.7099    2.5107   -1.6073 C   0  0  2  0  0  0  0  0  0  0  0  0
    0.6262    1.6731   -2.0578 O   0  0  0  0  0  0  0  0  0  0  0  0
    2.3926   -1.0196    0.9111 O   0  0  0  0  0  0  0  0  0  0  0  0
    1.9839   -2.3602    0.5085 C   0  0  2  0  0  0  0  0  0  0  0  0
    2.5126   -3.3889    1.4993 C   0  0  0  0  0  0  0  0  0  0  0  0
    2.0822   -3.0569    2.8075 O   0  0  0  0  0  0  0  0  0  0  0  0
    2.5028   -2.8177   -0.8584 C   0  0  1  0  0  0  0  0  0  0  0  0
    1.9480   -4.0814   -1.2224 O   0  0  0  0  0  0  0  0  0  0  0  0
    2.0967   -1.7886   -1.8510 C   0  0  2  0  0  0  0  0  0  0  0  0
    2.5726   -2.1494   -3.1543 O   0  0  0  0  0  0  0  0  0  0  0  0
    2.6339   -0.4628   -1.3757 C   0  0  1  0  0  0  0  0  0  0  0  0
    2.3662    0.2953   -2.5140 O   0  0  0  0  0  0  0  0  0  0  0  0
    0.7327    2.4820    0.2796 H   0  0  0  0  0  0  0  0  0  0  0  0
    3.5684    3.6268    0.2986 H   0  0  0  0  0  0  0  0  0  0  0  0
    1.1763    4.0917    1.7690 H   0  0  0  0  0  0  0  0  0  0  0  0
    1.0206    5.2404   -0.4080 H   0  0  0  0  0  0  0  0  0  0  0  0
    2.6140    6.6001    0.8917 H   0  0  0  0  0  0  0  0  0  0  0  0
    3.9776    6.0633   -0.1152 H   0  0  0  0  0  0  0  0  0  0  0  0
    2.9420    6.9634   -1.9098 H   0  0  0  0  0  0  0  0  0  0  0  0
    4.1122    3.0806   -4.6000 H   0  0  0  0  0  0  0  0  0  0  0  0
    4.4002    1.4696   -2.0500 H   0  0  0  0  0  0  0  0  0  0  0  0
    3.2878    0.5080   -4.3311 H   0  0  0  0  0  0  0  0  0  0  0  0
    4.8760    0.6432   -5.0025 H   0  0  0  0  0  0  0  0  0  0  0  0
    5.6561   -0.4725   -3.0765 H   0  0  0  0  0  0  0  0  0  0  0  0
    6.5128    2.2778   -1.0533 H   0  0  0  0  0  0  0  0  0  0  0  0
    9.3943    0.6332   -2.9767 H   0  0  0  0  0  0  0  0  0  0  0  0
   12.1265    0.1389   -4.9994 H   0  0  0  0  0  0  0  0  0  0  0  0
   10.8708   -0.7261   -4.1771 H   0  0  0  0  0  0  0  0  0  0  0  0
   11.1905   -1.7924   -6.3085 H   0  0  0  0  0  0  0  0  0  0  0  0
    9.5942   -1.0825   -6.2761 H   0  0  0  0  0  0  0  0  0  0  0  0
   10.7289   -0.7554   -8.4700 H   0  0  0  0  0  0  0  0  0  0  0  0
   10.2819    0.7415   -7.7431 H   0  0  0  0  0  0  0  0  0  0  0  0
   12.5425    1.0152   -8.5983 H   0  0  0  0  0  0  0  0  0  0  0  0
   12.7397    0.9584   -6.8664 H   0  0  0  0  0  0  0  0  0  0  0  0
   13.1099   -1.4204   -8.7230 H   0  0  0  0  0  0  0  0  0  0  0  0
   14.3991   -0.4943   -7.9183 H   0  0  0  0  0  0  0  0  0  0  0  0
   13.2900   -1.4735   -6.9584 H   0  0  0  0  0  0  0  0  0  0  0  0
   11.0894    2.2573   -6.5969 H   0  0  0  0  0  0  0  0  0  0  0  0
    6.6820    4.8747   -7.7553 H   0  0  0  0  0  0  0  0  0  0  0  0
    7.9329    4.2999   -8.7488 H   0  0  0  0  0  0  0  0  0  0  0  0
    7.6633    3.4030   -7.3871 H   0  0  0  0  0  0  0  0  0  0  0  0
    9.8222    7.0425   -7.6560 H   0  0  0  0  0  0  0  0  0  0  0  0
    9.1107    6.0489   -8.9440 H   0  0  0  0  0  0  0  0  0  0  0  0
    8.0775    7.0631   -7.9796 H   0  0  0  0  0  0  0  0  0  0  0  0
    7.4035    7.5980   -4.5293 H   0  0  0  0  0  0  0  0  0  0  0  0
    7.7443    8.0848   -6.1315 H   0  0  0  0  0  0  0  0  0  0  0  0
    5.2774    7.0945   -5.5280 H   0  0  0  0  0  0  0  0  0  0  0  0
    5.9528    6.6069   -7.0711 H   0  0  0  0  0  0  0  0  0  0  0  0
    5.4508    3.2443   -6.6322 H   0  0  0  0  0  0  0  0  0  0  0  0
    7.0154    3.0946   -5.7724 H   0  0  0  0  0  0  0  0  0  0  0  0
    5.7388    3.0527   -4.9509 H   0  0  0  0  0  0  0  0  0  0  0  0
    6.5678    6.0805   -3.6802 H   0  0  0  0  0  0  0  0  0  0  0  0
    6.6295    3.8767   -3.2234 H   0  0  0  0  0  0  0  0  0  0  0  0
    6.1491    5.3575   -0.9000 H   0  0  0  0  0  0  0  0  0  0  0  0
    4.2494    4.3129   -1.7920 H   0  0  0  0  0  0  0  0  0  0  0  0
    3.9336    5.2224   -4.3059 H   0  0  0  0  0  0  0  0  0  0  0  0
    2.6716    2.0717   -1.7809 H   0  0  0  0  0  0  0  0  0  0  0  0
   -0.2056    2.1480   -1.9032 H   0  0  0  0  0  0  0  0  0  0  0  0
    0.8868   -2.3706    0.5203 H   0  0  0  0  0  0  0  0  0  0  0  0
    2.1484   -4.3900    1.2432 H   0  0  0  0  0  0  0  0  0  0  0  0
    3.6084   -3.4058    1.4854 H   0  0  0  0  0  0  0  0  0  0  0  0
    2.3757   -2.1354    2.9375 H   0  0  0  0  0  0  0  0  0  0  0  0
    3.5985   -2.9073   -0.8763 H   0  0  0  0  0  0  0  0  0  0  0  0
    1.1116   -3.9169   -1.6949 H   0  0  0  0  0  0  0  0  0  0  0  0
    1.0062   -1.7232   -1.9552 H   0  0  0  0  0  0  0  0  0  0  0  0
    3.4218   -1.6668   -3.2974 H   0  0  0  0  0  0  0  0  0  0  0  0
    3.7214   -0.4882   -1.2214 H   0  0  0  0  0  0  0  0  0  0  0  0
    1.3985    0.4021   -2.6164 H   0  0  0  0  0  0  0  0  0  0  0  0
  2  1  1  6  0  0  0
  2  3  1  0  0  0  0
  2 51  1  0  0  0  0
  4  3  1  0  0  0  0
  4  5  1  0  0  0  0
  4 49  1  0  0  0  0
  4 61  1  1  0  0  0
  5  6  1  0  0  0  0
  5  7  1  0  0  0  0
  5 62  1  6  0  0  0
  6 63  1  0  0  0  0
  7  8  1  0  0  0  0
  7 10  1  0  0  0  0
  7 64  1  1  0  0  0
  8  9  1  0  0  0  0
  8 65  1  0  0  0  0
  8 66  1  0  0  0  0
  9 67  1  0  0  0  0
 11 10  1  0  0  0  0
 11 13  1  0  0  0  0
 11 12  1  6  0  0  0
 14 13  1  0  0  0  0
 14 15  1  0  0  0  0
 14 47  1  0  0  0  0
 14 68  1  6  0  0  0
 15 16  1  0  0  0  0
 15 18  1  0  0  0  0
 15 69  1  1  0  0  0
 16 17  1  0  0  0  0
 16 70  1  0  0  0  0
 16 71  1  0  0  0  0
 17 72  1  0  0  0  0
 19 18  1  0  0  0  0
 19 20  1  0  0  0  0
 19 73  1  1  0  0  0
 20 21  1  0  0  0  0
 21 22  2  0  0  0  0
 21 44  1  0  0  0  0
 22 23  1  0  0  0  0
 22 74  1  0  0  0  0
 23 24  1  0  0  0  0
 23 29  2  0  0  0  0
 24 25  1  0  0  0  0
 24 75  1  0  0  0  0
 24 76  1  0  0  0  0
 25 26  1  0  0  0  0
 25 77  1  0  0  0  0
 25 78  1  0  0  0  0
 26 27  1  0  0  0  0
 26 79  1  0  0  0  0
 26 80  1  0  0  0  0
 27 28  1  0  0  0  0
 27 81  1  0  0  0  0
 27 82  1  0  0  0  0
 28 83  1  0  0  0  0
 28 84  1  0  0  0  0
 28 85  1  0  0  0  0
 29 30  1  0  0  0  0
 29 86  1  0  0  0  0
 30 31  1  0  0  0  0
 30 44  2  0  0  0  0
 31 32  1  0  0  0  0
 32 33  1  0  0  0  0
 32 34  1  0  0  0  0
 33 87  1  0  0  0  0
 33 88  1  0  0  0  0
 33 89  1  0  0  0  0
 34 90  1  0  0  0  0
 34 91  1  0  0  0  0
 34 92  1  0  0  0  0
 35 32  1  0  0  0  0
 35 36  1  6  0  0  0
 35 37  1  0  0  0  0
 35 42  1  0  0  0  0
 37 38  1  0  0  0  0
 37 93  1  0  0  0  0
 37 94  1  0  0  0  0
 38 39  1  0  0  0  0
 38 95  1  0  0  0  0
 38 96  1  0  0  0  0
 39 40  1  0  0  0  0
 39 41  2  0  0  0  0
 40 97  1  0  0  0  0
 40 98  1  0  0  0  0
 40 99  1  0  0  0  0
 41100  1  0  0  0  0
 42 41  1  0  0  0  0
 42 43  1  1  0  0  0
 42 44  1  0  0  0  0
 45 19  1  0  0  0  0
 45 46  1  0  0  0  0
 45101  1  6  0  0  0
 46102  1  0  0  0  0
 47 45  1  0  0  0  0
 47 48  1  0  0  0  0
 47103  1  1  0  0  0
 48104  1  0  0  0  0
 49 11  1  0  0  0  0
 49 50  1  0  0  0  0
 49105  1  6  0  0  0
 50106  1  0  0  0  0
 52 51  1  0  0  0  0
 52 53  1  0  0  0  0
 52107  1  6  0  0  0
 53 54  1  0  0  0  0
 53108  1  0  0  0  0
 53109  1  0  0  0  0
 54110  1  0  0  0  0
 55 52  1  0  0  0  0
 55 56  1  0  0  0  0
 55 57  1  0  0  0  0
 55111  1  1  0  0  0
 56112  1  0  0  0  0
 57 58  1  0  0  0  0
 57 59  1  0  0  0  0
 57113  1  6  0  0  0
 58114  1  0  0  0  0
 59  2  1  0  0  0  0
 59 60  1  0  0  0  0
 59115  1  1  0  0  0
 60116  1  0  0  0  0
M  END
>  <DRUGBANK_ID>
DB18542

>  <COMMON_NAME>
VB-312

>  <CAS_NUMBER>
2699021-78-6

>  <UNII>
MHF3368LWJ

>  <SYNONYMS>
(2S,3R,4S,5S,6R)-2-(((2S,3R,4S,5R,6R)-2-(((2R,3S,4R,5R,6S)-4,5-dihydroxy-2-(hydroxymethyl)-6-(((6aR,10aR)-6,6,9-trimethyl-3-pentyl-6a,7,8,10a-tetrahydro-6H-benzo[c]chromen-1-yl)oxy)tetrahydro-2H-pyran-3-yl)oxy)-3,5-dihydroxy-6-(hydroxymethyl)tetrahydro-2

$$$$
