
 OpenBabel10282417233D

 29 30  0  0  0  0  0  0  0  0999 V2000
    0.9038   -0.0296   -0.0487 C   0  0  0  0  0  0  0  0  0  0  0  0
    0.3851   -0.2800    1.3738 C   0  0  0  0  0  0  0  0  0  0  0  0
    0.7148    0.9175    2.2719 C   0  0  0  0  0  0  0  0  0  0  0  0
   -1.0562   -0.3192    1.3088 O   0  0  0  0  0  0  0  0  0  0  0  0
    0.9159   -1.6367    1.8662 C   0  0  0  0  0  0  0  0  0  0  0  0
    0.1533   -2.7198    1.4941 N   0  0  0  0  0  0  0  0  0  0  0  0
    0.5274   -3.9592    1.8537 C   0  0  0  0  0  0  0  0  0  0  0  0
    1.6625   -4.1790    2.6399 C   0  0  0  0  0  0  0  0  0  0  0  0
    2.0443   -5.4711    3.0233 C   0  0  0  0  0  0  0  0  0  0  0  0
    1.3808   -6.5629    2.4822 C   0  0  0  0  0  0  0  0  0  0  0  0
    1.8921   -8.1513    2.8902 Cl  0  0  0  0  0  0  0  0  0  0  0  0
    0.3042   -6.3690    1.6278 C   0  0  0  0  0  0  0  0  0  0  0  0
   -0.1790   -5.0729    1.4078 C   0  0  0  0  0  0  0  0  0  0  0  0
    2.4363   -3.0825    3.0125 C   0  0  0  0  0  0  0  0  0  0  0  0
    2.1179   -1.7934    2.5830 C   0  0  0  0  0  0  0  0  0  0  0  0
    2.9365   -0.7614    3.0642 N   0  0  0  0  0  0  0  0  0  0  0  0
    0.5461    0.9342   -0.4292 H   0  0  0  0  0  0  0  0  0  0  0  0
    0.5417   -0.7922   -0.7492 H   0  0  0  0  0  0  0  0  0  0  0  0
    1.9989   -0.0276   -0.0857 H   0  0  0  0  0  0  0  0  0  0  0  0
    0.1053    1.7905    2.0210 H   0  0  0  0  0  0  0  0  0  0  0  0
    0.5175    0.6772    3.3227 H   0  0  0  0  0  0  0  0  0  0  0  0
    1.7472    1.2530    2.1656 H   0  0  0  0  0  0  0  0  0  0  0  0
   -1.3682    0.5502    1.0140 H   0  0  0  0  0  0  0  0  0  0  0  0
    2.8743   -5.6170    3.7068 H   0  0  0  0  0  0  0  0  0  0  0  0
   -0.1662   -7.2122    1.1297 H   0  0  0  0  0  0  0  0  0  0  0  0
   -1.1026   -4.9305    0.8534 H   0  0  0  0  0  0  0  0  0  0  0  0
    3.3346   -3.2394    3.6011 H   0  0  0  0  0  0  0  0  0  0  0  0
    3.8219   -1.0610    3.4586 H   0  0  0  0  0  0  0  0  0  0  0  0
    3.0754    0.0175    2.4354 H   0  0  0  0  0  0  0  0  0  0  0  0
  1  2  1  0  0  0  0
  1 17  1  0  0  0  0
  1 18  1  0  0  0  0
  1 19  1  0  0  0  0
  2  3  1  0  0  0  0
  2  4  1  0  0  0  0
  2  5  1  0  0  0  0
  3 20  1  0  0  0  0
  3 21  1  0  0  0  0
  3 22  1  0  0  0  0
  4 23  1  0  0  0  0
  5  6  2  0  0  0  0
  5 15  1  0  0  0  0
  6  7  1  0  0  0  0
  7  8  2  0  0  0  0
  7 13  1  0  0  0  0
  8  9  1  0  0  0  0
  8 14  1  0  0  0  0
  9 10  2  0  0  0  0
  9 24  1  0  0  0  0
 10 11  1  0  0  0  0
 10 12  1  0  0  0  0
 12 13  2  0  0  0  0
 12 25  1  0  0  0  0
 13 26  1  0  0  0  0
 14 15  2  0  0  0  0
 14 27  1  0  0  0  0
 15 16  1  0  0  0  0
 16 28  1  0  0  0  0
 16 29  1  0  0  0  0
M  END
>  <DRUGBANK_ID>
DB16688

>  <COMMON_NAME>
Reproxalap

>  <CAS_NUMBER>
916056-79-6

>  <UNII>
F0GIZ22IJH

>  <SYNONYMS>
ADX 102; ADX102; ALD-102; NS-2; Reproxalap

$$$$
