531
 OpenBabel10282417103D

 29 29  0  0  1  0  0  0  0  0999 V2000
    0.9208    0.0778   -0.8474 Cl  0  0  0  0  0  0  0  0  0  0  0  0
    0.0468    1.1498    2.0990 Cl  0  0  0  0  0  0  0  0  0  0  0  0
    3.1752   -1.6671    3.5182 P   0  0  3  0  0  0  0  0  0  0  0  0
    2.6562   -0.3935    4.3831 O   0  0  0  0  0  0  0  0  0  0  0  0
    2.7411   -2.9329    4.1595 O   0  0  0  0  0  0  0  0  0  0  0  0
    2.5744   -1.4070    1.9525 N   0  0  0  0  0  0  0  0  0  0  0  0
    4.7756   -1.3860    3.6653 N   0  0  0  0  0  0  0  0  0  0  0  0
    5.2821   -0.1622    3.1227 C   0  0  0  0  0  0  0  0  0  0  0  0
    4.3947    1.0627    3.4566 C   0  0  0  0  0  0  0  0  0  0  0  0
    2.9125    0.8381    3.7607 C   0  0  0  0  0  0  0  0  0  0  0  0
    3.0925   -0.4352    0.9418 C   0  0  0  0  0  0  0  0  0  0  0  0
    1.0930   -1.5250    1.9545 C   0  0  0  0  0  0  0  0  0  0  0  0
    2.6317   -0.1754   -0.5090 C   0  0  0  0  0  0  0  0  0  0  0  0
    0.1860   -0.5176    2.7305 C   0  0  0  0  0  0  0  0  0  0  0  0
    5.3889   -2.1823    3.5546 H   0  0  0  0  0  0  0  0  0  0  0  0
    5.3906   -0.3472    2.0586 H   0  0  0  0  0  0  0  0  0  0  0  0
    6.3091    0.0537    3.4285 H   0  0  0  0  0  0  0  0  0  0  0  0
    4.4776    1.7895    2.6378 H   0  0  0  0  0  0  0  0  0  0  0  0
    4.7922    1.5290    4.3559 H   0  0  0  0  0  0  0  0  0  0  0  0
    2.3469    0.8181    2.8534 H   0  0  0  0  0  0  0  0  0  0  0  0
    2.4236    1.6671    4.2735 H   0  0  0  0  0  0  0  0  0  0  0  0
    4.1432   -0.6799    0.7738 H   0  0  0  0  0  0  0  0  0  0  0  0
    3.1207    0.5806    1.3217 H   0  0  0  0  0  0  0  0  0  0  0  0
    0.7280   -1.6848    0.9436 H   0  0  0  0  0  0  0  0  0  0  0  0
    0.8876   -2.4962    2.4237 H   0  0  0  0  0  0  0  0  0  0  0  0
    3.0117   -0.9506   -1.1718 H   0  0  0  0  0  0  0  0  0  0  0  0
    3.1024    0.7735   -0.8075 H   0  0  0  0  0  0  0  0  0  0  0  0
   -0.8383   -0.8871    2.7214 H   0  0  0  0  0  0  0  0  0  0  0  0
    0.4599   -0.4445    3.7849 H   0  0  0  0  0  0  0  0  0  0  0  0
  1 13  1  0  0  0  0
  2 14  1  0  0  0  0
  3  4  1  0  0  0  0
  3  5  2  0  0  0  0
  3  6  1  0  0  0  0
  3  7  1  0  0  0  0
  4 10  1  0  0  0  0
  6 11  1  0  0  0  0
  6 12  1  0  0  0  0
  7  8  1  0  0  0  0
  7 15  1  0  0  0  0
  8  9  1  0  0  0  0
  8 16  1  0  0  0  0
  8 17  1  0  0  0  0
  9 10  1  0  0  0  0
  9 18  1  0  0  0  0
  9 19  1  0  0  0  0
 10 20  1  0  0  0  0
 10 21  1  0  0  0  0
 11 13  1  0  0  0  0
 11 22  1  0  0  0  0
 11 23  1  0  0  0  0
 12 14  1  0  0  0  0
 12 24  1  0  0  0  0
 12 25  1  0  0  0  0
 13 26  1  0  0  0  0
 13 27  1  0  0  0  0
 14 28  1  0  0  0  0
 14 29  1  0  0  0  0
M  END
>  <DRUGBANK_ID>
DB00531

>  <SECONDARY_ACCESSION_NUMBERS>
APRD00408

>  <COMMON_NAME>
Cyclophosphamide

>  <CAS_NUMBER>
50-18-0

>  <UNII>
6UXW23996M

>  <SYNONYMS>
(+-)-Cyclophosphamide; (Â±)-2-(BIS(2-CHLOROETHYL)AMINO)TETRAHYDRO-2H-1,3,2-OXAZAPHOSPHORINE 2-OXIDE MONOHYDRATE; (RS)-Cyclophosphamide; 2-[Bis(2-chloroethylamino)]-tetrahydro-2H-1,3,2-oxazaphosphorine-2-oxide; Anhydrous cyclophosphamide; Bis(2-chloroethyl)phosphoramide cyclic propanolamide ester; Ciclofosfamida; Ciclofosfamide; Cyclophosphamid; Cyclophosphamide; Cyclophosphamide anhydrous; Cyclophosphamidum; Cytophosphane; N,N-Bis(2-chloroethyl)tetrahydro-2H-1,3,2-oxazaphosphorin-2-amine 2-oxide

$$$$
