
 OpenBabel10282417153D

108111  0  0  1  0  0  0  0  0999 V2000
    4.0015    1.2388    0.1530 C   0  0  0  0  0  0  0  0  0  0  0  0
    3.5861    2.5151   -0.4928 C   0  0  2  0  0  0  0  0  0  0  0  0
    3.8540    3.7327    0.3943 C   0  0  0  0  0  0  0  0  0  0  0  0
    2.6862    3.8774    1.3926 C   0  0  0  0  0  0  0  0  0  0  0  0
    2.8983    3.0908    2.6563 C   0  0  2  0  0  0  0  0  0  0  0  0
    2.9257    1.5121    2.6070 C   0  0  0  0  0  0  0  0  0  0  0  0
    2.9511    0.8013    3.9079 C   0  0  0  0  0  0  0  0  0  0  0  0
    1.8383    0.6256    1.6238 C   0  0  0  0  0  0  0  0  0  0  0  0
    1.9284    3.4555    3.6095 O   0  0  0  0  0  0  0  0  0  0  0  0
    0.3796    2.9840    3.3943 S   0  0  0  0  0  0  0  0  0  0  0  0
   -0.2389    3.7650    2.3547 O   0  0  0  0  0  0  0  0  0  0  0  0
    0.1963    1.5540    3.4501 O   0  0  0  0  0  0  0  0  0  0  0  0
   -0.3010    3.3989    4.7654 O   0  0  0  0  0  0  0  0  0  0  0  0
    1.7983    2.5669   -0.6526 C   0  0  1  0  0  0  0  0  0  0  0  0
    0.6535    4.2163   -0.6654 C   0  0  0  0  0  0  0  0  0  0  0  0
    1.0779    5.0834   -1.8648 C   0  0  0  0  0  0  0  0  0  0  0  0
    1.9797    3.9897   -1.9076 C   0  0  2  0  0  0  0  0  0  0  0  0
    0.9440    2.7022   -1.7663 C   0  0  2  0  0  0  0  0  0  0  0  0
    0.4513    2.3971   -3.0642 C   0  0  0  0  0  0  0  0  0  0  0  0
    1.7044    2.2625   -3.7561 C   0  0  0  0  0  0  0  0  0  0  0  0
    2.8071    3.4219   -3.8640 C   0  0  1  0  0  0  0  0  0  0  0  0
    3.2816    3.9215   -2.6077 C   0  0  1  0  0  0  0  0  0  0  0  0
    4.1794    5.1536   -2.5228 C   0  0  1  0  0  0  0  0  0  0  0  0
    5.3530    5.0162   -3.4443 C   0  0  0  0  0  0  0  0  0  0  0  0
    5.0193    4.5601   -4.8657 C   0  0  2  0  0  0  0  0  0  0  0  0
    4.4919    3.2347   -4.8934 C   0  0  2  0  0  0  0  0  0  0  0  0
    5.2405    2.0896   -4.4614 C   0  0  0  0  0  0  0  0  0  0  0  0
    4.0301    1.2559   -4.7138 C   0  0  0  0  0  0  0  0  0  0  0  0
    2.9352    2.4137   -5.6529 C   0  0  1  0  0  0  0  0  0  0  0  0
    3.5585    4.3020   -5.5109 C   0  0  0  0  0  0  0  0  0  0  0  0
    1.6706    2.3351   -6.3770 N   0  0  0  0  0  0  0  0  0  0  0  0
    1.6866    2.0474   -7.7808 C   0  0  0  0  0  0  0  0  0  0  0  0
    0.6242    3.0243   -8.2121 C   0  0  0  0  0  0  0  0  0  0  0  0
    1.0830    4.5028   -8.0836 C   0  0  0  0  0  0  0  0  0  0  0  0
    2.1932    4.8306   -8.9790 N   0  0  0  0  0  0  0  0  0  0  0  0
    2.6825    6.2137   -8.8384 C   0  0  0  0  0  0  0  0  0  0  0  0
    3.3383    6.6168   -7.5279 C   0  0  0  0  0  0  0  0  0  0  0  0
    4.6400    5.8731   -7.3660 C   0  0  0  0  0  0  0  0  0  0  0  0
    5.8195    5.8547   -8.2668 C   0  0  0  0  0  0  0  0  0  0  0  0
    6.3258    7.1689   -8.0415 N   0  0  0  0  0  0  0  0  0  0  0  0
    4.5555    3.0024   -6.8334 C   0  0  0  0  0  0  0  0  0  0  0  0
    3.4577    6.3310   -2.8331 O   0  0  0  0  0  0  0  0  0  0  0  0
   -0.2519    2.0191   -0.8205 C   0  0  0  0  0  0  0  0  0  0  0  0
    3.3192    1.5960    0.8221 H   0  0  0  0  0  0  0  0  0  0  0  0
    4.9197    1.1505    0.7336 H   0  0  0  0  0  0  0  0  0  0  0  0
    3.6067    0.2649   -0.1488 H   0  0  0  0  0  0  0  0  0  0  0  0
    4.3414    2.2794   -1.2483 H   0  0  0  0  0  0  0  0  0  0  0  0
    4.8759    3.9350    0.7054 H   0  0  0  0  0  0  0  0  0  0  0  0
    3.7986    4.6093   -0.2159 H   0  0  0  0  0  0  0  0  0  0  0  0
    2.3768    4.9319    1.4592 H   0  0  0  0  0  0  0  0  0  0  0  0
    1.7448    3.4496    1.0858 H   0  0  0  0  0  0  0  0  0  0  0  0
    3.8977    3.4802    2.9244 H   0  0  0  0  0  0  0  0  0  0  0  0
    3.9971    1.3567    2.3790 H   0  0  0  0  0  0  0  0  0  0  0  0
    1.9943    0.8552    4.3908 H   0  0  0  0  0  0  0  0  0  0  0  0
    3.1790   -0.2407    3.6676 H   0  0  0  0  0  0  0  0  0  0  0  0
    3.7115    1.2462    4.5459 H   0  0  0  0  0  0  0  0  0  0  0  0
    1.8272    0.7854    0.5552 H   0  0  0  0  0  0  0  0  0  0  0  0
    2.0515   -0.4470    1.5867 H   0  0  0  0  0  0  0  0  0  0  0  0
    0.7926    0.8738    1.6911 H   0  0  0  0  0  0  0  0  0  0  0  0
   -1.0657    2.7861    4.7909 H   0  0  0  0  0  0  0  0  0  0  0  0
    1.8086    1.5258   -1.0843 H   0  0  0  0  0  0  0  0  0  0  0  0
    0.6135    5.0277    0.0624 H   0  0  0  0  0  0  0  0  0  0  0  0
   -0.4423    4.0670   -0.7180 H   0  0  0  0  0  0  0  0  0  0  0  0
    1.5988    5.9894   -1.5548 H   0  0  0  0  0  0  0  0  0  0  0  0
    0.5509    5.1677   -2.8096 H   0  0  0  0  0  0  0  0  0  0  0  0
    2.4546    4.3329   -1.0147 H   0  0  0  0  0  0  0  0  0  0  0  0
   -0.0883    1.4450   -3.1648 H   0  0  0  0  0  0  0  0  0  0  0  0
   -0.1995    3.1985   -3.4401 H   0  0  0  0  0  0  0  0  0  0  0  0
    2.1074    1.3418   -3.3988 H   0  0  0  0  0  0  0  0  0  0  0  0
    1.1192    2.1107   -4.6247 H   0  0  0  0  0  0  0  0  0  0  0  0
    2.1212    4.2807   -4.1464 H   0  0  0  0  0  0  0  0  0  0  0  0
    3.9291    3.0937   -2.4699 H   0  0  0  0  0  0  0  0  0  0  0  0
    4.6622    5.3035   -1.5496 H   0  0  0  0  0  0  0  0  0  0  0  0
    6.0672    4.3076   -2.9903 H   0  0  0  0  0  0  0  0  0  0  0  0
    5.8519    5.9927   -3.4473 H   0  0  0  0  0  0  0  0  0  0  0  0
    5.9336    4.5851   -5.4567 H   0  0  0  0  0  0  0  0  0  0  0  0
    6.0279    2.0124   -5.2091 H   0  0  0  0  0  0  0  0  0  0  0  0
    5.5884    2.1758   -3.4425 H   0  0  0  0  0  0  0  0  0  0  0  0
    4.3978    0.3775   -5.2530 H   0  0  0  0  0  0  0  0  0  0  0  0
    3.6578    0.8363   -3.7834 H   0  0  0  0  0  0  0  0  0  0  0  0
    3.1804    1.5475   -6.3200 H   0  0  0  0  0  0  0  0  0  0  0  0
    3.3133    5.2112   -4.8238 H   0  0  0  0  0  0  0  0  0  0  0  0
    2.8145    4.8829   -6.0322 H   0  0  0  0  0  0  0  0  0  0  0  0
    1.3200    3.2606   -6.1595 H   0  0  0  0  0  0  0  0  0  0  0  0
    2.6118    2.1969   -8.3518 H   0  0  0  0  0  0  0  0  0  0  0  0
    1.4496    0.9864   -7.9111 H   0  0  0  0  0  0  0  0  0  0  0  0
    0.3067    2.7932   -9.2208 H   0  0  0  0  0  0  0  0  0  0  0  0
   -0.2377    2.8642   -7.5412 H   0  0  0  0  0  0  0  0  0  0  0  0
    0.2299    5.1531   -8.2542 H   0  0  0  0  0  0  0  0  0  0  0  0
    1.3347    4.7420   -7.0523 H   0  0  0  0  0  0  0  0  0  0  0  0
    2.9588    4.1667   -8.8747 H   0  0  0  0  0  0  0  0  0  0  0  0
    3.4266    6.3694   -9.6210 H   0  0  0  0  0  0  0  0  0  0  0  0
    1.8453    6.8832   -8.9987 H   0  0  0  0  0  0  0  0  0  0  0  0
    3.5372    7.6692   -7.3648 H   0  0  0  0  0  0  0  0  0  0  0  0
    2.5837    6.4277   -6.7568 H   0  0  0  0  0  0  0  0  0  0  0  0
    5.0213    6.0350   -6.3671 H   0  0  0  0  0  0  0  0  0  0  0  0
    4.3379    4.9065   -7.6116 H   0  0  0  0  0  0  0  0  0  0  0  0
    6.5263    5.0669   -7.9478 H   0  0  0  0  0  0  0  0  0  0  0  0
    5.4984    5.6005   -9.2814 H   0  0  0  0  0  0  0  0  0  0  0  0
    7.0091    7.3939   -8.7418 H   0  0  0  0  0  0  0  0  0  0  0  0
    5.5395    7.8121   -8.1100 H   0  0  0  0  0  0  0  0  0  0  0  0
    3.6223    3.4813   -7.2630 H   0  0  0  0  0  0  0  0  0  0  0  0
    5.3928    3.3716   -7.3950 H   0  0  0  0  0  0  0  0  0  0  0  0
    4.4300    1.9954   -7.2263 H   0  0  0  0  0  0  0  0  0  0  0  0
    3.5537    6.9613   -2.0995 H   0  0  0  0  0  0  0  0  0  0  0  0
   -0.2843    0.9271   -0.9292 H   0  0  0  0  0  0  0  0  0  0  0  0
   -0.0587    2.1763    0.2568 H   0  0  0  0  0  0  0  0  0  0  0  0
   -1.2391    2.4289   -1.0135 H   0  0  0  0  0  0  0  0  0  0  0  0
  1 44  1  0  0  0  0
  1 45  1  0  0  0  0
  1 46  1  0  0  0  0
  2 47  1  6  0  0  0
  2  3  1  0  0  0  0
  2  1  1  0  0  0  0
  3  4  1  0  0  0  0
  3 48  1  0  0  0  0
  3 49  1  0  0  0  0
  4 50  1  0  0  0  0
  4 51  1  0  0  0  0
  5  9  1  0  0  0  0
  5 52  1  1  0  0  0
  5  6  1  0  0  0  0
  5  4  1  0  0  0  0
  6  7  1  0  0  0  0
  6  8  1  0  0  0  0
  6 53  1  0  0  0  0
  7 54  1  0  0  0  0
  7 55  1  0  0  0  0
  7 56  1  0  0  0  0
  8 57  1  0  0  0  0
  8 58  1  0  0  0  0
  8 59  1  0  0  0  0
  9 10  1  0  0  0  0
 10 11  2  0  0  0  0
 10 12  2  0  0  0  0
 10 13  1  0  0  0  0
 13 60  1  0  0  0  0
 14 15  1  0  0  0  0
 14 18  1  0  0  0  0
 14 61  1  1  0  0  0
 14  2  1  0  0  0  0
 15 16  1  0  0  0  0
 15 62  1  0  0  0  0
 15 63  1  0  0  0  0
 16 64  1  0  0  0  0
 16 65  1  0  0  0  0
 17 16  1  0  0  0  0
 17 18  1  0  0  0  0
 17 66  1  6  0  0  0
 18 19  1  0  0  0  0
 18 43  1  6  0  0  0
 19 20  1  0  0  0  0
 19 67  1  0  0  0  0
 19 68  1  0  0  0  0
 20 69  1  0  0  0  0
 20 70  1  0  0  0  0
 21 20  1  0  0  0  0
 21 22  1  0  0  0  0
 21 26  1  0  0  0  0
 21 71  1  6  0  0  0
 22 17  1  0  0  0  0
 22 23  1  0  0  0  0
 22 72  1  1  0  0  0
 23 24  1  0  0  0  0
 23 73  1  1  0  0  0
 23 42  1  0  0  0  0
 24 74  1  0  0  0  0
 24 75  1  0  0  0  0
 25 24  1  0  0  0  0
 25 26  1  0  0  0  0
 25 30  1  0  0  0  0
 25 76  1  1  0  0  0
 26 27  1  0  0  0  0
 26 41  1  1  0  0  0
 27 28  1  0  0  0  0
 27 77  1  0  0  0  0
 27 78  1  0  0  0  0
 28 29  1  0  0  0  0
 28 79  1  0  0  0  0
 28 80  1  0  0  0  0
 29 30  1  0  0  0  0
 29 81  1  1  0  0  0
 29 31  1  0  0  0  0
 30 82  1  0  0  0  0
 30 83  1  0  0  0  0
 31 32  1  0  0  0  0
 31 84  1  0  0  0  0
 32 33  1  0  0  0  0
 32 85  1  0  0  0  0
 32 86  1  0  0  0  0
 33 34  1  0  0  0  0
 33 87  1  0  0  0  0
 33 88  1  0  0  0  0
 34 35  1  0  0  0  0
 34 89  1  0  0  0  0
 34 90  1  0  0  0  0
 35 36  1  0  0  0  0
 35 91  1  0  0  0  0
 36 37  1  0  0  0  0
 36 92  1  0  0  0  0
 36 93  1  0  0  0  0
 37 38  1  0  0  0  0
 37 94  1  0  0  0  0
 37 95  1  0  0  0  0
 38 39  1  0  0  0  0
 38 96  1  0  0  0  0
 38 97  1  0  0  0  0
 39 40  1  0  0  0  0
 39 98  1  0  0  0  0
 39 99  1  0  0  0  0
 40100  1  0  0  0  0
 40101  1  0  0  0  0
 41102  1  0  0  0  0
 41103  1  0  0  0  0
 41104  1  0  0  0  0
 42105  1  0  0  0  0
 43106  1  0  0  0  0
 43107  1  0  0  0  0
 43108  1  0  0  0  0
M  END
>  <DRUGBANK_ID>
DB06461

>  <COMMON_NAME>
Squalamine

>  <CAS_NUMBER>
148717-90-2

>  <UNII>
F8PO54Z4V7

>  <SYNONYMS>
Squalamine

$$$$
