912
 OpenBabel10282417113D

 69 71  0  0  1  0  0  0  0  0999 V2000
    5.9724   -3.6536   -0.8513 O   0  0  0  0  0  0  0  0  0  0  0  0
    5.6687   -4.4756    5.1469 O   0  0  0  0  0  0  0  0  0  0  0  0
    1.5066   -4.9784    4.8855 O   0  0  0  0  0  0  0  0  0  0  0  0
    3.3798   -5.4481    5.9956 O   0  0  0  0  0  0  0  0  0  0  0  0
    2.7712    1.5359    0.7098 N   0  0  0  0  0  0  0  0  0  0  0  0
    5.0317   -1.7128   -1.4121 N   0  0  0  0  0  0  0  0  0  0  0  0
    2.6097    1.5103    2.1556 C   0  0  0  0  0  0  0  0  0  0  0  0
    3.6294    2.6162    0.3551 C   0  0  0  0  0  0  0  0  0  0  0  0
    2.2135    2.9565    2.5934 C   0  0  0  0  0  0  0  0  0  0  0  0
    3.3174    4.0395    0.6712 C   0  0  0  0  0  0  0  0  0  0  0  0
    3.1714    4.0893    2.1573 C   0  0  0  0  0  0  0  0  0  0  0  0
    4.5174   -0.3530   -1.2319 C   0  0  2  0  0  0  0  0  0  0  0  0
    2.2764    0.6150   -0.2081 C   0  0  0  0  0  0  0  0  0  0  0  0
    2.9948   -0.2935   -1.0704 C   0  0  0  0  0  0  0  0  0  0  0  0
    5.1295    0.4991   -2.4029 C   0  0  0  0  0  0  0  0  0  0  0  0
    4.9364    1.9757   -2.1728 C   0  0  0  0  0  0  0  0  0  0  0  0
    0.8796    0.6224   -0.3652 C   0  0  0  0  0  0  0  0  0  0  0  0
    2.2728   -1.2157   -1.8820 C   0  0  0  0  0  0  0  0  0  0  0  0
    5.8332    2.3418   -0.9694 C   0  0  0  0  0  0  0  0  0  0  0  0
    5.1928    3.0639   -3.1793 C   0  0  0  0  0  0  0  0  0  0  0  0
    0.1939   -0.2963   -1.1685 C   0  0  0  0  0  0  0  0  0  0  0  0
    0.8883   -1.2276   -1.9186 C   0  0  0  0  0  0  0  0  0  0  0  0
    5.6165   -2.5287   -0.4969 C   0  0  0  0  0  0  0  0  0  0  0  0
    5.8149   -2.0339    0.9181 C   0  0  0  0  0  0  0  0  0  0  0  0
    5.0145   -2.7979    1.9292 C   0  0  0  0  0  0  0  0  0  0  0  0
    5.6630   -3.2469    3.0708 C   0  0  0  0  0  0  0  0  0  0  0  0
    3.6387   -2.9562    1.8321 C   0  0  0  0  0  0  0  0  0  0  0  0
    4.9947   -3.9478    4.0779 C   0  0  0  0  0  0  0  0  0  0  0  0
    2.9295   -3.5453    2.8811 C   0  0  0  0  0  0  0  0  0  0  0  0
    3.5946   -4.1098    3.9892 C   0  0  0  0  0  0  0  0  0  0  0  0
    2.8438   -4.8853    5.0334 C   0  0  0  0  0  0  0  0  0  0  0  0
    7.0892   -4.3200    5.2213 C   0  0  0  0  0  0  0  0  0  0  0  0
    7.8288   -5.1480    4.1731 C   0  0  0  0  0  0  0  0  0  0  0  0
    1.0896   -4.5812    4.1052 H   0  0  0  0  0  0  0  0  0  0  0  0
    4.9542   -2.1339   -2.3297 H   0  0  0  0  0  0  0  0  0  0  0  0
    3.5786    1.2387    2.6066 H   0  0  0  0  0  0  0  0  0  0  0  0
    1.8819    0.7631    2.4771 H   0  0  0  0  0  0  0  0  0  0  0  0
    3.5834    2.7037   -0.6859 H   0  0  0  0  0  0  0  0  0  0  0  0
    4.5544    2.4373    0.9070 H   0  0  0  0  0  0  0  0  0  0  0  0
    2.1086    2.9998    3.6746 H   0  0  0  0  0  0  0  0  0  0  0  0
    1.2516    3.1744    2.1155 H   0  0  0  0  0  0  0  0  0  0  0  0
    2.4501    4.3735    0.0948 H   0  0  0  0  0  0  0  0  0  0  0  0
    4.1633    4.6696    0.3442 H   0  0  0  0  0  0  0  0  0  0  0  0
    2.8172    5.0883    2.4215 H   0  0  0  0  0  0  0  0  0  0  0  0
    4.1656    3.9629    2.6111 H   0  0  0  0  0  0  0  0  0  0  0  0
    4.8877   -0.0222   -0.2771 H   0  0  0  0  0  0  0  0  0  0  0  0
    6.2091    0.3228   -2.4437 H   0  0  0  0  0  0  0  0  0  0  0  0
    4.6981    0.2019   -3.3621 H   0  0  0  0  0  0  0  0  0  0  0  0
    3.8396    2.0180   -2.1352 H   0  0  0  0  0  0  0  0  0  0  0  0
    0.3088    1.4100    0.1218 H   0  0  0  0  0  0  0  0  0  0  0  0
    2.7911   -1.9519   -2.4960 H   0  0  0  0  0  0  0  0  0  0  0  0
    6.9033    2.2855   -1.1320 H   0  0  0  0  0  0  0  0  0  0  0  0
    5.6374    3.3665   -0.6348 H   0  0  0  0  0  0  0  0  0  0  0  0
    5.7021    1.6325   -0.1541 H   0  0  0  0  0  0  0  0  0  0  0  0
    4.7323    2.8501   -4.1406 H   0  0  0  0  0  0  0  0  0  0  0  0
    4.7348    3.9945   -2.7948 H   0  0  0  0  0  0  0  0  0  0  0  0
    6.2623    3.2404   -3.2686 H   0  0  0  0  0  0  0  0  0  0  0  0
   -0.8903   -0.2801   -1.1982 H   0  0  0  0  0  0  0  0  0  0  0  0
    0.3647   -1.9395   -2.5516 H   0  0  0  0  0  0  0  0  0  0  0  0
    6.8933   -2.0918    1.1150 H   0  0  0  0  0  0  0  0  0  0  0  0
    5.5685   -0.9896    1.0906 H   0  0  0  0  0  0  0  0  0  0  0  0
    6.7260   -3.0407    3.1277 H   0  0  0  0  0  0  0  0  0  0  0  0
    3.1013   -2.6034    0.9540 H   0  0  0  0  0  0  0  0  0  0  0  0
    1.8522   -3.5265    2.7848 H   0  0  0  0  0  0  0  0  0  0  0  0
    7.3648   -3.2572    5.1996 H   0  0  0  0  0  0  0  0  0  0  0  0
    7.3896   -4.6824    6.2107 H   0  0  0  0  0  0  0  0  0  0  0  0
    7.5834   -4.8776    3.1428 H   0  0  0  0  0  0  0  0  0  0  0  0
    8.9091   -5.0269    4.2803 H   0  0  0  0  0  0  0  0  0  0  0  0
    7.5555   -6.2017    4.2626 H   0  0  0  0  0  0  0  0  0  0  0  0
  1 23  2  0  0  0  0
  2 28  1  0  0  0  0
  2 32  1  0  0  0  0
  3 31  1  0  0  0  0
  3 34  1  0  0  0  0
  4 31  2  0  0  0  0
  5  7  1  0  0  0  0
  5  8  1  0  0  0  0
  5 13  1  0  0  0  0
  6 23  1  0  0  0  0
  6 35  1  0  0  0  0
  7  9  1  0  0  0  0
  7 36  1  0  0  0  0
  7 37  1  0  0  0  0
  8 10  1  0  0  0  0
  8 38  1  0  0  0  0
  8 39  1  0  0  0  0
  9 11  1  0  0  0  0
  9 40  1  0  0  0  0
  9 41  1  0  0  0  0
 10 11  1  0  0  0  0
 10 42  1  0  0  0  0
 10 43  1  0  0  0  0
 11 44  1  0  0  0  0
 11 45  1  0  0  0  0
 12 15  1  0  0  0  0
 12 46  1  1  0  0  0
 12 14  1  0  0  0  0
 12  6  1  0  0  0  0
 13 14  1  0  0  0  0
 13 17  2  0  0  0  0
 14 18  2  0  0  0  0
 15 16  1  0  0  0  0
 15 47  1  0  0  0  0
 15 48  1  0  0  0  0
 16 19  1  0  0  0  0
 16 20  1  0  0  0  0
 16 49  1  0  0  0  0
 17 21  1  0  0  0  0
 17 50  1  0  0  0  0
 18 22  1  0  0  0  0
 18 51  1  0  0  0  0
 19 52  1  0  0  0  0
 19 53  1  0  0  0  0
 19 54  1  0  0  0  0
 20 55  1  0  0  0  0
 20 56  1  0  0  0  0
 20 57  1  0  0  0  0
 21 22  2  0  0  0  0
 21 58  1  0  0  0  0
 22 59  1  0  0  0  0
 23 24  1  0  0  0  0
 24 25  1  0  0  0  0
 24 60  1  0  0  0  0
 24 61  1  0  0  0  0
 25 26  2  0  0  0  0
 25 27  1  0  0  0  0
 26 28  1  0  0  0  0
 26 62  1  0  0  0  0
 27 29  2  0  0  0  0
 27 63  1  0  0  0  0
 28 30  2  0  0  0  0
 29 30  1  0  0  0  0
 29 64  1  0  0  0  0
 30 31  1  0  0  0  0
 32 33  1  0  0  0  0
 32 65  1  0  0  0  0
 32 66  1  0  0  0  0
 33 67  1  0  0  0  0
 33 68  1  0  0  0  0
 33 69  1  0  0  0  0
M  END
>  <DRUGBANK_ID>
DB00912

>  <SECONDARY_ACCESSION_NUMBERS>
APRD00439

>  <COMMON_NAME>
Repaglinide

>  <CAS_NUMBER>
135062-02-1

>  <UNII>
668Z8C33LU

>  <SYNONYMS>
Repaglinida; Repaglinide; Repaglinidum

$$$$
