
 OpenBabel10282417183D

 51 50  0  0  0  0  0  0  0  0999 V2000
   -0.7320    1.1400    0.1000 C   0  0  0  0  0  0  0  0  0  0  0  0
    0.6630    1.2080   -0.0480 C   0  0  0  0  0  0  0  0  0  0  0  0
    1.3710    0.1170   -0.0510 C   0  0  0  0  0  0  0  0  0  0  0  0
    0.7450   -1.1270    0.1040 C   0  0  0  0  0  0  0  0  0  0  0  0
   -0.6590   -1.2280   -0.0510 C   0  0  0  0  0  0  0  0  0  0  0  0
   -1.3900   -0.1120   -0.0540 C   0  0  0  0  0  0  0  0  0  0  0  0
   -1.5975   -3.1490   -0.2778 I   0  0  0  0  0  0  0  0  0  0  0  0
    2.8794    0.1915   -0.2229 C   0  0  0  0  0  0  0  0  0  0  0  0
    3.1951    0.8239   -1.5118 N   0  0  0  0  0  0  0  0  0  0  0  0
    3.9812    2.0655   -1.5483 C   0  0  0  0  0  0  0  0  0  0  0  0
    4.2969    2.6979   -2.8372 N   0  0  0  0  0  0  0  0  0  0  0  0
    4.4023    2.6107   -0.4274 N   0  0  0  0  0  0  0  0  0  0  0  0
    0.0928    0.0919    1.4478 S   0  0  0  0  0  0  0  0  0  0  0  0
   -0.0143    1.8444    2.1444 O   0  0  0  0  0  0  0  0  0  0  0  0
    0.0046    0.0081   -0.9101 O   0  0  0  0  0  0  0  0  0  0  0  0
    0.0684   -0.9564    2.4876 O   0  0  0  0  0  0  0  0  0  0  0  0
    1.9453    0.8625    1.8939 O   0  0  0  0  0  0  0  0  0  0  0  0
   -0.7320    1.1400    0.1000 C   0  0  0  0  0  0  0  0  0  0  0  0
    0.6630    1.2080   -0.0480 C   0  0  0  0  0  0  0  0  0  0  0  0
    1.3710    0.1170   -0.0510 C   0  0  0  0  0  0  0  0  0  0  0  0
    0.7450   -1.1270    0.1040 C   0  0  0  0  0  0  0  0  0  0  0  0
   -0.6590   -1.2280   -0.0510 C   0  0  0  0  0  0  0  0  0  0  0  0
   -1.3900   -0.1120   -0.0540 C   0  0  0  0  0  0  0  0  0  0  0  0
   -1.5975   -3.1490   -0.2778 I   0  0  0  0  0  0  0  0  0  0  0  0
    2.8794    0.1915   -0.2229 C   0  0  0  0  0  0  0  0  0  0  0  0
    3.1951    0.8239   -1.5118 N   0  0  0  0  0  0  0  0  0  0  0  0
    3.9812    2.0655   -1.5483 C   0  0  0  0  0  0  0  0  0  0  0  0
    4.2969    2.6979   -2.8372 N   0  0  0  0  0  0  0  0  0  0  0  0
    4.4023    2.6107   -0.4274 N   0  0  0  0  0  0  0  0  0  0  0  0
   -1.2946    2.0215    0.3264 H   0  0  0  0  0  0  0  0  0  0  0  0
    1.1435    2.1577   -0.1583 H   0  0  0  0  0  0  0  0  0  0  0  0
    1.3244   -1.9955    0.3381 H   0  0  0  0  0  0  0  0  0  0  0  0
   -2.4527   -0.1577   -0.1702 H   0  0  0  0  0  0  0  0  0  0  0  0
    3.3007    0.7713    0.5716 H   0  0  0  0  0  0  0  0  0  0  0  0
    3.2902   -0.7963   -0.2001 H   0  0  0  0  0  0  0  0  0  0  0  0
    2.8687    0.4012   -2.3808 H   0  0  0  0  0  0  0  0  0  0  0  0
    4.8424    3.5595   -2.8625 H   0  0  0  0  0  0  0  0  0  0  0  0
    3.9705    2.2753   -3.7062 H   0  0  0  0  0  0  0  0  0  0  0  0
    4.9478    3.4722   -0.4527 H   0  0  0  0  0  0  0  0  0  0  0  0
    0.9752    1.9600    1.9232 H   0  0  0  0  0  0  0  0  0  0  0  0
    2.2805    1.7090    1.0400 H   0  0  0  0  0  0  0  0  0  0  0  0
   -1.2946    2.0215    0.3264 H   0  0  0  0  0  0  0  0  0  0  0  0
    1.1435    2.1577   -0.1583 H   0  0  0  0  0  0  0  0  0  0  0  0
    1.3244   -1.9955    0.3381 H   0  0  0  0  0  0  0  0  0  0  0  0
   -2.4527   -0.1577   -0.1702 H   0  0  0  0  0  0  0  0  0  0  0  0
    3.3007    0.7713    0.5716 H   0  0  0  0  0  0  0  0  0  0  0  0
    3.2902   -0.7963   -0.2001 H   0  0  0  0  0  0  0  0  0  0  0  0
    2.8687    0.4012   -2.3808 H   0  0  0  0  0  0  0  0  0  0  0  0
    4.8424    3.5595   -2.8625 H   0  0  0  0  0  0  0  0  0  0  0  0
    3.9705    2.2753   -3.7062 H   0  0  0  0  0  0  0  0  0  0  0  0
    4.9478    3.4722   -0.4527 H   0  0  0  0  0  0  0  0  0  0  0  0
  1  2  2  0  0  0  0
  1 30  1  0  0  0  0
  2  3  1  0  0  0  0
  2 31  1  0  0  0  0
  3  8  1  0  0  0  0
  3  4  2  0  0  0  0
  4  5  1  0  0  0  0
  4 32  1  0  0  0  0
  5  6  2  0  0  0  0
  5  7  1  0  0  0  0
  6  1  1  0  0  0  0
  6 33  1  0  0  0  0
  8  9  1  0  0  0  0
  8 34  1  0  0  0  0
  8 35  1  0  0  0  0
  9 10  1  0  0  0  0
  9 36  1  0  0  0  0
 10 11  1  0  0  0  0
 10 12  2  0  0  0  0
 11 37  1  0  0  0  0
 11 38  1  0  0  0  0
 12 39  1  0  0  0  0
 13 14  1  0  0  0  0
 13 15  2  0  0  0  0
 13 16  2  0  0  0  0
 13 17  1  0  0  0  0
 14 40  1  0  0  0  0
 17 41  1  0  0  0  0
 18 19  2  0  0  0  0
 18 42  1  0  0  0  0
 19 20  1  0  0  0  0
 19 43  1  0  0  0  0
 20 25  1  0  0  0  0
 20 21  2  0  0  0  0
 21 22  1  0  0  0  0
 21 44  1  0  0  0  0
 22 23  2  0  0  0  0
 22 24  1  0  0  0  0
 23 18  1  0  0  0  0
 23 45  1  0  0  0  0
 25 26  1  0  0  0  0
 25 46  1  0  0  0  0
 25 47  1  0  0  0  0
 26 27  1  0  0  0  0
 26 48  1  0  0  0  0
 27 28  1  0  0  0  0
 27 29  2  0  0  0  0
 28 49  1  0  0  0  0
 28 50  1  0  0  0  0
 29 51  1  0  0  0  0
M  ISO  2   7 123  24 123
M  END
>  <DRUGBANK_ID>
DB09546

>  <COMMON_NAME>
Iobenguane sulfate I-123

>  <CAS_NUMBER>
80663-95-2

>  <UNII>
23X1185WBO

>  <SYNONYMS>
Iobenguane sulfate I 123

$$$$
