
 OpenBabel10282417223D

 72 76  0  0  1  0  0  0  0  0999 V2000
   -7.7433   -0.5089   -4.1541 C   0  0  0  0  0  0  0  0  0  0  0  0
   -6.4840   -0.7107   -3.4623 N   0  0  0  0  0  0  0  0  0  0  0  0
   -6.5994   -0.1698   -2.1120 C   0  0  0  0  0  0  0  0  0  0  0  0
   -5.2489   -0.3244   -1.4685 C   0  0  0  0  0  0  0  0  0  0  0  0
   -4.6825   -1.6426   -1.3884 N   0  0  0  0  0  0  0  0  0  0  0  0
   -4.7165   -2.3353   -2.6720 C   0  0  0  0  0  0  0  0  0  0  0  0
   -6.0959   -2.1387   -3.3584 C   0  0  0  0  0  0  0  0  0  0  0  0
   -3.9847   -2.1469   -0.2947 C   0  0  0  0  0  0  0  0  0  0  0  0
   -3.5724   -3.3122   -0.3097 O   0  0  0  0  0  0  0  0  0  0  0  0
   -3.7750   -1.2491    0.9953 C   0  0  2  0  0  0  0  0  0  0  0  0
   -2.8478   -0.0332    0.8355 C   0  0  0  0  0  0  0  0  0  0  0  0
   -3.2419    1.1617   -0.0300 C   0  0  0  0  0  0  0  0  0  0  0  0
   -4.4949    1.9543    0.3798 C   0  0  0  0  0  0  0  0  0  0  0  0
   -4.2298    2.6370    1.6270 N   0  0  0  0  0  0  0  0  0  0  0  0
   -5.3781    3.4186    2.0917 C   0  0  2  0  0  0  0  0  0  0  0  0
   -6.0331    4.4408    1.2069 C   0  0  0  0  0  0  0  0  0  0  0  0
   -5.1007    4.8829    2.3035 C   0  0  1  0  0  0  0  0  0  0  0  0
   -5.5544    5.6517    3.5088 C   0  0  0  0  0  0  0  0  0  0  0  0
   -4.9919    5.4028    4.7754 C   0  0  0  0  0  0  0  0  0  0  0  0
   -5.2369    6.2511    5.8592 C   0  0  0  0  0  0  0  0  0  0  0  0
   -6.0533    7.3594    5.6863 C   0  0  0  0  0  0  0  0  0  0  0  0
   -6.2653    8.1929    6.7131 F   0  0  0  0  0  0  0  0  0  0  0  0
   -6.6344    7.6279    4.4554 C   0  0  0  0  0  0  0  0  0  0  0  0
   -6.3904    6.7739    3.3775 C   0  0  0  0  0  0  0  0  0  0  0  0
   -3.1265   -2.0931    2.0435 N   0  0  0  0  0  0  0  0  0  0  0  0
   -3.5291   -2.4459    3.3015 C   0  0  0  0  0  0  0  0  0  0  0  0
   -2.7547   -3.0275    4.0703 O   0  0  0  0  0  0  0  0  0  0  0  0
   -4.9003   -2.1426    3.7549 C   0  0  0  0  0  0  0  0  0  0  0  0
   -5.9823   -2.4161    2.9087 C   0  0  0  0  0  0  0  0  0  0  0  0
   -7.2858   -2.1460    3.3147 C   0  0  0  0  0  0  0  0  0  0  0  0
   -7.5054   -1.6440    4.5988 C   0  0  0  0  0  0  0  0  0  0  0  0
   -6.4372   -1.4307    5.4808 C   0  0  0  0  0  0  0  0  0  0  0  0
   -5.1273   -1.6647    5.0513 C   0  0  0  0  0  0  0  0  0  0  0  0
   -8.8124   -1.3255    5.0048 N   0  0  0  0  0  0  0  0  0  0  0  0
   -9.9439   -2.0930    4.8926 C   0  0  0  0  0  0  0  0  0  0  0  0
  -10.9428   -1.2964    5.3960 C   0  0  0  0  0  0  0  0  0  0  0  0
  -10.4267   -0.0814    5.7389 N   0  0  0  0  0  0  0  0  0  0  0  0
   -9.1148   -0.1228    5.5397 N   0  0  0  0  0  0  0  0  0  0  0  0
   -7.6841   -0.9016   -5.1704 H   0  0  0  0  0  0  0  0  0  0  0  0
   -8.5724   -0.9831   -3.6210 H   0  0  0  0  0  0  0  0  0  0  0  0
   -7.9548    0.5655   -4.2345 H   0  0  0  0  0  0  0  0  0  0  0  0
   -6.8392    0.9036   -2.1275 H   0  0  0  0  0  0  0  0  0  0  0  0
   -7.3591   -0.6765   -1.5064 H   0  0  0  0  0  0  0  0  0  0  0  0
   -4.5833    0.2851   -2.0850 H   0  0  0  0  0  0  0  0  0  0  0  0
   -5.3808   -0.0177   -0.4604 H   0  0  0  0  0  0  0  0  0  0  0  0
   -3.9217   -1.8933   -3.2897 H   0  0  0  0  0  0  0  0  0  0  0  0
   -4.4894   -3.3962   -2.5445 H   0  0  0  0  0  0  0  0  0  0  0  0
   -6.8480   -2.6673   -2.7595 H   0  0  0  0  0  0  0  0  0  0  0  0
   -6.0588   -2.5873   -4.3530 H   0  0  0  0  0  0  0  0  0  0  0  0
   -4.7473   -0.9255    1.3657 H   0  0  0  0  0  0  0  0  0  0  0  0
   -2.6273    0.3560    1.8363 H   0  0  0  0  0  0  0  0  0  0  0  0
   -1.9008   -0.4074    0.4329 H   0  0  0  0  0  0  0  0  0  0  0  0
   -2.4042    1.8650   -0.0634 H   0  0  0  0  0  0  0  0  0  0  0  0
   -3.2525    0.8337   -1.0627 H   0  0  0  0  0  0  0  0  0  0  0  0
   -4.7420    2.6462   -0.4370 H   0  0  0  0  0  0  0  0  0  0  0  0
   -5.4026    1.3768    0.5678 H   0  0  0  0  0  0  0  0  0  0  0  0
   -3.9714    1.9529    2.3369 H   0  0  0  0  0  0  0  0  0  0  0  0
   -6.0557    2.8816    2.7525 H   0  0  0  0  0  0  0  0  0  0  0  0
   -5.6829    4.5765    0.1896 H   0  0  0  0  0  0  0  0  0  0  0  0
   -7.1076    4.5403    1.3039 H   0  0  0  0  0  0  0  0  0  0  0  0
   -4.1087    5.1913    1.9734 H   0  0  0  0  0  0  0  0  0  0  0  0
   -4.3029    4.5696    4.9032 H   0  0  0  0  0  0  0  0  0  0  0  0
   -4.7691    6.0731    6.8221 H   0  0  0  0  0  0  0  0  0  0  0  0
   -7.2448    8.5157    4.3304 H   0  0  0  0  0  0  0  0  0  0  0  0
   -6.8101    7.0180    2.4041 H   0  0  0  0  0  0  0  0  0  0  0  0
   -2.2046   -2.4535    1.8139 H   0  0  0  0  0  0  0  0  0  0  0  0
   -5.8086   -2.8338    1.9211 H   0  0  0  0  0  0  0  0  0  0  0  0
   -8.0966   -2.2865    2.6051 H   0  0  0  0  0  0  0  0  0  0  0  0
   -6.6225   -1.1420    6.5145 H   0  0  0  0  0  0  0  0  0  0  0  0
   -4.2932   -1.4830    5.7280 H   0  0  0  0  0  0  0  0  0  0  0  0
   -9.9200   -3.1196    4.5612 H   0  0  0  0  0  0  0  0  0  0  0  0
  -11.9870   -1.5318    5.5460 H   0  0  0  0  0  0  0  0  0  0  0  0
  1  2  1  0  0  0  0
  1 39  1  0  0  0  0
  1 40  1  0  0  0  0
  1 41  1  0  0  0  0
  2  3  1  0  0  0  0
  2  7  1  0  0  0  0
  3  4  1  0  0  0  0
  3 42  1  0  0  0  0
  3 43  1  0  0  0  0
  4  5  1  0  0  0  0
  4 44  1  0  0  0  0
  4 45  1  0  0  0  0
  5  6  1  0  0  0  0
  5  8  1  0  0  0  0
  6  7  1  0  0  0  0
  6 46  1  0  0  0  0
  6 47  1  0  0  0  0
  7 48  1  0  0  0  0
  7 49  1  0  0  0  0
  8  9  2  0  0  0  0
 10 25  1  0  0  0  0
 10 50  1  1  0  0  0
 10 11  1  0  0  0  0
 10  8  1  0  0  0  0
 11 12  1  0  0  0  0
 11 51  1  0  0  0  0
 11 52  1  0  0  0  0
 12 13  1  0  0  0  0
 12 53  1  0  0  0  0
 12 54  1  0  0  0  0
 13 14  1  0  0  0  0
 13 55  1  0  0  0  0
 13 56  1  0  0  0  0
 14 57  1  0  0  0  0
 15 14  1  0  0  0  0
 15 16  1  0  0  0  0
 15 17  1  0  0  0  0
 15 58  1  1  0  0  0
 16 59  1  0  0  0  0
 16 60  1  0  0  0  0
 17 16  1  0  0  0  0
 17 18  1  0  0  0  0
 17 61  1  6  0  0  0
 18 19  2  0  0  0  0
 18 24  1  0  0  0  0
 19 20  1  0  0  0  0
 19 62  1  0  0  0  0
 20 21  2  0  0  0  0
 20 63  1  0  0  0  0
 21 22  1  0  0  0  0
 21 23  1  0  0  0  0
 23 24  2  0  0  0  0
 23 64  1  0  0  0  0
 24 65  1  0  0  0  0
 25 26  1  0  0  0  0
 25 66  1  0  0  0  0
 26 27  2  0  0  0  0
 26 28  1  0  0  0  0
 28 29  2  0  0  0  0
 28 33  1  0  0  0  0
 29 30  1  0  0  0  0
 29 67  1  0  0  0  0
 30 31  2  0  0  0  0
 30 68  1  0  0  0  0
 31 32  1  0  0  0  0
 31 34  1  0  0  0  0
 32 33  2  0  0  0  0
 32 69  1  0  0  0  0
 33 70  1  0  0  0  0
 34 35  1  0  0  0  0
 34 38  1  0  0  0  0
 35 36  2  0  0  0  0
 35 71  1  0  0  0  0
 36 37  1  0  0  0  0
 36 72  1  0  0  0  0
 37 38  2  0  0  0  0
M  END
>  <DRUGBANK_ID>
DB15126

>  <COMMON_NAME>
IMG-7289

>  <CAS_NUMBER>
1990504-34-1

$$$$
