
 OpenBabel10282417223D

106108  0  0  1  0  0  0  0  0999 V2000
   -6.8247   10.3001   17.0815 O   0  0  0  0  0  0  0  0  0  0  0  0
   -7.9484   10.6626   16.7362 C   0  0  0  0  0  0  0  0  0  0  0  0
   -9.1328    9.7638   16.9464 C   0  0  0  0  0  0  0  0  0  0  0  0
   -8.1070   11.8383   16.0805 O   0  0  0  0  0  0  0  0  0  0  0  0
   -9.2573   12.3689   15.3687 C   0  0  2  0  0  0  0  0  0  0  0  0
  -10.1121   11.3523   14.6243 C   0  0  0  0  0  0  0  0  0  0  0  0
   -9.4218   10.6270   13.4472 C   0  0  2  0  0  0  0  0  0  0  0  0
  -10.4674    9.8045   12.9025 O   0  0  0  0  0  0  0  0  0  0  0  0
   -8.2374    9.6607   13.6711 C   0  0  0  0  0  0  0  0  0  0  0  0
   -9.0111   11.7155   12.4535 C   0  0  0  0  0  0  0  0  0  0  0  0
   -8.1055   12.8244   13.0642 C   0  0  0  0  0  0  0  0  0  0  0  0
   -6.7058   12.3205   13.4777 C   0  0  0  0  0  0  0  0  0  0  0  0
   -7.8483   13.9202   12.0050 C   0  0  0  0  0  0  0  0  0  0  0  0
   -8.8040   13.4322   14.3190 C   0  0  0  0  0  0  0  0  0  0  0  0
   -9.4433   11.7257   11.2390 C   0  0  0  0  0  0  0  0  0  0  0  0
   -9.8593   11.6763    9.9787 C   0  0  0  0  0  0  0  0  0  0  0  0
   -9.1921   10.8853    8.9567 C   0  0  0  0  0  0  0  0  0  0  0  0
   -9.7896   10.9652    7.5668 C   0  0  0  0  0  0  0  0  0  0  0  0
   -8.1009   10.1302    9.2179 C   0  0  0  0  0  0  0  0  0  0  0  0
   -7.4073    9.3369    8.2280 C   0  0  0  0  0  0  0  0  0  0  0  0
   -6.3240    8.5793    8.4627 C   0  0  0  0  0  0  0  0  0  0  0  0
   -5.6233    7.7765    7.4578 C   0  0  0  0  0  0  0  0  0  0  0  0
   -4.4259    6.9981    7.9410 C   0  0  0  0  0  0  0  0  0  0  0  0
   -6.0041    7.7175    6.1665 C   0  0  0  0  0  0  0  0  0  0  0  0
   -5.3541    6.9453    5.1322 C   0  0  0  0  0  0  0  0  0  0  0  0
   -5.8125    6.9542    3.8744 C   0  0  0  0  0  0  0  0  0  0  0  0
   -5.2029    6.2017    2.8046 C   0  0  0  0  0  0  0  0  0  0  0  0
   -5.6180    6.1683    1.5186 C   0  0  0  0  0  0  0  0  0  0  0  0
   -6.8044    6.9317    1.0012 C   0  0  0  0  0  0  0  0  0  0  0  0
   -4.9678    5.3842    0.4637 C   0  0  0  0  0  0  0  0  0  0  0  0
   -3.8928    4.6249    0.6647 C   0  0  0  0  0  0  0  0  0  0  0  0
   -3.1731    3.8384   -0.3057 C   0  0  0  0  0  0  0  0  0  0  0  0
   -2.1023    3.1126    0.0586 C   0  0  0  0  0  0  0  0  0  0  0  0
   -1.6880    3.0022    1.4732 C   0  0  0  0  0  0  0  0  0  0  0  0
   -1.2739    2.3937   -0.9838 C   0  0  0  0  0  0  0  0  0  0  0  0
   -1.6545    2.4036   -2.1583 O   0  0  0  0  0  0  0  0  0  0  0  0
   -0.1074    1.4951   -0.5652 C   0  0  0  0  0  0  0  0  0  0  0  0
    1.2984    1.9682   -0.0061 C   0  0  2  0  0  0  0  0  0  0  0  0
    1.4686    3.1342    1.0047 C   0  0  0  0  0  0  0  0  0  0  0  0
    2.7383    3.8942    1.5398 C   0  0  0  0  0  0  0  0  0  0  0  0
    1.0186    4.3335    0.0567 C   0  0  0  0  0  0  0  0  0  0  0  0
    1.0777    2.4125    2.3826 C   0  0  0  0  0  0  0  0  0  0  0  0
    1.7135    1.0027    2.5949 C   0  0  2  0  0  0  0  0  0  0  0  0
    3.0153    1.0399    3.1519 O   0  0  0  0  0  0  0  0  0  0  0  0
    1.6941    0.1398    1.3465 C   0  0  0  0  0  0  0  0  0  0  0  0
    2.3711    0.7413    0.1401 C   0  0  1  0  0  0  0  0  0  0  0  0
    2.3752    1.8629   -0.7925 O   0  0  0  0  0  0  0  0  0  0  0  0
    2.9508   -0.3281   -0.7349 C   0  0  0  0  0  0  0  0  0  0  0  0
   -9.9421   10.3000   17.4401 H   0  0  0  0  0  0  0  0  0  0  0  0
   -9.4660    9.2986   16.0176 H   0  0  0  0  0  0  0  0  0  0  0  0
   -8.8388    8.9150   17.5699 H   0  0  0  0  0  0  0  0  0  0  0  0
   -9.8531   12.8961   16.1246 H   0  0  0  0  0  0  0  0  0  0  0  0
  -10.6280   10.6684   15.2961 H   0  0  0  0  0  0  0  0  0  0  0  0
  -10.9692   11.9130   14.2133 H   0  0  0  0  0  0  0  0  0  0  0  0
  -10.2005    9.5611   11.9996 H   0  0  0  0  0  0  0  0  0  0  0  0
   -8.4648    8.6341   13.3704 H   0  0  0  0  0  0  0  0  0  0  0  0
   -7.3493    9.9283   13.0893 H   0  0  0  0  0  0  0  0  0  0  0  0
   -7.8852    9.6014   14.6911 H   0  0  0  0  0  0  0  0  0  0  0  0
   -6.1949   11.8238   12.6479 H   0  0  0  0  0  0  0  0  0  0  0  0
   -6.0771   13.1462   13.8274 H   0  0  0  0  0  0  0  0  0  0  0  0
   -6.7284   11.6127   14.3039 H   0  0  0  0  0  0  0  0  0  0  0  0
   -8.7750   14.4066   11.6826 H   0  0  0  0  0  0  0  0  0  0  0  0
   -7.1759   14.6945   12.3869 H   0  0  0  0  0  0  0  0  0  0  0  0
   -7.3676   13.4893   11.1153 H   0  0  0  0  0  0  0  0  0  0  0  0
   -9.7002   13.9787   13.9875 H   0  0  0  0  0  0  0  0  0  0  0  0
   -8.1439   14.1744   14.7856 H   0  0  0  0  0  0  0  0  0  0  0  0
  -10.7290   12.2575    9.7017 H   0  0  0  0  0  0  0  0  0  0  0  0
   -9.0510   11.3563    6.8561 H   0  0  0  0  0  0  0  0  0  0  0  0
  -10.1037    9.9708    7.2265 H   0  0  0  0  0  0  0  0  0  0  0  0
  -10.6667   11.6161    7.5054 H   0  0  0  0  0  0  0  0  0  0  0  0
   -7.6870   10.0977   10.2235 H   0  0  0  0  0  0  0  0  0  0  0  0
   -7.8209    9.3825    7.2286 H   0  0  0  0  0  0  0  0  0  0  0  0
   -5.9177    8.5446    9.4724 H   0  0  0  0  0  0  0  0  0  0  0  0
   -4.5802    5.9260    7.7709 H   0  0  0  0  0  0  0  0  0  0  0  0
   -3.5275    7.3128    7.3968 H   0  0  0  0  0  0  0  0  0  0  0  0
   -4.2249    7.1329    9.0067 H   0  0  0  0  0  0  0  0  0  0  0  0
   -6.8670    8.2794    5.8195 H   0  0  0  0  0  0  0  0  0  0  0  0
   -4.4819    6.3539    5.3933 H   0  0  0  0  0  0  0  0  0  0  0  0
   -6.6843    7.5552    3.6483 H   0  0  0  0  0  0  0  0  0  0  0  0
   -4.3364    5.6321    3.1334 H   0  0  0  0  0  0  0  0  0  0  0  0
   -6.4873    7.6270    0.2180 H   0  0  0  0  0  0  0  0  0  0  0  0
   -7.5445    6.2368    0.5929 H   0  0  0  0  0  0  0  0  0  0  0  0
   -7.3138    7.5238    1.7608 H   0  0  0  0  0  0  0  0  0  0  0  0
   -5.3889    5.4346   -0.5368 H   0  0  0  0  0  0  0  0  0  0  0  0
   -3.5003    4.6301    1.6660 H   0  0  0  0  0  0  0  0  0  0  0  0
   -3.4931    3.8706   -1.3433 H   0  0  0  0  0  0  0  0  0  0  0  0
   -1.6425    1.9481    1.7525 H   0  0  0  0  0  0  0  0  0  0  0  0
   -0.7696    3.5640    1.5504 H   0  0  0  0  0  0  0  0  0  0  0  0
   -2.2704    3.4575    2.2693 H   0  0  0  0  0  0  0  0  0  0  0  0
   -0.5966    0.8089    0.1366 H   0  0  0  0  0  0  0  0  0  0  0  0
    0.0929    0.8555   -1.4377 H   0  0  0  0  0  0  0  0  0  0  0  0
    3.0603    3.6472    2.5589 H   0  0  0  0  0  0  0  0  0  0  0  0
    3.6044    3.9183    0.8837 H   0  0  0  0  0  0  0  0  0  0  0  0
    2.4375    4.9541    1.7164 H   0  0  0  0  0  0  0  0  0  0  0  0
    0.5826    4.0265   -0.9024 H   0  0  0  0  0  0  0  0  0  0  0  0
    0.4190    5.1180    0.5110 H   0  0  0  0  0  0  0  0  0  0  0  0
    1.9262    4.8313   -0.3520 H   0  0  0  0  0  0  0  0  0  0  0  0
    1.2705    3.0318    3.2676 H   0  0  0  0  0  0  0  0  0  0  0  0
    0.0458    2.1436    2.4700 H   0  0  0  0  0  0  0  0  0  0  0  0
    1.0901    0.4712    3.3301 H   0  0  0  0  0  0  0  0  0  0  0  0
    3.0225    0.4051    3.8938 H   0  0  0  0  0  0  0  0  0  0  0  0
    2.1453   -0.8294    1.5817 H   0  0  0  0  0  0  0  0  0  0  0  0
    0.6548   -0.1415    1.1419 H   0  0  0  0  0  0  0  0  0  0  0  0
    2.8226   -1.3276   -0.3140 H   0  0  0  0  0  0  0  0  0  0  0  0
    2.5359   -0.3308   -1.7460 H   0  0  0  0  0  0  0  0  0  0  0  0
    4.0285   -0.1365   -0.7887 H   0  0  0  0  0  0  0  0  0  0  0  0
  2  1  2  0  0  0  0
  2  3  1  0  0  0  0
  3 49  1  0  0  0  0
  3 50  1  0  0  0  0
  3 51  1  0  0  0  0
  4  2  1  0  0  0  0
  5  4  1  0  0  0  0
  5 52  1  1  0  0  0
  6  5  1  0  0  0  0
  6 53  1  0  0  0  0
  6 54  1  0  0  0  0
  7  6  1  0  0  0  0
  7  9  1  0  0  0  0
  7  8  1  6  0  0  0
  8 55  1  0  0  0  0
  9 56  1  0  0  0  0
  9 57  1  0  0  0  0
  9 58  1  0  0  0  0
 10  7  1  0  0  0  0
 10 11  1  0  0  0  0
 11 12  1  0  0  0  0
 11 13  1  0  0  0  0
 11 14  1  0  0  0  0
 12 59  1  0  0  0  0
 12 60  1  0  0  0  0
 12 61  1  0  0  0  0
 13 62  1  0  0  0  0
 13 63  1  0  0  0  0
 13 64  1  0  0  0  0
 14  5  1  0  0  0  0
 14 65  1  0  0  0  0
 14 66  1  0  0  0  0
 15 10  2  0  0  0  0
 16 15  2  0  0  0  0
 16 17  1  0  0  0  0
 16 67  1  0  0  0  0
 17 18  1  0  0  0  0
 18 68  1  0  0  0  0
 18 69  1  0  0  0  0
 18 70  1  0  0  0  0
 19 17  2  0  0  0  0
 19 71  1  0  0  0  0
 20 19  1  0  0  0  0
 20 72  1  0  0  0  0
 21 20  2  0  0  0  0
 21 73  1  0  0  0  0
 22 21  1  0  0  0  0
 22 23  1  0  0  0  0
 23 74  1  0  0  0  0
 23 75  1  0  0  0  0
 23 76  1  0  0  0  0
 24 22  2  0  0  0  0
 24 77  1  0  0  0  0
 25 24  1  0  0  0  0
 25 78  1  0  0  0  0
 26 25  2  0  0  0  0
 26 79  1  0  0  0  0
 27 26  1  0  0  0  0
 27 80  1  0  0  0  0
 28 27  2  0  0  0  0
 28 29  1  0  0  0  0
 29 81  1  0  0  0  0
 29 82  1  0  0  0  0
 29 83  1  0  0  0  0
 30 28  1  0  0  0  0
 30 84  1  0  0  0  0
 31 30  2  0  0  0  0
 31 85  1  0  0  0  0
 32 31  1  0  0  0  0
 32 86  1  0  0  0  0
 33 32  2  0  0  0  0
 33 34  1  0  0  0  0
 34 87  1  0  0  0  0
 34 88  1  0  0  0  0
 34 89  1  0  0  0  0
 35 33  1  0  0  0  0
 35 36  2  0  0  0  0
 37 35  1  0  0  0  0
 37 90  1  0  0  0  0
 37 91  1  0  0  0  0
 38 39  1  0  0  0  0
 38 47  1  0  0  0  0
 38 46  1  0  0  0  0
 38 37  1  1  0  0  0
 39 42  1  0  0  0  0
 39 40  1  0  0  0  0
 39 41  1  0  0  0  0
 40 92  1  0  0  0  0
 40 93  1  0  0  0  0
 40 94  1  0  0  0  0
 41 95  1  0  0  0  0
 41 96  1  0  0  0  0
 41 97  1  0  0  0  0
 42 43  1  0  0  0  0
 42 98  1  0  0  0  0
 42 99  1  0  0  0  0
 43 44  1  0  0  0  0
 43100  1  1  0  0  0
 44101  1  0  0  0  0
 45 43  1  0  0  0  0
 45102  1  0  0  0  0
 45103  1  0  0  0  0
 46 45  1  0  0  0  0
 46 47  1  0  0  0  0
 46 48  1  1  0  0  0
 48104  1  0  0  0  0
 48105  1  0  0  0  0
 48106  1  0  0  0  0
M  END
>  <DRUGBANK_ID>
DB15462

>  <COMMON_NAME>
Fucoxanthin

>  <CAS_NUMBER>
3351-86-8

>  <UNII>
06O0TC0VSM

$$$$
