
 OpenBabel10282417103D

 18 17  0  0  0  0  0  0  0  0999 V2000
    0.9554   -0.0288    0.0848 C   0  0  0  0  0  0  0  0  0  0  0  0
   -0.3484   -0.0288    0.0848 C   0  0  0  0  0  0  0  0  0  0  0  0
    2.4754   -0.0288    0.0848 C   0  0  3  0  0  0  0  0  0  0  0  0
    2.9807    0.2345    1.4786 C   0  0  0  0  0  0  0  0  0  0  0  0
    3.7746   -0.5917    2.1758 C   0  0  0  0  0  0  0  0  0  0  0  0
    4.3360   -0.2454    3.7534 Cl  0  0  0  0  0  0  0  0  0  0  0  0
    2.9220   -1.3120   -0.3491 O   0  0  0  0  0  0  0  0  0  0  0  0
    2.9819    1.0284   -0.9084 C   0  0  0  0  0  0  0  0  0  0  0  0
    2.5073    0.7540   -2.3352 C   0  0  0  0  0  0  0  0  0  0  0  0
   -1.4141   -0.0289    0.0824 H   0  0  0  0  0  0  0  0  0  0  0  0
    2.6837    1.1796    1.9266 H   0  0  0  0  0  0  0  0  0  0  0  0
    4.1401   -1.5441    1.8144 H   0  0  0  0  0  0  0  0  0  0  0  0
    2.4833   -1.9644    0.2223 H   0  0  0  0  0  0  0  0  0  0  0  0
    2.6476    2.0302   -0.6077 H   0  0  0  0  0  0  0  0  0  0  0  0
    4.0793    1.0392   -0.9129 H   0  0  0  0  0  0  0  0  0  0  0  0
    1.4145    0.7656   -2.4011 H   0  0  0  0  0  0  0  0  0  0  0  0
    2.8868    1.5178   -3.0181 H   0  0  0  0  0  0  0  0  0  0  0  0
    2.8561   -0.2229   -2.6843 H   0  0  0  0  0  0  0  0  0  0  0  0
  2  1  3  0  0  0  0
  2 10  1  0  0  0  0
  3  1  1  0  0  0  0
  4  3  1  0  0  0  0
  4 11  1  0  0  0  0
  5  4  2  0  0  0  0
  5 12  1  0  0  0  0
  6  5  1  0  0  0  0
  7  3  1  0  0  0  0
  7 13  1  0  0  0  0
  8  3  1  0  0  0  0
  8 14  1  0  0  0  0
  8 15  1  0  0  0  0
  9  8  1  0  0  0  0
  9 16  1  0  0  0  0
  9 17  1  0  0  0  0
  9 18  1  0  0  0  0
M  END
>  <DRUGBANK_ID>
DB00189

>  <SECONDARY_ACCESSION_NUMBERS>
APRD00958

>  <COMMON_NAME>
Ethchlorvynol

>  <CAS_NUMBER>
113-18-8

>  <UNII>
6EIM3851UZ

>  <SYNONYMS>
1-chloro-3-ethyl-1-penten-4-yn-3-ol; 1-Chloro-3-ethyl-pent-1-en-4-yn-3-ol; 3-(beta-chlorovinyl)-1-pentyn-3-ol; 3-(β-chlorovinyl)-1-pentyn-3-ol; etclorvinol; Ethchlorvynol; ethyl β-chlorovinyl ethynyl carbinol; β-chlorovinyl ethyl ethynyl carbinol

$$$$
