
 OpenBabel10282417203D

 69 74  0  0  0  0  0  0  0  0999 V2000
    4.3261    0.7301   -0.9019 C   0  0  0  0  0  0  0  0  0  0  0  0
    3.5831    1.9008   -0.7394 C   0  0  0  0  0  0  0  0  0  0  0  0
    2.3245    1.8650   -0.1337 C   0  0  0  0  0  0  0  0  0  0  0  0
    3.8096   -0.4910   -0.4773 C   0  0  0  0  0  0  0  0  0  0  0  0
    1.7739    0.6501    0.2786 C   0  0  0  0  0  0  0  0  0  0  0  0
    2.5259   -0.5427    0.0833 C   0  0  0  0  0  0  0  0  0  0  0  0
    1.9997   -1.8260    0.6780 C   0  0  0  0  0  0  0  0  0  0  0  0
    0.5634    0.6022    0.9936 N   0  0  0  0  0  0  0  0  0  0  0  0
    0.7683   -2.2531   -0.0954 C   0  0  0  0  0  0  0  0  0  0  0  0
   -0.4573   -1.3542   -0.0876 C   0  0  0  0  0  0  0  0  0  0  0  0
   -0.5487   -0.0755    0.4952 C   0  0  0  0  0  0  0  0  0  0  0  0
   -1.7639    0.6300    0.4651 C   0  0  0  0  0  0  0  0  0  0  0  0
   -2.8761    0.0837   -0.1427 C   0  0  0  0  0  0  0  0  0  0  0  0
   -2.7865   -1.1552   -0.7596 C   0  0  0  0  0  0  0  0  0  0  0  0
   -1.5870   -1.8648   -0.7353 C   0  0  0  0  0  0  0  0  0  0  0  0
   -4.3526    0.9595   -0.1452 Cl  0  0  0  0  0  0  0  0  0  0  0  0
    0.4070    1.2181    2.3339 C   0  0  0  0  0  0  0  0  0  0  0  0
    1.2629    0.5298    3.3543 C   0  0  0  0  0  0  0  0  0  0  0  0
    2.6981    0.6516    2.9686 C   0  0  0  0  0  0  0  0  0  0  0  0
    3.4799    1.8971    2.9341 N   0  0  0  0  0  0  0  0  0  0  0  0
    4.1579    0.2107    7.8322 C   0  0  0  0  0  0  0  0  0  0  0  0
    5.0487    1.1033    8.6968 C   0  0  0  0  0  0  0  0  0  0  0  0
    4.2643    2.4283    9.2355 C   0  0  0  0  0  0  0  0  0  0  0  0
    4.0082    3.2340    7.9456 C   0  0  3  0  0  0  0  0  0  0  0  0
    3.1650    2.3878    7.0757 N   0  0  3  0  0  0  0  0  0  0  0  0
    2.8894    1.0022    7.5238 C   0  0  0  0  0  0  0  0  0  0  0  0
    4.6443    4.1629    7.0579 N   0  0  0  0  0  0  0  0  0  0  0  0
    4.9239    3.4487    5.8796 C   0  0  0  0  0  0  0  0  0  0  0  0
    3.7261    2.5158    5.7160 C   0  0  0  0  0  0  0  0  0  0  0  0
    4.6561    1.4455    3.6351 C   0  0  0  0  0  0  0  0  0  0  0  0
    4.1626    1.2318    5.0505 C   0  0  0  0  0  0  0  0  0  0  0  0
    2.6621    3.2620    4.9066 C   0  0  0  0  0  0  0  0  0  0  0  0
    3.0705    3.2191    3.4436 C   0  0  0  0  0  0  0  0  0  0  0  0
    5.9238    3.5325    5.2355 O   0  0  0  0  0  0  0  0  0  0  0  0
    5.3197    0.7755   -1.3390 H   0  0  0  0  0  0  0  0  0  0  0  0
    3.9973    2.8529   -1.0568 H   0  0  0  0  0  0  0  0  0  0  0  0
    1.7890    2.7904    0.0515 H   0  0  0  0  0  0  0  0  0  0  0  0
    4.4247   -1.3852   -0.5405 H   0  0  0  0  0  0  0  0  0  0  0  0
    2.7670   -2.6111    0.6431 H   0  0  0  0  0  0  0  0  0  0  0  0
    1.7722   -1.7193    1.7455 H   0  0  0  0  0  0  0  0  0  0  0  0
    0.4646   -3.2261    0.3100 H   0  0  0  0  0  0  0  0  0  0  0  0
    1.0709   -2.4041   -1.1388 H   0  0  0  0  0  0  0  0  0  0  0  0
   -1.8102    1.6396    0.8697 H   0  0  0  0  0  0  0  0  0  0  0  0
   -3.6437   -1.5780   -1.2684 H   0  0  0  0  0  0  0  0  0  0  0  0
   -1.5210   -2.8283   -1.2333 H   0  0  0  0  0  0  0  0  0  0  0  0
    0.6230    2.2876    2.3216 H   0  0  0  0  0  0  0  0  0  0  0  0
   -0.6122    1.1070    2.7294 H   0  0  0  0  0  0  0  0  0  0  0  0
    1.0990    0.9035    4.3697 H   0  0  0  0  0  0  0  0  0  0  0  0
    1.0189   -0.5418    3.4273 H   0  0  0  0  0  0  0  0  0  0  0  0
    3.1375   -0.1873    3.5330 H   0  0  0  0  0  0  0  0  0  0  0  0
    2.9865    0.1971    2.0517 H   0  0  0  0  0  0  0  0  0  0  0  0
    3.9230   -0.7855    8.2146 H   0  0  0  0  0  0  0  0  0  0  0  0
    4.7596   -0.0728    6.9731 H   0  0  0  0  0  0  0  0  0  0  0  0
    5.7018    0.5507    9.3679 H   0  0  0  0  0  0  0  0  0  0  0  0
    5.7985    1.4459    7.9544 H   0  0  0  0  0  0  0  0  0  0  0  0
    3.2958    2.2250    9.7232 H   0  0  0  0  0  0  0  0  0  0  0  0
    4.8087    3.0632    9.9435 H   0  0  0  0  0  0  0  0  0  0  0  0
    5.0698    3.0069    7.9543 H   0  0  0  0  0  0  0  0  0  0  0  0
    2.3026    1.0065    8.4509 H   0  0  0  0  0  0  0  0  0  0  0  0
    2.2083    0.4827    6.8379 H   0  0  0  0  0  0  0  0  0  0  0  0
    5.4591    4.6967    7.3467 H   0  0  0  0  0  0  0  0  0  0  0  0
    5.0100    0.4901    3.2165 H   0  0  0  0  0  0  0  0  0  0  0  0
    5.5159    2.0988    3.5421 H   0  0  0  0  0  0  0  0  0  0  0  0
    3.2826    0.5763    5.1399 H   0  0  0  0  0  0  0  0  0  0  0  0
    4.9782    0.6719    5.4628 H   0  0  0  0  0  0  0  0  0  0  0  0
    1.6606    2.8371    5.0308 H   0  0  0  0  0  0  0  0  0  0  0  0
    2.5755    4.3059    5.2528 H   0  0  0  0  0  0  0  0  0  0  0  0
    3.9479    3.8842    3.3534 H   0  0  0  0  0  0  0  0  0  0  0  0
    2.3209    3.7276    2.8280 H   0  0  0  0  0  0  0  0  0  0  0  0
  1  2  2  0  0  0  0
  1 35  1  0  0  0  0
  2  3  1  0  0  0  0
  2 36  1  0  0  0  0
  3  5  2  0  0  0  0
  3 37  1  0  0  0  0
  4  1  1  0  0  0  0
  4 38  1  0  0  0  0
  5  8  1  0  0  0  0
  5  6  1  0  0  0  0
  6  4  2  0  0  0  0
  6  7  1  0  0  0  0
  7  9  1  0  0  0  0
  7 39  1  0  0  0  0
  7 40  1  0  0  0  0
  8 17  1  0  0  0  0
  8 11  1  0  0  0  0
  9 10  1  0  0  0  0
  9 41  1  0  0  0  0
  9 42  1  0  0  0  0
 10 11  2  0  0  0  0
 11 12  1  0  0  0  0
 12 13  2  0  0  0  0
 12 43  1  0  0  0  0
 13 16  1  0  0  0  0
 13 14  1  0  0  0  0
 14 15  2  0  0  0  0
 14 44  1  0  0  0  0
 15 10  1  0  0  0  0
 15 45  1  0  0  0  0
 17 18  1  0  0  0  0
 17 46  1  0  0  0  0
 17 47  1  0  0  0  0
 18 19  1  0  0  0  0
 18 48  1  0  0  0  0
 18 49  1  0  0  0  0
 19 20  1  0  0  0  0
 19 50  1  0  0  0  0
 19 51  1  0  0  0  0
 21 22  1  0  0  0  0
 21 26  1  0  0  0  0
 21 52  1  0  0  0  0
 21 53  1  0  0  0  0
 22 23  1  0  0  0  0
 22 54  1  0  0  0  0
 22 55  1  0  0  0  0
 23 24  1  0  0  0  0
 23 56  1  0  0  0  0
 23 57  1  0  0  0  0
 24 25  1  0  0  0  0
 24 27  1  0  0  0  0
 24 58  1  0  0  0  0
 25 26  1  0  0  0  0
 26 59  1  0  0  0  0
 26 60  1  0  0  0  0
 27 28  1  0  0  0  0
 27 61  1  0  0  0  0
 28 29  1  0  0  0  0
 28 34  2  0  0  0  0
 29 25  1  0  0  0  0
 29 32  1  0  0  0  0
 30 31  1  0  0  0  0
 30 20  1  0  0  0  0
 30 62  1  0  0  0  0
 30 63  1  0  0  0  0
 31 29  1  0  0  0  0
 31 64  1  0  0  0  0
 31 65  1  0  0  0  0
 32 33  1  0  0  0  0
 32 66  1  0  0  0  0
 32 67  1  0  0  0  0
 33 20  1  0  0  0  0
 33 68  1  0  0  0  0
 33 69  1  0  0  0  0
M  END
>  <DRUGBANK_ID>
DB13676

>  <COMMON_NAME>
Mosapramine

>  <CAS_NUMBER>
89419-40-9

>  <UNII>
04UZQ7O9SJ

>  <SYNONYMS>
Mosapramine

$$$$
