
 OpenBabel10282417233D

 65 68  0  0  0  0  0  0  0  0999 V2000
   -2.6757   -2.2745    1.2203 C   0  0  0  0  0  0  0  0  0  0  0  0
   -1.6878   -1.5667    1.8638 N   0  0  0  0  0  0  0  0  0  0  0  0
   -1.1444   -0.3091    1.3368 C   0  0  2  0  0  0  0  0  0  0  0  0
    0.4115   -0.4107    1.4862 C   0  0  0  0  0  0  0  0  0  0  0  0
    1.1041   -0.1487    0.3246 N   0  0  0  0  0  0  0  0  0  0  0  0
    2.5669   -0.0441    0.1289 C   0  0  1  0  0  0  0  0  0  0  0  0
    3.0581   -1.1366   -0.8538 C   0  0  0  0  0  0  0  0  0  0  0  0
    2.5397   -1.0199   -2.2769 C   0  0  0  0  0  0  0  0  0  0  0  0
    3.3408   -1.2122   -3.4042 C   0  0  0  0  0  0  0  0  0  0  0  0
    2.7671   -1.2151   -4.7027 C   0  0  0  0  0  0  0  0  0  0  0  0
    1.3901   -1.0045   -4.8859 C   0  0  0  0  0  0  0  0  0  0  0  0
    0.6338   -0.8881   -3.7531 C   0  0  0  0  0  0  0  0  0  0  0  0
    1.1873   -0.8406   -2.5041 C   0  0  0  0  0  0  0  0  0  0  0  0
    0.7592   -1.0804   -6.1601 N   0  0  0  0  0  0  0  0  0  0  0  0
   -0.8428   -0.6577   -6.4983 S   0  0  0  0  0  0  0  0  0  0  0  0
   -0.8412    0.6051   -7.1924 O   0  0  0  0  0  0  0  0  0  0  0  0
   -1.4552   -1.8246   -7.0938 O   0  0  0  0  0  0  0  0  0  0  0  0
   -1.6599   -0.3929   -5.1420 O   0  0  0  0  0  0  0  0  0  0  0  0
    3.0095    1.3317   -0.4025 C   0  0  0  0  0  0  0  0  0  0  0  0
    4.2786    1.8107   -0.0536 N   0  0  0  0  0  0  0  0  0  0  0  0
    4.5201    2.9773   -0.6248 C   0  0  0  0  0  0  0  0  0  0  0  0
    3.3046    3.5303   -1.6994 S   0  0  0  0  0  0  0  0  0  0  0  0
    2.3623    2.1454   -1.3214 C   0  0  0  0  0  0  0  0  0  0  0  0
    5.7595    3.6929   -0.4644 C   0  0  0  0  0  0  0  0  0  0  0  0
    7.0123    3.2516   -0.8440 C   0  0  0  0  0  0  0  0  0  0  0  0
    8.0442    4.1875   -0.5389 C   0  0  0  0  0  0  0  0  0  0  0  0
    7.5492    5.3176    0.0727 C   0  0  0  0  0  0  0  0  0  0  0  0
    5.8444    5.2530    0.2463 S   0  0  0  0  0  0  0  0  0  0  0  0
    0.9545   -0.6747    2.5533 O   0  0  0  0  0  0  0  0  0  0  0  0
   -1.6857    0.9069    2.1240 C   0  0  0  0  0  0  0  0  0  0  0  0
   -1.3154    2.2908    1.6185 C   0  0  0  0  0  0  0  0  0  0  0  0
   -2.0810    3.4026    1.9530 C   0  0  0  0  0  0  0  0  0  0  0  0
   -1.6951    4.6925    1.5451 C   0  0  0  0  0  0  0  0  0  0  0  0
   -0.5231    4.9069    0.8311 C   0  0  0  0  0  0  0  0  0  0  0  0
    0.2737    3.8329    0.5580 C   0  0  0  0  0  0  0  0  0  0  0  0
   -0.1511    2.5646    0.9139 C   0  0  0  0  0  0  0  0  0  0  0  0
   -3.2239   -1.8757    0.2095 O   0  0  0  0  0  0  0  0  0  0  0  0
   -3.0183   -3.4743    1.7741 O   0  0  0  0  0  0  0  0  0  0  0  0
   -2.3828   -4.0086    2.9417 C   0  0  0  0  0  0  0  0  0  0  0  0
   -1.2560   -1.9203    2.7020 H   0  0  0  0  0  0  0  0  0  0  0  0
   -1.4349   -0.2117    0.2826 H   0  0  0  0  0  0  0  0  0  0  0  0
    0.5415    0.2715   -0.3954 H   0  0  0  0  0  0  0  0  0  0  0  0
    3.0273   -0.1984    1.1104 H   0  0  0  0  0  0  0  0  0  0  0  0
    4.1544   -1.1339   -0.8607 H   0  0  0  0  0  0  0  0  0  0  0  0
    2.7373   -2.1173   -0.4809 H   0  0  0  0  0  0  0  0  0  0  0  0
    4.4090   -1.3844   -3.2800 H   0  0  0  0  0  0  0  0  0  0  0  0
    3.4209   -1.4258   -5.5452 H   0  0  0  0  0  0  0  0  0  0  0  0
   -0.4359   -0.8863   -3.7170 H   0  0  0  0  0  0  0  0  0  0  0  0
    0.4269   -0.7181   -1.7604 H   0  0  0  0  0  0  0  0  0  0  0  0
    1.3540   -1.0449   -6.9844 H   0  0  0  0  0  0  0  0  0  0  0  0
   -2.6175   -0.3256   -5.3192 H   0  0  0  0  0  0  0  0  0  0  0  0
    1.3881    2.0229   -1.7731 H   0  0  0  0  0  0  0  0  0  0  0  0
    7.1774    2.2955   -1.3242 H   0  0  0  0  0  0  0  0  0  0  0  0
    9.0959    4.0340   -0.7491 H   0  0  0  0  0  0  0  0  0  0  0  0
    8.1093    6.1761    0.4223 H   0  0  0  0  0  0  0  0  0  0  0  0
   -2.7831    0.8378    2.1525 H   0  0  0  0  0  0  0  0  0  0  0  0
   -1.3491    0.8311    3.1669 H   0  0  0  0  0  0  0  0  0  0  0  0
   -2.9833    3.2808    2.5441 H   0  0  0  0  0  0  0  0  0  0  0  0
   -2.3028    5.5482    1.8097 H   0  0  0  0  0  0  0  0  0  0  0  0
   -0.2020    5.8873    0.5015 H   0  0  0  0  0  0  0  0  0  0  0  0
    1.2397    3.9708    0.0966 H   0  0  0  0  0  0  0  0  0  0  0  0
    0.5330    1.8142    0.6319 H   0  0  0  0  0  0  0  0  0  0  0  0
   -1.3107   -4.1382    2.7680 H   0  0  0  0  0  0  0  0  0  0  0  0
   -2.5746   -3.3603    3.8009 H   0  0  0  0  0  0  0  0  0  0  0  0
   -2.8176   -4.9915    3.1482 H   0  0  0  0  0  0  0  0  0  0  0  0
  1  2  1  0  0  0  0
  1 37  2  0  0  0  0
  1 38  1  0  0  0  0
  2 40  1  0  0  0  0
  3 30  1  0  0  0  0
  3 41  1  6  0  0  0
  3  4  1  0  0  0  0
  3  2  1  0  0  0  0
  4  5  1  0  0  0  0
  4 29  2  0  0  0  0
  5  6  1  0  0  0  0
  5 42  1  0  0  0  0
  6  7  1  0  0  0  0
  6 19  1  0  0  0  0
  6 43  1  1  0  0  0
  7  8  1  0  0  0  0
  7 44  1  0  0  0  0
  7 45  1  0  0  0  0
  8  9  1  0  0  0  0
  8 13  2  0  0  0  0
  9 10  2  0  0  0  0
  9 46  1  0  0  0  0
 10 11  1  0  0  0  0
 10 47  1  0  0  0  0
 11 12  2  0  0  0  0
 11 14  1  0  0  0  0
 12 13  1  0  0  0  0
 12 48  1  0  0  0  0
 13 49  1  0  0  0  0
 14 15  1  0  0  0  0
 14 50  1  0  0  0  0
 15 16  2  0  0  0  0
 15 17  2  0  0  0  0
 15 18  1  0  0  0  0
 18 51  1  0  0  0  0
 19 23  2  0  0  0  0
 20 19  1  0  0  0  0
 21 20  2  0  0  0  0
 21 24  1  0  0  0  0
 22 21  1  0  0  0  0
 22 23  1  0  0  0  0
 23 52  1  0  0  0  0
 24 25  2  0  0  0  0
 24 28  1  0  0  0  0
 25 26  1  0  0  0  0
 25 53  1  0  0  0  0
 26 27  2  0  0  0  0
 26 54  1  0  0  0  0
 27 28  1  0  0  0  0
 27 55  1  0  0  0  0
 30 31  1  0  0  0  0
 30 56  1  0  0  0  0
 30 57  1  0  0  0  0
 31 32  1  0  0  0  0
 31 36  2  0  0  0  0
 32 33  2  0  0  0  0
 32 58  1  0  0  0  0
 33 34  1  0  0  0  0
 33 59  1  0  0  0  0
 34 35  2  0  0  0  0
 34 60  1  0  0  0  0
 35 36  1  0  0  0  0
 35 61  1  0  0  0  0
 36 62  1  0  0  0  0
 38 39  1  0  0  0  0
 39 63  1  0  0  0  0
 39 64  1  0  0  0  0
 39 65  1  0  0  0  0
M  END
>  <DRUGBANK_ID>
DB16353

>  <COMMON_NAME>
Razuprotafib

>  <CAS_NUMBER>
1008510-37-9

>  <UNII>
0WAX4UT396

>  <SYNONYMS>
Razuprotafib

$$$$
