
 OpenBabel10282417133D

 25 25  0  0  1  0  0  0  0  0999 V2000
    1.2375    0.1874    0.1238 C   0  0  0  0  0  0  0  0  0  0  0  0
    0.5427   -0.8852    0.9937 C   0  0  2  0  0  0  0  0  0  0  0  0
    0.8266   -2.3554    0.5692 C   0  0  2  0  0  0  0  0  0  0  0  0
    0.1135   -2.6702   -0.7773 C   0  0  1  0  0  0  0  0  0  0  0  0
   -1.3747   -2.2724   -0.7072 C   0  0  2  0  0  0  0  0  0  0  0  0
   -1.5262   -0.8206   -0.2067 C   0  0  1  0  0  0  0  0  0  0  0  0
    0.3883   -3.2881    1.6415 N   0  0  0  0  0  0  0  0  0  0  0  0
    0.8235    1.5036    0.4884 O   0  0  0  0  0  0  0  0  0  0  0  0
    0.8322   -2.0747   -1.8592 O   0  0  0  0  0  0  0  0  0  0  0  0
   -2.0326   -3.1594    0.2245 O   0  0  0  0  0  0  0  0  0  0  0  0
   -2.8932   -0.5159   -0.0075 O   0  0  0  0  0  0  0  0  0  0  0  0
   -0.8871   -0.6723    1.0601 O   0  0  0  0  0  0  0  0  0  0  0  0
    0.9047   -0.7393    2.0198 H   0  0  0  0  0  0  0  0  0  0  0  0
    1.9070   -2.4956    0.4525 H   0  0  0  0  0  0  0  0  0  0  0  0
    0.1784   -3.7514   -0.9573 H   0  0  0  0  0  0  0  0  0  0  0  0
   -1.8699   -2.3942   -1.6758 H   0  0  0  0  0  0  0  0  0  0  0  0
   -1.1406   -0.0985   -0.9305 H   0  0  0  0  0  0  0  0  0  0  0  0
    0.9857    0.1056   -0.9304 H   0  0  0  0  0  0  0  0  0  0  0  0
    2.3259    0.1222    0.2028 H   0  0  0  0  0  0  0  0  0  0  0  0
   -0.2647   -3.9824    1.2596 H   0  0  0  0  0  0  0  0  0  0  0  0
   -0.1268   -2.7910    2.3688 H   0  0  0  0  0  0  0  0  0  0  0  0
    0.9807    1.6234    1.4395 H   0  0  0  0  0  0  0  0  0  0  0  0
    0.3633   -1.2917   -2.2030 H   0  0  0  0  0  0  0  0  0  0  0  0
   -1.9172   -2.7425    1.1010 H   0  0  0  0  0  0  0  0  0  0  0  0
   -2.9529   -0.3498    0.9482 H   0  0  0  0  0  0  0  0  0  0  0  0
  1 18  1  0  0  0  0
  1 19  1  0  0  0  0
  2  1  1  0  0  0  0
  2 13  1  1  0  0  0
  3  2  1  0  0  0  0
  3 14  1  6  0  0  0
  3  7  1  0  0  0  0
  4  3  1  0  0  0  0
  4  9  1  0  0  0  0
  4 15  1  6  0  0  0
  5  4  1  0  0  0  0
  5 16  1  6  0  0  0
  5 10  1  0  0  0  0
  6  5  1  0  0  0  0
  6 17  1  6  0  0  0
  6 11  1  0  0  0  0
  7 20  1  0  0  0  0
  7 21  1  0  0  0  0
  8  1  1  0  0  0  0
  8 22  1  0  0  0  0
  9 23  1  0  0  0  0
 10 24  1  0  0  0  0
 11 25  1  0  0  0  0
 12  2  1  0  0  0  0
 12  6  1  0  0  0  0
M  END
>  <DRUGBANK_ID>
DB03291

>  <SECONDARY_ACCESSION_NUMBERS>
EXPT01568

>  <COMMON_NAME>
4-Deoxy-4-Amino-Beta-D-Glucose

$$$$
