
 OpenBabel10282417183D

 55 56  0  0  1  0  0  0  0  0999 V2000
   -7.0597   -0.6073  -12.3490 C   0  0  0  0  0  0  0  0  0  0  0  0
   -6.5471   -0.4405  -10.9185 C   0  0  0  0  0  0  0  0  0  0  0  0
   -6.8133   -1.6142  -10.0852 N   0  0  0  0  0  0  0  0  0  0  0  0
   -5.7878   -2.4473   -9.6487 C   0  0  0  0  0  0  0  0  0  0  0  0
   -4.7116   -2.0177   -8.8564 C   0  0  0  0  0  0  0  0  0  0  0  0
   -3.7558   -2.9570   -8.3286 C   0  0  0  0  0  0  0  0  0  0  0  0
   -3.4604   -4.0900   -9.0696 C   0  0  0  0  0  0  0  0  0  0  0  0
   -4.6511   -4.5980   -9.6709 C   0  0  0  0  0  0  0  0  0  0  0  0
   -5.8011   -3.8054   -9.9283 C   0  0  0  0  0  0  0  0  0  0  0  0
   -4.9308   -5.9486   -9.6917 O   0  0  0  0  0  0  0  0  0  0  0  0
   -2.3007   -4.9615   -8.5350 C   0  0  0  0  0  0  0  0  0  0  0  0
   -2.2225   -6.1532   -8.8714 O   0  0  0  0  0  0  0  0  0  0  0  0
   -1.5292   -4.3782   -7.5445 O   0  0  0  0  0  0  0  0  0  0  0  0
   -0.6454   -5.1788   -6.6724 C   0  0  2  0  0  0  0  0  0  0  0  0
   -1.4650   -6.1367   -5.5125 C   0  0  1  0  0  0  0  0  0  0  0  0
   -2.5004   -6.9845   -6.2333 C   0  0  0  0  0  0  0  0  0  0  0  0
   -2.3879   -8.3402   -6.2347 C   0  0  0  0  0  0  0  0  0  0  0  0
   -3.4389   -9.1419   -6.8849 C   0  0  0  0  0  0  0  0  0  0  0  0
   -3.3086  -10.3675   -6.9066 O   0  0  0  0  0  0  0  0  0  0  0  0
   -4.5871   -8.3848   -7.5558 C   0  0  2  0  0  0  0  0  0  0  0  0
   -5.4104   -7.4034   -6.6021 C   0  0  2  0  0  0  0  0  0  0  0  0
   -4.8609   -5.9903   -5.7651 C   0  0  0  0  0  0  0  0  0  0  0  0
   -4.4145   -4.7081   -6.5816 C   0  0  0  0  0  0  0  0  0  0  0  0
   -3.9088   -3.4323   -6.8105 C   0  0  0  0  0  0  0  0  0  0  0  0
   -5.9117   -8.2980   -5.5729 O   0  0  0  0  0  0  0  0  0  0  0  0
   -5.4907   -9.3357   -8.1866 O   0  0  0  0  0  0  0  0  0  0  0  0
   -0.3033   -7.0640   -4.7512 C   0  0  0  0  0  0  0  0  0  0  0  0
    0.3116   -4.2654   -5.8965 C   0  0  0  0  0  0  0  0  0  0  0  0
   -6.5688   -1.4421  -12.8586 H   0  0  0  0  0  0  0  0  0  0  0  0
   -6.8591    0.3018  -12.9313 H   0  0  0  0  0  0  0  0  0  0  0  0
   -8.1412   -0.7817  -12.3795 H   0  0  0  0  0  0  0  0  0  0  0  0
   -5.4813   -0.1970  -10.9526 H   0  0  0  0  0  0  0  0  0  0  0  0
   -7.0670    0.4139  -10.4703 H   0  0  0  0  0  0  0  0  0  0  0  0
   -7.7264   -2.0412  -10.2243 H   0  0  0  0  0  0  0  0  0  0  0  0
   -4.6804   -0.9697   -8.5614 H   0  0  0  0  0  0  0  0  0  0  0  0
   -6.7107   -4.2769  -10.2977 H   0  0  0  0  0  0  0  0  0  0  0  0
   -4.1444   -6.3959   -9.3331 H   0  0  0  0  0  0  0  0  0  0  0  0
   -0.0681   -5.8518   -7.3134 H   0  0  0  0  0  0  0  0  0  0  0  0
   -1.8684   -5.3834   -4.6566 H   0  0  0  0  0  0  0  0  0  0  0  0
   -1.7715   -6.3877   -5.7259 H   0  0  0  0  0  0  0  0  0  0  0  0
   -1.6079   -8.9269   -5.7702 H   0  0  0  0  0  0  0  0  0  0  0  0
   -4.1265   -7.9056   -8.4101 H   0  0  0  0  0  0  0  0  0  0  0  0
   -6.2829   -7.0959   -7.1963 H   0  0  0  0  0  0  0  0  0  0  0  0
   -5.6934   -5.6976   -5.1268 H   0  0  0  0  0  0  0  0  0  0  0  0
   -4.1500   -6.3483   -5.0159 H   0  0  0  0  0  0  0  0  0  0  0  0
   -4.5531   -5.2226   -7.5010 H   0  0  0  0  0  0  0  0  0  0  0  0
   -3.4570   -2.6546   -6.1874 H   0  0  0  0  0  0  0  0  0  0  0  0
   -6.8827   -8.2650   -5.5960 H   0  0  0  0  0  0  0  0  0  0  0  0
   -5.6831  -10.0359   -7.5340 H   0  0  0  0  0  0  0  0  0  0  0  0
    0.4043   -6.4635   -4.1856 H   0  0  0  0  0  0  0  0  0  0  0  0
   -0.7957   -7.7482   -4.0514 H   0  0  0  0  0  0  0  0  0  0  0  0
    0.2379   -7.6412   -5.5126 H   0  0  0  0  0  0  0  0  0  0  0  0
    1.0000   -3.7701   -6.5814 H   0  0  0  0  0  0  0  0  0  0  0  0
   -0.2225   -3.4972   -5.3262 H   0  0  0  0  0  0  0  0  0  0  0  0
    0.9311   -4.8200   -5.1853 H   0  0  0  0  0  0  0  0  0  0  0  0
  1  2  1  0  0  0  0
  1 29  1  0  0  0  0
  1 30  1  0  0  0  0
  1 31  1  0  0  0  0
  2  3  1  0  0  0  0
  2 32  1  0  0  0  0
  2 33  1  0  0  0  0
  3  4  1  0  0  0  0
  3 34  1  0  0  0  0
  4  5  2  0  0  0  0
  4  9  1  0  0  0  0
  5  6  1  0  0  0  0
  5 35  1  0  0  0  0
  6  7  2  0  0  0  0
  6 24  1  0  0  0  0
  7  8  1  0  0  0  0
  7 11  1  0  0  0  0
  8  9  2  0  0  0  0
  8 10  1  0  0  0  0
  9 36  1  0  0  0  0
 10 37  1  0  0  0  0
 11 12  2  0  0  0  0
 11 13  1  0  0  0  0
 13 14  1  0  0  0  0
 14 15  1  0  0  0  0
 14 38  1  6  0  0  0
 14 28  1  0  0  0  0
 15 16  1  0  0  0  0
 15 27  1  0  0  0  0
 15 39  1  1  0  0  0
 16 17  2  0  0  0  0
 16 40  1  0  0  0  0
 17 18  1  0  0  0  0
 17 41  1  0  0  0  0
 18 19  2  0  0  0  0
 18 20  1  0  0  0  0
 20 21  1  0  0  0  0
 20 42  1  6  0  0  0
 20 26  1  0  0  0  0
 21 22  1  0  0  0  0
 21 43  1  6  0  0  0
 21 25  1  0  0  0  0
 22 23  1  0  0  0  0
 22 44  1  0  0  0  0
 22 45  1  0  0  0  0
 23 24  2  0  0  0  0
 23 46  1  0  0  0  0
 24 47  1  0  0  0  0
 25 48  1  0  0  0  0
 26 49  1  0  0  0  0
 27 50  1  0  0  0  0
 27 51  1  0  0  0  0
 27 52  1  0  0  0  0
 28 53  1  0  0  0  0
 28 54  1  0  0  0  0
 28 55  1  0  0  0  0
M  END
>  <DRUGBANK_ID>
DB11687

>  <COMMON_NAME>
E-6201

>  <CAS_NUMBER>
603987-35-5

>  <UNII>
CZP9GB25HO

$$$$
