
 OpenBabel10282417113D

179179  0  0  0  0  0  0  0  0999 V2000
   -2.7949   -7.8188   -7.3454 C   0  0  0  0  0  0  0  0  0  0  0  0
   -5.0670   -9.1637   -8.4021 C   0  0  2  0  0  0  0  0  0  0  0  0
   -0.5768   -6.4736   -6.5935 N   0  0  0  0  0  0  0  0  0  0  0  0
   -7.3072   -9.7166   -9.5453 N   0  0  0  0  0  0  0  0  0  0  0  0
    1.2201   -5.1571   -5.4990 C   0  0  3  0  0  0  0  0  0  0  0  0
    1.0145   -3.7615   -5.3157 C   0  0  0  0  0  0  0  0  0  0  0  0
    0.0734   -4.7537   -5.2369 N   0  0  0  0  0  0  0  0  0  0  0  0
  -11.6397   -7.9889   -8.8558 N   0  0  0  0  0  0  0  0  0  0  0  0
   -0.9736   -4.6443   -6.2691 C   0  0  0  0  0  0  0  0  0  0  0  0
  -11.2260   -7.0070   -7.9047 C   0  0  0  0  0  0  0  0  0  0  0  0
   -0.9913   -5.8099   -7.9286 C   0  0  0  0  0  0  0  0  0  0  0  0
   -9.8600   -6.2823   -8.0112 C   0  0  2  0  0  0  0  0  0  0  0  0
   -1.0074   -7.8703   -6.5345 C   0  0  1  0  0  0  0  0  0  0  0  0
   -8.7310   -7.3250   -7.8878 N   0  0  0  0  0  0  0  0  0  0  0  0
   -0.9168   -8.6201   -7.6418 C   0  0  0  0  0  0  0  0  0  0  0  0
   -7.7138   -7.2947   -7.0493 C   0  0  0  0  0  0  0  0  0  0  0  0
   -1.9531   -8.6166   -8.6869 N   0  0  0  0  0  0  0  0  0  0  0  0
   -3.2037   -7.3191   -8.8803 C   0  0  2  0  0  0  0  0  0  0  0  0
   -6.6538   -8.3187   -6.9532 C   0  0  2  0  0  0  0  0  0  0  0  0
   -4.3364   -7.6785   -8.2650 C   0  0  0  0  0  0  0  0  0  0  0  0
   -5.2088   -7.6545   -7.1905 N   0  0  0  0  0  0  0  0  0  0  0  0
   -3.9754   -8.4430   -9.2731 O   0  0  0  0  0  0  0  0  0  0  0  0
   -6.8853   -9.2967   -7.8188 C   0  0  0  0  0  0  0  0  0  0  0  0
   -9.6222   -5.2783   -7.0292 C   0  0  0  0  0  0  0  0  0  0  0  0
  -11.9342   -6.6674   -6.9572 O   0  0  0  0  0  0  0  0  0  0  0  0
  -10.7722   -8.4220  -10.0120 C   0  0  2  0  0  0  0  0  0  0  0  0
   -9.4715   -9.8867   -9.7806 C   0  0  0  0  0  0  0  0  0  0  0  0
  -10.0601  -10.3083   -8.7460 O   0  0  0  0  0  0  0  0  0  0  0  0
   -9.5988   -7.6205  -10.1597 C   0  0  0  0  0  0  0  0  0  0  0  0
   -7.2532  -10.6280   -9.1691 C   0  0  0  0  0  0  0  0  0  0  0  0
    2.7030   -5.4583   -4.1195 C   0  0  1  0  0  0  0  0  0  0  0  0
    1.2005   -2.8595   -6.0574 O   0  0  0  0  0  0  0  0  0  0  0  0
   -6.7698  -10.8006   -7.4125 C   0  0  0  0  0  0  0  0  0  0  0  0
   -7.8937  -10.9391   -6.4806 C   0  0  0  0  0  0  0  0  0  0  0  0
   -6.6913  -12.0387   -8.4133 C   0  0  0  0  0  0  0  0  0  0  0  0
   -7.5760   -6.4408   -6.2010 O   0  0  0  0  0  0  0  0  0  0  0  0
   -9.6446   -3.9105   -7.6117 C   0  0  0  0  0  0  0  0  0  0  0  0
  -11.0005   -3.6716   -8.2245 C   0  0  0  0  0  0  0  0  0  0  0  0
   -9.3851   -2.9065   -6.5212 C   0  0  0  0  0  0  0  0  0  0  0  0
   -8.4115   -8.3333  -10.2285 C   0  0  0  0  0  0  0  0  0  0  0  0
   -8.4032   -9.2583  -11.4782 N   0  0  0  0  0  0  0  0  0  0  0  0
   -8.3528  -12.6808   -9.7871 C   0  0  0  0  0  0  0  0  0  0  0  0
   -7.8713  -12.9334  -11.0614 N   0  0  0  0  0  0  0  0  0  0  0  0
   -1.5974   -6.5354   -6.8173 O   0  0  0  0  0  0  0  0  0  0  0  0
    3.7408   -5.5690   -2.8171 C   0  0  0  0  0  0  0  0  0  0  0  0
    0.8760   -5.0239   -3.1688 O   0  0  0  0  0  0  0  0  0  0  0  0
   -3.0981   -6.7300  -10.0598 C   0  0  0  0  0  0  0  0  0  0  0  0
   -3.3524   -7.7835  -11.1098 C   0  0  0  0  0  0  0  0  0  0  0  0
   -4.7139   -8.3812  -11.0405 N   0  0  0  0  0  0  0  0  0  0  0  0
   -0.0449   -9.4170   -7.5557 O   0  0  0  0  0  0  0  0  0  0  0  0
    0.2288   -7.7011   -5.4492 N   0  0  0  0  0  0  0  0  0  0  0  0
    0.0678   -7.1370   -4.1960 C   0  0  0  0  0  0  0  0  0  0  0  0
    1.3112   -7.3008   -3.3214 C   0  0  1  0  0  0  0  0  0  0  0  0
    1.9254   -6.2241   -2.5756 N   0  0  0  0  0  0  0  0  0  0  0  0
    1.9265   -5.6927   -1.3326 C   0  0  0  0  0  0  0  0  0  0  0  0
    2.3820   -4.1962   -0.9677 C   0  0  1  0  0  0  0  0  0  0  0  0
    1.3330   -3.5143   -0.2079 N   0  0  0  0  0  0  0  0  0  0  0  0
    1.4762   -3.0886    1.1561 C   0  0  0  0  0  0  0  0  0  0  0  0
    0.4383   -2.4500    1.9414 C   0  0  1  0  0  0  0  0  0  0  0  0
    0.0855   -3.2673    3.1304 N   0  0  0  0  0  0  0  0  0  0  0  0
    0.2470   -2.7272    4.4346 C   0  0  0  0  0  0  0  0  0  0  0  0
   -0.1326   -3.5825    5.6388 C   0  0  0  0  0  0  0  0  0  0  0  0
    1.0729   -3.7690    6.5408 C   0  0  0  0  0  0  0  0  0  0  0  0
   -0.9016   -6.4625   -3.8133 O   0  0  0  0  0  0  0  0  0  0  0  0
    0.9463   -8.0834   -2.1860 C   0  0  0  0  0  0  0  0  0  0  0  0
    0.4666   -9.3923   -2.6515 C   0  0  0  0  0  0  0  0  0  0  0  0
    1.5186  -10.0665   -3.4033 N   0  0  0  0  0  0  0  0  0  0  0  0
    1.4944   -6.4387   -0.5234 O   0  0  0  0  0  0  0  0  0  0  0  0
    3.6706   -4.4464   -0.2054 C   0  0  2  0  0  0  0  0  0  0  0  0
    3.5598   -4.1801    1.0428 O   0  0  0  0  0  0  0  0  0  0  0  0
    4.8074   -3.6573   -0.6760 C   0  0  0  0  0  0  0  0  0  0  0  0
    2.4096   -3.2064    1.9447 O   0  0  0  0  0  0  0  0  0  0  0  0
    0.9775   -1.0956    2.3764 C   0  0  0  0  0  0  0  0  0  0  0  0
    1.3565   -0.2549    1.2023 C   0  0  0  0  0  0  0  0  0  0  0  0
    0.1947   -0.0643    0.3419 N   0  0  0  0  0  0  0  0  0  0  0  0
    0.6670   -1.5846    4.6447 O   0  0  0  0  0  0  0  0  0  0  0  0
    1.5752   -2.4270    7.0281 C   0  0  0  0  0  0  0  0  0  0  0  0
    0.4921   -1.7133    7.8162 C   0  0  3  0  0  0  0  0  0  0  0  0
    0.1046   -2.5565    9.0150 C   0  0  0  0  0  0  0  0  0  0  0  0
    1.3027   -2.7643    9.9063 C   0  0  0  0  0  0  0  0  0  0  0  0
    0.9883   -0.3674    8.2755 C   0  0  0  0  0  0  0  0  0  0  0  0
   -6.1536   -9.9263   -9.5561 H   0  0  0  0  0  0  0  0  0  0  0  0
    1.0281   -5.8763   -6.4864 H   0  0  0  0  0  0  0  0  0  0  0  0
   -8.7829  -10.1687  -10.2131 H   0  0  0  0  0  0  0  0  0  0  0  0
    2.1232   -3.9076   -4.3208 H   0  0  0  0  0  0  0  0  0  0  0  0
    0.2723   -5.7421   -4.8500 H   0  0  0  0  0  0  0  0  0  0  0  0
  -12.5657   -8.4402   -8.7191 H   0  0  0  0  0  0  0  0  0  0  0  0
   -1.8269   -4.8445   -5.6955 H   0  0  0  0  0  0  0  0  0  0  0  0
   -0.8014   -3.8274   -6.8222 H   0  0  0  0  0  0  0  0  0  0  0  0
   -1.9866   -5.7897   -8.1202 H   0  0  0  0  0  0  0  0  0  0  0  0
    0.0308   -5.9036   -8.1506 H   0  0  0  0  0  0  0  0  0  0  0  0
   -9.8376   -5.7557   -9.0454 H   0  0  0  0  0  0  0  0  0  0  0  0
   -1.9360   -7.4056   -5.8067 H   0  0  0  0  0  0  0  0  0  0  0  0
   -8.8084   -8.0280   -8.5326 H   0  0  0  0  0  0  0  0  0  0  0  0
   -2.0896   -9.3347   -9.2878 H   0  0  0  0  0  0  0  0  0  0  0  0
   -3.2624   -6.5114   -8.0160 H   0  0  0  0  0  0  0  0  0  0  0  0
   -6.6410   -8.8403   -6.0632 H   0  0  0  0  0  0  0  0  0  0  0  0
   -4.9930   -6.9805   -6.5540 H   0  0  0  0  0  0  0  0  0  0  0  0
   -7.7564   -9.1330   -8.2349 H   0  0  0  0  0  0  0  0  0  0  0  0
   -6.3976   -8.4129   -8.2230 H   0  0  0  0  0  0  0  0  0  0  0  0
  -10.3340   -5.4133   -6.2533 H   0  0  0  0  0  0  0  0  0  0  0  0
   -8.6918   -5.3788   -6.6182 H   0  0  0  0  0  0  0  0  0  0  0  0
  -11.3617   -8.2301  -10.9246 H   0  0  0  0  0  0  0  0  0  0  0  0
   -9.5045   -6.9631  -10.9066 H   0  0  0  0  0  0  0  0  0  0  0  0
   -9.4851   -7.0708   -9.3849 H   0  0  0  0  0  0  0  0  0  0  0  0
   -8.9020  -11.3421   -9.1750 H   0  0  0  0  0  0  0  0  0  0  0  0
   -8.7849  -11.6238   -9.0625 H   0  0  0  0  0  0  0  0  0  0  0  0
    2.4411   -6.3199   -4.4901 H   0  0  0  0  0  0  0  0  0  0  0  0
   -5.8277  -10.9548   -7.1025 H   0  0  0  0  0  0  0  0  0  0  0  0
   -8.8708  -10.7571   -6.9186 H   0  0  0  0  0  0  0  0  0  0  0  0
   -7.8630  -11.9272   -6.0750 H   0  0  0  0  0  0  0  0  0  0  0  0
   -7.7329  -10.2178   -5.7008 H   0  0  0  0  0  0  0  0  0  0  0  0
   -6.2400  -11.7928   -9.4355 H   0  0  0  0  0  0  0  0  0  0  0  0
   -7.0058  -12.9094   -8.1951 H   0  0  0  0  0  0  0  0  0  0  0  0
   -7.7097  -12.0392   -8.5906 H   0  0  0  0  0  0  0  0  0  0  0  0
   -8.8778   -3.8153   -8.3796 H   0  0  0  0  0  0  0  0  0  0  0  0
  -11.7681   -3.7772   -7.4659 H   0  0  0  0  0  0  0  0  0  0  0  0
  -11.0479   -2.6784   -8.6433 H   0  0  0  0  0  0  0  0  0  0  0  0
  -11.1936   -4.3902   -9.0128 H   0  0  0  0  0  0  0  0  0  0  0  0
   -8.4096   -3.0723   -6.0790 H   0  0  0  0  0  0  0  0  0  0  0  0
   -9.4218   -1.9035   -6.9266 H   0  0  0  0  0  0  0  0  0  0  0  0
  -10.1402   -3.0009   -5.7480 H   0  0  0  0  0  0  0  0  0  0  0  0
   -7.4248   -7.9921  -10.0363 H   0  0  0  0  0  0  0  0  0  0  0  0
   -8.6638   -8.9906   -9.2081 H   0  0  0  0  0  0  0  0  0  0  0  0
   -7.6910  -10.0536  -11.2476 H   0  0  0  0  0  0  0  0  0  0  0  0
   -9.1862   -9.8357  -11.4913 H   0  0  0  0  0  0  0  0  0  0  0  0
   -8.2482  -13.7698   -9.0936 H   0  0  0  0  0  0  0  0  0  0  0  0
   -9.1958  -14.1196  -10.3208 H   0  0  0  0  0  0  0  0  0  0  0  0
   -7.2001  -13.6506  -11.2300 H   0  0  0  0  0  0  0  0  0  0  0  0
   -8.4532  -12.6992  -11.8234 H   0  0  0  0  0  0  0  0  0  0  0  0
    3.6745   -4.8047   -2.1202 H   0  0  0  0  0  0  0  0  0  0  0  0
    3.6260   -6.5306   -2.2256 H   0  0  0  0  0  0  0  0  0  0  0  0
    4.5863   -5.5666   -3.3426 H   0  0  0  0  0  0  0  0  0  0  0  0
    1.1107   -4.6068   -2.2849 H   0  0  0  0  0  0  0  0  0  0  0  0
   -3.8742   -6.0118   -9.9958 H   0  0  0  0  0  0  0  0  0  0  0  0
   -2.1322   -6.3161  -10.1154 H   0  0  0  0  0  0  0  0  0  0  0  0
   -3.3305   -7.2982  -12.0318 H   0  0  0  0  0  0  0  0  0  0  0  0
   -2.5852   -8.5584  -11.0457 H   0  0  0  0  0  0  0  0  0  0  0  0
   -4.8378   -9.1396  -11.6329 H   0  0  0  0  0  0  0  0  0  0  0  0
   -4.7013   -8.9301  -10.1572 H   0  0  0  0  0  0  0  0  0  0  0  0
    1.0065   -7.9142   -6.0246 H   0  0  0  0  0  0  0  0  0  0  0  0
    2.1204   -7.7193   -3.9256 H   0  0  0  0  0  0  0  0  0  0  0  0
    1.8077   -5.0040   -3.2787 H   0  0  0  0  0  0  0  0  0  0  0  0
    2.6441   -3.5887   -1.8504 H   0  0  0  0  0  0  0  0  0  0  0  0
    0.4530   -3.3229   -0.6924 H   0  0  0  0  0  0  0  0  0  0  0  0
   -0.4044   -2.3267    1.3071 H   0  0  0  0  0  0  0  0  0  0  0  0
   -0.2598   -4.2118    2.9697 H   0  0  0  0  0  0  0  0  0  0  0  0
   -0.9245   -3.0854    6.2031 H   0  0  0  0  0  0  0  0  0  0  0  0
   -0.5027   -4.5410    5.3202 H   0  0  0  0  0  0  0  0  0  0  0  0
    0.8055   -4.3847    7.3958 H   0  0  0  0  0  0  0  0  0  0  0  0
    1.8553   -4.2774    5.9948 H   0  0  0  0  0  0  0  0  0  0  0  0
    1.8263   -8.1920   -1.5446 H   0  0  0  0  0  0  0  0  0  0  0  0
    0.1757   -7.5450   -1.6236 H   0  0  0  0  0  0  0  0  0  0  0  0
    0.1838   -9.9831   -1.7951 H   0  0  0  0  0  0  0  0  0  0  0  0
   -0.4059   -9.2491   -3.2808 H   0  0  0  0  0  0  0  0  0  0  0  0
    1.1783  -10.9682   -3.7287 H   0  0  0  0  0  0  0  0  0  0  0  0
    1.7754   -9.5108   -4.2183 H   0  0  0  0  0  0  0  0  0  0  0  0
    3.8600   -5.4834   -0.0688 H   0  0  0  0  0  0  0  0  0  0  0  0
    2.5589   -4.3602    0.9163 H   0  0  0  0  0  0  0  0  0  0  0  0
    5.6596   -3.7981   -0.0332 H   0  0  0  0  0  0  0  0  0  0  0  0
    5.0520   -4.0110   -1.6584 H   0  0  0  0  0  0  0  0  0  0  0  0
    4.5635   -2.6042   -0.7299 H   0  0  0  0  0  0  0  0  0  0  0  0
    0.2001   -0.5916    2.9521 H   0  0  0  0  0  0  0  0  0  0  0  0
    1.8502   -1.2333    3.0289 H   0  0  0  0  0  0  0  0  0  0  0  0
    1.7267    0.7040    1.5420 H   0  0  0  0  0  0  0  0  0  0  0  0
    2.1463   -0.7518    0.6469 H   0  0  0  0  0  0  0  0  0  0  0  0
    0.4513    0.4994   -0.4643 H   0  0  0  0  0  0  0  0  0  0  0  0
   -0.1490   -0.9629    0.0164 H   0  0  0  0  0  0  0  0  0  0  0  0
    2.4514   -2.5607    7.6470 H   0  0  0  0  0  0  0  0  0  0  0  0
    1.8736   -1.8209    6.1863 H   0  0  0  0  0  0  0  0  0  0  0  0
   -0.3770   -1.5659    7.1823 H   0  0  0  0  0  0  0  0  0  0  0  0
   -0.6823   -2.0626    9.5696 H   0  0  0  0  0  0  0  0  0  0  0  0
   -0.2704   -3.5198    8.6853 H   0  0  0  0  0  0  0  0  0  0  0  0
    1.6758   -1.8078   10.2513 H   0  0  0  0  0  0  0  0  0  0  0  0
    1.0387   -3.3628   10.7610 H   0  0  0  0  0  0  0  0  0  0  0  0
    2.0929   -3.2664    9.3603 H   0  0  0  0  0  0  0  0  0  0  0  0
    1.2680    0.2402    7.4274 H   0  0  0  0  0  0  0  0  0  0  0  0
    0.2153    0.1403    8.8395 H   0  0  0  0  0  0  0  0  0  0  0  0
    1.8582   -0.4914    8.9099 H   0  0  0  0  0  0  0  0  0  0  0  0
  1  2  1  0  0  0  0
  1  3  1  0  0  0  0
  1 44  2  0  0  0  0
  2  4  1  0  0  0  0
  2 82  1  6  0  0  0
  2 30  1  0  0  0  0
  3  5  1  0  0  0  0
  3 83  1  0  0  0  0
  4 27  1  0  0  0  0
  4 84  1  0  0  0  0
  5  6  1  0  0  0  0
  5 31  1  0  0  0  0
  5 85  1  0  0  0  0
  6  7  1  0  0  0  0
  6 32  2  0  0  0  0
  7  9  1  0  0  0  0
  7 86  1  0  0  0  0
  8 10  1  0  0  0  0
  8 87  1  0  0  0  0
  9 11  1  0  0  0  0
  9 88  1  0  0  0  0
  9 89  1  0  0  0  0
 10 25  2  0  0  0  0
 10 12  1  0  0  0  0
 11 13  1  0  0  0  0
 11 90  1  0  0  0  0
 11 91  1  0  0  0  0
 12 14  1  0  0  0  0
 12 92  1  6  0  0  0
 12 24  1  0  0  0  0
 13 15  1  0  0  0  0
 13 93  1  1  0  0  0
 13 51  1  0  0  0  0
 14 16  1  0  0  0  0
 14 94  1  0  0  0  0
 15 50  2  0  0  0  0
 15 17  1  0  0  0  0
 16 36  2  0  0  0  0
 16 19  1  0  0  0  0
 17 18  1  0  0  0  0
 17 95  1  0  0  0  0
 18 47  1  0  0  0  0
 18 20  1  0  0  0  0
 18 96  1  1  0  0  0
 19 21  1  0  0  0  0
 19 97  1  1  0  0  0
 19 23  1  0  0  0  0
 20 21  1  0  0  0  0
 20 22  2  0  0  0  0
 21 98  1  0  0  0  0
 23 33  1  0  0  0  0
 23 99  1  0  0  0  0
 23100  1  0  0  0  0
 24 37  1  0  0  0  0
 24101  1  0  0  0  0
 24102  1  0  0  0  0
 26 27  1  0  0  0  0
 26  8  1  0  0  0  0
 26103  1  6  0  0  0
 26 29  1  0  0  0  0
 27 28  2  0  0  0  0
 29 40  1  0  0  0  0
 29104  1  0  0  0  0
 29105  1  0  0  0  0
 30 42  1  0  0  0  0
 30106  1  0  0  0  0
 30107  1  0  0  0  0
 31 45  1  0  0  0  0
 31 46  1  0  0  0  0
 31108  1  1  0  0  0
 33 34  1  0  0  0  0
 33 35  1  0  0  0  0
 33109  1  0  0  0  0
 34110  1  0  0  0  0
 34111  1  0  0  0  0
 34112  1  0  0  0  0
 35113  1  0  0  0  0
 35114  1  0  0  0  0
 35115  1  0  0  0  0
 37 38  1  0  0  0  0
 37 39  1  0  0  0  0
 37116  1  0  0  0  0
 38117  1  0  0  0  0
 38118  1  0  0  0  0
 38119  1  0  0  0  0
 39120  1  0  0  0  0
 39121  1  0  0  0  0
 39122  1  0  0  0  0
 40 41  1  0  0  0  0
 40123  1  0  0  0  0
 40124  1  0  0  0  0
 41125  1  0  0  0  0
 41126  1  0  0  0  0
 42 43  1  0  0  0  0
 42127  1  0  0  0  0
 42128  1  0  0  0  0
 43129  1  0  0  0  0
 43130  1  0  0  0  0
 45131  1  0  0  0  0
 45132  1  0  0  0  0
 45133  1  0  0  0  0
 46134  1  0  0  0  0
 47 48  1  0  0  0  0
 47135  1  0  0  0  0
 47136  1  0  0  0  0
 48 49  1  0  0  0  0
 48137  1  0  0  0  0
 48138  1  0  0  0  0
 49139  1  0  0  0  0
 49140  1  0  0  0  0
 51 52  1  0  0  0  0
 51141  1  0  0  0  0
 52 53  1  0  0  0  0
 52 64  2  0  0  0  0
 53 54  1  0  0  0  0
 53 65  1  0  0  0  0
 53142  1  6  0  0  0
 54 55  1  0  0  0  0
 54143  1  0  0  0  0
 55 56  1  0  0  0  0
 55 68  2  0  0  0  0
 56 57  1  0  0  0  0
 56144  1  6  0  0  0
 57 58  1  0  0  0  0
 57145  1  0  0  0  0
 58 59  1  0  0  0  0
 58 72  2  0  0  0  0
 59 60  1  0  0  0  0
 59 73  1  0  0  0  0
 59146  1  6  0  0  0
 60 61  1  0  0  0  0
 60147  1  0  0  0  0
 61 62  1  0  0  0  0
 61 76  2  0  0  0  0
 62 63  1  0  0  0  0
 62148  1  0  0  0  0
 62149  1  0  0  0  0
 63 77  1  0  0  0  0
 63150  1  0  0  0  0
 63151  1  0  0  0  0
 65 66  1  0  0  0  0
 65152  1  0  0  0  0
 65153  1  0  0  0  0
 66 67  1  0  0  0  0
 66154  1  0  0  0  0
 66155  1  0  0  0  0
 67156  1  0  0  0  0
 67157  1  0  0  0  0
 69 71  1  0  0  0  0
 69158  1  6  0  0  0
 69 70  1  0  0  0  0
 69 56  1  0  0  0  0
 70159  1  0  0  0  0
 71160  1  0  0  0  0
 71161  1  0  0  0  0
 71162  1  0  0  0  0
 73 74  1  0  0  0  0
 73163  1  0  0  0  0
 73164  1  0  0  0  0
 74 75  1  0  0  0  0
 74165  1  0  0  0  0
 74166  1  0  0  0  0
 75167  1  0  0  0  0
 75168  1  0  0  0  0
 77 78  1  0  0  0  0
 77169  1  0  0  0  0
 77170  1  0  0  0  0
 78 79  1  0  0  0  0
 78 81  1  0  0  0  0
 78171  1  0  0  0  0
 79 80  1  0  0  0  0
 79172  1  0  0  0  0
 79173  1  0  0  0  0
 80174  1  0  0  0  0
 80175  1  0  0  0  0
 80176  1  0  0  0  0
 81177  1  0  0  0  0
 81178  1  0  0  0  0
 81179  1  0  0  0  0
M  END
>  <DRUGBANK_ID>
DB00803

>  <SECONDARY_ACCESSION_NUMBERS>
APRD00886

>  <COMMON_NAME>
Colistin

>  <CAS_NUMBER>
1066-17-7

>  <UNII>
Z67X93HJG1

>  <SYNONYMS>
Colimycin; Colistin; Colistina; Colistine; Colistinum; Kolimycin; Polymyxin E

$$$$
