
 OpenBabel10282417193D

 32 34  0  0  0  0  0  0  0  0999 V2000
   -0.5822   -1.2348    0.0071 C   0  0  0  0  0  0  0  0  0  0  0  0
   -1.3280   -0.0676   -0.0263 C   0  0  0  0  0  0  0  0  0  0  0  0
   -0.6350    1.1308    0.0530 C   0  0  0  0  0  0  0  0  0  0  0  0
    0.7249    1.2417    0.0202 N   0  0  0  0  0  0  0  0  0  0  0  0
    1.4368    0.0899    0.0181 C   0  0  0  0  0  0  0  0  0  0  0  0
    0.8114   -1.1542    0.1094 C   0  0  0  0  0  0  0  0  0  0  0  0
    2.8794    0.1915   -0.2229 C   0  0  0  0  0  0  0  0  0  0  0  0
    4.1733    0.2554   -0.3703 C   0  0  0  0  0  0  0  0  0  0  0  0
    5.6817    0.3299   -0.5421 C   0  0  0  0  0  0  0  0  0  0  0  0
    5.5456   -1.0694   -1.2595 C   0  0  0  0  0  0  0  0  0  0  0  0
    4.1904   -1.4659   -2.2187 C   0  0  0  0  0  0  0  0  0  0  0  0
    2.7879   -1.2575   -2.5936 C   0  0  0  0  0  0  0  0  0  0  0  0
    2.7535   -1.5370   -3.9746 N   0  0  0  0  0  0  0  0  0  0  0  0
    1.8507   -1.8197   -5.0280 C   0  0  0  0  0  0  0  0  0  0  0  0
    2.4203   -2.2438   -6.1892 C   0  0  0  0  0  0  0  0  0  0  0  0
    3.8707   -2.1767   -6.3671 C   0  0  0  0  0  0  0  0  0  0  0  0
    4.6481   -1.7114   -5.4133 C   0  0  0  0  0  0  0  0  0  0  0  0
    4.0952   -1.7302   -4.1453 C   0  0  0  0  0  0  0  0  0  0  0  0
    4.6146   -2.3178   -3.1295 N   0  0  0  0  0  0  0  0  0  0  0  0
    1.7033   -2.6991   -7.2308 F   0  0  0  0  0  0  0  0  0  0  0  0
   -1.0782   -2.2009   -0.0535 H   0  0  0  0  0  0  0  0  0  0  0  0
   -2.4130   -0.0945   -0.0868 H   0  0  0  0  0  0  0  0  0  0  0  0
   -1.1839    2.0652    0.1524 H   0  0  0  0  0  0  0  0  0  0  0  0
    1.3984   -2.0633    0.1783 H   0  0  0  0  0  0  0  0  0  0  0  0
    5.9485    1.1415   -1.2210 H   0  0  0  0  0  0  0  0  0  0  0  0
    6.2251    0.3407    0.4017 H   0  0  0  0  0  0  0  0  0  0  0  0
    6.4495   -1.1662   -1.8838 H   0  0  0  0  0  0  0  0  0  0  0  0
    5.6165   -1.8684   -0.5108 H   0  0  0  0  0  0  0  0  0  0  0  0
    1.8213   -1.3630   -2.1149 H   0  0  0  0  0  0  0  0  0  0  0  0
    0.7677   -1.7983   -4.9127 H   0  0  0  0  0  0  0  0  0  0  0  0
    4.3451   -2.5263   -7.2715 H   0  0  0  0  0  0  0  0  0  0  0  0
    5.7162   -1.5484   -5.3828 H   0  0  0  0  0  0  0  0  0  0  0  0
  1  2  2  0  0  0  0
  1  6  1  0  0  0  0
  1 21  1  0  0  0  0
  2  3  1  0  0  0  0
  2 22  1  0  0  0  0
  3  4  2  0  0  0  0
  3 23  1  0  0  0  0
  4  5  1  0  0  0  0
  5  6  2  0  0  0  0
  5  7  1  0  0  0  0
  6 24  1  0  0  0  0
  7  8  3  0  0  0  0
  8  9  1  0  0  0  0
  9 10  1  0  0  0  0
  9 25  1  0  0  0  0
  9 26  1  0  0  0  0
 10 11  1  0  0  0  0
 10 27  1  0  0  0  0
 10 28  1  0  0  0  0
 11 12  2  0  0  0  0
 11 19  1  0  0  0  0
 12 13  1  0  0  0  0
 12 29  1  0  0  0  0
 13 14  1  0  0  0  0
 13 18  1  0  0  0  0
 14 15  2  0  0  0  0
 14 30  1  0  0  0  0
 15 16  1  0  0  0  0
 15 20  1  0  0  0  0
 16 17  2  0  0  0  0
 16 31  1  0  0  0  0
 17 18  1  0  0  0  0
 17 32  1  0  0  0  0
 18 19  2  0  0  0  0
M  END
>  <DRUGBANK_ID>
DB12733

>  <SECONDARY_ACCESSION_NUMBERS>
DB06060

>  <COMMON_NAME>
Dipraglurant

>  <CAS_NUMBER>
872363-17-2

>  <UNII>
CV8JZR21A1

>  <SYNONYMS>
Dipraglurant

$$$$
