
 OpenBabel10282417123D

 17 16  0  0  0  0  0  0  0  0999 V2000
    0.6932    0.5139    0.0509 C   0  0  0  0  0  0  0  0  0  0  0  0
    0.3647    0.5563   -1.4269 C   0  0  0  0  0  0  0  0  0  0  0  0
    0.9425   -0.6018   -2.2556 C   0  0  0  0  0  0  0  0  0  0  0  0
    0.4602   -1.9050   -1.8422 O   0  0  0  0  0  0  0  0  0  0  0  0
    0.8696   -2.6457   -0.7784 C   0  0  0  0  0  0  0  0  0  0  0  0
    1.9349   -2.0878    0.1257 C   0  0  0  0  0  0  0  0  0  0  0  0
    0.3380   -3.7131   -0.5231 O   0  0  0  0  0  0  0  0  0  0  0  0
    0.2273   -0.3767    0.4722 H   0  0  0  0  0  0  0  0  0  0  0  0
    0.2841    1.3396    0.6318 H   0  0  0  0  0  0  0  0  0  0  0  0
    1.7769    0.5329    0.2083 H   0  0  0  0  0  0  0  0  0  0  0  0
   -0.7265    0.5316   -1.5101 H   0  0  0  0  0  0  0  0  0  0  0  0
    0.7176    1.5082   -1.8366 H   0  0  0  0  0  0  0  0  0  0  0  0
    0.5843   -0.4715   -3.2870 H   0  0  0  0  0  0  0  0  0  0  0  0
    2.0356   -0.5958   -2.3249 H   0  0  0  0  0  0  0  0  0  0  0  0
    1.4735   -1.7851    1.0737 H   0  0  0  0  0  0  0  0  0  0  0  0
    2.7111   -2.8123    0.3583 H   0  0  0  0  0  0  0  0  0  0  0  0
    2.4515   -1.2559   -0.3419 H   0  0  0  0  0  0  0  0  0  0  0  0
  1  2  1  0  0  0  0
  1  8  1  0  0  0  0
  1  9  1  0  0  0  0
  1 10  1  0  0  0  0
  2  3  1  0  0  0  0
  2 11  1  0  0  0  0
  2 12  1  0  0  0  0
  3  4  1  0  0  0  0
  3 13  1  0  0  0  0
  3 14  1  0  0  0  0
  4  5  1  0  0  0  0
  5  6  1  0  0  0  0
  5  7  2  0  0  0  0
  6 15  1  0  0  0  0
  6 16  1  0  0  0  0
  6 17  1  0  0  0  0
M  END
>  <DRUGBANK_ID>
DB01670

>  <SECONDARY_ACCESSION_NUMBERS>
EXPT00225

>  <COMMON_NAME>
Propyl acetate

>  <CAS_NUMBER>
109-60-4

>  <UNII>
4AWM8C91G6

$$$$
