
 OpenBabel10282417133D

 24 24  0  0  0  0  0  0  0  0999 V2000
    0.6514    1.2648   -0.2234 C   0  0  1  0  0  0  0  0  0  0  0  0
    1.4546    0.0287    0.2337 C   0  0  1  0  0  0  0  0  0  0  0  0
   -0.6958    1.1996    0.2609 O   0  0  0  0  0  0  0  0  0  0  0  0
    0.7384   -1.2514   -0.2241 C   0  0  2  0  0  0  0  0  0  0  0  0
   -1.3990    0.0441   -0.2325 C   0  0  1  0  0  0  0  0  0  0  0  0
   -0.7231   -1.2500    0.2346 C   0  0  1  0  0  0  0  0  0  0  0  0
    1.4398    2.8099    0.3373 S   0  0  0  0  0  0  0  0  0  0  0  0
    2.7981   -0.0183   -0.2680 O   0  0  0  0  0  0  0  0  0  0  0  0
    1.4180   -2.3994    0.2966 O   0  0  0  0  0  0  0  0  0  0  0  0
   -1.4307   -2.3885   -0.2566 O   0  0  0  0  0  0  0  0  0  0  0  0
   -2.8494    0.0814    0.2620 C   0  0  0  0  0  0  0  0  0  0  0  0
   -3.4995    1.2530   -0.2238 O   0  0  0  0  0  0  0  0  0  0  0  0
    0.6393    1.3241   -1.3180 H   0  0  0  0  0  0  0  0  0  0  0  0
    1.5286    0.0076    1.3288 H   0  0  0  0  0  0  0  0  0  0  0  0
    0.7893   -1.3432   -1.3168 H   0  0  0  0  0  0  0  0  0  0  0  0
   -1.4159    0.1008   -1.3296 H   0  0  0  0  0  0  0  0  0  0  0  0
   -0.7435   -1.3126    1.3307 H   0  0  0  0  0  0  0  0  0  0  0  0
    1.4075    2.5379    1.6493 H   0  0  0  0  0  0  0  0  0  0  0  0
    2.7760    0.0444   -1.2402 H   0  0  0  0  0  0  0  0  0  0  0  0
    2.3349   -2.1272    0.4983 H   0  0  0  0  0  0  0  0  0  0  0  0
   -1.3578   -2.4175   -1.2286 H   0  0  0  0  0  0  0  0  0  0  0  0
   -3.4114   -0.7851   -0.1008 H   0  0  0  0  0  0  0  0  0  0  0  0
   -2.8959    0.0966    1.3556 H   0  0  0  0  0  0  0  0  0  0  0  0
   -2.9686    2.0054    0.0982 H   0  0  0  0  0  0  0  0  0  0  0  0
  1  2  1  0  0  0  0
  1  3  1  0  0  0  0
  1  7  1  0  0  0  0
  1 13  1  6  0  0  0
  2  4  1  0  0  0  0
  2  8  1  0  0  0  0
  2 14  1  1  0  0  0
  3  5  1  0  0  0  0
  4  6  1  0  0  0  0
  4 15  1  6  0  0  0
  4  9  1  0  0  0  0
  5  6  1  0  0  0  0
  5 16  1  6  0  0  0
  5 11  1  0  0  0  0
  6 10  1  0  0  0  0
  6 17  1  1  0  0  0
  7 18  1  0  0  0  0
  8 19  1  0  0  0  0
  9 20  1  0  0  0  0
 10 21  1  0  0  0  0
 11 22  1  0  0  0  0
 11 23  1  0  0  0  0
 12 11  1  0  0  0  0
 12 24  1  0  0  0  0
M  END
>  <DRUGBANK_ID>
DB03859

>  <SECONDARY_ACCESSION_NUMBERS>
EXPT01644

>  <COMMON_NAME>
1-thio-beta-D-glucopyranose

>  <CAS_NUMBER>
7534-35-2

>  <UNII>
NG6BJW0OE1

>  <SYNONYMS>
1-thio-b-D-glucose; 1-thio-β-D-glucose; beta-D-Thioglucose; β-D-Glc-SH; β-D-Glcp-SH

$$$$
