
 OpenBabel10282417153D

 54 56  0  0  0  0  0  0  0  0999 V2000
   -4.1720    1.0232    3.6798 C   0  0  1  0  0  0  0  0  0  0  0  0
   -5.4305    1.4612    3.1610 O   0  0  0  0  0  0  0  0  0  0  0  0
   -4.3014   -0.0301    3.9522 H   0  0  0  0  0  0  0  0  0  0  0  0
   -2.7941    6.1100    2.1730 C   0  0  0  0  0  0  0  0  0  0  0  0
   -0.5835    5.7105    3.8153 C   0  0  0  0  0  0  0  0  0  0  0  0
   -2.1094    4.9302    2.0636 C   0  0  0  0  0  0  0  0  0  0  0  0
   -0.9730    4.7248    2.8664 C   0  0  0  0  0  0  0  0  0  0  0  0
   -0.1565    3.4614    2.6715 C   0  0  0  0  0  0  0  0  0  0  0  0
   -2.6666    3.9437    1.0853 C   0  0  0  0  0  0  0  0  0  0  0  0
   -1.2732    6.9175    3.9027 C   0  0  0  0  0  0  0  0  0  0  0  0
   -2.2785    7.1060    2.9748 C   0  0  0  0  0  0  0  0  0  0  0  0
   -0.9123    7.8363    4.8541 O   0  0  0  0  0  0  0  0  0  0  0  0
   -1.7169    9.0133    5.0518 C   0  0  0  0  0  0  0  0  0  0  0  0
   -1.9410    9.9235    3.8439 C   0  0  0  0  0  0  0  0  0  0  0  0
   -3.2194   10.0806    3.3877 O   0  0  0  0  0  0  0  0  0  0  0  0
   -4.7414    8.1678    4.1318 C   0  0  0  0  0  0  0  0  0  0  0  0
   -4.4684    9.6652    4.0092 C   0  0  0  0  0  0  0  0  0  0  0  0
   -1.6691    2.8561    0.7264 C   0  0  0  0  0  0  0  0  0  0  0  0
   -0.9598    2.3158    1.9716 C   0  0  2  0  0  0  0  0  0  0  0  0
   -1.8725    1.7871    2.9825 N   0  0  0  0  0  0  0  0  0  0  0  0
   -3.0817    1.0818    2.5583 C   0  0  0  0  0  0  0  0  0  0  0  0
   -3.4693    1.1500    6.0866 C   0  0  0  0  0  0  0  0  0  0  0  0
   -3.8499    1.8378    4.9287 C   0  0  0  0  0  0  0  0  0  0  0  0
   -3.7567    3.2477    4.9236 C   0  0  0  0  0  0  0  0  0  0  0  0
   -3.2311    3.9363    6.0186 C   0  0  0  0  0  0  0  0  0  0  0  0
   -2.8706    3.2347    7.1654 C   0  0  0  0  0  0  0  0  0  0  0  0
   -3.0025    1.8477    7.1979 C   0  0  0  0  0  0  0  0  0  0  0  0
   -1.0028   10.4099    3.2304 O   0  0  0  0  0  0  0  0  0  0  0  0
   -0.2698    1.5151    1.6900 H   0  0  0  0  0  0  0  0  0  0  0  0
   -2.5598    0.9765    8.6127 Cl  0  0  0  0  0  0  0  0  0  0  0  0
   -5.3375    2.3993    2.9300 H   0  0  0  0  0  0  0  0  0  0  0  0
   -3.7008    6.2914    1.6016 H   0  0  0  0  0  0  0  0  0  0  0  0
    0.2798    5.5460    4.4570 H   0  0  0  0  0  0  0  0  0  0  0  0
    0.2024    3.1197    3.6520 H   0  0  0  0  0  0  0  0  0  0  0  0
    0.7210    3.7205    2.0691 H   0  0  0  0  0  0  0  0  0  0  0  0
   -2.9843    4.4542    0.1686 H   0  0  0  0  0  0  0  0  0  0  0  0
   -3.5858    3.5396    1.5266 H   0  0  0  0  0  0  0  0  0  0  0  0
   -2.7376    8.0504    2.8034 H   0  0  0  0  0  0  0  0  0  0  0  0
   -2.6377    8.7831    5.5897 H   0  0  0  0  0  0  0  0  0  0  0  0
   -1.1827    9.6448    5.7760 H   0  0  0  0  0  0  0  0  0  0  0  0
   -3.9787    7.6412    4.7063 H   0  0  0  0  0  0  0  0  0  0  0  0
   -5.6846    7.9476    4.6308 H   0  0  0  0  0  0  0  0  0  0  0  0
   -4.8020    7.7122    3.1390 H   0  0  0  0  0  0  0  0  0  0  0  0
   -4.5506   10.1670    4.9723 H   0  0  0  0  0  0  0  0  0  0  0  0
   -5.2473   10.0615    3.3481 H   0  0  0  0  0  0  0  0  0  0  0  0
   -0.9286    3.2627    0.0291 H   0  0  0  0  0  0  0  0  0  0  0  0
   -2.1835    2.0545    0.1836 H   0  0  0  0  0  0  0  0  0  0  0  0
   -2.1520    2.5971    3.5312 H   0  0  0  0  0  0  0  0  0  0  0  0
   -2.8020    0.0721    2.2410 H   0  0  0  0  0  0  0  0  0  0  0  0
   -3.5687    1.5222    1.6853 H   0  0  0  0  0  0  0  0  0  0  0  0
   -3.5022    0.0634    6.1042 H   0  0  0  0  0  0  0  0  0  0  0  0
   -3.9776    3.8191    4.0245 H   0  0  0  0  0  0  0  0  0  0  0  0
   -3.0719    5.0114    5.9631 H   0  0  0  0  0  0  0  0  0  0  0  0
   -2.4781    3.7702    8.0246 H   0  0  0  0  0  0  0  0  0  0  0  0
  1  3  1  1  0  0  0
  1 23  1  0  0  0  0
  1 21  1  0  0  0  0
  2  1  1  0  0  0  0
  2 31  1  0  0  0  0
  4 11  2  0  0  0  0
  4 32  1  0  0  0  0
  5  7  1  0  0  0  0
  5 33  1  0  0  0  0
  6  4  1  0  0  0  0
  6  9  1  0  0  0  0
  6  7  2  0  0  0  0
  7  8  1  0  0  0  0
  8 19  1  0  0  0  0
  8 34  1  0  0  0  0
  8 35  1  0  0  0  0
  9 36  1  0  0  0  0
  9 37  1  0  0  0  0
 10 11  1  0  0  0  0
 10  5  2  0  0  0  0
 10 12  1  0  0  0  0
 11 38  1  0  0  0  0
 13 12  1  0  0  0  0
 13 14  1  0  0  0  0
 13 39  1  0  0  0  0
 13 40  1  0  0  0  0
 14 28  2  0  0  0  0
 15 14  1  0  0  0  0
 15 17  1  0  0  0  0
 16 17  1  0  0  0  0
 16 41  1  0  0  0  0
 16 42  1  0  0  0  0
 16 43  1  0  0  0  0
 17 44  1  0  0  0  0
 17 45  1  0  0  0  0
 18 19  1  0  0  0  0
 18  9  1  0  0  0  0
 18 46  1  0  0  0  0
 18 47  1  0  0  0  0
 19 29  1  6  0  0  0
 19 20  1  0  0  0  0
 20 21  1  0  0  0  0
 20 48  1  0  0  0  0
 21 49  1  0  0  0  0
 21 50  1  0  0  0  0
 22 23  2  0  0  0  0
 22 51  1  0  0  0  0
 23 24  1  0  0  0  0
 24 25  2  0  0  0  0
 24 52  1  0  0  0  0
 25 26  1  0  0  0  0
 25 53  1  0  0  0  0
 26 27  2  0  0  0  0
 26 54  1  0  0  0  0
 27 22  1  0  0  0  0
 27 30  1  0  0  0  0
M  END
>  <DRUGBANK_ID>
DB05395

>  <COMMON_NAME>
Amibegron

>  <CAS_NUMBER>
121524-08-1

>  <UNII>
PDQ3ME68U3

>  <SYNONYMS>
Amibegron

$$$$
