
 OpenBabel10282417243D

 48 50  0  0  0  0  0  0  0  0999 V2000
   -1.1296   -0.0735   -1.4615 C   0  0  0  0  0  0  0  0  0  0  0  0
   -0.8497   -0.0007    0.0474 C   0  0  2  0  0  0  0  0  0  0  0  0
   -2.0903    0.0108    0.7481 O   0  0  0  0  0  0  0  0  0  0  0  0
   -0.0640    1.2708    0.4133 C   0  0  0  0  0  0  0  0  0  0  0  0
    1.3544    1.2475   -0.1874 C   0  0  0  0  0  0  0  0  0  0  0  0
    2.1055   -0.0184    0.2757 C   0  0  1  0  0  0  0  0  0  0  0  0
    1.3083   -1.2616   -0.0967 C   0  0  0  0  0  0  0  0  0  0  0  0
   -0.0692   -1.2254    0.5107 C   0  0  0  0  0  0  0  0  0  0  0  0
    3.4626   -0.0847   -0.3159 N   0  0  0  0  0  0  0  0  0  0  0  0
    4.4932   -1.3847    0.1371 S   0  0  0  0  0  0  0  0  0  0  0  0
    3.8146   -2.6207   -0.1869 O   0  0  0  0  0  0  0  0  0  0  0  0
    5.7949   -1.1083   -0.4220 O   0  0  0  0  0  0  0  0  0  0  0  0
    4.6095   -1.2658    1.9103 C   0  0  0  0  0  0  0  0  0  0  0  0
    4.6088   -0.0166    2.5370 C   0  0  0  0  0  0  0  0  0  0  0  0
    4.6074    0.0651    3.9345 C   0  0  0  0  0  0  0  0  0  0  0  0
    4.6132   -1.0970    4.7182 C   0  0  0  0  0  0  0  0  0  0  0  0
    4.5262   -2.3411    4.0681 C   0  0  0  0  0  0  0  0  0  0  0  0
    4.5865   -2.4331    2.6761 C   0  0  0  0  0  0  0  0  0  0  0  0
    4.7506   -1.0485    6.1843 C   0  0  0  0  0  0  0  0  0  0  0  0
    3.7877   -0.3778    6.9568 C   0  0  0  0  0  0  0  0  0  0  0  0
    3.8390   -0.4062    8.3519 C   0  0  0  0  0  0  0  0  0  0  0  0
    4.8465   -1.1213    8.9923 C   0  0  0  0  0  0  0  0  0  0  0  0
    4.9529   -1.0930   10.7084 Cl  0  0  0  0  0  0  0  0  0  0  0  0
    5.8041   -1.8103    8.2534 C   0  0  0  0  0  0  0  0  0  0  0  0
    5.8076   -1.7109    6.8552 C   0  0  0  0  0  0  0  0  0  0  0  0
    6.9446   -2.2156    6.1352 C   0  0  0  0  0  0  0  0  0  0  0  0
    7.8879   -2.5843    5.5560 N   0  0  0  0  0  0  0  0  0  0  0  0
   -0.9257   -1.0771   -1.8521 H   0  0  0  0  0  0  0  0  0  0  0  0
   -2.1675    0.1652   -1.7004 H   0  0  0  0  0  0  0  0  0  0  0  0
   -0.4964    0.6065   -2.0384 H   0  0  0  0  0  0  0  0  0  0  0  0
   -2.1995   -0.8520    1.1869 H   0  0  0  0  0  0  0  0  0  0  0  0
   -0.6163    2.1625    0.0920 H   0  0  0  0  0  0  0  0  0  0  0  0
    0.0064    1.3530    1.5085 H   0  0  0  0  0  0  0  0  0  0  0  0
    1.2983    1.2654   -1.2817 H   0  0  0  0  0  0  0  0  0  0  0  0
    1.8864    2.1642    0.0921 H   0  0  0  0  0  0  0  0  0  0  0  0
    2.1998    0.0585    1.3629 H   0  0  0  0  0  0  0  0  0  0  0  0
    1.2686   -1.3667   -1.1882 H   0  0  0  0  0  0  0  0  0  0  0  0
    1.7566   -2.1677    0.2993 H   0  0  0  0  0  0  0  0  0  0  0  0
    0.0208   -1.2250    1.6062 H   0  0  0  0  0  0  0  0  0  0  0  0
   -0.6062   -2.1469    0.2578 H   0  0  0  0  0  0  0  0  0  0  0  0
    3.4722   -0.0084   -1.3367 H   0  0  0  0  0  0  0  0  0  0  0  0
    4.6129    0.8958    1.9463 H   0  0  0  0  0  0  0  0  0  0  0  0
    4.6145    1.0450    4.4078 H   0  0  0  0  0  0  0  0  0  0  0  0
    4.4261   -3.2547    4.6545 H   0  0  0  0  0  0  0  0  0  0  0  0
    4.6339   -3.4149    2.2090 H   0  0  0  0  0  0  0  0  0  0  0  0
    2.9842    0.1714    6.4698 H   0  0  0  0  0  0  0  0  0  0  0  0
    3.0793    0.1156    8.9289 H   0  0  0  0  0  0  0  0  0  0  0  0
    6.5524   -2.4124    8.7654 H   0  0  0  0  0  0  0  0  0  0  0  0
  1 28  1  0  0  0  0
  1 29  1  0  0  0  0
  1 30  1  0  0  0  0
  2  4  1  0  0  0  0
  2  8  1  0  0  0  0
  2  3  1  1  0  0  0
  2  1  1  0  0  0  0
  3 31  1  0  0  0  0
  4  5  1  0  0  0  0
  4 32  1  0  0  0  0
  4 33  1  0  0  0  0
  5 34  1  0  0  0  0
  5 35  1  0  0  0  0
  6  5  1  0  0  0  0
  6  7  1  0  0  0  0
  6  9  1  0  0  0  0
  6 36  1  1  0  0  0
  7  8  1  0  0  0  0
  7 37  1  0  0  0  0
  7 38  1  0  0  0  0
  8 39  1  0  0  0  0
  8 40  1  0  0  0  0
  9 10  1  0  0  0  0
  9 41  1  0  0  0  0
 10 11  2  0  0  0  0
 10 12  2  0  0  0  0
 10 13  1  0  0  0  0
 13 14  2  0  0  0  0
 13 18  1  0  0  0  0
 14 15  1  0  0  0  0
 14 42  1  0  0  0  0
 15 16  2  0  0  0  0
 15 43  1  0  0  0  0
 16 17  1  0  0  0  0
 16 19  1  0  0  0  0
 17 18  2  0  0  0  0
 17 44  1  0  0  0  0
 18 45  1  0  0  0  0
 19 20  2  0  0  0  0
 19 25  1  0  0  0  0
 20 21  1  0  0  0  0
 20 46  1  0  0  0  0
 21 22  2  0  0  0  0
 21 47  1  0  0  0  0
 22 23  1  0  0  0  0
 22 24  1  0  0  0  0
 24 25  2  0  0  0  0
 24 48  1  0  0  0  0
 25 26  1  0  0  0  0
 26 27  3  0  0  0  0
M  END
>  <DRUGBANK_ID>
DB18059

>  <COMMON_NAME>
MBS-2320

>  <CAS_NUMBER>
1642602-54-7

>  <UNII>
38E2HYD3AW

>  <SYNONYMS>
(1,1'-BIPHENYL)-4-SULFONAMIDE, 4'-CHLORO-2'-CYANO-N-(TRANS-4-HYDROXY-4-METHYLCYCLOHEXYL)-; 1-METHYL-TRANS-4-(((4'-CHLORO-2'-CYANO-1,1'-BIPHENYL-4-YL)SULFONYL)AMINO)CYCLOHEXANOL; 4'-chloro-2'-cyano-N-(trans-4-hydroxy-4-methylcyclohexyl)-biphenyl-4-sulfonamide

$$$$
