
 OpenBabel10282417193D

 14 14  0  0  0  0  0  0  0  0999 V2000
   -0.3739   -1.0638   -0.0056 C   0  0  0  0  0  0  0  0  0  0  0  0
   -1.2122   -0.0278   -0.0003 C   0  0  0  0  0  0  0  0  0  0  0  0
    0.9783   -0.7371    0.0117 O   0  0  0  0  0  0  0  0  0  0  0  0
   -0.7457   -2.5102   -0.0095 C   0  0  0  0  0  0  0  0  0  0  0  0
   -0.3372    1.1373    0.0036 C   0  0  0  0  0  0  0  0  0  0  0  0
    0.9455    0.6739    0.0123 N   0  0  0  0  0  0  0  0  0  0  0  0
   -0.2270   -3.2024   -1.1831 N   0  0  0  0  0  0  0  0  0  0  0  0
   -0.7167    2.2936    0.0003 O   0  0  0  0  0  0  0  0  0  0  0  0
   -2.2841    0.0015   -0.0053 H   0  0  0  0  0  0  0  0  0  0  0  0
   -0.3556   -2.9906    0.8944 H   0  0  0  0  0  0  0  0  0  0  0  0
   -1.8362   -2.6210    0.0138 H   0  0  0  0  0  0  0  0  0  0  0  0
    1.7950    1.2164    0.0005 H   0  0  0  0  0  0  0  0  0  0  0  0
   -0.5480   -4.1686   -1.1743 H   0  0  0  0  0  0  0  0  0  0  0  0
   -0.6146   -2.7783   -2.0241 H   0  0  0  0  0  0  0  0  0  0  0  0
  1  2  2  0  0  0  0
  1  3  1  0  0  0  0
  1  4  1  0  0  0  0
  2  5  1  0  0  0  0
  2  9  1  0  0  0  0
  3  6  1  0  0  0  0
  4  7  1  0  0  0  0
  4 10  1  0  0  0  0
  4 11  1  0  0  0  0
  5  8  2  0  0  0  0
  5  6  1  0  0  0  0
  6 12  1  0  0  0  0
  7 13  1  0  0  0  0
  7 14  1  0  0  0  0
M  END
>  <DRUGBANK_ID>
DB12458

>  <COMMON_NAME>
Muscimol

>  <CAS_NUMBER>
2763-96-4

>  <UNII>
D5M179TY2E

>  <SYNONYMS>
5-(aminomethyl)-3(2H)-isoxazolone

$$$$
