
 OpenBabel10282417183D

 45 48  0  0  0  0  0  0  0  0999 V2000
    0.0407    0.6763   -1.2331 C   0  0  3  0  0  0  0  0  0  0  0  0
   -1.2536    0.0807   -0.6455 C   0  0  0  0  0  0  0  0  0  0  0  0
    1.1719   -0.0169   -0.4229 C   0  0  0  0  0  0  0  0  0  0  0  0
    0.0065    2.1741   -0.7681 C   0  0  0  0  0  0  0  0  0  0  0  0
    0.0894    0.6263   -2.7951 C   0  0  0  0  0  0  0  0  0  0  0  0
   -1.2964    0.1589    0.7792 C   0  0  0  0  0  0  0  0  0  0  0  0
   -2.2807   -0.5438   -1.3491 C   0  0  0  0  0  0  0  0  0  0  0  0
    1.1566    0.1830    0.9723 C   0  0  0  0  0  0  0  0  0  0  0  0
    2.0624   -0.9445   -0.8578 C   0  0  0  0  0  0  0  0  0  0  0  0
   -0.0463    2.2838    0.7831 C   0  0  0  0  0  0  0  0  0  0  0  0
    1.2576    1.3231   -3.5350 C   0  0  3  0  0  0  0  0  0  0  0  0
   -0.1044    0.8809    1.4248 C   0  0  3  0  0  0  0  0  0  0  0  0
   -2.3262   -0.4422    1.4805 C   0  0  0  0  0  0  0  0  0  0  0  0
   -3.3315   -1.1142   -0.6344 C   0  0  0  0  0  0  0  0  0  0  0  0
    2.1691   -0.3307    1.7979 C   0  0  0  0  0  0  0  0  0  0  0  0
    3.1815   -1.3201   -0.1049 C   0  0  0  0  0  0  0  0  0  0  0  0
    2.6575    0.7123   -3.3204 C   0  0  0  0  0  0  0  0  0  0  0  0
    0.9775    1.2231   -4.9430 O   0  0  0  0  0  0  0  0  0  0  0  0
   -3.3459   -1.0744    0.7670 C   0  0  0  0  0  0  0  0  0  0  0  0
    3.2406   -1.0013    1.2402 C   0  0  0  0  0  0  0  0  0  0  0  0
    2.7268   -0.6448   -3.9283 N   0  0  0  0  0  0  0  0  0  0  0  0
    3.8674   -1.4007   -3.4209 C   0  0  0  0  0  0  0  0  0  0  0  0
   -0.8692    2.6878   -1.1926 H   0  0  0  0  0  0  0  0  0  0  0  0
    0.8870    2.7196   -1.1272 H   0  0  0  0  0  0  0  0  0  0  0  0
   -0.0003   -0.4083   -3.1495 H   0  0  0  0  0  0  0  0  0  0  0  0
   -0.8267    1.1046   -3.1853 H   0  0  0  0  0  0  0  0  0  0  0  0
   -2.2820   -0.6094   -2.4338 H   0  0  0  0  0  0  0  0  0  0  0  0
    1.9001   -1.3619   -1.8371 H   0  0  0  0  0  0  0  0  0  0  0  0
   -0.9221    2.8715    1.0775 H   0  0  0  0  0  0  0  0  0  0  0  0
    0.8441    2.8268    1.1245 H   0  0  0  0  0  0  0  0  0  0  0  0
    1.2756    2.3912   -3.2952 H   0  0  0  0  0  0  0  0  0  0  0  0
   -0.1699    0.9127    2.5154 H   0  0  0  0  0  0  0  0  0  0  0  0
   -2.3315   -0.4341    2.5650 H   0  0  0  0  0  0  0  0  0  0  0  0
   -4.1389   -1.6083   -1.1696 H   0  0  0  0  0  0  0  0  0  0  0  0
    2.1287   -0.2272    2.8788 H   0  0  0  0  0  0  0  0  0  0  0  0
    4.0077   -1.8767   -0.5260 H   0  0  0  0  0  0  0  0  0  0  0  0
    3.4230    1.3206   -3.8083 H   0  0  0  0  0  0  0  0  0  0  0  0
    2.8957    0.7726   -2.2572 H   0  0  0  0  0  0  0  0  0  0  0  0
    1.3587    0.3602   -5.2095 H   0  0  0  0  0  0  0  0  0  0  0  0
   -4.1622   -1.5459    1.3058 H   0  0  0  0  0  0  0  0  0  0  0  0
    4.0861   -1.3669    1.8137 H   0  0  0  0  0  0  0  0  0  0  0  0
    1.8745   -1.1681   -3.7200 H   0  0  0  0  0  0  0  0  0  0  0  0
    3.9246   -1.3482   -2.3510 H   0  0  0  0  0  0  0  0  0  0  0  0
    3.7710   -2.4702   -3.6411 H   0  0  0  0  0  0  0  0  0  0  0  0
    4.8255   -1.0096   -3.7522 H   0  0  0  0  0  0  0  0  0  0  0  0
  1  2  1  0  0  0  0
  1  3  1  0  0  0  0
  1  4  1  0  0  0  0
  1  5  1  0  0  0  0
  2  6  1  0  0  0  0
  2  7  2  0  0  0  0
  3  8  1  0  0  0  0
  3  9  2  0  0  0  0
  4 10  1  0  0  0  0
  4 23  1  0  0  0  0
  4 24  1  0  0  0  0
  5 11  1  0  0  0  0
  5 25  1  0  0  0  0
  5 26  1  0  0  0  0
  6 12  1  0  0  0  0
  6 13  2  0  0  0  0
  7 14  1  0  0  0  0
  7 27  1  0  0  0  0
  8 15  2  0  0  0  0
  8 12  1  0  0  0  0
  9 16  1  0  0  0  0
  9 28  1  0  0  0  0
 10 12  1  0  0  0  0
 10 29  1  0  0  0  0
 10 30  1  0  0  0  0
 11 17  1  0  0  0  0
 11 18  1  0  0  0  0
 11 31  1  0  0  0  0
 12 32  1  0  0  0  0
 13 19  1  0  0  0  0
 13 33  1  0  0  0  0
 14 19  2  0  0  0  0
 14 34  1  0  0  0  0
 15 20  1  0  0  0  0
 15 35  1  0  0  0  0
 16 20  2  0  0  0  0
 16 36  1  0  0  0  0
 17 21  1  0  0  0  0
 17 37  1  0  0  0  0
 17 38  1  0  0  0  0
 18 39  1  0  0  0  0
 19 40  1  0  0  0  0
 20 41  1  0  0  0  0
 21 22  1  0  0  0  0
 21 42  1  0  0  0  0
 22 43  1  0  0  0  0
 22 44  1  0  0  0  0
 22 45  1  0  0  0  0
M  END
>  <DRUGBANK_ID>
DB09307

>  <COMMON_NAME>
Oxaprotiline

>  <CAS_NUMBER>
56433-44-4

>  <UNII>
3V3Z2HK4LS

>  <SYNONYMS>
Hydroxymaprotiline; Oxaprotilina; Oxaprotiline; Oxaprotilinum

$$$$
