RSS
 OpenBabel10282417173D

 67 69  0  0  0  0  0  0  0  0999 V2000
    2.9177    3.7929    0.8826 C   0  0  0  0  0  0  0  0  0  0  0  0
    3.3830    4.2613   -0.1501 O   0  0  0  0  0  0  0  0  0  0  0  0
    2.8133    4.5641    1.9612 O   0  0  0  0  0  0  0  0  0  0  0  0
    2.4669    2.3662    1.1660 C   0  0  0  0  0  0  0  0  0  0  0  0
    2.7935    1.6506   -0.0664 C   0  0  2  0  0  0  0  0  0  0  0  0
    2.4180    0.2764   -0.0581 C   0  0  0  0  0  0  0  0  0  0  0  0
    1.3099   -0.0554   -0.4409 O   0  0  0  0  0  0  0  0  0  0  0  0
    3.4039   -0.4535    0.5448 N   0  0  0  0  0  0  0  0  0  0  0  0
    5.2306   -0.1911    0.5495 C   0  0  2  0  0  0  0  0  0  0  0  0
    6.2620    1.7802    0.0639 C   0  0  0  0  0  0  0  0  0  0  0  0
    7.2861    2.4315    0.2874 O   0  0  0  0  0  0  0  0  0  0  0  0
    6.0363    3.0640   -1.1719 N   0  0  0  0  0  0  0  0  0  0  0  0
    6.5362    3.4983   -2.9060 C   0  0  0  0  0  0  0  0  0  0  0  0
    7.4439    2.4744   -3.5454 C   0  0  0  0  0  0  0  0  0  0  0  0
    7.1452    1.2798   -2.8810 C   0  0  0  0  0  0  0  0  0  0  0  0
    5.7805    0.8555   -3.1940 C   0  0  0  0  0  0  0  0  0  0  0  0
    5.2770    0.2628   -4.4152 C   0  0  0  0  0  0  0  0  0  0  0  0
    5.8793   -1.1139   -4.2233 C   0  0  0  0  0  0  0  0  0  0  0  0
    5.2603   -1.9965   -3.2086 N   0  0  0  0  0  0  0  0  0  0  0  0
    4.2090    1.6971   -0.0104 C   0  0  0  0  0  0  0  0  0  0  0  0
    4.8056    0.8324   -1.2012 C   0  0  0  0  0  0  0  0  0  0  0  0
    3.7594    1.6904   -2.5300 C   0  0  0  0  0  0  0  0  0  0  0  0
    6.7310    0.1241   -1.0519 C   0  0  0  0  0  0  0  0  0  0  0  0
    4.8977   -2.1264    0.2699 C   0  0  0  0  0  0  0  0  0  0  0  0
    4.5826   -2.6703   -1.1818 C   0  0  0  0  0  0  0  0  0  0  0  0
    5.4920   -2.0727   -1.9186 C   0  0  0  0  0  0  0  0  0  0  0  0
    4.1053   -3.6056   -2.1357 C   0  0  0  0  0  0  0  0  0  0  0  0
    4.4991   -3.0983   -3.4126 C   0  0  0  0  0  0  0  0  0  0  0  0
    3.4656   -4.8501   -2.1416 C   0  0  0  0  0  0  0  0  0  0  0  0
    4.2357   -3.6870   -4.6304 C   0  0  0  0  0  0  0  0  0  0  0  0
    3.2252   -5.4771   -3.3751 C   0  0  0  0  0  0  0  0  0  0  0  0
    3.5992   -4.9019   -4.5871 C   0  0  0  0  0  0  0  0  0  0  0  0
    2.4833    2.0787   -0.9862 H   0  0  0  0  0  0  0  0  0  0  0  0
    5.3820   -0.3301    1.5886 H   0  0  0  0  0  0  0  0  0  0  0  0
    3.1435    5.4408    1.6734 H   0  0  0  0  0  0  0  0  0  0  0  0
    3.0085    1.8855    2.0072 H   0  0  0  0  0  0  0  0  0  0  0  0
    1.4107    2.2410    1.2939 H   0  0  0  0  0  0  0  0  0  0  0  0
    2.9265   -1.3902    0.5253 H   0  0  0  0  0  0  0  0  0  0  0  0
    6.0803    3.9764   -0.6995 H   0  0  0  0  0  0  0  0  0  0  0  0
    7.0258    4.3990   -3.3865 H   0  0  0  0  0  0  0  0  0  0  0  0
    5.5586    3.6479   -3.3757 H   0  0  0  0  0  0  0  0  0  0  0  0
    8.4693    2.6459   -3.2537 H   0  0  0  0  0  0  0  0  0  0  0  0
    7.2871    2.0288   -4.5199 H   0  0  0  0  0  0  0  0  0  0  0  0
    6.9910    1.6827   -1.9085 H   0  0  0  0  0  0  0  0  0  0  0  0
    8.0618    0.7267   -2.8378 H   0  0  0  0  0  0  0  0  0  0  0  0
    5.5075    1.7638   -2.6432 H   0  0  0  0  0  0  0  0  0  0  0  0
    5.1333    0.0853   -2.7481 H   0  0  0  0  0  0  0  0  0  0  0  0
    5.5353    1.0716   -5.0709 H   0  0  0  0  0  0  0  0  0  0  0  0
    4.1799    0.0411   -4.5142 H   0  0  0  0  0  0  0  0  0  0  0  0
    6.9143   -0.9688   -3.9153 H   0  0  0  0  0  0  0  0  0  0  0  0
    5.7262   -1.5318   -5.1865 H   0  0  0  0  0  0  0  0  0  0  0  0
    4.5016    2.6979   -0.1511 H   0  0  0  0  0  0  0  0  0  0  0  0
    4.5845    1.5586    1.0623 H   0  0  0  0  0  0  0  0  0  0  0  0
    4.3229   -0.1483   -1.2752 H   0  0  0  0  0  0  0  0  0  0  0  0
    4.1745    2.5547   -3.1076 H   0  0  0  0  0  0  0  0  0  0  0  0
    3.8203    1.2532   -3.4893 H   0  0  0  0  0  0  0  0  0  0  0  0
    2.7937    1.2347   -2.5626 H   0  0  0  0  0  0  0  0  0  0  0  0
    7.1541   -0.3242   -0.1191 H   0  0  0  0  0  0  0  0  0  0  0  0
    6.8175   -0.4778   -1.9366 H   0  0  0  0  0  0  0  0  0  0  0  0
    7.8367    0.7592   -1.0250 H   0  0  0  0  0  0  0  0  0  0  0  0
    5.6282   -2.8252    0.7102 H   0  0  0  0  0  0  0  0  0  0  0  0
    3.9658   -2.7125    0.6412 H   0  0  0  0  0  0  0  0  0  0  0  0
    6.0797   -1.5937   -1.2219 H   0  0  0  0  0  0  0  0  0  0  0  0
    3.1834   -5.3380   -1.2198 H   0  0  0  0  0  0  0  0  0  0  0  0
    4.5551   -3.2320   -5.5594 H   0  0  0  0  0  0  0  0  0  0  0  0
    2.7198   -6.4339   -3.3938 H   0  0  0  0  0  0  0  0  0  0  0  0
    3.4004   -5.4013   -5.5240 H   0  0  0  0  0  0  0  0  0  0  0  0
  1  2  2  0  0  0  0
  1  3  1  0  0  0  0
  1  4  1  0  0  0  0
  3 35  1  0  0  0  0
  4 36  1  0  0  0  0
  4 37  1  0  0  0  0
  5 20  1  0  0  0  0
  5 33  1  6  0  0  0
  5  6  1  0  0  0  0
  5  4  1  0  0  0  0
  6  7  2  0  0  0  0
  6  8  1  0  0  0  0
  8 38  1  0  0  0  0
  9  8  1  0  0  0  0
  9 10  1  0  0  0  0
  9 24  1  0  0  0  0
  9 34  1  1  0  0  0
 10 11  2  0  0  0  0
 10 12  1  0  0  0  0
 12 13  1  0  0  0  0
 12 39  1  0  0  0  0
 13 14  1  0  0  0  0
 13 40  1  0  0  0  0
 13 41  1  0  0  0  0
 14 15  1  0  0  0  0
 14 42  1  0  0  0  0
 14 43  1  0  0  0  0
 15 16  1  0  0  0  0
 15 44  1  0  0  0  0
 15 45  1  0  0  0  0
 16 17  1  0  0  0  0
 16 46  1  0  0  0  0
 16 47  1  0  0  0  0
 17 18  1  0  0  0  0
 17 48  1  0  0  0  0
 17 49  1  0  0  0  0
 18 19  1  0  0  0  0
 18 50  1  0  0  0  0
 18 51  1  0  0  0  0
 19 26  1  0  0  0  0
 19 28  1  0  0  0  0
 20 21  1  0  0  0  0
 20 52  1  0  0  0  0
 20 53  1  0  0  0  0
 21 22  1  0  0  0  0
 21 23  1  0  0  0  0
 21 54  1  0  0  0  0
 22 55  1  0  0  0  0
 22 56  1  0  0  0  0
 22 57  1  0  0  0  0
 23 58  1  0  0  0  0
 23 59  1  0  0  0  0
 23 60  1  0  0  0  0
 24 25  1  0  0  0  0
 24 61  1  0  0  0  0
 24 62  1  0  0  0  0
 25 26  2  0  0  0  0
 25 27  1  0  0  0  0
 26 63  1  0  0  0  0
 27 28  2  0  0  0  0
 27 29  1  0  0  0  0
 28 30  1  0  0  0  0
 29 31  2  0  0  0  0
 29 64  1  0  0  0  0
 30 32  2  0  0  0  0
 30 65  1  0  0  0  0
 31 32  1  0  0  0  0
 31 66  1  0  0  0  0
 32 67  1  0  0  0  0
M  END
>  <DRUGBANK_ID>
DB08493

>  <COMMON_NAME>
5-METHYL-3-(9-OXO-1,8-DIAZA-TRICYCLO[10.6.1.013,18]NONADECA-12(19),13,15,17-TETRAEN-10-YLCARBAMOYL)-HEXANOIC ACID

$$$$
