
 OpenBabel10282417163D

 59 64  0  0  0  0  0  0  0  0999 V2000
   -3.9185  -22.0836    1.2320 O   0  0  0  0  0  0  0  0  0  0  0  0
   -5.0401  -24.0532   -2.6050 O   0  0  0  0  0  0  0  0  0  0  0  0
   -4.0216  -10.1325   -2.1729 N   0  0  0  0  0  0  0  0  0  0  0  0
   -6.2031  -14.9267   -0.3101 N   0  0  0  0  0  0  0  0  0  0  0  0
   -4.3912  -23.2752   -0.5720 N   0  0  0  0  0  0  0  0  0  0  0  0
   -6.8070  -20.4971   -4.8643 N   0  0  0  0  0  0  0  0  0  0  0  0
   -4.8098  -10.9524   -1.2692 C   0  0  1  0  0  0  0  0  0  0  0  0
   -4.5408  -12.2960   -1.8146 C   0  0  0  0  0  0  0  0  0  0  0  0
   -3.1696  -12.2882   -2.3875 C   0  0  0  0  0  0  0  0  0  0  0  0
   -4.4434  -11.3685    0.1178 C   0  0  0  0  0  0  0  0  0  0  0  0
   -2.7549  -10.8351   -2.3357 C   0  0  0  0  0  0  0  0  0  0  0  0
   -5.4844  -13.1741    0.3832 C   0  0  0  0  0  0  0  0  0  0  0  0
   -3.8723   -8.7387   -1.8097 C   0  0  0  0  0  0  0  0  0  0  0  0
   -5.5855  -15.8507    0.4938 C   0  0  0  0  0  0  0  0  0  0  0  0
   -5.9353  -16.7855   -1.1084 C   0  0  0  0  0  0  0  0  0  0  0  0
   -5.3775  -18.4585   -0.6041 C   0  0  0  0  0  0  0  0  0  0  0  0
   -5.3564  -17.6016    0.6458 C   0  0  0  0  0  0  0  0  0  0  0  0
   -4.9397  -20.3723   -0.8498 C   0  0  0  0  0  0  0  0  0  0  0  0
   -4.6320  -15.1709   -0.3247 C   0  0  0  0  0  0  0  0  0  0  0  0
   -5.1168  -21.4328   -1.8876 C   0  0  0  0  0  0  0  0  0  0  0  0
   -4.3654  -17.9405    1.5361 C   0  0  0  0  0  0  0  0  0  0  0  0
   -5.5343  -21.0905   -3.1792 C   0  0  0  0  0  0  0  0  0  0  0  0
   -4.3526  -21.9543    0.0812 C   0  0  0  0  0  0  0  0  0  0  0  0
   -4.1209  -15.6175    0.8715 C   0  0  0  0  0  0  0  0  0  0  0  0
   -3.7413  -16.9896    0.7625 C   0  0  0  0  0  0  0  0  0  0  0  0
   -4.8539  -23.1321   -1.8081 C   0  0  0  0  0  0  0  0  0  0  0  0
   -4.8032  -20.1860   -3.9435 C   0  0  0  0  0  0  0  0  0  0  0  0
   -6.7164  -21.3761   -3.8073 C   0  0  0  0  0  0  0  0  0  0  0  0
   -5.6279  -19.7813   -4.9823 C   0  0  0  0  0  0  0  0  0  0  0  0
   -3.5254  -19.6364   -3.7770 C   0  0  0  0  0  0  0  0  0  0  0  0
   -5.1963  -18.8240   -5.9040 C   0  0  0  0  0  0  0  0  0  0  0  0
   -3.0719  -18.7184   -4.7038 C   0  0  0  0  0  0  0  0  0  0  0  0
   -3.8923  -18.3244   -5.7541 C   0  0  0  0  0  0  0  0  0  0  0  0
   -4.1499  -24.2552   -0.2243 H   0  0  0  0  0  0  0  0  0  0  0  0
   -7.6031  -20.3936   -5.4813 H   0  0  0  0  0  0  0  0  0  0  0  0
   -5.8472  -10.6112   -1.2069 H   0  0  0  0  0  0  0  0  0  0  0  0
   -4.3210  -13.0218   -1.0633 H   0  0  0  0  0  0  0  0  0  0  0  0
   -5.3904  -12.6656   -2.3586 H   0  0  0  0  0  0  0  0  0  0  0  0
   -2.4841  -12.9356   -1.8100 H   0  0  0  0  0  0  0  0  0  0  0  0
   -3.2950  -12.7048   -3.3734 H   0  0  0  0  0  0  0  0  0  0  0  0
   -4.5739  -10.1895    0.6093 H   0  0  0  0  0  0  0  0  0  0  0  0
   -3.3132  -11.2689    0.3556 H   0  0  0  0  0  0  0  0  0  0  0  0
   -2.2276  -10.5684   -3.2468 H   0  0  0  0  0  0  0  0  0  0  0  0
   -2.0962  -10.6424   -1.4809 H   0  0  0  0  0  0  0  0  0  0  0  0
   -6.3347  -12.3195    0.5911 H   0  0  0  0  0  0  0  0  0  0  0  0
   -5.0287  -12.8181    1.6088 H   0  0  0  0  0  0  0  0  0  0  0  0
   -3.3475   -8.6200   -0.8600 H   0  0  0  0  0  0  0  0  0  0  0  0
   -3.3058   -8.2052   -2.5829 H   0  0  0  0  0  0  0  0  0  0  0  0
   -4.8498   -8.2474   -1.7328 H   0  0  0  0  0  0  0  0  0  0  0  0
   -5.7850  -17.1919   -2.2430 H   0  0  0  0  0  0  0  0  0  0  0  0
   -5.2100  -15.1692   -1.7176 H   0  0  0  0  0  0  0  0  0  0  0  0
   -4.0881  -17.6561    2.5481 H   0  0  0  0  0  0  0  0  0  0  0  0
   -4.3733  -15.1892    1.9382 H   0  0  0  0  0  0  0  0  0  0  0  0
   -3.8044  -16.9472   -0.4025 H   0  0  0  0  0  0  0  0  0  0  0  0
   -7.5152  -22.0574   -3.5443 H   0  0  0  0  0  0  0  0  0  0  0  0
   -2.8907  -19.9442   -2.9516 H   0  0  0  0  0  0  0  0  0  0  0  0
   -5.8162  -18.4926   -6.7276 H   0  0  0  0  0  0  0  0  0  0  0  0
   -2.0692  -18.3219   -4.5971 H   0  0  0  0  0  0  0  0  0  0  0  0
   -3.4983  -17.6142   -6.4744 H   0  0  0  0  0  0  0  0  0  0  0  0
  1 23  2  0  0  0  0
  2 26  2  0  0  0  0
  3  7  1  0  0  0  0
  3 11  1  0  0  0  0
  3 13  1  0  0  0  0
  4 12  1  0  0  0  0
  4 14  1  0  0  0  0
  4 15  1  0  0  0  0
  5 23  1  0  0  0  0
  5 26  1  0  0  0  0
  5 34  1  0  0  0  0
  6 28  1  0  0  0  0
  6 29  1  0  0  0  0
  6 35  1  0  0  0  0
  7  8  1  0  0  0  0
  7 36  1  6  0  0  0
  7 10  1  0  0  0  0
  8  9  1  0  0  0  0
  8 37  1  0  0  0  0
  8 38  1  0  0  0  0
  9 11  1  0  0  0  0
  9 39  1  0  0  0  0
  9 40  1  0  0  0  0
 10 12  1  0  0  0  0
 10 41  1  0  0  0  0
 10 42  1  0  0  0  0
 11 43  1  0  0  0  0
 11 44  1  0  0  0  0
 12 45  1  0  0  0  0
 12 46  1  0  0  0  0
 13 47  1  0  0  0  0
 13 48  1  0  0  0  0
 13 49  1  0  0  0  0
 14 17  1  0  0  0  0
 14 19  2  0  0  0  0
 15 16  2  0  0  0  0
 15 50  1  0  0  0  0
 16 17  1  0  0  0  0
 16 18  1  0  0  0  0
 17 21  2  0  0  0  0
 18 20  2  0  0  0  0
 18 23  1  0  0  0  0
 19 24  1  0  0  0  0
 19 51  1  0  0  0  0
 20 22  1  0  0  0  0
 20 26  1  0  0  0  0
 21 25  1  0  0  0  0
 21 52  1  0  0  0  0
 22 27  1  0  0  0  0
 22 28  2  0  0  0  0
 24 25  2  0  0  0  0
 24 53  1  0  0  0  0
 25 54  1  0  0  0  0
 27 29  1  0  0  0  0
 27 30  2  0  0  0  0
 28 55  1  0  0  0  0
 29 31  2  0  0  0  0
 30 32  1  0  0  0  0
 30 56  1  0  0  0  0
 31 33  1  0  0  0  0
 31 57  1  0  0  0  0
 32 33  2  0  0  0  0
 32 58  1  0  0  0  0
 33 59  1  0  0  0  0
M  END
>  <DRUGBANK_ID>
DB07458

>  <COMMON_NAME>
3-(1H-indol-3-yl)-4-{1-[2-(1-methylpyrrolidin-2-yl)ethyl]-1H-indol-3-yl}-1H-pyrrole-2,5-dione

$$$$
