
 OpenBabel10282417223D

 50 51  0  0  0  0  0  0  0  0999 V2000
    0.9024    0.0465    0.0317 C   0  0  0  0  0  0  0  0  0  0  0  0
    0.5217   -1.3622   -0.0926 N   0  0  0  0  0  0  0  0  0  0  0  0
   -0.8225   -1.6047   -0.4577 C   0  0  0  0  0  0  0  0  0  0  0  0
   -1.5964   -0.6668   -0.6700 O   0  0  0  0  0  0  0  0  0  0  0  0
   -1.2190   -2.9537   -0.5166 N   0  0  0  0  0  0  0  0  0  0  0  0
   -0.3699   -4.0135   -0.2710 C   0  0  0  0  0  0  0  0  0  0  0  0
   -0.6510   -5.2054   -0.3754 O   0  0  0  0  0  0  0  0  0  0  0  0
    1.0030   -3.6650    0.1034 C   0  0  0  0  0  0  0  0  0  0  0  0
    1.4151   -2.3938    0.2080 C   0  0  0  0  0  0  0  0  0  0  0  0
    2.8607   -2.1966    0.6448 C   0  0  0  0  0  0  0  0  0  0  0  0
    3.0978   -2.8376    1.8204 F   0  0  0  0  0  0  0  0  0  0  0  0
    3.7113   -2.7362   -0.2679 F   0  0  0  0  0  0  0  0  0  0  0  0
    3.2665   -0.9205    0.8379 F   0  0  0  0  0  0  0  0  0  0  0  0
   -2.5759   -3.2604   -0.8696 C   0  0  0  0  0  0  0  0  0  0  0  0
   -3.0799   -2.8317   -2.1015 C   0  0  0  0  0  0  0  0  0  0  0  0
   -4.4016   -3.0974   -2.4449 C   0  0  0  0  0  0  0  0  0  0  0  0
   -5.2775   -3.6536   -1.5088 C   0  0  0  0  0  0  0  0  0  0  0  0
   -6.9337   -3.6956   -2.0230 Cl  0  0  0  0  0  0  0  0  0  0  0  0
   -4.7987   -4.0939   -0.2564 C   0  0  0  0  0  0  0  0  0  0  0  0
   -3.4168   -3.9778    0.0109 C   0  0  0  0  0  0  0  0  0  0  0  0
   -5.7582   -4.5970    0.7740 C   0  0  0  0  0  0  0  0  0  0  0  0
   -6.9669   -4.6226    0.5742 O   0  0  0  0  0  0  0  0  0  0  0  0
   -5.1971   -4.9767    1.9507 O   0  0  0  0  0  0  0  0  0  0  0  0
   -6.0947   -5.4618    3.0139 C   0  0  0  0  0  0  0  0  0  0  0  0
   -7.0663   -4.3547    3.4561 C   0  0  0  0  0  0  0  0  0  0  0  0
   -6.8469   -6.7177    2.5488 C   0  0  0  0  0  0  0  0  0  0  0  0
   -5.2022   -5.8243    4.2301 C   0  0  0  0  0  0  0  0  0  0  0  0
   -3.9954   -5.6095    4.2750 O   0  0  0  0  0  0  0  0  0  0  0  0
   -5.9226   -6.3870    5.2540 O   0  0  0  0  0  0  0  0  0  0  0  0
   -5.1908   -6.7253    6.4508 C   0  0  0  0  0  0  0  0  0  0  0  0
   -4.2127   -7.8330    6.1918 C   0  0  0  0  0  0  0  0  0  0  0  0
   -2.8912   -7.6855    6.3608 C   0  0  0  0  0  0  0  0  0  0  0  0
    0.5844    0.4156    1.0127 H   0  0  0  0  0  0  0  0  0  0  0  0
    0.4206    0.6429   -0.7485 H   0  0  0  0  0  0  0  0  0  0  0  0
    1.9668    0.2177   -0.1046 H   0  0  0  0  0  0  0  0  0  0  0  0
    1.6619   -4.5075    0.2901 H   0  0  0  0  0  0  0  0  0  0  0  0
   -2.4477   -2.3116   -2.8173 H   0  0  0  0  0  0  0  0  0  0  0  0
   -4.7635   -2.8359   -3.4374 H   0  0  0  0  0  0  0  0  0  0  0  0
   -3.0023   -4.3936    0.9275 H   0  0  0  0  0  0  0  0  0  0  0  0
   -7.7086   -4.0093    2.6417 H   0  0  0  0  0  0  0  0  0  0  0  0
   -7.7341   -4.6960    4.2540 H   0  0  0  0  0  0  0  0  0  0  0  0
   -6.5202   -3.4750    3.8127 H   0  0  0  0  0  0  0  0  0  0  0  0
   -6.1442   -7.5047    2.2574 H   0  0  0  0  0  0  0  0  0  0  0  0
   -7.5109   -7.1081    3.3261 H   0  0  0  0  0  0  0  0  0  0  0  0
   -7.4768   -6.5286    1.6754 H   0  0  0  0  0  0  0  0  0  0  0  0
   -4.7163   -5.8278    6.8667 H   0  0  0  0  0  0  0  0  0  0  0  0
   -5.9142   -7.0710    7.2008 H   0  0  0  0  0  0  0  0  0  0  0  0
   -4.6057   -8.7704    5.8084 H   0  0  0  0  0  0  0  0  0  0  0  0
   -2.1941   -8.4743    6.1012 H   0  0  0  0  0  0  0  0  0  0  0  0
   -2.4742   -6.7434    6.7078 H   0  0  0  0  0  0  0  0  0  0  0  0
  1  2  1  0  0  0  0
  1 33  1  0  0  0  0
  1 34  1  0  0  0  0
  1 35  1  0  0  0  0
  2  3  1  0  0  0  0
  2  9  1  0  0  0  0
  3  4  2  0  0  0  0
  3  5  1  0  0  0  0
  5  6  1  0  0  0  0
  5 14  1  0  0  0  0
  6  7  2  0  0  0  0
  6  8  1  0  0  0  0
  8  9  2  0  0  0  0
  8 36  1  0  0  0  0
  9 10  1  0  0  0  0
 10 11  1  0  0  0  0
 10 12  1  0  0  0  0
 10 13  1  0  0  0  0
 14 15  2  0  0  0  0
 14 20  1  0  0  0  0
 15 16  1  0  0  0  0
 15 37  1  0  0  0  0
 16 17  2  0  0  0  0
 16 38  1  0  0  0  0
 17 18  1  0  0  0  0
 17 19  1  0  0  0  0
 19 20  2  0  0  0  0
 19 21  1  0  0  0  0
 20 39  1  0  0  0  0
 21 22  2  0  0  0  0
 21 23  1  0  0  0  0
 23 24  1  0  0  0  0
 24 25  1  0  0  0  0
 24 26  1  0  0  0  0
 24 27  1  0  0  0  0
 25 40  1  0  0  0  0
 25 41  1  0  0  0  0
 25 42  1  0  0  0  0
 26 43  1  0  0  0  0
 26 44  1  0  0  0  0
 26 45  1  0  0  0  0
 27 28  2  0  0  0  0
 27 29  1  0  0  0  0
 29 30  1  0  0  0  0
 30 31  1  0  0  0  0
 30 46  1  0  0  0  0
 30 47  1  0  0  0  0
 31 32  2  0  0  0  0
 31 48  1  0  0  0  0
 32 49  1  0  0  0  0
 32 50  1  0  0  0  0
M  END
>  <DRUGBANK_ID>
DB15261

>  <COMMON_NAME>
Butafenacil

>  <CAS_NUMBER>
134605-64-4

>  <UNII>
7Z141CCP2R

>  <SYNONYMS>
INSPIRE

$$$$
