
 OpenBabel10282417183D

123132  0  0  1  0  0  0  0  0999 V2000
   19.8357   -6.2985   18.7466 C   0  0  0  0  0  0  0  0  0  0  0  0
   20.0268   -6.3855   17.2764 C   0  0  0  0  0  0  0  0  0  0  0  0
   21.4732   -5.9743   17.0839 C   0  0  0  0  0  0  0  0  0  0  0  0
   19.6809   -7.8003   16.7576 C   0  0  1  0  0  0  0  0  0  0  0  0
   18.1884   -8.3185   17.0466 C   0  0  0  0  0  0  0  0  0  0  0  0
   17.4719   -8.5452   16.0611 O   0  0  0  0  0  0  0  0  0  0  0  0
   17.7158   -8.6326   18.3414 N   0  0  0  0  0  0  0  0  0  0  0  0
   17.8575   -7.9808   19.6371 C   0  0  0  0  0  0  0  0  0  0  0  0
   17.6382   -9.0258   20.6764 C   0  0  0  0  0  0  0  0  0  0  0  0
   16.5038   -9.7990   20.0752 C   0  0  0  0  0  0  0  0  0  0  0  0
   16.6895   -9.6687   18.5345 C   0  0  1  0  0  0  0  0  0  0  0  0
   15.3809   -9.3425   17.8900 C   0  0  0  0  0  0  0  0  0  0  0  0
   14.6963   -8.1600   18.0669 N   0  0  0  0  0  0  0  0  0  0  0  0
   13.5376   -8.2278   17.3348 C   0  0  0  0  0  0  0  0  0  0  0  0
   13.5762   -9.4786   16.7554 C   0  0  0  0  0  0  0  0  0  0  0  0
   14.6954  -10.1652   17.1234 N   0  0  0  0  0  0  0  0  0  0  0  0
   12.5026   -7.2130   17.3107 C   0  0  0  0  0  0  0  0  0  0  0  0
   12.7461   -5.8984   16.9026 C   0  0  0  0  0  0  0  0  0  0  0  0
   11.7192   -4.9332   16.8537 C   0  0  0  0  0  0  0  0  0  0  0  0
   10.4282   -5.3339   17.2358 C   0  0  0  0  0  0  0  0  0  0  0  0
   10.1813   -6.6501   17.6503 C   0  0  0  0  0  0  0  0  0  0  0  0
   11.2137   -7.5919   17.6763 C   0  0  0  0  0  0  0  0  0  0  0  0
    8.8220   -6.7675   17.9835 C   0  0  0  0  0  0  0  0  0  0  0  0
    8.2431   -5.5531   17.7519 C   0  0  0  0  0  0  0  0  0  0  0  0
    9.2115   -4.6826   17.3100 N   0  0  0  0  0  0  0  0  0  0  0  0
    8.8624   -3.2854   17.0327 C   0  0  1  0  0  0  0  0  0  0  0  0
    7.4754   -3.1911   16.5325 O   0  0  0  0  0  0  0  0  0  0  0  0
    6.5377   -3.9128   17.2569 C   0  0  0  0  0  0  0  0  0  0  0  0
    6.8836   -5.1081   17.8842 C   0  0  0  0  0  0  0  0  0  0  0  0
    5.9326   -5.8158   18.6160 C   0  0  0  0  0  0  0  0  0  0  0  0
    4.6456   -5.3309   18.7569 C   0  0  0  0  0  0  0  0  0  0  0  0
    4.3045   -4.1111   18.1654 C   0  0  0  0  0  0  0  0  0  0  0  0
    5.2454   -3.4053   17.4025 C   0  0  0  0  0  0  0  0  0  0  0  0
    3.0033   -3.5387   18.4143 C   0  0  0  0  0  0  0  0  0  0  0  0
    2.4152   -3.1550   19.5960 C   0  0  0  0  0  0  0  0  0  0  0  0
    1.1107   -2.7915   19.3991 N   0  0  0  0  0  0  0  0  0  0  0  0
    0.8799   -2.9701   18.1165 C   0  0  0  0  0  0  0  0  0  0  0  0
    2.0386   -3.3265   17.4609 N   0  0  0  0  0  0  0  0  0  0  0  0
   -0.3962   -2.7366   17.4113 C   0  0  2  0  0  0  0  0  0  0  0  0
   -0.8095   -1.2636   17.6374 C   0  0  0  0  0  0  0  0  0  0  0  0
   -2.2726   -1.2405   17.2540 C   0  0  0  0  0  0  0  0  0  0  0  0
   -2.7604   -2.6400   17.6189 C   0  0  0  0  0  0  0  0  0  0  0  0
   -1.5754   -3.4714   17.9030 N   0  0  0  0  0  0  0  0  0  0  0  0
   -1.8239   -4.7294   18.4338 C   0  0  0  0  0  0  0  0  0  0  0  0
   -3.0000   -4.9721   18.7761 O   0  0  0  0  0  0  0  0  0  0  0  0
   -0.7990   -5.8787   18.7991 C   0  0  2  0  0  0  0  0  0  0  0  0
   -0.4992   -5.9550   20.3451 C   0  0  0  0  0  0  0  0  0  0  0  0
   -0.8943   -7.2879   20.9818 C   0  0  0  0  0  0  0  0  0  0  0  0
    0.9632   -5.7761   20.7022 C   0  0  0  0  0  0  0  0  0  0  0  0
    0.3760   -6.0750   17.9565 N   0  0  0  0  0  0  0  0  0  0  0  0
    0.7009   -7.1663   17.1918 C   0  0  0  0  0  0  0  0  0  0  0  0
    1.7650   -7.2253   16.6107 O   0  0  0  0  0  0  0  0  0  0  0  0
   -0.2679   -8.1200   17.1585 O   0  0  0  0  0  0  0  0  0  0  0  0
    0.0186   -9.2435   16.3170 C   0  0  0  0  0  0  0  0  0  0  0  0
    6.2456   -6.9721   19.2191 F   0  0  0  0  0  0  0  0  0  0  0  0
    8.9973   -2.4195   18.2593 C   0  0  0  0  0  0  0  0  0  0  0  0
   10.0643   -2.2006   19.1140 C   0  0  0  0  0  0  0  0  0  0  0  0
    9.7921   -1.3758   20.1977 N   0  0  0  0  0  0  0  0  0  0  0  0
    8.5358   -0.9874   20.1519 C   0  0  0  0  0  0  0  0  0  0  0  0
    7.6713   -1.4583   18.7933 S   0  0  0  0  0  0  0  0  0  0  0  0
    7.9218   -0.1617   21.2621 C   0  0  0  0  0  0  0  0  0  0  0  0
    6.6455   -0.7552   21.8689 C   0  0  0  0  0  0  0  0  0  0  0  0
    6.6266    0.6110   21.2790 C   0  0  0  0  0  0  0  0  0  0  0  0
   19.9657   -7.7716   15.2955 N   0  0  0  0  0  0  0  0  0  0  0  0
   20.9521   -8.4169   14.5936 C   0  0  0  0  0  0  0  0  0  0  0  0
   21.1429   -8.2103   13.4119 O   0  0  0  0  0  0  0  0  0  0  0  0
   21.6835   -9.2698   15.3622 O   0  0  0  0  0  0  0  0  0  0  0  0
   22.6997   -9.9931   14.6549 C   0  0  0  0  0  0  0  0  0  0  0  0
   20.3278   -7.1816   19.1886 H   0  0  0  0  0  0  0  0  0  0  0  0
   18.7585   -6.2048   18.8221 H   0  0  0  0  0  0  0  0  0  0  0  0
   20.1863   -5.4324   19.3000 H   0  0  0  0  0  0  0  0  0  0  0  0
   19.3554   -5.6558   16.8080 H   0  0  0  0  0  0  0  0  0  0  0  0
   22.1450   -6.7312   17.5043 H   0  0  0  0  0  0  0  0  0  0  0  0
   21.7060   -5.8099   16.0347 H   0  0  0  0  0  0  0  0  0  0  0  0
   21.6528   -5.0370   17.6262 H   0  0  0  0  0  0  0  0  0  0  0  0
   20.3368   -8.5602   17.1966 H   0  0  0  0  0  0  0  0  0  0  0  0
   17.1191   -7.1670   19.6887 H   0  0  0  0  0  0  0  0  0  0  0  0
   18.8179   -7.6475   19.9566 H   0  0  0  0  0  0  0  0  0  0  0  0
   18.5554   -9.6236   20.7571 H   0  0  0  0  0  0  0  0  0  0  0  0
   17.4436   -8.5610   21.6483 H   0  0  0  0  0  0  0  0  0  0  0  0
   16.5353  -10.8320   20.4243 H   0  0  0  0  0  0  0  0  0  0  0  0
   15.5711   -9.3417   20.4252 H   0  0  0  0  0  0  0  0  0  0  0  0
   17.0882  -10.6012   18.1207 H   0  0  0  0  0  0  0  0  0  0  0  0
   14.9698   -7.3947   18.6661 H   0  0  0  0  0  0  0  0  0  0  0  0
   12.8394   -9.9235   16.1011 H   0  0  0  0  0  0  0  0  0  0  0  0
   13.7462   -5.6195   16.5762 H   0  0  0  0  0  0  0  0  0  0  0  0
   11.9364   -3.9249   16.5160 H   0  0  0  0  0  0  0  0  0  0  0  0
   10.9888   -8.6100   17.9842 H   0  0  0  0  0  0  0  0  0  0  0  0
    8.3164   -7.6545   18.3385 H   0  0  0  0  0  0  0  0  0  0  0  0
    9.5209   -2.9151   16.2376 H   0  0  0  0  0  0  0  0  0  0  0  0
    3.9399   -5.9153   19.3399 H   0  0  0  0  0  0  0  0  0  0  0  0
    4.9892   -2.4254   17.0070 H   0  0  0  0  0  0  0  0  0  0  0  0
    2.8157   -3.2594   20.5984 H   0  0  0  0  0  0  0  0  0  0  0  0
    2.1323   -3.5225   16.4720 H   0  0  0  0  0  0  0  0  0  0  0  0
   -0.3083   -2.9215   16.3323 H   0  0  0  0  0  0  0  0  0  0  0  0
   -0.7220   -0.9853   18.6986 H   0  0  0  0  0  0  0  0  0  0  0  0
   -0.2098   -0.5462   17.0675 H   0  0  0  0  0  0  0  0  0  0  0  0
   -2.8300   -0.4570   17.7809 H   0  0  0  0  0  0  0  0  0  0  0  0
   -2.3813   -1.0489   16.1805 H   0  0  0  0  0  0  0  0  0  0  0  0
   -3.4331   -2.6162   18.4815 H   0  0  0  0  0  0  0  0  0  0  0  0
   -3.3040   -3.0717   16.7685 H   0  0  0  0  0  0  0  0  0  0  0  0
   -1.4182   -6.7640   18.6011 H   0  0  0  0  0  0  0  0  0  0  0  0
   -1.0719   -5.1651   20.8502 H   0  0  0  0  0  0  0  0  0  0  0  0
   -0.3144   -8.1105   20.5495 H   0  0  0  0  0  0  0  0  0  0  0  0
   -0.6785   -7.2682   22.0592 H   0  0  0  0  0  0  0  0  0  0  0  0
   -1.9585   -7.4932   20.8584 H   0  0  0  0  0  0  0  0  0  0  0  0
    1.2362   -4.8284   20.3155 H   0  0  0  0  0  0  0  0  0  0  0  0
    1.1548   -5.7272   21.7778 H   0  0  0  0  0  0  0  0  0  0  0  0
    1.6179   -6.5286   20.2533 H   0  0  0  0  0  0  0  0  0  0  0  0
    1.1609   -5.4649   18.1063 H   0  0  0  0  0  0  0  0  0  0  0  0
    0.1330   -8.9236   15.2765 H   0  0  0  0  0  0  0  0  0  0  0  0
    0.9104   -9.7801   16.6571 H   0  0  0  0  0  0  0  0  0  0  0  0
   -0.8326   -9.9304   16.3690 H   0  0  0  0  0  0  0  0  0  0  0  0
   11.0620   -2.6206   19.0197 H   0  0  0  0  0  0  0  0  0  0  0  0
    8.6874    0.2880   21.8777 H   0  0  0  0  0  0  0  0  0  0  0  0
    6.0266   -1.4846   21.3491 H   0  0  0  0  0  0  0  0  0  0  0  0
    6.6763   -0.9270   22.9368 H   0  0  0  0  0  0  0  0  0  0  0  0
    6.5714    1.4403   21.9783 H   0  0  0  0  0  0  0  0  0  0  0  0
    6.0427    0.7767   20.3819 H   0  0  0  0  0  0  0  0  0  0  0  0
   19.4040   -7.1594   14.7162 H   0  0  0  0  0  0  0  0  0  0  0  0
   22.2672  -10.6091   13.8592 H   0  0  0  0  0  0  0  0  0  0  0  0
   23.4577   -9.3150   14.2488 H   0  0  0  0  0  0  0  0  0  0  0  0
   23.1908  -10.6610   15.3699 H   0  0  0  0  0  0  0  0  0  0  0  0
  1  2  1  0  0  0  0
  1 69  1  0  0  0  0
  1 70  1  0  0  0  0
  1 71  1  0  0  0  0
  2  3  1  0  0  0  0
  2  4  1  0  0  0  0
  2 72  1  0  0  0  0
  3 73  1  0  0  0  0
  3 74  1  0  0  0  0
  3 75  1  0  0  0  0
  4  5  1  0  0  0  0
  4 64  1  0  0  0  0
  4 76  1  1  0  0  0
  5  6  2  0  0  0  0
  5  7  1  0  0  0  0
  7  8  1  0  0  0  0
  7 11  1  0  0  0  0
  8  9  1  0  0  0  0
  8 77  1  0  0  0  0
  8 78  1  0  0  0  0
  9 10  1  0  0  0  0
  9 79  1  0  0  0  0
  9 80  1  0  0  0  0
 10 11  1  0  0  0  0
 10 81  1  0  0  0  0
 10 82  1  0  0  0  0
 11 83  1  6  0  0  0
 11 12  1  0  0  0  0
 12 13  1  0  0  0  0
 12 16  2  0  0  0  0
 13 14  1  0  0  0  0
 13 84  1  0  0  0  0
 14 15  2  0  0  0  0
 14 17  1  0  0  0  0
 15 16  1  0  0  0  0
 15 85  1  0  0  0  0
 17 18  2  0  0  0  0
 17 22  1  0  0  0  0
 18 19  1  0  0  0  0
 18 86  1  0  0  0  0
 19 20  2  0  0  0  0
 19 87  1  0  0  0  0
 20 21  1  0  0  0  0
 20 25  1  0  0  0  0
 21 22  2  0  0  0  0
 21 23  1  0  0  0  0
 22 88  1  0  0  0  0
 23 24  2  0  0  0  0
 23 89  1  0  0  0  0
 24 25  1  0  0  0  0
 24 29  1  0  0  0  0
 25 26  1  0  0  0  0
 26 27  1  0  0  0  0
 26 90  1  6  0  0  0
 26 56  1  0  0  0  0
 27 28  1  0  0  0  0
 28 29  2  0  0  0  0
 28 33  1  0  0  0  0
 29 30  1  0  0  0  0
 30 31  2  0  0  0  0
 30 55  1  0  0  0  0
 31 32  1  0  0  0  0
 31 91  1  0  0  0  0
 32 33  2  0  0  0  0
 32 34  1  0  0  0  0
 33 92  1  0  0  0  0
 34 35  2  0  0  0  0
 34 38  1  0  0  0  0
 35 36  1  0  0  0  0
 35 93  1  0  0  0  0
 36 37  2  0  0  0  0
 37 38  1  0  0  0  0
 38 94  1  0  0  0  0
 39 37  1  0  0  0  0
 39 40  1  0  0  0  0
 39 43  1  0  0  0  0
 39 95  1  6  0  0  0
 40 41  1  0  0  0  0
 40 96  1  0  0  0  0
 40 97  1  0  0  0  0
 41 42  1  0  0  0  0
 41 98  1  0  0  0  0
 41 99  1  0  0  0  0
 42 43  1  0  0  0  0
 42100  1  0  0  0  0
 42101  1  0  0  0  0
 43 44  1  0  0  0  0
 44 45  2  0  0  0  0
 46 50  1  0  0  0  0
 46102  1  6  0  0  0
 46 47  1  0  0  0  0
 46 44  1  0  0  0  0
 47 48  1  0  0  0  0
 47 49  1  0  0  0  0
 47103  1  0  0  0  0
 48104  1  0  0  0  0
 48105  1  0  0  0  0
 48106  1  0  0  0  0
 49107  1  0  0  0  0
 49108  1  0  0  0  0
 49109  1  0  0  0  0
 50 51  1  0  0  0  0
 50110  1  0  0  0  0
 51 52  2  0  0  0  0
 51 53  1  0  0  0  0
 53 54  1  0  0  0  0
 54111  1  0  0  0  0
 54112  1  0  0  0  0
 54113  1  0  0  0  0
 56 57  2  0  0  0  0
 56 60  1  0  0  0  0
 57 58  1  0  0  0  0
 57114  1  0  0  0  0
 58 59  2  0  0  0  0
 59 60  1  0  0  0  0
 59 61  1  0  0  0  0
 61 62  1  0  0  0  0
 61 63  1  0  0  0  0
 61115  1  0  0  0  0
 62 63  1  0  0  0  0
 62116  1  0  0  0  0
 62117  1  0  0  0  0
 63118  1  0  0  0  0
 63119  1  0  0  0  0
 64 65  1  0  0  0  0
 64120  1  0  0  0  0
 65 66  2  0  0  0  0
 65 67  1  0  0  0  0
 67 68  1  0  0  0  0
 68121  1  0  0  0  0
 68122  1  0  0  0  0
 68123  1  0  0  0  0
M  END
>  <DRUGBANK_ID>
DB11713

>  <COMMON_NAME>
Ruzasvir

>  <CAS_NUMBER>
1613081-64-3

>  <UNII>
LX752BD95Y

>  <SYNONYMS>
Ruzasvir

$$$$
