
 OpenBabel10282417243D

 62 66  0  0  0  0  0  0  0  0999 V2000
    0.9294   -0.0560   -0.0743 C   0  0  0  0  0  0  0  0  0  0  0  0
    0.4733   -1.4744    0.1293 C   0  0  0  0  0  0  0  0  0  0  0  0
   -0.0414   -1.7683    1.3340 C   0  0  0  0  0  0  0  0  0  0  0  0
    0.7644   -2.4556   -0.9988 C   0  0  0  0  0  0  0  0  0  0  0  0
    1.4617   -2.0990   -1.9410 O   0  0  0  0  0  0  0  0  0  0  0  0
    0.3070   -3.7584   -0.9727 N   0  0  0  0  0  0  0  0  0  0  0  0
   -0.6908   -4.3434   -0.1838 C   0  0  0  0  0  0  0  0  0  0  0  0
   -1.8484   -3.6308    0.1347 C   0  0  0  0  0  0  0  0  0  0  0  0
   -2.6758   -4.0709    1.1592 C   0  0  0  0  0  0  0  0  0  0  0  0
   -2.4680   -5.3248    1.7312 C   0  0  0  0  0  0  0  0  0  0  0  0
   -1.4024   -6.1175    1.2855 C   0  0  0  0  0  0  0  0  0  0  0  0
   -0.4804   -5.6088    0.3671 C   0  0  0  0  0  0  0  0  0  0  0  0
   -3.2661   -5.7516    2.8774 C   0  0  0  0  0  0  0  0  0  0  0  0
   -2.8333   -6.1197    4.1462 C   0  0  0  0  0  0  0  0  0  0  0  0
   -1.4464   -6.0829    4.5816 C   0  0  0  0  0  0  0  0  0  0  0  0
   -0.7570   -4.8695    4.5833 C   0  0  0  0  0  0  0  0  0  0  0  0
    0.5316   -4.7869    5.1117 C   0  0  0  0  0  0  0  0  0  0  0  0
    1.1419   -5.9028    5.6902 C   0  0  0  0  0  0  0  0  0  0  0  0
    2.4260   -5.9230    6.2008 O   0  0  0  0  0  0  0  0  0  0  0  0
    3.2016   -4.7766    6.0623 C   0  0  0  0  0  0  0  0  0  0  0  0
    2.8115   -3.6737    6.7297 N   0  0  0  0  0  0  0  0  0  0  0  0
    3.5867   -2.5868    6.5719 C   0  0  0  0  0  0  0  0  0  0  0  0
    4.7303   -2.5705    5.8106 C   0  0  0  0  0  0  0  0  0  0  0  0
    5.0683   -3.7564    5.1893 C   0  0  0  0  0  0  0  0  0  0  0  0
    6.3195   -3.8206    4.3582 C   0  0  0  0  0  0  0  0  0  0  0  0
    4.3123   -4.8755    5.3029 N   0  0  0  0  0  0  0  0  0  0  0  0
    0.4184   -7.1024    5.7273 C   0  0  0  0  0  0  0  0  0  0  0  0
    0.8908   -8.1624    6.4012 F   0  0  0  0  0  0  0  0  0  0  0  0
   -0.8355   -7.2173    5.1214 C   0  0  0  0  0  0  0  0  0  0  0  0
   -3.9804   -6.4190    4.9338 C   0  0  0  0  0  0  0  0  0  0  0  0
   -4.2054   -6.8036    6.2663 C   0  0  0  0  0  0  0  0  0  0  0  0
   -3.1940   -6.9791    7.1823 N   0  0  0  0  0  0  0  0  0  0  0  0
   -5.4680   -7.0286    6.6679 N   0  0  0  0  0  0  0  0  0  0  0  0
   -6.4580   -6.8548    5.7696 C   0  0  0  0  0  0  0  0  0  0  0  0
   -6.3696   -6.4638    4.4817 N   0  0  0  0  0  0  0  0  0  0  0  0
   -5.0911   -6.2573    4.1157 C   0  0  0  0  0  0  0  0  0  0  0  0
   -4.6495   -5.8470    2.8768 N   0  0  0  0  0  0  0  0  0  0  0  0
   -5.4841   -5.5909    1.7206 C   0  0  0  0  0  0  0  0  0  0  0  0
    0.6187    0.5765    0.7684 H   0  0  0  0  0  0  0  0  0  0  0  0
    0.5320    0.3965   -0.9842 H   0  0  0  0  0  0  0  0  0  0  0  0
    2.0245   -0.0250   -0.0919 H   0  0  0  0  0  0  0  0  0  0  0  0
   -0.2257   -2.7746    1.6769 H   0  0  0  0  0  0  0  0  0  0  0  0
   -0.3349   -0.9936    2.0333 H   0  0  0  0  0  0  0  0  0  0  0  0
    0.7497   -4.3557   -1.6628 H   0  0  0  0  0  0  0  0  0  0  0  0
   -2.0281   -2.6517   -0.3004 H   0  0  0  0  0  0  0  0  0  0  0  0
   -3.4256   -3.3879    1.5510 H   0  0  0  0  0  0  0  0  0  0  0  0
   -1.2447   -7.1037    1.7182 H   0  0  0  0  0  0  0  0  0  0  0  0
    0.4394   -6.1627    0.1919 H   0  0  0  0  0  0  0  0  0  0  0  0
   -1.2201   -3.9704    4.1836 H   0  0  0  0  0  0  0  0  0  0  0  0
    1.0190   -3.8192    5.0802 H   0  0  0  0  0  0  0  0  0  0  0  0
    3.2531   -1.6933    7.0909 H   0  0  0  0  0  0  0  0  0  0  0  0
    5.3316   -1.6754    5.7150 H   0  0  0  0  0  0  0  0  0  0  0  0
    7.0103   -4.5635    4.7674 H   0  0  0  0  0  0  0  0  0  0  0  0
    6.0777   -4.0759    3.3226 H   0  0  0  0  0  0  0  0  0  0  0  0
    6.8398   -2.8550    4.3490 H   0  0  0  0  0  0  0  0  0  0  0  0
   -1.3554   -8.1733    5.1397 H   0  0  0  0  0  0  0  0  0  0  0  0
   -2.2533   -6.6917    6.9712 H   0  0  0  0  0  0  0  0  0  0  0  0
   -3.4324   -7.2373    8.1252 H   0  0  0  0  0  0  0  0  0  0  0  0
   -7.4580   -7.0596    6.1407 H   0  0  0  0  0  0  0  0  0  0  0  0
   -5.3640   -4.5460    1.4218 H   0  0  0  0  0  0  0  0  0  0  0  0
   -5.1570   -6.2492    0.9100 H   0  0  0  0  0  0  0  0  0  0  0  0
   -6.5350   -5.7717    1.9469 H   0  0  0  0  0  0  0  0  0  0  0  0
  1  2  1  0  0  0  0
  1 39  1  0  0  0  0
  1 40  1  0  0  0  0
  1 41  1  0  0  0  0
  2  3  2  0  0  0  0
  2  4  1  0  0  0  0
  3 42  1  0  0  0  0
  3 43  1  0  0  0  0
  4  5  2  0  0  0  0
  4  6  1  0  0  0  0
  6  7  1  0  0  0  0
  6 44  1  0  0  0  0
  7  8  2  0  0  0  0
  7 12  1  0  0  0  0
  8  9  1  0  0  0  0
  8 45  1  0  0  0  0
  9 10  2  0  0  0  0
  9 46  1  0  0  0  0
 10 11  1  0  0  0  0
 10 13  1  0  0  0  0
 11 12  2  0  0  0  0
 11 47  1  0  0  0  0
 12 48  1  0  0  0  0
 13 14  2  0  0  0  0
 13 37  1  0  0  0  0
 14 15  1  0  0  0  0
 14 30  1  0  0  0  0
 15 16  2  0  0  0  0
 15 29  1  0  0  0  0
 16 17  1  0  0  0  0
 16 49  1  0  0  0  0
 17 18  2  0  0  0  0
 17 50  1  0  0  0  0
 18 19  1  0  0  0  0
 18 27  1  0  0  0  0
 19 20  1  0  0  0  0
 20 21  2  0  0  0  0
 20 26  1  0  0  0  0
 21 22  1  0  0  0  0
 22 23  2  0  0  0  0
 22 51  1  0  0  0  0
 23 24  1  0  0  0  0
 23 52  1  0  0  0  0
 24 25  1  0  0  0  0
 24 26  2  0  0  0  0
 25 53  1  0  0  0  0
 25 54  1  0  0  0  0
 25 55  1  0  0  0  0
 27 28  1  0  0  0  0
 27 29  2  0  0  0  0
 29 56  1  0  0  0  0
 30 31  2  0  0  0  0
 30 36  1  0  0  0  0
 31 32  1  0  0  0  0
 31 33  1  0  0  0  0
 32 57  1  0  0  0  0
 32 58  1  0  0  0  0
 33 34  2  0  0  0  0
 34 35  1  0  0  0  0
 34 59  1  0  0  0  0
 35 36  2  0  0  0  0
 36 37  1  0  0  0  0
 37 38  1  0  0  0  0
 38 60  1  0  0  0  0
 38 61  1  0  0  0  0
 38 62  1  0  0  0  0
M  END
>  <DRUGBANK_ID>
DB18300

>  <COMMON_NAME>
Lirafugratinib

>  <CAS_NUMBER>
2549174-42-5

>  <UNII>
7HY6IMH87S

>  <SYNONYMS>
2-Propenamide, N-[4-[4-amino-5-[3-fluoro-4-[(4-methyl-2-pyrimidinyl)oxy]phenyl]-7-methyl-7H-pyrrolo[2,3-d]pyrimidin-6-yl]phenyl]-2-methyl-; N-(4-(4-amino-5-(3-fluoro-4-((4-methylpyrimidin-2-yl)oxy)phenyl)-7-methyl-7H-pyrrolo[2,3-d]pyrimidin-6-yl)phenyl)methacrylamide; N-[4-(4-amino-5-{3-fluoro-4-[(4-methylpyrimidin-2- yl)oxy]phenyl}-7-methyl-7H-pyrrolo[2,3-d]pyrimidin-6- yl)phenyl]-2-methylprop-2-enamide

$$$$
