
 OpenBabel10282417223D

 39 41  0  0  1  0  0  0  0  0999 V2000
    2.5128    0.0796    0.0104 C   0  0  0  0  0  0  0  0  0  0  0  0
    1.1182    0.1176   -0.4195 N   0  0  0  0  0  0  0  0  0  0  0  0
    0.5013   -1.1131    0.0622 C   0  0  0  0  0  0  0  0  0  0  0  0
   -0.9824   -1.1558   -0.2799 C   0  0  0  0  0  0  0  0  0  0  0  0
   -1.7695   -0.0040    0.1588 N   0  0  0  0  0  0  0  0  0  0  0  0
   -1.1208    1.2667   -0.1739 C   0  0  0  0  0  0  0  0  0  0  0  0
    0.3833    1.2483    0.2104 C   0  0  0  0  0  0  0  0  0  0  0  0
   -3.0096   -0.0332    0.7742 C   0  0  0  0  0  0  0  0  0  0  0  0
   -3.6004    1.0138    1.0739 O   0  0  0  0  0  0  0  0  0  0  0  0
   -3.7380   -1.3521    1.1113 C   0  0  3  0  0  0  0  0  0  0  0  0
   -3.9711   -2.2237   -0.1330 C   0  0  2  0  0  0  0  0  0  0  0  0
   -5.0069   -3.3228    0.0765 C   0  0  0  0  0  0  0  0  0  0  0  0
   -4.2685   -4.2896    1.0320 C   0  0  0  0  0  0  0  0  0  0  0  0
   -2.9300   -3.5806    1.2335 C   0  0  1  0  0  0  0  0  0  0  0  0
   -2.8275   -3.0964   -0.1309 O   0  0  0  0  0  0  0  0  0  0  0  0
   -3.1197   -2.3251    2.1274 C   0  0  3  0  0  0  0  0  0  0  0  0
   -1.9051   -1.8316    2.9079 C   0  0  0  0  0  0  0  0  0  0  0  0
   -1.9705   -1.8795    4.2495 O   0  0  0  0  0  0  0  0  0  0  0  0
   -0.8745   -1.3942    2.4313 O   0  0  0  0  0  0  0  0  0  0  0  0
    3.0447    0.9472   -0.3778 H   0  0  0  0  0  0  0  0  0  0  0  0
    2.6148    0.0482    1.1027 H   0  0  0  0  0  0  0  0  0  0  0  0
    3.0006   -0.8176   -0.3930 H   0  0  0  0  0  0  0  0  0  0  0  0
    0.9656   -2.0258   -0.3308 H   0  0  0  0  0  0  0  0  0  0  0  0
    0.6826   -1.1663    1.1381 H   0  0  0  0  0  0  0  0  0  0  0  0
   -1.1456   -1.2909   -1.3537 H   0  0  0  0  0  0  0  0  0  0  0  0
   -1.2789   -2.0270    0.2518 H   0  0  0  0  0  0  0  0  0  0  0  0
   -1.2215    1.4040   -1.2579 H   0  0  0  0  0  0  0  0  0  0  0  0
   -1.6233    2.1074    0.3152 H   0  0  0  0  0  0  0  0  0  0  0  0
    0.4532    1.1893    1.3068 H   0  0  0  0  0  0  0  0  0  0  0  0
    0.8414    2.1884   -0.1061 H   0  0  0  0  0  0  0  0  0  0  0  0
   -4.7227   -1.0458    1.4980 H   0  0  0  0  0  0  0  0  0  0  0  0
   -4.0736   -1.6682   -1.0702 H   0  0  0  0  0  0  0  0  0  0  0  0
   -5.9610   -2.9625    0.4617 H   0  0  0  0  0  0  0  0  0  0  0  0
   -5.1827   -3.8323   -0.8813 H   0  0  0  0  0  0  0  0  0  0  0  0
   -4.1084   -5.2488    0.5235 H   0  0  0  0  0  0  0  0  0  0  0  0
   -4.8029   -4.4662    1.9651 H   0  0  0  0  0  0  0  0  0  0  0  0
   -2.0798   -4.2200    1.4816 H   0  0  0  0  0  0  0  0  0  0  0  0
   -3.8550   -2.5809    2.9009 H   0  0  0  0  0  0  0  0  0  0  0  0
   -2.7877   -2.1784    4.6741 H   0  0  0  0  0  0  0  0  0  0  0  0
  1  2  1  0  0  0  0
  1 20  1  0  0  0  0
  1 21  1  0  0  0  0
  1 22  1  0  0  0  0
  2  3  1  0  0  0  0
  2  7  1  0  0  0  0
  3  4  1  0  0  0  0
  3 23  1  0  0  0  0
  3 24  1  0  0  0  0
  4  5  1  0  0  0  0
  4 25  1  0  0  0  0
  4 26  1  0  0  0  0
  5  6  1  0  0  0  0
  5  8  1  0  0  0  0
  6  7  1  0  0  0  0
  6 27  1  0  0  0  0
  6 28  1  0  0  0  0
  7 29  1  0  0  0  0
  7 30  1  0  0  0  0
  8  9  2  0  0  0  0
  8 10  1  0  0  0  0
 10 16  1  0  0  0  0
 10 31  1  0  0  0  0
 11 10  1  0  0  0  0
 11 12  1  0  0  0  0
 11 15  1  0  0  0  0
 11 32  1  6  0  0  0
 12 13  1  0  0  0  0
 12 33  1  0  0  0  0
 12 34  1  0  0  0  0
 13 35  1  0  0  0  0
 13 36  1  0  0  0  0
 14 13  1  0  0  0  0
 14 15  1  0  0  0  0
 14 16  1  0  0  0  0
 14 37  1  1  0  0  0
 16 17  1  0  0  0  0
 16 38  1  0  0  0  0
 17 18  1  0  0  0  0
 17 19  2  0  0  0  0
 18 39  1  0  0  0  0
M  END
>  <DRUGBANK_ID>
DB15412

>  <COMMON_NAME>
LB-100

>  <CAS_NUMBER>
1632032-53-1

>  <UNII>
0C1JUU9S0L

$$$$
