490
 OpenBabel10282417103D

 59 62  0  0  0  0  0  0  0  0999 V2000
    1.0327    0.0672    0.1927 O   0  0  0  0  0  0  0  0  0  0  0  0
    3.8873    2.0864   -2.0167 O   0  0  0  0  0  0  0  0  0  0  0  0
    3.0914    1.0873   -0.0708 N   0  0  0  0  0  0  0  0  0  0  0  0
    5.1207    5.1430    0.8882 N   0  0  0  0  0  0  0  0  0  0  0  0
    5.8550    7.4286   -0.7115 N   0  0  0  0  0  0  0  0  0  0  0  0
    7.1441    8.9988   -1.7997 N   0  0  0  0  0  0  0  0  0  0  0  0
    5.5955    9.6779   -0.1478 N   0  0  0  0  0  0  0  0  0  0  0  0
    3.9094   -1.3083   -1.2891 C   0  0  0  0  0  0  0  0  0  0  0  0
    3.0779   -1.4005   -2.5817 C   0  0  0  0  0  0  0  0  0  0  0  0
    4.8257   -2.5419   -1.2645 C   0  0  0  0  0  0  0  0  0  0  0  0
    3.8732   -2.3346   -3.4713 C   0  0  0  0  0  0  0  0  0  0  0  0
    4.4665   -3.3427   -2.5036 C   0  0  0  0  0  0  0  0  0  0  0  0
    3.0214   -1.2787   -0.0411 C   0  0  0  0  0  0  0  0  0  0  0  0
    4.7618   -0.0464   -1.3277 C   0  0  0  0  0  0  0  0  0  0  0  0
    2.2501    0.0122    0.0284 C   0  0  0  0  0  0  0  0  0  0  0  0
    3.8528    1.1585   -1.2176 C   0  0  0  0  0  0  0  0  0  0  0  0
    3.0285    2.1689    0.8967 C   0  0  0  0  0  0  0  0  0  0  0  0
    4.4156    2.3239    1.5672 C   0  0  0  0  0  0  0  0  0  0  0  0
    5.5185    2.7742    0.6014 C   0  0  0  0  0  0  0  0  0  0  0  0
    5.1357    4.0651   -0.1052 C   0  0  0  0  0  0  0  0  0  0  0  0
    4.1332    6.1914    0.5202 C   0  0  0  0  0  0  0  0  0  0  0  0
    6.4724    5.7569    0.9541 C   0  0  0  0  0  0  0  0  0  0  0  0
    4.4860    6.9492   -0.7755 C   0  0  0  0  0  0  0  0  0  0  0  0
    6.8884    6.4768   -0.3551 C   0  0  0  0  0  0  0  0  0  0  0  0
    6.1916    8.7325   -0.8914 C   0  0  0  0  0  0  0  0  0  0  0  0
    7.4654   10.2877   -2.0009 C   0  0  0  0  0  0  0  0  0  0  0  0
    6.0038   10.9496   -0.3367 C   0  0  0  0  0  0  0  0  0  0  0  0
    6.9289   11.3211   -1.2798 C   0  0  0  0  0  0  0  0  0  0  0  0
    2.0805   -1.8061   -2.3821 H   0  0  0  0  0  0  0  0  0  0  0  0
    2.9336   -0.4320   -3.0759 H   0  0  0  0  0  0  0  0  0  0  0  0
    5.8843   -2.2551   -1.2974 H   0  0  0  0  0  0  0  0  0  0  0  0
    4.6943   -3.1450   -0.3588 H   0  0  0  0  0  0  0  0  0  0  0  0
    3.2408   -2.8043   -4.2283 H   0  0  0  0  0  0  0  0  0  0  0  0
    4.6690   -1.7802   -3.9821 H   0  0  0  0  0  0  0  0  0  0  0  0
    3.7227   -4.1029   -2.2426 H   0  0  0  0  0  0  0  0  0  0  0  0
    5.3437   -3.8445   -2.9195 H   0  0  0  0  0  0  0  0  0  0  0  0
    3.6394   -1.3151    0.8690 H   0  0  0  0  0  0  0  0  0  0  0  0
    2.3381   -2.1308   -0.0046 H   0  0  0  0  0  0  0  0  0  0  0  0
    5.4494   -0.0382   -0.4699 H   0  0  0  0  0  0  0  0  0  0  0  0
    5.3794    0.0254   -2.2294 H   0  0  0  0  0  0  0  0  0  0  0  0
    2.6787    3.0908    0.4285 H   0  0  0  0  0  0  0  0  0  0  0  0
    2.3036    1.9112    1.6775 H   0  0  0  0  0  0  0  0  0  0  0  0
    4.3463    3.0465    2.3880 H   0  0  0  0  0  0  0  0  0  0  0  0
    4.7185    1.3703    2.0195 H   0  0  0  0  0  0  0  0  0  0  0  0
    6.4781    2.8583    1.1220 H   0  0  0  0  0  0  0  0  0  0  0  0
    5.7296    2.0251   -0.1569 H   0  0  0  0  0  0  0  0  0  0  0  0
    5.8146    4.2140   -0.9468 H   0  0  0  0  0  0  0  0  0  0  0  0
    4.1566    3.9808   -0.5810 H   0  0  0  0  0  0  0  0  0  0  0  0
    3.1343    5.7419    0.4336 H   0  0  0  0  0  0  0  0  0  0  0  0
    4.0619    6.9032    1.3523 H   0  0  0  0  0  0  0  0  0  0  0  0
    6.4789    6.4709    1.7874 H   0  0  0  0  0  0  0  0  0  0  0  0
    7.2167    4.9938    1.2105 H   0  0  0  0  0  0  0  0  0  0  0  0
    4.4137    6.2488   -1.6193 H   0  0  0  0  0  0  0  0  0  0  0  0
    3.7546    7.7402   -0.9711 H   0  0  0  0  0  0  0  0  0  0  0  0
    6.9961    5.7637   -1.1787 H   0  0  0  0  0  0  0  0  0  0  0  0
    7.8766    6.9268   -0.2188 H   0  0  0  0  0  0  0  0  0  0  0  0
    8.1928   10.4631   -2.7868 H   0  0  0  0  0  0  0  0  0  0  0  0
    5.5463   11.6883    0.3149 H   0  0  0  0  0  0  0  0  0  0  0  0
    7.2151   12.3495   -1.4446 H   0  0  0  0  0  0  0  0  0  0  0  0
  1 15  2  0  0  0  0
  2 16  2  0  0  0  0
  3 15  1  0  0  0  0
  3 16  1  0  0  0  0
  3 17  1  0  0  0  0
  4 20  1  0  0  0  0
  4 21  1  0  0  0  0
  4 22  1  0  0  0  0
  5 23  1  0  0  0  0
  5 24  1  0  0  0  0
  5 25  1  0  0  0  0
  6 25  2  0  0  0  0
  6 26  1  0  0  0  0
  7 25  1  0  0  0  0
  7 27  2  0  0  0  0
  8  9  1  0  0  0  0
  8 10  1  0  0  0  0
  8 13  1  0  0  0  0
  8 14  1  0  0  0  0
  9 11  1  0  0  0  0
  9 29  1  0  0  0  0
  9 30  1  0  0  0  0
 10 12  1  0  0  0  0
 10 31  1  0  0  0  0
 10 32  1  0  0  0  0
 11 12  1  0  0  0  0
 11 33  1  0  0  0  0
 11 34  1  0  0  0  0
 12 35  1  0  0  0  0
 12 36  1  0  0  0  0
 13 15  1  0  0  0  0
 13 37  1  0  0  0  0
 13 38  1  0  0  0  0
 14 16  1  0  0  0  0
 14 39  1  0  0  0  0
 14 40  1  0  0  0  0
 17 18  1  0  0  0  0
 17 41  1  0  0  0  0
 17 42  1  0  0  0  0
 18 19  1  0  0  0  0
 18 43  1  0  0  0  0
 18 44  1  0  0  0  0
 19 20  1  0  0  0  0
 19 45  1  0  0  0  0
 19 46  1  0  0  0  0
 20 47  1  0  0  0  0
 20 48  1  0  0  0  0
 21 23  1  0  0  0  0
 21 49  1  0  0  0  0
 21 50  1  0  0  0  0
 22 24  1  0  0  0  0
 22 51  1  0  0  0  0
 22 52  1  0  0  0  0
 23 53  1  0  0  0  0
 23 54  1  0  0  0  0
 24 55  1  0  0  0  0
 24 56  1  0  0  0  0
 26 28  2  0  0  0  0
 26 57  1  0  0  0  0
 27 28  1  0  0  0  0
 27 58  1  0  0  0  0
 28 59  1  0  0  0  0
M  END
>  <DRUGBANK_ID>
DB00490

>  <SECONDARY_ACCESSION_NUMBERS>
APRD00222

>  <COMMON_NAME>
Buspirone

>  <CAS_NUMBER>
36505-84-7

>  <UNII>
TK65WKS8HL

>  <SYNONYMS>
8-(4-(4-(2-Pyrimidinyl)-1-piperizinyl)butyl)-8-azaspiro(4,5)decane-7,9-dione; Buspiron; Buspirona; Buspirone; Buspironum

$$$$
