
 OpenBabel10282417233D

 33 36  0  0  0  0  0  0  0  0999 V2000
    0.9883   -0.1178    0.0436 C   0  0  0  0  0  0  0  0  0  0  0  0
    0.5719    1.0935   -0.7545 C   0  0  0  0  0  0  0  0  0  0  0  0
    0.9786    2.3964   -0.3454 C   0  0  0  0  0  0  0  0  0  0  0  0
    1.7091    2.5984    0.8426 C   0  0  0  0  0  0  0  0  0  0  0  0
    2.1156    3.8668    1.2125 C   0  0  0  0  0  0  0  0  0  0  0  0
    1.8526    4.9625    0.4920 N   0  0  0  0  0  0  0  0  0  0  0  0
    1.1440    4.7658   -0.6431 C   0  0  0  0  0  0  0  0  0  0  0  0
    0.6673    3.5340   -1.1302 C   0  0  0  0  0  0  0  0  0  0  0  0
   -0.0776    3.3993   -2.3402 C   0  0  0  0  0  0  0  0  0  0  0  0
   -0.4115    4.5869   -3.2092 C   0  0  0  0  0  0  0  0  0  0  0  0
   -0.5106    2.1018   -2.7297 C   0  0  0  0  0  0  0  0  0  0  0  0
   -0.1867    0.9995   -1.9390 C   0  0  0  0  0  0  0  0  0  0  0  0
   -0.7379   -0.1055   -2.5594 N   0  0  0  0  0  0  0  0  0  0  0  0
   -1.3858    0.2358   -3.7217 C   0  0  0  0  0  0  0  0  0  0  0  0
   -1.2582    1.6144   -3.8599 C   0  0  0  0  0  0  0  0  0  0  0  0
   -1.8368    2.2254   -4.9944 C   0  0  0  0  0  0  0  0  0  0  0  0
   -2.5156    1.4528   -5.9381 C   0  0  0  0  0  0  0  0  0  0  0  0
   -2.6287    0.0784   -5.7674 C   0  0  0  0  0  0  0  0  0  0  0  0
   -2.0663   -0.5588   -4.6553 C   0  0  0  0  0  0  0  0  0  0  0  0
    0.6239   -1.0529   -0.3880 H   0  0  0  0  0  0  0  0  0  0  0  0
    0.6055   -0.0541    1.0676 H   0  0  0  0  0  0  0  0  0  0  0  0
    2.0827   -0.1770    0.0717 H   0  0  0  0  0  0  0  0  0  0  0  0
    1.9721    1.7762    1.5000 H   0  0  0  0  0  0  0  0  0  0  0  0
    2.6808    4.0313    2.1236 H   0  0  0  0  0  0  0  0  0  0  0  0
    0.9716    5.6971   -1.1722 H   0  0  0  0  0  0  0  0  0  0  0  0
    0.0252    4.4464   -4.2034 H   0  0  0  0  0  0  0  0  0  0  0  0
   -1.4986    4.6859   -3.2936 H   0  0  0  0  0  0  0  0  0  0  0  0
   -0.0423    5.5438   -2.8454 H   0  0  0  0  0  0  0  0  0  0  0  0
   -0.6756   -1.0495   -2.2068 H   0  0  0  0  0  0  0  0  0  0  0  0
   -1.7613    3.2954   -5.1513 H   0  0  0  0  0  0  0  0  0  0  0  0
   -2.9540    1.9374   -6.8068 H   0  0  0  0  0  0  0  0  0  0  0  0
   -3.1619   -0.5070   -6.5125 H   0  0  0  0  0  0  0  0  0  0  0  0
   -2.1580   -1.6329   -4.5317 H   0  0  0  0  0  0  0  0  0  0  0  0
  1  2  1  0  0  0  0
  1 20  1  0  0  0  0
  1 21  1  0  0  0  0
  1 22  1  0  0  0  0
  2  3  2  0  0  0  0
  2 12  1  0  0  0  0
  3  4  1  0  0  0  0
  3  8  1  0  0  0  0
  4  5  2  0  0  0  0
  4 23  1  0  0  0  0
  5  6  1  0  0  0  0
  5 24  1  0  0  0  0
  6  7  2  0  0  0  0
  7  8  1  0  0  0  0
  7 25  1  0  0  0  0
  8  9  2  0  0  0  0
  9 10  1  0  0  0  0
  9 11  1  0  0  0  0
 10 26  1  0  0  0  0
 10 27  1  0  0  0  0
 10 28  1  0  0  0  0
 11 12  2  0  0  0  0
 11 15  1  0  0  0  0
 12 13  1  0  0  0  0
 13 14  1  0  0  0  0
 13 29  1  0  0  0  0
 14 15  2  0  0  0  0
 14 19  1  0  0  0  0
 15 16  1  0  0  0  0
 16 17  2  0  0  0  0
 16 30  1  0  0  0  0
 17 18  1  0  0  0  0
 17 31  1  0  0  0  0
 18 19  2  0  0  0  0
 18 32  1  0  0  0  0
 19 33  1  0  0  0  0
M  END
>  <DRUGBANK_ID>
DB17026

>  <COMMON_NAME>
Ellipticine

>  <CAS_NUMBER>
519-23-3

>  <UNII>
117VLW7484

>  <SYNONYMS>
5,11-dimethyl-6h-pyrido(4,3-b)carbazole

$$$$
