
 OpenBabel10282417113D

418426  0  0  0  0  0  0  0  0999 V2000
    6.3686   17.3740   17.7222 C   0  0  0  0  0  0  0  0  0  0  0  0
    7.2103   18.4382   17.2159 C   0  0  1  0  0  0  0  0  0  0  0  0
    6.0661   16.2534   17.3796 O   0  0  0  0  0  0  0  0  0  0  0  0
    8.2631   17.6235   16.8135 N   0  0  0  0  0  0  0  0  0  0  0  0
    6.7376   19.3600   16.1576 C   0  0  0  0  0  0  0  0  0  0  0  0
    5.5015   19.9093   16.4371 O   0  0  0  0  0  0  0  0  0  0  0  0
    6.0192   17.4201   18.9372 N   0  0  0  0  0  0  0  0  0  0  0  0
    7.0441   17.8206   20.9769 C   0  0  0  0  0  0  0  0  0  0  0  0
    8.1146   18.3151   21.3746 O   0  0  0  0  0  0  0  0  0  0  0  0
    6.3726   18.4117   19.8314 C   0  0  2  0  0  0  0  0  0  0  0  0
    5.1503   19.0762   20.3009 C   0  0  0  0  0  0  0  0  0  0  0  0
    5.4456   19.8815   21.5227 C   0  0  0  0  0  0  0  0  0  0  0  0
    5.1767   21.2180   21.4764 C   0  0  0  0  0  0  0  0  0  0  0  0
    5.9663   19.3574   22.7253 C   0  0  0  0  0  0  0  0  0  0  0  0
    6.2647   20.1056   23.8319 C   0  0  0  0  0  0  0  0  0  0  0  0
    5.9561   21.4331   23.7659 C   0  0  0  0  0  0  0  0  0  0  0  0
    5.4041   21.9801   22.6087 C   0  0  0  0  0  0  0  0  0  0  0  0
    6.1482   22.2688   24.8179 O   0  0  0  0  0  0  0  0  0  0  0  0
    6.3105   16.7727   21.6463 N   0  0  0  0  0  0  0  0  0  0  0  0
    4.3820   15.7212   22.3063 C   0  0  0  0  0  0  0  0  0  0  0  0
    5.3309   15.8427   21.1596 C   0  0  2  0  0  0  0  0  0  0  0  0
    3.2306   16.0484   22.0105 O   0  0  0  0  0  0  0  0  0  0  0  0
    5.6967   14.6113   20.3421 C   0  0  0  0  0  0  0  0  0  0  0  0
    4.5358   13.9545   19.8401 O   0  0  0  0  0  0  0  0  0  0  0  0
    4.6997   15.5884   23.6215 N   0  0  0  0  0  0  0  0  0  0  0  0
    6.3144   13.6876   23.4777 C   0  0  0  0  0  0  0  0  0  0  0  0
    5.6938   12.6469   23.2626 O   0  0  0  0  0  0  0  0  0  0  0  0
    5.6661   14.7801   24.3283 C   0  0  2  0  0  0  0  0  0  0  0  0
    7.4892   14.3560   27.2018 S   0  0  0  0  0  0  0  0  0  0  0  0
    5.1341   14.1940   25.6476 C   0  0  0  0  0  0  0  0  0  0  0  0
    6.1795   13.3715   26.4079 C   0  0  0  0  0  0  0  0  0  0  0  0
    8.2293   15.0537   25.8036 C   0  0  0  0  0  0  0  0  0  0  0  0
    7.5412   13.9014   22.8809 N   0  0  0  0  0  0  0  0  0  0  0  0
    8.7289   15.5287   21.6444 C   0  0  0  0  0  0  0  0  0  0  0  0
    9.8408   17.1575   24.8144 C   0  0  0  0  0  0  0  0  0  0  0  0
    8.1021   16.0850   20.7775 O   0  0  0  0  0  0  0  0  0  0  0  0
    8.4360   15.0522   22.9942 C   0  0  2  0  0  0  0  0  0  0  0  0
   10.2876   17.3635   25.9318 O   0  0  0  0  0  0  0  0  0  0  0  0
    9.7707   14.8814   23.6750 C   0  0  0  0  0  0  0  0  0  0  0  0
   10.4945   16.2009   23.8306 C   0  0  0  0  0  0  0  0  0  0  0  0
    8.5850   17.5516   24.4692 O   0  0  0  0  0  0  0  0  0  0  0  0
    9.4357   14.9273   20.7951 N   0  0  0  0  0  0  0  0  0  0  0  0
   11.7797   14.6011   20.5193 C   0  0  0  0  0  0  0  0  0  0  0  0
   12.7704   14.2058   21.1298 O   0  0  0  0  0  0  0  0  0  0  0  0
   10.4550   14.0306   20.8803 C   0  0  2  0  0  0  0  0  0  0  0  0
   10.0131   12.6431   20.5670 C   0  0  0  0  0  0  0  0  0  0  0  0
    9.0137   12.6851   19.4827 C   0  0  0  0  0  0  0  0  0  0  0  0
    7.8162   12.1012   19.2900 N   0  0  0  0  0  0  0  0  0  0  0  0
    7.2556   12.6665   18.1663 C   0  0  0  0  0  0  0  0  0  0  0  0
    7.9706   13.6396   17.6756 N   0  0  0  0  0  0  0  0  0  0  0  0
    9.0262   13.5599   18.4547 C   0  0  0  0  0  0  0  0  0  0  0  0
   11.8552   15.4959   19.5082 N   0  0  0  0  0  0  0  0  0  0  0  0
   10.7267   15.6054   17.3141 C   0  0  0  0  0  0  0  0  0  0  0  0
   10.7989   16.1731   18.8010 C   0  0  2  0  0  0  0  0  0  0  0  0
   10.7130   14.4569   16.8723 O   0  0  0  0  0  0  0  0  0  0  0  0
   10.5125   17.6513   19.2585 C   0  0  0  0  0  0  0  0  0  0  0  0
   11.5901   18.7058   19.4698 C   0  0  0  0  0  0  0  0  0  0  0  0
   11.9197   19.7142   18.5129 C   0  0  0  0  0  0  0  0  0  0  0  0
   12.6146   18.5949   20.3496 C   0  0  0  0  0  0  0  0  0  0  0  0
   13.8137   19.4973   20.1629 C   0  0  0  0  0  0  0  0  0  0  0  0
   13.2978   20.4560   18.1517 C   0  0  0  0  0  0  0  0  0  0  0  0
   14.3199   20.1373   18.9533 C   0  0  0  0  0  0  0  0  0  0  0  0
   10.7443   16.4116   16.3032 N   0  0  0  0  0  0  0  0  0  0  0  0
   15.3183   16.7552   18.3817 C   0  0  0  0  0  0  0  0  0  0  0  0
   10.0970   18.7740   16.0548 C   0  0  0  0  0  0  0  0  0  0  0  0
   16.0973   15.7861   18.0934 N   0  0  0  0  0  0  0  0  0  0  0  0
    9.6222   19.6942   16.7211 O   0  0  0  0  0  0  0  0  0  0  0  0
   14.2414   16.8752   17.5756 N   0  0  0  0  0  0  0  0  0  0  0  0
   11.0629   17.7742   16.3084 C   0  0  2  0  0  0  0  0  0  0  0  0
   15.6603   17.5264   19.4228 N   0  0  0  0  0  0  0  0  0  0  0  0
   13.2536   17.8168   17.6390 C   0  0  0  0  0  0  0  0  0  0  0  0
   12.3074   18.1158   15.5892 C   0  0  0  0  0  0  0  0  0  0  0  0
   13.0928   18.8413   16.4916 C   0  0  0  0  0  0  0  0  0  0  0  0
    9.5559   17.9972   14.9927 N   0  0  0  0  0  0  0  0  0  0  0  0
   11.4500   17.3754   12.2968 C   0  0  0  0  0  0  0  0  0  0  0  0
   12.2183   18.3682   12.2327 O   0  0  0  0  0  0  0  0  0  0  0  0
   10.4024   17.1177   13.8135 C   0  0  2  0  0  0  0  0  0  0  0  0
    9.1197   16.6742   13.4320 C   0  0  0  0  0  0  0  0  0  0  0  0
    9.2597   17.7328   11.9841 C   0  0  0  0  0  0  0  0  0  0  0  0
   10.2731   19.1966   11.9926 C   0  0  0  0  0  0  0  0  0  0  0  0
    9.1401   18.6521   12.2902 N   0  0  0  0  0  0  0  0  0  0  0  0
    9.4620   18.9248   10.8292 C   0  0  0  0  0  0  0  0  0  0  0  0
    8.8685   17.7980   10.6876 C   0  0  0  0  0  0  0  0  0  0  0  0
    8.3786   17.3807    9.5490 C   0  0  0  0  0  0  0  0  0  0  0  0
    9.9820   19.9505    9.9770 C   0  0  0  0  0  0  0  0  0  0  0  0
    9.0439   19.7786    9.1683 C   0  0  0  0  0  0  0  0  0  0  0  0
    8.4406   18.5139    8.9280 C   0  0  0  0  0  0  0  0  0  0  0  0
   10.9609   16.7816   11.0078 N   0  0  0  0  0  0  0  0  0  0  0  0
    7.9713   15.6011   10.7371 C   0  0  0  0  0  0  0  0  0  0  0  0
    7.7071   15.1310    9.5813 O   0  0  0  0  0  0  0  0  0  0  0  0
    9.6730   15.7221   11.0154 C   0  0  0  0  0  0  0  0  0  0  0  0
    7.0268   16.7745   11.5910 N   0  0  0  0  0  0  0  0  0  0  0  0
    5.8446   19.1440   12.4347 C   0  0  0  0  0  0  0  0  0  0  0  0
    5.2697   20.3940   11.2045 N   0  0  0  0  0  0  0  0  0  0  0  0
    7.0310   18.4346   12.1960 C   0  0  2  0  0  0  0  0  0  0  0  0
   11.5789   20.7046   13.7813 N   0  0  0  0  0  0  0  0  0  0  0  0
   10.5267   19.9075   14.1901 C   0  0  0  0  0  0  0  0  0  0  0  0
    7.7669   20.1226   11.8872 C   0  0  0  0  0  0  0  0  0  0  0  0
    9.0532   20.1185   14.2748 C   0  0  0  0  0  0  0  0  0  0  0  0
    8.6439   20.6708   13.0351 C   0  0  0  0  0  0  0  0  0  0  0  0
    5.8635   19.1420   13.6952 O   0  0  0  0  0  0  0  0  0  0  0  0
    4.2915   19.4177   10.5758 C   0  0  1  0  0  0  0  0  0  0  0  0
    4.4307   21.5741   10.8790 C   0  0  0  0  0  0  0  0  0  0  0  0
    3.6620   22.0535    9.6904 C   0  0  0  0  0  0  0  0  0  0  0  0
    3.9559   20.9550    8.8948 C   0  0  0  0  0  0  0  0  0  0  0  0
    5.9114   18.0311   10.0623 C   0  0  0  0  0  0  0  0  0  0  0  0
    6.8939   18.7783   10.2936 O   0  0  0  0  0  0  0  0  0  0  0  0
    5.5758   16.4199    9.8316 N   0  0  0  0  0  0  0  0  0  0  0  0
    3.2691   16.8784    9.0983 C   0  0  0  0  0  0  0  0  0  0  0  0
    4.2508   15.9367    9.4032 C   0  0  2  0  0  0  0  0  0  0  0  0
    2.3892   16.2172    8.6372 O   0  0  0  0  0  0  0  0  0  0  0  0
    3.7108   15.3314   10.5181 C   0  0  0  0  0  0  0  0  0  0  0  0
    2.3638   14.9412   10.4052 C   0  0  0  0  0  0  0  0  0  0  0  0
    4.5148   14.1676   10.6015 C   0  0  0  0  0  0  0  0  0  0  0  0
    3.3205   18.1885    8.7929 N   0  0  0  0  0  0  0  0  0  0  0  0
    5.2488   20.1127    7.4419 C   0  0  0  0  0  0  0  0  0  0  0  0
    5.8404   21.3083    7.3685 O   0  0  0  0  0  0  0  0  0  0  0  0
    4.4555   18.4536    8.5865 C   0  0  0  0  0  0  0  0  0  0  0  0
    5.7329   20.1609    6.2943 N   0  0  0  0  0  0  0  0  0  0  0  0
    4.6955   20.5714    4.7328 C   0  0  0  0  0  0  0  0  0  0  0  0
    4.3698   21.5825    5.3603 O   0  0  0  0  0  0  0  0  0  0  0  0
    5.2076   19.4370    5.4008 C   0  0  2  0  0  0  0  0  0  0  0  0
    3.9578   14.5429    5.4490 N   0  0  0  0  0  0  0  0  0  0  0  0
    5.0073   15.3637    5.0765 C   0  0  0  0  0  0  0  0  0  0  0  0
    4.2093   18.5296    5.7398 C   0  0  0  0  0  0  0  0  0  0  0  0
    4.2858   16.3387    4.3172 C   0  0  0  0  0  0  0  0  0  0  0  0
    3.7369   17.5445    4.8262 C   0  0  0  0  0  0  0  0  0  0  0  0
    4.4509   20.3069    3.4252 N   0  0  0  0  0  0  0  0  0  0  0  0
    2.9648   18.3432    2.2746 C   0  0  0  0  0  0  0  0  0  0  0  0
    2.9109   17.9422    1.1064 O   0  0  0  0  0  0  0  0  0  0  0  0
    4.4683   19.0589    2.6693 C   0  0  2  0  0  0  0  0  0  0  0  0
    8.4891   16.7396    3.1668 N   0  0  0  0  0  0  0  0  0  0  0  0
    7.8379   17.6447    2.2211 C   0  0  0  0  0  0  0  0  0  0  0  0
    5.5680   18.1808    3.1570 C   0  0  0  0  0  0  0  0  0  0  0  0
    6.6295   17.0287    1.5442 C   0  0  0  0  0  0  0  0  0  0  0  0
    5.7540   16.7460    2.6084 C   0  0  0  0  0  0  0  0  0  0  0  0
    1.8332   18.0751    3.1755 N   0  0  0  0  0  0  0  0  0  0  0  0
    0.9587   22.7066    3.0517 C   0  0  0  0  0  0  0  0  0  0  0  0
    1.4194   16.6239    5.4443 C   0  0  0  0  0  0  0  0  0  0  0  0
    0.0823   22.9240    2.1418 N   0  0  0  0  0  0  0  0  0  0  0  0
    1.1573   15.5987    4.8315 O   0  0  0  0  0  0  0  0  0  0  0  0
    1.2312   21.4662    3.4847 N   0  0  0  0  0  0  0  0  0  0  0  0
    1.5627   18.1563    4.7026 C   0  0  2  0  0  0  0  0  0  0  0  0
    1.6252   23.7391    3.6192 N   0  0  0  0  0  0  0  0  0  0  0  0
    2.0515   21.2223    4.5928 C   0  0  0  0  0  0  0  0  0  0  0  0
    0.7721   19.2042    5.3161 C   0  0  0  0  0  0  0  0  0  0  0  0
    1.4909   20.4995    5.7490 C   0  0  0  0  0  0  0  0  0  0  0  0
    2.2453   16.4210    6.5321 N   0  0  0  0  0  0  0  0  0  0  0  0
    0.2031   14.0289    9.7514 C   0  0  0  0  0  0  0  0  0  0  0  0
    4.7474   17.0401    7.2962 C   0  0  0  0  0  0  0  0  0  0  0  0
    0.6017   13.2750   10.7314 N   0  0  0  0  0  0  0  0  0  0  0  0
    5.8969   18.4724    7.7964 N   0  0  0  0  0  0  0  0  0  0  0  0
    0.6802   14.8884    8.7888 N   0  0  0  0  0  0  0  0  0  0  0  0
    2.7155   17.5130    7.1645 C   0  0  2  0  0  0  0  0  0  0  0  0
   -1.0729   13.9651    9.4751 N   0  0  0  0  0  0  0  0  0  0  0  0
    0.1007   16.0058    8.1183 C   0  0  0  0  0  0  0  0  0  0  0  0
    1.4152   17.9372    8.6525 C   0  0  0  0  0  0  0  0  0  0  0  0
    0.1228   17.4407    8.5380 C   0  0  0  0  0  0  0  0  0  0  0  0
    5.3385   15.9555    7.4519 O   0  0  0  0  0  0  0  0  0  0  0  0
    5.2412   19.7717    9.2546 C   0  0  1  0  0  0  0  0  0  0  0  0
    7.1977   18.6724    7.2159 C   0  0  0  0  0  0  0  0  0  0  0  0
    7.2816   20.3580    8.2281 C   0  0  0  0  0  0  0  0  0  0  0  0
    6.1514   21.2079    9.2550 C   0  0  0  0  0  0  0  0  0  0  0  0
    2.8644   19.9360    9.7502 C   0  0  0  0  0  0  0  0  0  0  0  0
    1.9707   20.5229    9.0787 O   0  0  0  0  0  0  0  0  0  0  0  0
    2.1509   19.1582   11.0395 N   0  0  0  0  0  0  0  0  0  0  0  0
    2.3190   16.5957   12.2492 C   0  0  0  0  0  0  0  0  0  0  0  0
    2.8895   17.9483   12.0001 C   0  0  2  0  0  0  0  0  0  0  0  0
    1.3255   16.6121   11.5777 O   0  0  0  0  0  0  0  0  0  0  0  0
    2.9208   18.5980   13.2660 C   0  0  0  0  0  0  0  0  0  0  0  0
    3.5590   18.2190   14.4154 C   0  0  0  0  0  0  0  0  0  0  0  0
    3.4801   19.7485   13.5481 C   0  0  0  0  0  0  0  0  0  0  0  0
    2.6343   15.5602   13.0774 N   0  0  0  0  0  0  0  0  0  0  0  0
    2.2436   16.7117   15.4528 C   0  0  0  0  0  0  0  0  0  0  0  0
    2.7604   16.9802   16.5542 O   0  0  0  0  0  0  0  0  0  0  0  0
    3.3495   15.7699   14.2386 C   0  0  2  0  0  0  0  0  0  0  0  0
    7.2419   15.4528   13.2650 N   0  0  0  0  0  0  0  0  0  0  0  0
    6.5844   14.9132   14.3120 C   0  0  0  0  0  0  0  0  0  0  0  0
    4.6681   16.3390   13.5713 C   0  0  0  0  0  0  0  0  0  0  0  0
    6.1562   15.8820   15.2659 C   0  0  0  0  0  0  0  0  0  0  0  0
    5.5372   16.9502   14.6637 C   0  0  0  0  0  0  0  0  0  0  0  0
    1.1959   17.7129   14.9739 N   0  0  0  0  0  0  0  0  0  0  0  0
    0.1618   19.4851   13.0884 C   0  0  0  0  0  0  0  0  0  0  0  0
    0.5137   18.0119   13.6762 C   0  0  2  0  0  0  0  0  0  0  0  0
   -0.8515   19.5207   12.3946 O   0  0  0  0  0  0  0  0  0  0  0  0
   -0.4383   16.9551   13.2405 C   0  0  0  0  0  0  0  0  0  0  0  0
   -0.8936   16.9381   11.7587 C   0  0  0  0  0  0  0  0  0  0  0  0
   -0.0289   15.5646   13.6512 C   0  0  0  0  0  0  0  0  0  0  0  0
    0.7764   20.7008   13.0452 N   0  0  0  0  0  0  0  0  0  0  0  0
    2.1546   22.1961   14.8889 C   0  0  0  0  0  0  0  0  0  0  0  0
    2.8828   23.4045   14.6979 N   0  0  0  0  0  0  0  0  0  0  0  0
    1.8576   21.3706   13.6963 C   0  0  2  0  0  0  0  0  0  0  0  0
    2.8109   21.8916   12.7164 C   0  0  0  0  0  0  0  0  0  0  0  0
    4.2872   22.1788   13.1910 C   0  0  0  0  0  0  0  0  0  0  0  0
    5.0940   21.2383   13.1598 C   0  0  0  0  0  0  0  0  0  0  0  0
    5.2002   23.1488   12.9557 C   0  0  0  0  0  0  0  0  0  0  0  0
    6.5591   23.4219   13.1165 C   0  0  0  0  0  0  0  0  0  0  0  0
    7.2016   22.4058   13.3966 C   0  0  0  0  0  0  0  0  0  0  0  0
    6.3926   21.3559   13.2999 C   0  0  0  0  0  0  0  0  0  0  0  0
    8.2974   22.6120   14.1869 O   0  0  0  0  0  0  0  0  0  0  0  0
    1.8751   21.6068   15.9305 O   0  0  0  0  0  0  0  0  0  0  0  0
    2.7664   24.4760   13.5163 C   0  0  1  0  0  0  0  0  0  0  0  0
    3.9542   23.7963   15.6156 C   0  0  0  0  0  0  0  0  0  0  0  0
    4.6556   25.0080   14.9710 C   0  0  0  0  0  0  0  0  0  0  0  0
    4.1254   25.1787   13.5745 C   0  0  0  0  0  0  0  0  0  0  0  0
    2.3786   24.2986   11.8977 C   0  0  0  0  0  0  0  0  0  0  0  0
    3.1488   23.8550   11.0671 O   0  0  0  0  0  0  0  0  0  0  0  0
    1.0692   24.1216   11.6035 O   0  0  0  0  0  0  0  0  0  0  0  0
    7.6369   19.1625   17.8927 H   0  0  0  0  0  0  0  0  0  0  0  0
    8.7491   18.4854   16.8935 H   0  0  0  0  0  0  0  0  0  0  0  0
    8.9013   17.0992   17.3827 H   0  0  0  0  0  0  0  0  0  0  0  0
    7.3564   20.1728   15.8271 H   0  0  0  0  0  0  0  0  0  0  0  0
    6.7564   18.7178   15.3290 H   0  0  0  0  0  0  0  0  0  0  0  0
    4.9497   19.1396   16.6323 H   0  0  0  0  0  0  0  0  0  0  0  0
    5.4814   16.5730   19.0005 H   0  0  0  0  0  0  0  0  0  0  0  0
    7.0799   19.1105   19.4186 H   0  0  0  0  0  0  0  0  0  0  0  0
    4.7826   19.6726   19.4628 H   0  0  0  0  0  0  0  0  0  0  0  0
    4.3805   18.3409   20.5236 H   0  0  0  0  0  0  0  0  0  0  0  0
    4.7625   21.6470   20.5737 H   0  0  0  0  0  0  0  0  0  0  0  0
    6.2289   18.3295   22.8653 H   0  0  0  0  0  0  0  0  0  0  0  0
    6.6882   19.6118   24.6925 H   0  0  0  0  0  0  0  0  0  0  0  0
    5.1300   23.0220   22.5885 H   0  0  0  0  0  0  0  0  0  0  0  0
    6.5489   21.8056   25.5699 H   0  0  0  0  0  0  0  0  0  0  0  0
    6.8309   16.3026   22.3308 H   0  0  0  0  0  0  0  0  0  0  0  0
    4.7438   16.4436   20.4969 H   0  0  0  0  0  0  0  0  0  0  0  0
    6.3103   14.8843   19.4778 H   0  0  0  0  0  0  0  0  0  0  0  0
    6.2665   13.8828   20.8941 H   0  0  0  0  0  0  0  0  0  0  0  0
    3.9657   13.7266   20.5972 H   0  0  0  0  0  0  0  0  0  0  0  0
    4.2454   16.3026   24.1863 H   0  0  0  0  0  0  0  0  0  0  0  0
    6.3210   15.5370   24.6409 H   0  0  0  0  0  0  0  0  0  0  0  0
    4.7590   14.9831   26.3159 H   0  0  0  0  0  0  0  0  0  0  0  0
    4.2854   13.5509   25.4024 H   0  0  0  0  0  0  0  0  0  0  0  0
    5.7118   12.8909   27.2650 H   0  0  0  0  0  0  0  0  0  0  0  0
    6.5803   12.5705   25.7748 H   0  0  0  0  0  0  0  0  0  0  0  0
    8.3164   14.2353   25.1099 H   0  0  0  0  0  0  0  0  0  0  0  0
    7.7164   15.8586   25.3206 H   0  0  0  0  0  0  0  0  0  0  0  0
    9.1634   15.5172   26.0359 H   0  0  0  0  0  0  0  0  0  0  0  0
    7.8323   13.1850   22.2242 H   0  0  0  0  0  0  0  0  0  0  0  0
    7.8773   15.8169   23.4872 H   0  0  0  0  0  0  0  0  0  0  0  0
    9.8427   14.2392   24.5317 H   0  0  0  0  0  0  0  0  0  0  0  0
   10.3835   14.1185   23.2959 H   0  0  0  0  0  0  0  0  0  0  0  0
   11.4785   15.9116   24.2071 H   0  0  0  0  0  0  0  0  0  0  0  0
   10.6348   16.7141   22.8798 H   0  0  0  0  0  0  0  0  0  0  0  0
    8.0724   17.9069   25.2362 H   0  0  0  0  0  0  0  0  0  0  0  0
    8.8332   15.0616   19.9763 H   0  0  0  0  0  0  0  0  0  0  0  0
   10.6287   13.9928   21.8792 H   0  0  0  0  0  0  0  0  0  0  0  0
   10.9388   12.1628   20.2954 H   0  0  0  0  0  0  0  0  0  0  0  0
    9.5821   12.1782   21.4585 H   0  0  0  0  0  0  0  0  0  0  0  0
    7.4200   11.3873   19.8674 H   0  0  0  0  0  0  0  0  0  0  0  0
    6.3118   12.3694   17.7560 H   0  0  0  0  0  0  0  0  0  0  0  0
    9.8218   14.2136   18.4895 H   0  0  0  0  0  0  0  0  0  0  0  0
   12.7913   15.7446   19.2287 H   0  0  0  0  0  0  0  0  0  0  0  0
    9.8401   15.8714   19.0967 H   0  0  0  0  0  0  0  0  0  0  0  0
    9.7296   18.0010   18.6014 H   0  0  0  0  0  0  0  0  0  0  0  0
    9.9487   17.7418   20.1588 H   0  0  0  0  0  0  0  0  0  0  0  0
   11.4086   19.3762   17.6490 H   0  0  0  0  0  0  0  0  0  0  0  0
   12.6843   17.6568   20.9356 H   0  0  0  0  0  0  0  0  0  0  0  0
   14.5505   19.4266   20.9361 H   0  0  0  0  0  0  0  0  0  0  0  0
   13.6688   20.7498   17.0571 H   0  0  0  0  0  0  0  0  0  0  0  0
   15.3667   20.1090   18.5292 H   0  0  0  0  0  0  0  0  0  0  0  0
   10.4198   15.8979   15.5110 H   0  0  0  0  0  0  0  0  0  0  0  0
   15.6355   15.3370   17.3065 H   0  0  0  0  0  0  0  0  0  0  0  0
   13.8764   16.2160   16.9130 H   0  0  0  0  0  0  0  0  0  0  0  0
   10.8375   17.8615   17.2998 H   0  0  0  0  0  0  0  0  0  0  0  0
   15.2103   18.3354   19.7310 H   0  0  0  0  0  0  0  0  0  0  0  0
   16.5326   17.4817   19.9256 H   0  0  0  0  0  0  0  0  0  0  0  0
   13.5446   18.2279   18.5200 H   0  0  0  0  0  0  0  0  0  0  0  0
   12.4070   17.2385   17.9254 H   0  0  0  0  0  0  0  0  0  0  0  0
   12.8959   17.3009   15.2924 H   0  0  0  0  0  0  0  0  0  0  0  0
   12.3602   18.9498   14.9229 H   0  0  0  0  0  0  0  0  0  0  0  0
   14.0839   19.0671   16.1431 H   0  0  0  0  0  0  0  0  0  0  0  0
   12.3641   19.9315   16.4336 H   0  0  0  0  0  0  0  0  0  0  0  0
    8.5786   18.2346   14.9598 H   0  0  0  0  0  0  0  0  0  0  0  0
   11.1597   16.6552   14.3326 H   0  0  0  0  0  0  0  0  0  0  0  0
    9.2711   15.6196   13.7084 H   0  0  0  0  0  0  0  0  0  0  0  0
    8.2359   16.9881   14.0826 H   0  0  0  0  0  0  0  0  0  0  0  0
   10.2865   20.3646   11.8357 H   0  0  0  0  0  0  0  0  0  0  0  0
    9.0978   18.6351   13.3593 H   0  0  0  0  0  0  0  0  0  0  0  0
    7.3974   16.9173    9.5146 H   0  0  0  0  0  0  0  0  0  0  0  0
    9.8149   21.0193   10.3016 H   0  0  0  0  0  0  0  0  0  0  0  0
    8.6406   20.9304    9.2506 H   0  0  0  0  0  0  0  0  0  0  0  0
    7.3669   18.4138    8.8235 H   0  0  0  0  0  0  0  0  0  0  0  0
   10.8285   17.6160   10.3220 H   0  0  0  0  0  0  0  0  0  0  0  0
   10.0350   15.1110   10.2587 H   0  0  0  0  0  0  0  0  0  0  0  0
    9.5659   15.4420   12.0067 H   0  0  0  0  0  0  0  0  0  0  0  0
    6.1404   16.8639   11.2059 H   0  0  0  0  0  0  0  0  0  0  0  0
    7.3322   18.1554   13.1592 H   0  0  0  0  0  0  0  0  0  0  0  0
   12.1626   19.9486   13.3270 H   0  0  0  0  0  0  0  0  0  0  0  0
   11.2042   21.0586   12.9316 H   0  0  0  0  0  0  0  0  0  0  0  0
   10.9319   19.0350   14.5315 H   0  0  0  0  0  0  0  0  0  0  0  0
   10.7122   19.0622   13.6116 H   0  0  0  0  0  0  0  0  0  0  0  0
    8.5591   20.4589   11.3347 H   0  0  0  0  0  0  0  0  0  0  0  0
    7.2979   20.8509   11.2792 H   0  0  0  0  0  0  0  0  0  0  0  0
    8.9189   20.6855   15.1726 H   0  0  0  0  0  0  0  0  0  0  0  0
    8.0836   19.3746   14.2509 H   0  0  0  0  0  0  0  0  0  0  0  0
    9.1160   21.5235   12.5964 H   0  0  0  0  0  0  0  0  0  0  0  0
    8.0238   20.8250   13.8607 H   0  0  0  0  0  0  0  0  0  0  0  0
    3.6053   18.6041   10.5430 H   0  0  0  0  0  0  0  0  0  0  0  0
    4.9811   22.3865   11.1336 H   0  0  0  0  0  0  0  0  0  0  0  0
    3.6596   21.0644   11.3163 H   0  0  0  0  0  0  0  0  0  0  0  0
    4.0488   22.9843    9.3905 H   0  0  0  0  0  0  0  0  0  0  0  0
    2.6002   22.1394    9.8094 H   0  0  0  0  0  0  0  0  0  0  0  0
    4.2685   21.5032    8.0020 H   0  0  0  0  0  0  0  0  0  0  0  0
    3.5460   20.4003    7.9155 H   0  0  0  0  0  0  0  0  0  0  0  0
    6.0956   15.9892    9.0365 H   0  0  0  0  0  0  0  0  0  0  0  0
    3.9906   15.3136    8.4958 H   0  0  0  0  0  0  0  0  0  0  0  0
    3.8815   16.0700   11.2013 H   0  0  0  0  0  0  0  0  0  0  0  0
    2.4096   14.1369    9.6528 H   0  0  0  0  0  0  0  0  0  0  0  0
    1.8709   14.7273   11.3033 H   0  0  0  0  0  0  0  0  0  0  0  0
    1.6911   15.7862   10.1642 H   0  0  0  0  0  0  0  0  0  0  0  0
    5.5142   14.5390   10.6990 H   0  0  0  0  0  0  0  0  0  0  0  0
    4.1209   13.7613   11.4983 H   0  0  0  0  0  0  0  0  0  0  0  0
    4.3544   13.6575    9.6477 H   0  0  0  0  0  0  0  0  0  0  0  0
    2.9366   19.0277    8.3592 H   0  0  0  0  0  0  0  0  0  0  0  0
    4.4381   17.8024    9.8910 H   0  0  0  0  0  0  0  0  0  0  0  0
    5.1063   17.5754    8.7281 H   0  0  0  0  0  0  0  0  0  0  0  0
    6.4361   20.8751    6.2159 H   0  0  0  0  0  0  0  0  0  0  0  0
    6.0837   18.9247    5.2680 H   0  0  0  0  0  0  0  0  0  0  0  0
    4.3671   13.9079    6.0906 H   0  0  0  0  0  0  0  0  0  0  0  0
    3.2688   15.1298    5.8934 H   0  0  0  0  0  0  0  0  0  0  0  0
    5.7958   14.8908    4.5423 H   0  0  0  0  0  0  0  0  0  0  0  0
    5.6287   15.9676    5.7419 H   0  0  0  0  0  0  0  0  0  0  0  0
    4.7613   17.7106    5.8937 H   0  0  0  0  0  0  0  0  0  0  0  0
    3.6698   19.1264    6.4132 H   0  0  0  0  0  0  0  0  0  0  0  0
    3.7001   16.2214    3.3964 H   0  0  0  0  0  0  0  0  0  0  0  0
    5.2250   16.7395    4.3658 H   0  0  0  0  0  0  0  0  0  0  0  0
    3.0623   16.8496    5.0007 H   0  0  0  0  0  0  0  0  0  0  0  0
    3.4963   18.2304    4.1199 H   0  0  0  0  0  0  0  0  0  0  0  0
    3.8382   20.9650    3.0001 H   0  0  0  0  0  0  0  0  0  0  0  0
    4.9738   19.3174    1.7763 H   0  0  0  0  0  0  0  0  0  0  0  0
    9.3197   17.1849    3.5345 H   0  0  0  0  0  0  0  0  0  0  0  0
    7.9153   16.5099    3.9848 H   0  0  0  0  0  0  0  0  0  0  0  0
    8.4520   17.9446    1.4086 H   0  0  0  0  0  0  0  0  0  0  0  0
    7.6369   18.5866    2.7449 H   0  0  0  0  0  0  0  0  0  0  0  0
    6.4219   18.5098    3.7581 H   0  0  0  0  0  0  0  0  0  0  0  0
    5.2249   18.2057    4.0877 H   0  0  0  0  0  0  0  0  0  0  0  0
    6.7663   16.0548    1.1087 H   0  0  0  0  0  0  0  0  0  0  0  0
    5.9891   17.6978    0.9752 H   0  0  0  0  0  0  0  0  0  0  0  0
    6.3069   16.0668    3.2793 H   0  0  0  0  0  0  0  0  0  0  0  0
    4.9149   16.1269    2.2640 H   0  0  0  0  0  0  0  0  0  0  0  0
    1.1612   17.4048    2.8131 H   0  0  0  0  0  0  0  0  0  0  0  0
   -0.3440   22.0578    1.8049 H   0  0  0  0  0  0  0  0  0  0  0  0
    0.8300   20.6357    3.0599 H   0  0  0  0  0  0  0  0  0  0  0  0
    2.3586   18.7745    5.0940 H   0  0  0  0  0  0  0  0  0  0  0  0
    2.3488   23.6895    4.3225 H   0  0  0  0  0  0  0  0  0  0  0  0
    1.4152   24.6820    3.3295 H   0  0  0  0  0  0  0  0  0  0  0  0
    2.6249   22.0885    4.8786 H   0  0  0  0  0  0  0  0  0  0  0  0
    2.6730   20.4760    4.2039 H   0  0  0  0  0  0  0  0  0  0  0  0
    0.1092   19.3268    4.5046 H   0  0  0  0  0  0  0  0  0  0  0  0
    0.4800   18.6861    6.1949 H   0  0  0  0  0  0  0  0  0  0  0  0
    0.7896   21.1116    6.2535 H   0  0  0  0  0  0  0  0  0  0  0  0
    2.3163   20.3590    6.4599 H   0  0  0  0  0  0  0  0  0  0  0  0
    2.4126   15.5888    7.1185 H   0  0  0  0  0  0  0  0  0  0  0  0
    1.5839   13.2323   11.0733 H   0  0  0  0  0  0  0  0  0  0  0  0
    1.6584   15.1742    8.6886 H   0  0  0  0  0  0  0  0  0  0  0  0
    2.3940   18.5226    6.9361 H   0  0  0  0  0  0  0  0  0  0  0  0
   -1.3795   14.4532    8.6670 H   0  0  0  0  0  0  0  0  0  0  0  0
   -1.5730   13.2143    9.8759 H   0  0  0  0  0  0  0  0  0  0  0  0
   -0.8050   15.7363    7.7128 H   0  0  0  0  0  0  0  0  0  0  0  0
    0.6805   15.8444    7.2671 H   0  0  0  0  0  0  0  0  0  0  0  0
    1.7199   17.6556    9.7650 H   0  0  0  0  0  0  0  0  0  0  0  0
    1.3758   18.9528    8.8906 H   0  0  0  0  0  0  0  0  0  0  0  0
   -0.1797   17.7165    9.5388 H   0  0  0  0  0  0  0  0  0  0  0  0
   -0.0157   18.1641    7.7609 H   0  0  0  0  0  0  0  0  0  0  0  0
    5.5815   19.1392   10.7359 H   0  0  0  0  0  0  0  0  0  0  0  0
    6.9924   18.2924    6.2674 H   0  0  0  0  0  0  0  0  0  0  0  0
    7.6500   17.6030    7.4325 H   0  0  0  0  0  0  0  0  0  0  0  0
    7.9717   21.0083    7.6800 H   0  0  0  0  0  0  0  0  0  0  0  0
    7.2529   20.4000    9.4328 H   0  0  0  0  0  0  0  0  0  0  0  0
    5.5833   22.1364    8.9058 H   0  0  0  0  0  0  0  0  0  0  0  0
    6.3674   21.7726   10.1858 H   0  0  0  0  0  0  0  0  0  0  0  0
    1.1774   18.9203   10.8593 H   0  0  0  0  0  0  0  0  0  0  0  0
    3.8418   17.6680   11.6259 H   0  0  0  0  0  0  0  0  0  0  0  0
    2.0530   19.0223   13.4578 H   0  0  0  0  0  0  0  0  0  0  0  0
    4.4909   18.1355   14.0360 H   0  0  0  0  0  0  0  0  0  0  0  0
    3.5675   18.6148   15.3839 H   0  0  0  0  0  0  0  0  0  0  0  0
    3.0538   17.4396   14.1118 H   0  0  0  0  0  0  0  0  0  0  0  0
    3.0928   20.0924   12.6348 H   0  0  0  0  0  0  0  0  0  0  0  0
    3.8874   20.2710   14.4345 H   0  0  0  0  0  0  0  0  0  0  0  0
    4.3176   19.3375   13.2725 H   0  0  0  0  0  0  0  0  0  0  0  0
    2.0634   14.7415   13.1686 H   0  0  0  0  0  0  0  0  0  0  0  0
    3.7000   14.9201   14.7672 H   0  0  0  0  0  0  0  0  0  0  0  0
    7.9793   15.0410   12.7809 H   0  0  0  0  0  0  0  0  0  0  0  0
    7.0440   16.4098   12.9758 H   0  0  0  0  0  0  0  0  0  0  0  0
    7.2428   14.2857   14.8216 H   0  0  0  0  0  0  0  0  0  0  0  0
    5.8250   14.6264   13.6303 H   0  0  0  0  0  0  0  0  0  0  0  0
    5.1105   15.9561   12.6441 H   0  0  0  0  0  0  0  0  0  0  0  0
    4.5533   17.1003   12.8467 H   0  0  0  0  0  0  0  0  0  0  0  0
    6.9861   16.4427   15.6499 H   0  0  0  0  0  0  0  0  0  0  0  0
    5.2751   15.5525   15.7909 H   0  0  0  0  0  0  0  0  0  0  0  0
    6.3081   17.4747   14.2106 H   0  0  0  0  0  0  0  0  0  0  0  0
    5.1983   17.6896   15.4461 H   0  0  0  0  0  0  0  0  0  0  0  0
    1.0218   18.5307   15.5439 H   0  0  0  0  0  0  0  0  0  0  0  0
    1.2078   17.7666   12.9930 H   0  0  0  0  0  0  0  0  0  0  0  0
   -1.2243   17.2940   13.8569 H   0  0  0  0  0  0  0  0  0  0  0  0
   -0.2860   16.5174   10.9672 H   0  0  0  0  0  0  0  0  0  0  0  0
   -1.6878   16.2396   11.6378 H   0  0  0  0  0  0  0  0  0  0  0  0
   -1.0629   17.9017   11.3121 H   0  0  0  0  0  0  0  0  0  0  0  0
    0.4740   15.5109   14.6189 H   0  0  0  0  0  0  0  0  0  0  0  0
   -0.8223   14.8573   13.5802 H   0  0  0  0  0  0  0  0  0  0  0  0
    0.5581   15.1320   12.8693 H   0  0  0  0  0  0  0  0  0  0  0  0
    0.2328   21.4102   12.6137 H   0  0  0  0  0  0  0  0  0  0  0  0
    2.1065   20.5208   14.2507 H   0  0  0  0  0  0  0  0  0  0  0  0
    2.3510   21.7065   11.6895 H   0  0  0  0  0  0  0  0  0  0  0  0
    2.4244   22.7790   12.7907 H   0  0  0  0  0  0  0  0  0  0  0  0
    4.6025   20.4795   12.5653 H   0  0  0  0  0  0  0  0  0  0  0  0
    4.7735   23.6718   12.1700 H   0  0  0  0  0  0  0  0  0  0  0  0
    7.2703   24.1925   13.1781 H   0  0  0  0  0  0  0  0  0  0  0  0
    6.7675   20.4209   13.3149 H   0  0  0  0  0  0  0  0  0  0  0  0
    9.1964   22.4519   13.8231 H   0  0  0  0  0  0  0  0  0  0  0  0
    2.0127   25.1305   13.8734 H   0  0  0  0  0  0  0  0  0  0  0  0
    4.6616   22.9823   15.8727 H   0  0  0  0  0  0  0  0  0  0  0  0
    3.4672   24.1157   16.5251 H   0  0  0  0  0  0  0  0  0  0  0  0
    5.7545   24.9094   15.0240 H   0  0  0  0  0  0  0  0  0  0  0  0
    4.3796   25.9396   15.4191 H   0  0  0  0  0  0  0  0  0  0  0  0
    5.0127   24.9847   12.9932 H   0  0  0  0  0  0  0  0  0  0  0  0
    4.1152   26.0560   12.9700 H   0  0  0  0  0  0  0  0  0  0  0  0
    1.0381   23.6609   10.7200 H   0  0  0  0  0  0  0  0  0  0  0  0
  1  7  1  0  0  0  0
  2  1  1  0  0  0  0
  2  4  1  0  0  0  0
  2209  1  1  0  0  0
  3  1  2  0  0  0  0
  4210  1  0  0  0  0
  4211  1  0  0  0  0
  5  2  1  0  0  0  0
  5212  1  0  0  0  0
  5213  1  0  0  0  0
  6  5  1  0  0  0  0
  6214  1  0  0  0  0
  7215  1  0  0  0  0
  8 19  1  0  0  0  0
  9  8  2  0  0  0  0
 10  7  1  0  0  0  0
 10216  1  6  0  0  0
 10 11  1  0  0  0  0
 10  8  1  0  0  0  0
 11217  1  0  0  0  0
 11218  1  0  0  0  0
 12 11  1  0  0  0  0
 13 12  2  0  0  0  0
 13219  1  0  0  0  0
 14 12  1  0  0  0  0
 14220  1  0  0  0  0
 15 14  2  0  0  0  0
 15221  1  0  0  0  0
 16 15  1  0  0  0  0
 17 13  1  0  0  0  0
 17 16  2  0  0  0  0
 17222  1  0  0  0  0
 18 16  1  0  0  0  0
 18223  1  0  0  0  0
 19224  1  0  0  0  0
 20 25  1  0  0  0  0
 21225  1  6  0  0  0
 21 19  1  0  0  0  0
 21 20  1  0  0  0  0
 22 20  2  0  0  0  0
 23 21  1  0  0  0  0
 23226  1  0  0  0  0
 23227  1  0  0  0  0
 24 23  1  0  0  0  0
 24228  1  0  0  0  0
 25229  1  0  0  0  0
 26 33  1  0  0  0  0
 27 26  2  0  0  0  0
 28230  1  1  0  0  0
 28 25  1  0  0  0  0
 28 26  1  0  0  0  0
 30 28  1  0  0  0  0
 30231  1  0  0  0  0
 30232  1  0  0  0  0
 31 29  1  0  0  0  0
 31 30  1  0  0  0  0
 31233  1  0  0  0  0
 31234  1  0  0  0  0
 32 29  1  0  0  0  0
 32235  1  0  0  0  0
 32236  1  0  0  0  0
 32237  1  0  0  0  0
 33238  1  0  0  0  0
 34 42  1  0  0  0  0
 36 34  2  0  0  0  0
 37 33  1  0  0  0  0
 37239  1  1  0  0  0
 37 39  1  0  0  0  0
 37 34  1  0  0  0  0
 38 35  2  0  0  0  0
 39240  1  0  0  0  0
 39241  1  0  0  0  0
 40 35  1  0  0  0  0
 40 39  1  0  0  0  0
 40242  1  0  0  0  0
 40243  1  0  0  0  0
 41 35  1  0  0  0  0
 41244  1  0  0  0  0
 42245  1  0  0  0  0
 43 52  1  0  0  0  0
 44 43  2  0  0  0  0
 45 42  1  0  0  0  0
 45246  1  1  0  0  0
 45 46  1  0  0  0  0
 45 43  1  0  0  0  0
 46247  1  0  0  0  0
 46248  1  0  0  0  0
 47 46  1  0  0  0  0
 48 47  1  0  0  0  0
 48249  1  0  0  0  0
 49 48  1  0  0  0  0
 49250  1  0  0  0  0
 50 49  2  0  0  0  0
 51 47  2  0  0  0  0
 51 50  1  0  0  0  0
 51251  1  0  0  0  0
 52252  1  0  0  0  0
 53 63  1  0  0  0  0
 54 52  1  0  0  0  0
 54253  1  1  0  0  0
 54 56  1  0  0  0  0
 54 53  1  0  0  0  0
 55 53  2  0  0  0  0
 56254  1  0  0  0  0
 56255  1  0  0  0  0
 57 56  1  0  0  0  0
 58 57  2  0  0  0  0
 58256  1  0  0  0  0
 59 57  1  0  0  0  0
 59257  1  0  0  0  0
 60 59  2  0  0  0  0
 60258  1  0  0  0  0
 61 58  1  0  0  0  0
 61259  1  0  0  0  0
 62 60  1  0  0  0  0
 62 61  2  0  0  0  0
 62260  1  0  0  0  0
 63261  1  0  0  0  0
 65 74  1  0  0  0  0
 66 64  2  0  0  0  0
 66262  1  0  0  0  0
 67 65  2  0  0  0  0
 68 64  1  0  0  0  0
 68263  1  0  0  0  0
 69 63  1  0  0  0  0
 69264  1  1  0  0  0
 69 72  1  0  0  0  0
 69 65  1  0  0  0  0
 70 64  1  0  0  0  0
 70265  1  0  0  0  0
 70266  1  0  0  0  0
 71 68  1  0  0  0  0
 71267  1  0  0  0  0
 71268  1  0  0  0  0
 72269  1  0  0  0  0
 72270  1  0  0  0  0
 73 71  1  0  0  0  0
 73 72  1  0  0  0  0
 73271  1  0  0  0  0
 73272  1  0  0  0  0
 74273  1  0  0  0  0
 75 88  1  0  0  0  0
 76 75  2  0  0  0  0
 77 74  1  0  0  0  0
 77274  1  1  0  0  0
 77 78  1  0  0  0  0
 77 75  1  0  0  0  0
 78275  1  0  0  0  0
 78276  1  0  0  0  0
 79 78  1  0  0  0  0
 80 79  2  0  0  0  0
 80277  1  0  0  0  0
 81 80  1  0  0  0  0
 81278  1  0  0  0  0
 82 81  1  0  0  0  0
 83 79  1  0  0  0  0
 83 82  2  0  0  0  0
 84 83  1  0  0  0  0
 84279  1  0  0  0  0
 85 82  1  0  0  0  0
 85280  1  0  0  0  0
 86 85  2  0  0  0  0
 86281  1  0  0  0  0
 87 84  2  0  0  0  0
 87 86  1  0  0  0  0
 87282  1  0  0  0  0
 88 91  1  0  0  0  0
 88283  1  0  0  0  0
 89 92  1  0  0  0  0
 90 89  2  0  0  0  0
 91 89  1  0  0  0  0
 91284  1  0  0  0  0
 91285  1  0  0  0  0
 92286  1  0  0  0  0
 93101  2  0  0  0  0
 94 93  1  0  0  0  0
 94102  1  0  0  0  0
 95287  1  1  0  0  0
 95 92  1  0  0  0  0
 95 93  1  0  0  0  0
 96288  1  0  0  0  0
 96289  1  0  0  0  0
 97 96  1  0  0  0  0
 97290  1  0  0  0  0
 97291  1  0  0  0  0
 98 95  1  0  0  0  0
 98292  1  0  0  0  0
 98293  1  0  0  0  0
 99 97  1  0  0  0  0
 99294  1  0  0  0  0
 99295  1  0  0  0  0
100 98  1  0  0  0  0
100 99  1  0  0  0  0
100296  1  0  0  0  0
100297  1  0  0  0  0
102298  1  1  0  0  0
102106  1  0  0  0  0
103 94  1  0  0  0  0
103299  1  0  0  0  0
103300  1  0  0  0  0
104103  1  0  0  0  0
104301  1  0  0  0  0
104302  1  0  0  0  0
105102  1  0  0  0  0
105104  1  0  0  0  0
105303  1  0  0  0  0
105304  1  0  0  0  0
106107  2  0  0  0  0
106108  1  0  0  0  0
108305  1  0  0  0  0
109115  1  0  0  0  0
110306  1  6  0  0  0
110108  1  0  0  0  0
110109  1  0  0  0  0
111109  2  0  0  0  0
112110  1  0  0  0  0
112307  1  0  0  0  0
113112  1  0  0  0  0
113308  1  0  0  0  0
113309  1  0  0  0  0
113310  1  0  0  0  0
114112  1  0  0  0  0
114311  1  0  0  0  0
114312  1  0  0  0  0
114313  1  0  0  0  0
115118  1  0  0  0  0
115314  1  0  0  0  0
116119  1  0  0  0  0
117116  2  0  0  0  0
118116  1  0  0  0  0
118315  1  0  0  0  0
118316  1  0  0  0  0
119317  1  0  0  0  0
120128  1  0  0  0  0
121120  2  0  0  0  0
122318  1  6  0  0  0
122119  1  0  0  0  0
122120  1  0  0  0  0
123319  1  0  0  0  0
123320  1  0  0  0  0
124123  1  0  0  0  0
124321  1  0  0  0  0
124322  1  0  0  0  0
125122  1  0  0  0  0
125323  1  0  0  0  0
125324  1  0  0  0  0
126124  1  0  0  0  0
126325  1  0  0  0  0
126326  1  0  0  0  0
127125  1  0  0  0  0
127126  1  0  0  0  0
127327  1  0  0  0  0
127328  1  0  0  0  0
128329  1  0  0  0  0
129137  1  0  0  0  0
130129  2  0  0  0  0
131330  1  6  0  0  0
131128  1  0  0  0  0
131129  1  0  0  0  0
132331  1  0  0  0  0
132332  1  0  0  0  0
133132  1  0  0  0  0
133333  1  0  0  0  0
133334  1  0  0  0  0
134131  1  0  0  0  0
134335  1  0  0  0  0
134336  1  0  0  0  0
135133  1  0  0  0  0
135337  1  0  0  0  0
135338  1  0  0  0  0
136134  1  0  0  0  0
136135  1  0  0  0  0
136339  1  0  0  0  0
136340  1  0  0  0  0
137341  1  0  0  0  0
139148  1  0  0  0  0
140138  2  0  0  0  0
140342  1  0  0  0  0
141139  2  0  0  0  0
142138  1  0  0  0  0
142343  1  0  0  0  0
143137  1  0  0  0  0
143344  1  1  0  0  0
143146  1  0  0  0  0
143139  1  0  0  0  0
144138  1  0  0  0  0
144345  1  0  0  0  0
144346  1  0  0  0  0
145142  1  0  0  0  0
145347  1  0  0  0  0
145348  1  0  0  0  0
146349  1  0  0  0  0
146350  1  0  0  0  0
147145  1  0  0  0  0
147146  1  0  0  0  0
147351  1  0  0  0  0
147352  1  0  0  0  0
148353  1  0  0  0  0
150159  2  0  0  0  0
151149  2  0  0  0  0
151354  1  0  0  0  0
152150  1  0  0  0  0
152160  1  0  0  0  0
153149  1  0  0  0  0
153355  1  0  0  0  0
154148  1  0  0  0  0
154356  1  6  0  0  0
154157  1  0  0  0  0
154150  1  0  0  0  0
155149  1  0  0  0  0
155357  1  0  0  0  0
155358  1  0  0  0  0
156153  1  0  0  0  0
156359  1  0  0  0  0
156360  1  0  0  0  0
157361  1  0  0  0  0
157362  1  0  0  0  0
158156  1  0  0  0  0
158157  1  0  0  0  0
158363  1  0  0  0  0
158364  1  0  0  0  0
160365  1  1  0  0  0
160164  1  0  0  0  0
161152  1  0  0  0  0
161366  1  0  0  0  0
161367  1  0  0  0  0
162161  1  0  0  0  0
162368  1  0  0  0  0
162369  1  0  0  0  0
163160  1  0  0  0  0
163162  1  0  0  0  0
163370  1  0  0  0  0
163371  1  0  0  0  0
164165  2  0  0  0  0
164166  1  0  0  0  0
166372  1  0  0  0  0
167173  1  0  0  0  0
168373  1  6  0  0  0
168166  1  0  0  0  0
168167  1  0  0  0  0
169167  2  0  0  0  0
170168  1  0  0  0  0
170374  1  0  0  0  0
171170  1  0  0  0  0
171375  1  0  0  0  0
171376  1  0  0  0  0
171377  1  0  0  0  0
172170  1  0  0  0  0
172378  1  0  0  0  0
172379  1  0  0  0  0
172380  1  0  0  0  0
173381  1  0  0  0  0
174182  1  0  0  0  0
175174  2  0  0  0  0
176382  1  1  0  0  0
176173  1  0  0  0  0
176174  1  0  0  0  0
177383  1  0  0  0  0
177384  1  0  0  0  0
178177  1  0  0  0  0
178385  1  0  0  0  0
178386  1  0  0  0  0
179176  1  0  0  0  0
179387  1  0  0  0  0
179388  1  0  0  0  0
180178  1  0  0  0  0
180389  1  0  0  0  0
180390  1  0  0  0  0
181179  1  0  0  0  0
181180  1  0  0  0  0
181391  1  0  0  0  0
181392  1  0  0  0  0
182393  1  0  0  0  0
183189  1  0  0  0  0
184394  1  6  0  0  0
184182  1  0  0  0  0
184183  1  0  0  0  0
185183  2  0  0  0  0
186184  1  0  0  0  0
186395  1  0  0  0  0
187186  1  0  0  0  0
187396  1  0  0  0  0
187397  1  0  0  0  0
187398  1  0  0  0  0
188186  1  0  0  0  0
188399  1  0  0  0  0
188400  1  0  0  0  0
188401  1  0  0  0  0
189402  1  0  0  0  0
190201  2  0  0  0  0
191190  1  0  0  0  0
191202  1  0  0  0  0
192189  1  0  0  0  0
192403  1  1  0  0  0
192193  1  0  0  0  0
192190  1  0  0  0  0
193404  1  0  0  0  0
193405  1  0  0  0  0
194193  1  0  0  0  0
195194  2  0  0  0  0
195406  1  0  0  0  0
196194  1  0  0  0  0
196407  1  0  0  0  0
197196  2  0  0  0  0
197408  1  0  0  0  0
198197  1  0  0  0  0
199195  1  0  0  0  0
199198  2  0  0  0  0
199409  1  0  0  0  0
200198  1  0  0  0  0
200410  1  0  0  0  0
202411  1  1  0  0  0
202206  1  0  0  0  0
203191  1  0  0  0  0
203412  1  0  0  0  0
203413  1  0  0  0  0
204203  1  0  0  0  0
204414  1  0  0  0  0
204415  1  0  0  0  0
205202  1  0  0  0  0
205204  1  0  0  0  0
205416  1  0  0  0  0
205417  1  0  0  0  0
206207  2  0  0  0  0
206208  1  0  0  0  0
208418  1  0  0  0  0
M  END
>  <DRUGBANK_ID>
DB01284

>  <COMMON_NAME>
Tetracosactide

>  <CAS_NUMBER>
16960-16-0

>  <UNII>
72YY86EA29

>  <SYNONYMS>
adrenocorticotropic hormone 1-24; Adrenocorticotropic hormone fragment 1-24 human, rat; alpha(1-24)-corticotrophin; ATCH (1-24); beta(1-24)-corticotrophin; Corticotropin tetracosapeptide; corticotropin-(1-24); corticotropin-(1-24) tetracosapeptide; Cosyntropin; Tetracosactida; Tetracosactide; Tetracosactrin; α1-24-corticotrophin; β1-24-corticotrophin

$$$$
