
 OpenBabel10282417143D

 40 41  0  0  0  0  0  0  0  0999 V2000
    2.1748   -0.0089   -0.0008 F   0  0  0  0  0  0  0  0  0  0  0  0
   -6.9301    2.2056   -7.8152 O   0  0  0  0  0  0  0  0  0  0  0  0
   -6.2996    0.2187   -7.0974 O   0  0  0  0  0  0  0  0  0  0  0  0
   -4.0245   -0.6416   -1.1244 N   0  0  0  0  0  0  0  0  0  0  0  0
   -6.0136    2.0349   -5.6658 N   0  0  0  0  0  0  0  0  0  0  0  0
   -5.3621    3.5184   -3.2393 N   0  0  0  0  0  0  0  0  0  0  0  0
   -3.4616   -0.0200    0.0541 C   0  0  0  0  0  0  0  0  0  0  0  0
   -4.4736    0.0583   -2.2261 C   0  0  0  0  0  0  0  0  0  0  0  0
   -1.9543   -0.0119    0.0099 C   0  0  0  0  0  0  0  0  0  0  0  0
   -5.5218    1.3863   -4.5050 C   0  0  0  0  0  0  0  0  0  0  0  0
   -4.7107    1.4400   -2.2317 C   0  0  0  0  0  0  0  0  0  0  0  0
   -5.2638    2.1233   -3.3313 C   0  0  0  0  0  0  0  0  0  0  0  0
   -4.7770   -0.6453   -3.3832 C   0  0  0  0  0  0  0  0  0  0  0  0
   -5.2874    0.0081   -4.4989 C   0  0  0  0  0  0  0  0  0  0  0  0
   -1.2437    1.2011    0.0014 C   0  0  0  0  0  0  0  0  0  0  0  0
   -1.2414   -1.2210    0.0056 C   0  0  0  0  0  0  0  0  0  0  0  0
    0.1519    1.2011   -0.0047 C   0  0  0  0  0  0  0  0  0  0  0  0
    0.1524   -1.2184    0.0034 C   0  0  0  0  0  0  0  0  0  0  0  0
    0.8356   -0.0085   -0.0010 C   0  0  0  0  0  0  0  0  0  0  0  0
   -6.3931    1.4194   -6.8447 C   0  0  0  0  0  0  0  0  0  0  0  0
   -7.1860    3.6093   -7.7139 C   0  0  0  0  0  0  0  0  0  0  0  0
   -8.2508    3.9041   -6.6761 C   0  0  0  0  0  0  0  0  0  0  0  0
   -3.8422   -1.6309   -1.2499 H   0  0  0  0  0  0  0  0  0  0  0  0
   -6.0870    3.0326   -5.5866 H   0  0  0  0  0  0  0  0  0  0  0  0
   -5.9333    4.0439   -3.8799 H   0  0  0  0  0  0  0  0  0  0  0  0
   -5.2840    3.9226   -2.3089 H   0  0  0  0  0  0  0  0  0  0  0  0
   -3.7927   -0.5824    0.9327 H   0  0  0  0  0  0  0  0  0  0  0  0
   -3.8365    0.9931    0.2151 H   0  0  0  0  0  0  0  0  0  0  0  0
   -4.4819    2.0269   -1.3508 H   0  0  0  0  0  0  0  0  0  0  0  0
   -4.6114   -1.7170   -3.4567 H   0  0  0  0  0  0  0  0  0  0  0  0
   -5.4754   -0.6178   -5.3607 H   0  0  0  0  0  0  0  0  0  0  0  0
   -1.7722    2.1521   -0.0005 H   0  0  0  0  0  0  0  0  0  0  0  0
   -1.7748   -2.1684    0.0027 H   0  0  0  0  0  0  0  0  0  0  0  0
    0.7085    2.1328   -0.0130 H   0  0  0  0  0  0  0  0  0  0  0  0
    0.7064   -2.1509    0.0043 H   0  0  0  0  0  0  0  0  0  0  0  0
   -6.2450    4.1388   -7.5418 H   0  0  0  0  0  0  0  0  0  0  0  0
   -7.5578    3.9173   -8.6984 H   0  0  0  0  0  0  0  0  0  0  0  0
   -7.9724    3.5692   -5.6753 H   0  0  0  0  0  0  0  0  0  0  0  0
   -8.4431    4.9768   -6.6239 H   0  0  0  0  0  0  0  0  0  0  0  0
   -9.1750    3.3704   -6.9170 H   0  0  0  0  0  0  0  0  0  0  0  0
  1 19  1  0  0  0  0
  2 20  1  0  0  0  0
  2 21  1  0  0  0  0
  3 20  2  0  0  0  0
  4  7  1  0  0  0  0
  4  8  1  0  0  0  0
  4 23  1  0  0  0  0
  5 10  1  0  0  0  0
  5 20  1  0  0  0  0
  5 24  1  0  0  0  0
  6 12  1  0  0  0  0
  6 25  1  0  0  0  0
  6 26  1  0  0  0  0
  7  9  1  0  0  0  0
  7 27  1  0  0  0  0
  7 28  1  0  0  0  0
  8 11  2  0  0  0  0
  8 13  1  0  0  0  0
  9 15  2  0  0  0  0
  9 16  1  0  0  0  0
 10 12  2  0  0  0  0
 10 14  1  0  0  0  0
 11 12  1  0  0  0  0
 11 29  1  0  0  0  0
 13 14  2  0  0  0  0
 13 30  1  0  0  0  0
 14 31  1  0  0  0  0
 15 17  1  0  0  0  0
 15 32  1  0  0  0  0
 16 18  2  0  0  0  0
 16 33  1  0  0  0  0
 17 19  2  0  0  0  0
 17 34  1  0  0  0  0
 18 19  1  0  0  0  0
 18 35  1  0  0  0  0
 21 22  1  0  0  0  0
 21 36  1  0  0  0  0
 21 37  1  0  0  0  0
 22 38  1  0  0  0  0
 22 39  1  0  0  0  0
 22 40  1  0  0  0  0
M  END
>  <DRUGBANK_ID>
DB04953

>  <COMMON_NAME>
Ezogabine

>  <CAS_NUMBER>
150812-12-7

>  <UNII>
12G01I6BBU

>  <SYNONYMS>
ethyl {2-amino-4-[(4-fluorobenzyl)amino]phenyl}carbamate; Ethyl 2-amino-4-((p-fluorobenzyl)amino)carbanilate; EZG; Ezogabine; N-(2-Amino-4-(4-fluorobenzylamino)-phenyl) carbamic acid ethyl ester; N-(2-Amino-4-(4-fluorobenzylamino)phenyl)carbamic acid ethyl ester; Retigabina; Retigabine; RTG

$$$$
