OA1
 OpenBabel10282417173D

 22 23  0  0  0  0  0  0  0  0999 V2000
   -1.5804    0.0263   -0.0053 Br  0  0  0  0  0  0  0  0  0  0  0  0
    0.3104    0.0077   -0.0028 C   0  0  0  0  0  0  0  0  0  0  0  0
    0.9792   -1.2162    0.0153 C   0  0  0  0  0  0  0  0  0  0  0  0
    1.0178    1.2047   -0.0114 C   0  0  0  0  0  0  0  0  0  0  0  0
    2.4120    1.1770   -0.0021 C   0  0  0  0  0  0  0  0  0  0  0  0
    3.0920   -0.0483    0.0149 C   0  0  0  0  0  0  0  0  0  0  0  0
    2.3813   -1.2613    0.0164 C   0  0  0  0  0  0  0  0  0  0  0  0
    3.1315   -2.5675    0.0462 C   0  0  0  0  0  0  0  0  0  0  0  0
    4.3593   -2.5359    0.1412 O   0  0  0  0  0  0  0  0  0  0  0  0
    2.3857   -3.7965   -0.0760 C   0  0  0  0  0  0  0  0  0  0  0  0
    2.4649   -4.7827    0.8828 O   0  0  0  0  0  0  0  0  0  0  0  0
    1.5921   -5.7387    0.4430 C   0  0  0  0  0  0  0  0  0  0  0  0
    1.4242   -6.8196    1.1961 N   0  0  0  0  0  0  0  0  0  0  0  0
    0.9920   -5.4598   -0.6876 N   0  0  0  0  0  0  0  0  0  0  0  0
    1.5031   -4.2416   -1.0353 C   0  0  0  0  0  0  0  0  0  0  0  0
    0.3820   -2.1216    0.0412 H   0  0  0  0  0  0  0  0  0  0  0  0
    0.4932    2.1572   -0.0174 H   0  0  0  0  0  0  0  0  0  0  0  0
    2.9687    2.1122   -0.0034 H   0  0  0  0  0  0  0  0  0  0  0  0
    4.1817   -0.0446    0.0335 H   0  0  0  0  0  0  0  0  0  0  0  0
    1.9584   -6.9844    2.0364 H   0  0  0  0  0  0  0  0  0  0  0  0
    0.8291   -7.5670    0.8624 H   0  0  0  0  0  0  0  0  0  0  0  0
    1.2008   -3.7329   -1.9390 H   0  0  0  0  0  0  0  0  0  0  0  0
  1  2  1  0  0  0  0
  2  3  1  0  0  0  0
  2  4  2  0  0  0  0
  3  7  2  0  0  0  0
  3 16  1  0  0  0  0
  4  5  1  0  0  0  0
  4 17  1  0  0  0  0
  5  6  2  0  0  0  0
  5 18  1  0  0  0  0
  6  7  1  0  0  0  0
  6 19  1  0  0  0  0
  7  8  1  0  0  0  0
  8  9  2  0  0  0  0
  8 10  1  0  0  0  0
 10 11  1  0  0  0  0
 10 15  2  0  0  0  0
 11 12  1  0  0  0  0
 12 13  1  0  0  0  0
 12 14  2  0  0  0  0
 13 20  1  0  0  0  0
 13 21  1  0  0  0  0
 14 15  1  0  0  0  0
 15 22  1  0  0  0  0
M  END
>  <DRUGBANK_ID>
DB08314

>  <COMMON_NAME>
(2-AMINO-1,3-OXAZOL-5-YL)-(3-BROMOPHENYL)METHANONE

$$$$
