
 OpenBabel10282417223D

 44 45  0  0  0  0  0  0  0  0999 V2000
   -1.6684   -0.8098    0.0506 S   0  0  0  0  0  0  0  0  0  0  0  0
   -1.4328    0.8770    0.6829 C   0  0  0  0  0  0  0  0  0  0  0  0
   -0.3370    1.4276   -0.2502 C   0  0  2  0  0  0  0  0  0  0  0  0
   -0.7966    1.8900   -1.6306 C   0  0  0  0  0  0  0  0  0  0  0  0
   -0.3098    3.0687   -2.0725 O   0  0  0  0  0  0  0  0  0  0  0  0
    0.0661    4.1219   -1.1880 C   0  0  0  0  0  0  0  0  0  0  0  0
   -0.8135    4.3127   -0.0704 O   0  0  0  0  0  0  0  0  0  0  0  0
   -2.0611    4.8205   -0.0177 C   0  0  0  0  0  0  0  0  0  0  0  0
   -2.9218    5.1000   -1.2613 C   0  0  0  0  0  0  0  0  0  0  0  0
   -4.1458    4.1680   -1.2747 C   0  0  0  0  0  0  0  0  0  0  0  0
   -3.4064    6.5484   -1.1344 C   0  0  0  0  0  0  0  0  0  0  0  0
   -2.2808    4.9855   -2.6326 C   0  0  0  0  0  0  0  0  0  0  0  0
   -2.5417    5.0005    1.1056 O   0  0  0  0  0  0  0  0  0  0  0  0
   -1.4415    1.1868   -2.3993 O   0  0  0  0  0  0  0  0  0  0  0  0
    0.5808    0.3285   -0.5371 N   0  0  0  0  0  0  0  0  0  0  0  0
    0.0210   -1.0531   -0.5643 C   0  0  1  0  0  0  0  0  0  0  0  0
    1.1074   -1.4372    0.4507 C   0  0  0  0  0  0  0  0  0  0  0  0
    1.5590    0.0271    0.3669 C   0  0  0  0  0  0  0  0  0  0  0  0
    2.2843    0.7622    0.9864 O   0  0  0  0  0  0  0  0  0  0  0  0
    0.0837   -1.5137   -1.5534 H   0  0  0  0  0  0  0  0  0  0  0  0
   -2.7308    1.6605    0.7132 C   0  0  0  0  0  0  0  0  0  0  0  0
   -0.9443    0.8647    2.1429 C   0  0  0  0  0  0  0  0  0  0  0  0
   -1.9199   -1.7012    1.1657 O   0  0  0  0  0  0  0  0  0  0  0  0
   -2.6088   -0.7835   -1.0522 O   0  0  0  0  0  0  0  0  0  0  0  0
    0.2251    2.2073    0.2617 H   0  0  0  0  0  0  0  0  0  0  0  0
    1.0747    3.8981   -0.8309 H   0  0  0  0  0  0  0  0  0  0  0  0
    0.1728    5.0562   -1.7392 H   0  0  0  0  0  0  0  0  0  0  0  0
   -4.7502    4.2444   -0.3648 H   0  0  0  0  0  0  0  0  0  0  0  0
   -4.7912    4.3828   -2.1333 H   0  0  0  0  0  0  0  0  0  0  0  0
   -3.8422    3.1293   -1.3961 H   0  0  0  0  0  0  0  0  0  0  0  0
   -2.5517    7.2305   -1.0706 H   0  0  0  0  0  0  0  0  0  0  0  0
   -4.0039    6.8260   -2.0087 H   0  0  0  0  0  0  0  0  0  0  0  0
   -4.0256    6.6975   -0.2437 H   0  0  0  0  0  0  0  0  0  0  0  0
   -1.3932    5.6123   -2.7084 H   0  0  0  0  0  0  0  0  0  0  0  0
   -2.0705    3.9459   -2.8660 H   0  0  0  0  0  0  0  0  0  0  0  0
   -2.9442    5.3033   -3.4389 H   0  0  0  0  0  0  0  0  0  0  0  0
    0.7498   -1.7256    1.4426 H   0  0  0  0  0  0  0  0  0  0  0  0
    1.8674   -2.1388    0.1080 H   0  0  0  0  0  0  0  0  0  0  0  0
   -3.4790    1.2044    1.3689 H   0  0  0  0  0  0  0  0  0  0  0  0
   -2.5461    2.6517    1.1222 H   0  0  0  0  0  0  0  0  0  0  0  0
   -3.1757    1.7389   -0.2705 H   0  0  0  0  0  0  0  0  0  0  0  0
   -0.0826    0.2215    2.3092 H   0  0  0  0  0  0  0  0  0  0  0  0
   -0.6675    1.8778    2.4596 H   0  0  0  0  0  0  0  0  0  0  0  0
   -1.7336    0.5110    2.8143 H   0  0  0  0  0  0  0  0  0  0  0  0
  2  1  1  0  0  0  0
  3  2  1  0  0  0  0
  3  4  1  0  0  0  0
  3 15  1  0  0  0  0
  3 25  1  1  0  0  0
  5  4  1  0  0  0  0
  6  5  1  0  0  0  0
  6 26  1  0  0  0  0
  6 27  1  0  0  0  0
  7  6  1  0  0  0  0
  8  7  1  0  0  0  0
  9  8  1  0  0  0  0
 10  9  1  0  0  0  0
 10 28  1  0  0  0  0
 10 29  1  0  0  0  0
 10 30  1  0  0  0  0
 11  9  1  0  0  0  0
 11 31  1  0  0  0  0
 11 32  1  0  0  0  0
 11 33  1  0  0  0  0
 12  9  1  0  0  0  0
 12 34  1  0  0  0  0
 12 35  1  0  0  0  0
 12 36  1  0  0  0  0
 13  8  2  0  0  0  0
 14  4  2  0  0  0  0
 15 16  1  0  0  0  0
 16  1  1  0  0  0  0
 16 20  1  6  0  0  0
 17 16  1  0  0  0  0
 17 37  1  0  0  0  0
 17 38  1  0  0  0  0
 18 17  1  0  0  0  0
 18 15  1  0  0  0  0
 19 18  2  0  0  0  0
 21  2  1  0  0  0  0
 21 39  1  0  0  0  0
 21 40  1  0  0  0  0
 21 41  1  0  0  0  0
 22  2  1  0  0  0  0
 22 42  1  0  0  0  0
 22 43  1  0  0  0  0
 22 44  1  0  0  0  0
 23  1  2  0  0  0  0
 24  1  2  0  0  0  0
M  END
>  <DRUGBANK_ID>
DB15761

>  <COMMON_NAME>
Sulbactam pivoxil

>  <CAS_NUMBER>
69388-79-0

>  <UNII>
2X0WTA96KX

>  <SYNONYMS>
Pivsulbactam; Sulbactam pivoxil; Sulbactam pivoxyl

$$$$
