TZY
 OpenBabel10282417143D

 39 42  0  0  0  0  0  0  0  0999 V2000
    1.0553    1.3841    0.0480 C   0  0  0  0  0  0  0  0  0  0  0  0
    5.1644    2.6183    0.5032 C   0  0  0  0  0  0  0  0  0  0  0  0
    0.9566   -1.4332    0.0053 C   0  0  0  0  0  0  0  0  0  0  0  0
   -1.9496    2.5421   -0.0301 C   0  0  0  0  0  0  0  0  0  0  0  0
    2.1320   -0.7796    0.0169 C   0  0  0  0  0  0  0  0  0  0  0  0
    4.3387   -1.0519   -4.5005 C   0  0  0  0  0  0  0  0  0  0  0  0
   -0.2483   -0.6915    0.0129 C   0  0  0  0  0  0  0  0  0  0  0  0
    4.3039   -1.7786   -5.6248 F   0  0  0  0  0  0  0  0  0  0  0  0
    5.3304   -1.2960   -3.5561 C   0  0  0  0  0  0  0  0  0  0  0  0
    5.3795   -0.5275   -2.3898 C   0  0  0  0  0  0  0  0  0  0  0  0
    3.3853   -0.0619   -4.2979 C   0  0  0  0  0  0  0  0  0  0  0  0
    3.4323    0.7082   -3.1351 C   0  0  0  0  0  0  0  0  0  0  0  0
    4.4336    0.4831   -2.1765 C   0  0  0  0  0  0  0  0  0  0  0  0
    4.4811    1.2837   -0.9688 C   0  0  0  0  0  0  0  0  0  0  0  0
    5.5617    2.0481   -0.6087 N   0  0  0  0  0  0  0  0  0  0  0  0
    3.9112    2.2847    0.9132 O   0  0  0  0  0  0  0  0  0  0  0  0
    3.4546    1.3822   -0.0308 C   0  0  0  0  0  0  0  0  0  0  0  0
    2.2117    0.6853    0.0377 C   0  0  0  0  0  0  0  0  0  0  0  0
   -0.1637    0.6956    0.0286 N   0  0  0  0  0  0  0  0  0  0  0  0
   -1.4796    1.1211   -0.0032 C   0  0  0  0  0  0  0  0  0  0  0  0
   -2.7785    2.8018   -1.2910 C   0  0  0  0  0  0  0  0  0  0  0  0
   -2.7953    2.8367    1.2103 C   0  0  0  0  0  0  0  0  0  0  0  0
   -1.5063   -1.0654   -0.0002 N   0  0  0  0  0  0  0  0  0  0  0  0
   -2.2756    0.0665   -0.0099 N   0  0  0  0  0  0  0  0  0  0  0  0
    1.0195    2.4666    0.0405 H   0  0  0  0  0  0  0  0  0  0  0  0
    5.7109    3.3133    1.1264 H   0  0  0  0  0  0  0  0  0  0  0  0
    0.9084   -2.5152   -0.0167 H   0  0  0  0  0  0  0  0  0  0  0  0
   -1.0996    3.2321   -0.0358 H   0  0  0  0  0  0  0  0  0  0  0  0
    3.0633   -1.3393    0.0041 H   0  0  0  0  0  0  0  0  0  0  0  0
    6.0613   -2.0775   -3.7379 H   0  0  0  0  0  0  0  0  0  0  0  0
    6.1524   -0.7228   -1.6496 H   0  0  0  0  0  0  0  0  0  0  0  0
    2.6189    0.1093   -5.0473 H   0  0  0  0  0  0  0  0  0  0  0  0
    2.6895    1.4890   -2.9889 H   0  0  0  0  0  0  0  0  0  0  0  0
   -3.6636    2.1555   -1.3297 H   0  0  0  0  0  0  0  0  0  0  0  0
   -3.1238    3.8408   -1.3219 H   0  0  0  0  0  0  0  0  0  0  0  0
   -2.1906    2.6129   -2.1957 H   0  0  0  0  0  0  0  0  0  0  0  0
   -2.2193    2.6715    2.1270 H   0  0  0  0  0  0  0  0  0  0  0  0
   -3.1405    3.8760    1.2079 H   0  0  0  0  0  0  0  0  0  0  0  0
   -3.6805    2.1908    1.2537 H   0  0  0  0  0  0  0  0  0  0  0  0
  1 18  2  0  0  0  0
  1 19  1  0  0  0  0
  1 25  1  0  0  0  0
  2 15  2  0  0  0  0
  2 16  1  0  0  0  0
  2 26  1  0  0  0  0
  3  5  2  0  0  0  0
  3  7  1  0  0  0  0
  3 27  1  0  0  0  0
  4 20  1  0  0  0  0
  4 21  1  0  0  0  0
  4 22  1  0  0  0  0
  4 28  1  0  0  0  0
  5 18  1  0  0  0  0
  5 29  1  0  0  0  0
  6  8  1  0  0  0  0
  6  9  2  0  0  0  0
  6 11  1  0  0  0  0
  7 19  1  0  0  0  0
  7 23  2  0  0  0  0
  9 10  1  0  0  0  0
  9 30  1  0  0  0  0
 10 13  2  0  0  0  0
 10 31  1  0  0  0  0
 11 12  2  0  0  0  0
 11 32  1  0  0  0  0
 12 13  1  0  0  0  0
 12 33  1  0  0  0  0
 13 14  1  0  0  0  0
 14 15  1  0  0  0  0
 14 17  2  0  0  0  0
 16 17  1  0  0  0  0
 17 18  1  0  0  0  0
 19 20  1  0  0  0  0
 20 24  2  0  0  0  0
 21 34  1  0  0  0  0
 21 35  1  0  0  0  0
 21 36  1  0  0  0  0
 22 37  1  0  0  0  0
 22 38  1  0  0  0  0
 22 39  1  0  0  0  0
 23 24  1  0  0  0  0
M  END
>  <DRUGBANK_ID>
DB04797

>  <COMMON_NAME>
Triazolopyridine

$$$$
