4BC
 OpenBabel10282417123D

 43 46  0  0  0  0  0  0  0  0999 V2000
    0.9928   -1.4128   -0.0028 C   0  0  0  0  0  0  0  0  0  0  0  0
   -0.1782   -0.6856   -0.0071 C   0  0  0  0  0  0  0  0  0  0  0  0
   -1.4371   -1.2015   -0.0095 O   0  0  0  0  0  0  0  0  0  0  0  0
   -2.2228    0.0054    0.0773 C   0  0  0  0  0  0  0  0  0  0  0  0
   -1.4342    1.2093   -0.0198 O   0  0  0  0  0  0  0  0  0  0  0  0
   -0.1776    0.6898   -0.0099 C   0  0  0  0  0  0  0  0  0  0  0  0
    0.9920    1.4168   -0.0040 C   0  0  0  0  0  0  0  0  0  0  0  0
    2.1951    0.7092    0.0009 C   0  0  0  0  0  0  0  0  0  0  0  0
    2.2021   -0.7004    0.0099 C   0  0  0  0  0  0  0  0  0  0  0  0
    3.4657   -1.4137   -0.0306 C   0  0  0  0  0  0  0  0  0  0  0  0
    4.4610   -1.3600    0.9459 C   0  0  0  0  0  0  0  0  0  0  0  0
    4.4755   -0.5969    2.1785 C   0  0  0  0  0  0  0  0  0  0  0  0
    5.5920   -0.7235    2.9335 O   0  0  0  0  0  0  0  0  0  0  0  0
    3.5742    0.1387    2.5626 O   0  0  0  0  0  0  0  0  0  0  0  0
    5.4200   -2.2168    0.4686 N   0  0  0  0  0  0  0  0  0  0  0  0
    3.9205   -2.3184   -1.0331 C   0  0  0  0  0  0  0  0  0  0  0  0
    5.0964   -2.8532   -0.6739 N   0  0  0  0  0  0  0  0  0  0  0  0
    3.2097   -2.7162   -2.2546 C   0  0  0  0  0  0  0  0  0  0  0  0
    2.8310   -1.7406   -3.1967 C   0  0  0  0  0  0  0  0  0  0  0  0
    2.0498   -2.0573   -4.3351 C   0  0  0  0  0  0  0  0  0  0  0  0
    1.6440   -0.9440   -5.2734 C   0  0  0  0  0  0  0  0  0  0  0  0
    0.7744    0.0983   -4.5845 C   0  0  0  0  0  0  0  0  0  0  0  0
    1.6769   -3.3928   -4.5201 C   0  0  0  0  0  0  0  0  0  0  0  0
    0.9397   -3.8436   -5.5789 O   0  0  0  0  0  0  0  0  0  0  0  0
    2.0402   -4.3695   -3.5920 C   0  0  0  0  0  0  0  0  0  0  0  0
    2.7956   -4.0340   -2.4686 C   0  0  0  0  0  0  0  0  0  0  0  0
    3.0625   -5.0446   -1.5833 O   0  0  0  0  0  0  0  0  0  0  0  0
    0.9620   -2.4977   -0.0107 H   0  0  0  0  0  0  0  0  0  0  0  0
   -2.9669    0.0029   -0.7272 H   0  0  0  0  0  0  0  0  0  0  0  0
   -2.7488    0.0126    1.0395 H   0  0  0  0  0  0  0  0  0  0  0  0
    0.9826    2.4997    0.0102 H   0  0  0  0  0  0  0  0  0  0  0  0
    3.1331    1.2597    0.0191 H   0  0  0  0  0  0  0  0  0  0  0  0
    6.3176   -1.3023    2.6635 H   0  0  0  0  0  0  0  0  0  0  0  0
    6.3175   -2.4518    0.8770 H   0  0  0  0  0  0  0  0  0  0  0  0
    3.1266   -0.7056   -3.0276 H   0  0  0  0  0  0  0  0  0  0  0  0
    2.5461   -0.4801   -5.6891 H   0  0  0  0  0  0  0  0  0  0  0  0
    1.0830   -1.3138   -6.1353 H   0  0  0  0  0  0  0  0  0  0  0  0
    1.3107    0.5974   -3.7721 H   0  0  0  0  0  0  0  0  0  0  0  0
    0.4644    0.8636   -5.3025 H   0  0  0  0  0  0  0  0  0  0  0  0
   -0.1263   -0.3619   -4.1636 H   0  0  0  0  0  0  0  0  0  0  0  0
    0.7485   -3.1270   -6.1994 H   0  0  0  0  0  0  0  0  0  0  0  0
    1.7173   -5.3957   -3.7428 H   0  0  0  0  0  0  0  0  0  0  0  0
    3.6789   -4.6913   -0.9142 H   0  0  0  0  0  0  0  0  0  0  0  0
  1  2  2  0  0  0  0
  1  9  1  0  0  0  0
  1 28  1  0  0  0  0
  2  3  1  0  0  0  0
  2  6  1  0  0  0  0
  3  4  1  0  0  0  0
  4  5  1  0  0  0  0
  4 29  1  0  0  0  0
  4 30  1  0  0  0  0
  5  6  1  0  0  0  0
  6  7  2  0  0  0  0
  7  8  1  0  0  0  0
  7 31  1  0  0  0  0
  8  9  2  0  0  0  0
  8 32  1  0  0  0  0
  9 10  1  0  0  0  0
 10 11  2  0  0  0  0
 10 16  1  0  0  0  0
 11 12  1  0  0  0  0
 11 15  1  0  0  0  0
 12 13  1  0  0  0  0
 12 14  2  0  0  0  0
 13 33  1  0  0  0  0
 15 17  1  0  0  0  0
 15 34  1  0  0  0  0
 16 17  2  0  0  0  0
 16 18  1  0  0  0  0
 18 19  2  0  0  0  0
 18 26  1  0  0  0  0
 19 20  1  0  0  0  0
 19 35  1  0  0  0  0
 20 21  1  0  0  0  0
 20 23  2  0  0  0  0
 21 22  1  0  0  0  0
 21 36  1  0  0  0  0
 21 37  1  0  0  0  0
 22 38  1  0  0  0  0
 22 39  1  0  0  0  0
 22 40  1  0  0  0  0
 23 24  1  0  0  0  0
 23 25  1  0  0  0  0
 24 41  1  0  0  0  0
 25 26  2  0  0  0  0
 25 42  1  0  0  0  0
 26 27  1  0  0  0  0
 27 43  1  0  0  0  0
M  END
>  <DRUGBANK_ID>
DB02840

>  <SECONDARY_ACCESSION_NUMBERS>
EXPT00204

>  <COMMON_NAME>
4-(1,3-Benzodioxol-5-Yl)-5-(5-Ethyl-2,4-Dihydroxyphenyl)-2h-Pyrazole-3-Carboxylic Acid

$$$$
