
 OpenBabel10282417153D

 41 42  0  0  0  0  0  0  0  0999 V2000
    1.2692    0.0164    0.1385 C   0  0  0  0  0  0  0  0  0  0  0  0
    0.7027    2.3832   -0.4940 N   0  0  0  0  0  0  0  0  0  0  0  0
    0.6856   -0.7374    0.9034 O   0  0  0  0  0  0  0  0  0  0  0  0
    0.5290    0.9492   -0.8065 C   0  0  1  0  0  0  0  0  0  0  0  0
    2.6206    0.0229    0.0606 N   0  0  0  0  0  0  0  0  0  0  0  0
   -5.7851    2.5606   -1.0266 O   0  0  0  0  0  0  0  0  0  0  0  0
   -0.1340    3.2630   -1.3393 C   0  0  0  0  0  0  0  0  0  0  0  0
   -4.4580    2.8312   -1.1814 C   0  0  0  0  0  0  0  0  0  0  0  0
   -1.6421    3.0927   -1.2335 C   0  0  0  0  0  0  0  0  0  0  0  0
   -5.7169    3.9220    1.5530 C   0  0  0  0  0  0  0  0  0  0  0  0
   -5.3845    4.7282    2.6331 C   0  0  0  0  0  0  0  0  0  0  0  0
   -6.6335    3.6813   -0.8208 C   0  0  0  0  0  0  0  0  0  0  0  0
   -6.3123    4.4934    0.4163 C   0  0  0  0  0  0  0  0  0  0  0  0
   -4.7375    4.1998    3.6804 F   0  0  0  0  0  0  0  0  0  0  0  0
   -3.6793    1.7071   -1.2394 C   0  0  0  0  0  0  0  0  0  0  0  0
   -3.8437    4.0880   -1.2229 C   0  0  0  0  0  0  0  0  0  0  0  0
   -2.3077    1.8533   -1.2994 C   0  0  0  0  0  0  0  0  0  0  0  0
   -2.4529    4.2242   -1.2119 C   0  0  0  0  0  0  0  0  0  0  0  0
   -6.2389    6.6674    1.4907 C   0  0  0  0  0  0  0  0  0  0  0  0
   -5.6907    6.0836    2.6309 C   0  0  0  0  0  0  0  0  0  0  0  0
   -6.5468    5.8761    0.3872 C   0  0  0  0  0  0  0  0  0  0  0  0
    0.7539    0.6138   -2.2820 C   0  0  0  0  0  0  0  0  0  0  0  0
    0.4101    2.5338    0.4746 H   0  0  0  0  0  0  0  0  0  0  0  0
   -0.4576    0.6674   -0.4800 H   0  0  0  0  0  0  0  0  0  0  0  0
    3.1106   -0.5693    0.7141 H   0  0  0  0  0  0  0  0  0  0  0  0
    3.1003    0.7286   -0.4753 H   0  0  0  0  0  0  0  0  0  0  0  0
    0.1329    4.2952   -1.0683 H   0  0  0  0  0  0  0  0  0  0  0  0
    0.1506    3.1946   -2.3953 H   0  0  0  0  0  0  0  0  0  0  0  0
   -5.4599    2.8657    1.5862 H   0  0  0  0  0  0  0  0  0  0  0  0
   -6.6013    4.2955   -1.7291 H   0  0  0  0  0  0  0  0  0  0  0  0
   -7.6541    3.3008   -0.7220 H   0  0  0  0  0  0  0  0  0  0  0  0
   -4.1061    0.7077   -1.2467 H   0  0  0  0  0  0  0  0  0  0  0  0
   -4.4206    5.0030   -1.2285 H   0  0  0  0  0  0  0  0  0  0  0  0
   -1.8347    0.8985   -1.4256 H   0  0  0  0  0  0  0  0  0  0  0  0
   -2.0286    5.2261   -1.1999 H   0  0  0  0  0  0  0  0  0  0  0  0
   -6.4173    7.7380    1.4550 H   0  0  0  0  0  0  0  0  0  0  0  0
   -5.4943    6.6778    3.5161 H   0  0  0  0  0  0  0  0  0  0  0  0
   -6.9449    6.3418   -0.5125 H   0  0  0  0  0  0  0  0  0  0  0  0
    0.4905   -0.4273   -2.4870 H   0  0  0  0  0  0  0  0  0  0  0  0
    0.1289    1.2113   -2.9566 H   0  0  0  0  0  0  0  0  0  0  0  0
    1.7950    0.7759   -2.5758 H   0  0  0  0  0  0  0  0  0  0  0  0
  2  4  1  0  0  0  0
  2 23  1  0  0  0  0
  3  1  2  0  0  0  0
  4  1  1  0  0  0  0
  4 22  1  0  0  0  0
  4 24  1  1  0  0  0
  5  1  1  0  0  0  0
  5 25  1  0  0  0  0
  5 26  1  0  0  0  0
  6  8  1  0  0  0  0
  7  2  1  0  0  0  0
  7 27  1  0  0  0  0
  7 28  1  0  0  0  0
  8 16  1  0  0  0  0
  8 15  2  0  0  0  0
  9  7  1  0  0  0  0
 10 13  2  0  0  0  0
 10 29  1  0  0  0  0
 11 10  1  0  0  0  0
 12  6  1  0  0  0  0
 12 30  1  0  0  0  0
 12 31  1  0  0  0  0
 13 12  1  0  0  0  0
 14 11  1  0  0  0  0
 15 17  1  0  0  0  0
 15 32  1  0  0  0  0
 16 18  2  0  0  0  0
 16 33  1  0  0  0  0
 17  9  2  0  0  0  0
 17 34  1  0  0  0  0
 18  9  1  0  0  0  0
 18 35  1  0  0  0  0
 19 21  2  0  0  0  0
 19 36  1  0  0  0  0
 20 19  1  0  0  0  0
 20 11  2  0  0  0  0
 20 37  1  0  0  0  0
 21 13  1  0  0  0  0
 21 38  1  0  0  0  0
 22 39  1  0  0  0  0
 22 40  1  0  0  0  0
 22 41  1  0  0  0  0
M  END
>  <DRUGBANK_ID>
DB06654

>  <COMMON_NAME>
Safinamide

>  <CAS_NUMBER>
133865-89-1

>  <UNII>
90ENL74SIG

>  <SYNONYMS>
Safinamida; Safinamide

$$$$
