
 OpenBabel10282417213D

 52 53  0  0  0  0  0  0  0  0999 V2000
    1.1247    0.0477    0.1040 C   0  0  0  0  0  0  0  0  0  0  0  0
   -0.9190   -2.3933   -4.7349 C   0  0  0  0  0  0  0  0  0  0  0  0
    0.6768    1.1362   -0.8624 C   0  0  0  0  0  0  0  0  0  0  0  0
    2.1027   -7.7317   -6.5197 C   0  0  0  0  0  0  0  0  0  0  0  0
    0.7139   -7.1411   -6.3082 C   0  0  0  0  0  0  0  0  0  0  0  0
    1.0920    0.8194   -2.3091 C   0  0  0  0  0  0  0  0  0  0  0  0
    3.1467   -7.0117   -5.6717 C   0  0  0  0  0  0  0  0  0  0  0  0
    0.7094   -5.6533   -6.6406 C   0  0  0  0  0  0  0  0  0  0  0  0
    3.7068   -4.8906   -7.0571 C   0  0  0  0  0  0  0  0  0  0  0  0
    0.5832   -2.1926   -4.6404 C   0  0  1  0  0  0  0  0  0  0  0  0
    3.1067   -5.4855   -5.7725 C   0  0  1  0  0  0  0  0  0  0  0  0
    0.4732   -0.4989   -2.8103 C   0  0  1  0  0  0  0  0  0  0  0  0
    1.7003   -4.8765   -5.7545 C   0  0  1  0  0  0  0  0  0  0  0  0
    3.1335   -3.4569   -7.1087 C   0  0  1  0  0  0  0  0  0  0  0  0
    1.1862   -2.3893   -6.0495 C   0  0  0  0  0  0  0  0  0  0  0  0
   -1.0525   -0.2854   -2.7760 C   0  0  0  0  0  0  0  0  0  0  0  0
    2.8787   -3.0346   -8.5652 C   0  0  0  0  0  0  0  0  0  0  0  0
    0.9831   -0.8353   -4.1610 N   0  0  0  0  0  0  0  0  0  0  0  0
    1.9223   -3.5299   -6.2835 N   0  0  0  0  0  0  0  0  0  0  0  0
    1.0963   -1.5044   -6.9045 O   0  0  0  0  0  0  0  0  0  0  0  0
   -1.7538    0.1550   -3.6641 O   0  0  0  0  0  0  0  0  0  0  0  0
   -1.6083   -0.6072   -1.5855 O   0  0  0  0  0  0  0  0  0  0  0  0
    3.5890   -1.9520   -8.9704 O   0  0  0  0  0  0  0  0  0  0  0  0
    2.1320   -3.6337   -9.3330 O   0  0  0  0  0  0  0  0  0  0  0  0
    3.6779   -5.0799   -4.9253 H   0  0  0  0  0  0  0  0  0  0  0  0
    1.3009   -4.8457   -4.7371 H   0  0  0  0  0  0  0  0  0  0  0  0
    0.7305   -0.9386   -0.1590 H   0  0  0  0  0  0  0  0  0  0  0  0
    0.7717    0.2613    1.1150 H   0  0  0  0  0  0  0  0  0  0  0  0
    2.2159   -0.0211    0.1112 H   0  0  0  0  0  0  0  0  0  0  0  0
   -1.3721   -1.5853   -5.3213 H   0  0  0  0  0  0  0  0  0  0  0  0
   -1.1929   -3.3324   -5.2146 H   0  0  0  0  0  0  0  0  0  0  0  0
   -1.3655   -2.4255   -3.7380 H   0  0  0  0  0  0  0  0  0  0  0  0
   -0.4086    1.2677   -0.7924 H   0  0  0  0  0  0  0  0  0  0  0  0
    1.0959    2.1001   -0.5582 H   0  0  0  0  0  0  0  0  0  0  0  0
    2.0917   -8.7971   -6.2588 H   0  0  0  0  0  0  0  0  0  0  0  0
    2.3749   -7.6705   -7.5799 H   0  0  0  0  0  0  0  0  0  0  0  0
   -0.0095   -7.6688   -6.9401 H   0  0  0  0  0  0  0  0  0  0  0  0
    0.4001   -7.2896   -5.2677 H   0  0  0  0  0  0  0  0  0  0  0  0
    0.7688    1.6474   -2.9555 H   0  0  0  0  0  0  0  0  0  0  0  0
    2.1873    0.7843   -2.3654 H   0  0  0  0  0  0  0  0  0  0  0  0
    2.9692   -7.2876   -4.6236 H   0  0  0  0  0  0  0  0  0  0  0  0
    4.1462   -7.3840   -5.9244 H   0  0  0  0  0  0  0  0  0  0  0  0
    0.9588   -5.5312   -7.7029 H   0  0  0  0  0  0  0  0  0  0  0  0
   -0.3007   -5.2468   -6.5215 H   0  0  0  0  0  0  0  0  0  0  0  0
    4.8017   -4.8921   -7.0305 H   0  0  0  0  0  0  0  0  0  0  0  0
    3.4060   -5.4718   -7.9362 H   0  0  0  0  0  0  0  0  0  0  0  0
    1.0224   -2.9211   -3.9528 H   0  0  0  0  0  0  0  0  0  0  0  0
    0.7622   -1.3324   -2.1640 H   0  0  0  0  0  0  0  0  0  0  0  0
    3.8212   -2.7548   -6.6196 H   0  0  0  0  0  0  0  0  0  0  0  0
    0.6588   -0.1397   -4.8404 H   0  0  0  0  0  0  0  0  0  0  0  0
   -2.5435   -0.3309   -1.6908 H   0  0  0  0  0  0  0  0  0  0  0  0
    4.0529   -1.4629   -8.2646 H   0  0  0  0  0  0  0  0  0  0  0  0
  1 27  1  0  0  0  0
  1 28  1  0  0  0  0
  1 29  1  0  0  0  0
  2 30  1  0  0  0  0
  2 31  1  0  0  0  0
  2 32  1  0  0  0  0
  3  1  1  0  0  0  0
  3 33  1  0  0  0  0
  3 34  1  0  0  0  0
  4 35  1  0  0  0  0
  4 36  1  0  0  0  0
  5  4  1  0  0  0  0
  5 37  1  0  0  0  0
  5 38  1  0  0  0  0
  6  3  1  0  0  0  0
  6 39  1  0  0  0  0
  6 40  1  0  0  0  0
  7  4  1  0  0  0  0
  7 41  1  0  0  0  0
  7 42  1  0  0  0  0
  8  5  1  0  0  0  0
  8 43  1  0  0  0  0
  8 44  1  0  0  0  0
  9 45  1  0  0  0  0
  9 46  1  0  0  0  0
 10  2  1  0  0  0  0
 10 47  1  1  0  0  0
 11  7  1  0  0  0  0
 11  9  1  0  0  0  0
 11 25  1  1  0  0  0
 12  6  1  0  0  0  0
 12 18  1  0  0  0  0
 12 48  1  1  0  0  0
 13  8  1  0  0  0  0
 13 11  1  0  0  0  0
 13 19  1  0  0  0  0
 13 26  1  1  0  0  0
 14  9  1  0  0  0  0
 14 17  1  0  0  0  0
 14 49  1  1  0  0  0
 15 10  1  0  0  0  0
 16 12  1  0  0  0  0
 18 10  1  0  0  0  0
 18 50  1  0  0  0  0
 19 14  1  0  0  0  0
 19 15  1  0  0  0  0
 20 15  2  0  0  0  0
 21 16  2  0  0  0  0
 22 16  1  0  0  0  0
 22 51  1  0  0  0  0
 23 17  1  0  0  0  0
 23 52  1  0  0  0  0
 24 17  2  0  0  0  0
M  END
>  <DRUGBANK_ID>
DB14213

>  <COMMON_NAME>
Perindoprilat

>  <CAS_NUMBER>
95153-31-4

>  <UNII>
2UV6ZNQ92K

>  <SYNONYMS>
Perindoprilat; Perindoprilate; Perindoprilato; Perindoprilatum

$$$$
