
 OpenBabel10282417183D

 52 56  0  0  0  0  0  0  0  0999 V2000
    0.9070   -0.0982   -0.0186 C   0  0  0  0  0  0  0  0  0  0  0  0
    2.3814    0.5394  -12.4900 C   0  0  0  0  0  0  0  0  0  0  0  0
    1.3085    3.7759   -3.5886 C   0  0  0  0  0  0  0  0  0  0  0  0
    2.9091    2.5533   -2.2964 C   0  0  0  0  0  0  0  0  0  0  0  0
    1.0555    2.5773   -4.4969 C   0  0  0  0  0  0  0  0  0  0  0  0
    2.7417    1.2528   -3.1248 C   0  0  0  0  0  0  0  0  0  0  0  0
    3.1144   -1.0874   -6.8019 C   0  0  0  0  0  0  0  0  0  0  0  0
    2.5969    1.6059   -6.9957 C   0  0  0  0  0  0  0  0  0  0  0  0
    0.5406    2.7273   -1.4211 C   0  0  0  0  0  0  0  0  0  0  0  0
    0.2107    0.1825   -1.2936 C   0  0  0  0  0  0  0  0  0  0  0  0
    2.7556    1.7391  -11.3069 C   0  0  3  0  0  0  0  0  0  0  0  0
    3.1824   -0.4080   -8.0587 C   0  0  0  0  0  0  0  0  0  0  0  0
    2.6832   -0.4578   -5.6496 C   0  0  0  0  0  0  0  0  0  0  0  0
    2.8016    0.9235   -8.2923 C   0  0  0  0  0  0  0  0  0  0  0  0
    2.4681    0.9191   -5.6631 C   0  0  0  0  0  0  0  0  0  0  0  0
   -0.0574    1.3621   -1.7926 C   0  0  0  0  0  0  0  0  0  0  0  0
    4.4746   -0.3457  -10.2317 C   0  0  0  0  0  0  0  0  0  0  0  0
    3.8204   -1.1129   -9.1516 C   0  0  0  0  0  0  0  0  0  0  0  0
    4.2533    0.9919  -10.1789 C   0  0  0  0  0  0  0  0  0  0  0  0
    4.7305   -1.0043  -11.5024 C   0  0  0  0  0  0  0  0  0  0  0  0
   -0.5651   -0.0804   -3.2582 C   0  0  0  0  0  0  0  0  0  0  0  0
    2.4616   -1.2050   -4.5503 F   0  0  0  0  0  0  0  0  0  0  0  0
    1.6638    3.3616   -2.2039 N   0  0  0  0  0  0  0  0  0  0  0  0
    2.1505    1.5928   -4.4684 N   0  0  0  0  0  0  0  0  0  0  0  0
    3.1847    1.5231   -9.6437 N   0  0  0  0  0  0  0  0  0  0  0  0
    3.8408   -2.3599   -9.1004 O   0  0  0  0  0  0  0  0  0  0  0  0
    4.3311   -2.1619  -11.7819 O   0  0  0  0  0  0  0  0  0  0  0  0
    5.1987   -0.2500  -12.4883 O   0  0  0  0  0  0  0  0  0  0  0  0
   -0.7524   -0.5063   -4.4221 O   0  0  0  0  0  0  0  0  0  0  0  0
   -0.0516   -0.8323   -2.2196 O   0  0  0  0  0  0  0  0  0  0  0  0
   -0.9018    1.2047   -2.8857 O   0  0  0  0  0  0  0  0  0  0  0  0
    4.5363    2.4574  -11.0988 S   0  0  0  0  0  0  0  0  0  0  0  0
    0.5936   -1.0488    0.4155 H   0  0  0  0  0  0  0  0  0  0  0  0
    0.6211    0.6814    0.6973 H   0  0  0  0  0  0  0  0  0  0  0  0
    1.9941   -0.0695   -0.1211 H   0  0  0  0  0  0  0  0  0  0  0  0
    1.5658    0.9512  -13.1106 H   0  0  0  0  0  0  0  0  0  0  0  0
    3.1148    0.3539  -13.3360 H   0  0  0  0  0  0  0  0  0  0  0  0
    2.1119   -0.4370  -12.1017 H   0  0  0  0  0  0  0  0  0  0  0  0
    0.4192    4.4133   -3.5392 H   0  0  0  0  0  0  0  0  0  0  0  0
    2.1023    4.3856   -4.0407 H   0  0  0  0  0  0  0  0  0  0  0  0
    3.6819    3.1481   -2.8096 H   0  0  0  0  0  0  0  0  0  0  0  0
    3.3187    2.3725   -1.2934 H   0  0  0  0  0  0  0  0  0  0  0  0
    0.1665    2.2103   -4.0555 H   0  0  0  0  0  0  0  0  0  0  0  0
    0.6425    2.7548   -5.4900 H   0  0  0  0  0  0  0  0  0  0  0  0
    2.1441    0.5695   -2.5288 H   0  0  0  0  0  0  0  0  0  0  0  0
    3.6976    0.7204   -3.1907 H   0  0  0  0  0  0  0  0  0  0  0  0
    3.4103   -2.1328   -6.7211 H   0  0  0  0  0  0  0  0  0  0  0  0
    2.6464    2.6956   -6.9037 H   0  0  0  0  0  0  0  0  0  0  0  0
   -0.2761    3.4538   -1.3589 H   0  0  0  0  0  0  0  0  0  0  0  0
    0.9233    2.6563   -0.3937 H   0  0  0  0  0  0  0  0  0  0  0  0
    3.4756    1.6487  -12.2061 H   0  0  0  0  0  0  0  0  0  0  0  0
    4.9769   -0.7574  -13.3011 H   0  0  0  0  0  0  0  0  0  0  0  0
  1 33  1  0  0  0  0
  1 34  1  0  0  0  0
  1 35  1  0  0  0  0
  2 36  1  0  0  0  0
  2 37  1  0  0  0  0
  2 38  1  0  0  0  0
  3 39  1  0  0  0  0
  3 40  1  0  0  0  0
  4 41  1  0  0  0  0
  4 42  1  0  0  0  0
  5  3  1  0  0  0  0
  5 43  1  0  0  0  0
  5 44  1  0  0  0  0
  6  4  1  0  0  0  0
  6 45  1  0  0  0  0
  6 46  1  0  0  0  0
  7 47  1  0  0  0  0
  8 48  1  0  0  0  0
  9 49  1  0  0  0  0
  9 50  1  0  0  0  0
 10  1  1  0  0  0  0
 11  2  1  0  0  0  0
 11 51  1  0  0  0  0
 12  7  2  0  0  0  0
 13  7  1  0  0  0  0
 14  8  2  0  0  0  0
 14 12  1  0  0  0  0
 15  8  1  0  0  0  0
 15 13  2  0  0  0  0
 16  9  1  0  0  0  0
 16 10  2  0  0  0  0
 18 12  1  0  0  0  0
 18 17  1  0  0  0  0
 19 17  2  0  0  0  0
 20 17  1  0  0  0  0
 22 13  1  0  0  0  0
 23  3  1  0  0  0  0
 23  4  1  0  0  0  0
 23  9  1  0  0  0  0
 24  5  1  0  0  0  0
 24  6  1  0  0  0  0
 24 15  1  0  0  0  0
 25 11  1  0  0  0  0
 25 14  1  0  0  0  0
 25 19  1  0  0  0  0
 26 18  2  0  0  0  0
 27 20  2  0  0  0  0
 28 20  1  0  0  0  0
 28 52  1  0  0  0  0
 29 21  2  0  0  0  0
 30 10  1  0  0  0  0
 30 21  1  0  0  0  0
 31 16  1  0  0  0  0
 31 21  1  0  0  0  0
 32 11  1  0  0  0  0
 32 19  1  0  0  0  0
M  END
>  <DRUGBANK_ID>
DB11892

>  <COMMON_NAME>
Prulifloxacin

>  <CAS_NUMBER>
123447-62-1

>  <UNII>
J42298IESW

>  <SYNONYMS>
Prulifloxacin

$$$$
