
 OpenBabel10282417163D

 91 92  0  0  0  0  0  0  0  0999 V2000
    5.9699   13.4773    3.5486 C   0  0  1  0  0  0  0  0  0  0  0  0
    4.4971   13.7324    3.2255 C   0  0  2  0  0  0  0  0  0  0  0  0
    6.6272   14.5676    4.3875 C   0  0  0  0  0  0  0  0  0  0  0  0
    6.2154   12.2140    4.2538 N   0  0  0  0  0  0  0  0  0  0  0  0
    4.2783   14.9842    2.4763 N   0  0  0  0  0  0  0  0  0  0  0  0
    3.6384   13.7221    4.4871 C   0  0  0  0  0  0  0  0  0  0  0  0
    8.0867   14.2080    4.5953 C   0  0  1  0  0  0  0  0  0  0  0  0
    7.5093   11.8605    4.4292 C   0  0  0  0  0  0  0  0  0  0  0  0
    3.3357   15.0466    1.4856 C   0  0  0  0  0  0  0  0  0  0  0  0
    2.5372   12.9214    4.3827 N   0  0  0  0  0  0  0  0  0  0  0  0
    3.8524   14.4215    5.4810 O   0  0  0  0  0  0  0  0  0  0  0  0
    8.2970   12.8281    4.9463 N   0  0  0  0  0  0  0  0  0  0  0  0
    8.7653   14.3953    3.3702 O   0  0  0  0  0  0  0  0  0  0  0  0
    7.9998   10.7375    4.0534 N   0  0  0  0  0  0  0  0  0  0  0  0
    3.0412   16.3827    0.8165 C   0  0  0  0  0  0  0  0  0  0  0  0
    2.7088   14.0457    1.1382 O   0  0  0  0  0  0  0  0  0  0  0  0
    1.5677   12.8159    5.4569 C   0  0  0  0  0  0  0  0  0  0  0  0
    2.0562   16.3732   -0.1815 N   0  0  0  0  0  0  0  0  0  0  0  0
    3.6934   17.5245    1.0714 C   0  0  0  0  0  0  0  0  0  0  0  0
    0.3283   12.0251    5.0080 C   0  0  1  0  0  0  0  0  0  0  0  0
    0.7293   16.4912    0.2509 C   0  0  0  0  0  0  0  0  0  0  0  0
    3.4392   18.6936    0.3796 N   0  0  0  0  0  0  0  0  0  0  0  0
   -0.7765   13.0826    4.7953 C   0  0  0  0  0  0  0  0  0  0  0  0
    0.6850   11.1711    3.8442 N   0  0  0  0  0  0  0  0  0  0  0  0
   -0.1291   15.1966    0.4346 C   0  0  1  0  0  0  0  0  0  0  0  0
    0.2686   17.6000    0.5379 O   0  0  0  0  0  0  0  0  0  0  0  0
    4.0554   19.8736    0.6694 C   0  0  0  0  0  0  0  0  0  0  0  0
   -0.8228   13.6617    3.5349 N   0  0  0  0  0  0  0  0  0  0  0  0
   -1.4514   13.4835    5.7404 O   0  0  0  0  0  0  0  0  0  0  0  0
   -0.1866   10.9178    2.8347 C   0  0  0  0  0  0  0  0  0  0  0  0
   -1.4553   15.5152    0.9844 N   0  0  0  0  0  0  0  0  0  0  0  0
   -0.3429   14.4589   -0.8738 C   0  0  0  0  0  0  0  0  0  0  0  0
    3.7003   20.9141   -0.1144 N   0  0  0  0  0  0  0  0  0  0  0  0
    4.8986   20.0191    1.5603 O   0  0  0  0  0  0  0  0  0  0  0  0
   -2.0139   14.4138    3.1599 C   0  0  2  0  0  0  0  0  0  0  0  0
    0.2728   10.0843    1.7011 C   0  0  0  0  0  0  0  0  0  0  0  0
   -1.2941   11.4669    2.7571 O   0  0  0  0  0  0  0  0  0  0  0  0
   -2.1423   14.4830    1.6157 C   0  0  0  0  0  0  0  0  0  0  0  0
    0.8731   13.9782   -1.4158 O   0  0  0  0  0  0  0  0  0  0  0  0
   -1.8522   15.7846    3.7777 C   0  0  0  0  0  0  0  0  0  0  0  0
   -0.9801    9.2933    1.3358 C   0  0  2  0  0  0  0  0  0  0  0  0
   -2.6300   13.5687    0.9502 O   0  0  0  0  0  0  0  0  0  0  0  0
   -2.9079   16.6716    3.4650 O   0  0  0  0  0  0  0  0  0  0  0  0
   -0.5951    7.8704    0.9659 C   0  0  0  0  0  0  0  0  0  0  0  0
   -1.7205   10.0135    0.3010 N   0  0  0  0  0  0  0  0  0  0  0  0
   -1.8101    7.0224    0.5819 C   0  0  0  0  0  0  0  0  0  0  0  0
   -2.5712    7.5165   -0.6537 C   0  0  0  0  0  0  0  0  0  0  0  0
   -1.6739    7.6643   -1.8041 N   0  0  0  0  0  0  0  0  0  0  0  0
    6.4662   13.4302    2.5662 H   0  0  0  0  0  0  0  0  0  0  0  0
    4.1690   12.8986    2.5902 H   0  0  0  0  0  0  0  0  0  0  0  0
    6.5495   15.5352    3.8811 H   0  0  0  0  0  0  0  0  0  0  0  0
    6.1432   14.6494    5.3633 H   0  0  0  0  0  0  0  0  0  0  0  0
    5.6037   11.4316    4.0430 H   0  0  0  0  0  0  0  0  0  0  0  0
    4.6863   15.8315    2.8497 H   0  0  0  0  0  0  0  0  0  0  0  0
    8.5240   14.8778    5.3419 H   0  0  0  0  0  0  0  0  0  0  0  0
    2.3026   12.4978    3.4882 H   0  0  0  0  0  0  0  0  0  0  0  0
    8.4419   12.7078    5.9473 H   0  0  0  0  0  0  0  0  0  0  0  0
    8.6029   13.5598    2.8949 H   0  0  0  0  0  0  0  0  0  0  0  0
    9.0149   10.8042    4.2197 H   0  0  0  0  0  0  0  0  0  0  0  0
    1.3278   13.8292    5.8019 H   0  0  0  0  0  0  0  0  0  0  0  0
    2.0758   12.3060    6.2825 H   0  0  0  0  0  0  0  0  0  0  0  0
    2.2435   15.5806   -0.7819 H   0  0  0  0  0  0  0  0  0  0  0  0
    4.4719   17.6032    1.8227 H   0  0  0  0  0  0  0  0  0  0  0  0
   -0.0081   11.3673    5.8188 H   0  0  0  0  0  0  0  0  0  0  0  0
    2.7040   18.6811   -0.3200 H   0  0  0  0  0  0  0  0  0  0  0  0
    1.3884   10.4607    4.0218 H   0  0  0  0  0  0  0  0  0  0  0  0
    0.3801   14.5730    1.1775 H   0  0  0  0  0  0  0  0  0  0  0  0
   -0.5245   13.0342    2.7998 H   0  0  0  0  0  0  0  0  0  0  0  0
   -1.5221   16.4635    1.3374 H   0  0  0  0  0  0  0  0  0  0  0  0
   -0.9898   13.5901   -0.7287 H   0  0  0  0  0  0  0  0  0  0  0  0
   -0.8449   15.1212   -1.5877 H   0  0  0  0  0  0  0  0  0  0  0  0
    4.1199   21.8074    0.1090 H   0  0  0  0  0  0  0  0  0  0  0  0
    2.9795   20.8880   -0.8189 H   0  0  0  0  0  0  0  0  0  0  0  0
   -2.9106   13.8886    3.5219 H   0  0  0  0  0  0  0  0  0  0  0  0
    0.5867   10.7462    0.8800 H   0  0  0  0  0  0  0  0  0  0  0  0
    1.1319    9.4692    1.9789 H   0  0  0  0  0  0  0  0  0  0  0  0
    1.2477   14.7022   -1.9358 H   0  0  0  0  0  0  0  0  0  0  0  0
   -1.7787   15.7031    4.8639 H   0  0  0  0  0  0  0  0  0  0  0  0
   -0.8971   16.2078    3.4403 H   0  0  0  0  0  0  0  0  0  0  0  0
   -1.6545    9.1979    2.2020 H   0  0  0  0  0  0  0  0  0  0  0  0
   -3.0837   16.6386    2.5116 H   0  0  0  0  0  0  0  0  0  0  0  0
    0.1623    7.8769    0.1760 H   0  0  0  0  0  0  0  0  0  0  0  0
   -0.1085    7.4073    1.8373 H   0  0  0  0  0  0  0  0  0  0  0  0
   -2.0333   10.9330    0.6336 H   0  0  0  0  0  0  0  0  0  0  0  0
   -1.1911   10.1441   -0.5529 H   0  0  0  0  0  0  0  0  0  0  0  0
   -1.4676    5.9977    0.4069 H   0  0  0  0  0  0  0  0  0  0  0  0
   -2.4978    6.9835    1.4379 H   0  0  0  0  0  0  0  0  0  0  0  0
   -3.3740    6.8198   -0.8989 H   0  0  0  0  0  0  0  0  0  0  0  0
   -3.1005    8.4526   -0.4545 H   0  0  0  0  0  0  0  0  0  0  0  0
   -2.1631    8.1950   -2.5227 H   0  0  0  0  0  0  0  0  0  0  0  0
   -0.8936    8.2627   -1.5365 H   0  0  0  0  0  0  0  0  0  0  0  0
  1  2  1  0  0  0  0
  1  3  1  0  0  0  0
  1  4  1  0  0  0  0
  1 49  1  6  0  0  0
  2  5  1  0  0  0  0
  2  6  1  0  0  0  0
  2 50  1  6  0  0  0
  3  7  1  0  0  0  0
  3 51  1  0  0  0  0
  3 52  1  0  0  0  0
  4  8  1  0  0  0  0
  4 53  1  0  0  0  0
  5  9  1  0  0  0  0
  5 54  1  0  0  0  0
  6 10  1  0  0  0  0
  6 11  2  0  0  0  0
  7 12  1  0  0  0  0
  7 13  1  0  0  0  0
  7 55  1  1  0  0  0
  8 14  2  0  0  0  0
  8 12  1  0  0  0  0
  9 15  1  0  0  0  0
  9 16  2  0  0  0  0
 10 17  1  0  0  0  0
 10 56  1  0  0  0  0
 12 57  1  0  0  0  0
 13 58  1  0  0  0  0
 14 59  1  0  0  0  0
 15 18  1  0  0  0  0
 15 19  2  0  0  0  0
 17 20  1  0  0  0  0
 17 60  1  0  0  0  0
 17 61  1  0  0  0  0
 18 21  1  0  0  0  0
 18 62  1  0  0  0  0
 19 22  1  0  0  0  0
 19 63  1  0  0  0  0
 20 23  1  0  0  0  0
 20 64  1  1  0  0  0
 20 24  1  0  0  0  0
 21 25  1  0  0  0  0
 21 26  2  0  0  0  0
 22 27  1  0  0  0  0
 22 65  1  0  0  0  0
 23 28  1  0  0  0  0
 23 29  2  0  0  0  0
 24 30  1  0  0  0  0
 24 66  1  0  0  0  0
 25 31  1  0  0  0  0
 25 32  1  0  0  0  0
 25 67  1  1  0  0  0
 27 33  1  0  0  0  0
 27 34  2  0  0  0  0
 28 35  1  0  0  0  0
 28 68  1  0  0  0  0
 30 36  1  0  0  0  0
 30 37  2  0  0  0  0
 31 38  1  0  0  0  0
 31 69  1  0  0  0  0
 32 39  1  0  0  0  0
 32 70  1  0  0  0  0
 32 71  1  0  0  0  0
 33 72  1  0  0  0  0
 33 73  1  0  0  0  0
 35 40  1  0  0  0  0
 35 38  1  0  0  0  0
 35 74  1  1  0  0  0
 36 75  1  0  0  0  0
 36 76  1  0  0  0  0
 38 42  2  0  0  0  0
 39 77  1  0  0  0  0
 40 43  1  0  0  0  0
 40 78  1  0  0  0  0
 40 79  1  0  0  0  0
 41 45  1  0  0  0  0
 41 80  1  1  0  0  0
 41 44  1  0  0  0  0
 41 36  1  0  0  0  0
 43 81  1  0  0  0  0
 44 46  1  0  0  0  0
 44 82  1  0  0  0  0
 44 83  1  0  0  0  0
 45 84  1  0  0  0  0
 45 85  1  0  0  0  0
 46 47  1  0  0  0  0
 46 86  1  0  0  0  0
 46 87  1  0  0  0  0
 47 48  1  0  0  0  0
 47 88  1  0  0  0  0
 47 89  1  0  0  0  0
 48 90  1  0  0  0  0
 48 91  1  0  0  0  0
M  END
>  <DRUGBANK_ID>
DB06827

>  <COMMON_NAME>
Viomycin

>  <CAS_NUMBER>
32988-50-4

>  <UNII>
YVU35998K5

>  <SYNONYMS>
Vinacetin A; Viomicina; Viomycin; Viomycine; Viomycinum

$$$$
