
 OpenBabel10282417123D

 61 64  0  0  1  0  0  0  0  0999 V2000
   -1.8709    0.0305   -0.0186 C   0  0  0  0  0  0  0  0  0  0  0  0
   -1.1956   -1.1832    0.0006 C   0  0  0  0  0  0  0  0  0  0  0  0
   -3.7985   11.2442    1.0946 C   0  0  0  0  0  0  0  0  0  0  0  0
   -1.1512    1.2290   -0.0134 C   0  0  0  0  0  0  0  0  0  0  0  0
    0.1998   -1.1994    0.0141 C   0  0  0  0  0  0  0  0  0  0  0  0
   -3.0831    9.9047    1.2238 C   0  0  0  0  0  0  0  0  0  0  0  0
   -0.6158    4.1265    1.1298 C   0  0  0  0  0  0  0  0  0  0  0  0
    0.4521    4.7414   -0.9555 C   0  0  0  0  0  0  0  0  0  0  0  0
   -1.4438    5.2523    1.0439 C   0  0  0  0  0  0  0  0  0  0  0  0
   -0.3915    5.8531   -1.0520 C   0  0  0  0  0  0  0  0  0  0  0  0
   -5.1937    3.9832    1.7083 C   0  0  0  0  0  0  0  0  0  0  0  0
   -6.4584    4.1620    3.7671 C   0  0  0  0  0  0  0  0  0  0  0  0
   -5.4832    2.6110    1.6539 C   0  0  0  0  0  0  0  0  0  0  0  0
   -6.7575    2.8004    3.7017 C   0  0  0  0  0  0  0  0  0  0  0  0
   -5.1254   11.3411    1.8411 C   0  0  0  0  0  0  0  0  0  0  0  0
   -6.3378    9.2405    1.4183 C   0  0  0  0  0  0  0  0  0  0  0  0
    0.2852    3.8401    0.0988 C   0  0  0  0  0  0  0  0  0  0  0  0
   -5.6816    4.7600    2.7684 C   0  0  0  0  0  0  0  0  0  0  0  0
   -1.3448    6.1185   -0.0547 C   0  0  0  0  0  0  0  0  0  0  0  0
   -6.2632    2.0324    2.6537 C   0  0  0  0  0  0  0  0  0  0  0  0
    0.2573    1.2425    0.0331 C   0  0  0  0  0  0  0  0  0  0  0  0
   -5.0848    8.4029    1.7707 C   0  0  2  0  0  0  0  0  0  0  0  0
    0.9210    0.0039    0.0239 C   0  0  0  0  0  0  0  0  0  0  0  0
   -3.8971    8.6677    0.8116 C   0  0  2  0  0  0  0  0  0  0  0  0
    1.0200    2.5511    0.0672 C   0  0  0  0  0  0  0  0  0  0  0  0
   -5.3525    6.2019    2.9124 C   0  0  0  0  0  0  0  0  0  0  0  0
   -2.1875    7.3388   -0.2011 C   0  0  0  0  0  0  0  0  0  0  0  0
   -6.1874   10.6629    1.1112 N   0  0  0  0  0  0  0  0  0  0  0  0
   -5.4463    6.9728    1.7758 N   0  0  0  0  0  0  0  0  0  0  0  0
   -6.5722    0.7043    2.6612 O   0  0  0  0  0  0  0  0  0  0  0  0
    2.2861   -0.0489    0.0168 O   0  0  0  0  0  0  0  0  0  0  0  0
    2.2427    2.6240    0.0236 O   0  0  0  0  0  0  0  0  0  0  0  0
   -5.0417    6.6418    4.0129 O   0  0  0  0  0  0  0  0  0  0  0  0
   -2.1241    8.0757   -1.1770 O   0  0  0  0  0  0  0  0  0  0  0  0
   -3.0063    7.5121    0.8626 O   0  0  0  0  0  0  0  0  0  0  0  0
   -4.7780    8.6696    2.7905 H   0  0  0  0  0  0  0  0  0  0  0  0
   -4.2810    8.7764   -0.2104 H   0  0  0  0  0  0  0  0  0  0  0  0
   -2.9578    0.0507   -0.0401 H   0  0  0  0  0  0  0  0  0  0  0  0
   -1.7569   -2.1151   -0.0027 H   0  0  0  0  0  0  0  0  0  0  0  0
   -3.1281   12.0220    1.4824 H   0  0  0  0  0  0  0  0  0  0  0  0
   -3.9435   11.4782    0.0312 H   0  0  0  0  0  0  0  0  0  0  0  0
   -1.7303    2.1453   -0.0504 H   0  0  0  0  0  0  0  0  0  0  0  0
    0.7091   -2.1595    0.0195 H   0  0  0  0  0  0  0  0  0  0  0  0
   -2.1701    9.9581    0.6180 H   0  0  0  0  0  0  0  0  0  0  0  0
   -2.7236    9.7809    2.2543 H   0  0  0  0  0  0  0  0  0  0  0  0
   -0.6875    3.4649    1.9904 H   0  0  0  0  0  0  0  0  0  0  0  0
    1.2255    4.5778   -1.7042 H   0  0  0  0  0  0  0  0  0  0  0  0
   -2.1628    5.4346    1.8391 H   0  0  0  0  0  0  0  0  0  0  0  0
   -0.3040    6.5129   -1.9146 H   0  0  0  0  0  0  0  0  0  0  0  0
   -4.5627    4.4277    0.9439 H   0  0  0  0  0  0  0  0  0  0  0  0
   -6.8312    4.7557    4.5988 H   0  0  0  0  0  0  0  0  0  0  0  0
   -5.0908    2.0140    0.8364 H   0  0  0  0  0  0  0  0  0  0  0  0
   -7.3680    2.3376    4.4723 H   0  0  0  0  0  0  0  0  0  0  0  0
   -5.0387   10.9890    2.8746 H   0  0  0  0  0  0  0  0  0  0  0  0
   -5.3912   12.4031    1.9012 H   0  0  0  0  0  0  0  0  0  0  0  0
   -6.8291    8.7855    0.5480 H   0  0  0  0  0  0  0  0  0  0  0  0
   -7.0584    9.1389    2.2412 H   0  0  0  0  0  0  0  0  0  0  0  0
   -7.0771   11.1267    1.3062 H   0  0  0  0  0  0  0  0  0  0  0  0
   -5.7249    6.5575    0.8976 H   0  0  0  0  0  0  0  0  0  0  0  0
   -6.1557    0.2614    1.9053 H   0  0  0  0  0  0  0  0  0  0  0  0
    2.6056   -0.9624   -0.0210 H   0  0  0  0  0  0  0  0  0  0  0  0
  1 38  1  0  0  0  0
  2  1  2  0  0  0  0
  2 39  1  0  0  0  0
  3 40  1  0  0  0  0
  3 41  1  0  0  0  0
  4  1  1  0  0  0  0
  4 42  1  0  0  0  0
  5  2  1  0  0  0  0
  5 43  1  0  0  0  0
  6  3  1  0  0  0  0
  6 44  1  0  0  0  0
  6 45  1  0  0  0  0
  7 46  1  0  0  0  0
  8 47  1  0  0  0  0
  9  7  1  0  0  0  0
  9 48  1  0  0  0  0
 10  8  2  0  0  0  0
 10 49  1  0  0  0  0
 11 50  1  0  0  0  0
 12 51  1  0  0  0  0
 13 11  1  0  0  0  0
 13 52  1  0  0  0  0
 14 12  2  0  0  0  0
 14 53  1  0  0  0  0
 15  3  1  0  0  0  0
 15 54  1  0  0  0  0
 15 55  1  0  0  0  0
 16 56  1  0  0  0  0
 16 57  1  0  0  0  0
 17  7  2  0  0  0  0
 17  8  1  0  0  0  0
 18 11  2  0  0  0  0
 18 12  1  0  0  0  0
 19  9  2  0  0  0  0
 19 10  1  0  0  0  0
 20 13  2  0  0  0  0
 20 14  1  0  0  0  0
 21  4  2  0  0  0  0
 22 16  1  0  0  0  0
 22 29  1  0  0  0  0
 22 36  1  1  0  0  0
 23  5  2  0  0  0  0
 23 21  1  0  0  0  0
 24  6  1  0  0  0  0
 24 22  1  0  0  0  0
 24 35  1  0  0  0  0
 24 37  1  6  0  0  0
 25 17  1  0  0  0  0
 25 21  1  0  0  0  0
 26 18  1  0  0  0  0
 27 19  1  0  0  0  0
 28 15  1  0  0  0  0
 28 16  1  0  0  0  0
 28 58  1  0  0  0  0
 29 26  1  0  0  0  0
 29 59  1  0  0  0  0
 30 20  1  0  0  0  0
 30 60  1  0  0  0  0
 31 23  1  0  0  0  0
 31 61  1  0  0  0  0
 32 25  2  0  0  0  0
 33 26  2  0  0  0  0
 34 27  2  0  0  0  0
 35 27  1  0  0  0  0
M  END
>  <DRUGBANK_ID>
DB01940

>  <SECONDARY_ACCESSION_NUMBERS>
EXPT00646

>  <COMMON_NAME>
Balanol Analog 2

$$$$
