
 OpenBabel10282417203D

 60 63  0  0  0  0  0  0  0  0999 V2000
    1.0142    0.0672    0.1949 C   0  0  0  0  0  0  0  0  0  0  0  0
   -1.7724    3.9428   -2.8813 C   0  0  0  0  0  0  0  0  0  0  0  0
    0.5844    0.4153   -1.2139 C   0  0  0  0  0  0  0  0  0  0  0  0
    0.0581   -5.0798   -9.7184 C   0  0  0  0  0  0  0  0  0  0  0  0
   -0.9859   -5.9787   -9.5069 C   0  0  0  0  0  0  0  0  0  0  0  0
   -1.6342   -0.3119   -7.4662 C   0  0  0  0  0  0  0  0  0  0  0  0
    1.2420   -0.5609   -2.2239 C   0  0  0  0  0  0  0  0  0  0  0  0
    0.1416   -3.9166   -8.9573 C   0  0  0  0  0  0  0  0  0  0  0  0
   -1.9541   -5.7164   -8.5385 C   0  0  0  0  0  0  0  0  0  0  0  0
   -1.4502   -3.1079   -2.9458 C   0  0  0  0  0  0  0  0  0  0  0  0
   -2.2961   -3.6527   -3.9130 C   0  0  0  0  0  0  0  0  0  0  0  0
   -1.9308    0.0775   -6.0257 C   0  0  0  0  0  0  0  0  0  0  0  0
   -0.4126   -1.2446   -7.6275 C   0  0  0  0  0  0  0  0  0  0  0  0
   -1.7057    1.6322   -3.2935 C   0  0  0  0  0  0  0  0  0  0  0  0
   -1.2061    3.0617   -5.1098 C   0  0  0  0  0  0  0  0  0  0  0  0
   -0.8182    0.6426   -3.9833 C   0  0  0  0  0  0  0  0  0  0  0  0
   -0.3717    1.9850   -5.8566 C   0  0  0  0  0  0  0  0  0  0  0  0
    0.0251   -2.2826   -4.6811 C   0  0  0  0  0  0  0  0  0  0  0  0
   -0.2593   -2.4611   -3.3128 C   0  0  0  0  0  0  0  0  0  0  0  0
   -0.8075   -3.6498   -7.9617 C   0  0  0  0  0  0  0  0  0  0  0  0
   -0.8447   -2.7839   -5.6741 C   0  0  0  0  0  0  0  0  0  0  0  0
    0.6027   -1.9412   -2.1963 C   0  0  0  0  0  0  0  0  0  0  0  0
   -1.8643   -4.5606   -7.7628 C   0  0  0  0  0  0  0  0  0  0  0  0
   -1.9809   -3.5246   -5.2668 C   0  0  0  0  0  0  0  0  0  0  0  0
   -1.1164    2.9163   -3.6461 N   0  0  0  0  0  0  0  0  0  0  0  0
   -0.7233    0.6238   -5.4314 N   0  0  0  0  0  0  0  0  0  0  0  0
   -0.5865   -2.5981   -7.0494 N   0  0  0  0  0  0  0  0  0  0  0  0
    0.7181   -2.6664   -1.1915 O   0  0  0  0  0  0  0  0  0  0  0  0
   -3.0726   -4.2735   -6.4746 S   0  0  0  0  0  0  0  0  0  0  0  0
    0.6273   -0.9208    0.4507 H   0  0  0  0  0  0  0  0  0  0  0  0
    0.6102    0.7690    0.9292 H   0  0  0  0  0  0  0  0  0  0  0  0
    2.1035    0.0571    0.2577 H   0  0  0  0  0  0  0  0  0  0  0  0
   -1.3801    4.9209   -3.1540 H   0  0  0  0  0  0  0  0  0  0  0  0
   -2.8525    3.8998   -3.0320 H   0  0  0  0  0  0  0  0  0  0  0  0
   -1.5600    3.7885   -1.8144 H   0  0  0  0  0  0  0  0  0  0  0  0
   -0.5057    0.3395   -1.2003 H   0  0  0  0  0  0  0  0  0  0  0  0
    0.8421    1.4661   -1.4234 H   0  0  0  0  0  0  0  0  0  0  0  0
    0.8301   -5.2983  -10.4506 H   0  0  0  0  0  0  0  0  0  0  0  0
   -1.0369   -6.8964  -10.0853 H   0  0  0  0  0  0  0  0  0  0  0  0
   -1.4423    0.6051   -8.0389 H   0  0  0  0  0  0  0  0  0  0  0  0
   -2.5307   -0.7544   -7.9108 H   0  0  0  0  0  0  0  0  0  0  0  0
    1.2607   -0.2507   -3.2602 H   0  0  0  0  0  0  0  0  0  0  0  0
    2.3139   -0.5935   -2.0294 H   0  0  0  0  0  0  0  0  0  0  0  0
    0.9990   -3.2596   -9.0811 H   0  0  0  0  0  0  0  0  0  0  0  0
   -2.7534   -6.4314   -8.3645 H   0  0  0  0  0  0  0  0  0  0  0  0
   -1.7300   -3.1816   -1.8963 H   0  0  0  0  0  0  0  0  0  0  0  0
   -3.1934   -4.1853   -3.6060 H   0  0  0  0  0  0  0  0  0  0  0  0
   -2.7790    0.7597   -5.9387 H   0  0  0  0  0  0  0  0  0  0  0  0
   -2.2594   -0.8137   -5.4863 H   0  0  0  0  0  0  0  0  0  0  0  0
    0.5041   -0.7893   -7.2356 H   0  0  0  0  0  0  0  0  0  0  0  0
   -0.2441   -1.3039   -8.7129 H   0  0  0  0  0  0  0  0  0  0  0  0
   -1.6575    1.4841   -2.2132 H   0  0  0  0  0  0  0  0  0  0  0  0
   -2.7510    1.4919   -3.5784 H   0  0  0  0  0  0  0  0  0  0  0  0
   -2.2526    2.9476   -5.4112 H   0  0  0  0  0  0  0  0  0  0  0  0
   -0.8480    4.0424   -5.4188 H   0  0  0  0  0  0  0  0  0  0  0  0
    0.1773    0.9643   -3.7018 H   0  0  0  0  0  0  0  0  0  0  0  0
   -1.0731   -0.3199   -3.5745 H   0  0  0  0  0  0  0  0  0  0  0  0
    0.7003    2.1249   -5.6445 H   0  0  0  0  0  0  0  0  0  0  0  0
   -0.4613    2.1050   -6.9383 H   0  0  0  0  0  0  0  0  0  0  0  0
    0.8898   -1.7060   -4.9954 H   0  0  0  0  0  0  0  0  0  0  0  0
  1 30  1  0  0  0  0
  1 31  1  0  0  0  0
  1 32  1  0  0  0  0
  2 33  1  0  0  0  0
  2 34  1  0  0  0  0
  2 35  1  0  0  0  0
  3  1  1  0  0  0  0
  3 36  1  0  0  0  0
  3 37  1  0  0  0  0
  4 38  1  0  0  0  0
  5  4  2  0  0  0  0
  5 39  1  0  0  0  0
  6 40  1  0  0  0  0
  6 41  1  0  0  0  0
  7  3  1  0  0  0  0
  7 42  1  0  0  0  0
  7 43  1  0  0  0  0
  8  4  1  0  0  0  0
  8 44  1  0  0  0  0
  9  5  1  0  0  0  0
  9 45  1  0  0  0  0
 10 46  1  0  0  0  0
 11 10  2  0  0  0  0
 11 47  1  0  0  0  0
 12  6  1  0  0  0  0
 12 48  1  0  0  0  0
 12 49  1  0  0  0  0
 13  6  1  0  0  0  0
 13 50  1  0  0  0  0
 13 51  1  0  0  0  0
 14 52  1  0  0  0  0
 14 53  1  0  0  0  0
 15 54  1  0  0  0  0
 15 55  1  0  0  0  0
 16 14  1  0  0  0  0
 16 56  1  0  0  0  0
 16 57  1  0  0  0  0
 17 15  1  0  0  0  0
 17 58  1  0  0  0  0
 17 59  1  0  0  0  0
 18 60  1  0  0  0  0
 19 10  1  0  0  0  0
 19 18  2  0  0  0  0
 20  8  2  0  0  0  0
 21 18  1  0  0  0  0
 22  7  1  0  0  0  0
 22 19  1  0  0  0  0
 23  9  2  0  0  0  0
 23 20  1  0  0  0  0
 24 11  1  0  0  0  0
 24 21  2  0  0  0  0
 25  2  1  0  0  0  0
 25 14  1  0  0  0  0
 25 15  1  0  0  0  0
 26 12  1  0  0  0  0
 26 16  1  0  0  0  0
 26 17  1  0  0  0  0
 27 13  1  0  0  0  0
 27 20  1  0  0  0  0
 27 21  1  0  0  0  0
 28 22  2  0  0  0  0
 29 23  1  0  0  0  0
 29 24  1  0  0  0  0
M  END
>  <DRUGBANK_ID>
DB13213

>  <COMMON_NAME>
Butaperazine

>  <CAS_NUMBER>
653-03-2

>  <UNII>
TXP4T9106S

>  <SYNONYMS>
Butaperazine

$$$$
