
 OpenBabel10282417133D

 17 17  0  0  0  0  0  0  0  0999 V2000
    3.1345   -0.4464   -0.0344 C   0  0  0  0  0  0  0  0  0  0  0  0
    1.6808   -0.0778    0.0037 C   0  0  0  0  0  0  0  0  0  0  0  0
    1.2652    1.2635    0.0097 C   0  0  0  0  0  0  0  0  0  0  0  0
   -0.0968    1.5887    0.0150 C   0  0  0  0  0  0  0  0  0  0  0  0
   -1.0406    0.5678    0.0085 C   0  0  0  0  0  0  0  0  0  0  0  0
   -2.3843    0.8222   -0.0082 O   0  0  0  0  0  0  0  0  0  0  0  0
   -0.6321   -0.7634    0.0144 C   0  0  0  0  0  0  0  0  0  0  0  0
   -1.5553   -1.7698    0.0081 O   0  0  0  0  0  0  0  0  0  0  0  0
    0.7156   -1.0926    0.0179 C   0  0  0  0  0  0  0  0  0  0  0  0
    3.3961   -1.0454    0.8438 H   0  0  0  0  0  0  0  0  0  0  0  0
    3.3474   -1.0260   -0.9390 H   0  0  0  0  0  0  0  0  0  0  0  0
    3.7777    0.4391   -0.0445 H   0  0  0  0  0  0  0  0  0  0  0  0
    2.0024    2.0639    0.0056 H   0  0  0  0  0  0  0  0  0  0  0  0
   -0.3919    2.6334    0.0195 H   0  0  0  0  0  0  0  0  0  0  0  0
   -2.5090    1.7866   -0.0343 H   0  0  0  0  0  0  0  0  0  0  0  0
   -2.4189   -1.3136   -0.0084 H   0  0  0  0  0  0  0  0  0  0  0  0
    1.0090   -2.1388    0.0233 H   0  0  0  0  0  0  0  0  0  0  0  0
  1  2  1  0  0  0  0
  1 10  1  0  0  0  0
  1 11  1  0  0  0  0
  1 12  1  0  0  0  0
  2  3  2  0  0  0  0
  2  9  1  0  0  0  0
  3  4  1  0  0  0  0
  3 13  1  0  0  0  0
  4  5  2  0  0  0  0
  4 14  1  0  0  0  0
  5  6  1  0  0  0  0
  5  7  1  0  0  0  0
  6 15  1  0  0  0  0
  7  8  1  0  0  0  0
  7  9  2  0  0  0  0
  8 16  1  0  0  0  0
  9 17  1  0  0  0  0
M  END
>  <DRUGBANK_ID>
DB04120

>  <SECONDARY_ACCESSION_NUMBERS>
EXPT02138

>  <COMMON_NAME>
4-Methyl-1,2-Benzenediol

>  <CAS_NUMBER>
452-86-8

>  <UNII>
12GLI7JGB3

$$$$
