
 OpenBabel10282417123D

 50 52  0  0  1  0  0  0  0  0999 V2000
    1.1141    0.0390    0.1225 C   0  0  0  0  0  0  0  0  0  0  0  0
    4.6881   -4.1758    4.7645 C   0  0  0  0  0  0  0  0  0  0  0  0
    7.2622   -2.7892    0.6361 C   0  0  0  0  0  0  0  0  0  0  0  0
    7.4622   -7.1388    1.0178 C   0  0  0  0  0  0  0  0  0  0  0  0
    0.6541   -1.3973    0.3284 C   0  0  1  0  0  0  0  0  0  0  0  0
    4.1747   -5.4245    3.9733 C   0  0  2  0  0  0  0  0  0  0  0  0
    0.6042    0.9691    1.1908 C   0  0  0  0  0  0  0  0  0  0  0  0
    8.2059   -5.2583    0.3520 C   0  0  0  0  0  0  0  0  0  0  0  0
    4.5792   -6.7763    4.5073 C   0  0  2  0  0  0  0  0  0  0  0  0
    5.7215   -7.2198    3.5955 C   0  0  2  0  0  0  0  0  0  0  0  0
    8.9149   -4.1736   -0.1979 C   0  0  0  0  0  0  0  0  0  0  0  0
    7.0363   -4.9712    1.0429 C   0  0  0  0  0  0  0  0  0  0  0  0
    5.4048   -6.5572    2.2650 C   0  0  2  0  0  0  0  0  0  0  0  0
    1.1101   -1.8948    1.7030 C   0  0  0  0  0  0  0  0  0  0  0  0
   -0.8437   -1.4479    0.2280 N   0  0  0  0  0  0  0  0  0  0  0  0
   10.1011   -4.3333   -0.8788 N   0  0  0  0  0  0  0  0  0  0  0  0
    8.4170   -2.9270   -0.0477 N   0  0  0  0  0  0  0  0  0  0  0  0
    6.5220   -3.7456    1.2232 N   0  0  0  0  0  0  0  0  0  0  0  0
    8.4613   -6.6126    0.3475 N   0  0  0  0  0  0  0  0  0  0  0  0
    6.5778   -6.1900    1.4822 N   0  0  0  0  0  0  0  0  0  0  0  0
   -0.1298    1.9410    1.0180 O   0  0  0  0  0  0  0  0  0  0  0  0
    1.0196    0.6621    2.4339 O   0  0  0  0  0  0  0  0  0  0  0  0
    3.4798   -7.6966    4.3424 O   0  0  0  0  0  0  0  0  0  0  0  0
    5.7690   -8.6395    3.4540 O   0  0  0  0  0  0  0  0  0  0  0  0
    0.2611   -2.0660    2.5850 O   0  0  0  0  0  0  0  0  0  0  0  0
    1.6801   -3.3898    3.7717 O   0  0  0  0  0  0  0  0  0  0  0  0
    4.0076   -3.3265    2.5262 O   0  0  0  0  0  0  0  0  0  0  0  0
    3.6231   -3.1743    4.9281 O   0  0  0  0  0  0  0  0  0  0  0  0
    4.6200   -5.4448    2.5965 O   0  0  0  0  0  0  0  0  0  0  0  0
    2.4698   -2.0155    1.8787 O   0  0  0  0  0  0  0  0  0  0  0  0
    3.0464   -2.5949    3.4034 P   0  0  3  0  0  0  0  0  0  0  0  0
    1.0367   -2.0646   -0.4510 H   0  0  0  0  0  0  0  0  0  0  0  0
    3.0845   -5.3587    3.9196 H   0  0  0  0  0  0  0  0  0  0  0  0
    4.8392   -6.7512    5.5676 H   0  0  0  0  0  0  0  0  0  0  0  0
    6.6768   -6.8595    3.9886 H   0  0  0  0  0  0  0  0  0  0  0  0
    4.7932   -7.1921    1.6106 H   0  0  0  0  0  0  0  0  0  0  0  0
    0.7563    0.4060   -0.8476 H   0  0  0  0  0  0  0  0  0  0  0  0
    2.2065    0.0987    0.1076 H   0  0  0  0  0  0  0  0  0  0  0  0
    5.5326   -3.6762    4.2679 H   0  0  0  0  0  0  0  0  0  0  0  0
    5.0116   -4.4381    5.7735 H   0  0  0  0  0  0  0  0  0  0  0  0
    6.8874   -1.7734    0.7291 H   0  0  0  0  0  0  0  0  0  0  0  0
    7.3258   -8.1946    1.2171 H   0  0  0  0  0  0  0  0  0  0  0  0
   -1.1622   -2.3947    0.4500 H   0  0  0  0  0  0  0  0  0  0  0  0
   -1.2447   -0.8902    0.9902 H   0  0  0  0  0  0  0  0  0  0  0  0
   10.4694   -5.2670   -0.9916 H   0  0  0  0  0  0  0  0  0  0  0  0
   10.5607   -3.5201   -1.2528 H   0  0  0  0  0  0  0  0  0  0  0  0
    0.5432    1.2968    3.0139 H   0  0  0  0  0  0  0  0  0  0  0  0
    3.0665   -7.5306    3.4738 H   0  0  0  0  0  0  0  0  0  0  0  0
    4.8442   -8.9372    3.3306 H   0  0  0  0  0  0  0  0  0  0  0  0
    1.0189   -2.7294    4.0982 H   0  0  0  0  0  0  0  0  0  0  0  0
  1 37  1  0  0  0  0
  1 38  1  0  0  0  0
  2 39  1  0  0  0  0
  2 40  1  0  0  0  0
  3 41  1  0  0  0  0
  4 42  1  0  0  0  0
  5  1  1  0  0  0  0
  5 15  1  0  0  0  0
  5 32  1  6  0  0  0
  6  2  1  0  0  0  0
  6 33  1  6  0  0  0
  7  1  1  0  0  0  0
  9  6  1  0  0  0  0
  9 23  1  0  0  0  0
  9 34  1  1  0  0  0
 10  9  1  0  0  0  0
 10 24  1  0  0  0  0
 10 35  1  1  0  0  0
 11  8  2  0  0  0  0
 12  8  1  0  0  0  0
 13 10  1  0  0  0  0
 13 36  1  6  0  0  0
 13 20  1  0  0  0  0
 14  5  1  0  0  0  0
 15 43  1  0  0  0  0
 15 44  1  0  0  0  0
 16 11  1  0  0  0  0
 16 45  1  0  0  0  0
 16 46  1  0  0  0  0
 17  3  2  0  0  0  0
 17 11  1  0  0  0  0
 18  3  1  0  0  0  0
 18 12  2  0  0  0  0
 19  4  2  0  0  0  0
 19  8  1  0  0  0  0
 20  4  1  0  0  0  0
 20 12  1  0  0  0  0
 21  7  2  0  0  0  0
 22  7  1  0  0  0  0
 22 47  1  0  0  0  0
 23 48  1  0  0  0  0
 24 49  1  0  0  0  0
 25 14  2  0  0  0  0
 26 50  1  0  0  0  0
 28  2  1  0  0  0  0
 29  6  1  0  0  0  0
 29 13  1  0  0  0  0
 30 14  1  0  0  0  0
 31 26  1  0  0  0  0
 31 27  2  0  0  0  0
 31 28  1  0  0  0  0
 31 30  1  0  0  0  0
M  END
>  <DRUGBANK_ID>
DB01895

>  <SECONDARY_ACCESSION_NUMBERS>
EXPT00511

>  <COMMON_NAME>
Aspartyl-Adenosine-5'-Monophosphate

$$$$
