
 OpenBabel10282417233D

122126  0  0  1  0  0  0  0  0999 V2000
   -6.5635   -3.3362   -2.0147 H   0  0  0  0  0  0  0  0  0  0  0  0
   -6.4163   -2.3016   -1.3949 C   0  0  1  0  0  0  0  0  0  0  0  0
   -6.8388   -1.3870   -2.5331 C   0  0  1  0  0  0  0  0  0  0  0  0
   -8.1771   -1.8512   -2.1159 C   0  0  0  0  0  0  0  0  0  0  0  0
   -8.5167   -3.0331   -1.9088 O   0  0  0  0  0  0  0  0  0  0  0  0
   -8.4695   -0.8459   -1.2285 O   0  0  0  0  0  0  0  0  0  0  0  0
   -7.9589   -1.6257   -0.1630 C   0  0  1  0  0  0  0  0  0  0  0  0
   -9.7837   -1.8029    0.4461 C   0  0  0  0  0  0  0  0  0  0  0  0
   -7.8967   -0.7150    1.3436 C   0  0  0  0  0  0  0  0  0  0  0  0
   -8.2838    0.7013    2.0125 C   0  0  0  0  0  0  0  0  0  0  0  0
   -9.6719    1.1435    2.4703 C   0  0  0  0  0  0  0  0  0  0  0  0
   -8.0675   -1.6113    2.5007 O   0  0  0  0  0  0  0  0  0  0  0  0
   -7.2656   -1.6170    3.5962 C   0  0  0  0  0  0  0  0  0  0  0  0
   -7.6324   -1.7324    4.7554 O   0  0  0  0  0  0  0  0  0  0  0  0
   -5.9304   -1.9636    3.2230 C   0  0  2  0  0  0  0  0  0  0  0  0
   -5.9618   -3.5508    3.5809 C   0  0  0  0  0  0  0  0  0  0  0  0
   -4.7945   -1.7705    4.1286 C   0  0  0  0  0  0  0  0  0  0  0  0
   -4.9104   -1.3730    5.2834 O   0  0  0  0  0  0  0  0  0  0  0  0
   -3.5597   -2.5603    3.7226 C   0  0  2  0  0  0  0  0  0  0  0  0
   -2.8921   -3.8409    4.3960 C   0  0  0  0  0  0  0  0  0  0  0  0
   -3.6439   -3.0601    2.2506 C   0  0  1  0  0  0  0  0  0  0  0  0
   -4.2310   -3.2943    1.0181 O   0  0  0  0  0  0  0  0  0  0  0  0
   -2.8528   -3.5501    0.6043 C   0  0  2  0  0  0  0  0  0  0  0  0
   -2.2713   -4.4342   -0.3693 H   0  0  0  0  0  0  0  0  0  0  0  0
   -1.8649   -5.2439    0.9270 O   0  0  0  0  0  0  0  0  0  0  0  0
   -0.3933   -5.2856    0.3039 C   0  0  2  0  0  0  0  0  0  0  0  0
    0.0892   -6.4075    1.0923 C   0  0  0  0  0  0  0  0  0  0  0  0
    0.6573   -3.8284    0.5350 C   0  0  0  0  0  0  0  0  0  0  0  0
   -0.1182   -2.1370    0.6118 C   0  0  1  0  0  0  0  0  0  0  0  0
   -2.0771   -1.8491    1.2771 C   0  0  1  0  0  0  0  0  0  0  0  0
   -3.5229   -0.9987    0.5202 O   0  0  0  0  0  0  0  0  0  0  0  0
    0.5681   -0.8775    0.4671 N   0  0  0  0  0  0  0  0  0  0  0  0
   -0.2857    0.2006   -0.1823 C   0  0  0  0  0  0  0  0  0  0  0  0
    0.4659   -0.8511    1.8783 C   0  0  0  0  0  0  0  0  0  0  0  0
   -2.7875   -4.3245    1.9805 C   0  0  1  0  0  0  0  0  0  0  0  0
   -1.3045   -3.5519    2.7315 C   0  0  0  0  0  0  0  0  0  0  0  0
   -3.6262   -5.0169    0.1440 C   0  0  0  0  0  0  0  0  0  0  0  0
   -3.1413   -3.7300   -1.5362 C   0  0  1  0  0  0  0  0  0  0  0  0
   -2.2651   -1.7534   -1.4905 C   0  0  0  0  0  0  0  0  0  0  0  0
   -4.3532   -3.7618   -2.1797 C   0  0  0  0  0  0  0  0  0  0  0  0
   -4.7820   -4.8888   -2.3064 O   0  0  0  0  0  0  0  0  0  0  0  0
   -4.8476   -2.3437   -2.4721 C   0  0  2  0  0  0  0  0  0  0  0  0
   -3.7943   -1.1450   -2.9432 C   0  0  0  0  0  0  0  0  0  0  0  0
   -1.2554   -3.6467    0.9516 O   0  0  0  0  0  0  0  0  0  0  0  0
   -1.2781   -3.1982   -0.7667 C   0  0  0  0  0  0  0  0  0  0  0  0
   -6.4447    0.0652   -2.4188 C   0  0  0  0  0  0  0  0  0  0  0  0
   -5.9844    0.5992   -1.2515 N   0  0  0  0  0  0  0  0  0  0  0  0
   -6.5559    0.6838   -3.5480 N   0  0  0  0  0  0  0  0  0  0  0  0
   -6.4016    2.0623   -3.4279 O   0  0  0  0  0  0  0  0  0  0  0  0
   -6.6759    2.7125   -4.6914 C   0  0  1  0  0  0  0  0  0  0  0  0
   -5.6750    2.3047   -5.7646 C   0  0  0  0  0  0  0  0  0  0  0  0
   -8.0984    2.5314   -5.1757 C   0  0  0  0  0  0  0  0  0  0  0  0
   -8.6431    3.3132   -6.0905 N   0  0  0  0  0  0  0  0  0  0  0  0
   -9.9359    2.9410   -6.4088 N   0  0  0  0  0  0  0  0  0  0  0  0
  -10.3444    1.8901   -5.7270 C   0  0  0  0  0  0  0  0  0  0  0  0
   -9.1614    1.2777   -4.6541 S   0  0  0  0  0  0  0  0  0  0  0  0
  -11.6743    1.2809   -5.7798 C   0  0  0  0  0  0  0  0  0  0  0  0
  -12.4823    1.2196   -4.6457 C   0  0  0  0  0  0  0  0  0  0  0  0
  -13.7458    0.6437   -4.7462 C   0  0  0  0  0  0  0  0  0  0  0  0
  -14.1707    0.1560   -5.9737 C   0  0  0  0  0  0  0  0  0  0  0  0
  -13.3144    0.2708   -7.0556 C   0  0  0  0  0  0  0  0  0  0  0  0
  -12.0768    0.8141   -6.9886 N   0  0  0  0  0  0  0  0  0  0  0  0
   -6.4009   -1.6506   -3.5084 H   0  0  0  0  0  0  0  0  0  0  0  0
  -10.4223   -2.6520    0.1872 H   0  0  0  0  0  0  0  0  0  0  0  0
   -9.9510   -1.7872    1.5769 H   0  0  0  0  0  0  0  0  0  0  0  0
  -10.4969   -0.8942    0.3143 H   0  0  0  0  0  0  0  0  0  0  0  0
   -6.9925   -0.2965    1.0139 H   0  0  0  0  0  0  0  0  0  0  0  0
   -7.6903    0.7497    2.9574 H   0  0  0  0  0  0  0  0  0  0  0  0
   -7.8555    1.5041    1.4121 H   0  0  0  0  0  0  0  0  0  0  0  0
  -10.1127    0.4726    3.2129 H   0  0  0  0  0  0  0  0  0  0  0  0
   -9.6282    2.1434    2.9505 H   0  0  0  0  0  0  0  0  0  0  0  0
  -10.3270    1.2370    1.6087 H   0  0  0  0  0  0  0  0  0  0  0  0
   -5.7678   -1.6072    2.1682 H   0  0  0  0  0  0  0  0  0  0  0  0
   -4.9825   -4.0097    3.7737 H   0  0  0  0  0  0  0  0  0  0  0  0
   -6.2401   -3.7947    4.6006 H   0  0  0  0  0  0  0  0  0  0  0  0
   -6.2314   -4.1071    2.6912 H   0  0  0  0  0  0  0  0  0  0  0  0
   -3.0325   -2.1755    4.5957 H   0  0  0  0  0  0  0  0  0  0  0  0
   -3.2770   -4.7948    4.6815 H   0  0  0  0  0  0  0  0  0  0  0  0
   -2.6442   -4.6272    3.6957 H   0  0  0  0  0  0  0  0  0  0  0  0
   -1.8724   -3.4970    4.7021 H   0  0  0  0  0  0  0  0  0  0  0  0
   -4.6509   -3.0773    2.3462 H   0  0  0  0  0  0  0  0  0  0  0  0
   -0.6659   -5.4694   -0.7348 H   0  0  0  0  0  0  0  0  0  0  0  0
   -0.6840   -7.1602    0.9052 H   0  0  0  0  0  0  0  0  0  0  0  0
    1.0597   -6.5456    0.6536 H   0  0  0  0  0  0  0  0  0  0  0  0
    0.0492   -6.0541    2.1319 H   0  0  0  0  0  0  0  0  0  0  0  0
    1.0407   -3.7823    1.5217 H   0  0  0  0  0  0  0  0  0  0  0  0
    1.3946   -3.8658   -0.2511 H   0  0  0  0  0  0  0  0  0  0  0  0
    0.3244   -2.3549   -0.7024 H   0  0  0  0  0  0  0  0  0  0  0  0
   -2.4009   -1.1478    2.0963 H   0  0  0  0  0  0  0  0  0  0  0  0
   -3.7745   -1.1809   -0.4387 H   0  0  0  0  0  0  0  0  0  0  0  0
   -1.2782    0.3375    0.2779 H   0  0  0  0  0  0  0  0  0  0  0  0
    0.1895    1.1497   -0.0344 H   0  0  0  0  0  0  0  0  0  0  0  0
   -0.4537    0.1405   -1.2919 H   0  0  0  0  0  0  0  0  0  0  0  0
   -0.5655   -0.8164    2.2178 H   0  0  0  0  0  0  0  0  0  0  0  0
    0.9001   -1.7809    2.2899 H   0  0  0  0  0  0  0  0  0  0  0  0
    0.9576    0.0179    2.1651 H   0  0  0  0  0  0  0  0  0  0  0  0
   -1.4081   -2.4924    3.0830 H   0  0  0  0  0  0  0  0  0  0  0  0
   -0.9595   -4.2953    3.3974 H   0  0  0  0  0  0  0  0  0  0  0  0
   -0.3185   -3.5056    2.3815 H   0  0  0  0  0  0  0  0  0  0  0  0
   -3.1616   -6.1043    0.1280 H   0  0  0  0  0  0  0  0  0  0  0  0
   -4.6515   -5.3226   -0.0313 H   0  0  0  0  0  0  0  0  0  0  0  0
   -3.0898   -2.8478   -2.1514 H   0  0  0  0  0  0  0  0  0  0  0  0
   -1.2391   -1.5225   -2.0188 H   0  0  0  0  0  0  0  0  0  0  0  0
   -2.3365   -0.7602   -0.8529 H   0  0  0  0  0  0  0  0  0  0  0  0
   -1.9328   -1.8930   -0.2006 H   0  0  0  0  0  0  0  0  0  0  0  0
   -4.8336   -2.6349   -3.5848 H   0  0  0  0  0  0  0  0  0  0  0  0
   -4.1787   -0.5360   -3.7196 H   0  0  0  0  0  0  0  0  0  0  0  0
   -3.5617   -0.4419   -2.1495 H   0  0  0  0  0  0  0  0  0  0  0  0
   -2.7786   -1.4936   -3.3693 H   0  0  0  0  0  0  0  0  0  0  0  0
   -2.7718   -2.7024   -0.5829 H   0  0  0  0  0  0  0  0  0  0  0  0
   -0.8131   -1.7693   -0.7391 H   0  0  0  0  0  0  0  0  0  0  0  0
   -0.9898   -3.7573   -1.7053 H   0  0  0  0  0  0  0  0  0  0  0  0
   -5.9225    1.6075   -1.1936 H   0  0  0  0  0  0  0  0  0  0  0  0
   -5.8545    0.0692   -0.4043 H   0  0  0  0  0  0  0  0  0  0  0  0
   -6.5244    3.7784   -4.4854 H   0  0  0  0  0  0  0  0  0  0  0  0
   -5.7919    1.2463   -6.0181 H   0  0  0  0  0  0  0  0  0  0  0  0
   -5.8180    2.8893   -6.6807 H   0  0  0  0  0  0  0  0  0  0  0  0
   -4.6488    2.4506   -5.4131 H   0  0  0  0  0  0  0  0  0  0  0  0
  -12.1412    1.6266   -3.7003 H   0  0  0  0  0  0  0  0  0  0  0  0
  -14.3939    0.5803   -3.8769 H   0  0  0  0  0  0  0  0  0  0  0  0
  -15.1473   -0.3006   -6.0906 H   0  0  0  0  0  0  0  0  0  0  0  0
  -13.6235   -0.0845   -8.0348 H   0  0  0  0  0  0  0  0  0  0  0  0
  2  3  1  0  0  0  0
  2  7  1  0  0  0  0
  2 42  1  0  0  0  0
  2  1  1  1  0  0  0
  3  4  1  0  0  0  0
  3 46  1  0  0  0  0
  3 63  1  6  0  0  0
  4  6  1  0  0  0  0
  4  5  2  0  0  0  0
  7  6  1  0  0  0  0
  7  9  1  0  0  0  0
  7  8  1  1  0  0  0
  8 64  1  0  0  0  0
  8 65  1  0  0  0  0
  8 66  1  0  0  0  0
  9 12  1  0  0  0  0
  9 10  1  0  0  0  0
  9 67  1  0  0  0  0
 10 11  1  0  0  0  0
 10 68  1  0  0  0  0
 10 69  1  0  0  0  0
 11 70  1  0  0  0  0
 11 71  1  0  0  0  0
 11 72  1  0  0  0  0
 12 13  1  0  0  0  0
 13 14  2  0  0  0  0
 15 13  1  0  0  0  0
 15 17  1  0  0  0  0
 15 16  1  0  0  0  0
 15 73  1  6  0  0  0
 16 74  1  0  0  0  0
 16 75  1  0  0  0  0
 16 76  1  0  0  0  0
 17 18  2  0  0  0  0
 19 17  1  0  0  0  0
 19 77  1  1  0  0  0
 19 20  1  0  0  0  0
 20 78  1  0  0  0  0
 20 79  1  0  0  0  0
 20 80  1  0  0  0  0
 21 19  1  0  0  0  0
 21 35  1  0  0  0  0
 21 81  1  1  0  0  0
 21 22  1  0  0  0  0
 23 25  1  0  0  0  0
 23 24  1  6  0  0  0
 23 22  1  0  0  0  0
 26 25  1  0  0  0  0
 26 27  1  0  0  0  0
 26 28  1  0  0  0  0
 26 82  1  6  0  0  0
 27 83  1  0  0  0  0
 27 84  1  0  0  0  0
 27 85  1  0  0  0  0
 28 86  1  0  0  0  0
 28 87  1  0  0  0  0
 29 28  1  0  0  0  0
 29 32  1  0  0  0  0
 29 88  1  6  0  0  0
 30 29  1  0  0  0  0
 30 23  1  0  0  0  0
 30 31  1  0  0  0  0
 30 89  1  1  0  0  0
 31 90  1  0  0  0  0
 32 33  1  0  0  0  0
 32 34  1  0  0  0  0
 33 91  1  0  0  0  0
 33 92  1  0  0  0  0
 33 93  1  0  0  0  0
 34 94  1  0  0  0  0
 34 95  1  0  0  0  0
 34 96  1  0  0  0  0
 35 37  1  0  0  0  0
 35 36  1  0  0  0  0
 35 44  1  6  0  0  0
 36 97  1  0  0  0  0
 36 98  1  0  0  0  0
 36 99  1  0  0  0  0
 37100  1  0  0  0  0
 37101  1  0  0  0  0
 38 37  1  0  0  0  0
 38 40  1  0  0  0  0
 38 39  1  0  0  0  0
 38102  1  1  0  0  0
 39103  1  0  0  0  0
 39104  1  0  0  0  0
 39105  1  0  0  0  0
 40 41  2  0  0  0  0
 42 40  1  0  0  0  0
 42 43  1  0  0  0  0
 42106  1  6  0  0  0
 43107  1  0  0  0  0
 43108  1  0  0  0  0
 43109  1  0  0  0  0
 44 45  1  0  0  0  0
 45110  1  0  0  0  0
 45111  1  0  0  0  0
 45112  1  0  0  0  0
 46 47  1  0  0  0  0
 46 48  2  0  0  0  0
 47113  1  0  0  0  0
 47114  1  0  0  0  0
 48 49  1  0  0  0  0
 50 49  1  0  0  0  0
 50 51  1  0  0  0  0
 50 52  1  0  0  0  0
 50115  1  1  0  0  0
 51116  1  0  0  0  0
 51117  1  0  0  0  0
 51118  1  0  0  0  0
 52 53  2  0  0  0  0
 52 56  1  0  0  0  0
 53 54  1  0  0  0  0
 54 55  2  0  0  0  0
 55 56  1  0  0  0  0
 55 57  1  0  0  0  0
 57 58  2  0  0  0  0
 57 62  1  0  0  0  0
 58 59  1  0  0  0  0
 58119  1  0  0  0  0
 59 60  2  0  0  0  0
 59120  1  0  0  0  0
 60 61  1  0  0  0  0
 60121  1  0  0  0  0
 61 62  2  0  0  0  0
 61122  1  0  0  0  0
M  END
>  <DRUGBANK_ID>
DB16246

>  <COMMON_NAME>
Nafithromycin

>  <CAS_NUMBER>
1691240-78-4

>  <UNII>
75F74Y2R70

>  <SYNONYMS>
Nafithromycin

$$$$
