
 OpenBabel10282417143D

 21 20  0  0  0  0  0  0  0  0999 V2000
    1.1208   -0.0861   -0.0485 C   0  0  0  0  0  0  0  0  0  0  0  0
    0.2902    0.9283    0.7113 C   0  0  0  0  0  0  0  0  0  0  0  0
   -0.6443    1.7704   -0.1749 C   0  0  0  0  0  0  0  0  0  0  0  0
   -1.7408    0.9646   -0.8942 C   0  0  0  0  0  0  0  0  0  0  0  0
   -2.6320    0.1969    0.0543 C   0  0  0  0  0  0  0  0  0  0  0  0
    2.3423   -0.0344   -0.0882 O   0  0  0  0  0  0  0  0  0  0  0  0
    0.4525   -1.0665   -0.6902 O   0  0  0  0  0  0  0  0  0  0  0  0
   -1.9677   -0.7171    0.7909 O   0  0  0  0  0  0  0  0  0  0  0  0
   -3.8363    0.3441    0.1993 O   0  0  0  0  0  0  0  0  0  0  0  0
   -1.2763    2.7818    0.6289 O   0  0  0  0  0  0  0  0  0  0  0  0
    0.2063    2.5426   -1.1982 C   0  0  0  0  0  0  0  0  0  0  0  0
   -0.2209    0.4580    1.5549 H   0  0  0  0  0  0  0  0  0  0  0  0
    0.9931    1.6072    1.2152 H   0  0  0  0  0  0  0  0  0  0  0  0
   -2.3893    1.6368   -1.4666 H   0  0  0  0  0  0  0  0  0  0  0  0
   -1.3198    0.2767   -1.6332 H   0  0  0  0  0  0  0  0  0  0  0  0
   -0.5009   -1.1575   -0.4962 H   0  0  0  0  0  0  0  0  0  0  0  0
   -2.6034   -1.0162    1.4854 H   0  0  0  0  0  0  0  0  0  0  0  0
   -1.8787    2.3748    1.2756 H   0  0  0  0  0  0  0  0  0  0  0  0
    0.9180    3.2057   -0.6891 H   0  0  0  0  0  0  0  0  0  0  0  0
    0.7735    1.8691   -1.8479 H   0  0  0  0  0  0  0  0  0  0  0  0
   -0.4138    3.1861   -1.8313 H   0  0  0  0  0  0  0  0  0  0  0  0
  2  1  1  0  0  0  0
  2 12  1  0  0  0  0
  2 13  1  0  0  0  0
  3  2  1  0  0  0  0
  3 10  1  0  0  0  0
  3 11  1  0  0  0  0
  4  3  1  0  0  0  0
  4 14  1  0  0  0  0
  4 15  1  0  0  0  0
  5  4  1  0  0  0  0
  6  1  2  0  0  0  0
  7  1  1  0  0  0  0
  7 16  1  0  0  0  0
  8  5  1  0  0  0  0
  8 17  1  0  0  0  0
  9  5  2  0  0  0  0
 10 18  1  0  0  0  0
 11 19  1  0  0  0  0
 11 20  1  0  0  0  0
 11 21  1  0  0  0  0
M  END
>  <DRUGBANK_ID>
DB04377

>  <SECONDARY_ACCESSION_NUMBERS>
EXPT02109

>  <COMMON_NAME>
Meglutol

>  <CAS_NUMBER>
503-49-1

>  <UNII>
CLA99KCD53

>  <SYNONYMS>
3-hydroxy-3-methylglutaric acid; Dicrotalic acid; Meglutol

$$$$
