PVC
 OpenBabel10282417173D

 70 69  0  0  0  0  0  0  0  0999 V2000
    2.4171    5.4028   -0.7993 C   0  0  0  0  0  0  0  0  0  0  0  0
    3.0909    4.5695   -1.3856 O   0  0  0  0  0  0  0  0  0  0  0  0
    1.8920    6.5072   -1.6674 C   0  0  0  0  0  0  0  0  0  0  0  0
    0.4119    6.8150   -1.5059 C   0  0  0  0  0  0  0  0  0  0  0  0
    0.1002    7.2513   -0.0812 C   0  0  0  0  0  0  0  0  0  0  0  0
    1.1040    8.3309    0.3448 C   0  0  0  0  0  0  0  0  0  0  0  0
    0.9425    9.5499   -0.5686 C   0  0  0  0  0  0  0  0  0  0  0  0
   -0.4866   10.0779   -0.4396 C   0  0  0  0  0  0  0  0  0  0  0  0
   -0.7530   10.4483    1.0220 C   0  0  0  0  0  0  0  0  0  0  0  0
    0.2422   11.5278    1.4570 C   0  0  0  0  0  0  0  0  0  0  0  0
    0.0723   12.7606    0.5646 C   0  0  0  0  0  0  0  0  0  0  0  0
   -1.3582   13.2916    0.6949 C   0  0  0  0  0  0  0  0  0  0  0  0
   -1.6350   13.6713    2.1524 C   0  0  0  0  0  0  0  0  0  0  0  0
   -0.6531   14.7571    2.6063 C   0  0  0  0  0  0  0  0  0  0  0  0
    1.9446    4.2398    1.4188 C   0  0  0  0  0  0  0  0  0  0  0  0
    1.0512    3.0422    1.0328 C   0  0  1  0  0  0  0  0  0  0  0  0
    1.3309    2.4343   -0.3442 C   0  0  2  0  0  0  0  0  0  0  0  0
    2.8328    2.1348   -0.5654 C   0  0  0  0  0  0  0  0  0  0  0  0
    3.3883    1.1589   -1.2796 C   0  0  0  0  0  0  0  0  0  0  0  0
    2.6366    0.1115   -2.0070 C   0  0  0  0  0  0  0  0  0  0  0  0
    4.7929    1.0931   -1.2634 O   0  0  0  0  0  0  0  0  0  0  0  0
    3.7577    2.8929    0.1795 O   0  0  0  0  0  0  0  0  0  0  0  0
    0.6639    3.1534   -1.3871 O   0  0  0  0  0  0  0  0  0  0  0  0
    1.1876    1.9844    2.0085 O   0  0  0  0  0  0  0  0  0  0  0  0
    1.9579    5.3670    0.4785 O   0  0  0  0  0  0  0  0  0  0  0  0
    3.1768   -0.8175   -2.5503 O   0  0  0  0  0  0  0  0  0  0  0  0
    1.3048    0.2658   -1.9603 O   0  0  0  0  0  0  0  0  0  0  0  0
   -0.8124   16.0200    1.7525 C   0  0  0  0  0  0  0  0  0  0  0  0
   -2.2350   16.5733    1.8440 C   0  0  0  0  0  0  0  0  0  0  0  0
   -2.5694   16.9340    3.2822 C   0  0  0  0  0  0  0  0  0  0  0  0
    0.0012    3.3636    1.0666 H   0  0  0  0  0  0  0  0  0  0  0  0
    0.7794    1.4983   -0.3231 H   0  0  0  0  0  0  0  0  0  0  0  0
    2.5618    7.3637   -1.5614 H   0  0  0  0  0  0  0  0  0  0  0  0
    2.0198    6.1769   -2.7060 H   0  0  0  0  0  0  0  0  0  0  0  0
    0.1570    7.6109   -2.2190 H   0  0  0  0  0  0  0  0  0  0  0  0
   -0.2218    5.9706   -1.7932 H   0  0  0  0  0  0  0  0  0  0  0  0
   -0.9388    7.5806   -0.0109 H   0  0  0  0  0  0  0  0  0  0  0  0
    0.1116    6.4122    0.6129 H   0  0  0  0  0  0  0  0  0  0  0  0
    0.9693    8.5656    1.4027 H   0  0  0  0  0  0  0  0  0  0  0  0
    2.1438    7.9930    0.3139 H   0  0  0  0  0  0  0  0  0  0  0  0
    1.6954   10.3025   -0.3172 H   0  0  0  0  0  0  0  0  0  0  0  0
    1.1580    9.3252   -1.6173 H   0  0  0  0  0  0  0  0  0  0  0  0
   -0.6350   10.9170   -1.1233 H   0  0  0  0  0  0  0  0  0  0  0  0
   -1.2315    9.3551   -0.7814 H   0  0  0  0  0  0  0  0  0  0  0  0
   -1.7931   10.7610    1.1399 H   0  0  0  0  0  0  0  0  0  0  0  0
   -0.6832    9.5891    1.6946 H   0  0  0  0  0  0  0  0  0  0  0  0
    0.1021   11.7540    2.5170 H   0  0  0  0  0  0  0  0  0  0  0  0
    1.2794   11.1829    1.4171 H   0  0  0  0  0  0  0  0  0  0  0  0
    0.8213   13.5121    0.8251 H   0  0  0  0  0  0  0  0  0  0  0  0
    0.2936   12.5485   -0.4853 H   0  0  0  0  0  0  0  0  0  0  0  0
   -1.5043   14.1327    0.0127 H   0  0  0  0  0  0  0  0  0  0  0  0
   -2.1017   12.5634    0.3560 H   0  0  0  0  0  0  0  0  0  0  0  0
   -2.6767   13.9834    2.2610 H   0  0  0  0  0  0  0  0  0  0  0  0
   -1.5627   12.8080    2.8217 H   0  0  0  0  0  0  0  0  0  0  0  0
   -0.8000   14.9666    3.6683 H   0  0  0  0  0  0  0  0  0  0  0  0
    0.3847   14.4110    2.5579 H   0  0  0  0  0  0  0  0  0  0  0  0
    2.9534    3.9614    1.7292 H   0  0  0  0  0  0  0  0  0  0  0  0
    1.5530    4.6137    2.3761 H   0  0  0  0  0  0  0  0  0  0  0  0
    5.0368    0.3126   -1.7948 H   0  0  0  0  0  0  0  0  0  0  0  0
    4.6258    2.8313   -0.2733 H   0  0  0  0  0  0  0  0  0  0  0  0
    1.0857    4.0084   -1.5022 H   0  0  0  0  0  0  0  0  0  0  0  0
    2.0344    1.5361    1.8139 H   0  0  0  0  0  0  0  0  0  0  0  0
    0.8657   -0.4701   -2.4185 H   0  0  0  0  0  0  0  0  0  0  0  0
   -0.0871   16.7736    2.0729 H   0  0  0  0  0  0  0  0  0  0  0  0
   -0.5673   15.8171    0.7026 H   0  0  0  0  0  0  0  0  0  0  0  0
   -2.3311   17.4503    1.1984 H   0  0  0  0  0  0  0  0  0  0  0  0
   -2.9678   15.8508    1.4650 H   0  0  0  0  0  0  0  0  0  0  0  0
   -1.8605   17.6814    3.6499 H   0  0  0  0  0  0  0  0  0  0  0  0
   -3.5835   17.3267    3.3575 H   0  0  0  0  0  0  0  0  0  0  0  0
   -2.5178   16.0662    3.9479 H   0  0  0  0  0  0  0  0  0  0  0  0
  1  2  2  0  0  0  0
  1  3  1  0  0  0  0
  1 25  1  0  0  0  0
  3  4  1  0  0  0  0
  3 33  1  0  0  0  0
  3 34  1  0  0  0  0
  4  5  1  0  0  0  0
  4 35  1  0  0  0  0
  4 36  1  0  0  0  0
  5  6  1  0  0  0  0
  5 37  1  0  0  0  0
  5 38  1  0  0  0  0
  6  7  1  0  0  0  0
  6 39  1  0  0  0  0
  6 40  1  0  0  0  0
  7  8  1  0  0  0  0
  7 41  1  0  0  0  0
  7 42  1  0  0  0  0
  8  9  1  0  0  0  0
  8 43  1  0  0  0  0
  8 44  1  0  0  0  0
  9 10  1  0  0  0  0
  9 45  1  0  0  0  0
  9 46  1  0  0  0  0
 10 11  1  0  0  0  0
 10 47  1  0  0  0  0
 10 48  1  0  0  0  0
 11 12  1  0  0  0  0
 11 49  1  0  0  0  0
 11 50  1  0  0  0  0
 12 13  1  0  0  0  0
 12 51  1  0  0  0  0
 12 52  1  0  0  0  0
 13 14  1  0  0  0  0
 13 53  1  0  0  0  0
 13 54  1  0  0  0  0
 14 28  1  0  0  0  0
 14 55  1  0  0  0  0
 14 56  1  0  0  0  0
 15 16  1  0  0  0  0
 15 25  1  0  0  0  0
 15 57  1  0  0  0  0
 15 58  1  0  0  0  0
 16 24  1  0  0  0  0
 16 31  1  1  0  0  0
 17 23  1  0  0  0  0
 17 32  1  1  0  0  0
 17 18  1  0  0  0  0
 17 16  1  0  0  0  0
 18 19  2  0  0  0  0
 18 22  1  0  0  0  0
 19 20  1  0  0  0  0
 19 21  1  0  0  0  0
 20 26  2  0  0  0  0
 20 27  1  0  0  0  0
 21 59  1  0  0  0  0
 22 60  1  0  0  0  0
 23 61  1  0  0  0  0
 24 62  1  0  0  0  0
 27 63  1  0  0  0  0
 28 29  1  0  0  0  0
 28 64  1  0  0  0  0
 28 65  1  0  0  0  0
 29 30  1  0  0  0  0
 29 66  1  0  0  0  0
 29 67  1  0  0  0  0
 30 68  1  0  0  0  0
 30 69  1  0  0  0  0
 30 70  1  0  0  0  0
M  END
>  <DRUGBANK_ID>
DB08438

>  <COMMON_NAME>
(2E,4R,5S)-2,3,4,5-TETRAHYDROXY-6-(PALMITOYLOXY)HEX-2-ENOIC ACID

$$$$
