
 OpenBabel10282417183D

  8  7  0  0  0  0  0  0  0  0999 V2000
    0.9608   -0.0726    0.0601 C   0  0  0  0  0  0  0  0  0  0  0  0
    2.3048   -0.1084    0.1120 N   0  0  0  0  0  0  0  0  0  0  0  0
    0.3501    0.5266   -0.8116 O   0  0  0  0  0  0  0  0  0  0  0  0
    0.3434   -0.7499    1.0452 N   0  0  0  0  0  0  0  0  0  0  0  0
    2.8256   -0.5959    0.8213 H   0  0  0  0  0  0  0  0  0  0  0  0
    2.8056    0.3891   -0.6116 H   0  0  0  0  0  0  0  0  0  0  0  0
   -0.6675   -0.7468    1.0408 H   0  0  0  0  0  0  0  0  0  0  0  0
    0.8284   -1.2491    1.7715 H   0  0  0  0  0  0  0  0  0  0  0  0
  2  1  1  0  0  0  0
  2  5  1  0  0  0  0
  2  6  1  0  0  0  0
  3  1  2  0  0  0  0
  4  1  1  0  0  0  0
  4  7  1  0  0  0  0
  4  8  1  0  0  0  0
M  ISO  1   1  13
M  END
>  <DRUGBANK_ID>
DB09510

>  <COMMON_NAME>
Urea C-13

>  <CAS_NUMBER>
58069-82-2

>  <UNII>
W6KX9E6D8X

>  <SYNONYMS>
(13C)urea; 13C-urea; Carbon 13 urea; Carbon-13 urea; Urea (13C); Urea 13 C; Urea C 13; Urea-13C; Urea, C-13

$$$$
