
 OpenBabel10282417213D

 37 39  0  0  0  0  0  0  0  0999 V2000
    1.6966    1.2204   -0.0048 C   0  0  0  0  0  0  0  0  0  0  0  0
    1.7131   -1.1999   -0.0044 C   0  0  0  0  0  0  0  0  0  0  0  0
    0.3020    1.2102   -0.0144 C   0  0  0  0  0  0  0  0  0  0  0  0
    0.3174   -1.2100   -0.0188 C   0  0  0  0  0  0  0  0  0  0  0  0
    3.4899   -0.5515   -3.0041 C   0  0  0  0  0  0  0  0  0  0  0  0
    4.5136   -2.6031   -2.1946 C   0  0  0  0  0  0  0  0  0  0  0  0
    2.7973   -1.2756   -3.9766 C   0  0  0  0  0  0  0  0  0  0  0  0
    3.7652   -3.3367   -3.1315 C   0  0  0  0  0  0  0  0  0  0  0  0
    4.6802    0.5849    0.9955 C   0  0  0  0  0  0  0  0  0  0  0  0
    2.4094    0.0165   -0.0075 C   0  0  0  0  0  0  0  0  0  0  0  0
   -0.3812   -0.0045   -0.0184 C   0  0  0  0  0  0  0  0  0  0  0  0
    4.3117   -1.2203   -2.0872 C   0  0  0  0  0  0  0  0  0  0  0  0
    2.9149   -2.6689   -4.0229 C   0  0  0  0  0  0  0  0  0  0  0  0
    3.8662    0.0486    0.0231 C   0  0  0  0  0  0  0  0  0  0  0  0
    6.0037    0.2766    0.6061 C   0  0  0  0  0  0  0  0  0  0  0  0
    7.2388    0.6957    1.3607 C   0  0  0  0  0  0  0  0  0  0  0  0
   -2.1004   -0.0126   -0.0118 Cl  0  0  0  0  0  0  0  0  0  0  0  0
    8.0029   -0.3586    1.7439 F   0  0  0  0  0  0  0  0  0  0  0  0
    8.0299    1.5323    0.6392 F   0  0  0  0  0  0  0  0  0  0  0  0
    6.9195    1.3710    2.5033 F   0  0  0  0  0  0  0  0  0  0  0  0
    3.1312   -4.3697   -6.1346 N   0  0  0  0  0  0  0  0  0  0  0  0
    6.0159   -0.4747   -0.5188 N   0  0  0  0  0  0  0  0  0  0  0  0
    4.7163   -0.5427   -0.9049 N   0  0  0  0  0  0  0  0  0  0  0  0
    1.1883   -4.5824   -4.5337 O   0  0  0  0  0  0  0  0  0  0  0  0
    1.3560   -2.6318   -6.1332 O   0  0  0  0  0  0  0  0  0  0  0  0
    1.9611   -3.5714   -5.2212 S   0  0  0  0  0  0  0  0  0  0  0  0
    2.2236    2.1720   -0.0005 H   0  0  0  0  0  0  0  0  0  0  0  0
    2.2467   -2.1483    0.0145 H   0  0  0  0  0  0  0  0  0  0  0  0
   -0.2419    2.1505   -0.0184 H   0  0  0  0  0  0  0  0  0  0  0  0
   -0.2146   -2.1578   -0.0274 H   0  0  0  0  0  0  0  0  0  0  0  0
    3.3792    0.5304   -2.9649 H   0  0  0  0  0  0  0  0  0  0  0  0
    5.1779   -3.1224   -1.5068 H   0  0  0  0  0  0  0  0  0  0  0  0
    2.1371   -0.7483   -4.6624 H   0  0  0  0  0  0  0  0  0  0  0  0
    3.8174   -4.4245   -3.1348 H   0  0  0  0  0  0  0  0  0  0  0  0
    4.3611    1.1072    1.8899 H   0  0  0  0  0  0  0  0  0  0  0  0
    2.6544   -4.9764   -6.8077 H   0  0  0  0  0  0  0  0  0  0  0  0
    3.7370   -3.7089   -6.6220 H   0  0  0  0  0  0  0  0  0  0  0  0
  1 27  1  0  0  0  0
  2 28  1  0  0  0  0
  3  1  1  0  0  0  0
  3 29  1  0  0  0  0
  4  2  2  0  0  0  0
  4 30  1  0  0  0  0
  5 31  1  0  0  0  0
  6 32  1  0  0  0  0
  7  5  1  0  0  0  0
  7 33  1  0  0  0  0
  8  6  2  0  0  0  0
  8 34  1  0  0  0  0
  9 35  1  0  0  0  0
 10  1  2  0  0  0  0
 10  2  1  0  0  0  0
 11  3  2  0  0  0  0
 11  4  1  0  0  0  0
 12  5  2  0  0  0  0
 12  6  1  0  0  0  0
 13  7  2  0  0  0  0
 13  8  1  0  0  0  0
 14  9  2  0  0  0  0
 14 10  1  0  0  0  0
 15  9  1  0  0  0  0
 16 15  1  0  0  0  0
 17 11  1  0  0  0  0
 18 16  1  0  0  0  0
 19 16  1  0  0  0  0
 20 16  1  0  0  0  0
 21 36  1  0  0  0  0
 21 37  1  0  0  0  0
 22 15  2  0  0  0  0
 23 12  1  0  0  0  0
 23 14  1  0  0  0  0
 23 22  1  0  0  0  0
 26 13  1  0  0  0  0
 26 21  1  0  0  0  0
 26 24  2  0  0  0  0
 26 25  2  0  0  0  0
M  END
>  <DRUGBANK_ID>
DB14059

>  <COMMON_NAME>
SC-236

>  <CAS_NUMBER>
170569-86-5

>  <UNII>
9HGW1H8S2M

$$$$
