
 OpenBabel10282417163D

 43 44  0  0  0  0  0  0  0  0999 V2000
    1.4186   -0.2355    0.0880 C   0  0  0  0  0  0  0  0  0  0  0  0
    0.5234   -1.3175    0.0559 C   0  0  0  0  0  0  0  0  0  0  0  0
    0.9299    1.0762    0.0412 C   0  0  0  0  0  0  0  0  0  0  0  0
   -0.8535   -1.0900   -0.0058 C   0  0  0  0  0  0  0  0  0  0  0  0
   -0.4554    1.2936    0.0328 C   0  0  0  0  0  0  0  0  0  0  0  0
   -1.3428    0.2147   -0.0084 C   0  0  0  0  0  0  0  0  0  0  0  0
    3.1791   -0.5652    0.2484 S   0  0  0  0  0  0  0  0  0  0  0  0
    3.9544    0.0474   -1.1338 N   0  0  0  0  0  0  0  0  0  0  0  0
    3.6073    0.1955    1.3982 O   0  0  0  0  0  0  0  0  0  0  0  0
    3.3369   -2.0102    0.2160 O   0  0  0  0  0  0  0  0  0  0  0  0
    4.9954    1.1336   -0.9606 C   0  0  0  0  0  0  0  0  0  0  0  0
    6.4369    0.7774   -1.3557 C   0  0  0  0  0  0  0  0  0  0  0  0
    3.0564   -0.8678   -5.1857 C   0  0  0  0  0  0  0  0  0  0  0  0
    2.0447   -0.7416   -4.2277 C   0  0  0  0  0  0  0  0  0  0  0  0
    4.3729   -0.7671   -4.7438 C   0  0  0  0  0  0  0  0  0  0  0  0
    2.3295   -0.4927   -2.8955 C   0  0  0  0  0  0  0  0  0  0  0  0
    4.6322   -0.7001   -3.3795 C   0  0  0  0  0  0  0  0  0  0  0  0
    3.6336   -0.4278   -2.4493 C   0  0  0  0  0  0  0  0  0  0  0  0
    2.7455   -1.2093   -6.6414 C   0  0  0  0  0  0  0  0  0  0  0  0
    3.1712   -0.0838   -7.5825 C   0  0  0  0  0  0  0  0  0  0  0  0
    3.4572   -2.4545   -6.9260 O   0  0  0  0  0  0  0  0  0  0  0  0
    1.2446   -1.4006   -6.8855 C   0  0  0  0  0  0  0  0  0  0  0  0
    4.5180    0.1063   -7.5174 F   0  0  0  0  0  0  0  0  0  0  0  0
    2.8977   -0.3583   -8.8755 F   0  0  0  0  0  0  0  0  0  0  0  0
    2.5954    1.0994   -7.2801 F   0  0  0  0  0  0  0  0  0  0  0  0
    6.6289    0.7750   -2.6958 F   0  0  0  0  0  0  0  0  0  0  0  0
    7.3130    1.6950   -0.8849 F   0  0  0  0  0  0  0  0  0  0  0  0
    6.8098   -0.4283   -0.8747 F   0  0  0  0  0  0  0  0  0  0  0  0
    0.7442   -2.3886   -6.0928 F   0  0  0  0  0  0  0  0  0  0  0  0
    0.5344   -0.2813   -6.5986 F   0  0  0  0  0  0  0  0  0  0  0  0
    0.9458   -1.7444   -8.1534 F   0  0  0  0  0  0  0  0  0  0  0  0
    0.8897   -2.3422    0.0640 H   0  0  0  0  0  0  0  0  0  0  0  0
    1.6040    1.9271    0.0083 H   0  0  0  0  0  0  0  0  0  0  0  0
   -1.5442   -1.9305   -0.0302 H   0  0  0  0  0  0  0  0  0  0  0  0
   -0.8537    2.3058    0.0762 H   0  0  0  0  0  0  0  0  0  0  0  0
   -2.4172    0.3899   -0.0388 H   0  0  0  0  0  0  0  0  0  0  0  0
    4.6706    2.0222   -1.5137 H   0  0  0  0  0  0  0  0  0  0  0  0
    5.0454    1.4395    0.0873 H   0  0  0  0  0  0  0  0  0  0  0  0
    0.9866   -0.8187   -4.4626 H   0  0  0  0  0  0  0  0  0  0  0  0
    5.2228   -0.7847   -5.4247 H   0  0  0  0  0  0  0  0  0  0  0  0
    1.4697   -0.3716   -2.2617 H   0  0  0  0  0  0  0  0  0  0  0  0
    5.6482   -0.9121   -3.0752 H   0  0  0  0  0  0  0  0  0  0  0  0
    4.4142   -2.2852   -6.8620 H   0  0  0  0  0  0  0  0  0  0  0  0
  1  2  1  0  0  0  0
  1  3  2  0  0  0  0
  1  7  1  0  0  0  0
  2  4  2  0  0  0  0
  2 32  1  0  0  0  0
  3  5  1  0  0  0  0
  3 33  1  0  0  0  0
  4  6  1  0  0  0  0
  4 34  1  0  0  0  0
  5  6  2  0  0  0  0
  5 35  1  0  0  0  0
  6 36  1  0  0  0  0
  7  8  1  0  0  0  0
  7  9  2  0  0  0  0
  7 10  2  0  0  0  0
  8 11  1  0  0  0  0
  8 18  1  0  0  0  0
 11 12  1  0  0  0  0
 11 37  1  0  0  0  0
 11 38  1  0  0  0  0
 12 26  1  0  0  0  0
 12 27  1  0  0  0  0
 12 28  1  0  0  0  0
 13 14  1  0  0  0  0
 13 15  2  0  0  0  0
 13 19  1  0  0  0  0
 14 16  2  0  0  0  0
 14 39  1  0  0  0  0
 15 17  1  0  0  0  0
 15 40  1  0  0  0  0
 16 18  1  0  0  0  0
 16 41  1  0  0  0  0
 17 18  2  0  0  0  0
 17 42  1  0  0  0  0
 19 20  1  0  0  0  0
 19 21  1  0  0  0  0
 19 22  1  0  0  0  0
 20 23  1  0  0  0  0
 20 24  1  0  0  0  0
 20 25  1  0  0  0  0
 21 43  1  0  0  0  0
 22 29  1  0  0  0  0
 22 30  1  0  0  0  0
 22 31  1  0  0  0  0
M  END
>  <DRUGBANK_ID>
DB07080

>  <COMMON_NAME>
TO-901317

>  <CAS_NUMBER>
293754-55-9

>  <UNII>
A07663A39I

$$$$
