
 OpenBabel10282417213D

 45 47  0  0  0  0  0  0  0  0999 V2000
   -1.2591   -1.0505    0.2603 C   0  0  0  0  0  0  0  0  0  0  0  0
   -2.4013   -1.8620    0.1160 C   0  0  0  0  0  0  0  0  0  0  0  0
   -3.5884   -1.3591   -0.4132 C   0  0  0  0  0  0  0  0  0  0  0  0
   -3.6535   -0.0399   -0.8445 C   0  0  0  0  0  0  0  0  0  0  0  0
   -2.5650    0.8038   -0.6656 C   0  0  0  0  0  0  0  0  0  0  0  0
   -1.4116    0.3015   -0.0690 C   0  0  0  0  0  0  0  0  0  0  0  0
   -0.0587    1.3769    0.2267 S   0  0  0  0  0  0  0  0  0  0  0  0
    0.0365   -1.5947    0.5648 N   0  0  0  0  0  0  0  0  0  0  0  0
    2.4298   -1.4979   -0.2643 C   0  0  0  0  0  0  0  0  0  0  0  0
    1.2083   -0.9423    0.0796 C   0  0  0  0  0  0  0  0  0  0  0  0
    1.3204    0.4078   -0.1889 C   0  0  0  0  0  0  0  0  0  0  0  0
    2.4859    1.0433   -0.7436 C   0  0  0  0  0  0  0  0  0  0  0  0
    3.6374    0.3307   -1.0611 C   0  0  0  0  0  0  0  0  0  0  0  0
    3.5928   -0.9938   -0.8453 C   0  0  0  0  0  0  0  0  0  0  0  0
   -0.1150    2.4577   -0.7212 O   0  0  0  0  0  0  0  0  0  0  0  0
   -0.0007    1.6329    1.6689 O   0  0  0  0  0  0  0  0  0  0  0  0
   -0.0986   -2.7596    1.5681 C   0  0  0  0  0  0  0  0  0  0  0  0
    0.6085   -4.0870    1.2582 C   0  0  3  0  0  0  0  0  0  0  0  0
    2.0974   -3.9624    1.0469 C   0  0  0  0  0  0  0  0  0  0  0  0
    0.5200   -5.1897    2.2917 C   0  0  0  0  0  0  0  0  0  0  0  0
    2.8972   -3.2709    2.1415 N   0  0  0  0  0  0  0  0  0  0  0  0
    4.3108   -2.9904    1.8500 C   0  0  0  0  0  0  0  0  0  0  0  0
    2.4105   -2.0689    2.8526 C   0  0  0  0  0  0  0  0  0  0  0  0
   -2.4020   -2.9243    0.3424 H   0  0  0  0  0  0  0  0  0  0  0  0
   -4.4419   -2.0221   -0.5269 H   0  0  0  0  0  0  0  0  0  0  0  0
   -4.5553    0.3308   -1.3190 H   0  0  0  0  0  0  0  0  0  0  0  0
   -2.6024    1.8358   -1.0014 H   0  0  0  0  0  0  0  0  0  0  0  0
    2.8025   -2.3812    0.1191 H   0  0  0  0  0  0  0  0  0  0  0  0
    2.4956    2.1106   -0.9173 H   0  0  0  0  0  0  0  0  0  0  0  0
    4.5697    0.7572   -1.4022 H   0  0  0  0  0  0  0  0  0  0  0  0
    4.4473   -1.6679   -0.9409 H   0  0  0  0  0  0  0  0  0  0  0  0
    0.0307   -2.3926    2.5802 H   0  0  0  0  0  0  0  0  0  0  0  0
   -1.1422   -3.0628    1.7231 H   0  0  0  0  0  0  0  0  0  0  0  0
    0.1309   -4.4588    0.3335 H   0  0  0  0  0  0  0  0  0  0  0  0
    2.6114   -4.9033    0.8146 H   0  0  0  0  0  0  0  0  0  0  0  0
    2.0037   -3.6810   -0.0153 H   0  0  0  0  0  0  0  0  0  0  0  0
   -0.5036   -5.4696    2.5190 H   0  0  0  0  0  0  0  0  0  0  0  0
    1.0412   -6.0740    1.8912 H   0  0  0  0  0  0  0  0  0  0  0  0
    1.0456   -4.8959    3.2044 H   0  0  0  0  0  0  0  0  0  0  0  0
    4.4653   -2.0632    1.2898 H   0  0  0  0  0  0  0  0  0  0  0  0
    4.8503   -2.7964    2.7849 H   0  0  0  0  0  0  0  0  0  0  0  0
    4.8053   -3.8042    1.3241 H   0  0  0  0  0  0  0  0  0  0  0  0
    2.2948   -1.1725    2.2389 H   0  0  0  0  0  0  0  0  0  0  0  0
    1.5204   -2.2428    3.4435 H   0  0  0  0  0  0  0  0  0  0  0  0
    3.1085   -1.7482    3.6341 H   0  0  0  0  0  0  0  0  0  0  0  0
  1  2  2  0  0  0  0
  1  8  1  0  0  0  0
  2  3  1  0  0  0  0
  2 24  1  0  0  0  0
  3  4  2  0  0  0  0
  3 25  1  0  0  0  0
  4  5  1  0  0  0  0
  4 26  1  0  0  0  0
  5  6  2  0  0  0  0
  5 27  1  0  0  0  0
  6  1  1  0  0  0  0
  6  7  1  0  0  0  0
  7 11  1  0  0  0  0
  7 15  2  0  0  0  0
  7 16  2  0  0  0  0
  8 17  1  0  0  0  0
  9 10  2  0  0  0  0
  9 28  1  0  0  0  0
 10 11  1  0  0  0  0
 10  8  1  0  0  0  0
 11 12  2  0  0  0  0
 12 13  1  0  0  0  0
 12 29  1  0  0  0  0
 13 14  2  0  0  0  0
 13 30  1  0  0  0  0
 14  9  1  0  0  0  0
 14 31  1  0  0  0  0
 17 18  1  0  0  0  0
 17 32  1  0  0  0  0
 17 33  1  0  0  0  0
 18 19  1  0  0  0  0
 18 20  1  0  0  0  0
 18 34  1  0  0  0  0
 19 21  1  0  0  0  0
 19 35  1  0  0  0  0
 19 36  1  0  0  0  0
 20 37  1  0  0  0  0
 20 38  1  0  0  0  0
 20 39  1  0  0  0  0
 21 22  1  0  0  0  0
 21 23  1  0  0  0  0
 22 40  1  0  0  0  0
 22 41  1  0  0  0  0
 22 42  1  0  0  0  0
 23 43  1  0  0  0  0
 23 44  1  0  0  0  0
 23 45  1  0  0  0  0
M  END
>  <DRUGBANK_ID>
DB13820

>  <COMMON_NAME>
Oxomemazine

>  <CAS_NUMBER>
3689-50-7

>  <UNII>
305MB38V1C

>  <SYNONYMS>
Oxomemazine

$$$$
