
 OpenBabel10282417143D

 42 42  0  0  0  0  0  0  0  0999 V2000
    0.1447    8.7776    6.0386 C   0  0  0  0  0  0  0  0  0  0  0  0
    0.5970    8.0511    7.3076 C   0  0  0  0  0  0  0  0  0  0  0  0
    0.7537    8.8143    8.4357 N   0  0  0  0  0  0  0  0  0  0  0  0
    0.5527   10.1539    8.5019 C   0  0  0  0  0  0  0  0  0  0  0  0
    0.1622   10.7451    7.3465 N   0  0  0  0  0  0  0  0  0  0  0  0
   -0.0389   10.1084    6.1517 C   0  0  0  0  0  0  0  0  0  0  0  0
   -0.4611   11.0809    5.0990 C   0  0  0  0  0  0  0  0  0  0  0  0
    0.7075   10.8089    9.5259 O   0  0  0  0  0  0  0  0  0  0  0  0
    0.8186    6.8431    7.3473 O   0  0  0  0  0  0  0  0  0  0  0  0
   -0.0132    8.0125    4.8003 C   0  0  0  0  0  0  0  0  0  0  0  0
   -0.4545    8.4377    3.6007 C   0  0  0  0  0  0  0  0  0  0  0  0
   -0.4806    7.7108    2.3471 C   0  0  0  0  0  0  0  0  0  0  0  0
   -1.1289    8.2813    1.2726 N   0  0  0  0  0  0  0  0  0  0  0  0
   -1.3715    7.4666    0.0627 C   0  0  2  0  0  0  0  0  0  0  0  0
   -0.4871    6.1884   -0.0090 C   0  0  0  0  0  0  0  0  0  0  0  0
   -0.9232    4.5703    0.7161 S   0  3  1  0  0  0  0  0  0  0  0  0
    0.3571    3.6662    0.6033 O   0  5  0  0  0  0  0  0  0  0  0  0
   -1.4523    4.6670    2.4446 C   0  0  0  0  0  0  0  0  0  0  0  0
   -0.4733    4.6677    3.9863 S   0  0  0  0  0  0  0  0  0  0  0  0
    1.2756    4.6025    3.4763 C   0  0  0  0  0  0  0  0  0  0  0  0
   -1.0425    8.3249   -1.2017 C   0  0  0  0  0  0  0  0  0  0  0  0
   -1.4532    7.6833   -2.4061 O   0  0  0  0  0  0  0  0  0  0  0  0
    0.1593    6.7124    2.2797 O   0  0  0  0  0  0  0  0  0  0  0  0
    1.0482    8.3532    9.2831 H   0  0  0  0  0  0  0  0  0  0  0  0
    0.0173   11.7457    7.4022 H   0  0  0  0  0  0  0  0  0  0  0  0
   -1.4322   11.5143    5.3383 H   0  0  0  0  0  0  0  0  0  0  0  0
    0.3228   11.8096    4.8990 H   0  0  0  0  0  0  0  0  0  0  0  0
   -0.6272   10.7115    4.1241 H   0  0  0  0  0  0  0  0  0  0  0  0
    0.2998    6.9785    4.9363 H   0  0  0  0  0  0  0  0  0  0  0  0
   -0.7912    9.3876    3.3130 H   0  0  0  0  0  0  0  0  0  0  0  0
   -1.3444    9.2761    1.2561 H   0  0  0  0  0  0  0  0  0  0  0  0
   -2.4480    7.2469    0.0469 H   0  0  0  0  0  0  0  0  0  0  0  0
   -0.3609    5.9052   -1.0542 H   0  0  0  0  0  0  0  0  0  0  0  0
    0.5393    6.4555    0.2592 H   0  0  0  0  0  0  0  0  0  0  0  0
   -2.2995    5.3588    2.5239 H   0  0  0  0  0  0  0  0  0  0  0  0
   -1.8961    3.6777    2.5967 H   0  0  0  0  0  0  0  0  0  0  0  0
    1.5936    3.6122    3.7868 H   0  0  0  0  0  0  0  0  0  0  0  0
    1.5033    4.7396    2.4193 H   0  0  0  0  0  0  0  0  0  0  0  0
    1.8941    5.3311    4.0247 H   0  0  0  0  0  0  0  0  0  0  0  0
   -1.5506    9.2970   -1.1813 H   0  0  0  0  0  0  0  0  0  0  0  0
    0.0331    8.5367   -1.2560 H   0  0  0  0  0  0  0  0  0  0  0  0
   -0.9087    6.8902   -2.5540 H   0  0  0  0  0  0  0  0  0  0  0  0
  2  1  1  0  0  0  0
  3  2  1  0  0  0  0
  3 24  1  0  0  0  0
  4  3  1  0  0  0  0
  4  5  1  0  0  0  0
  5  6  1  0  0  0  0
  5 25  1  0  0  0  0
  6  1  2  0  0  0  0
  7  6  1  0  0  0  0
  7 26  1  0  0  0  0
  7 27  1  0  0  0  0
  7 28  1  0  0  0  0
  8  4  2  0  0  0  0
  9  2  2  0  0  0  0
 10  1  1  0  0  0  0
 10 29  1  0  0  0  0
 11 10  2  0  0  0  0
 11 30  1  0  0  0  0
 12 11  1  0  0  0  0
 13 12  1  0  0  0  0
 13 31  1  0  0  0  0
 14 21  1  0  0  0  0
 14 32  1  6  0  0  0
 14 15  1  0  0  0  0
 14 13  1  0  0  0  0
 15 33  1  0  0  0  0
 15 34  1  0  0  0  0
 16 15  1  0  0  0  0
 16 17  1  1  0  0  0
 18 16  1  0  0  0  0
 18 35  1  0  0  0  0
 18 36  1  0  0  0  0
 19 18  1  0  0  0  0
 20 19  1  0  0  0  0
 20 37  1  0  0  0  0
 20 38  1  0  0  0  0
 20 39  1  0  0  0  0
 21 40  1  0  0  0  0
 21 41  1  0  0  0  0
 22 21  1  0  0  0  0
 22 42  1  0  0  0  0
 23 12  2  0  0  0  0
M  CHG  2  16   1  17  -1
M  END
>  <DRUGBANK_ID>
DB04222

>  <SECONDARY_ACCESSION_NUMBERS>
EXPT02949

>  <COMMON_NAME>
Sparsomycin

>  <CAS_NUMBER>
1404-64-4

>  <UNII>
6C940P63E7

>  <SYNONYMS>
Esparsomicina; Sparsomycin; Sparsomycine; Sparsomycinum

$$$$
