YPA
 OpenBabel10282417143D

 55 58  0  0  0  0  0  0  0  0999 V2000
    3.1281    1.0817   -0.1449 C   0  0  0  0  0  0  0  0  0  0  0  0
    1.8078    1.4134   -0.5170 C   0  0  0  0  0  0  0  0  0  0  0  0
    0.8191    0.4148   -0.8058 C   0  0  0  0  0  0  0  0  0  0  0  0
    1.1981   -0.9211   -0.5594 C   0  0  0  0  0  0  0  0  0  0  0  0
    2.5210   -1.2473   -0.1408 C   0  0  0  0  0  0  0  0  0  0  0  0
    3.4925   -0.2449   -0.0149 C   0  0  0  0  0  0  0  0  0  0  0  0
   -0.6226    0.4167   -1.1504 C   0  0  0  0  0  0  0  0  0  0  0  0
   -1.0501   -0.9282   -1.1622 C   0  0  0  0  0  0  0  0  0  0  0  0
    0.0581   -1.7289   -0.7358 N   0  0  0  0  0  0  0  0  0  0  0  0
   -1.6689    1.4231   -1.1341 C   0  0  0  0  0  0  0  0  0  0  0  0
   -3.0426    1.0976   -0.9827 C   0  0  0  0  0  0  0  0  0  0  0  0
   -3.4163   -0.2259   -0.9356 C   0  0  0  0  0  0  0  0  0  0  0  0
   -2.4556   -1.2373   -1.1328 C   0  0  0  0  0  0  0  0  0  0  0  0
   -0.0721   -3.1176   -0.1856 C   0  0  0  0  0  0  0  0  0  0  0  0
   -0.7545   -3.5562    1.2595 C   0  0  0  0  0  0  0  0  0  0  0  0
   -2.1886   -3.2599    1.6130 O   0  0  0  0  0  0  0  0  0  0  0  0
   -2.4258   -1.9822    2.0910 C   0  0  0  0  0  0  0  0  0  0  0  0
   -1.5011   -1.0748    1.7498 C   0  0  0  0  0  0  0  0  0  0  0  0
   -1.5716    0.2858    1.7663 C   0  0  0  0  0  0  0  0  0  0  0  0
   -2.6622    0.9578    2.1780 C   0  0  0  0  0  0  0  0  0  0  0  0
   -3.7075    0.0961    2.5419 C   0  0  0  0  0  0  0  0  0  0  0  0
   -3.5788   -1.3719    2.5421 C   0  0  0  0  0  0  0  0  0  0  0  0
   -2.5862    2.4583    1.9637 C   0  0  0  0  0  0  0  0  0  0  0  0
   -1.2221    3.1405    2.3755 C   0  0  1  0  0  0  0  0  0  0  0  0
    0.2167    2.6676    2.0056 C   0  0  0  0  0  0  0  0  0  0  0  0
    1.0529    3.6349    1.5890 O   0  0  0  0  0  0  0  0  0  0  0  0
    0.7089    1.5363    2.2260 O   0  0  0  0  0  0  0  0  0  0  0  0
   -1.2323    4.5834    2.2389 O   0  0  0  0  0  0  0  0  0  0  0  0
   -1.5963    5.1789    0.9856 C   0  0  0  0  0  0  0  0  0  0  0  0
   -0.5832    5.0141   -0.1439 C   0  0  0  0  0  0  0  0  0  0  0  0
   -1.1860    2.9419    3.4524 H   0  0  0  0  0  0  0  0  0  0  0  0
    3.8653    1.8653    0.0379 H   0  0  0  0  0  0  0  0  0  0  0  0
    1.5638    2.4716   -0.5406 H   0  0  0  0  0  0  0  0  0  0  0  0
    2.8236   -2.2733    0.0470 H   0  0  0  0  0  0  0  0  0  0  0  0
    4.5344   -0.5060    0.1765 H   0  0  0  0  0  0  0  0  0  0  0  0
   -1.4178    2.4439   -0.8793 H   0  0  0  0  0  0  0  0  0  0  0  0
   -3.7777    1.8366   -0.6382 H   0  0  0  0  0  0  0  0  0  0  0  0
   -4.3942   -0.4776   -0.5056 H   0  0  0  0  0  0  0  0  0  0  0  0
   -2.7868   -2.2397   -0.8718 H   0  0  0  0  0  0  0  0  0  0  0  0
   -0.5663   -3.6645   -0.9856 H   0  0  0  0  0  0  0  0  0  0  0  0
    0.9627   -3.4902   -0.1215 H   0  0  0  0  0  0  0  0  0  0  0  0
   -0.6945   -4.6565    1.2661 H   0  0  0  0  0  0  0  0  0  0  0  0
   -0.1169   -3.2549    2.1084 H   0  0  0  0  0  0  0  0  0  0  0  0
   -0.8933   -1.4255    0.9880 H   0  0  0  0  0  0  0  0  0  0  0  0
   -0.8539    0.7700    1.1342 H   0  0  0  0  0  0  0  0  0  0  0  0
   -4.6797    0.5308    2.7420 H   0  0  0  0  0  0  0  0  0  0  0  0
   -4.4292   -1.9831    2.8134 H   0  0  0  0  0  0  0  0  0  0  0  0
   -2.8143    2.7521    0.9356 H   0  0  0  0  0  0  0  0  0  0  0  0
   -3.4058    2.9166    2.5249 H   0  0  0  0  0  0  0  0  0  0  0  0
    0.6348    4.4954    1.7949 H   0  0  0  0  0  0  0  0  0  0  0  0
   -2.5903    4.8564    0.6709 H   0  0  0  0  0  0  0  0  0  0  0  0
   -1.6662    6.2503    1.2005 H   0  0  0  0  0  0  0  0  0  0  0  0
   -0.3788    3.9663   -0.3456 H   0  0  0  0  0  0  0  0  0  0  0  0
   -0.9182    5.4684   -1.0777 H   0  0  0  0  0  0  0  0  0  0  0  0
    0.3776    5.4751    0.1090 H   0  0  0  0  0  0  0  0  0  0  0  0
  1  2  2  0  0  0  0
  1  6  1  0  0  0  0
  1 32  1  0  0  0  0
  2  3  1  0  0  0  0
  2 33  1  0  0  0  0
  3  4  2  0  0  0  0
  3  7  1  0  0  0  0
  4  5  1  0  0  0  0
  4  9  1  0  0  0  0
  5  6  2  0  0  0  0
  5 34  1  0  0  0  0
  6 35  1  0  0  0  0
  7  8  2  0  0  0  0
  7 10  1  0  0  0  0
  8  9  1  0  0  0  0
  8 13  1  0  0  0  0
  9 14  1  0  0  0  0
 10 11  2  0  0  0  0
 10 36  1  0  0  0  0
 11 12  1  0  0  0  0
 11 37  1  0  0  0  0
 12 13  2  0  0  0  0
 12 38  1  0  0  0  0
 13 39  1  0  0  0  0
 14 15  1  0  0  0  0
 14 40  1  0  0  0  0
 14 41  1  0  0  0  0
 15 16  1  0  0  0  0
 15 42  1  0  0  0  0
 15 43  1  0  0  0  0
 16 17  1  0  0  0  0
 17 18  2  0  0  0  0
 17 22  1  0  0  0  0
 18 19  1  0  0  0  0
 18 44  1  0  0  0  0
 19 20  2  0  0  0  0
 19 45  1  0  0  0  0
 20 21  1  0  0  0  0
 20 23  1  0  0  0  0
 21 22  2  0  0  0  0
 21 46  1  0  0  0  0
 22 47  1  0  0  0  0
 23 24  1  0  0  0  0
 23 48  1  0  0  0  0
 23 49  1  0  0  0  0
 24 25  1  0  0  0  0
 24 28  1  0  0  0  0
 24 31  1  1  0  0  0
 25 26  1  0  0  0  0
 25 27  2  0  0  0  0
 26 50  1  0  0  0  0
 28 29  1  0  0  0  0
 29 30  1  0  0  0  0
 29 51  1  0  0  0  0
 29 52  1  0  0  0  0
 30 53  1  0  0  0  0
 30 54  1  0  0  0  0
 30 55  1  0  0  0  0
M  END
>  <DRUGBANK_ID>
DB04270

>  <SECONDARY_ACCESSION_NUMBERS>
EXPT03276

>  <COMMON_NAME>
(S)-3-(4-(2-Carbazol-9-Yl-Ethoxy)-Phenyl)-2-Ethoxy-Propionic Acid

$$$$
