
 OpenBabel10282417243D

 20 19  0  0  0  0  0  0  0  0999 V2000
    0.9580   -0.0520    0.1779 C   0  0  0  0  0  0  0  0  0  0  0  0
    0.5713    0.5080   -1.1923 C   0  0  0  0  0  0  0  0  0  0  0  0
    1.1195   -0.3149   -2.3806 C   0  0  0  0  0  0  0  0  0  0  0  0
    0.5978   -1.7633   -2.2847 C   0  0  0  0  0  0  0  0  0  0  0  0
    0.5838    0.2815   -3.6998 C   0  0  0  0  0  0  0  0  0  0  0  0
    2.6543   -0.3419   -2.4938 C   0  0  0  0  0  0  0  0  0  0  0  0
    3.3618    0.4509   -1.6645 O   0  0  0  0  0  0  0  0  0  0  0  0
    3.2421   -1.0290   -3.3243 O   0  0  0  0  0  0  0  0  0  0  0  0
    0.5234   -1.0411    0.3400 H   0  0  0  0  0  0  0  0  0  0  0  0
    0.5980    0.6068    0.9714 H   0  0  0  0  0  0  0  0  0  0  0  0
    2.0378   -0.1584    0.3069 H   0  0  0  0  0  0  0  0  0  0  0  0
   -0.5258    0.5407   -1.2440 H   0  0  0  0  0  0  0  0  0  0  0  0
    0.9005    1.5521   -1.2747 H   0  0  0  0  0  0  0  0  0  0  0  0
   -0.4990   -1.7823   -2.2586 H   0  0  0  0  0  0  0  0  0  0  0  0
    0.9186   -2.3674   -3.1401 H   0  0  0  0  0  0  0  0  0  0  0  0
    0.9662   -2.2730   -1.3896 H   0  0  0  0  0  0  0  0  0  0  0  0
    0.9322    1.3090   -3.8482 H   0  0  0  0  0  0  0  0  0  0  0  0
    0.9211   -0.3040   -4.5648 H   0  0  0  0  0  0  0  0  0  0  0  0
   -0.5126    0.2868   -3.7215 H   0  0  0  0  0  0  0  0  0  0  0  0
    2.8794    1.0129   -1.0346 H   0  0  0  0  0  0  0  0  0  0  0  0
  1  2  1  0  0  0  0
  1  9  1  0  0  0  0
  1 10  1  0  0  0  0
  1 11  1  0  0  0  0
  2  3  1  0  0  0  0
  2 12  1  0  0  0  0
  2 13  1  0  0  0  0
  3  4  1  0  0  0  0
  3  5  1  0  0  0  0
  3  6  1  0  0  0  0
  4 14  1  0  0  0  0
  4 15  1  0  0  0  0
  4 16  1  0  0  0  0
  5 17  1  0  0  0  0
  5 18  1  0  0  0  0
  5 19  1  0  0  0  0
  6  7  1  0  0  0  0
  6  8  2  0  0  0  0
  7 20  1  0  0  0  0
M  END
>  <DRUGBANK_ID>
DB17706

>  <COMMON_NAME>
2,2-Dimethylbutyrate

>  <CAS_NUMBER>
595-37-9

>  <UNII>
AY606CN05O

>  <SYNONYMS>
2,2-dimethylbutanoic acid; 2,2-dimethylbutyric acid; Dimebutic acid

$$$$
