
 OpenBabel10282417223D

 43 45  0  0  0  0  0  0  0  0999 V2000
    0.5283   -0.1633   -0.2788 N   0  0  0  0  0  0  0  0  0  0  0  0
    0.3406   -0.6148   -1.8386 S   0  0  0  0  0  0  0  0  0  0  0  0
    0.9991   -1.9207   -1.9648 O   0  0  0  0  0  0  0  0  0  0  0  0
   -1.0672   -0.5412   -2.0406 O   0  0  0  0  0  0  0  0  0  0  0  0
    1.0842    0.5370   -2.8710 N   0  0  0  0  0  0  0  0  0  0  0  0
    2.4110    1.2268   -2.8966 C   0  0  0  0  0  0  0  0  0  0  0  0
    3.4118    1.0200   -1.9384 C   0  0  0  0  0  0  0  0  0  0  0  0
    3.4881   -0.3318   -1.1823 C   0  0  0  0  0  0  0  0  0  0  0  0
    3.7822   -1.4493   -1.9296 C   0  0  0  0  0  0  0  0  0  0  0  0
    4.0458   -2.6846   -1.2974 C   0  0  0  0  0  0  0  0  0  0  0  0
    4.1040   -2.8336    0.0944 C   0  0  0  0  0  0  0  0  0  0  0  0
    4.6143   -4.4153    0.9597 Br  0  0  0  0  0  0  0  0  0  0  0  0
    3.6924   -1.8131    0.8762 C   0  0  0  0  0  0  0  0  0  0  0  0
    3.2624   -0.6922    0.1952 C   0  0  0  0  0  0  0  0  0  0  0  0
    4.3877    2.1155   -1.9130 C   0  0  0  0  0  0  0  0  0  0  0  0
    5.2072    2.4167   -0.8347 O   0  0  0  0  0  0  0  0  0  0  0  0
    5.1351    1.5230    0.2524 C   0  0  0  0  0  0  0  0  0  0  0  0
    3.9050    1.7251    1.2305 C   0  0  0  0  0  0  0  0  0  0  0  0
    2.5086    1.6740    0.7823 O   0  0  0  0  0  0  0  0  0  0  0  0
    1.8303    2.7038    0.1967 C   0  0  0  0  0  0  0  0  0  0  0  0
    0.6498    2.3790   -0.4222 N   0  0  0  0  0  0  0  0  0  0  0  0
    0.1240    3.2134   -1.3801 C   0  0  0  0  0  0  0  0  0  0  0  0
    0.8060    4.3042   -1.7997 C   0  0  0  0  0  0  0  0  0  0  0  0
    0.3900    5.3119   -3.3259 Br  0  0  0  0  0  0  0  0  0  0  0  0
    2.0632    4.3074   -1.2433 C   0  0  0  0  0  0  0  0  0  0  0  0
    2.5185    3.7706   -0.0865 N   0  0  0  0  0  0  0  0  0  0  0  0
    4.4423    3.1868   -2.7942 N   0  0  0  0  0  0  0  0  0  0  0  0
    3.4497    3.2667   -3.6927 C   0  0  0  0  0  0  0  0  0  0  0  0
    2.4420    2.3252   -3.7881 N   0  0  0  0  0  0  0  0  0  0  0  0
    0.3694   -0.8421    0.4654 H   0  0  0  0  0  0  0  0  0  0  0  0
    1.3472    0.4060   -0.1561 H   0  0  0  0  0  0  0  0  0  0  0  0
    0.7727    0.3142   -3.8183 H   0  0  0  0  0  0  0  0  0  0  0  0
    3.6967   -1.3920   -3.0129 H   0  0  0  0  0  0  0  0  0  0  0  0
    4.1796   -3.5487   -1.9275 H   0  0  0  0  0  0  0  0  0  0  0  0
    3.6044   -1.8418    1.9659 H   0  0  0  0  0  0  0  0  0  0  0  0
    2.6536   -0.2011    0.9396 H   0  0  0  0  0  0  0  0  0  0  0  0
    5.3187    0.5356   -0.1849 H   0  0  0  0  0  0  0  0  0  0  0  0
    6.0452    1.5742    0.8690 H   0  0  0  0  0  0  0  0  0  0  0  0
    4.0325    0.8394    1.8858 H   0  0  0  0  0  0  0  0  0  0  0  0
    3.9830    2.5239    1.9539 H   0  0  0  0  0  0  0  0  0  0  0  0
   -0.8047    2.9263   -1.8717 H   0  0  0  0  0  0  0  0  0  0  0  0
    2.5542    3.6136   -1.9103 H   0  0  0  0  0  0  0  0  0  0  0  0
    3.2473    4.3067   -4.0539 H   0  0  0  0  0  0  0  0  0  0  0  0
  1  2  1  0  0  0  0
  1 30  1  0  0  0  0
  1 31  1  0  0  0  0
  2  3  2  0  0  0  0
  2  4  2  0  0  0  0
  2  5  1  0  0  0  0
  5  6  1  0  0  0  0
  5 32  1  0  0  0  0
  6  7  2  0  0  0  0
  6 29  1  0  0  0  0
  7  8  1  0  0  0  0
  7 15  1  0  0  0  0
  8  9  2  0  0  0  0
  8 14  1  0  0  0  0
  9 10  1  0  0  0  0
  9 33  1  0  0  0  0
 10 11  2  0  0  0  0
 10 34  1  0  0  0  0
 11 12  1  0  0  0  0
 11 13  1  0  0  0  0
 13 14  2  0  0  0  0
 13 35  1  0  0  0  0
 14 36  1  0  0  0  0
 15 16  1  0  0  0  0
 15 27  2  0  0  0  0
 16 17  1  0  0  0  0
 17 18  1  0  0  0  0
 17 37  1  0  0  0  0
 17 38  1  0  0  0  0
 18 19  1  0  0  0  0
 18 39  1  0  0  0  0
 18 40  1  0  0  0  0
 19 20  1  0  0  0  0
 20 21  2  0  0  0  0
 20 26  1  0  0  0  0
 21 22  1  0  0  0  0
 22 23  2  0  0  0  0
 22 41  1  0  0  0  0
 23 24  1  0  0  0  0
 23 25  1  0  0  0  0
 25 26  2  0  0  0  0
 25 42  1  0  0  0  0
 27 28  1  0  0  0  0
 28 29  2  0  0  0  0
 28 43  1  0  0  0  0
M  END
>  <DRUGBANK_ID>
DB15059

>  <COMMON_NAME>
Aprocitentan

>  <CAS_NUMBER>
1103522-45-7

>  <UNII>
MZI81HV01P

>  <SYNONYMS>
ACT-132577; Aprocitentan

$$$$
