
 OpenBabel10282417203D

 50 53  0  0  1  0  0  0  0  0999 V2000
    3.1591   -0.8027    0.8871 C   0  0  0  0  0  0  0  0  0  0  0  0
    2.6101   -0.9153    2.2966 C   0  0  0  0  0  0  0  0  0  0  0  0
    1.0840   -0.7103    2.3049 C   0  0  1  0  0  0  0  0  0  0  0  0
    0.3824   -1.6146    3.3433 C   0  0  0  0  0  0  0  0  0  0  0  0
   -0.4433   -0.8223    4.2760 N   0  0  2  0  0  0  0  0  0  0  0  0
   -1.4706   -0.1003    3.5045 C   0  0  0  0  0  0  0  0  0  0  0  0
   -0.8318    0.8826    2.5175 C   0  0  0  0  0  0  0  0  0  0  0  0
    0.7035    0.7648    2.5847 C   0  0  1  0  0  0  0  0  0  0  0  0
    1.1127    1.1325    4.0178 C   0  0  0  0  0  0  0  0  0  0  0  0
    0.4399    0.1506    4.9944 C   0  0  1  0  0  0  0  0  0  0  0  0
   -0.2968    0.9352    6.1231 C   0  0  1  0  0  0  0  0  0  0  0  0
   -0.9476   -0.0140    7.1116 C   0  0  0  0  0  0  0  0  0  0  0  0
   -2.3473   -0.1006    7.0755 C   0  0  0  0  0  0  0  0  0  0  0  0
   -2.9764   -1.0536    7.8461 C   0  0  0  0  0  0  0  0  0  0  0  0
   -2.3200   -1.8967    8.6628 N   0  0  0  0  0  0  0  0  0  0  0  0
   -0.9814   -1.8185    8.7149 C   0  0  0  0  0  0  0  0  0  0  0  0
   -0.2231   -0.8991    7.9515 C   0  0  0  0  0  0  0  0  0  0  0  0
    1.1902   -0.9479    8.0650 C   0  0  0  0  0  0  0  0  0  0  0  0
    1.8442   -1.8314    8.9150 C   0  0  0  0  0  0  0  0  0  0  0  0
    1.0829   -2.7089    9.6684 C   0  0  0  0  0  0  0  0  0  0  0  0
   -0.3103   -2.6944    9.5512 C   0  0  0  0  0  0  0  0  0  0  0  0
    3.2061   -1.7313    8.9092 O   0  0  0  0  0  0  0  0  0  0  0  0
    3.9004   -2.6217    9.7722 C   0  0  0  0  0  0  0  0  0  0  0  0
    0.5276    1.9147    6.7545 O   0  0  0  0  0  0  0  0  0  0  0  0
    2.7768   -1.6191    0.2672 H   0  0  0  0  0  0  0  0  0  0  0  0
    4.2505   -0.8631    0.9049 H   0  0  0  0  0  0  0  0  0  0  0  0
    2.8719    0.1486    0.4291 H   0  0  0  0  0  0  0  0  0  0  0  0
    2.8858   -1.8918    2.7082 H   0  0  0  0  0  0  0  0  0  0  0  0
    3.1268   -0.1723    2.9093 H   0  0  0  0  0  0  0  0  0  0  0  0
    0.6810   -0.9807    1.3186 H   0  0  0  0  0  0  0  0  0  0  0  0
   -0.2571   -2.3396    2.8199 H   0  0  0  0  0  0  0  0  0  0  0  0
    1.0940   -2.2283    3.9085 H   0  0  0  0  0  0  0  0  0  0  0  0
   -2.1174   -0.8140    2.9804 H   0  0  0  0  0  0  0  0  0  0  0  0
   -2.1514    0.4362    4.1728 H   0  0  0  0  0  0  0  0  0  0  0  0
   -1.1872    0.6696    1.5045 H   0  0  0  0  0  0  0  0  0  0  0  0
   -1.1376    1.9060    2.7676 H   0  0  0  0  0  0  0  0  0  0  0  0
    1.1703    1.4448    1.8661 H   0  0  0  0  0  0  0  0  0  0  0  0
    2.1975    1.0906    4.1609 H   0  0  0  0  0  0  0  0  0  0  0  0
    0.8309    2.1706    4.2227 H   0  0  0  0  0  0  0  0  0  0  0  0
    1.2478   -0.4359    5.4474 H   0  0  0  0  0  0  0  0  0  0  0  0
   -1.0763    1.5442    5.6526 H   0  0  0  0  0  0  0  0  0  0  0  0
   -2.9395    0.5286    6.4189 H   0  0  0  0  0  0  0  0  0  0  0  0
   -4.0546   -1.1734    7.8114 H   0  0  0  0  0  0  0  0  0  0  0  0
    1.8345   -0.3046    7.4757 H   0  0  0  0  0  0  0  0  0  0  0  0
    1.5328   -3.4205   10.3489 H   0  0  0  0  0  0  0  0  0  0  0  0
   -0.8949   -3.4005   10.1382 H   0  0  0  0  0  0  0  0  0  0  0  0
    3.6270   -2.4422   10.8171 H   0  0  0  0  0  0  0  0  0  0  0  0
    3.7156   -3.6620    9.4858 H   0  0  0  0  0  0  0  0  0  0  0  0
    4.9721   -2.4301    9.6682 H   0  0  0  0  0  0  0  0  0  0  0  0
    1.1938    1.4736    7.2973 H   0  0  0  0  0  0  0  0  0  0  0  0
  1  2  1  0  0  0  0
  1 25  1  0  0  0  0
  1 26  1  0  0  0  0
  1 27  1  0  0  0  0
  2 28  1  0  0  0  0
  2 29  1  0  0  0  0
  3  4  1  0  0  0  0
  3  8  1  0  0  0  0
  3 30  1  6  0  0  0
  3  2  1  0  0  0  0
  4 31  1  0  0  0  0
  4 32  1  0  0  0  0
  5  4  1  6  0  0  0
  5  6  1  0  0  0  0
  5 10  1  0  0  0  0
  6  7  1  0  0  0  0
  6 33  1  0  0  0  0
  6 34  1  0  0  0  0
  7 35  1  0  0  0  0
  7 36  1  0  0  0  0
  8  7  1  0  0  0  0
  8  9  1  0  0  0  0
  8 37  1  6  0  0  0
  9 10  1  0  0  0  0
  9 38  1  0  0  0  0
  9 39  1  0  0  0  0
 10 11  1  0  0  0  0
 10 40  1  1  0  0  0
 11 12  1  0  0  0  0
 11 24  1  0  0  0  0
 11 41  1  6  0  0  0
 12 13  1  0  0  0  0
 12 17  2  0  0  0  0
 13 14  2  0  0  0  0
 13 42  1  0  0  0  0
 14 15  1  0  0  0  0
 14 43  1  0  0  0  0
 15 16  2  0  0  0  0
 16 17  1  0  0  0  0
 16 21  1  0  0  0  0
 17 18  1  0  0  0  0
 18 19  2  0  0  0  0
 18 44  1  0  0  0  0
 19 20  1  0  0  0  0
 19 22  1  0  0  0  0
 20 21  2  0  0  0  0
 20 45  1  0  0  0  0
 21 46  1  0  0  0  0
 22 23  1  0  0  0  0
 23 47  1  0  0  0  0
 23 48  1  0  0  0  0
 23 49  1  0  0  0  0
 24 50  1  0  0  0  0
M  END
>  <DRUGBANK_ID>
DB13718

>  <COMMON_NAME>
Hydroquinine

>  <CAS_NUMBER>
522-66-7

>  <UNII>
31J3Q51T6L

$$$$
