
 OpenBabel10282417123D

 45 46  0  0  1  0  0  0  0  0999 V2000
    1.0820    0.1880    1.1208 C   0  0  1  0  0  0  0  0  0  0  0  0
   -0.2188    0.7933    0.5871 C   0  0  1  0  0  0  0  0  0  0  0  0
    1.4260   -1.0206    0.4298 O   0  0  0  0  0  0  0  0  0  0  0  0
   -1.3591   -0.2554    0.5236 C   0  0  2  0  0  0  0  0  0  0  0  0
    0.4291   -2.0534    0.5231 C   0  0  1  0  0  0  0  0  0  0  0  0
   -0.9117   -1.6125   -0.1181 C   0  0  2  0  0  0  0  0  0  0  0  0
    2.1326    1.1290    0.9325 O   0  0  0  0  0  0  0  0  0  0  0  0
   -0.6042    2.0876    1.0255 O   0  0  0  0  0  0  0  0  0  0  0  0
   -2.5973    0.2171   -0.0242 O   0  0  0  0  0  0  0  0  0  0  0  0
   -0.9954   -1.7613   -1.5647 O   0  0  0  0  0  0  0  0  0  0  0  0
    0.8884   -3.4524    0.0116 C   0  0  0  0  0  0  0  0  0  0  0  0
    1.8913   -3.4701   -0.9907 O   0  0  0  0  0  0  0  0  0  0  0  0
   -0.1153   -1.0576   -2.4813 C   0  0  1  0  0  0  0  0  0  0  0  0
   -0.4866    0.4192   -2.5145 C   0  0  1  0  0  0  0  0  0  0  0  0
    1.2237   -1.3418   -2.1389 O   0  0  0  0  0  0  0  0  0  0  0  0
    0.6490    1.4209   -2.8033 C   0  0  2  0  0  0  0  0  0  0  0  0
    2.2922   -0.5711   -2.6828 C   0  0  1  0  0  0  0  0  0  0  0  0
    2.1066    0.9502   -2.5343 C   0  0  2  0  0  0  0  0  0  0  0  0
   -1.7854    0.6982   -3.0380 O   0  0  0  0  0  0  0  0  0  0  0  0
    0.3874    2.7228   -2.2390 O   0  0  0  0  0  0  0  0  0  0  0  0
    2.6552    1.5288   -1.3503 O   0  0  0  0  0  0  0  0  0  0  0  0
    3.6233   -1.1280   -2.0842 C   0  0  0  0  0  0  0  0  0  0  0  0
    4.7341   -0.2407   -2.1282 O   0  0  0  0  0  0  0  0  0  0  0  0
    1.0335    0.0076    2.1905 H   0  0  0  0  0  0  0  0  0  0  0  0
    0.1377    1.0810   -0.3705 H   0  0  0  0  0  0  0  0  0  0  0  0
   -1.6076   -0.4479    1.5748 H   0  0  0  0  0  0  0  0  0  0  0  0
    0.2451   -2.1871    1.5965 H   0  0  0  0  0  0  0  0  0  0  0  0
   -1.6648   -2.3387    0.2251 H   0  0  0  0  0  0  0  0  0  0  0  0
    1.9450    1.6296    0.1056 H   0  0  0  0  0  0  0  0  0  0  0  0
   -0.6574    2.1187    2.0032 H   0  0  0  0  0  0  0  0  0  0  0  0
   -2.5673    0.2357   -1.0003 H   0  0  0  0  0  0  0  0  0  0  0  0
    1.2985   -4.0230    0.8480 H   0  0  0  0  0  0  0  0  0  0  0  0
    0.0365   -4.0259   -0.3724 H   0  0  0  0  0  0  0  0  0  0  0  0
    1.5980   -2.8213   -1.6576 H   0  0  0  0  0  0  0  0  0  0  0  0
   -0.3201   -1.4892   -3.4692 H   0  0  0  0  0  0  0  0  0  0  0  0
   -0.8043    0.5744   -1.5329 H   0  0  0  0  0  0  0  0  0  0  0  0
    0.5974    1.5981   -3.8746 H   0  0  0  0  0  0  0  0  0  0  0  0
    2.3111   -0.7805   -3.7560 H   0  0  0  0  0  0  0  0  0  0  0  0
    2.7127    1.4017   -3.3260 H   0  0  0  0  0  0  0  0  0  0  0  0
   -1.7193    1.0679   -3.9464 H   0  0  0  0  0  0  0  0  0  0  0  0
    0.4538    2.7220   -1.2638 H   0  0  0  0  0  0  0  0  0  0  0  0
    3.2838    0.9101   -0.9031 H   0  0  0  0  0  0  0  0  0  0  0  0
    3.5093   -1.4296   -1.0359 H   0  0  0  0  0  0  0  0  0  0  0  0
    3.9026   -2.0429   -2.6199 H   0  0  0  0  0  0  0  0  0  0  0  0
    4.5769    0.4794   -2.7575 H   0  0  0  0  0  0  0  0  0  0  0  0
  1  2  1  0  0  0  0
  1  3  1  0  0  0  0
  1  7  1  0  0  0  0
  1 24  1  1  0  0  0
  2  4  1  0  0  0  0
  2  8  1  0  0  0  0
  2 25  1  6  0  0  0
  3  5  1  0  0  0  0
  4  6  1  0  0  0  0
  4  9  1  0  0  0  0
  4 26  1  1  0  0  0
  5  6  1  0  0  0  0
  5 27  1  1  0  0  0
  5 11  1  0  0  0  0
  6 28  1  1  0  0  0
  6 10  1  0  0  0  0
  7 29  1  0  0  0  0
  8 30  1  0  0  0  0
  9 31  1  0  0  0  0
 11 32  1  0  0  0  0
 11 33  1  0  0  0  0
 12 11  1  0  0  0  0
 12 34  1  0  0  0  0
 13 14  1  0  0  0  0
 13 15  1  0  0  0  0
 13 10  1  0  0  0  0
 13 35  1  6  0  0  0
 14 16  1  0  0  0  0
 14 19  1  0  0  0  0
 14 36  1  1  0  0  0
 15 17  1  0  0  0  0
 16 18  1  0  0  0  0
 16 20  1  0  0  0  0
 16 37  1  6  0  0  0
 17 18  1  0  0  0  0
 17 38  1  6  0  0  0
 17 22  1  0  0  0  0
 18 39  1  6  0  0  0
 18 21  1  0  0  0  0
 19 40  1  0  0  0  0
 20 41  1  0  0  0  0
 21 42  1  0  0  0  0
 22 23  1  0  0  0  0
 22 43  1  0  0  0  0
 22 44  1  0  0  0  0
 23 45  1  0  0  0  0
M  END
>  <DRUGBANK_ID>
DB02743

>  <SECONDARY_ACCESSION_NUMBERS>
EXPT00610

>  <COMMON_NAME>
beta-D-galactopyranosyl-(1->4)-beta-D-galactopyranose

>  <SYNONYMS>
4-O-β-D-galactopyranosyl-β-D-galactopyranose; Galactobiose; β-D-galactopyranosyl-(1→4)-β-D-galactopyranose; β-D-Galp-(1→4)-β-D-Galp

$$$$
