NW1
 OpenBabel10282417173D

 35 36  0  0  0  0  0  0  0  0999 V2000
   -1.1724   -0.9762    0.0098 N   0  0  0  0  0  0  0  0  0  0  0  0
   -0.0399   -1.6331    0.3471 C   0  0  0  0  0  0  0  0  0  0  0  0
   -0.1814   -2.9886    0.1491 O   0  0  0  0  0  0  0  0  0  0  0  0
    0.9415   -3.8795    0.0222 C   0  0  0  0  0  0  0  0  0  0  0  0
    1.7817   -3.7761   -1.2988 C   0  0  0  0  0  0  0  0  0  0  0  0
    2.9856   -4.7358   -1.2528 C   0  0  0  0  0  0  0  0  0  0  0  0
    3.9816   -4.4491   -2.3913 C   0  0  0  0  0  0  0  0  0  0  0  0
    4.5182   -3.0160   -2.3890 C   0  0  0  0  0  0  0  0  0  0  0  0
    3.3705   -2.0397   -2.5219 C   0  0  0  0  0  0  0  0  0  0  0  0
    2.3392   -2.3763   -1.4854 C   0  0  0  0  0  0  0  0  0  0  0  0
    1.1230   -0.9483    0.7206 C   0  0  0  0  0  0  0  0  0  0  0  0
    2.1542   -1.5265    1.4445 N   0  0  0  0  0  0  0  0  0  0  0  0
    3.2915   -1.1152    1.1574 O   0  0  0  0  0  0  0  0  0  0  0  0
    1.1457    0.3873    0.2851 C   0  0  0  0  0  0  0  0  0  0  0  0
    2.3389    1.1317    0.2601 N   0  0  0  0  0  0  0  0  0  0  0  0
    0.0382    1.0478   -0.0693 N   0  0  0  0  0  0  0  0  0  0  0  0
   -1.1085    0.3567   -0.0854 C   0  0  0  0  0  0  0  0  0  0  0  0
   -2.2647    1.0740   -0.1826 N   0  0  0  0  0  0  0  0  0  0  0  0
    1.5547   -3.8237    0.9256 H   0  0  0  0  0  0  0  0  0  0  0  0
    0.5204   -4.8951    0.0610 H   0  0  0  0  0  0  0  0  0  0  0  0
    1.1361   -4.0142   -2.1525 H   0  0  0  0  0  0  0  0  0  0  0  0
    3.5061   -4.6293   -0.2896 H   0  0  0  0  0  0  0  0  0  0  0  0
    2.6409   -5.7745   -1.3055 H   0  0  0  0  0  0  0  0  0  0  0  0
    4.8240   -5.1417   -2.3232 H   0  0  0  0  0  0  0  0  0  0  0  0
    3.4725   -4.6215   -3.3456 H   0  0  0  0  0  0  0  0  0  0  0  0
    5.0617   -2.8214   -1.4524 H   0  0  0  0  0  0  0  0  0  0  0  0
    5.2259   -2.8455   -3.2051 H   0  0  0  0  0  0  0  0  0  0  0  0
    3.7282   -1.0198   -2.3119 H   0  0  0  0  0  0  0  0  0  0  0  0
    2.9244   -2.0329   -3.5177 H   0  0  0  0  0  0  0  0  0  0  0  0
    1.5414   -1.6505   -1.5931 H   0  0  0  0  0  0  0  0  0  0  0  0
    2.9270   -2.2530   -0.5906 H   0  0  0  0  0  0  0  0  0  0  0  0
    2.2349    2.0324   -0.1919 H   0  0  0  0  0  0  0  0  0  0  0  0
    3.1324    0.5862   -0.0756 H   0  0  0  0  0  0  0  0  0  0  0  0
   -2.1661    2.0533    0.0502 H   0  0  0  0  0  0  0  0  0  0  0  0
   -3.1179    0.5835    0.0479 H   0  0  0  0  0  0  0  0  0  0  0  0
  1  2  2  0  0  0  0
  1 17  1  0  0  0  0
  2  3  1  0  0  0  0
  2 11  1  0  0  0  0
  3  4  1  0  0  0  0
  4  5  1  0  0  0  0
  4 19  1  0  0  0  0
  4 20  1  0  0  0  0
  5  6  1  0  0  0  0
  5 10  1  0  0  0  0
  5 21  1  0  0  0  0
  6  7  1  0  0  0  0
  6 22  1  0  0  0  0
  6 23  1  0  0  0  0
  7  8  1  0  0  0  0
  7 24  1  0  0  0  0
  7 25  1  0  0  0  0
  8  9  1  0  0  0  0
  8 26  1  0  0  0  0
  8 27  1  0  0  0  0
  9 10  1  0  0  0  0
  9 28  1  0  0  0  0
  9 29  1  0  0  0  0
 10 30  1  0  0  0  0
 10 31  1  0  0  0  0
 11 12  1  0  0  0  0
 11 14  2  0  0  0  0
 12 13  2  0  0  0  0
 14 15  1  0  0  0  0
 14 16  1  0  0  0  0
 15 32  1  0  0  0  0
 15 33  1  0  0  0  0
 16 17  2  0  0  0  0
 17 18  1  0  0  0  0
 18 34  1  0  0  0  0
 18 35  1  0  0  0  0
M  END
>  <DRUGBANK_ID>
DB08312

>  <COMMON_NAME>
6-CYCLOHEXYLMETHYLOXY-5-NITROSO-PYRIMIDINE-2,4-DIAMINE

$$$$
