
 OpenBabel10282417193D

117120  0  0  1  0  0  0  0  0999 V2000
    3.7457  -17.1146  -11.5646 C   0  0  0  0  0  0  0  0  0  0  0  0
    3.1518  -15.9170  -12.1883 C   0  0  0  0  0  0  0  0  0  0  0  0
    1.7378  -16.3079  -12.7465 C   0  0  1  0  0  0  0  0  0  0  0  0
    0.4882  -16.8333  -11.8528 C   0  0  1  0  0  0  0  0  0  0  0  0
    0.1234  -16.4101  -10.4340 C   0  0  0  0  0  0  0  0  0  0  0  0
   -0.7890  -16.7676  -12.6790 C   0  0  2  0  0  0  0  0  0  0  0  0
   -2.1211  -16.1982  -12.1836 C   0  0  2  0  0  0  0  0  0  0  0  0
   -1.8546  -17.6009  -12.2242 O   0  0  0  0  0  0  0  0  0  0  0  0
   -3.1460  -15.6800  -13.1649 C   0  0  0  0  0  0  0  0  0  0  0  0
   -3.8264  -14.4052  -12.6029 C   0  0  2  0  0  0  0  0  0  0  0  0
   -4.5889  -13.6212  -13.6698 C   0  0  0  0  0  0  0  0  0  0  0  0
   -2.8160  -13.4731  -11.9853 C   0  0  0  0  0  0  0  0  0  0  0  0
   -2.8100  -13.0250  -10.7079 C   0  0  0  0  0  0  0  0  0  0  0  0
   -1.8770  -12.0904  -10.0939 C   0  0  0  0  0  0  0  0  0  0  0  0
   -1.5466  -11.7426   -8.8415 C   0  0  0  0  0  0  0  0  0  0  0  0
   -2.3317  -12.3669   -7.7648 C   0  0  0  0  0  0  0  0  0  0  0  0
   -0.3793  -10.7726   -8.4007 C   0  0  2  0  0  0  0  0  0  0  0  0
   -0.0622   -9.6142   -9.4385 C   0  0  2  0  0  0  0  0  0  0  0  0
    0.6611   -9.8982  -10.7148 C   0  0  0  0  0  0  0  0  0  0  0  0
    0.9133  -11.1299  -11.0814 C   0  0  0  0  0  0  0  0  0  0  0  0
    1.1389  -11.4991  -12.4801 C   0  0  1  0  0  0  0  0  0  0  0  0
    1.0734  -12.9873  -12.6226 C   0  0  2  0  0  0  0  0  0  0  0  0
    0.5271  -13.7847  -11.3975 C   0  0  0  0  0  0  0  0  0  0  0  0
    1.4065  -14.0489  -10.0924 C   0  0  0  0  0  0  0  0  0  0  0  0
    0.6795  -14.1505   -8.6854 C   0  0  2  0  0  0  0  0  0  0  0  0
    1.6011  -13.6420   -7.6036 C   0  0  0  0  0  0  0  0  0  0  0  0
    0.9281  -12.3947   -7.1011 C   0  0  0  0  0  0  0  0  0  0  0  0
    0.3896  -12.2900   -6.0112 O   0  0  0  0  0  0  0  0  0  0  0  0
    0.8678  -11.4911   -8.1197 O   0  0  0  0  0  0  0  0  0  0  0  0
    0.0630  -15.3283   -8.1478 O   0  0  0  0  0  0  0  0  0  0  0  0
    2.4992  -13.3138  -12.9691 C   0  0  0  0  0  0  0  0  0  0  0  0
    0.1927  -13.3953  -13.6975 O   0  0  0  0  0  0  0  0  0  0  0  0
    0.3980  -10.9300  -13.5766 O   0  0  0  0  0  0  0  0  0  0  0  0
   -0.9506  -11.0134  -13.4318 C   0  0  0  0  0  0  0  0  0  0  0  0
   -1.5303  -10.9631  -12.4079 O   0  0  0  0  0  0  0  0  0  0  0  0
   -1.7106  -11.1501  -14.5528 N   0  0  0  0  0  0  0  0  0  0  0  0
   -1.1831  -11.1570  -15.8953 C   0  0  0  0  0  0  0  0  0  0  0  0
   -1.3356   -9.7456  -16.4508 C   0  0  0  0  0  0  0  0  0  0  0  0
   -2.7031   -9.1757  -16.3137 N   0  0  3  0  0  0  0  0  0  0  0  0
   -3.0921   -9.1607  -14.8911 C   0  0  0  0  0  0  0  0  0  0  0  0
   -3.0345  -10.5586  -14.3003 C   0  0  0  0  0  0  0  0  0  0  0  0
   -3.7511   -9.7904  -17.1821 C   0  0  0  0  0  0  0  0  0  0  0  0
   -4.2036  -11.2376  -16.9032 C   0  0  0  0  0  0  0  0  0  0  0  0
   -5.0619  -11.9673  -17.8938 C   0  0  0  0  0  0  0  0  0  0  0  0
   -4.2175  -12.6946  -18.9254 C   0  0  0  0  0  0  0  0  0  0  0  0
   -3.4846  -11.7881  -19.9031 C   0  0  0  0  0  0  0  0  0  0  0  0
   -2.5835  -10.7244  -19.2865 C   0  0  0  0  0  0  0  0  0  0  0  0
   -3.3632   -9.5725  -18.6451 C   0  0  0  0  0  0  0  0  0  0  0  0
    0.7948   -8.5107   -8.8684 C   0  0  0  0  0  0  0  0  0  0  0  0
   -4.7584  -14.7969  -11.5973 O   0  0  0  0  0  0  0  0  0  0  0  0
    1.3358  -15.5026  -13.8456 O   0  0  0  0  0  0  0  0  0  0  0  0
    3.0481  -17.4457  -10.7954 H   0  0  0  0  0  0  0  0  0  0  0  0
    4.6987  -16.8476  -11.1066 H   0  0  0  0  0  0  0  0  0  0  0  0
    3.8648  -17.8354  -12.3658 H   0  0  0  0  0  0  0  0  0  0  0  0
    3.2816  -15.2065  -11.3708 H   0  0  0  0  0  0  0  0  0  0  0  0
    3.8166  -15.5002  -12.9687 H   0  0  0  0  0  0  0  0  0  0  0  0
    1.9831  -17.1720  -13.3648 H   0  0  0  0  0  0  0  0  0  0  0  0
    0.8031  -17.8521  -11.6355 H   0  0  0  0  0  0  0  0  0  0  0  0
   -0.3661  -15.4405  -10.3322 H   0  0  0  0  0  0  0  0  0  0  0  0
   -0.7028  -16.9531   -9.9706 H   0  0  0  0  0  0  0  0  0  0  0  0
    0.9996  -16.5121   -9.8040 H   0  0  0  0  0  0  0  0  0  0  0  0
   -0.6167  -16.6152  -13.7311 H   0  0  0  0  0  0  0  0  0  0  0  0
   -2.2011  -15.7343  -11.2117 H   0  0  0  0  0  0  0  0  0  0  0  0
   -2.6586  -15.4733  -14.1285 H   0  0  0  0  0  0  0  0  0  0  0  0
   -3.9098  -16.4465  -13.3408 H   0  0  0  0  0  0  0  0  0  0  0  0
   -4.6721  -12.5702  -13.3688 H   0  0  0  0  0  0  0  0  0  0  0  0
   -4.0897  -13.6438  -14.6461 H   0  0  0  0  0  0  0  0  0  0  0  0
   -5.6189  -13.9665  -13.7782 H   0  0  0  0  0  0  0  0  0  0  0  0
   -2.0523  -13.2416  -12.7236 H   0  0  0  0  0  0  0  0  0  0  0  0
   -3.5591  -13.4204  -10.0469 H   0  0  0  0  0  0  0  0  0  0  0  0
   -1.2212  -11.6473  -10.7753 H   0  0  0  0  0  0  0  0  0  0  0  0
   -1.6993  -12.9717   -7.1228 H   0  0  0  0  0  0  0  0  0  0  0  0
   -2.8277  -11.5561   -7.2439 H   0  0  0  0  0  0  0  0  0  0  0  0
   -3.0887  -13.0416   -8.1624 H   0  0  0  0  0  0  0  0  0  0  0  0
   -0.6849  -10.2844   -7.4721 H   0  0  0  0  0  0  0  0  0  0  0  0
   -1.0339   -9.2102   -9.7432 H   0  0  0  0  0  0  0  0  0  0  0  0
    0.8956   -9.1461  -11.4528 H   0  0  0  0  0  0  0  0  0  0  0  0
    0.7214  -11.8791  -10.3382 H   0  0  0  0  0  0  0  0  0  0  0  0
    2.1594  -11.1474  -12.6001 H   0  0  0  0  0  0  0  0  0  0  0  0
   -0.4165  -13.4018  -11.0807 H   0  0  0  0  0  0  0  0  0  0  0  0
    0.0685  -14.6421  -11.8494 H   0  0  0  0  0  0  0  0  0  0  0  0
    2.1557  -13.2531  -10.0622 H   0  0  0  0  0  0  0  0  0  0  0  0
    2.0000  -14.9407  -10.1820 H   0  0  0  0  0  0  0  0  0  0  0  0
   -0.2000  -13.5575   -8.8144 H   0  0  0  0  0  0  0  0  0  0  0  0
    1.7132  -14.3857   -6.8062 H   0  0  0  0  0  0  0  0  0  0  0  0
    2.5998  -13.4237   -7.9885 H   0  0  0  0  0  0  0  0  0  0  0  0
    0.6863  -16.0616   -8.0269 H   0  0  0  0  0  0  0  0  0  0  0  0
    2.6776  -13.8547  -13.8940 H   0  0  0  0  0  0  0  0  0  0  0  0
    3.2974  -12.5831  -12.8642 H   0  0  0  0  0  0  0  0  0  0  0  0
    2.7331  -13.8395  -12.0918 H   0  0  0  0  0  0  0  0  0  0  0  0
    0.4058  -12.8438  -14.4702 H   0  0  0  0  0  0  0  0  0  0  0  0
   -0.1442  -11.4930  -15.9208 H   0  0  0  0  0  0  0  0  0  0  0  0
   -1.6763  -11.9359  -16.4688 H   0  0  0  0  0  0  0  0  0  0  0  0
   -0.6432   -9.1138  -15.8769 H   0  0  0  0  0  0  0  0  0  0  0  0
   -0.9709   -9.6841  -17.4757 H   0  0  0  0  0  0  0  0  0  0  0  0
   -2.3886   -8.5275  -14.3259 H   0  0  0  0  0  0  0  0  0  0  0  0
   -4.0768   -8.7045  -14.7384 H   0  0  0  0  0  0  0  0  0  0  0  0
   -3.7709  -11.2508  -14.6446 H   0  0  0  0  0  0  0  0  0  0  0  0
   -3.3207  -10.4713  -13.2451 H   0  0  0  0  0  0  0  0  0  0  0  0
   -4.6460   -9.1763  -17.0028 H   0  0  0  0  0  0  0  0  0  0  0  0
   -3.3683  -11.9024  -16.7661 H   0  0  0  0  0  0  0  0  0  0  0  0
   -4.8163  -11.2588  -16.0075 H   0  0  0  0  0  0  0  0  0  0  0  0
   -5.5849  -12.7413  -17.3126 H   0  0  0  0  0  0  0  0  0  0  0  0
   -5.8097  -11.2957  -18.3140 H   0  0  0  0  0  0  0  0  0  0  0  0
   -3.4841  -13.3445  -18.4238 H   0  0  0  0  0  0  0  0  0  0  0  0
   -4.8801  -13.3635  -19.4821 H   0  0  0  0  0  0  0  0  0  0  0  0
   -2.8554  -12.4294  -20.5294 H   0  0  0  0  0  0  0  0  0  0  0  0
   -4.2160  -11.3057  -20.5573 H   0  0  0  0  0  0  0  0  0  0  0  0
   -1.8864  -11.2084  -18.5980 H   0  0  0  0  0  0  0  0  0  0  0  0
   -1.9638  -10.2985  -20.0834 H   0  0  0  0  0  0  0  0  0  0  0  0
   -4.2771   -9.3732  -19.2136 H   0  0  0  0  0  0  0  0  0  0  0  0
   -2.7695   -8.6505  -18.7227 H   0  0  0  0  0  0  0  0  0  0  0  0
    0.4139   -8.1871   -7.9048 H   0  0  0  0  0  0  0  0  0  0  0  0
    1.8406   -8.8286   -8.7718 H   0  0  0  0  0  0  0  0  0  0  0  0
    0.7714   -7.6586   -9.5623 H   0  0  0  0  0  0  0  0  0  0  0  0
   -4.2302  -15.1857  -10.8784 H   0  0  0  0  0  0  0  0  0  0  0  0
    0.6614  -14.8618  -13.5475 H   0  0  0  0  0  0  0  0  0  0  0  0
  1  2  1  0  0  0  0
  1 52  1  0  0  0  0
  1 53  1  0  0  0  0
  1 54  1  0  0  0  0
  2  3  1  0  0  0  0
  2 55  1  0  0  0  0
  2 56  1  0  0  0  0
  3  4  1  0  0  0  0
  3 51  1  0  0  0  0
  3 57  1  6  0  0  0
  4  5  1  0  0  0  0
  4 58  1  1  0  0  0
  5 59  1  0  0  0  0
  5 60  1  0  0  0  0
  5 61  1  0  0  0  0
  6  4  1  0  0  0  0
  6  7  1  0  0  0  0
  6  8  1  0  0  0  0
  6 62  1  6  0  0  0
  7  8  1  0  0  0  0
  7 63  1  1  0  0  0
  7  9  1  0  0  0  0
  9 64  1  0  0  0  0
  9 65  1  0  0  0  0
 10 12  1  1  0  0  0
 10 50  1  0  0  0  0
 10 11  1  0  0  0  0
 10  9  1  0  0  0  0
 11 66  1  0  0  0  0
 11 67  1  0  0  0  0
 11 68  1  0  0  0  0
 12 13  2  0  0  0  0
 12 69  1  0  0  0  0
 13 14  1  0  0  0  0
 13 70  1  0  0  0  0
 14 15  2  0  0  0  0
 14 71  1  0  0  0  0
 15 16  1  0  0  0  0
 16 72  1  0  0  0  0
 16 73  1  0  0  0  0
 16 74  1  0  0  0  0
 17 18  1  0  0  0  0
 17 29  1  0  0  0  0
 17 75  1  1  0  0  0
 17 15  1  0  0  0  0
 18 19  1  0  0  0  0
 18 76  1  6  0  0  0
 18 49  1  0  0  0  0
 19 20  2  0  0  0  0
 19 77  1  0  0  0  0
 20 21  1  0  0  0  0
 20 78  1  0  0  0  0
 21 22  1  0  0  0  0
 21 33  1  0  0  0  0
 21 79  1  6  0  0  0
 22 23  1  0  0  0  0
 22 32  1  6  0  0  0
 22 31  1  0  0  0  0
 23 24  1  0  0  0  0
 23 80  1  0  0  0  0
 23 81  1  0  0  0  0
 24 25  1  0  0  0  0
 24 82  1  0  0  0  0
 24 83  1  0  0  0  0
 25 26  1  0  0  0  0
 25 30  1  0  0  0  0
 25 84  1  6  0  0  0
 26 27  1  0  0  0  0
 26 85  1  0  0  0  0
 26 86  1  0  0  0  0
 27 28  2  0  0  0  0
 27 29  1  0  0  0  0
 30 87  1  0  0  0  0
 31 88  1  0  0  0  0
 31 89  1  0  0  0  0
 31 90  1  0  0  0  0
 32 91  1  0  0  0  0
 33 34  1  0  0  0  0
 34 35  2  0  0  0  0
 34 36  1  0  0  0  0
 36 37  1  0  0  0  0
 36 41  1  0  0  0  0
 37 38  1  0  0  0  0
 37 92  1  0  0  0  0
 37 93  1  0  0  0  0
 38 39  1  0  0  0  0
 38 94  1  0  0  0  0
 38 95  1  0  0  0  0
 39 40  1  0  0  0  0
 39 42  1  0  0  0  0
 40 41  1  0  0  0  0
 40 96  1  0  0  0  0
 40 97  1  0  0  0  0
 41 98  1  0  0  0  0
 41 99  1  0  0  0  0
 42 43  1  0  0  0  0
 42 48  1  0  0  0  0
 42100  1  0  0  0  0
 43 44  1  0  0  0  0
 43101  1  0  0  0  0
 43102  1  0  0  0  0
 44 45  1  0  0  0  0
 44103  1  0  0  0  0
 44104  1  0  0  0  0
 45 46  1  0  0  0  0
 45105  1  0  0  0  0
 45106  1  0  0  0  0
 46 47  1  0  0  0  0
 46107  1  0  0  0  0
 46108  1  0  0  0  0
 47 48  1  0  0  0  0
 47109  1  0  0  0  0
 47110  1  0  0  0  0
 48111  1  0  0  0  0
 48112  1  0  0  0  0
 49113  1  0  0  0  0
 49114  1  0  0  0  0
 49115  1  0  0  0  0
 50116  1  0  0  0  0
 51117  1  0  0  0  0
M  END
>  <DRUGBANK_ID>
DB12508

>  <COMMON_NAME>
E7107

>  <CAS_NUMBER>
630100-90-2

>  <UNII>
R60DZX1E2N

$$$$
