
 OpenBabel10282417123D

 68 73  0  0  0  0  0  0  0  0999 V2000
    1.0904    0.0591    0.0411 C   0  0  0  0  0  0  0  0  0  0  0  0
    0.5821    1.4626   -0.2435 C   0  0  0  0  0  0  0  0  0  0  0  0
   -0.2098    1.6563   -1.2514 N   0  0  0  0  0  0  0  0  0  0  0  0
    0.9263    2.4797    0.6277 N   0  0  0  0  0  0  0  0  0  0  0  0
   -0.0362    3.4901    1.0583 C   0  0  0  0  0  0  0  0  0  0  0  0
    0.3727    4.8402    0.5223 C   0  0  0  0  0  0  0  0  0  0  0  0
    1.8202    5.2256    0.8311 C   0  0  0  0  0  0  0  0  0  0  0  0
    2.7910    4.0787    0.5249 C   0  0  0  0  0  0  0  0  0  0  0  0
    2.2904    2.7397    1.0739 C   0  0  0  0  0  0  0  0  0  0  0  0
    2.2326    6.4792    0.2247 O   0  0  0  0  0  0  0  0  0  0  0  0
    2.2648    6.5132   -1.1476 C   0  0  0  0  0  0  0  0  0  0  0  0
    1.1172    6.3987   -1.9236 C   0  0  0  0  0  0  0  0  0  0  0  0
    1.1737    6.3406   -3.3128 C   0  0  0  0  0  0  0  0  0  0  0  0
    2.4002    6.5712   -3.9500 C   0  0  0  0  0  0  0  0  0  0  0  0
    3.5401    6.7977   -3.1687 C   0  0  0  0  0  0  0  0  0  0  0  0
    3.4940    6.7557   -1.7597 C   0  0  0  0  0  0  0  0  0  0  0  0
    4.5889    7.0428   -4.0444 N   0  0  0  0  0  0  0  0  0  0  0  0
    5.9859    7.2846   -3.6072 C   0  0  0  0  0  0  0  0  0  0  0  0
    6.9501    6.1909   -4.0405 C   0  0  0  0  0  0  0  0  0  0  0  0
    7.1878    6.0826   -5.4059 C   0  0  0  0  0  0  0  0  0  0  0  0
    7.8998    5.0566   -5.9027 C   0  0  0  0  0  0  0  0  0  0  0  0
    8.3610    4.0879   -5.0701 C   0  0  0  0  0  0  0  0  0  0  0  0
    9.2388    3.2314   -5.6178 C   0  0  0  0  0  0  0  0  0  0  0  0
    9.9271    2.2096   -4.9273 C   0  0  0  0  0  0  0  0  0  0  0  0
    9.0793    1.2684   -4.5333 C   0  0  0  0  0  0  0  0  0  0  0  0
    8.4236    2.3035   -3.5675 C   0  0  0  0  0  0  0  0  0  0  0  0
    8.0398    3.8668   -3.7515 C   0  0  0  0  0  0  0  0  0  0  0  0
    7.5231    5.1802   -3.1975 C   0  0  0  0  0  0  0  0  0  0  0  0
    9.5605    0.5366   -6.0809 C   0  0  0  0  0  0  0  0  0  0  0  0
    9.5675    1.0929   -7.3622 N   0  0  0  0  0  0  0  0  0  0  0  0
   10.2565   -0.5827   -6.1159 N   0  0  0  0  0  0  0  0  0  0  0  0
    4.0993    7.0740   -5.3518 C   0  0  0  0  0  0  0  0  0  0  0  0
    2.7629    6.6764   -5.3216 C   0  0  0  0  0  0  0  0  0  0  0  0
    2.0522    6.5546   -6.5433 C   0  0  0  0  0  0  0  0  0  0  0  0
    2.7156    6.7240   -7.7639 C   0  0  0  0  0  0  0  0  0  0  0  0
    4.0384    7.1145   -7.7796 C   0  0  0  0  0  0  0  0  0  0  0  0
    4.6806    7.4162   -6.5835 C   0  0  0  0  0  0  0  0  0  0  0  0
    0.7155   -0.6657   -0.6880 H   0  0  0  0  0  0  0  0  0  0  0  0
    0.7307   -0.2423    1.0309 H   0  0  0  0  0  0  0  0  0  0  0  0
    2.1807    0.0258    0.0348 H   0  0  0  0  0  0  0  0  0  0  0  0
   -0.3517    0.7881   -1.7803 H   0  0  0  0  0  0  0  0  0  0  0  0
   -0.0661    3.5160    2.1512 H   0  0  0  0  0  0  0  0  0  0  0  0
   -1.0490    3.2632    0.7056 H   0  0  0  0  0  0  0  0  0  0  0  0
   -0.3037    5.6376    0.8520 H   0  0  0  0  0  0  0  0  0  0  0  0
    0.2484    4.7118   -0.5477 H   0  0  0  0  0  0  0  0  0  0  0  0
    1.8806    5.4189    1.9135 H   0  0  0  0  0  0  0  0  0  0  0  0
    2.9328    3.9963   -0.5578 H   0  0  0  0  0  0  0  0  0  0  0  0
    3.7781    4.3120    0.9443 H   0  0  0  0  0  0  0  0  0  0  0  0
    2.9809    1.9523    0.7608 H   0  0  0  0  0  0  0  0  0  0  0  0
    2.2931    2.7636    2.1688 H   0  0  0  0  0  0  0  0  0  0  0  0
    0.1314    6.3441   -1.4803 H   0  0  0  0  0  0  0  0  0  0  0  0
    0.2649    6.1650   -3.8809 H   0  0  0  0  0  0  0  0  0  0  0  0
    4.3766    6.9175   -1.1519 H   0  0  0  0  0  0  0  0  0  0  0  0
    6.2626    8.2683   -4.0080 H   0  0  0  0  0  0  0  0  0  0  0  0
    5.9961    7.3654   -2.5185 H   0  0  0  0  0  0  0  0  0  0  0  0
    6.8543    6.7549   -6.1566 H   0  0  0  0  0  0  0  0  0  0  0  0
    8.0813    5.0283   -6.9854 H   0  0  0  0  0  0  0  0  0  0  0  0
    8.8409    3.1122   -6.6249 H   0  0  0  0  0  0  0  0  0  0  0  0
   10.5689    2.2733   -4.0350 H   0  0  0  0  0  0  0  0  0  0  0  0
    8.6109    2.1775   -2.4644 H   0  0  0  0  0  0  0  0  0  0  0  0
    7.5012    5.3706   -2.1172 H   0  0  0  0  0  0  0  0  0  0  0  0
    9.9816    0.6678   -8.1815 H   0  0  0  0  0  0  0  0  0  0  0  0
    9.2715    2.0092   -7.6208 H   0  0  0  0  0  0  0  0  0  0  0  0
   10.5795   -0.6965   -7.1002 H   0  0  0  0  0  0  0  0  0  0  0  0
    0.9917    6.3198   -6.5437 H   0  0  0  0  0  0  0  0  0  0  0  0
    2.1860    6.6025   -8.7041 H   0  0  0  0  0  0  0  0  0  0  0  0
    4.5752    7.2399   -8.7165 H   0  0  0  0  0  0  0  0  0  0  0  0
    5.6340    7.9154   -6.6475 H   0  0  0  0  0  0  0  0  0  0  0  0
  1  2  1  0  0  0  0
  1 38  1  0  0  0  0
  1 39  1  0  0  0  0
  1 40  1  0  0  0  0
  2  3  2  0  0  0  0
  2  4  1  0  0  0  0
  3 41  1  0  0  0  0
  4  5  1  0  0  0  0
  4  9  1  0  0  0  0
  5  6  1  0  0  0  0
  5 42  1  0  0  0  0
  5 43  1  0  0  0  0
  6  7  1  0  0  0  0
  6 44  1  0  0  0  0
  6 45  1  0  0  0  0
  7  8  1  0  0  0  0
  7 10  1  0  0  0  0
  7 46  1  0  0  0  0
  8  9  1  0  0  0  0
  8 47  1  0  0  0  0
  8 48  1  0  0  0  0
  9 49  1  0  0  0  0
  9 50  1  0  0  0  0
 10 11  1  0  0  0  0
 11 12  2  0  0  0  0
 11 16  1  0  0  0  0
 12 13  1  0  0  0  0
 12 51  1  0  0  0  0
 13 14  2  0  0  0  0
 13 52  1  0  0  0  0
 14 15  1  0  0  0  0
 14 33  1  0  0  0  0
 15 16  2  0  0  0  0
 15 17  1  0  0  0  0
 16 53  1  0  0  0  0
 17 18  1  0  0  0  0
 17 32  1  0  0  0  0
 18 19  1  0  0  0  0
 18 54  1  0  0  0  0
 18 55  1  0  0  0  0
 19 20  2  0  0  0  0
 19 28  1  0  0  0  0
 20 21  1  0  0  0  0
 20 56  1  0  0  0  0
 21 22  2  0  0  0  0
 21 57  1  0  0  0  0
 22 23  1  0  0  0  0
 22 27  1  0  0  0  0
 23 24  2  0  0  0  0
 23 58  1  0  0  0  0
 24 25  1  0  0  0  0
 24 59  1  0  0  0  0
 25 26  2  0  0  0  0
 25 29  1  0  0  0  0
 26 27  1  0  0  0  0
 26 60  1  0  0  0  0
 27 28  2  0  0  0  0
 28 61  1  0  0  0  0
 29 30  1  0  0  0  0
 29 31  2  0  0  0  0
 30 62  1  0  0  0  0
 30 63  1  0  0  0  0
 31 64  1  0  0  0  0
 32 33  2  0  0  0  0
 32 37  1  0  0  0  0
 33 34  1  0  0  0  0
 34 35  2  0  0  0  0
 34 65  1  0  0  0  0
 35 36  1  0  0  0  0
 35 66  1  0  0  0  0
 36 37  2  0  0  0  0
 36 67  1  0  0  0  0
 37 68  1  0  0  0  0
M  END
>  <DRUGBANK_ID>
DB02112

>  <SECONDARY_ACCESSION_NUMBERS>
EXPT00320

>  <COMMON_NAME>
Zk-806450

$$$$
