
 OpenBabel10282417143D

134133  0  0  0  0  0  0  0  0999 V2000
    1.0440    1.3594   -0.7414 C   0  0  2  0  0  0  0  0  0  0  0  0
    0.6561    1.9542   -2.1065 C   0  0  0  0  0  0  0  0  0  0  0  0
    0.8600    0.9917   -3.1777 O   0  0  0  0  0  0  0  0  0  0  0  0
    0.6209    0.0124   -0.1708 C   0  0  0  0  0  0  0  0  0  0  0  0
    1.5861   -0.3641    0.8459 O   0  0  0  0  0  0  0  0  0  0  0  0
    3.8225   -0.0077    1.6764 O   0  0  0  0  0  0  0  0  0  0  0  0
    4.4167    1.2554    1.4237 C   0  0  0  0  0  0  0  0  0  0  0  0
    5.5330    1.6311    0.3254 C   0  0  0  0  0  0  0  0  0  0  0  0
    5.1419    1.5827   -1.2872 N   0  3  0  0  0  0  0  0  0  0  0  0
    3.2019   -0.7555    0.3676 P   0  0  3  0  0  0  0  0  0  0  0  0
    2.8107   -2.2052    0.6331 O   0  0  0  0  0  0  0  0  0  0  0  0
    4.8178   -1.1469   -0.1107 O   0  5  0  0  0  0  0  0  0  0  0  0
    3.8402    2.2467   -1.4495 C   0  0  0  0  0  0  0  0  0  0  0  0
    6.1468    1.7567   -2.3504 C   0  0  0  0  0  0  0  0  0  0  0  0
    4.9451    0.1805   -1.6511 C   0  0  0  0  0  0  0  0  0  0  0  0
    1.2194    2.4045    0.2553 O   0  0  0  0  0  0  0  0  0  0  0  0
   -3.8726   -2.1703   -6.2793 C   0  0  0  0  0  0  0  0  0  0  0  0
   -3.0523   -2.7306   -5.1554 C   0  0  0  0  0  0  0  0  0  0  0  0
    1.9888    0.7724   -3.8929 C   0  0  0  0  0  0  0  0  0  0  0  0
    1.9573   -0.4733   -4.7294 C   0  0  0  0  0  0  0  0  0  0  0  0
    1.2733   -1.6862   -4.1060 C   0  0  0  0  0  0  0  0  0  0  0  0
   -0.1866   -1.4086   -3.7552 C   0  0  0  0  0  0  0  0  0  0  0  0
   -0.9173   -0.8026   -4.9589 C   0  0  0  0  0  0  0  0  0  0  0  0
   -0.9459   -1.8109   -6.1105 C   0  0  0  0  0  0  0  0  0  0  0  0
   -1.6639   -3.0781   -5.6643 C   0  0  0  0  0  0  0  0  0  0  0  0
    2.9742    1.5182   -3.9503 O   0  0  0  0  0  0  0  0  0  0  0  0
   -4.9620   -2.7764   -6.7428 C   0  0  0  0  0  0  0  0  0  0  0  0
   -5.4707   -4.0259   -6.1340 C   0  0  0  0  0  0  0  0  0  0  0  0
   -6.8594   -3.8243   -5.6634 C   0  0  0  0  0  0  0  0  0  0  0  0
   -7.8660   -4.5748   -6.1067 C   0  0  0  0  0  0  0  0  0  0  0  0
   -7.6764   -5.7033   -7.0779 C   0  0  0  0  0  0  0  0  0  0  0  0
   -8.0640   -7.0260   -6.4367 C   0  0  0  0  0  0  0  0  0  0  0  0
   -9.5557   -7.0646   -6.1176 C   0  0  0  0  0  0  0  0  0  0  0  0
  -10.4101   -6.7926   -7.3590 C   0  0  0  0  0  0  0  0  0  0  0  0
  -10.1570   -7.8366   -8.4356 C   0  0  0  0  0  0  0  0  0  0  0  0
    6.2860    5.5325    3.6498 C   0  0  0  0  0  0  0  0  0  0  0  0
    5.5093    4.3453    4.1322 C   0  0  0  0  0  0  0  0  0  0  0  0
    0.0679    2.8528    0.8504 C   0  0  0  0  0  0  0  0  0  0  0  0
    0.3011    3.8774    1.9713 C   0  0  0  0  0  0  0  0  0  0  0  0
    1.0192    3.3585    3.2164 C   0  0  0  0  0  0  0  0  0  0  0  0
    2.4543    3.0590    2.8866 C   0  0  0  0  0  0  0  0  0  0  0  0
    3.2199    4.2595    2.3039 C   0  0  0  0  0  0  0  0  0  0  0  0
    3.3337    5.3321    3.3849 C   0  0  0  0  0  0  0  0  0  0  0  0
    4.1235    4.7867    4.5723 C   0  0  0  0  0  0  0  0  0  0  0  0
   -1.0214    2.5340    0.4769 O   0  0  0  0  0  0  0  0  0  0  0  0
    7.3814    5.9698    4.2653 C   0  0  0  0  0  0  0  0  0  0  0  0
    7.9445    5.2706    5.4431 C   0  0  0  0  0  0  0  0  0  0  0  0
    9.3394    4.8630    5.1618 C   0  0  0  0  0  0  0  0  0  0  0  0
   10.3555    5.2703    5.9200 C   0  0  0  0  0  0  0  0  0  0  0  0
   10.1739    6.1319    7.1357 C   0  0  0  0  0  0  0  0  0  0  0  0
   10.6207    5.3891    8.3846 C   0  0  0  0  0  0  0  0  0  0  0  0
   12.1215    5.1144    8.3523 C   0  0  0  0  0  0  0  0  0  0  0  0
   12.9313    6.4010    8.1675 C   0  0  0  0  0  0  0  0  0  0  0  0
   12.6803    7.3731    9.3100 C   0  0  0  0  0  0  0  0  0  0  0  0
    2.0151    0.9823   -0.9740 H   0  0  0  0  0  0  0  0  0  0  0  0
   -0.3903    2.2694   -2.0941 H   0  0  0  0  0  0  0  0  0  0  0  0
    1.2479    2.8585   -2.3132 H   0  0  0  0  0  0  0  0  0  0  0  0
   -0.3700    0.0627    0.2841 H   0  0  0  0  0  0  0  0  0  0  0  0
    0.6327   -0.7597   -0.9406 H   0  0  0  0  0  0  0  0  0  0  0  0
    3.5819    1.8556    1.1562 H   0  0  0  0  0  0  0  0  0  0  0  0
    4.7381    1.6193    2.4080 H   0  0  0  0  0  0  0  0  0  0  0  0
    5.7009    2.7073    0.4685 H   0  0  0  0  0  0  0  0  0  0  0  0
    6.4366    1.0522    0.4888 H   0  0  0  0  0  0  0  0  0  0  0  0
    3.8253    3.2712   -1.7679 H   0  0  0  0  0  0  0  0  0  0  0  0
    3.2672    1.5892   -2.0622 H   0  0  0  0  0  0  0  0  0  0  0  0
    3.3312    2.1866   -0.5094 H   0  0  0  0  0  0  0  0  0  0  0  0
    7.0534    1.2342   -2.0218 H   0  0  0  0  0  0  0  0  0  0  0  0
    5.7671    1.2372   -3.2613 H   0  0  0  0  0  0  0  0  0  0  0  0
    6.2598    2.8001   -2.5637 H   0  0  0  0  0  0  0  0  0  0  0  0
    5.8832   -0.3911   -1.5287 H   0  0  0  0  0  0  0  0  0  0  0  0
    4.1949    0.2359   -0.9450 H   0  0  0  0  0  0  0  0  0  0  0  0
    4.2456   -0.2495   -2.3834 H   0  0  0  0  0  0  0  0  0  0  0  0
   -3.5527   -1.2562   -6.7734 H   0  0  0  0  0  0  0  0  0  0  0  0
   -3.4319   -3.6358   -4.6915 H   0  0  0  0  0  0  0  0  0  0  0  0
   -3.0714   -2.0186   -4.3276 H   0  0  0  0  0  0  0  0  0  0  0  0
    1.5072   -0.1744   -5.6801 H   0  0  0  0  0  0  0  0  0  0  0  0
    2.9876   -0.7600   -4.9657 H   0  0  0  0  0  0  0  0  0  0  0  0
    1.3253   -2.5099   -4.8320 H   0  0  0  0  0  0  0  0  0  0  0  0
    1.8138   -2.0481   -3.2259 H   0  0  0  0  0  0  0  0  0  0  0  0
   -0.6606   -2.3197   -3.3803 H   0  0  0  0  0  0  0  0  0  0  0  0
   -0.2848   -0.7467   -2.8992 H   0  0  0  0  0  0  0  0  0  0  0  0
   -1.9156   -0.4789   -4.6522 H   0  0  0  0  0  0  0  0  0  0  0  0
   -0.4678    0.1306   -5.3075 H   0  0  0  0  0  0  0  0  0  0  0  0
   -1.4326   -1.3626   -6.9809 H   0  0  0  0  0  0  0  0  0  0  0  0
    0.0586   -2.0665   -6.4591 H   0  0  0  0  0  0  0  0  0  0  0  0
   -1.7067   -3.8056   -6.4820 H   0  0  0  0  0  0  0  0  0  0  0  0
   -1.1164   -3.5912   -4.8650 H   0  0  0  0  0  0  0  0  0  0  0  0
   -5.4905   -2.3707   -7.6035 H   0  0  0  0  0  0  0  0  0  0  0  0
   -5.3049   -4.7908   -6.8868 H   0  0  0  0  0  0  0  0  0  0  0  0
   -4.9376   -4.4110   -5.2695 H   0  0  0  0  0  0  0  0  0  0  0  0
   -7.0365   -3.0532   -4.9144 H   0  0  0  0  0  0  0  0  0  0  0  0
   -8.8593   -4.3727   -5.7145 H   0  0  0  0  0  0  0  0  0  0  0  0
   -8.2283   -5.4707   -7.9905 H   0  0  0  0  0  0  0  0  0  0  0  0
   -6.6591   -5.8385   -7.4375 H   0  0  0  0  0  0  0  0  0  0  0  0
   -7.7897   -7.8388   -7.1185 H   0  0  0  0  0  0  0  0  0  0  0  0
   -7.4733   -7.2024   -5.5281 H   0  0  0  0  0  0  0  0  0  0  0  0
   -9.8071   -8.0391   -5.6888 H   0  0  0  0  0  0  0  0  0  0  0  0
   -9.7914   -6.3243   -5.3439 H   0  0  0  0  0  0  0  0  0  0  0  0
  -11.4661   -6.7856   -7.0778 H   0  0  0  0  0  0  0  0  0  0  0  0
  -10.2143   -5.7936   -7.7665 H   0  0  0  0  0  0  0  0  0  0  0  0
  -10.3951   -8.8322   -8.0508 H   0  0  0  0  0  0  0  0  0  0  0  0
  -10.7681   -7.6364   -9.3173 H   0  0  0  0  0  0  0  0  0  0  0  0
   -9.1135   -7.8443   -8.7684 H   0  0  0  0  0  0  0  0  0  0  0  0
    5.9238    6.1011    2.7977 H   0  0  0  0  0  0  0  0  0  0  0  0
    5.9329    3.8104    4.9781 H   0  0  0  0  0  0  0  0  0  0  0  0
    5.5231    3.5896    3.3459 H   0  0  0  0  0  0  0  0  0  0  0  0
    0.7697    4.7763    1.5572 H   0  0  0  0  0  0  0  0  0  0  0  0
   -0.6910    4.1972    2.2927 H   0  0  0  0  0  0  0  0  0  0  0  0
    0.9666    4.0690    4.0469 H   0  0  0  0  0  0  0  0  0  0  0  0
    0.5600    2.4281    3.5655 H   0  0  0  0  0  0  0  0  0  0  0  0
    2.9962    2.5939    3.7160 H   0  0  0  0  0  0  0  0  0  0  0  0
    2.3288    2.2426    2.2027 H   0  0  0  0  0  0  0  0  0  0  0  0
    4.2088    3.9668    1.9361 H   0  0  0  0  0  0  0  0  0  0  0  0
    2.7595    4.6754    1.4049 H   0  0  0  0  0  0  0  0  0  0  0  0
    3.8017    6.2333    2.9779 H   0  0  0  0  0  0  0  0  0  0  0  0
    2.3450    5.6536    3.7189 H   0  0  0  0  0  0  0  0  0  0  0  0
    4.1783    5.5342    5.3708 H   0  0  0  0  0  0  0  0  0  0  0  0
    3.6212    3.9298    5.0348 H   0  0  0  0  0  0  0  0  0  0  0  0
    7.8733    6.8807    3.9278 H   0  0  0  0  0  0  0  0  0  0  0  0
    7.7816    5.9487    6.2758 H   0  0  0  0  0  0  0  0  0  0  0  0
    7.4477    4.3597    5.7651 H   0  0  0  0  0  0  0  0  0  0  0  0
    9.5158    4.1892    4.3245 H   0  0  0  0  0  0  0  0  0  0  0  0
   11.3532    4.9281    5.6572 H   0  0  0  0  0  0  0  0  0  0  0  0
   10.6922    7.0782    6.9697 H   0  0  0  0  0  0  0  0  0  0  0  0
    9.1513    6.4462    7.3314 H   0  0  0  0  0  0  0  0  0  0  0  0
   10.3526    5.9878    9.2624 H   0  0  0  0  0  0  0  0  0  0  0  0
   10.0621    4.4505    8.4964 H   0  0  0  0  0  0  0  0  0  0  0  0
   12.4152    4.6096    9.2772 H   0  0  0  0  0  0  0  0  0  0  0  0
   12.3560    4.4166    7.5398 H   0  0  0  0  0  0  0  0  0  0  0  0
   13.9941    6.1545    8.1055 H   0  0  0  0  0  0  0  0  0  0  0  0
   12.6929    6.8886    7.2148 H   0  0  0  0  0  0  0  0  0  0  0  0
   12.9601    6.9097   10.2602 H   0  0  0  0  0  0  0  0  0  0  0  0
   13.2594    8.2875    9.1717 H   0  0  0  0  0  0  0  0  0  0  0  0
   11.6284    7.6712    9.3770 H   0  0  0  0  0  0  0  0  0  0  0  0
  1  2  1  0  0  0  0
  1 16  1  0  0  0  0
  1 55  1  6  0  0  0
  2  3  1  0  0  0  0
  2 56  1  0  0  0  0
  2 57  1  0  0  0  0
  4  1  1  0  0  0  0
  4 58  1  0  0  0  0
  4 59  1  0  0  0  0
  5  4  1  0  0  0  0
  5 10  1  0  0  0  0
  7  6  1  0  0  0  0
  7 60  1  0  0  0  0
  7 61  1  0  0  0  0
  8  7  1  0  0  0  0
  8 62  1  0  0  0  0
  8 63  1  0  0  0  0
  9  8  1  0  0  0  0
  9 13  1  0  0  0  0
  9 14  1  0  0  0  0
  9 15  1  0  0  0  0
 10  6  1  0  0  0  0
 10 11  2  0  0  0  0
 10 12  1  0  0  0  0
 13 64  1  0  0  0  0
 13 65  1  0  0  0  0
 13 66  1  0  0  0  0
 14 67  1  0  0  0  0
 14 68  1  0  0  0  0
 14 69  1  0  0  0  0
 15 70  1  0  0  0  0
 15 71  1  0  0  0  0
 15 72  1  0  0  0  0
 17 73  1  0  0  0  0
 18 17  1  0  0  0  0
 18 74  1  0  0  0  0
 18 75  1  0  0  0  0
 19 26  2  0  0  0  0
 19  3  1  0  0  0  0
 19 20  1  0  0  0  0
 20 21  1  0  0  0  0
 20 76  1  0  0  0  0
 20 77  1  0  0  0  0
 21 22  1  0  0  0  0
 21 78  1  0  0  0  0
 21 79  1  0  0  0  0
 22 23  1  0  0  0  0
 22 80  1  0  0  0  0
 22 81  1  0  0  0  0
 23 24  1  0  0  0  0
 23 82  1  0  0  0  0
 23 83  1  0  0  0  0
 24 25  1  0  0  0  0
 24 84  1  0  0  0  0
 24 85  1  0  0  0  0
 25 18  1  0  0  0  0
 25 86  1  0  0  0  0
 25 87  1  0  0  0  0
 27 17  2  0  0  0  0
 27 88  1  0  0  0  0
 28 27  1  0  0  0  0
 28 89  1  0  0  0  0
 28 90  1  0  0  0  0
 29 28  1  0  0  0  0
 29 91  1  0  0  0  0
 30 29  2  0  0  0  0
 30 92  1  0  0  0  0
 31 30  1  0  0  0  0
 31 93  1  0  0  0  0
 31 94  1  0  0  0  0
 32 31  1  0  0  0  0
 32 95  1  0  0  0  0
 32 96  1  0  0  0  0
 33 32  1  0  0  0  0
 33 97  1  0  0  0  0
 33 98  1  0  0  0  0
 34 33  1  0  0  0  0
 34 99  1  0  0  0  0
 34100  1  0  0  0  0
 35 34  1  0  0  0  0
 35101  1  0  0  0  0
 35102  1  0  0  0  0
 35103  1  0  0  0  0
 36104  1  0  0  0  0
 37 36  1  0  0  0  0
 37105  1  0  0  0  0
 37106  1  0  0  0  0
 38 45  2  0  0  0  0
 38 16  1  0  0  0  0
 38 39  1  0  0  0  0
 39 40  1  0  0  0  0
 39107  1  0  0  0  0
 39108  1  0  0  0  0
 40 41  1  0  0  0  0
 40109  1  0  0  0  0
 40110  1  0  0  0  0
 41 42  1  0  0  0  0
 41111  1  0  0  0  0
 41112  1  0  0  0  0
 42 43  1  0  0  0  0
 42113  1  0  0  0  0
 42114  1  0  0  0  0
 43 44  1  0  0  0  0
 43115  1  0  0  0  0
 43116  1  0  0  0  0
 44 37  1  0  0  0  0
 44117  1  0  0  0  0
 44118  1  0  0  0  0
 46 36  2  0  0  0  0
 46119  1  0  0  0  0
 47 46  1  0  0  0  0
 47120  1  0  0  0  0
 47121  1  0  0  0  0
 48 47  1  0  0  0  0
 48122  1  0  0  0  0
 49 48  2  0  0  0  0
 49123  1  0  0  0  0
 50 49  1  0  0  0  0
 50124  1  0  0  0  0
 50125  1  0  0  0  0
 51 50  1  0  0  0  0
 51126  1  0  0  0  0
 51127  1  0  0  0  0
 52 51  1  0  0  0  0
 52128  1  0  0  0  0
 52129  1  0  0  0  0
 53 52  1  0  0  0  0
 53130  1  0  0  0  0
 53131  1  0  0  0  0
 54 53  1  0  0  0  0
 54132  1  0  0  0  0
 54133  1  0  0  0  0
 54134  1  0  0  0  0
M  CHG  2   9   1  12  -1
M  END
>  <DRUGBANK_ID>
DB04372

>  <SECONDARY_ACCESSION_NUMBERS>
EXPT01218

>  <COMMON_NAME>
L-Dilinoleoyllecithin

>  <CAS_NUMBER>
998-06-1

>  <UNII>
7L874P1M1O

>  <SYNONYMS>
(2R)-2,3-bis[(9Z,12Z)-octadeca-9,12-dienoyloxy]propyl 2-(trimethylammonio)ethyl phosphate; 1,2-di-(9Z,12Z-octadecadienoyl)-sn-glycero-3-phosphocholine; 1,2-di-O-linoleoyl-sn-glycero-3-phosphocholine; 1,2-dilinoleoyl-sn-glycero-3-phosphocholine; dilinoleoylphosphatidylcholine; DL-PC; DLNPC; DLPC; L-Dilinoleoyllecithin

$$$$
