
 OpenBabel10282417163D

 39 42  0  0  0  0  0  0  0  0999 V2000
   -1.8914    0.2139    0.0298 Br  0  0  0  0  0  0  0  0  0  0  0  0
    3.8071   -1.6651    7.5251 F   0  0  0  0  0  0  0  0  0  0  0  0
    3.1793    1.3823    0.0515 F   0  0  0  0  0  0  0  0  0  0  0  0
    3.8339   -4.2312    0.8643 O   0  0  0  0  0  0  0  0  0  0  0  0
    3.3840   -5.4955    3.8806 O   0  0  0  0  0  0  0  0  0  0  0  0
   -0.4974   -3.2989    3.0207 O   0  0  0  0  0  0  0  0  0  0  0  0
    6.4291   -1.1640    1.7730 O   0  0  0  0  0  0  0  0  0  0  0  0
    4.3212   -2.0101    1.3227 N   0  0  0  0  0  0  0  0  0  0  0  0
    1.2943   -4.6458    3.5272 N   0  0  0  0  0  0  0  0  0  0  0  0
    3.0944   -3.2447    2.9753 C   0  0  2  0  0  0  0  0  0  0  0  0
    1.7594   -2.5093    2.8113 C   0  0  0  0  0  0  0  0  0  0  0  0
    3.9058   -2.4799    3.9992 C   0  0  0  0  0  0  0  0  0  0  0  0
    3.8137   -3.2671    1.6201 C   0  0  0  0  0  0  0  0  0  0  0  0
    2.6567   -4.6050    3.4737 C   0  0  0  0  0  0  0  0  0  0  0  0
    5.0207   -1.7239    3.5921 C   0  0  0  0  0  0  0  0  0  0  0  0
    0.7079   -3.4979    3.1411 C   0  0  0  0  0  0  0  0  0  0  0  0
    5.3521   -1.6119    2.1431 C   0  0  0  0  0  0  0  0  0  0  0  0
    3.4953   -2.4405    5.3379 C   0  0  0  0  0  0  0  0  0  0  0  0
    4.1387   -1.3598    0.0160 C   0  0  0  0  0  0  0  0  0  0  0  0
    5.7297   -0.9621    4.5206 C   0  0  0  0  0  0  0  0  0  0  0  0
    4.2084   -1.6845    6.2498 C   0  0  0  0  0  0  0  0  0  0  0  0
    2.6800   -0.9302   -0.1663 C   0  0  0  0  0  0  0  0  0  0  0  0
    5.3203   -0.9496    5.8551 C   0  0  0  0  0  0  0  0  0  0  0  0
    2.2683    0.4057   -0.0565 C   0  0  0  0  0  0  0  0  0  0  0  0
    1.6746   -1.8999   -0.3330 C   0  0  0  0  0  0  0  0  0  0  0  0
    0.9139    0.7621   -0.0428 C   0  0  0  0  0  0  0  0  0  0  0  0
    0.3168   -1.5635   -0.2122 C   0  0  0  0  0  0  0  0  0  0  0  0
   -0.0585   -0.2316   -0.0845 C   0  0  0  0  0  0  0  0  0  0  0  0
    0.7700   -5.4470    3.8436 H   0  0  0  0  0  0  0  0  0  0  0  0
    1.5835   -2.2755    1.7905 H   0  0  0  0  0  0  0  0  0  0  0  0
    1.6458   -1.5797    3.3744 H   0  0  0  0  0  0  0  0  0  0  0  0
    2.6159   -2.9789    5.6824 H   0  0  0  0  0  0  0  0  0  0  0  0
    4.4302   -2.0189   -0.8067 H   0  0  0  0  0  0  0  0  0  0  0  0
    4.7758   -0.4668   -0.0167 H   0  0  0  0  0  0  0  0  0  0  0  0
    6.5773   -0.3585    4.2029 H   0  0  0  0  0  0  0  0  0  0  0  0
    5.8568   -0.3617    6.5911 H   0  0  0  0  0  0  0  0  0  0  0  0
    1.9379   -2.9571   -0.3705 H   0  0  0  0  0  0  0  0  0  0  0  0
    0.6325    1.8093    0.0216 H   0  0  0  0  0  0  0  0  0  0  0  0
   -0.4271   -2.3569   -0.1409 H   0  0  0  0  0  0  0  0  0  0  0  0
  1 28  1  0  0  0  0
  2 21  1  0  0  0  0
  3 24  1  0  0  0  0
  4 13  2  0  0  0  0
  5 14  2  0  0  0  0
  6 16  2  0  0  0  0
  7 17  2  0  0  0  0
  8 13  1  0  0  0  0
  8 17  1  0  0  0  0
  8 19  1  0  0  0  0
  9 14  1  0  0  0  0
  9 16  1  0  0  0  0
  9 29  1  0  0  0  0
 10 11  1  0  0  0  0
 10 12  1  1  0  0  0
 10 13  1  0  0  0  0
 10 14  1  0  0  0  0
 11 16  1  0  0  0  0
 11 30  1  0  0  0  0
 11 31  1  0  0  0  0
 12 15  2  0  0  0  0
 12 18  1  0  0  0  0
 15 17  1  0  0  0  0
 15 20  1  0  0  0  0
 18 21  2  0  0  0  0
 18 32  1  0  0  0  0
 19 22  1  0  0  0  0
 19 33  1  0  0  0  0
 19 34  1  0  0  0  0
 20 23  2  0  0  0  0
 20 35  1  0  0  0  0
 21 23  1  0  0  0  0
 22 24  2  0  0  0  0
 22 25  1  0  0  0  0
 23 36  1  0  0  0  0
 24 26  1  0  0  0  0
 25 27  2  0  0  0  0
 25 37  1  0  0  0  0
 26 28  2  0  0  0  0
 26 38  1  0  0  0  0
 27 28  1  0  0  0  0
 27 39  1  0  0  0  0
M  END
>  <DRUGBANK_ID>
DB07450

>  <COMMON_NAME>
(R)-minalrestat

$$$$
