
 OpenBabel10282417173D

 53 53  0  0  0  0  0  0  0  0999 V2000
    0.9518   -0.0040   -0.0876 P   0  0  2  0  0  0  0  0  0  0  0  0
    1.0318   -0.8376   -1.4923 O   0  0  0  0  0  0  0  0  0  0  0  0
    1.0409   -1.1207    1.1152 O   0  0  0  0  0  0  0  0  0  0  0  0
   -0.5965   -0.0040   -0.0876 O   0  0  0  0  0  0  0  0  0  0  0  0
    1.9450    0.1563   -3.5062 C   0  0  2  0  0  0  0  0  0  0  0  0
    0.6667   -0.1399   -2.7109 C   0  0  2  0  0  0  0  0  0  0  0  0
    2.8002    1.1700   -2.7760 C   0  0  0  0  0  0  0  0  0  0  0  0
    0.7186    2.3168   -1.7084 C   0  0  2  0  0  0  0  0  0  0  0  0
   -0.0964    1.1520   -2.4149 C   0  0  0  0  0  0  0  0  0  0  0  0
    2.1877    2.4214   -2.1859 C   0  0  0  0  0  0  0  0  0  0  0  0
    2.1344    0.4422   -4.9733 C   0  0  0  0  0  0  0  0  0  0  0  0
    0.6045    2.7008   -0.1609 C   0  0  0  0  0  0  0  0  0  0  0  0
    1.6375   -0.7413   -5.7839 C   0  0  0  0  0  0  0  0  0  0  0  0
    1.5479    1.7767   -5.3221 C   0  0  0  0  0  0  0  0  0  0  0  0
    2.7818   -0.0040   -0.0876 C   0  0  0  0  0  0  0  0  0  0  0  0
    3.4187   -1.4868    0.0383 C   0  0  0  0  0  0  0  0  0  0  0  0
    3.1590   -2.5295   -1.0669 C   0  0  0  0  0  0  0  0  0  0  0  0
    3.7599   -2.0557   -2.3621 C   0  0  0  0  0  0  0  0  0  0  0  0
    5.2320   -1.8371   -2.5196 C   0  0  0  0  0  0  0  0  0  0  0  0
    5.8333   -3.1975   -2.5947 C   0  0  0  0  0  0  0  0  0  0  0  0
    1.4705   -0.7767    1.9252 H   0  0  0  0  0  0  0  0  0  0  0  0
    2.3457   -0.8392   -3.5349 H   0  0  0  0  0  0  0  0  0  0  0  0
    0.0574   -0.8716   -3.2556 H   0  0  0  0  0  0  0  0  0  0  0  0
    2.9749    0.5654   -1.9185 H   0  0  0  0  0  0  0  0  0  0  0  0
    3.8342    1.2803   -3.1011 H   0  0  0  0  0  0  0  0  0  0  0  0
    0.2163    3.1931   -2.1269 H   0  0  0  0  0  0  0  0  0  0  0  0
   -0.4338    1.5139   -3.3836 H   0  0  0  0  0  0  0  0  0  0  0  0
   -1.0482    0.9274   -1.9273 H   0  0  0  0  0  0  0  0  0  0  0  0
    2.2574    3.2401   -2.9036 H   0  0  0  0  0  0  0  0  0  0  0  0
    2.8477    2.7510   -1.3712 H   0  0  0  0  0  0  0  0  0  0  0  0
    3.2249    0.4901   -5.1471 H   0  0  0  0  0  0  0  0  0  0  0  0
   -0.4277    2.3499   -0.0823 H   0  0  0  0  0  0  0  0  0  0  0  0
    1.6269    2.3740    0.0800 H   0  0  0  0  0  0  0  0  0  0  0  0
    0.5640    2.3191    0.8937 H   0  0  0  0  0  0  0  0  0  0  0  0
    0.6189   -1.0075   -5.4983 H   0  0  0  0  0  0  0  0  0  0  0  0
    1.6873   -0.5205   -6.8482 H   0  0  0  0  0  0  0  0  0  0  0  0
    2.2701   -1.6227   -5.5941 H   0  0  0  0  0  0  0  0  0  0  0  0
    2.0415    2.5663   -4.7532 H   0  0  0  0  0  0  0  0  0  0  0  0
    1.6975    2.0188   -6.3683 H   0  0  0  0  0  0  0  0  0  0  0  0
    0.4881    1.7936   -5.0887 H   0  0  0  0  0  0  0  0  0  0  0  0
    3.5184    0.7369   -0.4159 H   0  0  0  0  0  0  0  0  0  0  0  0
    2.9043    0.3390    0.9593 H   0  0  0  0  0  0  0  0  0  0  0  0
    4.4971   -1.3800    0.1740 H   0  0  0  0  0  0  0  0  0  0  0  0
    3.0763   -1.9585    0.9655 H   0  0  0  0  0  0  0  0  0  0  0  0
    3.5397   -3.5163   -0.7956 H   0  0  0  0  0  0  0  0  0  0  0  0
    2.0852   -2.7091   -1.2064 H   0  0  0  0  0  0  0  0  0  0  0  0
    3.3278   -2.5776   -3.2263 H   0  0  0  0  0  0  0  0  0  0  0  0
    3.5000   -1.0397   -2.3626 H   0  0  0  0  0  0  0  0  0  0  0  0
    5.4030   -1.2599   -3.4419 H   0  0  0  0  0  0  0  0  0  0  0  0
    5.6247   -1.2196   -1.7040 H   0  0  0  0  0  0  0  0  0  0  0  0
    5.4258   -3.7100   -3.4730 H   0  0  0  0  0  0  0  0  0  0  0  0
    6.9136   -3.1321   -2.6631 H   0  0  0  0  0  0  0  0  0  0  0  0
    5.5507   -3.7668   -1.7059 H   0  0  0  0  0  0  0  0  0  0  0  0
  1  2  1  0  0  0  0
  1  3  1  0  0  0  0
  1  4  2  1  0  0  0
  1 15  1  0  0  0  0
  3 21  1  0  0  0  0
  5  6  1  0  0  0  0
  5  7  1  0  0  0  0
  5 22  1  1  0  0  0
  5 11  1  0  0  0  0
  6  2  1  0  0  0  0
  6  9  1  0  0  0  0
  6 23  1  6  0  0  0
  7 10  1  0  0  0  0
  7 24  1  0  0  0  0
  7 25  1  0  0  0  0
  8  9  1  0  0  0  0
  8 10  1  0  0  0  0
  8 26  1  6  0  0  0
  8 12  1  0  0  0  0
  9 27  1  0  0  0  0
  9 28  1  0  0  0  0
 10 29  1  0  0  0  0
 10 30  1  0  0  0  0
 11 13  1  0  0  0  0
 11 14  1  0  0  0  0
 11 31  1  0  0  0  0
 12 32  1  0  0  0  0
 12 33  1  0  0  0  0
 12 34  1  0  0  0  0
 13 35  1  0  0  0  0
 13 36  1  0  0  0  0
 13 37  1  0  0  0  0
 14 38  1  0  0  0  0
 14 39  1  0  0  0  0
 14 40  1  0  0  0  0
 15 16  1  0  0  0  0
 15 41  1  0  0  0  0
 15 42  1  0  0  0  0
 16 17  1  0  0  0  0
 16 43  1  0  0  0  0
 16 44  1  0  0  0  0
 17 18  1  0  0  0  0
 17 45  1  0  0  0  0
 17 46  1  0  0  0  0
 18 19  1  0  0  0  0
 18 47  1  0  0  0  0
 18 48  1  0  0  0  0
 19 20  1  0  0  0  0
 19 49  1  0  0  0  0
 19 50  1  0  0  0  0
 20 51  1  0  0  0  0
 20 52  1  0  0  0  0
 20 53  1  0  0  0  0
M  END
>  <DRUGBANK_ID>
DB08201

>  <COMMON_NAME>
(1S)-menthyl hexyl phosphonate group

$$$$
