
 OpenBabel10282417193D

 68 71  0  0  1  0  0  0  0  0999 V2000
   -0.0316    7.6787   -2.7324 C   0  0  0  0  0  0  0  0  0  0  0  0
    0.9962    7.1949   -1.7412 C   0  0  0  0  0  0  0  0  0  0  0  0
    0.6026    6.9974   -0.4695 N   0  0  0  0  0  0  0  0  0  0  0  0
    1.5630    6.6386    0.4149 C   0  0  0  0  0  0  0  0  0  0  0  0
    2.8596    6.3975    0.0470 C   0  0  0  0  0  0  0  0  0  0  0  0
    3.1860    6.5861   -1.2742 C   0  0  0  0  0  0  0  0  0  0  0  0
    2.2672    7.0337   -2.1655 N   0  0  0  0  0  0  0  0  0  0  0  0
    4.4777    6.3592   -1.6965 N   0  0  0  0  0  0  0  0  0  0  0  0
    5.2132    7.4769   -2.2579 C   0  0  0  0  0  0  0  0  0  0  0  0
    6.7228    7.4618   -1.9199 C   0  0  0  0  0  0  0  0  0  0  0  0
    7.2497    6.4580   -1.0297 N   0  0  3  0  0  0  0  0  0  0  0  0
    8.5986    6.6155   -0.5327 C   0  0  0  0  0  0  0  0  0  0  0  0
    9.3408    5.2776   -0.4488 C   0  0  0  0  0  0  0  0  0  0  0  0
    8.5482    4.2583    0.1747 O   0  0  0  0  0  0  0  0  0  0  0  0
    7.3224    4.0602   -0.5518 C   0  0  0  0  0  0  0  0  0  0  0  0
    6.4489    5.3359   -0.5602 C   0  0  2  0  0  0  0  0  0  0  0  0
    5.1877    5.1105   -1.4291 C   0  0  0  0  0  0  0  0  0  0  0  0
    3.7792    6.0228    0.9514 F   0  0  0  0  0  0  0  0  0  0  0  0
    1.1420    6.6065    1.7585 N   0  0  0  0  0  0  0  0  0  0  0  0
    1.9051    5.8726    2.6830 N   0  0  0  0  0  0  0  0  0  0  0  0
    1.5781    5.7339    4.0099 C   0  0  0  0  0  0  0  0  0  0  0  0
    2.4902    5.4823    4.8071 O   0  0  0  0  0  0  0  0  0  0  0  0
    0.1548    5.9397    4.5248 C   0  0  2  0  0  0  0  0  0  0  0  0
   -0.1861    4.8480    5.5611 C   0  0  0  0  0  0  0  0  0  0  0  0
   -0.6717    5.3762    6.9225 C   0  0  0  0  0  0  0  0  0  0  0  0
   -0.6704    6.8948    7.1054 C   0  0  0  0  0  0  0  0  0  0  0  0
   -0.5960    7.1549    8.5925 C   0  0  0  0  0  0  0  0  0  0  0  0
   -0.1063    5.8522    9.2117 C   0  0  0  0  0  0  0  0  0  0  0  0
    0.2431    4.9236    8.0554 C   0  0  0  0  0  0  0  0  0  0  0  0
   -0.9362    6.0910    3.4910 C   0  0  0  0  0  0  0  0  0  0  0  0
   -2.2581    6.4019    3.9684 N   0  0  0  0  0  0  0  0  0  0  0  0
   -3.0088    7.4620    3.5278 C   0  0  0  0  0  0  0  0  0  0  0  0
   -4.1797    7.6383    3.8103 O   0  0  0  0  0  0  0  0  0  0  0  0
   -2.9438    5.3331    4.5675 O   0  0  0  0  0  0  0  0  0  0  0  0
   -0.9937    7.1716   -2.5934 H   0  0  0  0  0  0  0  0  0  0  0  0
    0.2968    7.4906   -3.7599 H   0  0  0  0  0  0  0  0  0  0  0  0
   -0.1977    8.7558   -2.6205 H   0  0  0  0  0  0  0  0  0  0  0  0
    5.1005    7.4418   -3.3453 H   0  0  0  0  0  0  0  0  0  0  0  0
    4.8033    8.4332   -1.9060 H   0  0  0  0  0  0  0  0  0  0  0  0
    7.2569    7.3414   -2.8690 H   0  0  0  0  0  0  0  0  0  0  0  0
    6.9928    8.4543   -1.5397 H   0  0  0  0  0  0  0  0  0  0  0  0
    8.5698    7.0879    0.4557 H   0  0  0  0  0  0  0  0  0  0  0  0
    9.1728    7.2807   -1.1892 H   0  0  0  0  0  0  0  0  0  0  0  0
   10.2562    5.4069    0.1382 H   0  0  0  0  0  0  0  0  0  0  0  0
    9.6384    4.9392   -1.4493 H   0  0  0  0  0  0  0  0  0  0  0  0
    7.5678    3.7424   -1.5739 H   0  0  0  0  0  0  0  0  0  0  0  0
    6.7895    3.2328   -0.0717 H   0  0  0  0  0  0  0  0  0  0  0  0
    6.1397    5.5460    0.4727 H   0  0  0  0  0  0  0  0  0  0  0  0
    5.4884    4.7120   -2.4058 H   0  0  0  0  0  0  0  0  0  0  0  0
    4.5342    4.3509   -0.9797 H   0  0  0  0  0  0  0  0  0  0  0  0
    0.1788    6.3246    1.6010 H   0  0  0  0  0  0  0  0  0  0  0  0
    2.9175    5.8859    2.5361 H   0  0  0  0  0  0  0  0  0  0  0  0
    0.2341    6.9356    4.9549 H   0  0  0  0  0  0  0  0  0  0  0  0
   -0.9535    4.1770    5.1519 H   0  0  0  0  0  0  0  0  0  0  0  0
    0.6528    4.1560    5.7102 H   0  0  0  0  0  0  0  0  0  0  0  0
   -1.6836    4.9894    7.1135 H   0  0  0  0  0  0  0  0  0  0  0  0
    0.2446    7.3484    6.7166 H   0  0  0  0  0  0  0  0  0  0  0  0
   -1.5301    7.3725    6.6249 H   0  0  0  0  0  0  0  0  0  0  0  0
    0.1094    7.9740    8.7777 H   0  0  0  0  0  0  0  0  0  0  0  0
   -1.5680    7.4588    8.9888 H   0  0  0  0  0  0  0  0  0  0  0  0
    0.7597    6.0145    9.8594 H   0  0  0  0  0  0  0  0  0  0  0  0
   -0.9086    5.4188    9.8162 H   0  0  0  0  0  0  0  0  0  0  0  0
    0.0958    3.8700    8.3140 H   0  0  0  0  0  0  0  0  0  0  0  0
    1.2939    5.0559    7.7688 H   0  0  0  0  0  0  0  0  0  0  0  0
   -0.6909    7.0096    2.9596 H   0  0  0  0  0  0  0  0  0  0  0  0
   -0.9662    5.2291    2.8160 H   0  0  0  0  0  0  0  0  0  0  0  0
   -2.4362    8.1589    2.8846 H   0  0  0  0  0  0  0  0  0  0  0  0
   -3.7952    5.7511    4.8107 H   0  0  0  0  0  0  0  0  0  0  0  0
  1  2  1  0  0  0  0
  1 35  1  0  0  0  0
  1 36  1  0  0  0  0
  1 37  1  0  0  0  0
  2  3  2  0  0  0  0
  2  7  1  0  0  0  0
  3  4  1  0  0  0  0
  4  5  2  0  0  0  0
  4 19  1  0  0  0  0
  5  6  1  0  0  0  0
  5 18  1  0  0  0  0
  6  7  2  0  0  0  0
  6  8  1  0  0  0  0
  8  9  1  0  0  0  0
  8 17  1  0  0  0  0
  9 10  1  0  0  0  0
  9 38  1  0  0  0  0
  9 39  1  0  0  0  0
 10 11  1  0  0  0  0
 10 40  1  0  0  0  0
 10 41  1  0  0  0  0
 11 12  1  0  0  0  0
 12 13  1  0  0  0  0
 12 42  1  0  0  0  0
 12 43  1  0  0  0  0
 13 14  1  0  0  0  0
 13 44  1  0  0  0  0
 13 45  1  0  0  0  0
 14 15  1  0  0  0  0
 15 16  1  0  0  0  0
 15 46  1  0  0  0  0
 15 47  1  0  0  0  0
 16 11  1  0  0  0  0
 16 17  1  0  0  0  0
 16 48  1  1  0  0  0
 17 49  1  0  0  0  0
 17 50  1  0  0  0  0
 19 20  1  0  0  0  0
 19 51  1  0  0  0  0
 20 21  1  0  0  0  0
 20 52  1  0  0  0  0
 21 22  2  0  0  0  0
 23 30  1  0  0  0  0
 23 53  1  1  0  0  0
 23 24  1  0  0  0  0
 23 21  1  0  0  0  0
 24 25  1  0  0  0  0
 24 54  1  0  0  0  0
 24 55  1  0  0  0  0
 25 26  1  0  0  0  0
 25 29  1  0  0  0  0
 25 56  1  0  0  0  0
 26 27  1  0  0  0  0
 26 57  1  0  0  0  0
 26 58  1  0  0  0  0
 27 28  1  0  0  0  0
 27 59  1  0  0  0  0
 27 60  1  0  0  0  0
 28 29  1  0  0  0  0
 28 61  1  0  0  0  0
 28 62  1  0  0  0  0
 29 63  1  0  0  0  0
 29 64  1  0  0  0  0
 30 31  1  0  0  0  0
 30 65  1  0  0  0  0
 30 66  1  0  0  0  0
 31 32  1  0  0  0  0
 31 34  1  0  0  0  0
 32 33  2  0  0  0  0
 32 67  1  0  0  0  0
 34 68  1  0  0  0  0
M  END
>  <DRUGBANK_ID>
DB11912

>  <COMMON_NAME>
Lanopepden

>  <CAS_NUMBER>
1152107-25-9

>  <UNII>
12M6KFD07E

>  <SYNONYMS>
Lanopepden

$$$$
