
 OpenBabel10282417193D

 76 80  0  0  1  0  0  0  0  0999 V2000
   -3.7757   -0.4581   -3.0983 C   0  0  0  0  0  0  0  0  0  0  0  0
   -4.5170   -1.6357   -2.7485 C   0  0  0  0  0  0  0  0  0  0  0  0
   -3.3417   -2.6384   -2.4894 C   0  0  2  0  0  0  0  0  0  0  0  0
   -2.8815   -2.5002   -1.0105 C   0  0  0  0  0  0  0  0  0  0  0  0
   -2.0298   -2.5140   -3.5102 C   0  0  2  0  0  0  0  0  0  0  0  0
   -1.0753   -3.6891   -3.0893 C   0  0  0  0  0  0  0  0  0  0  0  0
   -1.3514   -4.5969   -2.3306 O   0  0  0  0  0  0  0  0  0  0  0  0
    0.1528   -3.6954   -3.6877 N   0  0  0  0  0  0  0  0  0  0  0  0
    0.4912   -2.8240   -4.7811 C   0  0  1  0  0  0  0  0  0  0  0  0
    0.1139   -1.4169   -4.3466 C   0  0  0  0  0  0  0  0  0  0  0  0
    0.9225   -0.5419   -4.5155 O   0  0  0  0  0  0  0  0  0  0  0  0
   -1.1056   -1.1968   -3.7306 N   0  0  0  0  0  0  0  0  0  0  0  0
   -1.3763    0.3269   -3.3398 C   0  0  2  0  0  0  0  0  0  0  0  0
   -0.8616    1.5520   -4.0647 C   0  0  0  0  0  0  0  0  0  0  0  0
   -0.0980    1.4615   -5.2082 C   0  0  0  0  0  0  0  0  0  0  0  0
    0.8829    2.3814   -5.3677 C   0  0  0  0  0  0  0  0  0  0  0  0
    0.6150    3.6068   -4.8219 C   0  0  0  0  0  0  0  0  0  0  0  0
   -0.4877    3.8844   -4.0813 N   0  0  0  0  0  0  0  0  0  0  0  0
   -1.2296    2.8414   -3.6801 C   0  0  0  0  0  0  0  0  0  0  0  0
   -2.4755    3.1733   -2.8994 C   0  0  0  0  0  0  0  0  0  0  0  0
    1.4765    4.7390   -5.2178 C   0  0  0  0  0  0  0  0  0  0  0  0
   -1.4399    0.5667   -1.6921 C   0  0  0  0  0  0  0  0  0  0  0  0
   -2.4284    0.9037   -1.0362 O   0  0  0  0  0  0  0  0  0  0  0  0
   -0.3092    0.2100   -1.0308 N   0  0  0  0  0  0  0  0  0  0  0  0
    0.9017    0.8938   -1.3697 C   0  0  0  0  0  0  0  0  0  0  0  0
    1.9156   -0.1746   -1.6007 C   0  0  0  0  0  0  0  0  0  0  0  0
    2.1060   -1.0540   -0.4874 O   0  0  0  0  0  0  0  0  0  0  0  0
    0.8672   -1.7281   -0.1734 C   0  0  0  0  0  0  0  0  0  0  0  0
   -0.2155   -0.6815    0.1309 C   0  0  0  0  0  0  0  0  0  0  0  0
    2.0092   -2.7025   -4.9874 C   0  0  0  0  0  0  0  0  0  0  0  0
    2.7534   -3.9756   -5.3378 C   0  0  0  0  0  0  0  0  0  0  0  0
    4.0812   -3.7102   -4.6924 C   0  0  0  0  0  0  0  0  0  0  0  0
    5.2850   -4.3075   -4.9195 C   0  0  0  0  0  0  0  0  0  0  0  0
    6.3935   -3.8657   -4.1818 C   0  0  0  0  0  0  0  0  0  0  0  0
    6.2980   -2.8473   -3.2149 C   0  0  0  0  0  0  0  0  0  0  0  0
    5.0810   -2.2536   -2.9714 C   0  0  0  0  0  0  0  0  0  0  0  0
    4.0223   -2.7068   -3.7367 C   0  0  0  0  0  0  0  0  0  0  0  0
    2.6720   -2.1747   -3.6925 C   0  0  0  0  0  0  0  0  0  0  0  0
   -2.9492   -0.6076   -2.4331 H   0  0  0  0  0  0  0  0  0  0  0  0
   -4.1115    0.5418   -2.8833 H   0  0  0  0  0  0  0  0  0  0  0  0
   -3.4820   -0.6193   -4.1428 H   0  0  0  0  0  0  0  0  0  0  0  0
   -5.1016   -1.3374   -1.8741 H   0  0  0  0  0  0  0  0  0  0  0  0
   -5.1255   -1.7709   -3.6428 H   0  0  0  0  0  0  0  0  0  0  0  0
   -3.7787   -3.6403   -2.6009 H   0  0  0  0  0  0  0  0  0  0  0  0
   -1.9182   -2.9726   -0.8124 H   0  0  0  0  0  0  0  0  0  0  0  0
   -2.7625   -1.4633   -0.7121 H   0  0  0  0  0  0  0  0  0  0  0  0
   -3.6179   -2.8906   -0.3071 H   0  0  0  0  0  0  0  0  0  0  0  0
   -2.3855   -2.7743   -4.5225 H   0  0  0  0  0  0  0  0  0  0  0  0
    0.8109   -4.3750   -3.3248 H   0  0  0  0  0  0  0  0  0  0  0  0
   -0.0522   -3.1118   -5.6888 H   0  0  0  0  0  0  0  0  0  0  0  0
   -2.2718    0.5451   -3.8968 H   0  0  0  0  0  0  0  0  0  0  0  0
   -0.0788    0.5773   -5.8301 H   0  0  0  0  0  0  0  0  0  0  0  0
    1.7737    2.1380   -5.9341 H   0  0  0  0  0  0  0  0  0  0  0  0
   -2.2210    3.6643   -1.9577 H   0  0  0  0  0  0  0  0  0  0  0  0
   -3.1377    3.8140   -3.4904 H   0  0  0  0  0  0  0  0  0  0  0  0
   -3.0990    2.3146   -2.6649 H   0  0  0  0  0  0  0  0  0  0  0  0
    0.8731    5.3888   -5.8537 H   0  0  0  0  0  0  0  0  0  0  0  0
    1.8180    5.2493   -4.3197 H   0  0  0  0  0  0  0  0  0  0  0  0
    2.3368    4.3785   -5.7898 H   0  0  0  0  0  0  0  0  0  0  0  0
    1.1425    1.5669   -0.5504 H   0  0  0  0  0  0  0  0  0  0  0  0
    0.7737    1.4869   -2.2707 H   0  0  0  0  0  0  0  0  0  0  0  0
    1.4515   -0.7708   -2.3667 H   0  0  0  0  0  0  0  0  0  0  0  0
    2.8583    0.2400   -1.9510 H   0  0  0  0  0  0  0  0  0  0  0  0
    1.0453   -2.3902    0.6766 H   0  0  0  0  0  0  0  0  0  0  0  0
    0.5759   -2.3649   -1.0223 H   0  0  0  0  0  0  0  0  0  0  0  0
    0.0745   -0.0707    0.9874 H   0  0  0  0  0  0  0  0  0  0  0  0
   -1.1535   -1.1712    0.3803 H   0  0  0  0  0  0  0  0  0  0  0  0
    2.2059   -1.9745   -5.7957 H   0  0  0  0  0  0  0  0  0  0  0  0
    2.2658   -4.8529   -4.9097 H   0  0  0  0  0  0  0  0  0  0  0  0
    2.8175   -4.0663   -6.4245 H   0  0  0  0  0  0  0  0  0  0  0  0
    5.3628   -5.0856   -5.6645 H   0  0  0  0  0  0  0  0  0  0  0  0
    7.3570   -4.3238   -4.3641 H   0  0  0  0  0  0  0  0  0  0  0  0
    7.1715   -2.5181   -2.6620 H   0  0  0  0  0  0  0  0  0  0  0  0
    4.9579   -1.4585   -2.2373 H   0  0  0  0  0  0  0  0  0  0  0  0
    2.8007   -1.0919   -3.7199 H   0  0  0  0  0  0  0  0  0  0  0  0
    2.1789   -2.5457   -2.7902 H   0  0  0  0  0  0  0  0  0  0  0  0
  1  2  1  0  0  0  0
  1 39  1  0  0  0  0
  1 40  1  0  0  0  0
  1 41  1  0  0  0  0
  2 42  1  0  0  0  0
  2 43  1  0  0  0  0
  3 44  1  6  0  0  0
  3  4  1  0  0  0  0
  3  2  1  0  0  0  0
  4 45  1  0  0  0  0
  4 46  1  0  0  0  0
  4 47  1  0  0  0  0
  5  3  1  0  0  0  0
  5  6  1  0  0  0  0
  5 12  1  0  0  0  0
  5 48  1  6  0  0  0
  6  7  2  0  0  0  0
  6  8  1  0  0  0  0
  8  9  1  0  0  0  0
  8 49  1  0  0  0  0
  9 10  1  0  0  0  0
  9 30  1  0  0  0  0
  9 50  1  6  0  0  0
 10 11  2  0  0  0  0
 10 12  1  0  0  0  0
 13 22  1  0  0  0  0
 13 51  1  6  0  0  0
 13 14  1  0  0  0  0
 13 12  1  0  0  0  0
 14 15  2  0  0  0  0
 14 19  1  0  0  0  0
 15 16  1  0  0  0  0
 15 52  1  0  0  0  0
 16 17  2  0  0  0  0
 16 53  1  0  0  0  0
 17 18  1  0  0  0  0
 17 21  1  0  0  0  0
 18 19  2  0  0  0  0
 19 20  1  0  0  0  0
 20 54  1  0  0  0  0
 20 55  1  0  0  0  0
 20 56  1  0  0  0  0
 21 57  1  0  0  0  0
 21 58  1  0  0  0  0
 21 59  1  0  0  0  0
 22 23  2  0  0  0  0
 22 24  1  0  0  0  0
 24 25  1  0  0  0  0
 24 29  1  0  0  0  0
 25 26  1  0  0  0  0
 25 60  1  0  0  0  0
 25 61  1  0  0  0  0
 26 27  1  0  0  0  0
 26 62  1  0  0  0  0
 26 63  1  0  0  0  0
 27 28  1  0  0  0  0
 28 29  1  0  0  0  0
 28 64  1  0  0  0  0
 28 65  1  0  0  0  0
 29 66  1  0  0  0  0
 29 67  1  0  0  0  0
 30 31  1  0  0  0  0
 30 38  1  0  0  0  0
 30 68  1  0  0  0  0
 31 32  1  0  0  0  0
 31 69  1  0  0  0  0
 31 70  1  0  0  0  0
 32 33  2  0  0  0  0
 32 37  1  0  0  0  0
 33 34  1  0  0  0  0
 33 71  1  0  0  0  0
 34 35  2  0  0  0  0
 34 72  1  0  0  0  0
 35 36  1  0  0  0  0
 35 73  1  0  0  0  0
 36 37  2  0  0  0  0
 36 74  1  0  0  0  0
 37 38  1  0  0  0  0
 38 75  1  0  0  0  0
 38 76  1  0  0  0  0
M  END
>  <DRUGBANK_ID>
DB11934

>  <COMMON_NAME>
Epelsiban

>  <CAS_NUMBER>
872599-83-2

>  <UNII>
T2EZ19HX73

>  <SYNONYMS>
Epelsiban

$$$$
