
 OpenBabel10282417173D

 55 59  0  0  0  0  0  0  0  0999 V2000
    2.4635    1.1146    0.0441 C   0  0  0  0  0  0  0  0  0  0  0  0
    2.8032   -0.2126    0.2721 C   0  0  0  0  0  0  0  0  0  0  0  0
    1.7951   -1.1575    0.4570 C   0  0  0  0  0  0  0  0  0  0  0  0
    0.4665   -0.8285    0.1902 C   0  0  0  0  0  0  0  0  0  0  0  0
    0.1208    0.5016    0.0245 C   0  0  0  0  0  0  0  0  0  0  0  0
    1.1181    1.4827   -0.0254 C   0  0  0  0  0  0  0  0  0  0  0  0
   -0.5949   -1.8442   -0.0046 C   0  0  0  0  0  0  0  0  0  0  0  0
   -1.8588   -1.5316   -0.0065 N   0  0  0  0  0  0  0  0  0  0  0  0
   -2.1854   -0.2066    0.1120 N   0  0  0  0  0  0  0  0  0  0  0  0
   -1.3055    0.8458    0.0139 C   0  0  0  0  0  0  0  0  0  0  0  0
   -1.6730    2.0219   -0.0234 O   0  0  0  0  0  0  0  0  0  0  0  0
   -0.1998   -3.3022   -0.2578 C   0  0  0  0  0  0  0  0  0  0  0  0
    0.5259   -3.5470   -1.5807 C   0  0  0  0  0  0  0  0  0  0  0  0
    1.7559   -2.9857   -1.9245 C   0  0  0  0  0  0  0  0  0  0  0  0
    2.3815   -3.1898   -3.1445 C   0  0  0  0  0  0  0  0  0  0  0  0
    1.7927   -4.0117   -4.0781 C   0  0  0  0  0  0  0  0  0  0  0  0
    0.5757   -4.6302   -3.7960 C   0  0  0  0  0  0  0  0  0  0  0  0
   -0.0205   -4.4053   -2.5329 C   0  0  0  0  0  0  0  0  0  0  0  0
    2.4562   -4.1959   -5.2250 F   0  0  0  0  0  0  0  0  0  0  0  0
    0.0002   -5.6003   -4.7773 C   0  0  0  0  0  0  0  0  0  0  0  0
   -1.2000   -6.2012   -4.4381 N   0  0  0  0  0  0  0  0  0  0  0  0
    0.6492   -5.9578   -5.7564 O   0  0  0  0  0  0  0  0  0  0  0  0
   -2.4456   -5.4578   -4.2276 C   0  0  0  0  0  0  0  0  0  0  0  0
   -3.1749   -6.0174   -2.9935 C   0  0  0  0  0  0  0  0  0  0  0  0
   -3.3180   -7.4890   -3.0804 N   0  0  0  0  0  0  0  0  0  0  0  0
   -2.0688   -8.2038   -3.3414 C   0  0  0  0  0  0  0  0  0  0  0  0
   -1.3846   -7.6432   -4.6024 C   0  0  0  0  0  0  0  0  0  0  0  0
   -4.5742   -8.0286   -2.8800 C   0  0  0  0  0  0  0  0  0  0  0  0
   -4.9461   -9.4697   -2.9637 C   0  0  0  0  0  0  0  0  0  0  0  0
   -5.5098   -7.2788   -2.5946 O   0  0  0  0  0  0  0  0  0  0  0  0
   -4.2604  -10.4395   -1.9984 C   0  0  0  0  0  0  0  0  0  0  0  0
   -4.4613  -10.8057   -3.4284 C   0  0  0  0  0  0  0  0  0  0  0  0
    3.2463    1.8638   -0.0398 H   0  0  0  0  0  0  0  0  0  0  0  0
    3.8461   -0.5243    0.2841 H   0  0  0  0  0  0  0  0  0  0  0  0
    2.0845   -2.1816    0.6825 H   0  0  0  0  0  0  0  0  0  0  0  0
    0.8488    2.5316   -0.1178 H   0  0  0  0  0  0  0  0  0  0  0  0
   -3.1752    0.0174    0.1640 H   0  0  0  0  0  0  0  0  0  0  0  0
    0.3927   -3.6717    0.5860 H   0  0  0  0  0  0  0  0  0  0  0  0
   -1.1278   -3.8965   -0.2314 H   0  0  0  0  0  0  0  0  0  0  0  0
    2.3327   -2.3524   -1.2874 H   0  0  0  0  0  0  0  0  0  0  0  0
    3.3294   -2.6986   -3.3408 H   0  0  0  0  0  0  0  0  0  0  0  0
   -0.9230   -4.9187   -2.2579 H   0  0  0  0  0  0  0  0  0  0  0  0
   -2.2563   -4.3811   -4.1615 H   0  0  0  0  0  0  0  0  0  0  0  0
   -3.0630   -5.6136   -5.1219 H   0  0  0  0  0  0  0  0  0  0  0  0
   -2.6072   -5.8351   -2.0764 H   0  0  0  0  0  0  0  0  0  0  0  0
   -4.1261   -5.4931   -2.8658 H   0  0  0  0  0  0  0  0  0  0  0  0
   -1.4245   -8.0319   -2.4662 H   0  0  0  0  0  0  0  0  0  0  0  0
   -2.2338   -9.2718   -3.4332 H   0  0  0  0  0  0  0  0  0  0  0  0
   -2.0248   -7.8062   -5.4763 H   0  0  0  0  0  0  0  0  0  0  0  0
   -0.4231   -8.1381   -4.7676 H   0  0  0  0  0  0  0  0  0  0  0  0
   -6.0216   -9.4833   -3.1413 H   0  0  0  0  0  0  0  0  0  0  0  0
   -3.2192  -10.3540   -1.7048 H   0  0  0  0  0  0  0  0  0  0  0  0
   -4.8775  -10.8739   -1.2206 H   0  0  0  0  0  0  0  0  0  0  0  0
   -5.2365  -11.5604   -3.5964 H   0  0  0  0  0  0  0  0  0  0  0  0
   -3.6352  -10.9249   -4.1090 H   0  0  0  0  0  0  0  0  0  0  0  0
  1  2  2  0  0  0  0
  1  6  1  0  0  0  0
  1 33  1  0  0  0  0
  2  3  1  0  0  0  0
  2 34  1  0  0  0  0
  3  4  2  0  0  0  0
  3 35  1  0  0  0  0
  4  5  1  0  0  0  0
  4  7  1  0  0  0  0
  5  6  2  0  0  0  0
  5 10  1  0  0  0  0
  6 36  1  0  0  0  0
  7  8  2  0  0  0  0
  7 12  1  0  0  0  0
  8  9  1  0  0  0  0
  9 10  1  0  0  0  0
  9 37  1  0  0  0  0
 10 11  2  0  0  0  0
 12 13  1  0  0  0  0
 12 38  1  0  0  0  0
 12 39  1  0  0  0  0
 13 14  2  0  0  0  0
 13 18  1  0  0  0  0
 14 15  1  0  0  0  0
 14 40  1  0  0  0  0
 15 16  2  0  0  0  0
 15 41  1  0  0  0  0
 16 17  1  0  0  0  0
 16 19  1  0  0  0  0
 17 18  2  0  0  0  0
 17 20  1  0  0  0  0
 18 42  1  0  0  0  0
 20 21  1  0  0  0  0
 20 22  2  0  0  0  0
 21 23  1  0  0  0  0
 21 27  1  0  0  0  0
 23 24  1  0  0  0  0
 23 43  1  0  0  0  0
 23 44  1  0  0  0  0
 24 25  1  0  0  0  0
 24 45  1  0  0  0  0
 24 46  1  0  0  0  0
 25 26  1  0  0  0  0
 25 28  1  0  0  0  0
 26 27  1  0  0  0  0
 26 47  1  0  0  0  0
 26 48  1  0  0  0  0
 27 49  1  0  0  0  0
 27 50  1  0  0  0  0
 28 29  1  0  0  0  0
 28 30  2  0  0  0  0
 29 31  1  0  0  0  0
 29 51  1  0  0  0  0
 31 32  1  0  0  0  0
 31 52  1  0  0  0  0
 31 53  1  0  0  0  0
 32 29  1  0  0  0  0
 32 54  1  0  0  0  0
 32 55  1  0  0  0  0
M  END
>  <DRUGBANK_ID>
DB09074

>  <SECONDARY_ACCESSION_NUMBERS>
DB05940

>  <COMMON_NAME>
Olaparib

>  <CAS_NUMBER>
763113-22-0

>  <UNII>
WOH1JD9AR8

>  <SYNONYMS>
4-(3-{[4-(cyclopropylcarbonyl)piperazin-1-yl]carbonyl}-4-fluorobenzyl)phthalazin-1(2H)-one; Olaparib

$$$$
