55V
 OpenBabel10282417163D

 50 51  0  0  0  0  0  0  0  0999 V2000
    0.2874   -0.0010   -0.0709 C   0  0  0  0  0  0  0  0  0  0  0  0
    0.2382   -0.2979   -1.4568 O   0  0  0  0  0  0  0  0  0  0  0  0
    0.8689    0.5860   -2.3003 C   0  0  0  0  0  0  0  0  0  0  0  0
    0.0152    1.0451   -3.3258 C   0  0  0  0  0  0  0  0  0  0  0  0
    2.2419    0.8827   -2.3742 C   0  0  0  0  0  0  0  0  0  0  0  0
    3.2708    0.3999   -1.6385 O   0  0  0  0  0  0  0  0  0  0  0  0
    3.1723   -0.2829   -0.4322 C   0  0  0  0  0  0  0  0  0  0  0  0
    2.7037    1.7175   -3.4221 C   0  0  0  0  0  0  0  0  0  0  0  0
    4.0025    2.1205   -3.6714 O   0  0  0  0  0  0  0  0  0  0  0  0
    5.0324    1.6370   -2.8179 C   0  0  0  0  0  0  0  0  0  0  0  0
    1.8269    2.1801   -4.4043 C   0  0  0  0  0  0  0  0  0  0  0  0
    0.4887    1.7847   -4.4274 C   0  0  0  0  0  0  0  0  0  0  0  0
   -0.4027    2.0396   -5.6476 C   0  0  0  0  0  0  0  0  0  0  0  0
    0.3202    2.7972   -6.7840 C   0  0  0  0  0  0  0  0  0  0  0  0
   -1.6300    2.8745   -5.2339 C   0  0  0  0  0  0  0  0  0  0  0  0
   -0.8733    0.7087   -6.2111 C   0  0  0  0  0  0  0  0  0  0  0  0
   -1.2770   -0.4330   -6.6945 C   0  0  0  0  0  0  0  0  0  0  0  0
   -1.6670   -1.7104   -7.2263 C   0  0  0  0  0  0  0  0  0  0  0  0
   -1.1436   -2.8811   -6.7031 C   0  0  0  0  0  0  0  0  0  0  0  0
   -0.1874   -2.8610   -5.5449 C   0  0  0  0  0  0  0  0  0  0  0  0
   -1.4482   -4.1023   -7.1946 N   0  0  0  0  0  0  0  0  0  0  0  0
   -2.3037   -4.1623   -8.2242 C   0  0  0  0  0  0  0  0  0  0  0  0
   -2.5812   -5.3986   -8.7155 N   0  0  0  0  0  0  0  0  0  0  0  0
   -2.8853   -3.0870   -8.7790 N   0  0  0  0  0  0  0  0  0  0  0  0
   -2.5680   -1.8765   -8.2778 C   0  0  0  0  0  0  0  0  0  0  0  0
   -3.1262   -0.7878   -8.9302 N   0  0  0  0  0  0  0  0  0  0  0  0
   -0.4954   -0.5426    0.4645 H   0  0  0  0  0  0  0  0  0  0  0  0
    0.2614    1.0686    0.1528 H   0  0  0  0  0  0  0  0  0  0  0  0
    1.1498   -0.4634    0.3738 H   0  0  0  0  0  0  0  0  0  0  0  0
   -1.0368    0.7602   -3.2874 H   0  0  0  0  0  0  0  0  0  0  0  0
    2.7896    0.4078    0.3241 H   0  0  0  0  0  0  0  0  0  0  0  0
    2.6308   -1.2159   -0.5951 H   0  0  0  0  0  0  0  0  0  0  0  0
    4.1670   -0.5598   -0.0768 H   0  0  0  0  0  0  0  0  0  0  0  0
    4.8836    2.0061   -1.7962 H   0  0  0  0  0  0  0  0  0  0  0  0
    5.1049    0.5433   -2.8701 H   0  0  0  0  0  0  0  0  0  0  0  0
    5.9956    2.0204   -3.1563 H   0  0  0  0  0  0  0  0  0  0  0  0
    2.2491    2.8074   -5.1856 H   0  0  0  0  0  0  0  0  0  0  0  0
    0.6601    3.7854   -6.4488 H   0  0  0  0  0  0  0  0  0  0  0  0
    1.1964    2.2419   -7.1430 H   0  0  0  0  0  0  0  0  0  0  0  0
   -0.3323    2.9552   -7.6496 H   0  0  0  0  0  0  0  0  0  0  0  0
   -1.3246    3.8409   -4.8150 H   0  0  0  0  0  0  0  0  0  0  0  0
   -2.2843    3.0718   -6.0916 H   0  0  0  0  0  0  0  0  0  0  0  0
   -2.2429    2.3685   -4.4794 H   0  0  0  0  0  0  0  0  0  0  0  0
   -0.6004   -3.4463   -4.7193 H   0  0  0  0  0  0  0  0  0  0  0  0
    0.7738   -3.2778   -5.8552 H   0  0  0  0  0  0  0  0  0  0  0  0
    0.0024   -1.8564   -5.1590 H   0  0  0  0  0  0  0  0  0  0  0  0
   -2.1113   -6.1827   -8.2914 H   0  0  0  0  0  0  0  0  0  0  0  0
   -3.2028   -5.4963   -9.5017 H   0  0  0  0  0  0  0  0  0  0  0  0
   -3.8274   -0.9924   -9.6299 H   0  0  0  0  0  0  0  0  0  0  0  0
   -3.0769    0.1309   -8.5193 H   0  0  0  0  0  0  0  0  0  0  0  0
  1  2  1  0  0  0  0
  1 27  1  0  0  0  0
  1 28  1  0  0  0  0
  1 29  1  0  0  0  0
  2  3  1  0  0  0  0
  3  5  1  0  0  0  0
  4  3  2  0  0  0  0
  4 12  1  0  0  0  0
  4 30  1  0  0  0  0
  5  6  1  0  0  0  0
  5  8  2  0  0  0  0
  6  7  1  0  0  0  0
  7 31  1  0  0  0  0
  7 32  1  0  0  0  0
  7 33  1  0  0  0  0
  8  9  1  0  0  0  0
  9 10  1  0  0  0  0
 10 34  1  0  0  0  0
 10 35  1  0  0  0  0
 10 36  1  0  0  0  0
 11  8  1  0  0  0  0
 11 37  1  0  0  0  0
 12 11  2  0  0  0  0
 13 12  1  0  0  0  0
 13 16  1  0  0  0  0
 13 15  1  0  0  0  0
 14 13  1  0  0  0  0
 14 38  1  0  0  0  0
 14 39  1  0  0  0  0
 14 40  1  0  0  0  0
 15 41  1  0  0  0  0
 15 42  1  0  0  0  0
 15 43  1  0  0  0  0
 16 17  3  0  0  0  0
 17 18  1  0  0  0  0
 18 25  1  0  0  0  0
 19 18  2  0  0  0  0
 19 21  1  0  0  0  0
 20 19  1  0  0  0  0
 20 44  1  0  0  0  0
 20 45  1  0  0  0  0
 20 46  1  0  0  0  0
 21 22  2  0  0  0  0
 22 23  1  0  0  0  0
 22 24  1  0  0  0  0
 23 47  1  0  0  0  0
 23 48  1  0  0  0  0
 25 24  2  0  0  0  0
 25 26  1  0  0  0  0
 26 49  1  0  0  0  0
 26 50  1  0  0  0  0
M  END
>  <DRUGBANK_ID>
DB07153

>  <COMMON_NAME>
6-methyl-5-[3-methyl-3-(3,4,5-trimethoxyphenyl)but-1-yn-1-yl]pyrimidine-2,4-diamine

$$$$
