
 OpenBabel10282417183D

 45 46  0  0  0  0  0  0  0  0999 V2000
   -1.2206   -1.1357   -0.0064 C   0  0  0  0  0  0  0  0  0  0  0  0
   -1.2337    0.2770   -0.0051 C   0  0  0  0  0  0  0  0  0  0  0  0
   -0.0169    0.9981   -0.0064 C   0  0  0  0  0  0  0  0  0  0  0  0
    1.2165    0.3351    0.0001 C   0  0  0  0  0  0  0  0  0  0  0  0
    2.5132    1.0892    0.0081 C   0  0  0  0  0  0  0  0  0  0  0  0
    1.2244   -1.0568    0.0044 C   0  0  0  0  0  0  0  0  0  0  0  0
    0.0274   -1.7748   -0.0005 C   0  0  0  0  0  0  0  0  0  0  0  0
   -2.5274    1.0529   -0.0059 C   0  0  0  0  0  0  0  0  0  0  0  0
   -2.4550   -1.8213   -0.0127 N   0  0  0  0  0  0  0  0  0  0  0  0
   -2.5373   -3.1124   -0.0272 C   0  0  0  0  0  0  0  0  0  0  0  0
   -3.6970   -3.8730   -0.0329 N   0  0  0  0  0  0  0  0  0  0  0  0
   -3.7699   -5.2576   -0.0480 C   0  0  0  0  0  0  0  0  0  0  0  0
   -4.8508   -5.9659   -0.0151 N   0  0  0  0  0  0  0  0  0  0  0  0
   -4.7820   -7.3673   -0.0631 C   0  0  0  0  0  0  0  0  0  0  0  0
   -5.6512   -8.0699   -0.9189 C   0  0  0  0  0  0  0  0  0  0  0  0
   -5.6509   -9.4799   -0.9114 C   0  0  0  0  0  0  0  0  0  0  0  0
   -4.7938  -10.1963   -0.0645 C   0  0  0  0  0  0  0  0  0  0  0  0
   -4.7904  -11.6978   -0.0633 C   0  0  0  0  0  0  0  0  0  0  0  0
   -3.9413   -9.4887    0.7861 C   0  0  0  0  0  0  0  0  0  0  0  0
   -3.9447   -8.0918    0.7928 C   0  0  0  0  0  0  0  0  0  0  0  0
   -6.5978   -7.3417   -1.8370 C   0  0  0  0  0  0  0  0  0  0  0  0
   -4.9578   -3.1273   -0.0346 C   0  0  0  0  0  0  0  0  0  0  0  0
   -0.0376    2.0875   -0.0118 H   0  0  0  0  0  0  0  0  0  0  0  0
    2.5950    1.7227   -0.8801 H   0  0  0  0  0  0  0  0  0  0  0  0
    2.5915    1.7049    0.9091 H   0  0  0  0  0  0  0  0  0  0  0  0
    3.3683    0.4027    0.0028 H   0  0  0  0  0  0  0  0  0  0  0  0
    2.1633   -1.6050    0.0111 H   0  0  0  0  0  0  0  0  0  0  0  0
    0.1150   -2.8535    0.0010 H   0  0  0  0  0  0  0  0  0  0  0  0
   -2.5805    1.7048    0.8727 H   0  0  0  0  0  0  0  0  0  0  0  0
   -2.6026    1.6639   -0.9116 H   0  0  0  0  0  0  0  0  0  0  0  0
   -3.4090    0.4058    0.0224 H   0  0  0  0  0  0  0  0  0  0  0  0
   -1.6526   -3.7652   -0.0340 H   0  0  0  0  0  0  0  0  0  0  0  0
   -2.7679   -5.7239   -0.0968 H   0  0  0  0  0  0  0  0  0  0  0  0
   -6.3329  -10.0202   -1.5667 H   0  0  0  0  0  0  0  0  0  0  0  0
   -5.7778  -12.0860    0.2059 H   0  0  0  0  0  0  0  0  0  0  0  0
   -4.5064  -12.0778   -1.0496 H   0  0  0  0  0  0  0  0  0  0  0  0
   -4.0707  -12.0923    0.6631 H   0  0  0  0  0  0  0  0  0  0  0  0
   -3.2759  -10.0183    1.4634 H   0  0  0  0  0  0  0  0  0  0  0  0
   -3.2996   -7.5693    1.4922 H   0  0  0  0  0  0  0  0  0  0  0  0
   -6.3999   -7.6157   -2.8781 H   0  0  0  0  0  0  0  0  0  0  0  0
   -7.6349   -7.5866   -1.5867 H   0  0  0  0  0  0  0  0  0  0  0  0
   -6.4970   -6.2540   -1.7687 H   0  0  0  0  0  0  0  0  0  0  0  0
   -5.0294   -2.5019    0.8613 H   0  0  0  0  0  0  0  0  0  0  0  0
   -5.0173   -2.4873   -0.9218 H   0  0  0  0  0  0  0  0  0  0  0  0
   -5.8412   -3.7737   -0.0482 H   0  0  0  0  0  0  0  0  0  0  0  0
  1  2  2  0  0  0  0
  1  7  1  0  0  0  0
  1  9  1  0  0  0  0
  2  3  1  0  0  0  0
  2  8  1  0  0  0  0
  3  4  2  0  0  0  0
  3 23  1  0  0  0  0
  4  5  1  0  0  0  0
  4  6  1  0  0  0  0
  5 24  1  0  0  0  0
  5 25  1  0  0  0  0
  5 26  1  0  0  0  0
  6  7  2  0  0  0  0
  6 27  1  0  0  0  0
  7 28  1  0  0  0  0
  8 29  1  0  0  0  0
  8 30  1  0  0  0  0
  8 31  1  0  0  0  0
  9 10  2  0  0  0  0
 10 11  1  0  0  0  0
 10 32  1  0  0  0  0
 11 12  1  0  0  0  0
 11 22  1  0  0  0  0
 12 13  2  0  0  0  0
 12 33  1  0  0  0  0
 13 14  1  0  0  0  0
 14 15  2  0  0  0  0
 14 20  1  0  0  0  0
 15 16  1  0  0  0  0
 15 21  1  0  0  0  0
 16 17  2  0  0  0  0
 16 34  1  0  0  0  0
 17 18  1  0  0  0  0
 17 19  1  0  0  0  0
 18 35  1  0  0  0  0
 18 36  1  0  0  0  0
 18 37  1  0  0  0  0
 19 20  2  0  0  0  0
 19 38  1  0  0  0  0
 20 39  1  0  0  0  0
 21 40  1  0  0  0  0
 21 41  1  0  0  0  0
 21 42  1  0  0  0  0
 22 43  1  0  0  0  0
 22 44  1  0  0  0  0
 22 45  1  0  0  0  0
M  END
>  <DRUGBANK_ID>
DB11373

>  <COMMON_NAME>
Amitraz

>  <CAS_NUMBER>
33089-61-1

>  <UNII>
33IAH5017S

>  <SYNONYMS>
1,5-di(2,4-dimethylphenyl)-3-methyl-1,3,5-triazapenta-1,4-diene; Amitraz; Amitraze; Amitrazum; N,N'-(methyliminodimethylidyne)bis-2,4-xylidine

$$$$
