
 OpenBabel10282417213D

 38 40  0  0  0  0  0  0  0  0999 V2000
   -1.9624   -0.0049   -0.0361 C   0  0  0  0  0  0  0  0  0  0  0  0
   -1.2685    1.2125   -0.0196 C   0  0  0  0  0  0  0  0  0  0  0  0
   -1.2689   -1.2205   -0.0704 C   0  0  0  0  0  0  0  0  0  0  0  0
    0.1237    1.2271   -0.0327 C   0  0  0  0  0  0  0  0  0  0  0  0
    1.2224   -5.2427   -3.2169 C   0  0  0  0  0  0  0  0  0  0  0  0
    1.2872   -5.7068   -1.9041 C   0  0  0  0  0  0  0  0  0  0  0  0
    0.6872   -6.7066    0.7819 C   0  0  0  0  0  0  0  0  0  0  0  0
    1.7093   -7.8125    1.1059 C   0  0  0  0  0  0  0  0  0  0  0  0
    0.8947   -2.9961   -2.3880 C   0  0  0  0  0  0  0  0  0  0  0  0
    1.0202   -3.8906   -3.4522 C   0  0  0  0  0  0  0  0  0  0  0  0
    0.1251   -1.1936   -0.0954 C   0  0  0  0  0  0  0  0  0  0  0  0
    0.9709   -3.4500   -1.0573 C   0  0  0  0  0  0  0  0  0  0  0  0
    0.8117    0.0254   -0.0654 C   0  0  0  0  0  0  0  0  0  0  0  0
    1.1656   -4.8316   -0.8038 C   0  0  0  0  0  0  0  0  0  0  0  0
    0.9494   -2.4145    0.0233 C   0  0  0  0  0  0  0  0  0  0  0  0
    2.6679   -3.4514    1.3018 C   0  0  3  0  0  0  0  0  0  0  0  0
    1.8822   -4.7349    1.5838 C   0  0  0  0  0  0  0  0  0  0  0  0
    0.9569   -3.3163   -5.0715 Cl  0  0  0  0  0  0  0  0  0  0  0  0
    2.1531    0.0566   -0.0714 F   0  0  0  0  0  0  0  0  0  0  0  0
    1.6904   -2.4187    1.0707 N   0  0  0  0  0  0  0  0  0  0  0  0
    1.2924   -5.3928    0.5050 N   0  0  0  0  0  0  0  0  0  0  0  0
    2.4423   -7.6552    2.3114 O   0  0  0  0  0  0  0  0  0  0  0  0
    3.7191   -3.5673    0.3632 O   0  0  0  0  0  0  0  0  0  0  0  0
    1.8473   -5.2008    2.7309 O   0  0  0  0  0  0  0  0  0  0  0  0
   -3.0499    0.0017    0.0033 H   0  0  0  0  0  0  0  0  0  0  0  0
   -1.8122    2.1534    0.0187 H   0  0  0  0  0  0  0  0  0  0  0  0
   -1.8159   -2.1579   -0.0265 H   0  0  0  0  0  0  0  0  0  0  0  0
    0.6831    2.1563   -0.0022 H   0  0  0  0  0  0  0  0  0  0  0  0
    1.3504   -5.9408   -4.0421 H   0  0  0  0  0  0  0  0  0  0  0  0
    1.5009   -6.7648   -1.7624 H   0  0  0  0  0  0  0  0  0  0  0  0
   -0.0164   -6.5716    1.6119 H   0  0  0  0  0  0  0  0  0  0  0  0
    0.0839   -7.0311   -0.0750 H   0  0  0  0  0  0  0  0  0  0  0  0
    1.1721   -8.7591    1.2082 H   0  0  0  0  0  0  0  0  0  0  0  0
    2.4334   -7.9112    0.2940 H   0  0  0  0  0  0  0  0  0  0  0  0
    0.7817   -1.9377   -2.6114 H   0  0  0  0  0  0  0  0  0  0  0  0
    3.1670   -3.2037    2.2451 H   0  0  0  0  0  0  0  0  0  0  0  0
    2.6481   -6.7075    2.4409 H   0  0  0  0  0  0  0  0  0  0  0  0
    3.3223   -3.6478   -0.5128 H   0  0  0  0  0  0  0  0  0  0  0  0
  1 25  1  0  0  0  0
  2  1  2  0  0  0  0
  2 26  1  0  0  0  0
  3  1  1  0  0  0  0
  3 27  1  0  0  0  0
  4  2  1  0  0  0  0
  4 28  1  0  0  0  0
  5 29  1  0  0  0  0
  6  5  2  0  0  0  0
  6 30  1  0  0  0  0
  7 31  1  0  0  0  0
  7 32  1  0  0  0  0
  8  7  1  0  0  0  0
  8 33  1  0  0  0  0
  8 34  1  0  0  0  0
  9 35  1  0  0  0  0
 10  5  1  0  0  0  0
 10  9  2  0  0  0  0
 11  3  2  0  0  0  0
 12  9  1  0  0  0  0
 13  4  2  0  0  0  0
 13 11  1  0  0  0  0
 14  6  1  0  0  0  0
 14 12  2  0  0  0  0
 15 11  1  0  0  0  0
 15 12  1  0  0  0  0
 16 36  1  0  0  0  0
 17 16  1  0  0  0  0
 18 10  1  0  0  0  0
 19 13  1  0  0  0  0
 20 15  2  0  0  0  0
 20 16  1  0  0  0  0
 21  7  1  0  0  0  0
 21 14  1  0  0  0  0
 21 17  1  0  0  0  0
 22  8  1  0  0  0  0
 22 37  1  0  0  0  0
 23 16  1  0  0  0  0
 23 38  1  0  0  0  0
 24 17  2  0  0  0  0
M  END
>  <DRUGBANK_ID>
DB13837

>  <COMMON_NAME>
Doxefazepam

>  <CAS_NUMBER>
40762-15-0

>  <UNII>
231RV72C8L

>  <SYNONYMS>
Doxefazepam; Doxefazepamum

$$$$
