
 OpenBabel10282417183D

 49 52  0  0  0  0  0  0  0  0999 V2000
    0.9376   -0.0389   -0.0733 C   0  0  0  0  0  0  0  0  0  0  0  0
    0.5178   -1.1584    0.8276 C   0  0  0  0  0  0  0  0  0  0  0  0
    0.7657   -2.4959    0.5069 C   0  0  0  0  0  0  0  0  0  0  0  0
    0.4372   -3.5460    1.3879 C   0  0  0  0  0  0  0  0  0  0  0  0
   -0.1827   -3.2188    2.6053 C   0  0  0  0  0  0  0  0  0  0  0  0
   -0.4688   -1.8802    2.9110 C   0  0  0  0  0  0  0  0  0  0  0  0
   -0.0992   -0.8497    2.0332 C   0  0  0  0  0  0  0  0  0  0  0  0
   -1.1402   -1.8363    4.1367 C   0  0  0  0  0  0  0  0  0  0  0  0
   -1.3378   -3.1521    4.5185 C   0  0  0  0  0  0  0  0  0  0  0  0
   -0.6257   -3.9803    3.6898 N   0  0  0  0  0  0  0  0  0  0  0  0
   -0.4444   -5.4213    3.8705 C   0  0  0  0  0  0  0  0  0  0  0  0
    0.5324   -5.8802    4.9958 C   0  0  0  0  0  0  0  0  0  0  0  0
    0.1612   -5.5447    6.4278 C   0  0  0  0  0  0  0  0  0  0  0  0
   -0.7104   -6.3422    7.1812 C   0  0  0  0  0  0  0  0  0  0  0  0
   -1.3044   -5.8333    8.3487 C   0  0  0  0  0  0  0  0  0  0  0  0
   -1.0075   -4.5390    8.7607 C   0  0  0  0  0  0  0  0  0  0  0  0
   -0.0433   -3.8149    8.1392 N   0  0  0  0  0  0  0  0  0  0  0  0
    0.5090   -4.3195    6.9935 C   0  0  0  0  0  0  0  0  0  0  0  0
   -1.9136   -3.8328    9.7475 C   0  0  0  0  0  0  0  0  0  0  0  0
   -2.1585   -3.4487    5.7106 C   0  0  0  0  0  0  0  0  0  0  0  0
   -2.0451   -2.2324    6.6526 C   0  0  0  0  0  0  0  0  0  0  0  0
   -2.5568   -1.0362    5.9704 N   0  0  0  0  0  0  0  0  0  0  0  0
   -1.5890   -0.6359    4.9267 C   0  0  0  0  0  0  0  0  0  0  0  0
   -2.7597    0.0173    6.9559 C   0  0  0  0  0  0  0  0  0  0  0  0
    0.5554    0.9243    0.2870 H   0  0  0  0  0  0  0  0  0  0  0  0
    0.5515   -0.1907   -1.0840 H   0  0  0  0  0  0  0  0  0  0  0  0
    2.0290    0.0219   -0.0908 H   0  0  0  0  0  0  0  0  0  0  0  0
    1.2311   -2.7351   -0.4467 H   0  0  0  0  0  0  0  0  0  0  0  0
    0.6525   -4.5717    1.1072 H   0  0  0  0  0  0  0  0  0  0  0  0
   -0.3265    0.1760    2.3039 H   0  0  0  0  0  0  0  0  0  0  0  0
   -1.4412   -5.8597    3.9972 H   0  0  0  0  0  0  0  0  0  0  0  0
   -0.0575   -5.8175    2.9219 H   0  0  0  0  0  0  0  0  0  0  0  0
    0.6207   -6.9743    4.9264 H   0  0  0  0  0  0  0  0  0  0  0  0
    1.5346   -5.4902    4.7822 H   0  0  0  0  0  0  0  0  0  0  0  0
   -1.0372   -7.3102    6.8116 H   0  0  0  0  0  0  0  0  0  0  0  0
   -2.0607   -6.4087    8.8721 H   0  0  0  0  0  0  0  0  0  0  0  0
    1.1213   -3.6068    6.4401 H   0  0  0  0  0  0  0  0  0  0  0  0
   -1.3503   -3.1607   10.3980 H   0  0  0  0  0  0  0  0  0  0  0  0
   -2.6786   -3.2280    9.2497 H   0  0  0  0  0  0  0  0  0  0  0  0
   -2.4773   -4.5438   10.3568 H   0  0  0  0  0  0  0  0  0  0  0  0
   -3.2022   -3.6144    5.4345 H   0  0  0  0  0  0  0  0  0  0  0  0
   -1.8801   -4.3596    6.2027 H   0  0  0  0  0  0  0  0  0  0  0  0
   -2.6417   -2.4261    7.5337 H   0  0  0  0  0  0  0  0  0  0  0  0
   -1.0130   -2.0235    6.9716 H   0  0  0  0  0  0  0  0  0  0  0  0
   -2.0597    0.0922    4.2606 H   0  0  0  0  0  0  0  0  0  0  0  0
   -0.6945   -0.1774    5.3729 H   0  0  0  0  0  0  0  0  0  0  0  0
   -1.8258    0.3376    7.4320 H   0  0  0  0  0  0  0  0  0  0  0  0
   -3.2457    0.8771    6.4910 H   0  0  0  0  0  0  0  0  0  0  0  0
   -3.4318   -0.3353    7.7493 H   0  0  0  0  0  0  0  0  0  0  0  0
  1  2  1  0  0  0  0
  1 25  1  0  0  0  0
  1 26  1  0  0  0  0
  1 27  1  0  0  0  0
  2  3  2  0  0  0  0
  2  7  1  0  0  0  0
  3  4  1  0  0  0  0
  3 28  1  0  0  0  0
  4  5  2  0  0  0  0
  4 29  1  0  0  0  0
  5  6  1  0  0  0  0
  5 10  1  0  0  0  0
  6  7  2  0  0  0  0
  6  8  1  0  0  0  0
  7 30  1  0  0  0  0
  8  9  2  0  0  0  0
  8 23  1  0  0  0  0
  9 10  1  0  0  0  0
  9 20  1  0  0  0  0
 10 11  1  0  0  0  0
 11 12  1  0  0  0  0
 11 31  1  0  0  0  0
 11 32  1  0  0  0  0
 12 13  1  0  0  0  0
 12 33  1  0  0  0  0
 12 34  1  0  0  0  0
 13 14  2  0  0  0  0
 13 18  1  0  0  0  0
 14 15  1  0  0  0  0
 14 35  1  0  0  0  0
 15 16  2  0  0  0  0
 15 36  1  0  0  0  0
 16 17  1  0  0  0  0
 16 19  1  0  0  0  0
 17 18  2  0  0  0  0
 18 37  1  0  0  0  0
 19 38  1  0  0  0  0
 19 39  1  0  0  0  0
 19 40  1  0  0  0  0
 20 21  1  0  0  0  0
 20 41  1  0  0  0  0
 20 42  1  0  0  0  0
 21 22  1  0  0  0  0
 21 43  1  0  0  0  0
 21 44  1  0  0  0  0
 22 23  1  0  0  0  0
 22 24  1  0  0  0  0
 23 45  1  0  0  0  0
 23 46  1  0  0  0  0
 24 47  1  0  0  0  0
 24 48  1  0  0  0  0
 24 49  1  0  0  0  0
M  END
>  <DRUGBANK_ID>
DB11725

>  <COMMON_NAME>
Latrepirdine

>  <CAS_NUMBER>
3613-73-8

>  <UNII>
OD9237K1Z6

>  <SYNONYMS>
Dimebon; Latrepirdine

$$$$
