
 OpenBabel10282417133D

 37 39  0  0  1  0  0  0  0  0999 V2000
    0.7982    0.0225    0.1837 C   0  0  0  0  0  0  0  0  0  0  0  0
    0.2043    2.8836   -7.1778 C   0  0  0  0  0  0  0  0  0  0  0  0
   -2.0713    2.6764   -3.4963 C   0  0  0  0  0  0  0  0  0  0  0  0
    0.2448    0.5407   -1.1639 C   0  0  2  0  0  0  0  0  0  0  0  0
   -0.0930    2.6515   -4.5451 C   0  0  0  0  0  0  0  0  0  0  0  0
    1.4656    1.0320   -1.9799 C   0  0  2  0  0  0  0  0  0  0  0  0
    1.2962    2.5373   -1.7240 C   0  0  2  0  0  0  0  0  0  0  0  0
    1.2014    2.6283   -5.1205 C   0  0  0  0  0  0  0  0  0  0  0  0
   -1.1701    2.7818   -5.4149 C   0  0  0  0  0  0  0  0  0  0  0  0
   -0.1853    2.6991   -1.9087 C   0  0  1  0  0  0  0  0  0  0  0  0
    2.4288    2.6105   -4.4932 N   0  0  0  0  0  0  0  0  0  0  0  0
    1.3083    2.7403   -6.4504 N   0  0  0  0  0  0  0  0  0  0  0  0
   -1.0520    2.9109   -6.7569 N   0  0  0  0  0  0  0  0  0  0  0  0
   -2.3701    2.7868   -4.7712 N   0  0  0  0  0  0  0  0  0  0  0  0
   -0.7089    2.6212   -3.2820 N   0  0  0  0  0  0  0  0  0  0  0  0
    1.4427    0.5711   -3.3279 O   0  0  0  0  0  0  0  0  0  0  0  0
    2.0745    3.5428   -2.3142 O   0  0  0  0  0  0  0  0  0  0  0  0
    0.8384   -1.5712   -1.9677 O   0  0  0  0  0  0  0  0  0  0  0  0
    2.5499   -2.0504   -0.2423 O   0  0  0  0  0  0  0  0  0  0  0  0
    1.5775   -3.5827   -1.7280 O   0  0  0  0  0  0  0  0  0  0  0  0
    0.4847   -1.3610    0.4209 O   0  0  0  0  0  0  0  0  0  0  0  0
   -0.7039    1.6299   -1.0824 O   0  0  0  0  0  0  0  0  0  0  0  0
    1.0613   -2.5334   -0.7131 P   0  0  0  0  0  0  0  0  0  0  0  0
   -0.4137   -0.1744   -1.6537 H   0  0  0  0  0  0  0  0  0  0  0  0
    2.4437    0.6891   -1.6303 H   0  0  0  0  0  0  0  0  0  0  0  0
    1.5419    2.6494   -0.6635 H   0  0  0  0  0  0  0  0  0  0  0  0
   -0.5606    3.6306   -1.4823 H   0  0  0  0  0  0  0  0  0  0  0  0
    0.4338    0.6201    1.0197 H   0  0  0  0  0  0  0  0  0  0  0  0
    1.8925    0.0977    0.2288 H   0  0  0  0  0  0  0  0  0  0  0  0
    0.3774    3.0015   -8.2451 H   0  0  0  0  0  0  0  0  0  0  0  0
   -2.7944    2.6608   -2.6898 H   0  0  0  0  0  0  0  0  0  0  0  0
    2.5500    2.0037   -3.6823 H   0  0  0  0  0  0  0  0  0  0  0  0
    3.2254    2.5325   -5.1142 H   0  0  0  0  0  0  0  0  0  0  0  0
    0.5415    0.4530   -3.6742 H   0  0  0  0  0  0  0  0  0  0  0  0
    1.7868    3.6990   -3.2391 H   0  0  0  0  0  0  0  0  0  0  0  0
    0.2973   -2.0309   -2.6353 H   0  0  0  0  0  0  0  0  0  0  0  0
    2.6305   -2.1371    0.7255 H   0  0  0  0  0  0  0  0  0  0  0  0
  1 28  1  0  0  0  0
  1 29  1  0  0  0  0
  2 30  1  0  0  0  0
  3 31  1  0  0  0  0
  4  1  1  0  0  0  0
  4 24  1  6  0  0  0
  6  4  1  0  0  0  0
  6 16  1  0  0  0  0
  6 25  1  1  0  0  0
  7  6  1  0  0  0  0
  7 17  1  0  0  0  0
  7 26  1  1  0  0  0
  8  5  2  0  0  0  0
  9  5  1  0  0  0  0
 10  7  1  0  0  0  0
 10 15  1  0  0  0  0
 10 27  1  1  0  0  0
 11  8  1  0  0  0  0
 11 32  1  0  0  0  0
 11 33  1  0  0  0  0
 12  2  2  0  0  0  0
 12  8  1  0  0  0  0
 13  2  1  0  0  0  0
 13  9  2  0  0  0  0
 14  3  2  0  0  0  0
 14  9  1  0  0  0  0
 15  3  1  0  0  0  0
 15  5  1  0  0  0  0
 16 34  1  0  0  0  0
 17 35  1  0  0  0  0
 18 36  1  0  0  0  0
 19 37  1  0  0  0  0
 21  1  1  0  0  0  0
 22  4  1  0  0  0  0
 22 10  1  0  0  0  0
 23 18  1  0  0  0  0
 23 19  1  0  0  0  0
 23 20  2  0  0  0  0
 23 21  1  0  0  0  0
M  END
>  <DRUGBANK_ID>
DB03887

>  <SECONDARY_ACCESSION_NUMBERS>
EXPT00383

>  <COMMON_NAME>
Alpha-Adenosine Monophosphate

$$$$
