
 OpenBabel10282417193D

 56 56  0  0  1  0  0  0  0  0999 V2000
   -0.8152    1.0778    0.0302 C   0  0  0  0  0  0  0  0  0  0  0  0
   -1.4411   -0.1543   -0.0129 C   0  0  0  0  0  0  0  0  0  0  0  0
   -0.6665   -1.3167   -0.0181 C   0  0  0  0  0  0  0  0  0  0  0  0
    0.7263   -1.2597    0.0418 C   0  0  0  0  0  0  0  0  0  0  0  0
    1.3506   -0.0303   -0.0409 C   0  0  0  0  0  0  0  0  0  0  0  0
    0.5744    1.1300   -0.0660 C   0  0  0  0  0  0  0  0  0  0  0  0
    1.2437    2.4411   -0.2081 C   0  0  0  0  0  0  0  0  0  0  0  0
    2.1677    2.6270    0.8951 N   0  0  0  0  0  0  0  0  0  0  0  0
    2.7712    3.9260    0.7290 C   0  0  0  0  0  0  0  0  0  0  0  0
    1.7894    5.0939    0.8450 C   0  0  0  0  0  0  0  0  0  0  0  0
    1.0692    5.0795    2.2016 C   0  0  0  0  0  0  0  0  0  0  0  0
    1.9974    5.3484    3.4050 C   0  0  0  0  0  0  0  0  0  0  0  0
    2.6108    6.7510    3.3658 C   0  0  1  0  0  0  0  0  0  0  0  0
    1.6551    7.9405    3.3921 C   0  0  0  0  0  0  0  0  0  0  0  0
    1.6272    8.8585    4.1894 O   0  0  0  0  0  0  0  0  0  0  0  0
    0.8583    7.9458    2.2912 O   0  0  0  0  0  0  0  0  0  0  0  0
    3.8458    6.8610    4.1431 N   0  0  0  0  0  0  0  0  0  0  0  0
    5.1432    7.0535    3.8410 C   0  0  0  0  0  0  0  0  0  0  0  0
    5.9367    7.1985    4.7734 O   0  0  0  0  0  0  0  0  0  0  0  0
    5.6397    7.0989    2.5927 N   0  0  0  0  0  0  0  0  0  0  0  0
    5.0711    6.8431    1.2846 C   0  0  1  0  0  0  0  0  0  0  0  0
    5.0117    8.0676    0.3797 C   0  0  0  0  0  0  0  0  0  0  0  0
    6.3572    8.3879   -0.2447 C   0  0  0  0  0  0  0  0  0  0  0  0
    6.8061    7.3645   -1.2591 C   0  0  0  0  0  0  0  0  0  0  0  0
    6.4768    7.3104   -2.4286 O   0  0  0  0  0  0  0  0  0  0  0  0
    7.5376    6.3757   -0.7101 O   0  0  0  0  0  0  0  0  0  0  0  0
    5.4121    5.5635    0.5555 C   0  0  0  0  0  0  0  0  0  0  0  0
    4.9050    5.2341   -0.4777 O   0  0  0  0  0  0  0  0  0  0  0  0
    6.3965    4.8127    1.0684 O   0  0  0  0  0  0  0  0  0  0  0  0
   -1.5968   -3.1589   -0.1829 I   0  0  0  0  0  0  0  0  0  0  0  0
   -1.3985    1.9938    0.1042 H   0  0  0  0  0  0  0  0  0  0  0  0
   -2.5243   -0.1859   -0.0563 H   0  0  0  0  0  0  0  0  0  0  0  0
    1.3391   -2.1503    0.1245 H   0  0  0  0  0  0  0  0  0  0  0  0
    2.4369    0.0460   -0.0783 H   0  0  0  0  0  0  0  0  0  0  0  0
    1.7712    2.4760   -1.1700 H   0  0  0  0  0  0  0  0  0  0  0  0
    0.4746    3.2177   -0.2376 H   0  0  0  0  0  0  0  0  0  0  0  0
    1.6846    2.5373    1.7861 H   0  0  0  0  0  0  0  0  0  0  0  0
    3.5722    4.0136    1.4651 H   0  0  0  0  0  0  0  0  0  0  0  0
    3.2141    3.9178   -0.2663 H   0  0  0  0  0  0  0  0  0  0  0  0
    2.3078    6.0327    0.6455 H   0  0  0  0  0  0  0  0  0  0  0  0
    1.0541    5.0805    0.0328 H   0  0  0  0  0  0  0  0  0  0  0  0
    0.2470    5.7950    2.1750 H   0  0  0  0  0  0  0  0  0  0  0  0
    0.5673    4.1185    2.3436 H   0  0  0  0  0  0  0  0  0  0  0  0
    1.4491    5.1936    4.3385 H   0  0  0  0  0  0  0  0  0  0  0  0
    2.8013    4.5972    3.4054 H   0  0  0  0  0  0  0  0  0  0  0  0
    2.8860    6.8949    2.3638 H   0  0  0  0  0  0  0  0  0  0  0  0
    0.2499    8.7054    2.3643 H   0  0  0  0  0  0  0  0  0  0  0  0
    3.7129    6.9235    5.1460 H   0  0  0  0  0  0  0  0  0  0  0  0
    6.6518    7.1687    2.6159 H   0  0  0  0  0  0  0  0  0  0  0  0
    4.0573    6.6119    1.4083 H   0  0  0  0  0  0  0  0  0  0  0  0
    4.2538    7.9019   -0.4010 H   0  0  0  0  0  0  0  0  0  0  0  0
    4.6514    8.9295    0.9609 H   0  0  0  0  0  0  0  0  0  0  0  0
    6.2894    9.3444   -0.7676 H   0  0  0  0  0  0  0  0  0  0  0  0
    7.1108    8.4913    0.5406 H   0  0  0  0  0  0  0  0  0  0  0  0
    7.4854    5.6443   -1.3642 H   0  0  0  0  0  0  0  0  0  0  0  0
    6.4757    4.1663    0.3336 H   0  0  0  0  0  0  0  0  0  0  0  0
  1  2  2  0  0  0  0
  1  6  1  0  0  0  0
  1 31  1  0  0  0  0
  2  3  1  0  0  0  0
  2 32  1  0  0  0  0
  3  4  2  0  0  0  0
  3 30  1  0  0  0  0
  4  5  1  0  0  0  0
  4 33  1  0  0  0  0
  5  6  2  0  0  0  0
  5 34  1  0  0  0  0
  6  7  1  0  0  0  0
  7  8  1  0  0  0  0
  7 35  1  0  0  0  0
  7 36  1  0  0  0  0
  8  9  1  0  0  0  0
  8 37  1  0  0  0  0
  9 10  1  0  0  0  0
  9 38  1  0  0  0  0
  9 39  1  0  0  0  0
 10 11  1  0  0  0  0
 10 40  1  0  0  0  0
 10 41  1  0  0  0  0
 11 12  1  0  0  0  0
 11 42  1  0  0  0  0
 11 43  1  0  0  0  0
 12 13  1  0  0  0  0
 12 44  1  0  0  0  0
 12 45  1  0  0  0  0
 13 14  1  0  0  0  0
 13 17  1  0  0  0  0
 13 46  1  6  0  0  0
 14 15  2  0  0  0  0
 14 16  1  0  0  0  0
 16 47  1  0  0  0  0
 17 18  1  0  0  0  0
 17 48  1  0  0  0  0
 18 19  2  0  0  0  0
 18 20  1  0  0  0  0
 20 49  1  0  0  0  0
 21 20  1  0  0  0  0
 21 22  1  0  0  0  0
 21 27  1  0  0  0  0
 21 50  1  1  0  0  0
 22 23  1  0  0  0  0
 22 51  1  0  0  0  0
 22 52  1  0  0  0  0
 23 24  1  0  0  0  0
 23 53  1  0  0  0  0
 23 54  1  0  0  0  0
 24 25  2  0  0  0  0
 24 26  1  0  0  0  0
 26 55  1  0  0  0  0
 27 28  2  0  0  0  0
 27 29  1  0  0  0  0
 29 56  1  0  0  0  0
M  ISO  1  30 123
M  END
>  <DRUGBANK_ID>
DB12514

>  <COMMON_NAME>
Iofolastat I-123

>  <CAS_NUMBER>
949575-24-0

>  <UNII>
AQF0A29T2V

>  <SYNONYMS>
Iofolastat (123 I)

$$$$
