GEQ
 OpenBabel10282417143D

 53 58  0  0  0  0  0  0  0  0999 V2000
    0.9400   -1.4539    0.0576 C   0  0  0  0  0  0  0  0  0  0  0  0
    2.0966   -0.6923    0.0208 C   0  0  0  0  0  0  0  0  0  0  0  0
    2.0156    0.7086   -0.0493 C   0  0  0  0  0  0  0  0  0  0  0  0
    0.8300    1.4112    0.0052 C   0  0  0  0  0  0  0  0  0  0  0  0
   -0.3089    0.6294    0.0268 C   0  0  0  0  0  0  0  0  0  0  0  0
   -0.2848   -0.7676    0.0371 C   0  0  0  0  0  0  0  0  0  0  0  0
   -1.6307   -1.1997   -0.0018 C   0  0  0  0  0  0  0  0  0  0  0  0
   -2.4299   -0.0817   -0.0376 C   0  0  0  0  0  0  0  0  0  0  0  0
   -1.6230    1.0194    0.0143 N   0  0  0  0  0  0  0  0  0  0  0  0
    3.4185   -1.3768   -0.0793 C   0  0  0  0  0  0  0  0  0  0  0  0
    3.5386   -2.5693   -0.2151 O   0  0  0  0  0  0  0  0  0  0  0  0
    4.4322   -0.4510   -0.1994 N   0  0  0  0  0  0  0  0  0  0  0  0
    4.8603    0.3405    0.9602 C   0  0  0  0  0  0  0  0  0  0  0  0
    5.3942    1.6891    0.4550 C   0  0  0  0  0  0  0  0  0  0  0  0
    6.4938    1.5601   -0.5335 N   0  0  0  0  0  0  0  0  0  0  0  0
    6.0080    0.7569   -1.6869 C   0  0  0  0  0  0  0  0  0  0  0  0
    5.3997   -0.5826   -1.2506 C   0  0  0  0  0  0  0  0  0  0  0  0
    7.8114    1.1279    0.0412 C   0  0  0  0  0  0  0  0  0  0  0  0
    8.1533    2.0036    1.2618 C   0  0  0  0  0  0  0  0  0  0  0  0
    8.2669    3.3889    1.3319 C   0  0  0  0  0  0  0  0  0  0  0  0
    8.5486    3.9661    2.5724 C   0  0  0  0  0  0  0  0  0  0  0  0
    8.6869    3.1665    3.7187 C   0  0  0  0  0  0  0  0  0  0  0  0
    8.5332    1.7782    3.6492 C   0  0  0  0  0  0  0  0  0  0  0  0
    8.2773    1.1999    2.4178 C   0  0  0  0  0  0  0  0  0  0  0  0
    7.9808   -0.2895    0.6583 C   0  0  0  0  0  0  0  0  0  0  0  0
    7.9384   -1.5577    0.0708 C   0  0  0  0  0  0  0  0  0  0  0  0
    7.6257   -2.6618    0.8723 C   0  0  0  0  0  0  0  0  0  0  0  0
    7.7039   -2.5574    2.2592 C   0  0  0  0  0  0  0  0  0  0  0  0
    8.0149   -1.3294    2.8549 C   0  0  0  0  0  0  0  0  0  0  0  0
    8.1128   -0.1922    2.0570 C   0  0  0  0  0  0  0  0  0  0  0  0
    0.9861   -2.5383    0.0492 H   0  0  0  0  0  0  0  0  0  0  0  0
    2.8947    1.3132   -0.1819 H   0  0  0  0  0  0  0  0  0  0  0  0
    0.8276    2.4946   -0.0216 H   0  0  0  0  0  0  0  0  0  0  0  0
   -1.9615   -2.2279   -0.0233 H   0  0  0  0  0  0  0  0  0  0  0  0
   -3.5017    0.0232   -0.0949 H   0  0  0  0  0  0  0  0  0  0  0  0
   -1.9288    1.9829    0.0080 H   0  0  0  0  0  0  0  0  0  0  0  0
    4.0509    0.4515    1.6894 H   0  0  0  0  0  0  0  0  0  0  0  0
    5.6146   -0.2212    1.5063 H   0  0  0  0  0  0  0  0  0  0  0  0
    4.5913    2.2266   -0.0654 H   0  0  0  0  0  0  0  0  0  0  0  0
    5.6280    2.3517    1.2910 H   0  0  0  0  0  0  0  0  0  0  0  0
    5.2320    1.3219   -2.2306 H   0  0  0  0  0  0  0  0  0  0  0  0
    6.8218    0.6079   -2.4044 H   0  0  0  0  0  0  0  0  0  0  0  0
    6.1432   -1.0957   -0.7294 H   0  0  0  0  0  0  0  0  0  0  0  0
    5.1506   -1.2840   -2.0513 H   0  0  0  0  0  0  0  0  0  0  0  0
    8.5909    1.2734   -0.7137 H   0  0  0  0  0  0  0  0  0  0  0  0
    8.1232    4.0098    0.4526 H   0  0  0  0  0  0  0  0  0  0  0  0
    8.6649    5.0448    2.6553 H   0  0  0  0  0  0  0  0  0  0  0  0
    8.9259    3.6319    4.6722 H   0  0  0  0  0  0  0  0  0  0  0  0
    8.6347    1.1717    4.5422 H   0  0  0  0  0  0  0  0  0  0  0  0
    7.8903   -1.6925   -1.0095 H   0  0  0  0  0  0  0  0  0  0  0  0
    7.2558   -3.5814    0.4140 H   0  0  0  0  0  0  0  0  0  0  0  0
    7.5211   -3.4399    2.8677 H   0  0  0  0  0  0  0  0  0  0  0  0
    8.1056   -1.2701    3.9327 H   0  0  0  0  0  0  0  0  0  0  0  0
  1  2  2  0  0  0  0
  1  6  1  0  0  0  0
  1 31  1  0  0  0  0
  2  3  1  0  0  0  0
  2 10  1  0  0  0  0
  3  4  2  0  0  0  0
  3 32  1  0  0  0  0
  4  5  1  0  0  0  0
  4 33  1  0  0  0  0
  5  6  2  0  0  0  0
  5  9  1  0  0  0  0
  6  7  1  0  0  0  0
  7  8  2  0  0  0  0
  7 34  1  0  0  0  0
  8  9  1  0  0  0  0
  8 35  1  0  0  0  0
  9 36  1  0  0  0  0
 10 11  2  0  0  0  0
 10 12  1  0  0  0  0
 12 13  1  0  0  0  0
 12 17  1  0  0  0  0
 13 14  1  0  0  0  0
 13 37  1  0  0  0  0
 13 38  1  0  0  0  0
 14 15  1  0  0  0  0
 14 39  1  0  0  0  0
 14 40  1  0  0  0  0
 15 16  1  0  0  0  0
 15 18  1  0  0  0  0
 16 17  1  0  0  0  0
 16 41  1  0  0  0  0
 16 42  1  0  0  0  0
 17 43  1  0  0  0  0
 17 44  1  0  0  0  0
 18 19  1  0  0  0  0
 18 25  1  0  0  0  0
 18 45  1  0  0  0  0
 19 20  2  0  0  0  0
 19 24  1  0  0  0  0
 20 21  1  0  0  0  0
 20 46  1  0  0  0  0
 21 22  2  0  0  0  0
 21 47  1  0  0  0  0
 22 23  1  0  0  0  0
 22 48  1  0  0  0  0
 23 24  2  0  0  0  0
 23 49  1  0  0  0  0
 24 30  1  0  0  0  0
 25 26  2  0  0  0  0
 25 30  1  0  0  0  0
 26 27  1  0  0  0  0
 26 50  1  0  0  0  0
 27 28  2  0  0  0  0
 27 51  1  0  0  0  0
 28 29  1  0  0  0  0
 28 52  1  0  0  0  0
 29 30  2  0  0  0  0
 29 53  1  0  0  0  0
M  END
>  <DRUGBANK_ID>
DB04289

>  <SECONDARY_ACCESSION_NUMBERS>
EXPT01584

>  <COMMON_NAME>
Genz-10850

$$$$
