
 OpenBabel10282417203D

 49 52  0  0  1  0  0  0  0  0999 V2000
   -2.2910    0.3457    0.6617 C   0  0  0  0  0  0  0  0  0  0  0  0
   -0.9066    0.9876    0.3345 C   0  0  2  0  0  0  0  0  0  0  0  0
    0.2807   -0.2447    0.5140 C   0  0  0  0  0  0  0  0  0  0  0  0
    0.0345   -1.0846   -0.6784 C   0  0  0  0  0  0  0  0  0  0  0  0
    0.1043   -0.2851   -1.9622 C   0  0  1  0  0  0  0  0  0  0  0  0
   -0.4279    1.1291   -1.8972 C   0  0  2  0  0  0  0  0  0  0  0  0
    0.0050    1.7504   -0.3197 C   0  0  2  0  0  0  0  0  0  0  0  0
   -0.4339    1.6850    1.6173 C   0  0  0  0  0  0  0  0  0  0  0  0
   -0.1784    3.0151    1.9841 C   0  0  0  0  0  0  0  0  0  0  0  0
   -1.0206    2.8829    0.6635 C   0  0  1  0  0  0  0  0  0  0  0  0
   -0.9825    4.3884    0.3706 C   0  0  0  0  0  0  0  0  0  0  0  0
   -2.3138    2.8640    0.0225 O   0  0  0  0  0  0  0  0  0  0  0  0
    0.0051    1.4534   -3.4558 C   0  0  0  0  0  0  0  0  0  0  0  0
   -0.6303    0.2220   -4.6859 C   0  0  0  0  0  0  0  0  0  0  0  0
   -0.7142   -1.4955   -4.3633 C   0  0  0  0  0  0  0  0  0  0  0  0
   -1.3986   -2.7927   -4.1401 C   0  0  0  0  0  0  0  0  0  0  0  0
   -1.7549   -3.0223   -2.5209 C   0  0  0  0  0  0  0  0  0  0  0  0
   -1.1081   -3.7719   -1.8133 O   0  0  0  0  0  0  0  0  0  0  0  0
   -2.6965   -1.9032   -2.0566 C   0  0  0  0  0  0  0  0  0  0  0  0
   -2.2562   -0.8558   -2.9878 C   0  0  0  0  0  0  0  0  0  0  0  0
   -0.6342   -1.0799   -2.9900 C   0  0  2  0  0  0  0  0  0  0  0  0
   -2.1255   -0.4170    1.4498 H   0  0  0  0  0  0  0  0  0  0  0  0
   -2.8018   -0.0915   -0.1576 H   0  0  0  0  0  0  0  0  0  0  0  0
   -3.0021    1.0386    1.1057 H   0  0  0  0  0  0  0  0  0  0  0  0
    1.3345    0.0868    0.5851 H   0  0  0  0  0  0  0  0  0  0  0  0
    0.0992   -0.8819    1.3863 H   0  0  0  0  0  0  0  0  0  0  0  0
    0.5125   -2.0612   -0.7624 H   0  0  0  0  0  0  0  0  0  0  0  0
   -0.9589   -1.3866   -0.4383 H   0  0  0  0  0  0  0  0  0  0  0  0
    1.1683   -0.2276   -2.2425 H   0  0  0  0  0  0  0  0  0  0  0  0
   -1.5149    1.2564   -1.9387 H   0  0  0  0  0  0  0  0  0  0  0  0
    0.8845    2.4448   -0.3333 H   0  0  0  0  0  0  0  0  0  0  0  0
   -1.5657    1.7941    2.0719 H   0  0  0  0  0  0  0  0  0  0  0  0
   -0.2118    0.8626    2.3452 H   0  0  0  0  0  0  0  0  0  0  0  0
   -0.6518    3.3768    2.8992 H   0  0  0  0  0  0  0  0  0  0  0  0
    0.9140    2.9003    2.1118 H   0  0  0  0  0  0  0  0  0  0  0  0
   -1.9994    4.7768    0.6054 H   0  0  0  0  0  0  0  0  0  0  0  0
   -0.3869    4.9773    1.0830 H   0  0  0  0  0  0  0  0  0  0  0  0
   -0.7018    4.6593   -0.6372 H   0  0  0  0  0  0  0  0  0  0  0  0
   -2.0584    2.8928   -0.9368 H   0  0  0  0  0  0  0  0  0  0  0  0
   -0.3073    2.4195   -3.8794 H   0  0  0  0  0  0  0  0  0  0  0  0
    1.1010    1.5700   -3.4053 H   0  0  0  0  0  0  0  0  0  0  0  0
   -0.1840    0.4071   -5.6657 H   0  0  0  0  0  0  0  0  0  0  0  0
   -1.6581    0.5937   -4.7814 H   0  0  0  0  0  0  0  0  0  0  0  0
   -2.4110   -3.2825   -4.2395 H   0  0  0  0  0  0  0  0  0  0  0  0
   -3.7602   -2.0687   -2.0619 H   0  0  0  0  0  0  0  0  0  0  0  0
   -2.4498   -1.4574   -1.1340 H   0  0  0  0  0  0  0  0  0  0  0  0
   -2.8178   -1.0408   -3.9471 H   0  0  0  0  0  0  0  0  0  0  0  0
   -2.5872    0.1685   -2.8563 H   0  0  0  0  0  0  0  0  0  0  0  0
    0.0596   -1.9472   -2.8699 H   0  0  0  0  0  0  0  0  0  0  0  0
  1 22  1  0  0  0  0
  1 23  1  0  0  0  0
  1 24  1  0  0  0  0
  2  3  1  0  0  0  0
  2  7  1  0  0  0  0
  2 10  1  0  0  0  0
  2  1  1  1  0  0  0
  3  4  1  0  0  0  0
  3 25  1  0  0  0  0
  3 26  1  0  0  0  0
  4 27  1  0  0  0  0
  4 28  1  0  0  0  0
  5  4  1  0  0  0  0
  5  6  1  0  0  0  0
  5 21  1  0  0  0  0
  5 29  1  1  0  0  0
  6  7  1  0  0  0  0
  6 13  1  0  0  0  0
  6 30  1  1  0  0  0
  7  8  1  0  0  0  0
  7 31  1  6  0  0  0
  8  9  1  0  0  0  0
  8 32  1  0  0  0  0
  8 33  1  0  0  0  0
  9 10  1  0  0  0  0
  9 34  1  0  0  0  0
  9 35  1  0  0  0  0
 10 11  1  0  0  0  0
 10 12  1  1  0  0  0
 11 36  1  0  0  0  0
 11 37  1  0  0  0  0
 11 38  1  0  0  0  0
 12 39  1  0  0  0  0
 13 14  1  0  0  0  0
 13 40  1  0  0  0  0
 13 41  1  0  0  0  0
 14 15  1  0  0  0  0
 14 42  1  0  0  0  0
 14 43  1  0  0  0  0
 15 16  2  0  0  0  0
 15 21  1  0  0  0  0
 16 17  1  0  0  0  0
 16 44  1  0  0  0  0
 17 19  1  0  0  0  0
 17 18  2  0  0  0  0
 19 20  1  0  0  0  0
 19 45  1  0  0  0  0
 19 46  1  0  0  0  0
 20 47  1  0  0  0  0
 20 48  1  0  0  0  0
 21 20  1  0  0  0  0
 21 49  1  1  0  0  0
M  END
>  <DRUGBANK_ID>
DB13533

>  <COMMON_NAME>
Methylestrenolone

>  <CAS_NUMBER>
514-61-4

>  <UNII>
743F1Z557A

>  <SYNONYMS>
Normethandrone

$$$$
