242
 OpenBabel10282417103D

 31 33  0  0  1  0  0  0  0  0999 V2000
    1.0923    0.2111    0.0289 Cl  0  0  0  0  0  0  0  0  0  0  0  0
    4.4340   -3.8757   -1.1994 O   0  0  0  0  0  0  0  0  0  0  0  0
    4.4715   -6.4496    0.6114 O   0  0  0  0  0  0  0  0  0  0  0  0
    1.6811   -3.0130   -0.5198 O   0  0  0  0  0  0  0  0  0  0  0  0
    5.5180   -2.1574    0.0143 N   0  0  0  0  0  0  0  0  0  0  0  0
    6.7846   -0.3158   -0.0388 N   0  0  0  0  0  0  0  0  0  0  0  0
    3.3202   -1.1222    0.1231 N   0  0  0  0  0  0  0  0  0  0  0  0
    3.4417    1.3004   -0.0280 N   0  0  0  0  0  0  0  0  0  0  0  0
    5.4442    2.4936   -0.0363 N   0  0  0  0  0  0  0  0  0  0  0  0
    5.1960   -3.5728   -0.0123 C   0  0  1  0  0  0  0  0  0  0  0  0
    3.6564   -5.2732    0.5688 C   0  0  1  0  0  0  0  0  0  0  0  0
    4.4227   -4.1222    1.1792 C   0  0  0  0  0  0  0  0  0  0  0  0
    3.4022   -4.8311   -0.8693 C   0  0  1  0  0  0  0  0  0  0  0  0
    1.9860   -4.2673   -1.0899 C   0  0  0  0  0  0  0  0  0  0  0  0
    4.6509   -1.0962    0.0451 C   0  0  0  0  0  0  0  0  0  0  0  0
    6.7875   -1.6356   -0.0287 C   0  0  0  0  0  0  0  0  0  0  0  0
    5.4545    0.0382   -0.0188 C   0  0  0  0  0  0  0  0  0  0  0  0
    4.7891    1.2812   -0.0298 C   0  0  0  0  0  0  0  0  0  0  0  0
    2.8005    0.1198    0.0303 C   0  0  0  0  0  0  0  0  0  0  0  0
    5.2201   -6.3581   -0.0032 H   0  0  0  0  0  0  0  0  0  0  0  0
    2.2725   -2.7883    0.2178 H   0  0  0  0  0  0  0  0  0  0  0  0
    6.4513    2.5181   -0.0587 H   0  0  0  0  0  0  0  0  0  0  0  0
    4.8854    3.3334   -0.0534 H   0  0  0  0  0  0  0  0  0  0  0  0
    6.1471   -4.1156   -0.0989 H   0  0  0  0  0  0  0  0  0  0  0  0
    2.7369   -5.5118    1.1100 H   0  0  0  0  0  0  0  0  0  0  0  0
    3.7295   -3.3843    1.5907 H   0  0  0  0  0  0  0  0  0  0  0  0
    5.0931   -4.4360    1.9855 H   0  0  0  0  0  0  0  0  0  0  0  0
    3.5177   -5.6832   -1.5520 H   0  0  0  0  0  0  0  0  0  0  0  0
    1.7975   -4.1691   -2.1627 H   0  0  0  0  0  0  0  0  0  0  0  0
    1.2488   -4.9640   -0.6831 H   0  0  0  0  0  0  0  0  0  0  0  0
    7.6747   -2.2536   -0.0554 H   0  0  0  0  0  0  0  0  0  0  0  0
  1 19  1  0  0  0  0
  2 10  1  0  0  0  0
  2 13  1  0  0  0  0
  3 20  1  0  0  0  0
  4 14  1  0  0  0  0
  4 21  1  0  0  0  0
  5 15  1  0  0  0  0
  5 16  1  0  0  0  0
  6 16  2  0  0  0  0
  6 17  1  0  0  0  0
  7 15  2  0  0  0  0
  7 19  1  0  0  0  0
  8 18  1  0  0  0  0
  8 19  2  0  0  0  0
  9 18  1  0  0  0  0
  9 22  1  0  0  0  0
  9 23  1  0  0  0  0
 10  5  1  0  0  0  0
 10 12  1  0  0  0  0
 10 24  1  6  0  0  0
 11  3  1  0  0  0  0
 11 12  1  0  0  0  0
 11 13  1  0  0  0  0
 11 25  1  1  0  0  0
 12 26  1  0  0  0  0
 12 27  1  0  0  0  0
 13 28  1  6  0  0  0
 13 14  1  0  0  0  0
 14 29  1  0  0  0  0
 14 30  1  0  0  0  0
 15 17  1  0  0  0  0
 16 31  1  0  0  0  0
 17 18  2  0  0  0  0
M  END
>  <DRUGBANK_ID>
DB00242

>  <SECONDARY_ACCESSION_NUMBERS>
APRD00260

>  <COMMON_NAME>
Cladribine

>  <CAS_NUMBER>
4291-63-8

>  <UNII>
47M74X9YT5

>  <SYNONYMS>
(2R,3S,5R)-5-(6-amino-2-chloropurin-9-yl)-2-(hydroxymethyl)oxolan-3-ol; 2-CdA; 2-Chloro-2'-deoxy-beta-adenosine; 2-Chloro-2'-deoxyadenosine; 2-chloro-6-amino-9-(2-deoxy-Î²-D-erythro-pentofuranosyl)purine; 2-chloro-deoxyadenosine; 2-Chlorodeoxyadenosine; 2ClAdo; Cladribina; Cladribine; Cladribinum; CldAdo

$$$$
