
 OpenBabel10282417193D

 35 36  0  0  1  0  0  0  0  0999 V2000
   -1.3678   -0.0003    0.1065 C   0  0  0  0  0  0  0  0  0  0  0  0
   -0.7141    1.2302    0.1154 C   0  0  0  0  0  0  0  0  0  0  0  0
    0.6717    1.2720    0.0018 C   0  0  0  0  0  0  0  0  0  0  0  0
    1.4090    0.0840   -0.0087 C   0  0  0  0  0  0  0  0  0  0  0  0
    0.7535   -1.1508    0.0489 C   0  0  0  0  0  0  0  0  0  0  0  0
   -0.6417   -1.1923    0.0059 C   0  0  0  0  0  0  0  0  0  0  0  0
   -1.2012   -2.4354   -0.2288 O   0  0  0  0  0  0  0  0  0  0  0  0
   -2.5663   -2.5103   -0.3928 C   0  0  0  0  0  0  0  0  0  0  0  0
   -3.2544   -1.9959   -1.5126 C   0  0  0  0  0  0  0  0  0  0  0  0
   -4.6565   -2.0765   -1.5877 C   0  0  0  0  0  0  0  0  0  0  0  0
   -5.3830   -2.6848   -0.5608 C   0  0  0  0  0  0  0  0  0  0  0  0
   -4.6930   -3.1164    0.5751 C   0  0  0  0  0  0  0  0  0  0  0  0
   -3.3013   -3.1235    0.6233 C   0  0  0  0  0  0  0  0  0  0  0  0
   -2.4172   -4.1490    2.2247 I   0  0  0  0  0  0  0  0  0  0  0  0
   -6.8710   -2.9401   -0.6629 C   0  0  0  0  0  0  0  0  0  0  0  0
   -7.2683   -4.4345   -0.8056 C   0  0  1  0  0  0  0  0  0  0  0  0
   -6.8930   -5.3126    0.4079 C   0  0  0  0  0  0  0  0  0  0  0  0
   -7.6500   -5.6481    1.3142 O   0  0  0  0  0  0  0  0  0  0  0  0
   -5.5977   -5.6756    0.4423 O   0  0  0  0  0  0  0  0  0  0  0  0
   -8.7461   -4.4982   -0.9816 N   0  0  0  0  0  0  0  0  0  0  0  0
   -2.2992   -1.0767   -3.1580 I   0  0  0  0  0  0  0  0  0  0  0  0
    3.4912    0.0987   -0.2090 I   0  0  0  0  0  0  0  0  0  0  0  0
    1.3011    2.4796   -0.1104 O   0  0  0  0  0  0  0  0  0  0  0  0
   -2.4533    0.0057    0.1057 H   0  0  0  0  0  0  0  0  0  0  0  0
   -1.3111    2.1346    0.1717 H   0  0  0  0  0  0  0  0  0  0  0  0
    1.3185   -2.0790    0.0839 H   0  0  0  0  0  0  0  0  0  0  0  0
   -5.1838   -1.6589   -2.4445 H   0  0  0  0  0  0  0  0  0  0  0  0
   -5.2574   -3.5176    1.4122 H   0  0  0  0  0  0  0  0  0  0  0  0
   -7.3544   -2.4921    0.2152 H   0  0  0  0  0  0  0  0  0  0  0  0
   -7.2620   -2.3909   -1.5323 H   0  0  0  0  0  0  0  0  0  0  0  0
   -6.8057   -4.8735   -1.6969 H   0  0  0  0  0  0  0  0  0  0  0  0
   -5.4087   -5.9472    1.3667 H   0  0  0  0  0  0  0  0  0  0  0  0
   -9.0169   -5.4843   -1.0093 H   0  0  0  0  0  0  0  0  0  0  0  0
   -9.1766   -4.1572   -0.1165 H   0  0  0  0  0  0  0  0  0  0  0  0
    0.6400    3.1874   -0.1753 H   0  0  0  0  0  0  0  0  0  0  0  0
  1  2  2  0  0  0  0
  1  6  1  0  0  0  0
  1 24  1  0  0  0  0
  2  3  1  0  0  0  0
  2 25  1  0  0  0  0
  3  4  2  0  0  0  0
  3 23  1  0  0  0  0
  4  5  1  0  0  0  0
  4 22  1  0  0  0  0
  5  6  2  0  0  0  0
  5 26  1  0  0  0  0
  6  7  1  0  0  0  0
  7  8  1  0  0  0  0
  8  9  2  0  0  0  0
  8 13  1  0  0  0  0
  9 10  1  0  0  0  0
  9 21  1  0  0  0  0
 10 11  2  0  0  0  0
 10 27  1  0  0  0  0
 11 12  1  0  0  0  0
 11 15  1  0  0  0  0
 12 13  2  0  0  0  0
 12 28  1  0  0  0  0
 13 14  1  0  0  0  0
 15 16  1  0  0  0  0
 15 29  1  0  0  0  0
 15 30  1  0  0  0  0
 16 17  1  0  0  0  0
 16 20  1  0  0  0  0
 16 31  1  6  0  0  0
 17 18  2  0  0  0  0
 17 19  1  0  0  0  0
 19 32  1  0  0  0  0
 20 33  1  0  0  0  0
 20 34  1  0  0  0  0
 23 35  1  0  0  0  0
M  ISO  3  14 131  21 131  22 131
M  END
>  <DRUGBANK_ID>
DB12425

>  <COMMON_NAME>
Liothyronine I-131

>  <CAS_NUMBER>
20196-64-9

>  <UNII>
86AZ0G22V2

>  <SYNONYMS>
Liothyronine I 131

$$$$
