
 OpenBabel10282417173D

 51 53  0  0  0  0  0  0  0  0999 V2000
    0.6786   -1.2492   -0.2997 C   0  0  0  0  0  0  0  0  0  0  0  0
    1.4231   -0.0458    0.1730 N   0  0  0  0  0  0  0  0  0  0  0  0
    0.7105    1.2029   -0.2775 C   0  0  0  0  0  0  0  0  0  0  0  0
   -0.7304    1.2446    0.2368 C   0  0  0  0  0  0  0  0  0  0  0  0
   -1.5159   -0.0001   -0.1941 C   0  0  0  0  0  0  0  0  0  0  0  0
   -0.7513   -1.2535    0.2255 C   0  0  0  0  0  0  0  0  0  0  0  0
   -2.8333   -0.0432    0.4391 N   0  0  0  0  0  0  0  0  0  0  0  0
   -3.9486    0.0567   -0.3638 C   0  0  0  0  0  0  0  0  0  0  0  0
   -4.1392   -0.9267   -1.2494 N   0  0  0  0  0  0  0  0  0  0  0  0
   -5.3424   -0.9834   -1.8506 C   0  0  0  0  0  0  0  0  0  0  0  0
   -6.3411   -0.0594   -1.6629 C   0  0  0  0  0  0  0  0  0  0  0  0
   -5.9945    1.0187   -0.8531 C   0  0  0  0  0  0  0  0  0  0  0  0
   -4.8332    1.0461   -0.1535 N   0  0  0  0  0  0  0  0  0  0  0  0
   -6.7175    2.2157   -0.8816 N   0  0  0  0  0  0  0  0  0  0  0  0
   -7.7088   -0.2413   -2.2163 C   0  0  0  0  0  0  0  0  0  0  0  0
   -8.0447   -1.2721   -3.2269 C   0  0  0  0  0  0  0  0  0  0  0  0
   -8.4574   -0.9891   -4.5418 C   0  0  0  0  0  0  0  0  0  0  0  0
   -8.8741   -2.0572   -5.3685 C   0  0  0  0  0  0  0  0  0  0  0  0
   -8.8718   -3.3779   -4.9126 C   0  0  0  0  0  0  0  0  0  0  0  0
   -8.4598   -3.6378   -3.6160 C   0  0  0  0  0  0  0  0  0  0  0  0
   -8.0618   -2.5999   -2.7794 C   0  0  0  0  0  0  0  0  0  0  0  0
   -7.6714   -2.8933   -1.5297 F   0  0  0  0  0  0  0  0  0  0  0  0
   -8.4523   -4.9009   -3.1693 F   0  0  0  0  0  0  0  0  0  0  0  0
   -8.5054    0.2162   -5.1929 O   0  0  0  0  0  0  0  0  0  0  0  0
   -8.1030    1.3884   -4.4981 C   0  0  0  0  0  0  0  0  0  0  0  0
   -8.6288    0.4629   -1.8023 O   0  0  0  0  0  0  0  0  0  0  0  0
    3.0774   -0.0043   -0.3347 S   0  0  0  0  0  0  0  0  0  0  0  0
    3.0762   -0.1286   -1.7731 O   0  0  0  0  0  0  0  0  0  0  0  0
    3.7002    1.1383    0.3106 O   0  0  0  0  0  0  0  0  0  0  0  0
    3.8084   -1.4849    0.3527 C   0  0  0  0  0  0  0  0  0  0  0  0
    1.1670   -2.1514    0.0763 H   0  0  0  0  0  0  0  0  0  0  0  0
    0.6774   -1.2767   -1.3940 H   0  0  0  0  0  0  0  0  0  0  0  0
    0.7102    1.2391   -1.3739 H   0  0  0  0  0  0  0  0  0  0  0  0
    1.2419    2.0866    0.0937 H   0  0  0  0  0  0  0  0  0  0  0  0
   -1.2205    2.1460   -0.1530 H   0  0  0  0  0  0  0  0  0  0  0  0
   -0.7275    1.3357    1.3300 H   0  0  0  0  0  0  0  0  0  0  0  0
   -1.6024    0.0119   -1.2904 H   0  0  0  0  0  0  0  0  0  0  0  0
   -0.7482   -1.3374    1.3203 H   0  0  0  0  0  0  0  0  0  0  0  0
   -1.2700   -2.1407   -0.1573 H   0  0  0  0  0  0  0  0  0  0  0  0
   -2.9465    0.3615    1.3562 H   0  0  0  0  0  0  0  0  0  0  0  0
   -5.4602   -1.8490   -2.4904 H   0  0  0  0  0  0  0  0  0  0  0  0
   -6.4573    2.8611   -0.1439 H   0  0  0  0  0  0  0  0  0  0  0  0
   -7.7161    2.1239   -1.0673 H   0  0  0  0  0  0  0  0  0  0  0  0
   -9.2147   -1.8555   -6.3850 H   0  0  0  0  0  0  0  0  0  0  0  0
   -9.1903   -4.1960   -5.5537 H   0  0  0  0  0  0  0  0  0  0  0  0
   -8.8226    1.6313   -3.7148 H   0  0  0  0  0  0  0  0  0  0  0  0
   -7.0782    1.2918   -4.1271 H   0  0  0  0  0  0  0  0  0  0  0  0
   -8.1137    2.2377   -5.1842 H   0  0  0  0  0  0  0  0  0  0  0  0
    3.7539   -1.4578    1.4410 H   0  0  0  0  0  0  0  0  0  0  0  0
    3.3185   -2.3687   -0.0563 H   0  0  0  0  0  0  0  0  0  0  0  0
    4.8578   -1.5017    0.0406 H   0  0  0  0  0  0  0  0  0  0  0  0
  1  2  1  0  0  0  0
  1  6  1  0  0  0  0
  1 31  1  0  0  0  0
  1 32  1  0  0  0  0
  2  3  1  0  0  0  0
  2 27  1  0  0  0  0
  3  4  1  0  0  0  0
  3 33  1  0  0  0  0
  3 34  1  0  0  0  0
  4  5  1  0  0  0  0
  4 35  1  0  0  0  0
  4 36  1  0  0  0  0
  5  6  1  0  0  0  0
  5  7  1  0  0  0  0
  5 37  1  0  0  0  0
  6 38  1  0  0  0  0
  6 39  1  0  0  0  0
  7  8  1  0  0  0  0
  7 40  1  0  0  0  0
  8  9  2  0  0  0  0
  9 10  1  0  0  0  0
 10 11  2  0  0  0  0
 10 41  1  0  0  0  0
 11 12  1  0  0  0  0
 11 15  1  0  0  0  0
 12 13  2  0  0  0  0
 12 14  1  0  0  0  0
 13  8  1  0  0  0  0
 14 42  1  0  0  0  0
 14 43  1  0  0  0  0
 15 16  1  0  0  0  0
 15 26  2  0  0  0  0
 16 21  2  0  0  0  0
 17 16  1  0  0  0  0
 17 24  1  0  0  0  0
 18 17  2  0  0  0  0
 18 44  1  0  0  0  0
 19 18  1  0  0  0  0
 19 45  1  0  0  0  0
 20 19  2  0  0  0  0
 20 23  1  0  0  0  0
 21 20  1  0  0  0  0
 21 22  1  0  0  0  0
 24 25  1  0  0  0  0
 25 46  1  0  0  0  0
 25 47  1  0  0  0  0
 25 48  1  0  0  0  0
 27 28  2  0  0  0  0
 27 29  2  0  0  0  0
 27 30  1  0  0  0  0
 30 49  1  0  0  0  0
 30 50  1  0  0  0  0
 30 51  1  0  0  0  0
M  END
>  <DRUGBANK_ID>
DB08094

>  <COMMON_NAME>
RO-4584820

>  <CAS_NUMBER>
741713-40-6

>  <UNII>
T61871RKRI

$$$$
