
 OpenBabel10282417123D

 11 11  0  0  0  0  0  0  0  0999 V2000
   -0.2700   -1.2822   -0.0027 C   0  0  0  0  0  0  0  0  0  0  0  0
    0.7764    0.6276    0.0006 O   0  0  0  0  0  0  0  0  0  0  0  0
   -1.1948   -0.2206   -0.0007 C   0  0  0  0  0  0  0  0  0  0  0  0
   -0.5748    0.9525    0.0009 N   0  0  0  0  0  0  0  0  0  0  0  0
    0.9636   -0.7494   -0.0010 N   0  0  0  0  0  0  0  0  0  0  0  0
   -0.4806   -2.7158   -0.0069 C   0  0  0  0  0  0  0  0  0  0  0  0
   -1.5805   -3.2593   -0.0103 O   0  0  0  0  0  0  0  0  0  0  0  0
    0.6527   -3.4658   -0.0073 O   0  0  0  0  0  0  0  0  0  0  0  0
   -2.5367   -0.1651   -0.0002 O   0  0  0  0  0  0  0  0  0  0  0  0
    0.3828   -4.4059   -0.0112 H   0  0  0  0  0  0  0  0  0  0  0  0
   -2.9363   -1.0500   -0.0000 H   0  0  0  0  0  0  0  0  0  0  0  0
  1  6  1  0  0  0  0
  1  5  2  0  0  0  0
  1  3  1  0  0  0  0
  2  4  1  0  0  0  0
  2  5  1  0  0  0  0
  3  4  2  0  0  0  0
  3  9  1  0  0  0  0
  6  7  2  0  0  0  0
  6  8  1  0  0  0  0
  8 10  1  0  0  0  0
  9 11  1  0  0  0  0
M  END
>  <DRUGBANK_ID>
DB02401

>  <SECONDARY_ACCESSION_NUMBERS>
EXPT02463

>  <COMMON_NAME>
4-Hydroxy-1,2,5-oxadiazole-3-carboxylic acid

>  <CAS_NUMBER>
66313-36-8

$$$$
