C15
 OpenBabel10282417123D

 60 59  0  0  0  0  0  0  0  0999 V2000
    0.2592    0.3983   -0.2027 C   0  0  0  0  0  0  0  0  0  0  0  0
    0.1611   -1.2102    0.5559 C   0  0  0  0  0  0  0  0  0  0  0  0
    0.7256   -1.6921    2.0109 C   0  0  0  0  0  0  0  0  0  0  0  0
    6.6868    0.1359   -5.8601 C   0  0  0  0  0  0  0  0  0  0  0  0
    7.2004    0.1266   -4.4311 C   0  0  0  0  0  0  0  0  0  0  0  0
    6.6538    1.3419   -3.6810 C   0  0  0  0  0  0  0  0  0  0  0  0
    5.1219    1.3082   -3.6511 C   0  0  0  0  0  0  0  0  0  0  0  0
    0.4975   -0.6165    2.9970 N   0  3  0  0  0  0  0  0  0  0  0  0
   -1.0673   -0.3988    2.9904 C   0  0  0  0  0  0  0  0  0  0  0  0
    1.0019   -0.6281    4.4093 C   0  0  0  0  0  0  0  0  0  0  0  0
    4.6661    0.0138   -2.9800 C   0  0  0  0  0  0  0  0  0  0  0  0
    5.2967   -0.0327   -1.5799 C   0  0  0  0  0  0  0  0  0  0  0  0
    4.8036    1.1730   -0.7739 C   0  0  0  0  0  0  0  0  0  0  0  0
    3.3122    1.0412   -0.6855 C   0  0  0  0  0  0  0  0  0  0  0  0
    3.1030   -0.3334   -0.0058 C   0  0  0  0  0  0  0  0  0  0  0  0
    3.5087   -0.2940    1.4713 C   0  0  0  0  0  0  0  0  0  0  0  0
    2.7492    0.7313    2.3606 C   0  0  0  0  0  0  0  0  0  0  0  0
    1.2358    0.5162    2.5052 C   0  0  0  0  0  0  0  0  0  0  0  0
   -0.0786    2.2691    0.5501 S   0  0  0  0  0  0  0  0  0  0  0  0
    0.4281    3.2060   -0.4717 O   0  0  0  0  0  0  0  0  0  0  0  0
   -1.3766    2.2975    1.0888 O   0  0  0  0  0  0  0  0  0  0  0  0
    0.9324    2.7093    1.7889 O   0  0  0  0  0  0  0  0  0  0  0  0
    0.0352    0.3029   -1.2703 H   0  0  0  0  0  0  0  0  0  0  0  0
    1.2729    0.6718   -0.3333 H   0  0  0  0  0  0  0  0  0  0  0  0
   -0.8801   -1.5226    0.4892 H   0  0  0  0  0  0  0  0  0  0  0  0
    0.6607   -1.9381   -0.1213 H   0  0  0  0  0  0  0  0  0  0  0  0
    0.2592   -2.6086    2.3891 H   0  0  0  0  0  0  0  0  0  0  0  0
    1.7806   -1.9330    2.0370 H   0  0  0  0  0  0  0  0  0  0  0  0
    6.9970    1.0619   -6.3519 H   0  0  0  0  0  0  0  0  0  0  0  0
    7.0662   -0.7216   -6.4139 H   0  0  0  0  0  0  0  0  0  0  0  0
    5.5939    0.0808   -5.9084 H   0  0  0  0  0  0  0  0  0  0  0  0
    8.2919    0.1396   -4.4084 H   0  0  0  0  0  0  0  0  0  0  0  0
    6.9152   -0.8151   -3.9445 H   0  0  0  0  0  0  0  0  0  0  0  0
    6.9952    2.2738   -4.1335 H   0  0  0  0  0  0  0  0  0  0  0  0
    7.0745    1.3620   -2.6677 H   0  0  0  0  0  0  0  0  0  0  0  0
    4.6822    1.3925   -4.6457 H   0  0  0  0  0  0  0  0  0  0  0  0
    4.7391    2.1936   -3.1319 H   0  0  0  0  0  0  0  0  0  0  0  0
   -1.5214   -1.3031    3.3986 H   0  0  0  0  0  0  0  0  0  0  0  0
   -1.3290    0.4994    3.5502 H   0  0  0  0  0  0  0  0  0  0  0  0
   -1.4172   -0.2472    1.9635 H   0  0  0  0  0  0  0  0  0  0  0  0
    2.0959   -0.6115    4.3894 H   0  0  0  0  0  0  0  0  0  0  0  0
    0.6662    0.3240    4.8633 H   0  0  0  0  0  0  0  0  0  0  0  0
    0.6149   -1.4865    4.9306 H   0  0  0  0  0  0  0  0  0  0  0  0
    4.9395   -0.8845   -3.5374 H   0  0  0  0  0  0  0  0  0  0  0  0
    3.5700   -0.0385   -2.9860 H   0  0  0  0  0  0  0  0  0  0  0  0
    6.3812   -0.0641   -1.5588 H   0  0  0  0  0  0  0  0  0  0  0  0
    5.0922   -1.0037   -1.1294 H   0  0  0  0  0  0  0  0  0  0  0  0
    5.0788    2.1441   -1.1883 H   0  0  0  0  0  0  0  0  0  0  0  0
    5.2303    1.1906    0.2277 H   0  0  0  0  0  0  0  0  0  0  0  0
    2.8048    1.1288   -1.6618 H   0  0  0  0  0  0  0  0  0  0  0  0
    2.9069    1.8984   -0.1408 H   0  0  0  0  0  0  0  0  0  0  0  0
    3.4820   -1.1706   -0.5935 H   0  0  0  0  0  0  0  0  0  0  0  0
    2.1362   -0.7509   -0.0920 H   0  0  0  0  0  0  0  0  0  0  0  0
    4.5753   -0.0974    1.5418 H   0  0  0  0  0  0  0  0  0  0  0  0
    3.4304   -1.2911    1.8786 H   0  0  0  0  0  0  0  0  0  0  0  0
    2.9130    1.7076    1.8719 H   0  0  0  0  0  0  0  0  0  0  0  0
    3.2191    0.8634    3.3272 H   0  0  0  0  0  0  0  0  0  0  0  0
    1.0845    0.4417    1.4932 H   0  0  0  0  0  0  0  0  0  0  0  0
    0.5676    1.2530    2.8921 H   0  0  0  0  0  0  0  0  0  0  0  0
    0.5328    2.9277    2.6820 H   0  0  0  0  0  0  0  0  0  0  0  0
  1  2  1  0  0  0  0
  1 19  1  0  0  0  0
  1 23  1  0  0  0  0
  1 24  1  0  0  0  0
  2  3  1  0  0  0  0
  2 25  1  0  0  0  0
  2 26  1  0  0  0  0
  3  8  1  0  0  0  0
  3 27  1  0  0  0  0
  3 28  1  0  0  0  0
  4  5  1  0  0  0  0
  4 29  1  0  0  0  0
  4 30  1  0  0  0  0
  4 31  1  0  0  0  0
  5  6  1  0  0  0  0
  5 32  1  0  0  0  0
  5 33  1  0  0  0  0
  6  7  1  0  0  0  0
  6 34  1  0  0  0  0
  6 35  1  0  0  0  0
  7 11  1  0  0  0  0
  7 36  1  0  0  0  0
  7 37  1  0  0  0  0
  8  9  1  0  0  0  0
  8 10  1  0  0  0  0
  8 18  1  0  0  0  0
  9 38  1  0  0  0  0
  9 39  1  0  0  0  0
  9 40  1  0  0  0  0
 10 41  1  0  0  0  0
 10 42  1  0  0  0  0
 10 43  1  0  0  0  0
 11 12  1  0  0  0  0
 11 44  1  0  0  0  0
 11 45  1  0  0  0  0
 12 13  1  0  0  0  0
 12 46  1  0  0  0  0
 12 47  1  0  0  0  0
 13 14  1  0  0  0  0
 13 48  1  0  0  0  0
 13 49  1  0  0  0  0
 14 15  1  0  0  0  0
 14 50  1  0  0  0  0
 14 51  1  0  0  0  0
 15 16  1  0  0  0  0
 15 52  1  0  0  0  0
 15 53  1  0  0  0  0
 16 17  1  0  0  0  0
 16 54  1  0  0  0  0
 16 55  1  0  0  0  0
 17 18  1  0  0  0  0
 17 56  1  0  0  0  0
 17 57  1  0  0  0  0
 18 58  1  0  0  0  0
 18 59  1  0  0  0  0
 19 20  2  0  0  0  0
 19 21  2  0  0  0  0
 19 22  1  0  0  0  0
 22 60  1  0  0  0  0
M  CHG  1   8   1
M  END
>  <DRUGBANK_ID>
DB02643

>  <SECONDARY_ACCESSION_NUMBERS>
EXPT00799

>  <COMMON_NAME>
N-Dodecyl-N,N-Dimethyl-3-Ammonio-1-Propanesulfonate

>  <UNII>
R6P3KW3E8U

$$$$
