1475
 OpenBabel10282417113D

 53 55  0  0  0  0  0  0  0  0999 V2000
    1.9314    0.1757    0.8366 O   0  0  0  0  0  0  0  0  0  0  0  0
    0.1216   -0.3136    0.7510 O   0  0  0  0  0  0  0  0  0  0  0  0
    0.9623   -2.9813    0.8936 O   0  0  0  0  0  0  0  0  0  0  0  0
   -1.9632   -0.0402   -0.0297 N   0  0  0  0  0  0  0  0  0  0  0  0
    0.4263   -1.7548   -1.8629 C   0  0  0  0  0  0  0  0  0  0  0  0
   -0.5291   -0.4520   -2.5011 C   0  0  0  0  0  0  0  0  0  0  0  0
   -1.9606   -0.1232   -1.7121 C   0  0  0  0  0  0  0  0  0  0  0  0
   -1.0616    1.1530    1.1577 C   0  0  0  0  0  0  0  0  0  0  0  0
   -0.9499   -1.1024   -0.2299 C   0  0  0  0  0  0  0  0  0  0  0  0
   -0.2780   -2.8735   -2.4581 C   0  0  0  0  0  0  0  0  0  0  0  0
    1.9955   -1.5150   -2.6165 C   0  0  0  0  0  0  0  0  0  0  0  0
    0.5247   -2.0726    0.1689 C   0  0  0  0  0  0  0  0  0  0  0  0
    0.9903    1.3758    1.1727 C   0  0  0  0  0  0  0  0  0  0  0  0
    1.1367   -0.5464   -0.5041 C   0  0  0  0  0  0  0  0  0  0  0  0
    0.2758   -4.0452   -2.0454 C   0  0  0  0  0  0  0  0  0  0  0  0
    2.7492   -0.2934   -2.7500 C   0  0  0  0  0  0  0  0  0  0  0  0
   -1.5018   -2.7424   -3.1093 C   0  0  0  0  0  0  0  0  0  0  0  0
    2.7561   -2.6389   -2.8112 C   0  0  0  0  0  0  0  0  0  0  0  0
   -0.3480   -5.1595   -2.4278 C   0  0  0  0  0  0  0  0  0  0  0  0
    4.1058   -0.2292   -3.0203 C   0  0  0  0  0  0  0  0  0  0  0  0
   -2.2906   -3.8268   -3.0876 C   0  0  0  0  0  0  0  0  0  0  0  0
    4.1286   -2.5978   -2.9535 C   0  0  0  0  0  0  0  0  0  0  0  0
   -1.6448   -5.0397   -2.9166 C   0  0  0  0  0  0  0  0  0  0  0  0
    4.7847   -1.4043   -3.1669 C   0  0  0  0  0  0  0  0  0  0  0  0
   -0.1560    1.1890   -0.5985 C   0  0  0  0  0  0  0  0  0  0  0  0
    0.7184    2.1415   -1.5740 C   0  0  0  0  0  0  0  0  0  0  0  0
   -0.4459   -0.3905   -3.6066 H   0  0  0  0  0  0  0  0  0  0  0  0
   -0.0880    0.4992   -2.5097 H   0  0  0  0  0  0  0  0  0  0  0  0
   -2.6536   -0.9358   -1.9252 H   0  0  0  0  0  0  0  0  0  0  0  0
   -2.3770    0.7751   -2.1705 H   0  0  0  0  0  0  0  0  0  0  0  0
   -1.2317    1.0022    2.2103 H   0  0  0  0  0  0  0  0  0  0  0  0
   -1.6909    2.0220    0.8002 H   0  0  0  0  0  0  0  0  0  0  0  0
   -1.1725   -1.5036    0.9696 H   0  0  0  0  0  0  0  0  0  0  0  0
   -1.4265   -2.1286   -0.4921 H   0  0  0  0  0  0  0  0  0  0  0  0
    1.4585    1.4448    0.1531 H   0  0  0  0  0  0  0  0  0  0  0  0
    1.3729    2.4026    1.0981 H   0  0  0  0  0  0  0  0  0  0  0  0
    2.0078   -1.3512   -0.4860 H   0  0  0  0  0  0  0  0  0  0  0  0
    1.2616    0.0899   -1.3138 H   0  0  0  0  0  0  0  0  0  0  0  0
    1.1950   -4.0514   -1.4638 H   0  0  0  0  0  0  0  0  0  0  0  0
    2.4478    0.7142   -2.5696 H   0  0  0  0  0  0  0  0  0  0  0  0
   -1.9397   -1.8116   -3.4615 H   0  0  0  0  0  0  0  0  0  0  0  0
    2.3240   -3.6093   -2.8906 H   0  0  0  0  0  0  0  0  0  0  0  0
    0.1856   -6.0726   -2.2498 H   0  0  0  0  0  0  0  0  0  0  0  0
    4.5988    0.7383   -3.0819 H   0  0  0  0  0  0  0  0  0  0  0  0
   -3.3484   -3.7031   -3.2643 H   0  0  0  0  0  0  0  0  0  0  0  0
    4.6527   -3.5405   -2.9349 H   0  0  0  0  0  0  0  0  0  0  0  0
   -2.1681   -5.9270   -3.1968 H   0  0  0  0  0  0  0  0  0  0  0  0
    5.8121   -1.4032   -3.4878 H   0  0  0  0  0  0  0  0  0  0  0  0
   -1.1672    1.4067   -0.9492 H   0  0  0  0  0  0  0  0  0  0  0  0
   -0.2225    2.2060   -0.0523 H   0  0  0  0  0  0  0  0  0  0  0  0
    1.1427    1.6319   -2.3880 H   0  0  0  0  0  0  0  0  0  0  0  0
    0.0006    2.8249   -2.0552 H   0  0  0  0  0  0  0  0  0  0  0  0
    1.5447    2.6826   -1.1200 H   0  0  0  0  0  0  0  0  0  0  0  0
  1 13  1  0  0  0  0
  1 14  1  0  0  0  0
  2 12  1  0  0  0  0
  2 25  1  0  0  0  0
  3 12  2  0  0  0  0
  4  7  1  0  0  0  0
  4  8  1  0  0  0  0
  4  9  1  0  0  0  0
  5  6  1  0  0  0  0
  5 10  1  0  0  0  0
  5 11  1  0  0  0  0
  5 12  1  0  0  0  0
  6  7  1  0  0  0  0
  6 27  1  0  0  0  0
  6 28  1  0  0  0  0
  7 29  1  0  0  0  0
  7 30  1  0  0  0  0
  8 13  1  0  0  0  0
  8 31  1  0  0  0  0
  8 32  1  0  0  0  0
  9 14  1  0  0  0  0
  9 33  1  0  0  0  0
  9 34  1  0  0  0  0
 10 15  2  0  0  0  0
 10 17  1  0  0  0  0
 11 16  2  0  0  0  0
 11 18  1  0  0  0  0
 13 35  1  0  0  0  0
 13 36  1  0  0  0  0
 14 37  1  0  0  0  0
 14 38  1  0  0  0  0
 15 19  1  0  0  0  0
 15 39  1  0  0  0  0
 16 20  1  0  0  0  0
 16 40  1  0  0  0  0
 17 21  2  0  0  0  0
 17 41  1  0  0  0  0
 18 22  2  0  0  0  0
 18 42  1  0  0  0  0
 19 23  2  0  0  0  0
 19 43  1  0  0  0  0
 20 24  2  0  0  0  0
 20 44  1  0  0  0  0
 21 23  1  0  0  0  0
 21 45  1  0  0  0  0
 22 24  1  0  0  0  0
 22 46  1  0  0  0  0
 23 47  1  0  0  0  0
 24 48  1  0  0  0  0
 25 26  1  0  0  0  0
 25 49  1  0  0  0  0
 25 50  1  0  0  0  0
 26 51  1  0  0  0  0
 26 52  1  0  0  0  0
 26 53  1  0  0  0  0
M  END
>  <DRUGBANK_ID>
DB01475

>  <COMMON_NAME>
Dioxaphetyl butyrate

>  <CAS_NUMBER>
467-86-7

>  <UNII>
G751H98FY4

>  <SYNONYMS>
Dioxaphetyl butyrate

$$$$
