
 OpenBabel10282417143D

 76 80  0  0  0  0  0  0  0  0999 V2000
   -0.4496   -7.8117    7.5944 C   0  0  0  0  0  0  0  0  0  0  0  0
   -0.1074   -6.3748    7.4873 N   0  0  0  0  0  0  0  0  0  0  0  0
   -0.4463   -5.4484    8.5310 C   0  0  0  0  0  0  0  0  0  0  0  0
    0.1487   -5.8969    6.2251 C   0  0  0  0  0  0  0  0  0  0  0  0
   -0.5298   -6.5127    5.2612 C   0  0  0  0  0  0  0  0  0  0  0  0
    0.9853   -4.8876    5.7356 C   0  0  0  0  0  0  0  0  0  0  0  0
    1.1796   -4.5945    4.3029 C   0  0  0  0  0  0  0  0  0  0  0  0
    0.6217   -5.3755    3.2890 C   0  0  0  0  0  0  0  0  0  0  0  0
   -0.1826   -6.3505    3.9333 C   0  0  0  0  0  0  0  0  0  0  0  0
    0.5993   -4.8476    1.6751 C   0  0  1  0  0  0  0  0  0  0  0  0
    1.8220   -4.8289    0.6515 C   0  0  0  0  0  0  0  0  0  0  0  0
   -0.6614   -5.1781    0.8281 C   0  0  0  0  0  0  0  0  0  0  0  0
   -0.8992   -4.3791   -0.5048 C   0  0  2  0  0  0  0  0  0  0  0  0
    0.1727   -4.6893   -1.4613 C   0  0  1  0  0  0  0  0  0  0  0  0
    1.5453   -4.1247   -1.0462 C   0  0  1  0  0  0  0  0  0  0  0  0
    2.3437   -4.8723   -2.5917 C   0  0  2  0  0  0  0  0  0  0  0  0
    0.5013   -6.1880   -1.5325 C   0  0  0  0  0  0  0  0  0  0  0  0
    1.9668   -6.2130   -1.9352 C   0  0  0  0  0  0  0  0  0  0  0  0
   -1.8547   -5.5201    1.3696 C   0  0  0  0  0  0  0  0  0  0  0  0
   -2.7062   -4.4010    1.2263 C   0  0  0  0  0  0  0  0  0  0  0  0
   -3.2877   -4.8728   -0.0946 C   0  0  0  0  0  0  0  0  0  0  0  0
   -2.2633   -4.6714   -1.1876 C   0  0  0  0  0  0  0  0  0  0  0  0
   -2.3837   -6.1127    2.5847 C   0  0  0  0  0  0  0  0  0  0  0  0
   -2.7856   -4.8722    3.7575 C   0  0  0  0  0  0  0  0  0  0  0  0
   -2.4436   -3.3601    3.3267 C   0  0  0  0  0  0  0  0  0  0  0  0
   -2.0419   -3.4030    1.9065 C   0  0  0  0  0  0  0  0  0  0  0  0
   -2.4334   -2.3504    3.8137 O   0  0  0  0  0  0  0  0  0  0  0  0
    1.6786   -2.5853   -0.4955 C   0  0  0  0  0  0  0  0  0  0  0  0
    1.9219   -5.8540   -4.1052 C   0  0  0  0  0  0  0  0  0  0  0  0
    0.9493   -5.6850   -4.8692 O   0  0  0  0  0  0  0  0  0  0  0  0
    2.8343   -7.0518   -4.6219 C   0  0  0  0  0  0  0  0  0  0  0  0
    4.2157   -6.9952   -4.3764 O   0  0  0  0  0  0  0  0  0  0  0  0
    2.2220   -3.9347   -3.8551 O   0  0  0  0  0  0  0  0  0  0  0  0
    1.2874   -3.2693   -4.6290 C   0  0  0  0  0  0  0  0  0  0  0  0
    0.3806   -2.4291   -3.8395 C   0  0  0  0  0  0  0  0  0  0  0  0
    1.3293   -3.1753   -5.8573 O   0  0  0  0  0  0  0  0  0  0  0  0
    4.8160   -5.9899   -5.1893 C   0  0  0  0  0  0  0  0  0  0  0  0
   -0.1835   -4.3369   -2.4287 H   0  0  0  0  0  0  0  0  0  0  0  0
   -0.9593   -3.2937   -0.3106 H   0  0  0  0  0  0  0  0  0  0  0  0
   -0.5580   -8.1423    8.6253 H   0  0  0  0  0  0  0  0  0  0  0  0
    0.3642   -8.3802    7.1230 H   0  0  0  0  0  0  0  0  0  0  0  0
   -1.3757   -8.1348    7.0864 H   0  0  0  0  0  0  0  0  0  0  0  0
    0.4036   -4.7805    8.6730 H   0  0  0  0  0  0  0  0  0  0  0  0
   -1.3380   -4.8500    8.3016 H   0  0  0  0  0  0  0  0  0  0  0  0
   -0.6292   -5.9887    9.4627 H   0  0  0  0  0  0  0  0  0  0  0  0
   -1.4391   -7.0874    5.4953 H   0  0  0  0  0  0  0  0  0  0  0  0
    1.5224   -4.2782    6.4496 H   0  0  0  0  0  0  0  0  0  0  0  0
    1.6948   -3.6776    4.0353 H   0  0  0  0  0  0  0  0  0  0  0  0
   -0.9121   -7.0747    3.6602 H   0  0  0  0  0  0  0  0  0  0  0  0
    0.5507   -3.7496    1.8471 H   0  0  0  0  0  0  0  0  0  0  0  0
    2.2172   -5.8348    0.6846 H   0  0  0  0  0  0  0  0  0  0  0  0
    2.5721   -4.2031    1.1591 H   0  0  0  0  0  0  0  0  0  0  0  0
   -0.1145   -6.9309   -2.0494 H   0  0  0  0  0  0  0  0  0  0  0  0
    0.3910   -6.5780   -0.5279 H   0  0  0  0  0  0  0  0  0  0  0  0
    2.2964   -7.1750   -2.3037 H   0  0  0  0  0  0  0  0  0  0  0  0
    2.5921   -6.1791   -1.0477 H   0  0  0  0  0  0  0  0  0  0  0  0
   -3.4760   -5.9805   -0.0696 H   0  0  0  0  0  0  0  0  0  0  0  0
   -4.2520   -4.4522   -0.3224 H   0  0  0  0  0  0  0  0  0  0  0  0
   -2.2314   -5.5095   -1.9054 H   0  0  0  0  0  0  0  0  0  0  0  0
   -2.5684   -3.8050   -1.7781 H   0  0  0  0  0  0  0  0  0  0  0  0
   -2.9773   -7.0329    2.6675 H   0  0  0  0  0  0  0  0  0  0  0  0
   -1.4911   -6.7115    2.3635 H   0  0  0  0  0  0  0  0  0  0  0  0
   -2.5065   -5.1046    4.7885 H   0  0  0  0  0  0  0  0  0  0  0  0
   -3.8683   -4.7154    3.7604 H   0  0  0  0  0  0  0  0  0  0  0  0
   -1.0840   -3.6885    2.4923 H   0  0  0  0  0  0  0  0  0  0  0  0
    1.8941   -1.7536   -1.1659 H   0  0  0  0  0  0  0  0  0  0  0  0
    0.8105   -2.2847    0.1292 H   0  0  0  0  0  0  0  0  0  0  0  0
    2.4802   -2.4978    0.2712 H   0  0  0  0  0  0  0  0  0  0  0  0
    2.4072   -7.9984   -4.2505 H   0  0  0  0  0  0  0  0  0  0  0  0
    2.7007   -7.1751   -5.7186 H   0  0  0  0  0  0  0  0  0  0  0  0
    0.7464   -1.4100   -3.9198 H   0  0  0  0  0  0  0  0  0  0  0  0
   -0.6682   -2.5580   -4.1184 H   0  0  0  0  0  0  0  0  0  0  0  0
    0.5289   -2.6951   -2.8149 H   0  0  0  0  0  0  0  0  0  0  0  0
    4.7765   -6.2474   -6.2552 H   0  0  0  0  0  0  0  0  0  0  0  0
    4.3221   -5.0286   -5.0309 H   0  0  0  0  0  0  0  0  0  0  0  0
    5.8576   -5.9022   -4.8828 H   0  0  0  0  0  0  0  0  0  0  0  0
  1  2  1  0  0  0  0
  1 40  1  0  0  0  0
  1 41  1  0  0  0  0
  1 42  1  0  0  0  0
  2  3  1  0  0  0  0
  2  4  1  0  0  0  0
  3 43  1  0  0  0  0
  3 44  1  0  0  0  0
  3 45  1  0  0  0  0
  4  6  1  0  0  0  0
  5  4  2  0  0  0  0
  5  9  1  0  0  0  0
  5 46  1  0  0  0  0
  6  7  2  0  0  0  0
  6 47  1  0  0  0  0
  7  8  1  0  0  0  0
  7 48  1  0  0  0  0
  8  9  2  0  0  0  0
  9 49  1  0  0  0  0
 10 12  1  0  0  0  0
 10  8  1  0  0  0  0
 10 50  1  1  0  0  0
 11 10  1  0  0  0  0
 11 15  1  0  0  0  0
 11 51  1  0  0  0  0
 11 52  1  0  0  0  0
 12 13  1  0  0  0  0
 12 19  2  0  0  0  0
 13 14  1  0  0  0  0
 13 39  1  6  0  0  0
 14 17  1  0  0  0  0
 14 38  1  6  0  0  0
 15 14  1  0  0  0  0
 15 28  1  1  0  0  0
 16 15  1  0  0  0  0
 16 18  1  0  0  0  0
 16 29  1  1  0  0  0
 16 33  1  0  0  0  0
 17 18  1  0  0  0  0
 17 53  1  0  0  0  0
 17 54  1  0  0  0  0
 18 55  1  0  0  0  0
 18 56  1  0  0  0  0
 19 20  1  0  0  0  0
 20 21  1  0  0  0  0
 21 22  1  0  0  0  0
 21 57  1  0  0  0  0
 21 58  1  0  0  0  0
 22 13  1  0  0  0  0
 22 59  1  0  0  0  0
 22 60  1  0  0  0  0
 23 19  1  0  0  0  0
 23 24  1  0  0  0  0
 23 61  1  0  0  0  0
 23 62  1  0  0  0  0
 24 25  1  0  0  0  0
 24 63  1  0  0  0  0
 24 64  1  0  0  0  0
 25 26  1  0  0  0  0
 25 27  2  0  0  0  0
 26 20  2  0  0  0  0
 26 65  1  0  0  0  0
 28 66  1  0  0  0  0
 28 67  1  0  0  0  0
 28 68  1  0  0  0  0
 29 30  2  0  0  0  0
 29 31  1  0  0  0  0
 31 32  1  0  0  0  0
 31 69  1  0  0  0  0
 31 70  1  0  0  0  0
 32 37  1  0  0  0  0
 33 34  1  0  0  0  0
 34 35  1  0  0  0  0
 34 36  2  0  0  0  0
 35 71  1  0  0  0  0
 35 72  1  0  0  0  0
 35 73  1  0  0  0  0
 37 74  1  0  0  0  0
 37 75  1  0  0  0  0
 37 76  1  0  0  0  0
M  END
>  <DRUGBANK_ID>
DB05253

>  <COMMON_NAME>
Telapristone acetate

>  <CAS_NUMBER>
198414-31-2

>  <UNII>
1K9EYK92PQ

>  <SYNONYMS>
17alpha-Acetoxy-11beta-(4-(dimethylamino)phenyl)-21-methoxy-19-norpregna-4,9-dien-3,20-dione; Telapristone acetate

$$$$
