
 OpenBabel10282417133D

 53 56  0  0  0  0  0  0  0  0999 V2000
   -0.2384   -0.3377   -0.5719 C   0  0  0  0  0  0  0  0  0  0  0  0
    0.7516   -0.1397   -1.7213 C   0  0  0  0  0  0  0  0  0  0  0  0
    0.6527   -2.7921   -1.3253 C   0  0  0  0  0  0  0  0  0  0  0  0
   -0.9163   -2.7157   -1.2740 C   0  0  2  0  0  0  0  0  0  0  0  0
   -1.6043   -3.8750   -2.0144 C   0  0  0  0  0  0  0  0  0  0  0  0
   -3.1835   -3.7960   -2.2053 C   0  0  0  0  0  0  0  0  0  0  0  0
   -1.3229   -1.2962   -1.7022 C   0  0  2  0  0  0  0  0  0  0  0  0
   -3.4389    0.0745   -2.5141 C   0  0  0  0  0  0  0  0  0  0  0  0
   -4.8991    0.0650   -2.7041 C   0  0  0  0  0  0  0  0  0  0  0  0
   -6.2326   -0.9993   -5.2290 C   0  0  0  0  0  0  0  0  0  0  0  0
   -7.3711   -0.2818   -4.4282 C   0  0  0  0  0  0  0  0  0  0  0  0
   -1.0357   -0.9783   -3.2465 C   0  0  0  0  0  0  0  0  0  0  0  0
   -1.2219   -2.8428   -0.2166 H   0  0  0  0  0  0  0  0  0  0  0  0
   -3.0027   -1.2487   -1.9069 C   0  0  1  0  0  0  0  0  0  0  0  0
   -3.4813   -1.3883   -0.9244 H   0  0  0  0  0  0  0  0  0  0  0  0
   -3.6301   -2.4860   -2.9839 C   0  0  2  0  0  0  0  0  0  0  0  0
   -2.9176   -2.6405   -3.7845 H   0  0  0  0  0  0  0  0  0  0  0  0
   -5.1665   -2.2907   -4.1177 C   0  0  1  0  0  0  0  0  0  0  0  0
   -5.2738   -0.9914   -3.7079 C   0  0  2  0  0  0  0  0  0  0  0  0
   -4.0720   -1.0393   -5.1767 C   0  0  0  0  0  0  0  0  0  0  0  0
   -5.7704   -3.1463   -3.7505 H   0  0  0  0  0  0  0  0  0  0  0  0
   -7.0096   -1.3390   -3.5304 C   0  0  2  0  0  0  0  0  0  0  0  0
   -7.6502   -2.5376   -4.1910 O   0  0  0  0  0  0  0  0  0  0  0  0
    1.3337   -1.6131   -2.1139 C   0  0  1  0  0  0  0  0  0  0  0  0
    1.3916   -1.9869   -3.5036 O   0  0  0  0  0  0  0  0  0  0  0  0
   -0.2017   -1.0651    0.2891 H   0  0  0  0  0  0  0  0  0  0  0  0
    0.8049   -0.2728   -0.0938 H   0  0  0  0  0  0  0  0  0  0  0  0
    0.0223    0.5015   -2.2369 H   0  0  0  0  0  0  0  0  0  0  0  0
    1.5127    0.6468   -1.8386 H   0  0  0  0  0  0  0  0  0  0  0  0
    0.9700   -3.7600   -1.7249 H   0  0  0  0  0  0  0  0  0  0  0  0
    1.0362   -2.7573   -0.2943 H   0  0  0  0  0  0  0  0  0  0  0  0
   -1.3578   -4.7864   -1.4470 H   0  0  0  0  0  0  0  0  0  0  0  0
   -1.1160   -4.0015   -2.9864 H   0  0  0  0  0  0  0  0  0  0  0  0
   -3.6209   -3.8260   -1.1992 H   0  0  0  0  0  0  0  0  0  0  0  0
   -3.4779   -4.7114   -2.7282 H   0  0  0  0  0  0  0  0  0  0  0  0
   -3.1029    0.1996   -3.5378 H   0  0  0  0  0  0  0  0  0  0  0  0
   -3.0658    0.9471   -1.9831 H   0  0  0  0  0  0  0  0  0  0  0  0
   -5.1711    1.0308   -3.1435 H   0  0  0  0  0  0  0  0  0  0  0  0
   -5.4300   -0.0533   -1.7637 H   0  0  0  0  0  0  0  0  0  0  0  0
   -6.6288   -1.2393   -6.2375 H   0  0  0  0  0  0  0  0  0  0  0  0
   -5.7389   -0.0316   -5.5502 H   0  0  0  0  0  0  0  0  0  0  0  0
   -8.3760   -0.2939   -4.8489 H   0  0  0  0  0  0  0  0  0  0  0  0
   -7.1293    0.7253   -4.0519 H   0  0  0  0  0  0  0  0  0  0  0  0
   -1.2805   -1.8194   -3.8704 H   0  0  0  0  0  0  0  0  0  0  0  0
   -1.4622   -0.0508   -3.5995 H   0  0  0  0  0  0  0  0  0  0  0  0
   -0.0699   -0.6598   -3.5954 H   0  0  0  0  0  0  0  0  0  0  0  0
   -3.0578   -1.3424   -4.9574 H   0  0  0  0  0  0  0  0  0  0  0  0
   -4.3763   -1.8335   -5.9414 H   0  0  0  0  0  0  0  0  0  0  0  0
   -3.9801   -0.1158   -5.7430 H   0  0  0  0  0  0  0  0  0  0  0  0
   -7.3788   -1.3558   -2.5105 H   0  0  0  0  0  0  0  0  0  0  0  0
   -7.2696   -2.7262   -5.0808 H   0  0  0  0  0  0  0  0  0  0  0  0
    2.3908   -1.5891   -1.8512 H   0  0  0  0  0  0  0  0  0  0  0  0
    0.5798   -2.4781   -3.7411 H   0  0  0  0  0  0  0  0  0  0  0  0
  1 26  1  0  0  0  0
  1 27  1  0  0  0  0
  2  1  1  0  0  0  0
  2 28  1  0  0  0  0
  2 29  1  0  0  0  0
  3 30  1  0  0  0  0
  3 31  1  0  0  0  0
  4  3  1  0  0  0  0
  4  5  1  0  0  0  0
  4 13  1  1  0  0  0
  5  6  1  0  0  0  0
  5 32  1  0  0  0  0
  5 33  1  0  0  0  0
  6 34  1  0  0  0  0
  6 35  1  0  0  0  0
  7  4  1  0  0  0  0
  7 12  1  6  0  0  0
  7  1  1  0  0  0  0
  8  9  1  0  0  0  0
  8 36  1  0  0  0  0
  8 37  1  0  0  0  0
  9 38  1  0  0  0  0
  9 39  1  0  0  0  0
 10 40  1  0  0  0  0
 10 41  1  0  0  0  0
 11 22  1  0  0  0  0
 11 10  1  0  0  0  0
 11 42  1  0  0  0  0
 11 43  1  0  0  0  0
 12 44  1  0  0  0  0
 12 45  1  0  0  0  0
 12 46  1  0  0  0  0
 14  8  1  0  0  0  0
 14  7  1  0  0  0  0
 14 15  1  1  0  0  0
 16 14  1  0  0  0  0
 16  6  1  0  0  0  0
 16 17  1  6  0  0  0
 18 19  1  0  0  0  0
 18 16  1  0  0  0  0
 18 10  1  0  0  0  0
 18 21  1  1  0  0  0
 19 22  1  0  0  0  0
 19  9  1  0  0  0  0
 19 20  1  6  0  0  0
 20 47  1  0  0  0  0
 20 48  1  0  0  0  0
 20 49  1  0  0  0  0
 22 23  1  0  0  0  0
 22 50  1  1  0  0  0
 23 51  1  0  0  0  0
 24  3  1  0  0  0  0
 24  2  1  0  0  0  0
 24 25  1  0  0  0  0
 24 52  1  1  0  0  0
 25 53  1  0  0  0  0
M  END
>  <DRUGBANK_ID>
DB03926

>  <SECONDARY_ACCESSION_NUMBERS>
EXPT00531

>  <COMMON_NAME>
5alpha-androstane-3beta,17alpha-diol

>  <CAS_NUMBER>
5856-11-1

>  <UNII>
0IF82ZEY2K

>  <SYNONYMS>
3beta,17alpha-Dihydroxy-5alpha-androstane; 5alpha-Androstan-3beta,17alpha-diol; 5α-androstane-3β,17α-diol

$$$$
