
 OpenBabel10282417183D

 60 64  0  0  0  0  0  0  0  0999 V2000
    1.0047    0.0791    0.0946 C   0  0  0  0  0  0  0  0  0  0  0  0
    0.4920   -0.7614   -1.0513 C   0  0  0  0  0  0  0  0  0  0  0  0
    0.9280   -2.1553   -1.0290 N   0  0  0  0  0  0  0  0  0  0  0  0
    0.3942   -3.0038   -2.1597 C   0  0  0  0  0  0  0  0  0  0  0  0
   -0.4305   -4.1490   -1.5086 C   0  0  0  0  0  0  0  0  0  0  0  0
    0.4331   -5.1933   -0.7905 C   0  0  0  0  0  0  0  0  0  0  0  0
    1.4645   -5.6931   -1.6883 N   0  0  0  0  0  0  0  0  0  0  0  0
    2.3840   -4.6943   -2.1994 C   0  0  0  0  0  0  0  0  0  0  0  0
    1.5783   -3.6270   -2.9605 C   0  0  0  0  0  0  0  0  0  0  0  0
    1.5402   -7.0222   -2.0632 C   0  0  0  0  0  0  0  0  0  0  0  0
    0.4785   -7.7302   -2.6881 C   0  0  0  0  0  0  0  0  0  0  0  0
    0.6769   -9.0661   -3.0334 C   0  0  0  0  0  0  0  0  0  0  0  0
    1.7971   -9.7839   -2.8193 N   0  0  0  0  0  0  0  0  0  0  0  0
    2.7486   -9.0278   -2.2299 C   0  0  0  0  0  0  0  0  0  0  0  0
    2.6967   -7.7203   -1.8729 N   0  0  0  0  0  0  0  0  0  0  0  0
   -0.4685   -9.4446   -3.7211 N   0  0  0  0  0  0  0  0  0  0  0  0
   -1.3107   -8.3312   -3.7217 C   0  0  0  0  0  0  0  0  0  0  0  0
   -0.7638   -7.3074   -3.0919 N   0  0  0  0  0  0  0  0  0  0  0  0
   -2.6475   -8.2878   -4.3208 C   0  0  0  0  0  0  0  0  0  0  0  0
   -3.6497   -9.1727   -3.8821 C   0  0  0  0  0  0  0  0  0  0  0  0
   -4.9210   -9.1468   -4.4590 C   0  0  0  0  0  0  0  0  0  0  0  0
   -5.2070   -8.2340   -5.4713 C   0  0  0  0  0  0  0  0  0  0  0  0
   -4.2230   -7.3504   -5.9133 C   0  0  0  0  0  0  0  0  0  0  0  0
   -2.9491   -7.3733   -5.3424 C   0  0  0  0  0  0  0  0  0  0  0  0
   -1.7684   -6.2793   -5.9839 Cl  0  0  0  0  0  0  0  0  0  0  0  0
   -0.7465  -10.6889   -4.3605 C   0  0  0  0  0  0  0  0  0  0  0  0
   -0.7343  -11.8849   -3.6335 C   0  0  0  0  0  0  0  0  0  0  0  0
   -1.1926  -13.0654   -4.2422 C   0  0  0  0  0  0  0  0  0  0  0  0
   -1.6245  -13.0537   -5.5711 C   0  0  0  0  0  0  0  0  0  0  0  0
   -1.6128  -11.8702   -6.3025 C   0  0  0  0  0  0  0  0  0  0  0  0
   -1.1800  -10.6881   -5.6977 C   0  0  0  0  0  0  0  0  0  0  0  0
   -2.1801  -14.5030   -6.3155 Cl  0  0  0  0  0  0  0  0  0  0  0  0
   -0.5213   -2.2127   -3.2062 C   0  0  0  0  0  0  0  0  0  0  0  0
   -0.8112   -1.0113   -3.2036 O   0  0  0  0  0  0  0  0  0  0  0  0
   -1.0394   -2.8849   -4.2625 N   0  0  0  0  0  0  0  0  0  0  0  0
    0.6361   -0.2940    1.0525 H   0  0  0  0  0  0  0  0  0  0  0  0
    0.6341    1.1031   -0.0395 H   0  0  0  0  0  0  0  0  0  0  0  0
    2.0964    0.1117    0.1019 H   0  0  0  0  0  0  0  0  0  0  0  0
   -0.6007   -0.7174   -0.9919 H   0  0  0  0  0  0  0  0  0  0  0  0
    0.8728   -0.2839   -1.9604 H   0  0  0  0  0  0  0  0  0  0  0  0
    1.9459   -2.1715   -1.0223 H   0  0  0  0  0  0  0  0  0  0  0  0
   -1.1543   -3.7328   -0.7950 H   0  0  0  0  0  0  0  0  0  0  0  0
   -1.0248   -4.6626   -2.2719 H   0  0  0  0  0  0  0  0  0  0  0  0
    0.9287   -4.7273    0.0731 H   0  0  0  0  0  0  0  0  0  0  0  0
   -0.1865   -5.9982   -0.3795 H   0  0  0  0  0  0  0  0  0  0  0  0
    3.1390   -5.1242   -2.8676 H   0  0  0  0  0  0  0  0  0  0  0  0
    2.9226   -4.2289   -1.3653 H   0  0  0  0  0  0  0  0  0  0  0  0
    1.1877   -4.1062   -3.8669 H   0  0  0  0  0  0  0  0  0  0  0  0
    2.2479   -2.8306   -3.3085 H   0  0  0  0  0  0  0  0  0  0  0  0
    3.6849   -9.5383   -2.0130 H   0  0  0  0  0  0  0  0  0  0  0  0
   -3.4495   -9.8945   -3.0915 H   0  0  0  0  0  0  0  0  0  0  0  0
   -5.6898   -9.8366   -4.1168 H   0  0  0  0  0  0  0  0  0  0  0  0
   -6.1979   -8.2072   -5.9180 H   0  0  0  0  0  0  0  0  0  0  0  0
   -4.4522   -6.6451   -6.7075 H   0  0  0  0  0  0  0  0  0  0  0  0
   -0.4428  -11.9105   -2.5859 H   0  0  0  0  0  0  0  0  0  0  0  0
   -1.2283  -13.9923   -3.6733 H   0  0  0  0  0  0  0  0  0  0  0  0
   -1.9471  -11.8565   -7.3373 H   0  0  0  0  0  0  0  0  0  0  0  0
   -1.1790   -9.7760   -6.2908 H   0  0  0  0  0  0  0  0  0  0  0  0
   -0.9158   -3.8687   -4.4486 H   0  0  0  0  0  0  0  0  0  0  0  0
   -1.5810   -2.3128   -4.8989 H   0  0  0  0  0  0  0  0  0  0  0  0
  1  2  1  0  0  0  0
  1 36  1  0  0  0  0
  1 37  1  0  0  0  0
  1 38  1  0  0  0  0
  2  3  1  0  0  0  0
  2 39  1  0  0  0  0
  2 40  1  0  0  0  0
  3  4  1  0  0  0  0
  3 41  1  0  0  0  0
  4  5  1  0  0  0  0
  4  9  1  0  0  0  0
  4 33  1  0  0  0  0
  5  6  1  0  0  0  0
  5 42  1  0  0  0  0
  5 43  1  0  0  0  0
  6  7  1  0  0  0  0
  6 44  1  0  0  0  0
  6 45  1  0  0  0  0
  7  8  1  0  0  0  0
  7 10  1  0  0  0  0
  8  9  1  0  0  0  0
  8 46  1  0  0  0  0
  8 47  1  0  0  0  0
  9 48  1  0  0  0  0
  9 49  1  0  0  0  0
 10 11  2  0  0  0  0
 10 15  1  0  0  0  0
 11 12  1  0  0  0  0
 11 18  1  0  0  0  0
 12 13  2  0  0  0  0
 12 16  1  0  0  0  0
 13 14  1  0  0  0  0
 14 15  2  0  0  0  0
 14 50  1  0  0  0  0
 16 17  1  0  0  0  0
 16 26  1  0  0  0  0
 17 18  2  0  0  0  0
 17 19  1  0  0  0  0
 19 20  2  0  0  0  0
 19 24  1  0  0  0  0
 20 21  1  0  0  0  0
 20 51  1  0  0  0  0
 21 22  2  0  0  0  0
 21 52  1  0  0  0  0
 22 23  1  0  0  0  0
 22 53  1  0  0  0  0
 23 24  2  0  0  0  0
 23 54  1  0  0  0  0
 24 25  1  0  0  0  0
 26 27  2  0  0  0  0
 26 31  1  0  0  0  0
 27 28  1  0  0  0  0
 27 55  1  0  0  0  0
 28 29  2  0  0  0  0
 28 56  1  0  0  0  0
 29 30  1  0  0  0  0
 29 32  1  0  0  0  0
 30 31  2  0  0  0  0
 30 57  1  0  0  0  0
 31 58  1  0  0  0  0
 33 34  2  0  0  0  0
 33 35  1  0  0  0  0
 35 59  1  0  0  0  0
 35 60  1  0  0  0  0
M  END
>  <DRUGBANK_ID>
DB11745

>  <SECONDARY_ACCESSION_NUMBERS>
DB05372

>  <COMMON_NAME>
Otenabant

>  <CAS_NUMBER>
686344-29-6

>  <UNII>
J8211Y53EF

>  <SYNONYMS>
Otenabant

$$$$
