CPX
 OpenBabel10282417163D

 70 73  0  0  0  0  0  0  0  0999 V2000
    0.6589   -0.2667   -0.2862 O   0  0  0  0  0  0  0  0  0  0  0  0
   10.0020    3.7178   -1.1788 C   0  0  0  0  0  0  0  0  0  0  0  0
   10.0126    2.3312   -0.6065 C   0  0  0  0  0  0  0  0  0  0  0  0
    9.6607    3.4925    0.2808 C   0  0  0  0  0  0  0  0  0  0  0  0
    1.8856   -0.2361   -0.1101 C   0  0  0  0  0  0  0  0  0  0  0  0
    2.7480   -0.9079   -1.0180 N   0  0  0  0  0  0  0  0  0  0  0  0
    4.2346   -1.0542   -1.1866 C   0  0  0  0  0  0  0  0  0  0  0  0
    4.9777    0.0687   -1.9539 C   0  0  0  0  0  0  0  0  0  0  0  0
    6.3999   -0.3279   -2.3002 C   0  0  0  0  0  0  0  0  0  0  0  0
    6.3901   -1.8248   -2.1584 C   0  0  0  0  0  0  0  0  0  0  0  0
    4.9005   -2.2344   -1.9260 C   0  0  0  0  0  0  0  0  0  0  0  0
    2.4747    0.4478    0.9169 N   0  0  0  0  0  0  0  0  0  0  0  0
    2.1165    1.6407    1.8873 C   0  0  1  0  0  0  0  0  0  0  0  0
    2.3765    1.3022    3.5339 C   0  0  0  0  0  0  0  0  0  0  0  0
    3.7571    1.4267    4.3245 C   0  0  0  0  0  0  0  0  0  0  0  0
    1.5778    2.3037    4.3294 C   0  0  0  0  0  0  0  0  0  0  0  0
    2.7046    3.2274    1.5654 C   0  0  0  0  0  0  0  0  0  0  0  0
    1.8606    4.1169    1.3904 O   0  0  0  0  0  0  0  0  0  0  0  0
    4.0925    3.5803    1.7216 N   0  0  0  0  0  0  0  0  0  0  0  0
    5.3886    3.0072    1.1567 C   0  0  1  0  0  0  0  0  0  0  0  0
    6.4352    3.3678    2.1855 C   0  0  2  0  0  0  0  0  0  0  0  0
    6.0125    4.8009    2.5219 C   0  0  0  0  0  0  0  0  0  0  0  0
    4.4746    4.8672    2.2969 C   0  0  0  0  0  0  0  0  0  0  0  0
    7.7708    3.1036    1.7081 N   0  0  0  0  0  0  0  0  0  0  0  0
    8.2901    3.8558    0.6800 C   0  0  0  0  0  0  0  0  0  0  0  0
    7.7301    4.7833    0.1483 O   0  0  0  0  0  0  0  0  0  0  0  0
    5.2136    1.5568    0.7328 C   0  0  0  0  0  0  0  0  0  0  0  0
    4.0416    2.1437   -0.5539 C   0  0  0  0  0  0  0  0  0  0  0  0
    4.1839    3.0282   -1.4081 O   0  0  0  0  0  0  0  0  0  0  0  0
    4.9555    1.0575    2.1248 C   0  0  0  0  0  0  0  0  0  0  0  0
    4.9498   -0.4230    1.9447 C   0  0  0  0  0  0  0  0  0  0  0  0
    5.9944    0.0299    0.8769 C   0  0  0  0  0  0  0  0  0  0  0  0
    1.0271    1.7100    1.7570 H   0  0  0  0  0  0  0  0  0  0  0  0
    5.6308    3.5903    0.2585 H   0  0  0  0  0  0  0  0  0  0  0  0
    6.3730    2.8471    3.1417 H   0  0  0  0  0  0  0  0  0  0  0  0
   10.9330    4.2205   -1.4050 H   0  0  0  0  0  0  0  0  0  0  0  0
    9.1876    4.0093   -1.8393 H   0  0  0  0  0  0  0  0  0  0  0  0
    9.2394    1.6455   -0.9287 H   0  0  0  0  0  0  0  0  0  0  0  0
   10.9811    1.8674   -0.4517 H   0  0  0  0  0  0  0  0  0  0  0  0
   10.3972    3.7984    1.0136 H   0  0  0  0  0  0  0  0  0  0  0  0
    2.2127   -1.4601   -1.6759 H   0  0  0  0  0  0  0  0  0  0  0  0
    4.4869   -1.2833   -0.1682 H   0  0  0  0  0  0  0  0  0  0  0  0
    4.4105    0.4063   -2.8215 H   0  0  0  0  0  0  0  0  0  0  0  0
    5.2428    0.9318   -1.4032 H   0  0  0  0  0  0  0  0  0  0  0  0
    6.6787    0.0573   -3.2833 H   0  0  0  0  0  0  0  0  0  0  0  0
    7.1289    0.1344   -1.6057 H   0  0  0  0  0  0  0  0  0  0  0  0
    6.8278   -2.2784   -3.0482 H   0  0  0  0  0  0  0  0  0  0  0  0
    7.0319   -2.1030   -1.3088 H   0  0  0  0  0  0  0  0  0  0  0  0
    4.8782   -3.1540   -1.3356 H   0  0  0  0  0  0  0  0  0  0  0  0
    4.4190   -2.3966   -2.8891 H   0  0  0  0  0  0  0  0  0  0  0  0
    3.4321    0.3675    0.7108 H   0  0  0  0  0  0  0  0  0  0  0  0
    2.0546    0.2650    3.6739 H   0  0  0  0  0  0  0  0  0  0  0  0
    4.2732    2.3687    4.0683 H   0  0  0  0  0  0  0  0  0  0  0  0
    3.7483    1.4314    5.4131 H   0  0  0  0  0  0  0  0  0  0  0  0
    4.3662    0.5376    4.1555 H   0  0  0  0  0  0  0  0  0  0  0  0
    0.5199    2.2086    4.1199 H   0  0  0  0  0  0  0  0  0  0  0  0
    1.7585    2.1431    5.3972 H   0  0  0  0  0  0  0  0  0  0  0  0
    1.9288    3.3158    4.0956 H   0  0  0  0  0  0  0  0  0  0  0  0
    6.2890    5.0289    3.5545 H   0  0  0  0  0  0  0  0  0  0  0  0
    6.5045    5.5409    1.8926 H   0  0  0  0  0  0  0  0  0  0  0  0
    3.9349    5.0073    3.2359 H   0  0  0  0  0  0  0  0  0  0  0  0
    4.2301    5.6861    1.6110 H   0  0  0  0  0  0  0  0  0  0  0  0
    8.1984    2.2073    1.9143 H   0  0  0  0  0  0  0  0  0  0  0  0
    3.0329    1.7463   -0.5671 H   0  0  0  0  0  0  0  0  0  0  0  0
    5.7447    1.2215    2.8565 H   0  0  0  0  0  0  0  0  0  0  0  0
    4.0777    1.5307    2.3739 H   0  0  0  0  0  0  0  0  0  0  0  0
    5.2718   -0.9825    2.8338 H   0  0  0  0  0  0  0  0  0  0  0  0
    3.9669   -0.8948    1.7960 H   0  0  0  0  0  0  0  0  0  0  0  0
    6.1513   -0.6887    0.1028 H   0  0  0  0  0  0  0  0  0  0  0  0
    6.9664    0.0372    1.3818 H   0  0  0  0  0  0  0  0  0  0  0  0
  1  5  2  0  0  0  0
  2  3  1  0  0  0  0
  2  4  1  0  0  0  0
  2 36  1  0  0  0  0
  2 37  1  0  0  0  0
  3  4  1  0  0  0  0
  3 38  1  0  0  0  0
  3 39  1  0  0  0  0
  4 25  1  0  0  0  0
  4 40  1  0  0  0  0
  5  6  1  0  0  0  0
  5 12  1  0  0  0  0
  6  7  1  0  0  0  0
  6 41  1  0  0  0  0
  7  8  1  0  0  0  0
  7 11  1  0  0  0  0
  7 42  1  0  0  0  0
  8  9  1  0  0  0  0
  8 43  1  0  0  0  0
  8 44  1  0  0  0  0
  9 10  1  0  0  0  0
  9 45  1  0  0  0  0
  9 46  1  0  0  0  0
 10 11  1  0  0  0  0
 10 47  1  0  0  0  0
 10 48  1  0  0  0  0
 11 49  1  0  0  0  0
 11 50  1  0  0  0  0
 12 51  1  0  0  0  0
 13 12  1  0  0  0  0
 13 14  1  0  0  0  0
 13 17  1  0  0  0  0
 13 33  1  6  0  0  0
 14 15  1  0  0  0  0
 14 16  1  0  0  0  0
 14 52  1  0  0  0  0
 15 53  1  0  0  0  0
 15 54  1  0  0  0  0
 15 55  1  0  0  0  0
 16 56  1  0  0  0  0
 16 57  1  0  0  0  0
 16 58  1  0  0  0  0
 17 18  2  0  0  0  0
 17 19  1  0  0  0  0
 19 20  1  0  0  0  0
 19 23  1  0  0  0  0
 20 21  1  0  0  0  0
 20 34  1  6  0  0  0
 20 27  1  0  0  0  0
 21 22  1  0  0  0  0
 21 35  1  1  0  0  0
 21 24  1  0  0  0  0
 22 23  1  0  0  0  0
 22 59  1  0  0  0  0
 22 60  1  0  0  0  0
 23 61  1  0  0  0  0
 23 62  1  0  0  0  0
 24 25  1  0  0  0  0
 24 63  1  0  0  0  0
 25 26  2  0  0  0  0
 27 28  1  0  0  0  0
 27 30  1  0  0  0  0
 27 32  1  0  0  0  0
 28 29  2  0  0  0  0
 28 64  1  0  0  0  0
 30 31  1  0  0  0  0
 30 65  1  0  0  0  0
 30 66  1  0  0  0  0
 31 32  1  0  0  0  0
 31 67  1  0  0  0  0
 31 68  1  0  0  0  0
 32 69  1  0  0  0  0
 32 70  1  0  0  0  0
M  END
>  <DRUGBANK_ID>
DB07582

>  <COMMON_NAME>
N-[(2R,3S)-1-((2S)-2-{[(CYCLOPENTYLAMINO)CARBONYL]AMINO}-3-METHYLBUTANOYL)-2-(1-FORMYL-1-CYCLOBUTYL)PYRROLIDINYL]CYCLOPROPANECARBOXAMIDE

$$$$
