
 OpenBabel10282417193D

 53 55  0  0  0  0  0  0  0  0999 V2000
    2.4326    0.4574    0.3580 C   0  0  0  0  0  0  0  0  0  0  0  0
    1.8072    1.7726   -0.0715 C   0  0  0  0  0  0  0  0  0  0  0  0
    1.7927    2.2418   -1.7472 C   0  0  0  0  0  0  0  0  0  0  0  0
    0.7499    1.7684   -3.2401 C   0  0  0  0  0  0  0  0  0  0  0  0
   -1.0611    1.7269   -3.3316 C   0  0  0  0  0  0  0  0  0  0  0  0
   -1.8367    3.3217   -2.9024 S   0  0  0  0  0  0  0  0  0  0  0  0
   -1.3184    4.2445   -3.9195 O   0  0  0  0  0  0  0  0  0  0  0  0
   -3.2444    3.1673   -2.6964 O   0  0  0  0  0  0  0  0  0  0  0  0
   -1.2392    3.8636   -1.4419 N   0  0  0  0  0  0  0  0  0  0  0  0
   -1.0329    3.1911   -0.1898 C   0  0  0  0  0  0  0  0  0  0  0  0
   -0.4619    3.8396    0.7028 O   0  0  0  0  0  0  0  0  0  0  0  0
   -1.2226    1.5803   -0.1473 C   0  0  0  0  0  0  0  0  0  0  0  0
   -0.4983    0.9805   -1.1395 C   0  0  0  0  0  0  0  0  0  0  0  0
    0.0391   -0.3075   -1.5209 C   0  0  0  0  0  0  0  0  0  0  0  0
   -0.0800   -1.1893   -0.4991 C   0  0  0  0  0  0  0  0  0  0  0  0
   -0.5936   -0.6771    0.7013 C   0  0  0  0  0  0  0  0  0  0  0  0
   -1.2329    0.6657    0.8716 C   0  0  0  0  0  0  0  0  0  0  0  0
    0.0282   -1.5444    1.5926 N   0  0  0  0  0  0  0  0  0  0  0  0
    0.5953   -2.6086    0.8941 C   0  0  0  0  0  0  0  0  0  0  0  0
    0.6248   -2.3501   -0.3884 N   0  0  0  0  0  0  0  0  0  0  0  0
    1.0008   -3.9145    1.4666 C   0  0  0  0  0  0  0  0  0  0  0  0
   -0.0286   -1.3642    3.0403 C   0  0  0  0  0  0  0  0  0  0  0  0
    0.9572   -0.3759    3.6711 C   0  0  0  0  0  0  0  0  0  0  0  0
    0.9919    0.9874    3.3154 C   0  0  0  0  0  0  0  0  0  0  0  0
    1.9634    1.8874    3.7588 C   0  0  0  0  0  0  0  0  0  0  0  0
    2.7840    1.5135    4.7940 C   0  0  0  0  0  0  0  0  0  0  0  0
    2.6374    0.2445    5.3444 C   0  0  0  0  0  0  0  0  0  0  0  0
    1.8025   -0.7166    4.7346 C   0  0  0  0  0  0  0  0  0  0  0  0
    1.8446   -2.3157    5.3844 Cl  0  0  0  0  0  0  0  0  0  0  0  0
    3.9266    2.6369    5.4094 Cl  0  0  0  0  0  0  0  0  0  0  0  0
    1.8925   -0.2970   -0.1565 H   0  0  0  0  0  0  0  0  0  0  0  0
    2.1982    0.1638    1.3898 H   0  0  0  0  0  0  0  0  0  0  0  0
    3.4264    0.2056    0.0409 H   0  0  0  0  0  0  0  0  0  0  0  0
    0.8569    1.5031    0.3077 H   0  0  0  0  0  0  0  0  0  0  0  0
    1.8404    2.6166    0.6467 H   0  0  0  0  0  0  0  0  0  0  0  0
    1.5834    3.3175   -1.6708 H   0  0  0  0  0  0  0  0  0  0  0  0
    2.8446    2.1210   -2.0177 H   0  0  0  0  0  0  0  0  0  0  0  0
    1.0488    2.4297   -4.0563 H   0  0  0  0  0  0  0  0  0  0  0  0
    1.0706    0.7752   -3.5901 H   0  0  0  0  0  0  0  0  0  0  0  0
   -1.4273    1.2153   -4.2299 H   0  0  0  0  0  0  0  0  0  0  0  0
   -1.6826    1.0639   -2.6800 H   0  0  0  0  0  0  0  0  0  0  0  0
   -1.1809    4.8910   -1.4074 H   0  0  0  0  0  0  0  0  0  0  0  0
   -0.0981    1.8587   -1.5729 H   0  0  0  0  0  0  0  0  0  0  0  0
    0.8678   -0.4860   -2.2246 H   0  0  0  0  0  0  0  0  0  0  0  0
   -1.3516    1.1006    1.8492 H   0  0  0  0  0  0  0  0  0  0  0  0
    1.7626   -3.8277    2.2431 H   0  0  0  0  0  0  0  0  0  0  0  0
    0.0990   -4.3735    1.8765 H   0  0  0  0  0  0  0  0  0  0  0  0
    1.3834   -4.5950    0.6921 H   0  0  0  0  0  0  0  0  0  0  0  0
   -1.0477   -1.0195    3.2248 H   0  0  0  0  0  0  0  0  0  0  0  0
    0.0606   -2.3709    3.4441 H   0  0  0  0  0  0  0  0  0  0  0  0
    0.2894    1.4323    2.6407 H   0  0  0  0  0  0  0  0  0  0  0  0
    2.0283    2.8734    3.2998 H   0  0  0  0  0  0  0  0  0  0  0  0
    3.1679    0.0052    6.2606 H   0  0  0  0  0  0  0  0  0  0  0  0
  1  2  1  0  0  0  0
  1 31  1  0  0  0  0
  1 32  1  0  0  0  0
  1 33  1  0  0  0  0
  2  3  1  0  0  0  0
  2 34  1  0  0  0  0
  2 35  1  0  0  0  0
  3  4  1  0  0  0  0
  3 36  1  0  0  0  0
  3 37  1  0  0  0  0
  4  5  1  0  0  0  0
  4 38  1  0  0  0  0
  4 39  1  0  0  0  0
  5  6  1  0  0  0  0
  5 40  1  0  0  0  0
  5 41  1  0  0  0  0
  6  7  2  0  0  0  0
  6  8  2  0  0  0  0
  6  9  1  0  0  0  0
  9 10  1  0  0  0  0
  9 42  1  0  0  0  0
 10 11  2  0  0  0  0
 10 12  1  0  0  0  0
 12 13  2  0  0  0  0
 12 17  1  0  0  0  0
 13 14  1  0  0  0  0
 13 43  1  0  0  0  0
 14 15  2  0  0  0  0
 14 44  1  0  0  0  0
 15 16  1  0  0  0  0
 15 20  1  0  0  0  0
 16 17  2  0  0  0  0
 16 18  1  0  0  0  0
 17 45  1  0  0  0  0
 18 19  1  0  0  0  0
 18 22  1  0  0  0  0
 19 20  2  0  0  0  0
 19 21  1  0  0  0  0
 21 46  1  0  0  0  0
 21 47  1  0  0  0  0
 21 48  1  0  0  0  0
 22 23  1  0  0  0  0
 22 49  1  0  0  0  0
 22 50  1  0  0  0  0
 23 24  2  0  0  0  0
 23 28  1  0  0  0  0
 24 25  1  0  0  0  0
 24 51  1  0  0  0  0
 25 26  2  0  0  0  0
 25 52  1  0  0  0  0
 26 27  1  0  0  0  0
 26 30  1  0  0  0  0
 27 28  2  0  0  0  0
 27 53  1  0  0  0  0
 28 29  1  0  0  0  0
M  END
>  <DRUGBANK_ID>
DB12557

>  <COMMON_NAME>
FK-614

>  <CAS_NUMBER>
193012-35-0

>  <UNII>
V5Q32BZX79

$$$$
