
 OpenBabel10282417113D

 31 32  0  0  0  0  0  0  0  0999 V2000
    0.7091    1.2295   -0.2313 C   0  0  1  0  0  0  0  0  0  0  0  0
    1.3651    2.5436    0.1969 C   0  0  0  0  0  0  0  0  0  0  0  0
    1.4525   -0.0856    0.2524 C   0  0  1  0  0  0  0  0  0  0  0  0
   -0.6650    1.2124    0.2303 O   0  0  0  0  0  0  0  0  0  0  0  0
    2.6541    2.8678   -0.2583 C   0  0  0  0  0  0  0  0  0  0  0  0
    0.7029    3.5081    0.9734 C   0  0  0  0  0  0  0  0  0  0  0  0
    0.7146   -1.3084   -0.2002 N   0  0  0  0  0  0  0  0  0  0  0  0
    2.9019   -0.1606   -0.2551 C   0  0  0  0  0  0  0  0  0  0  0  0
   -1.3525    0.0568   -0.2594 C   0  0  0  0  0  0  0  0  0  0  0  0
    3.3176    4.0225    0.1418 C   0  0  0  0  0  0  0  0  0  0  0  0
    1.3188    4.7301    1.2698 C   0  0  0  0  0  0  0  0  0  0  0  0
   -0.6889   -1.2228    0.2520 C   0  0  0  0  0  0  0  0  0  0  0  0
    1.3106   -2.5467    0.3047 C   0  0  0  0  0  0  0  0  0  0  0  0
    2.6364    4.9720    0.8901 C   0  0  0  0  0  0  0  0  0  0  0  0
    0.6710    1.2515   -1.3295 H   0  0  0  0  0  0  0  0  0  0  0  0
    1.4694   -0.0748    1.3515 H   0  0  0  0  0  0  0  0  0  0  0  0
    3.1801    2.2186   -0.9523 H   0  0  0  0  0  0  0  0  0  0  0  0
   -0.3113    3.3343    1.3262 H   0  0  0  0  0  0  0  0  0  0  0  0
    3.5293    0.5866    0.2337 H   0  0  0  0  0  0  0  0  0  0  0  0
    3.4119   -1.0918   -0.0076 H   0  0  0  0  0  0  0  0  0  0  0  0
    2.9428   -0.0357   -1.3434 H   0  0  0  0  0  0  0  0  0  0  0  0
   -1.3853    0.0818   -1.3553 H   0  0  0  0  0  0  0  0  0  0  0  0
   -2.3861    0.1024    0.1007 H   0  0  0  0  0  0  0  0  0  0  0  0
    4.3466    4.1853   -0.1629 H   0  0  0  0  0  0  0  0  0  0  0  0
    0.7611    5.5032    1.7940 H   0  0  0  0  0  0  0  0  0  0  0  0
   -1.2537   -2.0856   -0.1200 H   0  0  0  0  0  0  0  0  0  0  0  0
   -0.7309   -1.2378    1.3493 H   0  0  0  0  0  0  0  0  0  0  0  0
    1.3768   -2.5524    1.3978 H   0  0  0  0  0  0  0  0  0  0  0  0
    0.7288   -3.4142   -0.0215 H   0  0  0  0  0  0  0  0  0  0  0  0
    2.3092   -2.7151   -0.1067 H   0  0  0  0  0  0  0  0  0  0  0  0
    3.1265    5.9046    1.1484 H   0  0  0  0  0  0  0  0  0  0  0  0
  1  2  1  0  0  0  0
  1  3  1  0  0  0  0
  1  4  1  0  0  0  0
  1 15  1  6  0  0  0
  2  5  2  0  0  0  0
  2  6  1  0  0  0  0
  3  7  1  0  0  0  0
  3  8  1  0  0  0  0
  3 16  1  1  0  0  0
  4  9  1  0  0  0  0
  5 10  1  0  0  0  0
  5 17  1  0  0  0  0
  6 11  2  0  0  0  0
  6 18  1  0  0  0  0
  7 12  1  0  0  0  0
  7 13  1  0  0  0  0
  8 19  1  0  0  0  0
  8 20  1  0  0  0  0
  8 21  1  0  0  0  0
  9 12  1  0  0  0  0
  9 22  1  0  0  0  0
  9 23  1  0  0  0  0
 10 14  2  0  0  0  0
 10 24  1  0  0  0  0
 11 14  1  0  0  0  0
 11 25  1  0  0  0  0
 12 26  1  0  0  0  0
 12 27  1  0  0  0  0
 13 28  1  0  0  0  0
 13 29  1  0  0  0  0
 13 30  1  0  0  0  0
 14 31  1  0  0  0  0
M  END
>  <DRUGBANK_ID>
DB01579

>  <COMMON_NAME>
Phendimetrazine

>  <CAS_NUMBER>
634-03-7

>  <UNII>
AB2794W8KV

>  <SYNONYMS>
(2S,3S)-3,4-dimethyl-2-phenylmorpholine; Phendimetrazine

$$$$
