
 OpenBabel10282417213D

 52 55  0  0  0  0  0  0  0  0999 V2000
    1.4488    0.3373    0.0043 C   0  0  0  0  0  0  0  0  0  0  0  0
    2.7186    0.9280   -0.0017 C   0  0  0  0  0  0  0  0  0  0  0  0
    3.9396    0.3158    0.0154 C   0  0  0  0  0  0  0  0  0  0  0  0
    3.9130   -1.0324    0.0150 C   0  0  0  0  0  0  0  0  0  0  0  0
    2.6779   -1.6975    0.0118 C   0  0  0  0  0  0  0  0  0  0  0  0
    1.4395   -1.0285    0.0145 C   0  0  0  0  0  0  0  0  0  0  0  0
   -0.0226   -2.0194   -0.0001 S   0  0  0  0  0  0  0  0  0  0  0  0
   -1.3646   -0.8468   -0.0014 C   0  0  0  0  0  0  0  0  0  0  0  0
   -1.2191    0.5466   -0.0204 C   0  0  0  0  0  0  0  0  0  0  0  0
    0.2031    1.1372   -0.0637 C   0  0  0  0  0  0  0  0  0  0  0  0
   -2.4324    1.3143    0.0031 C   0  0  0  0  0  0  0  0  0  0  0  0
   -2.6437   -1.4371    0.0053 C   0  0  0  0  0  0  0  0  0  0  0  0
   -3.8057   -0.6717    0.0038 C   0  0  0  0  0  0  0  0  0  0  0  0
   -3.6989    0.7058    0.0068 C   0  0  0  0  0  0  0  0  0  0  0  0
    0.3551    2.4276   -0.2215 C   0  0  0  0  0  0  0  0  0  0  0  0
    1.5149    3.4846   -0.1893 C   0  0  0  0  0  0  0  0  0  0  0  0
    1.5004    4.4646   -1.3734 C   0  0  0  0  0  0  0  0  0  0  0  0
    0.3480    5.2938   -1.2319 N   0  0  0  0  0  0  0  0  0  0  0  0
    0.3275    7.7004   -0.4429 C   0  0  0  0  0  0  0  0  0  0  0  0
    0.2114    6.6884   -1.6374 C   0  0  0  0  0  0  0  0  0  0  0  0
   -0.2728    5.1299    0.0497 C   0  0  0  0  0  0  0  0  0  0  0  0
    0.1839    6.0302    1.1676 C   0  0  0  0  0  0  0  0  0  0  0  0
   -0.3091    7.3391    0.8572 N   0  0  0  0  0  0  0  0  0  0  0  0
   -1.7974    7.3622    0.9446 C   0  0  0  0  0  0  0  0  0  0  0  0
   -2.7504    6.4783    0.0813 C   0  0  0  0  0  0  0  0  0  0  0  0
   -2.9192    5.1587    0.6351 O   0  0  0  0  0  0  0  0  0  0  0  0
   -5.1338    1.6635    0.0033 Cl  0  0  0  0  0  0  0  0  0  0  0  0
   -0.6207    2.8957   -0.3569 H   0  0  0  0  0  0  0  0  0  0  0  0
    2.9285    1.9388   -0.0584 H   0  0  0  0  0  0  0  0  0  0  0  0
    4.8233    0.9490    0.0043 H   0  0  0  0  0  0  0  0  0  0  0  0
    4.8564   -1.5524    0.0071 H   0  0  0  0  0  0  0  0  0  0  0  0
    2.6829   -2.7758   -0.0008 H   0  0  0  0  0  0  0  0  0  0  0  0
   -2.4556    2.4021    0.0088 H   0  0  0  0  0  0  0  0  0  0  0  0
   -2.7329   -2.5208    0.0036 H   0  0  0  0  0  0  0  0  0  0  0  0
   -4.7746   -1.1621   -0.0002 H   0  0  0  0  0  0  0  0  0  0  0  0
    1.4379    3.9050    0.8255 H   0  0  0  0  0  0  0  0  0  0  0  0
    2.5748    3.4068   -0.0484 H   0  0  0  0  0  0  0  0  0  0  0  0
    2.4419    5.0219   -1.3792 H   0  0  0  0  0  0  0  0  0  0  0  0
    1.4631    3.8676   -2.2973 H   0  0  0  0  0  0  0  0  0  0  0  0
    1.4087    7.7859   -0.2464 H   0  0  0  0  0  0  0  0  0  0  0  0
   -0.0205    8.6928   -0.7249 H   0  0  0  0  0  0  0  0  0  0  0  0
    0.8081    6.9832   -2.5072 H   0  0  0  0  0  0  0  0  0  0  0  0
   -0.8148    6.7839   -2.0080 H   0  0  0  0  0  0  0  0  0  0  0  0
   -1.2372    4.9593   -0.3776 H   0  0  0  0  0  0  0  0  0  0  0  0
   -0.3328    4.2528    0.6764 H   0  0  0  0  0  0  0  0  0  0  0  0
    1.2843    6.0055    1.2702 H   0  0  0  0  0  0  0  0  0  0  0  0
   -0.1627    5.6383    2.1357 H   0  0  0  0  0  0  0  0  0  0  0  0
   -2.0302    7.0852    1.9844 H   0  0  0  0  0  0  0  0  0  0  0  0
   -2.0927    8.4013    0.8203 H   0  0  0  0  0  0  0  0  0  0  0  0
   -3.7640    6.8642    0.0655 H   0  0  0  0  0  0  0  0  0  0  0  0
   -2.4487    6.4357   -0.9707 H   0  0  0  0  0  0  0  0  0  0  0  0
   -2.1781    4.9933    1.2438 H   0  0  0  0  0  0  0  0  0  0  0  0
  1  2  1  0  0  0  0
  1  6  2  0  0  0  0
  1 10  1  0  0  0  0
  2  3  2  0  0  0  0
  2 29  1  0  0  0  0
  3  4  1  0  0  0  0
  3 30  1  0  0  0  0
  4  5  2  0  0  0  0
  4 31  1  0  0  0  0
  5  6  1  0  0  0  0
  5 32  1  0  0  0  0
  6  7  1  0  0  0  0
  7  8  1  0  0  0  0
  8  9  2  0  0  0  0
  8 12  1  0  0  0  0
  9 10  1  0  0  0  0
 10 15  2  3  0  0  0
 11  9  1  0  0  0  0
 11 14  2  0  0  0  0
 11 33  1  0  0  0  0
 12 13  2  0  0  0  0
 12 34  1  0  0  0  0
 13 14  1  0  0  0  0
 13 35  1  0  0  0  0
 14 27  1  0  0  0  0
 15 16  1  0  0  0  0
 15 28  1  0  0  0  0
 16 17  1  0  0  0  0
 16 36  1  0  0  0  0
 16 37  1  0  0  0  0
 17 18  1  0  0  0  0
 17 38  1  0  0  0  0
 17 39  1  0  0  0  0
 18 21  1  0  0  0  0
 19 20  1  0  0  0  0
 19 23  1  0  0  0  0
 19 40  1  0  0  0  0
 19 41  1  0  0  0  0
 20 18  1  0  0  0  0
 20 42  1  0  0  0  0
 20 43  1  0  0  0  0
 21 22  1  0  0  0  0
 21 44  1  0  0  0  0
 21 45  1  0  0  0  0
 22 23  1  0  0  0  0
 22 46  1  0  0  0  0
 22 47  1  0  0  0  0
 23 24  1  0  0  0  0
 24 25  1  0  0  0  0
 24 48  1  0  0  0  0
 24 49  1  0  0  0  0
 25 26  1  0  0  0  0
 25 50  1  0  0  0  0
 25 51  1  0  0  0  0
 26 52  1  0  0  0  0
M  END
>  <DRUGBANK_ID>
DB13841

>  <COMMON_NAME>
Clopenthixol

>  <CAS_NUMBER>
982-24-1

>  <UNII>
0A432D932A

>  <SYNONYMS>
4-(3-(2-Chloro-9H-thioxanthen-9-ylidene)propyl)-1-piperazineethanol; 4-(3-(2-Chlorothioxanthen-9-ylidene)propyl)-1-piperazineethanol; Chlorpenthixol; Clopenthixol; Clopenthixolum; Clopentixol; Sordinol

$$$$
