
 OpenBabel10282417143D

 90 95  0  0  0  0  0  0  0  0999 V2000
    0.5832    0.2117   -1.0821 C   0  0  0  0  0  0  0  0  0  0  0  0
   -0.1184   -1.1515   -1.0664 C   0  0  0  0  0  0  0  0  0  0  0  0
   -1.4667   -0.9869   -0.9186 C   0  0  0  0  0  0  0  0  0  0  0  0
   -1.9413    0.3519   -0.6511 C   0  0  0  0  0  0  0  0  0  0  0  0
   -1.1495    1.5565   -0.6052 C   0  0  0  0  0  0  0  0  0  0  0  0
    0.1683    1.4963   -0.8909 C   0  0  0  0  0  0  0  0  0  0  0  0
   -1.4990    2.8375   -0.0433 C   0  0  0  0  0  0  0  0  0  0  0  0
   -2.1711    2.9766    1.1603 C   0  0  0  0  0  0  0  0  0  0  0  0
   -2.2598    4.2052    1.7765 C   0  0  0  0  0  0  0  0  0  0  0  0
   -1.8018    5.3218    1.0790 C   0  0  0  0  0  0  0  0  0  0  0  0
   -1.0606    5.1954   -0.0967 C   0  0  0  0  0  0  0  0  0  0  0  0
   -0.9230    3.9578   -0.6531 C   0  0  0  0  0  0  0  0  0  0  0  0
    0.5700   -2.7433   -0.6189 C   0  0  0  0  0  0  0  0  0  0  0  0
    0.6936   -3.3288    0.8987 N   0  0  0  0  0  0  0  0  0  0  0  0
    0.0307   -4.5405    0.8210 C   0  0  0  0  0  0  0  0  0  0  0  0
    1.2787   -2.9871    2.4819 C   0  0  0  0  0  0  0  0  0  0  0  0
   -0.9316   -4.4346    1.8766 C   0  0  0  0  0  0  0  0  0  0  0  0
   -0.1313   -5.3054   -0.1838 O   0  0  0  0  0  0  0  0  0  0  0  0
   -1.7557   -2.9676    1.5174 N   0  0  0  0  0  0  0  0  0  0  0  0
   -1.4249   -1.3650    2.0586 C   0  0  0  0  0  0  0  0  0  0  0  0
   -2.3762   -0.8112    2.8779 C   0  0  0  0  0  0  0  0  0  0  0  0
   -3.3649   -1.6794    2.6507 C   0  0  0  0  0  0  0  0  0  0  0  0
   -2.9422   -2.9850    3.3448 C   0  0  0  0  0  0  0  0  0  0  0  0
   -2.9842   -3.4748    2.1299 C   0  0  0  0  0  0  0  0  0  0  0  0
   -2.6533    0.4016    3.5769 C   0  0  0  0  0  0  0  0  0  0  0  0
   -1.7244    1.3256    3.8277 C   0  0  0  0  0  0  0  0  0  0  0  0
   -0.7393    1.1169    2.9185 C   0  0  0  0  0  0  0  0  0  0  0  0
   -0.7109   -0.1407    1.9398 C   0  0  0  0  0  0  0  0  0  0  0  0
   -4.5180   -4.2605    1.7748 S   0  0  0  0  0  0  0  0  0  0  0  0
   -5.7644   -2.8875    2.3530 C   0  0  0  0  0  0  0  0  0  0  0  0
   -5.5637   -2.1409    3.7281 C   0  0  0  0  0  0  0  0  0  0  0  0
   -5.6345   -0.7131    3.7982 C   0  0  0  0  0  0  0  0  0  0  0  0
   -5.2599    0.0046    4.9656 C   0  0  0  0  0  0  0  0  0  0  0  0
   -4.7580   -0.6685    6.0704 C   0  0  0  0  0  0  0  0  0  0  0  0
   -4.7025   -2.0529    6.0298 C   0  0  0  0  0  0  0  0  0  0  0  0
   -5.0739   -2.7777    4.8870 C   0  0  0  0  0  0  0  0  0  0  0  0
   -4.6774   -4.0620    4.8392 F   0  0  0  0  0  0  0  0  0  0  0  0
   -4.2813   -2.7138    7.1156 F   0  0  0  0  0  0  0  0  0  0  0  0
   -3.9840   -1.3245    1.6463 O   0  0  0  0  0  0  0  0  0  0  0  0
    0.9901   -1.7478    3.3718 C   0  0  0  0  0  0  0  0  0  0  0  0
    1.7734   -0.6414    2.7064 C   0  0  0  0  0  0  0  0  0  0  0  0
    3.2159   -0.7570    2.3886 N   0  0  0  0  0  0  0  0  0  0  0  0
    3.6442   -2.1391    2.1332 C   0  0  0  0  0  0  0  0  0  0  0  0
    2.7532   -3.2095    2.7276 C   0  0  0  0  0  0  0  0  0  0  0  0
    3.7773    0.2960    1.3565 C   0  0  0  0  0  0  0  0  0  0  0  0
    4.0372    0.0256   -0.3173 C   0  0  0  0  0  0  0  0  0  0  0  0
    3.0043   -0.5383   -1.1181 O   0  0  0  0  0  0  0  0  0  0  0  0
    2.3686   -1.2345   -0.1396 C   0  0  0  0  0  0  0  0  0  0  0  0
   -2.3013    6.6764    1.4348 C   0  0  0  0  0  0  0  0  0  0  0  0
   -1.3007    7.5723    1.6078 F   0  0  0  0  0  0  0  0  0  0  0  0
   -3.0960    7.1596    0.4404 F   0  0  0  0  0  0  0  0  0  0  0  0
   -3.0554    6.6920    2.5641 F   0  0  0  0  0  0  0  0  0  0  0  0
    1.5203    0.4885   -0.6175 H   0  0  0  0  0  0  0  0  0  0  0  0
   -2.0912   -1.8517   -0.6977 H   0  0  0  0  0  0  0  0  0  0  0  0
   -2.9352    0.4261   -0.2281 H   0  0  0  0  0  0  0  0  0  0  0  0
    0.9140    2.2613   -0.5258 H   0  0  0  0  0  0  0  0  0  0  0  0
   -2.5962    2.1051    1.6316 H   0  0  0  0  0  0  0  0  0  0  0  0
   -2.7491    4.2956    2.7440 H   0  0  0  0  0  0  0  0  0  0  0  0
   -0.6541    6.0462   -0.6310 H   0  0  0  0  0  0  0  0  0  0  0  0
   -0.3564    3.8356   -1.5767 H   0  0  0  0  0  0  0  0  0  0  0  0
    0.0929   -3.4523   -1.3019 H   0  0  0  0  0  0  0  0  0  0  0  0
    1.5791   -2.9917   -0.9780 H   0  0  0  0  0  0  0  0  0  0  0  0
    0.8549   -3.7599    3.1291 H   0  0  0  0  0  0  0  0  0  0  0  0
   -1.4758   -5.4126    1.7588 H   0  0  0  0  0  0  0  0  0  0  0  0
   -0.6291   -4.5668    2.9252 H   0  0  0  0  0  0  0  0  0  0  0  0
   -1.9304   -2.9028    3.7998 H   0  0  0  0  0  0  0  0  0  0  0  0
   -3.6670    0.7194    3.6581 H   0  0  0  0  0  0  0  0  0  0  0  0
   -1.9661    2.2434    4.3632 H   0  0  0  0  0  0  0  0  0  0  0  0
   -0.0715    1.9820    2.7861 H   0  0  0  0  0  0  0  0  0  0  0  0
   -0.0036    0.1637    1.1949 H   0  0  0  0  0  0  0  0  0  0  0  0
   -5.7286   -2.2238    1.4781 H   0  0  0  0  0  0  0  0  0  0  0  0
   -6.8056   -3.1864    2.3194 H   0  0  0  0  0  0  0  0  0  0  0  0
   -5.7118   -0.1305    2.8658 H   0  0  0  0  0  0  0  0  0  0  0  0
   -5.1869    1.0981    4.9466 H   0  0  0  0  0  0  0  0  0  0  0  0
   -4.3810   -0.1300    6.9362 H   0  0  0  0  0  0  0  0  0  0  0  0
   -0.0730   -1.6647    3.4904 H   0  0  0  0  0  0  0  0  0  0  0  0
    1.1775   -1.7727    4.4480 H   0  0  0  0  0  0  0  0  0  0  0  0
    1.2523   -0.8550    1.8157 H   0  0  0  0  0  0  0  0  0  0  0  0
    1.5010    0.3850    2.9334 H   0  0  0  0  0  0  0  0  0  0  0  0
    4.6649   -2.2001    2.4676 H   0  0  0  0  0  0  0  0  0  0  0  0
    3.8152   -2.4803    1.1249 H   0  0  0  0  0  0  0  0  0  0  0  0
    2.8968   -3.1470    3.8164 H   0  0  0  0  0  0  0  0  0  0  0  0
    3.0072   -4.2139    2.4017 H   0  0  0  0  0  0  0  0  0  0  0  0
    3.1679    1.2190    1.4510 H   0  0  0  0  0  0  0  0  0  0  0  0
    4.7777    0.4900    1.6999 H   0  0  0  0  0  0  0  0  0  0  0  0
    4.2957    0.9530   -0.8270 H   0  0  0  0  0  0  0  0  0  0  0  0
    4.7625   -0.7660   -0.4169 H   0  0  0  0  0  0  0  0  0  0  0  0
    2.7481   -2.1938    0.0089 H   0  0  0  0  0  0  0  0  0  0  0  0
    2.2742   -0.5007    0.5929 H   0  0  0  0  0  0  0  0  0  0  0  0
    1.3493   -1.2546    0.1547 H   0  0  0  0  0  0  0  0  0  0  0  0
  1  2  2  0  0  0  0
  1  6  1  0  0  0  0
  1 53  1  0  0  0  0
  2  3  1  0  0  0  0
  2 13  1  0  0  0  0
  3  4  2  0  0  0  0
  3 54  1  0  0  0  0
  4  5  1  0  0  0  0
  4 55  1  0  0  0  0
  5  6  2  0  0  0  0
  5  7  1  0  0  0  0
  6 56  1  0  0  0  0
  7  8  2  0  0  0  0
  7 12  1  0  0  0  0
  8  9  1  0  0  0  0
  8 57  1  0  0  0  0
  9 10  2  0  0  0  0
  9 58  1  0  0  0  0
 10 11  1  0  0  0  0
 10 49  1  0  0  0  0
 11 12  2  0  0  0  0
 11 59  1  0  0  0  0
 12 60  1  0  0  0  0
 13 14  1  0  0  0  0
 13 61  1  0  0  0  0
 13 62  1  0  0  0  0
 14 15  1  0  0  0  0
 14 16  1  0  0  0  0
 15 17  1  0  0  0  0
 15 18  2  0  0  0  0
 16 40  1  0  0  0  0
 16 63  1  0  0  0  0
 17 19  1  0  0  0  0
 17 64  1  0  0  0  0
 17 65  1  0  0  0  0
 19 20  1  0  0  0  0
 20 21  2  0  0  0  0
 21 22  1  0  0  0  0
 21 25  1  0  0  0  0
 22 23  1  0  0  0  0
 22 39  2  0  0  0  0
 23 24  2  0  0  0  0
 23 66  1  0  0  0  0
 24 19  1  0  0  0  0
 24 29  1  0  0  0  0
 25 26  2  0  0  0  0
 25 67  1  0  0  0  0
 26 27  1  0  0  0  0
 26 68  1  0  0  0  0
 27 28  2  0  0  0  0
 27 69  1  0  0  0  0
 28 20  1  0  0  0  0
 28 70  1  0  0  0  0
 29 30  1  0  0  0  0
 30 31  1  0  0  0  0
 30 71  1  0  0  0  0
 30 72  1  0  0  0  0
 31 32  1  0  0  0  0
 31 36  2  0  0  0  0
 32 33  2  0  0  0  0
 32 73  1  0  0  0  0
 33 34  1  0  0  0  0
 33 74  1  0  0  0  0
 34 35  2  0  0  0  0
 34 75  1  0  0  0  0
 35 36  1  0  0  0  0
 35 38  1  0  0  0  0
 36 37  1  0  0  0  0
 40 41  1  0  0  0  0
 40 76  1  0  0  0  0
 40 77  1  0  0  0  0
 41 42  1  0  0  0  0
 41 78  1  0  0  0  0
 41 79  1  0  0  0  0
 42 43  1  0  0  0  0
 42 45  1  0  0  0  0
 43 44  1  0  0  0  0
 43 80  1  0  0  0  0
 43 81  1  0  0  0  0
 44 16  1  0  0  0  0
 44 82  1  0  0  0  0
 44 83  1  0  0  0  0
 45 46  1  0  0  0  0
 45 84  1  0  0  0  0
 45 85  1  0  0  0  0
 46 47  1  0  0  0  0
 46 86  1  0  0  0  0
 46 87  1  0  0  0  0
 47 48  1  0  0  0  0
 48 88  1  0  0  0  0
 48 89  1  0  0  0  0
 48 90  1  0  0  0  0
 49 50  1  0  0  0  0
 49 51  1  0  0  0  0
 49 52  1  0  0  0  0
M  END
>  <DRUGBANK_ID>
DB05119

>  <SECONDARY_ACCESSION_NUMBERS>
DB05256

>  <COMMON_NAME>
Rilapladib

>  <CAS_NUMBER>
412950-08-4

>  <UNII>
O14CWE893Z

>  <SYNONYMS>
Rilapladib

$$$$
