B29
 OpenBabel10282417163D

 48 51  0  0  0  0  0  0  0  0999 V2000
    0.7351   -0.5779    0.0052 C   0  0  0  0  0  0  0  0  0  0  0  0
    1.7402   -1.5607    0.0318 C   0  0  0  0  0  0  0  0  0  0  0  0
    3.0806   -1.1505    0.0305 C   0  0  0  0  0  0  0  0  0  0  0  0
    3.4263    0.2051   -0.0114 C   0  0  0  0  0  0  0  0  0  0  0  0
    2.4436    1.1956   -0.0367 C   0  0  0  0  0  0  0  0  0  0  0  0
    1.1300    0.7588   -0.0165 C   0  0  0  0  0  0  0  0  0  0  0  0
    0.0490    1.5712   -0.0121 O   0  0  0  0  0  0  0  0  0  0  0  0
   -1.0566    0.7791   -0.0027 C   0  0  0  0  0  0  0  0  0  0  0  0
   -0.6869   -0.5683   -0.0079 C   0  0  0  0  0  0  0  0  0  0  0  0
   -1.7047   -1.5404   -0.0232 C   0  0  0  0  0  0  0  0  0  0  0  0
   -3.0379   -1.1202   -0.0188 C   0  0  0  0  0  0  0  0  0  0  0  0
   -3.3619    0.2445    0.0062 C   0  0  0  0  0  0  0  0  0  0  0  0
   -2.3636    1.2449    0.0123 C   0  0  0  0  0  0  0  0  0  0  0  0
   -2.6499    2.6839    0.0181 C   0  0  0  0  0  0  0  0  0  0  0  0
   -3.3247    3.2683    1.0872 C   0  0  0  0  0  0  0  0  0  0  0  0
   -2.2927    3.5106   -1.0498 C   0  0  0  0  0  0  0  0  0  0  0  0
   -2.6710    4.8565   -1.0617 C   0  0  0  0  0  0  0  0  0  0  0  0
   -3.4959    5.3642   -0.0646 C   0  0  0  0  0  0  0  0  0  0  0  0
   -3.9020    4.5464    0.9873 C   0  0  0  0  0  0  0  0  0  0  0  0
   -5.0497    4.9915    1.8746 C   0  0  0  0  0  0  0  0  0  0  0  0
   -6.2963    4.0668    1.7408 C   0  0  0  0  0  0  0  0  0  0  0  0
   -5.8357    2.3547    2.1943 P   0  0  0  0  0  0  0  0  0  0  0  0
   -5.2708    2.7790    3.5598 O   0  0  0  0  0  0  0  0  0  0  0  0
   -5.4002    0.7363    2.6230 O   0  0  0  0  0  0  0  0  0  0  0  0
   -7.3679    1.8383    2.3906 O   0  0  0  0  0  0  0  0  0  0  0  0
   -7.6417    4.6472    2.8371 P   0  0  0  0  0  0  0  0  0  0  0  0
   -8.6780    3.9242    1.9708 O   0  0  0  0  0  0  0  0  0  0  0  0
   -7.3386    3.7067    4.1465 O   0  0  0  0  0  0  0  0  0  0  0  0
   -8.9135    5.1960    3.8736 O   0  0  0  0  0  0  0  0  0  0  0  0
   -6.7640    4.0632    0.3691 O   0  0  0  0  0  0  0  0  0  0  0  0
    1.4845   -2.6159    0.0589 H   0  0  0  0  0  0  0  0  0  0  0  0
    3.8680   -1.9002    0.0614 H   0  0  0  0  0  0  0  0  0  0  0  0
    4.4726    0.4959   -0.0215 H   0  0  0  0  0  0  0  0  0  0  0  0
    2.6828    2.2535   -0.0676 H   0  0  0  0  0  0  0  0  0  0  0  0
   -1.4619   -2.6006   -0.0482 H   0  0  0  0  0  0  0  0  0  0  0  0
   -3.8359   -1.8624   -0.0432 H   0  0  0  0  0  0  0  0  0  0  0  0
   -4.4145    0.5182   -0.0040 H   0  0  0  0  0  0  0  0  0  0  0  0
   -3.4189    2.6724    1.9901 H   0  0  0  0  0  0  0  0  0  0  0  0
   -1.7116    3.1123   -1.8758 H   0  0  0  0  0  0  0  0  0  0  0  0
   -2.3695    5.4942   -1.8876 H   0  0  0  0  0  0  0  0  0  0  0  0
   -3.8484    6.3908   -0.1307 H   0  0  0  0  0  0  0  0  0  0  0  0
   -4.7051    5.0510    2.9142 H   0  0  0  0  0  0  0  0  0  0  0  0
   -5.3506    6.0112    1.6040 H   0  0  0  0  0  0  0  0  0  0  0  0
   -4.4960    0.7274    2.9894 H   0  0  0  0  0  0  0  0  0  0  0  0
   -7.9076    2.2250    3.1232 H   0  0  0  0  0  0  0  0  0  0  0  0
   -6.4729    3.2299    4.2596 H   0  0  0  0  0  0  0  0  0  0  0  0
   -8.5431    5.4961    4.7222 H   0  0  0  0  0  0  0  0  0  0  0  0
   -7.6683    3.6683    0.4299 H   0  0  0  0  0  0  0  0  0  0  0  0
  1  6  2  0  0  0  0
  1  2  1  0  0  0  0
  1  9  1  0  0  0  0
  2  3  2  0  0  0  0
  2 31  1  0  0  0  0
  3  4  1  0  0  0  0
  3 32  1  0  0  0  0
  4  5  2  0  0  0  0
  4 33  1  0  0  0  0
  5  6  1  0  0  0  0
  5 34  1  0  0  0  0
  6  7  1  0  0  0  0
  7  8  1  0  0  0  0
  8  9  2  0  0  0  0
  8 13  1  0  0  0  0
  9 10  1  0  0  0  0
 10 11  2  0  0  0  0
 10 35  1  0  0  0  0
 11 12  1  0  0  0  0
 11 36  1  0  0  0  0
 12 13  2  0  0  0  0
 12 37  1  0  0  0  0
 13 14  1  0  0  0  0
 14 16  2  0  0  0  0
 14 15  1  0  0  0  0
 15 19  2  0  0  0  0
 15 38  1  0  0  0  0
 16 17  1  0  0  0  0
 16 39  1  0  0  0  0
 17 18  2  0  0  0  0
 17 40  1  0  0  0  0
 18 19  1  0  0  0  0
 18 41  1  0  0  0  0
 19 20  1  0  0  0  0
 20 21  1  0  0  0  0
 20 42  1  0  0  0  0
 20 43  1  0  0  0  0
 21 22  1  0  0  0  0
 21 26  1  0  0  0  0
 21 30  1  0  0  0  0
 22 23  2  0  0  0  0
 22 25  1  0  0  0  0
 22 24  1  0  0  0  0
 24 44  1  0  0  0  0
 25 45  1  0  0  0  0
 26 27  2  0  0  0  0
 26 28  1  0  0  0  0
 26 29  1  0  0  0  0
 28 46  1  0  0  0  0
 29 47  1  0  0  0  0
 30 48  1  0  0  0  0
M  END
>  <DRUGBANK_ID>
DB07410

>  <COMMON_NAME>
[2-(3-DIBENZOFURAN-4-YL-PHENYL)-1-HYDROXY-1-PHOSPHONO-ETHYL]-PHOSPHONIC ACID

$$$$
