P4A
 OpenBabel10282417173D

 38 40  0  0  0  0  0  0  0  0999 V2000
    0.0646   -0.9369   -0.0259 N   0  0  0  0  0  0  0  0  0  0  0  0
    1.3607   -0.5874   -0.0791 N   0  0  0  0  0  0  0  0  0  0  0  0
    1.3413    0.7531   -0.0024 C   0  0  0  0  0  0  0  0  0  0  0  0
    0.0073    1.2449   -0.0367 C   0  0  0  0  0  0  0  0  0  0  0  0
   -0.7997    0.1223   -0.0209 C   0  0  0  0  0  0  0  0  0  0  0  0
    2.5718    1.5379    0.0238 C   0  0  0  0  0  0  0  0  0  0  0  0
   -0.4484    2.6159   -0.0402 C   0  0  0  0  0  0  0  0  0  0  0  0
   -2.2685   -0.0677   -0.0143 C   0  0  0  0  0  0  0  0  0  0  0  0
   -1.2069    3.0902    1.0299 C   0  0  0  0  0  0  0  0  0  0  0  0
   -1.5491    4.4388    1.1050 C   0  0  0  0  0  0  0  0  0  0  0  0
   -1.1282    5.3300    0.1166 C   0  0  0  0  0  0  0  0  0  0  0  0
   -0.3438    4.8609   -0.9403 C   0  0  0  0  0  0  0  0  0  0  0  0
   -0.0293    3.5031   -1.0386 C   0  0  0  0  0  0  0  0  0  0  0  0
    3.5011    1.4565   -1.0209 C   0  0  0  0  0  0  0  0  0  0  0  0
    4.6478    2.2465   -1.0149 C   0  0  0  0  0  0  0  0  0  0  0  0
    4.8690    3.1285    0.0377 C   0  0  0  0  0  0  0  0  0  0  0  0
    3.9524    3.2432    1.0789 C   0  0  0  0  0  0  0  0  0  0  0  0
    2.8036    2.4452    1.0716 C   0  0  0  0  0  0  0  0  0  0  0  0
    6.0091    3.8773    0.0080 O   0  0  0  0  0  0  0  0  0  0  0  0
    3.3147    0.6378   -2.1041 O   0  0  0  0  0  0  0  0  0  0  0  0
   -1.4235    6.6659    0.0840 O   0  0  0  0  0  0  0  0  0  0  0  0
   -2.3488    7.1238    1.0653 C   0  0  0  0  0  0  0  0  0  0  0  0
   -0.1638   -1.9288   -0.0146 H   0  0  0  0  0  0  0  0  0  0  0  0
   -2.5897   -0.6093   -0.9095 H   0  0  0  0  0  0  0  0  0  0  0  0
   -2.5786   -0.6384    0.8674 H   0  0  0  0  0  0  0  0  0  0  0  0
   -2.8003    0.8876    0.0039 H   0  0  0  0  0  0  0  0  0  0  0  0
   -1.5158    2.4161    1.8245 H   0  0  0  0  0  0  0  0  0  0  0  0
   -2.1291    4.7626    1.9612 H   0  0  0  0  0  0  0  0  0  0  0  0
    0.0338    5.5547   -1.6882 H   0  0  0  0  0  0  0  0  0  0  0  0
    0.5596    3.1526   -1.8847 H   0  0  0  0  0  0  0  0  0  0  0  0
    5.3610    2.1774   -1.8296 H   0  0  0  0  0  0  0  0  0  0  0  0
    4.1069    3.9454    1.8925 H   0  0  0  0  0  0  0  0  0  0  0  0
    2.0844    2.5445    1.8819 H   0  0  0  0  0  0  0  0  0  0  0  0
    6.0512    4.4203    0.8116 H   0  0  0  0  0  0  0  0  0  0  0  0
    2.5578    0.0541   -1.8956 H   0  0  0  0  0  0  0  0  0  0  0  0
   -3.2911    6.5652    1.0213 H   0  0  0  0  0  0  0  0  0  0  0  0
   -1.9067    7.0694    2.0657 H   0  0  0  0  0  0  0  0  0  0  0  0
   -2.5776    8.1723    0.8562 H   0  0  0  0  0  0  0  0  0  0  0  0
  1  2  1  0  0  0  0
  1  5  1  0  0  0  0
  1 23  1  0  0  0  0
  2  3  2  0  0  0  0
  3  4  1  0  0  0  0
  3  6  1  0  0  0  0
  4  5  2  0  0  0  0
  4  7  1  0  0  0  0
  5  8  1  0  0  0  0
  6 14  2  0  0  0  0
  6 18  1  0  0  0  0
  7  9  2  0  0  0  0
  7 13  1  0  0  0  0
  8 24  1  0  0  0  0
  8 25  1  0  0  0  0
  8 26  1  0  0  0  0
  9 10  1  0  0  0  0
  9 27  1  0  0  0  0
 10 11  2  0  0  0  0
 10 28  1  0  0  0  0
 11 12  1  0  0  0  0
 11 21  1  0  0  0  0
 12 13  2  0  0  0  0
 12 29  1  0  0  0  0
 13 30  1  0  0  0  0
 14 15  1  0  0  0  0
 14 20  1  0  0  0  0
 15 16  2  0  0  0  0
 15 31  1  0  0  0  0
 16 17  1  0  0  0  0
 16 19  1  0  0  0  0
 17 18  2  0  0  0  0
 17 32  1  0  0  0  0
 18 33  1  0  0  0  0
 19 34  1  0  0  0  0
 20 35  1  0  0  0  0
 21 22  1  0  0  0  0
 22 36  1  0  0  0  0
 22 37  1  0  0  0  0
 22 38  1  0  0  0  0
M  END
>  <DRUGBANK_ID>
DB08356

>  <COMMON_NAME>
4-[4-(4-methoxyphenyl)-5-methyl-1H-pyrazol-3-yl]benzene-1,3-diol

>  <UNII>
0613LSI19F

$$$$
