CKE
 OpenBabel10282417163D

 65 69  0  0  0  0  0  0  0  0999 V2000
   -2.3946    0.0127   -0.0138 C   0  0  0  0  0  0  0  0  0  0  0  0
   -3.9046    0.0207    0.0080 C   0  0  0  0  0  0  0  0  0  0  0  0
   -4.4276    0.7115    1.2482 C   0  0  0  0  0  0  0  0  0  0  0  0
   -5.0771   -0.0036    2.2564 C   0  0  0  0  0  0  0  0  0  0  0  0
   -5.4000    0.6282    3.4624 C   0  0  0  0  0  0  0  0  0  0  0  0
   -5.0825    1.9708    3.6822 C   0  0  0  0  0  0  0  0  0  0  0  0
   -6.2130    3.7420    4.9772 C   0  0  0  0  0  0  0  0  0  0  0  0
   -5.5495    4.8422    5.8306 C   0  0  0  0  0  0  0  0  0  0  0  0
   -4.7734    2.0600    6.1295 C   0  0  0  0  0  0  0  0  0  0  0  0
   -1.6733   -3.3881    1.1642 C   0  0  0  0  0  0  0  0  0  0  0  0
   -1.9094   -5.4113   -0.3513 C   0  0  0  0  0  0  0  0  0  0  0  0
   -4.5679    5.3848    7.9766 C   0  0  0  0  0  0  0  0  0  0  0  0
    2.1244    0.6244    0.0063 N   0  0  0  0  0  0  0  0  0  0  0  0
    0.9923    1.3428   -0.0087 C   0  0  0  0  0  0  0  0  0  0  0  0
   -0.2333    0.6938   -0.0169 C   0  0  0  0  0  0  0  0  0  0  0  0
   -0.2372   -0.6936    0.0196 C   0  0  0  0  0  0  0  0  0  0  0  0
    0.8688   -1.4608    0.0140 N   0  0  0  0  0  0  0  0  0  0  0  0
    2.0199   -0.7288    0.0086 C   0  0  0  0  0  0  0  0  0  0  0  0
   -1.5631    1.1190   -0.0799 C   0  0  0  0  0  0  0  0  0  0  0  0
   -1.5673   -1.1073    0.0439 N   0  0  0  0  0  0  0  0  0  0  0  0
    3.5576   -2.3178    1.2080 N   0  0  0  0  0  0  0  0  0  0  0  0
   -4.4786    2.6884    2.6545 C   0  0  0  0  0  0  0  0  0  0  0  0
   -4.1848    2.0770    1.4416 C   0  0  0  0  0  0  0  0  0  0  0  0
   -5.3305    2.5816    4.8849 N   0  0  0  0  0  0  0  0  0  0  0  0
   -5.1387    4.3248    7.1573 N   0  0  0  0  0  0  0  0  0  0  0  0
   -4.1654    3.2251    6.9492 C   0  0  0  0  0  0  0  0  0  0  0  0
   -2.0384   -2.4910   -0.0273 C   0  0  0  0  0  0  0  0  0  0  0  0
   -1.6865   -3.1253   -1.3765 C   0  0  0  0  0  0  0  0  0  0  0  0
   -2.3025   -4.5123   -1.5186 C   0  0  0  0  0  0  0  0  0  0  0  0
   -2.2829   -4.7873    0.9924 C   0  0  0  0  0  0  0  0  0  0  0  0
    3.3518   -1.4678    0.0248 C   0  0  0  0  0  0  0  0  0  0  0  0
   -4.2721    0.5502   -0.8798 H   0  0  0  0  0  0  0  0  0  0  0  0
   -4.3482   -0.9748   -0.0574 H   0  0  0  0  0  0  0  0  0  0  0  0
   -5.3224   -1.0540    2.1277 H   0  0  0  0  0  0  0  0  0  0  0  0
   -5.9103    0.0639    4.2375 H   0  0  0  0  0  0  0  0  0  0  0  0
   -7.1534    3.4291    5.4477 H   0  0  0  0  0  0  0  0  0  0  0  0
   -6.4688    4.1481    3.9911 H   0  0  0  0  0  0  0  0  0  0  0  0
   -6.2617    5.6665    5.9496 H   0  0  0  0  0  0  0  0  0  0  0  0
   -4.6768    5.2366    5.2911 H   0  0  0  0  0  0  0  0  0  0  0  0
   -5.5643    1.5664    6.7054 H   0  0  0  0  0  0  0  0  0  0  0  0
   -3.9853    1.3206    5.9389 H   0  0  0  0  0  0  0  0  0  0  0  0
   -0.5871   -3.4747    1.2703 H   0  0  0  0  0  0  0  0  0  0  0  0
   -2.0515   -2.9488    2.0963 H   0  0  0  0  0  0  0  0  0  0  0  0
   -2.3997   -6.3854   -0.4594 H   0  0  0  0  0  0  0  0  0  0  0  0
   -0.8280   -5.5900   -0.3792 H   0  0  0  0  0  0  0  0  0  0  0  0
   -4.2894    4.9945    8.9614 H   0  0  0  0  0  0  0  0  0  0  0  0
   -3.6833    5.8377    7.5171 H   0  0  0  0  0  0  0  0  0  0  0  0
   -5.3118    6.1704    8.1497 H   0  0  0  0  0  0  0  0  0  0  0  0
    1.0854    2.4225   -0.0191 H   0  0  0  0  0  0  0  0  0  0  0  0
   -1.8739    2.1505   -0.1428 H   0  0  0  0  0  0  0  0  0  0  0  0
    4.4945   -2.7088    1.1749 H   0  0  0  0  0  0  0  0  0  0  0  0
    3.5123   -1.7201    2.0326 H   0  0  0  0  0  0  0  0  0  0  0  0
   -4.1774    3.7205    2.8086 H   0  0  0  0  0  0  0  0  0  0  0  0
   -3.7117    2.6745    0.6722 H   0  0  0  0  0  0  0  0  0  0  0  0
   -3.2793    3.6074    6.4215 H   0  0  0  0  0  0  0  0  0  0  0  0
   -3.8260    2.8320    7.9139 H   0  0  0  0  0  0  0  0  0  0  0  0
   -3.1291   -2.4463    0.0020 H   0  0  0  0  0  0  0  0  0  0  0  0
   -2.0444   -2.4853   -2.1925 H   0  0  0  0  0  0  0  0  0  0  0  0
   -0.5993   -3.2030   -1.4853 H   0  0  0  0  0  0  0  0  0  0  0  0
   -3.3959   -4.4287   -1.5686 H   0  0  0  0  0  0  0  0  0  0  0  0
   -1.9738   -4.9602   -2.4626 H   0  0  0  0  0  0  0  0  0  0  0  0
   -1.9518   -5.4411    1.8070 H   0  0  0  0  0  0  0  0  0  0  0  0
   -3.3771   -4.7235    1.0656 H   0  0  0  0  0  0  0  0  0  0  0  0
    3.4322   -2.0686   -0.8863 H   0  0  0  0  0  0  0  0  0  0  0  0
    4.1666   -0.7308   -0.0081 H   0  0  0  0  0  0  0  0  0  0  0  0
  1 19  2  0  0  0  0
  2  3  1  0  0  0  0
  2  1  1  0  0  0  0
  2 32  1  0  0  0  0
  2 33  1  0  0  0  0
  3 23  2  0  0  0  0
  4  5  2  0  0  0  0
  4  3  1  0  0  0  0
  4 34  1  0  0  0  0
  5  6  1  0  0  0  0
  5 35  1  0  0  0  0
  6 24  1  0  0  0  0
  6 22  2  0  0  0  0
  7 36  1  0  0  0  0
  7 37  1  0  0  0  0
  8  7  1  0  0  0  0
  8 38  1  0  0  0  0
  8 39  1  0  0  0  0
  9 24  1  0  0  0  0
  9 40  1  0  0  0  0
  9 41  1  0  0  0  0
 10 42  1  0  0  0  0
 10 43  1  0  0  0  0
 11 30  1  0  0  0  0
 11 44  1  0  0  0  0
 11 45  1  0  0  0  0
 12 25  1  0  0  0  0
 12 46  1  0  0  0  0
 12 47  1  0  0  0  0
 12 48  1  0  0  0  0
 14 13  1  0  0  0  0
 14 49  1  0  0  0  0
 15 14  2  0  0  0  0
 16 17  2  0  0  0  0
 16 15  1  0  0  0  0
 17 18  1  0  0  0  0
 18 31  1  0  0  0  0
 18 13  2  0  0  0  0
 19 15  1  0  0  0  0
 19 50  1  0  0  0  0
 20  1  1  0  0  0  0
 20 16  1  0  0  0  0
 21 51  1  0  0  0  0
 21 52  1  0  0  0  0
 22 53  1  0  0  0  0
 23 22  1  0  0  0  0
 23 54  1  0  0  0  0
 24  7  1  0  0  0  0
 25  8  1  0  0  0  0
 26  9  1  0  0  0  0
 26 25  1  0  0  0  0
 26 55  1  0  0  0  0
 26 56  1  0  0  0  0
 27 10  1  0  0  0  0
 27 20  1  0  0  0  0
 27 57  1  0  0  0  0
 28 27  1  0  0  0  0
 28 58  1  0  0  0  0
 28 59  1  0  0  0  0
 29 11  1  0  0  0  0
 29 28  1  0  0  0  0
 29 60  1  0  0  0  0
 29 61  1  0  0  0  0
 30 10  1  0  0  0  0
 30 62  1  0  0  0  0
 30 63  1  0  0  0  0
 31 21  1  0  0  0  0
 31 64  1  0  0  0  0
 31 65  1  0  0  0  0
M  END
>  <DRUGBANK_ID>
DB07563

>  <COMMON_NAME>
1-{7-cyclohexyl-6-[4-(4-methylpiperazin-1-yl)benzyl]-7H-pyrrolo[2,3-d]pyrimidin-2-yl}methanamine

$$$$
