
 OpenBabel10282417203D

  1  0  0  0  0  0  0  0  0  0999 V2000
    0.9452    0.0394   -0.0738 Sm  0  0  0  0  0  0  0  0  0  0  0  0
M  ISO  1   1 153
M  END
>  <DRUGBANK_ID>
DB12905

>  <COMMON_NAME>
Samarium Sm-153

>  <CAS_NUMBER>
15766-00-4

>  <UNII>
6Q1KA41UWM

>  <SYNONYMS>
153SM; Samarium 153; Samarium Sm153; Samarium-153; SM-153

$$$$
