
 OpenBabel10282417103D

 46 49  0  0  1  0  0  0  0  0999 V2000
   -0.7294    0.5529   -0.3952 C   0  0  2  0  0  0  0  0  0  0  0  0
   -1.3870   -0.8549   -0.3712 C   0  0  2  0  0  0  0  0  0  0  0  0
    0.8068    0.4936   -0.0469 C   0  0  0  0  0  0  0  0  0  0  0  0
   -1.0120    1.0215   -1.8667 C   0  0  0  0  0  0  0  0  0  0  0  0
   -1.3719    1.5805    0.5478 C   0  0  0  0  0  0  0  0  0  0  0  0
   -0.3348   -1.8117   -1.0296 C   0  0  2  0  0  0  0  0  0  0  0  0
   -2.6908   -0.9613    0.4580 C   0  0  0  0  0  0  0  0  0  0  0  0
    1.5444   -0.7136    0.1082 C   0  0  0  0  0  0  0  0  0  0  0  0
    1.5533    1.6761   -0.0511 C   0  0  0  0  0  0  0  0  0  0  0  0
   -0.9077   -0.1411   -2.8617 C   0  0  0  0  0  0  0  0  0  0  0  0
   -2.8905    1.6276    0.5044 C   0  0  0  0  0  0  0  0  0  0  0  0
    0.0199   -1.1227   -2.3544 N   0  0  0  0  0  0  0  0  0  0  0  0
    0.9435   -2.0427   -0.2359 C   0  0  0  0  0  0  0  0  0  0  0  0
   -3.5513    0.3083    0.1093 C   0  0  0  0  0  0  0  0  0  0  0  0
    2.9481   -0.7193    0.2574 C   0  0  0  0  0  0  0  0  0  0  0  0
    2.9431    1.6488    0.0338 C   0  0  0  0  0  0  0  0  0  0  0  0
    1.2276   -1.2014   -3.1534 C   0  0  0  0  0  0  0  0  0  0  0  0
    3.6537    0.4670    0.1732 C   0  0  0  0  0  0  0  0  0  0  0  0
    3.6018    2.8338   -0.0965 O   0  0  0  0  0  0  0  0  0  0  0  0
    1.1689   -2.5738   -3.7191 C   0  0  0  0  0  0  0  0  0  0  0  0
    0.7023   -2.8664   -4.9143 C   0  0  0  0  0  0  0  0  0  0  0  0
   -2.0581   -0.9586   -1.2229 H   0  0  0  0  0  0  0  0  0  0  0  0
   -2.0492    1.3648   -1.9651 H   0  0  0  0  0  0  0  0  0  0  0  0
   -0.3916    1.8824   -2.1235 H   0  0  0  0  0  0  0  0  0  0  0  0
   -1.0109    2.5907    0.3062 H   0  0  0  0  0  0  0  0  0  0  0  0
   -1.0420    1.3914    1.5764 H   0  0  0  0  0  0  0  0  0  0  0  0
   -0.8036   -2.7923   -1.1691 H   0  0  0  0  0  0  0  0  0  0  0  0
   -3.3048   -1.8169    0.1268 H   0  0  0  0  0  0  0  0  0  0  0  0
   -2.5249   -1.0781    1.5276 H   0  0  0  0  0  0  0  0  0  0  0  0
    1.0717    2.6325   -0.2173 H   0  0  0  0  0  0  0  0  0  0  0  0
   -0.7218    0.2238   -3.8738 H   0  0  0  0  0  0  0  0  0  0  0  0
   -1.8533   -0.6803   -2.9983 H   0  0  0  0  0  0  0  0  0  0  0  0
   -3.2175    2.4193   -0.1874 H   0  0  0  0  0  0  0  0  0  0  0  0
   -3.2306    1.9451    1.4936 H   0  0  0  0  0  0  0  0  0  0  0  0
    0.8797   -2.7472    0.6037 H   0  0  0  0  0  0  0  0  0  0  0  0
    1.6547   -2.5313   -0.9177 H   0  0  0  0  0  0  0  0  0  0  0  0
   -4.5698    0.2720    0.5091 H   0  0  0  0  0  0  0  0  0  0  0  0
   -3.7169    0.3265   -0.9835 H   0  0  0  0  0  0  0  0  0  0  0  0
    3.4906   -1.6652    0.2862 H   0  0  0  0  0  0  0  0  0  0  0  0
    1.1923   -0.4679   -3.9793 H   0  0  0  0  0  0  0  0  0  0  0  0
    2.1831   -0.9555   -2.6732 H   0  0  0  0  0  0  0  0  0  0  0  0
    4.7380    0.4493    0.1657 H   0  0  0  0  0  0  0  0  0  0  0  0
    4.1075    2.7607   -0.9235 H   0  0  0  0  0  0  0  0  0  0  0  0
    1.3371   -3.3589   -2.9823 H   0  0  0  0  0  0  0  0  0  0  0  0
    0.4480   -3.9003   -5.1390 H   0  0  0  0  0  0  0  0  0  0  0  0
    0.4470   -2.1029   -5.6540 H   0  0  0  0  0  0  0  0  0  0  0  0
  1  2  1  0  0  0  0
  1  3  1  6  0  0  0
  1  4  1  0  0  0  0
  1  5  1  0  0  0  0
  2  6  1  0  0  0  0
  2  7  1  0  0  0  0
  2 22  1  1  0  0  0
  3  8  2  0  0  0  0
  3  9  1  0  0  0  0
  4 10  1  0  0  0  0
  4 23  1  0  0  0  0
  4 24  1  0  0  0  0
  5 11  1  0  0  0  0
  5 25  1  0  0  0  0
  5 26  1  0  0  0  0
  6 12  1  0  0  0  0
  6 13  1  0  0  0  0
  6 27  1  1  0  0  0
  7 14  1  0  0  0  0
  7 28  1  0  0  0  0
  7 29  1  0  0  0  0
  8 15  1  0  0  0  0
  8 13  1  0  0  0  0
  9 16  2  0  0  0  0
  9 30  1  0  0  0  0
 10 12  1  0  0  0  0
 10 31  1  0  0  0  0
 10 32  1  0  0  0  0
 11 14  1  0  0  0  0
 11 33  1  0  0  0  0
 11 34  1  0  0  0  0
 12 17  1  0  0  0  0
 13 35  1  0  0  0  0
 13 36  1  0  0  0  0
 14 37  1  0  0  0  0
 14 38  1  0  0  0  0
 15 18  2  0  0  0  0
 15 39  1  0  0  0  0
 16 18  1  0  0  0  0
 16 19  1  0  0  0  0
 17 20  1  0  0  0  0
 17 40  1  0  0  0  0
 17 41  1  0  0  0  0
 18 42  1  0  0  0  0
 19 43  1  0  0  0  0
 20 21  2  0  0  0  0
 20 44  1  0  0  0  0
 21 45  1  0  0  0  0
 21 46  1  0  0  0  0
M  END
>  <DRUGBANK_ID>
DB00504

>  <SECONDARY_ACCESSION_NUMBERS>
APRD00733

>  <COMMON_NAME>
Levallorphan

>  <CAS_NUMBER>
152-02-3

>  <UNII>
353613BU4U

>  <SYNONYMS>
Levallofano; Levallorphan; LÃ©vallorphane; Levallorphanum; Levalorfano

$$$$
