
 OpenBabel10282417233D

 31 33  0  0  0  0  0  0  0  0999 V2000
    0.0947    1.8157   -0.0140 O   0  0  0  0  0  0  0  0  0  0  0  0
    0.0305    0.4461    0.0038 C   0  0  0  0  0  0  0  0  0  0  0  0
   -1.1920   -0.2201    0.0362 C   0  0  0  0  0  0  0  0  0  0  0  0
   -2.6787    0.6550    0.0135 Cl  0  0  0  0  0  0  0  0  0  0  0  0
   -1.2364   -1.6155    0.0825 C   0  0  0  0  0  0  0  0  0  0  0  0
   -0.0577   -2.3796    0.0388 C   0  0  0  0  0  0  0  0  0  0  0  0
    1.1707   -1.7054    0.0006 C   0  0  0  0  0  0  0  0  0  0  0  0
    1.2110   -0.3025   -0.0045 C   0  0  0  0  0  0  0  0  0  0  0  0
    2.7503    0.4800   -0.0125 Cl  0  0  0  0  0  0  0  0  0  0  0  0
   -0.0743   -3.8931    0.0830 C   0  0  0  0  0  0  0  0  0  0  0  0
    0.9739   -4.5152    0.2214 O   0  0  0  0  0  0  0  0  0  0  0  0
   -1.3053   -4.5229    0.0536 N   0  0  0  0  0  0  0  0  0  0  0  0
   -1.7104   -5.5493    1.0368 C   0  0  0  0  0  0  0  0  0  0  0  0
   -3.3779   -6.1357    0.5761 S   0  0  0  0  0  0  0  0  0  0  0  0
   -3.3502   -7.5392    0.2070 O   0  0  0  0  0  0  0  0  0  0  0  0
   -4.3736   -5.5764    1.4620 O   0  0  0  0  0  0  0  0  0  0  0  0
   -3.3879   -5.1836   -0.8980 C   0  0  0  0  0  0  0  0  0  0  0  0
   -4.4082   -5.1306   -1.8349 C   0  0  0  0  0  0  0  0  0  0  0  0
   -4.2330   -4.2870   -2.9377 C   0  0  0  0  0  0  0  0  0  0  0  0
   -3.0501   -3.5557   -3.0988 C   0  0  0  0  0  0  0  0  0  0  0  0
   -2.0277   -3.6587   -2.1607 C   0  0  0  0  0  0  0  0  0  0  0  0
   -2.2171   -4.4399   -1.0270 C   0  0  0  0  0  0  0  0  0  0  0  0
   -0.8097    2.1795    0.0024 H   0  0  0  0  0  0  0  0  0  0  0  0
   -2.2115   -2.0907    0.1316 H   0  0  0  0  0  0  0  0  0  0  0  0
    2.1040   -2.2665   -0.0130 H   0  0  0  0  0  0  0  0  0  0  0  0
   -1.0054   -6.3835    1.0682 H   0  0  0  0  0  0  0  0  0  0  0  0
   -1.7809   -5.0731    2.0208 H   0  0  0  0  0  0  0  0  0  0  0  0
   -5.3195   -5.7090   -1.7201 H   0  0  0  0  0  0  0  0  0  0  0  0
   -5.0138   -4.1939   -3.6893 H   0  0  0  0  0  0  0  0  0  0  0  0
   -2.9181   -2.8956   -3.9537 H   0  0  0  0  0  0  0  0  0  0  0  0
   -1.1166   -3.0935   -2.3246 H   0  0  0  0  0  0  0  0  0  0  0  0
  1  2  1  0  0  0  0
  1 23  1  0  0  0  0
  2  3  2  0  0  0  0
  2  8  1  0  0  0  0
  3  4  1  0  0  0  0
  3  5  1  0  0  0  0
  5  6  2  0  0  0  0
  5 24  1  0  0  0  0
  6  7  1  0  0  0  0
  6 10  1  0  0  0  0
  7  8  2  0  0  0  0
  7 25  1  0  0  0  0
  8  9  1  0  0  0  0
 10 11  2  0  0  0  0
 10 12  1  0  0  0  0
 12 13  1  0  0  0  0
 12 22  1  0  0  0  0
 13 14  1  0  0  0  0
 13 26  1  0  0  0  0
 13 27  1  0  0  0  0
 14 15  2  0  0  0  0
 14 16  2  0  0  0  0
 14 17  1  0  0  0  0
 17 18  2  0  0  0  0
 17 22  1  0  0  0  0
 18 19  1  0  0  0  0
 18 28  1  0  0  0  0
 19 20  2  0  0  0  0
 19 29  1  0  0  0  0
 20 21  1  0  0  0  0
 20 30  1  0  0  0  0
 21 22  2  0  0  0  0
 21 31  1  0  0  0  0
M  END
>  <DRUGBANK_ID>
DB16145

>  <COMMON_NAME>
Dotinurad

>  <CAS_NUMBER>
1285572-51-1

>  <UNII>
305EB53128

>  <SYNONYMS>
Dotinurad

$$$$
