
 OpenBabel10282417193D

 55 55  0  0  0  0  0  0  0  0999 V2000
    0.9483    0.0093    0.0258 C   0  0  0  0  0  0  0  0  0  0  0  0
    0.4599    0.2667    1.4283 C   0  0  0  0  0  0  0  0  0  0  0  0
   -0.3824    1.2775    1.6538 C   0  0  0  0  0  0  0  0  0  0  0  0
   -0.8970    1.8197    2.9533 C   0  0  0  0  0  0  0  0  0  0  0  0
   -0.3285    3.2135    3.2661 C   0  0  0  0  0  0  0  0  0  0  0  0
   -0.7680    4.2896    2.2742 C   0  0  0  0  0  0  0  0  0  0  0  0
   -1.4519    5.3504    2.7129 C   0  0  0  0  0  0  0  0  0  0  0  0
   -2.1874    6.3889    1.9151 C   0  0  0  0  0  0  0  0  0  0  0  0
   -3.7399    6.2571    1.8791 C   0  0  0  0  0  0  0  0  0  0  0  0
   -4.4911    6.4117    3.2275 C   0  0  0  0  0  0  0  0  0  0  0  0
   -5.1563    7.5958    3.4672 C   0  0  0  0  0  0  0  0  0  0  0  0
   -5.8007    8.2518    4.7146 C   0  0  0  0  0  0  0  0  0  0  0  0
   -4.9168    9.8920    5.1317 S   0  0  0  0  0  0  0  0  0  0  0  0
   -3.0871    9.6995    5.3355 C   0  0  0  0  0  0  0  0  0  0  0  0
   -2.4073   10.9293    5.3999 C   0  0  0  0  0  0  0  0  0  0  0  0
   -1.0018   11.0028    5.5420 C   0  0  0  0  0  0  0  0  0  0  0  0
   -0.2158    9.8625    5.6322 C   0  0  0  0  0  0  0  0  0  0  0  0
   -0.8423    8.6494    5.6405 C   0  0  0  0  0  0  0  0  0  0  0  0
   -2.2378    8.5739    5.4959 C   0  0  0  0  0  0  0  0  0  0  0  0
   -2.6449    7.2162    5.6952 C   0  0  0  0  0  0  0  0  0  0  0  0
   -1.9588    6.1901    5.7569 O   0  0  0  0  0  0  0  0  0  0  0  0
   -3.8973    7.2734    6.0306 O   0  0  0  0  0  0  0  0  0  0  0  0
   -4.2329    5.1478    4.1250 C   0  0  0  0  0  0  0  0  0  0  0  0
   -0.4060    4.1957    0.8305 C   0  0  0  0  0  0  0  0  0  0  0  0
    0.9097   -0.6380    2.5198 C   0  0  0  0  0  0  0  0  0  0  0  0
    0.5970    0.7687   -0.6883 H   0  0  0  0  0  0  0  0  0  0  0  0
    0.5925   -0.9595   -0.3303 H   0  0  0  0  0  0  0  0  0  0  0  0
    2.0418    0.0361   -0.0105 H   0  0  0  0  0  0  0  0  0  0  0  0
   -0.7368    1.7527    0.7570 H   0  0  0  0  0  0  0  0  0  0  0  0
   -1.9920    1.8437    2.9204 H   0  0  0  0  0  0  0  0  0  0  0  0
   -0.6480    1.1716    3.7967 H   0  0  0  0  0  0  0  0  0  0  0  0
   -0.6768    3.4529    4.2860 H   0  0  0  0  0  0  0  0  0  0  0  0
    0.7654    3.1847    3.3392 H   0  0  0  0  0  0  0  0  0  0  0  0
   -1.4460    5.4617    3.7854 H   0  0  0  0  0  0  0  0  0  0  0  0
   -1.8696    7.3711    2.2735 H   0  0  0  0  0  0  0  0  0  0  0  0
   -1.8772    6.3583    0.8696 H   0  0  0  0  0  0  0  0  0  0  0  0
   -4.0820    7.0024    1.1449 H   0  0  0  0  0  0  0  0  0  0  0  0
   -4.0122    5.2847    1.4464 H   0  0  0  0  0  0  0  0  0  0  0  0
   -5.2220    8.3088    2.6288 H   0  0  0  0  0  0  0  0  0  0  0  0
   -6.8765    8.4293    4.5631 H   0  0  0  0  0  0  0  0  0  0  0  0
   -5.8658    7.6735    5.6389 H   0  0  0  0  0  0  0  0  0  0  0  0
   -2.9606   11.8663    5.3514 H   0  0  0  0  0  0  0  0  0  0  0  0
   -0.5112   11.9681    5.5956 H   0  0  0  0  0  0  0  0  0  0  0  0
    0.8641    9.8855    5.7261 H   0  0  0  0  0  0  0  0  0  0  0  0
   -0.2606    7.7408    5.8090 H   0  0  0  0  0  0  0  0  0  0  0  0
   -4.3818    6.7181    5.4102 H   0  0  0  0  0  0  0  0  0  0  0  0
   -4.6173    4.2082    3.7377 H   0  0  0  0  0  0  0  0  0  0  0  0
   -3.1684    4.9959    4.2109 H   0  0  0  0  0  0  0  0  0  0  0  0
   -4.5156    5.1323    5.1832 H   0  0  0  0  0  0  0  0  0  0  0  0
    0.6729    4.0606    0.7367 H   0  0  0  0  0  0  0  0  0  0  0  0
   -0.9826    3.4395    0.3135 H   0  0  0  0  0  0  0  0  0  0  0  0
   -0.6487    5.0839    0.2557 H   0  0  0  0  0  0  0  0  0  0  0  0
    0.5316   -1.6425    2.3188 H   0  0  0  0  0  0  0  0  0  0  0  0
    1.9955   -0.6323    2.6059 H   0  0  0  0  0  0  0  0  0  0  0  0
    0.5130   -0.3557    3.4968 H   0  0  0  0  0  0  0  0  0  0  0  0
  1  2  1  0  0  0  0
  1 26  1  0  0  0  0
  1 27  1  0  0  0  0
  1 28  1  0  0  0  0
  2  3  2  0  0  0  0
  2 25  1  0  0  0  0
  3  4  1  0  0  0  0
  3 29  1  0  0  0  0
  4  5  1  0  0  0  0
  4 30  1  0  0  0  0
  4 31  1  0  0  0  0
  5  6  1  0  0  0  0
  5 32  1  0  0  0  0
  5 33  1  0  0  0  0
  6  7  2  0  0  0  0
  6 24  1  0  0  0  0
  7  8  1  0  0  0  0
  7 34  1  0  0  0  0
  8  9  1  0  0  0  0
  8 35  1  0  0  0  0
  8 36  1  0  0  0  0
  9 10  1  0  0  0  0
  9 37  1  0  0  0  0
  9 38  1  0  0  0  0
 10 11  2  0  0  0  0
 10 23  1  0  0  0  0
 11 12  1  0  0  0  0
 11 39  1  0  0  0  0
 12 13  1  0  0  0  0
 12 40  1  0  0  0  0
 12 41  1  0  0  0  0
 13 14  1  0  0  0  0
 14 15  2  0  0  0  0
 14 19  1  0  0  0  0
 15 16  1  0  0  0  0
 15 42  1  0  0  0  0
 16 17  2  0  0  0  0
 16 43  1  0  0  0  0
 17 18  1  0  0  0  0
 17 44  1  0  0  0  0
 18 19  2  0  0  0  0
 18 45  1  0  0  0  0
 19 20  1  0  0  0  0
 20 21  2  0  0  0  0
 20 22  1  0  0  0  0
 22 46  1  0  0  0  0
 23 47  1  0  0  0  0
 23 48  1  0  0  0  0
 23 49  1  0  0  0  0
 24 50  1  0  0  0  0
 24 51  1  0  0  0  0
 24 52  1  0  0  0  0
 25 53  1  0  0  0  0
 25 54  1  0  0  0  0
 25 55  1  0  0  0  0
M  END
>  <DRUGBANK_ID>
DB12681

>  <COMMON_NAME>
Salirasib

>  <CAS_NUMBER>
162520-00-5

>  <UNII>
MZH0OM550M

>  <SYNONYMS>
Salirasib

$$$$
