CM6
 OpenBabel10282417163D

 44 47  0  0  0  0  0  0  0  0999 V2000
    0.9869   -0.0878   -0.4074 O   0  0  0  0  0  0  0  0  0  0  0  0
    2.2046   -0.0081   -0.2062 C   0  0  0  0  0  0  0  0  0  0  0  0
    3.0009   -0.9783   -0.7782 N   0  0  0  0  0  0  0  0  0  0  0  0
    4.4009   -1.0808   -0.7495 C   0  0  0  0  0  0  0  0  0  0  0  0
    5.1418   -0.9480    0.4223 C   0  0  0  0  0  0  0  0  0  0  0  0
    6.5187   -0.9304    0.3507 C   0  0  0  0  0  0  0  0  0  0  0  0
    7.1934   -1.0847   -0.7989 N   0  0  0  0  0  0  0  0  0  0  0  0
    6.4581   -1.2773   -1.9160 C   0  0  0  0  0  0  0  0  0  0  0  0
    5.0722   -1.3084   -1.9424 C   0  0  0  0  0  0  0  0  0  0  0  0
    2.8130    1.0577    0.7381 C   0  0  1  0  0  0  0  0  0  0  0  0
    2.6988    2.5008    0.3928 N   0  0  0  0  0  0  0  0  0  0  0  0
    3.7139    3.6714    1.1890 S   0  0  0  0  0  0  0  0  0  0  0  0
    5.0822    3.2454    0.9119 O   0  0  0  0  0  0  0  0  0  0  0  0
    3.2231    4.9081    0.6485 O   0  0  0  0  0  0  0  0  0  0  0  0
    3.5431    3.7295    2.9971 C   0  0  0  0  0  0  0  0  0  0  0  0
    3.8952    2.6562    3.8679 C   0  0  0  0  0  0  0  0  0  0  0  0
    3.5461    2.5862    5.2683 C   0  0  0  0  0  0  0  0  0  0  0  0
    2.8406    3.5851    5.9490 C   0  0  0  0  0  0  0  0  0  0  0  0
    2.6814    4.7692    5.2067 C   0  0  0  0  0  0  0  0  0  0  0  0
    2.1741    5.9043    5.7070 N   0  0  0  0  0  0  0  0  0  0  0  0
    2.3188    7.0376    4.5083 S   0  0  0  0  0  0  0  0  0  0  0  0
    2.8219    6.0961    3.2426 N   0  0  0  0  0  0  0  0  0  0  0  0
    3.0498    4.8605    3.7089 C   0  0  0  0  0  0  0  0  0  0  0  0
    2.1622    0.7628    2.0687 C   0  0  0  0  0  0  0  0  0  0  0  0
    2.3651   -0.4568    2.7324 C   0  0  0  0  0  0  0  0  0  0  0  0
    2.0412   -0.5752    4.0750 C   0  0  0  0  0  0  0  0  0  0  0  0
    1.4397    0.4947    4.7249 C   0  0  0  0  0  0  0  0  0  0  0  0
    1.0751    1.6362    4.0124 C   0  0  0  0  0  0  0  0  0  0  0  0
    1.3804    1.7457    2.6720 C   0  0  0  0  0  0  0  0  0  0  0  0
    3.8882    0.9348    0.7894 H   0  0  0  0  0  0  0  0  0  0  0  0
    2.4857   -1.5686   -1.4259 H   0  0  0  0  0  0  0  0  0  0  0  0
    4.6945   -0.8492    1.3988 H   0  0  0  0  0  0  0  0  0  0  0  0
    7.1159   -0.7771    1.2449 H   0  0  0  0  0  0  0  0  0  0  0  0
    7.0386   -1.3870   -2.8265 H   0  0  0  0  0  0  0  0  0  0  0  0
    4.5518   -1.4273   -2.8860 H   0  0  0  0  0  0  0  0  0  0  0  0
    2.7974    2.6515   -0.6183 H   0  0  0  0  0  0  0  0  0  0  0  0
    4.2692    1.7267    3.4381 H   0  0  0  0  0  0  0  0  0  0  0  0
    3.6502    1.6275    5.7876 H   0  0  0  0  0  0  0  0  0  0  0  0
    2.4003    3.4410    6.9343 H   0  0  0  0  0  0  0  0  0  0  0  0
    2.7972   -1.3151    2.2257 H   0  0  0  0  0  0  0  0  0  0  0  0
    2.3208   -1.4675    4.6260 H   0  0  0  0  0  0  0  0  0  0  0  0
    1.3558    0.4921    5.8068 H   0  0  0  0  0  0  0  0  0  0  0  0
    0.7769    2.5492    4.5210 H   0  0  0  0  0  0  0  0  0  0  0  0
    1.1943    2.6982    2.1756 H   0  0  0  0  0  0  0  0  0  0  0  0
  1  2  2  0  0  0  0
  2  3  1  0  0  0  0
  2 10  1  0  0  0  0
  3  4  1  0  0  0  0
  3 31  1  0  0  0  0
  4  5  2  0  0  0  0
  4  9  1  0  0  0  0
  5  6  1  0  0  0  0
  5 32  1  0  0  0  0
  6  7  2  0  0  0  0
  6 33  1  0  0  0  0
  7  8  1  0  0  0  0
  8  9  2  0  0  0  0
  8 34  1  0  0  0  0
  9 35  1  0  0  0  0
 10 11  1  0  0  0  0
 10 24  1  0  0  0  0
 10 30  1  1  0  0  0
 11 12  1  0  0  0  0
 11 36  1  0  0  0  0
 12 13  2  0  0  0  0
 12 14  2  0  0  0  0
 12 15  1  0  0  0  0
 15 16  2  0  0  0  0
 15 23  1  0  0  0  0
 16 17  1  0  0  0  0
 16 37  1  0  0  0  0
 17 18  2  0  0  0  0
 17 38  1  0  0  0  0
 18 19  1  0  0  0  0
 18 39  1  0  0  0  0
 19 20  2  0  0  0  0
 19 23  1  0  0  0  0
 20 21  1  0  0  0  0
 21 22  1  0  0  0  0
 22 23  2  0  0  0  0
 24 25  2  0  0  0  0
 24 29  1  0  0  0  0
 25 26  1  0  0  0  0
 25 40  1  0  0  0  0
 26 27  2  0  0  0  0
 26 41  1  0  0  0  0
 27 28  1  0  0  0  0
 27 42  1  0  0  0  0
 28 29  2  0  0  0  0
 28 43  1  0  0  0  0
 29 44  1  0  0  0  0
M  END
>  <DRUGBANK_ID>
DB07568

>  <COMMON_NAME>
(2S)-2-[(2,1,3-BENZOTHIADIAZOL-4-YLSULFONYL)AMINO]-2-PHENYL-N-PYRIDIN-4-YLACETAMIDE

$$$$
