A41
 OpenBabel10282417163D

 33 34  0  0  0  0  0  0  0  0999 V2000
    1.3392   -0.2092    0.0222 C   0  0  0  0  0  0  0  0  0  0  0  0
    0.4623   -1.2941    0.0294 C   0  0  0  0  0  0  0  0  0  0  0  0
   -0.9192   -1.0786    0.0128 C   0  0  0  0  0  0  0  0  0  0  0  0
   -1.4190    0.2304    0.0138 C   0  0  0  0  0  0  0  0  0  0  0  0
   -0.5414    1.3176    0.0454 C   0  0  0  0  0  0  0  0  0  0  0  0
    0.8379    1.0935    0.0124 C   0  0  0  0  0  0  0  0  0  0  0  0
   -3.1567    0.5200   -0.2700 S   0  0  0  0  0  0  0  0  0  0  0  0
   -3.6756    1.4135    1.0500 N   0  0  0  0  0  0  0  0  0  0  0  0
   -3.2332    1.3191   -1.4763 O   0  0  0  0  0  0  0  0  0  0  0  0
   -3.8258   -0.7614   -0.1816 O   0  0  0  0  0  0  0  0  0  0  0  0
   -4.2903    2.7045    0.9314 C   0  0  0  0  0  0  0  0  0  0  0  0
   -5.2840    2.8850   -0.0419 C   0  0  0  0  0  0  0  0  0  0  0  0
   -5.9661    4.0948   -0.1689 C   0  0  0  0  0  0  0  0  0  0  0  0
   -5.7161    5.1355    0.7204 C   0  0  0  0  0  0  0  0  0  0  0  0
   -4.7949    4.9372    1.7599 C   0  0  0  0  0  0  0  0  0  0  0  0
   -4.0210    3.7590    1.8379 C   0  0  0  0  0  0  0  0  0  0  0  0
   -2.8677    3.6535    2.7893 C   0  0  0  0  0  0  0  0  0  0  0  0
   -2.5886    4.7276    3.5568 O   0  0  0  0  0  0  0  0  0  0  0  0
   -2.1634    2.6507    2.8592 O   0  0  0  0  0  0  0  0  0  0  0  0
   -6.3634    6.4773    0.5310 C   0  0  0  0  0  0  0  0  0  0  0  0
    2.4141   -0.3785    0.0233 H   0  0  0  0  0  0  0  0  0  0  0  0
    0.8583   -2.3072    0.0190 H   0  0  0  0  0  0  0  0  0  0  0  0
   -1.5894   -1.9341   -0.0327 H   0  0  0  0  0  0  0  0  0  0  0  0
   -0.9220    2.3349    0.0723 H   0  0  0  0  0  0  0  0  0  0  0  0
    1.5244    1.9352   -0.0393 H   0  0  0  0  0  0  0  0  0  0  0  0
   -3.4776    1.0411    1.9805 H   0  0  0  0  0  0  0  0  0  0  0  0
   -5.5300    2.0887   -0.7416 H   0  0  0  0  0  0  0  0  0  0  0  0
   -6.6923    4.2089   -0.9715 H   0  0  0  0  0  0  0  0  0  0  0  0
   -4.7011    5.7407    2.4814 H   0  0  0  0  0  0  0  0  0  0  0  0
   -3.1195    5.5358    3.4721 H   0  0  0  0  0  0  0  0  0  0  0  0
   -6.9658    6.7482    1.4021 H   0  0  0  0  0  0  0  0  0  0  0  0
   -5.5872    7.2361    0.3781 H   0  0  0  0  0  0  0  0  0  0  0  0
   -7.0083    6.4905   -0.3540 H   0  0  0  0  0  0  0  0  0  0  0  0
  1  2  1  0  0  0  0
  1  6  2  0  0  0  0
  1 21  1  0  0  0  0
  2  3  2  0  0  0  0
  2 22  1  0  0  0  0
  3  4  1  0  0  0  0
  3 23  1  0  0  0  0
  4  5  2  0  0  0  0
  4  7  1  0  0  0  0
  5  6  1  0  0  0  0
  5 24  1  0  0  0  0
  6 25  1  0  0  0  0
  7  8  1  0  0  0  0
  7  9  2  0  0  0  0
  7 10  2  0  0  0  0
  8 11  1  0  0  0  0
  8 26  1  0  0  0  0
 11 12  2  0  0  0  0
 11 16  1  0  0  0  0
 12 13  1  0  0  0  0
 12 27  1  0  0  0  0
 13 14  2  0  0  0  0
 13 28  1  0  0  0  0
 14 15  1  0  0  0  0
 14 20  1  0  0  0  0
 15 16  2  0  0  0  0
 15 29  1  0  0  0  0
 16 17  1  0  0  0  0
 17 18  1  0  0  0  0
 17 19  2  0  0  0  0
 18 30  1  0  0  0  0
 20 31  1  0  0  0  0
 20 32  1  0  0  0  0
 20 33  1  0  0  0  0
M  END
>  <DRUGBANK_ID>
DB07313

>  <COMMON_NAME>
5-METHYL-2-[(PHENYLSULFONYL)AMINO]BENZOIC ACID

>  <UNII>
BQ6W7H7DKV

$$$$
