DZE
 OpenBabel10282417163D

 36 35  0  0  0  0  0  0  0  0999 V2000
    1.1019    0.0394   -0.0480 C   0  0  0  0  0  0  0  0  0  0  0  0
    0.5482    0.5912   -1.3681 C   0  0  0  0  0  0  0  0  0  0  0  0
    1.0971   -0.0685   -2.6371 C   0  0  0  0  0  0  0  0  0  0  0  0
    0.9716    2.0738   -1.4395 C   0  0  0  0  0  0  0  0  0  0  0  0
   -0.9056    0.5165   -1.3629 O   0  0  0  0  0  0  0  0  0  0  0  0
   -1.6597   -0.6236   -1.2968 C   0  0  0  0  0  0  0  0  0  0  0  0
   -2.8876   -0.5606   -1.3158 O   0  0  0  0  0  0  0  0  0  0  0  0
   -0.9863   -1.8160   -1.2276 N   0  0  0  0  0  0  0  0  0  0  0  0
   -1.6075   -3.1266   -1.1759 C   0  0  2  0  0  0  0  0  0  0  0  0
   -1.2736   -3.8367    0.1525 C   0  0  0  0  0  0  0  0  0  0  0  0
    0.1627   -4.1879    0.4793 C   0  0  0  0  0  0  0  0  0  0  0  0
   -2.1730   -4.1904    0.9193 O   0  0  0  0  0  0  0  0  0  0  0  0
   -1.2476   -3.9820   -2.3980 C   0  0  0  0  0  0  0  0  0  0  0  0
    0.2347   -4.2765   -2.4895 C   0  0  0  0  0  0  0  0  0  0  0  0
    0.6536   -5.5613   -2.5009 O   0  0  0  0  0  0  0  0  0  0  0  0
   -0.2352   -6.6686   -2.3110 C   0  0  0  0  0  0  0  0  0  0  0  0
    1.0655   -3.3709   -2.4712 O   0  0  0  0  0  0  0  0  0  0  0  0
   -2.6949   -2.9803   -1.1850 H   0  0  0  0  0  0  0  0  0  0  0  0
    0.8090   -0.9859    0.1676 H   0  0  0  0  0  0  0  0  0  0  0  0
    0.7097    0.6176    0.7976 H   0  0  0  0  0  0  0  0  0  0  0  0
    2.1934    0.0697   -0.0308 H   0  0  0  0  0  0  0  0  0  0  0  0
    0.7777   -1.0944   -2.7720 H   0  0  0  0  0  0  0  0  0  0  0  0
    0.7146    0.4377   -3.5309 H   0  0  0  0  0  0  0  0  0  0  0  0
    2.1891   -0.0617   -2.6521 H   0  0  0  0  0  0  0  0  0  0  0  0
    0.5949    2.6493   -0.5876 H   0  0  0  0  0  0  0  0  0  0  0  0
    2.0669    2.1563   -1.4451 H   0  0  0  0  0  0  0  0  0  0  0  0
    0.5952    2.5620   -2.3452 H   0  0  0  0  0  0  0  0  0  0  0  0
    0.0171   -1.8320   -1.2827 H   0  0  0  0  0  0  0  0  0  0  0  0
    0.5449   -4.9441   -0.1999 H   0  0  0  0  0  0  0  0  0  0  0  0
    0.8038   -3.3072    0.4534 H   0  0  0  0  0  0  0  0  0  0  0  0
    0.2166   -4.6463    1.4691 H   0  0  0  0  0  0  0  0  0  0  0  0
   -1.8465   -4.8913   -2.3712 H   0  0  0  0  0  0  0  0  0  0  0  0
   -1.5171   -3.4608   -3.3248 H   0  0  0  0  0  0  0  0  0  0  0  0
   -0.8072   -6.5637   -1.3832 H   0  0  0  0  0  0  0  0  0  0  0  0
   -0.8884   -6.7502   -3.1806 H   0  0  0  0  0  0  0  0  0  0  0  0
    0.3692   -7.5756   -2.2307 H   0  0  0  0  0  0  0  0  0  0  0  0
  1  2  1  0  0  0  0
  1 19  1  0  0  0  0
  1 20  1  0  0  0  0
  1 21  1  0  0  0  0
  2  3  1  0  0  0  0
  2  5  1  0  0  0  0
  3 22  1  0  0  0  0
  3 23  1  0  0  0  0
  3 24  1  0  0  0  0
  4  2  1  0  0  0  0
  4 25  1  0  0  0  0
  4 26  1  0  0  0  0
  4 27  1  0  0  0  0
  5  6  1  0  0  0  0
  6  8  1  0  0  0  0
  7  6  2  0  0  0  0
  8 28  1  0  0  0  0
  9  8  1  0  0  0  0
  9 13  1  0  0  0  0
  9 10  1  0  0  0  0
  9 18  1  6  0  0  0
 10 12  2  0  0  0  0
 11 10  1  0  0  0  0
 11 29  1  0  0  0  0
 11 30  1  0  0  0  0
 11 31  1  0  0  0  0
 13 32  1  0  0  0  0
 13 33  1  0  0  0  0
 14 13  1  0  0  0  0
 14 15  1  0  0  0  0
 15 16  1  0  0  0  0
 16 34  1  0  0  0  0
 16 35  1  0  0  0  0
 16 36  1  0  0  0  0
 17 14  2  0  0  0  0
M  END
>  <DRUGBANK_ID>
DB07696

>  <COMMON_NAME>
methyl (3S)-3-[(tert-butoxycarbonyl)amino]-4-oxopentanoate

$$$$
