
 OpenBabel10282417103D

 30 30  0  0  0  0  0  0  0  0999 V2000
   -4.4429    1.3084    2.5416 C   0  0  0  0  0  0  0  0  0  0  0  0
   -4.5480    0.7264    3.8147 C   0  0  0  0  0  0  0  0  0  0  0  0
   -4.3776    2.7165    2.4736 C   0  0  0  0  0  0  0  0  0  0  0  0
   -4.4993    1.4803    4.9829 C   0  0  0  0  0  0  0  0  0  0  0  0
   -4.4074    3.4769    3.6497 C   0  0  0  0  0  0  0  0  0  0  0  0
   -4.4583    2.8539    4.8936 C   0  0  0  0  0  0  0  0  0  0  0  0
   -4.4180    4.8452    3.6326 O   0  0  0  0  0  0  0  0  0  0  0  0
   -4.5165    3.5682    6.0540 O   0  0  0  0  0  0  0  0  0  0  0  0
   -4.5714    0.4851    1.2617 C   0  0  0  0  0  0  0  0  0  0  0  0
   -4.0749   -1.0181    1.1549 C   0  0  2  0  0  0  0  0  0  0  0  0
   -3.3475   -1.4166   -0.1744 C   0  0  0  0  0  0  0  0  0  0  0  0
   -2.7214   -0.4348   -0.8591 O   0  0  0  0  0  0  0  0  0  0  0  0
   -3.2458   -2.5812   -0.5661 O   0  0  0  0  0  0  0  0  0  0  0  0
   -5.3821   -1.8580    1.1650 C   0  0  0  0  0  0  0  0  0  0  0  0
   -3.2050   -1.5471    2.2397 N   0  0  0  0  0  0  0  0  0  0  0  0
   -2.0037   -0.7634    2.3892 N   0  0  0  0  0  0  0  0  0  0  0  0
   -4.7034   -0.3325    3.9512 H   0  0  0  0  0  0  0  0  0  0  0  0
   -4.3483    3.2107    1.5058 H   0  0  0  0  0  0  0  0  0  0  0  0
   -4.5383    0.9897    5.9495 H   0  0  0  0  0  0  0  0  0  0  0  0
   -4.3927    5.1441    2.7083 H   0  0  0  0  0  0  0  0  0  0  0  0
   -4.5454    4.5030    5.7787 H   0  0  0  0  0  0  0  0  0  0  0  0
   -5.6578    0.4859    1.0923 H   0  0  0  0  0  0  0  0  0  0  0  0
   -4.1930    1.0820    0.4275 H   0  0  0  0  0  0  0  0  0  0  0  0
   -2.6884    0.4337   -0.4245 H   0  0  0  0  0  0  0  0  0  0  0  0
   -5.2004   -2.9376    1.1462 H   0  0  0  0  0  0  0  0  0  0  0  0
   -5.9917   -1.6359    2.0490 H   0  0  0  0  0  0  0  0  0  0  0  0
   -5.9864   -1.6228    0.2777 H   0  0  0  0  0  0  0  0  0  0  0  0
   -3.7341   -1.6482    3.1055 H   0  0  0  0  0  0  0  0  0  0  0  0
   -1.5129   -1.0195    3.2547 H   0  0  0  0  0  0  0  0  0  0  0  0
   -1.3315   -1.0035    1.6518 H   0  0  0  0  0  0  0  0  0  0  0  0
  2  1  1  0  0  0  0
  2 17  1  0  0  0  0
  3  1  2  0  0  0  0
  3 18  1  0  0  0  0
  4  2  2  0  0  0  0
  4 19  1  0  0  0  0
  5  3  1  0  0  0  0
  6  4  1  0  0  0  0
  6  5  2  0  0  0  0
  7  5  1  0  0  0  0
  7 20  1  0  0  0  0
  8  6  1  0  0  0  0
  8 21  1  0  0  0  0
  9  1  1  0  0  0  0
  9 22  1  0  0  0  0
  9 23  1  0  0  0  0
 10 15  1  0  0  0  0
 10 11  1  6  0  0  0
 10  9  1  0  0  0  0
 12 11  1  0  0  0  0
 12 24  1  0  0  0  0
 13 11  2  0  0  0  0
 14 10  1  0  0  0  0
 14 25  1  0  0  0  0
 14 26  1  0  0  0  0
 14 27  1  0  0  0  0
 15 28  1  0  0  0  0
 16 15  1  0  0  0  0
 16 29  1  0  0  0  0
 16 30  1  0  0  0  0
M  END
>  <DRUGBANK_ID>
DB00190

>  <SECONDARY_ACCESSION_NUMBERS>
APRD00160

>  <COMMON_NAME>
Carbidopa

>  <CAS_NUMBER>
28860-95-9

>  <UNII>
KR87B45RGH

>  <SYNONYMS>
(-)-L-alpha-Hydrazino-3,4-dihydroxy-alpha-methylhydrocinnamic acid monohydrate; (S)-(−)-carbidopa; (S)-carbidopa; (αS)-α-hydrazino-3,4-dihydroxy-α-methylbenzenepropanoic acid; Carbidopa; Carbidopa (anhydrous); Carbidopa anhydrous; Carbidopum; L-3-(3,4-dihydroxyphenyl)-2-methyl-2-hydrazinopropionic acid; L-α-methyldopahydrazine

$$$$
