
 OpenBabel10282417123D

 35 36  0  0  1  0  0  0  0  0999 V2000
    1.0973   -0.3877   -2.0053 C   0  0  0  0  0  0  0  0  0  0  0  0
    0.9060    1.1250   -1.8706 C   0  0  0  0  0  0  0  0  0  0  0  0
   -2.9265   -2.0747   -1.6342 C   0  0  0  0  0  0  0  0  0  0  0  0
   -0.0025   -1.9985   -0.2729 C   0  0  0  0  0  0  0  0  0  0  0  0
    1.0523   -0.9971   -0.6279 C   0  0  1  0  0  0  0  0  0  0  0  0
   -2.4825   -0.5818   -1.4207 C   0  0  2  0  0  0  0  0  0  0  0  0
   -3.6731    0.2443   -0.9380 C   0  0  2  0  0  0  0  0  0  0  0  0
   -3.3212    1.7397   -0.8718 C   0  0  1  0  0  0  0  0  0  0  0  0
   -2.6221    2.2028   -2.1598 C   0  0  2  0  0  0  0  0  0  0  0  0
   -1.4192    1.2948   -2.4719 C   0  0  1  0  0  0  0  0  0  0  0  0
   -2.0198   -2.9850   -2.2773 O   0  0  0  0  0  0  0  0  0  0  0  0
   -4.0974   -0.2372    0.3452 O   0  0  0  0  0  0  0  0  0  0  0  0
   -4.5241    2.4914   -0.6595 O   0  0  0  0  0  0  0  0  0  0  0  0
   -2.2179    3.5741   -2.0624 O   0  0  0  0  0  0  0  0  0  0  0  0
   -0.4230    1.4648   -1.4498 O   0  0  0  0  0  0  0  0  0  0  0  0
    1.3295   -2.4164   -0.5669 O   0  0  0  0  0  0  0  0  0  0  0  0
   -1.8712   -0.0617   -2.6062 O   0  0  0  0  0  0  0  0  0  0  0  0
    1.3620   -0.3621    0.1757 H   0  0  0  0  0  0  0  0  0  0  0  0
   -1.7628   -0.4928   -0.6036 H   0  0  0  0  0  0  0  0  0  0  0  0
   -4.5142    0.0987   -1.6228 H   0  0  0  0  0  0  0  0  0  0  0  0
   -2.6908    1.9529    0.0010 H   0  0  0  0  0  0  0  0  0  0  0  0
   -3.3371    2.1413   -2.9875 H   0  0  0  0  0  0  0  0  0  0  0  0
   -0.9900    1.6136   -3.4295 H   0  0  0  0  0  0  0  0  0  0  0  0
    2.0715   -0.5976   -2.4592 H   0  0  0  0  0  0  0  0  0  0  0  0
    0.3571   -0.8064   -2.6956 H   0  0  0  0  0  0  0  0  0  0  0  0
    1.5902    1.4905   -1.0949 H   0  0  0  0  0  0  0  0  0  0  0  0
    1.1659    1.6635   -2.7892 H   0  0  0  0  0  0  0  0  0  0  0  0
   -3.1523   -2.5158   -0.6552 H   0  0  0  0  0  0  0  0  0  0  0  0
   -3.8204   -2.1122   -2.2519 H   0  0  0  0  0  0  0  0  0  0  0  0
   -0.4107   -2.0097    0.7247 H   0  0  0  0  0  0  0  0  0  0  0  0
   -0.7091   -2.1119   -1.0283 H   0  0  0  0  0  0  0  0  0  0  0  0
   -1.3371   -2.4987   -2.7736 H   0  0  0  0  0  0  0  0  0  0  0  0
   -3.4454    0.0339    1.0177 H   0  0  0  0  0  0  0  0  0  0  0  0
   -5.1208    2.3134   -1.4078 H   0  0  0  0  0  0  0  0  0  0  0  0
   -1.5877    3.6339   -1.3201 H   0  0  0  0  0  0  0  0  0  0  0  0
  1 24  1  0  0  0  0
  1 25  1  0  0  0  0
  2  1  1  0  0  0  0
  2 26  1  0  0  0  0
  2 27  1  0  0  0  0
  3 28  1  0  0  0  0
  3 29  1  0  0  0  0
  4 30  1  0  0  0  0
  4 31  1  0  0  0  0
  5  4  1  0  0  0  0
  5 18  1  1  0  0  0
  5  1  1  0  0  0  0
  6  3  1  0  0  0  0
  6 19  1  1  0  0  0
  7  6  1  0  0  0  0
  7 12  1  0  0  0  0
  7 20  1  6  0  0  0
  8  7  1  0  0  0  0
  8 13  1  0  0  0  0
  8 21  1  1  0  0  0
  9  8  1  0  0  0  0
  9 14  1  0  0  0  0
  9 22  1  6  0  0  0
 10  9  1  0  0  0  0
 10 15  1  0  0  0  0
 10 23  1  6  0  0  0
 11  3  1  0  0  0  0
 11 32  1  0  0  0  0
 12 33  1  0  0  0  0
 13 34  1  0  0  0  0
 14 35  1  0  0  0  0
 15  2  1  0  0  0  0
 16  4  1  0  0  0  0
 16  5  1  0  0  0  0
 17  6  1  0  0  0  0
 17 10  1  0  0  0  0
M  END
>  <DRUGBANK_ID>
DB02645

>  <SECONDARY_ACCESSION_NUMBERS>
EXPT01323

>  <COMMON_NAME>
3,4-Epoxybutyl-Alpha-D-Glucopyranoside

$$$$
