
 OpenBabel10282417153D

 45 47  0  0  0  0  0  0  0  0999 V2000
   -1.4242    1.5088    0.3260 C   0  0  0  0  0  0  0  0  0  0  0  0
   -2.7979    1.3251    0.1632 C   0  0  0  0  0  0  0  0  0  0  0  0
   -3.3002    0.0443    0.0297 C   0  0  0  0  0  0  0  0  0  0  0  0
   -2.4213   -1.0441    0.0249 C   0  0  0  0  0  0  0  0  0  0  0  0
   -0.5183    0.4221    0.2074 C   0  0  0  0  0  0  0  0  0  0  0  0
   -1.0397   -0.8867    0.0869 C   0  0  0  0  0  0  0  0  0  0  0  0
   -0.2885   -1.9979    0.0073 N   0  0  0  0  0  0  0  0  0  0  0  0
    1.0583   -1.9154    0.0070 C   0  0  0  0  0  0  0  0  0  0  0  0
    1.7884   -3.0835   -0.0888 N   0  0  0  0  0  0  0  0  0  0  0  0
    1.6792   -0.6540    0.0661 C   0  0  0  0  0  0  0  0  0  0  0  0
    0.9152    0.5138    0.1460 C   0  0  0  0  0  0  0  0  0  0  0  0
    3.0251   -0.3783    0.0556 N   0  0  0  0  0  0  0  0  0  0  0  0
    3.1302    0.9308    0.0929 C   0  0  0  0  0  0  0  0  0  0  0  0
    1.8718    1.5246    0.0760 N   0  0  0  0  0  0  0  0  0  0  0  0
    1.6419    2.9604   -0.0287 C   0  0  0  0  0  0  0  0  0  0  0  0
    0.7881    4.9822   -1.2623 C   0  0  0  0  0  0  0  0  0  0  0  0
    1.0051    3.4726   -1.3552 C   0  0  0  0  0  0  0  0  0  0  0  0
    1.8045    3.1175   -2.5945 C   0  0  0  0  0  0  0  0  0  0  0  0
   -0.2906    2.9429   -1.6099 O   0  0  0  0  0  0  0  0  0  0  0  0
    4.4514    1.6396    0.0743 C   0  0  0  0  0  0  0  0  0  0  0  0
    4.6145    2.3557   -1.1528 O   0  0  0  0  0  0  0  0  0  0  0  0
    4.6161    1.5451   -2.3315 C   0  0  0  0  0  0  0  0  0  0  0  0
    5.7314    0.5271   -2.3929 C   0  0  0  0  0  0  0  0  0  0  0  0
   -1.0803    2.5260    0.4705 H   0  0  0  0  0  0  0  0  0  0  0  0
   -3.4635    2.1859    0.1291 H   0  0  0  0  0  0  0  0  0  0  0  0
   -4.3716   -0.1180   -0.0623 H   0  0  0  0  0  0  0  0  0  0  0  0
   -2.8304   -2.0472   -0.0533 H   0  0  0  0  0  0  0  0  0  0  0  0
    2.7897   -3.0150    0.0344 H   0  0  0  0  0  0  0  0  0  0  0  0
    1.2925   -3.9512    0.0230 H   0  0  0  0  0  0  0  0  0  0  0  0
    1.0438    3.2314    0.8489 H   0  0  0  0  0  0  0  0  0  0  0  0
    2.6076    3.4636    0.1068 H   0  0  0  0  0  0  0  0  0  0  0  0
    1.7316    5.5320   -1.2172 H   0  0  0  0  0  0  0  0  0  0  0  0
    0.2092    5.3379   -2.1227 H   0  0  0  0  0  0  0  0  0  0  0  0
    0.1936    5.2316   -0.3745 H   0  0  0  0  0  0  0  0  0  0  0  0
    2.7879    3.5874   -2.5966 H   0  0  0  0  0  0  0  0  0  0  0  0
    1.8951    2.0306   -2.6714 H   0  0  0  0  0  0  0  0  0  0  0  0
    1.2686    3.4154   -3.5019 H   0  0  0  0  0  0  0  0  0  0  0  0
   -0.1944    1.9880   -1.7878 H   0  0  0  0  0  0  0  0  0  0  0  0
    4.5242    2.3491    0.9045 H   0  0  0  0  0  0  0  0  0  0  0  0
    5.2805    0.9358    0.2057 H   0  0  0  0  0  0  0  0  0  0  0  0
    3.6603    1.0287   -2.4371 H   0  0  0  0  0  0  0  0  0  0  0  0
    4.7015    2.2297   -3.1832 H   0  0  0  0  0  0  0  0  0  0  0  0
    5.6666   -0.1852   -1.5668 H   0  0  0  0  0  0  0  0  0  0  0  0
    5.6618   -0.0419   -3.3241 H   0  0  0  0  0  0  0  0  0  0  0  0
    6.7046    1.0196   -2.3366 H   0  0  0  0  0  0  0  0  0  0  0  0
  1  2  2  0  0  0  0
  1  5  1  0  0  0  0
  1 24  1  0  0  0  0
  2  3  1  0  0  0  0
  2 25  1  0  0  0  0
  3  4  2  0  0  0  0
  3 26  1  0  0  0  0
  4  6  1  0  0  0  0
  4 27  1  0  0  0  0
  6  5  1  0  0  0  0
  6  7  2  0  0  0  0
  7  8  1  0  0  0  0
  8 10  2  0  0  0  0
  8  9  1  0  0  0  0
  9 28  1  0  0  0  0
  9 29  1  0  0  0  0
 10 12  1  0  0  0  0
 11  5  2  0  0  0  0
 11 10  1  0  0  0  0
 11 14  1  0  0  0  0
 13 12  2  0  0  0  0
 13 20  1  0  0  0  0
 14 13  1  0  0  0  0
 15 14  1  0  0  0  0
 15 17  1  0  0  0  0
 15 30  1  0  0  0  0
 15 31  1  0  0  0  0
 16 32  1  0  0  0  0
 16 33  1  0  0  0  0
 16 34  1  0  0  0  0
 17 19  1  0  0  0  0
 17 16  1  0  0  0  0
 17 18  1  0  0  0  0
 18 35  1  0  0  0  0
 18 36  1  0  0  0  0
 18 37  1  0  0  0  0
 19 38  1  0  0  0  0
 20 21  1  0  0  0  0
 20 39  1  0  0  0  0
 20 40  1  0  0  0  0
 21 22  1  0  0  0  0
 22 23  1  0  0  0  0
 22 41  1  0  0  0  0
 22 42  1  0  0  0  0
 23 43  1  0  0  0  0
 23 44  1  0  0  0  0
 23 45  1  0  0  0  0
M  END
>  <DRUGBANK_ID>
DB06530

>  <COMMON_NAME>
Resiquimod

>  <CAS_NUMBER>
144875-48-9

>  <UNII>
V3DMU7PVXF

>  <SYNONYMS>
Resiquimod

$$$$
