
 OpenBabel10282417183D

112111  0  0  0  0  0  0  0  0999 V2000
    0.9980   -0.0099    0.1316 C   0  0  0  0  0  0  0  0  0  0  0  0
    0.5431    0.6315   -1.1688 C   0  0  0  0  0  0  0  0  0  0  0  0
    1.0444   -0.1836   -2.3609 C   0  0  0  0  0  0  0  0  0  0  0  0
    0.4988   -1.6145   -2.3124 C   0  0  0  0  0  0  0  0  0  0  0  0
   -1.0335   -1.5990   -2.3204 C   0  0  0  0  0  0  0  0  0  0  0  0
   -1.5306   -0.9333   -3.6043 C   0  0  0  0  0  0  0  0  0  0  0  0
   -0.9967   -1.7203   -4.8009 C   0  0  0  0  0  0  0  0  0  0  0  0
   -1.4958   -3.1647   -4.6893 C   0  0  0  0  0  0  0  0  0  0  0  0
   -3.0165   -3.1295   -4.7094 C   0  0  0  0  0  0  0  0  0  0  0  0
   -3.3845   -2.4067   -6.0102 C   0  0  0  0  0  0  0  0  0  0  0  0
   -2.6403   -3.1928   -7.1703 C   0  0  0  0  0  0  0  0  0  0  0  0
   -3.0974   -4.6334   -7.1631 C   0  0  0  0  0  0  0  0  0  0  0  0
   -4.5331   -4.3725   -7.0511 C   0  0  0  0  0  0  0  0  0  0  0  0
   -4.8664   -3.5132   -8.2596 C   0  0  0  0  0  0  0  0  0  0  0  0
   -5.5175   -4.1318   -9.1067 O   0  0  0  0  0  0  0  0  0  0  0  0
   -4.6661   -2.2112   -8.6827 O   0  0  0  0  0  0  0  0  0  0  0  0
   -4.9851   -1.5976  -10.2241 C   0  0  0  0  0  0  0  0  0  0  0  0
   -5.1170   -2.7220  -11.4072 C   0  0  3  0  0  0  0  0  0  0  0  0
   -5.7335   -4.1787  -11.3860 C   0  0  0  0  0  0  0  0  0  0  0  0
   -7.1530   -4.2861  -11.0661 O   0  0  0  0  0  0  0  0  0  0  0  0
   -7.7297   -3.4073   -9.6920 P   0  0  3  0  0  0  0  0  0  0  0  0
   -8.7964   -4.3644   -9.2477 O   0  0  0  0  0  0  0  0  0  0  0  0
   -6.8294   -2.2327   -9.4853 O   0  0  0  0  0  0  0  0  0  0  0  0
   -8.3063   -2.5284   -8.3180 O   0  0  0  0  0  0  0  0  0  0  0  0
   -7.5669   -2.8575   -7.1337 C   0  0  0  0  0  0  0  0  0  0  0  0
   -7.3819   -4.4360   -6.8088 C   0  0  3  0  0  0  0  0  0  0  0  0
   -6.8928   -5.7939   -7.8782 C   0  0  0  0  0  0  0  0  0  0  0  0
   -5.6151   -6.2408   -8.4808 O   0  0  0  0  0  0  0  0  0  0  0  0
   -6.8243   -4.5348   -5.4672 O   0  0  0  0  0  0  0  0  0  0  0  0
   -5.8054   -2.2148  -12.5887 O   0  0  0  0  0  0  0  0  0  0  0  0
   -7.1616   -2.0185  -12.6365 C   0  0  0  0  0  0  0  0  0  0  0  0
   -7.9886   -2.1522  -11.7517 O   0  0  0  0  0  0  0  0  0  0  0  0
   -7.6184   -1.4159  -13.9010 C   0  0  0  0  0  0  0  0  0  0  0  0
   -7.0975    0.0095  -13.8652 C   0  0  0  0  0  0  0  0  0  0  0  0
   -5.5638    0.0381  -13.9031 C   0  0  0  0  0  0  0  0  0  0  0  0
   -5.0626   -0.7833  -15.0988 C   0  0  0  0  0  0  0  0  0  0  0  0
   -5.5827   -0.1359  -16.3807 C   0  0  0  0  0  0  0  0  0  0  0  0
   -5.0730    1.3052  -16.4467 C   0  0  0  0  0  0  0  0  0  0  0  0
   -3.5413    1.3014  -16.4339 C   0  0  0  0  0  0  0  0  0  0  0  0
   -3.0267    0.5209  -17.6460 C   0  0  0  0  0  0  0  0  0  0  0  0
   -3.5364    1.1797  -18.9306 C   0  0  0  0  0  0  0  0  0  0  0  0
   -3.0359    2.6263  -19.0079 C   0  0  0  0  0  0  0  0  0  0  0  0
   -1.5040    2.6628  -19.0298 C   0  0  0  0  0  0  0  0  0  0  0  0
   -0.9543    1.8828  -20.2245 C   0  0  0  0  0  0  0  0  0  0  0  0
   -1.4619    2.4870  -21.5233 C   0  0  0  0  0  0  0  0  0  0  0  0
    0.6102   -1.0273    0.2486 H   0  0  0  0  0  0  0  0  0  0  0  0
    0.6424    0.5599    0.9897 H   0  0  0  0  0  0  0  0  0  0  0  0
    2.0902   -0.0632    0.1535 H   0  0  0  0  0  0  0  0  0  0  0  0
   -0.5503    0.7163   -1.1753 H   0  0  0  0  0  0  0  0  0  0  0  0
    0.9136    1.6570   -1.2411 H   0  0  0  0  0  0  0  0  0  0  0  0
    0.7554    0.3178   -3.2932 H   0  0  0  0  0  0  0  0  0  0  0  0
    2.1374   -0.2072   -2.3792 H   0  0  0  0  0  0  0  0  0  0  0  0
    0.9079   -2.1916   -3.1486 H   0  0  0  0  0  0  0  0  0  0  0  0
    0.8572   -2.1581   -1.4364 H   0  0  0  0  0  0  0  0  0  0  0  0
   -1.4120   -2.6203   -2.2093 H   0  0  0  0  0  0  0  0  0  0  0  0
   -1.4540   -1.0875   -1.4530 H   0  0  0  0  0  0  0  0  0  0  0  0
   -2.6243   -0.8731   -3.5909 H   0  0  0  0  0  0  0  0  0  0  0  0
   -1.2285    0.1121   -3.6856 H   0  0  0  0  0  0  0  0  0  0  0  0
   -1.2944   -1.2192   -5.7280 H   0  0  0  0  0  0  0  0  0  0  0  0
    0.0888   -1.7131   -4.8827 H   0  0  0  0  0  0  0  0  0  0  0  0
   -1.0731   -3.7688   -5.4955 H   0  0  0  0  0  0  0  0  0  0  0  0
   -1.1422   -3.7014   -3.8134 H   0  0  0  0  0  0  0  0  0  0  0  0
   -3.4104   -4.1513   -4.6307 H   0  0  0  0  0  0  0  0  0  0  0  0
   -3.4748   -2.6337   -3.8509 H   0  0  0  0  0  0  0  0  0  0  0  0
   -4.4851   -2.3095   -6.0441 H   0  0  0  0  0  0  0  0  0  0  0  0
   -3.1481   -1.3495   -6.0665 H   0  0  0  0  0  0  0  0  0  0  0  0
   -2.8176   -2.7407   -8.1394 H   0  0  0  0  0  0  0  0  0  0  0  0
   -1.5659   -3.1506   -7.1739 H   0  0  0  0  0  0  0  0  0  0  0  0
   -2.8879   -5.2073   -8.0725 H   0  0  0  0  0  0  0  0  0  0  0  0
   -2.7974   -5.2523   -6.3100 H   0  0  0  0  0  0  0  0  0  0  0  0
   -4.9475   -5.3681   -6.9038 H   0  0  0  0  0  0  0  0  0  0  0  0
   -4.8863   -4.0094   -6.1087 H   0  0  0  0  0  0  0  0  0  0  0  0
   -5.9284   -0.9808  -10.3128 H   0  0  0  0  0  0  0  0  0  0  0  0
   -4.4205   -0.6640  -10.2806 H   0  0  0  0  0  0  0  0  0  0  0  0
   -4.0547   -2.8665  -11.6330 H   0  0  0  0  0  0  0  0  0  0  0  0
   -5.6182   -4.6351  -12.3785 H   0  0  0  0  0  0  0  0  0  0  0  0
   -5.1220   -4.8879  -10.8269 H   0  0  0  0  0  0  0  0  0  0  0  0
   -6.1398   -2.8621   -9.3165 H   0  0  0  0  0  0  0  0  0  0  0  0
   -6.6264   -2.2902   -7.1387 H   0  0  0  0  0  0  0  0  0  0  0  0
   -8.0672   -2.3343   -6.2994 H   0  0  0  0  0  0  0  0  0  0  0  0
   -8.4224   -4.7188   -6.6375 H   0  0  0  0  0  0  0  0  0  0  0  0
   -7.0746   -6.6820   -7.2903 H   0  0  0  0  0  0  0  0  0  0  0  0
   -7.5150   -5.8139   -8.7502 H   0  0  0  0  0  0  0  0  0  0  0  0
   -5.2243   -5.5549   -9.0581 H   0  0  0  0  0  0  0  0  0  0  0  0
   -6.4171   -3.6871   -5.1929 H   0  0  0  0  0  0  0  0  0  0  0  0
   -7.3285   -2.0382  -14.7495 H   0  0  0  0  0  0  0  0  0  0  0  0
   -8.7141   -1.4202  -13.8923 H   0  0  0  0  0  0  0  0  0  0  0  0
   -7.5280    0.5524  -14.7094 H   0  0  0  0  0  0  0  0  0  0  0  0
   -7.4461    0.5289  -12.9652 H   0  0  0  0  0  0  0  0  0  0  0  0
   -5.2135    1.0701  -13.9095 H   0  0  0  0  0  0  0  0  0  0  0  0
   -5.1040   -0.3120  -12.9787 H   0  0  0  0  0  0  0  0  0  0  0  0
   -3.9724   -0.8574  -15.0690 H   0  0  0  0  0  0  0  0  0  0  0  0
   -5.3693   -1.8332  -15.0735 H   0  0  0  0  0  0  0  0  0  0  0  0
   -5.2803   -0.7306  -17.2466 H   0  0  0  0  0  0  0  0  0  0  0  0
   -6.6748   -0.1478  -16.4373 H   0  0  0  0  0  0  0  0  0  0  0  0
   -5.4882    1.8040  -17.3245 H   0  0  0  0  0  0  0  0  0  0  0  0
   -5.4473    1.9207  -15.6249 H   0  0  0  0  0  0  0  0  0  0  0  0
   -3.1702    2.3286  -16.4093 H   0  0  0  0  0  0  0  0  0  0  0  0
   -3.1287    0.8724  -15.5162 H   0  0  0  0  0  0  0  0  0  0  0  0
   -1.9359    0.4633  -17.6135 H   0  0  0  0  0  0  0  0  0  0  0  0
   -3.3330   -0.5295  -17.6226 H   0  0  0  0  0  0  0  0  0  0  0  0
   -3.2299    0.5875  -19.7960 H   0  0  0  0  0  0  0  0  0  0  0  0
   -4.6290    1.1648  -18.9947 H   0  0  0  0  0  0  0  0  0  0  0  0
   -3.4650    3.1190  -19.8833 H   0  0  0  0  0  0  0  0  0  0  0  0
   -3.4058    3.2302  -18.1728 H   0  0  0  0  0  0  0  0  0  0  0  0
   -1.1609    3.7009  -19.0586 H   0  0  0  0  0  0  0  0  0  0  0  0
   -1.0874    2.2509  -18.1023 H   0  0  0  0  0  0  0  0  0  0  0  0
    0.1384    1.8910  -20.1995 H   0  0  0  0  0  0  0  0  0  0  0  0
   -1.2386    0.8249  -20.1741 H   0  0  0  0  0  0  0  0  0  0  0  0
   -1.1486    3.5328  -21.5905 H   0  0  0  0  0  0  0  0  0  0  0  0
   -1.0803    1.9356  -22.3824 H   0  0  0  0  0  0  0  0  0  0  0  0
   -2.5543    2.4590  -21.5929 H   0  0  0  0  0  0  0  0  0  0  0  0
  1  2  1  0  0  0  0
  1 46  1  0  0  0  0
  1 47  1  0  0  0  0
  1 48  1  0  0  0  0
  2  3  1  0  0  0  0
  2 49  1  0  0  0  0
  2 50  1  0  0  0  0
  3  4  1  0  0  0  0
  3 51  1  0  0  0  0
  3 52  1  0  0  0  0
  4  5  1  0  0  0  0
  4 53  1  0  0  0  0
  4 54  1  0  0  0  0
  5  6  1  0  0  0  0
  5 55  1  0  0  0  0
  5 56  1  0  0  0  0
  6  7  1  0  0  0  0
  6 57  1  0  0  0  0
  6 58  1  0  0  0  0
  7  8  1  0  0  0  0
  7 59  1  0  0  0  0
  7 60  1  0  0  0  0
  8  9  1  0  0  0  0
  8 61  1  0  0  0  0
  8 62  1  0  0  0  0
  9 10  1  0  0  0  0
  9 63  1  0  0  0  0
  9 64  1  0  0  0  0
 10 11  1  0  0  0  0
 10 65  1  0  0  0  0
 10 66  1  0  0  0  0
 11 12  1  0  0  0  0
 11 67  1  0  0  0  0
 11 68  1  0  0  0  0
 12 13  1  0  0  0  0
 12 69  1  0  0  0  0
 12 70  1  0  0  0  0
 13 14  1  0  0  0  0
 13 71  1  0  0  0  0
 13 72  1  0  0  0  0
 14 15  2  0  0  0  0
 14 16  1  0  0  0  0
 16 17  1  0  0  0  0
 17 18  1  0  0  0  0
 17 73  1  0  0  0  0
 17 74  1  0  0  0  0
 18 19  1  0  0  0  0
 18 30  1  0  0  0  0
 18 75  1  0  0  0  0
 19 20  1  0  0  0  0
 19 76  1  0  0  0  0
 19 77  1  0  0  0  0
 20 21  1  0  0  0  0
 21 22  2  0  0  0  0
 21 23  1  0  0  0  0
 21 24  1  0  0  0  0
 23 78  1  0  0  0  0
 24 25  1  0  0  0  0
 25 26  1  0  0  0  0
 25 79  1  0  0  0  0
 25 80  1  0  0  0  0
 26 27  1  0  0  0  0
 26 29  1  0  0  0  0
 26 81  1  0  0  0  0
 27 28  1  0  0  0  0
 27 82  1  0  0  0  0
 27 83  1  0  0  0  0
 28 84  1  0  0  0  0
 29 85  1  0  0  0  0
 30 31  1  0  0  0  0
 31 32  2  0  0  0  0
 31 33  1  0  0  0  0
 33 34  1  0  0  0  0
 33 86  1  0  0  0  0
 33 87  1  0  0  0  0
 34 35  1  0  0  0  0
 34 88  1  0  0  0  0
 34 89  1  0  0  0  0
 35 36  1  0  0  0  0
 35 90  1  0  0  0  0
 35 91  1  0  0  0  0
 36 37  1  0  0  0  0
 36 92  1  0  0  0  0
 36 93  1  0  0  0  0
 37 38  1  0  0  0  0
 37 94  1  0  0  0  0
 37 95  1  0  0  0  0
 38 39  1  0  0  0  0
 38 96  1  0  0  0  0
 38 97  1  0  0  0  0
 39 40  1  0  0  0  0
 39 98  1  0  0  0  0
 39 99  1  0  0  0  0
 40 41  1  0  0  0  0
 40100  1  0  0  0  0
 40101  1  0  0  0  0
 41 42  1  0  0  0  0
 41102  1  0  0  0  0
 41103  1  0  0  0  0
 42 43  1  0  0  0  0
 42104  1  0  0  0  0
 42105  1  0  0  0  0
 43 44  1  0  0  0  0
 43106  1  0  0  0  0
 43107  1  0  0  0  0
 44 45  1  0  0  0  0
 44108  1  0  0  0  0
 44109  1  0  0  0  0
 45110  1  0  0  0  0
 45111  1  0  0  0  0
 45112  1  0  0  0  0
M  END
>  <DRUGBANK_ID>
DB11284

>  <SECONDARY_ACCESSION_NUMBERS>
DBSALT001575

>  <COMMON_NAME>
DL-dimyristoylphosphatidylglycerol

>  <CAS_NUMBER>
61361-72-6

>  <UNII>
BI71WT9P3R

>  <SYNONYMS>
Dimyristoylphosphatidylglycerol; DMPG

$$$$
