
 OpenBabel10282417203D

144143  0  0  0  0  0  0  0  0999 V2000
    0.9077    0.0031    0.0337 C   0  0  0  0  0  0  0  0  0  0  0  0
   14.1617    6.2628    0.2098 C   0  0  0  0  0  0  0  0  0  0  0  0
    5.2279    2.0547    1.1448 C   0  0  0  0  0  0  0  0  0  0  0  0
    9.2338    5.3258   -2.7622 C   0  0  0  0  0  0  0  0  0  0  0  0
    4.0762   10.8029   -2.7735 C   0  0  0  0  0  0  0  0  0  0  0  0
   13.8586    4.8512    0.7305 C   0  0  0  0  0  0  0  0  0  0  0  0
    9.7221    4.0456    4.9995 C   0  0  0  0  0  0  0  0  0  0  0  0
    6.0109    3.2277    1.7674 C   0  0  0  0  0  0  0  0  0  0  0  0
    8.4686    6.6072   -2.4853 C   0  0  0  0  0  0  0  0  0  0  0  0
    4.3517    9.3642   -3.2337 C   0  0  0  0  0  0  0  0  0  0  0  0
   15.4027    6.8976    0.8348 C   0  0  0  0  0  0  0  0  0  0  0  0
    5.9879    0.7276    1.1353 C   0  0  0  0  0  0  0  0  0  0  0  0
    8.3711    4.2724   -3.4347 C   0  0  0  0  0  0  0  0  0  0  0  0
    4.9006   11.2263   -1.5606 C   0  0  0  0  0  0  0  0  0  0  0  0
   -3.1059    5.0568   -4.7367 C   0  0  0  0  0  0  0  0  0  0  0  0
   -2.3778    3.5136   -0.3825 C   0  0  0  0  0  0  0  0  0  0  0  0
    0.4536    1.4074    0.3529 C   0  0  0  0  0  0  0  0  0  0  0  0
   -2.4386    3.8570   -5.4319 C   0  0  1  0  0  0  0  0  0  0  0  0
   13.6328    4.8447    2.2517 C   0  0  2  0  0  0  0  0  0  0  0  0
   10.1838    3.7780    3.5727 C   0  0  2  0  0  0  0  0  0  0  0  0
    7.3407    3.5010    1.0488 C   0  0  2  0  0  0  0  0  0  0  0  0
    7.3731    6.4913   -1.3979 C   0  0  2  0  0  0  0  0  0  0  0  0
    4.0575    8.3505   -2.1127 C   0  0  2  0  0  0  0  0  0  0  0  0
   -0.8108    3.4181   -0.4151 C   0  0  2  0  0  0  0  0  0  0  0  0
   14.8893    4.3256    2.9835 C   0  0  0  0  0  0  0  0  0  0  0  0
   11.3638    4.6903    3.2132 C   0  0  0  0  0  0  0  0  0  0  0  0
    8.5652    3.0830    1.8548 C   0  0  0  0  0  0  0  0  0  0  0  0
    7.1367    5.0998   -0.7362 C   0  0  0  0  0  0  0  0  0  0  0  0
    5.3533    7.8986   -1.3989 C   0  0  0  0  0  0  0  0  0  0  0  0
   -0.2319    4.5235   -1.3242 C   0  0  0  0  0  0  0  0  0  0  0  0
   -2.8921    2.5116   -4.8839 C   0  0  0  0  0  0  0  0  0  0  0  0
   17.6919    6.6268   -0.1634 C   0  0  0  0  0  0  0  0  0  0  0  0
    5.8884   -0.8772    3.0671 C   0  0  0  0  0  0  0  0  0  0  0  0
    7.9774    3.7074   -5.7779 C   0  0  0  0  0  0  0  0  0  0  0  0
    7.1617   12.2971   -1.7804 C   0  0  0  0  0  0  0  0  0  0  0  0
   -2.8371    3.9284   -6.8783 N   0  0  0  0  0  0  0  0  0  0  0  0
   15.0512    2.9763    3.0719 N   0  0  0  0  0  0  0  0  0  0  0  0
   18.7323    5.9092   -0.4054 N   0  0  0  0  0  0  0  0  0  0  0  0
   17.6819    7.8964   -0.5831 N   0  0  0  0  0  0  0  0  0  0  0  0
    6.2080   -1.2017    4.2703 N   0  0  0  0  0  0  0  0  0  0  0  0
    5.1501   -1.7322    2.3546 N   0  0  0  0  0  0  0  0  0  0  0  0
    7.3341    3.9467   -6.8621 N   0  0  0  0  0  0  0  0  0  0  0  0
    8.6007    2.5406   -5.5930 N   0  0  0  0  0  0  0  0  0  0  0  0
    8.4162   12.2240   -2.0568 N   0  0  0  0  0  0  0  0  0  0  0  0
    6.6642   13.4703   -1.3801 N   0  0  0  0  0  0  0  0  0  0  0  0
   16.5842    6.1574    0.4443 N   0  0  0  0  0  0  0  0  0  0  0  0
    6.2398    0.2883    2.4896 N   0  0  0  0  0  0  0  0  0  0  0  0
    8.0860    4.6223   -4.7990 N   0  0  0  0  0  0  0  0  0  0  0  0
    6.3063   11.2639   -1.9079 N   0  0  0  0  0  0  0  0  0  0  0  0
   -0.3080    2.0426   -0.6100 N   0  0  0  0  0  0  0  0  0  0  0  0
   12.4356    4.0744    2.5954 N   0  0  0  0  0  0  0  0  0  0  0  0
    9.0884    4.0534    2.6606 N   0  0  0  0  0  0  0  0  0  0  0  0
    7.4615    4.8932    0.5762 N   0  0  0  0  0  0  0  0  0  0  0  0
    6.0980    6.9091   -1.9940 N   0  0  0  0  0  0  0  0  0  0  0  0
    1.0850    4.5359   -1.7363 N   0  0  0  0  0  0  0  0  0  0  0  0
    0.7759    1.9410    1.4108 O   0  0  0  0  0  0  0  0  0  0  0  0
   15.8265    5.0500    3.3086 O   0  0  0  0  0  0  0  0  0  0  0  0
   11.3096    5.9056    3.3962 O   0  0  0  0  0  0  0  0  0  0  0  0
    8.9651    1.9212    1.8714 O   0  0  0  0  0  0  0  0  0  0  0  0
    6.6252    4.1556   -1.3388 O   0  0  0  0  0  0  0  0  0  0  0  0
    5.8118    8.5133   -0.4373 O   0  0  0  0  0  0  0  0  0  0  0  0
   -0.8952    5.4959   -1.5804 O   0  0  0  0  0  0  0  0  0  0  0  0
   -3.8162    1.8364   -5.3131 O   0  0  0  0  0  0  0  0  0  0  0  0
   -2.1887    2.1054   -3.8082 O   0  0  0  0  0  0  0  0  0  0  0  0
   -3.2340    5.3637   -2.9190 S   0  0  0  0  0  0  0  0  0  0  0  0
   -3.5397    3.6087   -1.8694 S   0  0  0  0  0  0  0  0  0  0  0  0
    1.4292    5.5816   -2.7308 C   0  0  1  0  0  0  0  0  0  0  0  0
    2.0721    6.8679   -2.1397 C   0  0  0  0  0  0  0  0  0  0  0  0
    2.2231    4.9435   -3.8531 C   0  0  0  0  0  0  0  0  0  0  0  0
    3.3237    7.2051   -2.6320 N   0  0  0  0  0  0  0  0  0  0  0  0
    1.5220    7.5410   -1.2712 O   0  0  0  0  0  0  0  0  0  0  0  0
    0.5496   -0.3414   -0.9382 H   0  0  0  0  0  0  0  0  0  0  0  0
    0.5444   -0.6830    0.8067 H   0  0  0  0  0  0  0  0  0  0  0  0
    2.0028   -0.0191    0.0333 H   0  0  0  0  0  0  0  0  0  0  0  0
   14.2787    6.2289   -0.8809 H   0  0  0  0  0  0  0  0  0  0  0  0
   13.2975    6.9090    0.4103 H   0  0  0  0  0  0  0  0  0  0  0  0
    4.2840    1.9263    1.6919 H   0  0  0  0  0  0  0  0  0  0  0  0
    4.9499    2.3055    0.1125 H   0  0  0  0  0  0  0  0  0  0  0  0
   10.1006    5.5343   -3.4031 H   0  0  0  0  0  0  0  0  0  0  0  0
    9.6402    4.9519   -1.8144 H   0  0  0  0  0  0  0  0  0  0  0  0
    4.2637   11.4957   -3.6038 H   0  0  0  0  0  0  0  0  0  0  0  0
    3.0115   10.8984   -2.5238 H   0  0  0  0  0  0  0  0  0  0  0  0
   14.6783    4.1786    0.4497 H   0  0  0  0  0  0  0  0  0  0  0  0
   12.9699    4.4851    0.2014 H   0  0  0  0  0  0  0  0  0  0  0  0
   10.3991    4.7193    5.5321 H   0  0  0  0  0  0  0  0  0  0  0  0
    8.7151    4.4784    5.0383 H   0  0  0  0  0  0  0  0  0  0  0  0
    9.6898    3.1043    5.5561 H   0  0  0  0  0  0  0  0  0  0  0  0
    6.1869    3.0129    2.8270 H   0  0  0  0  0  0  0  0  0  0  0  0
    5.3613    4.1103    1.7286 H   0  0  0  0  0  0  0  0  0  0  0  0
    8.0566    6.9924   -3.4308 H   0  0  0  0  0  0  0  0  0  0  0  0
    9.1884    7.3802   -2.1806 H   0  0  0  0  0  0  0  0  0  0  0  0
    5.3888    9.2837   -3.5812 H   0  0  0  0  0  0  0  0  0  0  0  0
    3.7218    9.1746   -4.1132 H   0  0  0  0  0  0  0  0  0  0  0  0
   15.4297    7.9413    0.5198 H   0  0  0  0  0  0  0  0  0  0  0  0
   15.3277    6.9443    1.9238 H   0  0  0  0  0  0  0  0  0  0  0  0
    5.3934    0.0139    0.5612 H   0  0  0  0  0  0  0  0  0  0  0  0
    6.9345    0.8030    0.5933 H   0  0  0  0  0  0  0  0  0  0  0  0
    8.8399    3.3041   -3.2537 H   0  0  0  0  0  0  0  0  0  0  0  0
    7.3689    4.1762   -3.0755 H   0  0  0  0  0  0  0  0  0  0  0  0
    4.5171   12.1887   -1.2216 H   0  0  0  0  0  0  0  0  0  0  0  0
    4.7364   10.5606   -0.7113 H   0  0  0  0  0  0  0  0  0  0  0  0
   -4.1555    5.1025   -5.0403 H   0  0  0  0  0  0  0  0  0  0  0  0
   -2.6475    5.9646   -5.1663 H   0  0  0  0  0  0  0  0  0  0  0  0
   -2.7428    2.6189    0.1421 H   0  0  0  0  0  0  0  0  0  0  0  0
   -2.6645    4.3596    0.2515 H   0  0  0  0  0  0  0  0  0  0  0  0
   -1.3441    3.9069   -5.3994 H   0  0  0  0  0  0  0  0  0  0  0  0
   13.4779    5.8673    2.6129 H   0  0  0  0  0  0  0  0  0  0  0  0
   10.4915    2.7318    3.4770 H   0  0  0  0  0  0  0  0  0  0  0  0
    7.4106    2.8423    0.1743 H   0  0  0  0  0  0  0  0  0  0  0  0
    7.6545    7.1834   -0.5985 H   0  0  0  0  0  0  0  0  0  0  0  0
    3.4386    8.8188   -1.3412 H   0  0  0  0  0  0  0  0  0  0  0  0
   -0.4935    3.7134    0.5954 H   0  0  0  0  0  0  0  0  0  0  0  0
   -2.5534    3.0621   -7.3407 H   0  0  0  0  0  0  0  0  0  0  0  0
   -3.8627    3.8843   -6.9117 H   0  0  0  0  0  0  0  0  0  0  0  0
   15.9005    2.6525    3.5207 H   0  0  0  0  0  0  0  0  0  0  0  0
   14.3313    2.3062    2.8606 H   0  0  0  0  0  0  0  0  0  0  0  0
   18.5860    4.9567   -0.0726 H   0  0  0  0  0  0  0  0  0  0  0  0
   16.9972    8.5703   -0.2947 H   0  0  0  0  0  0  0  0  0  0  0  0
   18.5504    8.2493   -0.9569 H   0  0  0  0  0  0  0  0  0  0  0  0
    6.7461   -0.4524    4.7037 H   0  0  0  0  0  0  0  0  0  0  0  0
    4.9045   -1.6049    1.3919 H   0  0  0  0  0  0  0  0  0  0  0  0
    4.9141   -2.6073    2.7973 H   0  0  0  0  0  0  0  0  0  0  0  0
    6.9739    4.9006   -6.8341 H   0  0  0  0  0  0  0  0  0  0  0  0
    9.0025    2.2356   -4.7247 H   0  0  0  0  0  0  0  0  0  0  0  0
    8.6412    1.9042   -6.3711 H   0  0  0  0  0  0  0  0  0  0  0  0
    8.6521   11.2891   -2.3847 H   0  0  0  0  0  0  0  0  0  0  0  0
    5.7316   13.5977   -1.0342 H   0  0  0  0  0  0  0  0  0  0  0  0
    7.3232   14.2213   -1.2429 H   0  0  0  0  0  0  0  0  0  0  0  0
   16.6644    5.2362    0.8603 H   0  0  0  0  0  0  0  0  0  0  0  0
    6.8933    0.8630    3.0090 H   0  0  0  0  0  0  0  0  0  0  0  0
    7.3649    5.3346   -4.8511 H   0  0  0  0  0  0  0  0  0  0  0  0
    6.7261   10.3625   -2.0971 H   0  0  0  0  0  0  0  0  0  0  0  0
   -0.5442    1.5617   -1.4692 H   0  0  0  0  0  0  0  0  0  0  0  0
   12.3906    3.0900    2.3662 H   0  0  0  0  0  0  0  0  0  0  0  0
    8.7507    5.0051    2.5909 H   0  0  0  0  0  0  0  0  0  0  0  0
    7.3597    5.6740    1.2170 H   0  0  0  0  0  0  0  0  0  0  0  0
    5.7020    6.3393   -2.7295 H   0  0  0  0  0  0  0  0  0  0  0  0
    1.7934    4.2277   -1.0805 H   0  0  0  0  0  0  0  0  0  0  0  0
   -2.8662    1.6088   -3.2949 H   0  0  0  0  0  0  0  0  0  0  0  0
    0.5088    5.9476   -3.2111 H   0  0  0  0  0  0  0  0  0  0  0  0
    1.6774    4.0949   -4.2741 H   0  0  0  0  0  0  0  0  0  0  0  0
    2.4019    5.6610   -4.6624 H   0  0  0  0  0  0  0  0  0  0  0  0
    3.1832    4.5849   -3.4735 H   0  0  0  0  0  0  0  0  0  0  0  0
    3.7304    6.6906   -3.3952 H   0  0  0  0  0  0  0  0  0  0  0  0
  1 72  1  0  0  0  0
  1 73  1  0  0  0  0
  1 74  1  0  0  0  0
  2 75  1  0  0  0  0
  2 76  1  0  0  0  0
  3 77  1  0  0  0  0
  3 78  1  0  0  0  0
  4 79  1  0  0  0  0
  4 80  1  0  0  0  0
  5 81  1  0  0  0  0
  5 82  1  0  0  0  0
  6  2  1  0  0  0  0
  6 83  1  0  0  0  0
  6 84  1  0  0  0  0
  7 85  1  0  0  0  0
  7 86  1  0  0  0  0
  7 87  1  0  0  0  0
  8  3  1  0  0  0  0
  8 88  1  0  0  0  0
  8 89  1  0  0  0  0
  9  4  1  0  0  0  0
  9 90  1  0  0  0  0
  9 91  1  0  0  0  0
 10  5  1  0  0  0  0
 10 92  1  0  0  0  0
 10 93  1  0  0  0  0
 11  2  1  0  0  0  0
 11 94  1  0  0  0  0
 11 95  1  0  0  0  0
 12  3  1  0  0  0  0
 12 96  1  0  0  0  0
 12 97  1  0  0  0  0
 13  4  1  0  0  0  0
 13 98  1  0  0  0  0
 13 99  1  0  0  0  0
 14  5  1  0  0  0  0
 14100  1  0  0  0  0
 14101  1  0  0  0  0
 15102  1  0  0  0  0
 15103  1  0  0  0  0
 16104  1  0  0  0  0
 16105  1  0  0  0  0
 17  1  1  0  0  0  0
 18 15  1  0  0  0  0
 18 31  1  0  0  0  0
 18 36  1  0  0  0  0
 18106  1  1  0  0  0
 19 51  1  0  0  0  0
 19107  1  1  0  0  0
 19 25  1  0  0  0  0
 19  6  1  0  0  0  0
 20 52  1  0  0  0  0
 20108  1  6  0  0  0
 20 26  1  0  0  0  0
 20  7  1  0  0  0  0
 21 53  1  0  0  0  0
 21109  1  6  0  0  0
 21 27  1  0  0  0  0
 21  8  1  0  0  0  0
 22 54  1  0  0  0  0
 22110  1  1  0  0  0
 22 28  1  0  0  0  0
 22  9  1  0  0  0  0
 23111  1  1  0  0  0
 23 29  1  0  0  0  0
 23 10  1  0  0  0  0
 24 50  1  0  0  0  0
 24112  1  1  0  0  0
 24 30  1  0  0  0  0
 24 16  1  0  0  0  0
 26 58  2  0  0  0  0
 27 59  2  0  0  0  0
 28 60  2  0  0  0  0
 29 61  2  0  0  0  0
 30 62  2  0  0  0  0
 36113  1  0  0  0  0
 36114  1  0  0  0  0
 37 25  1  0  0  0  0
 37115  1  0  0  0  0
 37116  1  0  0  0  0
 38 32  2  0  0  0  0
 38117  1  0  0  0  0
 39 32  1  0  0  0  0
 39118  1  0  0  0  0
 39119  1  0  0  0  0
 40 33  2  0  0  0  0
 40120  1  0  0  0  0
 41 33  1  0  0  0  0
 41121  1  0  0  0  0
 41122  1  0  0  0  0
 42 34  2  0  0  0  0
 42123  1  0  0  0  0
 43 34  1  0  0  0  0
 43124  1  0  0  0  0
 43125  1  0  0  0  0
 44 35  2  0  0  0  0
 44126  1  0  0  0  0
 45 35  1  0  0  0  0
 45127  1  0  0  0  0
 45128  1  0  0  0  0
 46 11  1  0  0  0  0
 46 32  1  0  0  0  0
 46129  1  0  0  0  0
 47 12  1  0  0  0  0
 47 33  1  0  0  0  0
 47130  1  0  0  0  0
 48 13  1  0  0  0  0
 48 34  1  0  0  0  0
 48131  1  0  0  0  0
 49 14  1  0  0  0  0
 49 35  1  0  0  0  0
 49132  1  0  0  0  0
 50 17  1  0  0  0  0
 50133  1  0  0  0  0
 51 26  1  0  0  0  0
 51134  1  0  0  0  0
 52 27  1  0  0  0  0
 52135  1  0  0  0  0
 53 28  1  0  0  0  0
 53136  1  0  0  0  0
 54 29  1  0  0  0  0
 54137  1  0  0  0  0
 55 30  1  0  0  0  0
 55 67  1  0  0  0  0
 55138  1  0  0  0  0
 56 17  2  0  0  0  0
 57 25  2  0  0  0  0
 63 31  2  0  0  0  0
 64 31  1  0  0  0  0
 64139  1  0  0  0  0
 65 15  1  0  0  0  0
 66 16  1  0  0  0  0
 66 65  1  0  0  0  0
 67 68  1  0  0  0  0
 67 69  1  0  0  0  0
 67140  1  6  0  0  0
 68 70  1  0  0  0  0
 68 71  2  0  0  0  0
 69141  1  0  0  0  0
 69142  1  0  0  0  0
 69143  1  0  0  0  0
 70 23  1  0  0  0  0
 70144  1  0  0  0  0
M  END
>  <DRUGBANK_ID>
DB12865

>  <COMMON_NAME>
Etelcalcetide

>  <CAS_NUMBER>
1262780-97-1

>  <UNII>
60ME133FJB

>  <SYNONYMS>
Etelcalcetida; ételcalcétide; Etelcalcetide; Etelcalcetidum; Velcalcetide

$$$$
