293
 OpenBabel10282417103D

 54 56  0  0  1  0  0  0  0  0999 V2000
   -1.0491   -0.0271   -0.0194 S   0  0  0  0  0  0  0  0  0  0  0  0
    3.7131   -2.6218   -2.0110 O   0  0  0  0  0  0  0  0  0  0  0  0
   -1.2480   -3.0753   -0.0177 O   0  0  0  0  0  0  0  0  0  0  0  0
    2.5451   -4.4918   -2.3459 O   0  0  0  0  0  0  0  0  0  0  0  0
   -1.8148    8.0923    1.0872 O   0  0  0  0  0  0  0  0  0  0  0  0
    5.0504   -6.5481    0.3614 O   0  0  0  0  0  0  0  0  0  0  0  0
    3.2141   -6.4712   -0.8998 O   0  0  0  0  0  0  0  0  0  0  0  0
   -0.2766    2.6452   -0.0527 N   0  0  0  0  0  0  0  0  0  0  0  0
    0.9082   -3.5867   -0.0267 N   0  0  0  0  0  0  0  0  0  0  0  0
   -1.7205    6.2770    4.6411 N   0  0  0  0  0  0  0  0  0  0  0  0
   -1.8916    8.2740    3.3640 N   0  0  0  0  0  0  0  0  0  0  0  0
   -1.6520    3.1171   -0.0553 C   0  0  0  0  0  0  0  0  0  0  0  0
    2.3519   -3.4313   -0.1411 C   0  0  1  0  0  0  0  0  0  0  0  0
   -1.8691    3.9417    1.1829 C   0  0  0  0  0  0  0  0  0  0  0  0
    3.0985   -3.9402    1.0919 C   0  0  0  0  0  0  0  0  0  0  0  0
    0.0316    1.3213   -0.0260 C   0  0  0  0  0  0  0  0  0  0  0  0
   -1.7738    6.0818    2.2551 C   0  0  0  0  0  0  0  0  0  0  0  0
   -1.7545    5.3279    1.0939 C   0  0  0  0  0  0  0  0  0  0  0  0
   -1.7641    5.4696    3.5099 C   0  0  0  0  0  0  0  0  0  0  0  0
    3.1003   -5.4446    1.2559 C   0  0  0  0  0  0  0  0  0  0  0  0
   -1.9943    3.3299    2.4382 C   0  0  0  0  0  0  0  0  0  0  0  0
    0.2295   -1.1964   -0.0079 C   0  0  0  0  0  0  0  0  0  0  0  0
   -1.8070    4.0802    3.5957 C   0  0  0  0  0  0  0  0  0  0  0  0
   -0.0961   -2.6328   -0.0223 C   0  0  0  0  0  0  0  0  0  0  0  0
    0.8203    3.6268   -0.0489 C   0  0  0  0  0  0  0  0  0  0  0  0
    1.3204    0.8790   -0.0001 C   0  0  0  0  0  0  0  0  0  0  0  0
    1.4216   -0.5053    0.0293 C   0  0  0  0  0  0  0  0  0  0  0  0
    2.8869   -3.6111   -1.5797 C   0  0  0  0  0  0  0  0  0  0  0  0
   -1.8147    7.5590    2.1924 C   0  0  0  0  0  0  0  0  0  0  0  0
   -1.8471    7.6337    4.4882 C   0  0  0  0  0  0  0  0  0  0  0  0
    3.7718   -6.1903    0.1278 C   0  0  0  0  0  0  0  0  0  0  0  0
   -1.9493    8.4483    5.7468 C   0  0  0  0  0  0  0  0  0  0  0  0
    3.4516   -1.7177   -1.7566 H   0  0  0  0  0  0  0  0  0  0  0  0
    5.2620   -6.6831    1.2996 H   0  0  0  0  0  0  0  0  0  0  0  0
    0.5469   -4.5291   -0.1490 H   0  0  0  0  0  0  0  0  0  0  0  0
   -1.7979    5.8430    5.5505 H   0  0  0  0  0  0  0  0  0  0  0  0
   -1.8173    3.7114   -0.9600 H   0  0  0  0  0  0  0  0  0  0  0  0
   -2.3967    2.3165   -0.0756 H   0  0  0  0  0  0  0  0  0  0  0  0
    2.5478   -2.4135    0.0094 H   0  0  0  0  0  0  0  0  0  0  0  0
    4.1149   -3.5245    1.1180 H   0  0  0  0  0  0  0  0  0  0  0  0
    2.5982   -3.5102    1.9815 H   0  0  0  0  0  0  0  0  0  0  0  0
   -1.6167    5.8130    0.1295 H   0  0  0  0  0  0  0  0  0  0  0  0
    3.5590   -5.7111    2.2117 H   0  0  0  0  0  0  0  0  0  0  0  0
    2.0651   -5.7960    1.2999 H   0  0  0  0  0  0  0  0  0  0  0  0
   -2.1825    2.2603    2.5102 H   0  0  0  0  0  0  0  0  0  0  0  0
   -1.7016    3.5690    4.5482 H   0  0  0  0  0  0  0  0  0  0  0  0
    1.4381    3.5223    0.8559 H   0  0  0  0  0  0  0  0  0  0  0  0
    1.4688    3.4851   -0.9226 H   0  0  0  0  0  0  0  0  0  0  0  0
    0.4843    4.6626   -0.0866 H   0  0  0  0  0  0  0  0  0  0  0  0
    2.2007    1.5042    0.0094 H   0  0  0  0  0  0  0  0  0  0  0  0
    2.4344   -0.8237    0.0806 H   0  0  0  0  0  0  0  0  0  0  0  0
   -2.8414    8.1453    6.3018 H   0  0  0  0  0  0  0  0  0  0  0  0
   -1.0613    8.2660    6.3567 H   0  0  0  0  0  0  0  0  0  0  0  0
   -2.0153    9.5120    5.5056 H   0  0  0  0  0  0  0  0  0  0  0  0
  1 16  1  0  0  0  0
  1 22  1  0  0  0  0
  2 28  1  0  0  0  0
  2 33  1  0  0  0  0
  3 24  2  0  0  0  0
  4 28  2  0  0  0  0
  5 29  2  0  0  0  0
  6 31  1  0  0  0  0
  6 34  1  0  0  0  0
  7 31  2  0  0  0  0
  8 12  1  0  0  0  0
  8 16  1  0  0  0  0
  8 25  1  0  0  0  0
  9 24  1  0  0  0  0
  9 35  1  0  0  0  0
 10 19  1  0  0  0  0
 10 30  1  0  0  0  0
 10 36  1  0  0  0  0
 11 29  1  0  0  0  0
 11 30  2  0  0  0  0
 12 14  1  0  0  0  0
 12 37  1  0  0  0  0
 12 38  1  0  0  0  0
 13  9  1  0  0  0  0
 13 15  1  0  0  0  0
 13 28  1  0  0  0  0
 13 39  1  1  0  0  0
 14 18  2  0  0  0  0
 14 21  1  0  0  0  0
 15 20  1  0  0  0  0
 15 40  1  0  0  0  0
 15 41  1  0  0  0  0
 16 26  2  0  0  0  0
 17 18  1  0  0  0  0
 17 19  2  0  0  0  0
 17 29  1  0  0  0  0
 18 42  1  0  0  0  0
 19 23  1  0  0  0  0
 20 31  1  0  0  0  0
 20 43  1  0  0  0  0
 20 44  1  0  0  0  0
 21 23  2  0  0  0  0
 21 45  1  0  0  0  0
 22 24  1  0  0  0  0
 22 27  2  0  0  0  0
 23 46  1  0  0  0  0
 25 47  1  0  0  0  0
 25 48  1  0  0  0  0
 25 49  1  0  0  0  0
 26 27  1  0  0  0  0
 26 50  1  0  0  0  0
 27 51  1  0  0  0  0
 30 32  1  0  0  0  0
 32 52  1  0  0  0  0
 32 53  1  0  0  0  0
 32 54  1  0  0  0  0
M  END
>  <DRUGBANK_ID>
DB00293

>  <SECONDARY_ACCESSION_NUMBERS>
APRD00430; EXPT01092

>  <COMMON_NAME>
Raltitrexed

>  <CAS_NUMBER>
112887-68-0

>  <UNII>
FCB9EGG971

>  <SYNONYMS>
Raltitrexed

$$$$
