KN2
 OpenBabel10282417173D

 28 30  0  0  0  0  0  0  0  0999 V2000
    2.3583   -1.0417   -0.0185 O   0  0  0  0  0  0  0  0  0  0  0  0
    1.2269   -0.2680   -0.0069 C   0  0  0  0  0  0  0  0  0  0  0  0
    0.0213   -0.9688   -0.0059 C   0  0  0  0  0  0  0  0  0  0  0  0
   -1.1805   -0.2727    0.0079 C   0  0  0  0  0  0  0  0  0  0  0  0
   -2.3334   -1.0014   -0.0036 O   0  0  0  0  0  0  0  0  0  0  0  0
   -1.1954    1.1185    0.0288 C   0  0  0  0  0  0  0  0  0  0  0  0
    0.0169    1.8220    0.0275 C   0  0  0  0  0  0  0  0  0  0  0  0
    1.2433    1.1367    0.0002 C   0  0  0  0  0  0  0  0  0  0  0  0
    2.4925    1.8926   -0.0778 C   0  0  0  0  0  0  0  0  0  0  0  0
    3.4851    1.7980   -1.1020 C   0  0  0  0  0  0  0  0  0  0  0  0
    3.6298    1.0696   -2.2995 C   0  0  0  0  0  0  0  0  0  0  0  0
    4.7946    1.2296   -3.0577 C   0  0  0  0  0  0  0  0  0  0  0  0
    5.7897    2.1040   -2.6318 C   0  0  0  0  0  0  0  0  0  0  0  0
    6.9279    2.2763   -3.3673 O   0  0  0  0  0  0  0  0  0  0  0  0
    5.6750    2.8396   -1.4506 C   0  0  0  0  0  0  0  0  0  0  0  0
    4.5022    2.6571   -0.7087 C   0  0  0  0  0  0  0  0  0  0  0  0
    4.0706    3.2031    0.4695 N   0  0  0  0  0  0  0  0  0  0  0  0
    2.8599    2.7682    0.8701 N   0  0  0  0  0  0  0  0  0  0  0  0
    3.1369   -0.4734    0.1082 H   0  0  0  0  0  0  0  0  0  0  0  0
    0.0227   -2.0545   -0.0162 H   0  0  0  0  0  0  0  0  0  0  0  0
   -3.0920   -0.3957    0.0141 H   0  0  0  0  0  0  0  0  0  0  0  0
   -2.1312    1.6691    0.0397 H   0  0  0  0  0  0  0  0  0  0  0  0
    0.0011    2.9103    0.0302 H   0  0  0  0  0  0  0  0  0  0  0  0
    2.8492    0.3893   -2.6297 H   0  0  0  0  0  0  0  0  0  0  0  0
    4.8998    0.6613   -3.9771 H   0  0  0  0  0  0  0  0  0  0  0  0
    6.8708    1.7181   -4.1609 H   0  0  0  0  0  0  0  0  0  0  0  0
    6.4611    3.5172   -1.1362 H   0  0  0  0  0  0  0  0  0  0  0  0
    4.5584    3.8742    1.0506 H   0  0  0  0  0  0  0  0  0  0  0  0
  1  2  1  0  0  0  0
  1 19  1  0  0  0  0
  2  3  2  0  0  0  0
  2  8  1  0  0  0  0
  3  4  1  0  0  0  0
  3 20  1  0  0  0  0
  4  5  1  0  0  0  0
  4  6  2  0  0  0  0
  5 21  1  0  0  0  0
  6  7  1  0  0  0  0
  6 22  1  0  0  0  0
  7  8  2  0  0  0  0
  7 23  1  0  0  0  0
  8  9  1  0  0  0  0
  9 18  2  0  0  0  0
  9 10  1  0  0  0  0
 10 11  2  0  0  0  0
 10 16  1  0  0  0  0
 11 12  1  0  0  0  0
 11 24  1  0  0  0  0
 12 13  2  0  0  0  0
 12 25  1  0  0  0  0
 13 15  1  0  0  0  0
 13 14  1  0  0  0  0
 14 26  1  0  0  0  0
 15 16  2  0  0  0  0
 15 27  1  0  0  0  0
 16 17  1  0  0  0  0
 17 18  1  0  0  0  0
 17 28  1  0  0  0  0
M  END
>  <DRUGBANK_ID>
DB08048

>  <COMMON_NAME>
4-(6-HYDROXY-1H-INDAZOL-3-YL)BENZENE-1,3-DIOL

$$$$
