
 OpenBabel10282417143D

 52 51  0  0  0  0  0  0  0  0999 V2000
    1.0357    0.1538    0.0176 C   0  0  0  0  0  0  0  0  0  0  0  0
   -0.3955   -1.8663    0.6650 C   0  0  0  0  0  0  0  0  0  0  0  0
    3.2250   -3.8776   -4.7112 C   0  0  0  0  0  0  0  0  0  0  0  0
    0.5012   -7.7324   -0.1371 C   0  0  0  0  0  0  0  0  0  0  0  0
    1.6858   -1.2485   -2.5895 C   0  0  0  0  0  0  0  0  0  0  0  0
    1.4757   -5.7590   -3.0668 C   0  0  0  0  0  0  0  0  0  0  0  0
    0.7159   -1.7418   -1.5388 C   0  0  0  0  0  0  0  0  0  0  0  0
    2.9437   -2.1244   -2.8063 C   0  0  0  0  0  0  0  0  0  0  0  0
    1.8945   -4.3764   -2.7094 C   0  0  0  0  0  0  0  0  0  0  0  0
    1.9860   -6.7771   -2.0366 C   0  0  0  0  0  0  0  0  0  0  0  0
    1.6365   -5.5920    0.1405 C   0  0  0  0  0  0  0  0  0  0  0  0
    1.0477   -5.4228    1.4853 C   0  0  0  0  0  0  0  0  0  0  0  0
    0.4649   -1.1738   -0.3469 C   0  0  0  0  0  0  0  0  0  0  0  0
    2.6693   -3.4966   -3.3858 C   0  0  0  0  0  0  0  0  0  0  0  0
    1.3891   -6.6432   -0.6539 C   0  0  0  0  0  0  0  0  0  0  0  0
    4.7086   -8.7165    0.6410 O   0  0  0  0  0  0  0  0  0  0  0  0
    5.0186  -10.0479    2.6863 O   0  0  0  0  0  0  0  0  0  0  0  0
    3.1720  -10.3949    1.2650 O   0  0  0  0  0  0  0  0  0  0  0  0
    5.1382   -5.5272    2.5802 O   0  0  0  0  0  0  0  0  0  0  0  0
    3.8352   -6.3941    4.6581 O   0  0  0  0  0  0  0  0  0  0  0  0
    4.5953   -7.8234    2.7174 O   0  0  0  0  0  0  0  0  0  0  0  0
    3.8443   -9.1804    1.9510 P   0  0  0  0  0  0  0  0  0  0  0  0
    3.9216   -6.4214    3.1634 P   0  0  3  0  0  0  0  0  0  0  0  0
    2.3853   -5.1660    2.5842 S   0  0  0  0  0  0  0  0  0  0  0  0
    1.5021   -4.0389   -1.7728 H   0  0  0  0  0  0  0  0  0  0  0  0
    2.2922   -4.7797   -0.1753 H   0  0  0  0  0  0  0  0  0  0  0  0
    0.6853    0.4929    0.9944 H   0  0  0  0  0  0  0  0  0  0  0  0
    0.7052    0.8895   -0.7236 H   0  0  0  0  0  0  0  0  0  0  0  0
    2.1283    0.1164    0.0344 H   0  0  0  0  0  0  0  0  0  0  0  0
   -1.3311   -2.2344    0.2330 H   0  0  0  0  0  0  0  0  0  0  0  0
    0.1685   -2.7072    1.0578 H   0  0  0  0  0  0  0  0  0  0  0  0
   -0.6333   -1.2366    1.5258 H   0  0  0  0  0  0  0  0  0  0  0  0
    3.8510   -4.7714   -4.6127 H   0  0  0  0  0  0  0  0  0  0  0  0
    2.3991   -4.0972   -5.3965 H   0  0  0  0  0  0  0  0  0  0  0  0
    3.8294   -3.0833   -5.1530 H   0  0  0  0  0  0  0  0  0  0  0  0
    0.8967   -8.0889    0.8226 H   0  0  0  0  0  0  0  0  0  0  0  0
   -0.5125   -7.3458    0.0220 H   0  0  0  0  0  0  0  0  0  0  0  0
    0.4515   -8.5865   -0.8076 H   0  0  0  0  0  0  0  0  0  0  0  0
    1.1419   -1.1561   -3.5345 H   0  0  0  0  0  0  0  0  0  0  0  0
    2.0366   -0.2437   -2.3334 H   0  0  0  0  0  0  0  0  0  0  0  0
    0.3795   -5.7807   -3.1139 H   0  0  0  0  0  0  0  0  0  0  0  0
    1.8442   -6.0405   -4.0568 H   0  0  0  0  0  0  0  0  0  0  0  0
    0.1639   -2.6480   -1.7759 H   0  0  0  0  0  0  0  0  0  0  0  0
    3.6163   -1.5776   -3.4815 H   0  0  0  0  0  0  0  0  0  0  0  0
    3.5049   -2.2244   -1.8647 H   0  0  0  0  0  0  0  0  0  0  0  0
    1.7736   -7.7793   -2.4214 H   0  0  0  0  0  0  0  0  0  0  0  0
    3.0791   -6.7061   -1.9564 H   0  0  0  0  0  0  0  0  0  0  0  0
    0.3839   -4.5525    1.4533 H   0  0  0  0  0  0  0  0  0  0  0  0
    0.3969   -6.2203    1.8358 H   0  0  0  0  0  0  0  0  0  0  0  0
    4.1381   -8.4217   -0.0878 H   0  0  0  0  0  0  0  0  0  0  0  0
    5.1768   -9.7222    3.5913 H   0  0  0  0  0  0  0  0  0  0  0  0
    5.0315   -5.4010    1.6141 H   0  0  0  0  0  0  0  0  0  0  0  0
  1 27  1  0  0  0  0
  1 28  1  0  0  0  0
  1 29  1  0  0  0  0
  2 30  1  0  0  0  0
  2 31  1  0  0  0  0
  2 32  1  0  0  0  0
  3 33  1  0  0  0  0
  3 34  1  0  0  0  0
  3 35  1  0  0  0  0
  4 36  1  0  0  0  0
  4 37  1  0  0  0  0
  4 38  1  0  0  0  0
  5 39  1  0  0  0  0
  5 40  1  0  0  0  0
  6 41  1  0  0  0  0
  6 42  1  0  0  0  0
  7  5  1  0  0  0  0
  7 43  1  0  0  0  0
  8  5  1  0  0  0  0
  8 44  1  0  0  0  0
  8 45  1  0  0  0  0
  9  6  1  0  0  0  0
 10  6  1  0  0  0  0
 10 46  1  0  0  0  0
 10 47  1  0  0  0  0
 12 11  1  0  0  0  0
 12 48  1  0  0  0  0
 12 49  1  0  0  0  0
 13  1  1  0  0  0  0
 13  2  1  0  0  0  0
 13  7  2  0  0  0  0
 14  3  1  0  0  0  0
 14  8  1  0  0  0  0
 14  9  2  0  0  0  0
 15  4  1  0  0  0  0
 15 10  1  0  0  0  0
 15 11  2  0  0  0  0
 16 50  1  0  0  0  0
 17 51  1  0  0  0  0
 19 52  1  0  0  0  0
 22 16  1  0  0  0  0
 22 17  1  0  0  0  0
 22 18  2  0  0  0  0
 22 21  1  0  0  0  0
 23 19  1  0  0  0  0
 23 20  2  0  0  0  0
 23 21  1  0  0  0  0
 24 12  1  0  0  0  0
 24 23  1  0  0  0  0
 25  9  1  0  0  0  0
 26 11  1  0  0  0  0
M  END
>  <DRUGBANK_ID>
DB04695

>  <COMMON_NAME>
Farnesyl thiopyrophosphate

>  <SYNONYMS>
Farnesyl thiodiphosphate

$$$$
