
 OpenBabel10282417193D

 48 51  0  0  0  0  0  0  0  0999 V2000
    2.4564   -0.6750    0.0077 C   0  0  0  0  0  0  0  0  0  0  0  0
    2.4558    0.7189    0.0136 C   0  0  0  0  0  0  0  0  0  0  0  0
    1.2542    1.4358    0.0583 C   0  0  0  0  0  0  0  0  0  0  0  0
    0.0261    0.7728    0.0228 C   0  0  0  0  0  0  0  0  0  0  0  0
   -1.2063    1.4747   -0.0231 C   0  0  0  0  0  0  0  0  0  0  0  0
   -2.3892    0.7805   -0.2633 C   0  0  0  0  0  0  0  0  0  0  0  0
   -2.2910   -0.5834   -0.4619 C   0  0  0  0  0  0  0  0  0  0  0  0
   -1.1405   -1.3169   -0.1860 C   0  0  0  0  0  0  0  0  0  0  0  0
    0.0484   -0.6440   -0.0097 C   0  0  0  0  0  0  0  0  0  0  0  0
    1.2503   -1.3619    0.0336 C   0  0  0  0  0  0  0  0  0  0  0  0
   -3.9867    1.6075   -0.1799 S   0  0  0  0  0  0  0  0  0  0  0  0
   -3.9108    2.4520    0.9896 O   0  0  0  0  0  0  0  0  0  0  0  0
   -4.2388    2.1786   -1.4931 O   0  0  0  0  0  0  0  0  0  0  0  0
   -5.1868    0.4594    0.1787 N   0  0  0  0  0  0  0  0  0  0  0  0
   -5.0794   -0.2030    1.5087 C   0  0  0  0  0  0  0  0  0  0  0  0
   -4.4903   -1.5991    1.3840 C   0  0  0  0  0  0  0  0  0  0  0  0
   -5.1299   -2.3517    0.3192 N   0  0  0  0  0  0  0  0  0  0  0  0
   -5.4516   -1.7715   -0.9900 C   0  0  0  0  0  0  0  0  0  0  0  0
   -6.0114   -0.3500   -0.7843 C   0  0  0  0  0  0  0  0  0  0  0  0
   -5.4788   -3.6275    0.6263 C   0  0  0  0  0  0  0  0  0  0  0  0
   -5.0244   -4.5708   -0.1833 N   0  0  0  0  0  0  0  0  0  0  0  0
   -5.1992   -5.8469    0.2107 C   0  0  0  0  0  0  0  0  0  0  0  0
   -5.8689   -6.2606    1.3365 C   0  0  0  0  0  0  0  0  0  0  0  0
   -6.3454   -5.1974    2.0812 C   0  0  0  0  0  0  0  0  0  0  0  0
   -6.1328   -3.8917    1.7675 N   0  0  0  0  0  0  0  0  0  0  0  0
   -6.1118   -7.6544    1.7923 C   0  0  0  0  0  0  0  0  0  0  0  0
   -6.7648   -7.8099    2.8286 O   0  0  0  0  0  0  0  0  0  0  0  0
   -5.6710   -8.7785    1.1565 N   0  0  0  0  0  0  0  0  0  0  0  0
   -4.9290   -8.9731   -0.0002 O   0  0  0  0  0  0  0  0  0  0  0  0
    3.3925   -1.2248   -0.0422 H   0  0  0  0  0  0  0  0  0  0  0  0
    3.3979    1.2570   -0.0283 H   0  0  0  0  0  0  0  0  0  0  0  0
    1.2835    2.5214    0.0668 H   0  0  0  0  0  0  0  0  0  0  0  0
   -1.2248    2.5588    0.0637 H   0  0  0  0  0  0  0  0  0  0  0  0
   -3.1398   -1.1467   -0.7643 H   0  0  0  0  0  0  0  0  0  0  0  0
   -1.1977   -2.4039   -0.1658 H   0  0  0  0  0  0  0  0  0  0  0  0
    1.2569   -2.4509    0.0146 H   0  0  0  0  0  0  0  0  0  0  0  0
   -4.4460    0.3827    2.1764 H   0  0  0  0  0  0  0  0  0  0  0  0
   -6.0748   -0.2567    1.9588 H   0  0  0  0  0  0  0  0  0  0  0  0
   -3.4278   -1.5361    1.1923 H   0  0  0  0  0  0  0  0  0  0  0  0
   -4.4762   -2.1095    2.3510 H   0  0  0  0  0  0  0  0  0  0  0  0
   -4.5971   -1.7279   -1.6725 H   0  0  0  0  0  0  0  0  0  0  0  0
   -6.1748   -2.3927   -1.5373 H   0  0  0  0  0  0  0  0  0  0  0  0
   -6.9981   -0.4910   -0.3115 H   0  0  0  0  0  0  0  0  0  0  0  0
   -6.2246    0.1604   -1.7290 H   0  0  0  0  0  0  0  0  0  0  0  0
   -4.7140   -6.4757   -0.5049 H   0  0  0  0  0  0  0  0  0  0  0  0
   -6.9270   -5.3404    2.9915 H   0  0  0  0  0  0  0  0  0  0  0  0
   -5.9278   -9.6562    1.6043 H   0  0  0  0  0  0  0  0  0  0  0  0
   -4.6957   -8.1153   -0.3511 H   0  0  0  0  0  0  0  0  0  0  0  0
  1  2  2  0  0  0  0
  1 10  1  0  0  0  0
  1 30  1  0  0  0  0
  2  3  1  0  0  0  0
  2 31  1  0  0  0  0
  3  4  2  0  0  0  0
  3 32  1  0  0  0  0
  4  5  1  0  0  0  0
  4  9  1  0  0  0  0
  5  6  2  0  0  0  0
  5 33  1  0  0  0  0
  6  7  1  0  0  0  0
  6 11  1  0  0  0  0
  7  8  2  0  0  0  0
  7 34  1  0  0  0  0
  8  9  1  0  0  0  0
  8 35  1  0  0  0  0
  9 10  2  0  0  0  0
 10 36  1  0  0  0  0
 11 12  2  0  0  0  0
 11 13  2  0  0  0  0
 11 14  1  0  0  0  0
 14 15  1  0  0  0  0
 14 19  1  0  0  0  0
 15 16  1  0  0  0  0
 15 37  1  0  0  0  0
 15 38  1  0  0  0  0
 16 17  1  0  0  0  0
 16 39  1  0  0  0  0
 16 40  1  0  0  0  0
 17 18  1  0  0  0  0
 17 20  1  0  0  0  0
 18 19  1  0  0  0  0
 18 41  1  0  0  0  0
 18 42  1  0  0  0  0
 19 43  1  0  0  0  0
 19 44  1  0  0  0  0
 20 21  2  0  0  0  0
 20 25  1  0  0  0  0
 21 22  1  0  0  0  0
 22 23  2  0  0  0  0
 22 45  1  0  0  0  0
 23 24  1  0  0  0  0
 23 26  1  0  0  0  0
 24 25  2  0  0  0  0
 24 46  1  0  0  0  0
 26 27  2  0  0  0  0
 26 28  1  0  0  0  0
 28 29  1  0  0  0  0
 28 47  1  0  0  0  0
 29 48  1  0  0  0  0
M  END
>  <DRUGBANK_ID>
DB12382

>  <COMMON_NAME>
R-306465

>  <CAS_NUMBER>
604769-01-9

>  <UNII>
5WD7KK1IIQ

$$$$
