LIE
 OpenBabel10282417173D

 45 48  0  0  0  0  0  0  0  0999 V2000
   -2.0483   -0.6251    0.0088 C   0  0  0  0  0  0  0  0  0  0  0  0
    0.2023   -0.6601   -0.0015 C   0  0  0  0  0  0  0  0  0  0  0  0
    1.8816   -2.5000    0.0521 C   0  0  0  0  0  0  0  0  0  0  0  0
    2.3462    0.0223   -0.0439 C   0  0  0  0  0  0  0  0  0  0  0  0
    3.7100    0.0464   -0.0473 N   0  0  0  0  0  0  0  0  0  0  0  0
   -4.4313   -0.6270    0.0160 C   0  0  0  0  0  0  0  0  0  0  0  0
   -4.7997    0.2175   -1.0317 C   0  0  0  0  0  0  0  0  0  0  0  0
   -6.5772   -0.1537    1.0729 C   0  0  0  0  0  0  0  0  0  0  0  0
    1.4739   -3.2184    1.3273 C   0  0  0  0  0  0  0  0  0  0  0  0
    3.8681   -1.6720   -2.2804 F   0  0  0  0  0  0  0  0  0  0  0  0
    4.6470   -1.9120   -1.2157 C   0  0  0  0  0  0  0  0  0  0  0  0
    5.3063   -3.1397   -1.1425 C   0  0  0  0  0  0  0  0  0  0  0  0
    6.0748   -3.4421   -0.0224 C   0  0  0  0  0  0  0  0  0  0  0  0
    6.1858   -2.5097    1.0103 C   0  0  0  0  0  0  0  0  0  0  0  0
    5.4687   -1.3047    0.9601 C   0  0  0  0  0  0  0  0  0  0  0  0
    4.6355   -1.0176   -0.1313 C   0  0  0  0  0  0  0  0  0  0  0  0
    1.6086    1.1255   -0.0155 N   0  0  0  0  0  0  0  0  0  0  0  0
    0.2962    0.7197   -0.0036 C   0  0  0  0  0  0  0  0  0  0  0  0
   -0.9108    1.4093    0.0137 C   0  0  0  0  0  0  0  0  0  0  0  0
    1.5145   -1.0964    0.0060 N   0  0  0  0  0  0  0  0  0  0  0  0
    1.4997   -3.2390   -1.2269 C   0  0  0  0  0  0  0  0  0  0  0  0
   -0.9316   -1.3926    0.0008 N   0  0  0  0  0  0  0  0  0  0  0  0
   -2.0845    0.7268    0.0421 N   0  0  0  0  0  0  0  0  0  0  0  0
   -3.2520   -1.3400    0.0300 O   0  0  0  0  0  0  0  0  0  0  0  0
   -4.0001    0.3703   -2.0969 F   0  0  0  0  0  0  0  0  0  0  0  0
   -6.0166    0.9081   -1.0125 C   0  0  0  0  0  0  0  0  0  0  0  0
   -6.9063    0.7309    0.0470 C   0  0  0  0  0  0  0  0  0  0  0  0
   -5.3515   -0.8291    1.0462 C   0  0  0  0  0  0  0  0  0  0  0  0
   -5.0781   -1.6888    2.0387 F   0  0  0  0  0  0  0  0  0  0  0  0
    2.9484   -2.5554    0.1421 H   0  0  0  0  0  0  0  0  0  0  0  0
    4.1427    0.9536    0.0989 H   0  0  0  0  0  0  0  0  0  0  0  0
   -7.2680   -0.3218    1.8950 H   0  0  0  0  0  0  0  0  0  0  0  0
    0.3930   -3.3100    1.4242 H   0  0  0  0  0  0  0  0  0  0  0  0
    1.9174   -4.2212    1.3367 H   0  0  0  0  0  0  0  0  0  0  0  0
    1.8658   -2.6821    2.2001 H   0  0  0  0  0  0  0  0  0  0  0  0
    5.1579   -3.8724   -1.9301 H   0  0  0  0  0  0  0  0  0  0  0  0
    6.5745   -4.4057    0.0513 H   0  0  0  0  0  0  0  0  0  0  0  0
    6.7943   -2.7442    1.8817 H   0  0  0  0  0  0  0  0  0  0  0  0
    5.5024   -0.6375    1.8186 H   0  0  0  0  0  0  0  0  0  0  0  0
   -0.9743    2.4892    0.0095 H   0  0  0  0  0  0  0  0  0  0  0  0
    1.8324   -2.6975   -2.1198 H   0  0  0  0  0  0  0  0  0  0  0  0
    1.9651   -4.2294   -1.2508 H   0  0  0  0  0  0  0  0  0  0  0  0
    0.4184   -3.3613   -1.3135 H   0  0  0  0  0  0  0  0  0  0  0  0
   -6.2633    1.5790   -1.8305 H   0  0  0  0  0  0  0  0  0  0  0  0
   -7.8520    1.2691    0.0666 H   0  0  0  0  0  0  0  0  0  0  0  0
  1 22  1  0  0  0  0
  1 23  2  0  0  0  0
  1 24  1  0  0  0  0
  2 18  1  0  0  0  0
  2 20  1  0  0  0  0
  2 22  2  0  0  0  0
  3  9  1  0  0  0  0
  3 20  1  0  0  0  0
  3 21  1  0  0  0  0
  3 30  1  0  0  0  0
  4  5  1  0  0  0  0
  4 17  2  0  0  0  0
  4 20  1  0  0  0  0
  5 16  1  0  0  0  0
  5 31  1  0  0  0  0
  6  7  1  0  0  0  0
  6 24  1  0  0  0  0
  6 28  2  0  0  0  0
  7 25  1  0  0  0  0
  7 26  2  0  0  0  0
  8 27  2  0  0  0  0
  8 28  1  0  0  0  0
  8 32  1  0  0  0  0
  9 33  1  0  0  0  0
  9 34  1  0  0  0  0
  9 35  1  0  0  0  0
 10 11  1  0  0  0  0
 11 12  2  0  0  0  0
 11 16  1  0  0  0  0
 12 13  1  0  0  0  0
 12 36  1  0  0  0  0
 13 14  2  0  0  0  0
 13 37  1  0  0  0  0
 14 15  1  0  0  0  0
 14 38  1  0  0  0  0
 15 16  2  0  0  0  0
 15 39  1  0  0  0  0
 17 18  1  0  0  0  0
 18 19  2  0  0  0  0
 19 23  1  0  0  0  0
 19 40  1  0  0  0  0
 21 41  1  0  0  0  0
 21 42  1  0  0  0  0
 21 43  1  0  0  0  0
 26 27  1  0  0  0  0
 26 44  1  0  0  0  0
 27 45  1  0  0  0  0
 28 29  1  0  0  0  0
M  END
>  <DRUGBANK_ID>
DB08097

>  <COMMON_NAME>
2-(2,6-DIFLUOROPHENOXY)-N-(2-FLUOROPHENYL)-9-ISOPROPYL-9H-PURIN-8-AMINE

$$$$
