
 OpenBabel10282417153D

 30 31  0  0  1  0  0  0  0  0999 V2000
    2.8441    0.3255    1.1851 F   0  0  0  0  0  0  0  0  0  0  0  0
    2.8198   -1.4165   -1.8683 O   0  0  0  0  0  0  0  0  0  0  0  0
    2.7374   -3.8195   -0.1591 O   0  0  0  0  0  0  0  0  0  0  0  0
    4.3118    0.6553   -4.7575 O   0  0  0  0  0  0  0  0  0  0  0  0
    0.4465    2.0320   -6.5412 O   0  0  0  0  0  0  0  0  0  0  0  0
    2.3927    0.2899   -3.4991 N   0  0  0  0  0  0  0  0  0  0  0  0
    2.3107    1.0279   -5.7189 N   0  0  0  0  0  0  0  0  0  0  0  0
    3.1666   -0.0787   -2.3065 C   0  0  1  0  0  0  0  0  0  0  0  0
    2.9426    0.8560   -1.1097 C   0  0  0  0  0  0  0  0  0  0  0  0
    2.4062   -0.0568   -0.0327 C   0  0  1  0  0  0  0  0  0  0  0  0
    2.9518   -1.4091   -0.4279 C   0  0  1  0  0  0  0  0  0  0  0  0
    2.1930   -2.5606    0.2303 C   0  0  0  0  0  0  0  0  0  0  0  0
    1.0198    0.4501   -3.4211 C   0  0  0  0  0  0  0  0  0  0  0  0
    3.0882    0.6415   -4.6555 C   0  0  0  0  0  0  0  0  0  0  0  0
    0.3129    1.0625   -4.3811 C   0  0  0  0  0  0  0  0  0  0  0  0
    1.0089    1.4198   -5.6366 C   0  0  0  0  0  0  0  0  0  0  0  0
   -1.1227    1.4547   -4.2610 C   0  0  0  0  0  0  0  0  0  0  0  0
    2.6895   -3.8577   -1.1321 H   0  0  0  0  0  0  0  0  0  0  0  0
    2.8002    1.2846   -6.5626 H   0  0  0  0  0  0  0  0  0  0  0  0
    4.2374   -0.0866   -2.5430 H   0  0  0  0  0  0  0  0  0  0  0  0
    3.8827    1.3242   -0.7972 H   0  0  0  0  0  0  0  0  0  0  0  0
    2.2474    1.6765   -1.3167 H   0  0  0  0  0  0  0  0  0  0  0  0
    1.3105   -0.0490   -0.0346 H   0  0  0  0  0  0  0  0  0  0  0  0
    4.0181   -1.4996   -0.1791 H   0  0  0  0  0  0  0  0  0  0  0  0
    2.2648   -2.4951    1.3213 H   0  0  0  0  0  0  0  0  0  0  0  0
    1.1349   -2.5592   -0.0486 H   0  0  0  0  0  0  0  0  0  0  0  0
    0.5437    0.1242   -2.5023 H   0  0  0  0  0  0  0  0  0  0  0  0
   -1.2252    2.5437   -4.3442 H   0  0  0  0  0  0  0  0  0  0  0  0
   -1.7230    0.9905   -5.0482 H   0  0  0  0  0  0  0  0  0  0  0  0
   -1.5403    1.1634   -3.2922 H   0  0  0  0  0  0  0  0  0  0  0  0
  2  8  1  0  0  0  0
  2 11  1  0  0  0  0
  3 12  1  0  0  0  0
  3 18  1  0  0  0  0
  4 14  2  0  0  0  0
  5 16  2  0  0  0  0
  6 13  1  0  0  0  0
  6 14  1  0  0  0  0
  7 14  1  0  0  0  0
  7 16  1  0  0  0  0
  7 19  1  0  0  0  0
  8  9  1  0  0  0  0
  8 20  1  6  0  0  0
  8  6  1  0  0  0  0
  9 10  1  0  0  0  0
  9 21  1  0  0  0  0
  9 22  1  0  0  0  0
 10 11  1  0  0  0  0
 10 23  1  6  0  0  0
 10  1  1  0  0  0  0
 11 12  1  0  0  0  0
 11 24  1  1  0  0  0
 12 25  1  0  0  0  0
 12 26  1  0  0  0  0
 13 15  2  0  0  0  0
 13 27  1  0  0  0  0
 15 16  1  0  0  0  0
 15 17  1  0  0  0  0
 17 28  1  0  0  0  0
 17 29  1  0  0  0  0
 17 30  1  0  0  0  0
M  END
>  <DRUGBANK_ID>
DB06198

>  <COMMON_NAME>
Alovudine

>  <CAS_NUMBER>
25526-93-6

>  <UNII>
PG53R0DWDQ

>  <SYNONYMS>
Alovudine

$$$$
