
 OpenBabel10282417223D

 37 38  0  0  0  0  0  0  0  0999 V2000
    0.8959    0.0605    0.0760 C   0  0  0  0  0  0  0  0  0  0  0  0
    0.3858    1.4665    0.0826 C   0  0  0  0  0  0  0  0  0  0  0  0
   -0.8690    1.8252   -0.1172 N   0  0  0  0  0  0  0  0  0  0  0  0
   -0.9073    3.1953   -0.0112 C   0  0  0  0  0  0  0  0  0  0  0  0
    0.3381    3.6848    0.2856 C   0  0  0  0  0  0  0  0  0  0  0  0
    1.1622    2.5876    0.2977 N   0  0  0  0  0  0  0  0  0  0  0  0
    2.5978    2.5814    0.3316 C   0  0  0  0  0  0  0  0  0  0  0  0
    3.1580    3.0637   -0.9836 C   0  0  3  0  0  0  0  0  0  0  0  0
    2.8052    4.4145   -1.3590 O   0  0  0  0  0  0  0  0  0  0  0  0
    4.6424    3.1794   -0.7519 C   0  0  0  0  0  0  0  0  0  0  0  0
    5.6960    2.1618   -0.8552 N   0  0  0  0  0  0  0  0  0  0  0  0
    6.5085    2.7302   -1.9549 C   0  0  0  0  0  0  0  0  0  0  0  0
    5.7235    2.4827   -3.2687 C   0  0  0  0  0  0  0  0  0  0  0  0
    5.8149    1.0986   -3.6057 O   0  0  0  0  0  0  0  0  0  0  0  0
    5.1517    0.3106   -2.6027 C   0  0  0  0  0  0  0  0  0  0  0  0
    5.5588    0.7158   -1.1645 C   0  0  0  0  0  0  0  0  0  0  0  0
    0.7192    5.0553    0.4460 N   0  3  0  0  0  0  0  0  0  0  0  0
    1.8339    5.2932    0.9466 O   0  5  0  0  0  0  0  0  0  0  0  0
   -0.0697    5.8980    0.0297 O   0  0  0  0  0  0  0  0  0  0  0  0
    0.5242   -0.4777   -0.8002 H   0  0  0  0  0  0  0  0  0  0  0  0
    0.5579   -0.4556    0.9791 H   0  0  0  0  0  0  0  0  0  0  0  0
    1.9842   -0.0323    0.0458 H   0  0  0  0  0  0  0  0  0  0  0  0
   -1.8192    3.7571   -0.1532 H   0  0  0  0  0  0  0  0  0  0  0  0
    2.9222    3.1512    1.2056 H   0  0  0  0  0  0  0  0  0  0  0  0
    2.9723    1.5691    0.4930 H   0  0  0  0  0  0  0  0  0  0  0  0
    2.8800    2.4326   -1.8330 H   0  0  0  0  0  0  0  0  0  0  0  0
    1.8785    4.5158   -1.6128 H   0  0  0  0  0  0  0  0  0  0  0  0
    4.8468    3.9728   -1.4822 H   0  0  0  0  0  0  0  0  0  0  0  0
    4.8377    3.7455    0.1698 H   0  0  0  0  0  0  0  0  0  0  0  0
    7.5041    2.2901   -1.9381 H   0  0  0  0  0  0  0  0  0  0  0  0
    6.6708    3.8011   -1.7566 H   0  0  0  0  0  0  0  0  0  0  0  0
    4.6469    2.7116   -3.2170 H   0  0  0  0  0  0  0  0  0  0  0  0
    6.1096    3.1171   -4.0639 H   0  0  0  0  0  0  0  0  0  0  0  0
    5.4340   -0.7321   -2.8003 H   0  0  0  0  0  0  0  0  0  0  0  0
    4.0675    0.3850   -2.7325 H   0  0  0  0  0  0  0  0  0  0  0  0
    6.5878    0.3273   -1.0574 H   0  0  0  0  0  0  0  0  0  0  0  0
    4.9972    0.1310   -0.4241 H   0  0  0  0  0  0  0  0  0  0  0  0
  1  2  1  0  0  0  0
  1 20  1  0  0  0  0
  1 21  1  0  0  0  0
  1 22  1  0  0  0  0
  2  3  2  0  0  0  0
  2  6  1  0  0  0  0
  3  4  1  0  0  0  0
  4  5  2  0  0  0  0
  4 23  1  0  0  0  0
  5  6  1  0  0  0  0
  5 17  1  0  0  0  0
  6  7  1  0  0  0  0
  7  8  1  0  0  0  0
  7 24  1  0  0  0  0
  7 25  1  0  0  0  0
  8  9  1  0  0  0  0
  8 10  1  0  0  0  0
  8 26  1  0  0  0  0
  9 27  1  0  0  0  0
 10 11  1  0  0  0  0
 10 28  1  0  0  0  0
 10 29  1  0  0  0  0
 11 12  1  0  0  0  0
 11 16  1  0  0  0  0
 12 13  1  0  0  0  0
 12 30  1  0  0  0  0
 12 31  1  0  0  0  0
 13 14  1  0  0  0  0
 13 32  1  0  0  0  0
 13 33  1  0  0  0  0
 14 15  1  0  0  0  0
 15 16  1  0  0  0  0
 15 34  1  0  0  0  0
 15 35  1  0  0  0  0
 16 36  1  0  0  0  0
 16 37  1  0  0  0  0
 17 18  1  0  0  0  0
 17 19  2  0  0  0  0
M  CHG  2  17   1  18  -1
M  END
>  <DRUGBANK_ID>
DB15098

>  <COMMON_NAME>
Morinidazole

>  <CAS_NUMBER>
92478-27-8

>  <UNII>
TUPWG40JAL

$$$$
