
 OpenBabel10282417193D

 36 37  0  0  1  0  0  0  0  0999 V2000
    0.8664   -0.0557   -0.1283 C   0  0  0  0  0  0  0  0  0  0  0  0
    0.3491    1.3227    0.2210 C   0  0  1  0  0  0  0  0  0  0  0  0
    0.7860    2.4927   -0.6070 C   0  0  0  0  0  0  0  0  0  0  0  0
    0.2977    3.7712   -0.2915 C   0  0  0  0  0  0  0  0  0  0  0  0
    0.7158    4.8772   -1.0145 C   0  0  0  0  0  0  0  0  0  0  0  0
    1.6815    4.7248   -2.0046 C   0  0  0  0  0  0  0  0  0  0  0  0
    2.2751    3.4854   -2.2272 C   0  0  0  0  0  0  0  0  0  0  0  0
    1.8011    2.3652   -1.5606 C   0  0  0  0  0  0  0  0  0  0  0  0
   -1.0602    1.3420    0.5619 N   0  0  0  0  0  0  0  0  0  0  0  0
   -1.7202    1.6110    1.7293 C   0  0  0  0  0  0  0  0  0  0  0  0
   -2.9539    1.6214    1.6780 O   0  0  0  0  0  0  0  0  0  0  0  0
   -1.0420    1.8736    3.0510 C   0  0  0  0  0  0  0  0  0  0  0  0
    0.2824    1.9269    3.2771 C   0  0  0  0  0  0  0  0  0  0  0  0
    1.0108    2.1045    4.5115 C   0  0  0  0  0  0  0  0  0  0  0  0
    0.6867    1.3514    5.6155 C   0  0  0  0  0  0  0  0  0  0  0  0
    1.4340    1.5455    6.7524 C   0  0  0  0  0  0  0  0  0  0  0  0
    2.5256    2.4086    6.7099 C   0  0  0  0  0  0  0  0  0  0  0  0
    2.8390    3.0415    5.5172 C   0  0  0  0  0  0  0  0  0  0  0  0
    2.0981    2.9008    4.4077 N   0  0  0  0  0  0  0  0  0  0  0  0
    4.3633    4.1623    5.4339 Br  0  0  0  0  0  0  0  0  0  0  0  0
   -1.9123    2.0895    4.1775 C   0  0  0  0  0  0  0  0  0  0  0  0
   -2.4673    2.2408    5.1789 N   0  0  0  0  0  0  0  0  0  0  0  0
    0.5628   -0.3415   -1.1336 H   0  0  0  0  0  0  0  0  0  0  0  0
    0.5185   -0.7971    0.5980 H   0  0  0  0  0  0  0  0  0  0  0  0
    1.9643   -0.0532   -0.0709 H   0  0  0  0  0  0  0  0  0  0  0  0
    0.9264    1.5122    1.0763 H   0  0  0  0  0  0  0  0  0  0  0  0
   -0.4173    3.9104    0.5174 H   0  0  0  0  0  0  0  0  0  0  0  0
    0.2873    5.8512   -0.7997 H   0  0  0  0  0  0  0  0  0  0  0  0
    1.9741    5.5759   -2.6089 H   0  0  0  0  0  0  0  0  0  0  0  0
    3.1003    3.3860   -2.9254 H   0  0  0  0  0  0  0  0  0  0  0  0
    2.2433    1.3989   -1.7888 H   0  0  0  0  0  0  0  0  0  0  0  0
   -1.6903    1.2725   -0.2309 H   0  0  0  0  0  0  0  0  0  0  0  0
    1.0861    1.8317    2.5921 H   0  0  0  0  0  0  0  0  0  0  0  0
   -0.1354    0.6453    5.5936 H   0  0  0  0  0  0  0  0  0  0  0  0
    1.1475    1.0269    7.6583 H   0  0  0  0  0  0  0  0  0  0  0  0
    3.1151    2.5738    7.6005 H   0  0  0  0  0  0  0  0  0  0  0  0
  1 23  1  0  0  0  0
  1 24  1  0  0  0  0
  1 25  1  0  0  0  0
  2  1  1  0  0  0  0
  2  3  1  0  0  0  0
  2  9  1  0  0  0  0
  2 26  1  1  0  0  0
  3  4  2  0  0  0  0
  3  8  1  0  0  0  0
  4  5  1  0  0  0  0
  4 27  1  0  0  0  0
  5  6  2  0  0  0  0
  5 28  1  0  0  0  0
  6  7  1  0  0  0  0
  6 29  1  0  0  0  0
  7  8  2  0  0  0  0
  7 30  1  0  0  0  0
  8 31  1  0  0  0  0
  9 10  1  0  0  0  0
  9 32  1  0  0  0  0
 10 11  2  0  0  0  0
 10 12  1  0  0  0  0
 12 13  2  0  0  0  0
 12 21  1  0  0  0  0
 13 14  1  0  0  0  0
 13 33  1  0  0  0  0
 14 15  2  0  0  0  0
 14 19  1  0  0  0  0
 15 16  1  0  0  0  0
 15 34  1  0  0  0  0
 16 17  2  0  0  0  0
 16 35  1  0  0  0  0
 17 18  1  0  0  0  0
 17 36  1  0  0  0  0
 18 19  2  0  0  0  0
 18 20  1  0  0  0  0
 21 22  3  0  0  0  0
M  END
>  <DRUGBANK_ID>
DB12679

>  <COMMON_NAME>
WP-1066

>  <CAS_NUMBER>
857064-38-1

>  <UNII>
63V8AIE65T

>  <SYNONYMS>
(E)-3-(6-Bromo-pyridin-2-yl)-2-cyano-N-((S)-1-phenyl-ethyl)-acryl amide; 2-PROPENAMIDE, 3-(6-BROMO-2-PYRIDINYL)-2-CYANO-N-((1S)-1-PHENYLETHYL)-, (2E)-; WP 1066; WP1066

$$$$
