Zeaxanthin
 OpenBabel10282417183D
Marvin  03020612512D
 98 99  0  0  0  0  0  0  0  0999 V2000
   -1.4360   -0.3880    0.0002 C   0  0  0  0  0  0  0  0  0  0  0  0
   -2.8924   -0.6896    0.0045 C   0  0  0  0  0  0  0  0  0  0  0  0
    0.9809   -1.1270   -0.0124 C   0  0  0  0  0  0  0  0  0  0  0  0
    0.4929    1.4303    0.0324 C   0  0  0  0  0  0  0  0  0  0  0  0
   -3.9186    0.1911    0.0417 C   0  0  0  0  0  0  0  0  0  0  0  0
   -5.3485   -0.0892    0.0376 C   0  0  0  0  0  0  0  0  0  0  0  0
   -6.2436    0.9311    0.0397 C   0  0  0  0  0  0  0  0  0  0  0  0
   -5.7011   -1.5503    0.0365 C   0  0  0  0  0  0  0  0  0  0  0  0
   -7.6779    0.7398    0.0457 C   0  0  0  0  0  0  0  0  0  0  0  0
   -8.6495    1.6724    0.0509 C   0  0  0  0  0  0  0  0  0  0  0  0
  -10.0842    1.3247    0.0615 C   0  0  0  0  0  0  0  0  0  0  0  0
  -11.0312    2.2911    0.0670 C   0  0  0  0  0  0  0  0  0  0  0  0
  -10.4355   -0.1497    0.0668 C   0  0  0  0  0  0  0  0  0  0  0  0
  -12.4632    2.0434    0.0778 C   0  0  0  0  0  0  0  0  0  0  0  0
  -13.3971    3.0084    0.0832 C   0  0  0  0  0  0  0  0  0  0  0  0
  -14.8285    2.7333    0.0946 C   0  0  0  0  0  0  0  0  0  0  0  0
  -15.7770    3.7004    0.1008 C   0  0  0  0  0  0  0  0  0  0  0  0
  -17.2053    3.3550    0.1104 C   0  0  0  0  0  0  0  0  0  0  0  0
  -15.3394    5.1482    0.0941 C   0  0  0  0  0  0  0  0  0  0  0  0
  -18.1990    4.2622    0.1132 C   0  0  0  0  0  0  0  0  0  0  0  0
  -19.6257    4.0196    0.1085 C   0  0  0  0  0  0  0  0  0  0  0  0
  -20.5398    5.0241    0.1024 C   0  0  0  0  0  0  0  0  0  0  0  0
  -21.9606    4.7019    0.0843 C   0  0  0  0  0  0  0  0  0  0  0  0
  -20.1113    6.4754    0.1159 C   0  0  0  0  0  0  0  0  0  0  0  0
  -22.9791    5.5732    0.2164 C   0  0  0  0  0  0  0  0  0  0  0  0
  -24.4045    5.2367    0.2243 C   0  0  0  0  0  0  0  0  0  0  0  0
  -26.3651    3.9524    1.1007 C   0  0  0  0  0  0  0  0  0  0  0  0
  -26.7873    5.7214   -0.7834 C   0  0  0  0  0  0  0  0  0  0  0  0
   -0.5076   -1.3731   -0.0130 C   0  0  0  0  0  0  0  0  0  0  0  0
   -0.8530   -2.8437   -0.0121 C   0  0  0  0  0  0  0  0  0  0  0  0
  -24.0709    3.5527    2.0594 C   0  0  0  0  0  0  0  0  0  0  0  0
  -24.9120    4.3123    1.0631 C   0  0  0  0  0  0  0  0  0  0  0  0
   -1.4914    1.6316    1.4106 C   0  0  0  0  0  0  0  0  0  0  0  0
   -1.0216    1.0837    0.0367 C   0  0  0  0  0  0  0  0  0  0  0  0
   -1.5532    1.7503   -1.2650 C   0  0  0  0  0  0  0  0  0  0  0  0
  -24.7682    5.6554   -2.1724 C   0  0  0  0  0  0  0  0  0  0  0  0
  -25.2681    6.0297   -0.7604 C   0  0  0  0  0  0  0  0  0  0  0  0
  -25.1552    7.5409   -0.4315 C   0  0  0  0  0  0  0  0  0  0  0  0
  -27.3367    4.7401    0.2301 C   0  0  2  0  0  0  0  0  0  0  0  0
  -28.2165    5.4775    1.0892 O   0  0  0  0  0  0  0  0  0  0  0  0
    1.4898    0.3052   -0.0932 C   0  0  2  0  0  0  0  0  0  0  0  0
    2.1642    0.4827   -1.3453 O   0  0  0  0  0  0  0  0  0  0  0  0
   -3.1380   -1.7468   -0.0228 H   0  0  0  0  0  0  0  0  0  0  0  0
    1.4087   -1.6850   -0.8566 H   0  0  0  0  0  0  0  0  0  0  0  0
    1.3986   -1.5813    0.8958 H   0  0  0  0  0  0  0  0  0  0  0  0
    0.7490    1.9863    0.9451 H   0  0  0  0  0  0  0  0  0  0  0  0
    0.6991    2.1746   -0.7507 H   0  0  0  0  0  0  0  0  0  0  0  0
   -3.7285    1.2566    0.0874 H   0  0  0  0  0  0  0  0  0  0  0  0
   -5.9005    1.9665    0.0374 H   0  0  0  0  0  0  0  0  0  0  0  0
   -5.2977   -2.0283   -0.8622 H   0  0  0  0  0  0  0  0  0  0  0  0
   -5.2848   -2.0312    0.9279 H   0  0  0  0  0  0  0  0  0  0  0  0
   -6.7671   -1.7626    0.0439 H   0  0  0  0  0  0  0  0  0  0  0  0
   -7.9910   -0.2916    0.0489 H   0  0  0  0  0  0  0  0  0  0  0  0
   -8.3792    2.7260    0.0483 H   0  0  0  0  0  0  0  0  0  0  0  0
  -10.7225    3.3360    0.0633 H   0  0  0  0  0  0  0  0  0  0  0  0
  -10.0449   -0.6394   -0.8316 H   0  0  0  0  0  0  0  0  0  0  0  0
  -10.0321   -0.6361    0.9614 H   0  0  0  0  0  0  0  0  0  0  0  0
  -11.5023   -0.3667    0.0749 H   0  0  0  0  0  0  0  0  0  0  0  0
  -12.8212    1.0239    0.0821 H   0  0  0  0  0  0  0  0  0  0  0  0
  -13.0648    4.0399    0.0790 H   0  0  0  0  0  0  0  0  0  0  0  0
  -15.1243    1.6851    0.0977 H   0  0  0  0  0  0  0  0  0  0  0  0
  -17.4634    2.2979    0.1110 H   0  0  0  0  0  0  0  0  0  0  0  0
  -14.7344    5.3569    0.9835 H   0  0  0  0  0  0  0  0  0  0  0  0
  -14.7476    5.3529   -0.8052 H   0  0  0  0  0  0  0  0  0  0  0  0
  -16.1364    5.8875    0.0980 H   0  0  0  0  0  0  0  0  0  0  0  0
  -17.9404    5.3089    0.1127 H   0  0  0  0  0  0  0  0  0  0  0  0
  -19.9461    2.9799    0.1124 H   0  0  0  0  0  0  0  0  0  0  0  0
  -22.1983    3.6483   -0.0346 H   0  0  0  0  0  0  0  0  0  0  0  0
  -19.5174    6.6855    1.0126 H   0  0  0  0  0  0  0  0  0  0  0  0
  -19.5183    6.6980   -0.7778 H   0  0  0  0  0  0  0  0  0  0  0  0
  -20.9222    7.2025    0.1185 H   0  0  0  0  0  0  0  0  0  0  0  0
  -22.7775    6.6325    0.2971 H   0  0  0  0  0  0  0  0  0  0  0  0
  -26.6940    4.0388    2.1444 H   0  0  0  0  0  0  0  0  0  0  0  0
  -26.4465    2.8921    0.8320 H   0  0  0  0  0  0  0  0  0  0  0  0
  -27.0731    5.3512   -1.7780 H   0  0  0  0  0  0  0  0  0  0  0  0
  -27.3572    6.6599   -0.7096 H   0  0  0  0  0  0  0  0  0  0  0  0
   -1.4238   -3.1049    0.8849 H   0  0  0  0  0  0  0  0  0  0  0  0
   -1.4252   -3.1037   -0.9079 H   0  0  0  0  0  0  0  0  0  0  0  0
    0.0456   -3.4710   -0.0117 H   0  0  0  0  0  0  0  0  0  0  0  0
  -23.3494    2.9048    1.5558 H   0  0  0  0  0  0  0  0  0  0  0  0
  -23.5470    4.2430    2.7283 H   0  0  0  0  0  0  0  0  0  0  0  0
  -24.6826    2.8897    2.6769 H   0  0  0  0  0  0  0  0  0  0  0  0
   -1.2716    2.6956    1.5187 H   0  0  0  0  0  0  0  0  0  0  0  0
   -2.5413    1.4949    1.6633 H   0  0  0  0  0  0  0  0  0  0  0  0
   -0.9505    1.0905    2.2048 H   0  0  0  0  0  0  0  0  0  0  0  0
   -1.1270    1.2276   -2.1362 H   0  0  0  0  0  0  0  0  0  0  0  0
   -2.6286    1.7262   -1.4307 H   0  0  0  0  0  0  0  0  0  0  0  0
   -1.2659    2.8023   -1.3330 H   0  0  0  0  0  0  0  0  0  0  0  0
  -25.3460    6.1580   -2.9538 H   0  0  0  0  0  0  0  0  0  0  0  0
  -23.7114    5.8796   -2.3373 H   0  0  0  0  0  0  0  0  0  0  0  0
  -24.8966    4.5711   -2.3181 H   0  0  0  0  0  0  0  0  0  0  0  0
  -25.4402    7.7132    0.6176 H   0  0  0  0  0  0  0  0  0  0  0  0
  -24.1517    7.9504   -0.5714 H   0  0  0  0  0  0  0  0  0  0  0  0
  -25.8250    8.1479   -1.0499 H   0  0  0  0  0  0  0  0  0  0  0  0
  -27.9731    4.0268   -0.3087 H   0  0  0  0  0  0  0  0  0  0  0  0
  -27.6596    6.1252    1.5570 H   0  0  0  0  0  0  0  0  0  0  0  0
    2.2544    0.4512    0.6808 H   0  0  0  0  0  0  0  0  0  0  0  0
    1.4859    0.3801   -2.0366 H   0  0  0  0  0  0  0  0  0  0  0  0
  1 29  2  0  0  0  0
  1 34  1  0  0  0  0
  1  2  1  0  0  0  0
  2  5  2  0  0  0  0
  2 43  1  0  0  0  0
  3 41  1  0  0  0  0
  3 44  1  0  0  0  0
  3 45  1  0  0  0  0
  4 41  1  0  0  0  0
  4 46  1  0  0  0  0
  4 47  1  0  0  0  0
  5  6  1  0  0  0  0
  5 48  1  0  0  0  0
  6  7  2  0  0  0  0
  6  8  1  0  0  0  0
  7  9  1  0  0  0  0
  7 49  1  0  0  0  0
  8 50  1  0  0  0  0
  8 51  1  0  0  0  0
  8 52  1  0  0  0  0
  9 10  2  0  0  0  0
  9 53  1  0  0  0  0
 10 11  1  0  0  0  0
 10 54  1  0  0  0  0
 11 12  2  0  0  0  0
 11 13  1  0  0  0  0
 12 14  1  0  0  0  0
 12 55  1  0  0  0  0
 13 56  1  0  0  0  0
 13 57  1  0  0  0  0
 13 58  1  0  0  0  0
 14 15  2  0  0  0  0
 14 59  1  0  0  0  0
 15 16  1  0  0  0  0
 15 60  1  0  0  0  0
 16 17  2  0  0  0  0
 16 61  1  0  0  0  0
 17 18  1  0  0  0  0
 17 19  1  0  0  0  0
 18 20  2  0  0  0  0
 18 62  1  0  0  0  0
 19 63  1  0  0  0  0
 19 64  1  0  0  0  0
 19 65  1  0  0  0  0
 20 21  1  0  0  0  0
 20 66  1  0  0  0  0
 21 22  2  0  0  0  0
 21 67  1  0  0  0  0
 22 23  1  0  0  0  0
 22 24  1  0  0  0  0
 23 25  2  0  0  0  0
 23 68  1  0  0  0  0
 24 69  1  0  0  0  0
 24 70  1  0  0  0  0
 24 71  1  0  0  0  0
 25 26  1  0  0  0  0
 25 72  1  0  0  0  0
 26 32  2  0  0  0  0
 26 37  1  0  0  0  0
 27 39  1  0  0  0  0
 27 73  1  0  0  0  0
 27 74  1  0  0  0  0
 28 39  1  0  0  0  0
 28 75  1  0  0  0  0
 28 76  1  0  0  0  0
 29  3  1  0  0  0  0
 29 30  1  0  0  0  0
 30 77  1  0  0  0  0
 30 78  1  0  0  0  0
 30 79  1  0  0  0  0
 31 80  1  0  0  0  0
 31 81  1  0  0  0  0
 31 82  1  0  0  0  0
 32 27  1  0  0  0  0
 32 31  1  0  0  0  0
 33 83  1  0  0  0  0
 33 84  1  0  0  0  0
 33 85  1  0  0  0  0
 34  4  1  0  0  0  0
 34 33  1  0  0  0  0
 34 35  1  0  0  0  0
 35 86  1  0  0  0  0
 35 87  1  0  0  0  0
 35 88  1  0  0  0  0
 36 89  1  0  0  0  0
 36 90  1  0  0  0  0
 36 91  1  0  0  0  0
 37 28  1  0  0  0  0
 37 36  1  0  0  0  0
 37 38  1  0  0  0  0
 38 92  1  0  0  0  0
 38 93  1  0  0  0  0
 38 94  1  0  0  0  0
 39 40  1  0  0  0  0
 39 95  1  6  0  0  0
 40 96  1  0  0  0  0
 41 42  1  0  0  0  0
 41 97  1  1  0  0  0
 42 98  1  0  0  0  0
M  END
>  <DRUGBANK_ID>
DB11176

>  <COMMON_NAME>
Zeaxanthin

>  <CAS_NUMBER>
144-68-3

>  <UNII>
CV0IB81ORO

$$$$
