
 OpenBabel10282417163D

 52 57  0  0  0  0  0  0  0  0999 V2000
    2.0161   -0.9947   -0.1230 N   0  0  0  0  0  0  0  0  0  0  0  0
    2.9699   -0.0167   -0.2775 C   0  0  0  0  0  0  0  0  0  0  0  0
    2.4413    1.4472   -0.5233 C   0  0  0  0  0  0  0  0  0  0  0  0
    1.1361    1.7459   -0.4048 C   0  0  0  0  0  0  0  0  0  0  0  0
    0.2125    0.6381   -0.1140 C   0  0  0  0  0  0  0  0  0  0  0  0
   -1.1458    0.9093   -0.0097 C   0  0  0  0  0  0  0  0  0  0  0  0
   -2.0593   -0.1242    0.0261 C   0  0  0  0  0  0  0  0  0  0  0  0
   -1.6269   -1.4458    0.0378 C   0  0  0  0  0  0  0  0  0  0  0  0
   -0.2630   -1.7432    0.0272 C   0  0  0  0  0  0  0  0  0  0  0  0
    0.6545   -0.7001   -0.0518 C   0  0  0  0  0  0  0  0  0  0  0  0
    4.1392   -0.3260   -0.0456 O   0  0  0  0  0  0  0  0  0  0  0  0
   -3.7304    0.2641    0.0151 Cl  0  0  0  0  0  0  0  0  0  0  0  0
    3.3152    2.6490   -0.3713 C   0  0  0  0  0  0  0  0  0  0  0  0
    4.5994    2.9122   -1.3970 N   0  0  0  0  0  0  0  0  0  0  0  0
    5.9184    3.8526   -0.5723 C   0  0  0  0  0  0  0  0  0  0  0  0
    5.6007    4.2914    1.0038 C   0  0  0  0  0  0  0  0  0  0  0  0
    3.9286    3.6021    1.2944 N   0  0  0  0  0  0  0  0  0  0  0  0
    6.8869    4.5922   -1.1520 C   0  0  0  0  0  0  0  0  0  0  0  0
    7.3535    5.7025   -0.3815 C   0  0  0  0  0  0  0  0  0  0  0  0
    6.9279    6.2087    0.8564 C   0  0  0  0  0  0  0  0  0  0  0  0
    6.0121    5.5368    1.5370 C   0  0  0  0  0  0  0  0  0  0  0  0
    0.6809    3.0796   -0.4655 N   0  0  0  0  0  0  0  0  0  0  0  0
    4.0421    4.4145   -0.2125 N   0  0  3  0  0  0  0  0  0  0  0  0
    2.7329    4.6351   -0.9880 C   0  0  0  0  0  0  0  0  0  0  0  0
    1.5219    4.1756   -0.0120 C   0  0  2  0  0  0  0  0  0  0  0  0
    1.8949    3.5789    1.5975 C   0  0  3  0  0  0  0  0  0  0  0  0
    2.4225    5.0330    2.1959 C   0  0  0  0  0  0  0  0  0  0  0  0
    3.5261    5.5351    1.2144 C   0  0  0  0  0  0  0  0  0  0  0  0
    4.8076    2.4470    0.5037 C   0  0  0  0  0  0  0  0  0  0  0  0
    3.1633    1.9908    1.7089 C   0  0  0  0  0  0  0  0  0  0  0  0
    2.3607   -1.9490   -0.0401 H   0  0  0  0  0  0  0  0  0  0  0  0
   -1.5089    1.9262   -0.0293 H   0  0  0  0  0  0  0  0  0  0  0  0
   -2.3548   -2.2479    0.0562 H   0  0  0  0  0  0  0  0  0  0  0  0
    0.0596   -2.7807    0.0333 H   0  0  0  0  0  0  0  0  0  0  0  0
    3.7187    3.5318    2.2682 H   0  0  0  0  0  0  0  0  0  0  0  0
    7.0886    4.2902   -2.1566 H   0  0  0  0  0  0  0  0  0  0  0  0
    8.1052    6.3014   -0.8306 H   0  0  0  0  0  0  0  0  0  0  0  0
    7.1412    7.1379    1.3755 H   0  0  0  0  0  0  0  0  0  0  0  0
    5.4501    6.2331    2.2061 H   0  0  0  0  0  0  0  0  0  0  0  0
   -0.2401    3.2536   -0.0901 H   0  0  0  0  0  0  0  0  0  0  0  0
    2.7801    4.1605   -1.9834 H   0  0  0  0  0  0  0  0  0  0  0  0
    2.7423    5.7127   -1.2164 H   0  0  0  0  0  0  0  0  0  0  0  0
    0.9426    5.1035   -0.0726 H   0  0  0  0  0  0  0  0  0  0  0  0
    1.0165    3.3225    2.1723 H   0  0  0  0  0  0  0  0  0  0  0  0
    1.8323    5.9381    2.3089 H   0  0  0  0  0  0  0  0  0  0  0  0
    2.8794    4.8175    3.2087 H   0  0  0  0  0  0  0  0  0  0  0  0
    3.6964    6.5724    0.9322 H   0  0  0  0  0  0  0  0  0  0  0  0
    4.1638    5.3039    2.1496 H   0  0  0  0  0  0  0  0  0  0  0  0
    5.0396    1.5995   -0.2050 H   0  0  0  0  0  0  0  0  0  0  0  0
    5.6847    2.3907    1.1995 H   0  0  0  0  0  0  0  0  0  0  0  0
    3.6690    1.9031    2.6901 H   0  0  0  0  0  0  0  0  0  0  0  0
    2.5883    1.1115    1.5236 H   0  0  0  0  0  0  0  0  0  0  0  0
  1  2  1  0  0  0  0
  1 10  1  0  0  0  0
  1 31  1  0  0  0  0
  2  3  1  0  0  0  0
  2 11  2  0  0  0  0
  3  4  2  0  0  0  0
  3 13  1  0  0  0  0
  4  5  1  0  0  0  0
  4 22  1  0  0  0  0
  5  6  1  0  0  0  0
  5 10  2  0  0  0  0
  6  7  2  0  0  0  0
  6 32  1  0  0  0  0
  7  8  1  0  0  0  0
  7 12  1  0  0  0  0
  8  9  2  0  0  0  0
  8 33  1  0  0  0  0
  9 10  1  0  0  0  0
  9 34  1  0  0  0  0
 13 14  2  0  0  0  0
 13 17  1  0  0  0  0
 14 15  1  0  0  0  0
 15 16  1  0  0  0  0
 16 17  1  0  0  0  0
 17 35  1  0  0  0  0
 18 19  1  0  0  0  0
 18 15  2  0  0  0  0
 18 36  1  0  0  0  0
 19 20  2  0  0  0  0
 19 37  1  0  0  0  0
 20 21  1  0  0  0  0
 20 38  1  0  0  0  0
 21 16  2  0  0  0  0
 21 39  1  0  0  0  0
 22 40  1  0  0  0  0
 23 24  1  0  0  0  0
 23 28  1  0  0  0  0
 23 29  1  0  0  0  0
 24 25  1  0  0  0  0
 24 41  1  0  0  0  0
 24 42  1  0  0  0  0
 25 26  1  0  0  0  0
 25 22  1  0  0  0  0
 25 43  1  1  0  0  0
 26 27  1  0  0  0  0
 26 44  1  0  0  0  0
 27 28  1  0  0  0  0
 27 45  1  0  0  0  0
 27 46  1  0  0  0  0
 28 47  1  0  0  0  0
 28 48  1  0  0  0  0
 29 30  1  0  0  0  0
 29 49  1  0  0  0  0
 29 50  1  0  0  0  0
 30 26  1  0  0  0  0
 30 51  1  0  0  0  0
 30 52  1  0  0  0  0
M  END
>  <DRUGBANK_ID>
DB06852

>  <COMMON_NAME>
CHIR-124

>  <CAS_NUMBER>
405168-58-3

>  <UNII>
5K64W8EU3E

$$$$
