
 OpenBabel10282417123D

 12 11  0  0  0  0  0  0  0  0999 V2000
    0.9722    0.0787   -0.0666 N   0  0  0  0  0  0  0  0  0  0  0  0
    0.2801   -0.1864   -1.2196 C   0  0  0  0  0  0  0  0  0  0  0  0
   -1.0604   -0.1949   -1.2568 C   0  0  0  0  0  0  0  0  0  0  0  0
    0.9939   -0.4873   -2.5287 C   0  0  0  0  0  0  0  0  0  0  0  0
    2.3561   -0.4778   -2.4872 N   0  0  0  0  0  0  0  0  0  0  0  0
    0.4110   -0.7292   -3.5806 O   0  0  0  0  0  0  0  0  0  0  0  0
    0.4551    0.2738    0.7818 H   0  0  0  0  0  0  0  0  0  0  0  0
    1.9777    0.0847   -0.0406 H   0  0  0  0  0  0  0  0  0  0  0  0
   -1.6076   -0.4052   -2.1715 H   0  0  0  0  0  0  0  0  0  0  0  0
   -1.6524    0.0085   -0.3721 H   0  0  0  0  0  0  0  0  0  0  0  0
    2.8405   -0.6766   -3.3519 H   0  0  0  0  0  0  0  0  0  0  0  0
    2.8988   -0.2886   -1.6644 H   0  0  0  0  0  0  0  0  0  0  0  0
  1  2  1  0  0  0  0
  1  7  1  0  0  0  0
  1  8  1  0  0  0  0
  2  3  2  0  0  0  0
  2  4  1  0  0  0  0
  3  9  1  0  0  0  0
  3 10  1  0  0  0  0
  4  5  1  0  0  0  0
  4  6  2  0  0  0  0
  5 11  1  0  0  0  0
  5 12  1  0  0  0  0
M  END
>  <DRUGBANK_ID>
DB02002

>  <SECONDARY_ACCESSION_NUMBERS>
EXPT02725

>  <COMMON_NAME>
2-Aminoprop-2-Enamide

$$$$
