
 OpenBabel10282417133D

 25 24  0  0  1  0  0  0  0  0999 V2000
   -0.0952    2.0107    0.9245 C   0  0  0  0  0  0  0  0  0  0  0  0
   -2.1735   -0.1706    2.2587 C   0  0  0  0  0  0  0  0  0  0  0  0
    0.8044    1.8151    2.1161 C   0  0  1  0  0  0  0  0  0  0  0  0
   -1.1531   -0.8021    1.2078 C   0  0  2  0  0  0  0  0  0  0  0  0
    1.1255    0.2980    2.3490 C   0  0  2  0  0  0  0  0  0  0  0  0
    0.4352   -0.7273    1.3698 C   0  0  1  0  0  0  0  0  0  0  0  0
   -2.2880    1.2271    2.5140 O   0  0  0  0  0  0  0  0  0  0  0  0
    1.9608    2.6099    1.8600 O   0  0  0  0  0  0  0  0  0  0  0  0
   -1.5164   -0.4923   -0.1717 O   0  0  0  0  0  0  0  0  0  0  0  0
    0.8241   -0.0365    3.7201 O   0  0  0  0  0  0  0  0  0  0  0  0
    0.8821   -2.0594    1.7223 O   0  0  0  0  0  0  0  0  0  0  0  0
    0.3570    2.2154    3.0346 H   0  0  0  0  0  0  0  0  0  0  0  0
   -1.4034   -1.8674    1.2378 H   0  0  0  0  0  0  0  0  0  0  0  0
    2.2151    0.1653    2.2795 H   0  0  0  0  0  0  0  0  0  0  0  0
    0.8736   -0.5424    0.3757 H   0  0  0  0  0  0  0  0  0  0  0  0
    0.3981    1.7794   -0.0206 H   0  0  0  0  0  0  0  0  0  0  0  0
   -0.6624    2.9378    0.8767 H   0  0  0  0  0  0  0  0  0  0  0  0
   -0.8658    1.3062    1.0375 H   0  0  0  0  0  0  0  0  0  0  0  0
   -3.1736   -0.3833    1.8660 H   0  0  0  0  0  0  0  0  0  0  0  0
   -2.0727   -0.6802    3.2188 H   0  0  0  0  0  0  0  0  0  0  0  0
   -1.5096    1.6049    2.9980 H   0  0  0  0  0  0  0  0  0  0  0  0
    1.7930    3.1326    1.0553 H   0  0  0  0  0  0  0  0  0  0  0  0
   -1.5145    0.4575   -0.3549 H   0  0  0  0  0  0  0  0  0  0  0  0
   -0.0934   -0.2943    3.7949 H   0  0  0  0  0  0  0  0  0  0  0  0
    1.4791   -2.3763    1.0179 H   0  0  0  0  0  0  0  0  0  0  0  0
  1 16  1  0  0  0  0
  1 17  1  0  0  0  0
  1 18  1  0  0  0  0
  2 19  1  0  0  0  0
  2 20  1  0  0  0  0
  3  1  1  0  0  0  0
  3  8  1  0  0  0  0
  3 12  1  1  0  0  0
  4  2  1  0  0  0  0
  4  9  1  0  0  0  0
  4 13  1  1  0  0  0
  5 10  1  0  0  0  0
  5 14  1  6  0  0  0
  5  6  1  0  0  0  0
  5  3  1  0  0  0  0
  6 15  1  6  0  0  0
  6 11  1  0  0  0  0
  6  4  1  0  0  0  0
  7  2  1  0  0  0  0
  7 21  1  0  0  0  0
  8 22  1  0  0  0  0
  9 23  1  0  0  0  0
 10 24  1  0  0  0  0
 11 25  1  0  0  0  0
M  END
>  <DRUGBANK_ID>
DB03815

>  <SECONDARY_ACCESSION_NUMBERS>
EXPT01465

>  <COMMON_NAME>
Fucitol

>  <CAS_NUMBER>
13074-06-1

>  <UNII>
961570X3WO

>  <SYNONYMS>
L-Fucitol

$$$$
