7X7
 OpenBabel10282417163D

 50 54  0  0  0  0  0  0  0  0999 V2000
   -3.0610    0.3052   -0.0324 Cl  0  0  0  0  0  0  0  0  0  0  0  0
   -1.3661   -0.0472    0.0016 C   0  0  0  0  0  0  0  0  0  0  0  0
   -0.9777   -1.4051   -0.0044 C   0  0  0  0  0  0  0  0  0  0  0  0
    0.3727   -1.7627    0.0052 C   0  0  0  0  0  0  0  0  0  0  0  0
    1.2979   -0.7460    0.0262 C   0  0  0  0  0  0  0  0  0  0  0  0
    2.6510   -0.9084    0.0041 O   0  0  0  0  0  0  0  0  0  0  0  0
    3.0832    0.4572   -0.1219 C   0  0  0  0  0  0  0  0  0  0  0  0
    2.0207    1.3872    0.1050 O   0  0  0  0  0  0  0  0  0  0  0  0
    0.9192    0.5806    0.0486 C   0  0  0  0  0  0  0  0  0  0  0  0
   -0.4151    0.9940    0.0233 C   0  0  0  0  0  0  0  0  0  0  0  0
   -0.8180    2.3543   -0.1192 N   0  0  0  0  0  0  0  0  0  0  0  0
    0.0626    3.4532   -0.0828 C   0  0  0  0  0  0  0  0  0  0  0  0
    0.9967    3.5979   -1.0807 C   0  0  0  0  0  0  0  0  0  0  0  0
    1.9221    4.5909   -0.9259 C   0  0  0  0  0  0  0  0  0  0  0  0
    1.9212    5.4412    0.1162 N   0  0  0  0  0  0  0  0  0  0  0  0
    0.9396    5.2706    1.0129 C   0  0  0  0  0  0  0  0  0  0  0  0
    0.8584    6.2167    2.0337 N   0  0  0  0  0  0  0  0  0  0  0  0
    0.0685    6.1293    3.1809 C   0  0  0  0  0  0  0  0  0  0  0  0
    0.0919    4.9860    3.9892 C   0  0  0  0  0  0  0  0  0  0  0  0
   -0.7149    4.9034    5.1158 C   0  0  0  0  0  0  0  0  0  0  0  0
   -1.5013    5.9948    5.4731 C   0  0  0  0  0  0  0  0  0  0  0  0
   -1.4826    7.1854    4.7322 C   0  0  0  0  0  0  0  0  0  0  0  0
   -0.7398    7.2138    3.5500 C   0  0  0  0  0  0  0  0  0  0  0  0
   -2.0636    8.3200    5.2400 N   0  0  0  0  0  0  0  0  0  0  0  0
   -1.6321    8.8086    6.5505 C   0  0  0  0  0  0  0  0  0  0  0  0
   -2.8497    8.9230    7.4713 C   0  0  0  0  0  0  0  0  0  0  0  0
   -3.8722    9.7475    6.8815 O   0  0  0  0  0  0  0  0  0  0  0  0
   -4.3026    9.1907    5.6208 C   0  0  0  0  0  0  0  0  0  0  0  0
   -3.1395    9.0791    4.6108 C   0  0  0  0  0  0  0  0  0  0  0  0
    0.0032    4.3057    0.9475 N   0  0  0  0  0  0  0  0  0  0  0  0
   -1.7331   -2.1871   -0.0358 H   0  0  0  0  0  0  0  0  0  0  0  0
    0.6854   -2.8006   -0.0135 H   0  0  0  0  0  0  0  0  0  0  0  0
    3.4710    0.6198   -1.1365 H   0  0  0  0  0  0  0  0  0  0  0  0
    3.8869    0.6615    0.5928 H   0  0  0  0  0  0  0  0  0  0  0  0
   -1.6466    2.5461    0.4396 H   0  0  0  0  0  0  0  0  0  0  0  0
    1.0256    2.9056   -1.9124 H   0  0  0  0  0  0  0  0  0  0  0  0
    2.7156    4.7232   -1.6524 H   0  0  0  0  0  0  0  0  0  0  0  0
    1.6124    6.8839    2.0213 H   0  0  0  0  0  0  0  0  0  0  0  0
    0.7345    4.1474    3.7316 H   0  0  0  0  0  0  0  0  0  0  0  0
   -0.7146    4.0049    5.7247 H   0  0  0  0  0  0  0  0  0  0  0  0
   -2.1290    5.9231    6.3569 H   0  0  0  0  0  0  0  0  0  0  0  0
   -0.7645    8.0969    2.9180 H   0  0  0  0  0  0  0  0  0  0  0  0
   -1.1832    9.7986    6.4068 H   0  0  0  0  0  0  0  0  0  0  0  0
   -0.8669    8.1698    7.0069 H   0  0  0  0  0  0  0  0  0  0  0  0
   -3.2724    7.9348    7.6892 H   0  0  0  0  0  0  0  0  0  0  0  0
   -2.5525    9.3779    8.4209 H   0  0  0  0  0  0  0  0  0  0  0  0
   -5.0868    9.8437    5.2263 H   0  0  0  0  0  0  0  0  0  0  0  0
   -4.7474    8.2066    5.8117 H   0  0  0  0  0  0  0  0  0  0  0  0
   -2.7664   10.0850    4.3821 H   0  0  0  0  0  0  0  0  0  0  0  0
   -3.4906    8.6235    3.6789 H   0  0  0  0  0  0  0  0  0  0  0  0
  1  2  1  0  0  0  0
  2  3  1  0  0  0  0
  2 10  2  0  0  0  0
  3  4  2  0  0  0  0
  3 31  1  0  0  0  0
  4  5  1  0  0  0  0
  4 32  1  0  0  0  0
  5  6  1  0  0  0  0
  5  9  2  0  0  0  0
  6  7  1  0  0  0  0
  7  8  1  0  0  0  0
  7 33  1  0  0  0  0
  7 34  1  0  0  0  0
  8  9  1  0  0  0  0
  9 10  1  0  0  0  0
 10 11  1  0  0  0  0
 11 12  1  0  0  0  0
 11 35  1  0  0  0  0
 12 13  1  0  0  0  0
 12 30  2  0  0  0  0
 13 14  2  0  0  0  0
 13 36  1  0  0  0  0
 14 15  1  0  0  0  0
 14 37  1  0  0  0  0
 15 16  2  0  0  0  0
 16 17  1  0  0  0  0
 16 30  1  0  0  0  0
 17 18  1  0  0  0  0
 17 38  1  0  0  0  0
 18 19  1  0  0  0  0
 18 23  2  0  0  0  0
 19 20  2  0  0  0  0
 19 39  1  0  0  0  0
 20 21  1  0  0  0  0
 20 40  1  0  0  0  0
 21 22  2  0  0  0  0
 21 41  1  0  0  0  0
 22 23  1  0  0  0  0
 22 24  1  0  0  0  0
 23 42  1  0  0  0  0
 24 25  1  0  0  0  0
 24 29  1  0  0  0  0
 25 26  1  0  0  0  0
 25 43  1  0  0  0  0
 25 44  1  0  0  0  0
 26 27  1  0  0  0  0
 26 45  1  0  0  0  0
 26 46  1  0  0  0  0
 27 28  1  0  0  0  0
 28 29  1  0  0  0  0
 28 47  1  0  0  0  0
 28 48  1  0  0  0  0
 29 49  1  0  0  0  0
 29 50  1  0  0  0  0
M  END
>  <DRUGBANK_ID>
DB07255

>  <COMMON_NAME>
N'-(5-CHLORO-1,3-BENZODIOXOL-4-YL)-N-(3-MORPHOLIN-4-YLPHENYL)PYRIMIDINE-2,4-DIAMINE

$$$$
