241
 OpenBabel10282417103D

 32 32  0  0  0  0  0  0  0  0999 V2000
   -2.4165   -1.0770   -0.1235 O   0  0  0  0  0  0  0  0  0  0  0  0
    2.3778   -1.2080    0.1309 O   0  0  0  0  0  0  0  0  0  0  0  0
    0.0472    2.6436   -0.0066 O   0  0  0  0  0  0  0  0  0  0  0  0
   -1.1330    0.7279    0.0273 N   0  0  0  0  0  0  0  0  0  0  0  0
    1.1758    0.6855   -0.0146 N   0  0  0  0  0  0  0  0  0  0  0  0
   -0.0174   -1.4661   -0.1093 C   0  0  0  0  0  0  0  0  0  0  0  0
   -0.0538   -2.5156    1.0422 C   0  0  0  0  0  0  0  0  0  0  0  0
   -1.2678   -3.4750    1.0819 C   0  0  0  0  0  0  0  0  0  0  0  0
    0.0539   -2.0942   -1.5143 C   0  0  0  0  0  0  0  0  0  0  0  0
   -1.2777   -0.6203   -0.0426 C   0  0  0  0  0  0  0  0  0  0  0  0
    1.2723   -0.6753    0.0381 C   0  0  0  0  0  0  0  0  0  0  0  0
   -1.3778   -4.4056   -0.1213 C   0  0  0  0  0  0  0  0  0  0  0  0
   -1.2302   -4.3503    2.3275 C   0  0  0  0  0  0  0  0  0  0  0  0
    0.1791   -1.1352   -2.6547 C   0  0  0  0  0  0  0  0  0  0  0  0
    0.0326    1.4124   -0.0031 C   0  0  0  0  0  0  0  0  0  0  0  0
    1.1714   -1.2071   -3.5422 C   0  0  0  0  0  0  0  0  0  0  0  0
   -1.9901    1.2623    0.0177 H   0  0  0  0  0  0  0  0  0  0  0  0
    2.0443    1.2003   -0.0017 H   0  0  0  0  0  0  0  0  0  0  0  0
    0.8709   -3.1113    1.0375 H   0  0  0  0  0  0  0  0  0  0  0  0
   -0.0232   -1.9629    1.9963 H   0  0  0  0  0  0  0  0  0  0  0  0
   -2.1883   -2.8934    1.1671 H   0  0  0  0  0  0  0  0  0  0  0  0
    0.8337   -2.8689   -1.5429 H   0  0  0  0  0  0  0  0  0  0  0  0
   -0.8839   -2.5603   -1.7829 H   0  0  0  0  0  0  0  0  0  0  0  0
   -0.4313   -4.9243   -0.3042 H   0  0  0  0  0  0  0  0  0  0  0  0
   -2.1761   -5.1374    0.0115 H   0  0  0  0  0  0  0  0  0  0  0  0
   -1.6865   -3.8951   -1.0233 H   0  0  0  0  0  0  0  0  0  0  0  0
   -1.2300   -3.7438    3.2367 H   0  0  0  0  0  0  0  0  0  0  0  0
   -2.1230   -4.9856    2.3475 H   0  0  0  0  0  0  0  0  0  0  0  0
   -0.3476   -4.9957    2.3237 H   0  0  0  0  0  0  0  0  0  0  0  0
   -0.6399   -0.4330   -2.8001 H   0  0  0  0  0  0  0  0  0  0  0  0
    1.1888   -0.5438   -4.3973 H   0  0  0  0  0  0  0  0  0  0  0  0
    1.9549   -1.9525   -3.4408 H   0  0  0  0  0  0  0  0  0  0  0  0
  1 10  2  0  0  0  0
  2 11  2  0  0  0  0
  3 15  2  0  0  0  0
  4 10  1  0  0  0  0
  4 15  1  0  0  0  0
  4 17  1  0  0  0  0
  5 11  1  0  0  0  0
  5 15  1  0  0  0  0
  5 18  1  0  0  0  0
  6  7  1  0  0  0  0
  6  9  1  0  0  0  0
  6 10  1  0  0  0  0
  6 11  1  0  0  0  0
  7  8  1  0  0  0  0
  7 19  1  0  0  0  0
  7 20  1  0  0  0  0
  8 12  1  0  0  0  0
  8 13  1  0  0  0  0
  8 21  1  0  0  0  0
  9 14  1  0  0  0  0
  9 22  1  0  0  0  0
  9 23  1  0  0  0  0
 12 24  1  0  0  0  0
 12 25  1  0  0  0  0
 12 26  1  0  0  0  0
 13 27  1  0  0  0  0
 13 28  1  0  0  0  0
 13 29  1  0  0  0  0
 14 16  2  0  0  0  0
 14 30  1  0  0  0  0
 16 31  1  0  0  0  0
 16 32  1  0  0  0  0
M  END
>  <DRUGBANK_ID>
DB00241

>  <SECONDARY_ACCESSION_NUMBERS>
APRD00266

>  <COMMON_NAME>
Butalbital

>  <CAS_NUMBER>
77-26-9

>  <UNII>
KHS0AZ4JVK

>  <SYNONYMS>
5-(2-methylpropyl)-5-prop-2-enyl-1,3-diazinane-2,4,6-trione; 5-allyl-5-(2-methylpropyl)barbituric acid; 5-allyl-5-(2'-methyl-n-propyl) barbituric acid; 5-allyl-5-isobutyl-2,4,6(1H,3H,5H)-pyrimidinetrione; 5-Allyl-5-isobutyl-pyrimidine-2,4,6-trione; 5-allyl-5-isobutylbarbituric acid; 5-isobutyl-5-allylbarbituric acid; Allylbarbital; Allylbarbitone; Allylbarbituric acid; Butalbarbital; Butalbital; Butalbitalum; iso-butylallylbarbituric acid; Itobarbital; Tetrallobarbital

$$$$
