1103
 OpenBabel10282417113D

 58 60  0  0  1  0  0  0  0  0999 V2000
    1.0106    0.0243    0.0528 Cl  0  0  0  0  0  0  0  0  0  0  0  0
   11.0355   -2.5131    0.0594 O   0  0  0  0  0  0  0  0  0  0  0  0
   11.3623    4.3281    0.1156 N   0  0  0  0  0  0  0  0  0  0  0  0
    7.5045    1.2825   -0.2447 N   0  0  0  0  0  0  0  0  0  0  0  0
    5.4975   -2.3440    0.0650 N   0  0  0  0  0  0  0  0  0  0  0  0
    8.8794    1.5013   -0.0192 C   0  0  3  0  0  0  0  0  0  0  0  0
    9.4016    2.2033   -1.2661 C   0  0  0  0  0  0  0  0  0  0  0  0
    9.2332    3.6827   -1.2904 C   0  0  0  0  0  0  0  0  0  0  0  0
    9.8989    4.4003   -0.1209 C   0  0  0  0  0  0  0  0  0  0  0  0
    6.9142    0.0445    0.0157 C   0  0  0  0  0  0  0  0  0  0  0  0
    9.0263    1.6576    1.5006 C   0  0  0  0  0  0  0  0  0  0  0  0
   11.7135    5.0785    1.3395 C   0  0  0  0  0  0  0  0  0  0  0  0
   12.1493    3.0692    0.0435 C   0  0  0  0  0  0  0  0  0  0  0  0
    7.6203   -1.2245    0.0513 C   0  0  0  0  0  0  0  0  0  0  0  0
    5.4979    0.0650    0.0464 C   0  0  0  0  0  0  0  0  0  0  0  0
    6.8506   -2.3726    0.0563 C   0  0  0  0  0  0  0  0  0  0  0  0
    4.8476   -1.1568    0.0646 C   0  0  0  0  0  0  0  0  0  0  0  0
   11.1788    4.5826    2.6949 C   0  0  0  0  0  0  0  0  0  0  0  0
   11.9003    2.0910    1.1615 C   0  0  0  0  0  0  0  0  0  0  0  0
    9.0368   -1.4510    0.0989 C   0  0  0  0  0  0  0  0  0  0  0  0
    4.7502    1.2826    0.0458 C   0  0  0  0  0  0  0  0  0  0  0  0
    7.5033   -3.6224    0.0536 C   0  0  0  0  0  0  0  0  0  0  0  0
    3.4534   -1.1446    0.0624 C   0  0  0  0  0  0  0  0  0  0  0  0
    9.6817   -2.6645    0.0568 C   0  0  0  0  0  0  0  0  0  0  0  0
    8.9053   -3.7763    0.0440 C   0  0  0  0  0  0  0  0  0  0  0  0
    3.3689    1.2735    0.0540 C   0  0  0  0  0  0  0  0  0  0  0  0
    2.7280    0.0545    0.0568 C   0  0  0  0  0  0  0  0  0  0  0  0
   11.7922   -3.6978    0.0474 C   0  0  0  0  0  0  0  0  0  0  0  0
    6.9944    2.0912    0.0826 H   0  0  0  0  0  0  0  0  0  0  0  0
    9.5020    0.6905   -0.2471 H   0  0  0  0  0  0  0  0  0  0  0  0
   10.4208    1.8934   -1.4946 H   0  0  0  0  0  0  0  0  0  0  0  0
    8.8864    1.7680   -2.1429 H   0  0  0  0  0  0  0  0  0  0  0  0
    9.5842    4.0771   -2.2478 H   0  0  0  0  0  0  0  0  0  0  0  0
    8.1481    3.8660   -1.2630 H   0  0  0  0  0  0  0  0  0  0  0  0
    9.6265    5.4557   -0.2587 H   0  0  0  0  0  0  0  0  0  0  0  0
    9.3331    4.1448    0.7701 H   0  0  0  0  0  0  0  0  0  0  0  0
    8.3504    1.0970    2.1548 H   0  0  0  0  0  0  0  0  0  0  0  0
    9.9299    1.1331    1.8056 H   0  0  0  0  0  0  0  0  0  0  0  0
    8.9449    2.6815    1.8533 H   0  0  0  0  0  0  0  0  0  0  0  0
   12.8057    5.1153    1.3932 H   0  0  0  0  0  0  0  0  0  0  0  0
   11.3791    6.1115    1.2047 H   0  0  0  0  0  0  0  0  0  0  0  0
   11.9754    2.5620   -0.9000 H   0  0  0  0  0  0  0  0  0  0  0  0
   13.2213    3.2759    0.0039 H   0  0  0  0  0  0  0  0  0  0  0  0
   11.6516    3.6628    3.0349 H   0  0  0  0  0  0  0  0  0  0  0  0
   11.4105    5.2993    3.4826 H   0  0  0  0  0  0  0  0  0  0  0  0
   10.0988    4.4149    2.6982 H   0  0  0  0  0  0  0  0  0  0  0  0
   10.9415    2.4478    1.4481 H   0  0  0  0  0  0  0  0  0  0  0  0
   11.8585    1.0450    0.8441 H   0  0  0  0  0  0  0  0  0  0  0  0
   12.4157    2.1296    2.1244 H   0  0  0  0  0  0  0  0  0  0  0  0
    9.8038   -0.7293    0.2487 H   0  0  0  0  0  0  0  0  0  0  0  0
    5.2134    2.2612    0.0373 H   0  0  0  0  0  0  0  0  0  0  0  0
    6.8964   -4.5182    0.0547 H   0  0  0  0  0  0  0  0  0  0  0  0
    2.9303   -2.0908    0.0582 H   0  0  0  0  0  0  0  0  0  0  0  0
    9.3477   -4.7632    0.0471 H   0  0  0  0  0  0  0  0  0  0  0  0
    2.8324    2.2180    0.0509 H   0  0  0  0  0  0  0  0  0  0  0  0
   11.5882   -4.2684    0.9550 H   0  0  0  0  0  0  0  0  0  0  0  0
   11.5777   -4.2651   -0.8601 H   0  0  0  0  0  0  0  0  0  0  0  0
   12.8500   -3.4182    0.0417 H   0  0  0  0  0  0  0  0  0  0  0  0
  1 27  1  0  0  0  0
  2 24  1  0  0  0  0
  2 28  1  0  0  0  0
  3  9  1  0  0  0  0
  3 12  1  0  0  0  0
  3 13  1  0  0  0  0
  4  6  1  0  0  0  0
  4 10  1  0  0  0  0
  4 29  1  0  0  0  0
  5 16  2  0  0  0  0
  5 17  1  0  0  0  0
  6  7  1  0  0  0  0
  6 11  1  0  0  0  0
  6 30  1  0  0  0  0
  7  8  1  0  0  0  0
  7 31  1  0  0  0  0
  7 32  1  0  0  0  0
  8  9  1  0  0  0  0
  8 33  1  0  0  0  0
  8 34  1  0  0  0  0
  9 35  1  0  0  0  0
  9 36  1  0  0  0  0
 10 14  2  0  0  0  0
 10 15  1  0  0  0  0
 11 37  1  0  0  0  0
 11 38  1  0  0  0  0
 11 39  1  0  0  0  0
 12 18  1  0  0  0  0
 12 40  1  0  0  0  0
 12 41  1  0  0  0  0
 13 19  1  0  0  0  0
 13 42  1  0  0  0  0
 13 43  1  0  0  0  0
 14 16  1  0  0  0  0
 14 20  1  0  0  0  0
 15 17  2  0  0  0  0
 15 21  1  0  0  0  0
 16 22  1  0  0  0  0
 17 23  1  0  0  0  0
 18 44  1  0  0  0  0
 18 45  1  0  0  0  0
 18 46  1  0  0  0  0
 19 47  1  0  0  0  0
 19 48  1  0  0  0  0
 19 49  1  0  0  0  0
 20 24  2  0  0  0  0
 20 50  1  0  0  0  0
 21 26  2  0  0  0  0
 21 51  1  0  0  0  0
 22 25  2  0  0  0  0
 22 52  1  0  0  0  0
 23 27  2  0  0  0  0
 23 53  1  0  0  0  0
 24 25  1  0  0  0  0
 25 54  1  0  0  0  0
 26 27  1  0  0  0  0
 26 55  1  0  0  0  0
 28 56  1  0  0  0  0
 28 57  1  0  0  0  0
 28 58  1  0  0  0  0
M  END
>  <DRUGBANK_ID>
DB01103

>  <SECONDARY_ACCESSION_NUMBERS>
APRD00317

>  <COMMON_NAME>
Quinacrine

>  <CAS_NUMBER>
83-89-6

>  <UNII>
H0C805XYDE

>  <SYNONYMS>
2-methoxy-6-chloro-9-diethylaminopentylaminoacridine; 3-chloro-7-methoxy-9-(1-methyl-4-diethylaminobutylamino)acridine; 6-chloro-9-((4-(diethylamino)-1-methylbutyl)amino)-2-methoxyacridine; Mepacrine; N4-(6-chloro-2-methoxy-9-acridinyl)-N1,N1-diethyl-1,4-pentanediamine

$$$$
