
 OpenBabel10282417233D

 47 51  0  0  0  0  0  0  0  0999 V2000
    0.9306   -0.0512   -0.0441 C   0  0  0  0  0  0  0  0  0  0  0  0
    0.4371    1.1223   -0.7880 C   0  0  0  0  0  0  0  0  0  0  0  0
    0.1228    1.2830   -2.1132 C   0  0  0  0  0  0  0  0  0  0  0  0
    0.1084    0.2539   -3.0559 N   0  0  0  0  0  0  0  0  0  0  0  0
    0.3810    0.5420   -4.3014 C   0  0  0  0  0  0  0  0  0  0  0  0
    0.0883   -0.5364   -5.3009 C   0  0  0  0  0  0  0  0  0  0  0  0
    1.1233   -1.0763   -6.0756 C   0  0  0  0  0  0  0  0  0  0  0  0
    0.8328   -1.7847   -7.2397 C   0  0  0  0  0  0  0  0  0  0  0  0
   -0.4814   -2.1388   -7.5208 C   0  0  0  0  0  0  0  0  0  0  0  0
   -1.5010   -1.7769   -6.6398 C   0  0  0  0  0  0  0  0  0  0  0  0
   -1.2327   -0.9233   -5.5644 C   0  0  0  0  0  0  0  0  0  0  0  0
   -2.5887   -0.3336   -4.6706 Cl  0  0  0  0  0  0  0  0  0  0  0  0
    0.8713    1.8554   -4.8577 C   0  0  0  0  0  0  0  0  0  0  0  0
    0.3119    3.0798   -4.4873 C   0  0  0  0  0  0  0  0  0  0  0  0
   -0.6455    3.1559   -3.4468 N   0  0  0  0  0  0  0  0  0  0  0  0
   -0.3336    2.6164   -2.2444 C   0  0  0  0  0  0  0  0  0  0  0  0
   -0.3192    3.2586   -1.0735 N   0  0  0  0  0  0  0  0  0  0  0  0
    0.1997    2.3460   -0.2209 N   0  0  0  0  0  0  0  0  0  0  0  0
    0.8677    4.2601   -5.0244 C   0  0  0  0  0  0  0  0  0  0  0  0
    1.8831    4.2055   -5.9823 C   0  0  0  0  0  0  0  0  0  0  0  0
    2.3636    3.0269   -6.3997 N   0  0  0  0  0  0  0  0  0  0  0  0
    1.8808    1.9060   -5.8117 C   0  0  0  0  0  0  0  0  0  0  0  0
    2.4254    5.3362   -6.5256 N   0  0  0  0  0  0  0  0  0  0  0  0
    2.4880    5.5107   -7.9748 C   0  0  0  0  0  0  0  0  0  0  0  0
    3.9137    5.8576   -8.4267 C   0  0  0  0  0  0  0  0  0  0  0  0
    4.4447    6.9731   -7.6875 O   0  0  0  0  0  0  0  0  0  0  0  0
    4.4814    6.6574   -6.2838 C   0  0  0  0  0  0  0  0  0  0  0  0
    3.0707    6.3728   -5.7285 C   0  0  0  0  0  0  0  0  0  0  0  0
    0.5983   -0.9768   -0.5261 H   0  0  0  0  0  0  0  0  0  0  0  0
    0.5643   -0.0618    0.9867 H   0  0  0  0  0  0  0  0  0  0  0  0
    2.0248   -0.0541   -0.0273 H   0  0  0  0  0  0  0  0  0  0  0  0
    2.1638   -0.9150   -5.8123 H   0  0  0  0  0  0  0  0  0  0  0  0
    1.6322   -2.0539   -7.9264 H   0  0  0  0  0  0  0  0  0  0  0  0
   -0.7119   -2.7041   -8.4201 H   0  0  0  0  0  0  0  0  0  0  0  0
   -2.5134   -2.1279   -6.8218 H   0  0  0  0  0  0  0  0  0  0  0  0
   -1.2159    3.9909   -3.4446 H   0  0  0  0  0  0  0  0  0  0  0  0
    0.3592    2.6266    0.7421 H   0  0  0  0  0  0  0  0  0  0  0  0
    0.5123    5.2301   -4.6945 H   0  0  0  0  0  0  0  0  0  0  0  0
    2.4033    1.0295   -6.1579 H   0  0  0  0  0  0  0  0  0  0  0  0
    1.8337    6.3588   -8.2114 H   0  0  0  0  0  0  0  0  0  0  0  0
    2.1122    4.6445   -8.5303 H   0  0  0  0  0  0  0  0  0  0  0  0
    4.5893    5.0021   -8.3138 H   0  0  0  0  0  0  0  0  0  0  0  0
    3.9070    6.1405   -9.4850 H   0  0  0  0  0  0  0  0  0  0  0  0
    4.9207    7.5161   -5.7658 H   0  0  0  0  0  0  0  0  0  0  0  0
    5.1506    5.8010   -6.1353 H   0  0  0  0  0  0  0  0  0  0  0  0
    2.4624    7.2795   -5.8152 H   0  0  0  0  0  0  0  0  0  0  0  0
    3.1430    6.1048   -4.6688 H   0  0  0  0  0  0  0  0  0  0  0  0
  1  2  1  0  0  0  0
  1 29  1  0  0  0  0
  1 30  1  0  0  0  0
  1 31  1  0  0  0  0
  2  3  2  0  0  0  0
  2 18  1  0  0  0  0
  3  4  1  0  0  0  0
  3 16  1  0  0  0  0
  4  5  2  0  0  0  0
  5  6  1  0  0  0  0
  5 13  1  0  0  0  0
  6  7  2  0  0  0  0
  6 11  1  0  0  0  0
  7  8  1  0  0  0  0
  7 32  1  0  0  0  0
  8  9  2  0  0  0  0
  8 33  1  0  0  0  0
  9 10  1  0  0  0  0
  9 34  1  0  0  0  0
 10 11  2  0  0  0  0
 10 35  1  0  0  0  0
 11 12  1  0  0  0  0
 13 14  2  0  0  0  0
 13 22  1  0  0  0  0
 14 15  1  0  0  0  0
 14 19  1  0  0  0  0
 15 16  1  0  0  0  0
 15 36  1  0  0  0  0
 16 17  2  0  0  0  0
 17 18  1  0  0  0  0
 18 37  1  0  0  0  0
 19 20  2  0  0  0  0
 19 38  1  0  0  0  0
 20 21  1  0  0  0  0
 20 23  1  0  0  0  0
 21 22  2  0  0  0  0
 22 39  1  0  0  0  0
 23 24  1  0  0  0  0
 23 28  1  0  0  0  0
 24 25  1  0  0  0  0
 24 40  1  0  0  0  0
 24 41  1  0  0  0  0
 25 26  1  0  0  0  0
 25 42  1  0  0  0  0
 25 43  1  0  0  0  0
 26 27  1  0  0  0  0
 27 28  1  0  0  0  0
 27 44  1  0  0  0  0
 27 45  1  0  0  0  0
 28 46  1  0  0  0  0
 28 47  1  0  0  0  0
M  END
>  <DRUGBANK_ID>
DB17384

>  <COMMON_NAME>
Tinengotinib

>  <CAS_NUMBER>
2230490-29-4

>  <UNII>
WZ9TJ0L9Y8

>  <SYNONYMS>
4-(5-(2-Chlorophenyl)-3-Methyl-2,10-Dihydropyrazolo[4,3-B] Pyrido[4,3-E][1,4]Diazepin-8-Yl) Morpholine; 5-(2-chlorophenyl)-3-methyl-8-(morpholin-4-yl)-1,10-dihydropyrazolo[4,3-b]pyrido[4,3-e][1,4]diazepine; Pyrazolo(4,3-b)pyrido(4,3-e)(1,4)diazepine, 5-(2-chlorophenyl)-1,2-dihydro-3-methyl-8-(4-morpholinyl)-

$$$$
