HXS
 OpenBabel10282417173D

 42 43  0  0  0  0  0  0  0  0999 V2000
   -1.0552    2.8753   -3.9007 C   0  0  0  0  0  0  0  0  0  0  0  0
    0.0607    2.1255   -4.2504 C   0  0  0  0  0  0  0  0  0  0  0  0
    0.0954    0.7539   -4.0289 C   0  0  0  0  0  0  0  0  0  0  0  0
   -1.0083    0.1172   -3.4549 C   0  0  0  0  0  0  0  0  0  0  0  0
   -2.1565    0.8532   -3.1138 C   0  0  0  0  0  0  0  0  0  0  0  0
    1.1486    2.7060   -4.8316 O   0  0  0  0  0  0  0  0  0  0  0  0
   -2.1604    2.2383   -3.3397 C   0  0  0  0  0  0  0  0  0  0  0  0
   -3.4252    0.1517   -2.6177 C   0  0  2  0  0  0  0  0  0  0  0  0
   -4.4383    0.1192   -3.7938 C   0  0  0  0  0  0  0  0  0  0  0  0
   -5.4013   -1.0642   -3.7606 C   0  0  0  0  0  0  0  0  0  0  0  0
   -3.9161    0.7554   -1.2277 C   0  0  2  0  0  0  0  0  0  0  0  0
   -3.3218    0.0351    0.0192 C   0  0  0  0  0  0  0  0  0  0  0  0
   -2.8487   -1.3935   -0.2133 C   0  0  0  0  0  0  0  0  0  0  0  0
   -5.4306    0.8815   -1.0768 C   0  0  0  0  0  0  0  0  0  0  0  0
   -6.0846    2.1100   -1.2483 C   0  0  0  0  0  0  0  0  0  0  0  0
   -7.4830    2.1690   -1.3263 C   0  0  0  0  0  0  0  0  0  0  0  0
   -8.2158    0.9832   -1.2828 C   0  0  0  0  0  0  0  0  0  0  0  0
   -9.5634    0.9569   -1.4871 O   0  0  0  0  0  0  0  0  0  0  0  0
   -7.5890   -0.2226   -1.0516 C   0  0  0  0  0  0  0  0  0  0  0  0
   -6.2091   -0.2655   -0.8640 C   0  0  0  0  0  0  0  0  0  0  0  0
   -3.1545   -0.8980   -2.4902 H   0  0  0  0  0  0  0  0  0  0  0  0
   -3.5421    1.7861   -1.1422 H   0  0  0  0  0  0  0  0  0  0  0  0
   -1.0987    3.9453   -4.0734 H   0  0  0  0  0  0  0  0  0  0  0  0
    0.9717    0.1815   -4.3202 H   0  0  0  0  0  0  0  0  0  0  0  0
   -0.9689   -0.9604   -3.3066 H   0  0  0  0  0  0  0  0  0  0  0  0
    0.9768    3.6580   -4.9186 H   0  0  0  0  0  0  0  0  0  0  0  0
   -3.0429    2.8262   -3.1014 H   0  0  0  0  0  0  0  0  0  0  0  0
   -4.9822    1.0663   -3.8635 H   0  0  0  0  0  0  0  0  0  0  0  0
   -3.8880    0.0101   -4.7379 H   0  0  0  0  0  0  0  0  0  0  0  0
   -6.1260   -0.9937   -2.9704 H   0  0  0  0  0  0  0  0  0  0  0  0
   -6.0107   -1.1012   -4.6651 H   0  0  0  0  0  0  0  0  0  0  0  0
   -4.8828   -2.0175   -3.6236 H   0  0  0  0  0  0  0  0  0  0  0  0
   -2.4742    0.6193    0.3973 H   0  0  0  0  0  0  0  0  0  0  0  0
   -4.0544    0.0262    0.8377 H   0  0  0  0  0  0  0  0  0  0  0  0
   -1.9550   -1.4035   -0.8455 H   0  0  0  0  0  0  0  0  0  0  0  0
   -2.5813   -1.8754    0.7285 H   0  0  0  0  0  0  0  0  0  0  0  0
   -3.6238   -2.0018   -0.6907 H   0  0  0  0  0  0  0  0  0  0  0  0
   -5.5140    3.0322   -1.3595 H   0  0  0  0  0  0  0  0  0  0  0  0
   -7.9712    3.1244   -1.4686 H   0  0  0  0  0  0  0  0  0  0  0  0
   -9.8912    1.8659   -1.5312 H   0  0  0  0  0  0  0  0  0  0  0  0
   -8.1489   -1.1550   -1.1044 H   0  0  0  0  0  0  0  0  0  0  0  0
   -5.7357   -1.2325   -0.7359 H   0  0  0  0  0  0  0  0  0  0  0  0
  1  2  2  0  0  0  0
  1  7  1  0  0  0  0
  1 23  1  0  0  0  0
  2  3  1  0  0  0  0
  2  6  1  0  0  0  0
  3  4  2  0  0  0  0
  3 24  1  0  0  0  0
  4  5  1  0  0  0  0
  4 25  1  0  0  0  0
  5  7  2  0  0  0  0
  6 26  1  0  0  0  0
  7 27  1  0  0  0  0
  8 21  1  1  0  0  0
  8  9  1  0  0  0  0
  8  5  1  0  0  0  0
  9 10  1  0  0  0  0
  9 28  1  0  0  0  0
  9 29  1  0  0  0  0
 10 30  1  0  0  0  0
 10 31  1  0  0  0  0
 10 32  1  0  0  0  0
 11 14  1  0  0  0  0
 11 22  1  1  0  0  0
 11 12  1  0  0  0  0
 11  8  1  0  0  0  0
 12 13  1  0  0  0  0
 12 33  1  0  0  0  0
 12 34  1  0  0  0  0
 13 35  1  0  0  0  0
 13 36  1  0  0  0  0
 13 37  1  0  0  0  0
 14 15  2  0  0  0  0
 14 20  1  0  0  0  0
 15 16  1  0  0  0  0
 15 38  1  0  0  0  0
 16 17  2  0  0  0  0
 16 39  1  0  0  0  0
 17 18  1  0  0  0  0
 17 19  1  0  0  0  0
 18 40  1  0  0  0  0
 19 20  2  0  0  0  0
 19 41  1  0  0  0  0
 20 42  1  0  0  0  0
M  END
>  <DRUGBANK_ID>
DB07931

>  <SECONDARY_ACCESSION_NUMBERS>
DB08959

>  <COMMON_NAME>
Hexestrol

>  <CAS_NUMBER>
84-16-2

>  <UNII>
10BI795R7D

>  <SYNONYMS>
4,4'-(1,2-diethylethylene)diphenol; Erythrohexestrol; Hexanoestrol; Hexestrol; Hexoestrolum; Meso-3,4-di(p-hydroxyphenyl)-n-hexane; Meso-hexestrol; Mesohexestrol; Synoestrolum

$$$$
