OVA
 OpenBabel10282417143D

 47 48  0  0  0  0  0  0  0  0999 V2000
    0.7224    1.4818   -0.3296 C   0  0  0  0  0  0  0  0  0  0  0  0
    1.4153    0.2824    0.1907 C   0  0  0  0  0  0  0  0  0  0  0  0
    0.8372   -1.1472   -0.2040 C   0  0  2  0  0  0  0  0  0  0  0  0
   -0.6526   -1.1809    0.2655 C   0  0  1  0  0  0  0  0  0  0  0  0
   -1.4237    0.2097   -0.2249 C   0  0  1  0  0  0  0  0  0  0  0  0
   -0.6555    1.4420    0.2499 C   0  0  0  0  0  0  0  0  0  0  0  0
   -1.4720    0.2671   -1.6644 O   0  0  0  0  0  0  0  0  0  0  0  0
   -2.8646    0.5597    0.3151 C   0  0  0  0  0  0  0  0  0  0  0  0
   -1.4745   -2.4312   -0.1449 C   0  0  1  0  0  0  0  0  0  0  0  0
   -1.0933   -3.8983    0.0585 C   0  0  1  0  0  0  0  0  0  0  0  0
   -2.2170   -4.8215    0.4901 C   0  0  0  0  0  0  0  0  0  0  0  0
   -2.4795   -4.6497    1.9756 C   0  0  0  0  0  0  0  0  0  0  0  0
   -3.6113   -4.1994    2.5566 C   0  0  0  0  0  0  0  0  0  0  0  0
   -2.9006   -2.1094   -0.1487 C   0  0  0  0  0  0  0  0  0  0  0  0
   -1.1092   -3.2712   -1.2399 O   0  0  0  0  0  0  0  0  0  0  0  0
   -3.6943   -3.9640    4.0398 C   0  0  0  0  0  0  0  0  0  0  0  0
   -4.8694   -3.8911    1.7950 C   0  0  0  0  0  0  0  0  0  0  0  0
    1.4969   -2.3311    0.2741 O   0  0  0  0  0  0  0  0  0  0  0  0
    2.6053   -2.0218    1.0977 C   0  0  0  0  0  0  0  0  0  0  0  0
    2.4019    0.5050    0.9269 O   0  0  0  0  0  0  0  0  0  0  0  0
   -0.6306   -1.1968    1.7116 O   0  0  0  0  0  0  0  0  0  0  0  0
    0.8855   -1.2233   -1.2986 H   0  0  0  0  0  0  0  0  0  0  0  0
   -0.1269   -4.2456    0.3878 H   0  0  0  0  0  0  0  0  0  0  0  0
    1.2321    2.3810    0.0308 H   0  0  0  0  0  0  0  0  0  0  0  0
    0.7617    1.4860   -1.4202 H   0  0  0  0  0  0  0  0  0  0  0  0
   -0.6263    1.4429    1.3490 H   0  0  0  0  0  0  0  0  0  0  0  0
   -1.1753    2.3528   -0.0662 H   0  0  0  0  0  0  0  0  0  0  0  0
   -0.6226   -0.0032   -2.0533 H   0  0  0  0  0  0  0  0  0  0  0  0
   -2.8961    0.5414    1.4083 H   0  0  0  0  0  0  0  0  0  0  0  0
   -3.1749    1.5454   -0.0491 H   0  0  0  0  0  0  0  0  0  0  0  0
   -3.7197   -0.0198   -0.0430 H   0  0  0  0  0  0  0  0  0  0  0  0
   -3.1317   -4.6503   -0.0865 H   0  0  0  0  0  0  0  0  0  0  0  0
   -1.9731   -5.8688    0.2881 H   0  0  0  0  0  0  0  0  0  0  0  0
   -1.6154   -4.8614    2.6052 H   0  0  0  0  0  0  0  0  0  0  0  0
   -3.1004   -1.7268    0.8623 H   0  0  0  0  0  0  0  0  0  0  0  0
   -3.0082   -1.4204   -0.9768 H   0  0  0  0  0  0  0  0  0  0  0  0
   -3.6578   -2.8281   -0.4137 H   0  0  0  0  0  0  0  0  0  0  0  0
   -3.9081   -2.9091    4.2474 H   0  0  0  0  0  0  0  0  0  0  0  0
   -4.4968   -4.5720    4.4682 H   0  0  0  0  0  0  0  0  0  0  0  0
   -2.7637   -4.2209    4.5557 H   0  0  0  0  0  0  0  0  0  0  0  0
   -4.7405   -3.0411    1.1375 H   0  0  0  0  0  0  0  0  0  0  0  0
   -5.1829   -4.7527    1.1999 H   0  0  0  0  0  0  0  0  0  0  0  0
   -5.6916   -3.5884    2.4467 H   0  0  0  0  0  0  0  0  0  0  0  0
    3.3063   -1.4221    0.5110 H   0  0  0  0  0  0  0  0  0  0  0  0
    2.2278   -1.5187    1.9946 H   0  0  0  0  0  0  0  0  0  0  0  0
    3.1474   -2.9104    1.4108 H   0  0  0  0  0  0  0  0  0  0  0  0
   -0.2608   -2.0661    1.9666 H   0  0  0  0  0  0  0  0  0  0  0  0
  1  2  1  0  0  0  0
  1  6  1  0  0  0  0
  1 24  1  0  0  0  0
  1 25  1  0  0  0  0
  2  3  1  0  0  0  0
  2 20  2  0  0  0  0
  3  4  1  0  0  0  0
  3 22  1  6  0  0  0
  3 18  1  0  0  0  0
  4  5  1  0  0  0  0
  4 21  1  1  0  0  0
  5  6  1  0  0  0  0
  5  7  1  6  0  0  0
  5  8  1  0  0  0  0
  6 26  1  0  0  0  0
  6 27  1  0  0  0  0
  7 28  1  0  0  0  0
  8 29  1  0  0  0  0
  8 30  1  0  0  0  0
  8 31  1  0  0  0  0
  9  4  1  0  0  0  0
  9 10  1  0  0  0  0
  9 14  1  1  0  0  0
  9 15  1  0  0  0  0
 10 15  1  0  0  0  0
 10 23  1  1  0  0  0
 10 11  1  0  0  0  0
 11 12  1  0  0  0  0
 11 32  1  0  0  0  0
 11 33  1  0  0  0  0
 12 13  2  0  0  0  0
 12 34  1  0  0  0  0
 13 16  1  0  0  0  0
 13 17  1  0  0  0  0
 14 35  1  0  0  0  0
 14 36  1  0  0  0  0
 14 37  1  0  0  0  0
 16 38  1  0  0  0  0
 16 39  1  0  0  0  0
 16 40  1  0  0  0  0
 17 41  1  0  0  0  0
 17 42  1  0  0  0  0
 17 43  1  0  0  0  0
 18 19  1  0  0  0  0
 19 44  1  0  0  0  0
 19 45  1  0  0  0  0
 19 46  1  0  0  0  0
 21 47  1  0  0  0  0
M  END
>  <DRUGBANK_ID>
DB04324

>  <SECONDARY_ACCESSION_NUMBERS>
EXPT02454

>  <COMMON_NAME>
Ovalicin

$$$$
