
 OpenBabel10282417173D

 31 30  0  0  1  0  0  0  0  0999 V2000
   -1.3962   -5.7430    1.6378 C   0  0  0  0  0  0  0  0  0  0  0  0
   -0.0844   -5.1670    2.0703 C   0  0  0  0  0  0  0  0  0  0  0  0
    0.3881   -5.4706    3.1503 O   0  0  0  0  0  0  0  0  0  0  0  0
    0.4701   -4.2117    1.2964 O   0  0  0  0  0  0  0  0  0  0  0  0
    0.2649   -3.8480   -0.1238 C   0  0  2  0  0  0  0  0  0  0  0  0
    1.1255   -2.5917   -0.2992 C   0  0  0  0  0  0  0  0  0  0  0  0
    2.4045   -3.2482   -0.7995 C   0  0  0  0  0  0  0  0  0  0  0  0
    2.6065   -3.0521   -2.0320 O   0  0  0  0  0  0  0  0  0  0  0  0
    2.9934   -4.0035    0.0108 O   0  5  0  0  0  0  0  0  0  0  0  0
   -1.2286   -3.6798   -0.3657 C   0  0  0  0  0  0  0  0  0  0  0  0
   -1.7675   -3.3498   -1.7242 N   0  3  0  0  0  0  0  0  0  0  0  0
   -1.2570   -4.3779   -2.7315 C   0  0  0  0  0  0  0  0  0  0  0  0
   -3.2893   -3.4245   -1.6271 C   0  0  0  0  0  0  0  0  0  0  0  0
   -1.3585   -1.9650   -2.1248 C   0  0  0  0  0  0  0  0  0  0  0  0
   -1.7881   -6.4198    2.3949 H   0  0  0  0  0  0  0  0  0  0  0  0
   -1.2838   -6.3115    0.7101 H   0  0  0  0  0  0  0  0  0  0  0  0
   -2.1394   -4.9400    1.5799 H   0  0  0  0  0  0  0  0  0  0  0  0
    0.6169   -4.6939   -0.7301 H   0  0  0  0  0  0  0  0  0  0  0  0
    0.8642   -1.8639   -1.0625 H   0  0  0  0  0  0  0  0  0  0  0  0
    1.2279   -2.0145    0.6235 H   0  0  0  0  0  0  0  0  0  0  0  0
   -1.6602   -4.6636   -0.2605 H   0  0  0  0  0  0  0  0  0  0  0  0
   -1.6843   -3.0256    0.3875 H   0  0  0  0  0  0  0  0  0  0  0  0
   -1.6067   -5.3699   -2.4194 H   0  0  0  0  0  0  0  0  0  0  0  0
   -1.6585   -4.1199   -3.7115 H   0  0  0  0  0  0  0  0  0  0  0  0
   -0.1651   -4.3547   -2.7447 H   0  0  0  0  0  0  0  0  0  0  0  0
   -3.6207   -2.7343   -0.8427 H   0  0  0  0  0  0  0  0  0  0  0  0
   -3.7104   -3.1473   -2.5938 H   0  0  0  0  0  0  0  0  0  0  0  0
   -3.5795   -4.4481   -1.3607 H   0  0  0  0  0  0  0  0  0  0  0  0
   -1.5330   -1.3006   -1.2705 H   0  0  0  0  0  0  0  0  0  0  0  0
   -0.3198   -2.0023   -2.4324 H   0  0  0  0  0  0  0  0  0  0  0  0
   -1.9445   -1.6601   -2.9896 H   0  0  0  0  0  0  0  0  0  0  0  0
  1  2  1  0  0  0  0
  1 15  1  0  0  0  0
  1 16  1  0  0  0  0
  1 17  1  0  0  0  0
  2  3  2  0  0  0  0
  2  4  1  0  0  0  0
  5 10  1  0  0  0  0
  5 18  1  6  0  0  0
  5  6  1  0  0  0  0
  5  4  1  0  0  0  0
  6  7  1  0  0  0  0
  6 19  1  0  0  0  0
  6 20  1  0  0  0  0
  7  8  2  0  0  0  0
  7  9  1  0  0  0  0
 10 11  1  0  0  0  0
 10 21  1  0  0  0  0
 10 22  1  0  0  0  0
 11 12  1  0  0  0  0
 11 13  1  0  0  0  0
 11 14  1  0  0  0  0
 12 23  1  0  0  0  0
 12 24  1  0  0  0  0
 12 25  1  0  0  0  0
 13 26  1  0  0  0  0
 13 27  1  0  0  0  0
 13 28  1  0  0  0  0
 14 29  1  0  0  0  0
 14 30  1  0  0  0  0
 14 31  1  0  0  0  0
M  CHG  2   9  -1  11   1
M  END
>  <DRUGBANK_ID>
DB08842

>  <COMMON_NAME>
Acetylcarnitine

>  <CAS_NUMBER>
3040-38-8

>  <UNII>
6DH1W9VH8Q

>  <SYNONYMS>
acetyl-L-carnitine; O-acetyl-L-carnitine ; O-Acetylcarnitine

$$$$
