
 OpenBabel10282417213D

 62 66  0  0  1  0  0  0  0  0999 V2000
    0.9147   -0.0819    0.0701 C   0  0  0  0  0  0  0  0  0  0  0  0
    0.5406    1.3697    0.0714 C   0  0  0  0  0  0  0  0  0  0  0  0
    1.4563    2.3515   -0.0364 C   0  0  0  0  0  0  0  0  0  0  0  0
    1.0791    3.8286   -0.1203 C   0  0  1  0  0  0  0  0  0  0  0  0
   -0.3708    4.1014    0.0462 O   0  0  0  0  0  0  0  0  0  0  0  0
   -1.2698    3.0712    0.1860 C   0  0  0  0  0  0  0  0  0  0  0  0
   -2.6386    3.3996    0.3425 C   0  0  0  0  0  0  0  0  0  0  0  0
   -3.6217    2.3985    0.4592 C   0  0  0  0  0  0  0  0  0  0  0  0
   -3.2297    1.0710    0.4226 C   0  0  0  0  0  0  0  0  0  0  0  0
   -4.1150    0.0370    0.5202 O   0  0  0  0  0  0  0  0  0  0  0  0
   -1.8845    0.7426    0.2853 C   0  0  0  0  0  0  0  0  0  0  0  0
   -0.8843    1.7310    0.1764 C   0  0  0  0  0  0  0  0  0  0  0  0
    1.8994    4.6493    0.8740 C   0  0  0  0  0  0  0  0  0  0  0  0
    3.2832    4.8492    0.9394 C   0  0  0  0  0  0  0  0  0  0  0  0
    3.9121    5.0912    2.2055 C   0  0  0  0  0  0  0  0  0  0  0  0
    3.1736    5.5586    3.2542 C   0  0  0  0  0  0  0  0  0  0  0  0
    3.7500    5.7683    4.4687 O   0  0  0  0  0  0  0  0  0  0  0  0
    3.0005    6.0460    5.6948 C   0  0  0  0  0  0  0  0  0  0  0  0
    2.1029    7.3012    5.6553 C   0  0  0  0  0  0  0  0  0  0  0  0
    0.9578    7.0152    4.8501 N   0  0  0  0  0  0  0  0  0  0  0  0
   -0.3499    7.6426    4.8657 C   0  0  0  0  0  0  0  0  0  0  0  0
   -0.7817    6.3809    4.0319 C   0  0  3  0  0  0  0  0  0  0  0  0
   -1.9580    5.4697    4.0390 C   0  0  0  0  0  0  0  0  0  0  0  0
   -3.0309    6.1724    3.6083 F   0  0  0  0  0  0  0  0  0  0  0  0
    0.3427    5.6839    4.8676 C   0  0  0  0  0  0  0  0  0  0  0  0
    2.0151    6.0172    2.7414 C   0  0  0  0  0  0  0  0  0  0  0  0
    1.2445    5.2420    1.9018 C   0  0  0  0  0  0  0  0  0  0  0  0
    2.9017    1.9984   -0.1515 C   0  0  0  0  0  0  0  0  0  0  0  0
    3.8364    2.2171    0.8797 C   0  0  0  0  0  0  0  0  0  0  0  0
    5.1948    2.2719    0.5622 C   0  0  0  0  0  0  0  0  0  0  0  0
    6.1490    2.8889    1.3172 O   0  0  0  0  0  0  0  0  0  0  0  0
    5.6410    1.7470   -0.6297 C   0  0  0  0  0  0  0  0  0  0  0  0
    4.7246    1.2045   -1.5185 C   0  0  0  0  0  0  0  0  0  0  0  0
    3.3633    1.4290   -1.3364 C   0  0  0  0  0  0  0  0  0  0  0  0
    0.5590   -0.5460   -0.8549 H   0  0  0  0  0  0  0  0  0  0  0  0
    0.5101   -0.5937    0.9444 H   0  0  0  0  0  0  0  0  0  0  0  0
    1.9918   -0.2497    0.1140 H   0  0  0  0  0  0  0  0  0  0  0  0
    1.2958    4.2257   -1.1201 H   0  0  0  0  0  0  0  0  0  0  0  0
   -2.9599    4.4399    0.3747 H   0  0  0  0  0  0  0  0  0  0  0  0
   -4.6702    2.6664    0.5694 H   0  0  0  0  0  0  0  0  0  0  0  0
   -5.0176    0.3839    0.6080 H   0  0  0  0  0  0  0  0  0  0  0  0
   -1.6332   -0.3133    0.2651 H   0  0  0  0  0  0  0  0  0  0  0  0
    3.9091    4.6168    0.0811 H   0  0  0  0  0  0  0  0  0  0  0  0
    4.9642    4.9656    2.3810 H   0  0  0  0  0  0  0  0  0  0  0  0
    2.4479    5.1635    6.0560 H   0  0  0  0  0  0  0  0  0  0  0  0
    3.7507    6.2087    6.4827 H   0  0  0  0  0  0  0  0  0  0  0  0
    1.8158    7.6578    6.6458 H   0  0  0  0  0  0  0  0  0  0  0  0
    2.7070    8.0899    5.1799 H   0  0  0  0  0  0  0  0  0  0  0  0
   -0.8136    7.7300    5.8421 H   0  0  0  0  0  0  0  0  0  0  0  0
   -0.4142    8.5700    4.2876 H   0  0  0  0  0  0  0  0  0  0  0  0
   -0.5921    6.6405    2.9757 H   0  0  0  0  0  0  0  0  0  0  0  0
   -1.7969    4.6279    3.3497 H   0  0  0  0  0  0  0  0  0  0  0  0
   -2.1464    5.0741    5.0360 H   0  0  0  0  0  0  0  0  0  0  0  0
    0.8330    4.8382    4.3663 H   0  0  0  0  0  0  0  0  0  0  0  0
    0.1109    5.3005    5.8613 H   0  0  0  0  0  0  0  0  0  0  0  0
    1.6674    7.0205    2.9330 H   0  0  0  0  0  0  0  0  0  0  0  0
    0.1721    5.2036    1.9409 H   0  0  0  0  0  0  0  0  0  0  0  0
    3.4815    2.5218    1.8625 H   0  0  0  0  0  0  0  0  0  0  0  0
    5.7486    3.3196    2.0842 H   0  0  0  0  0  0  0  0  0  0  0  0
    6.7036    1.7528   -0.8432 H   0  0  0  0  0  0  0  0  0  0  0  0
    5.0754    0.6383   -2.3706 H   0  0  0  0  0  0  0  0  0  0  0  0
    2.6558    1.1195   -2.1001 H   0  0  0  0  0  0  0  0  0  0  0  0
  1  2  1  0  0  0  0
  1 35  1  0  0  0  0
  1 36  1  0  0  0  0
  1 37  1  0  0  0  0
  2  3  2  0  0  0  0
  2 12  1  0  0  0  0
  3 28  1  0  0  0  0
  4  3  1  0  0  0  0
  4  5  1  0  0  0  0
  4 38  1  6  0  0  0
  4 13  1  0  0  0  0
  5  6  1  0  0  0  0
  6  7  2  0  0  0  0
  6 12  1  0  0  0  0
  7  8  1  0  0  0  0
  7 39  1  0  0  0  0
  8  9  2  0  0  0  0
  8 40  1  0  0  0  0
  9 10  1  0  0  0  0
  9 11  1  0  0  0  0
 10 41  1  0  0  0  0
 11 12  2  0  0  0  0
 11 42  1  0  0  0  0
 13 14  2  0  0  0  0
 13 27  1  0  0  0  0
 14 15  1  0  0  0  0
 14 43  1  0  0  0  0
 15 16  2  0  0  0  0
 15 44  1  0  0  0  0
 16 17  1  0  0  0  0
 16 26  1  0  0  0  0
 17 18  1  0  0  0  0
 18 19  1  0  0  0  0
 18 45  1  0  0  0  0
 18 46  1  0  0  0  0
 19 20  1  0  0  0  0
 19 47  1  0  0  0  0
 19 48  1  0  0  0  0
 20 21  1  0  0  0  0
 20 25  1  0  0  0  0
 21 22  1  0  0  0  0
 21 49  1  0  0  0  0
 21 50  1  0  0  0  0
 22 23  1  0  0  0  0
 22 25  1  0  0  0  0
 22 51  1  0  0  0  0
 23 24  1  0  0  0  0
 23 52  1  0  0  0  0
 23 53  1  0  0  0  0
 25 54  1  0  0  0  0
 25 55  1  0  0  0  0
 26 27  2  0  0  0  0
 26 56  1  0  0  0  0
 27 57  1  0  0  0  0
 28 29  2  0  0  0  0
 28 34  1  0  0  0  0
 29 30  1  0  0  0  0
 29 58  1  0  0  0  0
 30 31  1  0  0  0  0
 30 32  2  0  0  0  0
 31 59  1  0  0  0  0
 32 33  1  0  0  0  0
 32 60  1  0  0  0  0
 33 34  2  0  0  0  0
 33 61  1  0  0  0  0
 34 62  1  0  0  0  0
M  END
>  <DRUGBANK_ID>
DB14934

>  <COMMON_NAME>
GDC-0927

>  <CAS_NUMBER>
2100830-77-9

>  <UNII>
ST9B0EMC0H

$$$$
