
 OpenBabel10282417213D

 30 32  0  0  0  0  0  0  0  0999 V2000
   -0.2273    0.7221    0.1865 C   0  0  0  0  0  0  0  0  0  0  0  0
    2.1902    1.2116    0.0061 N   0  0  0  0  0  0  0  0  0  0  0  0
    1.0150    1.5030    0.4504 C   0  0  0  0  0  0  0  0  0  0  0  0
    0.8655   -1.4850    0.4573 N   0  0  0  0  0  0  0  0  0  0  0  0
   -0.2583   -0.6813    0.2237 C   0  0  0  0  0  0  0  0  0  0  0  0
    2.1401   -1.2377    0.0216 C   0  0  0  0  0  0  0  0  0  0  0  0
   -1.4146    1.4381   -0.0332 C   0  0  0  0  0  0  0  0  0  0  0  0
    2.3732    0.0127   -0.8098 C   0  0  0  0  0  0  0  0  0  0  0  0
    0.9036    2.7059    1.3237 C   0  0  0  0  0  0  0  0  0  0  0  0
   -1.4756   -1.3494    0.0357 C   0  0  0  0  0  0  0  0  0  0  0  0
    3.0173   -2.0864    0.2174 O   0  0  0  0  0  0  0  0  0  0  0  0
   -2.6109    0.7591   -0.2415 C   0  0  0  0  0  0  0  0  0  0  0  0
   -2.6453   -0.6312   -0.2206 C   0  0  0  0  0  0  0  0  0  0  0  0
   -4.0548    1.6489   -0.5217 Cl  0  0  0  0  0  0  0  0  0  0  0  0
    1.3446    3.9507    0.8661 C   0  0  0  0  0  0  0  0  0  0  0  0
    0.3963    2.5668    2.6196 C   0  0  0  0  0  0  0  0  0  0  0  0
    0.3377    3.6770    3.4609 C   0  0  0  0  0  0  0  0  0  0  0  0
    1.3657    5.0364    1.7437 C   0  0  0  0  0  0  0  0  0  0  0  0
    0.8694    4.8966    3.0412 C   0  0  0  0  0  0  0  0  0  0  0  0
    0.7438   -2.4204    0.8262 H   0  0  0  0  0  0  0  0  0  0  0  0
   -1.4125    2.5255   -0.0423 H   0  0  0  0  0  0  0  0  0  0  0  0
    1.7311    0.0093   -1.6988 H   0  0  0  0  0  0  0  0  0  0  0  0
    3.4073   -0.0129   -1.1709 H   0  0  0  0  0  0  0  0  0  0  0  0
   -1.5163   -2.4370    0.0297 H   0  0  0  0  0  0  0  0  0  0  0  0
   -3.5753   -1.1619   -0.4090 H   0  0  0  0  0  0  0  0  0  0  0  0
    1.6790    4.0749   -0.1605 H   0  0  0  0  0  0  0  0  0  0  0  0
    0.0704    1.5978    2.9866 H   0  0  0  0  0  0  0  0  0  0  0  0
   -0.1005    3.5864    4.4513 H   0  0  0  0  0  0  0  0  0  0  0  0
    1.7767    5.9901    1.4216 H   0  0  0  0  0  0  0  0  0  0  0  0
    0.9018    5.7385    3.7289 H   0  0  0  0  0  0  0  0  0  0  0  0
  2  3  2  0  0  0  0
  3  1  1  0  0  0  0
  4  5  1  0  0  0  0
  4 20  1  0  0  0  0
  5  1  1  0  0  0  0
  6  4  1  0  0  0  0
  7  1  2  0  0  0  0
  7 21  1  0  0  0  0
  8  2  1  0  0  0  0
  8  6  1  0  0  0  0
  8 22  1  0  0  0  0
  8 23  1  0  0  0  0
  9  3  1  0  0  0  0
 10  5  2  0  0  0  0
 10 13  1  0  0  0  0
 10 24  1  0  0  0  0
 11  6  2  0  0  0  0
 12  7  1  0  0  0  0
 13 12  2  0  0  0  0
 13 25  1  0  0  0  0
 14 12  1  0  0  0  0
 15  9  1  0  0  0  0
 15 26  1  0  0  0  0
 16  9  2  0  0  0  0
 16 27  1  0  0  0  0
 17 16  1  0  0  0  0
 17 28  1  0  0  0  0
 18 15  2  0  0  0  0
 18 19  1  0  0  0  0
 18 29  1  0  0  0  0
 19 17  2  0  0  0  0
 19 30  1  0  0  0  0
M  END
>  <DRUGBANK_ID>
DB14028

>  <COMMON_NAME>
Nordazepam

>  <CAS_NUMBER>
1088-11-5

>  <UNII>
67220MCM01

>  <SYNONYMS>
Desmethyldiazepam; N-desmethyldiazepam; Nordazepam; Nordazepam CIV; Nordazepamum; Nordiazepam

$$$$
