BP3
 OpenBabel10282417123D

 24 25  0  0  0  0  0  0  0  0999 V2000
   -0.7084   -1.4071   -0.0260 C   0  0  0  0  0  0  0  0  0  0  0  0
    0.4953   -0.6794   -0.0529 C   0  0  0  0  0  0  0  0  0  0  0  0
    1.7385   -1.2640   -0.0980 O   0  0  0  0  0  0  0  0  0  0  0  0
    0.4874    0.7177   -0.0283 C   0  0  0  0  0  0  0  0  0  0  0  0
    1.6670    1.4087   -0.0205 O   0  0  0  0  0  0  0  0  0  0  0  0
   -0.7018    1.4253    0.0011 C   0  0  0  0  0  0  0  0  0  0  0  0
   -1.9075    0.7295   -0.0073 C   0  0  0  0  0  0  0  0  0  0  0  0
   -1.9106   -0.6719   -0.0231 C   0  0  0  0  0  0  0  0  0  0  0  0
   -0.7554   -2.8826    0.0269 C   0  0  0  0  0  0  0  0  0  0  0  0
   -0.2220   -3.6222    1.1031 C   0  0  0  0  0  0  0  0  0  0  0  0
   -0.2458   -5.0198    1.0997 C   0  0  0  0  0  0  0  0  0  0  0  0
   -0.8229   -5.7070    0.0356 C   0  0  0  0  0  0  0  0  0  0  0  0
   -1.3818   -4.9997   -1.0245 C   0  0  0  0  0  0  0  0  0  0  0  0
   -1.3504   -3.6010   -1.0289 C   0  0  0  0  0  0  0  0  0  0  0  0
    0.5019   -2.8600    2.4799 Cl  0  0  0  0  0  0  0  0  0  0  0  0
    1.6274   -2.2272   -0.0186 H   0  0  0  0  0  0  0  0  0  0  0  0
    2.3574    0.7161   -0.0260 H   0  0  0  0  0  0  0  0  0  0  0  0
   -0.6867    2.5106    0.0320 H   0  0  0  0  0  0  0  0  0  0  0  0
   -2.8468    1.2755    0.0120 H   0  0  0  0  0  0  0  0  0  0  0  0
   -2.8693   -1.1884   -0.0110 H   0  0  0  0  0  0  0  0  0  0  0  0
    0.1858   -5.5748    1.9287 H   0  0  0  0  0  0  0  0  0  0  0  0
   -0.8394   -6.7942    0.0385 H   0  0  0  0  0  0  0  0  0  0  0  0
   -1.8391   -5.5363   -1.8530 H   0  0  0  0  0  0  0  0  0  0  0  0
   -1.7895   -3.0724   -1.8744 H   0  0  0  0  0  0  0  0  0  0  0  0
  1  2  2  0  0  0  0
  1  8  1  0  0  0  0
  1  9  1  0  0  0  0
  2  3  1  0  0  0  0
  2  4  1  0  0  0  0
  3 16  1  0  0  0  0
  4  5  1  0  0  0  0
  4  6  2  0  0  0  0
  5 17  1  0  0  0  0
  6  7  1  0  0  0  0
  6 18  1  0  0  0  0
  7  8  2  0  0  0  0
  7 19  1  0  0  0  0
  8 20  1  0  0  0  0
  9 10  2  0  0  0  0
  9 14  1  0  0  0  0
 10 11  1  0  0  0  0
 10 15  1  0  0  0  0
 11 12  2  0  0  0  0
 11 21  1  0  0  0  0
 12 13  1  0  0  0  0
 12 22  1  0  0  0  0
 13 14  2  0  0  0  0
 13 23  1  0  0  0  0
 14 24  1  0  0  0  0
M  END
>  <DRUGBANK_ID>
DB01925

>  <SECONDARY_ACCESSION_NUMBERS>
EXPT00742

>  <COMMON_NAME>
2'-Chloro-Biphenyl-2,3-Diol

>  <UNII>
1L6MBD62DN

$$$$
