
 OpenBabel10282417223D

 26 27  0  0  0  0  0  0  0  0999 V2000
   -1.2238    0.0170    1.0105 C   0  0  0  0  0  0  0  0  0  0  0  0
   -0.6050   -1.0498   -0.0029 C   0  0  3  0  0  0  0  0  0  0  0  0
   -0.5971    1.0731   -0.0100 C   0  0  3  0  0  0  0  0  0  0  0  0
    0.8931    1.2206    0.1861 C   0  0  0  0  0  0  0  0  0  0  0  0
    0.9136   -1.2777    0.1872 C   0  0  0  0  0  0  0  0  0  0  0  0
    1.6969   -0.0022   -0.1878 C   0  0  0  0  0  0  0  0  0  0  0  0
   -2.7573    0.0127    1.1490 C   0  0  0  0  0  0  0  0  0  0  0  0
   -0.6687    0.0376    2.4409 C   0  0  0  0  0  0  0  0  0  0  0  0
    1.3953    2.3077    0.7955 C   0  0  0  0  0  0  0  0  0  0  0  0
   -0.9096    0.0041   -1.1228 C   0  0  0  0  0  0  0  0  0  0  0  0
   -1.1538   -1.9926   -0.0930 H   0  0  0  0  0  0  0  0  0  0  0  0
   -1.1292    2.0226   -0.1264 H   0  0  0  0  0  0  0  0  0  0  0  0
    1.2609   -2.1202   -0.4190 H   0  0  0  0  0  0  0  0  0  0  0  0
    1.1207   -1.5591    1.2261 H   0  0  0  0  0  0  0  0  0  0  0  0
    2.6924   -0.0109    0.2671 H   0  0  0  0  0  0  0  0  0  0  0  0
    1.8496    0.0115   -1.2748 H   0  0  0  0  0  0  0  0  0  0  0  0
   -3.0811   -0.8747    1.7075 H   0  0  0  0  0  0  0  0  0  0  0  0
   -3.0853    0.8904    1.7190 H   0  0  0  0  0  0  0  0  0  0  0  0
   -3.2952    0.0147    0.1989 H   0  0  0  0  0  0  0  0  0  0  0  0
    0.4143   -0.0765    2.5010 H   0  0  0  0  0  0  0  0  0  0  0  0
   -0.9138    0.9892    2.9235 H   0  0  0  0  0  0  0  0  0  0  0  0
   -1.1090   -0.7723    3.0324 H   0  0  0  0  0  0  0  0  0  0  0  0
    0.7646    3.1290    1.1165 H   0  0  0  0  0  0  0  0  0  0  0  0
    2.4552    2.3825    1.0150 H   0  0  0  0  0  0  0  0  0  0  0  0
   -0.2613   -0.0047   -2.0070 H   0  0  0  0  0  0  0  0  0  0  0  0
   -1.9375    0.0098   -1.5024 H   0  0  0  0  0  0  0  0  0  0  0  0
  1  7  1  0  0  0  0
  1  8  1  0  0  0  0
  1  2  1  0  0  0  0
  2  5  1  0  0  0  0
  2 11  1  0  0  0  0
  3  1  1  0  0  0  0
  3  4  1  0  0  0  0
  3 12  1  0  0  0  0
  4  9  2  0  0  0  0
  4  6  1  0  0  0  0
  5 13  1  0  0  0  0
  5 14  1  0  0  0  0
  6  5  1  0  0  0  0
  6 15  1  0  0  0  0
  6 16  1  0  0  0  0
  7 17  1  0  0  0  0
  7 18  1  0  0  0  0
  7 19  1  0  0  0  0
  8 20  1  0  0  0  0
  8 21  1  0  0  0  0
  8 22  1  0  0  0  0
  9 23  1  0  0  0  0
  9 24  1  0  0  0  0
 10  3  1  0  0  0  0
 10  2  1  0  0  0  0
 10 25  1  0  0  0  0
 10 26  1  0  0  0  0
M  END
>  <DRUGBANK_ID>
DB15574

>  <COMMON_NAME>
beta-Pinene

>  <CAS_NUMBER>
127-91-3

>  <UNII>
4MS8VHZ1HJ

>  <SYNONYMS>
2(10)-pinene; nopinene; pseudopinene; Î²-pinene

$$$$
