
 OpenBabel10282417223D

 47 53  0  0  0  0  0  0  0  0999 V2000
    0.6334   -0.8414    0.2281 C   0  0  1  0  0  0  0  0  0  0  0  0
   -0.1568    0.4966    0.3599 C   0  0  2  0  0  0  0  0  0  0  0  0
    0.0934   -1.8470   -0.8195 C   0  0  1  0  0  0  0  0  0  0  0  0
    2.0289   -0.3304   -0.0115 C   0  0  0  0  0  0  0  0  0  0  0  0
    0.6437   -1.6434    1.5566 C   0  0  0  0  0  0  0  0  0  0  0  0
   -1.0600    0.8521   -0.8188 C   0  0  1  0  0  0  0  0  0  0  0  0
    0.8248    1.5697    0.4578 N   0  0  0  0  0  0  0  0  0  0  0  0
   -0.6598   -2.8327   -0.0199 N   0  0  3  0  0  0  0  0  0  0  0  0
   -0.7935   -1.2947   -1.9214 C   0  0  0  0  0  0  0  0  0  0  0  0
    2.1057    1.0461    0.2226 C   0  0  0  0  0  0  0  0  0  0  0  0
    3.1586   -1.0818   -0.3124 C   0  0  0  0  0  0  0  0  0  0  0  0
    0.2108   -3.0443    1.1476 C   0  0  0  0  0  0  0  0  0  0  0  0
   -1.8300   -0.3874   -1.2904 C   0  0  1  0  0  0  0  0  0  0  0  0
   -1.8872    2.0839   -0.4298 C   0  0  2  0  0  0  0  0  0  0  0  0
    0.4569    2.8924    0.5258 C   0  0  0  0  0  0  0  0  0  0  0  0
   -2.0043   -2.3929    0.4002 C   0  0  0  0  0  0  0  0  0  0  0  0
    3.3177    1.7025    0.1497 C   0  0  0  0  0  0  0  0  0  0  0  0
    4.3851   -0.4307   -0.3728 C   0  0  0  0  0  0  0  0  0  0  0  0
   -2.5372   -1.0852   -0.1475 C   0  0  0  0  0  0  0  0  0  0  0  0
   -0.9744    3.2250    0.0741 C   0  0  0  0  0  0  0  0  0  0  0  0
   -2.8895    1.8312    0.5675 O   0  0  0  0  0  0  0  0  0  0  0  0
    1.2259    3.8103    0.8300 O   0  0  0  0  0  0  0  0  0  0  0  0
    4.4638    0.9502   -0.1383 C   0  0  0  0  0  0  0  0  0  0  0  0
   -3.5272   -0.4390    0.4983 C   0  0  0  0  0  0  0  0  0  0  0  0
   -3.9321    0.9517    0.1394 C   0  0  0  0  0  0  0  0  0  0  0  0
    0.9196   -2.3722   -1.3153 H   0  0  0  0  0  0  0  0  0  0  0  0
   -0.4320    1.1864   -1.6600 H   0  0  0  0  0  0  0  0  0  0  0  0
   -2.5533   -0.1043   -2.0647 H   0  0  0  0  0  0  0  0  0  0  0  0
   -2.4138    2.4542   -1.3202 H   0  0  0  0  0  0  0  0  0  0  0  0
   -0.7359    0.5155    1.2931 H   0  0  0  0  0  0  0  0  0  0  0  0
   -0.0699   -1.2370    2.2824 H   0  0  0  0  0  0  0  0  0  0  0  0
    1.6186   -1.6736    2.0568 H   0  0  0  0  0  0  0  0  0  0  0  0
   -0.1926   -0.7411   -2.6550 H   0  0  0  0  0  0  0  0  0  0  0  0
   -1.2815   -2.1035   -2.4794 H   0  0  0  0  0  0  0  0  0  0  0  0
    3.0992   -2.1556   -0.4649 H   0  0  0  0  0  0  0  0  0  0  0  0
   -0.2803   -3.5925    1.9581 H   0  0  0  0  0  0  0  0  0  0  0  0
    1.0849   -3.6380    0.8493 H   0  0  0  0  0  0  0  0  0  0  0  0
   -2.0380   -2.3104    1.4967 H   0  0  0  0  0  0  0  0  0  0  0  0
   -2.7046   -3.1946    0.1447 H   0  0  0  0  0  0  0  0  0  0  0  0
    3.3953    2.7702    0.3221 H   0  0  0  0  0  0  0  0  0  0  0  0
    5.2860   -1.0005   -0.5866 H   0  0  0  0  0  0  0  0  0  0  0  0
   -0.8328    3.9110   -0.7738 H   0  0  0  0  0  0  0  0  0  0  0  0
   -1.4621    3.7882    0.8767 H   0  0  0  0  0  0  0  0  0  0  0  0
    5.4324    1.4417   -0.1750 H   0  0  0  0  0  0  0  0  0  0  0  0
   -4.0060   -0.8875    1.3655 H   0  0  0  0  0  0  0  0  0  0  0  0
   -4.1483    1.0573   -0.9302 H   0  0  0  0  0  0  0  0  0  0  0  0
   -4.8486    1.2128    0.6760 H   0  0  0  0  0  0  0  0  0  0  0  0
  1  2  1  0  0  0  0
  1  3  1  0  0  0  0
  1  4  1  6  0  0  0
  1  5  1  0  0  0  0
  2  6  1  0  0  0  0
  2  7  1  0  0  0  0
  2 30  1  1  0  0  0
  3  8  1  0  0  0  0
  3  9  1  0  0  0  0
  3 26  1  6  0  0  0
  4 10  1  0  0  0  0
  4 11  2  0  0  0  0
  5 12  1  0  0  0  0
  5 31  1  0  0  0  0
  5 32  1  0  0  0  0
  6 13  1  0  0  0  0
  6 14  1  0  0  0  0
  6 27  1  6  0  0  0
  7 15  1  0  0  0  0
  7 10  1  0  0  0  0
  8 16  1  0  0  0  0
  8 12  1  0  0  0  0
  9 13  1  0  0  0  0
  9 33  1  0  0  0  0
  9 34  1  0  0  0  0
 10 17  2  0  0  0  0
 11 18  1  0  0  0  0
 11 35  1  0  0  0  0
 12 36  1  0  0  0  0
 12 37  1  0  0  0  0
 13 19  1  0  0  0  0
 13 28  1  6  0  0  0
 14 20  1  0  0  0  0
 14 21  1  0  0  0  0
 14 29  1  6  0  0  0
 15 22  2  0  0  0  0
 15 20  1  0  0  0  0
 16 19  1  0  0  0  0
 16 38  1  0  0  0  0
 16 39  1  0  0  0  0
 17 23  1  0  0  0  0
 17 40  1  0  0  0  0
 18 23  2  0  0  0  0
 18 41  1  0  0  0  0
 19 24  2  0  0  0  0
 20 42  1  0  0  0  0
 20 43  1  0  0  0  0
 21 25  1  0  0  0  0
 23 44  1  0  0  0  0
 24 25  1  0  0  0  0
 24 45  1  0  0  0  0
 25 46  1  0  0  0  0
 25 47  1  0  0  0  0
M  END
>  <DRUGBANK_ID>
DB15954

>  <COMMON_NAME>
Strychnine

>  <CAS_NUMBER>
57-24-9

>  <UNII>
H9Y79VD43J

>  <SYNONYMS>
Stricnina; Strychnidin-10-one; Strychnin

$$$$
