UIN
 OpenBabel10282417173D

 47 49  0  0  0  0  0  0  0  0999 V2000
    5.1130    0.0760    0.0429 C   0  0  0  0  0  0  0  0  0  0  0  0
    6.1627   -0.8455   -0.4844 C   0  0  0  0  0  0  0  0  0  0  0  0
    6.2990   -1.9699   -0.0378 O   0  0  0  0  0  0  0  0  0  0  0  0
    7.0257   -0.3424   -1.4433 O   0  0  0  0  0  0  0  0  0  0  0  0
    6.8873    0.9787   -1.9347 C   0  0  0  0  0  0  0  0  0  0  0  0
    5.9754    1.8192   -1.4194 C   0  0  0  0  0  0  0  0  0  0  0  0
    5.2154    1.3668   -0.2993 C   0  0  0  0  0  0  0  0  0  0  0  0
    4.6864    2.3807    0.4647 O   0  0  0  0  0  0  0  0  0  0  0  0
    2.6200   -0.2219    0.4473 C   0  0  0  0  0  0  0  0  0  0  0  0
    1.6555   -1.2223    0.3499 C   0  0  0  0  0  0  0  0  0  0  0  0
    0.3648   -0.9095   -0.1185 C   0  0  0  0  0  0  0  0  0  0  0  0
    0.0317    0.3795   -0.5495 C   0  0  0  0  0  0  0  0  0  0  0  0
    0.9659    1.3781   -0.4580 C   0  0  0  0  0  0  0  0  0  0  0  0
    2.1885    1.0665    0.1029 C   0  0  0  0  0  0  0  0  0  0  0  0
    4.0486   -0.4846    0.9836 C   0  0  2  0  0  0  0  0  0  0  0  0
    4.2369    0.0505    2.4165 C   0  0  0  0  0  0  0  0  0  0  0  0
    3.2054   -0.5091    3.3816 C   0  0  0  0  0  0  0  0  0  0  0  0
    7.9305    1.4841   -2.8959 C   0  0  0  0  0  0  0  0  0  0  0  0
    9.3230    1.7867   -2.3146 C   0  0  0  0  0  0  0  0  0  0  0  0
    9.4571    2.5980   -0.9998 C   0  0  0  0  0  0  0  0  0  0  0  0
    8.1749    3.0614   -0.3156 C   0  0  0  0  0  0  0  0  0  0  0  0
    7.3030    3.9344   -1.2513 C   0  0  0  0  0  0  0  0  0  0  0  0
    5.9941    3.2911   -1.7364 C   0  0  0  0  0  0  0  0  0  0  0  0
    4.1687   -1.5772    1.0306 H   0  0  0  0  0  0  0  0  0  0  0  0
    4.1966    2.9738   -0.1314 H   0  0  0  0  0  0  0  0  0  0  0  0
    1.8724   -2.2351    0.6820 H   0  0  0  0  0  0  0  0  0  0  0  0
   -0.4006   -1.6778   -0.1395 H   0  0  0  0  0  0  0  0  0  0  0  0
   -0.9587    0.6262   -0.9131 H   0  0  0  0  0  0  0  0  0  0  0  0
    0.7691    2.4059   -0.7487 H   0  0  0  0  0  0  0  0  0  0  0  0
    2.7650    1.9289    0.3267 H   0  0  0  0  0  0  0  0  0  0  0  0
    5.2432   -0.2024    2.7765 H   0  0  0  0  0  0  0  0  0  0  0  0
    4.1631    1.1420    2.4448 H   0  0  0  0  0  0  0  0  0  0  0  0
    3.2777   -1.5988    3.4358 H   0  0  0  0  0  0  0  0  0  0  0  0
    3.3588   -0.0924    4.3798 H   0  0  0  0  0  0  0  0  0  0  0  0
    2.1903   -0.2430    3.0720 H   0  0  0  0  0  0  0  0  0  0  0  0
    7.9849    0.8260   -3.7662 H   0  0  0  0  0  0  0  0  0  0  0  0
    7.5939    2.4262   -3.3393 H   0  0  0  0  0  0  0  0  0  0  0  0
    9.8634    2.3543   -3.0866 H   0  0  0  0  0  0  0  0  0  0  0  0
    9.8765    0.8466   -2.2111 H   0  0  0  0  0  0  0  0  0  0  0  0
   10.0745    3.4871   -1.1833 H   0  0  0  0  0  0  0  0  0  0  0  0
   10.0271    1.9921   -0.2831 H   0  0  0  0  0  0  0  0  0  0  0  0
    7.6951    2.1646    0.0839 H   0  0  0  0  0  0  0  0  0  0  0  0
    8.3869    3.6183    0.6020 H   0  0  0  0  0  0  0  0  0  0  0  0
    7.0570    4.8702   -0.7400 H   0  0  0  0  0  0  0  0  0  0  0  0
    7.8766    4.2416   -2.1342 H   0  0  0  0  0  0  0  0  0  0  0  0
    5.1711    3.8647   -1.3039 H   0  0  0  0  0  0  0  0  0  0  0  0
    5.8194    3.4304   -2.8112 H   0  0  0  0  0  0  0  0  0  0  0  0
  1  2  1  0  0  0  0
  1  7  2  0  0  0  0
  2  3  2  0  0  0  0
  2  4  1  0  0  0  0
  4  5  1  0  0  0  0
  5  6  2  0  0  0  0
  5 18  1  0  0  0  0
  6  7  1  0  0  0  0
  6 23  1  0  0  0  0
  7  8  1  0  0  0  0
  8 25  1  0  0  0  0
  9 10  2  0  0  0  0
  9 14  1  0  0  0  0
 10 11  1  0  0  0  0
 10 26  1  0  0  0  0
 11 12  2  0  0  0  0
 11 27  1  0  0  0  0
 12 13  1  0  0  0  0
 12 28  1  0  0  0  0
 13 14  2  0  0  0  0
 13 29  1  0  0  0  0
 14 30  1  0  0  0  0
 15 16  1  0  0  0  0
 15 24  1  1  0  0  0
 15  9  1  0  0  0  0
 15  1  1  0  0  0  0
 16 17  1  0  0  0  0
 16 31  1  0  0  0  0
 16 32  1  0  0  0  0
 17 33  1  0  0  0  0
 17 34  1  0  0  0  0
 17 35  1  0  0  0  0
 18 19  1  0  0  0  0
 18 36  1  0  0  0  0
 18 37  1  0  0  0  0
 19 20  1  0  0  0  0
 19 38  1  0  0  0  0
 19 39  1  0  0  0  0
 20 21  1  0  0  0  0
 20 40  1  0  0  0  0
 20 41  1  0  0  0  0
 21 22  1  0  0  0  0
 21 42  1  0  0  0  0
 21 43  1  0  0  0  0
 22 23  1  0  0  0  0
 22 44  1  0  0  0  0
 22 45  1  0  0  0  0
 23 46  1  0  0  0  0
 23 47  1  0  0  0  0
M  END
>  <DRUGBANK_ID>
DB08686

>  <COMMON_NAME>
5,6,7,8,9,10-HEXAHYDRO-4-HYDROXY-3-(1-PHENYLPROPYL)CYCLOOCTA[B]PYRAN-2-ONE

$$$$
