
 OpenBabel10282417123D

 92 97  0  0  0  0  0  0  0  0999 V2000
    3.4662   -6.0707    7.0009 C   0  0  0  0  0  0  0  0  0  0  0  0
    2.2715   -5.7678    6.3595 C   0  0  0  0  0  0  0  0  0  0  0  0
    3.6773   -5.6334    8.2999 C   0  0  0  0  0  0  0  0  0  0  0  0
    1.2316   -5.1036    7.0125 C   0  0  0  0  0  0  0  0  0  0  0  0
    2.6580   -4.9427    8.9363 C   0  0  0  0  0  0  0  0  0  0  0  0
    1.4364   -4.6985    8.3063 C   0  0  0  0  0  0  0  0  0  0  0  0
    2.6660   -4.3316   10.2963 C   0  0  0  0  0  0  0  0  0  0  0  0
    1.1550   -4.1626   10.5576 C   0  0  2  0  0  0  0  0  0  0  0  0
    0.5018   -3.9077    9.1666 C   0  0  1  0  0  0  0  0  0  0  0  0
    0.9204   -3.1238   11.5023 O   0  0  0  0  0  0  0  0  0  0  0  0
    0.5274   -2.5185    8.7544 N   0  0  0  0  0  0  0  0  0  0  0  0
   -0.3388   -2.0278    7.8097 C   0  0  0  0  0  0  0  0  0  0  0  0
   -0.1417   -0.5688    7.3809 C   0  0  1  0  0  0  0  0  0  0  0  0
    0.4069   -0.4721    5.9528 C   0  0  2  0  0  0  0  0  0  0  0  0
    1.3389   -1.6611    5.6335 C   0  0  1  0  0  0  0  0  0  0  0  0
    1.3377   -2.0012    4.1323 C   0  0  2  0  0  0  0  0  0  0  0  0
    0.4116   -3.2252    3.9218 C   0  0  0  0  0  0  0  0  0  0  0  0
    0.6960   -4.3372    3.1580 N   0  0  0  0  0  0  0  0  0  0  0  0
   -0.4314   -5.2578    2.9182 C   0  0  2  0  0  0  0  0  0  0  0  0
   -1.2350   -2.7265    7.3181 O   0  0  0  0  0  0  0  0  0  0  0  0
   -1.5083    0.1367    7.5162 C   0  0  0  0  0  0  0  0  0  0  0  0
   -2.0574    0.0418    8.9489 C   0  0  0  0  0  0  0  0  0  0  0  0
   -1.1861    0.7516    9.9577 C   0  0  0  0  0  0  0  0  0  0  0  0
   -1.5207    2.0034   10.4514 C   0  0  0  0  0  0  0  0  0  0  0  0
   -0.6767    2.6347   11.3724 C   0  0  0  0  0  0  0  0  0  0  0  0
    0.5168    2.0384   11.7923 C   0  0  0  0  0  0  0  0  0  0  0  0
    0.0024    0.1747   10.4206 C   0  0  0  0  0  0  0  0  0  0  0  0
    0.8596    0.7919   11.3151 C   0  0  0  0  0  0  0  0  0  0  0  0
    1.1886    0.7436    5.8118 O   0  0  0  0  0  0  0  0  0  0  0  0
    2.6264   -1.3960    6.2189 O   0  0  0  0  0  0  0  0  0  0  0  0
    2.7327   -1.8664    3.5564 C   0  0  0  0  0  0  0  0  0  0  0  0
    2.7400   -1.9663    2.0477 C   0  0  0  0  0  0  0  0  0  0  0  0
    1.8246   -0.9669    1.3811 C   0  0  0  0  0  0  0  0  0  0  0  0
    0.9679    1.2958    1.1198 C   0  0  0  0  0  0  0  0  0  0  0  0
    1.7790    0.3808    1.7831 C   0  0  0  0  0  0  0  0  0  0  0  0
    0.2243    0.8829    0.0206 C   0  0  0  0  0  0  0  0  0  0  0  0
    0.2586   -0.4507   -0.3857 C   0  0  0  0  0  0  0  0  0  0  0  0
    1.0142   -1.3828    0.3222 C   0  0  0  0  0  0  0  0  0  0  0  0
   -0.7223   -3.1351    4.4133 O   0  0  0  0  0  0  0  0  0  0  0  0
   -0.9438   -6.0084    4.1949 C   0  0  1  0  0  0  0  0  0  0  0  0
   -0.2171   -6.4538    2.0198 C   0  0  0  0  0  0  0  0  0  0  0  0
   -1.7528   -7.2096    3.7292 C   0  0  0  0  0  0  0  0  0  0  0  0
   -0.9740   -7.5547    2.4901 C   0  0  0  0  0  0  0  0  0  0  0  0
    0.1309   -6.6162    4.9136 O   0  0  0  0  0  0  0  0  0  0  0  0
    0.5188   -6.5731    0.8572 C   0  0  0  0  0  0  0  0  0  0  0  0
    0.5372   -7.8160    0.2100 C   0  0  0  0  0  0  0  0  0  0  0  0
   -0.1712   -8.9179    0.7210 C   0  0  0  0  0  0  0  0  0  0  0  0
   -0.9410   -8.7911    1.8715 C   0  0  0  0  0  0  0  0  0  0  0  0
    4.2173   -6.6379    6.4611 H   0  0  0  0  0  0  0  0  0  0  0  0
    2.1758   -6.0747    5.3289 H   0  0  0  0  0  0  0  0  0  0  0  0
    4.6227   -5.8317    8.7871 H   0  0  0  0  0  0  0  0  0  0  0  0
    0.2838   -4.8866    6.5256 H   0  0  0  0  0  0  0  0  0  0  0  0
    3.1879   -3.3684   10.2850 H   0  0  0  0  0  0  0  0  0  0  0  0
    3.1279   -4.9911   11.0341 H   0  0  0  0  0  0  0  0  0  0  0  0
    0.7657   -5.1045   10.9697 H   0  0  0  0  0  0  0  0  0  0  0  0
   -0.5277   -4.2829    9.1466 H   0  0  0  0  0  0  0  0  0  0  0  0
   -0.0253   -3.1622   11.7347 H   0  0  0  0  0  0  0  0  0  0  0  0
    1.3557   -1.9979    9.0177 H   0  0  0  0  0  0  0  0  0  0  0  0
    0.5855   -0.0634    8.0202 H   0  0  0  0  0  0  0  0  0  0  0  0
   -0.4203   -0.3842    5.2397 H   0  0  0  0  0  0  0  0  0  0  0  0
    1.0110   -2.5677    6.1207 H   0  0  0  0  0  0  0  0  0  0  0  0
    0.7238   -1.2304    3.6469 H   0  0  0  0  0  0  0  0  0  0  0  0
    1.6198   -4.5616    2.8166 H   0  0  0  0  0  0  0  0  0  0  0  0
   -1.2476   -4.6642    2.4862 H   0  0  0  0  0  0  0  0  0  0  0  0
   -1.4401    1.1865    7.2052 H   0  0  0  0  0  0  0  0  0  0  0  0
   -2.2327   -0.3386    6.8375 H   0  0  0  0  0  0  0  0  0  0  0  0
   -3.0747    0.4499    8.9719 H   0  0  0  0  0  0  0  0  0  0  0  0
   -2.1712   -1.0078    9.2502 H   0  0  0  0  0  0  0  0  0  0  0  0
   -2.4376    2.4881   10.1284 H   0  0  0  0  0  0  0  0  0  0  0  0
   -0.9564    3.6026   11.7722 H   0  0  0  0  0  0  0  0  0  0  0  0
    1.1758    2.5366   12.4942 H   0  0  0  0  0  0  0  0  0  0  0  0
    0.3095   -0.7877   10.0768 H   0  0  0  0  0  0  0  0  0  0  0  0
    1.7654    0.2778   11.6268 H   0  0  0  0  0  0  0  0  0  0  0  0
    1.8357    0.7513    6.5427 H   0  0  0  0  0  0  0  0  0  0  0  0
    3.0003   -0.6287    5.7526 H   0  0  0  0  0  0  0  0  0  0  0  0
    3.1195   -0.8674    3.8126 H   0  0  0  0  0  0  0  0  0  0  0  0
    3.4291   -2.5739    4.0151 H   0  0  0  0  0  0  0  0  0  0  0  0
    3.7580   -1.8006    1.6818 H   0  0  0  0  0  0  0  0  0  0  0  0
    2.4667   -2.9851    1.7682 H   0  0  0  0  0  0  0  0  0  0  0  0
    0.9354    2.3292    1.4551 H   0  0  0  0  0  0  0  0  0  0  0  0
    2.3492    0.7388    2.6371 H   0  0  0  0  0  0  0  0  0  0  0  0
   -0.3873    1.6007   -0.5170 H   0  0  0  0  0  0  0  0  0  0  0  0
   -0.2972   -0.7646   -1.2639 H   0  0  0  0  0  0  0  0  0  0  0  0
    0.9681   -2.4322    0.0412 H   0  0  0  0  0  0  0  0  0  0  0  0
   -1.4978   -5.3728    4.8900 H   0  0  0  0  0  0  0  0  0  0  0  0
   -1.7056   -8.0202    4.4678 H   0  0  0  0  0  0  0  0  0  0  0  0
   -2.7871   -6.9518    3.5001 H   0  0  0  0  0  0  0  0  0  0  0  0
    0.7319   -7.0109    4.2580 H   0  0  0  0  0  0  0  0  0  0  0  0
    1.0607   -5.7305    0.4431 H   0  0  0  0  0  0  0  0  0  0  0  0
    1.1063   -7.9369   -0.7086 H   0  0  0  0  0  0  0  0  0  0  0  0
   -0.1282   -9.8767    0.2097 H   0  0  0  0  0  0  0  0  0  0  0  0
   -1.4880   -9.6372    2.2776 H   0  0  0  0  0  0  0  0  0  0  0  0
  1  2  1  0  0  0  0
  1  3  2  0  0  0  0
  1 49  1  0  0  0  0
  2  4  2  0  0  0  0
  2 50  1  0  0  0  0
  3  5  1  0  0  0  0
  3 51  1  0  0  0  0
  4  6  1  0  0  0  0
  4 52  1  0  0  0  0
  5  6  2  0  0  0  0
  5  7  1  0  0  0  0
  6  9  1  0  0  0  0
  7  8  1  0  0  0  0
  7 53  1  0  0  0  0
  7 54  1  0  0  0  0
  8  9  1  0  0  0  0
  8 55  1  1  0  0  0
  8 10  1  0  0  0  0
  9 56  1  6  0  0  0
  9 11  1  0  0  0  0
 10 57  1  0  0  0  0
 11 12  1  0  0  0  0
 11 58  1  0  0  0  0
 12 13  1  0  0  0  0
 12 20  2  0  0  0  0
 13 21  1  0  0  0  0
 13 59  1  1  0  0  0
 14 29  1  0  0  0  0
 14 60  1  6  0  0  0
 14 15  1  0  0  0  0
 14 13  1  0  0  0  0
 15 30  1  0  0  0  0
 15 61  1  1  0  0  0
 16 31  1  0  0  0  0
 16 62  1  6  0  0  0
 16 17  1  0  0  0  0
 16 15  1  0  0  0  0
 17 18  1  0  0  0  0
 17 39  2  0  0  0  0
 18 63  1  0  0  0  0
 19 18  1  0  0  0  0
 19 40  1  0  0  0  0
 19 41  1  0  0  0  0
 19 64  1  6  0  0  0
 21 22  1  0  0  0  0
 21 65  1  0  0  0  0
 21 66  1  0  0  0  0
 22 23  1  0  0  0  0
 22 67  1  0  0  0  0
 22 68  1  0  0  0  0
 23 24  2  0  0  0  0
 23 27  1  0  0  0  0
 24 25  1  0  0  0  0
 24 69  1  0  0  0  0
 25 26  2  0  0  0  0
 25 70  1  0  0  0  0
 26 28  1  0  0  0  0
 26 71  1  0  0  0  0
 27 28  2  0  0  0  0
 27 72  1  0  0  0  0
 28 73  1  0  0  0  0
 29 74  1  0  0  0  0
 30 75  1  0  0  0  0
 31 32  1  0  0  0  0
 31 76  1  0  0  0  0
 31 77  1  0  0  0  0
 32 33  1  0  0  0  0
 32 78  1  0  0  0  0
 32 79  1  0  0  0  0
 33 35  2  0  0  0  0
 33 38  1  0  0  0  0
 34 35  1  0  0  0  0
 34 36  2  0  0  0  0
 34 80  1  0  0  0  0
 35 81  1  0  0  0  0
 36 37  1  0  0  0  0
 36 82  1  0  0  0  0
 37 38  2  0  0  0  0
 37 83  1  0  0  0  0
 38 84  1  0  0  0  0
 40 42  1  0  0  0  0
 40 44  1  0  0  0  0
 40 85  1  1  0  0  0
 41 45  1  0  0  0  0
 41 43  2  0  0  0  0
 42 43  1  0  0  0  0
 42 86  1  0  0  0  0
 42 87  1  0  0  0  0
 43 48  1  0  0  0  0
 44 88  1  0  0  0  0
 45 46  2  0  0  0  0
 45 89  1  0  0  0  0
 46 47  1  0  0  0  0
 46 90  1  0  0  0  0
 47 48  2  0  0  0  0
 47 91  1  0  0  0  0
 48 92  1  0  0  0  0
M  END
>  <DRUGBANK_ID>
DB02704

>  <SECONDARY_ACCESSION_NUMBERS>
EXPT00717

>  <COMMON_NAME>
(2R,3R,4R,5R)-3,4-Dihydroxy-N,N'-bis[(1S,2R)-2-hydroxy-2,3-dihydro-1H-inden-1-yl]-2,5-bis(2-phenylethyl)hexanediamide

>  <SYNONYMS>
Diol-Based HIV-1 protease inhibitor 4

$$$$
