
 OpenBabel10282417183D

 50 53  0  0  0  0  0  0  0  0999 V2000
   -3.1657   -0.0242    0.0398 C   0  0  0  0  0  0  0  0  0  0  0  0
   -1.9766   -0.0872   -0.0059 C   0  0  0  0  0  0  0  0  0  0  0  0
   -0.5387   -0.0847   -0.0255 C   0  0  0  0  0  0  0  0  0  0  0  0
    0.2025   -1.2473   -0.0245 C   0  0  0  0  0  0  0  0  0  0  0  0
    1.5973   -1.1592    0.0186 C   0  0  0  0  0  0  0  0  0  0  0  0
    2.2533    0.0940    0.0288 C   0  0  0  0  0  0  0  0  0  0  0  0
    1.5213    1.2888   -0.0428 C   0  0  0  0  0  0  0  0  0  0  0  0
    0.1222    1.1406   -0.0480 C   0  0  0  0  0  0  0  0  0  0  0  0
    2.1584    2.5524   -0.2694 N   0  0  0  0  0  0  0  0  0  0  0  0
    1.5312    3.8321   -0.3498 C   0  0  0  0  0  0  0  0  0  0  0  0
    2.2676    5.0380   -0.4091 C   0  0  0  0  0  0  0  0  0  0  0  0
    3.6760    5.2827   -0.6604 C   0  0  0  0  0  0  0  0  0  0  0  0
    4.3281    6.3906   -0.0871 C   0  0  0  0  0  0  0  0  0  0  0  0
    3.5306    7.1967    0.7306 C   0  0  0  0  0  0  0  0  0  0  0  0
    2.1335    7.1242    0.6588 C   0  0  0  0  0  0  0  0  0  0  0  0
    1.4831    6.1134    0.0020 C   0  0  0  0  0  0  0  0  0  0  0  0
    0.1445    6.1605    0.0180 N   0  0  0  0  0  0  0  0  0  0  0  0
   -0.4638    5.0077   -0.1635 C   0  0  0  0  0  0  0  0  0  0  0  0
    0.1846    3.8614   -0.2621 N   0  0  0  0  0  0  0  0  0  0  0  0
    4.1593    7.9432    1.6730 O   0  0  0  0  0  0  0  0  0  0  0  0
    3.4085    8.8204    2.5023 C   0  0  0  0  0  0  0  0  0  0  0  0
    4.2999    9.7409    3.3696 C   0  0  0  0  0  0  0  0  0  0  0  0
    5.6662    9.3318    3.5724 O   0  0  0  0  0  0  0  0  0  0  0  0
    6.3772    9.4833    2.3545 C   0  0  0  0  0  0  0  0  0  0  0  0
    7.8067    9.0140    2.2793 C   0  0  0  0  0  0  0  0  0  0  0  0
    8.2038    9.0407    0.8888 O   0  0  0  0  0  0  0  0  0  0  0  0
    7.8378    7.8591    0.1244 C   0  0  0  0  0  0  0  0  0  0  0  0
    6.3458    7.7607   -0.4055 C   0  0  0  0  0  0  0  0  0  0  0  0
    5.7155    6.4628   -0.1501 O   0  0  0  0  0  0  0  0  0  0  0  0
   -4.2331    0.0439    0.0967 H   0  0  0  0  0  0  0  0  0  0  0  0
   -0.2995   -2.2096   -0.0529 H   0  0  0  0  0  0  0  0  0  0  0  0
    2.1738   -2.0814    0.0276 H   0  0  0  0  0  0  0  0  0  0  0  0
    3.3398    0.0983    0.0736 H   0  0  0  0  0  0  0  0  0  0  0  0
   -0.5419    1.9872   -0.0795 H   0  0  0  0  0  0  0  0  0  0  0  0
    3.1163    2.5942    0.0626 H   0  0  0  0  0  0  0  0  0  0  0  0
    4.2329    4.5790   -1.2760 H   0  0  0  0  0  0  0  0  0  0  0  0
    1.4992    7.7668    1.2616 H   0  0  0  0  0  0  0  0  0  0  0  0
   -1.5483    4.9644   -0.1721 H   0  0  0  0  0  0  0  0  0  0  0  0
    2.7864    9.4696    1.8732 H   0  0  0  0  0  0  0  0  0  0  0  0
    2.7650    8.2297    3.1625 H   0  0  0  0  0  0  0  0  0  0  0  0
    4.2971   10.7503    2.9380 H   0  0  0  0  0  0  0  0  0  0  0  0
    3.8287    9.8415    4.3522 H   0  0  0  0  0  0  0  0  0  0  0  0
    6.2765   10.4951    1.9496 H   0  0  0  0  0  0  0  0  0  0  0  0
    5.9097    8.8267    1.6710 H   0  0  0  0  0  0  0  0  0  0  0  0
    8.4245    9.7135    2.8526 H   0  0  0  0  0  0  0  0  0  0  0  0
    7.9493    8.0146    2.7012 H   0  0  0  0  0  0  0  0  0  0  0  0
    8.4988    7.9163   -0.7548 H   0  0  0  0  0  0  0  0  0  0  0  0
    8.1629    6.9735    0.6783 H   0  0  0  0  0  0  0  0  0  0  0  0
    5.7358    8.6052   -0.0912 H   0  0  0  0  0  0  0  0  0  0  0  0
    6.3709    7.8790   -1.4943 H   0  0  0  0  0  0  0  0  0  0  0  0
  1  2  3  0  0  0  0
  1 30  1  0  0  0  0
  2  3  1  0  0  0  0
  3  4  2  0  0  0  0
  3  8  1  0  0  0  0
  4  5  1  0  0  0  0
  4 31  1  0  0  0  0
  5  6  2  0  0  0  0
  5 32  1  0  0  0  0
  6  7  1  0  0  0  0
  6 33  1  0  0  0  0
  7  8  2  0  0  0  0
  7  9  1  0  0  0  0
  8 34  1  0  0  0  0
  9 10  1  0  0  0  0
  9 35  1  0  0  0  0
 10 11  1  0  0  0  0
 10 19  2  0  0  0  0
 11 12  2  0  0  0  0
 11 16  1  0  0  0  0
 12 13  1  0  0  0  0
 12 36  1  0  0  0  0
 13 14  2  0  0  0  0
 13 29  1  0  0  0  0
 14 15  1  0  0  0  0
 14 20  1  0  0  0  0
 15 16  2  0  0  0  0
 15 37  1  0  0  0  0
 16 17  1  0  0  0  0
 17 18  2  0  0  0  0
 18 19  1  0  0  0  0
 18 38  1  0  0  0  0
 20 21  1  0  0  0  0
 21 22  1  0  0  0  0
 21 39  1  0  0  0  0
 21 40  1  0  0  0  0
 22 23  1  0  0  0  0
 22 41  1  0  0  0  0
 22 42  1  0  0  0  0
 23 24  1  0  0  0  0
 24 25  1  0  0  0  0
 24 43  1  0  0  0  0
 24 44  1  0  0  0  0
 25 26  1  0  0  0  0
 25 45  1  0  0  0  0
 25 46  1  0  0  0  0
 26 27  1  0  0  0  0
 27 28  1  0  0  0  0
 27 47  1  0  0  0  0
 27 48  1  0  0  0  0
 28 29  1  0  0  0  0
 28 49  1  0  0  0  0
 28 50  1  0  0  0  0
M  END
>  <DRUGBANK_ID>
DB11737

>  <COMMON_NAME>
Icotinib

>  <CAS_NUMBER>
610798-31-7

>  <UNII>
9G6U5L461Q

>  <SYNONYMS>
BPI-2009

$$$$
