823
 OpenBabel10282417113D

 60 63  0  0  1  0  0  0  0  0999 V2000
    2.0560   -1.1466    2.8255 O   0  0  0  0  0  0  0  0  0  0  0  0
   -6.2116   -7.1072   -1.5818 O   0  0  0  0  0  0  0  0  0  0  0  0
    1.2556    0.8444    2.1506 O   0  0  0  0  0  0  0  0  0  0  0  0
   -5.5367   -4.9602   -2.2013 O   0  0  0  0  0  0  0  0  0  0  0  0
    0.8443   -3.3112    1.9048 C   0  0  1  0  0  0  0  0  0  0  0  0
   -0.4645   -3.9269    2.4374 C   0  0  2  0  0  0  0  0  0  0  0  0
   -1.3756   -4.4915    1.3052 C   0  0  1  0  0  0  0  0  0  0  0  0
   -1.0599   -5.9924    0.8301 C   0  0  2  0  0  0  0  0  0  0  0  0
    1.7994   -2.3937    3.5157 C   0  0  2  0  0  0  0  0  0  0  0  0
    1.0656   -4.9790    0.8677 C   0  0  0  0  0  0  0  0  0  0  0  0
   -0.8144   -2.7699    3.3100 C   0  0  0  0  0  0  0  0  0  0  0  0
    0.1352   -5.6882   -0.0974 C   0  0  0  0  0  0  0  0  0  0  0  0
   -2.2352   -6.9014    0.2609 C   0  0  2  0  0  0  0  0  0  0  0  0
    0.4113   -2.6008    4.2795 C   0  0  0  0  0  0  0  0  0  0  0  0
   -2.8058   -4.5035    1.6553 C   0  0  0  0  0  0  0  0  0  0  0  0
    1.1522   -2.4884    0.6456 C   0  0  0  0  0  0  0  0  0  0  0  0
   -3.1477   -5.9798   -0.4332 C   0  0  0  0  0  0  0  0  0  0  0  0
   -3.5614   -4.7416    0.3524 C   0  0  0  0  0  0  0  0  0  0  0  0
   -3.3759   -7.9069    1.1145 C   0  0  0  0  0  0  0  0  0  0  0  0
   -4.9174   -8.1306    0.4185 C   0  0  0  0  0  0  0  0  0  0  0  0
    2.2169   -3.6770    2.8163 C   0  0  0  0  0  0  0  0  0  0  0  0
   -3.9501   -6.7607   -1.1654 C   0  0  0  0  0  0  0  0  0  0  0  0
   -5.2752   -6.9645   -0.5313 C   0  0  1  0  0  0  0  0  0  0  0  0
    1.4409    0.0377    3.0537 C   0  0  0  0  0  0  0  0  0  0  0  0
    2.5751   -4.7779    2.2163 C   0  0  0  0  0  0  0  0  0  0  0  0
    1.0837    0.3765    4.4653 C   0  0  0  0  0  0  0  0  0  0  0  0
   -6.1679   -5.9637   -2.3799 C   0  0  0  0  0  0  0  0  0  0  0  0
   -7.0440   -6.1293   -3.5729 C   0  0  0  0  0  0  0  0  0  0  0  0
   -0.2606   -4.7976    3.0940 H   0  0  0  0  0  0  0  0  0  0  0  0
   -1.2349   -3.8093    0.4475 H   0  0  0  0  0  0  0  0  0  0  0  0
   -0.6882   -6.5990    1.6629 H   0  0  0  0  0  0  0  0  0  0  0  0
   -1.7523   -7.5880   -0.4568 H   0  0  0  0  0  0  0  0  0  0  0  0
    2.0146   -4.9717    0.2790 H   0  0  0  0  0  0  0  0  0  0  0  0
    1.1061   -5.8507    1.5981 H   0  0  0  0  0  0  0  0  0  0  0  0
   -1.7366   -2.9662    3.8523 H   0  0  0  0  0  0  0  0  0  0  0  0
   -0.9423   -1.8907    2.6697 H   0  0  0  0  0  0  0  0  0  0  0  0
    0.0668   -5.0280   -0.9674 H   0  0  0  0  0  0  0  0  0  0  0  0
    0.6347   -6.6129   -0.4584 H   0  0  0  0  0  0  0  0  0  0  0  0
    0.5049   -3.5047    4.8988 H   0  0  0  0  0  0  0  0  0  0  0  0
    0.1582   -1.8266    4.9845 H   0  0  0  0  0  0  0  0  0  0  0  0
   -3.0834   -3.5405    2.0757 H   0  0  0  0  0  0  0  0  0  0  0  0
   -2.9582   -5.2859    2.4052 H   0  0  0  0  0  0  0  0  0  0  0  0
    0.7015   -2.9029   -0.2570 H   0  0  0  0  0  0  0  0  0  0  0  0
    0.8693   -1.4597    0.7707 H   0  0  0  0  0  0  0  0  0  0  0  0
    2.2442   -2.5589    0.4702 H   0  0  0  0  0  0  0  0  0  0  0  0
   -3.3943   -3.8893   -0.3164 H   0  0  0  0  0  0  0  0  0  0  0  0
   -4.6029   -4.7306    0.6499 H   0  0  0  0  0  0  0  0  0  0  0  0
   -3.5643   -7.6224    2.1596 H   0  0  0  0  0  0  0  0  0  0  0  0
   -2.9267   -8.9091    1.1629 H   0  0  0  0  0  0  0  0  0  0  0  0
   -5.7119   -8.1955    1.1852 H   0  0  0  0  0  0  0  0  0  0  0  0
   -4.9774   -9.1043   -0.0937 H   0  0  0  0  0  0  0  0  0  0  0  0
   -3.5805   -7.6967   -1.6075 H   0  0  0  0  0  0  0  0  0  0  0  0
   -5.6568   -6.1752    0.1178 H   0  0  0  0  0  0  0  0  0  0  0  0
    3.1410   -5.6726    2.0449 H   0  0  0  0  0  0  0  0  0  0  0  0
    0.1134   -0.0248    4.7452 H   0  0  0  0  0  0  0  0  0  0  0  0
    1.8856    0.0599    5.1346 H   0  0  0  0  0  0  0  0  0  0  0  0
    0.9681    1.4595    4.5559 H   0  0  0  0  0  0  0  0  0  0  0  0
   -6.7766   -7.0363   -4.1139 H   0  0  0  0  0  0  0  0  0  0  0  0
   -8.0788   -6.1243   -3.2386 H   0  0  0  0  0  0  0  0  0  0  0  0
   -6.8616   -5.2664   -4.2217 H   0  0  0  0  0  0  0  0  0  0  0  0
  1 24  1  0  0  0  0
  2 27  1  0  0  0  0
  3 24  2  0  0  0  0
  4 27  2  0  0  0  0
  5  6  1  0  0  0  0
  5  9  1  0  0  0  0
  5 10  1  0  0  0  0
  5 16  1  6  0  0  0
  6  7  1  0  0  0  0
  6 11  1  0  0  0  0
  6 29  1  1  0  0  0
  7  8  1  0  0  0  0
  7 15  1  0  0  0  0
  7 30  1  6  0  0  0
  8 12  1  0  0  0  0
  8 13  1  0  0  0  0
  8 31  1  1  0  0  0
  9  1  1  0  0  0  0
  9 14  1  0  0  0  0
  9 21  1  1  0  0  0
 10 12  1  0  0  0  0
 10 33  1  0  0  0  0
 10 34  1  0  0  0  0
 11 14  1  0  0  0  0
 11 35  1  0  0  0  0
 11 36  1  0  0  0  0
 12 37  1  0  0  0  0
 12 38  1  0  0  0  0
 13 17  1  0  0  0  0
 13 19  1  0  0  0  0
 13 32  1  6  0  0  0
 14 39  1  0  0  0  0
 14 40  1  0  0  0  0
 15 18  1  0  0  0  0
 15 41  1  0  0  0  0
 15 42  1  0  0  0  0
 16 43  1  0  0  0  0
 16 44  1  0  0  0  0
 16 45  1  0  0  0  0
 17 18  1  0  0  0  0
 17 22  2  0  0  0  0
 18 46  1  0  0  0  0
 18 47  1  0  0  0  0
 19 20  1  0  0  0  0
 19 48  1  0  0  0  0
 19 49  1  0  0  0  0
 20 23  1  0  0  0  0
 20 50  1  0  0  0  0
 20 51  1  0  0  0  0
 21 25  3  0  0  0  0
 22 23  1  0  0  0  0
 22 52  1  0  0  0  0
 23  2  1  0  0  0  0
 23 53  1  1  0  0  0
 24 26  1  0  0  0  0
 25 54  1  0  0  0  0
 26 55  1  0  0  0  0
 26 56  1  0  0  0  0
 26 57  1  0  0  0  0
 27 28  1  0  0  0  0
 28 58  1  0  0  0  0
 28 59  1  0  0  0  0
 28 60  1  0  0  0  0
M  END
>  <DRUGBANK_ID>
DB00823

>  <SECONDARY_ACCESSION_NUMBERS>
APRD00760

>  <COMMON_NAME>
Ethynodiol diacetate

>  <CAS_NUMBER>
297-76-7

>  <UNII>
62H10A1236

>  <SYNONYMS>
17α-Ethynyl-19-norandrost-4-ene-3β,17-beta-diol diacetate; 17α-Ethynyl-3,17-dihydroxy-4-estrene diacetate; 17α-Ethynyl-4-estrene-3β,17β-diol diacetate; 17α-Ethynylestr-4-ene-3β,17β-diol acetate; 19-Nor-17α-pregn-4-en-20-yne-3β,17-diol diacetate; 3β, 17β-Diacetoxy-17α-ethynyl-4-oestrene; 3β,17β-Diacetoxy-19-nor-17α-pregn-4-en-20-yne; Ethynodiol diacetate; Etynodiol acetate; Etynodiol diacetate

$$$$
