FEP
 OpenBabel10282417133D

 50 51  0  0  0  0  0  0  0  0999 V2000
    0.9758    0.2686    0.0936 C   0  0  0  0  0  0  0  0  0  0  0  0
    0.7051   -0.1895   -1.4188 C   0  0  0  0  0  0  0  0  0  0  0  0
    1.0163   -1.6216   -1.9548 C   0  0  0  0  0  0  0  0  0  0  0  0
    0.3377   -2.8749   -1.3967 C   0  0  0  0  0  0  0  0  0  0  0  0
   -0.2153   -3.9422    4.0181 C   0  0  0  0  0  0  0  0  0  0  0  0
    0.5899   -0.5969    1.2835 C   0  0  0  0  0  0  0  0  0  0  0  0
    1.0057   -1.8756    1.1683 C   0  0  0  0  0  0  0  0  0  0  0  0
    0.4099   -2.9039    1.8513 C   0  0  0  0  0  0  0  0  0  0  0  0
   -0.0352   -2.6991    3.1443 C   0  0  0  0  0  0  0  0  0  0  0  0
   -0.1382   -1.3566    3.5074 C   0  0  0  0  0  0  0  0  0  0  0  0
    0.0352   -0.3031    2.5398 C   0  0  0  0  0  0  0  0  0  0  0  0
   -5.3419   -2.7319   -0.5009 C   0  0  0  0  0  0  0  0  0  0  0  0
   -1.0991   -2.7373   -0.9748 C   0  0  0  0  0  0  0  0  0  0  0  0
   -1.7202   -3.9166   -0.6665 C   0  0  0  0  0  0  0  0  0  0  0  0
   -3.0278   -3.8696   -0.2321 C   0  0  0  0  0  0  0  0  0  0  0  0
   -3.8365   -2.7070   -0.3710 C   0  0  0  0  0  0  0  0  0  0  0  0
   -3.1936   -1.5197   -0.4681 C   0  0  0  0  0  0  0  0  0  0  0  0
   -1.8317   -1.5579   -0.7063 C   0  0  0  0  0  0  0  0  0  0  0  0
    0.7248   -4.0236    5.0056 F   0  0  0  0  0  0  0  0  0  0  0  0
   -1.4214   -4.0124    4.6471 F   0  0  0  0  0  0  0  0  0  0  0  0
   -0.0509   -5.5989    3.2584 P   0  0  0  0  0  0  0  0  0  0  0  0
   -1.1813   -5.3291    2.2694 O   0  0  0  0  0  0  0  0  0  0  0  0
    1.4873   -5.3679    2.7180 O   0  0  0  0  0  0  0  0  0  0  0  0
    0.1046   -7.1650    2.5402 O   0  0  0  0  0  0  0  0  0  0  0  0
   -6.0135   -2.2433    0.5850 F   0  0  0  0  0  0  0  0  0  0  0  0
   -5.9004   -2.1716   -1.6025 F   0  0  0  0  0  0  0  0  0  0  0  0
   -5.9384   -4.4605   -0.5707 P   0  0  0  0  0  0  0  0  0  0  0  0
   -4.8206   -5.0032   -1.4466 O   0  0  0  0  0  0  0  0  0  0  0  0
   -5.9544   -4.6014    1.0619 O   0  0  0  0  0  0  0  0  0  0  0  0
   -6.5024   -6.0947   -0.6366 O   0  0  0  0  0  0  0  0  0  0  0  0
    0.5664    1.2764    0.2163 H   0  0  0  0  0  0  0  0  0  0  0  0
    2.0661    0.3554    0.1593 H   0  0  0  0  0  0  0  0  0  0  0  0
   -0.2962    0.0945   -1.7584 H   0  0  0  0  0  0  0  0  0  0  0  0
    1.2884    0.4910   -2.0508 H   0  0  0  0  0  0  0  0  0  0  0  0
    0.7401   -1.6375   -3.0179 H   0  0  0  0  0  0  0  0  0  0  0  0
    2.1020   -1.7719   -1.9275 H   0  0  0  0  0  0  0  0  0  0  0  0
    0.4362   -3.6995   -2.1205 H   0  0  0  0  0  0  0  0  0  0  0  0
    0.9330   -3.3532   -0.6150 H   0  0  0  0  0  0  0  0  0  0  0  0
    1.7314   -2.0879    0.3930 H   0  0  0  0  0  0  0  0  0  0  0  0
    0.3923   -3.8705    1.3663 H   0  0  0  0  0  0  0  0  0  0  0  0
   -0.3437   -1.1005    4.5484 H   0  0  0  0  0  0  0  0  0  0  0  0
   -0.1919    0.7172    2.8224 H   0  0  0  0  0  0  0  0  0  0  0  0
   -1.2038   -4.8758   -0.7155 H   0  0  0  0  0  0  0  0  0  0  0  0
   -3.3995   -4.8443    0.0804 H   0  0  0  0  0  0  0  0  0  0  0  0
   -3.7186   -0.5767   -0.3590 H   0  0  0  0  0  0  0  0  0  0  0  0
   -1.4161   -0.5806   -0.6093 H   0  0  0  0  0  0  0  0  0  0  0  0
    1.8156   -4.4606    2.5800 H   0  0  0  0  0  0  0  0  0  0  0  0
   -0.0025   -7.8686    3.2013 H   0  0  0  0  0  0  0  0  0  0  0  0
   -6.2414   -3.7558    1.4864 H   0  0  0  0  0  0  0  0  0  0  0  0
   -7.4561   -6.1357   -0.8084 H   0  0  0  0  0  0  0  0  0  0  0  0
  1  2  1  0  0  0  0
  1  6  1  0  0  0  0
  1 31  1  0  0  0  0
  1 32  1  0  0  0  0
  2  3  1  0  0  0  0
  2 33  1  0  0  0  0
  2 34  1  0  0  0  0
  3  4  1  0  0  0  0
  3 35  1  0  0  0  0
  3 36  1  0  0  0  0
  4 13  1  0  0  0  0
  4 37  1  0  0  0  0
  4 38  1  0  0  0  0
  5  9  1  0  0  0  0
  5 19  1  0  0  0  0
  5 20  1  0  0  0  0
  5 21  1  0  0  0  0
  6  7  2  0  0  0  0
  6 11  1  0  0  0  0
  7  8  1  0  0  0  0
  7 39  1  0  0  0  0
  8  9  2  0  0  0  0
  8 40  1  0  0  0  0
  9 10  1  0  0  0  0
 10 11  2  0  0  0  0
 10 41  1  0  0  0  0
 11 42  1  0  0  0  0
 12 16  1  0  0  0  0
 12 25  1  0  0  0  0
 12 26  1  0  0  0  0
 12 27  1  0  0  0  0
 13 14  2  0  0  0  0
 13 18  1  0  0  0  0
 14 15  1  0  0  0  0
 14 43  1  0  0  0  0
 15 16  2  0  0  0  0
 15 44  1  0  0  0  0
 16 17  1  0  0  0  0
 17 18  2  0  0  0  0
 17 45  1  0  0  0  0
 18 46  1  0  0  0  0
 21 22  2  0  0  0  0
 21 23  1  0  0  0  0
 21 24  1  0  0  0  0
 23 47  1  0  0  0  0
 24 48  1  0  0  0  0
 27 28  2  0  0  0  0
 27 29  1  0  0  0  0
 27 30  1  0  0  0  0
 29 49  1  0  0  0  0
 30 50  1  0  0  0  0
M  END
>  <DRUGBANK_ID>
DB04204

>  <SECONDARY_ACCESSION_NUMBERS>
EXPT01422

>  <COMMON_NAME>
[(4-{4-[4-(Difluoro-Phosphono-Methyl)-Phenyl]-Butyl}-Phenyl)-Difluoro-Methyl]-Phosphonic Acid

$$$$
