1085
 OpenBabel10282417113D

 31 32  0  0  1  0  0  0  0  0999 V2000
    0.1143   -0.9598   -0.3391 O   0  0  0  0  0  0  0  0  0  0  0  0
   -1.8643    0.1402   -0.0209 O   0  0  0  0  0  0  0  0  0  0  0  0
    0.6925   -1.3211    2.6010 N   0  0  0  0  0  0  0  0  0  0  0  0
   -0.6967   -0.3067    3.9938 N   0  0  0  0  0  0  0  0  0  0  0  0
    1.6344    0.7547    0.1527 C   0  0  1  0  0  0  0  0  0  0  0  0
    0.2554    1.3768   -0.0831 C   0  0  2  0  0  0  0  0  0  0  0  0
    2.1092    0.5829    1.6263 C   0  0  0  0  0  0  0  0  0  0  0  0
    1.4900   -0.6014   -0.4920 C   0  0  0  0  0  0  0  0  0  0  0  0
   -0.2422    2.4833    0.8630 C   0  0  0  0  0  0  0  0  0  0  0  0
   -0.6352    0.1562   -0.1040 C   0  0  0  0  0  0  0  0  0  0  0  0
    1.0581    0.0122    2.5577 C   0  0  0  0  0  0  0  0  0  0  0  0
    0.8129    3.2491    1.6540 C   0  0  0  0  0  0  0  0  0  0  0  0
    0.1981    0.5937    3.4880 C   0  0  0  0  0  0  0  0  0  0  0  0
   -0.3906   -1.4401    3.4223 C   0  0  0  0  0  0  0  0  0  0  0  0
    1.2961   -2.4561    1.9540 C   0  0  0  0  0  0  0  0  0  0  0  0
    2.4054    1.3089   -0.3974 H   0  0  0  0  0  0  0  0  0  0  0  0
    0.2107    1.7529   -1.1172 H   0  0  0  0  0  0  0  0  0  0  0  0
    3.0124   -0.0353    1.6774 H   0  0  0  0  0  0  0  0  0  0  0  0
    2.5212    1.5401    1.9585 H   0  0  0  0  0  0  0  0  0  0  0  0
    1.7298   -0.6782   -1.5514 H   0  0  0  0  0  0  0  0  0  0  0  0
    2.1799   -1.2952   -0.0028 H   0  0  0  0  0  0  0  0  0  0  0  0
   -0.7813    3.2212    0.2583 H   0  0  0  0  0  0  0  0  0  0  0  0
   -0.9929    2.0808    1.5527 H   0  0  0  0  0  0  0  0  0  0  0  0
    1.6704    3.5189    1.0332 H   0  0  0  0  0  0  0  0  0  0  0  0
    0.4035    4.1306    2.1463 H   0  0  0  0  0  0  0  0  0  0  0  0
    1.1859    2.6860    2.5012 H   0  0  0  0  0  0  0  0  0  0  0  0
    0.1004    1.6262    3.8030 H   0  0  0  0  0  0  0  0  0  0  0  0
   -0.9010   -2.3797    3.5727 H   0  0  0  0  0  0  0  0  0  0  0  0
    0.9738   -2.5310    0.9215 H   0  0  0  0  0  0  0  0  0  0  0  0
    2.3812   -2.3673    2.0231 H   0  0  0  0  0  0  0  0  0  0  0  0
    0.9391   -3.3783    2.4060 H   0  0  0  0  0  0  0  0  0  0  0  0
  1  8  1  0  0  0  0
  1 10  1  0  0  0  0
  2 10  2  0  0  0  0
  3 11  1  0  0  0  0
  3 14  1  0  0  0  0
  3 15  1  0  0  0  0
  4 13  1  0  0  0  0
  4 14  2  0  0  0  0
  5  6  1  0  0  0  0
  5  8  1  0  0  0  0
  5 16  1  6  0  0  0
  5  7  1  0  0  0  0
  6 10  1  0  0  0  0
  6 17  1  6  0  0  0
  6  9  1  0  0  0  0
  7 11  1  0  0  0  0
  7 18  1  0  0  0  0
  7 19  1  0  0  0  0
  8 20  1  0  0  0  0
  8 21  1  0  0  0  0
  9 12  1  0  0  0  0
  9 22  1  0  0  0  0
  9 23  1  0  0  0  0
 11 13  2  0  0  0  0
 12 24  1  0  0  0  0
 12 25  1  0  0  0  0
 12 26  1  0  0  0  0
 13 27  1  0  0  0  0
 14 28  1  0  0  0  0
 15 29  1  0  0  0  0
 15 30  1  0  0  0  0
 15 31  1  0  0  0  0
M  END
>  <DRUGBANK_ID>
DB01085

>  <SECONDARY_ACCESSION_NUMBERS>
APRD00382

>  <COMMON_NAME>
Pilocarpine

>  <CAS_NUMBER>
92-13-7

>  <UNII>
01MI4Q9DI3

>  <SYNONYMS>
2(3H)-FURANONE, 3-ETHYLDIHYDRO-4-((1-METHYL-1H-IMIDAZOL-5-YL)METHYL)-, (3S-CIS)-; OCUCARPINE; Pilocarpina; Pilocarpine; PILOKARPIN; SPERSACARPINE; SYNCARPINE

$$$$
