
 OpenBabel10282417113D

 56 58  0  0  1  0  0  0  0  0999 V2000
    2.4377   -0.0903    0.0005 C   0  0  0  0  0  0  0  0  0  0  0  0
    1.6208    1.0496   -0.0008 N   0  0  0  0  0  0  0  0  0  0  0  0
    1.5789   -1.1883    0.0491 C   0  0  0  0  0  0  0  0  0  0  0  0
    0.2753    0.6710   -0.0010 C   0  0  0  0  0  0  0  0  0  0  0  0
    0.2450   -0.7230    0.0109 C   0  0  0  0  0  0  0  0  0  0  0  0
    3.8615    0.0350   -0.0150 C   0  0  0  0  0  0  0  0  0  0  0  0
    8.2563   -4.0513   -0.0630 C   0  0  0  0  0  0  0  0  0  0  0  0
    1.9819   -2.5851    0.0996 C   0  0  0  0  0  0  0  0  0  0  0  0
    6.7552   -4.1155    0.0823 C   0  0  0  0  0  0  0  0  0  0  0  0
    4.6825   -1.0101   -0.1313 C   0  0  0  0  0  0  0  0  0  0  0  0
    2.0793    2.4506   -0.0018 C   0  0  0  0  0  0  0  0  0  0  0  0
    8.8525   -5.2631   -0.0525 O   0  0  0  0  0  0  0  0  0  0  0  0
    8.9067   -3.0314   -0.1295 O   0  0  0  0  0  0  0  0  0  0  0  0
    6.3244   -3.2177    1.2371 C   0  0  3  0  0  0  0  0  0  0  0  0
    6.6771   -1.7296    1.2213 C   0  0  0  0  0  0  0  0  0  0  0  0
    2.7020   -3.0756    1.1941 C   0  0  0  0  0  0  0  0  0  0  0  0
    1.7214   -3.4279   -0.9895 C   0  0  0  0  0  0  0  0  0  0  0  0
    3.1408   -5.1074   -0.0272 C   0  0  0  0  0  0  0  0  0  0  0  0
    6.1693   -0.9594   -0.0151 C   0  0  3  0  0  0  0  0  0  0  0  0
   -0.9289    1.4042   -0.0045 C   0  0  0  0  0  0  0  0  0  0  0  0
   -0.9853   -1.4086    0.0076 C   0  0  0  0  0  0  0  0  0  0  0  0
    3.2982   -4.3377    1.1139 C   0  0  0  0  0  0  0  0  0  0  0  0
    2.2777   -4.7069   -1.0343 C   0  0  0  0  0  0  0  0  0  0  0  0
    3.8856   -6.2097   -0.1845 F   0  0  0  0  0  0  0  0  0  0  0  0
    6.6652   -3.8453    2.4741 O   0  0  0  0  0  0  0  0  0  0  0  0
    6.6906   -1.4838   -1.2244 O   0  0  0  0  0  0  0  0  0  0  0  0
    2.8470    2.8102    1.2786 C   0  0  0  0  0  0  0  0  0  0  0  0
    2.8510    2.8049   -1.2799 C   0  0  0  0  0  0  0  0  0  0  0  0
   -2.1741   -0.6924   -0.0018 C   0  0  0  0  0  0  0  0  0  0  0  0
   -2.1436    0.6965   -0.0050 C   0  0  0  0  0  0  0  0  0  0  0  0
    4.3589    0.9893    0.0780 H   0  0  0  0  0  0  0  0  0  0  0  0
    6.4341   -5.1457    0.2804 H   0  0  0  0  0  0  0  0  0  0  0  0
    6.2827   -3.8630   -0.8688 H   0  0  0  0  0  0  0  0  0  0  0  0
    4.2858   -1.9911   -0.3165 H   0  0  0  0  0  0  0  0  0  0  0  0
    1.1834    3.0834   -0.0031 H   0  0  0  0  0  0  0  0  0  0  0  0
    8.2422   -6.0188    0.0102 H   0  0  0  0  0  0  0  0  0  0  0  0
    5.2536   -3.1984    1.2532 H   0  0  0  0  0  0  0  0  0  0  0  0
    7.7553   -1.6041    1.3382 H   0  0  0  0  0  0  0  0  0  0  0  0
    6.2465   -1.2772    2.1280 H   0  0  0  0  0  0  0  0  0  0  0  0
    2.9318   -2.4203    2.0344 H   0  0  0  0  0  0  0  0  0  0  0  0
    1.1250   -3.0721   -1.8264 H   0  0  0  0  0  0  0  0  0  0  0  0
    6.5144    0.0752    0.0624 H   0  0  0  0  0  0  0  0  0  0  0  0
   -0.9465    2.4890   -0.0025 H   0  0  0  0  0  0  0  0  0  0  0  0
   -0.9967   -2.4949    0.0189 H   0  0  0  0  0  0  0  0  0  0  0  0
    3.9937   -4.6684    1.8824 H   0  0  0  0  0  0  0  0  0  0  0  0
    2.0691   -5.3784   -1.8584 H   0  0  0  0  0  0  0  0  0  0  0  0
    7.6353   -3.8546    2.5493 H   0  0  0  0  0  0  0  0  0  0  0  0
    6.0520   -2.1138   -1.5957 H   0  0  0  0  0  0  0  0  0  0  0  0
    3.7543    2.2245    1.4249 H   0  0  0  0  0  0  0  0  0  0  0  0
    3.1599    3.8583    1.2698 H   0  0  0  0  0  0  0  0  0  0  0  0
    2.2286    2.6333    2.1643 H   0  0  0  0  0  0  0  0  0  0  0  0
    2.2334    2.6277   -2.1666 H   0  0  0  0  0  0  0  0  0  0  0  0
    3.1629    3.8536   -1.2744 H   0  0  0  0  0  0  0  0  0  0  0  0
    3.7583    2.2146   -1.4158 H   0  0  0  0  0  0  0  0  0  0  0  0
   -3.1169   -1.2314    0.0012 H   0  0  0  0  0  0  0  0  0  0  0  0
   -3.0851    1.2407   -0.0055 H   0  0  0  0  0  0  0  0  0  0  0  0
  2  1  1  0  0  0  0
  3  1  2  0  0  0  0
  4  2  1  0  0  0  0
  5  3  1  0  0  0  0
  5  4  1  0  0  0  0
  6  1  1  0  0  0  0
  6 31  1  0  0  0  0
  7  9  1  0  0  0  0
  8  3  1  0  0  0  0
  9 14  1  0  0  0  0
  9 32  1  0  0  0  0
  9 33  1  0  0  0  0
 10  6  2  0  0  0  0
 10 34  1  0  0  0  0
 11  2  1  0  0  0  0
 11 35  1  0  0  0  0
 12  7  1  0  0  0  0
 12 36  1  0  0  0  0
 13  7  2  0  0  0  0
 14 15  1  0  0  0  0
 14 25  1  0  0  0  0
 14 37  1  0  0  0  0
 15 19  1  0  0  0  0
 15 38  1  0  0  0  0
 15 39  1  0  0  0  0
 16  8  2  0  0  0  0
 16 40  1  0  0  0  0
 17  8  1  0  0  0  0
 17 41  1  0  0  0  0
 18 22  2  0  0  0  0
 19 10  1  0  0  0  0
 19 26  1  0  0  0  0
 19 42  1  0  0  0  0
 20  4  2  0  0  0  0
 20 43  1  0  0  0  0
 21  5  2  0  0  0  0
 21 44  1  0  0  0  0
 22 16  1  0  0  0  0
 22 45  1  0  0  0  0
 23 17  2  0  0  0  0
 23 18  1  0  0  0  0
 23 46  1  0  0  0  0
 24 18  1  0  0  0  0
 25 47  1  0  0  0  0
 26 48  1  0  0  0  0
 27 11  1  0  0  0  0
 27 49  1  0  0  0  0
 27 50  1  0  0  0  0
 27 51  1  0  0  0  0
 28 11  1  0  0  0  0
 28 52  1  0  0  0  0
 28 53  1  0  0  0  0
 28 54  1  0  0  0  0
 29 21  1  0  0  0  0
 29 30  2  0  0  0  0
 29 55  1  0  0  0  0
 30 20  1  0  0  0  0
 30 56  1  0  0  0  0
M  END
>  <DRUGBANK_ID>
DB01095

>  <SECONDARY_ACCESSION_NUMBERS>
APRD00346

>  <COMMON_NAME>
Fluvastatin

>  <CAS_NUMBER>
93957-54-1

>  <UNII>
4L066368AS

>  <SYNONYMS>
Fluvastatin; fluvastatina; fluvastatine; fluvastatinum

$$$$
