
 OpenBabel10282417123D

 20 19  0  0  1  0  0  0  0  0999 V2000
    0.9782    0.1105   -0.0083 O   0  0  0  0  0  0  0  0  0  0  0  0
    1.1299   -1.8679   -1.0476 O   0  0  0  0  0  0  0  0  0  0  0  0
   -4.9924   -2.1537    0.5347 O   0  0  0  0  0  0  0  0  0  0  0  0
   -1.5201    0.2298   -1.4303 N   0  0  0  0  0  0  0  0  0  0  0  0
   -3.8522   -1.5802   -1.3108 N   0  0  0  0  0  0  0  0  0  0  0  0
   -1.0938   -0.9295   -0.6022 C   0  0  2  0  0  0  0  0  0  0  0  0
   -1.7095   -0.9351    0.8054 C   0  0  0  0  0  0  0  0  0  0  0  0
   -3.2002   -0.5762    0.8496 C   0  0  0  0  0  0  0  0  0  0  0  0
    0.4284   -0.9866   -0.5700 C   0  0  0  0  0  0  0  0  0  0  0  0
   -4.0818   -1.5053    0.0303 C   0  0  0  0  0  0  0  0  0  0  0  0
    1.9434   -0.0420   -0.0858 H   0  0  0  0  0  0  0  0  0  0  0  0
   -0.8385    0.9812   -1.2875 H   0  0  0  0  0  0  0  0  0  0  0  0
   -2.3848    0.6417   -1.0831 H   0  0  0  0  0  0  0  0  0  0  0  0
   -3.1262   -1.0714   -1.8084 H   0  0  0  0  0  0  0  0  0  0  0  0
   -4.3772   -2.2560   -1.8498 H   0  0  0  0  0  0  0  0  0  0  0  0
   -1.3919   -1.8547   -1.1091 H   0  0  0  0  0  0  0  0  0  0  0  0
   -1.5811   -1.9388    1.2356 H   0  0  0  0  0  0  0  0  0  0  0  0
   -1.1600   -0.2559    1.4700 H   0  0  0  0  0  0  0  0  0  0  0  0
   -3.5397   -0.6234    1.8919 H   0  0  0  0  0  0  0  0  0  0  0  0
   -3.3791    0.4613    0.5467 H   0  0  0  0  0  0  0  0  0  0  0  0
  1  9  1  0  0  0  0
  1 11  1  0  0  0  0
  2  9  2  0  0  0  0
  3 10  2  0  0  0  0
  4 12  1  0  0  0  0
  4 13  1  0  0  0  0
  5 10  1  0  0  0  0
  5 14  1  0  0  0  0
  5 15  1  0  0  0  0
  6  9  1  0  0  0  0
  6 16  1  6  0  0  0
  6  7  1  0  0  0  0
  6  4  1  0  0  0  0
  7  8  1  0  0  0  0
  7 17  1  0  0  0  0
  7 18  1  0  0  0  0
  8 10  1  0  0  0  0
  8 19  1  0  0  0  0
  8 20  1  0  0  0  0
M  END
>  <DRUGBANK_ID>
DB02174

>  <SECONDARY_ACCESSION_NUMBERS>
EXPT01181

>  <COMMON_NAME>
D-Glutamine

>  <CAS_NUMBER>
5959-95-5

>  <UNII>
63HB36CA2Y

>  <SYNONYMS>
(2R)-2-amino-4-carbamoylbutanoic acid; (2R)-2,5-diamino-5-oxopentanoic acid; (R)-2,5-diamino-5-oxopentanoic acid; D-2-Aminoglutaramic acid; D-Glutamin; D-Glutamins√§ure-5-amid

$$$$
