
 OpenBabel10282417183D

 82 80  0  0  0  0  0  0  0  0999 V2000
    0.9892   -0.0623   -0.0774 C   0  0  0  0  0  3  0  0  0  0  0  0
    0.9892   -1.6889    1.7975 C   0  0  0  0  0  0  0  0  0  0  0  0
    3.6756    1.9765    0.5345 C   0  0  0  0  0  0  0  0  0  0  0  0
    3.4793    1.3782   -0.6346 C   0  0  0  0  0  0  0  0  0  0  0  0
    2.7157    1.9366    1.5323 C   0  0  0  0  0  0  0  0  0  0  0  0
    2.3838    0.5728   -0.8328 C   0  0  0  0  0  0  0  0  0  0  0  0
   -0.9041   -0.6776    2.6748 C   0  0  0  0  0  0  0  0  0  0  0  0
   -1.4108   -0.4056    1.2678 C   0  0  0  0  0  0  0  0  0  0  0  0
    0.9892   -1.6889    1.7975 C   0  0  0  0  0  0  0  0  0  0  0  0
   -0.0390   -0.8247   -1.3863 C   0  0  0  0  0  0  0  0  0  0  0  0
    0.4825   -1.4169    0.3905 C   0  0  3  0  0  0  0  0  0  0  0  0
    1.6909    0.9881    1.3043 C   0  0  0  0  0  0  0  0  0  0  0  0
    1.4247    0.4401    0.1326 C   0  0  0  0  0  0  0  0  0  0  0  0
   -0.0151    0.2643   -2.4465 C   0  0  0  0  0  0  0  0  0  0  0  0
    0.8170    0.6166    2.4912 C   0  0  0  0  0  0  0  0  0  0  0  0
    0.4992   -0.6420    2.7057 N   0  0  0  0  0  0  0  0  0  0  0  0
    0.8260    0.2070   -3.3974 O   0  0  0  0  0  0  0  0  0  0  0  0
   -0.9327    1.3456   -2.3744 O   0  5  0  0  0  0  0  0  0  0  0  0
    0.3437    1.6278    3.3685 O   0  0  0  0  0  0  0  0  0  0  0  0
    0.5159   -0.6776    2.6748 O   0  0  0  0  0  0  0  0  0  0  0  0
   -0.9375   -1.4169    0.3905 O   0  0  0  0  0  0  0  0  0  0  0  0
    0.2078   -0.2498   -0.1116 O   0  0  0  0  0  0  0  0  0  0  0  0
    0.9918   -0.0256    0.0963 C   0  0  0  0  0  0  0  0  0  0  0  0
    0.9918   -3.5876   -2.1827 C   0  0  0  0  0  0  0  0  0  0  0  0
    0.4852   -1.2402   -0.6643 C   0  0  0  0  0  0  0  0  0  0  0  0
    0.4852   -3.6391   -0.7505 C   0  0  0  0  0  0  0  0  0  0  0  0
    0.2689   -2.5895   -0.4033 C   0  0  0  0  0  0  0  0  0  0  0  0
   -1.0717   -2.4594   -2.3254 C   0  0  0  0  0  0  0  0  0  0  0  0
   -0.4462   -3.6399   -0.0179 C   0  0  0  0  0  0  0  0  0  0  0  0
   -1.7535   -3.5458   -2.0108 C   0  0  0  0  0  0  0  0  0  0  0  0
    2.4452   -2.4645   -0.0149 C   0  0  0  0  0  0  0  0  0  0  0  0
    2.9518   -2.4130   -1.4471 C   0  0  0  0  0  0  0  0  0  0  0  0
    0.0947   -2.0217   -1.6546 C   0  0  0  0  0  0  0  0  0  0  0  0
   -1.4867   -4.0987   -0.7890 C   0  0  0  0  0  0  0  0  0  0  0  0
    1.0824   -1.0011   -2.1960 C   0  0  0  0  0  0  0  0  0  0  0  0
   -2.3252   -5.1997   -0.2935 N   0  0  0  0  0  0  0  0  0  0  0  0
    0.9752   -2.4645   -0.0149 N   0  0  0  0  0  0  0  0  0  0  0  0
    0.6588    0.0574   -2.7574 O   0  0  0  0  0  0  0  0  0  0  0  0
    2.4785   -1.2303   -2.0744 O   0  0  0  0  0  0  0  0  0  0  0  0
    0.9691   -0.0632    0.0710 Hg  0  3  0  0  0  0  0  0  0  0  0  0
    0.9333    0.0098    0.0739 O   0  0  0  0  0  0  0  0  0  0  0  0
    0.6325    0.6997    0.5836 H   0  0  0  0  0  0  0  0  0  0  0  0
    2.0592   -0.0623   -0.0774 H   0  0  0  0  0  0  0  0  0  0  0  0
    0.6325   -2.6424    2.1269 H   0  0  0  0  0  0  0  0  0  0  0  0
    0.6325   -1.4974    0.8071 H   0  0  0  0  0  0  0  0  0  0  0  0
    2.0592   -1.6889    1.7975 H   0  0  0  0  0  0  0  0  0  0  0  0
    4.5928    2.4993    0.7091 H   0  0  0  0  0  0  0  0  0  0  0  0
    4.1804    1.5246   -1.4294 H   0  0  0  0  0  0  0  0  0  0  0  0
    2.7464    2.5661    2.3970 H   0  0  0  0  0  0  0  0  0  0  0  0
    2.2799    0.0417   -1.7559 H   0  0  0  0  0  0  0  0  0  0  0  0
   -1.2608    0.0844    3.3359 H   0  0  0  0  0  0  0  0  0  0  0  0
   -1.2608   -1.6311    3.0042 H   0  0  0  0  0  0  0  0  0  0  0  0
   -1.0541    0.5479    0.9384 H   0  0  0  0  0  0  0  0  0  0  0  0
   -2.4808   -0.4056    1.2678 H   0  0  0  0  0  0  0  0  0  0  0  0
    0.6325   -2.6424    2.1269 H   0  0  0  0  0  0  0  0  0  0  0  0
    2.0592   -1.6889    1.7975 H   0  0  0  0  0  0  0  0  0  0  0  0
    0.7173   -1.5500   -1.6029 H   0  0  0  0  0  0  0  0  0  0  0  0
   -0.9980   -1.2992   -1.3839 H   0  0  0  0  0  0  0  0  0  0  0  0
    0.8392   -2.1789   -0.2706 H   0  0  0  0  0  0  0  0  0  0  0  0
    0.5853    2.5844    3.2055 H   0  0  0  0  0  0  0  0  0  0  0  0
    0.6352   -0.0618    1.1045 H   0  0  0  0  0  0  0  0  0  0  0  0
    0.6352    0.8656   -0.3764 H   0  0  0  0  0  0  0  0  0  0  0  0
    2.0618   -0.0256    0.0963 H   0  0  0  0  0  0  0  0  0  0  0  0
    2.0618   -3.5876   -2.1827 H   0  0  0  0  0  0  0  0  0  0  0  0
    0.6352   -4.4426   -2.7181 H   0  0  0  0  0  0  0  0  0  0  0  0
    0.6352   -2.6964   -2.6554 H   0  0  0  0  0  0  0  0  0  0  0  0
   -0.5848   -1.2402   -0.6643 H   0  0  0  0  0  0  0  0  0  0  0  0
    0.8418   -1.2039   -1.6725 H   0  0  0  0  0  0  0  0  0  0  0  0
    0.8418   -4.5303   -0.2778 H   0  0  0  0  0  0  0  0  0  0  0  0
   -0.5848   -3.6391   -0.7505 H   0  0  0  0  0  0  0  0  0  0  0  0
    0.9934   -2.1739    0.2654 H   0  0  0  0  0  0  0  0  0  0  0  0
   -1.4260   -1.8692   -3.1445 H   0  0  0  0  0  0  0  0  0  0  0  0
   -0.2100   -4.1335    0.9016 H   0  0  0  0  0  0  0  0  0  0  0  0
   -2.4759   -3.9705   -2.6762 H   0  0  0  0  0  0  0  0  0  0  0  0
    2.8018   -1.6096    0.5205 H   0  0  0  0  0  0  0  0  0  0  0  0
    2.8018   -3.3557    0.4578 H   0  0  0  0  0  0  0  0  0  0  0  0
    4.0218   -2.4131   -1.4471 H   0  0  0  0  0  0  0  0  0  0  0  0
    2.5952   -3.2680   -1.9825 H   0  0  0  0  0  0  0  0  0  0  0  0
   -3.0995   -5.5459   -0.8600 H   0  0  0  0  0  0  0  0  0  0  0  0
   -2.1326   -5.6175    0.6169 H   0  0  0  0  0  0  0  0  0  0  0  0
    0.6000   -0.1882    0.9956 H   0  0  0  0  0  0  0  0  0  0  0  0
    1.9333    0.0098    0.0739 H   0  0  0  0  0  0  0  0  0  0  0  0
  1 42  1  0  0  0  0
  1 43  1  0  0  0  0
  2 44  1  0  0  0  0
  2 45  1  0  0  0  0
  2 46  1  0  0  0  0
  3 47  1  0  0  0  0
  4  3  2  0  0  0  0
  4 48  1  0  0  0  0
  5  3  1  0  0  0  0
  5 49  1  0  0  0  0
  6  4  1  0  0  0  0
  6 50  1  0  0  0  0
  7 51  1  0  0  0  0
  7 52  1  0  0  0  0
  8  7  1  0  0  0  0
  8 53  1  0  0  0  0
  8 54  1  0  0  0  0
  9 55  1  0  0  0  0
  9 56  1  0  0  0  0
 10 57  1  0  0  0  0
 10 58  1  0  0  0  0
 11  1  1  0  0  0  0
 11  9  1  0  0  0  0
 11 59  1  0  0  0  0
 12  5  2  0  0  0  0
 13  6  2  0  0  0  0
 13 12  1  0  0  0  0
 14 10  1  0  0  0  0
 15 12  1  0  0  0  0
 16  9  1  0  0  0  0
 16 15  2  3  0  0  0
 17 14  2  0  0  0  0
 18 14  1  0  0  0  0
 19 15  1  0  0  0  0
 19 60  1  0  0  0  0
 20  2  1  0  0  0  0
 20  7  1  0  0  0  0
 21  8  1  0  0  0  0
 21 11  1  0  0  0  0
 22 10  1  0  0  0  0
 22 13  1  0  0  0  0
 23 61  1  0  0  0  0
 23 62  1  0  0  0  0
 23 63  1  0  0  0  0
 24 64  1  0  0  0  0
 24 65  1  0  0  0  0
 24 66  1  0  0  0  0
 25 23  1  0  0  0  0
 25 67  1  0  0  0  0
 25 68  1  0  0  0  0
 26 24  1  0  0  0  0
 26 69  1  0  0  0  0
 26 70  1  0  0  0  0
 27 71  1  0  0  0  0
 28 72  1  0  0  0  0
 29 27  1  0  0  0  0
 29 73  1  0  0  0  0
 30 28  2  0  0  0  0
 30 74  1  0  0  0  0
 31 75  1  0  0  0  0
 31 76  1  0  0  0  0
 32 31  1  0  0  0  0
 32 77  1  0  0  0  0
 32 78  1  0  0  0  0
 33 27  2  0  0  0  0
 33 28  1  0  0  0  0
 34 29  2  0  0  0  0
 34 30  1  0  0  0  0
 35 33  1  0  0  0  0
 36 34  1  0  0  0  0
 36 79  1  0  0  0  0
 36 80  1  0  0  0  0
 37 25  1  0  0  0  0
 37 26  1  0  0  0  0
 37 31  1  0  0  0  0
 38 35  2  0  0  0  0
 39 32  1  0  0  0  0
 39 35  1  0  0  0  0
 41 81  1  0  0  0  0
 41 82  1  0  0  0  0
M  RAD  1   1   2
M  CHG  2  18  -1  40   1
M  END
>  <DRUGBANK_ID>
DB09364

>  <COMMON_NAME>
Procaine merethoxylline

>  <CAS_NUMBER>
60064-28-0

>  <UNII>
O77D636VYN

>  <SYNONYMS>
Merethoxylline procaine

$$$$
