
 OpenBabel10282417163D

 65 65  0  0  1  0  0  0  0  0999 V2000
   -3.2029    4.2677    0.2799 C   0  0  0  0  0  0  0  0  0  0  0  0
   -3.4215    4.9463    1.6252 C   0  0  0  0  0  0  0  0  0  0  0  0
   -2.4005    4.4672    2.5639 C   0  0  0  0  0  0  0  0  0  0  0  0
   -1.0736    4.8065    1.9724 C   0  0  0  0  0  0  0  0  0  0  0  0
   -0.5280    6.2089    2.0183 C   0  0  0  0  0  0  0  0  0  0  0  0
   -0.2371    6.7079    3.4258 C   0  0  0  0  0  0  0  0  0  0  0  0
    0.9322    6.0786    4.1804 C   0  0  0  0  0  0  0  0  0  0  0  0
    2.3616    6.1464    3.6407 C   0  0  0  0  0  0  0  0  0  0  0  0
    3.2243    6.7058    4.3263 O   0  0  0  0  0  0  0  0  0  0  0  0
    2.7724    5.4988    2.3074 C   0  0  0  0  0  0  0  0  0  0  0  0
    2.7372    3.9327    2.1804 C   0  0  0  0  0  0  0  0  0  0  0  0
    1.3567    3.3428    2.4959 C   0  0  1  0  0  0  0  0  0  0  0  0
    0.8394    2.1975    1.5803 C   0  0  2  0  0  0  0  0  0  0  0  0
   -0.4950    2.2454    1.0686 O   0  0  0  0  0  0  0  0  0  0  0  0
    0.9489    0.9467    2.4446 C   0  0  0  0  0  0  0  0  0  0  0  0
    1.5299    1.4024    3.7887 C   0  0  2  0  0  0  0  0  0  0  0  0
    1.2315    0.5720    4.8871 O   0  0  0  0  0  0  0  0  0  0  0  0
    1.0832    2.8453    3.9464 C   0  0  2  0  0  0  0  0  0  0  0  0
   -0.3524    3.0075    4.5611 C   0  0  0  0  0  0  0  0  0  0  0  0
   -1.3323    1.8926    4.3845 C   0  0  0  0  0  0  0  0  0  0  0  0
   -1.8556    1.2576    5.4265 C   0  0  0  0  0  0  0  0  0  0  0  0
   -1.7183    1.7706    6.8219 C   0  0  0  0  0  0  0  0  0  0  0  0
   -3.0996    1.8892    7.4197 C   0  0  0  0  0  0  0  0  0  0  0  0
   -3.7951    0.5390    7.5063 C   0  0  0  0  0  0  0  0  0  0  0  0
   -3.0355   -0.4331    8.3614 C   0  0  0  0  0  0  0  0  0  0  0  0
   -3.4226   -0.8723    9.4559 O   0  0  0  0  0  0  0  0  0  0  0  0
   -1.8491   -0.8130    7.8657 O   0  0  0  0  0  0  0  0  0  0  0  0
   -2.2341    4.4909   -0.1839 H   0  0  0  0  0  0  0  0  0  0  0  0
   -3.9461    4.6262   -0.4179 H   0  0  0  0  0  0  0  0  0  0  0  0
   -3.2402    3.1758    0.3838 H   0  0  0  0  0  0  0  0  0  0  0  0
   -3.3004    6.0289    1.5707 H   0  0  0  0  0  0  0  0  0  0  0  0
   -4.3792    4.6944    2.0740 H   0  0  0  0  0  0  0  0  0  0  0  0
   -2.5010    4.8912    3.5664 H   0  0  0  0  0  0  0  0  0  0  0  0
   -2.5144    3.3826    2.6938 H   0  0  0  0  0  0  0  0  0  0  0  0
   -0.5823    4.1772    2.6457 H   0  0  0  0  0  0  0  0  0  0  0  0
   -0.8074    4.4012    0.9932 H   0  0  0  0  0  0  0  0  0  0  0  0
    0.3739    6.2519    1.4108 H   0  0  0  0  0  0  0  0  0  0  0  0
   -1.2225    6.8572    1.4870 H   0  0  0  0  0  0  0  0  0  0  0  0
   -0.0841    7.7848    3.3836 H   0  0  0  0  0  0  0  0  0  0  0  0
   -1.1413    6.5351    4.0242 H   0  0  0  0  0  0  0  0  0  0  0  0
    0.9375    6.4771    5.2052 H   0  0  0  0  0  0  0  0  0  0  0  0
    0.7187    5.0534    4.3736 H   0  0  0  0  0  0  0  0  0  0  0  0
    2.2132    5.9779    1.4990 H   0  0  0  0  0  0  0  0  0  0  0  0
    3.7960    5.8272    2.0912 H   0  0  0  0  0  0  0  0  0  0  0  0
    2.9443    3.7256    1.1214 H   0  0  0  0  0  0  0  0  0  0  0  0
    3.5115    3.4835    2.7958 H   0  0  0  0  0  0  0  0  0  0  0  0
    0.9207    4.2755    2.2856 H   0  0  0  0  0  0  0  0  0  0  0  0
    1.4286    2.1604    0.6674 H   0  0  0  0  0  0  0  0  0  0  0  0
   -1.1645    2.2574    1.7672 H   0  0  0  0  0  0  0  0  0  0  0  0
   -0.0085    0.4245    2.5490 H   0  0  0  0  0  0  0  0  0  0  0  0
    1.6252    0.2497    1.9565 H   0  0  0  0  0  0  0  0  0  0  0  0
    2.6174    1.4167    3.7150 H   0  0  0  0  0  0  0  0  0  0  0  0
    0.2706    0.5175    5.0078 H   0  0  0  0  0  0  0  0  0  0  0  0
    1.7531    3.3412    4.6615 H   0  0  0  0  0  0  0  0  0  0  0  0
   -0.1611    3.2473    5.6063 H   0  0  0  0  0  0  0  0  0  0  0  0
   -0.8869    3.9221    4.3423 H   0  0  0  0  0  0  0  0  0  0  0  0
   -1.5736    1.4730    3.4179 H   0  0  0  0  0  0  0  0  0  0  0  0
   -2.3747    0.3199    5.2283 H   0  0  0  0  0  0  0  0  0  0  0  0
   -1.0144    1.1515    7.3770 H   0  0  0  0  0  0  0  0  0  0  0  0
   -1.2994    2.7712    6.9033 H   0  0  0  0  0  0  0  0  0  0  0  0
   -3.0094    2.3577    8.4044 H   0  0  0  0  0  0  0  0  0  0  0  0
   -3.6918    2.5795    6.7977 H   0  0  0  0  0  0  0  0  0  0  0  0
   -4.7917    0.6942    7.9255 H   0  0  0  0  0  0  0  0  0  0  0  0
   -3.9604    0.0908    6.5204 H   0  0  0  0  0  0  0  0  0  0  0  0
   -1.3736   -1.2978    8.5728 H   0  0  0  0  0  0  0  0  0  0  0  0
  1  2  1  0  0  0  0
  1 28  1  0  0  0  0
  1 29  1  0  0  0  0
  1 30  1  0  0  0  0
  2  3  1  0  0  0  0
  2 31  1  0  0  0  0
  2 32  1  0  0  0  0
  3  4  1  0  0  0  0
  3 33  1  0  0  0  0
  3 34  1  0  0  0  0
  4  5  1  0  0  0  0
  4 35  1  0  0  0  0
  4 36  1  0  0  0  0
  5  6  1  0  0  0  0
  5 37  1  0  0  0  0
  5 38  1  0  0  0  0
  6  7  1  0  0  0  0
  6 39  1  0  0  0  0
  6 40  1  0  0  0  0
  7  8  1  0  0  0  0
  7 41  1  0  0  0  0
  7 42  1  0  0  0  0
  8  9  2  0  0  0  0
  8 10  1  0  0  0  0
 10 11  1  0  0  0  0
 10 43  1  0  0  0  0
 10 44  1  0  0  0  0
 11 45  1  0  0  0  0
 11 46  1  0  0  0  0
 12 13  1  0  0  0  0
 12 18  1  0  0  0  0
 12 47  1  6  0  0  0
 12 11  1  0  0  0  0
 13 14  1  0  0  0  0
 13 15  1  0  0  0  0
 13 48  1  6  0  0  0
 14 49  1  0  0  0  0
 15 16  1  0  0  0  0
 15 50  1  0  0  0  0
 15 51  1  0  0  0  0
 16 17  1  0  0  0  0
 16 18  1  0  0  0  0
 16 52  1  6  0  0  0
 17 53  1  0  0  0  0
 18 54  1  1  0  0  0
 18 19  1  0  0  0  0
 19 20  1  0  0  0  0
 19 55  1  0  0  0  0
 19 56  1  0  0  0  0
 20 21  2  0  0  0  0
 20 57  1  0  0  0  0
 21 22  1  0  0  0  0
 21 58  1  0  0  0  0
 22 23  1  0  0  0  0
 22 59  1  0  0  0  0
 22 60  1  0  0  0  0
 23 24  1  0  0  0  0
 23 61  1  0  0  0  0
 23 62  1  0  0  0  0
 24 25  1  0  0  0  0
 24 63  1  0  0  0  0
 24 64  1  0  0  0  0
 25 26  2  0  0  0  0
 25 27  1  0  0  0  0
 27 65  1  0  0  0  0
M  END
>  <DRUGBANK_ID>
DB06826

>  <COMMON_NAME>
Unoprostone

>  <CAS_NUMBER>
120373-36-6

>  <UNII>
6X4F561V3W

>  <SYNONYMS>
13,14-dihydro-15-keto-20-ethyl PGF2Î±; Unoprostone

$$$$
