
 OpenBabel10282417113D

 57 58  0  0  0  0  0  0  0  0999 V2000
   -0.9990    8.0359   -5.9079 O   0  0  0  0  0  0  0  0  0  0  0  0
   -1.0171    8.8581   -4.7924 C   0  0  0  0  0  0  0  0  0  0  0  0
   -2.0193    7.0621   -5.6967 C   0  0  2  0  0  0  0  0  0  0  0  0
   -2.0809    8.5233   -3.7988 C   0  0  0  0  0  0  0  0  0  0  0  0
   -2.3595    7.1123   -4.2164 C   0  0  2  0  0  0  0  0  0  0  0  0
   -1.4803    5.6971   -6.0263 C   0  0  0  0  0  0  0  0  0  0  0  0
   -0.9758    5.2113   -4.7041 C   0  0  2  0  0  0  0  0  0  0  0  0
   -1.3431    6.2453   -3.5347 C   0  0  2  0  0  0  0  0  0  0  0  0
   -0.0627    9.7664   -4.5904 C   0  0  0  0  0  0  0  0  0  0  0  0
    0.9895   10.1072   -5.5997 C   0  0  0  0  0  0  0  0  0  0  0  0
    0.8268   11.5565   -6.0709 C   0  0  0  0  0  0  0  0  0  0  0  0
    0.9867   12.6015   -4.9609 C   0  0  0  0  0  0  0  0  0  0  0  0
    2.3419   12.5392   -4.3012 C   0  0  0  0  0  0  0  0  0  0  0  0
    3.0785   13.6568   -4.3892 O   0  0  0  0  0  0  0  0  0  0  0  0
    2.7687   11.5439   -3.6936 O   0  0  0  0  0  0  0  0  0  0  0  0
   -1.9074    5.8906   -2.0866 C   0  0  0  0  0  0  0  0  0  0  0  0
   -2.9874    5.1065   -1.8714 C   0  0  0  0  0  0  0  0  0  0  0  0
   -3.0760    3.8235   -1.0198 C   0  0  2  0  0  0  0  0  0  0  0  0
   -1.8792    2.8114   -0.8243 C   0  0  0  0  0  0  0  0  0  0  0  0
   -1.1608    2.2898   -2.0712 C   0  0  0  0  0  0  0  0  0  0  0  0
   -0.5095    3.4326   -2.7422 C   0  0  0  0  0  0  0  0  0  0  0  0
    0.4446    4.3469   -1.9659 C   0  0  0  0  0  0  0  0  0  0  0  0
    1.8060    3.7688   -1.9866 C   0  0  0  0  0  0  0  0  0  0  0  0
   -4.1154    3.0629   -1.6629 O   0  0  0  0  0  0  0  0  0  0  0  0
    0.4168    4.9138   -4.8548 O   0  0  0  0  0  0  0  0  0  0  0  0
   -2.8807    7.2840   -6.3248 H   0  0  0  0  0  0  0  0  0  0  0  0
   -3.3734    6.7655   -4.0116 H   0  0  0  0  0  0  0  0  0  0  0  0
   -1.7267    8.6009   -2.7601 H   0  0  0  0  0  0  0  0  0  0  0  0
   -2.9671    9.1399   -3.9233 H   0  0  0  0  0  0  0  0  0  0  0  0
   -0.6955    5.6487   -6.7897 H   0  0  0  0  0  0  0  0  0  0  0  0
   -2.2805    5.0089   -6.3347 H   0  0  0  0  0  0  0  0  0  0  0  0
   -1.5267    4.2717   -4.6476 H   0  0  0  0  0  0  0  0  0  0  0  0
   -0.4055    6.7954   -3.3406 H   0  0  0  0  0  0  0  0  0  0  0  0
   -0.0599   10.3129   -3.6512 H   0  0  0  0  0  0  0  0  0  0  0  0
    1.9796    9.9316   -5.1724 H   0  0  0  0  0  0  0  0  0  0  0  0
    0.9368    9.4449   -6.4713 H   0  0  0  0  0  0  0  0  0  0  0  0
    1.5551   11.7526   -6.8658 H   0  0  0  0  0  0  0  0  0  0  0  0
   -0.1685   11.6698   -6.5247 H   0  0  0  0  0  0  0  0  0  0  0  0
    0.8142   13.5987   -5.3808 H   0  0  0  0  0  0  0  0  0  0  0  0
    0.2255   12.4775   -4.1818 H   0  0  0  0  0  0  0  0  0  0  0  0
    2.6497   14.4044   -4.8462 H   0  0  0  0  0  0  0  0  0  0  0  0
   -1.1861    5.9960   -1.2756 H   0  0  0  0  0  0  0  0  0  0  0  0
   -3.7832    5.1633   -2.6081 H   0  0  0  0  0  0  0  0  0  0  0  0
   -3.4513    4.0762   -0.0242 H   0  0  0  0  0  0  0  0  0  0  0  0
   -1.1458    3.2567   -0.1502 H   0  0  0  0  0  0  0  0  0  0  0  0
   -2.2454    1.9067   -0.3314 H   0  0  0  0  0  0  0  0  0  0  0  0
   -0.3781    1.5532   -1.8982 H   0  0  0  0  0  0  0  0  0  0  0  0
   -1.8754    1.8520   -2.7869 H   0  0  0  0  0  0  0  0  0  0  0  0
   -0.0823    3.0823   -3.6811 H   0  0  0  0  0  0  0  0  0  0  0  0
   -1.4170    3.9414   -2.9789 H   0  0  0  0  0  0  0  0  0  0  0  0
    0.5741    5.3406   -2.4049 H   0  0  0  0  0  0  0  0  0  0  0  0
    0.1432    4.5348   -0.9337 H   0  0  0  0  0  0  0  0  0  0  0  0
    2.1420    3.7051   -3.0245 H   0  0  0  0  0  0  0  0  0  0  0  0
    2.4608    4.4362   -1.4273 H   0  0  0  0  0  0  0  0  0  0  0  0
    1.7476    2.7873   -1.5261 H   0  0  0  0  0  0  0  0  0  0  0  0
   -3.7807    2.8107   -2.5416 H   0  0  0  0  0  0  0  0  0  0  0  0
    0.9514    5.7213   -4.7790 H   0  0  0  0  0  0  0  0  0  0  0  0
  2  1  1  0  0  0  0
  3  1  1  0  0  0  0
  3 26  1  6  0  0  0
  4  2  1  0  0  0  0
  4 28  1  0  0  0  0
  4 29  1  0  0  0  0
  5  4  1  0  0  0  0
  5  3  1  0  0  0  0
  5 27  1  1  0  0  0
  6  3  1  0  0  0  0
  6 30  1  0  0  0  0
  6 31  1  0  0  0  0
  7  6  1  0  0  0  0
  7 25  1  0  0  0  0
  7 32  1  1  0  0  0
  8  5  1  0  0  0  0
  8  7  1  0  0  0  0
  8 33  1  1  0  0  0
  8 16  1  0  0  0  0
  9  2  2  0  0  0  0
  9 34  1  0  0  0  0
 10  9  1  0  0  0  0
 10 35  1  0  0  0  0
 10 36  1  0  0  0  0
 11 10  1  0  0  0  0
 11 37  1  0  0  0  0
 11 38  1  0  0  0  0
 12 11  1  0  0  0  0
 12 39  1  0  0  0  0
 12 40  1  0  0  0  0
 13 12  1  0  0  0  0
 14 13  1  0  0  0  0
 14 41  1  0  0  0  0
 15 13  2  0  0  0  0
 16 42  1  0  0  0  0
 17 16  2  0  0  0  0
 17 43  1  0  0  0  0
 18 24  1  0  0  0  0
 18 44  1  1  0  0  0
 18 19  1  0  0  0  0
 18 17  1  0  0  0  0
 19 45  1  0  0  0  0
 19 46  1  0  0  0  0
 20 19  1  0  0  0  0
 20 47  1  0  0  0  0
 20 48  1  0  0  0  0
 21 20  1  0  0  0  0
 21 49  1  0  0  0  0
 21 50  1  0  0  0  0
 22 21  1  0  0  0  0
 22 51  1  0  0  0  0
 22 52  1  0  0  0  0
 23 22  1  0  0  0  0
 23 53  1  0  0  0  0
 23 54  1  0  0  0  0
 23 55  1  0  0  0  0
 24 56  1  0  0  0  0
 25 57  1  0  0  0  0
M  END
>  <DRUGBANK_ID>
DB01240

>  <SECONDARY_ACCESSION_NUMBERS>
APRD00949

>  <COMMON_NAME>
Epoprostenol

>  <CAS_NUMBER>
35121-78-9

>  <UNII>
DCR9Z582X0

>  <SYNONYMS>
(5Z,13E)-(15S)-6,9alpha-Epoxy-11alpha,15-dihydroxyprosta-5,13-dienoate; (5Z,9α,11α,13E,15S)-6,9-epoxy-11,15-dihydroxyprosta-5,13-dien-1-oic acid; Epoprostenol; PGI2; PGX; Prostacyclin; Prostaglandin I2; Prostaglandin X; Vasocyclin

$$$$
