ZAF
 OpenBabel10282417173D

 60 61  0  0  0  0  0  0  0  0999 V2000
    3.2384   -7.7038   -3.0494 C   0  0  0  0  0  0  0  0  0  0  0  0
    3.4379   -6.5199   -3.2646 O   0  0  0  0  0  0  0  0  0  0  0  0
    4.2214   -8.6014   -3.2870 O   0  0  0  0  0  0  0  0  0  0  0  0
    0.6309   -7.9567   -3.2182 C   0  0  0  0  0  0  0  0  0  0  0  0
    1.9478   -8.3651   -2.5937 C   0  0  2  0  0  0  0  0  0  0  0  0
    0.7441   -7.1574   -4.4246 C   0  0  0  0  0  0  0  0  0  0  0  0
    1.5503   -7.7070   -5.4092 C   0  0  0  0  0  0  0  0  0  0  0  0
    1.7002   -7.0327   -6.5804 C   0  0  0  0  0  0  0  0  0  0  0  0
    0.9419   -5.8842   -6.7906 C   0  0  0  0  0  0  0  0  0  0  0  0
    0.1014   -5.3576   -5.8013 C   0  0  0  0  0  0  0  0  0  0  0  0
    0.0612   -5.9517   -4.5630 C   0  0  0  0  0  0  0  0  0  0  0  0
    1.7420   -7.9121   -1.3045 O   0  0  0  0  0  0  0  0  0  0  0  0
    0.6788   -8.7315   -0.4472 P   0  0  2  0  0  0  0  0  0  0  0  0
    1.6310   -9.2552    0.5560 O   0  0  0  0  0  0  0  0  0  0  0  0
    0.0767   -9.9142   -1.3721 O   0  0  0  0  0  0  0  0  0  0  0  0
   -0.7076   -7.5606   -0.2382 C   0  0  2  0  0  0  0  0  0  0  0  0
   -1.9811   -7.8241   -1.0707 C   0  0  0  0  0  0  0  0  0  0  0  0
   -0.2601   -6.1737   -0.4866 N   0  0  0  0  0  0  0  0  0  0  0  0
   -0.1437   -5.1343    0.3727 C   0  0  0  0  0  0  0  0  0  0  0  0
    0.3273   -4.0840   -0.0609 O   0  0  0  0  0  0  0  0  0  0  0  0
   -0.6602   -5.3231    1.7977 C   0  0  2  0  0  0  0  0  0  0  0  0
   -0.7628   -3.9897    2.5236 C   0  0  0  0  0  0  0  0  0  0  0  0
    0.1958   -6.2471    2.5381 N   0  0  0  0  0  0  0  0  0  0  0  0
   -0.1864   -7.3581    3.2247 C   0  0  0  0  0  0  0  0  0  0  0  0
    0.6119   -7.9338    3.9728 O   0  0  0  0  0  0  0  0  0  0  0  0
   -1.4251   -7.8146    2.9080 O   0  0  0  0  0  0  0  0  0  0  0  0
   -1.8661   -9.1191    3.3897 C   0  0  0  0  0  0  0  0  0  0  0  0
   -1.2175  -10.3509    2.7751 C   0  0  0  0  0  0  0  0  0  0  0  0
    0.0609  -10.2885    2.2655 C   0  0  0  0  0  0  0  0  0  0  0  0
    0.7861  -11.3885    1.7894 C   0  0  0  0  0  0  0  0  0  0  0  0
    0.2222  -12.6304    1.7985 C   0  0  0  0  0  0  0  0  0  0  0  0
   -1.0245  -12.7603    2.3919 C   0  0  0  0  0  0  0  0  0  0  0  0
   -1.7537  -11.6350    2.8458 C   0  0  0  0  0  0  0  0  0  0  0  0
    2.0900   -9.4543   -2.6009 H   0  0  0  0  0  0  0  0  0  0  0  0
   -1.0282   -7.6524    0.7806 H   0  0  0  0  0  0  0  0  0  0  0  0
   -1.6686   -5.7393    1.7123 H   0  0  0  0  0  0  0  0  0  0  0  0
    4.9233   -8.0468   -3.6891 H   0  0  0  0  0  0  0  0  0  0  0  0
   -0.0141   -8.8174   -3.4072 H   0  0  0  0  0  0  0  0  0  0  0  0
    0.0485   -7.3498   -2.5406 H   0  0  0  0  0  0  0  0  0  0  0  0
    2.0981   -8.6270   -5.2170 H   0  0  0  0  0  0  0  0  0  0  0  0
    2.3881   -7.4346   -7.3098 H   0  0  0  0  0  0  0  0  0  0  0  0
    1.0140   -5.3886   -7.7470 H   0  0  0  0  0  0  0  0  0  0  0  0
   -0.5213   -4.4928   -5.9979 H   0  0  0  0  0  0  0  0  0  0  0  0
   -0.5007   -5.4988   -3.7444 H   0  0  0  0  0  0  0  0  0  0  0  0
    0.3558  -10.8170   -1.1206 H   0  0  0  0  0  0  0  0  0  0  0  0
   -1.9126   -8.7163   -1.6955 H   0  0  0  0  0  0  0  0  0  0  0  0
   -2.8426   -7.9772   -0.4090 H   0  0  0  0  0  0  0  0  0  0  0  0
   -2.2392   -6.9843   -1.7284 H   0  0  0  0  0  0  0  0  0  0  0  0
    0.1269   -5.9174   -1.3891 H   0  0  0  0  0  0  0  0  0  0  0  0
   -0.7141   -3.1294    1.8486 H   0  0  0  0  0  0  0  0  0  0  0  0
   -1.7292   -3.9373    3.0329 H   0  0  0  0  0  0  0  0  0  0  0  0
    0.0214   -3.8726    3.2777 H   0  0  0  0  0  0  0  0  0  0  0  0
    1.1786   -6.0110    2.6318 H   0  0  0  0  0  0  0  0  0  0  0  0
   -1.7530   -9.1450    4.4761 H   0  0  0  0  0  0  0  0  0  0  0  0
   -2.9374   -9.1572    3.1567 H   0  0  0  0  0  0  0  0  0  0  0  0
    0.5443   -9.3290    2.2347 H   0  0  0  0  0  0  0  0  0  0  0  0
    1.8029  -11.2608    1.4199 H   0  0  0  0  0  0  0  0  0  0  0  0
    0.7848  -13.4625    1.3908 H   0  0  0  0  0  0  0  0  0  0  0  0
   -1.4074  -13.7619    2.5471 H   0  0  0  0  0  0  0  0  0  0  0  0
   -2.7300  -11.7928    3.2904 H   0  0  0  0  0  0  0  0  0  0  0  0
  1  2  2  0  0  0  0
  1  3  1  0  0  0  0
  3 37  1  0  0  0  0
  4  6  1  0  0  0  0
  4 38  1  0  0  0  0
  4 39  1  0  0  0  0
  5 12  1  0  0  0  0
  5 34  1  6  0  0  0
  5  4  1  0  0  0  0
  5  1  1  0  0  0  0
  6  7  2  0  0  0  0
  6 11  1  0  0  0  0
  7  8  1  0  0  0  0
  7 40  1  0  0  0  0
  8  9  2  0  0  0  0
  8 41  1  0  0  0  0
  9 10  1  0  0  0  0
  9 42  1  0  0  0  0
 10 11  2  0  0  0  0
 10 43  1  0  0  0  0
 11 44  1  0  0  0  0
 13 15  1  0  0  0  0
 13 14  2  1  0  0  0
 13 12  1  0  0  0  0
 15 45  1  0  0  0  0
 16 18  1  0  0  0  0
 16 35  1  1  0  0  0
 16 17  1  0  0  0  0
 16 13  1  0  0  0  0
 17 46  1  0  0  0  0
 17 47  1  0  0  0  0
 17 48  1  0  0  0  0
 18 19  1  0  0  0  0
 18 49  1  0  0  0  0
 19 20  2  0  0  0  0
 21 23  1  0  0  0  0
 21 36  1  6  0  0  0
 21 22  1  0  0  0  0
 21 19  1  0  0  0  0
 22 50  1  0  0  0  0
 22 51  1  0  0  0  0
 22 52  1  0  0  0  0
 23 24  1  0  0  0  0
 23 53  1  0  0  0  0
 24 25  2  0  0  0  0
 24 26  1  0  0  0  0
 26 27  1  0  0  0  0
 27 28  1  0  0  0  0
 27 54  1  0  0  0  0
 27 55  1  0  0  0  0
 28 29  2  0  0  0  0
 28 33  1  0  0  0  0
 29 30  1  0  0  0  0
 29 56  1  0  0  0  0
 30 31  2  0  0  0  0
 30 57  1  0  0  0  0
 31 32  1  0  0  0  0
 31 58  1  0  0  0  0
 32 33  2  0  0  0  0
 32 59  1  0  0  0  0
 33 60  1  0  0  0  0
M  END
>  <DRUGBANK_ID>
DB08762

>  <COMMON_NAME>
O-(((1R)-((N-PHENYLMETHOXYCARBONYL-L-ALANYL)AMINO)ETHYL)HYDROXYPHOSPHONO)-L-BENZYLACETIC ACID

$$$$
