4841
 OpenBabel10282417143D

 56 59  0  0  0  0  0  0  0  0999 V2000
    2.2245    0.0693   -0.1294 F   0  0  0  0  0  0  0  0  0  0  0  0
   -5.6260   -2.3334    4.7978 F   0  0  0  0  0  0  0  0  0  0  0  0
   -3.7874   -0.6413   -1.0678 N   0  0  0  0  0  0  0  0  0  0  0  0
   -1.5311   -1.5304   -2.8458 N   0  0  0  0  0  0  0  0  0  0  0  0
   -3.3840   -2.0604   -1.1383 C   0  0  0  0  0  0  0  0  0  0  0  0
   -3.3934    0.1076   -2.2817 C   0  0  0  0  0  0  0  0  0  0  0  0
   -3.3872    0.0199    0.2029 C   0  0  0  0  0  0  0  0  0  0  0  0
   -1.9656   -2.2555   -1.6690 C   0  0  0  0  0  0  0  0  0  0  0  0
   -1.9475   -0.1143   -2.7638 C   0  0  0  0  0  0  0  0  0  0  0  0
   -1.9055   -2.2672   -4.0311 C   0  0  0  0  0  0  0  0  0  0  0  0
   -1.8556    0.1169    0.4900 C   0  0  0  0  0  0  0  0  0  0  0  0
   -4.1227   -0.5781    1.4013 C   0  0  0  0  0  0  0  0  0  0  0  0
   -3.3719   -2.4675   -4.1650 C   0  0  0  0  0  0  0  0  0  0  0  0
   -1.1687    1.3138    0.2435 C   0  0  0  0  0  0  0  0  0  0  0  0
   -3.7249   -0.1307    2.6660 C   0  0  0  0  0  0  0  0  0  0  0  0
   -1.0890   -1.0153    0.8623 C   0  0  0  0  0  0  0  0  0  0  0  0
   -5.1052   -1.5876    1.3083 C   0  0  0  0  0  0  0  0  0  0  0  0
    0.2270    1.3083    0.1287 C   0  0  0  0  0  0  0  0  0  0  0  0
   -4.2276   -0.7267    3.8062 C   0  0  0  0  0  0  0  0  0  0  0  0
    0.2743   -1.0616    0.5356 C   0  0  0  0  0  0  0  0  0  0  0  0
   -5.5776   -2.2142    2.4518 C   0  0  0  0  0  0  0  0  0  0  0  0
   -4.1479   -1.7253   -4.9832 C   0  0  0  0  0  0  0  0  0  0  0  0
    0.9235    0.1063    0.1857 C   0  0  0  0  0  0  0  0  0  0  0  0
   -5.1421   -1.7651    3.6891 C   0  0  0  0  0  0  0  0  0  0  0  0
   -5.5982   -1.7114   -4.8328 C   0  0  0  0  0  0  0  0  0  0  0  0
   -6.2808   -1.3629   -3.6485 C   0  0  0  0  0  0  0  0  0  0  0  0
   -6.3322   -1.9603   -5.9825 C   0  0  0  0  0  0  0  0  0  0  0  0
   -7.6663   -1.2271   -3.6300 C   0  0  0  0  0  0  0  0  0  0  0  0
   -7.7131   -1.7988   -5.9725 C   0  0  0  0  0  0  0  0  0  0  0  0
   -8.3818   -1.4456   -4.7994 C   0  0  0  0  0  0  0  0  0  0  0  0
   -3.4147   -2.5582   -0.1645 H   0  0  0  0  0  0  0  0  0  0  0  0
   -4.1478   -2.6257   -1.6796 H   0  0  0  0  0  0  0  0  0  0  0  0
   -4.0253   -0.1917   -3.1067 H   0  0  0  0  0  0  0  0  0  0  0  0
   -3.6461    1.1711   -2.1941 H   0  0  0  0  0  0  0  0  0  0  0  0
   -3.7777    1.0455    0.1300 H   0  0  0  0  0  0  0  0  0  0  0  0
   -1.3384   -1.7514   -1.0005 H   0  0  0  0  0  0  0  0  0  0  0  0
   -1.6003   -3.2797   -1.5428 H   0  0  0  0  0  0  0  0  0  0  0  0
   -1.2990    0.3990   -2.0545 H   0  0  0  0  0  0  0  0  0  0  0  0
   -1.7441    0.4173   -3.6986 H   0  0  0  0  0  0  0  0  0  0  0  0
   -1.4551   -1.7704   -4.8909 H   0  0  0  0  0  0  0  0  0  0  0  0
   -1.4333   -3.2549   -3.9531 H   0  0  0  0  0  0  0  0  0  0  0  0
   -3.8620   -3.1483   -3.4890 H   0  0  0  0  0  0  0  0  0  0  0  0
   -1.7173    2.2290    0.0377 H   0  0  0  0  0  0  0  0  0  0  0  0
   -2.9744    0.6528    2.7542 H   0  0  0  0  0  0  0  0  0  0  0  0
   -1.5844   -1.9665    1.0722 H   0  0  0  0  0  0  0  0  0  0  0  0
   -5.4693   -1.9507    0.3476 H   0  0  0  0  0  0  0  0  0  0  0  0
    0.7655    2.2182   -0.1068 H   0  0  0  0  0  0  0  0  0  0  0  0
   -3.8882   -0.3900    4.7762 H   0  0  0  0  0  0  0  0  0  0  0  0
    0.7751   -2.0195    0.3921 H   0  0  0  0  0  0  0  0  0  0  0  0
   -6.2684   -3.0470    2.3761 H   0  0  0  0  0  0  0  0  0  0  0  0
   -3.6951   -1.0359   -5.6811 H   0  0  0  0  0  0  0  0  0  0  0  0
   -5.7643   -1.1659   -2.7150 H   0  0  0  0  0  0  0  0  0  0  0  0
   -5.8183   -2.2775   -6.8843 H   0  0  0  0  0  0  0  0  0  0  0  0
   -8.1748   -0.9339   -2.7137 H   0  0  0  0  0  0  0  0  0  0  0  0
   -8.2638   -1.9376   -6.8954 H   0  0  0  0  0  0  0  0  0  0  0  0
   -9.4620   -1.3445   -4.7990 H   0  0  0  0  0  0  0  0  0  0  0  0
  1 23  1  0  0  0  0
  2 24  1  0  0  0  0
  3  5  1  0  0  0  0
  3  6  1  0  0  0  0
  3  7  1  0  0  0  0
  4  8  1  0  0  0  0
  4  9  1  0  0  0  0
  4 10  1  0  0  0  0
  5  8  1  0  0  0  0
  5 31  1  0  0  0  0
  5 32  1  0  0  0  0
  6  9  1  0  0  0  0
  6 33  1  0  0  0  0
  6 34  1  0  0  0  0
  7 11  1  0  0  0  0
  7 12  1  0  0  0  0
  7 35  1  0  0  0  0
  8 36  1  0  0  0  0
  8 37  1  0  0  0  0
  9 38  1  0  0  0  0
  9 39  1  0  0  0  0
 10 13  1  0  0  0  0
 10 40  1  0  0  0  0
 10 41  1  0  0  0  0
 11 14  2  0  0  0  0
 11 16  1  0  0  0  0
 12 15  2  0  0  0  0
 12 17  1  0  0  0  0
 13 22  2  0  0  0  0
 13 42  1  0  0  0  0
 14 18  1  0  0  0  0
 14 43  1  0  0  0  0
 15 19  1  0  0  0  0
 15 44  1  0  0  0  0
 16 20  2  0  0  0  0
 16 45  1  0  0  0  0
 17 21  2  0  0  0  0
 17 46  1  0  0  0  0
 18 23  2  0  0  0  0
 18 47  1  0  0  0  0
 19 24  2  0  0  0  0
 19 48  1  0  0  0  0
 20 23  1  0  0  0  0
 20 49  1  0  0  0  0
 21 24  1  0  0  0  0
 21 50  1  0  0  0  0
 22 25  1  0  0  0  0
 22 51  1  0  0  0  0
 25 26  2  0  0  0  0
 25 27  1  0  0  0  0
 26 28  1  0  0  0  0
 26 52  1  0  0  0  0
 27 29  2  0  0  0  0
 27 53  1  0  0  0  0
 28 30  2  0  0  0  0
 28 54  1  0  0  0  0
 29 30  1  0  0  0  0
 29 55  1  0  0  0  0
 30 56  1  0  0  0  0
M  END
>  <DRUGBANK_ID>
DB04841

>  <COMMON_NAME>
Flunarizine

>  <CAS_NUMBER>
52468-60-7

>  <UNII>
R7PLA2DM0J

>  <SYNONYMS>
1-[bis(4-fluorophenyl)methyl]-4-[(2E)-3-phenylprop-2-en-1-yl]piperazine; Flunarizina; Flunarizine; Flunarizinum

$$$$
