
 OpenBabel10282417213D

 91 93  0  0  0  0  0  0  0  0999 V2000
    2.2209   -2.6942    5.1432 O   0  0  0  0  0  0  0  0  0  0  0  0
   -2.9246   -5.8689    9.0738 O   0  0  0  0  0  0  0  0  0  0  0  0
    1.4535   -2.8392    0.5823 O   0  0  0  0  0  0  0  0  0  0  0  0
    0.2370   -8.7727    7.5095 O   0  0  0  0  0  0  0  0  0  0  0  0
    1.1038   -0.7332    1.7617 O   0  0  0  0  0  0  0  0  0  0  0  0
    0.6344    0.5096    5.2775 O   0  0  0  0  0  0  0  0  0  0  0  0
    1.4406   -1.1538    6.9079 O   0  0  0  0  0  0  0  0  0  0  0  0
    0.5889   -2.3994   -1.8226 O   0  0  0  0  0  0  0  0  0  0  0  0
    0.9149    0.4863    0.0168 O   0  0  0  0  0  0  0  0  0  0  0  0
    2.1806    1.3942    4.0430 O   0  0  0  0  0  0  0  0  0  0  0  0
    0.6129   -4.8331    5.8530 N   0  0  0  0  0  0  0  0  0  0  0  0
   -1.7528   -3.9655    7.9040 N   0  0  0  0  0  0  0  0  0  0  0  0
    0.2675   -6.8196    6.5815 N   0  0  0  0  0  0  0  0  0  0  0  0
   -1.3108   -7.3074    8.2519 N   0  0  0  0  0  0  0  0  0  0  0  0
   -0.1481   -5.6266    6.6008 C   0  0  0  0  0  0  0  0  0  0  0  0
    0.3202   -3.6138    6.2368 C   0  0  0  0  0  0  0  0  0  0  0  0
   -1.3687   -5.1491    7.5259 C   0  0  0  0  0  0  0  0  0  0  0  0
   -0.8286   -2.9602    7.5780 C   0  0  0  0  0  0  0  0  0  0  0  0
   -2.0056   -6.1578    8.3290 C   0  0  0  0  0  0  0  0  0  0  0  0
    1.6372   -4.9546    4.7748 C   0  0  0  0  0  0  0  0  0  0  0  0
    0.1375   -2.4855    4.6545 C   0  0  0  0  0  0  0  0  0  0  0  0
   -1.8641   -1.4944    7.3778 C   0  0  0  0  0  0  0  0  0  0  0  0
    2.1097   -3.7879    3.7749 C   0  0  1  0  0  0  0  0  0  0  0  0
   -1.0718   -1.0485    4.4506 C   0  0  0  0  0  0  0  0  0  0  0  0
   -1.8857   -0.7197    5.8360 C   0  0  0  0  0  0  0  0  0  0  0  0
   -0.2544   -7.6636    7.4530 C   0  0  0  0  0  0  0  0  0  0  0  0
    1.3899   -3.0367    2.4077 C   0  0  1  0  0  0  0  0  0  0  0  0
    0.5059   -1.4424    2.7802 C   0  0  1  0  0  0  0  0  0  0  0  0
   -0.6866    0.4046    3.3039 C   0  0  0  0  0  0  0  0  0  0  0  0
   -2.6099    0.4060    5.9437 C   0  0  0  0  0  0  0  0  0  0  0  0
    0.8657   -2.0256    6.1962 C   0  0  0  0  0  0  0  0  0  0  0  0
    1.0578   -0.5292    4.4189 C   0  0  0  0  0  0  0  0  0  0  0  0
    0.1729   -2.3584   -0.6908 C   0  0  0  0  0  0  0  0  0  0  0  0
    0.4210   -0.3807    0.7048 C   0  0  0  0  0  0  0  0  0  0  0  0
   -1.1012   -2.8723    5.6654 C   0  0  0  0  0  0  0  0  0  0  0  0
   -1.9741   -2.5645   -0.0158 C   0  0  0  0  0  0  0  0  0  0  0  0
    1.2519    1.5234    4.8150 C   0  0  0  0  0  0  0  0  0  0  0  0
   -0.7579   -1.2827    0.3505 C   0  0  0  0  0  0  0  0  0  0  0  0
   -1.9628   -3.3206    4.4361 C   0  0  0  0  0  0  0  0  0  0  0  0
   -2.7296   -4.1920    0.8775 C   0  0  0  0  0  0  0  0  0  0  0  0
    0.2686    2.6283    5.0897 C   0  0  0  0  0  0  0  0  0  0  0  0
   -0.5837   -3.5069    0.2292 C   0  0  0  0  0  0  0  0  0  0  0  0
   -1.0193   -4.2909    3.8677 C   0  0  0  0  0  0  0  0  0  0  0  0
   -2.5305   -4.9936    2.2261 C   0  0  0  0  0  0  0  0  0  0  0  0
   -1.2177    2.9809    4.5759 C   0  0  0  0  0  0  0  0  0  0  0  0
   -0.5901   -3.4136    1.5309 C   0  0  0  0  0  0  0  0  0  0  0  0
   -2.3303    2.3616    5.2394 C   0  0  0  0  0  0  0  0  0  0  0  0
   -1.6289   -7.9968    8.8875 H   0  0  0  0  0  0  0  0  0  0  0  0
    1.4442   -5.8799    4.2607 H   0  0  0  0  0  0  0  0  0  0  0  0
    2.5145   -4.8738    5.4025 H   0  0  0  0  0  0  0  0  0  0  0  0
    0.9251   -2.5245    4.0370 H   0  0  0  0  0  0  0  0  0  0  0  0
   -3.0202   -1.3965    7.5843 H   0  0  0  0  0  0  0  0  0  0  0  0
    2.9337   -4.0870    3.1245 H   0  0  0  0  0  0  0  0  0  0  0  0
    0.9282   -4.1001    2.4160 H   0  0  0  0  0  0  0  0  0  0  0  0
   -0.7224   -1.4649    2.6106 H   0  0  0  0  0  0  0  0  0  0  0  0
   -1.3542    0.5873    2.5020 H   0  0  0  0  0  0  0  0  0  0  0  0
   -0.3030    1.3873    3.5045 H   0  0  0  0  0  0  0  0  0  0  0  0
    0.3918    0.4309    2.9640 H   0  0  0  0  0  0  0  0  0  0  0  0
   -3.4848    0.3297    5.2974 H   0  0  0  0  0  0  0  0  0  0  0  0
   -2.6306    0.7682    6.9535 H   0  0  0  0  0  0  0  0  0  0  0  0
   -1.5854    0.7146    5.5282 H   0  0  0  0  0  0  0  0  0  0  0  0
    0.3887   -0.7541    5.2640 H   0  0  0  0  0  0  0  0  0  0  0  0
    2.0479   -0.8411    4.4519 H   0  0  0  0  0  0  0  0  0  0  0  0
   -1.4788   -3.8939    5.9195 H   0  0  0  0  0  0  0  0  0  0  0  0
   -1.7599   -2.2870    5.9403 H   0  0  0  0  0  0  0  0  0  0  0  0
   -2.4006   -2.0133    1.0576 H   0  0  0  0  0  0  0  0  0  0  0  0
   -2.6480   -2.3717   -0.7815 H   0  0  0  0  0  0  0  0  0  0  0  0
   -1.6796   -0.6683    0.6920 H   0  0  0  0  0  0  0  0  0  0  0  0
   -1.0000   -0.9077   -0.7838 H   0  0  0  0  0  0  0  0  0  0  0  0
   -2.8766   -3.8130    4.7157 H   0  0  0  0  0  0  0  0  0  0  0  0
   -2.3142   -2.5051    3.7657 H   0  0  0  0  0  0  0  0  0  0  0  0
   -3.7271   -3.8615    1.1203 H   0  0  0  0  0  0  0  0  0  0  0  0
   -2.3881   -5.0301    0.3082 H   0  0  0  0  0  0  0  0  0  0  0  0
    0.3282    2.6040    6.1838 H   0  0  0  0  0  0  0  0  0  0  0  0
    0.8166    3.2702    4.4405 H   0  0  0  0  0  0  0  0  0  0  0  0
   -1.2415   -4.0113   -0.6304 H   0  0  0  0  0  0  0  0  0  0  0  0
    0.3257   -4.1269   -0.2219 H   0  0  0  0  0  0  0  0  0  0  0  0
   -0.4692   -5.1555    4.0958 H   0  0  0  0  0  0  0  0  0  0  0  0
   -1.0159   -4.3750    2.8931 H   0  0  0  0  0  0  0  0  0  0  0  0
   -0.3227   -3.6578    3.4797 H   0  0  0  0  0  0  0  0  0  0  0  0
   -2.7466   -4.0652    2.7696 H   0  0  0  0  0  0  0  0  0  0  0  0
   -2.5085   -5.7502    3.0764 H   0  0  0  0  0  0  0  0  0  0  0  0
   -1.5135   -5.5604    2.0957 H   0  0  0  0  0  0  0  0  0  0  0  0
   -1.5176    3.9386    4.9362 H   0  0  0  0  0  0  0  0  0  0  0  0
   -1.4834    2.6991    3.5453 H   0  0  0  0  0  0  0  0  0  0  0  0
   -1.3706   -2.9358    2.0570 H   0  0  0  0  0  0  0  0  0  0  0  0
   -0.2445   -4.4183    1.4194 H   0  0  0  0  0  0  0  0  0  0  0  0
   -0.0315   -2.5654    1.4472 H   0  0  0  0  0  0  0  0  0  0  0  0
   -1.8455    2.2534    6.3029 H   0  0  0  0  0  0  0  0  0  0  0  0
   -3.4159    2.4264    5.3992 H   0  0  0  0  0  0  0  0  0  0  0  0
   -2.4518    1.5128    4.3724 H   0  0  0  0  0  0  0  0  0  0  0  0
  1 31  1  0  0  0  0
  2 19  2  0  0  0  0
  3 33  1  0  0  0  0
  4 26  2  0  0  0  0
  5 34  1  0  0  0  0
  6 32  1  0  0  0  0
  6 37  1  0  0  0  0
  7 31  2  0  0  0  0
  8 33  2  0  0  0  0
  9 34  2  0  0  0  0
 10 37  2  0  0  0  0
 11 15  1  0  0  0  0
 11 16  1  0  0  0  0
 11 20  1  0  0  0  0
 12 17  2  0  0  0  0
 12 18  1  0  0  0  0
 13 15  2  0  0  0  0
 13 26  1  0  0  0  0
 14 19  1  0  0  0  0
 14 26  1  0  0  0  0
 14 48  1  0  0  0  0
 15 17  1  0  0  0  0
 16 18  2  0  0  0  0
 16 21  1  0  0  0  0
 17 19  1  0  0  0  0
 18 22  1  0  0  0  0
 20 23  1  0  0  0  0
 20 49  1  0  0  0  0
 20 50  1  0  0  0  0
 21 24  2  0  0  0  0
 21 51  1  0  0  0  0
 22 25  2  0  0  0  0
 22 52  1  0  0  0  0
 23  1  1  0  0  0  0
 23 53  1  6  0  0  0
 24 25  1  0  0  0  0
 24 29  1  0  0  0  0
 25 30  1  0  0  0  0
 27 54  1  1  0  0  0
 27 23  1  0  0  0  0
 27  3  1  0  0  0  0
 28 32  1  0  0  0  0
 28 55  1  6  0  0  0
 28 27  1  0  0  0  0
 28  5  1  0  0  0  0
 29 56  1  0  0  0  0
 29 57  1  0  0  0  0
 29 58  1  0  0  0  0
 30 59  1  0  0  0  0
 30 60  1  0  0  0  0
 30 61  1  0  0  0  0
 31 35  1  0  0  0  0
 32 62  1  0  0  0  0
 32 63  1  0  0  0  0
 33 36  1  0  0  0  0
 34 38  1  0  0  0  0
 35 39  1  0  0  0  0
 35 64  1  0  0  0  0
 35 65  1  0  0  0  0
 36 40  1  0  0  0  0
 36 66  1  0  0  0  0
 36 67  1  0  0  0  0
 37 41  1  0  0  0  0
 38 42  1  0  0  0  0
 38 68  1  0  0  0  0
 38 69  1  0  0  0  0
 39 43  1  0  0  0  0
 39 70  1  0  0  0  0
 39 71  1  0  0  0  0
 40 44  1  0  0  0  0
 40 72  1  0  0  0  0
 40 73  1  0  0  0  0
 41 45  1  0  0  0  0
 41 74  1  0  0  0  0
 41 75  1  0  0  0  0
 42 46  1  0  0  0  0
 42 76  1  0  0  0  0
 42 77  1  0  0  0  0
 43 78  1  0  0  0  0
 43 79  1  0  0  0  0
 43 80  1  0  0  0  0
 44 81  1  0  0  0  0
 44 82  1  0  0  0  0
 44 83  1  0  0  0  0
 45 47  1  0  0  0  0
 45 84  1  0  0  0  0
 45 85  1  0  0  0  0
 46 86  1  0  0  0  0
 46 87  1  0  0  0  0
 46 88  1  0  0  0  0
 47 89  1  0  0  0  0
 47 90  1  0  0  0  0
 47 91  1  0  0  0  0
M  END
>  <DRUGBANK_ID>
DB14727

>  <COMMON_NAME>
Riboflavin tetrabutyrate

>  <CAS_NUMBER>
752-56-7

>  <UNII>
F211C9MSGY

>  <SYNONYMS>
Riboflavin 2',3',4',5'-tetrabutyrate; Riboflavin tetrabutyrate; Riboflavin, 2',3',4',5'-tetrabutanoate; Vitamin B2 tetrabutyrate

$$$$
