
 OpenBabel10282417113D

 37 37  0  0  1  0  0  0  0  0999 V2000
    1.4149   -0.2187   -0.0930 C   0  0  0  0  0  0  0  0  0  0  0  0
    2.7501   -0.5074    0.1643 N   0  0  0  0  0  0  0  0  0  0  0  0
    0.4643   -1.2359   -0.2805 C   0  0  0  0  0  0  0  0  0  0  0  0
    0.9042    1.0714   -0.1377 C   0  0  0  0  0  0  0  0  0  0  0  0
    3.7905    0.5460    0.2571 C   0  0  0  0  0  0  0  0  0  0  0  0
    3.1444   -1.9243    0.3042 C   0  0  0  0  0  0  0  0  0  0  0  0
   -0.9111   -1.0281   -0.1818 C   0  0  0  0  0  0  0  0  0  0  0  0
   -0.4653    1.3039   -0.2153 C   0  0  0  0  0  0  0  0  0  0  0  0
   -1.3922    0.2672   -0.1494 C   0  0  0  0  0  0  0  0  0  0  0  0
   -2.8617    0.5631   -0.1735 C   0  0  0  0  0  0  0  0  0  0  0  0
   -3.4146    1.3396    1.0399 C   0  0  1  0  0  0  0  0  0  0  0  0
   -2.7404    2.7041    1.3374 C   0  0  0  0  0  0  0  0  0  0  0  0
   -4.8733    1.5252    0.8363 N   0  0  0  0  0  0  0  0  0  0  0  0
   -3.4717    3.7970    1.0171 O   0  0  0  0  0  0  0  0  0  0  0  0
   -1.6325    2.8419    1.8521 O   0  0  0  0  0  0  0  0  0  0  0  0
    2.7602   -2.5933    1.6536 C   0  0  0  0  0  0  0  0  0  0  0  0
    1.0643   -3.0084    2.0391 Cl  0  0  0  0  0  0  0  0  0  0  0  0
    4.5031    0.6426    1.6136 C   0  0  0  0  0  0  0  0  0  0  0  0
    5.6519   -0.6761    1.9614 Cl  0  0  0  0  0  0  0  0  0  0  0  0
    0.7715   -2.2639   -0.4358 H   0  0  0  0  0  0  0  0  0  0  0  0
    1.5202    1.9598   -0.1114 H   0  0  0  0  0  0  0  0  0  0  0  0
    4.5060    0.4377   -0.5665 H   0  0  0  0  0  0  0  0  0  0  0  0
    3.3699    1.5445    0.1075 H   0  0  0  0  0  0  0  0  0  0  0  0
    2.8338   -2.5094   -0.5700 H   0  0  0  0  0  0  0  0  0  0  0  0
    4.2346   -1.9801    0.2309 H   0  0  0  0  0  0  0  0  0  0  0  0
   -1.5669   -1.8949   -0.1377 H   0  0  0  0  0  0  0  0  0  0  0  0
   -0.7837    2.3379   -0.2829 H   0  0  0  0  0  0  0  0  0  0  0  0
   -3.0577    1.0951   -1.1127 H   0  0  0  0  0  0  0  0  0  0  0  0
   -3.4064   -0.3912   -0.2588 H   0  0  0  0  0  0  0  0  0  0  0  0
   -3.2848    0.7327    1.9438 H   0  0  0  0  0  0  0  0  0  0  0  0
   -5.2957    1.9867    1.6375 H   0  0  0  0  0  0  0  0  0  0  0  0
   -5.0783    1.9885   -0.0450 H   0  0  0  0  0  0  0  0  0  0  0  0
   -4.3914    3.5815    0.7876 H   0  0  0  0  0  0  0  0  0  0  0  0
    3.2600   -3.5611    1.6915 H   0  0  0  0  0  0  0  0  0  0  0  0
    3.0865   -1.9790    2.4911 H   0  0  0  0  0  0  0  0  0  0  0  0
    5.1128    1.5508    1.6307 H   0  0  0  0  0  0  0  0  0  0  0  0
    3.7816    0.6969    2.4334 H   0  0  0  0  0  0  0  0  0  0  0  0
  1  2  1  0  0  0  0
  1  3  2  0  0  0  0
  1  4  1  0  0  0  0
  2  5  1  0  0  0  0
  2  6  1  0  0  0  0
  3  7  1  0  0  0  0
  3 20  1  0  0  0  0
  4  8  2  0  0  0  0
  4 21  1  0  0  0  0
  5 18  1  0  0  0  0
  5 22  1  0  0  0  0
  5 23  1  0  0  0  0
  6 16  1  0  0  0  0
  6 24  1  0  0  0  0
  6 25  1  0  0  0  0
  7  9  2  0  0  0  0
  7 26  1  0  0  0  0
  8  9  1  0  0  0  0
  8 27  1  0  0  0  0
  9 10  1  0  0  0  0
 10 11  1  0  0  0  0
 10 28  1  0  0  0  0
 10 29  1  0  0  0  0
 11 12  1  0  0  0  0
 11 13  1  0  0  0  0
 11 30  1  1  0  0  0
 12 14  1  0  0  0  0
 12 15  2  0  0  0  0
 13 31  1  0  0  0  0
 13 32  1  0  0  0  0
 14 33  1  0  0  0  0
 16 17  1  0  0  0  0
 16 34  1  0  0  0  0
 16 35  1  0  0  0  0
 18 19  1  0  0  0  0
 18 36  1  0  0  0  0
 18 37  1  0  0  0  0
M  END
>  <DRUGBANK_ID>
DB01042

>  <SECONDARY_ACCESSION_NUMBERS>
APRD00118

>  <COMMON_NAME>
Melphalan

>  <CAS_NUMBER>
148-82-3

>  <UNII>
Q41OR9510P

>  <SYNONYMS>
3-(p-(Bis(2-chloroethyl)amino)phenyl)-L-alanine; 3-p-(Di(2-chloroethyl)amino)-phenyl-L-alanine; 4-(Bis(2-chloroethyl)amino)-L-phenylalanine; L-3-(p-(Bis(2-chloroethyl)amino)phenyl)alanine; L-PAM; L-Phenylalanine mustard; L-Sarcolysine; Melfalano; Melphalan; Melphalanum; p-Bis(beta-chloroethyl)aminophenylalanine; p-Di-(2-chloroethyl)amino-L-phenylalanine; p-L-Sarcolysin; p-N-Bis(2-chloroethyl)amino-L-phenylalanine; p-N,N-bis(2-chloroethyl)amino-L-phenylalanine; Phenylalanine mustard; Phenylalanine nitrogen mustard

$$$$
