
 OpenBabel10282417193D

123129  0  0  1  0  0  0  0  0999 V2000
   -0.1872    1.5002    0.6239 C   0  0  0  0  0  0  0  0  0  0  0  0
    1.3593    0.3897    1.4196 C   0  0  0  0  0  0  0  0  0  0  0  0
    1.5505   -0.7996    2.2604 C   0  0  0  0  0  0  0  0  0  0  0  0
    0.9047   -1.9575    3.2637 C   0  0  2  0  0  0  0  0  0  0  0  0
    1.7491   -3.2387    3.6336 C   0  0  2  0  0  0  0  0  0  0  0  0
    2.9463   -4.3148    2.2918 C   0  0  2  0  0  0  0  0  0  0  0  0
    3.8369   -5.0299    3.8656 C   0  0  0  0  0  0  0  0  0  0  0  0
    5.2103   -4.4751    3.7950 C   0  0  0  0  0  0  0  0  0  0  0  0
    5.5116   -4.8046    2.4253 C   0  0  2  0  0  0  0  0  0  0  0  0
    6.1159   -3.8019    1.6361 C   0  0  2  0  0  0  0  0  0  0  0  0
    4.2800   -3.2763    0.8814 C   0  0  1  0  0  0  0  0  0  0  0  0
    4.9991   -1.4134    0.2801 C   0  0  1  0  0  0  0  0  0  0  0  0
    3.6530   -0.8852    0.6689 C   0  0  1  0  0  0  0  0  0  0  0  0
    2.9196   -1.1579    2.0458 C   0  0  0  0  0  0  0  0  0  0  0  0
    2.9180   -2.4925    2.1183 C   0  0  0  0  0  0  0  0  0  0  0  0
    3.3878   -0.9799    3.4945 C   0  0  0  0  0  0  0  0  0  0  0  0
    3.6422    0.5341    1.0636 C   0  0  0  0  0  0  0  0  0  0  0  0
    2.4218    1.2052    1.9845 C   0  0  2  0  0  0  0  0  0  0  0  0
    1.1585    1.5533    2.6524 O   0  0  0  0  0  0  0  0  0  0  0  0
   -0.2659    0.7906    2.5989 C   0  0  0  0  0  0  0  0  0  0  0  0
   -1.1776    1.4591    3.0849 O   0  0  0  0  0  0  0  0  0  0  0  0
   -0.4278   -0.5005    1.0624 C   0  0  1  0  0  0  0  0  0  0  0  0
    0.5685    0.1559   -0.5868 C   0  0  2  0  0  0  0  0  0  0  0  0
    1.5057    1.9026   -0.5705 C   0  0  0  0  0  0  0  0  0  0  0  0
    2.7848    1.7955   -0.6509 C   0  0  0  0  0  0  0  0  0  0  0  0
    3.6002    2.7340   -0.0123 C   0  0  0  0  0  0  0  0  0  0  0  0
    3.1289    3.9604    0.2868 C   0  0  0  0  0  0  0  0  0  0  0  0
    1.8297    4.2040    0.0251 C   0  0  0  0  0  0  0  0  0  0  0  0
    1.0051    3.1946   -0.2510 N   0  0  0  0  0  0  0  0  0  0  0  0
    2.8855    0.5181   -0.7880 F   0  0  0  0  0  0  0  0  0  0  0  0
   -0.4533    0.2272   -1.6477 N   0  0  0  0  0  0  0  0  0  0  0  0
   -0.3621   -0.3970   -2.7923 C   0  0  0  0  0  0  0  0  0  0  0  0
   -1.2377   -0.2563   -3.6277 O   0  0  0  0  0  0  0  0  0  0  0  0
    0.7587   -1.1385   -2.7850 O   0  0  0  0  0  0  0  0  0  0  0  0
    1.0062   -1.9004   -3.9366 C   0  0  0  0  0  0  0  0  0  0  0  0
   -0.1386   -2.8787   -4.0987 C   0  0  0  0  0  0  0  0  0  0  0  0
    1.1438   -0.9486   -5.1065 C   0  0  0  0  0  0  0  0  0  0  0  0
    2.3099   -2.6745   -3.7592 C   0  0  0  0  0  0  0  0  0  0  0  0
   -0.1272   -1.8781    0.9247 O   0  0  0  0  0  0  0  0  0  0  0  0
    3.2253   -1.4052   -0.6419 O   0  0  0  0  0  0  0  0  0  0  0  0
    5.7795   -0.1843    1.2976 O   0  0  0  0  0  0  0  0  0  0  0  0
    5.6997    0.2319    2.6182 C   0  0  0  0  0  0  0  0  0  0  0  0
    5.2079    1.2069    3.1700 O   0  0  0  0  0  0  0  0  0  0  0  0
    6.5177   -0.6250    3.3597 C   0  0  0  0  0  0  0  0  0  0  0  0
    7.5868   -1.0924    2.6309 C   0  0  0  0  0  0  0  0  0  0  0  0
    8.5452   -1.7481    3.2979 C   0  0  0  0  0  0  0  0  0  0  0  0
    8.4013   -1.8996    4.6640 C   0  0  0  0  0  0  0  0  0  0  0  0
    7.3034   -1.3969    5.3662 C   0  0  0  0  0  0  0  0  0  0  0  0
    6.2672   -0.8416    4.6970 C   0  0  0  0  0  0  0  0  0  0  0  0
    5.1787   -2.8914    1.6525 C   0  0  0  0  0  0  0  0  0  0  0  0
    4.5404   -4.7161    1.5410 O   0  0  0  0  0  0  0  0  0  0  0  0
    7.3264   -4.1316    1.0332 O   0  0  0  0  0  0  0  0  0  0  0  0
    7.9120   -5.3050    1.6433 C   0  0  0  0  0  0  0  0  0  0  0  0
    9.1200   -5.5168    1.6406 O   0  0  0  0  0  0  0  0  0  0  0  0
    7.0578   -6.4453    2.2490 C   0  0  0  0  0  0  0  0  0  0  0  0
    1.3204   -5.0727    2.7839 C   0  0  0  0  0  0  0  0  0  0  0  0
    2.0667   -2.6519    5.2074 O   0  0  0  0  0  0  0  0  0  0  0  0
    1.2928   -1.4883    5.5303 C   0  0  1  0  0  0  0  0  0  0  0  0
    0.3682   -1.3529    4.4749 O   0  0  0  0  0  0  0  0  0  0  0  0
    1.2142   -1.5047    7.1044 C   0  0  0  0  0  0  0  0  0  0  0  0
    1.8258   -0.2998    7.7985 N   0  0  0  0  0  0  0  0  0  0  0  0
    1.8007   -0.4872    9.2503 C   0  0  0  0  0  0  0  0  0  0  0  0
    3.2169   -0.0702    7.3828 C   0  0  0  0  0  0  0  0  0  0  0  0
   -1.1078    0.9583    0.2298 H   0  0  0  0  0  0  0  0  0  0  0  0
   -0.2342    1.8588   -0.6179 H   0  0  0  0  0  0  0  0  0  0  0  0
   -0.6050    2.3823    1.0260 H   0  0  0  0  0  0  0  0  0  0  0  0
    0.0878   -2.4825    2.8215 H   0  0  0  0  0  0  0  0  0  0  0  0
    2.4685   -3.6898    4.2101 H   0  0  0  0  0  0  0  0  0  0  0  0
    3.8246   -6.0750    4.2035 H   0  0  0  0  0  0  0  0  0  0  0  0
    3.3644   -4.7411    4.8280 H   0  0  0  0  0  0  0  0  0  0  0  0
    6.0476   -4.8389    4.3577 H   0  0  0  0  0  0  0  0  0  0  0  0
    5.2512   -3.4258    4.0511 H   0  0  0  0  0  0  0  0  0  0  0  0
    5.2753   -5.7718    2.0091 H   0  0  0  0  0  0  0  0  0  0  0  0
    4.6420   -3.5975   -0.2579 H   0  0  0  0  0  0  0  0  0  0  0  0
    6.1017   -1.6770    0.2945 H   0  0  0  0  0  0  0  0  0  0  0  0
    3.8716   -2.9637    2.6903 H   0  0  0  0  0  0  0  0  0  0  0  0
    3.4055   -2.9382    3.1434 H   0  0  0  0  0  0  0  0  0  0  0  0
    2.4480   -3.0456    1.1728 H   0  0  0  0  0  0  0  0  0  0  0  0
    4.3127   -1.3417    3.8511 H   0  0  0  0  0  0  0  0  0  0  0  0
    2.9583   -0.1873    4.0301 H   0  0  0  0  0  0  0  0  0  0  0  0
    3.1241   -1.7957    4.1110 H   0  0  0  0  0  0  0  0  0  0  0  0
    4.4514    0.8237    0.3007 H   0  0  0  0  0  0  0  0  0  0  0  0
    4.2513    1.2063    1.6147 H   0  0  0  0  0  0  0  0  0  0  0  0
    2.9842    1.2413    2.9316 H   0  0  0  0  0  0  0  0  0  0  0  0
   -1.5228   -0.4849    0.9821 H   0  0  0  0  0  0  0  0  0  0  0  0
    1.2821   -0.6051   -0.8559 H   0  0  0  0  0  0  0  0  0  0  0  0
    4.5925    2.5578    0.4025 H   0  0  0  0  0  0  0  0  0  0  0  0
    3.8940    4.6487    0.5554 H   0  0  0  0  0  0  0  0  0  0  0  0
    1.4512    5.2054   -0.0590 H   0  0  0  0  0  0  0  0  0  0  0  0
   -1.2361    0.8786   -1.6090 H   0  0  0  0  0  0  0  0  0  0  0  0
   -1.0959   -2.3633   -4.1837 H   0  0  0  0  0  0  0  0  0  0  0  0
    0.0001   -3.4626   -5.0018 H   0  0  0  0  0  0  0  0  0  0  0  0
   -0.2196   -3.5299   -3.2213 H   0  0  0  0  0  0  0  0  0  0  0  0
    1.9657   -0.2438   -4.9392 H   0  0  0  0  0  0  0  0  0  0  0  0
    1.2979   -1.5097   -6.0219 H   0  0  0  0  0  0  0  0  0  0  0  0
    0.2458   -0.3438   -5.2374 H   0  0  0  0  0  0  0  0  0  0  0  0
    3.1630   -2.0044   -3.6030 H   0  0  0  0  0  0  0  0  0  0  0  0
    2.2679   -3.3508   -2.8977 H   0  0  0  0  0  0  0  0  0  0  0  0
    2.4985   -3.2697   -4.6576 H   0  0  0  0  0  0  0  0  0  0  0  0
    0.8225   -1.7980    0.7371 H   0  0  0  0  0  0  0  0  0  0  0  0
    2.3691   -1.8166   -0.5895 H   0  0  0  0  0  0  0  0  0  0  0  0
    7.6768   -0.9314    1.5615 H   0  0  0  0  0  0  0  0  0  0  0  0
    9.4076   -2.0488    2.7330 H   0  0  0  0  0  0  0  0  0  0  0  0
    9.1770   -2.4123    5.2019 H   0  0  0  0  0  0  0  0  0  0  0  0
    7.2902   -1.3785    6.4403 H   0  0  0  0  0  0  0  0  0  0  0  0
    5.3278   -0.5753    5.1834 H   0  0  0  0  0  0  0  0  0  0  0  0
    5.0582   -2.1383    2.5595 H   0  0  0  0  0  0  0  0  0  0  0  0
    4.8174   -1.7420    1.9535 H   0  0  0  0  0  0  0  0  0  0  0  0
    6.6016   -6.1782    3.2106 H   0  0  0  0  0  0  0  0  0  0  0  0
    6.3520   -6.8164    1.4867 H   0  0  0  0  0  0  0  0  0  0  0  0
    7.5198   -7.3283    2.6289 H   0  0  0  0  0  0  0  0  0  0  0  0
    1.4849   -5.9034    3.5142 H   0  0  0  0  0  0  0  0  0  0  0  0
    0.5100   -4.5868    3.5087 H   0  0  0  0  0  0  0  0  0  0  0  0
    0.7342   -5.2274    1.9186 H   0  0  0  0  0  0  0  0  0  0  0  0
    1.5834   -0.4231    5.5329 H   0  0  0  0  0  0  0  0  0  0  0  0
    0.1868   -1.6213    7.4359 H   0  0  0  0  0  0  0  0  0  0  0  0
    1.8206   -2.3561    7.4530 H   0  0  0  0  0  0  0  0  0  0  0  0
    2.3987   -1.3561    9.5470 H   0  0  0  0  0  0  0  0  0  0  0  0
    2.2002    0.3955    9.7662 H   0  0  0  0  0  0  0  0  0  0  0  0
    0.7740   -0.6290    9.5971 H   0  0  0  0  0  0  0  0  0  0  0  0
    3.8519   -0.9303    7.6168 H   0  0  0  0  0  0  0  0  0  0  0  0
    3.2894    0.1220    6.3103 H   0  0  0  0  0  0  0  0  0  0  0  0
    3.6366    0.8200    7.8676 H   0  0  0  0  0  0  0  0  0  0  0  0
  1 64  1  0  0  0  0
  1 65  1  0  0  0  0
  1 66  1  0  0  0  0
  1  2  1  0  0  0  0
  2  3  2  0  0  0  0
  2 18  1  0  0  0  0
  3  4  1  0  0  0  0
  3 14  1  0  0  0  0
  4  5  1  0  0  0  0
  4 59  1  0  0  0  0
  4 67  1  1  0  0  0
  5  6  1  0  0  0  0
  5 57  1  0  0  0  0
  5 68  1  6  0  0  0
  6  7  1  0  0  0  0
  6 11  1  0  0  0  0
  6 56  1  6  0  0  0
  7  8  1  0  0  0  0
  7 69  1  0  0  0  0
  7 70  1  0  0  0  0
  8  9  1  0  0  0  0
  8 71  1  0  0  0  0
  8 72  1  0  0  0  0
  9 10  1  0  0  0  0
  9 51  1  0  0  0  0
  9 73  1  6  0  0  0
 10 50  1  0  0  0  0
 10 52  1  1  0  0  0
 11 10  1  0  0  0  0
 11 12  1  0  0  0  0
 11 74  1  1  0  0  0
 12 13  1  0  0  0  0
 12 75  1  6  0  0  0
 12 41  1  0  0  0  0
 13 14  1  0  0  0  0
 13 17  1  0  0  0  0
 13 40  1  6  0  0  0
 14 15  1  0  0  0  0
 14 16  1  0  0  0  0
 15 76  1  0  0  0  0
 15 77  1  0  0  0  0
 15 78  1  0  0  0  0
 16 79  1  0  0  0  0
 16 80  1  0  0  0  0
 16 81  1  0  0  0  0
 17 18  1  0  0  0  0
 17 82  1  0  0  0  0
 17 83  1  0  0  0  0
 18 84  1  6  0  0  0
 18 19  1  0  0  0  0
 19 20  1  0  0  0  0
 20 21  2  0  0  0  0
 20 22  1  0  0  0  0
 22 39  1  0  0  0  0
 22 85  1  6  0  0  0
 23 31  1  0  0  0  0
 23 86  1  6  0  0  0
 23 24  1  0  0  0  0
 23 22  1  0  0  0  0
 24 25  2  0  0  0  0
 24 29  1  0  0  0  0
 25 26  1  0  0  0  0
 25 30  1  0  0  0  0
 26 27  2  0  0  0  0
 26 87  1  0  0  0  0
 27 28  1  0  0  0  0
 27 88  1  0  0  0  0
 28 29  2  0  0  0  0
 28 89  1  0  0  0  0
 31 32  1  0  0  0  0
 31 90  1  0  0  0  0
 32 33  2  0  0  0  0
 32 34  1  0  0  0  0
 34 35  1  0  0  0  0
 35 36  1  0  0  0  0
 35 37  1  0  0  0  0
 35 38  1  0  0  0  0
 36 91  1  0  0  0  0
 36 92  1  0  0  0  0
 36 93  1  0  0  0  0
 37 94  1  0  0  0  0
 37 95  1  0  0  0  0
 37 96  1  0  0  0  0
 38 97  1  0  0  0  0
 38 98  1  0  0  0  0
 38 99  1  0  0  0  0
 39100  1  0  0  0  0
 40101  1  0  0  0  0
 41 42  1  0  0  0  0
 42 43  2  0  0  0  0
 42 44  1  0  0  0  0
 44 45  2  0  0  0  0
 44 49  1  0  0  0  0
 45 46  1  0  0  0  0
 45102  1  0  0  0  0
 46 47  2  0  0  0  0
 46103  1  0  0  0  0
 47 48  1  0  0  0  0
 47104  1  0  0  0  0
 48 49  2  0  0  0  0
 48105  1  0  0  0  0
 49106  1  0  0  0  0
 50 51  1  0  0  0  0
 50107  1  0  0  0  0
 50108  1  0  0  0  0
 52 53  1  0  0  0  0
 53 54  2  0  0  0  0
 53 55  1  0  0  0  0
 55109  1  0  0  0  0
 55110  1  0  0  0  0
 55111  1  0  0  0  0
 56112  1  0  0  0  0
 56113  1  0  0  0  0
 56114  1  0  0  0  0
 57 58  1  0  0  0  0
 58 59  1  0  0  0  0
 58 60  1  0  0  0  0
 58115  1  6  0  0  0
 60 61  1  0  0  0  0
 60116  1  0  0  0  0
 60117  1  0  0  0  0
 61 62  1  0  0  0  0
 61 63  1  0  0  0  0
 62118  1  0  0  0  0
 62119  1  0  0  0  0
 62120  1  0  0  0  0
 63121  1  0  0  0  0
 63122  1  0  0  0  0
 63123  1  0  0  0  0
M  END
>  <DRUGBANK_ID>
DB12019

>  <COMMON_NAME>
Tesetaxel

>  <CAS_NUMBER>
333754-36-2

>  <UNII>
UG97LO5M8Y

>  <SYNONYMS>
Tesetaxel

$$$$
