
 OpenBabel10282417183D

 54 55  0  0  0  0  0  0  0  0999 V2000
    0.8716   -0.0157   -0.0502 C   0  0  0  0  0  0  0  0  0  0  0  0
    0.1606   -1.1958   -0.6398 C   0  0  0  0  0  0  0  0  0  0  0  0
   -0.1262    1.0700    0.4161 C   0  0  0  0  0  0  0  0  0  0  0  0
    2.2724   -0.0189    0.0436 C   0  0  0  0  0  0  0  0  0  0  0  0
    0.4752   -2.4971   -0.2330 C   0  0  0  0  0  0  0  0  0  0  0  0
   -0.9213   -0.9975   -1.5118 C   0  0  0  0  0  0  0  0  0  0  0  0
   -0.1255    2.4067   -0.0508 C   0  0  0  0  0  0  0  0  0  0  0  0
   -1.1420    0.7572    1.3270 C   0  0  0  0  0  0  0  0  0  0  0  0
    3.0941   -1.0260   -0.7150 C   0  0  0  0  0  0  0  0  0  0  0  0
    3.0324    1.1070    0.7255 C   0  0  0  0  0  0  0  0  0  0  0  0
   -0.1329   -3.5849   -0.8386 C   0  0  0  0  0  0  0  0  0  0  0  0
   -1.6449   -2.0888   -1.9790 C   0  0  0  0  0  0  0  0  0  0  0  0
   -0.7249    3.4366    0.7098 C   0  0  0  0  0  0  0  0  0  0  0  0
   -1.9992    1.7629    1.8098 C   0  0  0  0  0  0  0  0  0  0  0  0
    4.4154   -0.9755   -0.6500 O   0  0  0  0  0  0  0  0  0  0  0  0
    2.6396   -1.9202   -1.4721 O   0  0  0  0  0  0  0  0  0  0  0  0
    3.6629    2.0411    1.2912 N   0  0  0  0  0  0  0  0  0  0  0  0
   -1.2009   -3.3800   -1.7035 C   0  0  0  0  0  0  0  0  0  0  0  0
   -1.7046    3.1091    1.6134 C   0  0  0  0  0  0  0  0  0  0  0  0
    5.0905    0.1388   -0.0958 C   0  0  0  0  0  0  0  0  0  0  0  0
    4.6777    1.6964   -0.7935 C   0  0  3  0  0  0  0  0  0  0  0  0
    2.9525    2.6484   -0.5982 C   0  0  0  0  0  0  0  0  0  0  0  0
    5.7598    2.5710   -0.1397 C   0  0  0  0  0  0  0  0  0  0  0  0
    2.0967    3.1112    1.1115 C   0  0  0  0  0  0  0  0  0  0  0  0
    7.2123    2.1727   -0.2598 C   0  0  0  0  0  0  0  0  0  0  0  0
    3.1674    3.8774    2.2527 C   0  0  0  0  0  0  0  0  0  0  0  0
    3.2844    4.8920    1.2079 C   0  0  0  0  0  0  0  0  0  0  0  0
    1.2898   -2.6804    0.4630 H   0  0  0  0  0  0  0  0  0  0  0  0
   -1.2255    0.0044   -1.8130 H   0  0  0  0  0  0  0  0  0  0  0  0
    0.6340    2.7462   -0.7397 H   0  0  0  0  0  0  0  0  0  0  0  0
   -1.2947   -0.2659    1.6657 H   0  0  0  0  0  0  0  0  0  0  0  0
    0.2484   -4.5805   -0.6375 H   0  0  0  0  0  0  0  0  0  0  0  0
   -2.5437   -1.9320   -2.5668 H   0  0  0  0  0  0  0  0  0  0  0  0
   -0.3166    4.4534    0.6761 H   0  0  0  0  0  0  0  0  0  0  0  0
   -2.8915    1.4963    2.3633 H   0  0  0  0  0  0  0  0  0  0  0  0
   -1.6863   -4.2319   -2.1659 H   0  0  0  0  0  0  0  0  0  0  0  0
   -2.2410    3.8966    2.1335 H   0  0  0  0  0  0  0  0  0  0  0  0
    5.0337    0.0462    1.0064 H   0  0  0  0  0  0  0  0  0  0  0  0
    6.1400   -0.1221   -0.2804 H   0  0  0  0  0  0  0  0  0  0  0  0
    4.8175    1.5001   -1.8556 H   0  0  0  0  0  0  0  0  0  0  0  0
    2.9539    3.5099   -1.3020 H   0  0  0  0  0  0  0  0  0  0  0  0
    2.3362    1.9325   -1.2177 H   0  0  0  0  0  0  0  0  0  0  0  0
    5.5891    3.5769   -0.4940 H   0  0  0  0  0  0  0  0  0  0  0  0
    5.6573    2.5539    0.9482 H   0  0  0  0  0  0  0  0  0  0  0  0
    1.2093    2.4805    1.3777 H   0  0  0  0  0  0  0  0  0  0  0  0
    2.0445    2.3047    2.0514 H   0  0  0  0  0  0  0  0  0  0  0  0
    7.5182    2.0839   -1.2981 H   0  0  0  0  0  0  0  0  0  0  0  0
    7.7868    2.9517    0.2492 H   0  0  0  0  0  0  0  0  0  0  0  0
    7.4528    1.2488    0.2812 H   0  0  0  0  0  0  0  0  0  0  0  0
    2.9022    3.3333    3.1962 H   0  0  0  0  0  0  0  0  0  0  0  0
    4.2586    3.6181    2.3791 H   0  0  0  0  0  0  0  0  0  0  0  0
    2.2796    5.1985    0.9226 H   0  0  0  0  0  0  0  0  0  0  0  0
    3.9610    5.6710    1.4413 H   0  0  0  0  0  0  0  0  0  0  0  0
    3.7509    4.4092    0.3300 H   0  0  0  0  0  0  0  0  0  0  0  0
  1  2  1  0  0  0  0
  1  3  1  0  0  0  0
  1  4  2  0  0  0  0
  2  5  1  0  0  0  0
  2  6  2  0  0  0  0
  3  7  1  0  0  0  0
  3  8  2  0  0  0  0
  4  9  1  0  0  0  0
  4 10  1  0  0  0  0
  5 11  2  0  0  0  0
  5 28  1  0  0  0  0
  6 12  1  0  0  0  0
  6 29  1  0  0  0  0
  7 13  2  0  0  0  0
  7 30  1  0  0  0  0
  8 14  1  0  0  0  0
  8 31  1  0  0  0  0
  9 15  1  0  0  0  0
  9 16  2  0  0  0  0
 10 17  3  0  0  0  0
 11 18  1  0  0  0  0
 11 32  1  0  0  0  0
 12 18  2  0  0  0  0
 12 33  1  0  0  0  0
 13 19  1  0  0  0  0
 13 34  1  0  0  0  0
 14 19  2  0  0  0  0
 14 35  1  0  0  0  0
 15 20  1  0  0  0  0
 18 36  1  0  0  0  0
 19 37  1  0  0  0  0
 20 21  1  0  0  0  0
 20 38  1  0  0  0  0
 20 39  1  0  0  0  0
 21 22  1  0  0  0  0
 21 23  1  0  0  0  0
 21 40  1  0  0  0  0
 22 24  1  0  0  0  0
 22 41  1  0  0  0  0
 22 42  1  0  0  0  0
 23 25  1  0  0  0  0
 23 43  1  0  0  0  0
 23 44  1  0  0  0  0
 24 26  1  0  0  0  0
 24 45  1  0  0  0  0
 24 46  1  0  0  0  0
 25 47  1  0  0  0  0
 25 48  1  0  0  0  0
 25 49  1  0  0  0  0
 26 27  1  0  0  0  0
 26 50  1  0  0  0  0
 26 51  1  0  0  0  0
 27 52  1  0  0  0  0
 27 53  1  0  0  0  0
 27 54  1  0  0  0  0
M  END
>  <DRUGBANK_ID>
DB09535

>  <COMMON_NAME>
Octocrylene

>  <CAS_NUMBER>
6197-30-4

>  <UNII>
5A68WGF6WM

>  <SYNONYMS>
Octocrileno; Octocrilenum; Octocrylene

$$$$
