
 OpenBabel10282417123D

 51 52  0  0  0  0  0  0  0  0999 V2000
    1.0453   -0.0665    0.0594 P   0  0  1  0  0  0  0  0  0  0  0  0
    1.5665   -2.5902    1.9967 P   0  0  1  0  0  0  0  0  0  0  0  0
   -1.5378   -0.3638    1.7961 O   0  0  0  0  0  0  0  0  0  0  0  0
   -1.2288   -1.8637    4.4842 O   0  0  0  0  0  0  0  0  0  0  0  0
   -1.8668   -3.5186    2.6562 O   0  0  0  0  0  0  0  0  0  0  0  0
    0.9136    0.9702    1.2820 O   0  0  0  0  0  0  0  0  0  0  0  0
    1.0453   -1.7092    0.6020 O   0  0  0  0  0  0  0  0  0  0  0  0
   -2.8577   -3.1347   -1.0950 O   0  0  0  0  0  0  0  0  0  0  0  0
   -0.6847   -0.0665    0.0594 O   0  0  0  0  0  0  0  0  0  0  0  0
    2.5936   -0.0665    0.0594 O   0  0  0  0  0  0  0  0  0  0  0  0
    1.8474   -3.8767    1.0003 O   0  0  0  0  0  0  0  0  0  0  0  0
    3.0030   -1.8281    1.8533 O   0  0  0  0  0  0  0  0  0  0  0  0
    2.0329   -3.3787    3.2449 O   0  0  0  0  0  0  0  0  0  0  0  0
    0.1212   -4.6324    3.4604 O   0  0  0  0  0  0  0  0  0  0  0  0
   -0.6668   -7.4451    1.3761 O   0  0  0  0  0  0  0  0  0  0  0  0
   -0.8632   -2.1935   -0.6473 N   0  0  0  0  0  0  0  0  0  0  0  0
   -1.4285   -2.8797   -2.8883 N   0  0  0  0  0  0  0  0  0  0  0  0
    0.1672   -2.7040   -4.6220 N   0  0  0  0  0  0  0  0  0  0  0  0
   -0.4228   -1.6132    3.3493 C   0  0  1  0  0  0  0  0  0  0  0  0
   -0.9884   -2.5449    2.1668 C   0  0  2  0  0  0  0  0  0  0  0  0
   -0.5593   -0.2033    2.8691 C   0  0  1  0  0  0  0  0  0  0  0  0
   -1.5257   -1.7735    1.0324 C   0  0  1  0  0  0  0  0  0  0  0  0
    0.7963    0.5545    2.5981 C   0  0  0  0  0  0  0  0  0  0  0  0
    0.4958   -2.2842   -1.2771 C   0  0  0  0  0  0  0  0  0  0  0  0
   -1.7750   -2.7845   -1.5288 C   0  0  0  0  0  0  0  0  0  0  0  0
    0.9070   -2.6067   -2.4944 C   0  0  0  0  0  0  0  0  0  0  0  0
   -0.2155   -2.7562   -3.3254 C   0  0  0  0  0  0  0  0  0  0  0  0
    0.8591   -4.9123    1.0010 C   0  0  0  0  0  0  0  0  0  0  0  0
    0.4396   -5.5320    2.3863 C   0  0  2  0  0  0  0  0  0  0  0  0
   -0.8579   -6.3328    2.2196 C   0  0  0  0  0  0  0  0  0  0  0  0
    1.1544   -2.6389   -4.8644 H   0  0  0  0  0  0  0  0  0  0  0  0
   -0.4878   -2.9863   -5.3245 H   0  0  0  0  0  0  0  0  0  0  0  0
   -2.0836   -2.1297    4.0969 H   0  0  0  0  0  0  0  0  0  0  0  0
   -1.2869   -4.0240    3.2779 H   0  0  0  0  0  0  0  0  0  0  0  0
   -1.0399   -0.3730   -0.7988 H   0  0  0  0  0  0  0  0  0  0  0  0
    3.0208   -0.9760    1.3583 H   0  0  0  0  0  0  0  0  0  0  0  0
    0.9668   -4.2353    3.7861 H   0  0  0  0  0  0  0  0  0  0  0  0
   -0.5327   -7.0940    0.4805 H   0  0  0  0  0  0  0  0  0  0  0  0
    0.5868   -1.7088    3.7727 H   0  0  0  0  0  0  0  0  0  0  0  0
   -0.3334   -3.1056    1.5704 H   0  0  0  0  0  0  0  0  0  0  0  0
   -1.0078    0.4076    3.6619 H   0  0  0  0  0  0  0  0  0  0  0  0
   -2.5892   -1.9620    0.9305 H   0  0  0  0  0  0  0  0  0  0  0  0
    1.7273    0.0485    2.8858 H   0  0  0  0  0  0  0  0  0  0  0  0
    0.8591    1.4789    3.1982 H   0  0  0  0  0  0  0  0  0  0  0  0
    1.5266   -2.0594   -0.9667 H   0  0  0  0  0  0  0  0  0  0  0  0
    1.9606   -2.5306   -2.7780 H   0  0  0  0  0  0  0  0  0  0  0  0
   -0.0072   -4.5368    0.4476 H   0  0  0  0  0  0  0  0  0  0  0  0
    1.2363   -5.7073    0.3539 H   0  0  0  0  0  0  0  0  0  0  0  0
    1.2642   -6.1545    2.7380 H   0  0  0  0  0  0  0  0  0  0  0  0
   -1.2282   -6.6497    3.2033 H   0  0  0  0  0  0  0  0  0  0  0  0
   -1.6645   -5.7187    1.7973 H   0  0  0  0  0  0  0  0  0  0  0  0
  1  9  1  0  0  0  0
  1 10  2  6  0  0  0
  1  7  1  0  0  0  0
  1  6  1  0  0  0  0
  2  7  1  0  0  0  0
  2 11  1  0  0  0  0
  2 12  1  0  0  0  0
  2 13  2  1  0  0  0
  3 21  1  0  0  0  0
  3 22  1  0  0  0  0
  4 33  1  0  0  0  0
  5 34  1  0  0  0  0
  6 23  1  0  0  0  0
  8 25  2  0  0  0  0
  9 35  1  0  0  0  0
 11 28  1  0  0  0  0
 12 36  1  0  0  0  0
 14 37  1  0  0  0  0
 15 30  1  0  0  0  0
 15 38  1  0  0  0  0
 16 24  1  0  0  0  0
 16 25  1  0  0  0  0
 17 25  1  0  0  0  0
 17 27  2  0  0  0  0
 18 27  1  0  0  0  0
 18 31  1  0  0  0  0
 18 32  1  0  0  0  0
 19  4  1  0  0  0  0
 19 20  1  0  0  0  0
 19 21  1  0  0  0  0
 19 39  1  1  0  0  0
 20  5  1  0  0  0  0
 20 22  1  0  0  0  0
 20 40  1  6  0  0  0
 21 23  1  0  0  0  0
 21 41  1  1  0  0  0
 22 42  1  6  0  0  0
 22 16  1  0  0  0  0
 23 43  1  0  0  0  0
 23 44  1  0  0  0  0
 24 26  2  0  0  0  0
 24 45  1  0  0  0  0
 26 27  1  0  0  0  0
 26 46  1  0  0  0  0
 28 29  1  0  0  0  0
 28 47  1  0  0  0  0
 28 48  1  0  0  0  0
 29 14  1  0  0  0  0
 29 30  1  0  0  0  0
 29 49  1  1  0  0  0
 30 50  1  0  0  0  0
 30 51  1  0  0  0  0
M  END
>  <DRUGBANK_ID>
DB02484

>  <SECONDARY_ACCESSION_NUMBERS>
EXPT00805

>  <COMMON_NAME>
Cytidine 5'-diphosphoglycerol

$$$$
