
 OpenBabel10282417213D

  1  0  0  0  0  0  0  0  0  0999 V2000
    1.0783   -0.0036   -0.0620 Ti  0  0  0  0  0  0  0  0  0  0  0  0
M  END
>  <DRUGBANK_ID>
DB14160

>  <COMMON_NAME>
Titanium

>  <CAS_NUMBER>
7440-32-6

>  <UNII>
D1JT611TNE

>  <SYNONYMS>
Titan; Titane; Titanio; Titanium element; Titanium metallicum

$$$$
