
 OpenBabel10282417163D

 29 30  0  0  0  0  0  0  0  0999 V2000
   -1.2275   -1.4696    0.0555 C   0  0  0  0  0  0  0  0  0  0  0  0
   -0.0087   -0.7649    0.1204 C   0  0  0  0  0  0  0  0  0  0  0  0
    1.2295   -1.4206    0.0213 C   0  0  0  0  0  0  0  0  0  0  0  0
    2.4226   -0.6978   -0.0185 C   0  0  0  0  0  0  0  0  0  0  0  0
    2.3934    0.6957    0.0055 C   0  0  0  0  0  0  0  0  0  0  0  0
    1.1703    1.3810    0.1280 C   0  0  0  0  0  0  0  0  0  0  0  0
    1.1534    2.8993    0.0817 C   0  0  0  0  0  0  0  0  0  0  0  0
    0.5247    3.5685   -1.1760 C   0  0  1  0  0  0  0  0  0  0  0  0
   -0.9020    3.1437   -1.6248 C   0  0  0  0  0  0  0  0  0  0  0  0
   -1.8975    3.9917   -1.2375 O   0  0  0  0  0  0  0  0  0  0  0  0
   -1.1488    2.1575   -2.2877 O   0  0  0  0  0  0  0  0  0  0  0  0
    0.5632    5.0440   -0.9981 N   0  0  0  0  0  0  0  0  0  0  0  0
   -0.0339    0.6389    0.2593 C   0  0  0  0  0  0  0  0  0  0  0  0
   -1.2846    1.2498    0.4708 C   0  0  0  0  0  0  0  0  0  0  0  0
   -2.4777    0.5711    0.2545 C   0  0  0  0  0  0  0  0  0  0  0  0
   -2.4515   -0.7965    0.0553 C   0  0  0  0  0  0  0  0  0  0  0  0
   -1.2324   -2.5504   -0.0541 H   0  0  0  0  0  0  0  0  0  0  0  0
    1.2701   -2.5058   -0.0380 H   0  0  0  0  0  0  0  0  0  0  0  0
    3.3719   -1.2237   -0.0944 H   0  0  0  0  0  0  0  0  0  0  0  0
    3.3347    1.2380   -0.0717 H   0  0  0  0  0  0  0  0  0  0  0  0
    0.6907    3.2601    1.0100 H   0  0  0  0  0  0  0  0  0  0  0  0
    2.1958    3.2513    0.1473 H   0  0  0  0  0  0  0  0  0  0  0  0
    1.1565    3.3314   -2.0395 H   0  0  0  0  0  0  0  0  0  0  0  0
   -1.5774    4.8167   -0.8376 H   0  0  0  0  0  0  0  0  0  0  0  0
    0.1295    5.5036   -1.7982 H   0  0  0  0  0  0  0  0  0  0  0  0
    0.1434    5.3371   -0.1206 H   0  0  0  0  0  0  0  0  0  0  0  0
   -1.3575    2.3074    0.6970 H   0  0  0  0  0  0  0  0  0  0  0  0
   -3.4069    1.1320    0.1971 H   0  0  0  0  0  0  0  0  0  0  0  0
   -3.3824   -1.3329   -0.0986 H   0  0  0  0  0  0  0  0  0  0  0  0
  1 17  1  0  0  0  0
  2  1  1  0  0  0  0
  2  3  1  0  0  0  0
  3  4  2  0  0  0  0
  3 18  1  0  0  0  0
  4  5  1  0  0  0  0
  4 19  1  0  0  0  0
  5  6  2  0  0  0  0
  5 20  1  0  0  0  0
  6  7  1  0  0  0  0
  6 13  1  0  0  0  0
  7 21  1  0  0  0  0
  7 22  1  0  0  0  0
  8  7  1  0  0  0  0
  8  9  1  0  0  0  0
  8 23  1  6  0  0  0
  9 11  2  0  0  0  0
 10  9  1  0  0  0  0
 10 24  1  0  0  0  0
 12  8  1  0  0  0  0
 12 25  1  0  0  0  0
 12 26  1  0  0  0  0
 13  2  2  0  0  0  0
 13 14  1  0  0  0  0
 14 15  2  0  0  0  0
 14 27  1  0  0  0  0
 15 16  1  0  0  0  0
 15 28  1  0  0  0  0
 16  1  2  0  0  0  0
 16 29  1  0  0  0  0
M  END
>  <DRUGBANK_ID>
DB07365

>  <COMMON_NAME>
1-Naphthyl-L-alanine

>  <CAS_NUMBER>
55516-54-6

>  <UNII>
9G930UL92R

>  <SYNONYMS>
(S)-2-Amino-3-(naphthalen-1-yl)propanoic acid; L-beta-(1-Naphthyl)alanine; Naphthalen-2-yl-3-alanine

$$$$
