
 OpenBabel10282417143D

 23 23  0  0  0  0  0  0  0  0999 V2000
    0.7026    1.2854   -0.2482 C   0  0  1  0  0  0  0  0  0  0  0  0
    1.3582    2.4637    0.2320 O   0  0  0  0  0  0  0  0  0  0  0  0
    1.4490    0.0242    0.2109 C   0  0  2  0  0  0  0  0  0  0  0  0
    2.7784   -0.0131   -0.3113 O   0  0  0  0  0  0  0  0  0  0  0  0
    0.6766   -1.2470   -0.1934 C   0  0  2  0  0  0  0  0  0  0  0  0
   -1.3829   -0.0670   -0.2293 C   0  0  2  0  0  0  0  0  0  0  0  0
   -2.7326   -0.1361    0.1836 O   0  0  0  0  0  0  0  0  0  0  0  0
   -0.6774   -1.2007    0.2887 O   0  0  0  0  0  0  0  0  0  0  0  0
   -0.7401    1.2424    0.2385 C   0  0  1  0  0  0  0  0  0  0  0  0
    1.4614   -2.4862    0.2998 C   0  0  0  0  0  0  0  0  0  0  0  0
    0.6550   -3.4757    0.9183 O   0  0  0  0  0  0  0  0  0  0  0  0
   -0.7121    1.2662    1.6099 F   0  0  0  0  0  0  0  0  0  0  0  0
    0.7287    1.3484   -1.3423 H   0  0  0  0  0  0  0  0  0  0  0  0
    1.3450    2.4221    1.2081 H   0  0  0  0  0  0  0  0  0  0  0  0
    1.5423    0.0570    1.3047 H   0  0  0  0  0  0  0  0  0  0  0  0
    2.7462    0.1270   -1.2750 H   0  0  0  0  0  0  0  0  0  0  0  0
    0.6399   -1.3142   -1.2902 H   0  0  0  0  0  0  0  0  0  0  0  0
   -1.3881   -0.1135   -1.3258 H   0  0  0  0  0  0  0  0  0  0  0  0
   -2.7560   -0.9137    0.7731 H   0  0  0  0  0  0  0  0  0  0  0  0
   -1.3073    2.1230   -0.0777 H   0  0  0  0  0  0  0  0  0  0  0  0
    1.9603   -2.9514   -0.5587 H   0  0  0  0  0  0  0  0  0  0  0  0
    2.2617   -2.2156    0.9983 H   0  0  0  0  0  0  0  0  0  0  0  0
    0.4112   -3.1242    1.7944 H   0  0  0  0  0  0  0  0  0  0  0  0
  1  3  1  0  0  0  0
  1  2  1  0  0  0  0
  1 13  1  6  0  0  0
  2 14  1  0  0  0  0
  3  5  1  0  0  0  0
  3  4  1  0  0  0  0
  3 15  1  1  0  0  0
  4 16  1  0  0  0  0
  5  8  1  0  0  0  0
  5 17  1  6  0  0  0
  5 10  1  0  0  0  0
  6  8  1  0  0  0  0
  6  9  1  0  0  0  0
  6 18  1  6  0  0  0
  6  7  1  0  0  0  0
  7 19  1  0  0  0  0
  9  1  1  0  0  0  0
  9 12  1  0  0  0  0
  9 20  1  6  0  0  0
 10 11  1  0  0  0  0
 10 21  1  0  0  0  0
 10 22  1  0  0  0  0
 11 23  1  0  0  0  0
M  END
>  <DRUGBANK_ID>
DB04483

>  <SECONDARY_ACCESSION_NUMBERS>
EXPT02121

>  <COMMON_NAME>
2-deoxy-2-fluoro-Î²-D-mannose

>  <CAS_NUMBER>
55449-80-4

>  <SYNONYMS>
2-deoxy-2-fluoro-beta-D-mannose

$$$$
