
 OpenBabel10282417113D

 17 18  0  0  0  0  0  0  0  0999 V2000
    1.0600    0.0799   -0.0043 O   0  0  0  0  0  0  0  0  0  0  0  0
    0.3467    1.4823   -1.4548 Bi  0  0  3  0  0  0  0  0  0  0  0  0
    0.3442    2.8844   -0.8352 O   0  0  0  0  0  0  0  0  0  0  0  0
    0.2642    3.9092   -1.9652 C   0  0  0  0  0  0  0  0  0  0  0  0
    1.0495    4.8992   -2.1010 O   0  0  0  0  0  0  0  0  0  0  0  0
   -0.8744    3.5840   -2.8964 C   0  0  0  0  0  0  0  0  0  0  0  0
   -1.3211    4.5919   -3.7448 C   0  0  0  0  0  0  0  0  0  0  0  0
   -2.3536    4.3644   -4.6262 C   0  0  0  0  0  0  0  0  0  0  0  0
   -2.9578    3.1062   -4.6703 C   0  0  0  0  0  0  0  0  0  0  0  0
   -2.5115    2.1013   -3.8148 C   0  0  0  0  0  0  0  0  0  0  0  0
   -1.4697    2.3411   -2.9331 C   0  0  0  0  0  0  0  0  0  0  0  0
   -1.0390    1.2099   -2.0355 O   0  0  0  0  0  0  0  0  0  0  0  0
    2.0600    0.0799   -0.0043 H   0  0  0  0  0  0  0  0  0  0  0  0
   -0.8566    5.5553   -3.7118 H   0  0  0  0  0  0  0  0  0  0  0  0
   -2.6911    5.1468   -5.2734 H   0  0  0  0  0  0  0  0  0  0  0  0
   -3.7570    2.9155   -5.3557 H   0  0  0  0  0  0  0  0  0  0  0  0
   -2.9763    1.1379   -3.8387 H   0  0  0  0  0  0  0  0  0  0  0  0
  1  2  1  0  0  0  0
  1 13  1  0  0  0  0
  2  3  1  0  0  0  0
  2 12  1  0  0  0  0
  3  4  1  0  0  0  0
  4  5  2  0  0  0  0
  4  6  1  0  0  0  0
  6  7  2  0  0  0  0
  6 11  1  0  0  0  0
  7  8  1  0  0  0  0
  7 14  1  0  0  0  0
  8  9  2  0  0  0  0
  8 15  1  0  0  0  0
  9 10  1  0  0  0  0
  9 16  1  0  0  0  0
 10 11  2  0  0  0  0
 10 17  1  0  0  0  0
 11 12  1  0  0  0  0
M  END
>  <DRUGBANK_ID>
DB01294

>  <SECONDARY_ACCESSION_NUMBERS>
DB01402

>  <COMMON_NAME>
Bismuth subsalicylate

>  <CAS_NUMBER>
14882-18-9

>  <UNII>
62TEY51RR1

>  <SYNONYMS>
2-Hydroxy-benzo[1,3,2]dioxabismin-4-one; Basic bismuth salicylate; Bismuth oxide salicylate; Bismuth oxysalicylate; Bismuth subsalicylate; Pink bismuth; Wismutsubsalicylat

$$$$
