
 OpenBabel10282417193D

 62 66  0  0  1  0  0  0  0  0999 V2000
    2.3368   -0.0397    0.0008 C   0  0  0  0  0  0  0  0  0  0  0  0
    1.6403   -1.1580   -0.0381 N   0  0  0  0  0  0  0  0  0  0  0  0
    0.3199   -0.7675   -0.0348 C   0  0  0  0  0  0  0  0  0  0  0  0
    0.2566    0.5942    0.0160 C   0  0  0  0  0  0  0  0  0  0  0  0
    1.5405    1.0869    0.0467 N   0  0  0  0  0  0  0  0  0  0  0  0
    2.1318    2.4242    0.1246 C   0  0  1  0  0  0  0  0  0  0  0  0
    2.0017    3.3047   -1.1017 C   0  0  0  0  0  0  0  0  0  0  0  0
    1.7585    4.6826   -0.4922 C   0  0  1  0  0  0  0  0  0  0  0  0
    1.1301    4.4378    0.9128 C   0  0  2  0  0  0  0  0  0  0  0  0
    1.5912    3.1143    1.2627 O   0  0  0  0  0  0  0  0  0  0  0  0
   -0.4129    4.4284    1.1779 C   0  0  0  0  0  0  0  0  0  0  0  0
   -1.1106    3.4409    0.4053 O   0  0  0  0  0  0  0  0  0  0  0  0
   -0.7086    3.5083   -1.2760 P   0  0  3  0  0  0  0  0  0  0  0  0
   -2.1869    3.1863   -1.4201 O   0  0  0  0  0  0  0  0  0  0  0  0
   -0.9019    5.1450   -1.3028 O   0  0  0  0  0  0  0  0  0  0  0  0
   -0.3067    3.5757   -2.9573 O   0  0  0  0  0  0  0  0  0  0  0  0
   -1.4245    3.9213   -3.8078 C   0  0  1  0  0  0  0  0  0  0  0  0
   -1.0043    3.9402   -5.2613 C   0  0  0  0  0  0  0  0  0  0  0  0
   -1.2268    2.4978   -5.7126 C   0  0  1  0  0  0  0  0  0  0  0  0
   -2.1881    1.9354   -4.8512 O   0  0  0  0  0  0  0  0  0  0  0  0
   -2.5017    2.8290   -3.7977 C   0  0  2  0  0  0  0  0  0  0  0  0
   -3.9298    3.4060   -3.8720 C   0  0  0  0  0  0  0  0  0  0  0  0
   -4.7197    2.9915   -2.7488 O   0  0  0  0  0  0  0  0  0  0  0  0
   -1.6600    2.3515   -7.0916 N   0  0  0  0  0  0  0  0  0  0  0  0
   -0.8563    2.7698   -8.0999 C   0  0  0  0  0  0  0  0  0  0  0  0
   -1.1467    2.6641   -9.3463 N   0  0  0  0  0  0  0  0  0  0  0  0
   -2.3314    2.0773   -9.6452 C   0  0  0  0  0  0  0  0  0  0  0  0
   -3.1417    1.6259   -8.7606 N   0  0  0  0  0  0  0  0  0  0  0  0
   -2.8458    1.7292   -7.4382 C   0  0  0  0  0  0  0  0  0  0  0  0
   -3.6570    1.2828   -6.6375 O   0  0  0  0  0  0  0  0  0  0  0  0
   -2.6898    1.9581  -10.9367 N   0  0  0  0  0  0  0  0  0  0  0  0
    3.0171    5.3430   -0.3629 O   0  0  0  0  0  0  0  0  0  0  0  0
   -0.9466    1.1697    0.0712 N   0  0  0  0  0  0  0  0  0  0  0  0
   -2.1026    0.4366    0.0436 C   0  0  0  0  0  0  0  0  0  0  0  0
   -2.1399   -0.8499   -0.0209 N   0  0  0  0  0  0  0  0  0  0  0  0
   -0.9318   -1.5770   -0.0279 C   0  0  0  0  0  0  0  0  0  0  0  0
   -0.9130   -2.7857   -0.0107 O   0  0  0  0  0  0  0  0  0  0  0  0
   -3.2092    1.2298    0.1657 N   0  0  0  0  0  0  0  0  0  0  0  0
    3.4172    0.0261    0.0066 H   0  0  0  0  0  0  0  0  0  0  0  0
    3.2071    2.3203    0.2873 H   0  0  0  0  0  0  0  0  0  0  0  0
    1.2560    2.8096   -1.7056 H   0  0  0  0  0  0  0  0  0  0  0  0
    2.8176    3.3225   -1.8269 H   0  0  0  0  0  0  0  0  0  0  0  0
    1.2523    5.3755   -1.1563 H   0  0  0  0  0  0  0  0  0  0  0  0
    1.5547    5.1494    1.6317 H   0  0  0  0  0  0  0  0  0  0  0  0
   -0.6255    4.2019    2.2301 H   0  0  0  0  0  0  0  0  0  0  0  0
   -0.8931    5.4046    1.0229 H   0  0  0  0  0  0  0  0  0  0  0  0
   -0.3980    5.7897   -0.7869 H   0  0  0  0  0  0  0  0  0  0  0  0
   -1.7745    4.9133   -3.4992 H   0  0  0  0  0  0  0  0  0  0  0  0
   -1.6617    4.6164   -5.8216 H   0  0  0  0  0  0  0  0  0  0  0  0
    0.0305    4.2638   -5.4116 H   0  0  0  0  0  0  0  0  0  0  0  0
   -0.2969    1.9318   -5.5720 H   0  0  0  0  0  0  0  0  0  0  0  0
   -2.4382    2.1134   -2.9862 H   0  0  0  0  0  0  0  0  0  0  0  0
   -3.9388    4.5023   -3.8500 H   0  0  0  0  0  0  0  0  0  0  0  0
   -4.4510    3.0715   -4.7676 H   0  0  0  0  0  0  0  0  0  0  0  0
   -4.4927    2.0602   -2.5784 H   0  0  0  0  0  0  0  0  0  0  0  0
    0.0932    3.2338   -7.7872 H   0  0  0  0  0  0  0  0  0  0  0  0
   -3.5646    1.4970  -11.1434 H   0  0  0  0  0  0  0  0  0  0  0  0
   -2.0916    2.2812  -11.6771 H   0  0  0  0  0  0  0  0  0  0  0  0
    3.6491    4.7625    0.0883 H   0  0  0  0  0  0  0  0  0  0  0  0
   -1.1141    2.0352    0.5718 H   0  0  0  0  0  0  0  0  0  0  0  0
   -3.1625    2.1991   -0.1781 H   0  0  0  0  0  0  0  0  0  0  0  0
   -4.1094    0.8001   -0.0148 H   0  0  0  0  0  0  0  0  0  0  0  0
  1  2  2  0  0  0  0
  1  5  1  0  0  0  0
  1 39  1  0  0  0  0
  2  3  1  0  0  0  0
  3  4  2  0  0  0  0
  3 36  1  0  0  0  0
  4  5  1  0  0  0  0
  4 33  1  0  0  0  0
  6  5  1  0  0  0  0
  6  7  1  0  0  0  0
  6 10  1  0  0  0  0
  6 40  1  1  0  0  0
  7  8  1  0  0  0  0
  7 41  1  0  0  0  0
  7 42  1  0  0  0  0
  8  9  1  0  0  0  0
  8 32  1  0  0  0  0
  8 43  1  6  0  0  0
  9 10  1  0  0  0  0
  9 44  1  1  0  0  0
  9 11  1  0  0  0  0
 11 12  1  0  0  0  0
 11 45  1  0  0  0  0
 11 46  1  0  0  0  0
 12 13  1  0  0  0  0
 13 14  2  0  0  0  0
 13 15  1  0  0  0  0
 13 16  1  0  0  0  0
 15 47  1  0  0  0  0
 17 16  1  0  0  0  0
 17 18  1  0  0  0  0
 17 21  1  0  0  0  0
 17 48  1  1  0  0  0
 18 19  1  0  0  0  0
 18 49  1  0  0  0  0
 18 50  1  0  0  0  0
 19 20  1  0  0  0  0
 19 51  1  1  0  0  0
 19 24  1  0  0  0  0
 20 21  1  0  0  0  0
 21 52  1  1  0  0  0
 21 22  1  0  0  0  0
 22 23  1  0  0  0  0
 22 53  1  0  0  0  0
 22 54  1  0  0  0  0
 23 55  1  0  0  0  0
 24 25  1  0  0  0  0
 24 29  1  0  0  0  0
 25 26  2  0  0  0  0
 25 56  1  0  0  0  0
 26 27  1  0  0  0  0
 27 28  2  0  0  0  0
 27 31  1  0  0  0  0
 28 29  1  0  0  0  0
 29 30  2  0  0  0  0
 31 57  1  0  0  0  0
 31 58  1  0  0  0  0
 32 59  1  0  0  0  0
 33 34  1  0  0  0  0
 33 60  1  0  0  0  0
 34 35  2  0  0  0  0
 34 38  1  0  0  0  0
 35 36  1  0  0  0  0
 36 37  2  0  0  0  0
 38 61  1  0  0  0  0
 38 62  1  0  0  0  0
M  END
>  <DRUGBANK_ID>
DB11918

>  <COMMON_NAME>
Guadecitabine

>  <CAS_NUMBER>
929901-49-5

>  <UNII>
2KT4YN1DP7

>  <SYNONYMS>
Guadecitabine

$$$$
