
 OpenBabel10282417213D

 51 54  0  0  0  0  0  0  0  0999 V2000
   -1.2264   12.8643    0.1562 C   0  0  0  0  0  0  0  0  0  0  0  0
   -2.6791   12.3702   -0.0532 C   0  0  0  0  0  0  0  0  0  0  0  0
   -2.9672   10.5546    0.1571 S   0  0  0  0  0  0  0  0  0  0  0  0
   -0.1284   12.0513    0.0538 C   0  0  0  0  0  0  0  0  0  0  0  0
   -1.1828   14.3016    0.7266 C   0  0  0  0  0  0  0  0  0  0  0  0
   -0.4587   14.5666    2.3852 S   0  0  0  0  0  0  0  0  0  0  0  0
    1.2766   12.6098    0.3101 C   0  0  0  0  0  0  0  0  0  0  0  0
    2.3070   11.7495    0.2396 O   0  0  0  0  0  0  0  0  0  0  0  0
    1.5167   13.7983    0.4561 O   0  0  0  0  0  0  0  0  0  0  0  0
   -0.3035   10.7087   -0.1849 N   0  0  0  0  0  0  0  0  0  0  0  0
   -1.4943   10.0438   -0.7023 C   0  0  1  0  0  0  0  0  0  0  0  0
   -0.7835    8.6910   -0.3627 C   0  0  1  0  0  0  0  0  0  0  0  0
    0.2714    9.5883    0.3341 C   0  0  0  0  0  0  0  0  0  0  0  0
   -1.4068    7.5644    0.4249 N   0  0  0  0  0  0  0  0  0  0  0  0
   -1.2323   13.7691    3.7071 C   0  0  0  0  0  0  0  0  0  0  0  0
   -1.2345   14.2495    4.9347 N   0  0  0  0  0  0  0  0  0  0  0  0
   -1.8541   13.3116    5.7297 N   0  0  0  0  0  0  0  0  0  0  0  0
   -2.2039   12.2550    5.0236 N   0  0  0  0  0  0  0  0  0  0  0  0
   -1.7525   12.5151    3.7974 N   0  0  0  0  0  0  0  0  0  0  0  0
   -1.9739   11.5338    2.8164 C   0  0  0  0  0  0  0  0  0  0  0  0
    1.2422    9.4643    1.0254 O   0  0  0  0  0  0  0  0  0  0  0  0
   -1.5195    6.2944   -0.1666 C   0  0  0  0  0  0  0  0  0  0  0  0
   -2.2809    5.1568    0.5982 C   0  0  2  0  0  0  0  0  0  0  0  0
   -1.0205    6.0948   -1.2763 O   0  0  0  0  0  0  0  0  0  0  0  0
   -2.1366    3.8871   -0.1253 O   0  0  0  0  0  0  0  0  0  0  0  0
   -3.7145    5.4898    0.9974 C   0  0  0  0  0  0  0  0  0  0  0  0
   -4.5860    4.4662    1.4106 C   0  0  0  0  0  0  0  0  0  0  0  0
   -5.9355    4.7254    1.6239 C   0  0  0  0  0  0  0  0  0  0  0  0
   -6.3887    6.0375    1.6530 C   0  0  0  0  0  0  0  0  0  0  0  0
   -5.5086    7.0778    1.4091 C   0  0  0  0  0  0  0  0  0  0  0  0
   -4.2205    6.7945    0.9828 C   0  0  0  0  0  0  0  0  0  0  0  0
   -3.1261    3.2781   -0.8155 C   0  0  0  0  0  0  0  0  0  0  0  0
   -3.0425    2.1477   -1.2769 O   0  0  0  0  0  0  0  0  0  0  0  0
   -1.6266   10.1787   -1.7756 H   0  0  0  0  0  0  0  0  0  0  0  0
   -3.0611   12.6616   -1.0322 H   0  0  0  0  0  0  0  0  0  0  0  0
   -3.3248   12.8470    0.6991 H   0  0  0  0  0  0  0  0  0  0  0  0
   -0.6170   14.9207    0.0141 H   0  0  0  0  0  0  0  0  0  0  0  0
   -2.1786   14.7541    0.7445 H   0  0  0  0  0  0  0  0  0  0  0  0
    2.1202   10.7926    0.2355 H   0  0  0  0  0  0  0  0  0  0  0  0
   -0.3502    8.2850   -1.2824 H   0  0  0  0  0  0  0  0  0  0  0  0
   -1.7526    7.7050    1.3723 H   0  0  0  0  0  0  0  0  0  0  0  0
   -1.5523   10.5555    3.0299 H   0  0  0  0  0  0  0  0  0  0  0  0
   -3.0442   11.5129    2.6071 H   0  0  0  0  0  0  0  0  0  0  0  0
   -1.4034   11.8759    1.9985 H   0  0  0  0  0  0  0  0  0  0  0  0
   -1.7204    4.9932    1.5289 H   0  0  0  0  0  0  0  0  0  0  0  0
   -4.2518    3.4302    1.4724 H   0  0  0  0  0  0  0  0  0  0  0  0
   -6.6247    3.8994    1.7739 H   0  0  0  0  0  0  0  0  0  0  0  0
   -7.4299    6.2536    1.8628 H   0  0  0  0  0  0  0  0  0  0  0  0
   -5.8195    8.1132    1.5109 H   0  0  0  0  0  0  0  0  0  0  0  0
   -3.6619    7.6442    0.6215 H   0  0  0  0  0  0  0  0  0  0  0  0
   -4.0636    3.8442   -0.8741 H   0  0  0  0  0  0  0  0  0  0  0  0
  1  5  1  0  0  0  0
  1  2  1  0  0  0  0
  1  4  2  0  0  0  0
  2  3  1  0  0  0  0
  2 35  1  0  0  0  0
  2 36  1  0  0  0  0
  4  7  1  0  0  0  0
  5  6  1  0  0  0  0
  5 37  1  0  0  0  0
  5 38  1  0  0  0  0
  6 15  1  0  0  0  0
  7  8  1  0  0  0  0
  7  9  2  0  0  0  0
  8 39  1  0  0  0  0
 10 11  1  0  0  0  0
 10  4  1  0  0  0  0
 11 12  1  0  0  0  0
 11 34  1  6  0  0  0
 11  3  1  0  0  0  0
 12 13  1  0  0  0  0
 12 14  1  0  0  0  0
 12 40  1  6  0  0  0
 13 21  2  0  0  0  0
 13 10  1  0  0  0  0
 14 22  1  0  0  0  0
 14 41  1  0  0  0  0
 15 16  2  0  0  0  0
 16 17  1  0  0  0  0
 17 18  2  0  0  0  0
 18 19  1  0  0  0  0
 19 15  1  0  0  0  0
 19 20  1  0  0  0  0
 20 42  1  0  0  0  0
 20 43  1  0  0  0  0
 20 44  1  0  0  0  0
 22 24  2  0  0  0  0
 23 26  1  0  0  0  0
 23 45  1  1  0  0  0
 23 25  1  0  0  0  0
 23 22  1  0  0  0  0
 25 32  1  0  0  0  0
 26 27  2  0  0  0  0
 27 28  1  0  0  0  0
 27 46  1  0  0  0  0
 28 29  2  0  0  0  0
 28 47  1  0  0  0  0
 29 30  1  0  0  0  0
 29 48  1  0  0  0  0
 30 31  2  0  0  0  0
 30 49  1  0  0  0  0
 31 26  1  0  0  0  0
 31 50  1  0  0  0  0
 32 33  2  0  0  0  0
 32 51  1  0  0  0  0
M  END
>  <DRUGBANK_ID>
DB14725

>  <COMMON_NAME>
Cefamandole nafate

>  <CAS_NUMBER>
57268-80-1

>  <SYNONYMS>
O-formylcefamandole

$$$$
