
 OpenBabel10282417193D

 45 47  0  0  1  0  0  0  0  0999 V2000
   -1.1629   -1.0564    0.8470 C   0  0  0  0  0  0  0  0  0  0  0  0
    0.3134   -1.3465    0.5429 C   0  0  1  0  0  0  0  0  0  0  0  0
    0.8171   -1.9113    1.8900 C   0  0  0  0  0  0  0  0  0  0  0  0
    1.0885   -1.2613    2.8901 O   0  0  0  0  0  0  0  0  0  0  0  0
    0.9208   -3.2670    1.7824 N   0  0  0  0  0  0  0  0  0  0  0  0
    0.5321   -3.6680    0.5522 C   0  0  0  0  0  0  0  0  0  0  0  0
    0.3232   -4.8194    0.1979 O   0  0  0  0  0  0  0  0  0  0  0  0
    0.4244   -2.5528   -0.2406 N   0  0  0  0  0  0  0  0  0  0  0  0
    0.9561   -0.0856   -0.0297 C   0  0  0  0  0  0  0  0  0  0  0  0
    2.3824   -0.2432   -1.1080 S   0  0  0  0  0  0  0  0  0  0  0  0
    2.0412   -1.1908   -2.1491 O   0  0  0  0  0  0  0  0  0  0  0  0
    2.7760    1.1083   -1.4505 O   0  0  0  0  0  0  0  0  0  0  0  0
    3.6519   -0.9000   -0.1699 N   0  0  0  0  0  0  0  0  0  0  0  0
    3.4389   -0.7913    1.2689 C   0  0  0  0  0  0  0  0  0  0  0  0
    4.5654   -1.2214    2.1246 C   0  0  0  0  0  0  0  0  0  0  0  0
    5.0861   -2.6077    1.7613 C   0  0  3  0  0  0  0  0  0  0  0  0
    5.2745   -2.7450    0.2472 C   0  0  0  0  0  0  0  0  0  0  0  0
    4.0501   -2.2887   -0.5476 C   0  0  0  0  0  0  0  0  0  0  0  0
    6.2497   -2.9780    2.5326 O   0  0  0  0  0  0  0  0  0  0  0  0
    7.3481   -2.1743    2.3520 C   0  0  0  0  0  0  0  0  0  0  0  0
    7.3639   -0.8524    2.7834 C   0  0  0  0  0  0  0  0  0  0  0  0
    8.4135   -0.0222    2.4211 C   0  0  0  0  0  0  0  0  0  0  0  0
    9.5110   -0.5889    1.8040 C   0  0  0  0  0  0  0  0  0  0  0  0
    9.4798   -1.9508    1.5333 C   0  0  0  0  0  0  0  0  0  0  0  0
    8.4066   -2.7540    1.7610 N   0  0  0  0  0  0  0  0  0  0  0  0
   10.8806    0.3730    1.4395 Cl  0  0  0  0  0  0  0  0  0  0  0  0
   -1.4987   -1.5506    1.7674 H   0  0  0  0  0  0  0  0  0  0  0  0
   -1.8003   -1.4009    0.0302 H   0  0  0  0  0  0  0  0  0  0  0  0
   -1.3274    0.0152    0.9983 H   0  0  0  0  0  0  0  0  0  0  0  0
    1.2484   -3.8933    2.5002 H   0  0  0  0  0  0  0  0  0  0  0  0
    0.4396   -2.6129   -1.2580 H   0  0  0  0  0  0  0  0  0  0  0  0
    0.2256    0.4039   -0.6908 H   0  0  0  0  0  0  0  0  0  0  0  0
    1.1842    0.6558    0.7441 H   0  0  0  0  0  0  0  0  0  0  0  0
    2.7460   -1.5682    1.4521 H   0  0  0  0  0  0  0  0  0  0  0  0
    3.0866    0.1934    1.5821 H   0  0  0  0  0  0  0  0  0  0  0  0
    4.2612   -1.2196    3.1816 H   0  0  0  0  0  0  0  0  0  0  0  0
    5.2859   -0.4368    1.9542 H   0  0  0  0  0  0  0  0  0  0  0  0
    4.3158   -3.3428    2.0530 H   0  0  0  0  0  0  0  0  0  0  0  0
    6.1404   -2.1542   -0.0632 H   0  0  0  0  0  0  0  0  0  0  0  0
    5.4970   -3.7891   -0.0011 H   0  0  0  0  0  0  0  0  0  0  0  0
    4.2966   -2.3180   -1.6132 H   0  0  0  0  0  0  0  0  0  0  0  0
    3.2109   -2.9665   -0.3626 H   0  0  0  0  0  0  0  0  0  0  0  0
    6.5547   -0.4289    3.3642 H   0  0  0  0  0  0  0  0  0  0  0  0
    8.3619    1.0389    2.6442 H   0  0  0  0  0  0  0  0  0  0  0  0
   10.3448   -2.4523    1.1120 H   0  0  0  0  0  0  0  0  0  0  0  0
  1 27  1  0  0  0  0
  1 28  1  0  0  0  0
  1 29  1  0  0  0  0
  2  3  1  0  0  0  0
  2  8  1  0  0  0  0
  2  9  1  6  0  0  0
  2  1  1  0  0  0  0
  3  4  2  0  0  0  0
  3  5  1  0  0  0  0
  5  6  1  0  0  0  0
  5 30  1  0  0  0  0
  6  7  2  0  0  0  0
  6  8  1  0  0  0  0
  8 31  1  0  0  0  0
  9 10  1  0  0  0  0
  9 32  1  0  0  0  0
  9 33  1  0  0  0  0
 10 11  2  0  0  0  0
 10 12  2  0  0  0  0
 10 13  1  0  0  0  0
 13 14  1  0  0  0  0
 13 18  1  0  0  0  0
 14 15  1  0  0  0  0
 14 34  1  0  0  0  0
 14 35  1  0  0  0  0
 15 16  1  0  0  0  0
 15 36  1  0  0  0  0
 15 37  1  0  0  0  0
 16 17  1  0  0  0  0
 16 19  1  0  0  0  0
 16 38  1  0  0  0  0
 17 18  1  0  0  0  0
 17 39  1  0  0  0  0
 17 40  1  0  0  0  0
 18 41  1  0  0  0  0
 18 42  1  0  0  0  0
 19 20  1  0  0  0  0
 20 21  2  0  0  0  0
 20 25  1  0  0  0  0
 21 22  1  0  0  0  0
 21 43  1  0  0  0  0
 22 23  2  0  0  0  0
 22 44  1  0  0  0  0
 23 24  1  0  0  0  0
 23 26  1  0  0  0  0
 24 25  2  0  0  0  0
 24 45  1  0  0  0  0
M  END
>  <DRUGBANK_ID>
DB11961

>  <COMMON_NAME>
AZD-1236

>  <CAS_NUMBER>
459814-89-2

>  <UNII>
B4OQY51WZS

$$$$
