287
 OpenBabel10282417103D

 70 71  0  0  1  0  0  0  0  0999 V2000
    2.6476    0.6841    0.5092 F   0  0  0  0  0  0  0  0  0  0  0  0
    3.4421    0.5602   -1.4690 F   0  0  0  0  0  0  0  0  0  0  0  0
    4.2019    1.8805   -0.0138 F   0  0  0  0  0  0  0  0  0  0  0  0
    2.1285    2.6387    1.0774 O   0  0  0  0  0  0  0  0  0  0  0  0
    2.8913   -1.3702   -1.2182 O   0  0  0  0  0  0  0  0  0  0  0  0
    0.1490   -5.0777    0.1336 O   0  0  0  0  0  0  0  0  0  0  0  0
    2.9167   -3.9805    2.5157 O   0  0  0  0  0  0  0  0  0  0  0  0
    4.0962   -2.8744    8.8330 O   0  0  0  0  0  0  0  0  0  0  0  0
    2.5489   -2.9013    7.2959 O   0  0  0  0  0  0  0  0  0  0  0  0
    0.8842    0.6975    1.9030 C   0  0  2  0  0  0  0  0  0  0  0  0
    1.2944   -0.7971    1.2712 C   0  0  2  0  0  0  0  0  0  0  0  0
    0.9677    1.7825    0.7132 C   0  0  2  0  0  0  0  0  0  0  0  0
    1.5771   -0.7780   -0.5345 C   0  0  1  0  0  0  0  0  0  0  0  0
    0.9478    0.8215   -0.7881 C   0  0  0  0  0  0  0  0  0  0  0  0
    1.7124    1.2284    3.2247 C   0  0  0  0  0  0  0  0  0  0  0  0
    0.6465   -2.0008    1.8556 C   0  0  0  0  0  0  0  0  0  0  0  0
    1.1400    0.7825    4.5268 C   0  0  0  0  0  0  0  0  0  0  0  0
    0.3734   -2.9941    0.9403 C   0  0  0  0  0  0  0  0  0  0  0  0
    0.6243   -4.3822    1.2929 C   0  0  2  0  0  0  0  0  0  0  0  0
    1.6678    0.0207    5.4909 C   0  0  0  0  0  0  0  0  0  0  0  0
    2.9352   -0.7104    5.6197 C   0  0  0  0  0  0  0  0  0  0  0  0
    2.1325   -4.7496    1.5631 C   0  0  0  0  0  0  0  0  0  0  0  0
    3.9436   -0.2311    6.6076 C   0  0  0  0  0  0  0  0  0  0  0  0
    3.3753   -0.6880    7.8966 C   0  0  0  0  0  0  0  0  0  0  0  0
    3.6923   -2.8709    2.1761 C   0  0  0  0  0  0  0  0  0  0  0  0
    3.2737   -2.2437    7.9564 C   0  0  0  0  0  0  0  0  0  0  0  0
    3.8343   -2.1729    0.9514 C   0  0  0  0  0  0  0  0  0  0  0  0
    4.1743   -2.1410    3.2362 C   0  0  0  0  0  0  0  0  0  0  0  0
    4.8611   -2.1816    9.8033 C   0  0  0  0  0  0  0  0  0  0  0  0
    4.3160   -0.6598    0.7796 C   0  0  0  0  0  0  0  0  0  0  0  0
    4.5878   -0.7435    3.0900 C   0  0  0  0  0  0  0  0  0  0  0  0
    4.6150   -0.0082    1.9388 C   0  0  0  0  0  0  0  0  0  0  0  0
    6.0678   -1.5179    9.1409 C   0  0  0  0  0  0  0  0  0  0  0  0
    3.9710   -1.3131   10.7023 C   0  0  0  0  0  0  0  0  0  0  0  0
    3.7763    0.5872   -0.1351 C   0  0  0  0  0  0  0  0  0  0  0  0
    2.5395    3.2068    0.4083 H   0  0  0  0  0  0  0  0  0  0  0  0
    3.6411   -0.8104   -1.5577 H   0  0  0  0  0  0  0  0  0  0  0  0
    0.3108   -6.0222    0.2711 H   0  0  0  0  0  0  0  0  0  0  0  0
   -0.1471    0.5737    2.2278 H   0  0  0  0  0  0  0  0  0  0  0  0
    2.2128   -0.9394    1.8274 H   0  0  0  0  0  0  0  0  0  0  0  0
    0.1636    2.5257    0.7512 H   0  0  0  0  0  0  0  0  0  0  0  0
    1.0480   -1.5401   -1.1212 H   0  0  0  0  0  0  0  0  0  0  0  0
    1.4008    1.3791   -1.6257 H   0  0  0  0  0  0  0  0  0  0  0  0
   -0.1149    0.6666   -1.0273 H   0  0  0  0  0  0  0  0  0  0  0  0
    2.7801    1.0314    3.2552 H   0  0  0  0  0  0  0  0  0  0  0  0
    1.7057    2.3331    3.2773 H   0  0  0  0  0  0  0  0  0  0  0  0
    0.8719   -2.3102    2.8751 H   0  0  0  0  0  0  0  0  0  0  0  0
    0.1402    1.1585    4.7120 H   0  0  0  0  0  0  0  0  0  0  0  0
    0.2560   -2.7625   -0.0879 H   0  0  0  0  0  0  0  0  0  0  0  0
   -0.0356   -4.6185    2.1330 H   0  0  0  0  0  0  0  0  0  0  0  0
    1.0072   -0.2187    6.3161 H   0  0  0  0  0  0  0  0  0  0  0  0
    2.6606   -1.7552    5.6473 H   0  0  0  0  0  0  0  0  0  0  0  0
    3.5754   -0.7859    4.8304 H   0  0  0  0  0  0  0  0  0  0  0  0
    2.7061   -4.8735    0.6446 H   0  0  0  0  0  0  0  0  0  0  0  0
    2.0489   -5.7754    1.9678 H   0  0  0  0  0  0  0  0  0  0  0  0
    4.9446   -0.6669    6.4298 H   0  0  0  0  0  0  0  0  0  0  0  0
    4.1036    0.8570    6.5394 H   0  0  0  0  0  0  0  0  0  0  0  0
    4.0131   -0.1830    8.5995 H   0  0  0  0  0  0  0  0  0  0  0  0
    2.3764   -0.2826    8.0584 H   0  0  0  0  0  0  0  0  0  0  0  0
    3.2648   -2.7105    0.1921 H   0  0  0  0  0  0  0  0  0  0  0  0
    4.0168   -2.5924    4.2228 H   0  0  0  0  0  0  0  0  0  0  0  0
    5.2529   -2.9784   10.4405 H   0  0  0  0  0  0  0  0  0  0  0  0
    4.6510   -0.0123    3.9015 H   0  0  0  0  0  0  0  0  0  0  0  0
    4.4719    1.0867    2.0202 H   0  0  0  0  0  0  0  0  0  0  0  0
    5.8307   -0.7633    8.3937 H   0  0  0  0  0  0  0  0  0  0  0  0
    6.6938   -1.0282    9.8830 H   0  0  0  0  0  0  0  0  0  0  0  0
    6.6448   -2.2618    8.5785 H   0  0  0  0  0  0  0  0  0  0  0  0
    3.1905   -1.9294   11.1581 H   0  0  0  0  0  0  0  0  0  0  0  0
    4.5698   -0.8033   11.4516 H   0  0  0  0  0  0  0  0  0  0  0  0
    3.3820   -0.5347   10.2175 H   0  0  0  0  0  0  0  0  0  0  0  0
  1 35  1  0  0  0  0
  2 35  1  0  0  0  0
  3 35  1  0  0  0  0
  4 36  1  0  0  0  0
  5 37  1  0  0  0  0
  6 38  1  0  0  0  0
  7 22  1  0  0  0  0
  7 25  1  0  0  0  0
  8 26  1  0  0  0  0
  8 29  1  0  0  0  0
  9 26  2  0  0  0  0
 10 11  1  0  0  0  0
 10 12  1  0  0  0  0
 10 39  1  1  0  0  0
 10 15  1  0  0  0  0
 11 13  1  0  0  0  0
 11 16  1  0  0  0  0
 11 40  1  1  0  0  0
 12 14  1  0  0  0  0
 12 41  1  1  0  0  0
 12  4  1  0  0  0  0
 13  5  1  0  0  0  0
 13 14  1  0  0  0  0
 13 42  1  6  0  0  0
 14 43  1  0  0  0  0
 14 44  1  0  0  0  0
 15 17  1  0  0  0  0
 15 45  1  0  0  0  0
 15 46  1  0  0  0  0
 16 18  2  0  0  0  0
 16 47  1  0  0  0  0
 17 20  2  0  0  0  0
 17 48  1  0  0  0  0
 18 49  1  0  0  0  0
 19 22  1  0  0  0  0
 19 50  1  1  0  0  0
 19 18  1  0  0  0  0
 19  6  1  0  0  0  0
 20 21  1  0  0  0  0
 20 51  1  0  0  0  0
 21 23  1  0  0  0  0
 21 52  1  0  0  0  0
 21 53  1  0  0  0  0
 22 54  1  0  0  0  0
 22 55  1  0  0  0  0
 23 24  1  0  0  0  0
 23 56  1  0  0  0  0
 23 57  1  0  0  0  0
 24 26  1  0  0  0  0
 24 58  1  0  0  0  0
 24 59  1  0  0  0  0
 25 27  1  0  0  0  0
 25 28  2  0  0  0  0
 27 30  2  0  0  0  0
 27 60  1  0  0  0  0
 28 31  1  0  0  0  0
 28 61  1  0  0  0  0
 29 33  1  0  0  0  0
 29 34  1  0  0  0  0
 29 62  1  0  0  0  0
 30 32  1  0  0  0  0
 30 35  1  0  0  0  0
 31 32  2  0  0  0  0
 31 63  1  0  0  0  0
 32 64  1  0  0  0  0
 33 65  1  0  0  0  0
 33 66  1  0  0  0  0
 33 67  1  0  0  0  0
 34 68  1  0  0  0  0
 34 69  1  0  0  0  0
 34 70  1  0  0  0  0
M  END
>  <DRUGBANK_ID>
DB00287

>  <SECONDARY_ACCESSION_NUMBERS>
APRD01271

>  <COMMON_NAME>
Travoprost

>  <CAS_NUMBER>
157283-68-6

>  <UNII>
WJ68R08KX9

>  <SYNONYMS>
(1R-(1.ALPHA.(Z),2.BETA.(1E,3R*),3.ALPHA.,5.ALPHA.))-7-(3,5-DIHYDROXY-2-(3-HYDROXY-4-(3-(TRIFLUOROMETHYL)PHENOXY)-1-BUTENYL)CYCLOPENTYL)-5-HEPTENOIC ACID, 1-METHYLETHYL ESTER; ISOPROPYL (Z)-7-((1R,2R,3R,5S)-3,5-DIHYDROXY-2-((1E,3R)-3-HYDROXY-4-((.ALPHA.,.ALPHA.,.ALPHA.-TRIFLUORO-M-TOLYL)OXY)-1-BUTENYL)CYCLOPENTYL)-5-HEPTENOATE; isopropyl (Z)-7-((1R,2R,3R,5S)-3,5-dihydroxy-2-{(1E,3R)-3-hydroxy-4-[(α,α,α-trifluoro-m-tolyl)oxy]-1-butenyl}cyclopentyl)-5-heptenoate; OTX-TP; Travoprost; TRAVOPROST COMPONENT OF DUOTRAV; Travoprostum

$$$$
