
 OpenBabel10282417193D

 50 53  0  0  1  0  0  0  0  0999 V2000
    0.9661    0.0875    0.0023 C   0  0  0  0  0  0  0  0  0  0  0  0
    0.4333    0.6325   -1.3176 C   0  0  0  0  0  0  0  0  0  0  0  0
    0.9636   -0.1477   -2.5199 C   0  0  0  0  0  0  0  0  0  0  0  0
   -0.9986    0.7081   -1.3070 O   0  0  0  0  0  0  0  0  0  0  0  0
   -1.6339   -0.4675   -1.2310 C   0  0  0  0  0  0  0  0  0  0  0  0
   -1.1483   -1.5907   -1.1554 O   0  0  0  0  0  0  0  0  0  0  0  0
   -2.9540   -0.3663   -1.3006 N   0  0  0  0  0  0  0  0  0  0  0  0
   -4.0003    0.6436   -1.2070 C   0  0  1  0  0  0  0  0  0  0  0  0
   -4.9415   -0.0849   -0.2133 C   0  0  0  0  0  0  0  0  0  0  0  0
   -4.8951    0.7529    0.9976 C   0  0  0  0  0  0  0  0  0  0  0  0
   -5.0696    0.4927    2.3451 C   0  0  0  0  0  0  0  0  0  0  0  0
   -5.3696   -0.7111    3.0181 C   0  0  0  0  0  0  0  0  0  0  0  0
   -5.5707   -0.7224    4.3907 C   0  0  0  0  0  0  0  0  0  0  0  0
   -5.4623    0.4838    5.0808 C   0  0  0  0  0  0  0  0  0  0  0  0
   -5.1215    1.7093    4.4256 C   0  0  0  0  0  0  0  0  0  0  0  0
   -4.8889    1.7145    3.0213 C   0  0  0  0  0  0  0  0  0  0  0  0
   -4.4768    2.6952    2.0406 N   0  0  0  0  0  0  0  0  0  0  0  0
   -4.4088    2.0126    0.8136 C   0  0  0  0  0  0  0  0  0  0  0  0
   -4.0097    2.1524   -0.6424 C   0  0  0  0  0  0  0  0  0  0  0  0
   -4.2461    4.1530    2.3203 C   0  0  0  0  0  0  0  0  0  0  0  0
   -2.8612    4.6776    1.9441 C   0  0  0  0  0  0  0  0  0  0  0  0
   -2.4475    4.5895    0.6264 C   0  0  0  0  0  0  0  0  0  0  0  0
   -1.1004    4.6773    0.3065 C   0  0  0  0  0  0  0  0  0  0  0  0
   -0.2237    5.1431    1.2641 C   0  0  0  0  0  0  0  0  0  0  0  0
   -0.7589    5.5055    2.4889 C   0  0  0  0  0  0  0  0  0  0  0  0
   -2.0393    5.2321    2.8730 N   0  0  0  0  0  0  0  0  0  0  0  0
   -5.9022   -1.9543    5.0479 C   0  0  0  0  0  0  0  0  0  0  0  0
   -6.1806   -2.9674    5.5638 N   0  0  0  0  0  0  0  0  0  0  0  0
    0.6561   -0.9471    0.1768 H   0  0  0  0  0  0  0  0  0  0  0  0
    0.5774    0.6738    0.8406 H   0  0  0  0  0  0  0  0  0  0  0  0
    2.0576    0.1072    0.0153 H   0  0  0  0  0  0  0  0  0  0  0  0
    0.7633    1.6715   -1.4187 H   0  0  0  0  0  0  0  0  0  0  0  0
    0.6605   -1.1986   -2.5027 H   0  0  0  0  0  0  0  0  0  0  0  0
    0.5743    0.2707   -3.4533 H   0  0  0  0  0  0  0  0  0  0  0  0
    2.0557   -0.1306   -2.5399 H   0  0  0  0  0  0  0  0  0  0  0  0
   -3.3028   -1.3142   -1.3997 H   0  0  0  0  0  0  0  0  0  0  0  0
   -4.2894    0.7309   -2.2602 H   0  0  0  0  0  0  0  0  0  0  0  0
   -5.9296   -0.2302   -0.6380 H   0  0  0  0  0  0  0  0  0  0  0  0
   -4.5492   -1.0645    0.0980 H   0  0  0  0  0  0  0  0  0  0  0  0
   -5.4388   -1.6311    2.4412 H   0  0  0  0  0  0  0  0  0  0  0  0
   -5.6381    0.4749    6.1583 H   0  0  0  0  0  0  0  0  0  0  0  0
   -5.0435    2.6052    5.0344 H   0  0  0  0  0  0  0  0  0  0  0  0
   -4.8585    2.6429   -1.1570 H   0  0  0  0  0  0  0  0  0  0  0  0
   -3.0983    2.6644   -0.9217 H   0  0  0  0  0  0  0  0  0  0  0  0
   -5.0098    4.7216    1.7696 H   0  0  0  0  0  0  0  0  0  0  0  0
   -4.4297    4.3353    3.3879 H   0  0  0  0  0  0  0  0  0  0  0  0
   -3.1778    4.4102   -0.1440 H   0  0  0  0  0  0  0  0  0  0  0  0
   -0.7549    4.3907   -0.6821 H   0  0  0  0  0  0  0  0  0  0  0  0
    0.8306    5.2582    1.0402 H   0  0  0  0  0  0  0  0  0  0  0  0
   -0.1428    6.0353    3.2118 H   0  0  0  0  0  0  0  0  0  0  0  0
  1  2  1  0  0  0  0
  1 29  1  0  0  0  0
  1 30  1  0  0  0  0
  1 31  1  0  0  0  0
  2  3  1  0  0  0  0
  2  4  1  0  0  0  0
  2 32  1  0  0  0  0
  3 33  1  0  0  0  0
  3 34  1  0  0  0  0
  3 35  1  0  0  0  0
  4  5  1  0  0  0  0
  5  6  2  0  0  0  0
  5  7  1  0  0  0  0
  7 36  1  0  0  0  0
  8  7  1  0  0  0  0
  8  9  1  0  0  0  0
  8 19  1  0  0  0  0
  8 37  1  6  0  0  0
  9 10  1  0  0  0  0
  9 38  1  0  0  0  0
  9 39  1  0  0  0  0
 10 11  1  0  0  0  0
 10 18  2  0  0  0  0
 11 12  2  0  0  0  0
 11 16  1  0  0  0  0
 12 13  1  0  0  0  0
 12 40  1  0  0  0  0
 13 14  2  0  0  0  0
 13 27  1  0  0  0  0
 14 15  1  0  0  0  0
 14 41  1  0  0  0  0
 15 16  2  0  0  0  0
 15 42  1  0  0  0  0
 16 17  1  0  0  0  0
 17 18  1  0  0  0  0
 17 20  1  0  0  0  0
 18 19  1  0  0  0  0
 19 43  1  0  0  0  0
 19 44  1  0  0  0  0
 20 21  1  0  0  0  0
 20 45  1  0  0  0  0
 20 46  1  0  0  0  0
 21 22  2  0  0  0  0
 21 26  1  0  0  0  0
 22 23  1  0  0  0  0
 22 47  1  0  0  0  0
 23 24  2  0  0  0  0
 23 48  1  0  0  0  0
 24 25  1  0  0  0  0
 24 49  1  0  0  0  0
 25 26  2  0  0  0  0
 25 50  1  0  0  0  0
 27 28  3  0  0  0  0
M  END
>  <DRUGBANK_ID>
DB12573

>  <COMMON_NAME>
LY-2452473

>  <CAS_NUMBER>
1029692-15-6

>  <UNII>
XKW9MYF94Y

$$$$
