
 OpenBabel10282417223D

 50 54  0  0  0  0  0  0  0  0999 V2000
    2.0609    0.1777   -0.4357 F   0  0  0  0  0  0  0  0  0  0  0  0
    0.7897    0.0408   -0.0853 C   0  0  0  0  0  0  0  0  0  0  0  0
    0.0775    1.2321   -0.0055 C   0  0  0  0  0  0  0  0  0  0  0  0
   -1.2988    1.1997    0.0560 C   0  0  0  0  0  0  0  0  0  0  0  0
   -1.9481   -0.0406    0.0778 C   0  0  0  0  0  0  0  0  0  0  0  0
   -3.4643   -0.0581    0.0288 C   0  0  0  0  0  0  0  0  0  0  0  0
   -3.9740   -0.7180   -1.2472 C   0  0  0  0  0  0  0  0  0  0  0  0
   -3.7083   -1.9813   -1.4015 N   0  0  0  0  0  0  0  0  0  0  0  0
   -3.9951   -2.5714   -2.5878 N   0  0  0  0  0  0  0  0  0  0  0  0
   -4.4726   -1.9297   -3.6987 C   0  0  0  0  0  0  0  0  0  0  0  0
   -4.5878   -2.4941   -4.7899 O   0  0  0  0  0  0  0  0  0  0  0  0
   -4.8873   -0.5306   -3.5107 C   0  0  0  0  0  0  0  0  0  0  0  0
   -5.5269    0.1603   -4.5447 C   0  0  0  0  0  0  0  0  0  0  0  0
   -6.0080    1.4497   -4.3220 C   0  0  0  0  0  0  0  0  0  0  0  0
   -5.8486    2.0475   -3.0737 C   0  0  0  0  0  0  0  0  0  0  0  0
   -5.1838    1.3690   -2.0510 C   0  0  0  0  0  0  0  0  0  0  0  0
   -4.6880    0.0784   -2.2722 C   0  0  0  0  0  0  0  0  0  0  0  0
   -1.1839   -1.2462    0.0980 C   0  0  0  0  0  0  0  0  0  0  0  0
    0.2190   -1.2207    0.0335 C   0  0  0  0  0  0  0  0  0  0  0  0
    1.0692   -2.4790   -0.0668 C   0  0  0  0  0  0  0  0  0  0  0  0
    0.5193   -3.5702   -0.1828 O   0  0  0  0  0  0  0  0  0  0  0  0
    2.4710   -2.3346   -0.0900 N   0  0  0  0  0  0  0  0  0  0  0  0
    3.1963   -1.8438    1.0877 C   0  0  0  0  0  0  0  0  0  0  0  0
    4.1658   -0.7357    0.7135 C   0  0  0  0  0  0  0  0  0  0  0  0
    4.8196   -1.0272   -0.5357 N   0  0  0  0  0  0  0  0  0  0  0  0
    5.7975   -0.2216   -0.9380 N   0  0  0  0  0  0  0  0  0  0  0  0
    6.1700   -0.7622   -2.1091 C   0  0  0  0  0  0  0  0  0  0  0  0
    5.3836   -1.9012   -2.4379 N   0  0  0  0  0  0  0  0  0  0  0  0
    4.5081   -2.0107   -1.4324 C   0  0  0  0  0  0  0  0  0  0  0  0
    3.3365   -2.9676   -1.1280 C   0  0  0  0  0  0  0  0  0  0  0  0
    7.3369   -0.1191   -2.8818 C   0  0  0  0  0  0  0  0  0  0  0  0
    8.4313   -0.9245   -2.9898 F   0  0  0  0  0  0  0  0  0  0  0  0
    7.0158    0.2844   -4.1425 F   0  0  0  0  0  0  0  0  0  0  0  0
    7.7926    1.0139   -2.2506 F   0  0  0  0  0  0  0  0  0  0  0  0
    0.6228    2.1683   -0.0675 H   0  0  0  0  0  0  0  0  0  0  0  0
   -1.8459    2.1403    0.0323 H   0  0  0  0  0  0  0  0  0  0  0  0
   -3.8534   -0.5924    0.8998 H   0  0  0  0  0  0  0  0  0  0  0  0
   -3.8242    0.9684    0.1249 H   0  0  0  0  0  0  0  0  0  0  0  0
   -3.6998   -3.5384   -2.6895 H   0  0  0  0  0  0  0  0  0  0  0  0
   -5.6673   -0.3141   -5.5138 H   0  0  0  0  0  0  0  0  0  0  0  0
   -6.5234    1.9820   -5.1174 H   0  0  0  0  0  0  0  0  0  0  0  0
   -6.2478    3.0431   -2.8908 H   0  0  0  0  0  0  0  0  0  0  0  0
   -5.0993    1.8734   -1.0952 H   0  0  0  0  0  0  0  0  0  0  0  0
   -1.7059   -2.2040    0.0873 H   0  0  0  0  0  0  0  0  0  0  0  0
    2.5100   -1.5236    1.8765 H   0  0  0  0  0  0  0  0  0  0  0  0
    3.7709   -2.6912    1.4882 H   0  0  0  0  0  0  0  0  0  0  0  0
    3.6963    0.2385    0.5807 H   0  0  0  0  0  0  0  0  0  0  0  0
    4.9285   -0.5824    1.4774 H   0  0  0  0  0  0  0  0  0  0  0  0
    3.7197   -3.9136   -0.7187 H   0  0  0  0  0  0  0  0  0  0  0  0
    2.7331   -3.2000   -2.0118 H   0  0  0  0  0  0  0  0  0  0  0  0
  1  2  1  0  0  0  0
  2  3  2  0  0  0  0
  2 19  1  0  0  0  0
  3  4  1  0  0  0  0
  3 35  1  0  0  0  0
  4  5  2  0  0  0  0
  4 36  1  0  0  0  0
  5  6  1  0  0  0  0
  5 18  1  0  0  0  0
  6  7  1  0  0  0  0
  6 37  1  0  0  0  0
  6 38  1  0  0  0  0
  7  8  2  0  0  0  0
  7 17  1  0  0  0  0
  8  9  1  0  0  0  0
  9 10  1  0  0  0  0
  9 39  1  0  0  0  0
 10 11  2  0  0  0  0
 10 12  1  0  0  0  0
 12 13  2  0  0  0  0
 12 17  1  0  0  0  0
 13 14  1  0  0  0  0
 13 40  1  0  0  0  0
 14 15  2  0  0  0  0
 14 41  1  0  0  0  0
 15 16  1  0  0  0  0
 15 42  1  0  0  0  0
 16 17  2  0  0  0  0
 16 43  1  0  0  0  0
 18 19  2  0  0  0  0
 18 44  1  0  0  0  0
 19 20  1  0  0  0  0
 20 21  2  0  0  0  0
 20 22  1  0  0  0  0
 22 23  1  0  0  0  0
 22 30  1  0  0  0  0
 23 24  1  0  0  0  0
 23 45  1  0  0  0  0
 23 46  1  0  0  0  0
 24 25  1  0  0  0  0
 24 47  1  0  0  0  0
 24 48  1  0  0  0  0
 25 26  1  0  0  0  0
 25 29  1  0  0  0  0
 26 27  2  0  0  0  0
 27 28  1  0  0  0  0
 27 31  1  0  0  0  0
 28 29  2  0  0  0  0
 29 30  1  0  0  0  0
 30 49  1  0  0  0  0
 30 50  1  0  0  0  0
 31 32  1  0  0  0  0
 31 33  1  0  0  0  0
 31 34  1  0  0  0  0
M  END
>  <DRUGBANK_ID>
DB15637

>  <COMMON_NAME>
Fluzoparib

>  <CAS_NUMBER>
1358715-18-0

>  <UNII>
TWF0ML1CK8

$$$$
