
 OpenBabel10282417203D

 22 21  0  0  0  0  0  0  0  0999 V2000
    0.9201    0.0527   -0.0277 C   0  0  0  0  0  0  0  0  0  0  0  0
    2.9500   -0.6128    6.0272 C   0  0  0  0  0  0  0  0  0  0  0  0
    0.6943   -1.3232    0.5778 C   0  0  0  0  0  0  0  0  0  0  0  0
    3.3936   -1.9837    6.5008 C   0  0  0  0  0  0  0  0  0  0  0  0
    2.7394   -1.8963    1.8782 C   0  0  0  0  0  0  0  0  0  0  0  0
    5.6276   -2.1017    5.4015 C   0  0  0  0  0  0  0  0  0  0  0  0
    1.4223   -1.5049    1.8250 O   0  0  0  0  0  0  0  0  0  0  0  0
    4.8187   -2.0923    6.4988 O   0  0  0  0  0  0  0  0  0  0  0  0
    3.7678   -1.7235    0.5627 S   0  0  0  0  0  0  0  0  0  0  0  0
    7.2553   -2.0787    5.8201 S   0  0  0  0  0  0  0  0  0  0  0  0
    3.2389   -2.7054    3.3804 S   0  0  0  0  0  0  0  0  0  0  0  0
    5.1828   -2.0846    3.6978 S   0  0  0  0  0  0  0  0  0  0  0  0
    0.5226    0.8306    0.6298 H   0  0  0  0  0  0  0  0  0  0  0  0
    0.4357    0.1296   -1.0057 H   0  0  0  0  0  0  0  0  0  0  0  0
    1.9778    0.2834   -0.1634 H   0  0  0  0  0  0  0  0  0  0  0  0
    3.4925   -0.2705    5.1425 H   0  0  0  0  0  0  0  0  0  0  0  0
    1.8807   -0.6064    5.8062 H   0  0  0  0  0  0  0  0  0  0  0  0
    3.1573    0.1313    6.8019 H   0  0  0  0  0  0  0  0  0  0  0  0
   -0.3737   -1.4333    0.8067 H   0  0  0  0  0  0  0  0  0  0  0  0
    0.9401   -2.1321   -0.1193 H   0  0  0  0  0  0  0  0  0  0  0  0
    2.9633   -2.8258    5.9573 H   0  0  0  0  0  0  0  0  0  0  0  0
    3.0618   -2.1252    7.5356 H   0  0  0  0  0  0  0  0  0  0  0  0
  1 13  1  0  0  0  0
  1 14  1  0  0  0  0
  1 15  1  0  0  0  0
  2 16  1  0  0  0  0
  2 17  1  0  0  0  0
  2 18  1  0  0  0  0
  3  1  1  0  0  0  0
  3 19  1  0  0  0  0
  3 20  1  0  0  0  0
  4  2  1  0  0  0  0
  4 21  1  0  0  0  0
  4 22  1  0  0  0  0
  7  3  1  0  0  0  0
  7  5  1  0  0  0  0
  8  4  1  0  0  0  0
  8  6  1  0  0  0  0
  9  5  2  0  0  0  0
 10  6  2  0  0  0  0
 11  5  1  0  0  0  0
 12  6  1  0  0  0  0
 12 11  1  0  0  0  0
M  END
>  <DRUGBANK_ID>
DB13712

>  <COMMON_NAME>
Dixanthogen

>  <CAS_NUMBER>
502-55-6

>  <UNII>
RN4CQ46FDM

>  <SYNONYMS>
Dixanthogen

$$$$
