
 OpenBabel10282417173D

 34 36  0  0  0  0  0  0  0  0999 V2000
    1.3970    0.7192    0.0030 C   0  0  0  0  0  0  0  0  0  0  0  0
    1.4093   -0.7054    0.0160 C   0  0  0  0  0  0  0  0  0  0  0  0
    0.1159    1.2210   -0.0196 C   0  0  0  0  0  0  0  0  0  0  0  0
   -4.6251   -3.8161    1.7167 C   0  0  0  0  0  0  0  0  0  0  0  0
   -2.5329   -4.6728    0.1170 C   0  0  0  0  0  0  0  0  0  0  0  0
   -0.2378   -2.7097    0.0025 C   0  0  0  0  0  0  0  0  0  0  0  0
    0.1385   -1.2505    0.0077 C   0  0  0  0  0  0  0  0  0  0  0  0
   -3.3422   -3.2228    1.8595 C   0  0  0  0  0  0  0  0  0  0  0  0
   -3.7966   -5.2656   -0.0310 C   0  0  0  0  0  0  0  0  0  0  0  0
   -2.2655   -3.6720    1.0632 C   0  0  0  0  0  0  0  0  0  0  0  0
   -4.8506   -4.8540    0.7827 C   0  0  0  0  0  0  0  0  0  0  0  0
   -3.1411   -2.1565    2.8331 C   0  0  0  0  0  0  0  0  0  0  0  0
   -3.8761   -6.4839   -1.2502 Cl  0  0  0  0  0  0  0  0  0  0  0  0
   -6.7996   -6.1973    2.1610 N   0  0  0  0  0  0  0  0  0  0  0  0
   -0.9545   -3.1989    1.1848 N   0  0  0  0  0  0  0  0  0  0  0  0
   -3.2191   -2.3183    4.1657 N   0  0  0  0  0  0  0  0  0  0  0  0
   -2.7335   -0.8908    2.4846 N   0  0  0  0  0  0  0  0  0  0  0  0
   -2.8103   -1.1041    4.5745 N   0  0  0  0  0  0  0  0  0  0  0  0
   -2.5203   -0.2262    3.6108 N   0  0  0  0  0  0  0  0  0  0  0  0
   -7.4183   -4.4513    0.4509 O   0  0  0  0  0  0  0  0  0  0  0  0
   -6.5092   -6.7003   -0.2201 O   0  0  0  0  0  0  0  0  0  0  0  0
   -1.0540   -0.0240   -0.0950 S   0  0  0  0  0  0  0  0  0  0  0  0
   -6.4844   -5.5432    0.6338 S   0  0  0  0  0  0  0  0  0  0  0  0
    2.2819    1.3434    0.0137 H   0  0  0  0  0  0  0  0  0  0  0  0
    2.3111   -1.3049    0.0283 H   0  0  0  0  0  0  0  0  0  0  0  0
   -0.1896    2.2589   -0.0168 H   0  0  0  0  0  0  0  0  0  0  0  0
   -5.4512   -3.4535    2.3314 H   0  0  0  0  0  0  0  0  0  0  0  0
   -1.7133   -5.0415   -0.4978 H   0  0  0  0  0  0  0  0  0  0  0  0
   -0.7661   -2.9292   -0.9338 H   0  0  0  0  0  0  0  0  0  0  0  0
    0.6951   -3.2862   -0.0444 H   0  0  0  0  0  0  0  0  0  0  0  0
   -7.7556   -6.5707    2.1272 H   0  0  0  0  0  0  0  0  0  0  0  0
   -6.1629   -6.9717    2.3582 H   0  0  0  0  0  0  0  0  0  0  0  0
   -0.7225   -2.6997    2.0386 H   0  0  0  0  0  0  0  0  0  0  0  0
   -2.7096   -0.8637    5.5570 H   0  0  0  0  0  0  0  0  0  0  0  0
  1 24  1  0  0  0  0
  2  1  1  0  0  0  0
  2 25  1  0  0  0  0
  3  1  2  0  0  0  0
  3 26  1  0  0  0  0
  4 27  1  0  0  0  0
  5 28  1  0  0  0  0
  6 29  1  0  0  0  0
  6 30  1  0  0  0  0
  7  2  2  0  0  0  0
  7  6  1  0  0  0  0
  8  4  2  0  0  0  0
  9  5  1  0  0  0  0
 10  5  2  0  0  0  0
 10  8  1  0  0  0  0
 11  4  1  0  0  0  0
 11  9  2  0  0  0  0
 12  8  1  0  0  0  0
 13  9  1  0  0  0  0
 14 31  1  0  0  0  0
 14 32  1  0  0  0  0
 15  6  1  0  0  0  0
 15 10  1  0  0  0  0
 15 33  1  0  0  0  0
 16 12  2  0  0  0  0
 17 12  1  0  0  0  0
 18 16  1  0  0  0  0
 18 34  1  0  0  0  0
 19 17  2  0  0  0  0
 19 18  1  0  0  0  0
 22  3  1  0  0  0  0
 22  7  1  0  0  0  0
 23 11  1  0  0  0  0
 23 14  1  0  0  0  0
 23 20  2  0  0  0  0
 23 21  2  0  0  0  0
M  END
>  <DRUGBANK_ID>
DB08961

>  <COMMON_NAME>
Azosemide

>  <CAS_NUMBER>
27589-33-9

>  <UNII>
MR40VT1L8Z

>  <SYNONYMS>
2-chloro-5-(1H-tetrazol-5-yl)-N4-2-thenylsulfanilamide; 5-(4'-chloro-5'-sulfamoyl-2'-thenylaminophenyl)tetrazole; azosemida; Azosemide; azos√©mide; azosemidum

$$$$
