
 OpenBabel10282417243D

 89 95  0  0  1  0  0  0  0  0999 V2000
    0.9128    0.1288   -0.2280 C   0  0  0  0  0  0  0  0  0  0  0  0
    1.0896    2.4523    0.9725 C   0  0  0  0  0  0  0  0  0  0  0  0
   -6.7569   10.0111   11.3275 C   0  0  0  0  0  0  0  0  0  0  0  0
   -6.8626    8.6242   11.4236 C   0  0  0  0  0  0  0  0  0  0  0  0
   -5.5933   10.5857   10.8174 C   0  0  0  0  0  0  0  0  0  0  0  0
   -6.2639    0.7524    1.7404 C   0  0  0  0  0  0  0  0  0  0  0  0
   -6.0249    1.1401    3.2008 C   0  0  0  0  0  0  0  0  0  0  0  0
   -5.7978    7.8117   11.0213 C   0  0  0  0  0  0  0  0  0  0  0  0
   -4.5586    9.7739   10.3486 C   0  0  0  0  0  0  0  0  0  0  0  0
   -4.9071    6.3471    8.4737 C   0  0  0  0  0  0  0  0  0  0  0  0
   -5.0246    5.2284    7.6546 C   0  0  0  0  0  0  0  0  0  0  0  0
   -5.0461    0.0645    1.1243 C   0  0  0  0  0  0  0  0  0  0  0  0
    3.4074   -0.0650    1.5323 C   0  0  0  0  0  0  0  0  0  0  0  0
    1.7643   -1.9441    1.4979 C   0  0  0  0  0  0  0  0  0  0  0  0
    2.5272    0.6995    2.5167 C   0  0  0  0  0  0  0  0  0  0  0  0
    0.8259   -1.0847    2.3754 C   0  0  0  0  0  0  0  0  0  0  0  0
   -2.6069    5.7945    8.9421 C   0  0  0  0  0  0  0  0  0  0  0  0
   -0.8887    0.9733    1.1347 C   0  0  0  0  0  0  0  0  0  0  0  0
   -0.8711    1.9151   -1.1027 C   0  0  0  0  0  0  0  0  0  0  0  0
   -3.5308    1.2189    2.6740 C   0  0  0  0  0  0  0  0  0  0  0  0
    3.1711   -1.8560    4.1661 C   0  0  0  0  0  0  0  0  0  0  0  0
    5.0102   -1.5618    3.3024 C   0  0  0  0  0  0  0  0  0  0  0  0
   -3.8870   -0.7611    6.7972 C   0  0  0  0  0  0  0  0  0  0  0  0
   -1.6311    1.3832    0.1014 C   0  0  0  0  0  0  0  0  0  0  0  0
   -4.7086    1.9070    3.3842 C   0  0  2  0  0  0  0  0  0  0  0  0
    3.7278   -2.1949    2.7689 C   0  0  0  0  0  0  0  0  0  0  0  0
   -4.6549    8.3864   10.4505 C   0  0  0  0  0  0  0  0  0  0  0  0
   -3.7186    6.6150    9.1574 C   0  0  0  0  0  0  0  0  0  0  0  0
   -3.9260    4.3970    7.4513 C   0  0  0  0  0  0  0  0  0  0  0  0
   -2.7257    4.6810    8.1108 C   0  0  0  0  0  0  0  0  0  0  0  0
   -3.9508    1.8847    6.9384 C   0  0  0  0  0  0  0  0  0  0  0  0
   -4.0602    3.2485    6.5754 C   0  0  0  0  0  0  0  0  0  0  0  0
   -3.7330    1.1444    8.1051 C   0  0  0  0  0  0  0  0  0  0  0  0
   -4.1552    1.1862    5.7628 C   0  0  0  0  0  0  0  0  0  0  0  0
   -3.1553    1.3355    0.1259 C   0  0  0  0  0  0  0  0  0  0  0  0
    0.6112    0.9731    1.0497 C   0  0  0  0  0  0  0  0  0  0  0  0
   -1.6827    3.8415    8.0110 F   0  0  0  0  0  0  0  0  0  0  0  0
   -0.2407    2.3564   -2.1016 N   0  0  0  0  0  0  0  0  0  0  0  0
   -3.6074    1.7097    9.3547 N   0  0  0  0  0  0  0  0  0  0  0  0
   -3.6908   -0.1993    8.0079 N   0  0  0  0  0  0  0  0  0  0  0  0
   -4.1299   -0.1513    5.6196 N   0  0  0  0  0  0  0  0  0  0  0  0
   -4.3667    3.3977    5.2740 N   0  0  0  0  0  0  0  0  0  0  0  0
    3.1770   -1.5254    1.5864 N   0  0  3  0  0  0  0  0  0  0  0  0
   -3.8239    0.8599    1.2759 N   0  0  0  0  0  0  0  0  0  0  0  0
    1.0897    0.3828    2.3246 N   0  0  0  0  0  0  0  0  0  0  0  0
   -4.4053    2.1322    4.7978 N   0  0  0  0  0  0  0  0  0  0  0  0
   -3.7706    1.6153   -0.8838 O   0  0  0  0  0  0  0  0  0  0  0  0
    4.5338   -1.7427    4.6690 O   0  0  0  0  0  0  0  0  0  0  0  0
   -3.5548    7.6636   10.0366 O   0  0  0  0  0  0  0  0  0  0  0  0
   -1.3362    0.5218    2.0074 H   0  0  0  0  0  0  0  0  0  0  0  0
   -4.8367    2.8991    2.9261 H   0  0  0  0  0  0  0  0  0  0  0  0
    0.8246    0.6263   -1.1771 H   0  0  0  0  0  0  0  0  0  0  0  0
    0.2219   -0.7245   -0.2915 H   0  0  0  0  0  0  0  0  0  0  0  0
    1.9184   -0.2182   -0.3697 H   0  0  0  0  0  0  0  0  0  0  0  0
    0.7198    3.0184    0.1252 H   0  0  0  0  0  0  0  0  0  0  0  0
    0.7740    3.0137    1.8643 H   0  0  0  0  0  0  0  0  0  0  0  0
    2.1708    2.5332    0.8517 H   0  0  0  0  0  0  0  0  0  0  0  0
   -7.5793   10.6448   11.6515 H   0  0  0  0  0  0  0  0  0  0  0  0
   -7.7715    8.1786   11.8212 H   0  0  0  0  0  0  0  0  0  0  0  0
   -5.4909   11.6671   10.7841 H   0  0  0  0  0  0  0  0  0  0  0  0
   -7.1301    0.0807    1.6930 H   0  0  0  0  0  0  0  0  0  0  0  0
   -6.5130    1.6469    1.1598 H   0  0  0  0  0  0  0  0  0  0  0  0
   -6.8636    1.7477    3.5648 H   0  0  0  0  0  0  0  0  0  0  0  0
   -6.0246    0.2287    3.8096 H   0  0  0  0  0  0  0  0  0  0  0  0
   -5.8886    6.7341   11.1270 H   0  0  0  0  0  0  0  0  0  0  0  0
   -3.6794   10.2231    9.8958 H   0  0  0  0  0  0  0  0  0  0  0  0
   -5.7669    7.0026    8.5593 H   0  0  0  0  0  0  0  0  0  0  0  0
   -5.9801    5.0098    7.1847 H   0  0  0  0  0  0  0  0  0  0  0  0
   -4.8687   -0.8813    1.6564 H   0  0  0  0  0  0  0  0  0  0  0  0
   -5.2286   -0.1913    0.0764 H   0  0  0  0  0  0  0  0  0  0  0  0
    4.4593    0.2011    1.6286 H   0  0  0  0  0  0  0  0  0  0  0  0
    3.2814    0.3571    0.5325 H   0  0  0  0  0  0  0  0  0  0  0  0
    1.4777   -1.9666    0.4468 H   0  0  0  0  0  0  0  0  0  0  0  0
    1.6167   -3.0049    1.7378 H   0  0  0  0  0  0  0  0  0  0  0  0
    2.8625    0.5480    3.5358 H   0  0  0  0  0  0  0  0  0  0  0  0
    2.7336    1.7716    2.4779 H   0  0  0  0  0  0  0  0  0  0  0  0
    0.8944   -1.4188    3.4142 H   0  0  0  0  0  0  0  0  0  0  0  0
   -0.2221   -1.3246    2.1500 H   0  0  0  0  0  0  0  0  0  0  0  0
   -1.6467    6.0064    9.4049 H   0  0  0  0  0  0  0  0  0  0  0  0
   -2.6740    1.8934    2.7322 H   0  0  0  0  0  0  0  0  0  0  0  0
   -3.2813    0.2777    3.1775 H   0  0  0  0  0  0  0  0  0  0  0  0
    2.6177   -0.9536    4.4162 H   0  0  0  0  0  0  0  0  0  0  0  0
    2.5970   -2.6587    4.6353 H   0  0  0  0  0  0  0  0  0  0  0  0
    5.9075   -2.1271    3.0574 H   0  0  0  0  0  0  0  0  0  0  0  0
    5.2227   -0.5016    3.1509 H   0  0  0  0  0  0  0  0  0  0  0  0
   -3.8512   -1.8465    6.7737 H   0  0  0  0  0  0  0  0  0  0  0  0
    3.7757   -3.2796    2.6278 H   0  0  0  0  0  0  0  0  0  0  0  0
   -3.5037    2.7056    9.4580 H   0  0  0  0  0  0  0  0  0  0  0  0
   -3.3019    1.1098   10.1056 H   0  0  0  0  0  0  0  0  0  0  0  0
  1 36  1  0  0  0  0
  1 52  1  0  0  0  0
  1 53  1  0  0  0  0
  1 54  1  0  0  0  0
  2 36  1  0  0  0  0
  2 55  1  0  0  0  0
  2 56  1  0  0  0  0
  2 57  1  0  0  0  0
  3  4  2  0  0  0  0
  3  5  1  0  0  0  0
  3 58  1  0  0  0  0
  4  8  1  0  0  0  0
  4 59  1  0  0  0  0
  5  9  2  0  0  0  0
  5 60  1  0  0  0  0
  6  7  1  0  0  0  0
  6 12  1  0  0  0  0
  6 61  1  0  0  0  0
  6 62  1  0  0  0  0
  7 63  1  0  0  0  0
  7 64  1  0  0  0  0
  8 27  2  0  0  0  0
  8 65  1  0  0  0  0
  9 27  1  0  0  0  0
  9 66  1  0  0  0  0
 10 11  2  0  0  0  0
 10 28  1  0  0  0  0
 10 67  1  0  0  0  0
 11 29  1  0  0  0  0
 11 68  1  0  0  0  0
 12 44  1  0  0  0  0
 12 69  1  0  0  0  0
 12 70  1  0  0  0  0
 13 15  1  0  0  0  0
 13 43  1  0  0  0  0
 13 71  1  0  0  0  0
 13 72  1  0  0  0  0
 14 16  1  0  0  0  0
 14 43  1  0  0  0  0
 14 73  1  0  0  0  0
 14 74  1  0  0  0  0
 15 45  1  0  0  0  0
 15 75  1  0  0  0  0
 15 76  1  0  0  0  0
 16 45  1  0  0  0  0
 16 77  1  0  0  0  0
 16 78  1  0  0  0  0
 17 28  2  0  0  0  0
 17 30  1  0  0  0  0
 17 79  1  0  0  0  0
 18 50  1  0  0  0  0
 18 24  2  0  0  0  0
 18 36  1  0  0  0  0
 19 24  1  0  0  0  0
 19 38  3  0  0  0  0
 20 44  1  0  0  0  0
 20 80  1  0  0  0  0
 20 81  1  0  0  0  0
 21 26  1  0  0  0  0
 21 48  1  0  0  0  0
 21 82  1  0  0  0  0
 21 83  1  0  0  0  0
 22 26  1  0  0  0  0
 22 48  1  0  0  0  0
 22 84  1  0  0  0  0
 22 85  1  0  0  0  0
 23 40  2  0  0  0  0
 23 41  1  0  0  0  0
 23 86  1  0  0  0  0
 24 35  1  0  0  0  0
 25  7  1  0  0  0  0
 25 20  1  0  0  0  0
 25 51  1  6  0  0  0
 25 46  1  0  0  0  0
 26 43  1  0  0  0  0
 26 87  1  0  0  0  0
 27 49  1  0  0  0  0
 28 49  1  0  0  0  0
 29 30  2  0  0  0  0
 29 32  1  0  0  0  0
 30 37  1  0  0  0  0
 31 32  1  0  0  0  0
 31 33  2  0  0  0  0
 31 34  1  0  0  0  0
 32 42  2  0  0  0  0
 33 39  1  0  0  0  0
 33 40  1  0  0  0  0
 34 41  2  0  0  0  0
 34 46  1  0  0  0  0
 35 44  1  0  0  0  0
 35 47  2  0  0  0  0
 36 45  1  0  0  0  0
 39 88  1  0  0  0  0
 39 89  1  0  0  0  0
 42 46  1  0  0  0  0
M  END
>  <DRUGBANK_ID>
DB17709

>  <COMMON_NAME>
Rilzabrutinib

>  <CAS_NUMBER>
1575591-66-0

>  <UNII>
5G1WE425BI

>  <SYNONYMS>
(e/z)-(r)-2-(3-(4-amino-3-(2-fluoro-4-phenoxyphenyl)-1h-pyrazolo(3,4-d)pyrimidin-1-yl)piperidine-1-carbonyl)-4-methyl-4-(4-(oxetan-3-yl)piperazin-1-yl)pent-2-enenitrile; 1-piperidinepropanenitrile, 3-(4-amino-3-(2-fluoro-4-phenoxyphenyl)-1h-pyrazolo(3,4-d)pyrimidin-1-yl)-.alpha.-(2-methyl-2-(4-(3-oxetanyl)-1-piperazinyl)propylidene)-.beta.-oxo-, (.alpha.e/z,3r)-

$$$$
