
 OpenBabel10282417193D

 57 58  0  0  0  0  0  0  0  0999 V2000
   -0.5102    0.9566   -0.3652 C   0  0  1  0  0  0  0  0  0  0  0  0
    0.5829    1.5155    0.4950 C   0  0  1  0  0  0  0  0  0  0  0  0
    1.9066    0.8351    0.3995 O   0  0  0  0  0  0  0  0  0  0  0  0
    1.6828   -0.3577   -0.2682 C   0  0  1  0  0  0  0  0  0  0  0  0
    0.2006   -0.2520   -0.0808 C   0  0  1  0  0  0  0  0  0  0  0  0
    0.8139    2.8126    0.0182 N   0  0  0  0  0  0  0  0  0  0  0  0
   -0.2978    3.6287    0.0588 C   0  0  0  0  0  0  0  0  0  0  0  0
    1.8297    2.9976   -0.8841 C   0  0  0  0  0  0  0  0  0  0  0  0
   -1.8687    0.9112    0.0724 O   0  0  0  0  0  0  0  0  0  0  0  0
   -0.2569    4.7521   -0.7364 N   0  0  0  0  0  0  0  0  0  0  0  0
   -1.2426    3.3762    0.8011 O   0  0  0  0  0  0  0  0  0  0  0  0
    1.5983    3.7652   -1.9391 C   0  0  0  0  0  0  0  0  0  0  0  0
    0.1186   -0.8179    1.1763 O   0  0  0  0  0  0  0  0  0  0  0  0
    0.6201    4.8432   -1.6914 C   0  0  0  0  0  0  0  0  0  0  0  0
    0.6827    5.9736   -2.4750 N   0  0  0  0  0  0  0  0  0  0  0  0
    2.2766   -0.6256   -1.7169 C   0  0  0  0  0  0  0  0  0  0  0  0
    1.3373   -1.7441   -2.5724 O   0  0  0  0  0  0  0  0  0  0  0  0
   -0.4473   -3.2965   -1.9470 O   0  0  0  0  0  0  0  0  0  0  0  0
    2.0912   -3.8571   -3.2526 O   0  0  0  0  0  0  0  0  0  0  0  0
   -1.0099   -3.4340    0.8826 O   0  0  0  0  0  0  0  0  0  0  0  0
   -1.1043   -2.6029   -0.5047 P   0  0  3  0  0  0  0  0  0  0  0  0
   -1.7612   -1.9093    0.9376 O   0  5  0  0  0  0  0  0  0  0  0  0
    1.2796   -3.3125   -1.8445 P   0  0  3  0  0  0  0  0  0  0  0  0
    1.2219   -4.8808   -1.1165 O   0  0  0  0  0  0  0  0  0  0  0  0
   -1.9120   -1.1993   -1.4495 O   0  0  0  0  0  0  0  0  0  0  0  0
   -1.2469   -0.6760   -2.7047 C   0  0  0  0  0  0  0  0  0  0  0  0
   -0.2991   -1.6182   -2.6834 C   0  0  0  0  0  0  0  0  0  0  0  0
    0.2068   -3.6583   -3.1366 C   0  0  0  0  0  0  0  0  0  0  0  0
    2.7045   -3.1738   -0.9114 C   0  0  0  0  0  0  0  0  0  0  0  0
    0.6107   -2.2613   -1.1712 N   0  3  0  0  0  0  0  0  0  0  0  0
    0.9184   -3.3456    0.2836 C   0  0  0  0  0  0  0  0  0  0  0  0
   -0.5517    1.1919   -1.4403 H   0  0  0  0  0  0  0  0  0  0  0  0
    0.2173    1.3656    1.5137 H   0  0  0  0  0  0  0  0  0  0  0  0
    2.0712   -1.1837    0.3592 H   0  0  0  0  0  0  0  0  0  0  0  0
   -0.4367   -0.7160   -0.6843 H   0  0  0  0  0  0  0  0  0  0  0  0
    2.7355    2.4078   -0.7574 H   0  0  0  0  0  0  0  0  0  0  0  0
   -1.9295    0.3657    0.8850 H   0  0  0  0  0  0  0  0  0  0  0  0
    2.1435    3.7147   -2.8593 H   0  0  0  0  0  0  0  0  0  0  0  0
   -0.7713   -1.0285    1.5304 H   0  0  0  0  0  0  0  0  0  0  0  0
    1.3673    6.1204   -3.2082 H   0  0  0  0  0  0  0  0  0  0  0  0
    0.0521    6.7494   -2.2983 H   0  0  0  0  0  0  0  0  0  0  0  0
    2.1727    0.2660   -2.3256 H   0  0  0  0  0  0  0  0  0  0  0  0
    3.2408   -1.1502   -1.6748 H   0  0  0  0  0  0  0  0  0  0  0  0
    0.6310   -5.6046   -1.4063 H   0  0  0  0  0  0  0  0  0  0  0  0
   -1.4319   -1.4252   -3.4686 H   0  0  0  0  0  0  0  0  0  0  0  0
   -0.3238    0.0495   -2.8832 H   0  0  0  0  0  0  0  0  0  0  0  0
    0.3951   -1.9279   -3.8632 H   0  0  0  0  0  0  0  0  0  0  0  0
    0.3540   -1.1085   -1.7133 H   0  0  0  0  0  0  0  0  0  0  0  0
    0.4584   -3.7786   -4.1731 H   0  0  0  0  0  0  0  0  0  0  0  0
   -0.1730   -4.8822   -2.6137 H   0  0  0  0  0  0  0  0  0  0  0  0
   -1.0537   -3.6299   -3.4175 H   0  0  0  0  0  0  0  0  0  0  0  0
    3.4470   -2.7392   -0.3865 H   0  0  0  0  0  0  0  0  0  0  0  0
    2.8948   -4.6091   -1.1471 H   0  0  0  0  0  0  0  0  0  0  0  0
    3.3328   -3.5627   -2.1020 H   0  0  0  0  0  0  0  0  0  0  0  0
    1.3470   -2.7521    1.0238 H   0  0  0  0  0  0  0  0  0  0  0  0
    0.5482   -2.3987    0.3200 H   0  0  0  0  0  0  0  0  0  0  0  0
    0.2192   -4.2067    0.0778 H   0  0  0  0  0  0  0  0  0  0  0  0
  1  9  1  0  0  0  0
  1  5  1  0  0  0  0
  1 32  1  6  0  0  0
  2  1  1  0  0  0  0
  2  3  1  0  0  0  0
  2 33  1  1  0  0  0
  2  6  1  0  0  0  0
  3  4  1  0  0  0  0
  4  5  1  0  0  0  0
  4 34  1  1  0  0  0
  4 16  1  0  0  0  0
  5 13  1  0  0  0  0
  5 35  1  6  0  0  0
  6  7  1  0  0  0  0
  6  8  1  0  0  0  0
  7 10  1  0  0  0  0
  7 11  2  0  0  0  0
  8 12  2  0  0  0  0
  8 36  1  0  0  0  0
  9 37  1  0  0  0  0
 10 14  2  0  0  0  0
 12 14  1  0  0  0  0
 12 38  1  0  0  0  0
 13 39  1  0  0  0  0
 14 15  1  0  0  0  0
 15 40  1  0  0  0  0
 15 41  1  0  0  0  0
 16 17  1  0  0  0  0
 16 42  1  0  0  0  0
 16 43  1  0  0  0  0
 17 23  1  0  0  0  0
 18 21  1  0  0  0  0
 21 20  2  0  0  0  0
 21 25  1  0  0  0  0
 21 22  1  0  0  0  0
 23 18  1  0  0  0  0
 23 19  2  0  0  0  0
 23 24  1  0  0  0  0
 24 44  1  0  0  0  0
 25 26  1  0  0  0  0
 26 27  1  0  0  0  0
 26 45  1  0  0  0  0
 26 46  1  0  0  0  0
 27 30  1  0  0  0  0
 27 47  1  0  0  0  0
 27 48  1  0  0  0  0
 28 49  1  0  0  0  0
 28 50  1  0  0  0  0
 28 51  1  0  0  0  0
 29 52  1  0  0  0  0
 29 53  1  0  0  0  0
 29 54  1  0  0  0  0
 30 28  1  0  0  0  0
 30 29  1  0  0  0  0
 30 31  1  0  0  0  0
 31 55  1  0  0  0  0
 31 56  1  0  0  0  0
 31 57  1  0  0  0  0
M  CHG  2  22  -1  30   1
M  END
>  <DRUGBANK_ID>
DB12153

>  <SECONDARY_ACCESSION_NUMBERS>
EXPT00867; DB04290

>  <COMMON_NAME>
Citicoline

>  <CAS_NUMBER>
987-78-0

>  <UNII>
536BQ2JVC7

>  <SYNONYMS>
CDP-choline; CDP-colina; citicolina; Citicoline; citidin difosfato de colina; Cytidine 5'-(choline diphosphate); Cytidine 5'-(cholinyl pyrophosphate); Cytidine 5'-diphosphocholine; Cytidine 5'-diphosphoric choline; Cytidine-5'-diphosphocholine

$$$$
