
 OpenBabel10282417233D

 27 27  0  0  0  0  0  0  0  0999 V2000
    1.1346    1.1249   -0.0074 C   0  0  3  0  0  0  0  0  0  0  0  0
   -0.2555    1.6648    0.3592 C   0  0  0  0  0  0  0  0  0  0  0  0
    1.0236   -0.6954   -0.0516 S   0  0  0  0  0  0  0  0  0  0  0  0
    1.6221    1.6848   -1.3520 C   0  0  0  0  0  0  0  0  0  0  0  0
   -1.3262    0.8943   -0.3977 C   0  0  0  0  0  0  0  0  0  0  0  0
   -1.0196   -0.8313    0.0230 S   0  0  0  0  0  0  0  0  0  0  0  0
    1.7568    3.2172   -1.3077 C   0  0  0  0  0  0  0  0  0  0  0  0
    2.7787    3.6900   -0.2651 C   0  0  0  0  0  0  0  0  0  0  0  0
    4.1831    3.1460   -0.5276 C   0  0  0  0  0  0  0  0  0  0  0  0
    4.7021    3.6030   -1.8743 C   0  0  0  0  0  0  0  0  0  0  0  0
    5.7990    4.3967   -1.8531 N   0  0  0  0  0  0  0  0  0  0  0  0
    4.1840    3.3144   -2.9512 O   0  0  0  0  0  0  0  0  0  0  0  0
    1.8514    1.3666    0.7831 H   0  0  0  0  0  0  0  0  0  0  0  0
   -0.4069    1.5997    1.4437 H   0  0  0  0  0  0  0  0  0  0  0  0
   -0.3625    2.7286    0.1348 H   0  0  0  0  0  0  0  0  0  0  0  0
    2.5849    1.2330   -1.6226 H   0  0  0  0  0  0  0  0  0  0  0  0
    0.9404    1.4153   -2.1668 H   0  0  0  0  0  0  0  0  0  0  0  0
   -2.3260    1.2130   -0.0962 H   0  0  0  0  0  0  0  0  0  0  0  0
   -1.2365    1.0265   -1.4816 H   0  0  0  0  0  0  0  0  0  0  0  0
    2.0129    3.5886   -2.3027 H   0  0  0  0  0  0  0  0  0  0  0  0
    0.7951    3.6978   -1.1100 H   0  0  0  0  0  0  0  0  0  0  0  0
    2.7950    4.7854   -0.2467 H   0  0  0  0  0  0  0  0  0  0  0  0
    2.4572    3.3887    0.7402 H   0  0  0  0  0  0  0  0  0  0  0  0
    4.8541    3.4702    0.2750 H   0  0  0  0  0  0  0  0  0  0  0  0
    4.2036    2.0510   -0.5073 H   0  0  0  0  0  0  0  0  0  0  0  0
    6.1485    4.6997   -2.7529 H   0  0  0  0  0  0  0  0  0  0  0  0
    6.3438    4.5750   -1.0232 H   0  0  0  0  0  0  0  0  0  0  0  0
  1  2  1  0  0  0  0
  1  3  1  0  0  0  0
  1  4  1  0  0  0  0
  1 13  1  0  0  0  0
  2  5  1  0  0  0  0
  2 14  1  0  0  0  0
  2 15  1  0  0  0  0
  3  6  1  0  0  0  0
  4  7  1  0  0  0  0
  4 16  1  0  0  0  0
  4 17  1  0  0  0  0
  5  6  1  0  0  0  0
  5 18  1  0  0  0  0
  5 19  1  0  0  0  0
  7  8  1  0  0  0  0
  7 20  1  0  0  0  0
  7 21  1  0  0  0  0
  8  9  1  0  0  0  0
  8 22  1  0  0  0  0
  8 23  1  0  0  0  0
  9 10  1  0  0  0  0
  9 24  1  0  0  0  0
  9 25  1  0  0  0  0
 10 11  1  0  0  0  0
 10 12  2  0  0  0  0
 11 26  1  0  0  0  0
 11 27  1  0  0  0  0
M  END
>  <DRUGBANK_ID>
DB15963

>  <COMMON_NAME>
Thioctamide

>  <CAS_NUMBER>
940-69-2

>  <UNII>
Q1GT04827L

>  <SYNONYMS>
Lipoamide; Thioctic acid amide

$$$$
