
 OpenBabel10282417183D

 19 16  0  0  0  0  0  0  0  0999 V2000
    0.2612   -0.4657   -0.3452 C   0  0  0  0  0  0  0  0  0  0  0  0
    0.1221    1.5009   -0.5561 C   0  0  0  0  0  0  0  0  0  0  0  0
   -1.1244    1.6254   -0.9855 O   0  0  0  0  0  0  0  0  0  0  0  0
    0.8340    2.3772   -0.0503 O   0  5  0  0  0  0  0  0  0  0  0  0
   -0.2345   -1.0818   -1.5287 N   0  0  0  0  0  0  0  0  0  0  0  0
    2.1554    0.5363    0.5010 C   0  0  0  0  0  0  0  0  0  0  0  0
    0.8276    0.8876    1.8236 C   0  0  0  0  0  0  0  0  0  0  0  0
   -0.4615    0.9783    1.5250 O   0  0  0  0  0  0  0  0  0  0  0  0
    1.1779    0.5310    3.0048 O   0  5  0  0  0  0  0  0  0  0  0  0
    2.0337    0.6832   -1.3372 N   0  0  0  0  0  0  0  0  0  0  0  0
   -1.8016    0.8052    0.4025 Mg  0  2  0  0  0  0  0  0  0  0  0  0
   -0.0626   -0.9302    0.5998 H   0  0  0  0  0  0  0  0  0  0  0  0
    1.2290   -1.0218   -0.4852 H   0  0  0  0  0  0  0  0  0  0  0  0
   -1.1868   -1.2002   -1.7689 H   0  0  0  0  0  0  0  0  0  0  0  0
    0.4716   -1.0931   -2.2740 H   0  0  0  0  0  0  0  0  0  0  0  0
    2.1477   -0.5384    0.8025 H   0  0  0  0  0  0  0  0  0  0  0  0
    3.2223    0.6378    0.6147 H   0  0  0  0  0  0  0  0  0  0  0  0
    1.1072    0.4325   -1.7933 H   0  0  0  0  0  0  0  0  0  0  0  0
    1.9280    1.6907   -1.5980 H   0  0  0  0  0  0  0  0  0  0  0  0
  1  2  1  0  0  0  0
  1  5  1  0  0  0  0
  1 12  1  0  0  0  0
  1 13  1  0  0  0  0
  2  3  2  0  0  0  0
  2  4  1  0  0  0  0
  5 14  1  0  0  0  0
  5 15  1  0  0  0  0
  6  7  1  0  0  0  0
  6 10  1  0  0  0  0
  6 16  1  0  0  0  0
  6 17  1  0  0  0  0
  7  8  2  0  0  0  0
  7  9  1  0  0  0  0
 10 18  1  0  0  0  0
 10 19  1  0  0  0  0
M  CHG  3   4  -1   9  -1  11   2
M  END
>  <DRUGBANK_ID>
DB11189

>  <COMMON_NAME>
Magnesium glycinate

>  <CAS_NUMBER>
14783-68-7

>  <UNII>
IFN18A4Y6B

>  <SYNONYMS>
Magnesium glycinate

$$$$
