
 OpenBabel10282417233D

 31 30  0  0  1  0  0  0  0  0999 V2000
   -0.6436   -1.5884   -0.5251 C   0  0  0  0  0  0  0  0  0  0  0  0
   -1.3512   -1.2990    0.7912 C   0  0  0  0  0  0  0  0  0  0  0  0
   -1.1771   -2.4648    1.7676 C   0  0  0  0  0  0  0  0  0  0  0  0
   -0.8454    0.0308    1.3718 C   0  0  2  0  0  0  0  0  0  0  0  0
    0.6203    0.1712    1.4957 N   0  0  0  0  0  0  0  0  0  0  0  0
   -1.5454    0.2414    2.6889 C   0  0  0  0  0  0  0  0  0  0  0  0
   -2.5324    0.9736    2.7209 O   0  0  0  0  0  0  0  0  0  0  0  0
   -0.9788   -0.4521    3.7164 O   0  0  0  0  0  0  0  0  0  0  0  0
   -1.5370   -0.4500    5.0459 C   0  0  0  0  0  0  0  0  0  0  0  0
   -1.1298    0.8310    5.7658 C   0  0  0  0  0  0  0  0  0  0  0  0
   -1.6779    2.0864    5.0925 C   0  0  0  0  0  0  0  0  0  0  0  0
   -3.2149    2.0638    5.0567 C   0  0  0  0  0  0  0  0  0  0  0  0
   -3.7752    3.2380    5.4058 O   0  0  0  0  0  0  0  0  0  0  0  0
   -3.9288    1.1029    4.8138 O   0  0  0  0  0  0  0  0  0  0  0  0
    0.4333   -1.7055   -0.3733 H   0  0  0  0  0  0  0  0  0  0  0  0
   -0.8038   -0.7658   -1.2304 H   0  0  0  0  0  0  0  0  0  0  0  0
   -1.0087   -2.5145   -0.9717 H   0  0  0  0  0  0  0  0  0  0  0  0
   -2.4288   -1.1966    0.5876 H   0  0  0  0  0  0  0  0  0  0  0  0
   -0.1503   -2.5005    2.1449 H   0  0  0  0  0  0  0  0  0  0  0  0
   -1.8540   -2.3644    2.6248 H   0  0  0  0  0  0  0  0  0  0  0  0
   -1.4210   -3.4214    1.3044 H   0  0  0  0  0  0  0  0  0  0  0  0
   -1.1790    0.8481    0.7165 H   0  0  0  0  0  0  0  0  0  0  0  0
    0.8387    1.1548    1.6538 H   0  0  0  0  0  0  0  0  0  0  0  0
    1.0451   -0.0495    0.5976 H   0  0  0  0  0  0  0  0  0  0  0  0
   -2.6104   -0.6542    5.0358 H   0  0  0  0  0  0  0  0  0  0  0  0
   -1.1064   -1.3054    5.5850 H   0  0  0  0  0  0  0  0  0  0  0  0
   -1.4547    0.8073    6.8112 H   0  0  0  0  0  0  0  0  0  0  0  0
   -0.0319    0.8807    5.7658 H   0  0  0  0  0  0  0  0  0  0  0  0
   -1.3251    2.9690    5.6311 H   0  0  0  0  0  0  0  0  0  0  0  0
   -1.2332    2.2106    4.0991 H   0  0  0  0  0  0  0  0  0  0  0  0
   -3.1305    3.9176    5.6556 H   0  0  0  0  0  0  0  0  0  0  0  0
  1  2  1  0  0  0  0
  1 15  1  0  0  0  0
  1 16  1  0  0  0  0
  1 17  1  0  0  0  0
  2  3  1  0  0  0  0
  2 18  1  0  0  0  0
  3 19  1  0  0  0  0
  3 20  1  0  0  0  0
  3 21  1  0  0  0  0
  4  6  1  0  0  0  0
  4 22  1  6  0  0  0
  4  5  1  0  0  0  0
  4  2  1  0  0  0  0
  5 23  1  0  0  0  0
  5 24  1  0  0  0  0
  6  7  2  0  0  0  0
  6  8  1  0  0  0  0
  8  9  1  0  0  0  0
  9 10  1  0  0  0  0
  9 25  1  0  0  0  0
  9 26  1  0  0  0  0
 10 11  1  0  0  0  0
 10 27  1  0  0  0  0
 10 28  1  0  0  0  0
 11 12  1  0  0  0  0
 11 29  1  0  0  0  0
 11 30  1  0  0  0  0
 12 13  1  0  0  0  0
 12 14  2  0  0  0  0
 13 31  1  0  0  0  0
M  END
>  <DRUGBANK_ID>
DB16937

>  <COMMON_NAME>
Valiloxibic acid

>  <CAS_NUMBER>
238401-16-6

>  <UNII>
9B8NWP8K91

>  <SYNONYMS>
4-((l-valyl)oxy)butanoic acid; L-valine, 3-carboxypropyl ester; Valiloxybate

$$$$
