
 OpenBabel10282417203D

 60 61  0  0  0  0  0  0  0  0999 V2000
    1.0654    0.4605    0.0931 C   0  0  0  0  0  0  0  0  0  0  0  0
    1.0672   -0.7095    2.4194 C   0  0  0  0  0  0  0  0  0  0  0  0
    6.0405   -4.4517   -8.0565 C   0  0  0  0  0  0  0  0  0  0  0  0
    3.8862   -5.6063   -7.6711 C   0  0  0  0  0  0  0  0  0  0  0  0
    2.6416   -3.1677   -0.1551 C   0  0  0  0  0  0  0  0  0  0  0  0
    2.2179   -3.3631   -2.4670 C   0  0  0  0  0  0  0  0  0  0  0  0
    7.2471   -4.8954   -4.8012 C   0  0  0  0  0  0  0  0  0  0  0  0
    7.7700   -6.6902   -3.3511 C   0  0  0  0  0  0  0  0  0  0  0  0
    1.2457   -3.2991    0.0547 C   0  0  0  0  0  0  0  0  0  0  0  0
    0.8297   -3.2947   -2.2704 C   0  0  0  0  0  0  0  0  0  0  0  0
    7.6822   -5.7010   -5.8457 C   0  0  0  0  0  0  0  0  0  0  0  0
    7.9807   -7.5491   -4.4815 C   0  0  0  0  0  0  0  0  0  0  0  0
   -0.9728   -1.0028    0.9009 C   0  0  0  0  0  0  0  0  0  0  0  0
    5.9347   -6.9863   -8.4810 C   0  0  0  0  0  0  0  0  0  0  0  0
   -1.3605   -1.4873   -0.5091 C   0  0  0  0  0  0  0  0  0  0  0  0
    7.4361   -7.3185   -8.2040 C   0  0  0  0  0  0  0  0  0  0  0  0
    0.5040   -0.6048    1.0121 C   0  0  0  0  0  0  0  0  0  0  0  0
    5.3913   -5.8032   -7.6667 C   0  0  0  0  0  0  0  0  0  0  0  0
    3.1602   -3.3562   -1.4269 C   0  0  0  0  0  0  0  0  0  0  0  0
    7.2303   -5.4126   -3.5125 C   0  0  0  0  0  0  0  0  0  0  0  0
    0.3397   -3.1442   -0.9978 C   0  0  0  0  0  0  0  0  0  0  0  0
    7.8219   -7.0554   -5.7797 C   0  0  0  0  0  0  0  0  0  0  0  0
    5.1260   -4.4497   -2.6225 C   0  0  0  0  0  0  0  0  0  0  0  0
    4.5700   -3.6450   -1.5965 N   0  0  0  0  0  0  0  0  0  0  0  0
    6.5336   -4.6587   -2.5018 N   0  0  0  0  0  0  0  0  0  0  0  0
   -0.9879   -2.8709   -0.7959 O   0  0  0  0  0  0  0  0  0  0  0  0
    7.7735   -7.8721   -6.8854 O   0  0  0  0  0  0  0  0  0  0  0  0
    4.2337   -5.1949   -3.8551 S   0  0  0  0  0  0  0  0  0  0  0  0
    0.7578    1.4642    0.3628 H   0  0  0  0  0  0  0  0  0  0  0  0
    0.7865    0.2522   -0.9485 H   0  0  0  0  0  0  0  0  0  0  0  0
    2.1627    0.3871    0.1016 H   0  0  0  0  0  0  0  0  0  0  0  0
    0.8003    0.1478    3.0314 H   0  0  0  0  0  0  0  0  0  0  0  0
    0.7087   -1.6258    2.9112 H   0  0  0  0  0  0  0  0  0  0  0  0
    2.1595   -0.8076    2.3764 H   0  0  0  0  0  0  0  0  0  0  0  0
    5.6526   -4.0681   -8.9984 H   0  0  0  0  0  0  0  0  0  0  0  0
    5.8616   -3.7123   -7.2654 H   0  0  0  0  0  0  0  0  0  0  0  0
    7.1196   -4.4688   -8.2392 H   0  0  0  0  0  0  0  0  0  0  0  0
    3.3629   -6.5277   -7.4041 H   0  0  0  0  0  0  0  0  0  0  0  0
    3.6359   -4.8588   -6.9061 H   0  0  0  0  0  0  0  0  0  0  0  0
    3.5328   -5.2324   -8.6312 H   0  0  0  0  0  0  0  0  0  0  0  0
    3.2689   -2.8718    0.6849 H   0  0  0  0  0  0  0  0  0  0  0  0
    2.5209   -3.3999   -3.5027 H   0  0  0  0  0  0  0  0  0  0  0  0
    6.8265   -3.9210   -5.0213 H   0  0  0  0  0  0  0  0  0  0  0  0
    7.9429   -7.0954   -2.3562 H   0  0  0  0  0  0  0  0  0  0  0  0
    0.8635   -3.2734    1.0743 H   0  0  0  0  0  0  0  0  0  0  0  0
    0.1684   -3.3924   -3.1243 H   0  0  0  0  0  0  0  0  0  0  0  0
    7.7600   -5.2505   -6.8088 H   0  0  0  0  0  0  0  0  0  0  0  0
    8.2451   -8.5904   -4.3418 H   0  0  0  0  0  0  0  0  0  0  0  0
   -1.1923   -1.8343    1.5863 H   0  0  0  0  0  0  0  0  0  0  0  0
   -1.5925   -0.1568    1.2197 H   0  0  0  0  0  0  0  0  0  0  0  0
    5.7941   -6.7571   -9.5469 H   0  0  0  0  0  0  0  0  0  0  0  0
    5.3407   -7.8841   -8.2701 H   0  0  0  0  0  0  0  0  0  0  0  0
   -2.4598   -1.4727   -0.5496 H   0  0  0  0  0  0  0  0  0  0  0  0
   -1.0473   -0.7862   -1.2934 H   0  0  0  0  0  0  0  0  0  0  0  0
    8.0911   -6.4776   -8.4611 H   0  0  0  0  0  0  0  0  0  0  0  0
    7.7125   -8.0943   -8.9345 H   0  0  0  0  0  0  0  0  0  0  0  0
    1.0267   -1.3803    0.5401 H   0  0  0  0  0  0  0  0  0  0  0  0
    5.5541   -6.0896   -6.6301 H   0  0  0  0  0  0  0  0  0  0  0  0
    5.1329   -3.5253   -0.7602 H   0  0  0  0  0  0  0  0  0  0  0  0
    6.8964   -4.7490   -1.5590 H   0  0  0  0  0  0  0  0  0  0  0  0
  1 29  1  0  0  0  0
  1 30  1  0  0  0  0
  1 31  1  0  0  0  0
  2 32  1  0  0  0  0
  2 33  1  0  0  0  0
  2 34  1  0  0  0  0
  3 35  1  0  0  0  0
  3 36  1  0  0  0  0
  3 37  1  0  0  0  0
  4 38  1  0  0  0  0
  4 39  1  0  0  0  0
  4 40  1  0  0  0  0
  5 41  1  0  0  0  0
  6 42  1  0  0  0  0
  7 43  1  0  0  0  0
  8 44  1  0  0  0  0
  9  5  1  0  0  0  0
  9 45  1  0  0  0  0
 10  6  2  0  0  0  0
 10 46  1  0  0  0  0
 11  7  1  0  0  0  0
 11 47  1  0  0  0  0
 12  8  2  0  0  0  0
 12 48  1  0  0  0  0
 13 49  1  0  0  0  0
 13 50  1  0  0  0  0
 14 51  1  0  0  0  0
 14 52  1  0  0  0  0
 15 13  1  0  0  0  0
 15 53  1  0  0  0  0
 15 54  1  0  0  0  0
 16 14  1  0  0  0  0
 16 55  1  0  0  0  0
 16 56  1  0  0  0  0
 17  1  1  0  0  0  0
 17  2  1  0  0  0  0
 17 13  1  0  0  0  0
 17 57  1  0  0  0  0
 18  3  1  0  0  0  0
 18  4  1  0  0  0  0
 18 14  1  0  0  0  0
 18 58  1  0  0  0  0
 19  5  2  0  0  0  0
 19  6  1  0  0  0  0
 20  7  2  0  0  0  0
 20  8  1  0  0  0  0
 21  9  2  0  0  0  0
 21 10  1  0  0  0  0
 22 11  2  0  0  0  0
 22 12  1  0  0  0  0
 24 19  1  0  0  0  0
 24 23  1  0  0  0  0
 24 59  1  0  0  0  0
 25 20  1  0  0  0  0
 25 23  1  0  0  0  0
 25 60  1  0  0  0  0
 26 15  1  0  0  0  0
 26 21  1  0  0  0  0
 27 16  1  0  0  0  0
 27 22  1  0  0  0  0
 28 23  2  0  0  0  0
M  END
>  <DRUGBANK_ID>
DB13608

>  <COMMON_NAME>
Tiocarlide

>  <CAS_NUMBER>
910-86-1

>  <UNII>
43M23X81Y2

>  <SYNONYMS>
Tiocarlide

$$$$
