
 OpenBabel10282417193D

 44 47  0  0  0  0  0  0  0  0999 V2000
    1.6760   -0.0341   -0.0296 C   0  0  0  0  0  0  0  0  0  0  0  0
    0.9281   -1.1197   -0.3450 C   0  0  0  0  0  0  0  0  0  0  0  0
   -0.2898   -0.9164   -0.9868 C   0  0  0  0  0  0  0  0  0  0  0  0
   -1.0328    0.2777   -0.9884 C   0  0  0  0  0  0  0  0  0  0  0  0
   -0.2673    1.3881   -0.4091 C   0  0  0  0  0  0  0  0  0  0  0  0
    1.0969    1.2278   -0.1241 C   0  0  0  0  0  0  0  0  0  0  0  0
   -3.1611    0.5210   -1.1694 S   0  0  0  0  0  0  0  0  0  0  0  0
   -2.4964    1.2199   -0.0329 O   0  0  0  0  0  0  0  0  0  0  0  0
   -3.3067    1.1718   -2.4303 O   0  0  0  0  0  0  0  0  0  0  0  0
   -5.4699   -0.0037   -0.2300 C   0  0  0  0  0  0  0  0  0  0  0  0
   -6.5061    1.4860   -0.1382 C   0  0  0  0  0  0  0  0  0  0  0  0
   -6.2493    2.5524   -0.9643 C   0  0  0  0  0  0  0  0  0  0  0  0
   -5.6315    3.8854   -0.8117 C   0  0  0  0  0  0  0  0  0  0  0  0
   -4.2697    4.0703   -0.6043 C   0  0  0  0  0  0  0  0  0  0  0  0
   -3.6601    3.0343    0.0689 C   0  0  0  0  0  0  0  0  0  0  0  0
   -4.4168    1.8110    0.2903 C   0  0  0  0  0  0  0  0  0  0  0  0
   -5.4029    1.6754   -1.1781 C   0  0  0  0  0  0  0  0  0  0  0  0
   -5.9657    0.2706   -1.8847 N   0  0  0  0  0  0  0  0  0  0  0  0
   -5.9899   -0.7310   -1.0946 C   0  0  0  0  0  0  0  0  0  0  0  0
   -3.8697    0.1153    0.9772 N   0  0  0  0  0  0  0  0  0  0  0  0
   -2.7987   -0.0626    2.0180 C   0  0  0  0  0  0  0  0  0  0  0  0
   -1.5525   -0.9380    1.6250 C   0  0  0  0  0  0  0  0  0  0  0  0
   -1.7384   -2.2274    0.8556 N   0  0  0  0  0  0  0  0  0  0  0  0
   -2.4996   -2.1497   -0.3850 C   0  0  0  0  0  0  0  0  0  0  0  0
   -3.7908   -1.4969   -0.0173 C   0  0  0  0  0  0  0  0  0  0  0  0
    2.6978   -0.2173    0.2570 H   0  0  0  0  0  0  0  0  0  0  0  0
    1.1913   -2.1532   -0.1051 H   0  0  0  0  0  0  0  0  0  0  0  0
   -0.5975   -1.9184   -1.1656 H   0  0  0  0  0  0  0  0  0  0  0  0
   -0.7051    2.3097    0.0232 H   0  0  0  0  0  0  0  0  0  0  0  0
    1.6999    2.1105    0.0129 H   0  0  0  0  0  0  0  0  0  0  0  0
   -7.4457    1.8511    0.3457 H   0  0  0  0  0  0  0  0  0  0  0  0
   -6.1946    4.7903   -1.0044 H   0  0  0  0  0  0  0  0  0  0  0  0
   -3.6433    4.9257   -0.8905 H   0  0  0  0  0  0  0  0  0  0  0  0
   -2.6393    3.0537   -0.4007 H   0  0  0  0  0  0  0  0  0  0  0  0
   -6.2958   -1.7649   -0.8981 H   0  0  0  0  0  0  0  0  0  0  0  0
   -2.4359    0.8821    2.4053 H   0  0  0  0  0  0  0  0  0  0  0  0
   -3.2749   -0.7024    2.7574 H   0  0  0  0  0  0  0  0  0  0  0  0
   -0.8140   -0.2620    1.2238 H   0  0  0  0  0  0  0  0  0  0  0  0
   -0.9411   -1.1538    2.5133 H   0  0  0  0  0  0  0  0  0  0  0  0
   -2.2649   -2.8534    1.4571 H   0  0  0  0  0  0  0  0  0  0  0  0
   -2.2219   -1.6637   -1.3636 H   0  0  0  0  0  0  0  0  0  0  0  0
   -2.5498   -3.1327   -0.9046 H   0  0  0  0  0  0  0  0  0  0  0  0
   -4.3749   -2.2594    0.4619 H   0  0  0  0  0  0  0  0  0  0  0  0
   -4.0882   -1.4210   -1.1169 H   0  0  0  0  0  0  0  0  0  0  0  0
  1  2  2  0  0  0  0
  1  6  1  0  0  0  0
  1 26  1  0  0  0  0
  2  3  1  0  0  0  0
  2 27  1  0  0  0  0
  3  4  2  0  0  0  0
  3 28  1  0  0  0  0
  4  5  1  0  0  0  0
  4  7  1  0  0  0  0
  5  6  2  0  0  0  0
  5 29  1  0  0  0  0
  6 30  1  0  0  0  0
  7  8  2  0  0  0  0
  7  9  2  0  0  0  0
  7 10  1  0  0  0  0
 10 11  1  0  0  0  0
 10 19  2  0  0  0  0
 11 12  2  0  0  0  0
 11 31  1  0  0  0  0
 12 13  1  0  0  0  0
 12 17  1  0  0  0  0
 13 14  2  0  0  0  0
 13 32  1  0  0  0  0
 14 15  1  0  0  0  0
 14 33  1  0  0  0  0
 15 16  2  0  0  0  0
 15 34  1  0  0  0  0
 16 17  1  0  0  0  0
 16 20  1  0  0  0  0
 17 18  2  0  0  0  0
 18 19  1  0  0  0  0
 19 35  1  0  0  0  0
 20 21  1  0  0  0  0
 20 25  1  0  0  0  0
 21 22  1  0  0  0  0
 21 36  1  0  0  0  0
 21 37  1  0  0  0  0
 22 23  1  0  0  0  0
 22 38  1  0  0  0  0
 22 39  1  0  0  0  0
 23 24  1  0  0  0  0
 23 40  1  0  0  0  0
 24 25  1  0  0  0  0
 24 41  1  0  0  0  0
 24 42  1  0  0  0  0
 25 43  1  0  0  0  0
 25 44  1  0  0  0  0
M  END
>  <DRUGBANK_ID>
DB12680

>  <COMMON_NAME>
Intepirdine

>  <CAS_NUMBER>
607742-69-8

>  <UNII>
2IOB2M82HY

>  <SYNONYMS>
Intepirdine

$$$$
