
 OpenBabel10282417103D

 42 45  0  0  0  0  0  0  0  0999 V2000
    1.2140    2.0042    0.3941 N   0  0  0  0  0  0  0  0  0  0  0  0
   -0.0674    2.1465    0.4457 C   0  0  0  0  0  0  0  0  0  0  0  0
   -1.0492    1.0894    0.2102 C   0  0  0  0  0  0  0  0  0  0  0  0
    1.5030   -0.4927    0.5280 C   0  0  0  0  0  0  0  0  0  0  0  0
    1.8841    0.7973    0.0941 C   0  0  0  0  0  0  0  0  0  0  0  0
    3.0781    0.9402   -0.6282 C   0  0  0  0  0  0  0  0  0  0  0  0
    3.8785   -0.1563   -0.9500 C   0  0  0  0  0  0  0  0  0  0  0  0
    2.3068   -1.5990    0.1735 C   0  0  0  0  0  0  0  0  0  0  0  0
    3.4912   -1.4292   -0.5507 C   0  0  0  0  0  0  0  0  0  0  0  0
    0.2621   -0.7293    1.1775 N   0  0  0  0  0  0  0  0  0  0  0  0
   -0.8609   -0.2183    0.6091 C   0  0  0  0  0  0  0  0  0  0  0  0
   -2.3232    1.2572   -0.4352 C   0  0  0  0  0  0  0  0  0  0  0  0
   -2.2408   -1.1864    0.2903 S   0  0  0  0  0  0  0  0  0  0  0  0
   -3.0704    0.1025   -0.4688 C   0  0  0  0  0  0  0  0  0  0  0  0
   -0.6850    3.3746    0.6281 N   0  0  0  0  0  0  0  0  0  0  0  0
   -4.4318   -0.0883   -1.0448 C   0  0  0  0  0  0  0  0  0  0  0  0
   -0.0592    4.5774    0.0655 C   0  0  0  0  0  0  0  0  0  0  0  0
   -1.4714    3.6584    1.8430 C   0  0  0  0  0  0  0  0  0  0  0  0
   -1.1556    5.6289   -0.2223 C   0  0  0  0  0  0  0  0  0  0  0  0
   -2.5428    4.7260    1.5180 C   0  0  0  0  0  0  0  0  0  0  0  0
   -1.9228    5.9667    0.9987 N   0  0  0  0  0  0  0  0  0  0  0  0
   -2.9292    6.9847    0.7226 C   0  0  0  0  0  0  0  0  0  0  0  0
    3.3843    1.9364   -0.9376 H   0  0  0  0  0  0  0  0  0  0  0  0
    4.7977   -0.0083   -1.5105 H   0  0  0  0  0  0  0  0  0  0  0  0
    1.9996   -2.6097    0.4314 H   0  0  0  0  0  0  0  0  0  0  0  0
    4.1065   -2.2878   -0.8103 H   0  0  0  0  0  0  0  0  0  0  0  0
    0.2090   -1.6192    1.6570 H   0  0  0  0  0  0  0  0  0  0  0  0
   -2.6617    2.1995   -0.8497 H   0  0  0  0  0  0  0  0  0  0  0  0
   -4.4190   -0.8160   -1.8625 H   0  0  0  0  0  0  0  0  0  0  0  0
   -5.1343   -0.4292   -0.2781 H   0  0  0  0  0  0  0  0  0  0  0  0
   -4.8173    0.8555   -1.4486 H   0  0  0  0  0  0  0  0  0  0  0  0
    0.6936    4.9839    0.7520 H   0  0  0  0  0  0  0  0  0  0  0  0
    0.4393    4.3334   -0.8798 H   0  0  0  0  0  0  0  0  0  0  0  0
   -0.8134    4.0278    2.6416 H   0  0  0  0  0  0  0  0  0  0  0  0
   -1.9683    2.7594    2.2240 H   0  0  0  0  0  0  0  0  0  0  0  0
   -1.8360    5.2294   -0.9884 H   0  0  0  0  0  0  0  0  0  0  0  0
   -0.6857    6.5272   -0.6370 H   0  0  0  0  0  0  0  0  0  0  0  0
   -3.1206    4.9431    2.4235 H   0  0  0  0  0  0  0  0  0  0  0  0
   -3.2394    4.3152    0.7736 H   0  0  0  0  0  0  0  0  0  0  0  0
   -2.4530    7.9027    0.3605 H   0  0  0  0  0  0  0  0  0  0  0  0
   -3.6614    6.6559   -0.0223 H   0  0  0  0  0  0  0  0  0  0  0  0
   -3.4631    7.2511    1.6415 H   0  0  0  0  0  0  0  0  0  0  0  0
  1  2  2  0  0  0  0
  1  5  1  0  0  0  0
  2  3  1  0  0  0  0
  2 15  1  0  0  0  0
  3 11  2  0  0  0  0
  4  5  1  0  0  0  0
  6  5  2  0  0  0  0
  6  7  1  0  0  0  0
  6 23  1  0  0  0  0
  7  9  2  0  0  0  0
  7 24  1  0  0  0  0
  8  4  2  0  0  0  0
  8 25  1  0  0  0  0
  9  8  1  0  0  0  0
  9 26  1  0  0  0  0
 10  4  1  0  0  0  0
 10 27  1  0  0  0  0
 11 10  1  0  0  0  0
 11 13  1  0  0  0  0
 12  3  1  0  0  0  0
 12 14  2  0  0  0  0
 12 28  1  0  0  0  0
 13 14  1  0  0  0  0
 14 16  1  0  0  0  0
 15 17  1  0  0  0  0
 15 18  1  0  0  0  0
 16 29  1  0  0  0  0
 16 30  1  0  0  0  0
 16 31  1  0  0  0  0
 17 19  1  0  0  0  0
 17 32  1  0  0  0  0
 17 33  1  0  0  0  0
 18 20  1  0  0  0  0
 18 34  1  0  0  0  0
 18 35  1  0  0  0  0
 19 21  1  0  0  0  0
 19 36  1  0  0  0  0
 19 37  1  0  0  0  0
 20 21  1  0  0  0  0
 20 38  1  0  0  0  0
 20 39  1  0  0  0  0
 21 22  1  0  0  0  0
 22 40  1  0  0  0  0
 22 41  1  0  0  0  0
 22 42  1  0  0  0  0
M  END
>  <DRUGBANK_ID>
DB00334

>  <SECONDARY_ACCESSION_NUMBERS>
APRD00138

>  <COMMON_NAME>
Olanzapine

>  <CAS_NUMBER>
132539-06-1

>  <UNII>
N7U69T4SZR

>  <SYNONYMS>
2-methyl-4-(4-methyl-1-piperazinyl)-10H-thieno[2,3-b][1,5]benzodiazepine; Olanzapin; Olanzapina; Olanzapine; Olanzapinum

$$$$
