347
 OpenBabel10282417163D

 63 64  0  0  0  0  0  0  0  0999 V2000
    0.9391    0.0458    0.0648 C   0  0  0  0  0  0  0  0  0  0  0  0
    0.4324   -0.6074   -1.2108 C   0  0  0  0  0  0  0  0  0  0  0  0
   -0.0022   -1.1677   -2.3050 C   0  0  0  0  0  0  0  0  0  0  0  0
   -0.5089   -1.8209   -3.5805 C   0  0  0  0  0  0  0  0  0  0  0  0
   -1.6312   -2.6495   -3.1855 N   0  0  0  0  0  0  0  0  0  0  0  0
   -2.8690   -2.6508   -3.7882 C   0  0  0  0  0  0  0  0  0  0  0  0
   -3.0502   -2.4154   -5.1464 C   0  0  0  0  0  0  0  0  0  0  0  0
   -4.3282   -2.4788   -5.7198 C   0  0  0  0  0  0  0  0  0  0  0  0
   -5.4670   -2.6651   -4.9120 C   0  0  0  0  0  0  0  0  0  0  0  0
   -5.3020   -2.8908   -3.5525 C   0  0  0  0  0  0  0  0  0  0  0  0
   -4.0136   -2.8703   -3.0034 C   0  0  0  0  0  0  0  0  0  0  0  0
   -7.1579   -2.3167   -5.4656 S   0  0  0  0  0  0  0  0  0  0  0  0
   -7.7856   -3.6233   -5.6431 O   0  0  0  0  0  0  0  0  0  0  0  0
   -7.7542   -1.3248   -4.6048 O   0  0  0  0  0  0  0  0  0  0  0  0
   -7.0850   -1.5983   -7.0624 C   0  0  0  0  0  0  0  0  0  0  0  0
   -6.1532   -0.4834   -7.5933 C   0  0  0  0  0  0  0  0  0  0  0  0
   -5.4801    0.1165   -6.2914 C   0  0  0  0  0  0  0  0  0  0  0  0
   -6.1348    1.4034   -5.7370 C   0  0  0  0  0  0  0  0  0  0  0  0
   -5.8618    2.4652   -6.6510 N   0  0  0  0  0  0  0  0  0  0  0  0
   -6.4591    2.2370   -7.9354 C   0  0  0  0  0  0  0  0  0  0  0  0
   -6.1147    0.8545   -8.4600 C   0  0  0  0  0  0  0  0  0  0  0  0
   -4.9859    3.4738   -6.2911 C   0  0  0  0  0  0  0  0  0  0  0  0
   -4.5383    3.5602   -5.1486 O   0  0  0  0  0  0  0  0  0  0  0  0
   -4.6675    4.3423   -7.2993 O   0  0  0  0  0  0  0  0  0  0  0  0
   -3.8023    5.4805   -6.9949 C   0  0  0  0  0  0  0  0  0  0  0  0
   -2.4121    5.0318   -6.5205 C   0  0  0  0  0  0  0  0  0  0  0  0
   -4.4734    6.4055   -5.9708 C   0  0  0  0  0  0  0  0  0  0  0  0
   -3.6026    6.2949   -8.2901 C   0  0  0  0  0  0  0  0  0  0  0  0
   -5.8452   -1.3234   -9.0458 C   0  0  0  0  0  0  0  0  0  0  0  0
   -4.9467   -1.0360   -9.8408 O   0  0  0  0  0  0  0  0  0  0  0  0
   -6.8800   -2.1826   -9.5207 N   0  0  0  0  0  0  0  0  0  0  0  0
   -6.7386   -2.7147  -10.8189 O   0  0  0  0  0  0  0  0  0  0  0  0
    0.5787   -0.5083    0.9360 H   0  0  0  0  0  0  0  0  0  0  0  0
    0.5788    1.0765    0.1245 H   0  0  0  0  0  0  0  0  0  0  0  0
    2.0326    0.0498    0.0728 H   0  0  0  0  0  0  0  0  0  0  0  0
   -0.8123   -1.0187   -4.2624 H   0  0  0  0  0  0  0  0  0  0  0  0
    0.2809   -2.4106   -4.0548 H   0  0  0  0  0  0  0  0  0  0  0  0
   -1.4201   -3.4321   -2.5765 H   0  0  0  0  0  0  0  0  0  0  0  0
   -2.1978   -2.1811   -5.7812 H   0  0  0  0  0  0  0  0  0  0  0  0
   -4.3772   -2.2657   -6.7818 H   0  0  0  0  0  0  0  0  0  0  0  0
   -6.1691   -3.0467   -2.9157 H   0  0  0  0  0  0  0  0  0  0  0  0
   -3.9110   -2.9650   -1.9244 H   0  0  0  0  0  0  0  0  0  0  0  0
   -6.5899   -2.5247   -7.4128 H   0  0  0  0  0  0  0  0  0  0  0  0
   -8.0983   -1.5363   -7.4605 H   0  0  0  0  0  0  0  0  0  0  0  0
   -5.6461   -0.4684   -5.4045 H   0  0  0  0  0  0  0  0  0  0  0  0
   -4.3956    0.2062   -6.3670 H   0  0  0  0  0  0  0  0  0  0  0  0
   -7.2263    1.3009   -5.6498 H   0  0  0  0  0  0  0  0  0  0  0  0
   -5.7692    1.6220   -4.7255 H   0  0  0  0  0  0  0  0  0  0  0  0
   -6.1255    2.9923   -8.6519 H   0  0  0  0  0  0  0  0  0  0  0  0
   -7.5424    2.2878   -7.8278 H   0  0  0  0  0  0  0  0  0  0  0  0
   -5.0230    0.9625   -8.6712 H   0  0  0  0  0  0  0  0  0  0  0  0
   -6.5966    0.7713   -9.4373 H   0  0  0  0  0  0  0  0  0  0  0  0
   -1.9279    4.4011   -7.2741 H   0  0  0  0  0  0  0  0  0  0  0  0
   -1.7664    5.8943   -6.3212 H   0  0  0  0  0  0  0  0  0  0  0  0
   -2.4519    4.4447   -5.6009 H   0  0  0  0  0  0  0  0  0  0  0  0
   -4.6543    5.9055   -5.0166 H   0  0  0  0  0  0  0  0  0  0  0  0
   -3.8545    7.2846   -5.7642 H   0  0  0  0  0  0  0  0  0  0  0  0
   -5.4498    6.7417   -6.3371 H   0  0  0  0  0  0  0  0  0  0  0  0
   -3.1240    5.6975   -9.0740 H   0  0  0  0  0  0  0  0  0  0  0  0
   -4.5566    6.6482   -8.6960 H   0  0  0  0  0  0  0  0  0  0  0  0
   -2.9700    7.1739   -8.1068 H   0  0  0  0  0  0  0  0  0  0  0  0
   -7.4757   -2.7879   -8.9538 H   0  0  0  0  0  0  0  0  0  0  0  0
   -6.1828   -2.0403  -11.2534 H   0  0  0  0  0  0  0  0  0  0  0  0
  1  2  1  0  0  0  0
  1 33  1  0  0  0  0
  1 34  1  0  0  0  0
  1 35  1  0  0  0  0
  2  3  3  0  0  0  0
  3  4  1  0  0  0  0
  4  5  1  0  0  0  0
  4 36  1  0  0  0  0
  4 37  1  0  0  0  0
  5  6  1  0  0  0  0
  5 38  1  0  0  0  0
  6  7  1  0  0  0  0
  6 11  2  0  0  0  0
  7  8  2  0  0  0  0
  7 39  1  0  0  0  0
  8  9  1  0  0  0  0
  8 40  1  0  0  0  0
  9 12  1  0  0  0  0
  9 10  2  0  0  0  0
 10 11  1  0  0  0  0
 10 41  1  0  0  0  0
 11 42  1  0  0  0  0
 12 13  2  0  0  0  0
 12 14  2  0  0  0  0
 12 15  1  0  0  0  0
 15 16  1  0  0  0  0
 15 43  1  0  0  0  0
 15 44  1  0  0  0  0
 16 17  1  0  0  0  0
 16 29  1  0  0  0  0
 16 21  1  0  0  0  0
 17 18  1  0  0  0  0
 17 45  1  0  0  0  0
 17 46  1  0  0  0  0
 18 19  1  0  0  0  0
 18 47  1  0  0  0  0
 18 48  1  0  0  0  0
 19 22  1  0  0  0  0
 19 20  1  0  0  0  0
 20 21  1  0  0  0  0
 20 49  1  0  0  0  0
 20 50  1  0  0  0  0
 21 51  1  0  0  0  0
 21 52  1  0  0  0  0
 22 23  2  0  0  0  0
 22 24  1  0  0  0  0
 24 25  1  0  0  0  0
 25 27  1  0  0  0  0
 25 26  1  0  0  0  0
 25 28  1  0  0  0  0
 26 53  1  0  0  0  0
 26 54  1  0  0  0  0
 26 55  1  0  0  0  0
 27 56  1  0  0  0  0
 27 57  1  0  0  0  0
 27 58  1  0  0  0  0
 28 59  1  0  0  0  0
 28 60  1  0  0  0  0
 28 61  1  0  0  0  0
 29 31  1  0  0  0  0
 29 30  2  0  0  0  0
 31 32  1  0  0  0  0
 31 62  1  0  0  0  0
 32 63  1  0  0  0  0
M  END
>  <DRUGBANK_ID>
DB07013

>  <COMMON_NAME>
TERT-BUTYL 4-({[4-(BUT-2-YN-1-YLAMINO)PHENYL]SULFONYL}METHYL)-4-[(HYDROXYAMINO)CARBONYL]PIPERIDINE-1-CARBOXYLATE

$$$$
