
 OpenBabel10282417233D

150157  0  0  1  0  0  0  0  0999 V2000
   -2.3512  -22.8502   -8.5207 C   0  0  0  0  0  0  0  0  0  0  0  0
   -3.4452  -22.2611   -9.4235 C   0  0  0  0  0  0  0  0  0  0  0  0
   -4.8210  -22.7028   -8.9401 C   0  0  0  0  0  0  0  0  0  0  0  0
   -3.2863  -20.8012   -9.7117 N   0  0  0  0  0  0  0  0  0  0  0  0
   -2.6003  -20.3822  -10.8644 C   0  0  0  0  0  0  0  0  0  0  0  0
   -1.9290  -21.2779  -11.8691 C   0  0  0  0  0  0  0  0  0  0  0  0
   -2.6153  -18.9956  -10.9323 C   0  0  0  0  0  0  0  0  0  0  0  0
   -3.3469  -18.4912   -9.7865 C   0  0  0  0  0  0  0  0  0  0  0  0
   -3.7572  -19.6294   -8.9984 C   0  0  0  0  0  0  0  0  0  0  0  0
   -4.5677  -19.6405   -7.6947 C   0  0  0  0  0  0  0  0  0  0  0  0
   -4.0956  -20.2019   -6.4865 C   0  0  0  0  0  0  0  0  0  0  0  0
   -4.8582  -20.1928   -5.2855 C   0  0  0  0  0  0  0  0  0  0  0  0
   -6.1156  -19.6036   -5.2543 C   0  0  0  0  0  0  0  0  0  0  0  0
   -7.0477  -19.6015   -3.8019 Cl  0  0  0  0  0  0  0  0  0  0  0  0
   -6.6078  -19.0150   -6.4121 C   0  0  0  0  0  0  0  0  0  0  0  0
   -5.8439  -19.0367   -7.6112 C   0  0  0  0  0  0  0  0  0  0  0  0
   -3.5578  -17.0301   -9.4924 C   0  0  0  0  0  0  0  0  0  0  0  0
   -4.2556  -16.1843  -10.4069 C   0  0  0  0  0  0  0  0  0  0  0  0
   -4.2591  -14.7548  -10.3712 C   0  0  0  0  0  0  0  0  0  0  0  0
   -3.6394  -14.1774   -9.2690 C   0  0  0  0  0  0  0  0  0  0  0  0
   -3.0218  -14.9878   -8.3050 C   0  0  0  0  0  0  0  0  0  0  0  0
   -2.4962  -14.3951   -7.2217 F   0  0  0  0  0  0  0  0  0  0  0  0
   -2.9407  -16.3879   -8.4221 C   0  0  0  0  0  0  0  0  0  0  0  0
   -4.8385  -13.9895  -11.3727 N   0  0  0  0  0  0  0  0  0  0  0  0
   -4.1679  -12.8479  -12.0565 C   0  0  0  0  0  0  0  0  0  0  0  0
   -4.9608  -11.5313  -11.9040 C   0  0  0  0  0  0  0  0  0  0  0  0
   -6.3419  -11.7185  -12.3356 N   0  0  0  0  0  0  0  0  0  0  0  0
   -7.0405  -12.8254  -11.6186 C   0  0  0  0  0  0  0  0  0  0  0  0
   -6.2466  -14.1602  -11.7864 C   0  0  0  0  0  0  0  0  0  0  0  0
   -6.8866  -11.0546  -13.4020 C   0  0  0  0  0  0  0  0  0  0  0  0
   -6.3921  -10.9067  -14.6965 C   0  0  0  0  0  0  0  0  0  0  0  0
   -7.0832  -10.1489  -15.7293 C   0  0  0  0  0  0  0  0  0  0  0  0
   -8.3158   -9.5858  -15.4800 C   0  0  0  0  0  0  0  0  0  0  0  0
   -9.1577   -8.8069  -16.3677 N   0  0  0  0  0  0  0  0  0  0  0  0
  -10.4828   -7.7791  -15.8989 S   0  0  0  0  0  0  0  0  0  0  0  0
  -10.0816   -6.3940  -16.0469 O   0  0  0  0  0  0  0  0  0  0  0  0
  -11.6136   -8.2694  -16.6646 O   0  0  0  0  0  0  0  0  0  0  0  0
  -10.9680   -7.9393  -14.2026 C   0  0  0  0  0  0  0  0  0  0  0  0
  -10.1886   -8.4115  -13.1778 C   0  0  0  0  0  0  0  0  0  0  0  0
  -10.5893   -8.8655  -11.9521 C   0  0  0  0  0  0  0  0  0  0  0  0
  -11.6705   -8.2762  -11.4243 C   0  0  0  0  0  0  0  0  0  0  0  0
  -11.4953   -8.4664  -10.0168 N   0  0  0  0  0  0  0  0  0  0  0  0
  -12.5599   -8.1510   -9.1530 C   0  0  2  0  0  0  0  0  0  0  0  0
  -12.2319   -6.8202   -8.5529 C   0  0  0  0  0  0  0  0  0  0  0  0
  -13.4115   -5.7763   -8.6404 C   0  0  0  0  0  0  0  0  0  0  0  0
  -15.1691   -5.9931   -8.1897 N   0  0  0  0  0  0  0  0  0  0  0  0
  -15.6374   -7.3326   -8.4779 C   0  0  0  0  0  0  0  0  0  0  0  0
  -16.7245   -7.8508   -7.6173 C   0  0  0  0  0  0  0  0  0  0  0  0
  -16.6644   -7.4100   -6.2000 C   0  0  3  0  0  0  0  0  0  0  0  0
  -16.7765   -5.9780   -5.8872 C   0  0  0  0  0  0  0  0  0  0  0  0
  -15.7201   -5.4836   -6.7001 C   0  0  0  0  0  0  0  0  0  0  0  0
  -17.8827   -7.6752   -5.6075 C   0  0  0  0  0  0  0  0  0  0  0  0
  -17.7314   -8.0991   -4.4335 O   0  0  0  0  0  0  0  0  0  0  0  0
  -18.9671   -7.1724   -6.1781 O   0  0  0  0  0  0  0  0  0  0  0  0
  -20.2890   -7.3504   -5.6770 C   0  0  0  0  0  0  0  0  0  0  0  0
  -20.5707   -8.8452   -5.5546 C   0  0  0  0  0  0  0  0  0  0  0  0
  -19.6656   -9.6763   -4.6145 C   0  0  0  0  0  0  0  0  0  0  0  0
  -19.3714   -9.0639   -2.8945 P   0  0  0  0  0  0  0  0  0  0  0  0
  -17.8716   -9.5984   -2.6175 O   0  0  0  0  0  0  0  0  0  0  0  0
  -19.2685   -7.4607   -3.0042 O   0  0  0  0  0  0  0  0  0  0  0  0
  -20.2214   -9.3577   -1.7102 O   0  0  0  0  0  0  0  0  0  0  0  0
  -13.0893   -9.0735   -8.1014 C   0  0  0  0  0  0  0  0  0  0  0  0
  -13.6390   -8.1581   -6.4799 S   0  0  0  0  0  0  0  0  0  0  0  0
  -13.2483   -6.0105   -6.3297 C   0  0  0  0  0  0  0  0  0  0  0  0
  -13.7786   -4.4543   -6.9801 C   0  0  0  0  0  0  0  0  0  0  0  0
  -13.9510   -3.2352   -6.4888 C   0  0  0  0  0  0  0  0  0  0  0  0
  -13.6909   -3.4602   -5.1865 C   0  0  0  0  0  0  0  0  0  0  0  0
  -13.3597   -4.8058   -4.4979 C   0  0  0  0  0  0  0  0  0  0  0  0
  -13.1111   -6.0713   -5.0155 C   0  0  0  0  0  0  0  0  0  0  0  0
  -12.4475   -7.5079  -12.4380 C   0  0  0  0  0  0  0  0  0  0  0  0
  -12.1784   -7.5054  -13.8145 C   0  0  0  0  0  0  0  0  0  0  0  0
  -13.6795   -6.2192  -12.4543 S   0  0  0  0  0  0  0  0  0  0  0  0
  -13.0298   -4.8992  -12.7154 O   0  0  0  0  0  0  0  0  0  0  0  0
  -14.9500   -6.6417  -12.9299 O   0  0  0  0  0  0  0  0  0  0  0  0
  -13.8655   -6.1518  -10.8663 C   0  0  0  0  0  0  0  0  0  0  0  0
  -14.3435   -7.2991  -10.4128 F   0  0  0  0  0  0  0  0  0  0  0  0
  -12.5657   -5.9262  -10.5034 F   0  0  0  0  0  0  0  0  0  0  0  0
  -14.7357   -5.1868  -10.5244 F   0  0  0  0  0  0  0  0  0  0  0  0
   -8.8805  -10.2202  -14.4200 C   0  0  0  0  0  0  0  0  0  0  0  0
   -8.1335  -10.5514  -13.2739 C   0  0  0  0  0  0  0  0  0  0  0  0
   -1.7707  -18.0568  -12.1876 S   0  0  0  0  0  0  0  0  0  0  0  0
   -2.9584  -17.1257  -13.0960 C   0  0  0  0  0  0  0  0  0  0  0  0
   -0.8855  -17.1710  -11.4632 O   0  0  0  0  0  0  0  0  0  0  0  0
   -1.2369  -19.0110  -13.1432 O   0  0  0  0  0  0  0  0  0  0  0  0
   -2.3893  -22.3964   -7.5323 H   0  0  0  0  0  0  0  0  0  0  0  0
   -1.3498  -22.7006   -8.9370 H   0  0  0  0  0  0  0  0  0  0  0  0
   -2.4759  -23.9357   -8.3806 H   0  0  0  0  0  0  0  0  0  0  0  0
   -3.3407  -22.7918  -10.3824 H   0  0  0  0  0  0  0  0  0  0  0  0
   -5.0443  -22.2623   -7.9735 H   0  0  0  0  0  0  0  0  0  0  0  0
   -5.5939  -22.4231   -9.6603 H   0  0  0  0  0  0  0  0  0  0  0  0
   -4.8727  -23.7939   -8.8075 H   0  0  0  0  0  0  0  0  0  0  0  0
   -2.3694  -21.0893  -12.8569 H   0  0  0  0  0  0  0  0  0  0  0  0
   -0.8590  -21.0387  -11.9078 H   0  0  0  0  0  0  0  0  0  0  0  0
   -1.9949  -22.3487  -11.7029 H   0  0  0  0  0  0  0  0  0  0  0  0
   -3.1124  -20.6571   -6.4345 H   0  0  0  0  0  0  0  0  0  0  0  0
   -4.4608  -20.6395   -4.3737 H   0  0  0  0  0  0  0  0  0  0  0  0
   -7.5851  -18.5331   -6.3871 H   0  0  0  0  0  0  0  0  0  0  0  0
   -6.2824  -18.5624   -8.4847 H   0  0  0  0  0  0  0  0  0  0  0  0
   -4.7604  -16.6557  -11.2444 H   0  0  0  0  0  0  0  0  0  0  0  0
   -3.6713  -13.1027   -9.1065 H   0  0  0  0  0  0  0  0  0  0  0  0
   -2.3804  -16.9386   -7.6736 H   0  0  0  0  0  0  0  0  0  0  0  0
   -3.1388  -12.6981  -11.7239 H   0  0  0  0  0  0  0  0  0  0  0  0
   -4.1379  -13.0855  -13.1301 H   0  0  0  0  0  0  0  0  0  0  0  0
   -4.9804  -11.2495  -10.8428 H   0  0  0  0  0  0  0  0  0  0  0  0
   -4.4921  -10.7094  -12.4525 H   0  0  0  0  0  0  0  0  0  0  0  0
   -7.0911  -12.5777  -10.5480 H   0  0  0  0  0  0  0  0  0  0  0  0
   -8.0726  -12.9686  -11.9630 H   0  0  0  0  0  0  0  0  0  0  0  0
   -6.2569  -14.4262  -12.8504 H   0  0  0  0  0  0  0  0  0  0  0  0
   -6.7374  -14.9631  -11.2283 H   0  0  0  0  0  0  0  0  0  0  0  0
   -5.4926  -11.4471  -14.9539 H   0  0  0  0  0  0  0  0  0  0  0  0
   -6.6956  -10.1599  -16.7418 H   0  0  0  0  0  0  0  0  0  0  0  0
   -8.7210   -8.4091  -17.2025 H   0  0  0  0  0  0  0  0  0  0  0  0
   -9.1392   -8.5009  -13.2684 H   0  0  0  0  0  0  0  0  0  0  0  0
   -9.9059   -9.4303  -11.3214 H   0  0  0  0  0  0  0  0  0  0  0  0
  -11.0230   -9.3217   -9.7046 H   0  0  0  0  0  0  0  0  0  0  0  0
  -13.2585   -8.4484   -9.9052 H   0  0  0  0  0  0  0  0  0  0  0  0
  -11.8210   -6.9888   -7.5490 H   0  0  0  0  0  0  0  0  0  0  0  0
  -11.2940   -6.3201   -8.8797 H   0  0  0  0  0  0  0  0  0  0  0  0
  -12.6761   -4.9388   -8.3385 H   0  0  0  0  0  0  0  0  0  0  0  0
  -13.4506   -4.9017   -9.3585 H   0  0  0  0  0  0  0  0  0  0  0  0
  -14.7360   -7.8295   -8.3668 H   0  0  0  0  0  0  0  0  0  0  0  0
  -15.8777   -7.7411   -9.4659 H   0  0  0  0  0  0  0  0  0  0  0  0
  -16.7604   -8.9455   -7.6415 H   0  0  0  0  0  0  0  0  0  0  0  0
  -17.6181   -7.4532   -8.0906 H   0  0  0  0  0  0  0  0  0  0  0  0
  -15.8868   -7.8813   -5.5763 H   0  0  0  0  0  0  0  0  0  0  0  0
  -17.6075   -5.3586   -6.2069 H   0  0  0  0  0  0  0  0  0  0  0  0
  -16.5573   -5.7708   -4.7957 H   0  0  0  0  0  0  0  0  0  0  0  0
  -15.8887   -4.4195   -6.5093 H   0  0  0  0  0  0  0  0  0  0  0  0
  -15.0746   -5.6899   -5.8717 H   0  0  0  0  0  0  0  0  0  0  0  0
  -20.5015   -6.7609   -4.7812 H   0  0  0  0  0  0  0  0  0  0  0  0
  -20.9301   -6.8771   -6.4319 H   0  0  0  0  0  0  0  0  0  0  0  0
  -21.6008   -8.9874   -5.2485 H   0  0  0  0  0  0  0  0  0  0  0  0
  -20.4455   -9.2420   -6.5765 H   0  0  0  0  0  0  0  0  0  0  0  0
  -19.9066  -10.7418   -4.6416 H   0  0  0  0  0  0  0  0  0  0  0  0
  -18.7064   -9.7568   -5.1544 H   0  0  0  0  0  0  0  0  0  0  0  0
  -17.8563  -10.5476   -2.4013 H   0  0  0  0  0  0  0  0  0  0  0  0
  -18.8463   -7.2523   -3.8526 H   0  0  0  0  0  0  0  0  0  0  0  0
  -13.8873   -9.7312   -8.5776 H   0  0  0  0  0  0  0  0  0  0  0  0
  -12.3361   -9.7311   -7.7172 H   0  0  0  0  0  0  0  0  0  0  0  0
  -14.4862   -4.2466   -7.9548 H   0  0  0  0  0  0  0  0  0  0  0  0
  -14.5871   -2.5027   -7.0416 H   0  0  0  0  0  0  0  0  0  0  0  0
  -13.8813   -2.5993   -4.5823 H   0  0  0  0  0  0  0  0  0  0  0  0
  -13.5421   -4.8499   -3.4400 H   0  0  0  0  0  0  0  0  0  0  0  0
  -13.1993   -7.0336   -4.4996 H   0  0  0  0  0  0  0  0  0  0  0  0
  -12.8217   -6.9546  -14.5096 H   0  0  0  0  0  0  0  0  0  0  0  0
   -9.9568  -10.2193  -14.4057 H   0  0  0  0  0  0  0  0  0  0  0  0
   -8.4958  -10.4236  -12.2585 H   0  0  0  0  0  0  0  0  0  0  0  0
   -3.3089  -16.2943  -12.5135 H   0  0  0  0  0  0  0  0  0  0  0  0
   -2.4657  -16.6660  -13.9538 H   0  0  0  0  0  0  0  0  0  0  0  0
   -3.7715  -17.7736  -13.4305 H   0  0  0  0  0  0  0  0  0  0  0  0
  1  2  1  0  0  0  0
  1 85  1  0  0  0  0
  1 86  1  0  0  0  0
  1 87  1  0  0  0  0
  2  3  1  0  0  0  0
  2  4  1  0  0  0  0
  2 88  1  0  0  0  0
  3 89  1  0  0  0  0
  3 90  1  0  0  0  0
  3 91  1  0  0  0  0
  4  5  1  0  0  0  0
  4  9  1  0  0  0  0
  5  6  1  0  0  0  0
  5  7  2  0  0  0  0
  6 92  1  0  0  0  0
  6 93  1  0  0  0  0
  6 94  1  0  0  0  0
  7  8  1  0  0  0  0
  7 81  1  0  0  0  0
  8  9  2  0  0  0  0
  8 17  1  0  0  0  0
  9 10  1  0  0  0  0
 10 11  2  0  0  0  0
 10 16  1  0  0  0  0
 11 12  1  0  0  0  0
 11 95  1  0  0  0  0
 12 13  2  0  0  0  0
 12 96  1  0  0  0  0
 13 14  1  0  0  0  0
 13 15  1  0  0  0  0
 15 16  2  0  0  0  0
 15 97  1  0  0  0  0
 16 98  1  0  0  0  0
 17 18  2  0  0  0  0
 17 23  1  0  0  0  0
 18 19  1  0  0  0  0
 18 99  1  0  0  0  0
 19 20  2  0  0  0  0
 19 24  1  0  0  0  0
 20 21  1  0  0  0  0
 20100  1  0  0  0  0
 21 22  1  0  0  0  0
 21 23  2  0  0  0  0
 23101  1  0  0  0  0
 24 25  1  0  0  0  0
 24 29  1  0  0  0  0
 25 26  1  0  0  0  0
 25102  1  0  0  0  0
 25103  1  0  0  0  0
 26 27  1  0  0  0  0
 26104  1  0  0  0  0
 26105  1  0  0  0  0
 27 28  1  0  0  0  0
 27 30  1  0  0  0  0
 28 29  1  0  0  0  0
 28106  1  0  0  0  0
 28107  1  0  0  0  0
 29108  1  0  0  0  0
 29109  1  0  0  0  0
 30 31  2  0  0  0  0
 30 80  1  0  0  0  0
 31 32  1  0  0  0  0
 31110  1  0  0  0  0
 32 33  2  0  0  0  0
 32111  1  0  0  0  0
 33 34  1  0  0  0  0
 33 79  1  0  0  0  0
 34 35  1  0  0  0  0
 34112  1  0  0  0  0
 35 36  2  0  0  0  0
 35 37  2  0  0  0  0
 35 38  1  0  0  0  0
 38 39  2  0  0  0  0
 38 71  1  0  0  0  0
 39 40  1  0  0  0  0
 39113  1  0  0  0  0
 40 41  2  0  0  0  0
 40114  1  0  0  0  0
 41 42  1  0  0  0  0
 41 70  1  0  0  0  0
 42115  1  0  0  0  0
 43 62  1  0  0  0  0
 43116  1  6  0  0  0
 43 44  1  0  0  0  0
 43 42  1  0  0  0  0
 44 45  1  0  0  0  0
 44117  1  0  0  0  0
 44118  1  0  0  0  0
 45 46  1  0  0  0  0
 45119  1  0  0  0  0
 45120  1  0  0  0  0
 46 47  1  0  0  0  0
 46 51  1  0  0  0  0
 47 48  1  0  0  0  0
 47121  1  0  0  0  0
 47122  1  0  0  0  0
 48 49  1  0  0  0  0
 48123  1  0  0  0  0
 48124  1  0  0  0  0
 49 50  1  0  0  0  0
 49 52  1  0  0  0  0
 49125  1  0  0  0  0
 50 51  1  0  0  0  0
 50126  1  0  0  0  0
 50127  1  0  0  0  0
 51128  1  0  0  0  0
 51129  1  0  0  0  0
 52 53  2  0  0  0  0
 52 54  1  0  0  0  0
 54 55  1  0  0  0  0
 55 56  1  0  0  0  0
 55130  1  0  0  0  0
 55131  1  0  0  0  0
 56 57  1  0  0  0  0
 56132  1  0  0  0  0
 56133  1  0  0  0  0
 57 58  1  0  0  0  0
 57134  1  0  0  0  0
 57135  1  0  0  0  0
 58 59  1  0  0  0  0
 58 60  1  0  0  0  0
 58 61  2  0  0  0  0
 59136  1  0  0  0  0
 60137  1  0  0  0  0
 62 63  1  0  0  0  0
 62138  1  0  0  0  0
 62139  1  0  0  0  0
 63 64  1  0  0  0  0
 64 65  2  0  0  0  0
 64 69  1  0  0  0  0
 65 66  1  0  0  0  0
 65140  1  0  0  0  0
 66 67  2  0  0  0  0
 66141  1  0  0  0  0
 67 68  1  0  0  0  0
 67142  1  0  0  0  0
 68 69  2  0  0  0  0
 68143  1  0  0  0  0
 69144  1  0  0  0  0
 70 71  2  0  0  0  0
 70 72  1  0  0  0  0
 71145  1  0  0  0  0
 72 73  2  0  0  0  0
 72 74  2  0  0  0  0
 72 75  1  0  0  0  0
 75 76  1  0  0  0  0
 75 77  1  0  0  0  0
 75 78  1  0  0  0  0
 79 80  2  0  0  0  0
 79146  1  0  0  0  0
 80147  1  0  0  0  0
 81 82  1  0  0  0  0
 81 83  2  0  0  0  0
 81 84  2  0  0  0  0
 82148  1  0  0  0  0
 82149  1  0  0  0  0
 82150  1  0  0  0  0
M  END
>  <DRUGBANK_ID>
DB16285

>  <COMMON_NAME>
Pelcitoclax

>  <CAS_NUMBER>
1619923-36-2

>  <UNII>
317UBD60ML

>  <SYNONYMS>
Pelcitoclax

$$$$
