714
 OpenBabel10282417103D

 37 40  0  0  1  0  0  0  0  0999 V2000
    1.1581    0.1239   -0.0652 O   0  0  0  0  0  0  0  0  0  0  0  0
    1.9177    2.5296    0.6895 O   0  0  0  0  0  0  0  0  0  0  0  0
   -3.2307   -1.9479    3.7262 N   0  0  0  0  0  0  0  0  0  0  0  0
   -3.3543   -1.0178    2.5359 C   0  0  1  0  0  0  0  0  0  0  0  0
   -2.6142   -1.6658    1.3539 C   0  0  0  0  0  0  0  0  0  0  0  0
   -2.9402    0.4645    2.7842 C   0  0  0  0  0  0  0  0  0  0  0  0
   -2.9804   -3.0215    1.1017 C   0  0  0  0  0  0  0  0  0  0  0  0
   -3.7809   -3.3138    3.4003 C   0  0  0  0  0  0  0  0  0  0  0  0
   -4.1100   -3.5810    1.9148 C   0  0  0  0  0  0  0  0  0  0  0  0
   -1.3931   -1.1563    0.8719 C   0  0  0  0  0  0  0  0  0  0  0  0
   -1.6343    0.9595    2.1959 C   0  0  0  0  0  0  0  0  0  0  0  0
   -0.8897    0.1928    1.2675 C   0  0  0  0  0  0  0  0  0  0  0  0
   -1.7992   -2.0506    4.0696 C   0  0  0  0  0  0  0  0  0  0  0  0
   -2.1399   -3.8698    0.3766 C   0  0  0  0  0  0  0  0  0  0  0  0
   -0.5830   -2.0627    0.1466 C   0  0  0  0  0  0  0  0  0  0  0  0
   -1.2075    2.2611    2.5572 C   0  0  0  0  0  0  0  0  0  0  0  0
    0.3139    0.7779    0.8039 C   0  0  0  0  0  0  0  0  0  0  0  0
   -0.9488   -3.3912   -0.0949 C   0  0  0  0  0  0  0  0  0  0  0  0
    0.7347    2.0561    1.1911 C   0  0  0  0  0  0  0  0  0  0  0  0
   -0.0351    2.8161    2.0547 C   0  0  0  0  0  0  0  0  0  0  0  0
   -4.4399   -0.9596    2.3565 H   0  0  0  0  0  0  0  0  0  0  0  0
    2.0386    0.5187    0.0668 H   0  0  0  0  0  0  0  0  0  0  0  0
    1.9969    3.4691    0.9295 H   0  0  0  0  0  0  0  0  0  0  0  0
   -3.7154    1.1033    2.3359 H   0  0  0  0  0  0  0  0  0  0  0  0
   -2.9612    0.6919    3.8603 H   0  0  0  0  0  0  0  0  0  0  0  0
   -4.6962   -3.4924    3.9803 H   0  0  0  0  0  0  0  0  0  0  0  0
   -3.0832   -4.0956    3.7385 H   0  0  0  0  0  0  0  0  0  0  0  0
   -5.0486   -3.0954    1.6223 H   0  0  0  0  0  0  0  0  0  0  0  0
   -4.2374   -4.6554    1.7294 H   0  0  0  0  0  0  0  0  0  0  0  0
   -1.5904   -2.7905    4.8455 H   0  0  0  0  0  0  0  0  0  0  0  0
   -1.1803   -2.3398    3.2162 H   0  0  0  0  0  0  0  0  0  0  0  0
   -1.4433   -1.0825    4.4300 H   0  0  0  0  0  0  0  0  0  0  0  0
   -2.3625   -4.9323    0.2868 H   0  0  0  0  0  0  0  0  0  0  0  0
    0.4100   -1.8080   -0.1767 H   0  0  0  0  0  0  0  0  0  0  0  0
   -1.8145    2.8583    3.2385 H   0  0  0  0  0  0  0  0  0  0  0  0
   -0.2345   -4.0448   -0.5957 H   0  0  0  0  0  0  0  0  0  0  0  0
    0.2573    3.8196    2.3398 H   0  0  0  0  0  0  0  0  0  0  0  0
  1 17  1  0  0  0  0
  1 22  1  0  0  0  0
  2 19  1  0  0  0  0
  2 23  1  0  0  0  0
  3  4  1  0  0  0  0
  3  8  1  0  0  0  0
  3 13  1  0  0  0  0
  4  5  1  0  0  0  0
  4  6  1  0  0  0  0
  4 21  1  1  0  0  0
  5  7  2  0  0  0  0
  5 10  1  0  0  0  0
  6 11  1  0  0  0  0
  6 24  1  0  0  0  0
  6 25  1  0  0  0  0
  7  9  1  0  0  0  0
  7 14  1  0  0  0  0
  8  9  1  0  0  0  0
  8 26  1  0  0  0  0
  8 27  1  0  0  0  0
  9 28  1  0  0  0  0
  9 29  1  0  0  0  0
 10 12  1  0  0  0  0
 10 15  2  0  0  0  0
 11 12  2  0  0  0  0
 11 16  1  0  0  0  0
 12 17  1  0  0  0  0
 13 30  1  0  0  0  0
 13 31  1  0  0  0  0
 13 32  1  0  0  0  0
 14 18  2  0  0  0  0
 14 33  1  0  0  0  0
 15 18  1  0  0  0  0
 15 34  1  0  0  0  0
 16 20  2  0  0  0  0
 16 35  1  0  0  0  0
 17 19  2  0  0  0  0
 18 36  1  0  0  0  0
 19 20  1  0  0  0  0
 20 37  1  0  0  0  0
M  END
>  <DRUGBANK_ID>
DB00714

>  <SECONDARY_ACCESSION_NUMBERS>
APRD00531; DB05816

>  <COMMON_NAME>
Apomorphine

>  <CAS_NUMBER>
58-00-4

>  <UNII>
N21FAR7B4S

>  <SYNONYMS>
(−)-10,11-dihydroxyaporphine; (6aR)-6-methyl-5,6,6a,7-tetrahydro-4H-dibenzo[de,g]quinoline-10,11-diol; (R)-5,6,6a,7-tetrahydro-6-methyl-4H-dibenzo[de,g]quinoline-10,11-diol; Apomorfina; Apomorphin; Apomorphine; R-(−)-apomorphine

$$$$
