641
 OpenBabel10282417163D

 43 45  0  0  0  0  0  0  0  0999 V2000
   -1.4386    0.2969   -0.2494 C   0  0  0  0  0  0  0  0  0  0  0  0
   -0.4681    1.3718    0.2047 C   0  0  0  0  0  0  0  0  0  0  0  0
    0.9924    1.0994   -0.1916 C   0  0  0  0  0  0  0  0  0  0  0  0
    1.4108   -0.3187    0.2461 C   0  0  0  0  0  0  0  0  0  0  0  0
    0.4234   -1.3839   -0.2320 C   0  0  0  0  0  0  0  0  0  0  0  0
   -0.9952   -1.0768    0.2304 C   0  0  0  0  0  0  0  0  0  0  0  0
    3.2650    2.1632    0.1578 C   0  0  0  0  0  0  0  0  0  0  0  0
    3.8355    3.2055    1.0875 C   0  0  0  0  0  0  0  0  0  0  0  0
    2.6413    4.1202    1.3576 C   0  0  1  0  0  0  0  0  0  0  0  0
    1.4721    3.1473    1.2962 C   0  0  0  0  0  0  0  0  0  0  0  0
    1.8925    2.1318    0.3517 N   0  0  0  0  0  0  0  0  0  0  0  0
    2.7111    4.7749    2.7230 C   0  0  0  0  0  0  0  0  0  0  0  0
    2.6390    6.1662    2.7253 N   0  0  0  0  0  0  0  0  0  0  0  0
    2.7789    4.0889    3.7411 O   0  0  0  0  0  0  0  0  0  0  0  0
    3.9213    1.4533   -0.5907 O   0  0  0  0  0  0  0  0  0  0  0  0
    2.7219    6.9222    3.9230 C   0  0  0  0  0  0  0  0  0  0  0  0
    3.6288    6.5617    4.9244 C   0  0  0  0  0  0  0  0  0  0  0  0
    3.7171    7.2996    6.1037 C   0  0  0  0  0  0  0  0  0  0  0  0
    4.8747    6.8522    7.2954 Cl  0  0  0  0  0  0  0  0  0  0  0  0
    2.8895    8.3951    6.3163 C   0  0  0  0  0  0  0  0  0  0  0  0
    1.9859    8.7586    5.3199 C   0  0  0  0  0  0  0  0  0  0  0  0
    1.9134    8.0480    4.1123 C   0  0  0  0  0  0  0  0  0  0  0  0
    0.9322   10.0950    5.5930 Cl  0  0  0  0  0  0  0  0  0  0  0  0
    2.5502    4.8604    0.5544 H   0  0  0  0  0  0  0  0  0  0  0  0
   -1.5154    0.3100   -1.3423 H   0  0  0  0  0  0  0  0  0  0  0  0
   -2.4337    0.5244    0.1498 H   0  0  0  0  0  0  0  0  0  0  0  0
   -0.7905    2.3365   -0.2027 H   0  0  0  0  0  0  0  0  0  0  0  0
   -0.5377    1.4444    1.2983 H   0  0  0  0  0  0  0  0  0  0  0  0
    1.0866    1.1517   -1.2851 H   0  0  0  0  0  0  0  0  0  0  0  0
    1.4889   -0.3590    1.3398 H   0  0  0  0  0  0  0  0  0  0  0  0
    2.4044   -0.5678   -0.1443 H   0  0  0  0  0  0  0  0  0  0  0  0
    0.7280   -2.3660    0.1466 H   0  0  0  0  0  0  0  0  0  0  0  0
    0.4465   -1.4411   -1.3275 H   0  0  0  0  0  0  0  0  0  0  0  0
   -1.0362   -1.1140    1.3264 H   0  0  0  0  0  0  0  0  0  0  0  0
   -1.6871   -1.8379   -0.1446 H   0  0  0  0  0  0  0  0  0  0  0  0
    4.1965    2.6993    1.9907 H   0  0  0  0  0  0  0  0  0  0  0  0
    4.6586    3.7436    0.6139 H   0  0  0  0  0  0  0  0  0  0  0  0
    1.2358    2.6620    2.2494 H   0  0  0  0  0  0  0  0  0  0  0  0
    0.5831    3.6613    0.9198 H   0  0  0  0  0  0  0  0  0  0  0  0
    2.3318    6.6489    1.8885 H   0  0  0  0  0  0  0  0  0  0  0  0
    4.2978    5.7176    4.7782 H   0  0  0  0  0  0  0  0  0  0  0  0
    2.9509    8.9557    7.2454 H   0  0  0  0  0  0  0  0  0  0  0  0
    1.1789    8.3451    3.3687 H   0  0  0  0  0  0  0  0  0  0  0  0
  1  6  1  0  0  0  0
  1  2  1  0  0  0  0
  1 25  1  0  0  0  0
  1 26  1  0  0  0  0
  2  3  1  0  0  0  0
  2 27  1  0  0  0  0
  2 28  1  0  0  0  0
  3 11  1  0  0  0  0
  3  4  1  0  0  0  0
  3 29  1  0  0  0  0
  4  5  1  0  0  0  0
  4 30  1  0  0  0  0
  4 31  1  0  0  0  0
  5  6  1  0  0  0  0
  5 32  1  0  0  0  0
  5 33  1  0  0  0  0
  6 34  1  0  0  0  0
  6 35  1  0  0  0  0
  7 11  1  0  0  0  0
  7 15  2  0  0  0  0
  7  8  1  0  0  0  0
  8  9  1  0  0  0  0
  8 36  1  0  0  0  0
  8 37  1  0  0  0  0
  9 12  1  0  0  0  0
  9 24  1  6  0  0  0
  9 10  1  0  0  0  0
 10 11  1  0  0  0  0
 10 38  1  0  0  0  0
 10 39  1  0  0  0  0
 12 13  1  0  0  0  0
 12 14  2  0  0  0  0
 13 16  1  0  0  0  0
 13 40  1  0  0  0  0
 16 22  2  0  0  0  0
 16 17  1  0  0  0  0
 17 18  2  0  0  0  0
 17 41  1  0  0  0  0
 18 20  1  0  0  0  0
 18 19  1  0  0  0  0
 20 21  2  0  0  0  0
 20 42  1  0  0  0  0
 21 22  1  0  0  0  0
 21 23  1  0  0  0  0
 22 43  1  0  0  0  0
M  END
>  <DRUGBANK_ID>
DB07188

>  <COMMON_NAME>
(3S)-1-CYCLOHEXYL-N-(3,5-DICHLOROPHENYL)-5-OXOPYRROLIDINE-3-CARBOXAMIDE

$$$$
