
 OpenBabel10282417203D

 29 30  0  0  0  0  0  0  0  0999 V2000
    0.8991   -0.1002    0.0707 N   0  0  0  0  0  0  0  0  0  0  0  0
    0.2812   -1.3339    0.0397 C   0  0  0  0  0  0  0  0  0  0  0  0
   -0.9343   -1.5225    0.0706 O   0  0  0  0  0  0  0  0  0  0  0  0
    1.1115   -2.4242   -0.1870 N   0  0  0  0  0  0  0  0  0  0  0  0
    2.4754   -2.5437   -0.1360 C   0  0  0  0  0  0  0  0  0  0  0  0
    3.2018   -1.6996    0.5376 N   0  0  0  0  0  0  0  0  0  0  0  0
    4.5105   -2.1288    0.4194 C   0  0  0  0  0  0  0  0  0  0  0  0
    4.5604   -3.4431   -0.3622 C   0  0  0  0  0  0  0  0  0  0  0  0
    3.1540   -3.5656   -0.7600 N   0  0  0  0  0  0  0  0  0  0  0  0
    5.4941   -1.5325    0.8491 O   0  0  0  0  0  0  0  0  0  0  0  0
    2.8407   -4.1027   -2.0746 C   0  0  0  0  0  0  0  0  0  0  0  0
    0.2083    1.1333    0.1215 C   0  0  0  0  0  0  0  0  0  0  0  0
    0.6466    2.2199   -0.6460 C   0  0  0  0  0  0  0  0  0  0  0  0
   -0.0663    3.4276   -0.6157 C   0  0  0  0  0  0  0  0  0  0  0  0
   -1.1835    3.5799    0.2039 C   0  0  0  0  0  0  0  0  0  0  0  0
   -1.5926    2.5150    1.0012 C   0  0  0  0  0  0  0  0  0  0  0  0
   -0.9069    1.2973    0.9491 C   0  0  0  0  0  0  0  0  0  0  0  0
    0.4237    4.7468   -1.6120 Cl  0  0  0  0  0  0  0  0  0  0  0  0
    1.8969   -0.0936   -0.1123 H   0  0  0  0  0  0  0  0  0  0  0  0
    0.5877   -3.2767   -0.3241 H   0  0  0  0  0  0  0  0  0  0  0  0
    5.2750   -3.3637   -1.1876 H   0  0  0  0  0  0  0  0  0  0  0  0
    4.8158   -4.2662    0.3098 H   0  0  0  0  0  0  0  0  0  0  0  0
    2.0411   -4.8427   -1.9835 H   0  0  0  0  0  0  0  0  0  0  0  0
    2.5167   -3.3302   -2.7838 H   0  0  0  0  0  0  0  0  0  0  0  0
    3.7030   -4.6114   -2.5259 H   0  0  0  0  0  0  0  0  0  0  0  0
    1.4933    2.1236   -1.3193 H   0  0  0  0  0  0  0  0  0  0  0  0
   -1.7363    4.5162    0.2270 H   0  0  0  0  0  0  0  0  0  0  0  0
   -2.4463    2.6256    1.6648 H   0  0  0  0  0  0  0  0  0  0  0  0
   -1.2309    0.4861    1.5961 H   0  0  0  0  0  0  0  0  0  0  0  0
  1  2  1  0  0  0  0
  1 12  1  0  0  0  0
  1 19  1  0  0  0  0
  2  3  2  0  0  0  0
  2  4  1  0  0  0  0
  4  5  1  0  0  0  0
  4 20  1  0  0  0  0
  5  6  2  0  0  0  0
  5  9  1  0  0  0  0
  6  7  1  0  0  0  0
  7  8  1  0  0  0  0
  7 10  2  0  0  0  0
  8  9  1  0  0  0  0
  8 21  1  0  0  0  0
  8 22  1  0  0  0  0
  9 11  1  0  0  0  0
 11 23  1  0  0  0  0
 11 24  1  0  0  0  0
 11 25  1  0  0  0  0
 12 13  1  0  0  0  0
 12 17  2  0  0  0  0
 13 14  2  0  0  0  0
 13 26  1  0  0  0  0
 14 15  1  0  0  0  0
 14 18  1  0  0  0  0
 15 16  2  0  0  0  0
 15 27  1  0  0  0  0
 16 17  1  0  0  0  0
 16 28  1  0  0  0  0
 17 29  1  0  0  0  0
M  END
>  <DRUGBANK_ID>
DB12931

>  <COMMON_NAME>
Fenobam

>  <CAS_NUMBER>
57653-26-6

>  <UNII>
078RCY7I27

>  <SYNONYMS>
Fenobam; Fenobam anhydrous; Fenobamum

$$$$
