
 OpenBabel10282417103D

136135  0  0  0  0  0  0  0  0999 V2000
    0.9040   -0.0223   -0.0172 P   0  0  3  0  0  0  0  0  0  0  0  0
    2.0549   -0.0115   -1.6961 O   0  0  0  0  0  0  0  0  0  0  0  0
    1.6176    0.2186   -3.4510 C   0  0  0  0  0  0  0  0  0  0  0  0
    0.1155    1.3887   -3.5356 C   0  0  1  0  0  0  0  0  0  0  0  0
   -0.2746    2.5320   -2.0736 C   0  0  0  0  0  0  0  0  0  0  0  0
   -0.6741    3.5988   -2.1937 O   0  0  0  0  0  0  0  0  0  0  0  0
   -0.0837    2.0498   -0.7713 O   0  0  0  0  0  0  0  0  0  0  0  0
   -0.1274    2.1971   -4.6690 N   0  0  0  0  0  0  0  0  0  0  0  0
    1.1591   -0.1102    1.4688 O   0  0  0  0  0  0  0  0  0  0  0  0
   -0.8260   -0.0223   -0.0172 O   0  0  0  0  0  0  0  0  0  0  0  0
   -1.7978   -0.6413   -0.9391 C   0  0  0  0  0  0  0  0  0  0  0  0
   -1.4010   -0.4333   -2.3082 C   0  0  1  0  0  0  0  0  0  0  0  0
    0.0378   -0.5031   -2.1777 C   0  0  0  0  0  0  0  0  0  0  0  0
    1.0314   -1.7704   -1.9020 O   0  0  0  0  0  0  0  0  0  0  0  0
   -1.8040   -1.1813   -3.4553 O   0  0  0  0  0  0  0  0  0  0  0  0
    2.6340   -0.0223   -0.0172 O   0  0  0  0  0  0  0  0  0  0  0  0
    1.1757   -2.7668   -0.9244 C   0  0  0  0  0  0  0  0  0  0  0  0
    0.1680   -2.5299    0.1290 C   0  0  0  0  0  0  0  0  0  0  0  0
   -1.2442   -3.0068    0.3134 C   0  0  0  0  0  0  0  0  0  0  0  0
   -0.9312   -4.3738    0.6760 C   0  0  0  0  0  0  0  0  0  0  0  0
   -0.1432   -4.2351    1.9487 C   0  0  0  0  0  0  0  0  0  0  0  0
   -1.0400   -3.4973    2.9334 C   0  0  0  0  0  0  0  0  0  0  0  0
   -2.3486   -4.2906    2.9630 C   0  0  0  0  0  0  0  0  0  0  0  0
   -1.9738   -5.7554    3.2306 C   0  0  0  0  0  0  0  0  0  0  0  0
   -1.1705   -5.7970    4.5318 C   0  0  0  0  0  0  0  0  0  0  0  0
   -2.0414   -5.2102    5.6411 C   0  0  0  0  0  0  0  0  0  0  0  0
   -3.3218   -6.0402    5.7452 C   0  0  0  0  0  0  0  0  0  0  0  0
   -2.9499   -7.4909    6.0599 C   0  0  0  0  0  0  0  0  0  0  0  0
   -2.1804   -7.5381    7.3820 C   0  0  0  0  0  0  0  0  0  0  0  0
   -3.0565   -6.9693    8.5010 C   0  0  0  0  0  0  0  0  0  0  0  0
   -4.3390   -7.7983    8.6270 C   0  0  0  0  0  0  0  0  0  0  0  0
   -4.0019   -9.2528    8.9719 C   0  0  0  0  0  0  0  0  0  0  0  0
   -1.2567   -2.3094   -3.9989 C   0  0  0  0  0  0  0  0  0  0  0  0
   -0.4572   -3.1468   -3.1040 C   0  0  0  0  0  0  0  0  0  0  0  0
   -1.0692   -4.2987   -2.4281 C   0  0  0  0  0  0  0  0  0  0  0  0
   -1.3093   -5.3411   -3.4047 C   0  0  0  0  0  0  0  0  0  0  0  0
    0.0819   -5.7259   -3.9104 C   0  0  0  0  0  0  0  0  0  0  0  0
    0.9605   -6.3190   -2.7840 C   0  0  0  0  0  0  0  0  0  0  0  0
    0.1991   -7.4521   -2.1074 C   0  0  0  0  0  0  0  0  0  0  0  0
   -0.1789   -8.4554   -3.1933 C   0  0  0  0  0  0  0  0  0  0  0  0
    1.1033   -8.9549   -3.8661 C   0  0  0  0  0  0  0  0  0  0  0  0
    1.9882   -9.6225   -2.8120 C   0  0  0  0  0  0  0  0  0  0  0  0
    1.2187  -10.7862   -2.1841 C   0  0  0  0  0  0  0  0  0  0  0  0
    0.8432  -11.7889   -3.2783 C   0  0  0  0  0  0  0  0  0  0  0  0
    2.1174  -12.3092   -3.9483 C   0  0  0  0  0  0  0  0  0  0  0  0
    3.0014  -12.9921   -2.9016 C   0  0  0  0  0  0  0  0  0  0  0  0
    2.2442  -14.1643   -2.2683 C   0  0  0  0  0  0  0  0  0  0  0  0
    1.8757  -15.2004   -3.3356 C   0  0  0  0  0  0  0  0  0  0  0  0
    1.9358   -3.7152   -0.9680 O   0  0  0  0  0  0  0  0  0  0  0  0
   -1.5051   -2.6696   -5.1377 O   0  0  0  0  0  0  0  0  0  0  0  0
   -3.2243   -9.3350   10.2854 C   0  0  0  0  0  0  0  0  0  0  0  0
   -4.0527   -8.7546   11.4194 C   0  0  0  0  0  0  0  0  0  0  0  0
    3.1276  -15.7341   -4.0319 C   0  0  0  0  0  0  0  0  0  0  0  0
    4.0455  -16.3976   -3.0189 C   0  0  0  0  0  0  0  0  0  0  0  0
    2.5709    0.5874   -3.7428 H   0  0  0  0  0  0  0  0  0  0  0  0
    1.3913   -0.8388   -3.8681 H   0  0  0  0  0  0  0  0  0  0  0  0
   -0.8046    0.7968   -3.7842 H   0  0  0  0  0  0  0  0  0  0  0  0
   -0.6562    2.2160    0.0367 H   0  0  0  0  0  0  0  0  0  0  0  0
   -1.0573    2.5994   -4.4540 H   0  0  0  0  0  0  0  0  0  0  0  0
    0.5664    2.8928   -4.4703 H   0  0  0  0  0  0  0  0  0  0  0  0
   -1.7212   -1.6655   -1.1086 H   0  0  0  0  0  0  0  0  0  0  0  0
   -2.8480   -0.4750   -0.7382 H   0  0  0  0  0  0  0  0  0  0  0  0
   -1.8141    0.5815   -2.3532 H   0  0  0  0  0  0  0  0  0  0  0  0
    0.5835    0.4637   -2.1789 H   0  0  0  0  0  0  0  0  0  0  0  0
    0.0938    0.3469   -1.5421 H   0  0  0  0  0  0  0  0  0  0  0  0
    2.9442    0.7467    0.4876 H   0  0  0  0  0  0  0  0  0  0  0  0
    0.6292   -2.1619    1.0368 H   0  0  0  0  0  0  0  0  0  0  0  0
   -0.1405   -1.6967   -0.3377 H   0  0  0  0  0  0  0  0  0  0  0  0
   -1.7930   -2.3065    0.9766 H   0  0  0  0  0  0  0  0  0  0  0  0
   -2.0126   -3.0768   -0.4497 H   0  0  0  0  0  0  0  0  0  0  0  0
   -1.8575   -4.9418    0.5863 H   0  0  0  0  0  0  0  0  0  0  0  0
   -0.2466   -4.8284   -0.0121 H   0  0  0  0  0  0  0  0  0  0  0  0
    0.2125   -5.2299    2.1716 H   0  0  0  0  0  0  0  0  0  0  0  0
    0.8166   -3.7192    1.8679 H   0  0  0  0  0  0  0  0  0  0  0  0
   -0.5068   -3.4086    3.8751 H   0  0  0  0  0  0  0  0  0  0  0  0
   -1.2439   -2.4444    2.7004 H   0  0  0  0  0  0  0  0  0  0  0  0
   -3.0285   -3.8535    3.6899 H   0  0  0  0  0  0  0  0  0  0  0  0
   -2.9333   -4.2241    2.0375 H   0  0  0  0  0  0  0  0  0  0  0  0
   -2.8676   -6.3752    3.2329 H   0  0  0  0  0  0  0  0  0  0  0  0
   -1.3904   -6.2226    2.4294 H   0  0  0  0  0  0  0  0  0  0  0  0
   -0.8362   -6.8158    4.7285 H   0  0  0  0  0  0  0  0  0  0  0  0
   -0.2245   -5.2485    4.4782 H   0  0  0  0  0  0  0  0  0  0  0  0
   -1.4758   -5.1728    6.5730 H   0  0  0  0  0  0  0  0  0  0  0  0
   -2.2949   -4.1595    5.4733 H   0  0  0  0  0  0  0  0  0  0  0  0
   -3.9858   -5.6004    6.4915 H   0  0  0  0  0  0  0  0  0  0  0  0
   -3.9259   -6.0034    4.8342 H   0  0  0  0  0  0  0  0  0  0  0  0
   -3.8509   -8.1074    6.0766 H   0  0  0  0  0  0  0  0  0  0  0  0
   -2.3531   -7.9528    5.2682 H   0  0  0  0  0  0  0  0  0  0  0  0
   -1.8576   -8.5616    7.5856 H   0  0  0  0  0  0  0  0  0  0  0  0
   -1.2373   -6.9852    7.3340 H   0  0  0  0  0  0  0  0  0  0  0  0
   -2.4889   -6.9375    9.4339 H   0  0  0  0  0  0  0  0  0  0  0  0
   -3.3124   -5.9188    8.3307 H   0  0  0  0  0  0  0  0  0  0  0  0
   -4.9981   -7.3478    9.3720 H   0  0  0  0  0  0  0  0  0  0  0  0
   -4.9367   -7.7663    7.7103 H   0  0  0  0  0  0  0  0  0  0  0  0
   -4.9224   -9.8400    9.0329 H   0  0  0  0  0  0  0  0  0  0  0  0
   -3.4171   -9.7223    8.1713 H   0  0  0  0  0  0  0  0  0  0  0  0
    0.6040   -3.2608   -3.3894 H   0  0  0  0  0  0  0  0  0  0  0  0
   -0.5582   -2.5853   -2.2335 H   0  0  0  0  0  0  0  0  0  0  0  0
   -0.3573   -4.6583   -1.7058 H   0  0  0  0  0  0  0  0  0  0  0  0
   -1.9876   -4.0415   -1.9221 H   0  0  0  0  0  0  0  0  0  0  0  0
   -1.8652   -6.1119   -2.8697 H   0  0  0  0  0  0  0  0  0  0  0  0
   -1.9699   -4.9104   -4.1508 H   0  0  0  0  0  0  0  0  0  0  0  0
   -0.0735   -6.3980   -4.7460 H   0  0  0  0  0  0  0  0  0  0  0  0
    0.6392   -4.9007   -4.3611 H   0  0  0  0  0  0  0  0  0  0  0  0
    1.9244   -6.6208   -3.2023 H   0  0  0  0  0  0  0  0  0  0  0  0
    1.2758   -5.6193   -2.0125 H   0  0  0  0  0  0  0  0  0  0  0  0
    0.8004   -7.8866   -1.3046 H   0  0  0  0  0  0  0  0  0  0  0  0
   -0.6922   -7.1021   -1.5787 H   0  0  0  0  0  0  0  0  0  0  0  0
   -0.7841   -9.2546   -2.7653 H   0  0  0  0  0  0  0  0  0  0  0  0
   -0.8453   -8.0277   -3.9465 H   0  0  0  0  0  0  0  0  0  0  0  0
    0.8483   -9.6191   -4.6938 H   0  0  0  0  0  0  0  0  0  0  0  0
    1.6644   -8.1603   -4.3659 H   0  0  0  0  0  0  0  0  0  0  0  0
    2.9314   -9.9350   -3.2659 H   0  0  0  0  0  0  0  0  0  0  0  0
    2.3128   -8.9291   -2.0312 H   0  0  0  0  0  0  0  0  0  0  0  0
    1.8149  -11.2362   -1.3872 H   0  0  0  0  0  0  0  0  0  0  0  0
    0.3180  -10.4584   -1.6583 H   0  0  0  0  0  0  0  0  0  0  0  0
    0.2376  -12.5915   -2.8517 H   0  0  0  0  0  0  0  0  0  0  0  0
    0.1795  -11.3566   -4.0323 H   0  0  0  0  0  0  0  0  0  0  0  0
    1.8557  -12.9783   -4.7714 H   0  0  0  0  0  0  0  0  0  0  0  0
    2.6803  -11.5128   -4.4444 H   0  0  0  0  0  0  0  0  0  0  0  0
    3.9422  -13.3050   -3.3606 H   0  0  0  0  0  0  0  0  0  0  0  0
    3.3254  -12.2979   -2.1200 H   0  0  0  0  0  0  0  0  0  0  0  0
    2.8449  -14.6030   -1.4688 H   0  0  0  0  0  0  0  0  0  0  0  0
    1.3391  -13.8321   -1.7498 H   0  0  0  0  0  0  0  0  0  0  0  0
    1.3131  -16.0182   -2.8767 H   0  0  0  0  0  0  0  0  0  0  0  0
    1.1968  -14.7717   -4.0830 H   0  0  0  0  0  0  0  0  0  0  0  0
   -2.9615  -10.3748   10.4951 H   0  0  0  0  0  0  0  0  0  0  0  0
   -2.2687   -8.8014   10.2167 H   0  0  0  0  0  0  0  0  0  0  0  0
   -4.9912   -9.3089   11.5106 H   0  0  0  0  0  0  0  0  0  0  0  0
   -3.5066   -8.8012   12.3611 H   0  0  0  0  0  0  0  0  0  0  0  0
   -4.3001   -7.7010   11.2532 H   0  0  0  0  0  0  0  0  0  0  0  0
    2.8423  -16.4428   -4.8133 H   0  0  0  0  0  0  0  0  0  0  0  0
    3.6681  -14.9324   -4.5492 H   0  0  0  0  0  0  0  0  0  0  0  0
    3.5176  -17.2197   -2.5271 H   0  0  0  0  0  0  0  0  0  0  0  0
    4.9455  -16.7769   -3.5018 H   0  0  0  0  0  0  0  0  0  0  0  0
    4.3772  -15.7000   -2.2428 H   0  0  0  0  0  0  0  0  0  0  0  0
  2  1  1  0  0  0  0
  3  2  1  0  0  0  0
  3 55  1  0  0  0  0
  3 56  1  0  0  0  0
  4  3  1  0  0  0  0
  4  8  1  0  0  0  0
  4 57  1  6  0  0  0
  5  4  1  0  0  0  0
  6  5  2  0  0  0  0
  7  5  1  0  0  0  0
  7 58  1  0  0  0  0
  8 59  1  0  0  0  0
  8 60  1  0  0  0  0
  9  1  2  0  0  0  0
 10  1  1  0  0  0  0
 10 11  1  0  0  0  0
 11 12  1  0  0  0  0
 11 61  1  0  0  0  0
 11 62  1  0  0  0  0
 12 13  1  0  0  0  0
 12 15  1  0  0  0  0
 12 63  1  6  0  0  0
 13 14  1  0  0  0  0
 13 64  1  0  0  0  0
 13 65  1  0  0  0  0
 14 17  1  0  0  0  0
 15 33  1  0  0  0  0
 16  1  1  0  0  0  0
 16 66  1  0  0  0  0
 17 18  1  0  0  0  0
 17 49  2  0  0  0  0
 18 19  1  0  0  0  0
 18 67  1  0  0  0  0
 18 68  1  0  0  0  0
 19 20  1  0  0  0  0
 19 69  1  0  0  0  0
 19 70  1  0  0  0  0
 20 21  1  0  0  0  0
 20 71  1  0  0  0  0
 20 72  1  0  0  0  0
 21 22  1  0  0  0  0
 21 73  1  0  0  0  0
 21 74  1  0  0  0  0
 22 23  1  0  0  0  0
 22 75  1  0  0  0  0
 22 76  1  0  0  0  0
 23 24  1  0  0  0  0
 23 77  1  0  0  0  0
 23 78  1  0  0  0  0
 24 25  1  0  0  0  0
 24 79  1  0  0  0  0
 24 80  1  0  0  0  0
 25 26  1  0  0  0  0
 25 81  1  0  0  0  0
 25 82  1  0  0  0  0
 26 27  1  0  0  0  0
 26 83  1  0  0  0  0
 26 84  1  0  0  0  0
 27 28  1  0  0  0  0
 27 85  1  0  0  0  0
 27 86  1  0  0  0  0
 28 29  1  0  0  0  0
 28 87  1  0  0  0  0
 28 88  1  0  0  0  0
 29 30  1  0  0  0  0
 29 89  1  0  0  0  0
 29 90  1  0  0  0  0
 30 31  1  0  0  0  0
 30 91  1  0  0  0  0
 30 92  1  0  0  0  0
 31 32  1  0  0  0  0
 31 93  1  0  0  0  0
 31 94  1  0  0  0  0
 32 51  1  0  0  0  0
 32 95  1  0  0  0  0
 32 96  1  0  0  0  0
 33 34  1  0  0  0  0
 33 50  2  0  0  0  0
 34 35  1  0  0  0  0
 34 97  1  0  0  0  0
 34 98  1  0  0  0  0
 35 36  1  0  0  0  0
 35 99  1  0  0  0  0
 35100  1  0  0  0  0
 36 37  1  0  0  0  0
 36101  1  0  0  0  0
 36102  1  0  0  0  0
 37 38  1  0  0  0  0
 37103  1  0  0  0  0
 37104  1  0  0  0  0
 38 39  1  0  0  0  0
 38105  1  0  0  0  0
 38106  1  0  0  0  0
 39 40  1  0  0  0  0
 39107  1  0  0  0  0
 39108  1  0  0  0  0
 40 41  1  0  0  0  0
 40109  1  0  0  0  0
 40110  1  0  0  0  0
 41 42  1  0  0  0  0
 41111  1  0  0  0  0
 41112  1  0  0  0  0
 42 43  1  0  0  0  0
 42113  1  0  0  0  0
 42114  1  0  0  0  0
 43 44  1  0  0  0  0
 43115  1  0  0  0  0
 43116  1  0  0  0  0
 44 45  1  0  0  0  0
 44117  1  0  0  0  0
 44118  1  0  0  0  0
 45 46  1  0  0  0  0
 45119  1  0  0  0  0
 45120  1  0  0  0  0
 46 47  1  0  0  0  0
 46121  1  0  0  0  0
 46122  1  0  0  0  0
 47 48  1  0  0  0  0
 47123  1  0  0  0  0
 47124  1  0  0  0  0
 48 53  1  0  0  0  0
 48125  1  0  0  0  0
 48126  1  0  0  0  0
 51 52  1  0  0  0  0
 51127  1  0  0  0  0
 51128  1  0  0  0  0
 52129  1  0  0  0  0
 52130  1  0  0  0  0
 52131  1  0  0  0  0
 53 54  1  0  0  0  0
 53132  1  0  0  0  0
 53133  1  0  0  0  0
 54134  1  0  0  0  0
 54135  1  0  0  0  0
 54136  1  0  0  0  0
M  END
>  <DRUGBANK_ID>
DB00144

>  <SECONDARY_ACCESSION_NUMBERS>
NUTR00048

>  <COMMON_NAME>
Phosphatidyl serine

>  <CAS_NUMBER>
1446756-47-3

>  <UNII>
394XK0IH40

>  <SYNONYMS>
Phosphatidyl serine; Phosphatidylserine; PS

$$$$
