
 OpenBabel10282417163D

 63 67  0  0  1  0  0  0  0  0999 V2000
   -0.1408   -0.0031   -0.2943 C   0  0  0  0  0  0  0  0  0  0  0  0
   -1.2588   -0.3487   -1.3149 C   0  0  0  0  0  0  0  0  0  0  0  0
   -0.8316   -1.3297   -2.3517 C   0  0  0  0  0  0  0  0  0  0  0  0
    0.3501   -0.9050   -2.8185 C   0  0  0  0  0  0  0  0  0  0  0  0
    0.6522    0.6360   -2.7252 C   0  0  2  0  0  0  0  0  0  0  0  0
    0.2252    1.1554   -1.2644 C   0  0  0  0  0  0  0  0  0  0  0  0
    1.3984   -1.9421   -3.1284 C   0  0  0  0  0  0  0  0  0  0  0  0
    2.5114   -1.3316   -4.0148 C   0  0  0  0  0  0  0  0  0  0  0  0
    2.9530   -0.1173   -3.2105 C   0  0  2  0  0  0  0  0  0  0  0  0
    2.0420    1.0855   -3.1500 C   0  0  2  0  0  0  0  0  0  0  0  0
    4.2628    0.4811   -2.9892 C   0  0  1  0  0  0  0  0  0  0  0  0
    4.8290    1.9601   -3.1091 C   0  0  1  0  0  0  0  0  0  0  0  0
    3.6958    3.0236   -3.1114 C   0  0  0  0  0  0  0  0  0  0  0  0
    2.4107    2.5415   -2.5159 C   0  0  2  0  0  0  0  0  0  0  0  0
   -0.1393    1.2876   -3.8718 C   0  0  0  0  0  0  0  0  0  0  0  0
    3.0447   -0.8541   -2.4073 H   0  0  0  0  0  0  0  0  0  0  0  0
    2.4262    2.8006   -1.1220 O   0  0  0  0  0  0  0  0  0  0  0  0
    5.7058    2.6348   -4.2400 C   0  0  0  0  0  0  0  0  0  0  0  0
    2.1112    1.3730   -4.5222 F   0  0  0  0  0  0  0  0  0  0  0  0
    4.9051   -0.2236   -3.4907 H   0  0  0  0  0  0  0  0  0  0  0  0
   -2.2561    0.2812   -1.4642 O   0  0  0  0  0  0  0  0  0  0  0  0
    3.9554    0.4283   -1.3919 C   0  0  0  0  0  0  0  0  0  0  0  0
    5.1233    0.9716   -0.7513 C   0  0  2  0  0  0  0  0  0  0  0  0
    5.8105    1.7593   -1.8682 C   0  0  2  0  0  0  0  0  0  0  0  0
    6.9598    0.6688   -2.2220 C   0  0  0  0  0  0  0  0  0  0  0  0
    7.1423    0.0805   -3.6468 C   0  0  0  0  0  0  0  0  0  0  0  0
    7.6075    0.1688   -1.3198 O   0  0  0  0  0  0  0  0  0  0  0  0
    8.7730    0.4794   -4.1944 Cl  0  0  0  0  0  0  0  0  0  0  0  0
    6.0813    3.0069   -1.2350 O   0  0  0  0  0  0  0  0  0  0  0  0
    4.7334    1.8344    0.2895 O   0  0  0  0  0  0  0  0  0  0  0  0
    5.3407    3.0946    0.0009 C   0  0  0  0  0  0  0  0  0  0  0  0
    6.2337    3.4855    1.1607 C   0  0  0  0  0  0  0  0  0  0  0  0
    4.2866    4.2311    0.0364 C   0  0  0  0  0  0  0  0  0  0  0  0
    0.1610   -1.0799   -0.2556 H   0  0  0  0  0  0  0  0  0  0  0  0
    0.9372   -0.0071   -0.0203 H   0  0  0  0  0  0  0  0  0  0  0  0
   -1.2254   -2.3278   -2.3223 H   0  0  0  0  0  0  0  0  0  0  0  0
   -0.6055    1.8736   -1.2960 H   0  0  0  0  0  0  0  0  0  0  0  0
    0.9029    1.7749   -0.6968 H   0  0  0  0  0  0  0  0  0  0  0  0
    0.9929   -2.8686   -3.5339 H   0  0  0  0  0  0  0  0  0  0  0  0
    1.8210   -2.2538   -2.1413 H   0  0  0  0  0  0  0  0  0  0  0  0
    2.1417   -1.0710   -4.9992 H   0  0  0  0  0  0  0  0  0  0  0  0
    3.3214   -2.0740   -4.1053 H   0  0  0  0  0  0  0  0  0  0  0  0
    4.0495    3.9834   -2.7201 H   0  0  0  0  0  0  0  0  0  0  0  0
    3.4088    3.2739   -4.1481 H   0  0  0  0  0  0  0  0  0  0  0  0
    1.6204    3.2348   -2.8136 H   0  0  0  0  0  0  0  0  0  0  0  0
   -1.2083    1.1439   -3.8293 H   0  0  0  0  0  0  0  0  0  0  0  0
    0.0893    2.3576   -3.9435 H   0  0  0  0  0  0  0  0  0  0  0  0
    0.1904    0.8287   -4.8200 H   0  0  0  0  0  0  0  0  0  0  0  0
    3.2022    2.4574   -0.6469 H   0  0  0  0  0  0  0  0  0  0  0  0
    6.0340    3.6278   -3.8817 H   0  0  0  0  0  0  0  0  0  0  0  0
    6.6548    2.1965   -4.5108 H   0  0  0  0  0  0  0  0  0  0  0  0
    5.1730    2.8048   -5.1834 H   0  0  0  0  0  0  0  0  0  0  0  0
    3.6253   -0.4862   -0.8700 H   0  0  0  0  0  0  0  0  0  0  0  0
    3.0115    0.8883   -1.1261 H   0  0  0  0  0  0  0  0  0  0  0  0
    5.5431    0.0197   -0.4011 H   0  0  0  0  0  0  0  0  0  0  0  0
    7.0039   -1.0082   -3.6182 H   0  0  0  0  0  0  0  0  0  0  0  0
    6.4531    0.3837   -4.4347 H   0  0  0  0  0  0  0  0  0  0  0  0
    6.5893    4.5078    0.9945 H   0  0  0  0  0  0  0  0  0  0  0  0
    5.6559    3.4680    2.0954 H   0  0  0  0  0  0  0  0  0  0  0  0
    7.0979    2.8352    1.2730 H   0  0  0  0  0  0  0  0  0  0  0  0
    3.7071    4.3701   -0.8647 H   0  0  0  0  0  0  0  0  0  0  0  0
    3.5780    4.0709    0.8648 H   0  0  0  0  0  0  0  0  0  0  0  0
    4.7343    5.2193    0.1170 H   0  0  0  0  0  0  0  0  0  0  0  0
  1  2  1  0  0  0  0
  1  6  1  0  0  0  0
  1 34  1  0  0  0  0
  1 35  1  0  0  0  0
  2  3  1  0  0  0  0
  2 21  2  0  0  0  0
  3  4  2  0  0  0  0
  3 36  1  0  0  0  0
  4  5  1  0  0  0  0
  4  7  1  0  0  0  0
  5  6  1  0  0  0  0
  5 10  1  0  0  0  0
  5 15  1  1  0  0  0
  6 37  1  0  0  0  0
  6 38  1  0  0  0  0
  7  8  1  0  0  0  0
  7 39  1  0  0  0  0
  7 40  1  0  0  0  0
  8  9  1  0  0  0  0
  8 41  1  0  0  0  0
  8 42  1  0  0  0  0
  9 10  1  0  0  0  0
  9 11  1  0  0  0  0
  9 16  1  1  0  0  0
 10 14  1  0  0  0  0
 10 19  1  6  0  0  0
 11 12  1  0  0  0  0
 11 20  1  6  0  0  0
 11 22  1  0  0  0  0
 12 13  1  0  0  0  0
 12 18  1  1  0  0  0
 12 24  1  0  0  0  0
 13 14  1  0  0  0  0
 13 43  1  0  0  0  0
 13 44  1  0  0  0  0
 14 17  1  0  0  0  0
 14 45  1  6  0  0  0
 15 46  1  0  0  0  0
 15 47  1  0  0  0  0
 15 48  1  0  0  0  0
 17 49  1  0  0  0  0
 18 50  1  0  0  0  0
 18 51  1  0  0  0  0
 18 52  1  0  0  0  0
 22 23  1  0  0  0  0
 22 53  1  0  0  0  0
 22 54  1  0  0  0  0
 23 24  1  0  0  0  0
 23 30  1  0  0  0  0
 23 55  1  6  0  0  0
 24 25  1  1  0  0  0
 24 29  1  0  0  0  0
 25 26  1  0  0  0  0
 25 27  2  0  0  0  0
 26 28  1  0  0  0  0
 26 56  1  0  0  0  0
 26 57  1  0  0  0  0
 29 31  1  0  0  0  0
 31 30  1  0  0  0  0
 31 32  1  0  0  0  0
 31 33  1  0  0  0  0
 32 58  1  0  0  0  0
 32 59  1  0  0  0  0
 32 60  1  0  0  0  0
 33 61  1  0  0  0  0
 33 62  1  0  0  0  0
 33 63  1  0  0  0  0
M  END
>  <DRUGBANK_ID>
DB06786

>  <COMMON_NAME>
Halcinonide

>  <CAS_NUMBER>
3093-35-4

>  <UNII>
SI86V6QNEG

>  <SYNONYMS>
(4aS,4bR,5S,6aS,6bS,9aR,10aS,10bS)-6b-(chloroacetyl)-4b-fluoro-5-hydroxy-4a,6a,8,8-tetramethyl-3,4,4a,4b,5,6,6a,6b,9a,10,10a,10b,11,12-tetradecahydro-2H-naphtho[2',1':4,5]indeno[1,2-d][1,3]dioxol-2-one; Halcinonid; Halcinonida; Halcinonide; Halcinonidum

$$$$
