373
 OpenBabel10282417163D

 55 59  0  0  0  0  0  0  0  0999 V2000
    0.5710   -0.7972   -0.0112 C   0  0  0  0  0  0  0  0  0  0  0  0
    1.8910   -1.2583   -0.0002 C   0  0  0  0  0  0  0  0  0  0  0  0
    2.9503   -0.3469   -0.0023 C   0  0  0  0  0  0  0  0  0  0  0  0
    2.6949    1.0251   -0.0026 C   0  0  0  0  0  0  0  0  0  0  0  0
    1.3796    1.4925    0.0052 C   0  0  0  0  0  0  0  0  0  0  0  0
    0.3243    0.5804   -0.0021 C   0  0  0  0  0  0  0  0  0  0  0  0
   -0.9974    1.0396   -0.0135 N   0  0  0  0  0  0  0  0  0  0  0  0
   -2.0954    0.2151   -0.0777 C   0  0  0  0  0  0  0  0  0  0  0  0
   -1.8271   -1.2654   -0.1396 C   0  0  0  0  0  0  0  0  0  0  0  0
   -0.5641   -1.7200   -0.0498 C   0  0  0  0  0  0  0  0  0  0  0  0
   -2.8907   -2.2027   -0.1016 C   0  0  0  0  0  0  0  0  0  0  0  0
   -3.8581   -2.2614   -1.0888 N   0  0  0  0  0  0  0  0  0  0  0  0
   -4.8138   -3.2112   -0.7671 C   0  0  0  0  0  0  0  0  0  0  0  0
   -4.4464   -3.7081    0.4755 C   0  0  0  0  0  0  0  0  0  0  0  0
   -3.2120   -3.1431    0.8467 C   0  0  0  0  0  0  0  0  0  0  0  0
   -5.9855   -3.6478   -1.4129 C   0  0  0  0  0  0  0  0  0  0  0  0
   -6.7590   -4.6429   -0.7800 C   0  0  0  0  0  0  0  0  0  0  0  0
   -6.4064   -5.1514    0.4725 C   0  0  0  0  0  0  0  0  0  0  0  0
   -5.2936   -4.6029    1.1228 C   0  0  0  0  0  0  0  0  0  0  0  0
   -7.1497   -6.3098    1.1133 C   0  0  0  0  0  0  0  0  0  0  0  0
   -6.3681   -7.5636    1.2582 N   0  0  0  0  0  0  0  0  0  0  0  0
   -5.9617   -8.0941   -0.0485 C   0  0  0  0  0  0  0  0  0  0  0  0
   -5.1877   -9.3987    0.1205 C   0  0  0  0  0  0  0  0  0  0  0  0
   -3.9659   -9.2364    1.0421 C   0  0  0  0  0  0  0  0  0  0  0  0
   -4.3969   -8.6237    2.3768 C   0  0  0  0  0  0  0  0  0  0  0  0
   -5.1897   -7.3693    2.1102 C   0  0  0  0  0  0  0  0  0  0  0  0
   -3.2668  -10.5615    1.3256 C   0  0  0  0  0  0  0  0  0  0  0  0
   -2.8109  -11.1964    0.0980 N   0  0  0  0  0  0  0  0  0  0  0  0
   -3.2282    0.6785   -0.0797 O   0  0  0  0  0  0  0  0  0  0  0  0
    2.1087   -2.3236   -0.0029 H   0  0  0  0  0  0  0  0  0  0  0  0
    3.9766   -0.7073   -0.0105 H   0  0  0  0  0  0  0  0  0  0  0  0
    3.5228    1.7303   -0.0127 H   0  0  0  0  0  0  0  0  0  0  0  0
    1.1941    2.5624    0.0012 H   0  0  0  0  0  0  0  0  0  0  0  0
   -1.1956    2.0292    0.0310 H   0  0  0  0  0  0  0  0  0  0  0  0
   -0.3480   -2.7831   -0.0033 H   0  0  0  0  0  0  0  0  0  0  0  0
   -3.8949   -1.6745   -1.9103 H   0  0  0  0  0  0  0  0  0  0  0  0
   -2.6577   -3.3489    1.7526 H   0  0  0  0  0  0  0  0  0  0  0  0
   -6.2960   -3.2467   -2.3719 H   0  0  0  0  0  0  0  0  0  0  0  0
   -7.6556   -5.0151   -1.2742 H   0  0  0  0  0  0  0  0  0  0  0  0
   -5.0062   -4.9034    2.1221 H   0  0  0  0  0  0  0  0  0  0  0  0
   -7.5038   -5.9912    2.1026 H   0  0  0  0  0  0  0  0  0  0  0  0
   -8.0637   -6.5311    0.5458 H   0  0  0  0  0  0  0  0  0  0  0  0
   -5.3295   -7.3821   -0.5945 H   0  0  0  0  0  0  0  0  0  0  0  0
   -6.8427   -8.2904   -0.6716 H   0  0  0  0  0  0  0  0  0  0  0  0
   -4.8729   -9.7298   -0.8748 H   0  0  0  0  0  0  0  0  0  0  0  0
   -5.8524  -10.1694    0.5288 H   0  0  0  0  0  0  0  0  0  0  0  0
   -3.2550   -8.5503    0.5545 H   0  0  0  0  0  0  0  0  0  0  0  0
   -4.9829   -9.3227    2.9809 H   0  0  0  0  0  0  0  0  0  0  0  0
   -3.5077   -8.3458    2.9597 H   0  0  0  0  0  0  0  0  0  0  0  0
   -5.4759   -6.9115    3.0635 H   0  0  0  0  0  0  0  0  0  0  0  0
   -4.4596   -6.7344    1.6050 H   0  0  0  0  0  0  0  0  0  0  0  0
   -2.4063  -10.3904    1.9825 H   0  0  0  0  0  0  0  0  0  0  0  0
   -3.9550  -11.2314    1.8531 H   0  0  0  0  0  0  0  0  0  0  0  0
   -2.4234  -12.1099    0.3229 H   0  0  0  0  0  0  0  0  0  0  0  0
   -3.6130  -11.3780   -0.5039 H   0  0  0  0  0  0  0  0  0  0  0  0
  1  6  1  0  0  0  0
  1 10  1  0  0  0  0
  1  2  2  0  0  0  0
  2  3  1  0  0  0  0
  2 30  1  0  0  0  0
  3  4  2  0  0  0  0
  3 31  1  0  0  0  0
  4  5  1  0  0  0  0
  4 32  1  0  0  0  0
  5  6  2  0  0  0  0
  5 33  1  0  0  0  0
  6  7  1  0  0  0  0
  7  8  1  0  0  0  0
  7 34  1  0  0  0  0
  8 29  2  0  0  0  0
  8  9  1  0  0  0  0
  9 11  1  0  0  0  0
  9 10  2  0  0  0  0
 10 35  1  0  0  0  0
 11 12  1  0  0  0  0
 11 15  2  0  0  0  0
 12 13  1  0  0  0  0
 12 36  1  0  0  0  0
 13 16  1  0  0  0  0
 13 14  2  0  0  0  0
 14 19  1  0  0  0  0
 14 15  1  0  0  0  0
 15 37  1  0  0  0  0
 16 17  2  0  0  0  0
 16 38  1  0  0  0  0
 17 18  1  0  0  0  0
 17 39  1  0  0  0  0
 18 20  1  0  0  0  0
 18 19  2  0  0  0  0
 19 40  1  0  0  0  0
 20 21  1  0  0  0  0
 20 41  1  0  0  0  0
 20 42  1  0  0  0  0
 21 22  1  0  0  0  0
 21 26  1  0  0  0  0
 22 23  1  0  0  0  0
 22 43  1  0  0  0  0
 22 44  1  0  0  0  0
 23 24  1  0  0  0  0
 23 45  1  0  0  0  0
 23 46  1  0  0  0  0
 24 27  1  0  0  0  0
 24 25  1  0  0  0  0
 24 47  1  0  0  0  0
 25 26  1  0  0  0  0
 25 48  1  0  0  0  0
 25 49  1  0  0  0  0
 26 50  1  0  0  0  0
 26 51  1  0  0  0  0
 27 28  1  0  0  0  0
 27 52  1  0  0  0  0
 27 53  1  0  0  0  0
 28 54  1  0  0  0  0
 28 55  1  0  0  0  0
M  END
>  <DRUGBANK_ID>
DB07025

>  <COMMON_NAME>
3-(5-{[4-(AMINOMETHYL)PIPERIDIN-1-YL]METHYL}-1H-INDOL-2-YL)QUINOLIN-2(1H)-ONE

$$$$
