
 OpenBabel10282417123D

 32 31  0  0  1  0  0  0  0  0999 V2000
    1.6330    0.5906   -0.6123 N   0  0  0  0  0  0  0  0  0  0  0  0
    0.8566    1.7324   -1.1326 C   0  0  1  0  0  0  0  0  0  0  0  0
    1.0005    1.4406   -2.6118 C   0  0  0  0  0  0  0  0  0  0  0  0
    0.3459    0.0526   -3.1056 C   0  0  0  0  0  0  0  0  0  0  0  0
   -1.4899   -0.5796   -3.0434 S   0  0  0  0  0  0  0  0  0  0  0  0
   -2.2190   -0.5268   -1.2645 C   0  0  0  0  0  0  0  0  0  0  0  0
   -1.7724   -1.6696   -0.3509 C   0  0  0  0  0  0  0  0  0  0  0  0
   -0.2942   -1.6744   -0.0300 C   0  0  0  0  0  0  0  0  0  0  0  0
    0.1530   -0.5747    0.9249 C   0  0  0  0  0  0  0  0  0  0  0  0
   -0.2625   -0.2793    2.3173 C   0  0  0  0  0  0  0  0  0  0  0  0
    0.8013   -0.0144    3.1252 O   0  0  0  0  0  0  0  0  0  0  0  0
   -1.4137   -0.0696    2.6467 O   0  0  0  0  0  0  0  0  0  0  0  0
   -0.6928    2.0289   -1.0681 C   0  0  0  0  0  0  0  0  0  0  0  0
   -1.2860    2.4639    0.0671 O   0  0  0  0  0  0  0  0  0  0  0  0
   -1.3981    2.0119   -2.0373 O   0  0  0  0  0  0  0  0  0  0  0  0
    1.4931   -0.3071   -1.0793 H   0  0  0  0  0  0  0  0  0  0  0  0
    2.6218    0.6794   -0.3975 H   0  0  0  0  0  0  0  0  0  0  0  0
    1.3117    2.5780   -0.6134 H   0  0  0  0  0  0  0  0  0  0  0  0
    0.6019    2.2875   -3.1751 H   0  0  0  0  0  0  0  0  0  0  0  0
    2.0770    1.4235   -2.8392 H   0  0  0  0  0  0  0  0  0  0  0  0
    0.5866    0.0336   -4.1773 H   0  0  0  0  0  0  0  0  0  0  0  0
    0.9236   -0.8082   -2.7528 H   0  0  0  0  0  0  0  0  0  0  0  0
   -2.1373    0.3845   -0.6835 H   0  0  0  0  0  0  0  0  0  0  0  0
   -3.3152   -0.5561   -1.4023 H   0  0  0  0  0  0  0  0  0  0  0  0
   -2.3038   -1.6136    0.6031 H   0  0  0  0  0  0  0  0  0  0  0  0
   -2.0365   -2.6069   -0.8423 H   0  0  0  0  0  0  0  0  0  0  0  0
    0.0796   -2.6272    0.3377 H   0  0  0  0  0  0  0  0  0  0  0  0
    0.1915   -1.6017   -1.0071 H   0  0  0  0  0  0  0  0  0  0  0  0
    1.2442   -0.6495    0.9844 H   0  0  0  0  0  0  0  0  0  0  0  0
   -0.1677    0.3661    0.4974 H   0  0  0  0  0  0  0  0  0  0  0  0
    1.6808   -0.0745    2.6975 H   0  0  0  0  0  0  0  0  0  0  0  0
   -0.8694    3.1352    0.6185 H   0  0  0  0  0  0  0  0  0  0  0  0
  1 16  1  0  0  0  0
  1 17  1  0  0  0  0
  2  1  1  0  0  0  0
  2  3  1  0  0  0  0
  2 13  1  0  0  0  0
  2 18  1  1  0  0  0
  3  4  1  0  0  0  0
  3 19  1  0  0  0  0
  3 20  1  0  0  0  0
  4  5  1  0  0  0  0
  4 21  1  0  0  0  0
  4 22  1  0  0  0  0
  5  6  1  0  0  0  0
  6  7  1  0  0  0  0
  6 23  1  0  0  0  0
  6 24  1  0  0  0  0
  7  8  1  0  0  0  0
  7 25  1  0  0  0  0
  7 26  1  0  0  0  0
  8  9  1  0  0  0  0
  8 27  1  0  0  0  0
  8 28  1  0  0  0  0
  9 10  1  0  0  0  0
  9 29  1  0  0  0  0
  9 30  1  0  0  0  0
 10 11  1  0  0  0  0
 10 12  2  0  0  0  0
 11 31  1  0  0  0  0
 13 14  1  0  0  0  0
 13 15  2  0  0  0  0
 14 32  1  0  0  0  0
M  END
>  <DRUGBANK_ID>
DB02337

>  <SECONDARY_ACCESSION_NUMBERS>
EXPT00843

>  <COMMON_NAME>
S-(D-Carboxybutyl)-L-Homocysteine

$$$$
