
 OpenBabel10282417113D

 60 63  0  0  1  0  0  0  0  0999 V2000
   -7.1350   -0.8780   -7.7067 C   0  0  0  0  0  0  0  0  0  0  0  0
   -8.1808   -1.7660   -8.1246 C   0  0  0  0  0  0  0  0  0  0  0  0
   -8.9949   -2.4251   -7.2308 C   0  0  0  0  0  0  0  0  0  0  0  0
   -8.7883   -2.1971   -5.8841 C   0  0  0  0  0  0  0  0  0  0  0  0
   -7.8087   -1.2961   -5.4168 C   0  0  0  0  0  0  0  0  0  0  0  0
   -6.9792   -0.6026   -6.2976 C   0  0  0  0  0  0  0  0  0  0  0  0
   -5.9127    0.3698   -5.6434 C   0  0  0  0  0  0  0  0  0  0  0  0
   -7.4047   -1.2442   -4.0102 C   0  0  0  0  0  0  0  0  0  0  0  0
   -6.8525    0.0397   -3.4291 C   0  0  0  0  0  0  0  0  0  0  0  0
   -6.2858    1.1379   -4.2207 C   0  0  2  0  0  0  0  0  0  0  0  0
   -5.0583    2.0273   -3.0728 C   0  0  0  0  0  0  0  0  0  0  0  0
   -6.4904    0.0477   -2.1474 C   0  0  0  0  0  0  0  0  0  0  0  0
   -5.6145    1.0730   -1.4005 C   0  0  1  0  0  0  0  0  0  0  0  0
   -5.1323    2.6695   -1.1916 C   0  0  2  0  0  0  0  0  0  0  0  0
   -5.2877    3.1020    0.9478 C   0  0  1  0  0  0  0  0  0  0  0  0
   -6.7458    1.2715   -0.5085 C   0  0  0  0  0  0  0  0  0  0  0  0
   -6.2059    1.1857    0.8254 C   0  0  0  0  0  0  0  0  0  0  0  0
   -6.5560    2.4081    1.2031 C   0  0  0  0  0  0  0  0  0  0  0  0
   -6.3129   -0.2984   -8.7085 N   0  0  0  0  0  0  0  0  0  0  0  0
   -4.8239    2.9261    2.7802 N   0  0  0  0  0  0  0  0  0  0  0  0
   -5.2573    3.6395   -1.6730 H   0  0  0  0  0  0  0  0  0  0  0  0
   -7.0329    1.8581   -4.5979 H   0  0  0  0  0  0  0  0  0  0  0  0
   -4.3875    0.3691   -1.3797 O   0  0  0  0  0  0  0  0  0  0  0  0
   -6.4920   -0.8443  -10.0585 C   0  0  0  0  0  0  0  0  0  0  0  0
   -4.9103   -0.0953   -8.3431 C   0  0  0  0  0  0  0  0  0  0  0  0
   -4.7495    4.0861    3.8965 C   0  0  0  0  0  0  0  0  0  0  0  0
   -4.4413    1.7822    3.7789 C   0  0  0  0  0  0  0  0  0  0  0  0
   -7.7169    3.1722    1.0126 O   0  0  0  0  0  0  0  0  0  0  0  0
   -9.5246   -2.9731   -5.0408 O   0  0  0  0  0  0  0  0  0  0  0  0
   -7.3231   -2.3142   -3.4097 O   0  0  0  0  0  0  0  0  0  0  0  0
   -6.8943   -0.9767   -1.2987 O   0  0  0  0  0  0  0  0  0  0  0  0
   -7.8497    1.6970   -0.8646 O   0  0  0  0  0  0  0  0  0  0  0  0
   -4.5967    0.8928    0.9873 C   0  0  0  0  0  0  0  0  0  0  0  0
   -3.5983    1.4730    0.5557 O   0  0  0  0  0  0  0  0  0  0  0  0
   -4.5064   -0.0779    1.8942 N   0  0  0  0  0  0  0  0  0  0  0  0
   -8.3832   -2.0122   -9.1664 H   0  0  0  0  0  0  0  0  0  0  0  0
   -9.7351   -3.1344   -7.5967 H   0  0  0  0  0  0  0  0  0  0  0  0
   -5.8259    1.0969   -6.4455 H   0  0  0  0  0  0  0  0  0  0  0  0
   -4.9637   -0.1613   -5.5042 H   0  0  0  0  0  0  0  0  0  0  0  0
   -4.7048    2.7002   -3.8935 H   0  0  0  0  0  0  0  0  0  0  0  0
   -4.1519    1.3682   -3.1939 H   0  0  0  0  0  0  0  0  0  0  0  0
   -5.8193    3.9736    1.3318 H   0  0  0  0  0  0  0  0  0  0  0  0
   -4.5455   -0.5420   -1.1034 H   0  0  0  0  0  0  0  0  0  0  0  0
   -5.9246   -0.2882  -10.8070 H   0  0  0  0  0  0  0  0  0  0  0  0
   -6.1595   -1.8900  -10.0611 H   0  0  0  0  0  0  0  0  0  0  0  0
   -7.5337   -0.7822  -10.3946 H   0  0  0  0  0  0  0  0  0  0  0  0
   -4.7074    0.9730   -8.2002 H   0  0  0  0  0  0  0  0  0  0  0  0
   -4.6402   -0.6507   -7.4453 H   0  0  0  0  0  0  0  0  0  0  0  0
   -4.2164   -0.4770   -9.0933 H   0  0  0  0  0  0  0  0  0  0  0  0
   -4.5495    3.7662    4.9940 H   0  0  0  0  0  0  0  0  0  0  0  0
   -3.7986    4.5763    3.7353 H   0  0  0  0  0  0  0  0  0  0  0  0
   -5.5880    4.7740    4.1196 H   0  0  0  0  0  0  0  0  0  0  0  0
   -4.3038    1.9993    4.8934 H   0  0  0  0  0  0  0  0  0  0  0  0
   -5.1025    0.9175    3.9814 H   0  0  0  0  0  0  0  0  0  0  0  0
   -3.4025    1.5688    3.5684 H   0  0  0  0  0  0  0  0  0  0  0  0
   -7.8588    3.3153    0.0490 H   0  0  0  0  0  0  0  0  0  0  0  0
   -9.2408   -3.8768   -5.2732 H   0  0  0  0  0  0  0  0  0  0  0  0
   -7.8195   -1.1657   -1.5588 H   0  0  0  0  0  0  0  0  0  0  0  0
   -5.2854    0.0465    2.5255 H   0  0  0  0  0  0  0  0  0  0  0  0
   -3.5731   -0.1846    2.2620 H   0  0  0  0  0  0  0  0  0  0  0  0
  1  2  2  0  0  0  0
  1  6  1  0  0  0  0
  1 19  1  0  0  0  0
  2  3  1  0  0  0  0
  2 36  1  0  0  0  0
  3  4  2  0  0  0  0
  3 37  1  0  0  0  0
  4  5  1  0  0  0  0
  4 29  1  0  0  0  0
  5  8  1  0  0  0  0
  6  5  2  0  0  0  0
  7  6  1  0  0  0  0
  7 10  1  0  0  0  0
  7 38  1  0  0  0  0
  7 39  1  0  0  0  0
  8  9  1  0  0  0  0
  8 30  2  0  0  0  0
  9 12  2  0  0  0  0
 10  9  1  0  0  0  0
 10 22  1  1  0  0  0
 11 10  1  0  0  0  0
 11 14  1  0  0  0  0
 11 40  1  0  0  0  0
 11 41  1  0  0  0  0
 12 13  1  0  0  0  0
 12 31  1  0  0  0  0
 13 16  1  0  0  0  0
 13 23  1  1  0  0  0
 14 13  1  0  0  0  0
 14 21  1  1  0  0  0
 15 14  1  0  0  0  0
 15 18  1  0  0  0  0
 15 42  1  6  0  0  0
 15 20  1  0  0  0  0
 16 17  1  0  0  0  0
 16 32  2  0  0  0  0
 17 18  2  0  0  0  0
 17 33  1  0  0  0  0
 18 28  1  0  0  0  0
 19 24  1  0  0  0  0
 19 25  1  0  0  0  0
 20 26  1  0  0  0  0
 20 27  1  0  0  0  0
 23 43  1  0  0  0  0
 24 44  1  0  0  0  0
 24 45  1  0  0  0  0
 24 46  1  0  0  0  0
 25 47  1  0  0  0  0
 25 48  1  0  0  0  0
 25 49  1  0  0  0  0
 26 50  1  0  0  0  0
 26 51  1  0  0  0  0
 26 52  1  0  0  0  0
 27 53  1  0  0  0  0
 27 54  1  0  0  0  0
 27 55  1  0  0  0  0
 28 56  1  0  0  0  0
 29 57  1  0  0  0  0
 31 58  1  0  0  0  0
 33 34  2  0  0  0  0
 33 35  1  0  0  0  0
 35 59  1  0  0  0  0
 35 60  1  0  0  0  0
M  END
>  <DRUGBANK_ID>
DB01017

>  <SECONDARY_ACCESSION_NUMBERS>
APRD00547

>  <COMMON_NAME>
Minocycline

>  <CAS_NUMBER>
10118-90-8

>  <UNII>
FYY3R43WGO

>  <SYNONYMS>
(4S,4aS,5aR,12aS)-4,7-bis(dimethylamino)-3,10,12,12a-tetrahydroxy-1,11-dioxo-1,4,4a,5,5a,6,11,12a-octahydrotetracene-2-carboxamide; 7-Dimethylamino-6-demethyl-6-deoxytetracycline; Minociclina; Minociclinum; Minocyclin; Minocycline; Minocyclinum; Minomycin

$$$$
