
 OpenBabel10282417143D

 21 20  0  0  1  0  0  0  0  0999 V2000
    0.9885    0.1410    0.0313 C   0  0  0  0  0  0  0  0  0  0  0  0
   -0.3904   -1.0213    1.8838 C   0  0  0  0  0  0  0  0  0  0  0  0
   -1.7041   -1.7691    1.6567 C   0  0  0  0  0  0  0  0  0  0  0  0
    0.5385   -1.1257    0.6858 C   0  0  0  0  0  0  0  0  0  0  0  0
   -1.5311   -3.2621    1.3368 C   0  0  1  0  0  0  0  0  0  0  0  0
   -0.8680   -4.0386    2.4917 C   0  0  0  0  0  0  0  0  0  0  0  0
   -2.8691   -3.8325    1.0358 N   0  0  0  0  0  0  0  0  0  0  0  0
    0.9311   -2.2049    0.2405 O   0  0  0  0  0  0  0  0  0  0  0  0
   -1.3718   -4.9684    3.1131 O   0  0  0  0  0  0  0  0  0  0  0  0
    0.3687   -3.6126    2.8073 O   0  0  0  0  0  0  0  0  0  0  0  0
   -0.9497   -3.4218    0.4280 H   0  0  0  0  0  0  0  0  0  0  0  0
    0.6252    1.0129    0.5759 H   0  0  0  0  0  0  0  0  0  0  0  0
    0.6020    0.1640   -0.9903 H   0  0  0  0  0  0  0  0  0  0  0  0
    2.0809    0.1509    0.0275 H   0  0  0  0  0  0  0  0  0  0  0  0
    0.1408   -1.3779    2.7693 H   0  0  0  0  0  0  0  0  0  0  0  0
   -0.6063    0.0294    2.1022 H   0  0  0  0  0  0  0  0  0  0  0  0
   -2.3322   -1.6508    2.5509 H   0  0  0  0  0  0  0  0  0  0  0  0
   -2.2416   -1.2758    0.8342 H   0  0  0  0  0  0  0  0  0  0  0  0
   -2.7292   -4.8217    0.8159 H   0  0  0  0  0  0  0  0  0  0  0  0
   -3.4199   -3.8380    1.8947 H   0  0  0  0  0  0  0  0  0  0  0  0
    0.6721   -4.1420    3.5710 H   0  0  0  0  0  0  0  0  0  0  0  0
  1 12  1  0  0  0  0
  1 13  1  0  0  0  0
  1 14  1  0  0  0  0
  2 15  1  0  0  0  0
  2 16  1  0  0  0  0
  3  2  1  0  0  0  0
  3 17  1  0  0  0  0
  3 18  1  0  0  0  0
  4  1  1  0  0  0  0
  4  2  1  0  0  0  0
  5  3  1  0  0  0  0
  5  7  1  0  0  0  0
  5 11  1  6  0  0  0
  6  5  1  0  0  0  0
  7 19  1  0  0  0  0
  7 20  1  0  0  0  0
  8  4  2  0  0  0  0
  9  6  2  0  0  0  0
 10  6  1  0  0  0  0
 10 21  1  0  0  0  0
M  END
>  <DRUGBANK_ID>
DB04296

>  <SECONDARY_ACCESSION_NUMBERS>
EXPT02438

>  <COMMON_NAME>
5-Oxo-L-Norleucine

$$$$
