
 OpenBabel10282417213D

 58 63  0  0  0  0  0  0  0  0999 V2000
   -1.2422    1.7950   -0.1078 O   0  0  0  0  0  0  0  0  0  0  0  0
   -2.2081   -4.0455   -1.3324 O   0  0  0  0  0  0  0  0  0  0  0  0
    2.9590   -3.8552   -0.2128 O   0  0  0  0  0  0  0  0  0  0  0  0
   -0.9132   -1.0842    0.3337 N   0  0  0  0  0  0  0  0  0  0  0  0
   -3.0946   -1.6625   -2.4416 N   0  0  0  0  0  0  0  0  0  0  0  0
   -2.2807   -0.5188   -0.0199 C   0  0  2  0  0  0  0  0  0  0  0  0
   -2.8192   -0.4830   -1.5615 C   0  0  0  0  0  0  0  0  0  0  0  0
    0.1244   -0.2235    0.1256 C   0  0  0  0  0  0  0  0  0  0  0  0
   -2.2912    0.9771    0.4562 C   0  0  0  0  0  0  0  0  0  0  0  0
   -0.3184   -2.3709    0.6396 C   0  0  0  0  0  0  0  0  0  0  0  0
    1.3036   -0.9966    0.0608 C   0  0  0  0  0  0  0  0  0  0  0  0
    0.9514   -2.4722    0.0565 C   0  0  0  0  0  0  0  0  0  0  0  0
   -0.0079    1.1707   -0.0262 C   0  0  0  0  0  0  0  0  0  0  0  0
   -4.0003   -2.6938   -1.8389 C   0  0  0  0  0  0  0  0  0  0  0  0
   -1.8306   -2.2494   -2.9543 C   0  0  0  0  0  0  0  0  0  0  0  0
   -1.0132   -3.6205    0.8613 C   0  0  0  0  0  0  0  0  0  0  0  0
   -3.3969   -3.4955   -0.7413 C   0  0  0  0  0  0  0  0  0  0  0  0
   -1.2889   -3.1036   -1.8898 C   0  0  0  0  0  0  0  0  0  0  0  0
    2.4660   -0.1996    0.0072 C   0  0  0  0  0  0  0  0  0  0  0  0
    1.1575    1.9092   -0.0723 C   0  0  0  0  0  0  0  0  0  0  0  0
    1.7345   -3.9454   -0.3647 C   0  0  0  0  0  0  0  0  0  0  0  0
    2.3778    1.2267   -0.0084 C   0  0  0  0  0  0  0  0  0  0  0  0
    1.1830   -5.6776   -0.4599 C   0  0  0  0  0  0  0  0  0  0  0  0
    0.5036   -6.8545   -1.5553 C   0  0  0  0  0  0  0  0  0  0  0  0
    1.2374   -5.9923    0.9031 C   0  0  0  0  0  0  0  0  0  0  0  0
   -0.6406   -6.8063   -0.8950 C   0  0  0  0  0  0  0  0  0  0  0  0
   -0.0739   -8.2548   -2.5297 C   0  0  0  0  0  0  0  0  0  0  0  0
    0.3518   -6.9347    1.3457 C   0  0  0  0  0  0  0  0  0  0  0  0
   -0.5361   -7.4176    0.3997 C   0  0  0  0  0  0  0  0  0  0  0  0
   -1.6858   -6.7198   -1.8280 C   0  0  0  0  0  0  0  0  0  0  0  0
   -1.4014   -8.4245   -3.0940 C   0  0  0  0  0  0  0  0  0  0  0  0
   -2.2023   -7.9518   -2.1190 C   0  0  0  0  0  0  0  0  0  0  0  0
   -3.0317   -1.0085    0.5960 H   0  0  0  0  0  0  0  0  0  0  0  0
   -3.7981    0.0286   -1.5491 H   0  0  0  0  0  0  0  0  0  0  0  0
   -2.1950    0.2131   -2.1444 H   0  0  0  0  0  0  0  0  0  0  0  0
   -2.1981    1.0110    1.5462 H   0  0  0  0  0  0  0  0  0  0  0  0
   -3.2566    1.4616    0.2220 H   0  0  0  0  0  0  0  0  0  0  0  0
   -4.2084   -3.4543   -2.5902 H   0  0  0  0  0  0  0  0  0  0  0  0
   -4.9269   -2.2566   -1.4652 H   0  0  0  0  0  0  0  0  0  0  0  0
   -1.9126   -2.9248   -3.7994 H   0  0  0  0  0  0  0  0  0  0  0  0
   -1.0757   -1.4695   -3.1691 H   0  0  0  0  0  0  0  0  0  0  0  0
   -0.7087   -4.2847    0.0534 H   0  0  0  0  0  0  0  0  0  0  0  0
   -1.1391   -4.2496    1.7183 H   0  0  0  0  0  0  0  0  0  0  0  0
   -1.9690   -3.2382    0.7447 H   0  0  0  0  0  0  0  0  0  0  0  0
   -3.3741   -2.8073    0.1138 H   0  0  0  0  0  0  0  0  0  0  0  0
   -3.9352   -4.3306   -0.2694 H   0  0  0  0  0  0  0  0  0  0  0  0
   -0.2759   -3.4917   -2.0358 H   0  0  0  0  0  0  0  0  0  0  0  0
   -1.1553   -2.3108   -1.2250 H   0  0  0  0  0  0  0  0  0  0  0  0
    3.4324   -0.6815    0.0698 H   0  0  0  0  0  0  0  0  0  0  0  0
    1.1246    2.9980   -0.1018 H   0  0  0  0  0  0  0  0  0  0  0  0
    3.2944    1.8108    0.0373 H   0  0  0  0  0  0  0  0  0  0  0  0
    1.8869   -5.4567    1.5853 H   0  0  0  0  0  0  0  0  0  0  0  0
   -0.2053   -9.3187   -2.0017 H   0  0  0  0  0  0  0  0  0  0  0  0
    0.3053   -7.2393    2.3849 H   0  0  0  0  0  0  0  0  0  0  0  0
   -0.8576   -8.4512    0.5455 H   0  0  0  0  0  0  0  0  0  0  0  0
   -1.3453   -6.1505   -2.7546 H   0  0  0  0  0  0  0  0  0  0  0  0
   -1.6787   -8.1643   -4.1268 H   0  0  0  0  0  0  0  0  0  0  0  0
   -2.1705   -8.6126   -1.2172 H   0  0  0  0  0  0  0  0  0  0  0  0
  1  9  1  0  0  0  0
  1 13  1  0  0  0  0
  2 17  1  0  0  0  0
  2 18  1  0  0  0  0
  3 21  2  0  0  0  0
  4  6  1  0  0  0  0
  4  8  1  0  0  0  0
  4 10  1  0  0  0  0
  5  7  1  0  0  0  0
  5 14  1  0  0  0  0
  5 15  1  0  0  0  0
  6  9  1  0  0  0  0
  6 33  1  1  0  0  0
  6  7  1  0  0  0  0
  7 34  1  0  0  0  0
  7 35  1  0  0  0  0
  8 11  2  0  0  0  0
  8 13  1  0  0  0  0
  9 36  1  0  0  0  0
  9 37  1  0  0  0  0
 10 12  2  0  0  0  0
 10 16  1  0  0  0  0
 11 12  1  0  0  0  0
 11 19  1  0  0  0  0
 12 21  1  0  0  0  0
 13 20  2  0  0  0  0
 14 17  1  0  0  0  0
 14 38  1  0  0  0  0
 14 39  1  0  0  0  0
 15 18  1  0  0  0  0
 15 40  1  0  0  0  0
 15 41  1  0  0  0  0
 16 42  1  0  0  0  0
 16 43  1  0  0  0  0
 16 44  1  0  0  0  0
 17 45  1  0  0  0  0
 17 46  1  0  0  0  0
 18 47  1  0  0  0  0
 18 48  1  0  0  0  0
 19 22  2  0  0  0  0
 19 49  1  0  0  0  0
 20 22  1  0  0  0  0
 20 50  1  0  0  0  0
 21 23  1  0  0  0  0
 22 51  1  0  0  0  0
 23 24  1  0  0  0  0
 23 25  2  0  0  0  0
 24 26  1  0  0  0  0
 24 27  2  0  0  0  0
 25 28  1  0  0  0  0
 25 52  1  0  0  0  0
 26 29  1  0  0  0  0
 26 30  2  0  0  0  0
 27 31  1  0  0  0  0
 27 53  1  0  0  0  0
 28 29  2  0  0  0  0
 28 54  1  0  0  0  0
 29 55  1  0  0  0  0
 30 32  1  0  0  0  0
 30 56  1  0  0  0  0
 31 32  2  0  0  0  0
 31 57  1  0  0  0  0
 32 58  1  0  0  0  0
M  END
>  <DRUGBANK_ID>
DB13950

>  <COMMON_NAME>
WIN 55212-2

>  <CAS_NUMBER>
131543-22-1

>  <UNII>
5H31GI9502

>  <SYNONYMS>
(2,3-Dihydro-5-methyl-3-((4-morpholinyl)methyl)pyrrolo-(1,2,3-de)-1,4-benzoxazin-6-yl)(1-naphthalenyl)methanone monomethanesulfonate

$$$$
