2E1
 OpenBabel10282417163D

 45 47  0  0  0  0  0  0  0  0999 V2000
    0.8168   -1.3257    0.3660 C   0  0  0  0  0  0  0  0  0  0  0  0
   -0.6975   -1.2520    0.0757 C   0  0  0  0  0  0  0  0  0  0  0  0
   -0.4053    1.1963    0.1482 C   0  0  0  0  0  0  0  0  0  0  0  0
    1.0651    1.0848    0.4929 C   0  0  0  0  0  0  0  0  0  0  0  0
   -1.2107    0.0398    0.5901 N   0  0  0  0  0  0  0  0  0  0  0  0
   -2.5118    0.1253    1.0379 C   0  0  0  0  0  0  0  0  0  0  0  0
   -3.7506    0.7521    0.5718 C   0  0  0  0  0  0  0  0  0  0  0  0
   -4.2173    1.4969   -0.6914 C   0  0  0  0  0  0  0  0  0  0  0  0
    1.6224   -0.1615   -0.0933 N   0  0  0  0  0  0  0  0  0  0  0  0
   -5.2901    2.0818   -0.7355 O   0  0  0  0  0  0  0  0  0  0  0  0
   -3.4888    1.5511   -1.8968 N   0  0  0  0  0  0  0  0  0  0  0  0
   -2.1493    1.1604   -2.0344 C   0  0  0  0  0  0  0  0  0  0  0  0
   -1.6546    0.0766   -2.9517 C   0  0  0  0  0  0  0  0  0  0  0  0
   -4.6817    0.5881    1.5526 N   0  0  0  0  0  0  0  0  0  0  0  0
   -4.0899   -0.1206    2.5266 N   0  0  0  0  0  0  0  0  0  0  0  0
   -2.7987   -0.4544    2.2635 C   0  0  0  0  0  0  0  0  0  0  0  0
   -1.8852   -1.1548    3.1742 C   0  0  0  0  0  0  0  0  0  0  0  0
   -2.0784   -2.5096    3.4724 C   0  0  0  0  0  0  0  0  0  0  0  0
   -1.0886   -3.2152    4.1665 C   0  0  0  0  0  0  0  0  0  0  0  0
   -1.3289   -4.8867    4.5179 Cl  0  0  0  0  0  0  0  0  0  0  0  0
    0.0990   -2.5839    4.5497 C   0  0  0  0  0  0  0  0  0  0  0  0
    1.0911   -3.2368    5.2266 O   0  0  0  0  0  0  0  0  0  0  0  0
    0.3087   -1.2467    4.2552 C   0  0  0  0  0  0  0  0  0  0  0  0
   -0.6892   -0.5370    3.5984 C   0  0  0  0  0  0  0  0  0  0  0  0
   -0.4171    0.7843    3.3578 O   0  0  0  0  0  0  0  0  0  0  0  0
    0.9462   -1.4085    1.4443 H   0  0  0  0  0  0  0  0  0  0  0  0
    1.2221   -2.2324   -0.0910 H   0  0  0  0  0  0  0  0  0  0  0  0
   -1.2345   -2.1184    0.4828 H   0  0  0  0  0  0  0  0  0  0  0  0
   -0.8518   -1.3342   -1.0016 H   0  0  0  0  0  0  0  0  0  0  0  0
   -0.2769    1.1503   -0.9280 H   0  0  0  0  0  0  0  0  0  0  0  0
   -0.8741    2.1551    0.3876 H   0  0  0  0  0  0  0  0  0  0  0  0
    1.2270    1.1468    1.5659 H   0  0  0  0  0  0  0  0  0  0  0  0
    1.5638    1.9453    0.0261 H   0  0  0  0  0  0  0  0  0  0  0  0
    1.5372   -0.1029   -1.1105 H   0  0  0  0  0  0  0  0  0  0  0  0
   -3.8313    2.2509   -2.5412 H   0  0  0  0  0  0  0  0  0  0  0  0
   -1.5185    2.0562   -2.0154 H   0  0  0  0  0  0  0  0  0  0  0  0
   -2.0887    0.6140   -1.1450 H   0  0  0  0  0  0  0  0  0  0  0  0
   -1.6281    0.3920   -3.9841 H   0  0  0  0  0  0  0  0  0  0  0  0
   -0.6206   -0.1965   -2.6748 H   0  0  0  0  0  0  0  0  0  0  0  0
   -2.2565   -0.8266   -2.8077 H   0  0  0  0  0  0  0  0  0  0  0  0
   -4.6213   -0.3141    3.3709 H   0  0  0  0  0  0  0  0  0  0  0  0
   -2.9671   -3.0306    3.1256 H   0  0  0  0  0  0  0  0  0  0  0  0
    0.7723   -4.1378    5.4169 H   0  0  0  0  0  0  0  0  0  0  0  0
    1.2468   -0.7601    4.5047 H   0  0  0  0  0  0  0  0  0  0  0  0
   -1.0484    1.0869    2.6809 H   0  0  0  0  0  0  0  0  0  0  0  0
  1  2  1  0  0  0  0
  1  9  1  0  0  0  0
  1 26  1  0  0  0  0
  1 27  1  0  0  0  0
  2  5  1  0  0  0  0
  2 28  1  0  0  0  0
  2 29  1  0  0  0  0
  3  4  1  0  0  0  0
  3  5  1  0  0  0  0
  3 30  1  0  0  0  0
  3 31  1  0  0  0  0
  4  9  1  0  0  0  0
  4 32  1  0  0  0  0
  4 33  1  0  0  0  0
  5  6  1  0  0  0  0
  6  7  1  0  0  0  0
  6 16  2  0  0  0  0
  7  8  1  0  0  0  0
  7 14  2  0  0  0  0
  8 10  2  0  0  0  0
  8 11  1  0  0  0  0
  9 34  1  0  0  0  0
 11 12  1  0  0  0  0
 11 35  1  0  0  0  0
 12 13  1  0  0  0  0
 12 36  1  0  0  0  0
 12 37  1  0  0  0  0
 13 38  1  0  0  0  0
 13 39  1  0  0  0  0
 13 40  1  0  0  0  0
 14 15  1  0  0  0  0
 15 16  1  0  0  0  0
 15 41  1  0  0  0  0
 16 17  1  0  0  0  0
 17 18  2  0  0  0  0
 17 24  1  0  0  0  0
 18 19  1  0  0  0  0
 18 42  1  0  0  0  0
 19 20  1  0  0  0  0
 19 21  2  0  0  0  0
 21 22  1  0  0  0  0
 21 23  1  0  0  0  0
 22 43  1  0  0  0  0
 23 24  2  0  0  0  0
 23 44  1  0  0  0  0
 24 25  1  0  0  0  0
 25 45  1  0  0  0  0
M  END
>  <DRUGBANK_ID>
DB06958

>  <COMMON_NAME>
5-(5-CHLORO-2,4-DIHYDROXYPHENYL)-N-ETHYL-4-PIPERAZIN-1-YL-1H-PYRAZOLE-3-CARBOXAMIDE

$$$$
