
 OpenBabel10282417213D

 44 48  0  0  1  0  0  0  0  0999 V2000
    0.5987    0.9180   -0.0322 C   0  0  0  0  0  0  0  0  0  0  0  0
    0.1320    0.6724   -1.4812 C   0  0  0  0  0  0  0  0  0  0  0  0
    0.6486   -6.5216   -6.0146 C   0  0  0  0  0  0  0  0  0  0  0  0
    0.6601   -5.4579   -6.9183 C   0  0  0  0  0  0  0  0  0  0  0  0
    0.7937   -1.5300    0.0989 C   0  0  0  0  0  0  0  0  0  0  0  0
    0.6477   -6.2931   -4.6510 C   0  0  0  0  0  0  0  0  0  0  0  0
    0.6744   -4.1241   -6.4979 C   0  0  0  0  0  0  0  0  0  0  0  0
    0.5934   -5.0907   -1.5725 C   0  0  0  0  0  0  0  0  0  0  0  0
    1.7561   -0.8920   -1.4192 C   0  0  0  0  0  0  0  0  0  0  0  0
    1.8854   -2.3518    0.4327 C   0  0  0  0  0  0  0  0  0  0  0  0
    1.5850   -4.4125   -0.6735 C   0  0  0  0  0  0  0  0  0  0  0  0
    0.3629   -0.3688   -3.7399 C   0  0  0  0  0  0  0  0  0  0  0  0
    0.6396   -4.9741   -4.2119 C   0  0  0  0  0  0  0  0  0  0  0  0
    0.5842   -4.4592   -2.9285 C   0  0  0  0  0  0  0  0  0  0  0  0
    0.6643   -3.8975   -5.1210 C   0  0  0  0  0  0  0  0  0  0  0  0
    0.7540   -1.3828   -4.7838 C   0  0  0  0  0  0  0  0  0  0  0  0
    0.4826   -3.1104   -3.0968 C   0  0  0  0  0  0  0  0  0  0  0  0
    0.3086   -2.2550   -1.9514 C   0  0  2  0  0  0  0  0  0  0  0  0
    0.5800   -0.6594   -2.2367 C   0  0  2  0  0  0  0  0  0  0  0  0
    1.4460   -3.0066   -0.8041 N   0  0  3  0  0  0  0  0  0  0  0  0
    0.6474   -2.7144   -4.3884 N   0  0  0  0  0  0  0  0  0  0  0  0
    1.0213   -1.0916   -5.9793 O   0  0  0  0  0  0  0  0  0  0  0  0
   -0.7597   -2.3500   -1.6917 H   0  0  0  0  0  0  0  0  0  0  0  0
   -0.0930    0.3159    0.5344 H   0  0  0  0  0  0  0  0  0  0  0  0
    0.4527    1.8423    0.5005 H   0  0  0  0  0  0  0  0  0  0  0  0
    1.6683    0.6951    0.1272 H   0  0  0  0  0  0  0  0  0  0  0  0
   -0.9532    0.7222   -1.5108 H   0  0  0  0  0  0  0  0  0  0  0  0
    0.5619    1.5284   -2.0220 H   0  0  0  0  0  0  0  0  0  0  0  0
    0.6338   -7.5465   -6.3634 H   0  0  0  0  0  0  0  0  0  0  0  0
    0.6568   -5.6704   -7.9816 H   0  0  0  0  0  0  0  0  0  0  0  0
    0.5352   -1.1044    1.0653 H   0  0  0  0  0  0  0  0  0  0  0  0
   -0.2148   -2.0445   -0.0229 H   0  0  0  0  0  0  0  0  0  0  0  0
    0.6234   -7.0989   -3.9248 H   0  0  0  0  0  0  0  0  0  0  0  0
    0.6730   -3.3039   -7.2087 H   0  0  0  0  0  0  0  0  0  0  0  0
    0.8489   -6.1446   -1.5797 H   0  0  0  0  0  0  0  0  0  0  0  0
   -0.3935   -4.9504   -1.1093 H   0  0  0  0  0  0  0  0  0  0  0  0
    2.6270   -0.2894   -1.1686 H   0  0  0  0  0  0  0  0  0  0  0  0
    2.3436   -1.6145   -2.0613 H   0  0  0  0  0  0  0  0  0  0  0  0
    1.8066   -2.8596    1.3963 H   0  0  0  0  0  0  0  0  0  0  0  0
    2.5707   -1.4912    0.6037 H   0  0  0  0  0  0  0  0  0  0  0  0
    2.6347   -4.6296   -0.9017 H   0  0  0  0  0  0  0  0  0  0  0  0
    1.4180   -4.6974    0.3752 H   0  0  0  0  0  0  0  0  0  0  0  0
    0.7567    0.6134   -4.0426 H   0  0  0  0  0  0  0  0  0  0  0  0
   -0.7330   -0.2746   -3.8660 H   0  0  0  0  0  0  0  0  0  0  0  0
  1 24  1  0  0  0  0
  1 25  1  0  0  0  0
  1 26  1  0  0  0  0
  2  1  1  0  0  0  0
  2 27  1  0  0  0  0
  2 28  1  0  0  0  0
  3 29  1  0  0  0  0
  4  3  2  0  0  0  0
  4 30  1  0  0  0  0
  5 31  1  0  0  0  0
  5 32  1  0  0  0  0
  6  3  1  0  0  0  0
  6 33  1  0  0  0  0
  7  4  1  0  0  0  0
  7 34  1  0  0  0  0
  8 35  1  0  0  0  0
  8 36  1  0  0  0  0
  9  5  1  0  0  0  0
  9 37  1  0  0  0  0
  9 38  1  0  0  0  0
 10  5  1  0  0  0  0
 10 39  1  0  0  0  0
 10 40  1  0  0  0  0
 11  8  1  0  0  0  0
 11 41  1  0  0  0  0
 11 42  1  0  0  0  0
 12 43  1  0  0  0  0
 12 44  1  0  0  0  0
 13  6  2  0  0  0  0
 14  8  1  0  0  0  0
 14 13  1  0  0  0  0
 15  7  2  0  0  0  0
 15 13  1  0  0  0  0
 16 12  1  0  0  0  0
 17 14  2  0  0  0  0
 18 17  1  0  0  0  0
 18 23  1  1  0  0  0
 19  2  1  1  0  0  0
 19  9  1  0  0  0  0
 19 12  1  0  0  0  0
 19 18  1  0  0  0  0
 20 10  1  0  0  0  0
 20 11  1  0  0  0  0
 20 18  1  0  0  0  0
 21 15  1  0  0  0  0
 21 16  1  0  0  0  0
 21 17  1  0  0  0  0
 22 16  2  0  0  0  0
M  END
>  <DRUGBANK_ID>
DB13793

>  <COMMON_NAME>
Vinburnine

>  <CAS_NUMBER>
4880-88-0

>  <UNII>
G54D0HMY25

>  <SYNONYMS>
Vinburnina

$$$$
