
 OpenBabel10282417223D

103107  0  0  1  0  0  0  0  0999 V2000
   -2.5101   -7.0819   -0.0659 C   0  0  0  0  0  0  0  0  0  0  0  0
   -1.7019   -6.5082    1.7019 C   0  0  0  0  0  0  0  0  0  0  0  0
   -0.8937   -7.5174    2.4804 C   0  0  0  0  0  0  0  0  0  0  0  0
   -0.3945   -5.1976    1.8060 C   0  0  0  0  0  0  0  0  0  0  0  0
   -1.0059   -4.1191    0.7466 O   0  0  0  0  0  0  0  0  0  0  0  0
   -1.4164   -4.0441   -1.1935 C   0  0  0  0  0  0  0  0  0  0  0  0
   -1.0161   -4.8773   -2.0092 O   0  0  0  0  0  0  0  0  0  0  0  0
   -1.9678   -2.3787   -1.8004 C   0  0  2  0  0  0  0  0  0  0  0  0
   -1.3197   -0.9926   -0.6254 C   0  0  0  0  0  0  0  0  0  0  0  0
   -0.8861   -1.2542    1.3443 C   0  0  0  0  0  0  0  0  0  0  0  0
    0.3167   -1.0436    2.0256 C   0  0  0  0  0  0  0  0  0  0  0  0
    0.4635   -1.2063    3.3981 C   0  0  0  0  0  0  0  0  0  0  0  0
   -0.3130   -2.0718    4.1534 C   0  0  0  0  0  0  0  0  0  0  0  0
   -1.4141   -2.5954    3.6269 C   0  0  0  0  0  0  0  0  0  0  0  0
   -1.6326   -2.1227    2.3685 C   0  0  0  0  0  0  0  0  0  0  0  0
   -3.5769   -2.5203   -2.1348 N   0  0  0  0  0  0  0  0  0  0  0  0
   -3.9419   -4.1135   -2.4167 P   0  0  3  0  0  0  0  0  0  0  0  0
   -2.6553   -4.3199   -3.0832 O   0  0  0  0  0  0  0  0  0  0  0  0
   -4.5200   -5.1225   -1.0996 C   0  0  0  0  0  0  0  0  0  0  0  0
   -5.8703   -5.2951   -0.7688 O   0  0  0  0  0  0  0  0  0  0  0  0
   -6.3460   -4.0450   -0.3643 C   0  0  0  0  0  0  0  0  0  0  0  0
   -5.7186   -3.3694    0.8808 C   0  0  0  0  0  0  0  0  0  0  0  0
   -4.3193   -2.9312    0.8384 N   0  0  0  0  0  0  0  0  0  0  0  0
   -4.1658   -1.5763    0.7735 C   0  0  0  0  0  0  0  0  0  0  0  0
   -2.9666   -1.3922    0.3981 N   0  0  0  0  0  0  0  0  0  0  0  0
   -2.0531   -2.6477    0.2401 C   0  0  0  0  0  0  0  0  0  0  0  0
   -2.9866   -3.6700    0.5191 C   0  0  0  0  0  0  0  0  0  0  0  0
   -2.4751   -5.1295    0.3521 N   0  0  0  0  0  0  0  0  0  0  0  0
   -0.7720   -5.6918   -0.1909 C   0  0  0  0  0  0  0  0  0  0  0  0
   -0.2626   -7.1379    0.0123 N   0  0  0  0  0  0  0  0  0  0  0  0
    0.4090   -4.5097   -0.4234 N   0  0  0  0  0  0  0  0  0  0  0  0
   -0.1214   -2.8373   -0.1990 C   0  0  0  0  0  0  0  0  0  0  0  0
    0.9700   -1.9749   -0.2307 N   0  0  0  0  0  0  0  0  0  0  0  0
    1.0934   -0.4058   -0.4999 C   0  0  0  0  0  0  0  0  0  0  0  0
    0.0736    0.7912    0.5007 C   0  0  0  0  0  0  0  0  0  0  0  0
    0.3243    0.8713   -0.8911 C   0  0  0  0  0  0  0  0  0  0  0  0
   -4.6230   -5.1886   -3.3749 N   0  0  0  0  0  0  0  0  0  0  0  0
   -4.5352   -4.9921   -4.7725 C   0  0  1  0  0  0  0  0  0  0  0  0
   -3.1470   -4.6773   -5.3970 C   0  0  0  0  0  0  0  0  0  0  0  0
   -2.0459   -5.7267   -5.1690 C   0  0  0  0  0  0  0  0  0  0  0  0
   -0.7905   -5.4515   -4.6608 C   0  0  0  0  0  0  0  0  0  0  0  0
    0.0768   -6.4959   -4.2933 C   0  0  0  0  0  0  0  0  0  0  0  0
   -0.3231   -7.8293   -4.3638 C   0  0  0  0  0  0  0  0  0  0  0  0
   -1.5836   -8.1147   -4.8111 C   0  0  0  0  0  0  0  0  0  0  0  0
   -2.2835   -7.0678   -5.3897 C   0  0  0  0  0  0  0  0  0  0  0  0
   -5.1366   -6.1614   -5.4687 C   0  0  0  0  0  0  0  0  0  0  0  0
   -5.8695   -5.9585   -6.4287 O   0  0  0  0  0  0  0  0  0  0  0  0
   -4.7334   -7.3927   -5.0057 O   0  0  0  0  0  0  0  0  0  0  0  0
   -4.9320   -8.5416   -5.8825 C   0  0  0  0  0  0  0  0  0  0  0  0
   -6.2282   -9.1131   -5.3982 C   0  0  0  0  0  0  0  0  0  0  0  0
   -7.3001   -8.0434   -5.5165 C   0  0  0  0  0  0  0  0  0  0  0  0
   -6.6306  -10.3299   -6.1819 C   0  0  0  0  0  0  0  0  0  0  0  0
   -1.8890   -7.3478   -1.0315 H   0  0  0  0  0  0  0  0  0  0  0  0
   -2.6401   -6.2679   -0.8988 H   0  0  0  0  0  0  0  0  0  0  0  0
   -3.4383   -7.5995   -0.0538 H   0  0  0  0  0  0  0  0  0  0  0  0
   -2.4592   -5.9856    2.3226 H   0  0  0  0  0  0  0  0  0  0  0  0
    0.0927   -7.7426    2.0402 H   0  0  0  0  0  0  0  0  0  0  0  0
   -0.5943   -7.0785    3.4382 H   0  0  0  0  0  0  0  0  0  0  0  0
   -1.5132   -8.3902    2.5187 H   0  0  0  0  0  0  0  0  0  0  0  0
   -0.1290   -4.6688    2.7323 H   0  0  0  0  0  0  0  0  0  0  0  0
    0.6408   -5.4911    1.4410 H   0  0  0  0  0  0  0  0  0  0  0  0
   -1.3957   -2.2906   -2.7470 H   0  0  0  0  0  0  0  0  0  0  0  0
   -0.6001   -0.9158   -1.4373 H   0  0  0  0  0  0  0  0  0  0  0  0
   -2.0337   -0.1652   -0.7820 H   0  0  0  0  0  0  0  0  0  0  0  0
    1.2498   -0.6799    1.6110 H   0  0  0  0  0  0  0  0  0  0  0  0
    1.2413   -0.5982    3.8161 H   0  0  0  0  0  0  0  0  0  0  0  0
   -0.0303   -2.4056    5.1223 H   0  0  0  0  0  0  0  0  0  0  0  0
   -2.0194   -3.4473    3.9591 H   0  0  0  0  0  0  0  0  0  0  0  0
   -2.2210   -2.9986    2.1519 H   0  0  0  0  0  0  0  0  0  0  0  0
   -3.9261   -2.1914   -1.2550 H   0  0  0  0  0  0  0  0  0  0  0  0
   -4.2118   -6.1278   -1.1725 H   0  0  0  0  0  0  0  0  0  0  0  0
   -4.2752   -4.7289   -0.2056 H   0  0  0  0  0  0  0  0  0  0  0  0
   -6.2480   -3.4181   -1.2515 H   0  0  0  0  0  0  0  0  0  0  0  0
   -7.3793   -4.2807   -0.1586 H   0  0  0  0  0  0  0  0  0  0  0  0
   -6.3290   -2.4444    0.9691 H   0  0  0  0  0  0  0  0  0  0  0  0
   -5.8043   -3.9227    1.8094 H   0  0  0  0  0  0  0  0  0  0  0  0
   -4.8571   -0.7217    0.7886 H   0  0  0  0  0  0  0  0  0  0  0  0
   -0.9457   -7.8947    0.2778 H   0  0  0  0  0  0  0  0  0  0  0  0
    0.3916   -7.5151   -0.6263 H   0  0  0  0  0  0  0  0  0  0  0  0
    1.7177   -2.6662   -0.4126 H   0  0  0  0  0  0  0  0  0  0  0  0
    1.1973   -0.7006   -1.5527 H   0  0  0  0  0  0  0  0  0  0  0  0
   -0.9984    0.7105    0.8540 H   0  0  0  0  0  0  0  0  0  0  0  0
    0.5186    1.2135    1.3946 H   0  0  0  0  0  0  0  0  0  0  0  0
    0.9366    1.6571   -1.2479 H   0  0  0  0  0  0  0  0  0  0  0  0
   -0.5959    0.9264   -1.4815 H   0  0  0  0  0  0  0  0  0  0  0  0
   -3.9827   -5.9975   -3.1968 H   0  0  0  0  0  0  0  0  0  0  0  0
   -5.2268   -4.1590   -4.8675 H   0  0  0  0  0  0  0  0  0  0  0  0
   -3.2909   -4.4985   -6.4534 H   0  0  0  0  0  0  0  0  0  0  0  0
   -2.8342   -3.6865   -5.0313 H   0  0  0  0  0  0  0  0  0  0  0  0
   -0.5087   -4.4221   -4.4610 H   0  0  0  0  0  0  0  0  0  0  0  0
    1.0501   -6.2489   -3.8912 H   0  0  0  0  0  0  0  0  0  0  0  0
    0.3551   -8.6429   -4.1440 H   0  0  0  0  0  0  0  0  0  0  0  0
   -1.9835   -9.1244   -4.8118 H   0  0  0  0  0  0  0  0  0  0  0  0
   -3.0370   -7.2961   -6.1104 H   0  0  0  0  0  0  0  0  0  0  0  0
   -4.9114   -8.2587   -6.9478 H   0  0  0  0  0  0  0  0  0  0  0  0
   -4.1161   -9.2807   -5.7663 H   0  0  0  0  0  0  0  0  0  0  0  0
   -6.0862   -9.3594   -4.3393 H   0  0  0  0  0  0  0  0  0  0  0  0
   -7.3495   -7.6939   -6.5579 H   0  0  0  0  0  0  0  0  0  0  0  0
   -8.2752   -8.3767   -5.1943 H   0  0  0  0  0  0  0  0  0  0  0  0
   -7.0785   -7.2076   -4.8476 H   0  0  0  0  0  0  0  0  0  0  0  0
   -5.8962  -11.1311   -6.0685 H   0  0  0  0  0  0  0  0  0  0  0  0
   -7.5967  -10.6681   -5.8026 H   0  0  0  0  0  0  0  0  0  0  0  0
   -6.7294  -10.0870   -7.2449 H   0  0  0  0  0  0  0  0  0  0  0  0
  1  2  1  0  0  0  0
  1 53  1  0  0  0  0
  1 54  1  0  0  0  0
  1 55  1  0  0  0  0
  2  3  1  0  0  0  0
  2  4  1  0  0  0  0
  2 56  1  0  0  0  0
  3 57  1  0  0  0  0
  3 58  1  0  0  0  0
  3 59  1  0  0  0  0
  4  5  1  0  0  0  0
  4 60  1  0  0  0  0
  4 61  1  0  0  0  0
  5  6  1  0  0  0  0
  6  7  2  0  0  0  0
  8 16  1  0  0  0  0
  8 62  1  6  0  0  0
  8  9  1  0  0  0  0
  8  6  1  0  0  0  0
  9 10  1  0  0  0  0
  9 63  1  0  0  0  0
  9 64  1  0  0  0  0
 10 11  2  0  0  0  0
 10 15  1  0  0  0  0
 11 12  1  0  0  0  0
 11 65  1  0  0  0  0
 12 13  2  0  0  0  0
 12 66  1  0  0  0  0
 13 14  1  0  0  0  0
 13 67  1  0  0  0  0
 14 15  2  0  0  0  0
 14 68  1  0  0  0  0
 15 69  1  0  0  0  0
 16 17  1  0  0  0  0
 16 70  1  0  0  0  0
 17 18  2  0  0  0  0
 17 19  1  0  0  0  0
 17 37  1  0  0  0  0
 19 20  1  0  0  0  0
 19 71  1  0  0  0  0
 19 72  1  0  0  0  0
 20 21  1  0  0  0  0
 21 22  1  0  0  0  0
 21 73  1  0  0  0  0
 21 74  1  0  0  0  0
 22 23  1  0  0  0  0
 22 75  1  0  0  0  0
 22 76  1  0  0  0  0
 23 24  1  0  0  0  0
 23 27  1  0  0  0  0
 24 25  2  0  0  0  0
 24 77  1  0  0  0  0
 25 26  1  0  0  0  0
 26 27  2  0  0  0  0
 26 32  1  0  0  0  0
 27 28  1  0  0  0  0
 28 29  2  0  0  0  0
 29 30  1  0  0  0  0
 29 31  1  0  0  0  0
 30 78  1  0  0  0  0
 30 79  1  0  0  0  0
 31 32  2  0  0  0  0
 32 33  1  0  0  0  0
 33 34  1  0  0  0  0
 33 80  1  0  0  0  0
 34 35  1  0  0  0  0
 34 36  1  0  0  0  0
 34 81  1  0  0  0  0
 35 36  1  0  0  0  0
 35 82  1  0  0  0  0
 35 83  1  0  0  0  0
 36 84  1  0  0  0  0
 36 85  1  0  0  0  0
 37 86  1  0  0  0  0
 38 37  1  0  0  0  0
 38 39  1  0  0  0  0
 38 46  1  0  0  0  0
 38 87  1  6  0  0  0
 39 40  1  0  0  0  0
 39 88  1  0  0  0  0
 39 89  1  0  0  0  0
 40 41  2  0  0  0  0
 40 45  1  0  0  0  0
 41 42  1  0  0  0  0
 41 90  1  0  0  0  0
 42 43  2  0  0  0  0
 42 91  1  0  0  0  0
 43 44  1  0  0  0  0
 43 92  1  0  0  0  0
 44 45  2  0  0  0  0
 44 93  1  0  0  0  0
 45 94  1  0  0  0  0
 46 47  2  0  0  0  0
 46 48  1  0  0  0  0
 48 49  1  0  0  0  0
 49 50  1  0  0  0  0
 49 95  1  0  0  0  0
 49 96  1  0  0  0  0
 50 51  1  0  0  0  0
 50 52  1  0  0  0  0
 50 97  1  0  0  0  0
 51 98  1  0  0  0  0
 51 99  1  0  0  0  0
 51100  1  0  0  0  0
 52101  1  0  0  0  0
 52102  1  0  0  0  0
 52103  1  0  0  0  0
M  END
>  <DRUGBANK_ID>
DB15084

>  <COMMON_NAME>
GS-9191

>  <CAS_NUMBER>
859209-84-0

>  <UNII>
5I2GJW5Z2Q

$$$$
