
 OpenBabel10282417203D

 51 53  0  0  0  0  0  0  0  0999 V2000
    0.5795   -0.1436   -0.1193 C   0  0  0  0  0  0  0  0  0  0  0  0
    0.2893    0.0648    1.3430 C   0  0  0  0  0  0  0  0  0  0  0  0
    1.0031    1.2253    2.0744 N   0  3  0  0  0  0  0  0  0  0  0  0
    0.2704    2.5811    1.9458 C   0  0  0  0  0  0  0  0  0  0  0  0
    0.7890    3.2319    0.6894 C   0  0  0  0  0  0  0  0  0  0  0  0
    2.2684    2.8820    0.6326 C   0  0  0  0  0  0  0  0  0  0  0  0
    3.1645    3.5763   -0.1019 C   0  0  0  0  0  0  0  0  0  0  0  0
    4.5960    3.1592   -0.2475 C   0  0  0  0  0  0  0  0  0  0  0  0
    4.9274    2.0281   -1.0052 C   0  0  0  0  0  0  0  0  0  0  0  0
    6.2376    1.5512   -1.0506 C   0  0  0  0  0  0  0  0  0  0  0  0
    7.2621    2.3271   -0.5316 C   0  0  0  0  0  0  0  0  0  0  0  0
    6.9681    3.5591    0.0520 C   0  0  0  0  0  0  0  0  0  0  0  0
    5.6360    3.9482    0.2462 C   0  0  0  0  0  0  0  0  0  0  0  0
    2.7283    4.7821   -0.8778 C   0  0  0  0  0  0  0  0  0  0  0  0
    2.2590    5.9412   -0.2418 C   0  0  0  0  0  0  0  0  0  0  0  0
    1.9023    7.0634   -0.9949 C   0  0  0  0  0  0  0  0  0  0  0  0
    2.0747    7.0580   -2.3762 C   0  0  0  0  0  0  0  0  0  0  0  0
    2.5868    5.9294   -3.0121 C   0  0  0  0  0  0  0  0  0  0  0  0
    2.8811    4.7861   -2.2684 C   0  0  0  0  0  0  0  0  0  0  0  0
    2.4666    1.6304    1.5292 C   0  0  3  0  0  0  0  0  0  0  0  0
    3.2029    0.4759    0.8485 C   0  0  0  0  0  0  0  0  0  0  0  0
    0.9603    0.8415    3.5995 C   0  0  0  0  0  0  0  0  0  0  0  0
   -0.4803    0.5061    4.0534 C   0  0  0  0  0  0  0  0  0  0  0  0
    0.6602    0.7852   -0.6785 H   0  0  0  0  0  0  0  0  0  0  0  0
   -0.1748   -0.7782   -0.5880 H   0  0  0  0  0  0  0  0  0  0  0  0
    1.4800   -0.7471   -0.2252 H   0  0  0  0  0  0  0  0  0  0  0  0
   -0.7871    0.2104    1.4801 H   0  0  0  0  0  0  0  0  0  0  0  0
    0.5896   -0.8511    1.8691 H   0  0  0  0  0  0  0  0  0  0  0  0
    0.5497    3.1959    2.8154 H   0  0  0  0  0  0  0  0  0  0  0  0
   -0.8124    2.4333    1.9447 H   0  0  0  0  0  0  0  0  0  0  0  0
    0.2653    2.8317   -0.1821 H   0  0  0  0  0  0  0  0  0  0  0  0
    0.5743    4.3004    0.7370 H   0  0  0  0  0  0  0  0  0  0  0  0
    4.1608    1.4728   -1.5352 H   0  0  0  0  0  0  0  0  0  0  0  0
    6.4493    0.5863   -1.5045 H   0  0  0  0  0  0  0  0  0  0  0  0
    8.2929    1.9888   -0.6143 H   0  0  0  0  0  0  0  0  0  0  0  0
    7.7791    4.2180    0.3501 H   0  0  0  0  0  0  0  0  0  0  0  0
    5.4327    4.8926    0.7477 H   0  0  0  0  0  0  0  0  0  0  0  0
    2.1685    5.9879    0.8392 H   0  0  0  0  0  0  0  0  0  0  0  0
    1.5130    7.9506   -0.5013 H   0  0  0  0  0  0  0  0  0  0  0  0
    1.8240    7.9404   -2.9610 H   0  0  0  0  0  0  0  0  0  0  0  0
    2.7717    5.9421   -4.0826 H   0  0  0  0  0  0  0  0  0  0  0  0
    3.2585    3.9079   -2.7890 H   0  0  0  0  0  0  0  0  0  0  0  0
    3.0293    1.9209    2.4237 H   0  0  0  0  0  0  0  0  0  0  0  0
    4.2853    0.6101    0.8834 H   0  0  0  0  0  0  0  0  0  0  0  0
    3.0283   -0.5025    1.2978 H   0  0  0  0  0  0  0  0  0  0  0  0
    2.9627    0.4377   -0.2201 H   0  0  0  0  0  0  0  0  0  0  0  0
    1.6161   -0.0241    3.7323 H   0  0  0  0  0  0  0  0  0  0  0  0
    1.3529    1.6845    4.1785 H   0  0  0  0  0  0  0  0  0  0  0  0
   -0.8962   -0.3641    3.5324 H   0  0  0  0  0  0  0  0  0  0  0  0
   -0.5158    0.2519    5.1167 H   0  0  0  0  0  0  0  0  0  0  0  0
   -1.1712    1.3406    3.8917 H   0  0  0  0  0  0  0  0  0  0  0  0
  1  2  1  0  0  0  0
  1 24  1  0  0  0  0
  1 25  1  0  0  0  0
  1 26  1  0  0  0  0
  2  3  1  0  0  0  0
  2 27  1  0  0  0  0
  2 28  1  0  0  0  0
  3  4  1  0  0  0  0
  3 20  1  0  0  0  0
  3 22  1  0  0  0  0
  4  5  1  0  0  0  0
  4 29  1  0  0  0  0
  4 30  1  0  0  0  0
  5  6  1  0  0  0  0
  5 31  1  0  0  0  0
  5 32  1  0  0  0  0
  6  7  2  0  0  0  0
  6 20  1  0  0  0  0
  7  8  1  0  0  0  0
  7 14  1  0  0  0  0
  8  9  2  0  0  0  0
  8 13  1  0  0  0  0
  9 10  1  0  0  0  0
  9 33  1  0  0  0  0
 10 11  2  0  0  0  0
 10 34  1  0  0  0  0
 11 12  1  0  0  0  0
 11 35  1  0  0  0  0
 12 13  2  0  0  0  0
 12 36  1  0  0  0  0
 13 37  1  0  0  0  0
 14 15  2  0  0  0  0
 14 19  1  0  0  0  0
 15 16  1  0  0  0  0
 15 38  1  0  0  0  0
 16 17  2  0  0  0  0
 16 39  1  0  0  0  0
 17 18  1  0  0  0  0
 17 40  1  0  0  0  0
 18 19  2  0  0  0  0
 18 41  1  0  0  0  0
 19 42  1  0  0  0  0
 20 21  1  0  0  0  0
 20 43  1  0  0  0  0
 21 44  1  0  0  0  0
 21 45  1  0  0  0  0
 21 46  1  0  0  0  0
 22 23  1  0  0  0  0
 22 47  1  0  0  0  0
 22 48  1  0  0  0  0
 23 49  1  0  0  0  0
 23 50  1  0  0  0  0
 23 51  1  0  0  0  0
M  CHG  1   3   1
M  END
>  <DRUGBANK_ID>
DB13254

>  <COMMON_NAME>
Prifinium

>  <CAS_NUMBER>
10236-81-4

>  <UNII>
3C7TTK1K7K

$$$$
