
 OpenBabel10282417133D

 42 42  0  0  0  0  0  0  0  0999 V2000
   -1.5378   -1.7462    0.0146 C   0  0  0  0  0  0  0  0  0  0  0  0
   -1.6398    4.8036    2.4273 C   0  0  0  0  0  0  0  0  0  0  0  0
    1.8906   -0.4543   -0.2157 C   0  0  0  0  0  0  0  0  0  0  0  0
    0.2560    3.0354   -0.1843 C   0  0  0  0  0  0  0  0  0  0  0  0
    3.0742    1.7635   -0.0464 C   0  0  0  0  0  0  0  0  0  0  0  0
   -0.4038   -0.7609   -0.0896 C   0  0  0  0  0  0  0  0  0  0  0  0
   -0.8811    5.4533    1.2622 C   0  0  3  0  0  0  0  0  0  0  0  0
    1.7910    0.9397   -0.3402 C   0  0  0  0  0  0  0  0  0  0  0  0
    0.4577    1.5141   -0.3304 C   0  0  0  0  0  0  0  0  0  0  0  0
    0.6224    5.0853    1.1976 C   0  0  3  0  0  0  0  0  0  0  0  0
   -0.6363    0.6218   -0.1794 C   0  0  0  0  0  0  0  0  0  0  0  0
    1.3785    5.6368    2.4407 C   0  0  0  0  0  0  0  0  0  0  0  0
    0.8406   -1.3029   -0.1203 N   0  0  0  0  0  0  0  0  0  0  0  0
    0.7767    3.5985    1.1117 N   0  0  0  0  0  0  0  0  0  0  0  0
   -1.0797    6.8584    1.2472 O   0  0  0  0  0  0  0  0  0  0  0  0
   -1.9427    1.0204   -0.0578 O   0  0  0  0  0  0  0  0  0  0  0  0
    2.2445    6.4804    2.4322 O   0  0  0  0  0  0  0  0  0  0  0  0
    0.9577    5.1015    3.6082 O   0  0  0  0  0  0  0  0  0  0  0  0
    1.4361    1.3705    1.9323 O   0  0  0  0  0  0  0  0  0  0  0  0
    3.2269    0.3113    3.1111 O   0  0  0  0  0  0  0  0  0  0  0  0
    1.8856    2.0631    3.8928 O   0  0  0  0  0  0  0  0  0  0  0  0
    3.7437    1.5233    1.2464 O   0  0  0  0  0  0  0  0  0  0  0  0
    2.7632    1.8082    2.6429 P   0  0  0  0  0  0  0  0  0  0  0  0
   -1.5143   -2.3977   -0.8640 H   0  0  0  0  0  0  0  0  0  0  0  0
   -1.4440   -2.3622    0.9154 H   0  0  0  0  0  0  0  0  0  0  0  0
   -2.5225   -1.2698    0.0425 H   0  0  0  0  0  0  0  0  0  0  0  0
   -1.3078    5.1953    3.3903 H   0  0  0  0  0  0  0  0  0  0  0  0
   -2.7064    5.0191    2.3658 H   0  0  0  0  0  0  0  0  0  0  0  0
   -1.5392    3.7124    2.4509 H   0  0  0  0  0  0  0  0  0  0  0  0
    2.8540   -0.9391   -0.0710 H   0  0  0  0  0  0  0  0  0  0  0  0
    0.7552    3.5146   -1.0278 H   0  0  0  0  0  0  0  0  0  0  0  0
   -0.8024    3.2666   -0.2567 H   0  0  0  0  0  0  0  0  0  0  0  0
    3.7963    1.5536   -0.8401 H   0  0  0  0  0  0  0  0  0  0  0  0
    2.8715    2.8349   -0.0944 H   0  0  0  0  0  0  0  0  0  0  0  0
   -1.3537    5.1046    0.3389 H   0  0  0  0  0  0  0  0  0  0  0  0
    1.1109    5.5576    0.3363 H   0  0  0  0  0  0  0  0  0  0  0  0
    0.1741    3.2818    1.9001 H   0  0  0  0  0  0  0  0  0  0  0  0
   -0.6754    7.2403    2.0447 H   0  0  0  0  0  0  0  0  0  0  0  0
   -2.0520    1.9754    0.0008 H   0  0  0  0  0  0  0  0  0  0  0  0
    1.4182    5.5628    4.3429 H   0  0  0  0  0  0  0  0  0  0  0  0
    1.2747    2.2538    1.5559 H   0  0  0  0  0  0  0  0  0  0  0  0
    3.7225   -0.1490    2.4167 H   0  0  0  0  0  0  0  0  0  0  0  0
  1 24  1  0  0  0  0
  1 25  1  0  0  0  0
  1 26  1  0  0  0  0
  2 27  1  0  0  0  0
  2 28  1  0  0  0  0
  2 29  1  0  0  0  0
  3 30  1  0  0  0  0
  4 31  1  0  0  0  0
  4 32  1  0  0  0  0
  5 33  1  0  0  0  0
  5 34  1  0  0  0  0
  6  1  1  0  0  0  0
  7  2  1  0  0  0  0
  7 35  1  0  0  0  0
  8  3  1  0  0  0  0
  8  5  1  0  0  0  0
  9  4  1  0  0  0  0
  9  8  2  0  0  0  0
 10  7  1  0  0  0  0
 10 36  1  0  0  0  0
 11  6  2  0  0  0  0
 11  9  1  0  0  0  0
 12 10  1  0  0  0  0
 13  3  2  0  0  0  0
 13  6  1  0  0  0  0
 14  4  1  0  0  0  0
 14 10  1  0  0  0  0
 14 37  1  0  0  0  0
 15  7  1  0  0  0  0
 15 38  1  0  0  0  0
 16 11  1  0  0  0  0
 16 39  1  0  0  0  0
 17 12  2  0  0  0  0
 18 12  1  0  0  0  0
 18 40  1  0  0  0  0
 19 41  1  0  0  0  0
 20 42  1  0  0  0  0
 22  5  1  0  0  0  0
 23 19  1  0  0  0  0
 23 20  1  0  0  0  0
 23 21  2  0  0  0  0
 23 22  1  0  0  0  0
M  END
>  <DRUGBANK_ID>
DB03576

>  <SECONDARY_ACCESSION_NUMBERS>
EXPT03066

>  <COMMON_NAME>
N-Pyridoxyl-Threonine-5-Monophosphate

$$$$
