323
 OpenBabel10282417103D

 31 32  0  0  0  0  0  0  0  0999 V2000
    1.0327    0.0588    0.1275 O   0  0  0  0  0  0  0  0  0  0  0  0
    5.4048    3.1580   -2.0595 O   0  0  0  0  0  0  0  0  0  0  0  0
    5.0430    4.9527   -0.1245 O   0  0  0  0  0  0  0  0  0  0  0  0
    3.8910    5.5158    2.1355 O   0  5  0  0  0  0  0  0  0  0  0  0
    2.5097    4.0877    3.0365 O   0  0  0  0  0  0  0  0  0  0  0  0
    3.2844    4.4370    2.1335 N   0  3  0  0  0  0  0  0  0  0  0  0
    2.9891    1.3228    0.0204 C   0  0  0  0  0  0  0  0  0  0  0  0
    2.9879   -1.2823    0.0824 C   0  0  0  0  0  0  0  0  0  0  0  0
    2.2609    0.0256    0.0745 C   0  0  0  0  0  0  0  0  0  0  0  0
    2.7934    2.2590    1.0477 C   0  0  0  0  0  0  0  0  0  0  0  0
    3.8476    1.6186   -1.0477 C   0  0  0  0  0  0  0  0  0  0  0  0
    3.4847    3.4901    1.0228 C   0  0  0  0  0  0  0  0  0  0  0  0
    4.5281    2.8357   -1.0569 C   0  0  0  0  0  0  0  0  0  0  0  0
    4.3284   -3.7665    0.0839 C   0  0  0  0  0  0  0  0  0  0  0  0
    2.2627   -2.4842    0.0794 C   0  0  0  0  0  0  0  0  0  0  0  0
    4.3850   -1.3409    0.1185 C   0  0  0  0  0  0  0  0  0  0  0  0
    4.3515    3.7768   -0.0356 C   0  0  0  0  0  0  0  0  0  0  0  0
    2.9302   -3.7174    0.0832 C   0  0  0  0  0  0  0  0  0  0  0  0
    5.0483   -2.5692    0.1062 C   0  0  0  0  0  0  0  0  0  0  0  0
    5.0655   -5.0730    0.0618 C   0  0  0  0  0  0  0  0  0  0  0  0
    5.4413    2.4332   -2.7088 H   0  0  0  0  0  0  0  0  0  0  0  0
    5.5571    4.9353   -0.9542 H   0  0  0  0  0  0  0  0  0  0  0  0
    2.1099    2.0162    1.8615 H   0  0  0  0  0  0  0  0  0  0  0  0
    3.9797    0.8990   -1.8508 H   0  0  0  0  0  0  0  0  0  0  0  0
    1.1732   -2.4757    0.0786 H   0  0  0  0  0  0  0  0  0  0  0  0
    4.9932   -0.4448    0.1616 H   0  0  0  0  0  0  0  0  0  0  0  0
    2.3508   -4.6395    0.0844 H   0  0  0  0  0  0  0  0  0  0  0  0
    6.1361   -2.5828    0.1187 H   0  0  0  0  0  0  0  0  0  0  0  0
    5.6918   -5.1335   -0.8346 H   0  0  0  0  0  0  0  0  0  0  0  0
    5.7004   -5.1640    0.9492 H   0  0  0  0  0  0  0  0  0  0  0  0
    4.3772   -5.9236    0.0493 H   0  0  0  0  0  0  0  0  0  0  0  0
  1  9  2  0  0  0  0
  2 13  1  0  0  0  0
  2 21  1  0  0  0  0
  3 17  1  0  0  0  0
  3 22  1  0  0  0  0
  4  6  1  0  0  0  0
  5  6  2  0  0  0  0
  6 12  1  0  0  0  0
  7  9  1  0  0  0  0
  7 10  2  0  0  0  0
  7 11  1  0  0  0  0
  8  9  1  0  0  0  0
  8 15  2  0  0  0  0
  8 16  1  0  0  0  0
 10 12  1  0  0  0  0
 10 23  1  0  0  0  0
 11 13  2  0  0  0  0
 11 24  1  0  0  0  0
 12 17  2  0  0  0  0
 13 17  1  0  0  0  0
 14 18  2  0  0  0  0
 14 19  1  0  0  0  0
 14 20  1  0  0  0  0
 15 18  1  0  0  0  0
 15 25  1  0  0  0  0
 16 19  2  0  0  0  0
 16 26  1  0  0  0  0
 18 27  1  0  0  0  0
 19 28  1  0  0  0  0
 20 29  1  0  0  0  0
 20 30  1  0  0  0  0
 20 31  1  0  0  0  0
M  CHG  2   4  -1   6   1
M  END
>  <DRUGBANK_ID>
DB00323

>  <SECONDARY_ACCESSION_NUMBERS>
APRD00445

>  <COMMON_NAME>
Tolcapone

>  <CAS_NUMBER>
134308-13-7

>  <UNII>
CIF6334OLY

>  <SYNONYMS>
(3,4-dihydroxy-5-nitrophenyl)(4-methylphenyl)methanone; 3,4-dihydroxy-4'-methyl-5-nitrobenzophenone; 3,4-dihydroxy-5-nitro-4'-methylbenzophenone; 4'-methyl-3,4-dihydroxy-5-nitrobenzophenone; Tolcapon; Tolcapona; Tolcapone; Tolcaponum

$$$$
