
 OpenBabel10282417203D

 54 57  0  0  1  0  0  0  0  0999 V2000
   -0.9637  -16.3997  -15.1124 C   0  0  0  0  0  0  0  0  0  0  0  0
    4.1366  -16.4488  -11.4055 C   0  0  0  0  0  0  0  0  0  0  0  0
    2.4665  -14.4175  -16.9008 C   0  0  0  0  0  0  0  0  0  0  0  0
    2.7331  -19.5935  -12.5048 C   0  0  0  0  0  0  0  0  0  0  0  0
    3.1683  -19.0247  -13.8422 C   0  0  0  0  0  0  0  0  0  0  0  0
    2.2134  -17.4512   -8.7788 C   0  0  0  0  0  0  0  0  0  0  0  0
    1.8826  -16.9868  -10.0259 C   0  0  0  0  0  0  0  0  0  0  0  0
    2.8519  -16.1390  -15.1524 C   0  0  0  0  0  0  0  0  0  0  0  0
    3.4907  -19.0637  -10.1569 C   0  0  0  0  0  0  0  0  0  0  0  0
    2.0039  -14.4970  -14.3467 C   0  0  0  0  0  0  0  0  0  0  0  0
    2.0011  -17.3231  -18.7574 C   0  0  0  0  0  0  0  0  0  0  0  0
    0.7837  -16.1121  -15.3197 C   0  0  1  0  0  0  0  0  0  0  0  0
    3.0479  -18.6806  -11.3680 C   0  0  0  0  0  0  0  0  0  0  0  0
    3.5747  -17.9204   -9.1827 C   0  0  0  0  0  0  0  0  0  0  0  0
    2.0930  -17.9625  -14.1445 C   0  0  1  0  0  0  0  0  0  0  0  0
    2.4911  -17.3627  -15.5342 C   0  0  1  0  0  0  0  0  0  0  0  0
    1.5231  -15.4485  -13.1068 C   0  0  0  0  0  0  0  0  0  0  0  0
    1.3569  -17.6488  -17.4641 C   0  0  0  0  0  0  0  0  0  0  0  0
    2.7134  -17.2090  -11.4486 C   0  0  2  0  0  0  0  0  0  0  0  0
    1.9898  -15.5934  -16.0468 C   0  0  2  0  0  0  0  0  0  0  0  0
    2.2668  -16.8419  -12.9249 C   0  0  2  0  0  0  0  0  0  0  0  0
    0.9018  -16.3775  -16.7394 C   0  0  2  0  0  0  0  0  0  0  0  0
    3.5575  -18.1039  -18.9119 Cl  0  0  0  0  0  0  0  0  0  0  0  0
    3.5569  -16.5476  -13.3547 F   0  0  0  0  0  0  0  0  0  0  0  0
    4.5423  -17.2360   -8.8696 O   0  0  0  0  0  0  0  0  0  0  0  0
    0.4621  -15.1910  -12.5399 O   0  0  0  0  0  0  0  0  0  0  0  0
    1.0699  -18.7842  -17.0692 O   0  0  0  0  0  0  0  0  0  0  0  0
   -0.3216  -16.5321  -17.3470 O   0  0  0  0  0  0  0  0  0  0  0  0
    0.3933  -15.0488  -15.1721 H   0  0  0  0  0  0  0  0  0  0  0  0
    1.0690  -18.3365  -14.2239 H   0  0  0  0  0  0  0  0  0  0  0  0
    3.1458  -17.9092  -16.2425 H   0  0  0  0  0  0  0  0  0  0  0  0
   -1.5200  -15.8571  -14.3402 H   0  0  0  0  0  0  0  0  0  0  0  0
   -1.3555  -17.4194  -15.2228 H   0  0  0  0  0  0  0  0  0  0  0  0
   -1.5217  -15.8503  -15.9694 H   0  0  0  0  0  0  0  0  0  0  0  0
    4.8148  -16.6508  -12.2569 H   0  0  0  0  0  0  0  0  0  0  0  0
    3.9953  -15.3692  -11.3411 H   0  0  0  0  0  0  0  0  0  0  0  0
    4.8817  -16.8665  -10.7666 H   0  0  0  0  0  0  0  0  0  0  0  0
    3.2329  -13.8240  -16.3837 H   0  0  0  0  0  0  0  0  0  0  0  0
    2.8400  -14.7094  -17.8605 H   0  0  0  0  0  0  0  0  0  0  0  0
    1.5842  -13.7560  -16.9577 H   0  0  0  0  0  0  0  0  0  0  0  0
    3.1575  -20.5846  -12.3511 H   0  0  0  0  0  0  0  0  0  0  0  0
    1.6435  -19.7588  -12.5498 H   0  0  0  0  0  0  0  0  0  0  0  0
    3.6524  -19.8335  -14.4130 H   0  0  0  0  0  0  0  0  0  0  0  0
    4.0641  -18.4131  -13.9837 H   0  0  0  0  0  0  0  0  0  0  0  0
    2.5962  -17.8352   -7.8128 H   0  0  0  0  0  0  0  0  0  0  0  0
    0.8883  -16.5516  -10.1245 H   0  0  0  0  0  0  0  0  0  0  0  0
    3.8407  -16.5978  -15.5463 H   0  0  0  0  0  0  0  0  0  0  0  0
    3.6855  -15.4956  -14.7255 H   0  0  0  0  0  0  0  0  0  0  0  0
    3.4797  -20.0827   -9.8259 H   0  0  0  0  0  0  0  0  0  0  0  0
    3.0336  -14.1020  -14.1278 H   0  0  0  0  0  0  0  0  0  0  0  0
    1.4173  -13.5899  -14.4415 H   0  0  0  0  0  0  0  0  0  0  0  0
    1.2828  -17.5950  -19.5234 H   0  0  0  0  0  0  0  0  0  0  0  0
    2.1449  -16.2452  -18.8028 H   0  0  0  0  0  0  0  0  0  0  0  0
   -0.6039  -17.4395  -17.0007 H   0  0  0  0  0  0  0  0  0  0  0  0
  1 32  1  0  0  0  0
  1 33  1  0  0  0  0
  1 34  1  0  0  0  0
  2 35  1  0  0  0  0
  2 36  1  0  0  0  0
  2 37  1  0  0  0  0
  3 38  1  0  0  0  0
  3 39  1  0  0  0  0
  3 40  1  0  0  0  0
  4 41  1  0  0  0  0
  4 42  1  0  0  0  0
  5  4  1  0  0  0  0
  5 43  1  0  0  0  0
  5 44  1  0  0  0  0
  6 45  1  0  0  0  0
  7  6  2  0  0  0  0
  7 46  1  0  0  0  0
  8 47  1  0  0  0  0
  8 48  1  0  0  0  0
  9 49  1  0  0  0  0
 10 50  1  0  0  0  0
 10 51  1  0  0  0  0
 11 52  1  0  0  0  0
 11 53  1  0  0  0  0
 12  8  1  0  0  0  0
 12  1  1  0  0  0  0
 12 29  1  6  0  0  0
 13  4  1  0  0  0  0
 13  9  2  0  0  0  0
 14  6  1  0  0  0  0
 14  9  1  0  0  0  0
 15  5  1  0  0  0  0
 15 30  1  1  0  0  0
 16  8  1  0  0  0  0
 16 15  1  0  0  0  0
 16 31  1  6  0  0  0
 17 10  1  0  0  0  0
 18 11  1  0  0  0  0
 19  7  1  0  0  0  0
 19 13  1  0  0  0  0
 19  2  1  1  0  0  0
 20 10  1  0  0  0  0
 20 16  1  0  0  0  0
 20  3  1  6  0  0  0
 21 15  1  0  0  0  0
 21 17  1  0  0  0  0
 21 19  1  0  0  0  0
 21 24  1  1  0  0  0
 22 12  1  0  0  0  0
 22 20  1  0  0  0  0
 22 18  1  6  0  0  0
 22 28  1  0  0  0  0
 23 11  1  0  0  0  0
 25 14  2  0  0  0  0
 26 17  2  0  0  0  0
 27 18  2  0  0  0  0
 28 54  1  0  0  0  0
M  END
>  <DRUGBANK_ID>
DB13158

>  <COMMON_NAME>
Clobetasone

>  <CAS_NUMBER>
54063-32-0

>  <UNII>
LT69WY1J6D

>  <SYNONYMS>
Clobetasona; Clobetasone

$$$$
