
 OpenBabel10282417123D

 39 39  0  0  0  0  0  0  0  0999 V2000
    0.2885   -0.5191    0.1845 C   0  0  0  0  0  0  0  0  0  0  0  0
   -0.4214   -1.5867   -0.0574 C   0  0  0  0  0  0  0  0  0  0  0  0
   -1.7394   -1.2254   -0.1286 C   0  0  0  0  0  0  0  0  0  0  0  0
   -2.1946    0.1898   -0.0099 C   0  0  0  0  0  0  0  0  0  0  0  0
   -1.3399    1.2634    0.0618 C   0  0  0  0  0  0  0  0  0  0  0  0
   -0.1287    0.7755   -0.2130 C   0  0  0  0  0  0  0  0  0  0  0  0
   -0.7851    4.8262    0.8188 O   0  0  0  0  0  0  0  0  0  0  0  0
   -0.3496    3.6958    0.5437 C   0  0  0  0  0  0  0  0  0  0  0  0
   -1.3458    2.6872    0.3285 N   0  0  0  0  0  0  0  0  0  0  0  0
    1.2589    3.6283    0.4374 C   0  0  0  0  0  0  0  0  0  0  0  0
    2.0972    2.8177    1.4448 C   0  0  0  0  0  0  0  0  0  0  0  0
    1.8943    1.3664    1.2084 C   0  0  0  0  0  0  0  0  0  0  0  0
    2.3731    0.9393   -0.4202 C   0  0  0  0  0  0  0  0  0  0  0  0
    3.6989    0.2982   -0.4495 C   0  0  0  0  0  0  0  0  0  0  0  0
    3.8924   -0.7531    0.6554 C   0  0  0  0  0  0  0  0  0  0  0  0
    3.1674   -2.1228    0.6799 C   0  0  0  0  0  0  0  0  0  0  0  0
    3.6737   -3.0852   -0.1565 N   0  0  0  0  0  0  0  0  0  0  0  0
    2.9740   -4.3287   -0.0835 O   0  0  0  0  0  0  0  0  0  0  0  0
    2.2332   -2.3965    1.4366 O   0  0  0  0  0  0  0  0  0  0  0  0
    1.2942   -0.7144    0.5323 H   0  0  0  0  0  0  0  0  0  0  0  0
    0.0870   -2.5471   -0.1102 H   0  0  0  0  0  0  0  0  0  0  0  0
   -2.3982   -2.0688   -0.1920 H   0  0  0  0  0  0  0  0  0  0  0  0
   -3.2621    0.3448   -0.0258 H   0  0  0  0  0  0  0  0  0  0  0  0
    0.4740    1.6090   -0.4432 H   0  0  0  0  0  0  0  0  0  0  0  0
   -2.2680    3.0732    0.5142 H   0  0  0  0  0  0  0  0  0  0  0  0
    1.5408    3.4298   -0.5995 H   0  0  0  0  0  0  0  0  0  0  0  0
    1.6486    4.6529    0.5679 H   0  0  0  0  0  0  0  0  0  0  0  0
    3.1782    2.9575    1.3634 H   0  0  0  0  0  0  0  0  0  0  0  0
    1.7954    3.0710    2.4697 H   0  0  0  0  0  0  0  0  0  0  0  0
    2.2527    0.6898    1.9851 H   0  0  0  0  0  0  0  0  0  0  0  0
    0.8415    1.3188    1.5545 H   0  0  0  0  0  0  0  0  0  0  0  0
    1.8289    0.1782   -1.0283 H   0  0  0  0  0  0  0  0  0  0  0  0
    2.2439    1.7481   -1.1618 H   0  0  0  0  0  0  0  0  0  0  0  0
    3.8345   -0.1155   -1.4582 H   0  0  0  0  0  0  0  0  0  0  0  0
    4.3309    1.1747   -0.3192 H   0  0  0  0  0  0  0  0  0  0  0  0
    4.9582   -0.9421    0.6733 H   0  0  0  0  0  0  0  0  0  0  0  0
    3.6846   -0.3129    1.6277 H   0  0  0  0  0  0  0  0  0  0  0  0
    4.6773   -3.2043   -0.0657 H   0  0  0  0  0  0  0  0  0  0  0  0
    2.0875   -4.0717    0.2537 H   0  0  0  0  0  0  0  0  0  0  0  0
  1  2  2  0  0  0  0
  1  6  1  0  0  0  0
  1 20  1  0  0  0  0
  2  3  1  0  0  0  0
  2 21  1  0  0  0  0
  3  4  2  0  0  0  0
  3 22  1  0  0  0  0
  4  5  1  0  0  0  0
  4 23  1  0  0  0  0
  5  6  2  0  0  0  0
  5  9  1  0  0  0  0
  6 24  1  0  0  0  0
  7  8  2  0  0  0  0
  8  9  1  0  0  0  0
  8 10  1  0  0  0  0
  9 25  1  0  0  0  0
 10 11  1  0  0  0  0
 10 26  1  0  0  0  0
 10 27  1  0  0  0  0
 11 12  1  0  0  0  0
 11 28  1  0  0  0  0
 11 29  1  0  0  0  0
 12 13  1  0  0  0  0
 12 30  1  0  0  0  0
 12 31  1  0  0  0  0
 13 14  1  0  0  0  0
 13 32  1  0  0  0  0
 13 33  1  0  0  0  0
 14 15  1  0  0  0  0
 14 34  1  0  0  0  0
 14 35  1  0  0  0  0
 15 16  1  0  0  0  0
 15 36  1  0  0  0  0
 15 37  1  0  0  0  0
 16 17  1  0  0  0  0
 16 19  2  0  0  0  0
 17 18  1  0  0  0  0
 17 38  1  0  0  0  0
 18 39  1  0  0  0  0
M  END
>  <DRUGBANK_ID>
DB02546

>  <SECONDARY_ACCESSION_NUMBERS>
EXPT02902

>  <COMMON_NAME>
Vorinostat

>  <CAS_NUMBER>
149647-78-9

>  <UNII>
58IFB293JI

>  <SYNONYMS>
Octanedioic acid hydroxyamide phenylamide; SAHA; SHH; Suberanilohydroxamic acid; Suberoylanilide hydroxamic acid; Vorinostat; Vorinostatum

$$$$
