
 OpenBabel10282417223D

 48 51  0  0  1  0  0  0  0  0999 V2000
    0.9088    0.0103   -0.3006 C   0  0  0  0  0  0  0  0  0  0  0  0
    0.4568    1.3835   -0.1911 N   0  0  0  0  0  0  0  0  0  0  0  0
    1.2291    2.3169   -1.0097 C   0  0  0  0  0  0  0  0  0  0  0  0
    1.4502    3.5793   -0.1825 C   0  0  0  0  0  0  0  0  0  0  0  0
    0.5206    3.4313    1.0223 C   0  0  1  0  0  0  0  0  0  0  0  0
   -0.8118    4.1479    0.8188 C   0  0  0  0  0  0  0  0  0  0  0  0
    0.4601    1.8679    1.1936 C   0  0  2  0  0  0  0  0  0  0  0  0
    1.4876    1.5637    2.2009 N   0  0  0  0  0  0  0  0  0  0  0  0
    2.2265    0.3396    2.3954 C   0  0  0  0  0  0  0  0  0  0  0  0
    1.7535    2.7321    2.8938 C   0  0  0  0  0  0  0  0  0  0  0  0
    2.4767    2.8849    4.0511 C   0  0  0  0  0  0  0  0  0  0  0  0
    2.5878    4.1564    4.6211 C   0  0  0  0  0  0  0  0  0  0  0  0
    1.9974    5.2829    4.0359 C   0  0  0  0  0  0  0  0  0  0  0  0
    2.0550    6.5831    4.6141 O   0  0  0  0  0  0  0  0  0  0  0  0
    2.6985    6.8814    5.8267 C   0  0  0  0  0  0  0  0  0  0  0  0
    3.3376    6.0820    6.5174 O   0  0  0  0  0  0  0  0  0  0  0  0
    2.6823    8.1945    6.2324 N   0  0  0  0  0  0  0  0  0  0  0  0
    2.1386    9.2709    5.5324 C   0  0  0  0  0  0  0  0  0  0  0  0
    0.8711    9.1851    4.9643 C   0  0  0  0  0  0  0  0  0  0  0  0
    0.4387   10.1758    4.0901 C   0  0  0  0  0  0  0  0  0  0  0  0
    1.2258   11.3058    3.8789 C   0  0  0  0  0  0  0  0  0  0  0  0
    2.4194   11.4686    4.5828 C   0  0  0  0  0  0  0  0  0  0  0  0
    2.8926   10.4380    5.3953 C   0  0  0  0  0  0  0  0  0  0  0  0
    1.2974    5.1453    2.8389 C   0  0  0  0  0  0  0  0  0  0  0  0
    1.1861    3.8628    2.2968 C   0  0  0  0  0  0  0  0  0  0  0  0
    0.6234   -0.4659   -1.2396 H   0  0  0  0  0  0  0  0  0  0  0  0
    0.4357   -0.5946    0.4822 H   0  0  0  0  0  0  0  0  0  0  0  0
    2.0015   -0.0614   -0.2168 H   0  0  0  0  0  0  0  0  0  0  0  0
    2.1951    1.9175   -1.3403 H   0  0  0  0  0  0  0  0  0  0  0  0
    0.6474    2.5583   -1.9054 H   0  0  0  0  0  0  0  0  0  0  0  0
    2.5025    3.6181    0.1317 H   0  0  0  0  0  0  0  0  0  0  0  0
    1.2534    4.4889   -0.7583 H   0  0  0  0  0  0  0  0  0  0  0  0
   -0.6452    5.2261    0.6903 H   0  0  0  0  0  0  0  0  0  0  0  0
   -1.3481    3.7960   -0.0655 H   0  0  0  0  0  0  0  0  0  0  0  0
   -1.4622    4.0323    1.6935 H   0  0  0  0  0  0  0  0  0  0  0  0
   -0.5108    1.5939    1.6333 H   0  0  0  0  0  0  0  0  0  0  0  0
    3.2757    0.4817    2.1108 H   0  0  0  0  0  0  0  0  0  0  0  0
    2.1693   -0.0125    3.4283 H   0  0  0  0  0  0  0  0  0  0  0  0
    1.8738   -0.5134    1.8190 H   0  0  0  0  0  0  0  0  0  0  0  0
    2.9351    2.0405    4.5501 H   0  0  0  0  0  0  0  0  0  0  0  0
    3.1443    4.2136    5.5439 H   0  0  0  0  0  0  0  0  0  0  0  0
    3.3888    8.3692    6.9337 H   0  0  0  0  0  0  0  0  0  0  0  0
    0.2150    8.3530    5.2049 H   0  0  0  0  0  0  0  0  0  0  0  0
   -0.5072   10.0576    3.5705 H   0  0  0  0  0  0  0  0  0  0  0  0
    0.9031   12.0625    3.1693 H   0  0  0  0  0  0  0  0  0  0  0  0
    2.9949   12.3836    4.4698 H   0  0  0  0  0  0  0  0  0  0  0  0
    3.8774   10.5290    5.8473 H   0  0  0  0  0  0  0  0  0  0  0  0
    0.8453    5.9993    2.3445 H   0  0  0  0  0  0  0  0  0  0  0  0
  1  2  1  0  0  0  0
  1 26  1  0  0  0  0
  1 27  1  0  0  0  0
  1 28  1  0  0  0  0
  2  3  1  0  0  0  0
  3  4  1  0  0  0  0
  3 29  1  0  0  0  0
  3 30  1  0  0  0  0
  4 31  1  0  0  0  0
  4 32  1  0  0  0  0
  5  4  1  0  0  0  0
  5  6  1  6  0  0  0
  5  7  1  0  0  0  0
  5 25  1  0  0  0  0
  6 33  1  0  0  0  0
  6 34  1  0  0  0  0
  6 35  1  0  0  0  0
  7  2  1  0  0  0  0
  7  8  1  0  0  0  0
  7 36  1  1  0  0  0
  8  9  1  0  0  0  0
  8 10  1  0  0  0  0
  9 37  1  0  0  0  0
  9 38  1  0  0  0  0
  9 39  1  0  0  0  0
 10 11  2  0  0  0  0
 10 25  1  0  0  0  0
 11 12  1  0  0  0  0
 11 40  1  0  0  0  0
 12 13  2  0  0  0  0
 12 41  1  0  0  0  0
 13 14  1  0  0  0  0
 13 24  1  0  0  0  0
 14 15  1  0  0  0  0
 15 16  2  0  0  0  0
 15 17  1  0  0  0  0
 17 18  1  0  0  0  0
 17 42  1  0  0  0  0
 18 19  2  0  0  0  0
 18 23  1  0  0  0  0
 19 20  1  0  0  0  0
 19 43  1  0  0  0  0
 20 21  2  0  0  0  0
 20 44  1  0  0  0  0
 21 22  1  0  0  0  0
 21 45  1  0  0  0  0
 22 23  2  0  0  0  0
 22 46  1  0  0  0  0
 23 47  1  0  0  0  0
 24 25  2  0  0  0  0
 24 48  1  0  0  0  0
M  END
>  <DRUGBANK_ID>
DB15317

>  <COMMON_NAME>
Posiphen

>  <CAS_NUMBER>
116839-68-0

>  <UNII>
Z0O4TJ588O

>  <SYNONYMS>
(+)-Posiphen

$$$$
