
 OpenBabel10282417243D

 51 54  0  0  0  0  0  0  0  0999 V2000
    2.1894    0.0421    0.0034 F   0  0  0  0  0  0  0  0  0  0  0  0
    0.8510   -0.0124   -0.0106 C   0  0  0  0  0  0  0  0  0  0  0  0
    0.2162   -1.2441   -0.0011 C   0  0  0  0  0  0  0  0  0  0  0  0
   -1.1738   -1.2875   -0.0012 C   0  0  0  0  0  0  0  0  0  0  0  0
   -1.8703   -0.0881   -0.0149 C   0  0  0  0  0  0  0  0  0  0  0  0
   -1.2743    1.1264   -0.0272 N   0  0  0  0  0  0  0  0  0  0  0  0
    0.0896    1.1486   -0.0277 C   0  0  0  0  0  0  0  0  0  0  0  0
    0.7857    2.4821    0.0452 C   0  0  0  0  0  0  0  0  0  0  0  0
    0.4392    3.3586   -1.0532 N   0  0  0  0  0  0  0  0  0  0  0  0
   -0.2611    4.5269   -0.9599 C   0  0  0  0  0  0  0  0  0  0  0  0
   -0.6430    5.0665   -2.0060 O   0  0  0  0  0  0  0  0  0  0  0  0
   -0.5342    5.0723    0.3640 C   0  0  0  0  0  0  0  0  0  0  0  0
   -1.7048    5.6714    0.7698 C   0  0  0  0  0  0  0  0  0  0  0  0
   -1.5600    6.0811    2.0563 O   0  0  0  0  0  0  0  0  0  0  0  0
   -0.2786    5.7241    2.3789 C   0  0  0  0  0  0  0  0  0  0  0  0
    0.1923    6.0529    3.7508 C   0  0  0  0  0  0  0  0  0  0  0  0
    0.3234    7.5546    3.9903 C   0  0  0  0  0  0  0  0  0  0  0  0
   -0.9797    8.2364    3.9649 N   0  0  0  0  0  0  0  0  0  0  0  0
   -0.8396    9.6933    4.0708 C   0  0  0  0  0  0  0  0  0  0  0  0
    0.0293   10.3400    2.9786 C   0  0  0  0  0  0  0  0  0  0  0  0
   -0.4915   10.0362    1.6131 C   0  0  0  0  0  0  0  0  0  0  0  0
   -0.5623    8.8473    1.0496 N   0  0  0  0  0  0  0  0  0  0  0  0
   -1.1233    9.0536   -0.1831 C   0  0  0  0  0  0  0  0  0  0  0  0
   -1.4119    8.1570   -1.2149 C   0  0  0  0  0  0  0  0  0  0  0  0
   -1.9997    8.5949   -2.3954 C   0  0  0  0  0  0  0  0  0  0  0  0
   -2.2718    9.9454   -2.5627 C   0  0  0  0  0  0  0  0  0  0  0  0
   -1.9783   10.8797   -1.5575 C   0  0  0  0  0  0  0  0  0  0  0  0
   -1.4087   10.3942   -0.3789 C   0  0  0  0  0  0  0  0  0  0  0  0
   -0.9861   11.0006    0.7741 N   0  0  0  0  0  0  0  0  0  0  0  0
    0.3735    5.1062    1.4145 N   0  0  0  0  0  0  0  0  0  0  0  0
    0.8078   -2.1523    0.0106 H   0  0  0  0  0  0  0  0  0  0  0  0
   -1.7015   -2.2346    0.0093 H   0  0  0  0  0  0  0  0  0  0  0  0
   -2.9574   -0.0735   -0.0144 H   0  0  0  0  0  0  0  0  0  0  0  0
    0.5263    2.9016    1.0143 H   0  0  0  0  0  0  0  0  0  0  0  0
    1.8729    2.3775    0.0111 H   0  0  0  0  0  0  0  0  0  0  0  0
    0.5445    3.0202   -1.9995 H   0  0  0  0  0  0  0  0  0  0  0  0
   -2.6381    5.9174    0.2835 H   0  0  0  0  0  0  0  0  0  0  0  0
   -0.4679    5.6041    4.4989 H   0  0  0  0  0  0  0  0  0  0  0  0
    1.1857    5.6082    3.8831 H   0  0  0  0  0  0  0  0  0  0  0  0
    0.7889    7.7294    4.9671 H   0  0  0  0  0  0  0  0  0  0  0  0
    1.0058    7.9445    3.2282 H   0  0  0  0  0  0  0  0  0  0  0  0
   -1.3843    8.0439    3.0331 H   0  0  0  0  0  0  0  0  0  0  0  0
   -1.8489   10.1230    4.0243 H   0  0  0  0  0  0  0  0  0  0  0  0
   -0.4449    9.9423    5.0621 H   0  0  0  0  0  0  0  0  0  0  0  0
    0.0734   11.4208    3.1459 H   0  0  0  0  0  0  0  0  0  0  0  0
    1.0651    9.9896    3.0515 H   0  0  0  0  0  0  0  0  0  0  0  0
   -1.1605    7.1212   -1.1221 H   0  0  0  0  0  0  0  0  0  0  0  0
   -2.2134    7.8677   -3.1755 H   0  0  0  0  0  0  0  0  0  0  0  0
   -2.7046   10.2773   -3.5015 H   0  0  0  0  0  0  0  0  0  0  0  0
   -2.1759   11.9334   -1.7007 H   0  0  0  0  0  0  0  0  0  0  0  0
   -1.0198   11.9883    0.9701 H   0  0  0  0  0  0  0  0  0  0  0  0
  1  2  1  0  0  0  0
  2  3  2  0  0  0  0
  2  7  1  0  0  0  0
  3  4  1  0  0  0  0
  3 31  1  0  0  0  0
  4  5  2  0  0  0  0
  4 32  1  0  0  0  0
  5  6  1  0  0  0  0
  5 33  1  0  0  0  0
  6  7  2  0  0  0  0
  7  8  1  0  0  0  0
  8  9  1  0  0  0  0
  8 34  1  0  0  0  0
  8 35  1  0  0  0  0
  9 10  1  0  0  0  0
  9 36  1  0  0  0  0
 10 11  2  0  0  0  0
 10 12  1  0  0  0  0
 12 13  2  0  0  0  0
 12 30  1  0  0  0  0
 13 14  1  0  0  0  0
 13 37  1  0  0  0  0
 14 15  1  0  0  0  0
 15 16  1  0  0  0  0
 15 30  2  0  0  0  0
 16 17  1  0  0  0  0
 16 38  1  0  0  0  0
 16 39  1  0  0  0  0
 17 18  1  0  0  0  0
 17 40  1  0  0  0  0
 17 41  1  0  0  0  0
 18 19  1  0  0  0  0
 18 42  1  0  0  0  0
 19 20  1  0  0  0  0
 19 43  1  0  0  0  0
 19 44  1  0  0  0  0
 20 21  1  0  0  0  0
 20 45  1  0  0  0  0
 20 46  1  0  0  0  0
 21 22  2  0  0  0  0
 21 29  1  0  0  0  0
 22 23  1  0  0  0  0
 23 24  2  0  0  0  0
 23 28  1  0  0  0  0
 24 25  1  0  0  0  0
 24 47  1  0  0  0  0
 25 26  2  0  0  0  0
 25 48  1  0  0  0  0
 26 27  1  0  0  0  0
 26 49  1  0  0  0  0
 27 28  2  0  0  0  0
 27 50  1  0  0  0  0
 28 29  1  0  0  0  0
 29 51  1  0  0  0  0
M  END
>  <DRUGBANK_ID>
DB17692

>  <COMMON_NAME>
Vamifeport

>  <CAS_NUMBER>
2095668-10-1

>  <UNII>
FUF66UD0KR

>  <SYNONYMS>
2-(2-((2-(1h-benzimidazol-2-yl)ethyl)amino)ethyl)-n-((3-fluoropyridin-2-yl)methyl)-1,3-oxazole-4-carboxamide; 4-oxazolecarboxamide, 2-(2-((2-(1h-benzimidazol-2-yl)ethyl)amino)ethyl)-n-((3-fluoro-2-pyridinyl)methyl)-

$$$$
