50U
 OpenBabel10282417163D

 60 62  0  0  0  0  0  0  0  0999 V2000
   -0.9695    0.5527    1.0685 N   0  0  0  0  0  0  0  0  0  0  0  0
   -0.6430   -0.9731    1.0643 C   0  0  2  0  0  0  0  0  0  0  0  0
   -1.4686   -2.4168    1.4309 C   0  0  0  0  0  0  0  0  0  0  0  0
   -2.4368   -2.3059    2.2066 O   0  0  0  0  0  0  0  0  0  0  0  0
   -1.3832   -3.6957    0.7277 N   0  0  0  0  0  0  0  0  0  0  0  0
   -0.6436   -4.5888   -0.4894 C   0  0  0  0  0  0  0  0  0  0  0  0
    0.4372   -5.3377    0.0741 C   0  0  0  0  0  0  0  0  0  0  0  0
    1.2663   -4.7083    0.9658 C   0  0  0  0  0  0  0  0  0  0  0  0
    1.8008   -5.5566    1.8800 C   0  0  0  0  0  0  0  0  0  0  0  0
    1.4815   -6.9156    1.7608 C   0  0  0  0  0  0  0  0  0  0  0  0
    2.2202   -7.8882    2.5673 C   0  0  0  0  0  0  0  0  0  0  0  0
    2.1044   -9.1393    2.4208 N   0  0  0  0  0  0  0  0  0  0  0  0
    3.1272   -7.4128    3.4728 N   0  0  0  0  0  0  0  0  0  0  0  0
    0.6125   -7.4662    0.8153 C   0  0  0  0  0  0  0  0  0  0  0  0
    0.1987   -6.6577   -0.1878 C   0  0  0  0  0  0  0  0  0  0  0  0
    0.9075   -0.9438    0.9542 C   0  0  0  0  0  0  0  0  0  0  0  0
    1.3746    0.3814    0.3279 C   0  0  0  0  0  0  0  0  0  0  0  0
    0.1886    1.3291    0.4497 C   0  0  0  0  0  0  0  0  0  0  0  0
   -2.2411    1.2049    0.8919 C   0  0  0  0  0  0  0  0  0  0  0  0
   -3.5761    0.3865    0.6797 C   0  0  0  0  0  0  0  0  0  0  0  0
   -4.0488   -0.1238   -0.7506 C   0  0  0  0  0  0  0  0  0  0  0  0
   -3.1008   -0.9212   -1.6820 C   0  0  0  0  0  0  0  0  0  0  0  0
   -3.1562   -2.3323   -1.2011 C   0  0  0  0  0  0  0  0  0  0  0  0
   -1.9462   -3.0134   -1.7754 C   0  0  0  0  0  0  0  0  0  0  0  0
   -0.4713   -2.3842   -1.4645 C   0  0  0  0  0  0  0  0  0  0  0  0
   -0.4475   -1.0519   -2.0709 C   0  0  0  0  0  0  0  0  0  0  0  0
   -1.7226   -0.2679   -1.7724 C   0  0  0  0  0  0  0  0  0  0  0  0
   -2.3005    2.4322    0.8397 O   0  0  0  0  0  0  0  0  0  0  0  0
   -1.0474   -1.1269    0.1242 H   0  0  0  0  0  0  0  0  0  0  0  0
   -2.2291   -4.2097    0.9602 H   0  0  0  0  0  0  0  0  0  0  0  0
   -1.3601   -5.2776   -0.9796 H   0  0  0  0  0  0  0  0  0  0  0  0
   -0.1410   -4.3052   -1.4285 H   0  0  0  0  0  0  0  0  0  0  0  0
    1.3561   -3.6406    1.0783 H   0  0  0  0  0  0  0  0  0  0  0  0
    2.3810   -5.1000    2.6637 H   0  0  0  0  0  0  0  0  0  0  0  0
    1.4209   -9.3796    1.6838 H   0  0  0  0  0  0  0  0  0  0  0  0
    3.4111   -6.4558    3.5306 H   0  0  0  0  0  0  0  0  0  0  0  0
    3.7115   -8.1192    3.8819 H   0  0  0  0  0  0  0  0  0  0  0  0
    0.1955   -8.4490    0.7729 H   0  0  0  0  0  0  0  0  0  0  0  0
   -0.4932   -7.0087   -0.9439 H   0  0  0  0  0  0  0  0  0  0  0  0
    1.2621   -1.0286    1.9760 H   0  0  0  0  0  0  0  0  0  0  0  0
    1.4133   -1.7312    0.3912 H   0  0  0  0  0  0  0  0  0  0  0  0
    2.2848    0.7355    0.8213 H   0  0  0  0  0  0  0  0  0  0  0  0
    1.7278    0.3161   -0.7185 H   0  0  0  0  0  0  0  0  0  0  0  0
    0.4517    2.1955    1.0577 H   0  0  0  0  0  0  0  0  0  0  0  0
   -0.0439    1.7347   -0.5606 H   0  0  0  0  0  0  0  0  0  0  0  0
   -3.6296   -0.3924    1.4396 H   0  0  0  0  0  0  0  0  0  0  0  0
   -4.3915    1.0698    0.9882 H   0  0  0  0  0  0  0  0  0  0  0  0
   -4.9529   -0.7400   -0.5823 H   0  0  0  0  0  0  0  0  0  0  0  0
   -4.3792    0.7239   -1.3515 H   0  0  0  0  0  0  0  0  0  0  0  0
   -3.4379   -0.9907   -2.7166 H   0  0  0  0  0  0  0  0  0  0  0  0
   -3.3264   -2.4487   -0.1168 H   0  0  0  0  0  0  0  0  0  0  0  0
   -4.0527   -2.8604   -1.5733 H   0  0  0  0  0  0  0  0  0  0  0  0
   -2.2941   -3.9884   -1.4439 H   0  0  0  0  0  0  0  0  0  0  0  0
   -1.9707   -3.1486   -2.8456 H   0  0  0  0  0  0  0  0  0  0  0  0
   -0.1594   -2.4588   -0.4281 H   0  0  0  0  0  0  0  0  0  0  0  0
    0.5172   -2.8137   -1.7596 H   0  0  0  0  0  0  0  0  0  0  0  0
    0.4785   -0.5833   -1.7474 H   0  0  0  0  0  0  0  0  0  0  0  0
   -0.2982   -1.2810   -3.1152 H   0  0  0  0  0  0  0  0  0  0  0  0
   -1.6569    0.7505   -2.1320 H   0  0  0  0  0  0  0  0  0  0  0  0
   -1.7243   -0.0012   -0.7691 H   0  0  0  0  0  0  0  0  0  0  0  0
  1 19  1  0  0  0  0
  2  1  1  0  0  0  0
  2 29  1  6  0  0  0
  2  3  1  0  0  0  0
  3  4  2  0  0  0  0
  5  3  1  0  0  0  0
  5 30  1  0  0  0  0
  6  5  1  0  0  0  0
  6  7  1  0  0  0  0
  6 31  1  0  0  0  0
  6 32  1  0  0  0  0
  7  8  1  0  0  0  0
  8  9  2  0  0  0  0
  8 33  1  0  0  0  0
  9 34  1  0  0  0  0
 10  9  1  0  0  0  0
 10 11  1  0  0  0  0
 11 12  2  0  0  0  0
 12 35  1  0  0  0  0
 13 11  1  0  0  0  0
 13 36  1  0  0  0  0
 13 37  1  0  0  0  0
 14 10  2  0  0  0  0
 14 38  1  0  0  0  0
 15  7  2  0  0  0  0
 15 14  1  0  0  0  0
 15 39  1  0  0  0  0
 16 17  1  0  0  0  0
 16  2  1  0  0  0  0
 16 40  1  0  0  0  0
 16 41  1  0  0  0  0
 17 18  1  0  0  0  0
 17 42  1  0  0  0  0
 17 43  1  0  0  0  0
 18  1  1  0  0  0  0
 18 44  1  0  0  0  0
 18 45  1  0  0  0  0
 19 28  2  0  0  0  0
 19 20  1  0  0  0  0
 20 21  1  0  0  0  0
 20 46  1  0  0  0  0
 20 47  1  0  0  0  0
 21 48  1  0  0  0  0
 21 49  1  0  0  0  0
 22 21  1  0  0  0  0
 22 23  1  0  0  0  0
 22 50  1  0  0  0  0
 23 51  1  0  0  0  0
 23 52  1  0  0  0  0
 24 23  1  0  0  0  0
 24 53  1  0  0  0  0
 24 54  1  0  0  0  0
 25 24  1  0  0  0  0
 25 55  1  0  0  0  0
 25 56  1  0  0  0  0
 26 27  1  0  0  0  0
 26 25  1  0  0  0  0
 26 57  1  0  0  0  0
 26 58  1  0  0  0  0
 27 22  1  0  0  0  0
 27 59  1  0  0  0  0
 27 60  1  0  0  0  0
M  END
>  <DRUGBANK_ID>
DB07131

>  <COMMON_NAME>
(S)-N-(4-carbamimidoylbenzyl)-1-(3-cyclohexylpropanoyl)pyrrolidine-2-carboxamide

$$$$
