RQ3
 OpenBabel10282417173D

 48 49  0  0  0  0  0  0  0  0999 V2000
    1.0177   -0.1424    0.0891 C   0  0  0  0  0  0  0  0  0  0  0  0
    0.3169   -0.2409   -1.0709 O   0  0  0  0  0  0  0  0  0  0  0  0
    0.4215   -0.0237    1.1426 O   0  0  0  0  0  0  0  0  0  0  0  0
    2.5770   -0.0628   -0.0410 C   0  0  0  0  0  0  0  0  0  0  0  0
    3.0542   -0.2082   -1.4830 C   0  0  0  0  0  0  0  0  0  0  0  0
    2.8547    1.3561    0.5048 C   0  0  0  0  0  0  0  0  0  0  0  0
    3.1480   -1.1632    0.7119 O   0  0  0  0  0  0  0  0  0  0  0  0
    4.5073   -1.4010    0.6606 C   0  0  0  0  0  0  0  0  0  0  0  0
    5.4600   -0.3831    0.6523 C   0  0  0  0  0  0  0  0  0  0  0  0
    6.7965   -0.5945    0.9369 C   0  0  0  0  0  0  0  0  0  0  0  0
    7.2433   -1.8787    1.2005 C   0  0  0  0  0  0  0  0  0  0  0  0
    4.9633   -2.7047    0.8394 C   0  0  0  0  0  0  0  0  0  0  0  0
    6.3269   -2.9419    1.1145 C   0  0  0  0  0  0  0  0  0  0  0  0
    8.6452   -2.0174    1.7215 C   0  0  0  0  0  0  0  0  0  0  0  0
    8.8000   -2.7926    3.0212 C   0  0  0  0  0  0  0  0  0  0  0  0
    9.3468   -3.9013    3.0050 O   0  0  0  0  0  0  0  0  0  0  0  0
    8.4719   -2.2309    4.2383 N   0  0  0  0  0  0  0  0  0  0  0  0
    7.7476   -1.0550    4.5178 C   0  0  0  0  0  0  0  0  0  0  0  0
    6.5429   -0.7925    3.8832 C   0  0  0  0  0  0  0  0  0  0  0  0
    5.8563    0.4170    4.0291 C   0  0  0  0  0  0  0  0  0  0  0  0
    6.3018    1.3265    4.9487 C   0  0  0  0  0  0  0  0  0  0  0  0
    8.0996   -0.2042    5.5579 C   0  0  0  0  0  0  0  0  0  0  0  0
    7.3187    0.9451    5.8116 C   0  0  0  0  0  0  0  0  0  0  0  0
    4.6292    0.7595    3.2682 C   0  0  0  0  0  0  0  0  0  0  0  0
    7.3964    1.6932    7.0984 C   0  0  0  0  0  0  0  0  0  0  0  0
    0.8135   -0.3420   -1.8989 H   0  0  0  0  0  0  0  0  0  0  0  0
    2.6737    0.5928   -2.1167 H   0  0  0  0  0  0  0  0  0  0  0  0
    4.1437   -0.1888   -1.5593 H   0  0  0  0  0  0  0  0  0  0  0  0
    2.7438   -1.1836   -1.8765 H   0  0  0  0  0  0  0  0  0  0  0  0
    2.6341    1.4281    1.5757 H   0  0  0  0  0  0  0  0  0  0  0  0
    3.8676    1.7112    0.3538 H   0  0  0  0  0  0  0  0  0  0  0  0
    2.2621    2.1117   -0.0188 H   0  0  0  0  0  0  0  0  0  0  0  0
    5.2083    0.6544    0.6612 H   0  0  0  0  0  0  0  0  0  0  0  0
    7.3989    0.2797    1.1950 H   0  0  0  0  0  0  0  0  0  0  0  0
    4.2638   -3.5371    0.8362 H   0  0  0  0  0  0  0  0  0  0  0  0
    6.6424   -3.9454    1.3940 H   0  0  0  0  0  0  0  0  0  0  0  0
    9.2219   -2.5122    0.9318 H   0  0  0  0  0  0  0  0  0  0  0  0
    9.1235   -1.0366    1.8625 H   0  0  0  0  0  0  0  0  0  0  0  0
    8.8097   -2.7686    5.0281 H   0  0  0  0  0  0  0  0  0  0  0  0
    6.0874   -1.5728    3.2927 H   0  0  0  0  0  0  0  0  0  0  0  0
    5.7491    2.2539    5.0797 H   0  0  0  0  0  0  0  0  0  0  0  0
    8.9556   -0.4218    6.1891 H   0  0  0  0  0  0  0  0  0  0  0  0
    3.7946    1.0463    3.9055 H   0  0  0  0  0  0  0  0  0  0  0  0
    4.8538    1.5849    2.5812 H   0  0  0  0  0  0  0  0  0  0  0  0
    4.2798   -0.1172    2.7416 H   0  0  0  0  0  0  0  0  0  0  0  0
    7.1744    0.9923    7.9091 H   0  0  0  0  0  0  0  0  0  0  0  0
    8.3693    2.1608    7.2204 H   0  0  0  0  0  0  0  0  0  0  0  0
    6.6174    2.4666    7.1361 H   0  0  0  0  0  0  0  0  0  0  0  0
  1  2  1  0  0  0  0
  1  3  2  0  0  0  0
  1  4  1  0  0  0  0
  2 26  1  0  0  0  0
  4  5  1  0  0  0  0
  4  6  1  0  0  0  0
  4  7  1  0  0  0  0
  5 27  1  0  0  0  0
  5 28  1  0  0  0  0
  5 29  1  0  0  0  0
  6 30  1  0  0  0  0
  6 31  1  0  0  0  0
  6 32  1  0  0  0  0
  7  8  1  0  0  0  0
  8  9  2  0  0  0  0
  8 12  1  0  0  0  0
  9 10  1  0  0  0  0
  9 33  1  0  0  0  0
 10 11  2  0  0  0  0
 10 34  1  0  0  0  0
 11 13  1  0  0  0  0
 11 14  1  0  0  0  0
 12 13  2  0  0  0  0
 12 35  1  0  0  0  0
 13 36  1  0  0  0  0
 14 15  1  0  0  0  0
 14 37  1  0  0  0  0
 14 38  1  0  0  0  0
 15 16  2  0  0  0  0
 15 17  1  0  0  0  0
 17 18  1  0  0  0  0
 17 39  1  0  0  0  0
 18 19  2  0  0  0  0
 18 22  1  0  0  0  0
 19 20  1  0  0  0  0
 19 40  1  0  0  0  0
 20 21  2  0  0  0  0
 20 24  1  0  0  0  0
 21 23  1  0  0  0  0
 21 41  1  0  0  0  0
 22 23  2  0  0  0  0
 22 42  1  0  0  0  0
 23 25  1  0  0  0  0
 24 43  1  0  0  0  0
 24 44  1  0  0  0  0
 24 45  1  0  0  0  0
 25 46  1  0  0  0  0
 25 47  1  0  0  0  0
 25 48  1  0  0  0  0
M  END
>  <DRUGBANK_ID>
DB08486

>  <SECONDARY_ACCESSION_NUMBERS>
DB06459

>  <COMMON_NAME>
Efaproxiral

>  <CAS_NUMBER>
131179-95-8

>  <UNII>
J81E81G364

>  <SYNONYMS>
Efaproxiral

$$$$
