980
 OpenBabel10282417113D

 40 42  0  0  1  0  0  0  0  0999 V2000
   -2.7182   -0.6195    0.0166 O   0  0  0  0  0  0  0  0  0  0  0  0
    1.7642    6.5527    0.8778 O   0  0  0  0  0  0  0  0  0  0  0  0
    1.0970    4.5805    0.0730 N   0  0  0  0  0  0  0  0  0  0  0  0
    1.6633    1.6606    0.0075 C   0  0  1  0  0  0  0  0  0  0  0  0
    0.6656    0.5522    0.0233 C   0  0  0  0  0  0  0  0  0  0  0  0
    3.0323    0.9404   -0.0091 C   0  0  0  0  0  0  0  0  0  0  0  0
    2.7750   -0.5808    0.0054 C   0  0  0  0  0  0  0  0  0  0  0  0
    1.2735   -0.7138    0.0142 C   0  0  0  0  0  0  0  0  0  0  0  0
    1.4765    2.5448   -1.2202 C   0  0  0  0  0  0  0  0  0  0  0  0
   -0.7361    0.5435    0.0250 C   0  0  0  0  0  0  0  0  0  0  0  0
   -1.7543    1.5973    0.0191 C   0  0  0  0  0  0  0  0  0  0  0  0
   -1.3261   -0.7128    0.0161 C   0  0  0  0  0  0  0  0  0  0  0  0
    0.6619   -1.9566    0.0046 C   0  0  0  0  0  0  0  0  0  0  0  0
    0.5261    3.6854   -0.9016 C   0  0  0  0  0  0  0  0  0  0  0  0
   -3.0402    0.7937    0.0383 C   0  0  0  0  0  0  0  0  0  0  0  0
   -0.7146   -1.9521    0.0042 C   0  0  0  0  0  0  0  0  0  0  0  0
    1.3576    5.8978   -0.0857 C   0  0  0  0  0  0  0  0  0  0  0  0
    1.1005    6.5055   -1.4402 C   0  0  0  0  0  0  0  0  0  0  0  0
    1.9704    5.9016   -2.5345 C   0  0  0  0  0  0  0  0  0  0  0  0
    1.2241    4.2498    1.0237 H   0  0  0  0  0  0  0  0  0  0  0  0
    1.5708    2.2068    0.9514 H   0  0  0  0  0  0  0  0  0  0  0  0
    3.6173    1.2441    0.8694 H   0  0  0  0  0  0  0  0  0  0  0  0
    3.6416    1.2200   -0.8775 H   0  0  0  0  0  0  0  0  0  0  0  0
    3.2010   -1.0408   -0.8915 H   0  0  0  0  0  0  0  0  0  0  0  0
    3.2126   -1.0317    0.9010 H   0  0  0  0  0  0  0  0  0  0  0  0
    2.4395    2.9587   -1.5424 H   0  0  0  0  0  0  0  0  0  0  0  0
    1.0880    1.9608   -2.0664 H   0  0  0  0  0  0  0  0  0  0  0  0
   -1.7343    2.1606   -0.9169 H   0  0  0  0  0  0  0  0  0  0  0  0
   -1.6558    2.2552    0.8886 H   0  0  0  0  0  0  0  0  0  0  0  0
    1.2384   -2.8730   -0.0037 H   0  0  0  0  0  0  0  0  0  0  0  0
    0.1978    4.1816   -1.8141 H   0  0  0  0  0  0  0  0  0  0  0  0
   -0.3861    3.3734   -0.4345 H   0  0  0  0  0  0  0  0  0  0  0  0
   -3.6452    1.0432   -0.8431 H   0  0  0  0  0  0  0  0  0  0  0  0
   -3.6347    1.0347    0.9261 H   0  0  0  0  0  0  0  0  0  0  0  0
   -1.3028   -2.8591   -0.0040 H   0  0  0  0  0  0  0  0  0  0  0  0
    0.0319    6.4023   -1.6672 H   0  0  0  0  0  0  0  0  0  0  0  0
    1.3072    7.5767   -1.3669 H   0  0  0  0  0  0  0  0  0  0  0  0
    1.8145    4.8353   -2.7021 H   0  0  0  0  0  0  0  0  0  0  0  0
    1.7588    6.3821   -3.4910 H   0  0  0  0  0  0  0  0  0  0  0  0
    3.0286    6.0066   -2.2852 H   0  0  0  0  0  0  0  0  0  0  0  0
  1 12  1  0  0  0  0
  1 15  1  0  0  0  0
  2 17  2  0  0  0  0
  3 14  1  0  0  0  0
  3 17  1  0  0  0  0
  3 20  1  0  0  0  0
  4  5  1  0  0  0  0
  4  6  1  0  0  0  0
  4 21  1  1  0  0  0
  4  9  1  0  0  0  0
  5  8  2  0  0  0  0
  5 10  1  0  0  0  0
  6  7  1  0  0  0  0
  6 22  1  0  0  0  0
  6 23  1  0  0  0  0
  7  8  1  0  0  0  0
  7 24  1  0  0  0  0
  7 25  1  0  0  0  0
  8 13  1  0  0  0  0
  9 14  1  0  0  0  0
  9 26  1  0  0  0  0
  9 27  1  0  0  0  0
 10 11  1  0  0  0  0
 10 12  2  0  0  0  0
 11 15  1  0  0  0  0
 11 28  1  0  0  0  0
 11 29  1  0  0  0  0
 12 16  1  0  0  0  0
 13 16  2  0  0  0  0
 13 30  1  0  0  0  0
 14 31  1  0  0  0  0
 14 32  1  0  0  0  0
 15 33  1  0  0  0  0
 15 34  1  0  0  0  0
 16 35  1  0  0  0  0
 17 18  1  0  0  0  0
 18 19  1  0  0  0  0
 18 36  1  0  0  0  0
 18 37  1  0  0  0  0
 19 38  1  0  0  0  0
 19 39  1  0  0  0  0
 19 40  1  0  0  0  0
M  END
>  <DRUGBANK_ID>
DB00980

>  <SECONDARY_ACCESSION_NUMBERS>
APRD01213

>  <COMMON_NAME>
Ramelteon

>  <CAS_NUMBER>
196597-26-9

>  <UNII>
901AS54I69

>  <SYNONYMS>
Ramelteon

$$$$
