Acetic acid.mol
 OpenBabel10282417133D

  8  7  0  0  0  0  0  0  0  0999 V2000
    0.9443    0.0008    0.0505 C   0  0  0  0  0  0  0  0  0  0  0  0
    0.2489    0.7419    1.1536 C   0  0  0  0  0  0  0  0  0  0  0  0
    0.3440   -0.5937   -0.8341 O   0  0  0  0  0  0  0  0  0  0  0  0
    2.2917    0.0364    0.1036 O   0  0  0  0  0  0  0  0  0  0  0  0
   -0.3749    1.5271    0.7176 H   0  0  0  0  0  0  0  0  0  0  0  0
   -0.3749    0.0415    1.7158 H   0  0  0  0  0  0  0  0  0  0  0  0
    0.9547    1.2072    1.8460 H   0  0  0  0  0  0  0  0  0  0  0  0
    2.6731    0.5367    0.8482 H   0  0  0  0  0  0  0  0  0  0  0  0
  1  2  1  0  0  0  0
  1  3  2  0  0  0  0
  1  4  1  0  0  0  0
  2  5  1  0  0  0  0
  2  6  1  0  0  0  0
  2  7  1  0  0  0  0
  4  8  1  0  0  0  0
M  END
>  <DRUGBANK_ID>
DB03166

>  <SECONDARY_ACCESSION_NUMBERS>
EXPT00423; DB04184

>  <COMMON_NAME>
Acetic acid

>  <CAS_NUMBER>
64-19-7

>  <UNII>
Q40Q9N063P

>  <SYNONYMS>
Acetic acid; Acetic acid, glacial; Aceticum acidum; acide acétique; ácido acético; Essigsäure; Ethanoat; Ethanoate; Ethanoic acid; Ethoic acid; Ethylic acid; Glacial acetic acid; HOAc; Methanecarboxylic acid; Vinegar

$$$$
