201
 OpenBabel10282417103D

 24 25  0  0  0  0  0  0  0  0999 V2000
   -0.5356   -2.5185   -0.0053 O   0  0  0  0  0  0  0  0  0  0  0  0
    3.0430    0.4207   -0.0116 O   0  0  0  0  0  0  0  0  0  0  0  0
    0.9225    1.3040    0.0070 N   0  0  0  0  0  0  0  0  0  0  0  0
   -2.2718   -0.0836   -0.0034 N   0  0  0  0  0  0  0  0  0  0  0  0
    1.2780   -1.0651    0.0061 N   0  0  0  0  0  0  0  0  0  0  0  0
   -1.4263    1.9727   -0.0064 N   0  0  0  0  0  0  0  0  0  0  0  0
   -0.9137   -0.2238   -0.0063 C   0  0  0  0  0  0  0  0  0  0  0  0
   -0.4265    1.0481   -0.0022 C   0  0  0  0  0  0  0  0  0  0  0  0
   -0.0844   -1.3776   -0.0023 C   0  0  0  0  0  0  0  0  0  0  0  0
    1.8220    0.2357   -0.0003 C   0  0  0  0  0  0  0  0  0  0  0  0
   -2.5352    1.2602   -0.0104 C   0  0  0  0  0  0  0  0  0  0  0  0
    1.4381    2.6585    0.0135 C   0  0  0  0  0  0  0  0  0  0  0  0
   -3.2466   -1.1443    0.0327 C   0  0  0  0  0  0  0  0  0  0  0  0
    2.2242   -2.1629    0.0217 C   0  0  0  0  0  0  0  0  0  0  0  0
   -3.5393    1.6653   -0.0132 H   0  0  0  0  0  0  0  0  0  0  0  0
    2.0802    2.7941    0.8898 H   0  0  0  0  0  0  0  0  0  0  0  0
    2.0392    2.8147   -0.8875 H   0  0  0  0  0  0  0  0  0  0  0  0
    0.6341    3.3993    0.0427 H   0  0  0  0  0  0  0  0  0  0  0  0
   -3.0983   -1.7892   -0.8369 H   0  0  0  0  0  0  0  0  0  0  0  0
   -3.1088   -1.7072    0.9595 H   0  0  0  0  0  0  0  0  0  0  0  0
   -4.2524   -0.7174    0.0074 H   0  0  0  0  0  0  0  0  0  0  0  0
    2.8684   -2.0935   -0.8605 H   0  0  0  0  0  0  0  0  0  0  0  0
    2.8489   -2.0807    0.9170 H   0  0  0  0  0  0  0  0  0  0  0  0
    1.7319   -3.1387    0.0243 H   0  0  0  0  0  0  0  0  0  0  0  0
  1  9  2  0  0  0  0
  2 10  2  0  0  0  0
  3  8  1  0  0  0  0
  3 10  1  0  0  0  0
  3 12  1  0  0  0  0
  4  7  1  0  0  0  0
  4 11  1  0  0  0  0
  4 13  1  0  0  0  0
  5  9  1  0  0  0  0
  5 10  1  0  0  0  0
  5 14  1  0  0  0  0
  6  8  1  0  0  0  0
  6 11  2  0  0  0  0
  7  8  2  0  0  0  0
  7  9  1  0  0  0  0
 11 15  1  0  0  0  0
 12 16  1  0  0  0  0
 12 17  1  0  0  0  0
 12 18  1  0  0  0  0
 13 19  1  0  0  0  0
 13 20  1  0  0  0  0
 13 21  1  0  0  0  0
 14 22  1  0  0  0  0
 14 23  1  0  0  0  0
 14 24  1  0  0  0  0
M  END
>  <DRUGBANK_ID>
DB00201

>  <SECONDARY_ACCESSION_NUMBERS>
APRD00673

>  <COMMON_NAME>
Caffeine

>  <CAS_NUMBER>
58-08-2

>  <UNII>
3G6A5W338E

>  <SYNONYMS>
1-methyltheobromine; 1,3,7-trimethyl-2,6-dioxopurine; 1,3,7-trimethylpurine-2,6-dione; 1,3,7-trimethylxanthine; 3,7-Dihydro-1,3,7-trimethyl-1H-purin-2,6-dion; 7-methyltheophylline; Anhydrous caffeine; Cafeína; Caféine; Caffeine; Caffeinum; Coffein; Coffeinum; Guaranine; Koffein; Mateína; Methyltheobromine; Teína; Thein; Theine

$$$$
