
 OpenBabel10282417243D

 85 91  0  0  1  0  0  0  0  0999 V2000
    1.3809   -2.0173   -2.0065 H   0  0  0  0  0  0  0  0  0  0  0  0
    2.1617   -2.5725   -2.9609 C   0  0  1  0  0  0  0  0  0  0  0  0
    2.8241   -4.7955   -4.1525 C   0  0  0  0  0  0  0  0  0  0  0  0
    4.1199   -6.3222   -5.2280 C   0  0  0  0  0  0  0  0  0  0  0  0
    5.4503   -7.6195   -6.0197 C   0  0  0  0  0  0  0  0  0  0  0  0
    7.1491   -7.6529   -5.9754 C   0  0  0  0  0  0  0  0  0  0  0  0
    7.3688   -6.4404   -5.5221 C   0  0  0  0  0  0  0  0  0  0  0  0
    8.4476   -6.0359   -4.8122 O   0  0  0  0  0  0  0  0  0  0  0  0
    8.2146   -5.6008   -3.5150 C   0  0  0  0  0  0  0  0  0  0  0  0
    6.9585   -5.6185   -2.9082 C   0  0  0  0  0  0  0  0  0  0  0  0
    6.7140   -4.8984   -1.7333 C   0  0  0  0  0  0  0  0  0  0  0  0
    5.3893   -4.8432   -1.0933 C   0  0  0  0  0  0  0  0  0  0  0  0
    4.6337   -6.1356   -0.9245 C   0  0  1  0  0  0  0  0  0  0  0  0
    4.5801   -6.6611   -1.8899 H   0  0  0  0  0  0  0  0  0  0  0  0
    5.3885   -6.9249    0.0710 N   0  0  0  0  0  0  0  0  0  0  0  0
    6.6683   -7.3478   -0.4691 C   0  0  0  0  0  0  0  0  0  0  0  0
    4.6143   -8.1096    0.4389 C   0  0  0  0  0  0  0  0  0  0  0  0
    3.3920   -7.6867    1.2367 C   0  0  0  0  0  0  0  0  0  0  0  0
    2.6284   -6.6123    0.5334 C   0  0  0  0  0  0  0  0  0  0  0  0
    1.3194   -6.3517    0.9230 C   0  0  0  0  0  0  0  0  0  0  0  0
    0.5494   -5.3704    0.3247 C   0  0  0  0  0  0  0  0  0  0  0  0
   -0.7359   -5.1296    0.7072 O   0  0  0  0  0  0  0  0  0  0  0  0
   -1.3150   -5.8881    1.7443 C   0  0  0  0  0  0  0  0  0  0  0  0
    1.0893   -4.6327   -0.7141 C   0  0  0  0  0  0  0  0  0  0  0  0
    0.4108   -3.6454   -1.3873 O   0  0  0  0  0  0  0  0  0  0  0  0
   -0.9114   -3.3290   -0.9726 C   0  0  0  0  0  0  0  0  0  0  0  0
    2.4170   -4.9311   -1.0920 C   0  0  0  0  0  0  0  0  0  0  0  0
    2.9744   -4.4404   -2.2247 O   0  0  0  0  0  0  0  0  0  0  0  0
    3.8181   -3.0826   -2.1341 C   0  0  0  0  0  0  0  0  0  0  0  0
    3.2053   -2.4935   -1.1236 C   0  0  0  0  0  0  0  0  0  0  0  0
    3.0841   -1.2647   -1.7665 C   0  0  0  0  0  0  0  0  0  0  0  0
    3.4628   -0.0483   -2.6993 C   0  0  0  0  0  0  0  0  0  0  0  0
    3.2547    1.3941   -2.5900 C   0  0  0  0  0  0  0  0  0  0  0  0
    2.1740    1.2929   -1.6763 C   0  0  0  0  0  0  0  0  0  0  0  0
    1.8911   -0.7269   -1.6317 N   0  0  0  0  0  0  0  0  0  0  0  0
    2.0143    0.7832   -0.0149 C   0  0  0  0  0  0  0  0  0  0  0  0
    3.7715   -0.7462   -3.6920 C   0  0  0  0  0  0  0  0  0  0  0  0
    4.1310   -2.1050   -3.5174 C   0  0  0  0  0  0  0  0  0  0  0  0
    4.1503   -2.5450   -4.8130 O   0  0  0  0  0  0  0  0  0  0  0  0
    4.3176   -3.7860   -4.5004 C   0  0  0  0  0  0  0  0  0  0  0  0
    3.2133   -5.8731   -0.4735 C   0  0  0  0  0  0  0  0  0  0  0  0
    7.7748   -4.4361   -0.9910 C   0  0  0  0  0  0  0  0  0  0  0  0
    9.0622   -4.6942   -1.4504 C   0  0  0  0  0  0  0  0  0  0  0  0
    9.2876   -5.1274   -2.7718 C   0  0  0  0  0  0  0  0  0  0  0  0
   10.5630   -5.0548   -3.2849 O   0  0  0  0  0  0  0  0  0  0  0  0
    6.3183   -5.5628   -5.7951 C   0  0  0  0  0  0  0  0  0  0  0  0
    5.0114   -5.9138   -6.2091 C   0  0  0  0  0  0  0  0  0  0  0  0
    2.6628   -5.4300   -5.5711 H   0  0  0  0  0  0  0  0  0  0  0  0
    2.8676   -6.0796   -5.0064 H   0  0  0  0  0  0  0  0  0  0  0  0
    5.9223   -8.7572   -7.0094 H   0  0  0  0  0  0  0  0  0  0  0  0
    8.0677   -8.3709   -5.9191 H   0  0  0  0  0  0  0  0  0  0  0  0
    6.1534   -6.2042   -3.3384 H   0  0  0  0  0  0  0  0  0  0  0  0
    4.9696   -4.3250   -1.8668 H   0  0  0  0  0  0  0  0  0  0  0  0
    5.3177   -4.1947   -0.2236 H   0  0  0  0  0  0  0  0  0  0  0  0
    6.5492   -7.9275   -1.3794 H   0  0  0  0  0  0  0  0  0  0  0  0
    7.3050   -6.5289   -0.7030 H   0  0  0  0  0  0  0  0  0  0  0  0
    7.2707   -7.8707    0.2558 H   0  0  0  0  0  0  0  0  0  0  0  0
    4.2970   -8.6633   -0.4522 H   0  0  0  0  0  0  0  0  0  0  0  0
    5.2135   -8.7939    1.0476 H   0  0  0  0  0  0  0  0  0  0  0  0
    2.7298   -8.5455    1.3819 H   0  0  0  0  0  0  0  0  0  0  0  0
    3.7027   -7.3155    2.2170 H   0  0  0  0  0  0  0  0  0  0  0  0
    0.8950   -6.9420    1.7172 H   0  0  0  0  0  0  0  0  0  0  0  0
   -1.3419   -6.9404    1.4674 H   0  0  0  0  0  0  0  0  0  0  0  0
   -0.7563   -5.7484    2.6676 H   0  0  0  0  0  0  0  0  0  0  0  0
   -2.3435   -5.5513    1.9111 H   0  0  0  0  0  0  0  0  0  0  0  0
   -1.5439   -4.2040   -1.1308 H   0  0  0  0  0  0  0  0  0  0  0  0
   -0.9381   -3.0153    0.0748 H   0  0  0  0  0  0  0  0  0  0  0  0
   -1.3218   -2.5136   -1.5703 H   0  0  0  0  0  0  0  0  0  0  0  0
    2.3374   -2.6280   -0.3921 H   0  0  0  0  0  0  0  0  0  0  0  0
    2.8381    1.8354   -3.4757 H   0  0  0  0  0  0  0  0  0  0  0  0
    4.2104    1.8281   -2.2925 H   0  0  0  0  0  0  0  0  0  0  0  0
    1.1948    1.8508   -1.7109 H   0  0  0  0  0  0  0  0  0  0  0  0
    2.4966    2.7450   -1.3038 H   0  0  0  0  0  0  0  0  0  0  0  0
    1.0082    1.8151    0.5127 H   0  0  0  0  0  0  0  0  0  0  0  0
    2.2237    1.3056    1.4424 H   0  0  0  0  0  0  0  0  0  0  0  0
    2.3385    2.3069    0.4182 H   0  0  0  0  0  0  0  0  0  0  0  0
    3.9509   -0.1799   -4.5146 H   0  0  0  0  0  0  0  0  0  0  0  0
    4.6364   -4.5981   -3.7249 H   0  0  0  0  0  0  0  0  0  0  0  0
    3.0021   -3.3724   -4.1693 H   0  0  0  0  0  0  0  0  0  0  0  0
    4.3130   -4.3133   -5.4028 H   0  0  0  0  0  0  0  0  0  0  0  0
    7.5600   -3.9768   -0.0311 H   0  0  0  0  0  0  0  0  0  0  0  0
    9.8768   -4.5277   -0.7611 H   0  0  0  0  0  0  0  0  0  0  0  0
   10.6518   -5.3396   -4.2193 H   0  0  0  0  0  0  0  0  0  0  0  0
    6.3736   -4.5351   -5.6076 H   0  0  0  0  0  0  0  0  0  0  0  0
    4.2113   -5.3955   -6.5680 H   0  0  0  0  0  0  0  0  0  0  0  0
  2  1  1  1  0  0  0
  2  3  1  0  0  0  0
  2 31  1  0  0  0  0
  2 35  1  0  0  0  0
  3  4  1  0  0  0  0
  3 48  1  0  0  0  0
  3 49  1  0  0  0  0
  4  5  2  0  0  0  0
  4 47  1  0  0  0  0
  5  6  1  0  0  0  0
  5 50  1  0  0  0  0
  6  7  2  0  0  0  0
  6 51  1  0  0  0  0
  7  8  1  0  0  0  0
  7 46  1  0  0  0  0
  8  9  1  0  0  0  0
  9 10  2  0  0  0  0
  9 44  1  0  0  0  0
 10 11  1  0  0  0  0
 10 52  1  0  0  0  0
 11 12  1  0  0  0  0
 11 42  2  0  0  0  0
 12 53  1  0  0  0  0
 12 54  1  0  0  0  0
 13 12  1  0  0  0  0
 13 14  1  6  0  0  0
 13 15  1  0  0  0  0
 13 41  1  0  0  0  0
 15 16  1  0  0  0  0
 15 17  1  0  0  0  0
 16 55  1  0  0  0  0
 16 56  1  0  0  0  0
 16 57  1  0  0  0  0
 17 18  1  0  0  0  0
 17 58  1  0  0  0  0
 17 59  1  0  0  0  0
 18 19  1  0  0  0  0
 18 60  1  0  0  0  0
 18 61  1  0  0  0  0
 19 20  2  0  0  0  0
 19 41  1  0  0  0  0
 20 21  1  0  0  0  0
 20 62  1  0  0  0  0
 21 22  1  0  0  0  0
 21 24  2  0  0  0  0
 22 23  1  0  0  0  0
 23 63  1  0  0  0  0
 23 64  1  0  0  0  0
 23 65  1  0  0  0  0
 24 25  1  0  0  0  0
 24 27  1  0  0  0  0
 25 26  1  0  0  0  0
 26 66  1  0  0  0  0
 26 67  1  0  0  0  0
 26 68  1  0  0  0  0
 27 28  1  0  0  0  0
 27 41  2  0  0  0  0
 28 29  1  0  0  0  0
 29 30  2  0  0  0  0
 29 38  1  0  0  0  0
 30 31  1  0  0  0  0
 30 69  1  0  0  0  0
 31 32  2  0  0  0  0
 32 33  1  0  0  0  0
 32 37  1  0  0  0  0
 33 34  1  0  0  0  0
 33 70  1  0  0  0  0
 33 71  1  0  0  0  0
 34 35  1  0  0  0  0
 34 72  1  0  0  0  0
 34 73  1  0  0  0  0
 35 36  1  0  0  0  0
 36 74  1  0  0  0  0
 36 75  1  0  0  0  0
 36 76  1  0  0  0  0
 37 38  2  0  0  0  0
 37 77  1  0  0  0  0
 38 39  1  0  0  0  0
 39 40  1  0  0  0  0
 40 78  1  0  0  0  0
 40 79  1  0  0  0  0
 40 80  1  0  0  0  0
 42 43  1  0  0  0  0
 42 81  1  0  0  0  0
 43 44  2  0  0  0  0
 43 82  1  0  0  0  0
 44 45  1  0  0  0  0
 45 83  1  0  0  0  0
 46 47  2  0  0  0  0
 46 84  1  0  0  0  0
 47 85  1  0  0  0  0
M  END
>  <DRUGBANK_ID>
DB18146

>  <COMMON_NAME>
Berbamine

>  <CAS_NUMBER>
478-61-5

>  <UNII>
V5KM4XJ0WM

>  <SYNONYMS>
(+)-berbamine; 16h-1,24:6,9-dietheno-11,15-metheno-2h-pyrido(2',3':17,18)(1,11)dioxacycloeicosino(2,3,4-ij)isoquinolin-12-ol, 3,4,4a,5,16a,17,18,19-octahydro-21,22,26-trimethoxy-4,17-dimethyl-, (4as-(4ar*,16as*))-; 16h-1,24:6,9-dietheno-11,15-metheno-2h-pyrido(2',3':17,18)(1,11)dioxacycloeicosino(2,3,4-ij)isoquinolin-12-ol, 3,4,4a,5,16a,17,18,19-octahydro-21,22,26-trimethoxy-4,17-dimethyl-, (4as,16ar)-; 6,6',7-trimethoxy-2,2'-dimethylberbaman-12-ol; Berbaman-12-ol, 6,6',7-trimethoxy-2,2'-dimethyl-; Berbamine, (+)-; Berbenine; D-berbamine

$$$$
