
 OpenBabel10282417123D

 23 23  0  0  0  0  0  0  0  0999 V2000
    1.0885    0.0387    0.0035 C   0  0  0  0  0  0  0  0  0  0  0  0
    0.5873    0.0267    1.3362 O   0  0  0  0  0  0  0  0  0  0  0  0
    0.9271   -1.1413    1.9814 C   0  0  0  0  0  0  0  0  0  0  0  0
    2.2222   -1.5338    1.9407 N   0  0  0  0  0  0  0  0  0  0  0  0
    2.5037   -2.6657    2.6265 C   0  0  0  0  0  0  0  0  0  0  0  0
    1.5371   -3.3843    3.3072 C   0  0  0  0  0  0  0  0  0  0  0  0
    0.2491   -2.9863    3.3649 N   0  0  0  0  0  0  0  0  0  0  0  0
   -0.0511   -1.8301    2.7055 C   0  0  0  0  0  0  0  0  0  0  0  0
   -1.4858   -1.3542    2.7608 C   0  0  0  0  0  0  0  0  0  0  0  0
   -2.4055   -2.3667    2.0785 C   0  0  0  0  0  0  0  0  0  0  0  0
   -1.9216   -1.1157    4.2068 C   0  0  0  0  0  0  0  0  0  0  0  0
    0.7140    0.9460   -0.4814 H   0  0  0  0  0  0  0  0  0  0  0  0
    0.7106   -0.8198   -0.5641 H   0  0  0  0  0  0  0  0  0  0  0  0
    2.1820    0.0728   -0.0242 H   0  0  0  0  0  0  0  0  0  0  0  0
    3.5387   -2.9854    2.6154 H   0  0  0  0  0  0  0  0  0  0  0  0
    1.7732   -4.3057    3.8280 H   0  0  0  0  0  0  0  0  0  0  0  0
   -1.5902   -0.4013    2.2290 H   0  0  0  0  0  0  0  0  0  0  0  0
   -2.3903   -3.3352    2.5909 H   0  0  0  0  0  0  0  0  0  0  0  0
   -3.4392   -2.0060    2.0730 H   0  0  0  0  0  0  0  0  0  0  0  0
   -2.1004   -2.5347    1.0395 H   0  0  0  0  0  0  0  0  0  0  0  0
   -1.2699   -0.3835    4.6965 H   0  0  0  0  0  0  0  0  0  0  0  0
   -2.9463   -0.7309    4.2409 H   0  0  0  0  0  0  0  0  0  0  0  0
   -1.8904   -2.0380    4.7974 H   0  0  0  0  0  0  0  0  0  0  0  0
  1  2  1  0  0  0  0
  1 12  1  0  0  0  0
  1 13  1  0  0  0  0
  1 14  1  0  0  0  0
  2  3  1  0  0  0  0
  3  4  2  0  0  0  0
  3  8  1  0  0  0  0
  4  5  1  0  0  0  0
  5  6  2  0  0  0  0
  5 15  1  0  0  0  0
  6  7  1  0  0  0  0
  6 16  1  0  0  0  0
  7  8  2  0  0  0  0
  8  9  1  0  0  0  0
  9 10  1  0  0  0  0
  9 11  1  0  0  0  0
  9 17  1  0  0  0  0
 10 18  1  0  0  0  0
 10 19  1  0  0  0  0
 10 20  1  0  0  0  0
 11 21  1  0  0  0  0
 11 22  1  0  0  0  0
 11 23  1  0  0  0  0
M  END
>  <DRUGBANK_ID>
DB01760

>  <SECONDARY_ACCESSION_NUMBERS>
EXPT01926

>  <COMMON_NAME>
2-Methoxy-3-Isopropylpyrazine

>  <CAS_NUMBER>
25773-40-4

>  <UNII>
1FL7L111A6

$$$$
