
 OpenBabel10282417203D

 40 21  0  0  0  0  0  0  0  0999 V2000
    1.0517    0.0620   -0.0590 N   0  3  0  0  0  0  0  0  0  0  0  0
    0.4386   -0.9868   -0.2252 O   0  0  0  0  0  0  0  0  0  0  0  0
    0.3667    1.2338    0.1266 O   0  5  0  0  0  0  0  0  0  0  0  0
    2.4217    0.0620   -0.0590 O   0  5  0  0  0  0  0  0  0  0  0  0
    1.0516   -0.0787   -0.0340 N   0  3  0  0  0  0  0  0  0  0  0  0
    0.4385    0.8077    0.5509 O   0  0  0  0  0  0  0  0  0  0  0  0
    0.3666   -1.0690   -0.6874 O   0  5  0  0  0  0  0  0  0  0  0  0
    2.4216   -0.0787   -0.0340 O   0  5  0  0  0  0  0  0  0  0  0  0
    1.0845    0.0525    0.0098 N   0  3  0  0  0  0  0  0  0  0  0  0
    0.4714   -0.7668   -0.6657 O   0  0  0  0  0  0  0  0  0  0  0  0
    0.3995    0.9680    0.7645 O   0  5  0  0  0  0  0  0  0  0  0  0
    2.4545    0.0525    0.0098 O   0  5  0  0  0  0  0  0  0  0  0  0
    0.9659    0.0682    0.0647 N   0  3  0  0  0  0  0  0  0  0  0  0
    0.3528   -0.9936    0.0567 O   0  0  0  0  0  0  0  0  0  0  0  0
    0.2809    1.2546    0.0737 O   0  5  0  0  0  0  0  0  0  0  0  0
    2.3359    0.0682    0.0647 O   0  5  0  0  0  0  0  0  0  0  0  0
    0.9389    0.0304   -0.0731 O   0  5  0  0  0  0  0  0  0  0  0  0
    1.0722    0.0608    0.0331 O   0  5  0  0  0  0  0  0  0  0  0  0
    1.0985   -0.0119   -0.0124 O   0  5  0  0  0  0  0  0  0  0  0  0
    0.9311    0.0459   -0.0561 O   0  5  0  0  0  0  0  0  0  0  0  0
    0.9682   -0.0646    0.0694 O   0  5  0  0  0  0  0  0  0  0  0  0
    0.9129    0.0463    0.0167 O   0  5  0  0  0  0  0  0  0  0  0  0
    1.0959   -0.0278   -0.0059 O   0  5  0  0  0  0  0  0  0  0  0  0
    1.0511   -0.0858    0.0050 O   0  5  0  0  0  0  0  0  0  0  0  0
    1.0332   -0.0609   -0.0721 O   0  5  0  0  0  0  0  0  0  0  0  0
    1.0631    0.0249   -0.0734 O   0  6  0  0  0  0  0  0  0  0  0  0
    0.9771    0.0348   -0.0909 Bi  0  1  0  0  0  0  0  0  0  0  0  0
    0.9429   -0.0235   -0.0787 Bi  0  1  0  0  0  0  0  0  0  0  0  0
    1.0391    0.0639   -0.0662 Bi  0  1  0  0  0  0  0  0  0  0  0  0
    1.0034    0.0702   -0.0712 Bi  0  1  0  0  0  0  0  0  0  0  0  0
    1.0338    0.0557   -0.0759 Bi  0  1  0  0  0  0  0  0  0  0  0  0
    1.9389    0.0304   -0.0731 H   0  0  0  0  0  0  0  0  0  0  0  0
    2.0722    0.0608    0.0331 H   0  0  0  0  0  0  0  0  0  0  0  0
    2.0985   -0.0119   -0.0124 H   0  0  0  0  0  0  0  0  0  0  0  0
    1.9311    0.0459   -0.0561 H   0  0  0  0  0  0  0  0  0  0  0  0
    1.9682   -0.0646    0.0694 H   0  0  0  0  0  0  0  0  0  0  0  0
    1.9129    0.0463    0.0167 H   0  0  0  0  0  0  0  0  0  0  0  0
    2.0959   -0.0278   -0.0059 H   0  0  0  0  0  0  0  0  0  0  0  0
    2.0511   -0.0858    0.0050 H   0  0  0  0  0  0  0  0  0  0  0  0
    2.0332   -0.0609   -0.0721 H   0  0  0  0  0  0  0  0  0  0  0  0
  1  2  2  0  0  0  0
  1  3  1  0  0  0  0
  1  4  1  0  0  0  0
  5  6  2  0  0  0  0
  5  7  1  0  0  0  0
  5  8  1  0  0  0  0
  9 10  2  0  0  0  0
  9 11  1  0  0  0  0
  9 12  1  0  0  0  0
 13 14  2  0  0  0  0
 13 15  1  0  0  0  0
 13 16  1  0  0  0  0
 17 32  1  0  0  0  0
 18 33  1  0  0  0  0
 19 34  1  0  0  0  0
 20 35  1  0  0  0  0
 21 36  1  0  0  0  0
 22 37  1  0  0  0  0
 23 38  1  0  0  0  0
 24 39  1  0  0  0  0
 25 40  1  0  0  0  0
M  CHG  8   1   1   3  -1   4  -1   5   1   7  -1   8  -1   9   1  11  -1
M  CHG  8  12  -1  13   1  15  -1  16  -1  17  -1  18  -1  19  -1  20  -1
M  CHG  8  21  -1  22  -1  23  -1  24  -1  25  -1  26  -2  27   3  28   3
M  CHG  3  29   3  30   3  31   3
M  END
>  <DRUGBANK_ID>
DB13209

>  <COMMON_NAME>
Bismuth subnitrate

>  <CAS_NUMBER>
1304-85-4

>  <UNII>
H19J064BA5

>  <SYNONYMS>
Bismuth hydroxide nitrate oxide; Bismuth nitrate, basic; Bismuth subnitrate; Bismuthum subnitricum

$$$$
