EED
 OpenBabel10282417163D

 51 54  0  0  0  0  0  0  0  0999 V2000
    0.2219    0.3109    0.7551 C   0  0  2  0  0  0  0  0  0  0  0  0
    1.7407    0.2653    0.4896 C   0  0  0  0  0  0  0  0  0  0  0  0
    2.5226    1.4398    0.5184 C   0  0  0  0  0  0  0  0  0  0  0  0
    3.8722    1.4500    0.1287 C   0  0  0  0  0  0  0  0  0  0  0  0
    4.4593    0.2468   -0.2270 C   0  0  0  0  0  0  0  0  0  0  0  0
    5.7794    0.2106   -0.6049 O   0  0  0  0  0  0  0  0  0  0  0  0
    3.7392   -0.9313   -0.2006 C   0  0  0  0  0  0  0  0  0  0  0  0
    2.3736   -0.9532    0.1788 C   0  0  0  0  0  0  0  0  0  0  0  0
    1.6292   -2.2689    0.1641 C   0  0  0  0  0  0  0  0  0  0  0  0
    0.1788   -2.2355    0.7304 C   0  0  0  0  0  0  0  0  0  0  0  0
   -0.5175   -0.9588    0.2332 C   0  0  1  0  0  0  0  0  0  0  0  0
   -2.0748   -0.7863    0.3912 C   0  0  2  0  0  0  0  0  0  0  0  0
   -3.0053   -1.8565   -0.1459 C   0  0  0  0  0  0  0  0  0  0  0  0
   -4.4137   -1.2446    0.0510 C   0  0  0  0  0  0  0  0  0  0  0  0
   -4.2205    0.2322    0.4967 C   0  0  2  0  0  0  0  0  0  0  0  0
   -5.3080    1.0484    0.0611 O   0  0  0  0  0  0  0  0  0  0  0  0
   -2.8147    0.5714   -0.1000 C   0  0  2  0  0  0  0  0  0  0  0  0
   -3.2770    0.9563   -1.5700 C   0  0  0  0  0  0  0  0  0  0  0  0
   -2.0091    1.7048    0.5507 C   0  0  0  0  0  0  0  0  0  0  0  0
   -0.4693    1.6496    0.2649 C   0  0  2  0  0  0  0  0  0  0  0  0
    0.0013    2.1184   -1.1659 C   0  0  0  0  0  0  0  0  0  0  0  0
   -0.6558    1.7034   -2.3587 O   0  0  0  0  0  0  0  0  0  0  0  0
   -0.6636    0.2987   -2.5235 C   0  0  0  0  0  0  0  0  0  0  0  0
    0.1412    0.2888    1.8555 H   0  0  0  0  0  0  0  0  0  0  0  0
   -0.2805   -1.1408   -0.8035 H   0  0  0  0  0  0  0  0  0  0  0  0
   -2.1995   -0.8178    1.4894 H   0  0  0  0  0  0  0  0  0  0  0  0
   -4.2118    0.3128    1.5852 H   0  0  0  0  0  0  0  0  0  0  0  0
   -0.0627    2.4157    0.9484 H   0  0  0  0  0  0  0  0  0  0  0  0
    2.0874    2.4051    0.7669 H   0  0  0  0  0  0  0  0  0  0  0  0
    4.4088    2.3860    0.0944 H   0  0  0  0  0  0  0  0  0  0  0  0
    6.1481    1.0957   -0.5361 H   0  0  0  0  0  0  0  0  0  0  0  0
    4.2377   -1.8579   -0.4935 H   0  0  0  0  0  0  0  0  0  0  0  0
    1.5901   -2.5980   -0.8860 H   0  0  0  0  0  0  0  0  0  0  0  0
    2.2101   -3.0216    0.7096 H   0  0  0  0  0  0  0  0  0  0  0  0
   -0.3428   -3.1182    0.3360 H   0  0  0  0  0  0  0  0  0  0  0  0
    0.1833   -2.3087    1.8204 H   0  0  0  0  0  0  0  0  0  0  0  0
   -2.7993   -2.0382   -1.2074 H   0  0  0  0  0  0  0  0  0  0  0  0
   -2.9096   -2.8072    0.3855 H   0  0  0  0  0  0  0  0  0  0  0  0
   -4.9889   -1.3312   -0.8800 H   0  0  0  0  0  0  0  0  0  0  0  0
   -4.9792   -1.7829    0.8145 H   0  0  0  0  0  0  0  0  0  0  0  0
   -5.4377    0.9584   -0.9010 H   0  0  0  0  0  0  0  0  0  0  0  0
   -3.9063    0.1803   -2.0187 H   0  0  0  0  0  0  0  0  0  0  0  0
   -3.8294    1.9069   -1.5362 H   0  0  0  0  0  0  0  0  0  0  0  0
   -2.6325    1.2028   -2.3894 H   0  0  0  0  0  0  0  0  0  0  0  0
   -2.1359    1.6230    1.6432 H   0  0  0  0  0  0  0  0  0  0  0  0
   -2.4058    2.6930    0.2934 H   0  0  0  0  0  0  0  0  0  0  0  0
   -0.0299    3.2129   -1.1676 H   0  0  0  0  0  0  0  0  0  0  0  0
    1.0405    1.8573   -1.3460 H   0  0  0  0  0  0  0  0  0  0  0  0
    0.3225   -0.1436   -2.6242 H   0  0  0  0  0  0  0  0  0  0  0  0
   -1.1514   -0.0255   -1.6415 H   0  0  0  0  0  0  0  0  0  0  0  0
   -1.3692   -0.0971   -3.2626 H   0  0  0  0  0  0  0  0  0  0  0  0
  1 20  1  0  0  0  0
  1 11  1  0  0  0  0
  1  2  1  0  0  0  0
  1 24  1  1  0  0  0
  2  3  2  0  0  0  0
  2  8  1  0  0  0  0
  3  4  1  0  0  0  0
  3 29  1  0  0  0  0
  4  5  2  0  0  0  0
  4 30  1  0  0  0  0
  5  7  1  0  0  0  0
  5  6  1  0  0  0  0
  6 31  1  0  0  0  0
  7  8  2  0  0  0  0
  7 32  1  0  0  0  0
  8  9  1  0  0  0  0
  9 10  1  0  0  0  0
  9 33  1  0  0  0  0
  9 34  1  0  0  0  0
 10 11  1  0  0  0  0
 10 35  1  0  0  0  0
 10 36  1  0  0  0  0
 11 12  1  0  0  0  0
 11 25  1  6  0  0  0
 12 17  1  0  0  0  0
 12 13  1  0  0  0  0
 12 26  1  1  0  0  0
 13 14  1  0  0  0  0
 13 37  1  0  0  0  0
 13 38  1  0  0  0  0
 14 15  1  0  0  0  0
 14 39  1  0  0  0  0
 14 40  1  0  0  0  0
 15 16  1  0  0  0  0
 15 17  1  0  0  0  0
 15 27  1  1  0  0  0
 16 41  1  0  0  0  0
 17 19  1  0  0  0  0
 17 18  1  6  0  0  0
 18 42  1  0  0  0  0
 18 43  1  0  0  0  0
 18 44  1  0  0  0  0
 19 20  1  0  0  0  0
 19 45  1  0  0  0  0
 19 46  1  0  0  0  0
 20 28  1  1  0  0  0
 20 21  1  0  0  0  0
 21 22  1  0  0  0  0
 21 47  1  0  0  0  0
 21 48  1  0  0  0  0
 22 23  1  0  0  0  0
 23 49  1  0  0  0  0
 23 50  1  0  0  0  0
 23 51  1  0  0  0  0
M  END
>  <DRUGBANK_ID>
DB07707

>  <COMMON_NAME>
(9BETA,11ALPHA,13ALPHA,14BETA,17ALPHA)-11-(METHOXYMETHYL)ESTRA-1(10),2,4-TRIENE-3,17-DIOL

$$$$
