
 OpenBabel10282417153D

 26 26  0  0  0  0  0  0  0  0999 V2000
    1.0390    0.0896    0.1098 N   0  0  0  0  0  0  0  0  0  0  0  0
   -1.4969   -7.0390    0.2630 N   0  0  0  0  0  0  0  0  0  0  0  0
    1.0608   -1.7251   -1.7199 C   0  0  0  0  0  0  0  0  0  0  0  0
    0.5521   -0.3535   -1.2059 C   0  0  0  0  0  0  0  0  0  0  0  0
    0.5982   -2.9164   -0.9254 C   0  0  0  0  0  0  0  0  0  0  0  0
   -0.3077   -3.8269   -1.2765 C   0  0  0  0  0  0  0  0  0  0  0  0
   -0.8175   -4.7762   -0.2761 C   0  0  0  0  0  0  0  0  0  0  0  0
    0.5656   -0.7341    1.2101 C   0  0  0  0  0  0  0  0  0  0  0  0
   -1.3003   -4.3467    0.9698 C   0  0  0  0  0  0  0  0  0  0  0  0
   -0.9224   -6.1289   -0.5608 C   0  0  0  0  0  0  0  0  0  0  0  0
   -1.8994   -5.2559    1.8379 C   0  0  0  0  0  0  0  0  0  0  0  0
   -1.9899   -6.5753    1.4328 C   0  0  0  0  0  0  0  0  0  0  0  0
    2.0581    0.0884    0.1088 H   0  0  0  0  0  0  0  0  0  0  0  0
    0.7377   -1.8350   -2.7616 H   0  0  0  0  0  0  0  0  0  0  0  0
    2.1563   -1.7172   -1.7269 H   0  0  0  0  0  0  0  0  0  0  0  0
   -0.5445   -0.3090   -1.2335 H   0  0  0  0  0  0  0  0  0  0  0  0
    0.8873    0.4066   -1.9258 H   0  0  0  0  0  0  0  0  0  0  0  0
    1.0558   -3.0547    0.0477 H   0  0  0  0  0  0  0  0  0  0  0  0
   -0.7462   -3.8565   -2.2710 H   0  0  0  0  0  0  0  0  0  0  0  0
    1.1219   -1.6659    1.2573 H   0  0  0  0  0  0  0  0  0  0  0  0
    0.7661   -0.2685    2.1767 H   0  0  0  0  0  0  0  0  0  0  0  0
   -0.5083   -0.9361    1.1381 H   0  0  0  0  0  0  0  0  0  0  0  0
   -1.2394   -3.3028    1.2664 H   0  0  0  0  0  0  0  0  0  0  0  0
   -0.5337   -6.5343   -1.4904 H   0  0  0  0  0  0  0  0  0  0  0  0
   -2.3044   -4.9377    2.7925 H   0  0  0  0  0  0  0  0  0  0  0  0
   -2.4847   -7.3165    2.0536 H   0  0  0  0  0  0  0  0  0  0  0  0
  1  4  1  0  0  0  0
  1  8  1  0  0  0  0
  1 13  1  0  0  0  0
  2 10  1  0  0  0  0
  2 12  2  0  0  0  0
  3  4  1  0  0  0  0
  3  5  1  0  0  0  0
  3 14  1  0  0  0  0
  3 15  1  0  0  0  0
  4 16  1  0  0  0  0
  4 17  1  0  0  0  0
  5  6  2  0  0  0  0
  5 18  1  0  0  0  0
  6  7  1  0  0  0  0
  6 19  1  0  0  0  0
  7  9  1  0  0  0  0
  7 10  2  0  0  0  0
  8 20  1  0  0  0  0
  8 21  1  0  0  0  0
  8 22  1  0  0  0  0
  9 11  2  0  0  0  0
  9 23  1  0  0  0  0
 10 24  1  0  0  0  0
 11 12  1  0  0  0  0
 11 25  1  0  0  0  0
 12 26  1  0  0  0  0
M  END
>  <DRUGBANK_ID>
DB05855

>  <COMMON_NAME>
Rivanicline

>  <CAS_NUMBER>
15585-43-0

>  <UNII>
6H35LF645A

>  <SYNONYMS>
(3E)-N-methyl-4-(pyridin-3-yl)but-3-en-1-amine; (E)-metanicotine; (E)-N-Methyl-4-(3-pyridinyl)-3-butene-1-amine; N-methyl-4-(3-pyridinyl)-(3E)-3-buten-1-amine; Rivanicline; trans-metanicotine

$$$$
