
 OpenBabel10282417203D

146156  0  0  1  0  0  0  0  0999 V2000
   -1.4543  -13.8857   -8.8361 C   0  0  0  0  0  0  0  0  0  0  0  0
   -0.6333  -13.5122  -10.0063 C   0  0  0  0  0  0  0  0  0  0  0  0
   -1.2943  -14.3058  -11.0991 C   0  0  0  0  0  0  0  0  0  0  0  0
   -0.6304  -11.9838  -10.1922 C   0  0  1  0  0  0  0  0  0  0  0  0
   -0.0235  -11.1042   -9.0088 C   0  0  0  0  0  0  0  0  0  0  0  0
    0.9523  -10.3960   -9.3005 O   0  0  0  0  0  0  0  0  0  0  0  0
   -0.6556  -10.9772   -7.7534 N   0  0  0  0  0  0  0  0  0  0  0  0
   -1.1619  -12.0022   -6.8493 C   0  0  1  0  0  0  0  0  0  0  0  0
   -0.0295  -12.7977   -6.1511 C   0  0  0  0  0  0  0  0  0  0  0  0
   -0.6346  -13.8494   -5.2335 C   0  0  0  0  0  0  0  0  0  0  0  0
   -1.5275  -13.1487   -4.2227 C   0  0  0  0  0  0  0  0  0  0  0  0
   -2.6378  -12.3166   -4.8605 C   0  0  0  0  0  0  0  0  0  0  0  0
   -2.1828  -11.3477   -5.9541 C   0  0  1  0  0  0  0  0  0  0  0  0
   -1.4742  -10.0628   -5.6529 C   0  0  0  0  0  0  0  0  0  0  0  0
   -0.7751   -9.7047   -7.0191 C   0  0  1  0  0  0  0  0  0  0  0  0
    0.5202   -9.0627   -6.7290 C   0  0  0  0  0  0  0  0  0  0  0  0
    1.3536   -8.5899   -7.7061 N   0  0  0  0  0  0  0  0  0  0  0  0
    2.4636   -8.0867   -7.1109 C   0  0  0  0  0  0  0  0  0  0  0  0
    3.6377   -7.5564   -7.6370 C   0  0  0  0  0  0  0  0  0  0  0  0
    4.5285   -7.0225   -6.7137 C   0  0  0  0  0  0  0  0  0  0  0  0
    4.1395   -7.0313   -5.3624 C   0  0  0  0  0  0  0  0  0  0  0  0
    3.0389   -7.6776   -4.8268 C   0  0  0  0  0  0  0  0  0  0  0  0
    2.1781   -8.1981   -5.7581 C   0  0  0  0  0  0  0  0  0  0  0  0
    1.0009   -8.8198   -5.5322 N   0  0  0  0  0  0  0  0  0  0  0  0
    5.7698   -6.3630   -7.1698 C   0  0  0  0  0  0  0  0  0  0  0  0
    7.0431   -6.8889   -6.8596 C   0  0  0  0  0  0  0  0  0  0  0  0
    8.2088   -6.1407   -7.0796 C   0  0  0  0  0  0  0  0  0  0  0  0
    8.1446   -5.0881   -7.9891 C   0  0  0  0  0  0  0  0  0  0  0  0
    6.8984   -4.5824   -8.3714 C   0  0  0  0  0  0  0  0  0  0  0  0
    5.7211   -5.1115   -7.8136 C   0  0  0  0  0  0  0  0  0  0  0  0
    4.4986   -4.2141   -7.6522 C   0  0  0  0  0  0  0  0  0  0  0  0
    4.5607   -3.1753   -6.4707 C   0  0  0  0  0  0  0  0  0  0  0  0
    5.7506   -3.3028   -5.5306 C   0  0  0  0  0  0  0  0  0  0  0  0
    6.9230   -2.6021   -5.7917 C   0  0  0  0  0  0  0  0  0  0  0  0
    8.1457   -3.1435   -5.3942 C   0  0  0  0  0  0  0  0  0  0  0  0
    8.1919   -4.3934   -4.7526 C   0  0  0  0  0  0  0  0  0  0  0  0
    7.0173   -4.9169   -4.1851 C   0  0  0  0  0  0  0  0  0  0  0  0
    5.7970   -4.3099   -4.5583 C   0  0  0  0  0  0  0  0  0  0  0  0
    7.0812   -6.0818   -3.2742 C   0  0  0  0  0  0  0  0  0  0  0  0
    7.7027   -5.9403   -2.0306 C   0  0  0  0  0  0  0  0  0  0  0  0
    7.8058   -7.0065   -1.1228 C   0  0  0  0  0  0  0  0  0  0  0  0
    7.2054   -8.2267   -1.4398 C   0  0  0  0  0  0  0  0  0  0  0  0
    6.5921   -8.3598   -2.6633 C   0  0  0  0  0  0  0  0  0  0  0  0
    6.6095   -7.3554   -3.6110 C   0  0  0  0  0  0  0  0  0  0  0  0
    6.0418   -9.6058   -2.6649 N   0  0  0  0  0  0  0  0  0  0  0  0
    6.3794  -10.1997   -1.4757 C   0  0  0  0  0  0  0  0  0  0  0  0
    7.1322   -9.3980   -0.7467 N   0  0  0  0  0  0  0  0  0  0  0  0
    5.9090  -11.5455   -1.0632 C   0  0  2  0  0  0  0  0  0  0  0  0
    6.3420  -12.6541   -2.0866 C   0  0  0  0  0  0  0  0  0  0  0  0
    5.2131  -13.6618   -2.0095 C   0  0  2  0  0  0  0  0  0  0  0  0
    4.9683  -14.6781   -3.1412 C   0  0  0  0  0  0  0  0  0  0  0  0
    4.3847  -14.1368   -4.4531 C   0  0  0  0  0  0  0  0  0  0  0  0
    3.1673  -13.2845   -4.2033 C   0  0  0  0  0  0  0  0  0  0  0  0
    3.6492  -12.1383   -3.3351 C   0  0  0  0  0  0  0  0  0  0  0  0
    4.0565  -12.7033   -1.8920 C   0  0  2  0  0  0  0  0  0  0  0  0
    4.4407  -11.6076   -1.0240 N   0  0  0  0  0  0  0  0  0  0  0  0
    3.6504  -10.8111   -0.1641 C   0  0  0  0  0  0  0  0  0  0  0  0
    4.1939   -9.9358    0.5247 O   0  0  0  0  0  0  0  0  0  0  0  0
    2.0520  -11.0408    0.0486 C   0  0  2  0  0  0  0  0  0  0  0  0
    1.1489  -11.0365   -1.2146 C   0  0  0  0  0  0  0  0  0  0  0  0
    1.2114  -12.3708   -1.8726 C   0  0  0  0  0  0  0  0  0  0  0  0
   -0.3427  -10.9699   -1.0820 C   0  0  0  0  0  0  0  0  0  0  0  0
    1.4954  -10.0087    0.9421 N   0  0  0  0  0  0  0  0  0  0  0  0
    0.7785  -10.2204    2.0748 C   0  0  0  0  0  0  0  0  0  0  0  0
    0.2159   -9.2923    2.6748 O   0  0  0  0  0  0  0  0  0  0  0  0
    0.7266  -11.5177    2.4507 O   0  0  0  0  0  0  0  0  0  0  0  0
    0.0296  -11.7740    3.6724 C   0  0  0  0  0  0  0  0  0  0  0  0
    9.4308   -5.2614   -4.9190 C   0  0  0  0  0  0  0  0  0  0  0  0
    9.4004   -6.2638   -6.1357 C   0  0  0  0  0  0  0  0  0  0  0  0
    0.1246  -11.7310  -11.4471 N   0  0  0  0  0  0  0  0  0  0  0  0
   -0.3577  -11.2778  -12.6344 C   0  0  0  0  0  0  0  0  0  0  0  0
    0.3534  -11.2299  -13.6466 O   0  0  0  0  0  0  0  0  0  0  0  0
   -1.6577  -10.9111  -12.5925 O   0  0  0  0  0  0  0  0  0  0  0  0
   -2.1912  -10.4035  -13.8213 C   0  0  0  0  0  0  0  0  0  0  0  0
   -2.4011  -13.3208   -8.8519 H   0  0  0  0  0  0  0  0  0  0  0  0
   -0.7269  -13.6294   -8.1067 H   0  0  0  0  0  0  0  0  0  0  0  0
   -1.6508  -14.9131   -8.5488 H   0  0  0  0  0  0  0  0  0  0  0  0
    0.3979  -13.8507   -9.8315 H   0  0  0  0  0  0  0  0  0  0  0  0
   -2.3100  -13.9292  -11.2630 H   0  0  0  0  0  0  0  0  0  0  0  0
   -0.7169  -14.2732  -12.0161 H   0  0  0  0  0  0  0  0  0  0  0  0
   -1.3760  -15.3493  -10.7666 H   0  0  0  0  0  0  0  0  0  0  0  0
   -1.6429  -11.5918  -10.3326 H   0  0  0  0  0  0  0  0  0  0  0  0
   -1.8907  -12.6456   -7.2840 H   0  0  0  0  0  0  0  0  0  0  0  0
    0.6282  -12.1272   -5.5905 H   0  0  0  0  0  0  0  0  0  0  0  0
    0.6424  -13.3023   -6.8607 H   0  0  0  0  0  0  0  0  0  0  0  0
    0.1602  -14.4108   -4.7278 H   0  0  0  0  0  0  0  0  0  0  0  0
   -1.2111  -14.5854   -5.8107 H   0  0  0  0  0  0  0  0  0  0  0  0
   -1.9507  -13.8874   -3.5357 H   0  0  0  0  0  0  0  0  0  0  0  0
   -0.9116  -12.4734   -3.6410 H   0  0  0  0  0  0  0  0  0  0  0  0
   -3.3341  -13.0343   -5.3213 H   0  0  0  0  0  0  0  0  0  0  0  0
   -3.1997  -11.7792   -4.0942 H   0  0  0  0  0  0  0  0  0  0  0  0
   -3.0723  -11.1001   -6.5567 H   0  0  0  0  0  0  0  0  0  0  0  0
   -2.1626   -9.2796   -5.3289 H   0  0  0  0  0  0  0  0  0  0  0  0
   -0.7596  -10.2495   -4.8432 H   0  0  0  0  0  0  0  0  0  0  0  0
   -1.4083   -9.0434   -7.6203 H   0  0  0  0  0  0  0  0  0  0  0  0
    1.2391   -8.7565   -8.6989 H   0  0  0  0  0  0  0  0  0  0  0  0
    3.8189   -7.4931   -8.7043 H   0  0  0  0  0  0  0  0  0  0  0  0
    4.7000   -6.4973   -4.6301 H   0  0  0  0  0  0  0  0  0  0  0  0
    2.8456   -7.7053   -3.7617 H   0  0  0  0  0  0  0  0  0  0  0  0
    7.1290   -7.8164   -6.3027 H   0  0  0  0  0  0  0  0  0  0  0  0
    9.0466   -4.5440   -8.2559 H   0  0  0  0  0  0  0  0  0  0  0  0
    6.8663   -3.6609   -8.9455 H   0  0  0  0  0  0  0  0  0  0  0  0
    3.5960   -4.8181   -7.5033 H   0  0  0  0  0  0  0  0  0  0  0  0
    4.3041   -3.6971   -8.5998 H   0  0  0  0  0  0  0  0  0  0  0  0
    4.5557   -2.1705   -6.9114 H   0  0  0  0  0  0  0  0  0  0  0  0
    3.6283   -3.2418   -5.8944 H   0  0  0  0  0  0  0  0  0  0  0  0
    6.9084   -1.7308   -6.4393 H   0  0  0  0  0  0  0  0  0  0  0  0
    9.0608   -2.6712   -5.7380 H   0  0  0  0  0  0  0  0  0  0  0  0
    4.8500   -4.6878   -4.1908 H   0  0  0  0  0  0  0  0  0  0  0  0
    8.1524   -4.9846   -1.7759 H   0  0  0  0  0  0  0  0  0  0  0  0
    8.3220   -6.8903   -0.1818 H   0  0  0  0  0  0  0  0  0  0  0  0
    6.2415   -7.6071   -4.5803 H   0  0  0  0  0  0  0  0  0  0  0  0
    5.4517   -9.9807   -3.3936 H   0  0  0  0  0  0  0  0  0  0  0  0
    6.2841  -11.7830   -0.0617 H   0  0  0  0  0  0  0  0  0  0  0  0
    7.3025  -13.1037   -1.8336 H   0  0  0  0  0  0  0  0  0  0  0  0
    6.4127  -12.2696   -3.1097 H   0  0  0  0  0  0  0  0  0  0  0  0
    5.3140  -14.2280   -1.0700 H   0  0  0  0  0  0  0  0  0  0  0  0
    4.2410  -15.4154   -2.7631 H   0  0  0  0  0  0  0  0  0  0  0  0
    5.8890  -15.2192   -3.3576 H   0  0  0  0  0  0  0  0  0  0  0  0
    4.1077  -14.9570   -5.1209 H   0  0  0  0  0  0  0  0  0  0  0  0
    5.1299  -13.5211   -4.9655 H   0  0  0  0  0  0  0  0  0  0  0  0
    2.7411  -12.9038   -5.1369 H   0  0  0  0  0  0  0  0  0  0  0  0
    2.3814  -13.8822   -3.7219 H   0  0  0  0  0  0  0  0  0  0  0  0
    4.4777  -11.6259   -3.8207 H   0  0  0  0  0  0  0  0  0  0  0  0
    2.8962  -11.3352   -3.3436 H   0  0  0  0  0  0  0  0  0  0  0  0
    3.3433  -13.3334   -1.3391 H   0  0  0  0  0  0  0  0  0  0  0  0
    1.9823  -12.0054    0.5618 H   0  0  0  0  0  0  0  0  0  0  0  0
    1.5212  -10.2403   -1.8808 H   0  0  0  0  0  0  0  0  0  0  0  0
    1.1038  -13.2885   -1.2928 H   0  0  0  0  0  0  0  0  0  0  0  0
    0.8989  -12.4390   -2.9080 H   0  0  0  0  0  0  0  0  0  0  0  0
    2.2155  -12.2867   -1.9633 H   0  0  0  0  0  0  0  0  0  0  0  0
   -0.6877  -10.0603   -0.6138 H   0  0  0  0  0  0  0  0  0  0  0  0
   -0.7635  -11.0184   -2.0957 H   0  0  0  0  0  0  0  0  0  0  0  0
   -0.6857  -11.8594   -0.5393 H   0  0  0  0  0  0  0  0  0  0  0  0
    1.5441   -9.0434    0.6406 H   0  0  0  0  0  0  0  0  0  0  0  0
    0.4966  -11.2409    4.5070 H   0  0  0  0  0  0  0  0  0  0  0  0
   -1.0278  -11.5061    3.5822 H   0  0  0  0  0  0  0  0  0  0  0  0
    0.0940  -12.8471    3.8760 H   0  0  0  0  0  0  0  0  0  0  0  0
   10.3076   -4.6087   -5.0136 H   0  0  0  0  0  0  0  0  0  0  0  0
    9.6273   -5.8285   -4.0009 H   0  0  0  0  0  0  0  0  0  0  0  0
   10.3267   -6.1282   -6.7081 H   0  0  0  0  0  0  0  0  0  0  0  0
    9.4549   -7.2881   -5.7424 H   0  0  0  0  0  0  0  0  0  0  0  0
    1.1046  -11.9868  -11.4687 H   0  0  0  0  0  0  0  0  0  0  0  0
   -1.6507   -9.5073  -14.1439 H   0  0  0  0  0  0  0  0  0  0  0  0
   -2.1726  -11.1694  -14.6037 H   0  0  0  0  0  0  0  0  0  0  0  0
   -3.2342  -10.1244  -13.6430 H   0  0  0  0  0  0  0  0  0  0  0  0
  1  2  1  0  0  0  0
  1 75  1  0  0  0  0
  1 76  1  0  0  0  0
  1 77  1  0  0  0  0
  2  3  1  0  0  0  0
  2  4  1  0  0  0  0
  2 78  1  0  0  0  0
  3 79  1  0  0  0  0
  3 80  1  0  0  0  0
  3 81  1  0  0  0  0
  4  5  1  0  0  0  0
  4 70  1  0  0  0  0
  4 82  1  6  0  0  0
  5  6  2  0  0  0  0
  5  7  1  0  0  0  0
  7 15  1  0  0  0  0
  8  7  1  0  0  0  0
  8  9  1  0  0  0  0
  8 13  1  0  0  0  0
  8 83  1  6  0  0  0
  9 10  1  0  0  0  0
  9 84  1  0  0  0  0
  9 85  1  0  0  0  0
 10 11  1  0  0  0  0
 10 86  1  0  0  0  0
 10 87  1  0  0  0  0
 11 12  1  0  0  0  0
 11 88  1  0  0  0  0
 11 89  1  0  0  0  0
 12 13  1  0  0  0  0
 12 90  1  0  0  0  0
 12 91  1  0  0  0  0
 13 14  1  0  0  0  0
 13 92  1  6  0  0  0
 14 15  1  0  0  0  0
 14 93  1  0  0  0  0
 14 94  1  0  0  0  0
 15 16  1  0  0  0  0
 15 95  1  6  0  0  0
 16 17  1  0  0  0  0
 16 24  2  0  0  0  0
 17 18  1  0  0  0  0
 17 96  1  0  0  0  0
 18 19  2  0  0  0  0
 18 23  1  0  0  0  0
 19 20  1  0  0  0  0
 19 97  1  0  0  0  0
 20 21  2  0  0  0  0
 20 25  1  0  0  0  0
 21 22  1  0  0  0  0
 21 98  1  0  0  0  0
 22 23  2  0  0  0  0
 22 99  1  0  0  0  0
 23 24  1  0  0  0  0
 25 26  2  0  0  0  0
 25 30  1  0  0  0  0
 26 27  1  0  0  0  0
 26100  1  0  0  0  0
 27 28  2  0  0  0  0
 27 69  1  0  0  0  0
 28 29  1  0  0  0  0
 28101  1  0  0  0  0
 29 30  2  0  0  0  0
 29102  1  0  0  0  0
 30 31  1  0  0  0  0
 31 32  1  0  0  0  0
 31103  1  0  0  0  0
 31104  1  0  0  0  0
 32 33  1  0  0  0  0
 32105  1  0  0  0  0
 32106  1  0  0  0  0
 33 34  2  0  0  0  0
 33 38  1  0  0  0  0
 34 35  1  0  0  0  0
 34107  1  0  0  0  0
 35 36  2  0  0  0  0
 35108  1  0  0  0  0
 36 37  1  0  0  0  0
 36 68  1  0  0  0  0
 37 38  2  0  0  0  0
 37 39  1  0  0  0  0
 38109  1  0  0  0  0
 39 40  2  0  0  0  0
 39 44  1  0  0  0  0
 40 41  1  0  0  0  0
 40110  1  0  0  0  0
 41 42  2  0  0  0  0
 41111  1  0  0  0  0
 42 43  1  0  0  0  0
 42 47  1  0  0  0  0
 43 44  2  0  0  0  0
 43 45  1  0  0  0  0
 44112  1  0  0  0  0
 45 46  1  0  0  0  0
 45113  1  0  0  0  0
 46 47  2  0  0  0  0
 48 49  1  0  0  0  0
 48 56  1  0  0  0  0
 48114  1  1  0  0  0
 48 46  1  0  0  0  0
 49115  1  0  0  0  0
 49116  1  0  0  0  0
 50 49  1  0  0  0  0
 50 51  1  0  0  0  0
 50 55  1  0  0  0  0
 50117  1  1  0  0  0
 51 52  1  0  0  0  0
 51118  1  0  0  0  0
 51119  1  0  0  0  0
 52 53  1  0  0  0  0
 52120  1  0  0  0  0
 52121  1  0  0  0  0
 53 54  1  0  0  0  0
 53122  1  0  0  0  0
 53123  1  0  0  0  0
 54 55  1  0  0  0  0
 54124  1  0  0  0  0
 54125  1  0  0  0  0
 55 56  1  0  0  0  0
 55126  1  1  0  0  0
 56 57  1  0  0  0  0
 57 58  2  0  0  0  0
 59 63  1  0  0  0  0
 59127  1  1  0  0  0
 59 60  1  0  0  0  0
 59 57  1  0  0  0  0
 60 61  1  0  0  0  0
 60 62  1  0  0  0  0
 60128  1  0  0  0  0
 61129  1  0  0  0  0
 61130  1  0  0  0  0
 61131  1  0  0  0  0
 62132  1  0  0  0  0
 62133  1  0  0  0  0
 62134  1  0  0  0  0
 63 64  1  0  0  0  0
 63135  1  0  0  0  0
 64 65  2  0  0  0  0
 64 66  1  0  0  0  0
 66 67  1  0  0  0  0
 67136  1  0  0  0  0
 67137  1  0  0  0  0
 67138  1  0  0  0  0
 68 69  1  0  0  0  0
 68139  1  0  0  0  0
 68140  1  0  0  0  0
 69141  1  0  0  0  0
 69142  1  0  0  0  0
 70 71  1  0  0  0  0
 70143  1  0  0  0  0
 71 72  2  0  0  0  0
 71 73  1  0  0  0  0
 73 74  1  0  0  0  0
 74144  1  0  0  0  0
 74145  1  0  0  0  0
 74146  1  0  0  0  0
M  END
>  <DRUGBANK_ID>
DB13041

>  <COMMON_NAME>
Odalasvir

>  <CAS_NUMBER>
1415119-52-6

>  <UNII>
OVR52K7BDW

>  <SYNONYMS>
Odalasvir

$$$$
