
 OpenBabel10282417233D

154162  0  0  1  0  0  0  0  0999 V2000
   -5.0463   12.0216   -1.2457 H   0  0  0  0  0  0  0  0  0  0  0  0
   -4.1103   11.6345   -0.8050 C   0  0  1  0  0  0  0  0  0  0  0  0
   -3.0556   12.6740   -0.9740 C   0  0  0  0  0  0  0  0  0  0  0  0
   -3.1206   12.6735   -2.4253 C   0  0  0  0  0  0  0  0  0  0  0  0
   -2.3149   11.4755   -2.6590 C   0  0  2  0  0  0  0  0  0  0  0  0
   -3.6020   10.5394   -1.6962 N   0  0  0  0  0  0  0  0  0  0  0  0
   -4.0779    9.0569   -1.7282 C   0  0  0  0  0  0  0  0  0  0  0  0
   -3.3838    8.0662   -2.0030 O   0  0  0  0  0  0  0  0  0  0  0  0
   -5.1165    8.1548   -1.1203 C   0  0  2  0  0  0  0  0  0  0  0  0
   -4.5909    7.9579    0.2908 C   0  0  0  0  0  0  0  0  0  0  0  0
   -3.8287    9.1604    0.6021 N   0  0  0  0  0  0  0  0  0  0  0  0
   -4.8662   10.2487    0.8777 C   0  0  0  0  0  0  0  0  0  0  0  0
   -4.2405   11.5403    0.6753 C   0  0  0  0  0  0  0  0  0  0  0  0
   -2.0022    9.2263    0.1182 S   0  0  0  0  0  0  0  0  0  0  0  0
   -1.6167   10.6509    0.2100 O   0  0  0  0  0  0  0  0  0  0  0  0
   -1.4015    8.3771    1.0923 O   0  0  0  0  0  0  0  0  0  0  0  0
   -1.2815    8.5581   -1.8859 C   0  0  0  0  0  0  0  0  0  0  0  0
   -1.9191    8.9779   -3.1147 C   0  0  0  0  0  0  0  0  0  0  0  0
   -2.2337    8.4235   -4.3630 C   0  0  0  0  0  0  0  0  0  0  0  0
   -1.1878    7.6482   -4.6855 C   0  0  0  0  0  0  0  0  0  0  0  0
   -0.2363    7.3221   -3.6474 C   0  0  0  0  0  0  0  0  0  0  0  0
   -0.4294    7.5648   -2.2209 C   0  0  0  0  0  0  0  0  0  0  0  0
   -3.6919    8.5650   -5.5326 S   0  0  0  0  0  0  0  0  0  0  0  0
   -3.2600    9.4759   -6.5371 O   0  0  0  0  0  0  0  0  0  0  0  0
   -4.0741    7.1674   -5.9186 O   0  0  0  0  0  0  0  0  0  0  0  0
   -5.1597    9.2357   -4.9174 N   0  0  0  0  0  0  0  0  0  0  0  0
   -4.9594   10.5234   -4.4100 C   0  0  0  0  0  0  0  0  0  0  0  0
   -5.7643   11.5023   -5.1132 C   0  0  0  0  0  0  0  0  0  0  0  0
   -6.5566   12.5335   -3.7693 C   0  0  1  0  0  0  0  0  0  0  0  0
   -5.8772   12.8691   -2.9730 H   0  0  0  0  0  0  0  0  0  0  0  0
   -7.4079   14.1230   -3.6851 C   0  0  0  0  0  0  0  0  0  0  0  0
   -8.2186   13.7595   -2.5446 C   0  0  0  0  0  0  0  0  0  0  0  0
   -8.7427   12.5092   -3.2555 C   0  0  2  0  0  0  0  0  0  0  0  0
   -7.5718   11.7086   -3.1900 N   0  0  0  0  0  0  0  0  0  0  0  0
   -7.5009   10.4504   -2.7078 C   0  0  0  0  0  0  0  0  0  0  0  0
   -7.3442   10.2918   -1.4979 O   0  0  0  0  0  0  0  0  0  0  0  0
   -7.4455    9.2712   -3.7407 C   0  0  2  0  0  0  0  0  0  0  0  0
   -6.0760    8.6239   -3.9847 C   0  0  0  0  0  0  0  0  0  0  0  0
   -7.9522    9.6969   -5.0092 N   0  0  0  0  0  0  0  0  0  0  0  0
   -9.0225    9.4200   -5.7803 C   0  0  0  0  0  0  0  0  0  0  0  0
   -9.1618    9.9951   -6.8588 O   0  0  0  0  0  0  0  0  0  0  0  0
   -9.8018    8.2351   -5.3246 C   0  0  2  0  0  0  0  0  0  0  0  0
  -10.3916    8.4971   -3.9185 C   0  0  0  0  0  0  0  0  0  0  0  0
   -8.8364    7.0992   -5.4038 N   0  0  0  0  0  0  0  0  0  0  0  0
   -8.0818    7.1472   -6.6816 C   0  0  0  0  0  0  0  0  0  0  0  0
   -8.9579   12.2316   -4.8645 C   0  0  0  0  0  0  0  0  0  0  0  0
   -9.9995   11.5846   -5.0615 O   0  0  0  0  0  0  0  0  0  0  0  0
   -7.9037   12.3544   -5.8958 N   0  0  0  0  0  0  0  0  0  0  0  0
   -6.6394   13.4438   -6.2104 C   0  0  0  0  0  0  0  0  0  0  0  0
   -4.9976   13.9592   -5.6956 C   0  0  0  0  0  0  0  0  0  0  0  0
   -4.2093   13.3585   -4.7917 C   0  0  0  0  0  0  0  0  0  0  0  0
   -3.0384   12.7150   -5.1699 C   0  0  0  0  0  0  0  0  0  0  0  0
   -2.0768   13.4118   -5.6973 C   0  0  0  0  0  0  0  0  0  0  0  0
   -2.6457   14.4062   -6.4143 C   0  0  0  0  0  0  0  0  0  0  0  0
   -4.0802   14.7089   -6.3955 C   0  0  0  0  0  0  0  0  0  0  0  0
   -7.1981   14.4875   -7.0015 C   0  0  0  0  0  0  0  0  0  0  0  0
   -6.4220   14.5262   -8.1287 C   0  0  0  0  0  0  0  0  0  0  0  0
   -6.7038   15.4840   -9.0101 C   0  0  0  0  0  0  0  0  0  0  0  0
   -7.8706   16.2198   -8.8096 C   0  0  0  0  0  0  0  0  0  0  0  0
   -8.6889   16.1007   -7.6772 C   0  0  0  0  0  0  0  0  0  0  0  0
   -8.2905   15.2838   -6.6794 C   0  0  0  0  0  0  0  0  0  0  0  0
   -5.2772    6.7912   -2.1071 N   0  0  0  0  0  0  0  0  0  0  0  0
   -4.5400    5.8312   -2.8301 C   0  0  0  0  0  0  0  0  0  0  0  0
   -5.2315    5.2109   -3.6576 O   0  0  0  0  0  0  0  0  0  0  0  0
   -2.9944    5.4655   -2.7505 C   0  0  2  0  0  0  0  0  0  0  0  0
   -2.4748    4.4567   -3.7872 C   0  0  0  0  0  0  0  0  0  0  0  0
   -2.5851    4.8423   -1.4705 N   0  0  0  0  0  0  0  0  0  0  0  0
   -2.8104    5.7579   -0.4114 C   0  0  0  0  0  0  0  0  0  0  0  0
   -0.9052   12.2188   -2.6133 C   0  0  0  0  0  0  0  0  0  0  0  0
   -0.8323   13.4397   -2.8324 O   0  0  0  0  0  0  0  0  0  0  0  0
    0.2780   11.6645   -2.3522 N   0  0  0  0  0  0  0  0  0  0  0  0
    0.9515   10.5191   -2.9147 C   0  0  0  0  0  0  0  0  0  0  0  0
    1.8058   10.8429   -4.1453 C   0  0  0  0  0  0  0  0  0  0  0  0
    3.0961   10.3415   -4.1853 C   0  0  0  0  0  0  0  0  0  0  0  0
    4.0863   10.7452   -5.0331 C   0  0  0  0  0  0  0  0  0  0  0  0
    3.6905   11.3760   -6.1763 C   0  0  0  0  0  0  0  0  0  0  0  0
    2.3305   11.6297   -6.3776 C   0  0  0  0  0  0  0  0  0  0  0  0
    1.3974   11.4358   -5.3388 C   0  0  0  0  0  0  0  0  0  0  0  0
    1.6595    9.7946   -1.7259 C   0  0  0  0  0  0  0  0  0  0  0  0
    0.9902    9.3806   -0.6096 C   0  0  0  0  0  0  0  0  0  0  0  0
    1.3625    8.3133    0.2236 C   0  0  0  0  0  0  0  0  0  0  0  0
    2.6030    7.7736    0.0727 C   0  0  0  0  0  0  0  0  0  0  0  0
    3.4269    8.3926   -0.8342 C   0  0  0  0  0  0  0  0  0  0  0  0
    2.9825    9.5196   -1.5323 C   0  0  0  0  0  0  0  0  0  0  0  0
   -2.0445   12.3744   -0.6953 H   0  0  0  0  0  0  0  0  0  0  0  0
   -3.1724   13.6257   -0.4963 H   0  0  0  0  0  0  0  0  0  0  0  0
   -3.9903   12.1888   -2.7860 H   0  0  0  0  0  0  0  0  0  0  0  0
   -3.2432   13.6924   -2.7540 H   0  0  0  0  0  0  0  0  0  0  0  0
   -2.2019   11.0295   -3.6543 H   0  0  0  0  0  0  0  0  0  0  0  0
   -6.0446    8.6814   -1.1922 H   0  0  0  0  0  0  0  0  0  0  0  0
   -4.0220    7.1444    0.6839 H   0  0  0  0  0  0  0  0  0  0  0  0
   -5.4686    7.8561    0.9238 H   0  0  0  0  0  0  0  0  0  0  0  0
   -5.8164    9.6917    0.8995 H   0  0  0  0  0  0  0  0  0  0  0  0
   -5.6017   10.6130    0.1257 H   0  0  0  0  0  0  0  0  0  0  0  0
   -3.3203   11.6102    1.2445 H   0  0  0  0  0  0  0  0  0  0  0  0
   -4.8218   12.4112    0.9888 H   0  0  0  0  0  0  0  0  0  0  0  0
   -2.4162    9.7008   -2.6696 H   0  0  0  0  0  0  0  0  0  0  0  0
   -1.1312    7.2780   -5.6993 H   0  0  0  0  0  0  0  0  0  0  0  0
    0.6899    6.8716   -3.9621 H   0  0  0  0  0  0  0  0  0  0  0  0
    0.1102    7.0321   -1.4679 H   0  0  0  0  0  0  0  0  0  0  0  0
   -5.1911   10.6719   -3.3759 H   0  0  0  0  0  0  0  0  0  0  0  0
   -3.9237   10.6411   -4.4576 H   0  0  0  0  0  0  0  0  0  0  0  0
   -5.0411   11.8556   -5.8601 H   0  0  0  0  0  0  0  0  0  0  0  0
   -6.2671   11.0987   -6.0020 H   0  0  0  0  0  0  0  0  0  0  0  0
   -6.8636   15.0745   -3.7532 H   0  0  0  0  0  0  0  0  0  0  0  0
   -8.2383   14.2694   -4.3953 H   0  0  0  0  0  0  0  0  0  0  0  0
   -7.5219   13.5444   -1.7182 H   0  0  0  0  0  0  0  0  0  0  0  0
   -8.9433   14.4945   -2.2209 H   0  0  0  0  0  0  0  0  0  0  0  0
   -9.6732   12.2137   -2.7841 H   0  0  0  0  0  0  0  0  0  0  0  0
   -8.0614    8.5182   -3.2531 H   0  0  0  0  0  0  0  0  0  0  0  0
   -6.1376    7.5753   -4.1971 H   0  0  0  0  0  0  0  0  0  0  0  0
   -5.6251    8.8511   -3.0654 H   0  0  0  0  0  0  0  0  0  0  0  0
   -7.5234   10.5023   -5.3667 H   0  0  0  0  0  0  0  0  0  0  0  0
  -10.6168    8.1023   -6.0352 H   0  0  0  0  0  0  0  0  0  0  0  0
   -9.9987    9.3807   -3.3919 H   0  0  0  0  0  0  0  0  0  0  0  0
  -11.4653    8.6855   -3.9927 H   0  0  0  0  0  0  0  0  0  0  0  0
  -10.2418    7.6410   -3.2549 H   0  0  0  0  0  0  0  0  0  0  0  0
   -8.1272    7.2209   -4.6926 H   0  0  0  0  0  0  0  0  0  0  0  0
   -7.4776    8.0567   -6.8365 H   0  0  0  0  0  0  0  0  0  0  0  0
   -7.3474    6.3437   -6.6956 H   0  0  0  0  0  0  0  0  0  0  0  0
   -8.7777    7.0671   -7.5160 H   0  0  0  0  0  0  0  0  0  0  0  0
   -8.0811   11.7260   -6.7049 H   0  0  0  0  0  0  0  0  0  0  0  0
   -6.8897   13.7948   -5.3199 H   0  0  0  0  0  0  0  0  0  0  0  0
   -4.6466   12.8254   -4.0355 H   0  0  0  0  0  0  0  0  0  0  0  0
   -2.8030   11.6872   -5.0559 H   0  0  0  0  0  0  0  0  0  0  0  0
   -1.0988   12.9740   -5.6524 H   0  0  0  0  0  0  0  0  0  0  0  0
   -1.9979   14.7962   -7.1701 H   0  0  0  0  0  0  0  0  0  0  0  0
   -4.4245   15.5286   -6.9862 H   0  0  0  0  0  0  0  0  0  0  0  0
   -5.5615   13.8567   -8.2152 H   0  0  0  0  0  0  0  0  0  0  0  0
   -6.0253   15.5536   -9.8402 H   0  0  0  0  0  0  0  0  0  0  0  0
   -8.1681   16.8940   -9.5864 H   0  0  0  0  0  0  0  0  0  0  0  0
   -9.6409   16.6008   -7.5673 H   0  0  0  0  0  0  0  0  0  0  0  0
   -8.8798   15.2620   -5.7658 H   0  0  0  0  0  0  0  0  0  0  0  0
   -6.2136    6.7014   -2.4719 H   0  0  0  0  0  0  0  0  0  0  0  0
   -2.4446    6.3548   -2.9618 H   0  0  0  0  0  0  0  0  0  0  0  0
   -1.4374    4.6856   -4.0783 H   0  0  0  0  0  0  0  0  0  0  0  0
   -2.4378    3.4479   -3.3591 H   0  0  0  0  0  0  0  0  0  0  0  0
   -3.0779    4.4155   -4.6930 H   0  0  0  0  0  0  0  0  0  0  0  0
   -3.2160    4.0576   -1.3318 H   0  0  0  0  0  0  0  0  0  0  0  0
   -3.8590    5.9589   -0.5398 H   0  0  0  0  0  0  0  0  0  0  0  0
   -2.7268    5.4015    0.6117 H   0  0  0  0  0  0  0  0  0  0  0  0
   -2.1860    6.6396   -0.4874 H   0  0  0  0  0  0  0  0  0  0  0  0
    0.9180   12.4071   -2.1249 H   0  0  0  0  0  0  0  0  0  0  0  0
    0.2010    9.9022   -3.3980 H   0  0  0  0  0  0  0  0  0  0  0  0
    3.3763    9.4931   -3.5951 H   0  0  0  0  0  0  0  0  0  0  0  0
    5.0948   10.4228   -4.8064 H   0  0  0  0  0  0  0  0  0  0  0  0
    4.4382   11.5681   -6.9324 H   0  0  0  0  0  0  0  0  0  0  0  0
    2.0024   11.9595   -7.3590 H   0  0  0  0  0  0  0  0  0  0  0  0
    0.3627   11.6776   -5.5360 H   0  0  0  0  0  0  0  0  0  0  0  0
    0.0919    9.9005   -0.4617 H   0  0  0  0  0  0  0  0  0  0  0  0
    0.6689    7.8474    0.9155 H   0  0  0  0  0  0  0  0  0  0  0  0
    2.9415    6.9926    0.7392 H   0  0  0  0  0  0  0  0  0  0  0  0
    4.4410    8.0583   -0.9833 H   0  0  0  0  0  0  0  0  0  0  0  0
    3.7262   10.1986   -1.9174 H   0  0  0  0  0  0  0  0  0  0  0  0
  2  3  1  0  0  0  0
  2  6  1  0  0  0  0
  2 13  1  0  0  0  0
  2  1  1  6  0  0  0
  3  4  1  0  0  0  0
  3 85  1  0  0  0  0
  3 86  1  0  0  0  0
  4 87  1  0  0  0  0
  4 88  1  0  0  0  0
  5  4  1  0  0  0  0
  5  6  1  0  0  0  0
  5 89  1  6  0  0  0
  5 69  1  0  0  0  0
  6  7  1  0  0  0  0
  7  8  2  0  0  0  0
  9  7  1  0  0  0  0
  9 10  1  0  0  0  0
  9 62  1  0  0  0  0
  9 90  1  1  0  0  0
 10 11  1  0  0  0  0
 10 91  1  0  0  0  0
 10 92  1  0  0  0  0
 11 12  1  0  0  0  0
 11 14  1  0  0  0  0
 12 13  1  0  0  0  0
 12 93  1  0  0  0  0
 12 94  1  0  0  0  0
 13 95  1  0  0  0  0
 13 96  1  0  0  0  0
 14 15  2  0  0  0  0
 14 16  2  0  0  0  0
 14 17  1  0  0  0  0
 17 18  2  0  0  0  0
 17 22  1  0  0  0  0
 18 19  1  0  0  0  0
 18 97  1  0  0  0  0
 19 20  2  0  0  0  0
 19 23  1  0  0  0  0
 20 21  1  0  0  0  0
 20 98  1  0  0  0  0
 21 22  2  0  0  0  0
 21 99  1  0  0  0  0
 22100  1  0  0  0  0
 23 24  2  0  0  0  0
 23 25  2  0  0  0  0
 23 26  1  0  0  0  0
 26 27  1  0  0  0  0
 26 38  1  0  0  0  0
 27 28  1  0  0  0  0
 27101  1  0  0  0  0
 27102  1  0  0  0  0
 28103  1  0  0  0  0
 28104  1  0  0  0  0
 29 28  1  0  0  0  0
 29 30  1  1  0  0  0
 29 31  1  0  0  0  0
 29 34  1  0  0  0  0
 31 32  1  0  0  0  0
 31105  1  0  0  0  0
 31106  1  0  0  0  0
 32107  1  0  0  0  0
 32108  1  0  0  0  0
 33 32  1  0  0  0  0
 33 34  1  0  0  0  0
 33109  1  1  0  0  0
 33 46  1  0  0  0  0
 34 35  1  0  0  0  0
 35 36  2  0  0  0  0
 37 35  1  0  0  0  0
 37 38  1  0  0  0  0
 37110  1  1  0  0  0
 37 39  1  0  0  0  0
 38111  1  0  0  0  0
 38112  1  0  0  0  0
 39 40  1  0  0  0  0
 39113  1  0  0  0  0
 40 41  2  0  0  0  0
 42 44  1  0  0  0  0
 42114  1  6  0  0  0
 42 43  1  0  0  0  0
 42 40  1  0  0  0  0
 43115  1  0  0  0  0
 43116  1  0  0  0  0
 43117  1  0  0  0  0
 44 45  1  0  0  0  0
 44118  1  0  0  0  0
 45119  1  0  0  0  0
 45120  1  0  0  0  0
 45121  1  0  0  0  0
 46 47  2  0  0  0  0
 46 48  1  0  0  0  0
 48 49  1  0  0  0  0
 48122  1  0  0  0  0
 49 50  1  0  0  0  0
 49 56  1  0  0  0  0
 49123  1  0  0  0  0
 50 51  2  0  0  0  0
 50 55  1  0  0  0  0
 51 52  1  0  0  0  0
 51124  1  0  0  0  0
 52 53  2  0  0  0  0
 52125  1  0  0  0  0
 53 54  1  0  0  0  0
 53126  1  0  0  0  0
 54 55  2  0  0  0  0
 54127  1  0  0  0  0
 55128  1  0  0  0  0
 56 57  2  0  0  0  0
 56 61  1  0  0  0  0
 57 58  1  0  0  0  0
 57129  1  0  0  0  0
 58 59  2  0  0  0  0
 58130  1  0  0  0  0
 59 60  1  0  0  0  0
 59131  1  0  0  0  0
 60 61  2  0  0  0  0
 60132  1  0  0  0  0
 61133  1  0  0  0  0
 62 63  1  0  0  0  0
 62134  1  0  0  0  0
 63 64  2  0  0  0  0
 65 67  1  0  0  0  0
 65135  1  6  0  0  0
 65 66  1  0  0  0  0
 65 63  1  0  0  0  0
 66136  1  0  0  0  0
 66137  1  0  0  0  0
 66138  1  0  0  0  0
 67 68  1  0  0  0  0
 67139  1  0  0  0  0
 68140  1  0  0  0  0
 68141  1  0  0  0  0
 68142  1  0  0  0  0
 69 70  2  0  0  0  0
 69 71  1  0  0  0  0
 71 72  1  0  0  0  0
 71143  1  0  0  0  0
 72 73  1  0  0  0  0
 72 79  1  0  0  0  0
 72144  1  0  0  0  0
 73 74  2  0  0  0  0
 73 78  1  0  0  0  0
 74 75  1  0  0  0  0
 74145  1  0  0  0  0
 75 76  2  0  0  0  0
 75146  1  0  0  0  0
 76 77  1  0  0  0  0
 76147  1  0  0  0  0
 77 78  2  0  0  0  0
 77148  1  0  0  0  0
 78149  1  0  0  0  0
 79 80  2  0  0  0  0
 79 84  1  0  0  0  0
 80 81  1  0  0  0  0
 80150  1  0  0  0  0
 81 82  2  0  0  0  0
 81151  1  0  0  0  0
 82 83  1  0  0  0  0
 82152  1  0  0  0  0
 83 84  2  0  0  0  0
 83153  1  0  0  0  0
 84154  1  0  0  0  0
M  END
>  <DRUGBANK_ID>
DB16095

>  <COMMON_NAME>
APG-1387

>  <CAS_NUMBER>
1570231-89-8

>  <UNII>
E53VN70K2X

>  <SYNONYMS>
Apg-1387 (smac mimetic)

$$$$
