
 OpenBabel10282417163D

 40 41  0  0  0  0  0  0  0  0999 V2000
   -3.3144   -8.2297   -1.7791 C   0  0  0  0  0  0  0  0  0  0  0  0
   -2.0907   -7.3687   -1.4219 C   0  0  0  0  0  0  0  0  0  0  0  0
   -1.4651   -2.7769    2.2036 C   0  0  0  0  0  0  0  0  0  0  0  0
   -0.1002   -2.7255    2.4932 C   0  0  0  0  0  0  0  0  0  0  0  0
    0.8113   -3.1770    1.5517 C   0  0  0  0  0  0  0  0  0  0  0  0
    0.3834   -3.6725    0.3277 C   0  0  0  0  0  0  0  0  0  0  0  0
   -0.9821   -3.7281    0.0387 C   0  0  0  0  0  0  0  0  0  0  0  0
   -1.9353   -3.2977    0.9761 C   0  0  0  0  0  0  0  0  0  0  0  0
   -3.7681   -3.9742   -0.5759 N   0  0  0  0  0  0  0  0  0  0  0  0
   -3.4411   -3.3848    0.7227 C   0  0  1  0  0  0  0  0  0  0  0  0
   -4.3518   -5.1801   -0.8007 C   0  0  0  0  0  0  0  0  0  0  0  0
   -4.4686   -5.6853   -2.4687 S   0  0  0  0  0  0  0  0  0  0  0  0
   -4.6714   -7.4377   -1.8781 C   0  0  2  0  0  0  0  0  0  0  0  0
   -5.2314   -7.1934   -0.4795 C   0  0  0  0  0  0  0  0  0  0  0  0
   -4.7960   -6.0206    0.0671 N   0  0  0  0  0  0  0  0  0  0  0  0
   -5.9137   -8.0035    0.1451 O   0  0  0  0  0  0  0  0  0  0  0  0
   -5.7042   -8.1191   -2.7693 C   0  0  0  0  0  0  0  0  0  0  0  0
    2.1211   -3.1341    1.8256 F   0  0  0  0  0  0  0  0  0  0  0  0
   -4.1248   -4.1276    1.8726 C   0  0  0  0  0  0  0  0  0  0  0  0
   -3.3809   -9.2872   -0.8072 O   0  0  0  0  0  0  0  0  0  0  0  0
   -3.0130   -8.9324   -3.1141 C   0  0  0  0  0  0  0  0  0  0  0  0
   -1.9089   -6.5915   -2.1713 H   0  0  0  0  0  0  0  0  0  0  0  0
   -2.2006   -6.8999   -0.4392 H   0  0  0  0  0  0  0  0  0  0  0  0
   -1.1821   -7.9766   -1.3699 H   0  0  0  0  0  0  0  0  0  0  0  0
   -2.1604   -2.4213    2.9628 H   0  0  0  0  0  0  0  0  0  0  0  0
    0.2531   -2.3443    3.4465 H   0  0  0  0  0  0  0  0  0  0  0  0
    1.1134   -4.0230   -0.3945 H   0  0  0  0  0  0  0  0  0  0  0  0
   -1.2818   -4.1310   -0.9240 H   0  0  0  0  0  0  0  0  0  0  0  0
   -3.4122   -3.4821   -1.3870 H   0  0  0  0  0  0  0  0  0  0  0  0
   -3.8201   -2.3548    0.6995 H   0  0  0  0  0  0  0  0  0  0  0  0
   -5.3582   -8.1441   -3.8094 H   0  0  0  0  0  0  0  0  0  0  0  0
   -5.8726   -9.1530   -2.4460 H   0  0  0  0  0  0  0  0  0  0  0  0
   -6.6716   -7.6100   -2.7642 H   0  0  0  0  0  0  0  0  0  0  0  0
   -3.9927   -3.6456    2.8422 H   0  0  0  0  0  0  0  0  0  0  0  0
   -5.2034   -4.1970    1.6956 H   0  0  0  0  0  0  0  0  0  0  0  0
   -3.7043   -5.1364    1.9750 H   0  0  0  0  0  0  0  0  0  0  0  0
   -3.5323   -8.9159    0.0840 H   0  0  0  0  0  0  0  0  0  0  0  0
   -2.9593   -8.2067   -3.9315 H   0  0  0  0  0  0  0  0  0  0  0  0
   -2.0753   -9.4938   -3.0748 H   0  0  0  0  0  0  0  0  0  0  0  0
   -3.7788   -9.6798   -3.3538 H   0  0  0  0  0  0  0  0  0  0  0  0
  1  2  1  0  0  0  0
  1 20  1  0  0  0  0
  1 21  1  0  0  0  0
  2 22  1  0  0  0  0
  2 23  1  0  0  0  0
  2 24  1  0  0  0  0
  3  4  2  0  0  0  0
  3  8  1  0  0  0  0
  3 25  1  0  0  0  0
  4  5  1  0  0  0  0
  4 26  1  0  0  0  0
  5  6  2  0  0  0  0
  5 18  1  0  0  0  0
  6  7  1  0  0  0  0
  6 27  1  0  0  0  0
  7  8  2  0  0  0  0
  7 28  1  0  0  0  0
  9 29  1  0  0  0  0
 10 19  1  0  0  0  0
 10 30  1  6  0  0  0
 10  9  1  0  0  0  0
 10  8  1  0  0  0  0
 11  9  1  0  0  0  0
 11 12  1  0  0  0  0
 11 15  2  0  0  0  0
 13  1  1  1  0  0  0
 13 12  1  0  0  0  0
 13 14  1  0  0  0  0
 13 17  1  0  0  0  0
 14 15  1  0  0  0  0
 14 16  2  0  0  0  0
 17 31  1  0  0  0  0
 17 32  1  0  0  0  0
 17 33  1  0  0  0  0
 19 34  1  0  0  0  0
 19 35  1  0  0  0  0
 19 36  1  0  0  0  0
 20 37  1  0  0  0  0
 21 38  1  0  0  0  0
 21 39  1  0  0  0  0
 21 40  1  0  0  0  0
M  END
>  <DRUGBANK_ID>
DB07017

>  <COMMON_NAME>
(5S)-2-{[(1S)-1-(4-Fluorophenyl)ethyl]amino}-5-(2-hydroxy-2-propanyl)-5-methyl-1,3-thiazol-4(5H)-one

$$$$
