
 OpenBabel10282417123D

 32 32  0  0  1  0  0  0  0  0999 V2000
   -0.0231   -2.8684    2.3365 C   0  0  0  0  0  0  0  0  0  0  0  0
    0.5992   -3.4586    1.2367 C   0  0  0  0  0  0  0  0  0  0  0  0
    0.8571   -4.8435    1.2349 C   0  0  0  0  0  0  0  0  0  0  0  0
   -0.3786   -3.6340    3.4285 C   0  0  0  0  0  0  0  0  0  0  0  0
    0.5291   -5.6164    2.3354 C   0  0  0  0  0  0  0  0  0  0  0  0
   -0.0336   -4.9867    3.4492 C   0  0  0  0  0  0  0  0  0  0  0  0
    0.9908   -2.6578    0.0335 C   0  0  2  0  0  0  0  0  0  0  0  0
    0.3252   -1.2593   -0.1267 C   0  0  2  0  0  0  0  0  0  0  0  0
    0.5979   -3.4981   -1.0738 O   0  0  0  0  0  0  0  0  0  0  0  0
    0.1308   -0.9356   -1.5392 N   0  0  0  0  0  0  0  0  0  0  0  0
    0.9159   -0.0497    0.6388 C   0  0  0  0  0  0  0  0  0  0  0  0
    2.3311   -0.0299    0.6985 O   0  0  0  0  0  0  0  0  0  0  0  0
   -0.1247   -5.7121    4.7104 N   0  3  0  0  0  0  0  0  0  0  0  0
   -0.5514   -5.0885    5.6960 O   0  5  0  0  0  0  0  0  0  0  0  0
    0.2800   -6.8786    4.7338 O   0  0  0  0  0  0  0  0  0  0  0  0
    1.0214   -1.0437   -2.5637 C   0  0  0  0  0  0  0  0  0  0  0  0
    0.6075   -0.8340   -3.7100 O   0  0  0  0  0  0  0  0  0  0  0  0
    2.4551   -1.4300   -2.2971 C   0  0  0  0  0  0  0  0  0  0  0  0
   -0.2372   -1.8085    2.3815 H   0  0  0  0  0  0  0  0  0  0  0  0
    1.3226   -5.3168    0.3666 H   0  0  0  0  0  0  0  0  0  0  0  0
   -0.8838   -3.1484    4.2591 H   0  0  0  0  0  0  0  0  0  0  0  0
    0.7437   -6.6814    2.3178 H   0  0  0  0  0  0  0  0  0  0  0  0
    2.0854   -2.5930    0.0394 H   0  0  0  0  0  0  0  0  0  0  0  0
   -0.7097   -1.3542    0.2270 H   0  0  0  0  0  0  0  0  0  0  0  0
   -0.3342   -3.2965   -1.2688 H   0  0  0  0  0  0  0  0  0  0  0  0
   -0.8014   -0.6667   -1.8309 H   0  0  0  0  0  0  0  0  0  0  0  0
    0.5938    0.8799    0.1513 H   0  0  0  0  0  0  0  0  0  0  0  0
    0.5348    0.0171    1.6632 H   0  0  0  0  0  0  0  0  0  0  0  0
    2.6333   -0.7668    1.2547 H   0  0  0  0  0  0  0  0  0  0  0  0
    2.9156   -0.7477   -1.5823 H   0  0  0  0  0  0  0  0  0  0  0  0
    2.5496   -2.4584   -1.9480 H   0  0  0  0  0  0  0  0  0  0  0  0
    3.0222   -1.3946   -3.2281 H   0  0  0  0  0  0  0  0  0  0  0  0
  1  4  1  0  0  0  0
  1 19  1  0  0  0  0
  2  1  2  0  0  0  0
  2  3  1  0  0  0  0
  3  5  2  0  0  0  0
  3 20  1  0  0  0  0
  4  6  2  0  0  0  0
  4 21  1  0  0  0  0
  5  6  1  0  0  0  0
  5 22  1  0  0  0  0
  6 13  1  0  0  0  0
  7  9  1  0  0  0  0
  7 23  1  6  0  0  0
  7  8  1  0  0  0  0
  7  2  1  0  0  0  0
  8 24  1  1  0  0  0
  8 11  1  0  0  0  0
  8 10  1  0  0  0  0
  9 25  1  0  0  0  0
 10 26  1  0  0  0  0
 11 12  1  0  0  0  0
 11 27  1  0  0  0  0
 11 28  1  0  0  0  0
 12 29  1  0  0  0  0
 13 14  1  0  0  0  0
 13 15  2  0  0  0  0
 16 17  2  0  0  0  0
 16 10  1  0  0  0  0
 18 16  1  0  0  0  0
 18 30  1  0  0  0  0
 18 31  1  0  0  0  0
 18 32  1  0  0  0  0
M  CHG  2  13   1  14  -1
M  END
>  <DRUGBANK_ID>
DB02608

>  <SECONDARY_ACCESSION_NUMBERS>
EXPT00937

>  <COMMON_NAME>
N-[(1R,2R)-1,3-Dihydroxy-1-(4-nitrophenyl)-2-propanyl]acetamide

>  <CAS_NUMBER>
4423-58-9

$$$$
