
 OpenBabel10282417133D

 21 20  0  0  0  0  0  0  0  0999 V2000
    1.0153    0.0957   -0.1312 N   0  0  0  0  0  0  0  0  0  0  0  0
    0.5809   -0.5902   -1.3425 C   0  0  0  0  0  0  0  0  0  0  0  0
    1.0620   -2.0430   -1.3687 C   0  0  0  0  0  0  0  0  0  0  0  0
    0.5043   -2.8974   -0.2220 C   0  0  0  0  0  0  0  0  0  0  0  0
   -1.0278   -2.9940   -0.2228 C   0  0  0  0  0  0  0  0  0  0  0  0
   -1.6048   -3.6154   -1.4975 C   0  0  0  0  0  0  0  0  0  0  0  0
   -1.1376   -4.9863   -1.6663 N   0  0  0  0  0  0  0  0  0  0  0  0
    0.6316   -0.3772    0.6872 H   0  0  0  0  0  0  0  0  0  0  0  0
    2.0275    0.0088   -0.0438 H   0  0  0  0  0  0  0  0  0  0  0  0
   -0.5100   -0.5351   -1.4195 H   0  0  0  0  0  0  0  0  0  0  0  0
    0.9764   -0.0576   -2.2130 H   0  0  0  0  0  0  0  0  0  0  0  0
    0.7931   -2.4888   -2.3337 H   0  0  0  0  0  0  0  0  0  0  0  0
    2.1580   -2.0686   -1.3312 H   0  0  0  0  0  0  0  0  0  0  0  0
    0.9453   -3.8991   -0.2777 H   0  0  0  0  0  0  0  0  0  0  0  0
    0.8362   -2.4974    0.7429 H   0  0  0  0  0  0  0  0  0  0  0  0
   -1.3492   -3.5764    0.6492 H   0  0  0  0  0  0  0  0  0  0  0  0
   -1.4643   -1.9971   -0.0849 H   0  0  0  0  0  0  0  0  0  0  0  0
   -2.6972   -3.6092   -1.4438 H   0  0  0  0  0  0  0  0  0  0  0  0
   -1.3318   -3.0227   -2.3771 H   0  0  0  0  0  0  0  0  0  0  0  0
   -1.4661   -5.3497   -2.5626 H   0  0  0  0  0  0  0  0  0  0  0  0
   -0.1235   -5.0079   -1.7140 H   0  0  0  0  0  0  0  0  0  0  0  0
  1  2  1  0  0  0  0
  1  8  1  0  0  0  0
  1  9  1  0  0  0  0
  2  3  1  0  0  0  0
  2 10  1  0  0  0  0
  2 11  1  0  0  0  0
  3  4  1  0  0  0  0
  3 12  1  0  0  0  0
  3 13  1  0  0  0  0
  4  5  1  0  0  0  0
  4 14  1  0  0  0  0
  4 15  1  0  0  0  0
  5  6  1  0  0  0  0
  5 16  1  0  0  0  0
  5 17  1  0  0  0  0
  6  7  1  0  0  0  0
  6 18  1  0  0  0  0
  6 19  1  0  0  0  0
  7 20  1  0  0  0  0
  7 21  1  0  0  0  0
M  END
>  <DRUGBANK_ID>
DB03854

>  <SECONDARY_ACCESSION_NUMBERS>
EXPT02275

>  <COMMON_NAME>
Cadaverine

>  <CAS_NUMBER>
462-94-2

>  <UNII>
L90BEN6OLL

>  <SYNONYMS>
1,5-Diaminopentane; 1,5-pentamethylenediamine; 1,5-Pentanediamine; DAPE; Pentamethylenediamine

$$$$
