DY6
 OpenBabel10282417163D

 51 54  0  0  0  0  0  0  0  0999 V2000
    2.4769    0.6621    0.1676 N   0  0  0  0  0  0  0  0  0  0  0  0
    3.9309    0.8895   -0.6886 S   0  0  0  0  0  0  0  0  0  0  0  0
    1.2930    1.3457   -0.4368 C   0  0  0  0  0  0  0  0  0  0  0  0
    2.2602   -0.7907    0.5030 C   0  0  0  0  0  0  0  0  0  0  0  0
    4.1565    2.6461   -0.7688 C   0  0  0  0  0  0  0  0  0  0  0  0
    3.6988    0.4049   -2.0325 O   0  0  0  0  0  0  0  0  0  0  0  0
    5.0138    0.3580    0.1148 O   0  0  0  0  0  0  0  0  0  0  0  0
   -0.0349    0.6828   -0.1554 C   0  0  0  0  0  0  0  0  0  0  0  0
    1.2020   -1.4552   -0.3761 C   0  0  0  0  0  0  0  0  0  0  0  0
    4.2726    3.2451   -2.0295 C   0  0  0  0  0  0  0  0  0  0  0  0
    4.3707    3.3752    0.4033 C   0  0  0  0  0  0  0  0  0  0  0  0
   -0.0947   -0.7195   -0.1974 C   0  0  0  0  0  0  0  0  0  0  0  0
   -1.2060    1.4154    0.0577 C   0  0  0  0  0  0  0  0  0  0  0  0
    4.6946    4.5719   -2.1237 C   0  0  0  0  0  0  0  0  0  0  0  0
    4.7334    4.7172    0.3111 C   0  0  0  0  0  0  0  0  0  0  0  0
   -1.3158   -1.3804   -0.0590 C   0  0  0  0  0  0  0  0  0  0  0  0
   -2.4222    0.7504    0.2249 C   0  0  0  0  0  0  0  0  0  0  0  0
    5.0362    5.2348   -3.4172 C   0  0  0  0  0  0  0  0  0  0  0  0
    4.9019    5.3075   -0.9444 C   0  0  0  0  0  0  0  0  0  0  0  0
   -2.4783   -0.6425    0.1544 C   0  0  0  0  0  0  0  0  0  0  0  0
    5.0718    4.4550   -4.5660 N   0  0  0  0  0  0  0  0  0  0  0  0
    5.2807    6.4411   -3.4256 O   0  0  0  0  0  0  0  0  0  0  0  0
    5.6937    4.9155   -5.7484 C   0  0  0  0  0  0  0  0  0  0  0  0
    6.9754    5.5216   -5.7689 C   0  0  0  0  0  0  0  0  0  0  0  0
    4.9681    4.7433   -6.9420 C   0  0  0  0  0  0  0  0  0  0  0  0
    7.4508    6.0019   -7.0034 C   0  0  0  0  0  0  0  0  0  0  0  0
    7.8672    5.5160   -4.5449 C   0  0  0  0  0  0  0  0  0  0  0  0
    5.4790    5.2050   -8.1545 C   0  0  0  0  0  0  0  0  0  0  0  0
    6.7010    5.8645   -8.1770 C   0  0  0  0  0  0  0  0  0  0  0  0
    8.9786    6.2820   -4.6000 O   0  0  0  0  0  0  0  0  0  0  0  0
    7.6758    4.8152   -3.5584 O   0  0  0  0  0  0  0  0  0  0  0  0
    1.2725    2.3782   -0.0695 H   0  0  0  0  0  0  0  0  0  0  0  0
    1.3957    1.3841   -1.5283 H   0  0  0  0  0  0  0  0  0  0  0  0
    3.1926   -1.3569    0.3984 H   0  0  0  0  0  0  0  0  0  0  0  0
    1.9893   -0.8557    1.5646 H   0  0  0  0  0  0  0  0  0  0  0  0
    1.4961   -1.4254   -1.4319 H   0  0  0  0  0  0  0  0  0  0  0  0
    1.0961   -2.5052   -0.0837 H   0  0  0  0  0  0  0  0  0  0  0  0
    4.0749    2.6490   -2.9120 H   0  0  0  0  0  0  0  0  0  0  0  0
    4.2871    2.9002    1.3782 H   0  0  0  0  0  0  0  0  0  0  0  0
   -1.1820    2.5016    0.0981 H   0  0  0  0  0  0  0  0  0  0  0  0
    4.9334    5.2987    1.2084 H   0  0  0  0  0  0  0  0  0  0  0  0
   -1.3654   -2.4654   -0.1001 H   0  0  0  0  0  0  0  0  0  0  0  0
   -3.3313    1.3184    0.4058 H   0  0  0  0  0  0  0  0  0  0  0  0
    5.2319    6.3448   -1.0038 H   0  0  0  0  0  0  0  0  0  0  0  0
   -3.4295   -1.1548    0.2737 H   0  0  0  0  0  0  0  0  0  0  0  0
    4.6962    3.5183   -4.5893 H   0  0  0  0  0  0  0  0  0  0  0  0
    3.9653    4.3194   -6.9301 H   0  0  0  0  0  0  0  0  0  0  0  0
    8.4213    6.4674   -7.1128 H   0  0  0  0  0  0  0  0  0  0  0  0
    4.9204    5.0688   -9.0783 H   0  0  0  0  0  0  0  0  0  0  0  0
    7.0832    6.2684   -9.1124 H   0  0  0  0  0  0  0  0  0  0  0  0
    9.1813    6.7422   -5.4261 H   0  0  0  0  0  0  0  0  0  0  0  0
  1  2  1  0  0  0  0
  1  4  1  0  0  0  0
  2  6  2  0  0  0  0
  3  1  1  0  0  0  0
  3 32  1  0  0  0  0
  3 33  1  0  0  0  0
  4  9  1  0  0  0  0
  4 34  1  0  0  0  0
  4 35  1  0  0  0  0
  5  2  1  0  0  0  0
  5 11  1  0  0  0  0
  7  2  2  0  0  0  0
  8  3  1  0  0  0  0
  8 12  1  0  0  0  0
  9 36  1  0  0  0  0
  9 37  1  0  0  0  0
 10  5  2  0  0  0  0
 10 38  1  0  0  0  0
 11 39  1  0  0  0  0
 12  9  1  0  0  0  0
 13  8  2  0  0  0  0
 13 40  1  0  0  0  0
 14 10  1  0  0  0  0
 14 19  2  0  0  0  0
 15 11  2  0  0  0  0
 15 41  1  0  0  0  0
 16 12  2  0  0  0  0
 16 42  1  0  0  0  0
 17 13  1  0  0  0  0
 17 20  2  0  0  0  0
 17 43  1  0  0  0  0
 18 14  1  0  0  0  0
 19 15  1  0  0  0  0
 19 44  1  0  0  0  0
 20 16  1  0  0  0  0
 20 45  1  0  0  0  0
 21 18  1  0  0  0  0
 21 46  1  0  0  0  0
 22 18  2  0  0  0  0
 23 21  1  0  0  0  0
 24 23  2  0  0  0  0
 24 27  1  0  0  0  0
 25 23  1  0  0  0  0
 25 47  1  0  0  0  0
 26 24  1  0  0  0  0
 26 48  1  0  0  0  0
 27 30  1  0  0  0  0
 28 25  2  0  0  0  0
 28 49  1  0  0  0  0
 29 26  2  0  0  0  0
 29 28  1  0  0  0  0
 29 50  1  0  0  0  0
 30 51  1  0  0  0  0
 31 27  2  0  0  0  0
M  END
>  <DRUGBANK_ID>
DB07691

>  <COMMON_NAME>
2-({[3-(3,4-dihydroisoquinolin-2(1H)-ylsulfonyl)phenyl]carbonyl}amino)benzoic acid

$$$$
