
 OpenBabel10282417233D

 74 79  0  0  1  0  0  0  0  0999 V2000
   -0.8966    0.1977    0.9033 H   0  0  0  0  0  0  0  0  0  0  0  0
   -1.9621    0.2267    0.6611 C   0  0  1  0  0  0  0  0  0  0  0  0
   -2.1492   -0.8923   -0.2537 C   0  0  0  0  0  0  0  0  0  0  0  0
   -3.6706   -1.0360   -0.2720 C   0  0  1  0  0  0  0  0  0  0  0  0
   -3.4221   -1.9920   -0.7579 H   0  0  0  0  0  0  0  0  0  0  0  0
   -4.8523   -0.4298   -1.0536 C   0  0  2  0  0  0  0  0  0  0  0  0
   -5.8083   -0.5918   -0.5552 H   0  0  0  0  0  0  0  0  0  0  0  0
   -4.7079    1.0418   -1.1036 C   0  0  0  0  0  0  0  0  0  0  0  0
   -3.6054    1.6539   -2.0095 C   0  0  0  0  0  0  0  0  0  0  0  0
   -3.8701    1.3571   -3.4644 C   0  0  2  0  0  0  0  0  0  0  0  0
   -4.7119    2.0020   -3.7678 H   0  0  0  0  0  0  0  0  0  0  0  0
   -2.5949    1.8078   -4.3332 C   0  0  0  0  0  0  0  0  0  0  0  0
   -2.7577    1.2890   -5.7462 C   0  0  1  0  0  0  0  0  0  0  0  0
   -1.5374    1.5540   -6.4571 O   0  0  0  0  0  0  0  0  0  0  0  0
   -3.0119   -0.2413   -5.7939 C   0  0  0  0  0  0  0  0  0  0  0  0
   -4.0079   -0.9207   -4.8223 C   0  0  0  0  0  0  0  0  0  0  0  0
   -4.0712   -0.2658   -3.4814 C   0  0  1  0  0  0  0  0  0  0  0  0
   -2.6775   -0.5712   -3.0285 C   0  0  0  0  0  0  0  0  0  0  0  0
   -5.1535   -1.0725   -2.3079 C   0  0  1  0  0  0  0  0  0  0  0  0
   -6.2024   -0.8232   -2.5853 H   0  0  0  0  0  0  0  0  0  0  0  0
   -5.1601   -2.6091   -1.3872 C   0  0  0  0  0  0  0  0  0  0  0  0
   -4.7349   -2.6192    0.4774 C   0  0  0  0  0  0  0  0  0  0  0  0
   -4.2337   -1.1301    1.1211 C   0  0  1  0  0  0  0  0  0  0  0  0
   -5.5352   -0.5301    1.7177 C   0  0  0  0  0  0  0  0  0  0  0  0
   -2.9546   -0.1773    1.7758 C   0  0  1  0  0  0  0  0  0  0  0  0
   -2.4166   -0.8091    2.4937 H   0  0  0  0  0  0  0  0  0  0  0  0
   -3.0864    1.3740    2.2792 C   0  0  2  0  0  0  0  0  0  0  0  0
   -3.9445    1.8031    3.4477 C   0  0  0  0  0  0  0  0  0  0  0  0
   -3.1426    2.3582    1.0379 C   0  0  2  0  0  0  0  0  0  0  0  0
   -2.5187    3.7529    1.1358 C   0  0  0  0  0  0  0  0  0  0  0  0
   -2.7269    4.5767   -0.1767 C   0  0  0  0  0  0  0  0  0  0  0  0
   -4.1477    4.7178   -0.7952 C   0  0  2  0  0  0  0  0  0  0  0  0
   -5.2904    5.7272   -0.7208 C   0  0  0  0  0  0  0  0  0  0  0  0
   -4.9360    3.4870   -0.4863 C   0  0  0  0  0  0  0  0  0  0  0  0
   -4.5393    2.7376    0.6892 O   0  0  0  0  0  0  0  0  0  0  0  0
   -2.2763    1.5596    0.1721 O   0  0  0  0  0  0  0  0  0  0  0  0
   -1.6367   -0.9522   -1.2107 H   0  0  0  0  0  0  0  0  0  0  0  0
   -1.6533   -1.7940    0.1426 H   0  0  0  0  0  0  0  0  0  0  0  0
   -5.7278    1.4128   -1.1705 H   0  0  0  0  0  0  0  0  0  0  0  0
   -4.4646    1.0612   -0.0673 H   0  0  0  0  0  0  0  0  0  0  0  0
   -3.3339    2.7014   -1.8934 H   0  0  0  0  0  0  0  0  0  0  0  0
   -2.6191    1.3232   -1.7266 H   0  0  0  0  0  0  0  0  0  0  0  0
   -2.3172    2.8725   -4.2354 H   0  0  0  0  0  0  0  0  0  0  0  0
   -1.6181    1.3988   -4.0356 H   0  0  0  0  0  0  0  0  0  0  0  0
   -3.5482    1.8395   -6.2559 H   0  0  0  0  0  0  0  0  0  0  0  0
   -1.4279    2.5194   -6.5155 H   0  0  0  0  0  0  0  0  0  0  0  0
   -3.3171   -0.5119   -6.8038 H   0  0  0  0  0  0  0  0  0  0  0  0
   -2.0389   -0.7389   -5.6473 H   0  0  0  0  0  0  0  0  0  0  0  0
   -4.9740   -1.1762   -5.2517 H   0  0  0  0  0  0  0  0  0  0  0  0
   -3.5898   -1.9162   -4.5983 H   0  0  0  0  0  0  0  0  0  0  0  0
   -2.2065   -1.5038   -3.2392 H   0  0  0  0  0  0  0  0  0  0  0  0
   -1.8882    0.1654   -2.9334 H   0  0  0  0  0  0  0  0  0  0  0  0
   -2.9876   -0.5253   -2.0553 H   0  0  0  0  0  0  0  0  0  0  0  0
   -6.1359   -3.0982   -1.4903 H   0  0  0  0  0  0  0  0  0  0  0  0
   -4.4069   -3.2282   -1.8876 H   0  0  0  0  0  0  0  0  0  0  0  0
   -5.5442   -3.0774    1.0653 H   0  0  0  0  0  0  0  0  0  0  0  0
   -3.8865   -3.3179    0.6191 H   0  0  0  0  0  0  0  0  0  0  0  0
   -5.3557    0.4289    2.1652 H   0  0  0  0  0  0  0  0  0  0  0  0
   -6.3618   -0.2707    1.0603 H   0  0  0  0  0  0  0  0  0  0  0  0
   -5.9526   -1.1801    2.4925 H   0  0  0  0  0  0  0  0  0  0  0  0
   -2.0614    1.5271    2.6616 H   0  0  0  0  0  0  0  0  0  0  0  0
   -4.3430    2.8043    3.2599 H   0  0  0  0  0  0  0  0  0  0  0  0
   -4.7748    1.1585    3.7244 H   0  0  0  0  0  0  0  0  0  0  0  0
   -3.3138    1.8658    4.3369 H   0  0  0  0  0  0  0  0  0  0  0  0
   -2.9563    4.3150    1.9619 H   0  0  0  0  0  0  0  0  0  0  0  0
   -1.4440    3.6278    1.3040 H   0  0  0  0  0  0  0  0  0  0  0  0
   -2.1974    5.5285   -0.1764 H   0  0  0  0  0  0  0  0  0  0  0  0
   -2.1395    3.9854   -0.9060 H   0  0  0  0  0  0  0  0  0  0  0  0
   -3.8978    4.8068   -1.8723 H   0  0  0  0  0  0  0  0  0  0  0  0
   -5.0119    6.7690   -0.7040 H   0  0  0  0  0  0  0  0  0  0  0  0
   -5.8885    5.5685   -1.6484 H   0  0  0  0  0  0  0  0  0  0  0  0
   -6.0161    5.5006    0.0760 H   0  0  0  0  0  0  0  0  0  0  0  0
   -6.0378    3.5534   -0.4643 H   0  0  0  0  0  0  0  0  0  0  0  0
   -4.9996    3.0672   -1.4918 H   0  0  0  0  0  0  0  0  0  0  0  0
  2  3  1  0  0  0  0
  2 36  1  0  0  0  0
  2  1  1  6  0  0  0
  3 37  1  0  0  0  0
  3 38  1  0  0  0  0
  4  3  1  0  0  0  0
  4  6  1  0  0  0  0
  4  5  1  1  0  0  0
  6  8  1  0  0  0  0
  6 19  1  0  0  0  0
  6  7  1  6  0  0  0
  8  9  1  0  0  0  0
  8 39  1  0  0  0  0
  8 40  1  0  0  0  0
  9 41  1  0  0  0  0
  9 42  1  0  0  0  0
 10  9  1  0  0  0  0
 10 12  1  0  0  0  0
 10 11  1  1  0  0  0
 12 43  1  0  0  0  0
 12 44  1  0  0  0  0
 13 12  1  0  0  0  0
 13 15  1  0  0  0  0
 13 45  1  6  0  0  0
 13 14  1  0  0  0  0
 14 46  1  0  0  0  0
 15 16  1  0  0  0  0
 15 47  1  0  0  0  0
 15 48  1  0  0  0  0
 16 49  1  0  0  0  0
 16 50  1  0  0  0  0
 17 16  1  0  0  0  0
 17 10  1  0  0  0  0
 17 18  1  1  0  0  0
 18 51  1  0  0  0  0
 18 52  1  0  0  0  0
 18 53  1  0  0  0  0
 19 17  1  0  0  0  0
 19 21  1  0  0  0  0
 19 20  1  6  0  0  0
 21 22  1  0  0  0  0
 21 54  1  0  0  0  0
 21 55  1  0  0  0  0
 22 56  1  0  0  0  0
 22 57  1  0  0  0  0
 23 22  1  0  0  0  0
 23  4  1  0  0  0  0
 23 24  1  6  0  0  0
 24 58  1  0  0  0  0
 24 59  1  0  0  0  0
 24 60  1  0  0  0  0
 25 23  1  0  0  0  0
 25  2  1  0  0  0  0
 25 27  1  0  0  0  0
 25 26  1  6  0  0  0
 27 29  1  0  0  0  0
 27 28  1  0  0  0  0
 27 61  1  1  0  0  0
 28 62  1  0  0  0  0
 28 63  1  0  0  0  0
 28 64  1  0  0  0  0
 29 30  1  0  0  0  0
 29 35  1  6  0  0  0
 29 36  1  0  0  0  0
 30 31  1  0  0  0  0
 30 65  1  0  0  0  0
 30 66  1  0  0  0  0
 31 67  1  0  0  0  0
 31 68  1  0  0  0  0
 32 31  1  0  0  0  0
 32 34  1  0  0  0  0
 32 33  1  0  0  0  0
 32 69  1  6  0  0  0
 33 70  1  0  0  0  0
 33 71  1  0  0  0  0
 33 72  1  0  0  0  0
 34 35  1  0  0  0  0
 34 73  1  0  0  0  0
 34 74  1  0  0  0  0
M  END
>  <DRUGBANK_ID>
DB16928

>  <COMMON_NAME>
Sarsagenin

>  <CAS_NUMBER>
126-19-2

>  <UNII>
CFS802C28F

>  <SYNONYMS>
(3.beta.,5.beta.,25s)-spirostan-3-ol; Myogane; NSC 1615; NSC-1615; Parigenin; Pure sarsasapogenin; Sarsasapogenin; Spirostan-3-ol, (3.beta.,5.beta.,25s)-

$$$$
