HBO
 OpenBabel10282417123D

 24 25  0  0  0  0  0  0  0  0999 V2000
    1.5566    0.1495    2.0262 O   0  0  0  0  0  0  0  0  0  0  0  0
   -0.7996    0.1926    1.7446 C   0  0  0  0  0  0  0  0  0  0  0  0
   -1.0227    0.7084    3.0006 N   0  0  0  0  0  0  0  0  0  0  0  0
   -0.6773    2.0399    3.2867 C   0  0  0  0  0  0  0  0  0  0  0  0
    0.0942    2.7368    2.3431 C   0  0  0  0  0  0  0  0  0  0  0  0
    0.6149    2.1545    1.2110 O   0  0  0  0  0  0  0  0  0  0  0  0
    0.5289    0.7365    1.2067 C   0  0  1  0  0  0  0  0  0  0  0  0
   -1.1608    2.7160    4.4049 C   0  0  0  0  0  0  0  0  0  0  0  0
   -0.8914    4.0839    4.5588 C   0  0  0  0  0  0  0  0  0  0  0  0
    0.3574    4.0984    2.4983 C   0  0  0  0  0  0  0  0  0  0  0  0
   -1.4418   -0.7179    1.2176 O   0  0  0  0  0  0  0  0  0  0  0  0
   -1.8122   -0.0082    3.9170 O   0  0  0  0  0  0  0  0  0  0  0  0
   -0.1306    4.7810    3.6106 C   0  0  0  0  0  0  0  0  0  0  0  0
    0.0724    6.1111    3.8693 O   0  0  0  0  0  0  0  0  0  0  0  0
    0.8702    6.8278    2.9279 C   0  0  0  0  0  0  0  0  0  0  0  0
    0.7015    0.3772    0.1890 H   0  0  0  0  0  0  0  0  0  0  0  0
    1.2946   -0.7796    2.1618 H   0  0  0  0  0  0  0  0  0  0  0  0
   -1.7834    2.2045    5.1343 H   0  0  0  0  0  0  0  0  0  0  0  0
   -1.2933    4.6114    5.4214 H   0  0  0  0  0  0  0  0  0  0  0  0
    0.9463    4.5940    1.7349 H   0  0  0  0  0  0  0  0  0  0  0  0
   -1.6434   -0.9325    3.6409 H   0  0  0  0  0  0  0  0  0  0  0  0
    1.8812    6.4095    2.8635 H   0  0  0  0  0  0  0  0  0  0  0  0
    0.3914    6.8497    1.9426 H   0  0  0  0  0  0  0  0  0  0  0  0
    0.9637    7.8623    3.2722 H   0  0  0  0  0  0  0  0  0  0  0  0
  1 17  1  0  0  0  0
  2  3  1  0  0  0  0
  2  7  1  0  0  0  0
  2 11  2  0  0  0  0
  3  4  1  0  0  0  0
  3 12  1  0  0  0  0
  4  5  2  0  0  0  0
  4  8  1  0  0  0  0
  5  6  1  0  0  0  0
  5 10  1  0  0  0  0
  6  7  1  0  0  0  0
  7 16  1  6  0  0  0
  7  1  1  0  0  0  0
  8  9  2  0  0  0  0
  8 18  1  0  0  0  0
  9 13  1  0  0  0  0
  9 19  1  0  0  0  0
 10 13  2  0  0  0  0
 10 20  1  0  0  0  0
 12 21  1  0  0  0  0
 13 14  1  0  0  0  0
 14 15  1  0  0  0  0
 15 22  1  0  0  0  0
 15 23  1  0  0  0  0
 15 24  1  0  0  0  0
M  END
>  <DRUGBANK_ID>
DB02185

>  <SECONDARY_ACCESSION_NUMBERS>
EXPT01700

>  <COMMON_NAME>
2,4-Dihydroxy-7-(Methyloxy)-2h-1,4-Benzoxazin-3(4h)-One

$$$$
