
 OpenBabel10282417123D

 63 63  0  0  0  0  0  0  0  0999 V2000
    1.1659   -0.1559   -0.1117 C   0  0  0  0  0  0  0  0  0  0  0  0
    0.6265   -0.8467   -0.9606 O   0  0  0  0  0  0  0  0  0  0  0  0
    0.4007    0.7235    0.8263 C   0  0  0  0  0  0  0  0  0  0  0  0
    2.5060   -0.0993    0.0484 O   0  0  0  0  0  0  0  0  0  0  0  0
   -0.5036    1.5556    0.0579 N   0  0  0  0  0  0  0  0  0  0  0  0
   -1.8719    1.3026    0.0083 C   0  0  0  0  0  0  0  0  0  0  0  0
   -2.6696    2.3964   -0.7284 C   0  0  1  0  0  0  0  0  0  0  0  0
   -2.4078    0.3540    0.5781 O   0  0  0  0  0  0  0  0  0  0  0  0
   -4.0045    1.9335   -1.1930 N   0  0  0  0  0  0  0  0  0  0  0  0
   -1.2573    4.2860    1.0225 S   0  0  0  0  0  0  0  0  0  0  0  0
   -2.7634    3.6779    0.0121 C   0  0  0  0  0  0  0  0  0  0  0  0
   -1.5071    1.9855    2.6108 N   0  0  0  0  0  0  0  0  0  0  0  0
   -0.9915    3.2138    2.5455 C   0  0  0  0  0  0  0  0  0  0  0  0
   -0.0637    3.6321    3.3920 N   0  0  0  0  0  0  0  0  0  0  0  0
    0.3900    2.7007    4.2310 C   0  0  0  0  0  0  0  0  0  0  0  0
   -0.0009    1.4322    4.2643 N   0  0  0  0  0  0  0  0  0  0  0  0
   -0.9850    1.1047    3.4748 C   0  0  0  0  0  0  0  0  0  0  0  0
    1.4300    3.0512    5.0428 N   0  0  0  0  0  0  0  0  0  0  0  0
    2.2082    2.0432    5.7218 C   0  0  0  0  0  0  0  0  0  0  0  0
    3.6455    2.1044    5.2435 C   0  0  0  0  0  0  0  0  0  0  0  0
   -1.4616   -0.1922    3.4444 N   0  0  0  0  0  0  0  0  0  0  0  0
   -0.7188   -1.3293    3.9887 C   0  0  0  0  0  0  0  0  0  0  0  0
   -1.6086   -2.0632    4.9867 C   0  0  0  0  0  0  0  0  0  0  0  0
   -0.2597   -2.3258    2.9144 C   0  0  0  0  0  0  0  0  0  0  0  0
   -5.3199    2.0562   -0.8272 C   0  0  0  0  0  0  0  0  0  0  0  0
   -3.8983    4.5684    2.4649 C   0  0  0  0  0  0  0  0  0  0  0  0
   -6.1134    1.4905   -1.5971 O   0  0  0  0  0  0  0  0  0  0  0  0
   -5.9285    2.9238    0.3278 C   0  0  0  0  0  0  0  0  0  0  0  0
   -3.1853    5.0447    3.3792 O   0  0  0  0  0  0  0  0  0  0  0  0
   -5.6691    2.5990    1.8188 C   0  0  0  0  0  0  0  0  0  0  0  0
   -4.2977    2.9338    2.3580 C   0  0  2  0  0  0  0  0  0  0  0  0
   -4.1442    5.3477    1.3652 O   0  0  0  0  0  0  0  0  0  0  0  0
   -4.0041    2.2878    3.6481 N   0  0  0  0  0  0  0  0  0  0  0  0
   -0.1540    0.0382    1.4509 H   0  0  0  0  0  0  0  0  0  0  0  0
    1.0449    1.3435    1.4646 H   0  0  0  0  0  0  0  0  0  0  0  0
    2.8200    0.4958    0.7555 H   0  0  0  0  0  0  0  0  0  0  0  0
   -0.1465    2.4428   -0.2767 H   0  0  0  0  0  0  0  0  0  0  0  0
   -2.1036    2.6987   -1.6108 H   0  0  0  0  0  0  0  0  0  0  0  0
   -3.9169    1.2633   -1.9500 H   0  0  0  0  0  0  0  0  0  0  0  0
   -3.1881    4.4546   -0.6499 H   0  0  0  0  0  0  0  0  0  0  0  0
   -3.6583    3.5501    0.5501 H   0  0  0  0  0  0  0  0  0  0  0  0
    1.6576    4.0320    5.0783 H   0  0  0  0  0  0  0  0  0  0  0  0
    2.1488    2.2150    6.7994 H   0  0  0  0  0  0  0  0  0  0  0  0
    1.8507    1.0195    5.5517 H   0  0  0  0  0  0  0  0  0  0  0  0
    4.0815    3.0851    5.4527 H   0  0  0  0  0  0  0  0  0  0  0  0
    4.2414    1.3387    5.7487 H   0  0  0  0  0  0  0  0  0  0  0  0
    3.7090    1.9282    4.1632 H   0  0  0  0  0  0  0  0  0  0  0  0
   -2.1562   -0.3597    2.7171 H   0  0  0  0  0  0  0  0  0  0  0  0
    0.1796   -0.9950    4.5181 H   0  0  0  0  0  0  0  0  0  0  0  0
   -2.4706   -2.5259    4.4919 H   0  0  0  0  0  0  0  0  0  0  0  0
   -1.0449   -2.8554    5.4918 H   0  0  0  0  0  0  0  0  0  0  0  0
   -1.9859   -1.3726    5.7460 H   0  0  0  0  0  0  0  0  0  0  0  0
    0.3924   -1.8653    2.1702 H   0  0  0  0  0  0  0  0  0  0  0  0
    0.3240   -3.1340    3.3755 H   0  0  0  0  0  0  0  0  0  0  0  0
   -1.1000   -2.7901    2.3860 H   0  0  0  0  0  0  0  0  0  0  0  0
   -5.7781    3.9844    0.1061 H   0  0  0  0  0  0  0  0  0  0  0  0
   -7.0231    2.8071    0.2230 H   0  0  0  0  0  0  0  0  0  0  0  0
   -6.3479    3.1648    2.4600 H   0  0  0  0  0  0  0  0  0  0  0  0
   -5.8738    1.5280    1.9628 H   0  0  0  0  0  0  0  0  0  0  0  0
   -3.6562    2.3092    1.7252 H   0  0  0  0  0  0  0  0  0  0  0  0
   -3.3886    5.9628    1.1499 H   0  0  0  0  0  0  0  0  0  0  0  0
   -3.0664    1.8817    3.5029 H   0  0  0  0  0  0  0  0  0  0  0  0
   -3.7917    3.0222    4.3211 H   0  0  0  0  0  0  0  0  0  0  0  0
  2  1  2  0  0  0  0
  3  1  1  0  0  0  0
  3 34  1  0  0  0  0
  3 35  1  0  0  0  0
  4  1  1  0  0  0  0
  4 36  1  0  0  0  0
  5  3  1  0  0  0  0
  5 37  1  0  0  0  0
  6  5  1  0  0  0  0
  7  6  1  0  0  0  0
  7  9  1  0  0  0  0
  7 38  1  6  0  0  0
  8  6  2  0  0  0  0
  9 39  1  0  0  0  0
 11  7  1  0  0  0  0
 11 10  1  0  0  0  0
 11 40  1  0  0  0  0
 11 41  1  0  0  0  0
 13 10  1  0  0  0  0
 13 12  2  0  0  0  0
 14 13  1  0  0  0  0
 15 14  2  0  0  0  0
 16 15  1  0  0  0  0
 17 12  1  0  0  0  0
 17 16  2  0  0  0  0
 18 15  1  0  0  0  0
 18 42  1  0  0  0  0
 19 18  1  0  0  0  0
 19 43  1  0  0  0  0
 19 44  1  0  0  0  0
 20 19  1  0  0  0  0
 20 45  1  0  0  0  0
 20 46  1  0  0  0  0
 20 47  1  0  0  0  0
 21 17  1  0  0  0  0
 21 48  1  0  0  0  0
 22 21  1  0  0  0  0
 22 49  1  0  0  0  0
 23 22  1  0  0  0  0
 23 50  1  0  0  0  0
 23 51  1  0  0  0  0
 23 52  1  0  0  0  0
 24 22  1  0  0  0  0
 24 53  1  0  0  0  0
 24 54  1  0  0  0  0
 24 55  1  0  0  0  0
 25  9  1  0  0  0  0
 27 25  2  0  0  0  0
 28 25  1  0  0  0  0
 28 56  1  0  0  0  0
 28 57  1  0  0  0  0
 29 26  2  0  0  0  0
 30 28  1  0  0  0  0
 30 58  1  0  0  0  0
 30 59  1  0  0  0  0
 31 26  1  0  0  0  0
 31 30  1  0  0  0  0
 31 33  1  0  0  0  0
 31 60  1  6  0  0  0
 32 26  1  0  0  0  0
 32 61  1  0  0  0  0
 33 62  1  0  0  0  0
 33 63  1  0  0  0  0
M  END
>  <DRUGBANK_ID>
DB02146

>  <SECONDARY_ACCESSION_NUMBERS>
EXPT00579

>  <COMMON_NAME>
Glutathione S-atrazine

>  <CAS_NUMBER>
24429-05-8

>  <SYNONYMS>
Atrazine glutathione conjugate

$$$$
