287
 OpenBabel10282417183D

 61 62  0  0  1  0  0  0  0  0999 V2000
    0.5105    0.2404   -0.5069 F   0  0  0  0  0  0  0  0  0  0  0  0
    2.4773    1.1501   -0.3081 F   0  0  0  0  0  0  0  0  0  0  0  0
    1.9224   -0.6793    0.7774 F   0  0  0  0  0  0  0  0  0  0  0  0
    6.3580    1.2674    1.6881 O   0  0  0  0  0  0  0  0  0  0  0  0
    6.7159   -1.7464    0.7814 O   0  0  0  0  0  0  0  0  0  0  0  0
    2.1998   -5.2572    1.7835 O   0  0  0  0  0  0  0  0  0  0  0  0
    2.6481   -4.5671   -1.9100 O   0  0  0  0  0  0  0  0  0  0  0  0
    8.9441    3.0438    7.3538 O   0  0  0  0  0  0  0  0  0  0  0  0
    4.1033    0.1607    1.9097 C   0  0  2  0  0  0  0  0  0  0  0  0
    4.4890   -1.3358    1.6620 C   0  0  2  0  0  0  0  0  0  0  0  0
    5.1204    0.9877    1.0834 C   0  0  2  0  0  0  0  0  0  0  0  0
    5.4113   -1.3042    0.4139 C   0  0  1  0  0  0  0  0  0  0  0  0
    5.4436    0.1131   -0.1023 C   0  0  0  0  0  0  0  0  0  0  0  0
    3.7963    0.5362    3.3472 C   0  0  0  0  0  0  0  0  0  0  0  0
    3.4579   -2.4737    1.7597 C   0  0  0  0  0  0  0  0  0  0  0  0
    4.7540   -0.1331    4.2539 C   0  0  0  0  0  0  0  0  0  0  0  0
    3.5116   -3.4811    0.8696 C   0  0  0  0  0  0  0  0  0  0  0  0
    2.9110   -4.8251    0.6364 C   0  0  2  0  0  0  0  0  0  0  0  0
    5.7636    0.5067    4.8304 C   0  0  0  0  0  0  0  0  0  0  0  0
    5.8636    2.0014    4.8677 C   0  0  0  0  0  0  0  0  0  0  0  0
    2.0554   -4.9960   -0.6591 C   0  0  0  0  0  0  0  0  0  0  0  0
    5.7256    2.4431    6.3072 C   0  0  0  0  0  0  0  0  0  0  0  0
    6.8337    1.8694    7.1812 C   0  0  0  0  0  0  0  0  0  0  0  0
    2.6798   -3.2247   -2.1851 C   0  0  0  0  0  0  0  0  0  0  0  0
    8.2121    2.3205    6.7379 C   0  0  0  0  0  0  0  0  0  0  0  0
    2.0845   -2.2748   -1.3767 C   0  0  0  0  0  0  0  0  0  0  0  0
    3.4548   -2.7821   -3.2593 C   0  0  0  0  0  0  0  0  0  0  0  0
    2.3662   -0.9143   -1.5106 C   0  0  0  0  0  0  0  0  0  0  0  0
    3.7822   -1.4239   -3.3913 C   0  0  0  0  0  0  0  0  0  0  0  0
    3.2300   -0.4864   -2.5222 C   0  0  0  0  0  0  0  0  0  0  0  0
    1.8297   -0.0405   -0.4209 C   0  0  0  0  0  0  0  0  0  0  0  0
    8.5719    1.8364    5.5250 O   0  0  0  0  0  0  0  0  0  0  0  0
    6.2063    1.3408    2.6360 H   0  0  0  0  0  0  0  0  0  0  0  0
    7.0774   -1.0732    1.3874 H   0  0  0  0  0  0  0  0  0  0  0  0
    1.5477   -4.5713    1.9949 H   0  0  0  0  0  0  0  0  0  0  0  0
    3.1695    0.4782    1.4898 H   0  0  0  0  0  0  0  0  0  0  0  0
    5.1700   -1.6349    2.4615 H   0  0  0  0  0  0  0  0  0  0  0  0
    4.6702    1.9259    0.7309 H   0  0  0  0  0  0  0  0  0  0  0  0
    5.1144   -1.9206   -0.4280 H   0  0  0  0  0  0  0  0  0  0  0  0
    6.3888    0.3379   -0.6004 H   0  0  0  0  0  0  0  0  0  0  0  0
    4.6540    0.2452   -0.8201 H   0  0  0  0  0  0  0  0  0  0  0  0
    3.7822    1.6271    3.3922 H   0  0  0  0  0  0  0  0  0  0  0  0
    2.7809    0.2477    3.6389 H   0  0  0  0  0  0  0  0  0  0  0  0
    2.7785   -2.4911    2.6136 H   0  0  0  0  0  0  0  0  0  0  0  0
    4.6965   -1.2162    4.3519 H   0  0  0  0  0  0  0  0  0  0  0  0
    4.2149   -3.3765    0.0605 H   0  0  0  0  0  0  0  0  0  0  0  0
    3.7880   -5.4757    0.5227 H   0  0  0  0  0  0  0  0  0  0  0  0
    6.5162   -0.1059    5.3243 H   0  0  0  0  0  0  0  0  0  0  0  0
    6.7795    2.3374    4.3828 H   0  0  0  0  0  0  0  0  0  0  0  0
    5.0940    2.5258    4.3040 H   0  0  0  0  0  0  0  0  0  0  0  0
    1.0386   -4.6021   -0.5405 H   0  0  0  0  0  0  0  0  0  0  0  0
    1.9050   -6.0773   -0.7697 H   0  0  0  0  0  0  0  0  0  0  0  0
    5.7224    3.5367    6.3372 H   0  0  0  0  0  0  0  0  0  0  0  0
    4.7446    2.1152    6.6855 H   0  0  0  0  0  0  0  0  0  0  0  0
    6.6720    2.2042    8.2077 H   0  0  0  0  0  0  0  0  0  0  0  0
    6.8083    0.7751    7.2208 H   0  0  0  0  0  0  0  0  0  0  0  0
    1.4925   -2.5637   -0.5137 H   0  0  0  0  0  0  0  0  0  0  0  0
    3.8410   -3.4915   -3.9851 H   0  0  0  0  0  0  0  0  0  0  0  0
    4.5030   -1.1007   -4.1411 H   0  0  0  0  0  0  0  0  0  0  0  0
    3.5471    0.5561   -2.5843 H   0  0  0  0  0  0  0  0  0  0  0  0
    9.3901    2.3098    5.2684 H   0  0  0  0  0  0  0  0  0  0  0  0
  1 31  1  0  0  0  0
  2 31  1  0  0  0  0
  3 31  1  0  0  0  0
  4 33  1  0  0  0  0
  5 34  1  0  0  0  0
  6 35  1  0  0  0  0
  7 21  1  0  0  0  0
  7 24  1  0  0  0  0
  8 25  2  0  0  0  0
  9 10  1  0  0  0  0
  9 11  1  0  0  0  0
  9 36  1  6  0  0  0
  9 14  1  0  0  0  0
 10 12  1  0  0  0  0
 10 15  1  0  0  0  0
 10 37  1  1  0  0  0
 11 13  1  0  0  0  0
 11 38  1  6  0  0  0
 11  4  1  0  0  0  0
 12  5  1  0  0  0  0
 12 13  1  0  0  0  0
 12 39  1  6  0  0  0
 13 40  1  0  0  0  0
 13 41  1  0  0  0  0
 14 16  1  0  0  0  0
 14 42  1  0  0  0  0
 14 43  1  0  0  0  0
 15 17  2  0  0  0  0
 15 44  1  0  0  0  0
 16 19  2  0  0  0  0
 16 45  1  0  0  0  0
 17 46  1  0  0  0  0
 18 21  1  0  0  0  0
 18 47  1  6  0  0  0
 18 17  1  0  0  0  0
 18  6  1  0  0  0  0
 19 20  1  0  0  0  0
 19 48  1  0  0  0  0
 20 22  1  0  0  0  0
 20 49  1  0  0  0  0
 20 50  1  0  0  0  0
 21 51  1  0  0  0  0
 21 52  1  0  0  0  0
 22 23  1  0  0  0  0
 22 53  1  0  0  0  0
 22 54  1  0  0  0  0
 23 25  1  0  0  0  0
 23 55  1  0  0  0  0
 23 56  1  0  0  0  0
 24 26  1  0  0  0  0
 24 27  2  0  0  0  0
 25 32  1  0  0  0  0
 26 28  2  0  0  0  0
 26 57  1  0  0  0  0
 27 29  1  0  0  0  0
 27 58  1  0  0  0  0
 28 30  1  0  0  0  0
 28 31  1  0  0  0  0
 29 30  2  0  0  0  0
 29 59  1  0  0  0  0
 30 60  1  0  0  0  0
 32 61  1  0  0  0  0
M  END
>  <DRUGBANK_ID>
DB11519

>  <COMMON_NAME>
Fluprostenol

>  <CAS_NUMBER>
40666-16-8

>  <UNII>
358S7VUE5N

>  <SYNONYMS>
Fluprostenol; Fluprostenolum; Travoprost acid; Travoprost free acid

$$$$
