
 OpenBabel10282417163D

 39 41  0  0  0  0  0  0  0  0999 V2000
   -1.0690   -1.1679    0.4726 C   0  0  0  0  0  0  0  0  0  0  0  0
   -2.2502   -2.0571    0.2330 C   0  0  1  0  0  0  0  0  0  0  0  0
   -1.1056    0.1995    0.1837 C   0  0  0  0  0  0  0  0  0  0  0  0
    0.1786   -1.7898    0.6115 C   0  0  0  0  0  0  0  0  0  0  0  0
   -1.9935   -2.6448   -1.1803 C   0  0  0  0  0  0  0  0  0  0  0  0
   -2.6602   -3.0109    1.2334 O   0  0  0  0  0  0  0  0  0  0  0  0
    0.0921    0.8947    0.0344 C   0  0  0  0  0  0  0  0  0  0  0  0
   -2.5844    1.0676   -0.0471 Cl  0  0  0  0  0  0  0  0  0  0  0  0
    1.3545   -1.1381    0.3010 C   0  0  0  0  0  0  0  0  0  0  0  0
   -0.7957   -3.5080   -1.4656 N   0  0  0  0  0  0  0  0  0  0  0  0
   -2.1431   -4.3398    1.1518 C   0  0  0  0  0  0  0  0  0  0  0  0
    1.3119    0.2168    0.0666 C   0  0  0  0  0  0  0  0  0  0  0  0
    0.5104   -3.2015   -1.8043 C   0  0  0  0  0  0  0  0  0  0  0  0
   -0.6104   -4.8386   -1.4318 C   0  0  0  0  0  0  0  0  0  0  0  0
   -2.7764   -5.4860    0.0851 C   0  0  0  0  0  0  0  0  0  0  0  0
    2.7976    1.0464   -0.1132 Cl  0  0  0  0  0  0  0  0  0  0  0  0
    1.3129   -4.3105   -1.5023 C   0  0  0  0  0  0  0  0  0  0  0  0
    0.5836   -5.3821   -1.3295 N   0  0  0  0  0  0  0  0  0  0  0  0
   -3.3456   -5.2732   -1.3021 C   0  0  0  0  0  0  0  0  0  0  0  0
   -2.0789   -6.7336    0.2010 C   0  0  0  0  0  0  0  0  0  0  0  0
   -3.0476   -6.0858   -2.4654 C   0  0  0  0  0  0  0  0  0  0  0  0
   -1.8692   -7.5873   -0.9722 C   0  0  0  0  0  0  0  0  0  0  0  0
   -2.3289   -7.2593   -2.2886 C   0  0  0  0  0  0  0  0  0  0  0  0
   -1.5786   -7.9279   -3.7064 Cl  0  0  0  0  0  0  0  0  0  0  0  0
   -3.1643   -1.4359    0.1989 H   0  0  0  0  0  0  0  0  0  0  0  0
    0.2672   -2.8638    0.7260 H   0  0  0  0  0  0  0  0  0  0  0  0
   -2.9823   -3.0566   -1.1783 H   0  0  0  0  0  0  0  0  0  0  0  0
   -2.0902   -1.9367   -2.0055 H   0  0  0  0  0  0  0  0  0  0  0  0
    0.0710    1.9663   -0.1168 H   0  0  0  0  0  0  0  0  0  0  0  0
    2.2604   -1.7317    0.1914 H   0  0  0  0  0  0  0  0  0  0  0  0
   -1.0535   -4.2337    1.0459 H   0  0  0  0  0  0  0  0  0  0  0  0
   -2.1707   -4.7348    2.1836 H   0  0  0  0  0  0  0  0  0  0  0  0
    0.7827   -2.2094   -2.0596 H   0  0  0  0  0  0  0  0  0  0  0  0
   -1.3277   -5.5082   -1.4487 H   0  0  0  0  0  0  0  0  0  0  0  0
    2.3728   -4.4763   -1.3989 H   0  0  0  0  0  0  0  0  0  0  0  0
   -3.5389   -4.3383   -1.8131 H   0  0  0  0  0  0  0  0  0  0  0  0
   -1.3460   -6.8469    1.0191 H   0  0  0  0  0  0  0  0  0  0  0  0
   -2.9029   -5.5358   -3.4331 H   0  0  0  0  0  0  0  0  0  0  0  0
   -1.0449   -8.3046   -0.9200 H   0  0  0  0  0  0  0  0  0  0  0  0
  1  2  1  0  0  0  0
  1  3  2  0  0  0  0
  1  4  1  0  0  0  0
  2  5  1  0  0  0  0
  2  6  1  0  0  0  0
  2 25  1  6  0  0  0
  3  7  1  0  0  0  0
  3  8  1  0  0  0  0
  4  9  2  0  0  0  0
  4 26  1  0  0  0  0
  5 10  1  0  0  0  0
  5 27  1  0  0  0  0
  5 28  1  0  0  0  0
  6 11  1  0  0  0  0
  7 12  2  0  0  0  0
  7 29  1  0  0  0  0
  9 12  1  0  0  0  0
  9 30  1  0  0  0  0
 10 13  1  0  0  0  0
 10 14  1  0  0  0  0
 11 15  1  0  0  0  0
 11 31  1  0  0  0  0
 11 32  1  0  0  0  0
 12 16  1  0  0  0  0
 13 17  2  0  0  0  0
 13 33  1  0  0  0  0
 14 18  2  0  0  0  0
 14 34  1  0  0  0  0
 15 19  1  0  0  0  0
 15 20  2  0  0  0  0
 17 18  1  0  0  0  0
 17 35  1  0  0  0  0
 19 21  2  0  0  0  0
 19 36  1  0  0  0  0
 20 22  1  0  0  0  0
 20 37  1  0  0  0  0
 21 23  1  0  0  0  0
 21 38  1  0  0  0  0
 22 23  2  0  0  0  0
 22 39  1  0  0  0  0
 23 24  1  0  0  0  0
M  END
>  <DRUGBANK_ID>
DB07705

>  <COMMON_NAME>
(S)-econazole

>  <CAS_NUMBER>
73094-37-8

>  <UNII>
E3VE9L071S

>  <SYNONYMS>
(+)-Econazole

$$$$
