ANM
 OpenBabel10282417163D

 38 39  0  0  0  0  0  0  0  0999 V2000
    1.2062   -0.2614   -0.8303 C   0  0  0  0  0  0  0  0  0  0  0  0
    1.1083    3.0578    1.7997 C   0  0  2  0  0  0  0  0  0  0  0  0
    1.4587    3.2866    3.2618 C   0  0  2  0  0  0  0  0  0  0  0  0
    0.3532    2.5075    3.9527 C   0  0  0  0  0  0  0  0  0  0  0  0
    1.7374    0.5154    1.8491 C   0  0  0  0  0  0  0  0  0  0  0  0
    0.4776   -0.0651    2.4433 C   0  0  0  0  0  0  0  0  0  0  0  0
    0.4340   -1.3641   -0.4807 C   0  0  0  0  0  0  0  0  0  0  0  0
   -0.9396   -1.1609   -0.2933 C   0  0  0  0  0  0  0  0  0  0  0  0
   -1.4725    0.1432   -0.2126 C   0  0  0  0  0  0  0  0  0  0  0  0
   -0.6284    1.2545   -0.2893 C   0  0  0  0  0  0  0  0  0  0  0  0
    0.6576    1.0394   -0.8060 C   0  0  0  0  0  0  0  0  0  0  0  0
    2.3299   -2.7993   -0.1084 C   0  0  0  0  0  0  0  0  0  0  0  0
   -1.0441    2.5865    0.3355 C   0  0  0  0  0  0  0  0  0  0  0  0
   -0.4194    3.0901    1.7142 C   0  0  1  0  0  0  0  0  0  0  0  0
   -0.8634    2.6365    3.0665 N   0  0  0  0  0  0  0  0  0  0  0  0
    0.9112   -2.6114   -0.1677 O   0  0  0  0  0  0  0  0  0  0  0  0
    1.7903    1.8143    1.4190 O   0  0  0  0  0  0  0  0  0  0  0  0
    2.7184   -0.1833    1.7097 O   0  0  0  0  0  0  0  0  0  0  0  0
    1.4209    4.6390    3.6740 O   0  0  0  0  0  0  0  0  0  0  0  0
    1.5042    3.8650    1.1667 H   0  0  0  0  0  0  0  0  0  0  0  0
    2.4586    2.8770    3.4589 H   0  0  0  0  0  0  0  0  0  0  0  0
   -0.7472    4.1429    1.7582 H   0  0  0  0  0  0  0  0  0  0  0  0
    2.2915   -0.3343   -0.8866 H   0  0  0  0  0  0  0  0  0  0  0  0
    0.1398    2.7755    4.9856 H   0  0  0  0  0  0  0  0  0  0  0  0
    0.7717    1.5003    4.0718 H   0  0  0  0  0  0  0  0  0  0  0  0
   -0.2700   -0.6078    1.8879 H   0  0  0  0  0  0  0  0  0  0  0  0
    0.6952   -0.5959    3.3653 H   0  0  0  0  0  0  0  0  0  0  0  0
   -0.1324    0.7469    2.6710 H   0  0  0  0  0  0  0  0  0  0  0  0
   -1.5727   -2.0003   -0.0128 H   0  0  0  0  0  0  0  0  0  0  0  0
   -2.5190    0.2736    0.0505 H   0  0  0  0  0  0  0  0  0  0  0  0
    1.3521    1.8706   -0.9375 H   0  0  0  0  0  0  0  0  0  0  0  0
    2.8391   -2.3827   -0.9811 H   0  0  0  0  0  0  0  0  0  0  0  0
    2.7606   -2.4074    0.8191 H   0  0  0  0  0  0  0  0  0  0  0  0
    2.5299   -3.8762   -0.1096 H   0  0  0  0  0  0  0  0  0  0  0  0
   -0.8273    3.3601   -0.4174 H   0  0  0  0  0  0  0  0  0  0  0  0
   -2.1379    2.5981    0.4374 H   0  0  0  0  0  0  0  0  0  0  0  0
   -1.4446    1.8012    3.0152 H   0  0  0  0  0  0  0  0  0  0  0  0
    2.3207    4.9893    3.5671 H   0  0  0  0  0  0  0  0  0  0  0  0
  1  7  2  0  0  0  0
  1 11  1  0  0  0  0
  1 23  1  0  0  0  0
  2  3  1  0  0  0  0
  2 14  1  0  0  0  0
  2 17  1  0  0  0  0
  2 20  1  6  0  0  0
  3  4  1  0  0  0  0
  3 21  1  1  0  0  0
  3 19  1  0  0  0  0
  4 15  1  0  0  0  0
  4 24  1  0  0  0  0
  4 25  1  0  0  0  0
  5  6  1  0  0  0  0
  5 17  1  0  0  0  0
  5 18  2  0  0  0  0
  6 26  1  0  0  0  0
  6 27  1  0  0  0  0
  6 28  1  0  0  0  0
  7  8  1  0  0  0  0
  7 16  1  0  0  0  0
  8  9  2  0  0  0  0
  8 29  1  0  0  0  0
  9 10  1  0  0  0  0
  9 30  1  0  0  0  0
 10 11  2  0  0  0  0
 10 13  1  0  0  0  0
 11 31  1  0  0  0  0
 12 16  1  0  0  0  0
 12 32  1  0  0  0  0
 12 33  1  0  0  0  0
 12 34  1  0  0  0  0
 13 35  1  0  0  0  0
 13 36  1  0  0  0  0
 14 13  1  0  0  0  0
 14 15  1  0  0  0  0
 14 22  1  1  0  0  0
 15 37  1  0  0  0  0
 19 38  1  0  0  0  0
M  END
>  <DRUGBANK_ID>
DB07374

>  <COMMON_NAME>
Anisomycin

>  <CAS_NUMBER>
22862-76-6

>  <UNII>
6C74YM2NGI

$$$$
