OAC
 OpenBabel10282417123D

 25 25  0  0  0  0  0  0  0  0999 V2000
    0.7835   -0.3469    0.0280 O   0  0  0  0  0  0  0  0  0  0  0  0
    1.9879   -0.0645   -0.0549 C   0  0  0  0  0  0  0  0  0  0  0  0
    3.0476   -1.0541    0.5376 C   0  0  1  0  0  0  0  0  0  0  0  0
    3.9776   -1.8190   -0.4591 C   0  0  0  0  0  0  0  0  0  0  0  0
    3.8321   -0.6203    1.7982 C   0  0  0  0  0  0  0  0  0  0  0  0
    5.0811   -0.9711   -1.0579 C   0  0  0  0  0  0  0  0  0  0  0  0
    4.9992    0.4068   -0.8740 C   0  0  0  0  0  0  0  0  0  0  0  0
    5.7220    1.3693   -1.5360 C   0  0  0  0  0  0  0  0  0  0  0  0
    6.8020    0.9399   -2.2520 C   0  0  0  0  0  0  0  0  0  0  0  0
    7.0718   -0.4342   -2.3175 C   0  0  0  0  0  0  0  0  0  0  0  0
    6.1943   -1.3890   -1.7672 C   0  0  0  0  0  0  0  0  0  0  0  0
    6.5446   -2.6979   -1.9116 O   0  0  0  0  0  0  0  0  0  0  0  0
    2.2624    1.1054   -0.6454 O   0  0  0  0  0  0  0  0  0  0  0  0
    2.3847   -1.8442    0.9321 H   0  0  0  0  0  0  0  0  0  0  0  0
    4.4269   -2.6714    0.0749 H   0  0  0  0  0  0  0  0  0  0  0  0
    3.3621   -2.2519   -1.2612 H   0  0  0  0  0  0  0  0  0  0  0  0
    3.1835   -0.1456    2.5342 H   0  0  0  0  0  0  0  0  0  0  0  0
    4.3169   -1.4930    2.2563 H   0  0  0  0  0  0  0  0  0  0  0  0
    4.6569    0.0752    1.6245 H   0  0  0  0  0  0  0  0  0  0  0  0
    4.3919    0.7930   -0.0844 H   0  0  0  0  0  0  0  0  0  0  0  0
    5.4629    2.4140   -1.3989 H   0  0  0  0  0  0  0  0  0  0  0  0
    7.4578    1.6830   -2.6880 H   0  0  0  0  0  0  0  0  0  0  0  0
    7.9902   -0.7552   -2.7960 H   0  0  0  0  0  0  0  0  0  0  0  0
    5.8908   -3.2605   -1.4684 H   0  0  0  0  0  0  0  0  0  0  0  0
    3.1013    1.5449   -0.8649 H   0  0  0  0  0  0  0  0  0  0  0  0
  1  2  2  0  0  0  0
  2  3  1  0  0  0  0
  2 13  1  0  0  0  0
  3  4  1  0  0  0  0
  3  5  1  0  0  0  0
  3 14  1  1  0  0  0
  4  6  1  0  0  0  0
  4 15  1  0  0  0  0
  4 16  1  0  0  0  0
  5 17  1  0  0  0  0
  5 18  1  0  0  0  0
  5 19  1  0  0  0  0
  6  7  2  0  0  0  0
  6 11  1  0  0  0  0
  7  8  1  0  0  0  0
  7 20  1  0  0  0  0
  8  9  2  0  0  0  0
  8 21  1  0  0  0  0
  9 10  1  0  0  0  0
  9 22  1  0  0  0  0
 10 11  2  0  0  0  0
 10 23  1  0  0  0  0
 11 12  1  0  0  0  0
 12 24  1  0  0  0  0
 13 25  1  0  0  0  0
M  END
>  <DRUGBANK_ID>
DB01662

>  <SECONDARY_ACCESSION_NUMBERS>
EXPT02407

>  <COMMON_NAME>
Trans-O-Hydroxy-Alpha-Methyl Cinnamate

$$$$
