
 OpenBabel10282417133D

 22 22  0  0  1  0  0  0  0  0999 V2000
    1.0317   -0.0580   -0.0090 C   0  0  0  0  0  0  0  0  0  0  0  0
    0.5739    3.2906   -1.9162 C   0  0  0  0  0  0  0  0  0  0  0  0
    0.6312    0.8806   -1.1421 C   0  0  2  0  0  0  0  0  0  0  0  0
    1.0631    2.3282   -0.8333 C   0  0  1  0  0  0  0  0  0  0  0  0
   -0.9208    3.1039   -2.1621 C   0  0  1  0  0  0  0  0  0  0  0  0
   -1.2297    1.6160   -2.4470 C   0  0  1  0  0  0  0  0  0  0  0  0
    2.4764    2.4363   -0.7060 O   0  0  0  0  0  0  0  0  0  0  0  0
   -1.6358    3.5675   -1.0098 O   0  0  0  0  0  0  0  0  0  0  0  0
   -0.6938    1.1563   -3.6776 O   0  0  0  0  0  0  0  0  0  0  0  0
   -0.7814    0.7949   -1.3599 O   0  0  0  0  0  0  0  0  0  0  0  0
    1.1477    0.5132   -2.0368 H   0  0  0  0  0  0  0  0  0  0  0  0
    0.6264    2.6357    0.1247 H   0  0  0  0  0  0  0  0  0  0  0  0
   -1.2299    3.7256   -3.0092 H   0  0  0  0  0  0  0  0  0  0  0  0
   -2.3159    1.4858   -2.5102 H   0  0  0  0  0  0  0  0  0  0  0  0
    0.6426   -1.0671   -0.1788 H   0  0  0  0  0  0  0  0  0  0  0  0
    0.6350    0.2855    0.9519 H   0  0  0  0  0  0  0  0  0  0  0  0
    2.1224   -0.1173    0.0685 H   0  0  0  0  0  0  0  0  0  0  0  0
    0.7955    4.3209   -1.6143 H   0  0  0  0  0  0  0  0  0  0  0  0
    1.1352    3.1197   -2.8431 H   0  0  0  0  0  0  0  0  0  0  0  0
    2.8912    2.1076   -1.5214 H   0  0  0  0  0  0  0  0  0  0  0  0
   -1.5482    2.8927   -0.3096 H   0  0  0  0  0  0  0  0  0  0  0  0
    0.2433    1.4086   -3.7226 H   0  0  0  0  0  0  0  0  0  0  0  0
  1 15  1  0  0  0  0
  1 16  1  0  0  0  0
  1 17  1  0  0  0  0
  2 18  1  0  0  0  0
  2 19  1  0  0  0  0
  3  1  1  0  0  0  0
  3 11  1  6  0  0  0
  4  2  1  0  0  0  0
  4  3  1  0  0  0  0
  4  7  1  0  0  0  0
  4 12  1  1  0  0  0
  5  2  1  0  0  0  0
  5  8  1  0  0  0  0
  5 13  1  6  0  0  0
  6  5  1  0  0  0  0
  6  9  1  0  0  0  0
  6 14  1  6  0  0  0
  7 20  1  0  0  0  0
  8 21  1  0  0  0  0
  9 22  1  0  0  0  0
 10  3  1  0  0  0  0
 10  6  1  0  0  0  0
M  END
>  <DRUGBANK_ID>
DB04028

>  <SECONDARY_ACCESSION_NUMBERS>
EXPT03143

>  <COMMON_NAME>
Tyvelose

>  <CAS_NUMBER>
5658-12-8

>  <SYNONYMS>
3,6-dideoxy-α-D-arabino-hexopyranose; α-Tyv; α-tyvelopyranose

$$$$
