
 OpenBabel10282417173D

 60 64  0  0  0  0  0  0  0  0999 V2000
    1.7712    1.5525    0.0817 S   0  0  0  0  0  0  0  0  0  0  0  0
   -1.7440   -4.8219    1.9550 O   0  0  0  0  0  0  0  0  0  0  0  0
   -1.6838   -8.0083   -1.3737 O   0  0  0  0  0  0  0  0  0  0  0  0
   -1.6607   -6.1864    0.0215 N   0  0  0  0  0  0  0  0  0  0  0  0
    2.5814   -2.0375   -0.2376 N   0  0  0  0  0  0  0  0  0  0  0  0
    2.6669    0.2015    0.2057 N   0  0  0  0  0  0  0  0  0  0  0  0
    3.1518   -4.9950   -0.6525 N   0  0  0  0  0  0  0  0  0  0  0  0
   -2.8011   -6.9322    1.8267 C   0  0  2  0  0  0  0  0  0  0  0  0
   -2.3910   -8.1156    0.9399 C   0  0  1  0  0  0  0  0  0  0  0  0
   -1.9908   -5.8249    1.3075 C   0  0  0  0  0  0  0  0  0  0  0  0
   -1.9273   -7.4745   -0.3237 C   0  0  0  0  0  0  0  0  0  0  0  0
    1.9037   -0.8729    0.0721 C   0  0  0  0  0  0  0  0  0  0  0  0
    0.4005   -0.5838    0.0519 C   0  0  0  0  0  0  0  0  0  0  0  0
    0.2374    0.8051    0.0567 C   0  0  0  0  0  0  0  0  0  0  0  0
   -2.6241   -7.0632    3.3280 C   0  0  0  0  0  0  0  0  0  0  0  0
   -1.2155   -8.9309    1.4728 C   0  0  0  0  0  0  0  0  0  0  0  0
   -0.8086   -5.4775   -0.8097 C   0  0  0  0  0  0  0  0  0  0  0  0
   -0.8498   -1.3015   -0.0232 C   0  0  0  0  0  0  0  0  0  0  0  0
   -1.0160    1.4521    0.0156 C   0  0  0  0  0  0  0  0  0  0  0  0
    3.2520   -2.8326    0.8468 C   0  0  0  0  0  0  0  0  0  0  0  0
    1.8473   -2.9002   -1.1010 C   0  0  0  0  0  0  0  0  0  0  0  0
   -1.4389   -7.9250    3.7420 C   0  0  0  0  0  0  0  0  0  0  0  0
   -1.4033   -9.2212    2.9468 C   0  0  0  0  0  0  0  0  0  0  0  0
   -2.1139   -0.6692   -0.0111 C   0  0  0  0  0  0  0  0  0  0  0  0
    3.9632   -4.0746    0.1909 C   0  0  0  0  0  0  0  0  0  0  0  0
    2.4905   -4.1709   -1.6809 C   0  0  0  0  0  0  0  0  0  0  0  0
   -2.1896    0.7061    0.0033 C   0  0  0  0  0  0  0  0  0  0  0  0
    0.0409   -4.6674    0.0654 C   0  0  0  0  0  0  0  0  0  0  0  0
    2.2831   -5.9228    0.0979 C   0  0  0  0  0  0  0  0  0  0  0  0
    1.1196   -5.3588    0.9009 C   0  0  0  0  0  0  0  0  0  0  0  0
   -3.2636   -8.7200    0.7090 H   0  0  0  0  0  0  0  0  0  0  0  0
   -3.8135   -6.5874    1.5907 H   0  0  0  0  0  0  0  0  0  0  0  0
   -2.5295   -6.0854    3.8217 H   0  0  0  0  0  0  0  0  0  0  0  0
   -3.5447   -7.5115    3.7056 H   0  0  0  0  0  0  0  0  0  0  0  0
   -1.1473   -9.8630    0.9011 H   0  0  0  0  0  0  0  0  0  0  0  0
   -0.2480   -8.4247    1.3217 H   0  0  0  0  0  0  0  0  0  0  0  0
   -1.3952   -4.8516   -1.4976 H   0  0  0  0  0  0  0  0  0  0  0  0
   -0.1592   -6.1022   -1.4422 H   0  0  0  0  0  0  0  0  0  0  0  0
   -0.9162   -2.3708   -0.0936 H   0  0  0  0  0  0  0  0  0  0  0  0
   -1.0580    2.5355    0.0017 H   0  0  0  0  0  0  0  0  0  0  0  0
    3.9767   -2.2249    1.3894 H   0  0  0  0  0  0  0  0  0  0  0  0
    2.5487   -3.1656    1.6212 H   0  0  0  0  0  0  0  0  0  0  0  0
    1.3242   -3.1927   -0.2301 H   0  0  0  0  0  0  0  0  0  0  0  0
    1.1127   -2.4566   -1.7843 H   0  0  0  0  0  0  0  0  0  0  0  0
   -0.4972   -7.3756    3.6061 H   0  0  0  0  0  0  0  0  0  0  0  0
   -1.5250   -8.1480    4.8102 H   0  0  0  0  0  0  0  0  0  0  0  0
   -0.5893   -9.8566    3.3048 H   0  0  0  0  0  0  0  0  0  0  0  0
   -2.3432   -9.7668    3.0851 H   0  0  0  0  0  0  0  0  0  0  0  0
   -3.0328   -1.2594   -0.0216 H   0  0  0  0  0  0  0  0  0  0  0  0
    4.7062   -3.6456   -0.4931 H   0  0  0  0  0  0  0  0  0  0  0  0
    4.5233   -4.6613    0.9240 H   0  0  0  0  0  0  0  0  0  0  0  0
    3.2065   -3.8685   -2.4505 H   0  0  0  0  0  0  0  0  0  0  0  0
    1.7490   -4.7857   -2.2177 H   0  0  0  0  0  0  0  0  0  0  0  0
   -3.1540    1.2085   -0.0048 H   0  0  0  0  0  0  0  0  0  0  0  0
   -0.4133   -3.9264    0.7178 H   0  0  0  0  0  0  0  0  0  0  0  0
    0.2564   -4.1121   -0.8143 H   0  0  0  0  0  0  0  0  0  0  0  0
    1.8685   -6.6833   -0.5776 H   0  0  0  0  0  0  0  0  0  0  0  0
    2.9111   -6.5006    0.7904 H   0  0  0  0  0  0  0  0  0  0  0  0
    0.6706   -6.1493    1.5146 H   0  0  0  0  0  0  0  0  0  0  0  0
    1.4921   -4.6899    1.6794 H   0  0  0  0  0  0  0  0  0  0  0  0
  1  6  1  0  0  0  0
  1 14  1  0  0  0  0
  2 10  2  0  0  0  0
  3 11  2  0  0  0  0
  4 10  1  0  0  0  0
  4 11  1  0  0  0  0
  4 17  1  0  0  0  0
  5 12  1  0  0  0  0
  5 20  1  0  0  0  0
  5 21  1  0  0  0  0
  6 12  2  0  0  0  0
  7 25  1  0  0  0  0
  7 26  1  0  0  0  0
  7 29  1  0  0  0  0
  8  9  1  0  0  0  0
  8 10  1  0  0  0  0
  8 15  1  0  0  0  0
  8 32  1  6  0  0  0
  9 11  1  0  0  0  0
  9 16  1  0  0  0  0
  9 31  1  6  0  0  0
 12 13  1  0  0  0  0
 13 14  1  0  0  0  0
 13 18  2  0  0  0  0
 14 19  2  0  0  0  0
 15 22  1  0  0  0  0
 15 33  1  0  0  0  0
 15 34  1  0  0  0  0
 16 23  1  0  0  0  0
 16 35  1  0  0  0  0
 16 36  1  0  0  0  0
 17 28  1  0  0  0  0
 17 37  1  0  0  0  0
 17 38  1  0  0  0  0
 18 24  1  0  0  0  0
 18 39  1  0  0  0  0
 19 27  1  0  0  0  0
 19 40  1  0  0  0  0
 20 25  1  0  0  0  0
 20 41  1  0  0  0  0
 20 42  1  0  0  0  0
 21 26  1  0  0  0  0
 21 43  1  0  0  0  0
 21 44  1  0  0  0  0
 22 23  1  0  0  0  0
 22 45  1  0  0  0  0
 22 46  1  0  0  0  0
 23 47  1  0  0  0  0
 23 48  1  0  0  0  0
 24 27  2  0  0  0  0
 24 49  1  0  0  0  0
 25 50  1  0  0  0  0
 25 51  1  0  0  0  0
 26 52  1  0  0  0  0
 26 53  1  0  0  0  0
 27 54  1  0  0  0  0
 28 30  1  0  0  0  0
 28 55  1  0  0  0  0
 28 56  1  0  0  0  0
 29 30  1  0  0  0  0
 29 57  1  0  0  0  0
 29 58  1  0  0  0  0
 30 59  1  0  0  0  0
 30 60  1  0  0  0  0
M  END
>  <DRUGBANK_ID>
DB08922

>  <COMMON_NAME>
Perospirone

>  <CAS_NUMBER>
150915-41-6

>  <UNII>
N303OK87DT

>  <SYNONYMS>
cis-N-(4-(4-(1,2-Benzisothiazol-3-yl)-1-piperazinyl)butyl)-1,2-cyclohexanedicarboximide; Perospirone; SM-9018

$$$$
