ROK
 OpenBabel10282417173D

 30 30  0  0  0  0  0  0  0  0999 V2000
    0.8249   -0.1652    0.0111 O   0  0  0  0  0  0  0  0  0  0  0  0
    2.2661    0.0861   -0.1302 S   0  0  0  0  0  0  0  0  0  0  0  0
    2.9721    0.6503    0.9881 O   0  0  0  0  0  0  0  0  0  0  0  0
    3.0183   -1.4825   -0.4551 N   0  0  0  0  0  0  0  0  0  0  0  0
    4.0602   -2.0205   -1.2936 C   0  0  0  0  0  0  0  0  0  0  0  0
    4.1008   -3.2492   -1.5225 O   0  0  0  0  0  0  0  0  0  0  0  0
    5.0568   -1.2425   -1.8547 N   0  0  0  0  0  0  0  0  0  0  0  0
    4.8492    0.0897   -1.5215 C   0  0  0  0  0  0  0  0  0  0  0  0
    5.7045    1.3080   -1.6204 C   0  0  0  0  0  0  0  0  0  0  0  0
    6.8006    1.5049   -3.0181 S   0  0  0  0  0  0  0  0  0  0  0  0
    2.3768    1.4867   -1.6257 C   0  0  0  0  0  0  0  0  0  0  0  0
    2.5108    2.8175   -1.1847 C   0  0  0  0  0  0  0  0  0  0  0  0
    2.9719    3.8064   -2.1041 C   0  0  0  0  0  0  0  0  0  0  0  0
    3.4843    3.4821   -3.3784 C   0  0  0  0  0  0  0  0  0  0  0  0
    4.2089    4.3996   -4.1473 N   0  0  0  0  0  0  0  0  0  0  0  0
    3.4513    2.1599   -3.7765 C   0  0  0  0  0  0  0  0  0  0  0  0
    2.7358    1.2162   -3.0048 C   0  0  0  0  0  0  0  0  0  0  0  0
    2.6415   -2.2068    0.1658 H   0  0  0  0  0  0  0  0  0  0  0  0
    5.2054   -1.4796   -2.8346 H   0  0  0  0  0  0  0  0  0  0  0  0
    3.9226    0.0813   -2.0060 H   0  0  0  0  0  0  0  0  0  0  0  0
    4.6198    0.1158   -0.4712 H   0  0  0  0  0  0  0  0  0  0  0  0
    5.1134    2.2233   -1.4804 H   0  0  0  0  0  0  0  0  0  0  0  0
    6.2876    1.2629   -0.7063 H   0  0  0  0  0  0  0  0  0  0  0  0
    6.5422    0.3333   -3.5955 H   0  0  0  0  0  0  0  0  0  0  0  0
    2.3162    3.1063   -0.1493 H   0  0  0  0  0  0  0  0  0  0  0  0
    2.9919    4.8492   -1.7936 H   0  0  0  0  0  0  0  0  0  0  0  0
    4.4323    4.0785   -5.0882 H   0  0  0  0  0  0  0  0  0  0  0  0
    3.8020    5.3285   -4.1551 H   0  0  0  0  0  0  0  0  0  0  0  0
    4.0532    1.8399   -4.6384 H   0  0  0  0  0  0  0  0  0  0  0  0
    2.7984    0.2175   -3.4422 H   0  0  0  0  0  0  0  0  0  0  0  0
  1  2  2  0  0  0  0
  2  3  2  0  0  0  0
  2  4  1  0  0  0  0
  2 11  1  0  0  0  0
  4  5  1  0  0  0  0
  4 18  1  0  0  0  0
  5  6  2  0  0  0  0
  5  7  1  0  0  0  0
  7  8  1  0  0  0  0
  7 19  1  0  0  0  0
  8  9  1  0  0  0  0
  8 20  1  0  0  0  0
  8 21  1  0  0  0  0
  9 10  1  0  0  0  0
  9 22  1  0  0  0  0
  9 23  1  0  0  0  0
 10 24  1  0  0  0  0
 11 12  1  0  0  0  0
 11 17  2  0  0  0  0
 12 13  2  0  0  0  0
 12 25  1  0  0  0  0
 13 14  1  0  0  0  0
 13 26  1  0  0  0  0
 14 15  1  0  0  0  0
 14 16  2  0  0  0  0
 15 27  1  0  0  0  0
 15 28  1  0  0  0  0
 16 17  1  0  0  0  0
 16 29  1  0  0  0  0
 17 30  1  0  0  0  0
M  END
>  <DRUGBANK_ID>
DB08484

>  <COMMON_NAME>
4-AMINO-N-[(2-SULFANYLETHYL)CARBAMOYL]BENZENESULFONAMIDE

$$$$
