
 OpenBabel10282417203D

105105  0  0  1  0  0  0  0  0999 V2000
   -3.4764   -3.5430   -3.2784 C   0  0  0  0  0  0  0  0  0  0  0  0
   -2.7539   -3.0430   -2.1948 C   0  0  0  0  0  0  0  0  0  0  0  0
   -1.3338   -2.9665   -2.2941 C   0  0  0  0  0  0  0  0  0  0  0  0
   -0.8991   -2.2943   -3.5200 C   0  0  0  0  0  0  0  0  0  0  0  0
   -2.4794   -1.3780   -3.0600 C   0  0  0  0  0  0  0  0  0  0  0  0
   -4.6700   -2.4523   -1.7945 C   0  0  2  0  0  0  0  0  0  0  0  0
   -7.3986   -3.8820   -0.9681 C   0  0  2  0  0  0  0  0  0  0  0  0
  -10.3892   -5.9424   -0.1450 C   0  0  2  0  0  0  0  0  0  0  0  0
  -12.8796   -8.0224    0.5786 C   0  0  0  0  0  0  0  0  0  0  0  0
  -15.2376   -9.8388    0.7162 C   0  0  2  0  0  0  0  0  0  0  0  0
  -17.1348   -9.5735    1.1565 C   0  0  0  0  0  0  0  0  0  0  0  0
  -15.9707   -8.8016    2.6366 C   0  0  2  0  0  0  0  0  0  0  0  0
  -13.8922   -9.1114    2.2334 C   0  0  0  0  0  0  0  0  0  0  0  0
  -14.6852   -8.5251    0.1148 C   0  0  2  0  0  0  0  0  0  0  0  0
  -15.0811   -7.0565    0.3893 C   0  0  0  0  0  0  0  0  0  0  0  0
  -14.3686   -6.3217    1.4367 C   0  0  2  0  0  0  0  0  0  0  0  0
  -13.4928   -6.7326    2.2432 C   0  0  0  0  0  0  0  0  0  0  0  0
  -12.7942   -5.8280    0.2804 C   0  0  2  0  0  0  0  0  0  0  0  0
  -12.5728   -4.5944    0.0194 C   0  0  2  0  0  0  0  0  0  0  0  0
  -11.6807   -4.0073    1.0880 C   0  0  1  0  0  0  0  0  0  0  0  0
  -10.2006   -4.2052    0.7994 C   0  0  0  0  0  0  0  0  0  0  0  0
   -9.4019   -3.1865    0.6178 C   0  0  0  0  0  0  0  0  0  0  0  0
   -8.0378   -3.3552    0.6455 C   0  0  0  0  0  0  0  0  0  0  0  0
   -7.0895   -2.2868    0.3337 C   0  0  0  0  0  0  0  0  0  0  0  0
   -5.5664   -2.6516    0.0765 C   0  0  0  0  0  0  0  0  0  0  0  0
   -4.7567   -1.5480    0.1382 C   0  0  0  0  0  0  0  0  0  0  0  0
   -3.2197   -1.7559   -0.2034 C   0  0  0  0  0  0  0  0  0  0  0  0
   -2.3998   -0.7480   -0.3560 C   0  0  0  0  0  0  0  0  0  0  0  0
   -0.9833   -0.9703   -0.6672 C   0  0  0  0  0  0  0  0  0  0  0  0
   -0.0627    0.1803   -1.0703 C   0  0  0  0  0  0  0  0  0  0  0  0
    1.2925   -0.1346   -1.5409 C   0  0  1  0  0  0  0  0  0  0  0  0
   -0.0532    0.3303   -2.3766 C   0  0  2  0  0  0  0  0  0  0  0  0
   -2.6896   -0.3309   -1.8903 O   0  0  0  0  0  0  0  0  0  0  0  0
   -4.9806   -1.8869   -1.5413 C   0  0  0  0  0  0  0  0  0  0  0  0
   -3.8425   -0.3142   -1.8341 O   0  0  0  0  0  0  0  0  0  0  0  0
    0.7355   -0.2745   -4.2394 C   0  0  0  0  0  0  0  0  0  0  0  0
    2.1210    0.4588   -0.6142 O   0  0  0  0  0  0  0  0  0  0  0  0
   -9.3401   -5.5116    0.8345 C   0  0  0  0  0  0  0  0  0  0  0  0
  -11.9514   -2.6105    1.1426 O   0  0  0  0  0  0  0  0  0  0  0  0
  -13.9208   -4.3624    0.2235 O   0  0  0  0  0  0  0  0  0  0  0  0
  -13.0484   -6.7121   -1.1186 O   0  0  0  0  0  0  0  0  0  0  0  0
  -14.5094   -7.0450    2.8825 O   0  0  0  0  0  0  0  0  0  0  0  0
  -15.4413   -9.2485   -0.7318 O   0  0  0  0  0  0  0  0  0  0  0  0
  -16.7910   -9.6316    3.3748 O   0  0  0  0  0  0  0  0  0  0  0  0
  -17.2206  -11.2730    0.1287 O   0  0  0  0  0  0  0  0  0  0  0  0
  -12.6636   -7.1625    0.6524 O   0  0  0  0  0  0  0  0  0  0  0  0
   -2.2636   -1.4309   -2.4804 O   0  0  0  0  0  0  0  0  0  0  0  0
   -3.1627   -3.0808   -4.1868 H   0  0  0  0  0  0  0  0  0  0  0  0
   -4.5513   -3.4479   -3.1885 H   0  0  0  0  0  0  0  0  0  0  0  0
   -3.1798   -4.5407   -3.2030 H   0  0  0  0  0  0  0  0  0  0  0  0
   -3.2034   -2.2434   -2.5000 H   0  0  0  0  0  0  0  0  0  0  0  0
   -3.2631   -3.4124   -1.3692 H   0  0  0  0  0  0  0  0  0  0  0  0
   -1.0786   -2.6192   -1.4463 H   0  0  0  0  0  0  0  0  0  0  0  0
   -1.0215   -3.8812   -2.1505 H   0  0  0  0  0  0  0  0  0  0  0  0
    0.1795   -2.3039   -3.5670 H   0  0  0  0  0  0  0  0  0  0  0  0
   -1.3142   -2.7717   -4.3400 H   0  0  0  0  0  0  0  0  0  0  0  0
   -1.3284   -0.5440   -4.3790 H   0  0  0  0  0  0  0  0  0  0  0  0
   -2.5415   -0.5996   -3.6918 H   0  0  0  0  0  0  0  0  0  0  0  0
   -2.7741   -1.5488   -1.8050 H   0  0  0  0  0  0  0  0  0  0  0  0
   -6.3445   -2.3310   -1.2586 H   0  0  0  0  0  0  0  0  0  0  0  0
  -12.0087   -7.0271    0.4575 H   0  0  0  0  0  0  0  0  0  0  0  0
  -14.4770   -9.5057    1.1181 H   0  0  0  0  0  0  0  0  0  0  0  0
  -14.5930   -9.3404    1.3353 H   0  0  0  0  0  0  0  0  0  0  0  0
  -15.9308  -11.3705    0.6414 H   0  0  0  0  0  0  0  0  0  0  0  0
  -18.3449   -9.5304    1.2013 H   0  0  0  0  0  0  0  0  0  0  0  0
  -17.2646   -9.2505    0.1300 H   0  0  0  0  0  0  0  0  0  0  0  0
  -16.6670   -7.8989    2.1639 H   0  0  0  0  0  0  0  0  0  0  0  0
  -14.1688  -10.5689    1.9080 H   0  0  0  0  0  0  0  0  0  0  0  0
  -14.5910   -9.0383    2.8609 H   0  0  0  0  0  0  0  0  0  0  0  0
  -13.6167   -8.9134   -0.2554 H   0  0  0  0  0  0  0  0  0  0  0  0
  -16.0107   -6.9879    0.6945 H   0  0  0  0  0  0  0  0  0  0  0  0
  -14.8853   -6.7078   -0.4317 H   0  0  0  0  0  0  0  0  0  0  0  0
  -14.3542   -5.5119    1.7949 H   0  0  0  0  0  0  0  0  0  0  0  0
  -12.4664   -7.7304    1.9377 H   0  0  0  0  0  0  0  0  0  0  0  0
  -12.4091   -6.4200    2.2253 H   0  0  0  0  0  0  0  0  0  0  0  0
  -11.5884   -6.3272   -0.7829 H   0  0  0  0  0  0  0  0  0  0  0  0
  -12.3042   -4.2010   -0.9580 H   0  0  0  0  0  0  0  0  0  0  0  0
  -11.9290   -4.4624    2.0338 H   0  0  0  0  0  0  0  0  0  0  0  0
   -9.7603   -2.1878    0.6841 H   0  0  0  0  0  0  0  0  0  0  0  0
   -7.5617   -4.4931    0.3572 H   0  0  0  0  0  0  0  0  0  0  0  0
   -7.4637   -1.3291    0.2091 H   0  0  0  0  0  0  0  0  0  0  0  0
   -5.2239   -3.6174   -0.2574 H   0  0  0  0  0  0  0  0  0  0  0  0
   -5.1588   -0.5211   -0.2259 H   0  0  0  0  0  0  0  0  0  0  0  0
   -2.7829   -2.6295   -0.4601 H   0  0  0  0  0  0  0  0  0  0  0  0
   -2.8243    0.3104   -0.5716 H   0  0  0  0  0  0  0  0  0  0  0  0
   -0.3535   -1.6783   -1.0774 H   0  0  0  0  0  0  0  0  0  0  0  0
   -0.5436    1.1562   -1.1701 H   0  0  0  0  0  0  0  0  0  0  0  0
    1.5018   -1.1780   -1.6769 H   0  0  0  0  0  0  0  0  0  0  0  0
    2.0279    0.3748   -2.9928 H   0  0  0  0  0  0  0  0  0  0  0  0
    1.0510    0.3522   -5.0256 H   0  0  0  0  0  0  0  0  0  0  0  0
    1.0328   -1.2160   -4.1122 H   0  0  0  0  0  0  0  0  0  0  0  0
   -0.2347    0.0698   -4.1008 H   0  0  0  0  0  0  0  0  0  0  0  0
    2.8254   -0.2196   -0.6287 H   0  0  0  0  0  0  0  0  0  0  0  0
   -9.1395   -5.8018   -0.3530 H   0  0  0  0  0  0  0  0  0  0  0  0
   -8.8497   -5.8357    1.4443 H   0  0  0  0  0  0  0  0  0  0  0  0
  -10.0921   -6.5041    1.1816 H   0  0  0  0  0  0  0  0  0  0  0  0
  -11.7159   -2.0788    1.9351 H   0  0  0  0  0  0  0  0  0  0  0  0
  -14.1129   -4.6391    1.0625 H   0  0  0  0  0  0  0  0  0  0  0  0
  -13.9001   -6.5179   -1.0367 H   0  0  0  0  0  0  0  0  0  0  0  0
  -14.1700   -7.9233    2.9883 H   0  0  0  0  0  0  0  0  0  0  0  0
  -16.2915   -9.0292   -0.5324 H   0  0  0  0  0  0  0  0  0  0  0  0
  -16.5949  -10.5558    3.3435 H   0  0  0  0  0  0  0  0  0  0  0  0
  -18.7439  -11.5839    0.1017 H   0  0  0  0  0  0  0  0  0  0  0  0
  -14.3740   -7.8433    1.2704 H   0  0  0  0  0  0  0  0  0  0  0  0
   -0.8317   -0.3724   -2.9723 H   0  0  0  0  0  0  0  0  0  0  0  0
  1  2  1  0  0  0  0
  1 48  1  0  0  0  0
  1 49  1  0  0  0  0
  1 50  1  0  0  0  0
  2  3  1  0  0  0  0
  2 51  1  0  0  0  0
  2 52  1  0  0  0  0
  3  4  1  0  0  0  0
  3 53  1  0  0  0  0
  3 54  1  0  0  0  0
  4  5  1  0  0  0  0
  4 55  1  0  0  0  0
  4 56  1  0  0  0  0
  5 57  1  0  0  0  0
  5 58  1  0  0  0  0
  6 47  1  0  0  0  0
  6 59  1  6  0  0  0
  6  5  1  0  0  0  0
  7  8  1  0  0  0  0
  7 34  1  0  0  0  0
  7  6  1  0  0  0  0
  7 60  1  1  0  0  0
  8  9  1  0  0  0  0
  8 61  1  1  0  0  0
  8 46  1  0  0  0  0
  9 10  1  0  0  0  0
  9 62  1  0  0  0  0
  9 63  1  0  0  0  0
 10 11  1  0  0  0  0
 10 45  1  0  0  0  0
 10 64  1  6  0  0  0
 11 12  1  0  0  0  0
 11 65  1  0  0  0  0
 11 66  1  0  0  0  0
 12 13  1  0  0  0  0
 12 44  1  0  0  0  0
 12 67  1  1  0  0  0
 13 14  1  0  0  0  0
 13 68  1  0  0  0  0
 13 69  1  0  0  0  0
 14 15  1  0  0  0  0
 14 43  1  0  0  0  0
 14 70  1  6  0  0  0
 15 16  1  0  0  0  0
 15 71  1  0  0  0  0
 15 72  1  0  0  0  0
 16 17  1  0  0  0  0
 16 42  1  0  0  0  0
 16 73  1  1  0  0  0
 17 18  1  0  0  0  0
 17 74  1  0  0  0  0
 17 75  1  0  0  0  0
 18 19  1  0  0  0  0
 18 41  1  0  0  0  0
 18 76  1  1  0  0  0
 19 20  1  0  0  0  0
 19 40  1  0  0  0  0
 19 77  1  6  0  0  0
 20 21  1  0  0  0  0
 20 78  1  1  0  0  0
 20 39  1  0  0  0  0
 21 22  2  0  0  0  0
 21 38  1  0  0  0  0
 22 23  1  0  0  0  0
 22 79  1  0  0  0  0
 23 24  2  0  0  0  0
 23 80  1  0  0  0  0
 24 25  1  0  0  0  0
 24 81  1  0  0  0  0
 25 26  2  0  0  0  0
 25 82  1  0  0  0  0
 26 27  1  0  0  0  0
 26 83  1  0  0  0  0
 27 28  2  0  0  0  0
 27 84  1  0  0  0  0
 28 29  1  0  0  0  0
 28 85  1  0  0  0  0
 29 30  2  0  0  0  0
 29 86  1  0  0  0  0
 30 31  1  0  0  0  0
 30 87  1  0  0  0  0
 31 32  1  0  0  0  0
 31 88  1  6  0  0  0
 31 37  1  0  0  0  0
 32 33  1  0  0  0  0
 32 36  1  0  0  0  0
 32 89  1  6  0  0  0
 33 34  1  0  0  0  0
 34 35  2  0  0  0  0
 36 90  1  0  0  0  0
 36 91  1  0  0  0  0
 36 92  1  0  0  0  0
 37 93  1  0  0  0  0
 38 94  1  0  0  0  0
 38 95  1  0  0  0  0
 38 96  1  0  0  0  0
 39 97  1  0  0  0  0
 40 98  1  0  0  0  0
 41 99  1  0  0  0  0
 42100  1  0  0  0  0
 43101  1  0  0  0  0
 44102  1  0  0  0  0
 45103  1  0  0  0  0
 46104  1  0  0  0  0
 47105  1  0  0  0  0
M  END
>  <DRUGBANK_ID>
DB13571

>  <COMMON_NAME>
Pentamycin

>  <CAS_NUMBER>
6834-98-6

>  <UNII>
1JB340D58S

>  <SYNONYMS>
Pentamycin

$$$$
