
 OpenBabel10282417233D

114122  0  0  0  0  0  0  0  0999 V2000
   -9.4589    6.5410   -4.1380 C   0  0  0  0  0  0  0  0  0  0  0  0
  -10.2183    5.5308   -4.8673 N   0  0  0  0  0  0  0  0  0  0  0  0
  -11.0513    4.4444   -3.7593 S   0  0  0  0  0  0  0  0  0  0  0  0
  -11.8998    5.2099   -2.8711 O   0  0  0  0  0  0  0  0  0  0  0  0
  -11.9003    3.6319   -4.6098 O   0  0  0  0  0  0  0  0  0  0  0  0
   -9.6634    3.6078   -2.6359 C   0  0  0  0  0  0  0  0  0  0  0  0
   -9.4986    4.0238   -1.4409 C   0  0  0  0  0  0  0  0  0  0  0  0
   -8.4465    3.4065   -0.7257 C   0  0  0  0  0  0  0  0  0  0  0  0
   -8.0713    1.8773   -0.9648 C   0  0  0  0  0  0  0  0  0  0  0  0
   -6.7290    2.0208   -0.8069 F   0  0  0  0  0  0  0  0  0  0  0  0
   -9.2078    0.3814   -0.3538 C   0  0  0  0  0  0  0  0  0  0  0  0
   -9.1945    1.9780   -1.9917 C   0  0  0  0  0  0  0  0  0  0  0  0
   -9.3301    2.4487   -4.0209 F   0  0  0  0  0  0  0  0  0  0  0  0
   -9.8440   -1.3956    1.4034 C   0  0  0  0  0  0  0  0  0  0  0  0
  -10.4051   -2.7446    3.2557 C   0  0  0  0  0  0  0  0  0  0  0  0
  -11.1439   -4.4979    5.2625 C   0  0  0  0  0  0  0  0  0  0  0  0
  -10.8089   -5.7116    7.3537 C   0  0  0  0  0  0  0  0  0  0  0  0
  -10.6839   -5.7831    5.4980 C   0  0  0  0  0  0  0  0  0  0  0  0
  -11.1403   -4.3309    4.6234 N   0  0  0  0  0  0  0  0  0  0  0  0
   -9.6694   -5.6275    4.6325 C   0  0  0  0  0  0  0  0  0  0  0  0
  -10.1684   -5.0014    3.4655 C   0  0  0  0  0  0  0  0  0  0  0  0
   -9.4652   -4.4420    2.5812 N   0  0  0  0  0  0  0  0  0  0  0  0
  -10.3772   -3.7194    1.6680 C   0  0  0  0  0  0  0  0  0  0  0  0
  -11.8625   -3.5191    2.2279 C   0  0  0  0  0  0  0  0  0  0  0  0
  -12.0554   -4.1921    3.2560 C   0  0  0  0  0  0  0  0  0  0  0  0
  -10.0098   -3.1509    0.5702 C   0  0  0  0  0  0  0  0  0  0  0  0
  -11.0754   -2.0337   -0.0412 C   0  0  0  0  0  0  0  0  0  0  0  0
  -10.8164   -1.3705   -1.0852 N   0  0  0  0  0  0  0  0  0  0  0  0
  -11.8572   -0.5613   -1.5060 C   0  0  0  0  0  0  0  0  0  0  0  0
  -13.0378   -1.1439   -0.7972 C   0  0  0  0  0  0  0  0  0  0  0  0
  -12.4106   -1.7031    0.4534 C   0  0  0  0  0  0  0  0  0  0  0  0
  -11.8932    0.4532   -2.4061 C   0  0  0  0  0  0  0  0  0  0  0  0
  -10.7762    0.7881   -2.9256 C   0  0  0  0  0  0  0  0  0  0  0  0
  -10.5490    1.5518   -3.8024 C   0  0  0  0  0  0  0  0  0  0  0  0
   -8.9475    0.5823   -2.8454 C   0  0  0  0  0  0  0  0  0  0  0  0
   -9.3077   -0.3520   -0.7974 C   0  0  0  0  0  0  0  0  0  0  0  0
   -9.5780    0.2016   -2.6601 N   0  0  0  0  0  0  0  0  0  0  0  0
  -13.1738    1.1070   -2.8385 C   0  0  0  0  0  0  0  0  0  0  0  0
  -13.6170    1.1115   -4.1680 C   0  0  0  0  0  0  0  0  0  0  0  0
  -12.7803    0.6327   -5.0790 F   0  0  0  0  0  0  0  0  0  0  0  0
  -14.8536    1.6098   -4.5689 C   0  0  0  0  0  0  0  0  0  0  0  0
  -15.6769    2.1633   -3.5956 C   0  0  0  0  0  0  0  0  0  0  0  0
  -15.2626    2.2253   -2.2704 C   0  0  0  0  0  0  0  0  0  0  0  0
  -14.0251    1.6982   -1.9170 C   0  0  0  0  0  0  0  0  0  0  0  0
  -13.6633    1.7273   -0.6285 F   0  0  0  0  0  0  0  0  0  0  0  0
  -15.4171    1.5636   -6.3045 S   0  0  0  0  0  0  0  0  0  0  0  0
  -16.6089    0.7233   -6.3879 O   0  0  0  0  0  0  0  0  0  0  0  0
  -15.5886    2.9265   -6.7852 O   0  0  0  0  0  0  0  0  0  0  0  0
  -14.1336    0.7845   -7.2378 N   0  0  0  0  0  0  0  0  0  0  0  0
  -13.8751   -0.5844   -6.7709 C   0  0  0  0  0  0  0  0  0  0  0  0
   -8.4783   -3.0034    0.3515 C   0  0  0  0  0  0  0  0  0  0  0  0
   -7.6441   -1.8443    0.2706 C   0  0  0  0  0  0  0  0  0  0  0  0
   -8.1102   -0.6795    0.6719 F   0  0  0  0  0  0  0  0  0  0  0  0
   -6.3791   -1.8439   -0.2327 C   0  0  0  0  0  0  0  0  0  0  0  0
   -5.8901   -3.0662   -0.6400 C   0  0  0  0  0  0  0  0  0  0  0  0
   -6.6656   -4.2185   -0.5622 C   0  0  0  0  0  0  0  0  0  0  0  0
   -7.9388   -4.1631   -0.0504 C   0  0  0  0  0  0  0  0  0  0  0  0
   -8.6710   -5.2683    0.0617 F   0  0  0  0  0  0  0  0  0  0  0  0
   -5.3531   -0.3573   -0.3506 S   0  0  0  0  0  0  0  0  0  0  0  0
   -4.1892   -0.5126    0.5037 O   0  0  0  0  0  0  0  0  0  0  0  0
   -5.0648   -0.0954   -1.7581 O   0  0  0  0  0  0  0  0  0  0  0  0
   -6.2186    0.8763    0.4022 N   0  0  0  0  0  0  0  0  0  0  0  0
   -6.7054    0.7857    1.6978 C   0  0  0  0  0  0  0  0  0  0  0  0
  -10.3709   -5.8585    5.8348 C   0  0  0  0  0  0  0  0  0  0  0  0
  -12.1839   -6.7073    5.3664 C   0  0  0  0  0  0  0  0  0  0  0  0
  -12.3817   -6.8944    4.0441 F   0  0  0  0  0  0  0  0  0  0  0  0
  -13.3983   -6.8273    6.2908 C   0  0  0  0  0  0  0  0  0  0  0  0
  -13.3697   -6.2508    7.6137 C   0  0  0  0  0  0  0  0  0  0  0  0
  -12.5325   -4.7195    7.8992 C   0  0  0  0  0  0  0  0  0  0  0  0
  -11.0953   -4.0649    6.7926 C   0  0  0  0  0  0  0  0  0  0  0  0
   -9.7222   -4.3210    7.3777 F   0  0  0  0  0  0  0  0  0  0  0  0
  -14.8497   -7.6824    5.8710 S   0  0  0  0  0  0  0  0  0  0  0  0
  -14.9065   -8.9165    6.6378 O   0  0  0  0  0  0  0  0  0  0  0  0
  -15.9726   -6.7773    6.0344 O   0  0  0  0  0  0  0  0  0  0  0  0
  -14.6334   -8.0657    4.1762 N   0  0  0  0  0  0  0  0  0  0  0  0
  -13.4614   -8.9262    3.9457 C   0  0  0  0  0  0  0  0  0  0  0  0
   -8.7033    6.0599   -3.5343 H   0  0  0  0  0  0  0  0  0  0  0  0
  -10.1319    7.0972   -3.4967 H   0  0  0  0  0  0  0  0  0  0  0  0
   -8.9795    7.2289   -4.8231 H   0  0  0  0  0  0  0  0  0  0  0  0
  -10.9216    5.9894   -5.4655 H   0  0  0  0  0  0  0  0  0  0  0  0
  -10.1032    4.7505   -0.9922 H   0  0  0  0  0  0  0  0  0  0  0  0
   -8.2790    3.6767    0.2968 H   0  0  0  0  0  0  0  0  0  0  0  0
  -11.6896   -5.5756    6.7635 H   0  0  0  0  0  0  0  0  0  0  0  0
  -11.5157   -5.8555    6.6688 H   0  0  0  0  0  0  0  0  0  0  0  0
  -10.9326   -4.7411    8.0202 H   0  0  0  0  0  0  0  0  0  0  0  0
   -9.7531   -5.9386    7.7387 H   0  0  0  0  0  0  0  0  0  0  0  0
   -8.5020   -4.4523    2.6563 H   0  0  0  0  0  0  0  0  0  0  0  0
  -12.4723   -2.7511    2.1517 H   0  0  0  0  0  0  0  0  0  0  0  0
  -12.7178   -4.1597    4.2400 H   0  0  0  0  0  0  0  0  0  0  0  0
  -13.8462   -0.4632   -0.5944 H   0  0  0  0  0  0  0  0  0  0  0  0
  -13.4893   -1.9428   -1.3830 H   0  0  0  0  0  0  0  0  0  0  0  0
  -12.4708   -1.0340    1.3143 H   0  0  0  0  0  0  0  0  0  0  0  0
  -12.8662   -2.6356    0.7078 H   0  0  0  0  0  0  0  0  0  0  0  0
  -11.0578    2.3017   -4.4376 H   0  0  0  0  0  0  0  0  0  0  0  0
   -8.2444    1.7974   -4.0089 H   0  0  0  0  0  0  0  0  0  0  0  0
   -9.1760   -0.5663   -2.2579 H   0  0  0  0  0  0  0  0  0  0  0  0
  -16.6413    2.5516   -3.8700 H   0  0  0  0  0  0  0  0  0  0  0  0
  -15.8938    2.6779   -1.5184 H   0  0  0  0  0  0  0  0  0  0  0  0
  -14.4010    0.7504   -8.2250 H   0  0  0  0  0  0  0  0  0  0  0  0
  -14.7769   -1.1658   -6.8393 H   0  0  0  0  0  0  0  0  0  0  0  0
  -13.0905   -1.0493   -7.3472 H   0  0  0  0  0  0  0  0  0  0  0  0
  -13.5843   -0.6021   -5.7482 H   0  0  0  0  0  0  0  0  0  0  0  0
   -4.8889   -3.1268   -1.0214 H   0  0  0  0  0  0  0  0  0  0  0  0
   -6.2801   -5.1651   -0.9036 H   0  0  0  0  0  0  0  0  0  0  0  0
   -5.7938    1.8367    0.2021 H   0  0  0  0  0  0  0  0  0  0  0  0
   -5.8265    0.6743    2.2751 H   0  0  0  0  0  0  0  0  0  0  0  0
   -7.2950    1.6256    2.0277 H   0  0  0  0  0  0  0  0  0  0  0  0
   -7.2756   -0.0867    1.8057 H   0  0  0  0  0  0  0  0  0  0  0  0
  -13.9800   -6.5525    8.4349 H   0  0  0  0  0  0  0  0  0  0  0  0
  -11.9508   -5.1684    9.1179 H   0  0  0  0  0  0  0  0  0  0  0  0
  -15.4647   -8.5524    3.8405 H   0  0  0  0  0  0  0  0  0  0  0  0
  -13.5522   -9.8244    4.5236 H   0  0  0  0  0  0  0  0  0  0  0  0
  -13.3479   -9.1575    2.9003 H   0  0  0  0  0  0  0  0  0  0  0  0
  -12.5598   -8.4710    4.2727 H   0  0  0  0  0  0  0  0  0  0  0  0
  1  2  1  0  0  0  0
  1 77  1  0  0  0  0
  1 78  1  0  0  0  0
  1 79  1  0  0  0  0
  2  3  1  0  0  0  0
  2 80  1  0  0  0  0
  3  4  2  0  0  0  0
  3  5  2  0  0  0  0
  3  6  1  0  0  0  0
  6  7  2  0  0  0  0
  6 12  1  0  0  0  0
  7  8  1  0  0  0  0
  7 81  1  0  0  0  0
  8  9  2  0  0  0  0
  8 82  1  0  0  0  0
  9 10  1  0  0  0  0
  9 11  1  0  0  0  0
 11 12  2  0  0  0  0
 11 14  1  0  0  0  0
 12 13  1  0  0  0  0
 14 15  2  0  0  0  0
 14 36  1  0  0  0  0
 15 16  1  0  0  0  0
 15 19  1  0  0  0  0
 16 17  1  0  0  0  0
 16 83  1  0  0  0  0
 16 84  1  0  0  0  0
 17 18  1  0  0  0  0
 17 85  1  0  0  0  0
 17 86  1  0  0  0  0
 18 19  2  0  0  0  0
 18 20  1  0  0  0  0
 20 21  2  0  0  0  0
 20 64  1  0  0  0  0
 21 22  1  0  0  0  0
 21 25  1  0  0  0  0
 22 23  1  0  0  0  0
 22 87  1  0  0  0  0
 23 24  1  0  0  0  0
 23 26  2  0  0  0  0
 24 25  2  0  0  0  0
 24 88  1  0  0  0  0
 25 89  1  0  0  0  0
 26 27  1  0  0  0  0
 26 51  1  0  0  0  0
 27 28  2  0  0  0  0
 27 31  1  0  0  0  0
 28 29  1  0  0  0  0
 29 30  1  0  0  0  0
 29 32  2  0  0  0  0
 30 31  1  0  0  0  0
 30 90  1  0  0  0  0
 30 91  1  0  0  0  0
 31 92  1  0  0  0  0
 31 93  1  0  0  0  0
 32 33  1  0  0  0  0
 32 38  1  0  0  0  0
 33 34  2  0  0  0  0
 33 37  1  0  0  0  0
 34 35  1  0  0  0  0
 34 94  1  0  0  0  0
 35 36  2  0  0  0  0
 35 95  1  0  0  0  0
 36 37  1  0  0  0  0
 37 96  1  0  0  0  0
 38 39  2  0  0  0  0
 38 44  1  0  0  0  0
 39 40  1  0  0  0  0
 39 41  1  0  0  0  0
 41 42  2  0  0  0  0
 41 46  1  0  0  0  0
 42 43  1  0  0  0  0
 42 97  1  0  0  0  0
 43 44  2  0  0  0  0
 43 98  1  0  0  0  0
 44 45  1  0  0  0  0
 46 47  2  0  0  0  0
 46 48  2  0  0  0  0
 46 49  1  0  0  0  0
 49 50  1  0  0  0  0
 49 99  1  0  0  0  0
 50100  1  0  0  0  0
 50101  1  0  0  0  0
 50102  1  0  0  0  0
 51 52  2  0  0  0  0
 51 57  1  0  0  0  0
 52 53  1  0  0  0  0
 52 54  1  0  0  0  0
 54 55  2  0  0  0  0
 54 59  1  0  0  0  0
 55 56  1  0  0  0  0
 55103  1  0  0  0  0
 56 57  2  0  0  0  0
 56104  1  0  0  0  0
 57 58  1  0  0  0  0
 59 60  2  0  0  0  0
 59 61  2  0  0  0  0
 59 62  1  0  0  0  0
 62 63  1  0  0  0  0
 62105  1  0  0  0  0
 63106  1  0  0  0  0
 63107  1  0  0  0  0
 63108  1  0  0  0  0
 64 65  2  0  0  0  0
 64 70  1  0  0  0  0
 65 66  1  0  0  0  0
 65 67  1  0  0  0  0
 67 68  2  0  0  0  0
 67 72  1  0  0  0  0
 68 69  1  0  0  0  0
 68109  1  0  0  0  0
 69 70  2  0  0  0  0
 69110  1  0  0  0  0
 70 71  1  0  0  0  0
 72 73  2  0  0  0  0
 72 74  2  0  0  0  0
 72 75  1  0  0  0  0
 75 76  1  0  0  0  0
 75111  1  0  0  0  0
 76112  1  0  0  0  0
 76113  1  0  0  0  0
 76114  1  0  0  0  0
M  END
>  <DRUGBANK_ID>
DB17219

>  <COMMON_NAME>
Redaporfin

>  <CAS_NUMBER>
1224104-08-8

>  <UNII>
ZP3QP1H44W

>  <SYNONYMS>
3,3',3'',3'''-(7,8,17,18-tetrahydroporphyrin-5,10,15,20-tetrayl)tetrakis(2,4-difluoro-n-methylbenzenesulfonamide); Benzenesulfonamide, 3,3',3'',3'''-(7,8,17,18-tetrahydro-21h,23h-porphine-5,10,15,20-tetrayl)tetrakis(2,4-difluoro-n-methyl-; Redaporfin

$$$$
