HAZ
 OpenBabel10282417163D

 66 69  0  0  0  0  0  0  0  0999 V2000
    7.1586    3.1017    0.9716 O   0  0  0  0  0  0  0  0  0  0  0  0
    7.2212    1.9604    1.2350 C   0  0  0  0  0  0  0  0  0  0  0  0
    6.3633    1.0706    0.6513 O   0  0  0  0  0  0  0  0  0  0  0  0
    9.5068    3.2921    2.6142 C   0  0  0  0  0  0  0  0  0  0  0  0
    9.5211    1.7693    2.3917 C   0  0  0  0  0  0  0  0  0  0  0  0
    8.1215    1.2963    2.3087 C   0  0  0  0  0  0  0  0  0  0  0  0
    9.1231    3.8706    4.0163 C   0  0  0  0  0  0  0  0  0  0  0  0
    9.9076    4.7007    4.5050 O   0  0  0  0  0  0  0  0  0  0  0  0
    7.9793    3.5849    4.7737 N   0  0  0  0  0  0  0  0  0  0  0  0
    4.7121    1.4007    2.9026 C   0  0  0  0  0  0  0  0  0  0  0  0
    5.6018    0.7766    3.7705 C   0  0  0  0  0  0  0  0  0  0  0  0
    6.5060    1.5403    4.6236 C   0  0  0  0  0  0  0  0  0  0  0  0
    6.7594    2.9242    4.3995 C   0  0  0  0  0  0  0  0  0  0  0  0
    5.9988    3.4897    3.4029 C   0  0  0  0  0  0  0  0  0  0  0  0
    4.9565    2.7592    2.7103 C   0  0  0  0  0  0  0  0  0  0  0  0
    3.7169    0.6930    2.1914 N   0  0  0  0  0  0  0  0  0  0  0  0
    2.3875    1.0145    2.0735 C   0  0  0  0  0  0  0  0  0  0  0  0
    1.6659    0.3670    1.3030 O   0  0  0  0  0  0  0  0  0  0  0  0
    2.9487    5.7219    4.7425 C   0  0  0  0  0  0  0  0  0  0  0  0
    1.5421    5.1677    4.4476 C   0  0  1  0  0  0  0  0  0  0  0  0
   -1.1955    7.4779    5.7617 C   0  0  0  0  0  0  0  0  0  0  0  0
    1.5673    4.6910    3.0643 C   0  0  0  0  0  0  0  0  0  0  0  0
    3.9066    4.6771    4.3122 C   0  0  0  0  0  0  0  0  0  0  0  0
    3.4552    3.1778    4.9130 C   0  0  0  0  0  0  0  0  0  0  0  0
    1.7613    1.2964    5.0103 O   0  5  0  0  0  0  0  0  0  0  0  0
    1.8595    2.2467    2.6990 C   0  0  0  0  0  0  0  0  0  0  0  0
    2.0027    2.5107    4.4223 N   0  3  2  0  0  0  0  0  0  0  0  0
    1.0423    3.7644    5.0689 C   0  0  2  0  0  0  0  0  0  0  0  0
   -0.4714    3.7054    4.8219 C   0  0  0  0  0  0  0  0  0  0  0  0
   -1.0819    5.0296    5.3531 C   0  0  0  0  0  0  0  0  0  0  0  0
   -0.6028    6.4463    4.8782 C   0  0  1  0  0  0  0  0  0  0  0  0
    0.6383    6.2668    4.1026 C   0  0  1  0  0  0  0  0  0  0  0  0
    0.7748    7.1548    5.0867 O   0  0  0  0  0  0  0  0  0  0  0  0
    1.2106    3.6460    6.1653 H   0  0  0  0  0  0  0  0  0  0  0  0
    0.6812    6.5971    3.0664 H   0  0  0  0  0  0  0  0  0  0  0  0
    6.1171    0.3203    1.2111 H   0  0  0  0  0  0  0  0  0  0  0  0
   10.5261    3.6215    2.3798 H   0  0  0  0  0  0  0  0  0  0  0  0
    8.9111    3.8302    1.8781 H   0  0  0  0  0  0  0  0  0  0  0  0
   10.0087    1.3040    3.2624 H   0  0  0  0  0  0  0  0  0  0  0  0
    9.9888    1.4125    1.4782 H   0  0  0  0  0  0  0  0  0  0  0  0
    7.9179    1.7260    3.2354 H   0  0  0  0  0  0  0  0  0  0  0  0
    7.9229    0.2469    2.5270 H   0  0  0  0  0  0  0  0  0  0  0  0
    7.8535    4.3727    5.4159 H   0  0  0  0  0  0  0  0  0  0  0  0
    5.7191   -0.3020    3.6914 H   0  0  0  0  0  0  0  0  0  0  0  0
    7.2515    0.9743    5.1837 H   0  0  0  0  0  0  0  0  0  0  0  0
    6.1841    4.5405    3.1669 H   0  0  0  0  0  0  0  0  0  0  0  0
    4.3374    3.3121    2.0126 H   0  0  0  0  0  0  0  0  0  0  0  0
    3.8206   -0.2810    1.9437 H   0  0  0  0  0  0  0  0  0  0  0  0
    3.2503    6.0418    5.7452 H   0  0  0  0  0  0  0  0  0  0  0  0
    3.1226    6.6044    4.0907 H   0  0  0  0  0  0  0  0  0  0  0  0
   -0.6237    7.3765    6.7030 H   0  0  0  0  0  0  0  0  0  0  0  0
   -1.0151    8.4770    5.3515 H   0  0  0  0  0  0  0  0  0  0  0  0
   -2.2400    7.2930    5.9513 H   0  0  0  0  0  0  0  0  0  0  0  0
    1.9857    5.2295    2.2443 H   0  0  0  0  0  0  0  0  0  0  0  0
    2.3350    4.0297    3.2521 H   0  0  0  0  0  0  0  0  0  0  0  0
    0.6530    4.1841    2.8070 H   0  0  0  0  0  0  0  0  0  0  0  0
    4.8816    5.1093    4.5573 H   0  0  0  0  0  0  0  0  0  0  0  0
    3.9008    4.7837    3.1994 H   0  0  0  0  0  0  0  0  0  0  0  0
    4.1090    2.3283    4.8453 H   0  0  0  0  0  0  0  0  0  0  0  0
    3.4182    3.2792    6.0031 H   0  0  0  0  0  0  0  0  0  0  0  0
    2.3849    2.9818    2.0602 H   0  0  0  0  0  0  0  0  0  0  0  0
    0.7972    2.3334    2.4243 H   0  0  0  0  0  0  0  0  0  0  0  0
   -0.7662    3.5894    3.7743 H   0  0  0  0  0  0  0  0  0  0  0  0
   -0.9226    2.8077    5.2729 H   0  0  0  0  0  0  0  0  0  0  0  0
   -2.1376    4.9805    5.0502 H   0  0  0  0  0  0  0  0  0  0  0  0
   -1.0238    5.0025    6.4390 H   0  0  0  0  0  0  0  0  0  0  0  0
  1  2  2  0  0  0  0
  2  3  1  0  0  0  0
  2  6  1  0  0  0  0
  3 36  1  0  0  0  0
  4  5  1  0  0  0  0
  4  7  1  0  0  0  0
  4 37  1  0  0  0  0
  4 38  1  0  0  0  0
  5  6  1  0  0  0  0
  5 39  1  0  0  0  0
  5 40  1  0  0  0  0
  6 41  1  0  0  0  0
  6 42  1  0  0  0  0
  7  8  2  0  0  0  0
  7  9  1  0  0  0  0
  9 13  1  0  0  0  0
  9 43  1  0  0  0  0
 10 11  2  0  0  0  0
 10 15  1  0  0  0  0
 10 16  1  0  0  0  0
 11 12  1  0  0  0  0
 11 44  1  0  0  0  0
 12 13  2  0  0  0  0
 12 45  1  0  0  0  0
 13 14  1  0  0  0  0
 14 15  2  0  0  0  0
 14 46  1  0  0  0  0
 15 47  1  0  0  0  0
 16 17  1  0  0  0  0
 16 48  1  0  0  0  0
 17 18  2  0  0  0  0
 17 26  1  0  0  0  0
 19 20  1  0  0  0  0
 19 23  1  0  0  0  0
 19 49  1  0  0  0  0
 19 50  1  0  0  0  0
 20 22  1  6  0  0  0
 20 28  1  0  0  0  0
 20 32  1  0  0  0  0
 21 51  1  0  0  0  0
 21 52  1  0  0  0  0
 21 53  1  0  0  0  0
 22 54  1  0  0  0  0
 22 55  1  0  0  0  0
 22 56  1  0  0  0  0
 23 24  1  0  0  0  0
 23 57  1  0  0  0  0
 23 58  1  0  0  0  0
 24 27  1  0  0  0  0
 24 59  1  0  0  0  0
 24 60  1  0  0  0  0
 26 61  1  0  0  0  0
 26 62  1  0  0  0  0
 27 28  1  0  0  0  0
 27 26  1  0  0  0  0
 27 25  1  1  0  0  0
 28 29  1  0  0  0  0
 28 34  1  1  0  0  0
 29 30  1  0  0  0  0
 29 63  1  0  0  0  0
 29 64  1  0  0  0  0
 30 31  1  0  0  0  0
 30 65  1  0  0  0  0
 30 66  1  0  0  0  0
 31 21  1  6  0  0  0
 31 32  1  0  0  0  0
 31 33  1  0  0  0  0
 32 33  1  0  0  0  0
 32 35  1  6  0  0  0
M  CHG  2  25  -1  27   1
M  END
>  <DRUGBANK_ID>
DB07882

>  <COMMON_NAME>
4-{4-[2-(1A,7A-DIMETHYL-4-OXY-OCTAHYDRO-1-OXA-4-AZA-CYCLOPROPA[A]NAPHTHALEN-4-YL) -ACETYLAMINO]-PHENYLCARBAMOYL}-BUTYRIC ACID

$$$$
