HEP
 OpenBabel10282417163D

 45 45  0  0  0  0  0  0  0  0999 V2000
    0.9286    0.0483   -0.1449 C   0  0  2  0  0  0  0  0  0  0  0  0
    0.5534   -0.1148    1.4099 C   0  0  0  0  0  0  0  0  0  0  0  0
    1.0023    0.8801    2.4443 C   0  0  0  0  0  0  0  0  0  0  0  0
    0.4321    2.2671    2.2450 C   0  0  0  0  0  0  0  0  0  0  0  0
   -1.0861    2.2610    2.0888 C   0  0  0  0  0  0  0  0  0  0  0  0
   -0.7540   -4.2229   -0.8276 C   0  0  0  0  0  0  0  0  0  0  0  0
   -0.4484   -5.5205   -0.4125 C   0  0  0  0  0  0  0  0  0  0  0  0
    0.2215   -6.3675   -1.2755 C   0  0  0  0  0  0  0  0  0  0  0  0
    0.5468   -5.9110   -2.5569 C   0  0  0  0  0  0  0  0  0  0  0  0
    0.3026   -4.5749   -2.9473 C   0  0  0  0  0  0  0  0  0  0  0  0
   -0.2307   -3.6820   -2.0239 C   0  0  0  0  0  0  0  0  0  0  0  0
   -0.4088    1.5115   -1.6760 C   0  0  0  0  0  0  0  0  0  0  0  0
   -0.3617    3.2533   -3.4396 C   0  0  0  0  0  0  0  0  0  0  0  0
   -0.8388    2.9149   -2.0347 C   0  0  0  0  0  0  0  0  0  0  0  0
   -0.8894    2.3262   -4.5193 C   0  0  0  0  0  0  0  0  0  0  0  0
    0.7366   -2.5106    0.3014 O   0  0  0  0  0  0  0  0  0  0  0  0
   -1.4071   -1.1405   -0.4142 O   0  0  0  0  0  0  0  0  0  0  0  0
    0.0227   -2.2836   -2.1433 O   0  0  0  0  0  0  0  0  0  0  0  0
   -0.8917    0.5350   -2.2129 O   0  0  0  0  0  0  0  0  0  0  0  0
   -1.7980    2.5754   -5.2780 O   0  0  0  0  0  0  0  0  0  0  0  0
   -0.2552    1.1358   -4.5443 O   0  0  0  0  0  0  0  0  0  0  0  0
    0.4567    1.3556   -0.6460 N   0  0  0  0  0  0  0  0  0  0  0  0
    0.1508   -1.5394   -0.6954 P   0  0  1  0  0  0  0  0  0  0  0  0
    2.0193    0.0399   -0.2389 H   0  0  0  0  0  0  0  0  0  0  0  0
   -0.5329   -0.2538    1.5033 H   0  0  0  0  0  0  0  0  0  0  0  0
    0.9499   -1.0637    1.7881 H   0  0  0  0  0  0  0  0  0  0  0  0
    0.6658    0.5036    3.4228 H   0  0  0  0  0  0  0  0  0  0  0  0
    2.0948    0.8852    2.4723 H   0  0  0  0  0  0  0  0  0  0  0  0
    0.7154    2.8957    3.0914 H   0  0  0  0  0  0  0  0  0  0  0  0
    0.9160    2.7380    1.3930 H   0  0  0  0  0  0  0  0  0  0  0  0
   -1.5547    1.9720    3.0341 H   0  0  0  0  0  0  0  0  0  0  0  0
   -1.4423    3.2504    1.7978 H   0  0  0  0  0  0  0  0  0  0  0  0
   -1.4538    1.5683    1.3238 H   0  0  0  0  0  0  0  0  0  0  0  0
   -1.2466   -3.5939   -0.0879 H   0  0  0  0  0  0  0  0  0  0  0  0
   -0.6735   -5.8240    0.6083 H   0  0  0  0  0  0  0  0  0  0  0  0
    0.4786   -7.3726   -0.9496 H   0  0  0  0  0  0  0  0  0  0  0  0
    1.0515   -6.5951   -3.2345 H   0  0  0  0  0  0  0  0  0  0  0  0
    0.5806   -4.2559   -3.9444 H   0  0  0  0  0  0  0  0  0  0  0  0
   -0.6997    4.2638   -3.6937 H   0  0  0  0  0  0  0  0  0  0  0  0
    0.7316    3.2586   -3.4787 H   0  0  0  0  0  0  0  0  0  0  0  0
   -1.9343    2.9319   -1.9607 H   0  0  0  0  0  0  0  0  0  0  0  0
   -0.4727    3.6542   -1.3087 H   0  0  0  0  0  0  0  0  0  0  0  0
   -1.5595   -0.2311   -0.7669 H   0  0  0  0  0  0  0  0  0  0  0  0
   -0.8928    0.4865   -4.9162 H   0  0  0  0  0  0  0  0  0  0  0  0
    0.9308    2.1848   -0.3170 H   0  0  0  0  0  0  0  0  0  0  0  0
  1  2  1  0  0  0  0
  1 22  1  0  0  0  0
  1 23  1  0  0  0  0
  1 24  1  6  0  0  0
  2  3  1  0  0  0  0
  2 25  1  0  0  0  0
  2 26  1  0  0  0  0
  3  4  1  0  0  0  0
  3 27  1  0  0  0  0
  3 28  1  0  0  0  0
  4  5  1  0  0  0  0
  4 29  1  0  0  0  0
  4 30  1  0  0  0  0
  5 31  1  0  0  0  0
  5 32  1  0  0  0  0
  5 33  1  0  0  0  0
  6  7  2  0  0  0  0
  6 11  1  0  0  0  0
  6 34  1  0  0  0  0
  7  8  1  0  0  0  0
  7 35  1  0  0  0  0
  8  9  2  0  0  0  0
  8 36  1  0  0  0  0
  9 10  1  0  0  0  0
  9 37  1  0  0  0  0
 10 11  2  0  0  0  0
 10 38  1  0  0  0  0
 11 18  1  0  0  0  0
 12 14  1  0  0  0  0
 12 19  2  0  0  0  0
 12 22  1  0  0  0  0
 13 14  1  0  0  0  0
 13 15  1  0  0  0  0
 13 39  1  0  0  0  0
 13 40  1  0  0  0  0
 14 41  1  0  0  0  0
 14 42  1  0  0  0  0
 15 20  2  0  0  0  0
 15 21  1  0  0  0  0
 17 43  1  0  0  0  0
 21 44  1  0  0  0  0
 22 45  1  0  0  0  0
 23 16  2  1  0  0  0
 23 17  1  0  0  0  0
 23 18  1  0  0  0  0
M  END
>  <DRUGBANK_ID>
DB07893

>  <COMMON_NAME>
PHENYL[1-(N-SUCCINYLAMINO)PENTYL]PHOSPHONATE

$$$$
