
 OpenBabel10282417233D

 46 49  0  0  0  0  0  0  0  0999 V2000
    0.9742    0.0781    0.0638 C   0  0  0  0  0  0  0  0  0  0  0  0
    0.4882    1.4283   -0.0442 O   0  0  0  0  0  0  0  0  0  0  0  0
    1.0425    2.3255    0.8138 C   0  0  0  0  0  0  0  0  0  0  0  0
    1.9704    2.0648    1.5732 O   0  0  0  0  0  0  0  0  0  0  0  0
    0.3748    3.6716    0.7736 C   0  0  0  0  0  0  0  0  0  0  0  0
   -1.0038    3.8750    0.5103 C   0  0  0  0  0  0  0  0  0  0  0  0
   -1.4233    5.2138    0.4439 C   0  0  0  0  0  0  0  0  0  0  0  0
   -0.5784    6.2879    0.6569 C   0  0  0  0  0  0  0  0  0  0  0  0
   -1.2222    7.4808    0.5090 O   0  0  0  0  0  0  0  0  0  0  0  0
   -2.5226    7.0626    0.0866 C   0  0  0  0  0  0  0  0  0  0  0  0
   -2.7003    5.6393    0.1706 O   0  0  0  0  0  0  0  0  0  0  0  0
    0.7479    6.1069    0.9922 C   0  0  0  0  0  0  0  0  0  0  0  0
    1.6693    7.0844    1.2491 O   0  0  0  0  0  0  0  0  0  0  0  0
    1.2279    8.4365    1.1197 C   0  0  0  0  0  0  0  0  0  0  0  0
    1.2118    4.7837    1.0653 C   0  0  0  0  0  0  0  0  0  0  0  0
   -1.9776    2.7830    0.3102 C   0  0  0  0  0  0  0  0  0  0  0  0
   -2.3144    1.8305    1.3099 C   0  0  0  0  0  0  0  0  0  0  0  0
   -1.8239    1.9226    2.7438 C   0  0  0  0  0  0  0  0  0  0  0  0
   -0.4470    1.6790    2.9224 O   0  0  0  0  0  0  0  0  0  0  0  0
   -3.2345    0.7887    0.9992 C   0  0  0  0  0  0  0  0  0  0  0  0
   -3.8691    0.6945   -0.2480 C   0  0  0  0  0  0  0  0  0  0  0  0
   -4.7464   -0.3441   -0.3958 O   0  0  0  0  0  0  0  0  0  0  0  0
   -5.4047   -0.4427   -1.6583 C   0  0  0  0  0  0  0  0  0  0  0  0
   -3.5518    1.6552   -1.1860 C   0  0  0  0  0  0  0  0  0  0  0  0
   -2.6333    2.6514   -0.9195 C   0  0  0  0  0  0  0  0  0  0  0  0
   -2.4576    3.4747   -2.0017 O   0  0  0  0  0  0  0  0  0  0  0  0
   -3.3014    2.8491   -2.9785 C   0  0  0  0  0  0  0  0  0  0  0  0
   -4.0615    1.7611   -2.4458 O   0  0  0  0  0  0  0  0  0  0  0  0
    0.5943   -0.4962   -0.7868 H   0  0  0  0  0  0  0  0  0  0  0  0
    0.5895   -0.3956    0.9738 H   0  0  0  0  0  0  0  0  0  0  0  0
    2.0675    0.0342    0.0528 H   0  0  0  0  0  0  0  0  0  0  0  0
   -3.2675    7.5636    0.7147 H   0  0  0  0  0  0  0  0  0  0  0  0
   -2.6718    7.3876   -0.9510 H   0  0  0  0  0  0  0  0  0  0  0  0
    0.9029    8.6529    0.0952 H   0  0  0  0  0  0  0  0  0  0  0  0
    0.4439    8.6702    1.8490 H   0  0  0  0  0  0  0  0  0  0  0  0
    2.0717    9.0988    1.3336 H   0  0  0  0  0  0  0  0  0  0  0  0
    2.2480    4.6050    1.3531 H   0  0  0  0  0  0  0  0  0  0  0  0
   -2.0538    2.9078    3.1576 H   0  0  0  0  0  0  0  0  0  0  0  0
   -2.3238    1.1773    3.3673 H   0  0  0  0  0  0  0  0  0  0  0  0
   -0.1846    0.9534    2.3348 H   0  0  0  0  0  0  0  0  0  0  0  0
   -3.4799    0.0473    1.7598 H   0  0  0  0  0  0  0  0  0  0  0  0
   -6.0307    0.4368   -1.8479 H   0  0  0  0  0  0  0  0  0  0  0  0
   -4.6840   -0.6084   -2.4673 H   0  0  0  0  0  0  0  0  0  0  0  0
   -6.0691   -1.3109   -1.6373 H   0  0  0  0  0  0  0  0  0  0  0  0
   -3.9951    3.5897   -3.3922 H   0  0  0  0  0  0  0  0  0  0  0  0
   -2.6759    2.4628   -3.7911 H   0  0  0  0  0  0  0  0  0  0  0  0
  1  2  1  0  0  0  0
  1 29  1  0  0  0  0
  1 30  1  0  0  0  0
  1 31  1  0  0  0  0
  2  3  1  0  0  0  0
  3  4  2  0  0  0  0
  3  5  1  0  0  0  0
  5  6  2  0  0  0  0
  5 15  1  0  0  0  0
  6  7  1  0  0  0  0
  6 16  1  0  0  0  0
  7  8  2  0  0  0  0
  7 11  1  0  0  0  0
  8  9  1  0  0  0  0
  8 12  1  0  0  0  0
  9 10  1  0  0  0  0
 10 11  1  0  0  0  0
 10 32  1  0  0  0  0
 10 33  1  0  0  0  0
 12 13  1  0  0  0  0
 12 15  2  0  0  0  0
 13 14  1  0  0  0  0
 14 34  1  0  0  0  0
 14 35  1  0  0  0  0
 14 36  1  0  0  0  0
 15 37  1  0  0  0  0
 16 17  2  0  0  0  0
 16 25  1  0  0  0  0
 17 18  1  0  0  0  0
 17 20  1  0  0  0  0
 18 19  1  0  0  0  0
 18 38  1  0  0  0  0
 18 39  1  0  0  0  0
 19 40  1  0  0  0  0
 20 21  2  0  0  0  0
 20 41  1  0  0  0  0
 21 22  1  0  0  0  0
 21 24  1  0  0  0  0
 22 23  1  0  0  0  0
 23 42  1  0  0  0  0
 23 43  1  0  0  0  0
 23 44  1  0  0  0  0
 24 25  2  0  0  0  0
 24 28  1  0  0  0  0
 25 26  1  0  0  0  0
 26 27  1  0  0  0  0
 27 28  1  0  0  0  0
 27 45  1  0  0  0  0
 27 46  1  0  0  0  0
M  END
>  <DRUGBANK_ID>
DB16014

>  <COMMON_NAME>
Bicyclol

>  <CAS_NUMBER>
118159-48-1

>  <UNII>
9734122TH2

>  <SYNONYMS>
4,4'-bi-1,3-benzodioxole)-5-carboxylic acid, 5'-(hydroxymethyl)-7,7'-dimethoxy-, methyl ester

$$$$
