
 OpenBabel10282417193D

 58 61  0  0  1  0  0  0  0  0999 V2000
   10.7518    0.8759   -1.6476 C   0  0  0  0  0  0  0  0  0  0  0  0
   11.4789    1.9169   -1.2189 C   0  0  0  0  0  0  0  0  0  0  0  0
   11.0730    3.3154   -1.4787 C   0  0  0  0  0  0  0  0  0  0  0  0
   11.7893    4.2714   -1.0826 O   0  0  0  0  0  0  0  0  0  0  0  0
    9.9368    3.5165   -2.1923 N   0  0  0  0  0  0  0  0  0  0  0  0
    9.2956    2.4396   -2.8171 C   0  0  0  0  0  0  0  0  0  0  0  0
    9.5943    1.1152   -2.4740 C   0  0  0  0  0  0  0  0  0  0  0  0
    8.9129    0.0192   -3.0246 C   0  0  0  0  0  0  0  0  0  0  0  0
    8.1376    0.2223   -4.1401 C   0  0  0  0  0  0  0  0  0  0  0  0
    8.0918    1.5328   -4.6654 C   0  0  0  0  0  0  0  0  0  0  0  0
    8.4675    2.6640   -3.8777 C   0  0  0  0  0  0  0  0  0  0  0  0
    7.3362   -0.8360   -4.5097 O   0  0  0  0  0  0  0  0  0  0  0  0
    6.1410   -0.5398   -5.2127 C   0  0  0  0  0  0  0  0  0  0  0  0
    5.2388    0.2595   -4.3612 C   0  0  0  0  0  0  0  0  0  0  0  0
    5.8611    1.5471   -3.6141 C   0  0  0  0  0  0  0  0  0  0  0  0
    5.6548    2.9578   -4.5502 N   0  0  0  0  0  0  0  0  0  0  0  0
    4.9455    4.1090   -4.8271 C   0  0  0  0  0  0  0  0  0  0  0  0
    5.2657    4.5605   -5.9376 O   0  0  0  0  0  0  0  0  0  0  0  0
    3.9453    4.6959   -4.0308 N   0  0  0  0  0  0  0  0  0  0  0  0
    3.3529    4.1350   -2.7877 C   0  0  2  0  0  0  0  0  0  0  0  0
    4.2080    3.0565   -2.3209 C   0  0  0  0  0  0  0  0  0  0  0  0
    3.6659    1.8448   -3.1946 C   0  0  0  0  0  0  0  0  0  0  0  0
    2.3944    1.2567   -3.6383 C   0  0  0  0  0  0  0  0  0  0  0  0
    1.7104    2.5041   -4.0600 C   0  0  0  0  0  0  0  0  0  0  0  0
    1.9163    3.5261   -2.9042 C   0  0  1  0  0  0  0  0  0  0  0  0
    1.6705    2.8323   -1.6500 O   0  0  0  0  0  0  0  0  0  0  0  0
    3.6316    6.1229   -4.1125 C   0  0  0  0  0  0  0  0  0  0  0  0
    2.6755    6.9300   -4.9333 C   0  0  0  0  0  0  0  0  0  0  0  0
    4.1384    6.9785   -5.2382 C   0  0  0  0  0  0  0  0  0  0  0  0
   11.0607   -0.1523   -1.5274 H   0  0  0  0  0  0  0  0  0  0  0  0
   12.4061    1.7624   -0.6934 H   0  0  0  0  0  0  0  0  0  0  0  0
    9.7070    4.4744   -2.4356 H   0  0  0  0  0  0  0  0  0  0  0  0
    9.0145   -0.9873   -2.6345 H   0  0  0  0  0  0  0  0  0  0  0  0
    7.4247    1.6898   -5.4986 H   0  0  0  0  0  0  0  0  0  0  0  0
    8.0056    3.6530   -3.9870 H   0  0  0  0  0  0  0  0  0  0  0  0
    6.2874   -0.0038   -6.1526 H   0  0  0  0  0  0  0  0  0  0  0  0
    5.5688   -1.4562   -5.4548 H   0  0  0  0  0  0  0  0  0  0  0  0
    4.4652    0.5450   -5.0929 H   0  0  0  0  0  0  0  0  0  0  0  0
    4.7181   -0.4421   -3.6747 H   0  0  0  0  0  0  0  0  0  0  0  0
    5.5308    1.5063   -2.5640 H   0  0  0  0  0  0  0  0  0  0  0  0
    6.7642    1.5945   -3.0145 H   0  0  0  0  0  0  0  0  0  0  0  0
    6.0821    2.8385   -5.4575 H   0  0  0  0  0  0  0  0  0  0  0  0
    3.4128    4.8759   -1.9784 H   0  0  0  0  0  0  0  0  0  0  0  0
    4.2354    2.8216   -1.2584 H   0  0  0  0  0  0  0  0  0  0  0  0
    5.2662    3.4411   -2.4250 H   0  0  0  0  0  0  0  0  0  0  0  0
    3.9830    0.9732   -2.6549 H   0  0  0  0  0  0  0  0  0  0  0  0
    3.9315    2.0767   -4.2390 H   0  0  0  0  0  0  0  0  0  0  0  0
    2.0648    0.6494   -2.7974 H   0  0  0  0  0  0  0  0  0  0  0  0
    2.5139    0.5373   -4.4737 H   0  0  0  0  0  0  0  0  0  0  0  0
    0.6926    2.1926   -4.2507 H   0  0  0  0  0  0  0  0  0  0  0  0
    2.1487    2.8737   -5.0069 H   0  0  0  0  0  0  0  0  0  0  0  0
    1.1960    4.3176   -2.9886 H   0  0  0  0  0  0  0  0  0  0  0  0
    1.0080    2.1413   -1.8183 H   0  0  0  0  0  0  0  0  0  0  0  0
    3.5363    6.5249   -3.1017 H   0  0  0  0  0  0  0  0  0  0  0  0
    2.0047    6.4713   -5.6431 H   0  0  0  0  0  0  0  0  0  0  0  0
    2.2683    7.8222   -4.4582 H   0  0  0  0  0  0  0  0  0  0  0  0
    4.8228    7.7480   -4.9129 H   0  0  0  0  0  0  0  0  0  0  0  0
    4.3950    6.5590   -6.2031 H   0  0  0  0  0  0  0  0  0  0  0  0
  1  2  2  0  0  0  0
  1  7  1  0  0  0  0
  1 30  1  0  0  0  0
  2  3  1  0  0  0  0
  2 31  1  0  0  0  0
  3  4  2  0  0  0  0
  3  5  1  0  0  0  0
  5  6  1  0  0  0  0
  5 32  1  0  0  0  0
  6  7  1  0  0  0  0
  6 11  2  0  0  0  0
  7  8  2  0  0  0  0
  8  9  1  0  0  0  0
  8 33  1  0  0  0  0
  9 10  2  0  0  0  0
  9 12  1  0  0  0  0
 10 11  1  0  0  0  0
 10 34  1  0  0  0  0
 11 35  1  0  0  0  0
 12 13  1  0  0  0  0
 13 14  1  0  0  0  0
 13 36  1  0  0  0  0
 13 37  1  0  0  0  0
 14 15  1  0  0  0  0
 14 38  1  0  0  0  0
 14 39  1  0  0  0  0
 15 16  1  0  0  0  0
 15 40  1  0  0  0  0
 15 41  1  0  0  0  0
 16 17  1  0  0  0  0
 16 42  1  0  0  0  0
 17 18  2  0  0  0  0
 17 19  1  0  0  0  0
 19 27  1  0  0  0  0
 20 21  1  0  0  0  0
 20 25  1  0  0  0  0
 20 43  1  1  0  0  0
 20 19  1  0  0  0  0
 21 22  1  0  0  0  0
 21 44  1  0  0  0  0
 21 45  1  0  0  0  0
 22 23  1  0  0  0  0
 22 46  1  0  0  0  0
 22 47  1  0  0  0  0
 23 24  1  0  0  0  0
 23 48  1  0  0  0  0
 23 49  1  0  0  0  0
 24 25  1  0  0  0  0
 24 50  1  0  0  0  0
 24 51  1  0  0  0  0
 25 52  1  6  0  0  0
 25 26  1  0  0  0  0
 26 53  1  0  0  0  0
 27 28  1  0  0  0  0
 27 29  1  0  0  0  0
 27 54  1  0  0  0  0
 28 29  1  0  0  0  0
 28 55  1  0  0  0  0
 28 56  1  0  0  0  0
 29 57  1  0  0  0  0
 29 58  1  0  0  0  0
M  END
>  <DRUGBANK_ID>
DB12685

>  <COMMON_NAME>
K-134

>  <CAS_NUMBER>
189362-06-9

>  <UNII>
J9J6NK6W4U

$$$$
