
 OpenBabel10282417203D

 16 10  0  0  0  0  0  0  0  0999 V2000
    0.9788    0.0859   -0.0467 O   0  0  0  0  0  0  0  0  0  0  0  0
    0.9595   -0.0726   -0.0556 O   0  5  0  0  0  0  0  0  0  0  0  0
    2.7295   -0.0726   -0.0556 Si  0  0  0  0  0  0  0  0  0  0  0  0
    3.3195    0.7040    1.4214 O   0  5  0  0  0  0  0  0  0  0  0  0
    3.3195   -1.7400   -0.1216 O   0  5  0  0  0  0  0  0  0  0  0  0
    3.3195    0.8183   -1.4667 O   0  5  0  0  0  0  0  0  0  0  0  0
    0.9159    0.0289    0.0457 O   0  5  0  0  0  0  0  0  0  0  0  0
    2.6859    0.0289    0.0457 Si  0  0  0  0  0  0  0  0  0  0  0  0
    3.2759   -0.5367    1.6157 O   0  5  0  0  0  0  0  0  0  0  0  0
    3.2759   -1.0479   -1.2291 O   0  5  0  0  0  0  0  0  0  0  0  0
    3.2759    1.6714   -0.2494 O   0  5  0  0  0  0  0  0  0  0  0  0
    0.9125    0.0066    0.0479 Mg  0  2  0  0  0  0  0  0  0  0  0  0
    0.9269   -0.0610   -0.0305 Al  0  1  0  0  0  0  0  0  0  0  0  0
    1.0580   -0.0616   -0.0533 Al  0  1  0  0  0  0  0  0  0  0  0  0
    0.6455   -0.6505   -0.6354 H   0  0  0  0  0  0  0  0  0  0  0  0
    1.9788    0.0859   -0.0467 H   0  0  0  0  0  0  0  0  0  0  0  0
  1 15  1  0  0  0  0
  1 16  1  0  0  0  0
  2  3  1  0  0  0  0
  3  4  1  0  0  0  0
  3  5  1  0  0  0  0
  3  6  1  0  0  0  0
  7  8  1  0  0  0  0
  8  9  1  0  0  0  0
  8 10  1  0  0  0  0
  8 11  1  0  0  0  0
M  CHG  8   2  -1   4  -1   5  -1   6  -1   7  -1   9  -1  10  -1  11  -1
M  CHG  3  12   2  13   3  14   3
M  END
>  <DRUGBANK_ID>
DB13595

>  <COMMON_NAME>
Almasilate

>  <CAS_NUMBER>
71205-22-6

>  <UNII>
OZQ8O62H53

>  <SYNONYMS>
Almasilate; Almasilato; Almasilatum; Magnesium aluminosilicate hydrate

$$$$
