
 OpenBabel10282417183D

 72 73  0  0  0  0  0  0  0  0999 V2000
    1.0756    0.0197    0.3778 C   0  0  0  0  0  0  0  0  0  0  0  0
    0.6020   -1.4275    0.5054 C   0  0  0  0  0  0  0  0  0  0  0  0
    1.1634   -2.0148    1.8002 C   0  0  0  0  0  0  0  0  0  0  0  0
   -0.8985   -1.3988    0.7801 C   0  0  0  0  0  0  0  0  0  0  0  0
    1.0581   -2.2986   -0.7371 C   0  0  0  0  0  0  0  0  0  0  0  0
    0.5481   -1.9138   -2.1960 C   0  0  0  0  0  0  0  0  0  0  0  0
    1.1181   -0.5693   -2.6827 C   0  0  0  0  0  0  0  0  0  0  0  0
    1.0735   -2.9484   -3.2287 C   0  0  0  0  0  0  0  0  0  0  0  0
   -0.9797   -1.9738   -2.1204 C   0  0  0  0  0  0  0  0  0  0  0  0
   -1.5119   -3.2004   -1.6546 C   0  0  0  0  0  0  0  0  0  0  0  0
   -2.7552   -3.2745   -1.0413 C   0  0  0  0  0  0  0  0  0  0  0  0
   -3.5716   -2.1483   -1.0209 C   0  0  0  0  0  0  0  0  0  0  0  0
   -4.9145   -2.3215   -0.8296 O   0  0  0  0  0  0  0  0  0  0  0  0
   -5.5043   -3.5735   -1.2932 C   0  0  0  0  0  0  0  0  0  0  0  0
   -5.1241   -4.3165   -2.6292 C   0  0  0  0  0  0  0  0  0  0  0  0
   -3.9314   -4.4588   -3.3872 O   0  0  0  0  0  0  0  0  0  0  0  0
   -3.3873   -3.2286   -3.8525 C   0  0  0  0  0  0  0  0  0  0  0  0
   -3.9138   -2.1265   -4.7690 C   0  0  0  0  0  0  0  0  0  0  0  0
   -5.4528   -1.7338   -4.7368 N   0  3  0  0  0  0  0  0  0  0  0  0
   -5.8030   -0.9771   -3.4567 C   0  0  0  0  0  0  0  0  0  0  0  0
   -5.7409   -0.6573   -5.7714 C   0  0  0  0  0  0  0  0  0  0  0  0
   -6.4329   -2.9232   -5.0652 C   0  0  0  0  0  0  0  0  0  0  0  0
   -5.8783   -3.8972   -6.0649 C   0  0  0  0  0  0  0  0  0  0  0  0
   -5.0500   -3.4762   -7.1134 C   0  0  0  0  0  0  0  0  0  0  0  0
   -4.5725   -4.2724   -8.1047 C   0  0  0  0  0  0  0  0  0  0  0  0
   -4.9355   -5.6148   -8.0911 C   0  0  0  0  0  0  0  0  0  0  0  0
   -5.6540   -6.1096   -7.0033 C   0  0  0  0  0  0  0  0  0  0  0  0
   -6.1355   -5.2789   -5.9956 C   0  0  0  0  0  0  0  0  0  0  0  0
   -3.0994   -0.9083   -1.5444 C   0  0  0  0  0  0  0  0  0  0  0  0
   -1.8162   -0.8349   -2.1426 C   0  0  0  0  0  0  0  0  0  0  0  0
    0.8919    0.5790    1.2977 H   0  0  0  0  0  0  0  0  0  0  0  0
    0.5107    0.5675   -0.3747 H   0  0  0  0  0  0  0  0  0  0  0  0
    2.1413    0.0620    0.1385 H   0  0  0  0  0  0  0  0  0  0  0  0
    0.8298   -1.4014    2.6481 H   0  0  0  0  0  0  0  0  0  0  0  0
    0.7812   -3.0286    1.9683 H   0  0  0  0  0  0  0  0  0  0  0  0
    2.2520   -2.0314    1.7949 H   0  0  0  0  0  0  0  0  0  0  0  0
   -1.3742   -0.8193    0.0191 H   0  0  0  0  0  0  0  0  0  0  0  0
   -1.3163   -2.4054    0.8626 H   0  0  0  0  0  0  0  0  0  0  0  0
   -1.1952   -0.8452    1.6714 H   0  0  0  0  0  0  0  0  0  0  0  0
    2.1551   -2.3425   -0.7571 H   0  0  0  0  0  0  0  0  0  0  0  0
    0.7647   -3.3417   -0.5283 H   0  0  0  0  0  0  0  0  0  0  0  0
    2.2045   -0.5353   -2.5448 H   0  0  0  0  0  0  0  0  0  0  0  0
    0.8979   -0.4037   -3.7428 H   0  0  0  0  0  0  0  0  0  0  0  0
    0.6973    0.3001   -2.1900 H   0  0  0  0  0  0  0  0  0  0  0  0
    0.7570   -3.9752   -3.0260 H   0  0  0  0  0  0  0  0  0  0  0  0
    0.7188   -2.6996   -4.2381 H   0  0  0  0  0  0  0  0  0  0  0  0
    2.1694   -2.9515   -3.2541 H   0  0  0  0  0  0  0  0  0  0  0  0
   -0.9644   -4.1314   -1.7747 H   0  0  0  0  0  0  0  0  0  0  0  0
   -3.1416   -4.2554   -0.7913 H   0  0  0  0  0  0  0  0  0  0  0  0
   -5.6505   -4.2553   -0.4598 H   0  0  0  0  0  0  0  0  0  0  0  0
   -6.5384   -3.2445   -1.5321 H   0  0  0  0  0  0  0  0  0  0  0  0
   -5.7385   -5.2100   -2.7859 H   0  0  0  0  0  0  0  0  0  0  0  0
   -5.5201   -3.5737   -3.2348 H   0  0  0  0  0  0  0  0  0  0  0  0
   -3.5074   -2.6244   -3.0160 H   0  0  0  0  0  0  0  0  0  0  0  0
   -2.3181   -3.3794   -4.0354 H   0  0  0  0  0  0  0  0  0  0  0  0
   -3.3857   -1.1944   -4.5080 H   0  0  0  0  0  0  0  0  0  0  0  0
   -3.5310   -2.3352   -5.7581 H   0  0  0  0  0  0  0  0  0  0  0  0
   -5.2022   -0.0608   -3.3953 H   0  0  0  0  0  0  0  0  0  0  0  0
   -6.8714   -0.7547   -3.4269 H   0  0  0  0  0  0  0  0  0  0  0  0
   -5.5702   -1.5881   -2.6271 H   0  0  0  0  0  0  0  0  0  0  0  0
   -5.6145   -1.0275   -6.7760 H   0  0  0  0  0  0  0  0  0  0  0  0
   -6.7900   -0.3749   -5.6534 H   0  0  0  0  0  0  0  0  0  0  0  0
   -5.0676    0.1808   -5.5924 H   0  0  0  0  0  0  0  0  0  0  0  0
   -6.8057   -3.4461   -4.1777 H   0  0  0  0  0  0  0  0  0  0  0  0
   -7.3882   -2.4734   -5.3502 H   0  0  0  0  0  0  0  0  0  0  0  0
   -4.6584   -2.4668   -7.1954 H   0  0  0  0  0  0  0  0  0  0  0  0
   -3.9402   -3.8466   -8.8734 H   0  0  0  0  0  0  0  0  0  0  0  0
   -4.6394   -6.2320   -8.9185 H   0  0  0  0  0  0  0  0  0  0  0  0
   -5.8414   -7.1867   -6.9587 H   0  0  0  0  0  0  0  0  0  0  0  0
   -6.6922   -5.7164   -5.1699 H   0  0  0  0  0  0  0  0  0  0  0  0
   -3.7037   -0.0028   -1.5137 H   0  0  0  0  0  0  0  0  0  0  0  0
   -1.4412    0.1366   -2.4656 H   0  0  0  0  0  0  0  0  0  0  0  0
  1  2  1  0  0  0  0
  1 31  1  0  0  0  0
  1 32  1  0  0  0  0
  1 33  1  0  0  0  0
  2  3  1  0  0  0  0
  2  4  1  0  0  0  0
  2  5  1  0  0  0  0
  3 34  1  0  0  0  0
  3 35  1  0  0  0  0
  3 36  1  0  0  0  0
  4 37  1  0  0  0  0
  4 38  1  0  0  0  0
  4 39  1  0  0  0  0
  5  6  1  0  0  0  0
  5 40  1  0  0  0  0
  5 41  1  0  0  0  0
  6  7  1  0  0  0  0
  6  8  1  0  0  0  0
  6  9  1  0  0  0  0
  7 42  1  0  0  0  0
  7 43  1  0  0  0  0
  7 44  1  0  0  0  0
  8 45  1  0  0  0  0
  8 46  1  0  0  0  0
  8 47  1  0  0  0  0
  9 10  2  0  0  0  0
  9 30  1  0  0  0  0
 10 11  1  0  0  0  0
 10 48  1  0  0  0  0
 11 12  2  0  0  0  0
 11 49  1  0  0  0  0
 12 13  1  0  0  0  0
 12 29  1  0  0  0  0
 13 14  1  0  0  0  0
 14 15  1  0  0  0  0
 14 50  1  0  0  0  0
 14 51  1  0  0  0  0
 15 16  1  0  0  0  0
 15 52  1  0  0  0  0
 15 53  1  0  0  0  0
 16 17  1  0  0  0  0
 17 18  1  0  0  0  0
 17 54  1  0  0  0  0
 17 55  1  0  0  0  0
 18 19  1  0  0  0  0
 18 56  1  0  0  0  0
 18 57  1  0  0  0  0
 19 20  1  0  0  0  0
 19 21  1  0  0  0  0
 19 22  1  0  0  0  0
 20 58  1  0  0  0  0
 20 59  1  0  0  0  0
 20 60  1  0  0  0  0
 21 61  1  0  0  0  0
 21 62  1  0  0  0  0
 21 63  1  0  0  0  0
 22 23  1  0  0  0  0
 22 64  1  0  0  0  0
 22 65  1  0  0  0  0
 23 24  2  0  0  0  0
 23 28  1  0  0  0  0
 24 25  1  0  0  0  0
 24 66  1  0  0  0  0
 25 26  2  0  0  0  0
 25 67  1  0  0  0  0
 26 27  1  0  0  0  0
 26 68  1  0  0  0  0
 27 28  2  0  0  0  0
 27 69  1  0  0  0  0
 28 70  1  0  0  0  0
 29 30  2  0  0  0  0
 29 71  1  0  0  0  0
 30 72  1  0  0  0  0
M  CHG  1  19   1
M  END
>  <DRUGBANK_ID>
DB11125

>  <COMMON_NAME>
Benzethonium

>  <CAS_NUMBER>
10172-60-8

>  <UNII>
1VU15B70BP

$$$$
