
 OpenBabel10282417123D

 32 31  0  0  0  0  0  0  0  0999 V2000
    0.9489   -0.0670    0.0907 C   0  0  0  0  0  0  0  0  0  0  0  0
    0.5015    1.2655   -0.4879 C   0  0  0  0  0  0  0  0  0  0  0  0
   -1.2055    1.8737   -4.8415 C   0  0  0  0  0  0  0  0  0  0  0  0
   -3.2227    0.6985   -5.8206 C   0  0  0  0  0  0  0  0  0  0  0  0
   -1.7115    0.7438   -5.7404 C   0  0  0  0  0  0  0  0  0  0  0  0
    1.0009    1.4178   -1.9261 C   0  0  0  0  0  0  0  0  0  0  0  0
    0.4444    0.3147   -2.8337 C   0  0  0  0  0  0  0  0  0  0  0  0
   -1.6060    1.6748   -3.3770 C   0  0  0  0  0  0  0  0  0  0  0  0
   -1.0878    0.3343   -2.8416 C   0  0  0  0  0  0  0  0  0  0  0  0
   -3.8515    0.9069   -6.8547 O   0  0  0  0  0  0  0  0  0  0  0  0
   -3.7896    0.3976   -4.6228 O   0  0  0  0  0  0  0  0  0  0  0  0
   -5.2134    0.5117   -4.5558 C   0  0  0  0  0  0  0  0  0  0  0  0
    0.5547   -0.9159   -0.4774 H   0  0  0  0  0  0  0  0  0  0  0  0
    0.5951   -0.1831    1.1156 H   0  0  0  0  0  0  0  0  0  0  0  0
    2.0408   -0.1295    0.0741 H   0  0  0  0  0  0  0  0  0  0  0  0
   -0.5912    1.3417   -0.4358 H   0  0  0  0  0  0  0  0  0  0  0  0
    0.8794    2.0908    0.1219 H   0  0  0  0  0  0  0  0  0  0  0  0
   -1.5729    2.8419   -5.1955 H   0  0  0  0  0  0  0  0  0  0  0  0
   -0.1117    1.9352   -4.9223 H   0  0  0  0  0  0  0  0  0  0  0  0
   -1.3171    0.8985   -6.7501 H   0  0  0  0  0  0  0  0  0  0  0  0
   -1.3322   -0.2390   -5.4401 H   0  0  0  0  0  0  0  0  0  0  0  0
    0.7235    2.4087   -2.3048 H   0  0  0  0  0  0  0  0  0  0  0  0
    2.0946    1.3997   -1.9532 H   0  0  0  0  0  0  0  0  0  0  0  0
    0.8487    0.4311   -3.8448 H   0  0  0  0  0  0  0  0  0  0  0  0
    0.7986   -0.6720   -2.5208 H   0  0  0  0  0  0  0  0  0  0  0  0
   -2.6875    1.7396   -3.2492 H   0  0  0  0  0  0  0  0  0  0  0  0
   -1.2466    2.5159   -2.7766 H   0  0  0  0  0  0  0  0  0  0  0  0
   -1.4586   -0.5141   -3.4247 H   0  0  0  0  0  0  0  0  0  0  0  0
   -1.5006    0.1534   -1.8444 H   0  0  0  0  0  0  0  0  0  0  0  0
   -5.5502    1.4971   -4.8957 H   0  0  0  0  0  0  0  0  0  0  0  0
   -5.6704   -0.2868   -5.1426 H   0  0  0  0  0  0  0  0  0  0  0  0
   -5.5203    0.3972   -3.5100 H   0  0  0  0  0  0  0  0  0  0  0  0
  1 13  1  0  0  0  0
  1 14  1  0  0  0  0
  1 15  1  0  0  0  0
  2  1  1  0  0  0  0
  2 16  1  0  0  0  0
  2 17  1  0  0  0  0
  3 18  1  0  0  0  0
  3 19  1  0  0  0  0
  4 11  1  0  0  0  0
  5  3  1  0  0  0  0
  5  4  1  0  0  0  0
  5 20  1  0  0  0  0
  5 21  1  0  0  0  0
  6  2  1  0  0  0  0
  6 22  1  0  0  0  0
  6 23  1  0  0  0  0
  7  6  1  0  0  0  0
  7 24  1  0  0  0  0
  7 25  1  0  0  0  0
  8  3  1  0  0  0  0
  8 26  1  0  0  0  0
  8 27  1  0  0  0  0
  9  7  1  0  0  0  0
  9  8  1  0  0  0  0
  9 28  1  0  0  0  0
  9 29  1  0  0  0  0
 10  4  2  0  0  0  0
 11 12  1  0  0  0  0
 12 30  1  0  0  0  0
 12 31  1  0  0  0  0
 12 32  1  0  0  0  0
M  END
>  <DRUGBANK_ID>
DB01631

>  <SECONDARY_ACCESSION_NUMBERS>
EXPT02376

>  <COMMON_NAME>
Methyl nonanoate

>  <CAS_NUMBER>
1731-84-6

>  <UNII>
7XKD6QOH68

>  <SYNONYMS>
Methyl ester nonanoic acid; Methyl n-nonanoate; Methyl nonylate; Methyl pelargonate; Pelargonic acid methyl ester

$$$$
