
 OpenBabel10282417183D

 28 28  0  0  0  0  0  0  0  0999 V2000
    0.9331    0.0633   -0.2022 C   0  0  0  0  0  0  0  0  0  0  0  0
   -1.6372   -2.6598   -0.1036 C   0  0  0  0  0  0  0  0  0  0  0  0
    0.9455   -0.0129    2.8675 C   0  0  0  0  0  0  0  0  0  0  0  0
   -0.0118   -2.0603    3.6658 C   0  0  0  0  0  0  0  0  0  0  0  0
    0.4764    0.6722    3.9843 C   0  0  0  0  0  0  0  0  0  0  0  0
   -0.4083   -1.3963    4.8342 C   0  0  0  0  0  0  0  0  0  0  0  0
    0.4625   -1.3842    0.0345 C   0  0  1  0  0  0  0  0  0  0  0  0
    0.6557   -1.3743    2.6443 C   0  0  0  0  0  0  0  0  0  0  0  0
   -0.1807   -0.0307    4.9712 C   0  0  0  0  0  0  0  0  0  0  0  0
    1.1055   -2.0177    1.3323 C   0  0  1  0  0  0  0  0  0  0  0  0
   -1.0173   -1.3494   -0.0019 N   0  0  0  0  0  0  0  0  0  0  0  0
   -0.5906    0.5820    6.1161 O   0  0  0  0  0  0  0  0  0  0  0  0
    0.9187   -3.4401    1.3104 O   0  0  0  0  0  0  0  0  0  0  0  0
    0.8140   -1.9637   -0.8303 H   0  0  0  0  0  0  0  0  0  0  0  0
    2.1931   -1.8983    1.2708 H   0  0  0  0  0  0  0  0  0  0  0  0
    0.4323    0.7727    0.4661 H   0  0  0  0  0  0  0  0  0  0  0  0
    0.7021    0.4117   -1.2130 H   0  0  0  0  0  0  0  0  0  0  0  0
    2.0167    0.1511   -0.0588 H   0  0  0  0  0  0  0  0  0  0  0  0
   -1.5798   -3.2161    0.8326 H   0  0  0  0  0  0  0  0  0  0  0  0
   -2.7045   -2.5440   -0.3103 H   0  0  0  0  0  0  0  0  0  0  0  0
   -1.2008   -3.2555   -0.9113 H   0  0  0  0  0  0  0  0  0  0  0  0
    1.5553    0.5496    2.1709 H   0  0  0  0  0  0  0  0  0  0  0  0
   -0.2171   -3.1262    3.6039 H   0  0  0  0  0  0  0  0  0  0  0  0
    0.6620    1.7404    4.0593 H   0  0  0  0  0  0  0  0  0  0  0  0
   -0.8845   -1.9452    5.6387 H   0  0  0  0  0  0  0  0  0  0  0  0
   -1.3620   -0.8738    0.8333 H   0  0  0  0  0  0  0  0  0  0  0  0
   -0.3311    1.5179    6.0676 H   0  0  0  0  0  0  0  0  0  0  0  0
    0.0449   -3.6324    1.6773 H   0  0  0  0  0  0  0  0  0  0  0  0
  1 16  1  0  0  0  0
  1 17  1  0  0  0  0
  1 18  1  0  0  0  0
  2 19  1  0  0  0  0
  2 20  1  0  0  0  0
  2 21  1  0  0  0  0
  3 22  1  0  0  0  0
  4 23  1  0  0  0  0
  5  3  1  0  0  0  0
  5 24  1  0  0  0  0
  6  4  2  0  0  0  0
  6 25  1  0  0  0  0
  7  1  1  0  0  0  0
  7 14  1  6  0  0  0
  8  3  2  0  0  0  0
  8  4  1  0  0  0  0
  9  5  2  0  0  0  0
  9  6  1  0  0  0  0
 10  7  1  0  0  0  0
 10  8  1  0  0  0  0
 10 13  1  0  0  0  0
 10 15  1  6  0  0  0
 11  2  1  0  0  0  0
 11  7  1  0  0  0  0
 11 26  1  0  0  0  0
 12  9  1  0  0  0  0
 12 27  1  0  0  0  0
 13 28  1  0  0  0  0
M  END
>  <DRUGBANK_ID>
DB11610

>  <COMMON_NAME>
Oxilofrine

>  <CAS_NUMBER>
365-26-4

>  <UNII>
F49638UBDR

>  <SYNONYMS>
4-HMP; 4-hydroxyephedrine; Methyl synephrin; Methyl synephrine; Methylsympatol; Methylsynephrin; Methylsynephrine; Oxilofrine; Oxyephedrin; p-hydroxyephedrine

$$$$
