
 OpenBabel10282417123D

  7  6  0  0  0  0  0  0  0  0999 V2000
    0.9483   -0.0687   -0.0644 C   0  0  0  0  0  0  0  0  0  0  0  0
    0.4714    0.4106   -1.3492 N   0  0  0  0  0  0  0  0  0  0  0  0
    0.5937   -1.0877    0.1138 H   0  0  0  0  0  0  0  0  0  0  0  0
    0.5887    0.5742    0.7441 H   0  0  0  0  0  0  0  0  0  0  0  0
    2.0416   -0.0765   -0.0464 H   0  0  0  0  0  0  0  0  0  0  0  0
   -0.5473    0.4415   -1.3425 H   0  0  0  0  0  0  0  0  0  0  0  0
    0.7832    1.3707   -1.4897 H   0  0  0  0  0  0  0  0  0  0  0  0
  1  2  1  0  0  0  0
  1  3  1  0  0  0  0
  1  4  1  0  0  0  0
  1  5  1  0  0  0  0
  2  6  1  0  0  0  0
  2  7  1  0  0  0  0
M  END
>  <DRUGBANK_ID>
DB01828

>  <SECONDARY_ACCESSION_NUMBERS>
EXPT02363

>  <COMMON_NAME>
Methylamine

>  <CAS_NUMBER>
74-89-5

>  <UNII>
BSF23SJ79E

$$$$
