
 OpenBabel10282417123D

 17 17  0  0  0  0  0  0  0  0999 V2000
    0.9494    0.0217    0.0038 N   0  0  0  0  0  0  0  0  0  0  0  0
    0.4715    0.5019    1.2933 C   0  0  0  0  0  0  0  0  0  0  0  0
    0.9169    1.9139    1.5742 C   0  0  0  0  0  0  0  0  0  0  0  0
    0.2976    2.9899    0.9236 C   0  0  0  0  0  0  0  0  0  0  0  0
    0.6490    4.3046    1.2306 C   0  0  0  0  0  0  0  0  0  0  0  0
    1.6172    4.5557    2.2020 C   0  0  0  0  0  0  0  0  0  0  0  0
    2.2504    3.4949    2.8447 C   0  0  0  0  0  0  0  0  0  0  0  0
    1.9256    2.1775    2.5128 C   0  0  0  0  0  0  0  0  0  0  0  0
    0.6288    0.6592   -0.7229 H   0  0  0  0  0  0  0  0  0  0  0  0
    1.9663    0.0819   -0.0083 H   0  0  0  0  0  0  0  0  0  0  0  0
   -0.6241    0.4642    1.3187 H   0  0  0  0  0  0  0  0  0  0  0  0
    0.8173   -0.1737    2.0836 H   0  0  0  0  0  0  0  0  0  0  0  0
   -0.4793    2.8063    0.1838 H   0  0  0  0  0  0  0  0  0  0  0  0
    0.1545    5.1300    0.7276 H   0  0  0  0  0  0  0  0  0  0  0  0
    1.8745    5.5802    2.4580 H   0  0  0  0  0  0  0  0  0  0  0  0
    2.9898    3.6927    3.6178 H   0  0  0  0  0  0  0  0  0  0  0  0
    2.4468    1.3614    3.0065 H   0  0  0  0  0  0  0  0  0  0  0  0
  1  2  1  0  0  0  0
  1  9  1  0  0  0  0
  1 10  1  0  0  0  0
  2  3  1  0  0  0  0
  2 11  1  0  0  0  0
  2 12  1  0  0  0  0
  3  4  2  0  0  0  0
  3  8  1  0  0  0  0
  4  5  1  0  0  0  0
  4 13  1  0  0  0  0
  5  6  2  0  0  0  0
  5 14  1  0  0  0  0
  6  7  1  0  0  0  0
  6 15  1  0  0  0  0
  7  8  2  0  0  0  0
  7 16  1  0  0  0  0
  8 17  1  0  0  0  0
M  END
>  <DRUGBANK_ID>
DB02464

>  <SECONDARY_ACCESSION_NUMBERS>
EXPT00400

>  <COMMON_NAME>
Benzylamine

>  <CAS_NUMBER>
100-46-9

>  <UNII>
A1O31ROR09

$$$$
