
 OpenBabel10282417123D

 35 36  0  0  1  0  0  0  0  0999 V2000
    0.2320   -7.8788    1.3023 C   0  0  0  0  0  0  0  0  0  0  0  0
   -0.0989   -7.3585   -1.2418 C   0  0  0  0  0  0  0  0  0  0  0  0
   -4.1621   -5.5498    0.9112 C   0  0  0  0  0  0  0  0  0  0  0  0
   -2.2253   -3.5378    4.2683 C   0  0  0  0  0  0  0  0  0  0  0  0
    1.7809   -7.9846   -2.0142 C   0  0  0  0  0  0  0  0  0  0  0  0
    0.6079   -7.8007   -0.1422 C   0  0  0  0  0  0  0  0  0  0  0  0
   -2.3351   -4.9751    3.7201 C   0  0  1  0  0  0  0  0  0  0  0  0
   -0.8218   -6.8570    1.6336 C   0  0  0  0  0  0  0  0  0  0  0  0
   -4.2193   -5.7189   -0.6098 C   0  0  0  0  0  0  0  0  0  0  0  0
   -1.9710   -5.0249    2.1757 C   0  0  1  0  0  0  0  0  0  0  0  0
   -2.2869   -7.1445    1.3837 C   0  0  0  0  0  0  0  0  0  0  0  0
   -1.4679   -5.8582    4.5606 N   0  0  0  0  0  0  0  0  0  0  0  0
    0.6347   -7.4689   -2.3880 N   0  0  0  0  0  0  0  0  0  0  0  0
    1.8139   -8.2156   -0.6652 N   0  0  0  0  0  0  0  0  0  0  0  0
   -0.6010   -5.6372    2.0443 N   0  0  0  0  0  0  0  0  0  0  0  0
   -2.8448   -5.9075    1.4353 N   0  0  0  0  0  0  0  0  0  0  0  0
   -0.8847   -3.2286    4.6463 O   0  0  0  0  0  0  0  0  0  0  0  0
   -5.0495   -6.3628   -1.2317 O   0  0  0  0  0  0  0  0  0  0  0  0
   -3.2823   -4.9988   -1.2650 O   0  0  0  0  0  0  0  0  0  0  0  0
   -2.7654   -8.2281    1.1407 O   0  0  0  0  0  0  0  0  0  0  0  0
   -3.3770   -5.2951    3.8497 H   0  0  0  0  0  0  0  0  0  0  0  0
   -1.9836   -4.0342    1.7102 H   0  0  0  0  0  0  0  0  0  0  0  0
    1.1074   -7.6898    1.9351 H   0  0  0  0  0  0  0  0  0  0  0  0
   -0.1416   -8.8800    1.5404 H   0  0  0  0  0  0  0  0  0  0  0  0
   -1.1045   -6.9619   -1.2598 H   0  0  0  0  0  0  0  0  0  0  0  0
   -4.9307   -6.1828    1.3627 H   0  0  0  0  0  0  0  0  0  0  0  0
   -4.3861   -4.4999    1.1361 H   0  0  0  0  0  0  0  0  0  0  0  0
   -2.5562   -2.7998    3.5330 H   0  0  0  0  0  0  0  0  0  0  0  0
   -2.8491   -3.4234    5.1624 H   0  0  0  0  0  0  0  0  0  0  0  0
    2.6104   -8.2104   -2.6723 H   0  0  0  0  0  0  0  0  0  0  0  0
   -1.5420   -6.8104    4.2030 H   0  0  0  0  0  0  0  0  0  0  0  0
   -0.5056   -5.5986    4.2993 H   0  0  0  0  0  0  0  0  0  0  0  0
    2.5964   -8.6204   -0.1678 H   0  0  0  0  0  0  0  0  0  0  0  0
   -0.6647   -3.8854    5.3363 H   0  0  0  0  0  0  0  0  0  0  0  0
   -3.4225   -5.1959   -2.2179 H   0  0  0  0  0  0  0  0  0  0  0  0
  1 23  1  0  0  0  0
  1 24  1  0  0  0  0
  2 25  1  0  0  0  0
  3 26  1  0  0  0  0
  3 27  1  0  0  0  0
  4 28  1  0  0  0  0
  4 29  1  0  0  0  0
  5 30  1  0  0  0  0
  6  1  1  0  0  0  0
  6  2  2  0  0  0  0
  7 12  1  0  0  0  0
  7 21  1  1  0  0  0
  7  4  1  0  0  0  0
  8  1  1  0  0  0  0
  9  3  1  0  0  0  0
 10  7  1  0  0  0  0
 10 22  1  6  0  0  0
 11  8  1  0  0  0  0
 12 31  1  0  0  0  0
 12 32  1  0  0  0  0
 13  2  1  0  0  0  0
 13  5  2  0  0  0  0
 14  5  1  0  0  0  0
 14  6  1  0  0  0  0
 14 33  1  0  0  0  0
 15  8  2  0  0  0  0
 15 10  1  0  0  0  0
 16  3  1  0  0  0  0
 16 10  1  0  0  0  0
 16 11  1  0  0  0  0
 17  4  1  0  0  0  0
 17 34  1  0  0  0  0
 18  9  2  0  0  0  0
 19  9  1  0  0  0  0
 19 35  1  0  0  0  0
 20 11  2  0  0  0  0
M  END
>  <DRUGBANK_ID>
DB02356

>  <SECONDARY_ACCESSION_NUMBERS>
EXPT01855

>  <COMMON_NAME>
4-Imidazolmethylene-5-Imidazolone Chromophore

$$$$
