
 OpenBabel10282417103D

 42 44  0  0  0  0  0  0  0  0999 V2000
   -1.5735   -1.1981   -0.0055 C   0  0  0  0  0  0  0  0  0  0  0  0
   -2.4405    0.0020   -0.0106 C   0  0  0  0  0  0  0  0  0  0  0  0
   -1.6748    1.1226    0.0062 C   0  0  0  0  0  0  0  0  0  0  0  0
   -0.2580    0.7052   -0.0020 C   0  0  0  0  0  0  0  0  0  0  0  0
   -0.1867   -0.6926   -0.0354 C   0  0  0  0  0  0  0  0  0  0  0  0
    0.9151    1.4561    0.0017 C   0  0  0  0  0  0  0  0  0  0  0  0
    2.1432    0.7890    0.0024 C   0  0  0  0  0  0  0  0  0  0  0  0
    2.2177   -0.5937   -0.0398 C   0  0  0  0  0  0  0  0  0  0  0  0
    1.0451   -1.3267   -0.1093 C   0  0  0  0  0  0  0  0  0  0  0  0
   -1.9611   -2.4948    0.0468 C   0  0  0  0  0  0  0  0  0  0  0  0
   -1.0494   -3.6651    0.1161 C   0  0  0  0  0  0  0  0  0  0  0  0
   -0.1344   -3.8037    1.1701 C   0  0  0  0  0  0  0  0  0  0  0  0
    0.9690   -4.6645    1.0401 C   0  0  0  0  0  0  0  0  0  0  0  0
    1.0814   -5.5359   -0.0511 C   0  0  0  0  0  0  0  0  0  0  0  0
    0.0456   -5.5484   -0.9886 C   0  0  0  0  0  0  0  0  0  0  0  0
   -0.9790   -4.5832   -0.9379 C   0  0  0  0  0  0  0  0  0  0  0  0
    2.6250   -6.4724   -0.2153 S   0  0  3  0  0  0  0  0  0  0  0  0
    2.7081   -7.3171    1.0203 O   0  0  0  0  0  0  0  0  0  0  0  0
    2.3182   -7.5511   -1.6228 C   0  0  0  0  0  0  0  0  0  0  0  0
   -2.0868    2.5633    0.0279 C   0  0  0  0  0  0  0  0  0  0  0  0
   -1.6365    3.2524    1.3037 C   0  0  0  0  0  0  0  0  0  0  0  0
   -0.8783    4.3562    1.1118 O   0  0  0  0  0  0  0  0  0  0  0  0
   -1.9372    2.8727    2.4334 O   0  0  0  0  0  0  0  0  0  0  0  0
    3.2827    1.4912    0.0123 F   0  0  0  0  0  0  0  0  0  0  0  0
   -3.9358   -0.0580   -0.0120 C   0  0  0  0  0  0  0  0  0  0  0  0
    0.9205    2.5365    0.0134 H   0  0  0  0  0  0  0  0  0  0  0  0
    3.1727   -1.1082   -0.0367 H   0  0  0  0  0  0  0  0  0  0  0  0
    1.1424   -2.3897   -0.2305 H   0  0  0  0  0  0  0  0  0  0  0  0
   -3.0166   -2.7554    0.0322 H   0  0  0  0  0  0  0  0  0  0  0  0
   -0.1665   -3.1172    2.0152 H   0  0  0  0  0  0  0  0  0  0  0  0
    1.7840   -4.5849    1.7602 H   0  0  0  0  0  0  0  0  0  0  0  0
    0.0272   -6.2701   -1.7979 H   0  0  0  0  0  0  0  0  0  0  0  0
   -1.6862   -4.5278   -1.7626 H   0  0  0  0  0  0  0  0  0  0  0  0
    1.4420   -8.1788   -1.4492 H   0  0  0  0  0  0  0  0  0  0  0  0
    2.1956   -6.9571   -2.5321 H   0  0  0  0  0  0  0  0  0  0  0  0
    3.1908   -8.1984   -1.7551 H   0  0  0  0  0  0  0  0  0  0  0  0
   -1.6996    3.0816   -0.8568 H   0  0  0  0  0  0  0  0  0  0  0  0
   -3.1746    2.6831   -0.0124 H   0  0  0  0  0  0  0  0  0  0  0  0
   -0.6936    4.5943    0.1841 H   0  0  0  0  0  0  0  0  0  0  0  0
   -4.3052   -0.5744   -0.9038 H   0  0  0  0  0  0  0  0  0  0  0  0
   -4.3115   -0.5746    0.8766 H   0  0  0  0  0  0  0  0  0  0  0  0
   -4.3943    0.9366   -0.0148 H   0  0  0  0  0  0  0  0  0  0  0  0
  1  2  1  0  0  0  0
  1  5  1  0  0  0  0
  1 10  2  0  0  0  0
  2  3  2  0  0  0  0
  2 25  1  0  0  0  0
  3  4  1  0  0  0  0
  3 20  1  0  0  0  0
  5  4  1  0  0  0  0
  6  4  2  0  0  0  0
  6  7  1  0  0  0  0
  6 26  1  0  0  0  0
  7  8  2  0  0  0  0
  7 24  1  0  0  0  0
  8  9  1  0  0  0  0
  8 27  1  0  0  0  0
  9  5  2  0  0  0  0
  9 28  1  0  0  0  0
 10 11  1  0  0  0  0
 10 29  1  0  0  0  0
 12 11  1  0  0  0  0
 12 13  2  0  0  0  0
 12 30  1  0  0  0  0
 13 14  1  0  0  0  0
 13 31  1  0  0  0  0
 14 15  2  0  0  0  0
 14 17  1  0  0  0  0
 15 16  1  0  0  0  0
 15 32  1  0  0  0  0
 16 11  2  0  0  0  0
 16 33  1  0  0  0  0
 17 18  2  0  0  0  0
 17 19  1  0  0  0  0
 19 34  1  0  0  0  0
 19 35  1  0  0  0  0
 19 36  1  0  0  0  0
 20 21  1  0  0  0  0
 20 37  1  0  0  0  0
 20 38  1  0  0  0  0
 21 22  1  0  0  0  0
 21 23  2  0  0  0  0
 22 39  1  0  0  0  0
 25 40  1  0  0  0  0
 25 41  1  0  0  0  0
 25 42  1  0  0  0  0
M  END
>  <DRUGBANK_ID>
DB00605

>  <SECONDARY_ACCESSION_NUMBERS>
APRD01243

>  <COMMON_NAME>
Sulindac

>  <CAS_NUMBER>
38194-50-2

>  <UNII>
184SNS8VUH

>  <SYNONYMS>
(Z)-5-Fluoro-2-methyl-1-((p-(methylsulfinyl)phenyl)methylene)-1H-indene-3-acetic acid; cis-5-Fluoro-2-methyl-1-((4-(methylsulfinyl)phenyl)methylene)-1H-indene-3-acetic acid; cis-5-Fluoro-2-methyl-1-((p-methylsulfinyl)benzylidene)indene-3-acetic acid; Sulindac; Sulindaco; Sulindacum

$$$$
