C4M
 OpenBabel10282417163D

 55 56  0  0  0  0  0  0  0  0999 V2000
    0.9552   -0.0785   -0.0387 C   0  0  0  0  0  0  0  0  0  0  0  0
    0.4499   -0.3221    1.2799 O   0  0  0  0  0  0  0  0  0  0  0  0
    0.8462   -1.5278    1.8006 C   0  0  0  0  0  0  0  0  0  0  0  0
    2.1760   -1.9053    1.7186 C   0  0  0  0  0  0  0  0  0  0  0  0
    2.6097   -3.1771    2.0821 C   0  0  0  0  0  0  0  0  0  0  0  0
    4.0454   -3.4177    1.6391 C   0  0  0  0  0  0  0  0  0  0  0  0
    1.6736   -4.0387    2.7418 C   0  0  0  0  0  0  0  0  0  0  0  0
    0.3210   -3.6223    2.9390 C   0  0  0  0  0  0  0  0  0  0  0  0
   -0.6853   -4.5309    3.6235 C   0  0  0  0  0  0  0  0  0  0  0  0
   -0.0902   -2.3600    2.4323 C   0  0  0  0  0  0  0  0  0  0  0  0
   -1.5298   -1.9268    2.5225 C   0  0  0  0  0  0  0  0  0  0  0  0
    2.0932   -5.6750    3.3730 S   0  0  0  0  0  0  0  0  0  0  0  0
    1.7950   -5.7548    4.7773 O   0  0  0  0  0  0  0  0  0  0  0  0
    1.5522   -6.6787    2.4661 O   0  0  0  0  0  0  0  0  0  0  0  0
    3.7583   -5.7432    3.2236 N   0  0  0  0  0  0  0  0  0  0  0  0
    4.5003   -4.6982    3.9731 C   0  0  0  0  0  0  0  0  0  0  0  0
    4.4723   -4.9229    5.4157 C   0  0  1  0  0  0  0  0  0  0  0  0
    4.9861   -6.2668    5.3194 O   0  0  0  0  0  0  0  0  0  0  0  0
    5.2229   -3.7859    6.1853 C   0  0  1  0  0  0  0  0  0  0  0  0
    4.7767   -2.4305    5.7186 N   0  0  0  0  0  0  0  0  0  0  0  0
    4.9035   -3.8422    7.7140 C   0  0  0  0  0  0  0  0  0  0  0  0
    5.2675   -5.1218    8.4357 C   0  0  0  0  0  0  0  0  0  0  0  0
    5.8077   -5.1916    9.6985 C   0  0  0  0  0  0  0  0  0  0  0  0
    6.0158   -6.4596   10.2929 C   0  0  0  0  0  0  0  0  0  0  0  0
    5.7224   -7.6687    9.6393 C   0  0  0  0  0  0  0  0  0  0  0  0
    5.1637   -7.6160    8.4037 C   0  0  0  0  0  0  0  0  0  0  0  0
    4.9247   -6.3576    7.9047 C   0  0  0  0  0  0  0  0  0  0  0  0
    3.4514   -4.9020    5.8052 H   0  0  0  0  0  0  0  0  0  0  0  0
    6.2992   -3.8699    6.0153 H   0  0  0  0  0  0  0  0  0  0  0  0
    0.5730    0.8900   -0.3692 H   0  0  0  0  0  0  0  0  0  0  0  0
    0.6071   -0.8470   -0.7381 H   0  0  0  0  0  0  0  0  0  0  0  0
    2.0478   -0.0069   -0.0731 H   0  0  0  0  0  0  0  0  0  0  0  0
    2.9056   -1.2132    1.3112 H   0  0  0  0  0  0  0  0  0  0  0  0
    4.8193   -3.2439    2.3891 H   0  0  0  0  0  0  0  0  0  0  0  0
    4.1570   -4.3961    1.1747 H   0  0  0  0  0  0  0  0  0  0  0  0
    4.3869   -2.6578    0.9348 H   0  0  0  0  0  0  0  0  0  0  0  0
   -0.7524   -5.4896    3.1003 H   0  0  0  0  0  0  0  0  0  0  0  0
   -0.4208   -4.6919    4.6730 H   0  0  0  0  0  0  0  0  0  0  0  0
   -1.7002   -4.1279    3.6331 H   0  0  0  0  0  0  0  0  0  0  0  0
   -2.1622   -2.6339    1.9746 H   0  0  0  0  0  0  0  0  0  0  0  0
   -1.8453   -1.8782    3.5693 H   0  0  0  0  0  0  0  0  0  0  0  0
   -1.7021   -0.9395    2.0879 H   0  0  0  0  0  0  0  0  0  0  0  0
    4.1334   -6.6795    3.3899 H   0  0  0  0  0  0  0  0  0  0  0  0
    5.5469   -4.7165    3.6316 H   0  0  0  0  0  0  0  0  0  0  0  0
    4.0253   -3.7408    3.8905 H   0  0  0  0  0  0  0  0  0  0  0  0
    4.1646   -6.8116    5.2834 H   0  0  0  0  0  0  0  0  0  0  0  0
    5.2591   -1.6859    6.2210 H   0  0  0  0  0  0  0  0  0  0  0  0
    4.9896   -2.2640    4.7352 H   0  0  0  0  0  0  0  0  0  0  0  0
    5.3975   -2.9861    8.1951 H   0  0  0  0  0  0  0  0  0  0  0  0
    3.8233   -3.6734    7.8548 H   0  0  0  0  0  0  0  0  0  0  0  0
    6.0422   -4.2805   10.2391 H   0  0  0  0  0  0  0  0  0  0  0  0
    6.4084   -6.5102   11.2987 H   0  0  0  0  0  0  0  0  0  0  0  0
    5.8944   -8.6428   10.0769 H   0  0  0  0  0  0  0  0  0  0  0  0
    4.8538   -8.4732    7.8112 H   0  0  0  0  0  0  0  0  0  0  0  0
    4.3329   -6.4133    7.0433 H   0  0  0  0  0  0  0  0  0  0  0  0
  1  2  1  0  0  0  0
  1 30  1  0  0  0  0
  1 31  1  0  0  0  0
  1 32  1  0  0  0  0
  2  3  1  0  0  0  0
  3  4  2  0  0  0  0
  3 10  1  0  0  0  0
  4  5  1  0  0  0  0
  4 33  1  0  0  0  0
  5  6  1  0  0  0  0
  5  7  2  0  0  0  0
  6 34  1  0  0  0  0
  6 35  1  0  0  0  0
  6 36  1  0  0  0  0
  7  8  1  0  0  0  0
  7 12  1  0  0  0  0
  8  9  1  0  0  0  0
  8 10  2  0  0  0  0
  9 37  1  0  0  0  0
  9 38  1  0  0  0  0
  9 39  1  0  0  0  0
 10 11  1  0  0  0  0
 11 40  1  0  0  0  0
 11 41  1  0  0  0  0
 11 42  1  0  0  0  0
 12 13  2  0  0  0  0
 12 14  2  0  0  0  0
 12 15  1  0  0  0  0
 15 16  1  0  0  0  0
 15 43  1  0  0  0  0
 16 17  1  0  0  0  0
 16 44  1  0  0  0  0
 16 45  1  0  0  0  0
 17 18  1  0  0  0  0
 17 19  1  0  0  0  0
 17 28  1  1  0  0  0
 18 46  1  0  0  0  0
 19 20  1  0  0  0  0
 19 21  1  0  0  0  0
 19 29  1  6  0  0  0
 20 47  1  0  0  0  0
 20 48  1  0  0  0  0
 21 22  1  0  0  0  0
 21 49  1  0  0  0  0
 21 50  1  0  0  0  0
 22 23  1  0  0  0  0
 22 27  2  0  0  0  0
 23 24  2  0  0  0  0
 23 51  1  0  0  0  0
 24 25  1  0  0  0  0
 24 52  1  0  0  0  0
 25 26  2  0  0  0  0
 25 53  1  0  0  0  0
 26 27  1  0  0  0  0
 26 54  1  0  0  0  0
 27 55  1  0  0  0  0
M  END
>  <DRUGBANK_ID>
DB07527

>  <COMMON_NAME>
N-[(2R,3S)-3-AMINO-2-HYDROXY-4-PHENYLBUTYL]-4-METHOXY-2,3,6-TRIMETHYLBENZENESULFONAMIDE

$$$$
