
 OpenBabel10282417233D

 66 70  0  0  0  0  0  0  0  0999 V2000
    1.3120    0.2451   -0.0848 C   0  0  0  0  0  0  0  0  0  0  0  0
    0.6237    1.4287   -0.5127 N   0  0  0  0  0  0  0  0  0  0  0  0
   -0.2798    1.5378   -1.5686 C   0  0  0  0  0  0  0  0  0  0  0  0
   -0.7578    2.6747   -1.7545 O   0  0  0  0  0  0  0  0  0  0  0  0
   -0.7126    0.3492   -2.3928 C   0  0  0  0  0  0  0  0  0  0  0  0
   -0.8500    0.4230   -3.7411 N   0  0  0  0  0  0  0  0  0  0  0  0
   -1.3216   -0.7927   -4.1404 N   0  0  0  0  0  0  0  0  0  0  0  0
   -1.5777   -1.0564   -5.5425 C   0  0  0  0  0  0  0  0  0  0  0  0
   -1.5384   -1.6459   -3.0976 C   0  0  0  0  0  0  0  0  0  0  0  0
   -1.1376   -0.9552   -1.9581 C   0  0  0  0  0  0  0  0  0  0  0  0
   -1.2539   -1.6168   -0.5994 C   0  0  0  0  0  0  0  0  0  0  0  0
   -1.6321   -0.6061    0.5018 C   0  0  0  0  0  0  0  0  0  0  0  0
   -0.0191   -2.5469   -0.3316 C   0  0  0  0  0  0  0  0  0  0  0  0
   -2.4738   -2.5974   -0.6112 C   0  0  0  0  0  0  0  0  0  0  0  0
   -2.5075   -3.4740   -1.8251 C   0  0  0  0  0  0  0  0  0  0  0  0
   -2.1099   -2.9946   -3.0629 C   0  0  0  0  0  0  0  0  0  0  0  0
   -2.1389   -3.7352   -4.1746 N   0  0  0  0  0  0  0  0  0  0  0  0
   -2.5849   -5.0049   -4.0466 C   0  0  0  0  0  0  0  0  0  0  0  0
   -2.7003   -5.8193   -5.1701 N   0  0  0  0  0  0  0  0  0  0  0  0
   -2.3325   -5.5333   -6.4845 C   0  0  0  0  0  0  0  0  0  0  0  0
   -1.0515   -5.0715   -6.7872 C   0  0  0  0  0  0  0  0  0  0  0  0
   -0.7009   -4.7444   -8.0986 C   0  0  0  0  0  0  0  0  0  0  0  0
   -1.6304   -4.8169   -9.1415 C   0  0  0  0  0  0  0  0  0  0  0  0
   -2.9169   -5.2659   -8.8328 C   0  0  0  0  0  0  0  0  0  0  0  0
   -3.2606   -5.6392   -7.5238 C   0  0  0  0  0  0  0  0  0  0  0  0
   -1.2640   -4.3878  -10.3957 N   0  0  0  0  0  0  0  0  0  0  0  0
   -0.2653   -5.1330  -11.1737 C   0  0  0  0  0  0  0  0  0  0  0  0
    0.5922   -4.1329  -11.9846 C   0  0  0  0  0  0  0  0  0  0  0  0
   -0.2512   -3.2762  -12.8539 N   0  0  0  0  0  0  0  0  0  0  0  0
    0.5699   -2.3655  -13.6418 C   0  0  0  0  0  0  0  0  0  0  0  0
   -1.1954   -2.5268  -11.9887 C   0  0  0  0  0  0  0  0  0  0  0  0
   -2.1093   -3.4768  -11.1718 C   0  0  0  0  0  0  0  0  0  0  0  0
   -2.9845   -5.5533   -2.8818 N   0  0  0  0  0  0  0  0  0  0  0  0
   -2.9381   -4.7733   -1.7903 C   0  0  0  0  0  0  0  0  0  0  0  0
    1.1412   -0.4578   -0.8759 H   0  0  0  0  0  0  0  0  0  0  0  0
    0.9307   -0.0974    0.8883 H   0  0  0  0  0  0  0  0  0  0  0  0
    2.3874    0.3632    0.0050 H   0  0  0  0  0  0  0  0  0  0  0  0
    0.6803    2.2508    0.0761 H   0  0  0  0  0  0  0  0  0  0  0  0
   -0.9698   -1.9098   -5.8554 H   0  0  0  0  0  0  0  0  0  0  0  0
   -2.6409   -1.2791   -5.6734 H   0  0  0  0  0  0  0  0  0  0  0  0
   -1.3105   -0.1839   -6.1451 H   0  0  0  0  0  0  0  0  0  0  0  0
   -1.6524   -1.0754    1.4863 H   0  0  0  0  0  0  0  0  0  0  0  0
   -1.0029    0.2649    0.5974 H   0  0  0  0  0  0  0  0  0  0  0  0
   -2.6121   -0.1567    0.2918 H   0  0  0  0  0  0  0  0  0  0  0  0
    0.0498   -3.3329   -1.0962 H   0  0  0  0  0  0  0  0  0  0  0  0
    0.9813   -2.1269   -0.3740 H   0  0  0  0  0  0  0  0  0  0  0  0
   -0.0887   -3.0183    0.6496 H   0  0  0  0  0  0  0  0  0  0  0  0
   -3.4160   -2.0356   -0.5897 H   0  0  0  0  0  0  0  0  0  0  0  0
   -2.4367   -3.2034    0.3031 H   0  0  0  0  0  0  0  0  0  0  0  0
   -3.1470   -6.7015   -4.9750 H   0  0  0  0  0  0  0  0  0  0  0  0
   -0.3123   -4.9635   -5.9977 H   0  0  0  0  0  0  0  0  0  0  0  0
    0.3003   -4.3712   -8.2962 H   0  0  0  0  0  0  0  0  0  0  0  0
   -3.6678   -5.3377   -9.6147 H   0  0  0  0  0  0  0  0  0  0  0  0
   -4.2771   -5.9651   -7.3183 H   0  0  0  0  0  0  0  0  0  0  0  0
   -0.7717   -5.8214  -11.8640 H   0  0  0  0  0  0  0  0  0  0  0  0
    0.3905   -5.7355  -10.5349 H   0  0  0  0  0  0  0  0  0  0  0  0
    1.3134   -4.6923  -12.5910 H   0  0  0  0  0  0  0  0  0  0  0  0
    1.1644   -3.5088  -11.2834 H   0  0  0  0  0  0  0  0  0  0  0  0
   -0.0618   -1.7503  -14.2919 H   0  0  0  0  0  0  0  0  0  0  0  0
    1.1756   -1.7021  -13.0155 H   0  0  0  0  0  0  0  0  0  0  0  0
    1.2393   -2.9310  -14.2994 H   0  0  0  0  0  0  0  0  0  0  0  0
   -0.6317   -1.8923  -11.2891 H   0  0  0  0  0  0  0  0  0  0  0  0
   -1.8238   -1.8662  -12.5958 H   0  0  0  0  0  0  0  0  0  0  0  0
   -2.7669   -4.0387  -11.8463 H   0  0  0  0  0  0  0  0  0  0  0  0
   -2.7371   -2.8663  -10.5119 H   0  0  0  0  0  0  0  0  0  0  0  0
   -3.2521   -5.2351   -0.8579 H   0  0  0  0  0  0  0  0  0  0  0  0
  1  2  1  0  0  0  0
  1 35  1  0  0  0  0
  1 36  1  0  0  0  0
  1 37  1  0  0  0  0
  2  3  1  0  0  0  0
  2 38  1  0  0  0  0
  3  4  2  0  0  0  0
  3  5  1  0  0  0  0
  5  6  2  0  0  0  0
  5 10  1  0  0  0  0
  6  7  1  0  0  0  0
  7  8  1  0  0  0  0
  7  9  1  0  0  0  0
  8 39  1  0  0  0  0
  8 40  1  0  0  0  0
  8 41  1  0  0  0  0
  9 10  2  0  0  0  0
  9 16  1  0  0  0  0
 10 11  1  0  0  0  0
 11 12  1  0  0  0  0
 11 13  1  0  0  0  0
 11 14  1  0  0  0  0
 12 42  1  0  0  0  0
 12 43  1  0  0  0  0
 12 44  1  0  0  0  0
 13 45  1  0  0  0  0
 13 46  1  0  0  0  0
 13 47  1  0  0  0  0
 14 15  1  0  0  0  0
 14 48  1  0  0  0  0
 14 49  1  0  0  0  0
 15 16  2  0  0  0  0
 15 34  1  0  0  0  0
 16 17  1  0  0  0  0
 17 18  2  0  0  0  0
 18 19  1  0  0  0  0
 18 33  1  0  0  0  0
 19 20  1  0  0  0  0
 19 50  1  0  0  0  0
 20 21  2  0  0  0  0
 20 25  1  0  0  0  0
 21 22  1  0  0  0  0
 21 51  1  0  0  0  0
 22 23  2  0  0  0  0
 22 52  1  0  0  0  0
 23 24  1  0  0  0  0
 23 26  1  0  0  0  0
 24 25  2  0  0  0  0
 24 53  1  0  0  0  0
 25 54  1  0  0  0  0
 26 27  1  0  0  0  0
 26 32  1  0  0  0  0
 27 28  1  0  0  0  0
 27 55  1  0  0  0  0
 27 56  1  0  0  0  0
 28 29  1  0  0  0  0
 28 57  1  0  0  0  0
 28 58  1  0  0  0  0
 29 30  1  0  0  0  0
 29 31  1  0  0  0  0
 30 59  1  0  0  0  0
 30 60  1  0  0  0  0
 30 61  1  0  0  0  0
 31 32  1  0  0  0  0
 31 62  1  0  0  0  0
 31 63  1  0  0  0  0
 32 64  1  0  0  0  0
 32 65  1  0  0  0  0
 33 34  2  0  0  0  0
 34 66  1  0  0  0  0
M  END
>  <DRUGBANK_ID>
DB16232

>  <COMMON_NAME>
Milciclib Maleate

>  <CAS_NUMBER>
802539-81-7

>  <UNII>
688000M8S8

>  <SYNONYMS>
Milciclib

$$$$
