SCZ
 OpenBabel10282417173D

 45 49  0  0  0  0  0  0  0  0999 V2000
    1.4343   -1.3737    0.0016 C   0  0  0  0  0  0  0  0  0  0  0  0
    0.1361   -0.8749    0.0157 C   0  0  0  0  0  0  0  0  0  0  0  0
    0.2824    0.5419   -0.0041 N   0  0  0  0  0  0  0  0  0  0  0  0
    1.5878    0.8970   -0.0220 N   0  0  0  0  0  0  0  0  0  0  0  0
    2.2546   -0.2359   -0.0159 C   0  0  0  0  0  0  0  0  0  0  0  0
   -1.1061   -1.4351    0.0688 N   0  0  0  0  0  0  0  0  0  0  0  0
   -2.1272   -0.6122    0.0610 C   0  0  0  0  0  0  0  0  0  0  0  0
   -2.0570    0.8879   -0.0057 C   0  0  0  0  0  0  0  0  0  0  0  0
   -0.8310    1.4391   -0.0067 C   0  0  0  0  0  0  0  0  0  0  0  0
   -0.6281    2.8340   -0.0127 N   0  0  0  0  0  0  0  0  0  0  0  0
   -3.4880   -1.1966    0.1446 C   0  0  0  0  0  0  0  0  0  0  0  0
    0.6200    3.5890    0.0280 C   0  0  0  0  0  0  0  0  0  0  0  0
    0.7527    4.4422   -1.1970 C   0  0  0  0  0  0  0  0  0  0  0  0
    1.0808    3.8820   -2.4291 C   0  0  0  0  0  0  0  0  0  0  0  0
    1.2046    4.5945   -3.5731 N   0  0  0  0  0  0  0  0  0  0  0  0
    0.9951    5.9249   -3.4815 C   0  0  0  0  0  0  0  0  0  0  0  0
    0.6869    6.5791   -2.2998 C   0  0  0  0  0  0  0  0  0  0  0  0
    0.5716    5.8241   -1.1394 C   0  0  0  0  0  0  0  0  0  0  0  0
   -3.7730   -2.0869    1.1865 C   0  0  0  0  0  0  0  0  0  0  0  0
   -4.9694   -2.8040    1.1801 C   0  0  0  0  0  0  0  0  0  0  0  0
   -5.9026   -2.5912    0.1652 C   0  0  0  0  0  0  0  0  0  0  0  0
   -5.6300   -1.6816   -0.8591 C   0  0  0  0  0  0  0  0  0  0  0  0
   -4.4189   -0.9852   -0.8771 C   0  0  0  0  0  0  0  0  0  0  0  0
    2.1799   -2.6898   -0.0054 C   0  0  0  0  0  0  0  0  0  0  0  0
    1.7873   -3.8317   -0.9144 C   0  0  0  0  0  0  0  0  0  0  0  0
    1.8500   -4.0310    0.5641 C   0  0  0  0  0  0  0  0  0  0  0  0
    3.3339   -0.1883   -0.0283 H   0  0  0  0  0  0  0  0  0  0  0  0
   -2.9716    1.4723   -0.0175 H   0  0  0  0  0  0  0  0  0  0  0  0
   -1.4640    3.4107   -0.0306 H   0  0  0  0  0  0  0  0  0  0  0  0
    0.6277    4.2122    0.9303 H   0  0  0  0  0  0  0  0  0  0  0  0
    1.5377    3.0144    0.1090 H   0  0  0  0  0  0  0  0  0  0  0  0
    1.2615    2.8135   -2.5313 H   0  0  0  0  0  0  0  0  0  0  0  0
    1.0839    6.4722   -4.4150 H   0  0  0  0  0  0  0  0  0  0  0  0
    0.5366    7.6518   -2.2818 H   0  0  0  0  0  0  0  0  0  0  0  0
    0.3473    6.3101   -0.1941 H   0  0  0  0  0  0  0  0  0  0  0  0
   -3.0516   -2.2442    1.9853 H   0  0  0  0  0  0  0  0  0  0  0  0
   -5.1605   -3.5497    1.9481 H   0  0  0  0  0  0  0  0  0  0  0  0
   -6.8374   -3.1473    0.1649 H   0  0  0  0  0  0  0  0  0  0  0  0
   -6.3478   -1.5457   -1.6646 H   0  0  0  0  0  0  0  0  0  0  0  0
   -4.1909   -0.3275   -1.7107 H   0  0  0  0  0  0  0  0  0  0  0  0
    3.2506   -2.4987    0.0681 H   0  0  0  0  0  0  0  0  0  0  0  0
    0.8035   -3.9665   -1.3446 H   0  0  0  0  0  0  0  0  0  0  0  0
    2.5896   -4.1988   -1.5495 H   0  0  0  0  0  0  0  0  0  0  0  0
    2.7069   -4.5765    0.9596 H   0  0  0  0  0  0  0  0  0  0  0  0
    0.9293   -4.2388    1.0865 H   0  0  0  0  0  0  0  0  0  0  0  0
  1  2  2  0  0  0  0
  1 24  1  0  0  0  0
  2  6  1  0  0  0  0
  3  2  1  0  0  0  0
  4  5  2  0  0  0  0
  4  3  1  0  0  0  0
  5  1  1  0  0  0  0
  5 27  1  0  0  0  0
  7  6  2  0  0  0  0
  7 11  1  0  0  0  0
  8  7  1  0  0  0  0
  8 28  1  0  0  0  0
  9  3  1  0  0  0  0
  9  8  2  0  0  0  0
 10 12  1  0  0  0  0
 10  9  1  0  0  0  0
 10 29  1  0  0  0  0
 11 23  2  0  0  0  0
 11 19  1  0  0  0  0
 12 30  1  0  0  0  0
 12 31  1  0  0  0  0
 13 18  1  0  0  0  0
 13 12  1  0  0  0  0
 14 13  2  0  0  0  0
 14 32  1  0  0  0  0
 15 16  2  0  0  0  0
 15 14  1  0  0  0  0
 16 17  1  0  0  0  0
 16 33  1  0  0  0  0
 17 18  2  0  0  0  0
 17 34  1  0  0  0  0
 18 35  1  0  0  0  0
 19 20  2  0  0  0  0
 19 36  1  0  0  0  0
 20 21  1  0  0  0  0
 20 37  1  0  0  0  0
 21 38  1  0  0  0  0
 22 21  2  0  0  0  0
 22 39  1  0  0  0  0
 23 22  1  0  0  0  0
 23 40  1  0  0  0  0
 24 25  1  0  0  0  0
 24 26  1  0  0  0  0
 24 41  1  0  0  0  0
 25 26  1  0  0  0  0
 25 42  1  0  0  0  0
 25 43  1  0  0  0  0
 26 44  1  0  0  0  0
 26 45  1  0  0  0  0
M  END
>  <DRUGBANK_ID>
DB08539

>  <COMMON_NAME>
3-cyclopropyl-5-phenyl-N-(pyridin-3-ylmethyl)pyrazolo[1,5-a]pyrimidin-7-amine

$$$$
