NS3
 OpenBabel10282417173D

 56 59  0  0  0  0  0  0  0  0999 V2000
    1.2553   -0.0441    0.2482 C   0  0  0  0  0  0  0  0  0  0  0  0
    0.5099    1.2142   -0.1514 C   0  0  0  0  0  0  0  0  0  0  0  0
   -0.9500    0.8788    0.1370 C   0  0  0  0  0  0  0  0  0  0  0  0
   -1.0845   -0.6412    0.0310 C   0  0  0  0  0  0  0  0  0  0  0  0
    0.3291   -1.1725   -0.2139 C   0  0  0  0  0  0  0  0  0  0  0  0
    0.5495   -1.6127   -1.6752 C   0  0  1  0  0  0  0  0  0  0  0  0
    0.3933   -0.5508   -2.6607 N   0  0  0  0  0  0  0  0  0  0  0  0
    1.9084   -2.1084   -1.7677 N   0  0  0  0  0  0  0  0  0  0  0  0
    2.1357   -2.9369   -3.1845 S   0  0  0  0  0  0  0  0  0  0  0  0
    1.3264   -4.1251   -3.1285 O   0  0  0  0  0  0  0  0  0  0  0  0
    3.5700   -3.0022   -3.3895 O   0  0  0  0  0  0  0  0  0  0  0  0
    1.4438   -1.8780   -4.3837 C   0  0  0  0  0  0  0  0  0  0  0  0
    1.7021   -2.1770   -5.7116 C   0  0  0  0  0  0  0  0  0  0  0  0
    0.6544   -0.8123   -3.9989 C   0  0  0  0  0  0  0  0  0  0  0  0
    0.1797    0.0041   -5.0398 C   0  0  0  0  0  0  0  0  0  0  0  0
    0.4602   -0.2735   -6.4148 C   0  0  0  0  0  0  0  0  0  0  0  0
   -0.1230    0.6274   -7.4639 C   0  0  0  0  0  0  0  0  0  0  0  0
    1.2290   -1.3980   -6.7426 C   0  0  0  0  0  0  0  0  0  0  0  0
    1.6389   -1.8627   -8.4283 S   0  0  0  0  0  0  0  0  0  0  0  0
    0.4847   -2.5475   -8.9636 O   0  0  0  0  0  0  0  0  0  0  0  0
    2.1424   -0.6503   -9.0480 O   0  0  0  0  0  0  0  0  0  0  0  0
    2.9629   -2.9069   -8.3481 N   0  0  0  0  0  0  0  0  0  0  0  0
    3.0175   -4.3890   -8.1008 C   0  0  0  0  0  0  0  0  0  0  0  0
    3.8328   -4.7681   -6.8152 C   0  0  0  0  0  0  0  0  0  0  0  0
    5.1127   -4.0311   -6.7228 N   0  0  0  0  0  0  0  0  0  0  0  0
    5.8216   -4.2997   -5.4785 C   0  0  0  0  0  0  0  0  0  0  0  0
    4.8802   -2.5875   -6.8288 C   0  0  0  0  0  0  0  0  0  0  0  0
    4.2639   -2.2345   -8.1689 C   0  0  0  0  0  0  0  0  0  0  0  0
   -0.1705   -2.4193   -1.8684 H   0  0  0  0  0  0  0  0  0  0  0  0
    1.3717   -0.0795    1.3385 H   0  0  0  0  0  0  0  0  0  0  0  0
    2.2567   -0.0949   -0.1892 H   0  0  0  0  0  0  0  0  0  0  0  0
    0.8560    2.0997    0.3846 H   0  0  0  0  0  0  0  0  0  0  0  0
    0.6628    1.4299   -1.2122 H   0  0  0  0  0  0  0  0  0  0  0  0
   -1.6304    1.3878   -0.5519 H   0  0  0  0  0  0  0  0  0  0  0  0
   -1.2050    1.1956    1.1539 H   0  0  0  0  0  0  0  0  0  0  0  0
   -1.7837   -0.9403   -0.7579 H   0  0  0  0  0  0  0  0  0  0  0  0
   -1.4859   -1.0442    0.9698 H   0  0  0  0  0  0  0  0  0  0  0  0
    0.4953   -2.0553    0.4218 H   0  0  0  0  0  0  0  0  0  0  0  0
   -0.2655    0.1906   -2.4606 H   0  0  0  0  0  0  0  0  0  0  0  0
    2.1833   -2.7069   -0.9933 H   0  0  0  0  0  0  0  0  0  0  0  0
    2.2885   -3.0412   -5.9131 H   0  0  0  0  0  0  0  0  0  0  0  0
   -0.4498    0.8615   -4.8010 H   0  0  0  0  0  0  0  0  0  0  0  0
   -1.2134    0.5813   -7.4197 H   0  0  0  0  0  0  0  0  0  0  0  0
    0.2270    1.6523   -7.3151 H   0  0  0  0  0  0  0  0  0  0  0  0
    0.1478    0.3444   -8.4799 H   0  0  0  0  0  0  0  0  0  0  0  0
    3.5704   -4.8336   -8.9428 H   0  0  0  0  0  0  0  0  0  0  0  0
    2.0345   -4.8725   -8.0991 H   0  0  0  0  0  0  0  0  0  0  0  0
    4.0323   -5.8472   -6.8088 H   0  0  0  0  0  0  0  0  0  0  0  0
    3.2276   -4.6148   -5.9176 H   0  0  0  0  0  0  0  0  0  0  0  0
    6.7485   -3.7151   -5.4458 H   0  0  0  0  0  0  0  0  0  0  0  0
    5.2362   -4.0345   -4.5999 H   0  0  0  0  0  0  0  0  0  0  0  0
    6.0959   -5.3535   -5.4072 H   0  0  0  0  0  0  0  0  0  0  0  0
    4.2429   -2.2373   -6.0120 H   0  0  0  0  0  0  0  0  0  0  0  0
    5.8093   -2.0190   -6.7391 H   0  0  0  0  0  0  0  0  0  0  0  0
    4.9079   -2.4934   -9.0145 H   0  0  0  0  0  0  0  0  0  0  0  0
    4.1583   -1.1490   -8.1689 H   0  0  0  0  0  0  0  0  0  0  0  0
  1  5  1  0  0  0  0
  1  2  1  0  0  0  0
  1 30  1  0  0  0  0
  1 31  1  0  0  0  0
  2 32  1  0  0  0  0
  2 33  1  0  0  0  0
  3  2  1  0  0  0  0
  3  4  1  0  0  0  0
  3 34  1  0  0  0  0
  3 35  1  0  0  0  0
  4 36  1  0  0  0  0
  4 37  1  0  0  0  0
  5  4  1  0  0  0  0
  5 38  1  0  0  0  0
  6  5  1  0  0  0  0
  6  8  1  0  0  0  0
  6 29  1  6  0  0  0
  7  6  1  0  0  0  0
  7 39  1  0  0  0  0
  8 40  1  0  0  0  0
  9  8  1  0  0  0  0
  9 11  2  0  0  0  0
 10  9  2  0  0  0  0
 12  9  1  0  0  0  0
 12 14  1  0  0  0  0
 13 12  2  0  0  0  0
 13 41  1  0  0  0  0
 14  7  1  0  0  0  0
 15 14  2  0  0  0  0
 15 42  1  0  0  0  0
 16 15  1  0  0  0  0
 17 16  1  0  0  0  0
 17 43  1  0  0  0  0
 17 44  1  0  0  0  0
 17 45  1  0  0  0  0
 18 13  1  0  0  0  0
 18 16  2  0  0  0  0
 19 18  1  0  0  0  0
 19 20  2  0  0  0  0
 21 19  2  0  0  0  0
 22 19  1  0  0  0  0
 23 22  1  0  0  0  0
 23 46  1  0  0  0  0
 23 47  1  0  0  0  0
 24 23  1  0  0  0  0
 24 48  1  0  0  0  0
 24 49  1  0  0  0  0
 25 24  1  0  0  0  0
 25 27  1  0  0  0  0
 26 25  1  0  0  0  0
 26 50  1  0  0  0  0
 26 51  1  0  0  0  0
 26 52  1  0  0  0  0
 27 28  1  0  0  0  0
 27 53  1  0  0  0  0
 27 54  1  0  0  0  0
 28 22  1  0  0  0  0
 28 55  1  0  0  0  0
 28 56  1  0  0  0  0
M  END
>  <DRUGBANK_ID>
DB08303

>  <COMMON_NAME>
(3S)-3-cyclopentyl-6-methyl-7-[(4-methylpiperazin-1-yl)sulfonyl]-3,4-dihydro-2H-1,2,4-benzothiadiazine 1,1-dioxide

$$$$
