
 OpenBabel10282417113D

 50 54  0  0  0  0  0  0  0  0999 V2000
    0.1957    0.8560   -0.4722 C   0  0  1  0  0  0  0  0  0  0  0  0
   -0.4690   -0.4420   -0.1091 C   0  0  0  0  0  0  0  0  0  0  0  0
   -1.7610   -0.4315   -0.5547 C   0  0  0  0  0  0  0  0  0  0  0  0
   -1.0425    1.7030   -0.7084 C   0  0  1  0  0  0  0  0  0  0  0  0
    1.0708    1.2867    0.6940 C   0  0  2  0  0  0  0  0  0  0  0  0
   -2.0412    0.7739   -1.1071 O   0  0  0  0  0  0  0  0  0  0  0  0
    2.0857    0.1161    0.8767 C   0  0  1  0  0  0  0  0  0  0  0  0
    0.0363   -1.4631    0.6633 C   0  0  0  0  0  0  0  0  0  0  0  0
    0.2218    1.6087    1.9149 C   0  0  0  0  0  0  0  0  0  0  0  0
    1.3782   -1.2328    1.3067 C   0  0  0  0  0  0  0  0  0  0  0  0
    2.9038    0.0462   -0.3709 N   0  0  0  0  0  0  0  0  0  0  0  0
   -1.5962    2.5066    0.4812 C   0  0  2  0  0  0  0  0  0  0  0  0
   -2.6024   -1.5080   -0.3992 C   0  0  0  0  0  0  0  0  0  0  0  0
   -1.0172    2.1170    1.8051 C   0  0  0  0  0  0  0  0  0  0  0  0
    0.9933    0.6751   -1.7768 C   0  0  0  0  0  0  0  0  0  0  0  0
   -3.9582   -1.5439   -0.8994 O   0  0  0  0  0  0  0  0  0  0  0  0
   -3.0370    2.3684    0.5596 O   0  0  0  0  0  0  0  0  0  0  0  0
    2.1421   -0.3050   -1.5755 C   0  0  0  0  0  0  0  0  0  0  0  0
   -0.7987   -2.5696    0.8764 C   0  0  0  0  0  0  0  0  0  0  0  0
   -2.1089   -2.6067    0.3217 C   0  0  0  0  0  0  0  0  0  0  0  0
    4.0563   -0.8299   -0.2223 C   0  0  0  0  0  0  0  0  0  0  0  0
    1.6110    2.2077    0.4294 H   0  0  0  0  0  0  0  0  0  0  0  0
   -4.7672   -0.7298   -1.7540 C   0  0  0  0  0  0  0  0  0  0  0  0
   -4.0976    0.4615   -2.3247 C   0  0  0  0  0  0  0  0  0  0  0  0
   -5.9430   -1.0243   -2.0245 O   0  0  0  0  0  0  0  0  0  0  0  0
   -3.9488    3.3572    0.6040 C   0  0  0  0  0  0  0  0  0  0  0  0
   -3.4871    4.7811    0.5818 C   0  0  0  0  0  0  0  0  0  0  0  0
   -5.1465    3.0997    0.6745 O   0  0  0  0  0  0  0  0  0  0  0  0
   -0.9011    2.3933   -1.5512 H   0  0  0  0  0  0  0  0  0  0  0  0
    2.7615    0.4073    1.6907 H   0  0  0  0  0  0  0  0  0  0  0  0
    0.6175    1.3819    2.8985 H   0  0  0  0  0  0  0  0  0  0  0  0
    2.0208   -2.0963    1.1207 H   0  0  0  0  0  0  0  0  0  0  0  0
    1.2152   -1.1849    2.3910 H   0  0  0  0  0  0  0  0  0  0  0  0
   -1.2939    3.5311    0.2937 H   0  0  0  0  0  0  0  0  0  0  0  0
   -1.6335    2.2788    2.6850 H   0  0  0  0  0  0  0  0  0  0  0  0
    1.3905    1.6469   -2.1014 H   0  0  0  0  0  0  0  0  0  0  0  0
    0.3564    0.3180   -2.5997 H   0  0  0  0  0  0  0  0  0  0  0  0
    2.7831   -0.2578   -2.4651 H   0  0  0  0  0  0  0  0  0  0  0  0
    1.7616   -1.3331   -1.5306 H   0  0  0  0  0  0  0  0  0  0  0  0
   -0.4575   -3.3991    1.4948 H   0  0  0  0  0  0  0  0  0  0  0  0
   -2.7352   -3.4796    0.4941 H   0  0  0  0  0  0  0  0  0  0  0  0
    4.6948   -0.4659    0.5875 H   0  0  0  0  0  0  0  0  0  0  0  0
    3.7747   -1.8653   -0.0152 H   0  0  0  0  0  0  0  0  0  0  0  0
    4.6602   -0.8255   -1.1352 H   0  0  0  0  0  0  0  0  0  0  0  0
   -4.2868    0.7720   -3.3483 H   0  0  0  0  0  0  0  0  0  0  0  0
   -4.1913    1.3233   -1.6480 H   0  0  0  0  0  0  0  0  0  0  0  0
   -3.1110    0.0697   -2.5152 H   0  0  0  0  0  0  0  0  0  0  0  0
   -3.9321    5.2778   -0.2834 H   0  0  0  0  0  0  0  0  0  0  0  0
   -3.8015    5.2605    1.5109 H   0  0  0  0  0  0  0  0  0  0  0  0
   -2.4169    4.9261    0.5081 H   0  0  0  0  0  0  0  0  0  0  0  0
  1  2  1  1  0  0  0
  1 15  1  0  0  0  0
  3  2  1  0  0  0  0
  4  1  1  0  0  0  0
  4  6  1  0  0  0  0
  4 29  1  6  0  0  0
  5  1  1  0  0  0  0
  5 22  1  6  0  0  0
  6  3  1  0  0  0  0
  7  5  1  0  0  0  0
  7 11  1  0  0  0  0
  7 30  1  1  0  0  0
  8  2  2  0  0  0  0
  9  5  1  0  0  0  0
  9 31  1  0  0  0  0
 10  7  1  0  0  0  0
 10  8  1  0  0  0  0
 10 32  1  0  0  0  0
 10 33  1  0  0  0  0
 12  4  1  0  0  0  0
 12 34  1  6  0  0  0
 12 17  1  0  0  0  0
 13  3  2  0  0  0  0
 14  9  2  0  0  0  0
 14 12  1  0  0  0  0
 14 35  1  0  0  0  0
 15 36  1  0  0  0  0
 15 37  1  0  0  0  0
 16 13  1  0  0  0  0
 16 23  1  0  0  0  0
 17 26  1  0  0  0  0
 18 11  1  0  0  0  0
 18 15  1  0  0  0  0
 18 38  1  0  0  0  0
 18 39  1  0  0  0  0
 19  8  1  0  0  0  0
 19 40  1  0  0  0  0
 20 13  1  0  0  0  0
 20 19  2  0  0  0  0
 20 41  1  0  0  0  0
 21 11  1  0  0  0  0
 21 42  1  0  0  0  0
 21 43  1  0  0  0  0
 21 44  1  0  0  0  0
 23 24  1  0  0  0  0
 23 25  2  0  0  0  0
 24 45  1  0  0  0  0
 24 46  1  0  0  0  0
 24 47  1  0  0  0  0
 26 27  1  0  0  0  0
 26 28  2  0  0  0  0
 27 48  1  0  0  0  0
 27 49  1  0  0  0  0
 27 50  1  0  0  0  0
M  END
>  <DRUGBANK_ID>
DB01452

>  <COMMON_NAME>
Diamorphine

>  <CAS_NUMBER>
561-27-3

>  <UNII>
70D95007SX

>  <SYNONYMS>
(5α,6α)-7,8-Didehydro-4,5-epoxy-17-methylmorphinan-3,6-diol diacetate (ester); 3,6-Diacetylmorphine; 7,8-Dihydro-4,5-alpha-epoxy-17-methylmorphinan-3,6-alpha-diol diacetate; Diacetylmorphine; Diamorphine; Heroin; O,O'-Diacetylmorphine

$$$$
