
 OpenBabel10282417143D

 64 64  0  0  0  0  0  0  0  0999 V2000
    5.6233    1.1175   -3.1858 S   0  0  0  0  0  0  0  0  0  0  0  0
    5.4748    2.8637   -6.4556 O   0  0  0  0  0  0  0  0  0  0  0  0
    4.8936    1.1342   -7.7853 O   0  0  0  0  0  0  0  0  0  0  0  0
    4.9263    1.0988    1.6025 O   0  0  0  0  0  0  0  0  0  0  0  0
    1.2357   -0.6634   -2.1623 O   0  0  0  0  0  0  0  0  0  0  0  0
    7.0494    2.3640   -0.7247 O   0  0  0  0  0  0  0  0  0  0  0  0
    6.6606    4.2662   -1.8151 O   0  0  0  0  0  0  0  0  0  0  0  0
    0.2695    3.5201   -1.2934 O   0  0  0  0  0  0  0  0  0  0  0  0
   -0.1827    1.5679   -0.2443 O   0  0  0  0  0  0  0  0  0  0  0  0
    3.0891   -0.5816   -0.9634 N   0  0  0  0  0  0  0  0  0  0  0  0
    2.9264    1.8071    0.8686 N   0  0  0  0  0  0  0  0  0  0  0  0
    4.4202    3.8980   -0.1101 N   0  0  0  0  0  0  0  0  0  0  0  0
    5.9296    2.1865   -5.2876 C   0  0  1  0  0  0  0  0  0  0  0  0
    4.9777    1.0361   -4.8990 C   0  0  2  0  0  0  0  0  0  0  0  0
    3.7423    1.4734   -5.7130 C   0  0  0  0  0  0  0  0  0  0  0  0
    7.3081    1.5490   -5.4415 C   0  0  0  0  0  0  0  0  0  0  0  0
    4.3762    2.1294   -6.9307 C   0  0  1  0  0  0  0  0  0  0  0  0
    8.3677    2.6091   -5.5250 C   0  0  0  0  0  0  0  0  0  0  0  0
    8.5183    3.4456   -4.2423 C   0  0  0  0  0  0  0  0  0  0  0  0
    5.2791   -0.0547   -1.8945 C   0  0  0  0  0  0  0  0  0  0  0  0
    4.3538   -0.0700   -0.5827 C   0  0  1  0  0  0  0  0  0  0  0  0
    8.8916    2.6281   -3.0046 C   0  0  0  0  0  0  0  0  0  0  0  0
    4.0519    0.9636    0.7333 C   0  0  0  0  0  0  0  0  0  0  0  0
   10.1761    1.8593   -3.1667 C   0  0  0  0  0  0  0  0  0  0  0  0
    2.3056   -0.0948   -1.9614 C   0  0  0  0  0  0  0  0  0  0  0  0
    2.7921    1.0628   -2.9094 C   0  0  0  0  0  0  0  0  0  0  0  0
    3.4851    2.6884   -2.5409 C   0  0  0  0  0  0  0  0  0  0  0  0
    4.6501    3.0116   -1.2628 C   0  0  1  0  0  0  0  0  0  0  0  0
    2.0693    2.3411   -0.1903 C   0  0  0  0  0  0  0  0  0  0  0  0
    6.2096    3.2078   -1.3957 C   0  0  0  0  0  0  0  0  0  0  0  0
    0.5904    2.4310   -0.5081 C   0  0  0  0  0  0  0  0  0  0  0  0
    5.2516    0.0369   -5.2325 H   0  0  0  0  0  0  0  0  0  0  0  0
    2.6511   -1.2327   -0.3216 H   0  0  0  0  0  0  0  0  0  0  0  0
    3.1599    2.5207    1.5562 H   0  0  0  0  0  0  0  0  0  0  0  0
    3.5711    4.3230    0.2023 H   0  0  0  0  0  0  0  0  0  0  0  0
    5.2551    4.3347    0.2838 H   0  0  0  0  0  0  0  0  0  0  0  0
    5.0433    1.5935   -8.6275 H   0  0  0  0  0  0  0  0  0  0  0  0
    6.9413    1.4201   -0.5141 H   0  0  0  0  0  0  0  0  0  0  0  0
    0.9441    4.1734   -1.5727 H   0  0  0  0  0  0  0  0  0  0  0  0
    5.9246    3.0195   -4.5606 H   0  0  0  0  0  0  0  0  0  0  0  0
    3.1435    0.6080   -6.0230 H   0  0  0  0  0  0  0  0  0  0  0  0
    3.0735    2.1983   -5.2395 H   0  0  0  0  0  0  0  0  0  0  0  0
    7.5759    0.8814   -4.6100 H   0  0  0  0  0  0  0  0  0  0  0  0
    7.2832    0.8790   -6.3021 H   0  0  0  0  0  0  0  0  0  0  0  0
    3.6929    2.7807   -7.4835 H   0  0  0  0  0  0  0  0  0  0  0  0
    9.3036    2.0978   -5.7490 H   0  0  0  0  0  0  0  0  0  0  0  0
    8.1236    3.2585   -6.3655 H   0  0  0  0  0  0  0  0  0  0  0  0
    9.2854    4.2044   -4.4121 H   0  0  0  0  0  0  0  0  0  0  0  0
    7.6038    4.0136   -4.0364 H   0  0  0  0  0  0  0  0  0  0  0  0
    5.5815   -1.0429   -2.2379 H   0  0  0  0  0  0  0  0  0  0  0  0
    6.1837    0.2876   -1.4454 H   0  0  0  0  0  0  0  0  0  0  0  0
    4.9158   -0.8390   -0.0208 H   0  0  0  0  0  0  0  0  0  0  0  0
    8.9697    3.2862   -2.1317 H   0  0  0  0  0  0  0  0  0  0  0  0
    8.1221    1.8953   -2.7792 H   0  0  0  0  0  0  0  0  0  0  0  0
   10.9928    2.5517   -3.3730 H   0  0  0  0  0  0  0  0  0  0  0  0
   10.3922    1.2951   -2.2560 H   0  0  0  0  0  0  0  0  0  0  0  0
   10.0948    1.1379   -3.9829 H   0  0  0  0  0  0  0  0  0  0  0  0
    3.3924    0.4218   -3.5492 H   0  0  0  0  0  0  0  0  0  0  0  0
    1.9534    1.2610   -3.5938 H   0  0  0  0  0  0  0  0  0  0  0  0
    3.8766    3.1730   -3.4456 H   0  0  0  0  0  0  0  0  0  0  0  0
    2.5696    3.2749   -2.4297 H   0  0  0  0  0  0  0  0  0  0  0  0
    4.6388    2.0400   -0.8681 H   0  0  0  0  0  0  0  0  0  0  0  0
    2.3833    3.3346   -0.4702 H   0  0  0  0  0  0  0  0  0  0  0  0
    2.3849    1.7187   -0.9650 H   0  0  0  0  0  0  0  0  0  0  0  0
  1 14  1  0  0  0  0
  1 20  1  0  0  0  0
  2 13  1  0  0  0  0
  2 17  1  0  0  0  0
  3 37  1  0  0  0  0
  4 23  2  0  0  0  0
  5 25  2  0  0  0  0
  6 30  1  0  0  0  0
  6 38  1  0  0  0  0
  7 30  2  0  0  0  0
  8 31  1  0  0  0  0
  8 39  1  0  0  0  0
  9 31  2  0  0  0  0
 10 25  1  0  0  0  0
 10 33  1  0  0  0  0
 11 23  1  0  0  0  0
 11 29  1  0  0  0  0
 11 34  1  0  0  0  0
 12 35  1  0  0  0  0
 12 36  1  0  0  0  0
 13 14  1  0  0  0  0
 13 16  1  0  0  0  0
 13 40  1  1  0  0  0
 14 15  1  0  0  0  0
 14 32  1  6  0  0  0
 15 17  1  0  0  0  0
 15 41  1  0  0  0  0
 15 42  1  0  0  0  0
 16 18  1  0  0  0  0
 16 43  1  0  0  0  0
 16 44  1  0  0  0  0
 17 45  1  6  0  0  0
 17  3  1  0  0  0  0
 18 19  1  0  0  0  0
 18 46  1  0  0  0  0
 18 47  1  0  0  0  0
 19 22  1  0  0  0  0
 19 48  1  0  0  0  0
 19 49  1  0  0  0  0
 20 50  1  0  0  0  0
 20 51  1  0  0  0  0
 21 23  1  0  0  0  0
 21 52  1  1  0  0  0
 21 20  1  0  0  0  0
 21 10  1  0  0  0  0
 22 24  1  0  0  0  0
 22 53  1  0  0  0  0
 22 54  1  0  0  0  0
 24 55  1  0  0  0  0
 24 56  1  0  0  0  0
 24 57  1  0  0  0  0
 25 26  1  0  0  0  0
 26 27  1  0  0  0  0
 26 58  1  0  0  0  0
 26 59  1  0  0  0  0
 27 60  1  0  0  0  0
 27 61  1  0  0  0  0
 28 30  1  0  0  0  0
 28 62  1  1  0  0  0
 28 27  1  0  0  0  0
 28 12  1  0  0  0  0
 29 31  1  0  0  0  0
 29 63  1  0  0  0  0
 29 64  1  0  0  0  0
M  END
>  <DRUGBANK_ID>
DB04521

>  <SECONDARY_ACCESSION_NUMBERS>
EXPT01689

>  <COMMON_NAME>
4-S-Glutathionyl-5-pentyl-tetrahydro-furan-2-ol

>  <SYNONYMS>
GSHNA

$$$$
