716
 OpenBabel10282417103D

 44 46  0  0  0  0  0  0  0  0999 V2000
    2.4711   -1.3755    0.0416 O   0  0  0  0  0  0  0  0  0  0  0  0
   -2.4718    2.6382   -0.0156 O   0  0  0  0  0  0  0  0  0  0  0  0
    2.5035    2.6989   -0.0012 O   0  0  0  0  0  0  0  0  0  0  0  0
   -5.3204   -2.6223    0.0433 O   0  0  0  0  0  0  0  0  0  0  0  0
   -6.0433   -0.5677   -0.0186 O   0  0  0  0  0  0  0  0  0  0  0  0
    4.8941   -2.7019   -0.0001 O   0  0  0  0  0  0  0  0  0  0  0  0
    6.0403   -0.7670   -0.0029 O   0  0  0  0  0  0  0  0  0  0  0  0
   -2.4431   -1.4079   -0.4184 N   0  0  0  0  0  0  0  0  0  0  0  0
   -1.1834   -0.7603   -0.1520 C   0  0  0  0  0  0  0  0  0  0  0  0
    0.0606   -1.4392    0.0680 C   0  0  0  0  0  0  0  0  0  0  0  0
   -1.1676    0.6627   -0.0851 C   0  0  0  0  0  0  0  0  0  0  0  0
    0.1740   -2.9216    0.4092 C   0  0  0  0  0  0  0  0  0  0  0  0
    1.2655   -0.6856    0.0388 C   0  0  0  0  0  0  0  0  0  0  0  0
    1.2268    0.7119   -0.0006 C   0  0  0  0  0  0  0  0  0  0  0  0
    0.0184    1.3958   -0.0071 C   0  0  0  0  0  0  0  0  0  0  0  0
   -2.4313   -2.8088   -0.7860 C   0  0  0  0  0  0  0  0  0  0  0  0
   -3.6552   -0.7099   -0.1817 C   0  0  0  0  0  0  0  0  0  0  0  0
   -0.5771   -3.4365    1.7005 C   0  0  0  0  0  0  0  0  0  0  0  0
   -2.4396    1.4132   -0.0621 C   0  0  0  0  0  0  0  0  0  0  0  0
   -3.6825    0.6303   -0.0301 C   0  0  0  0  0  0  0  0  0  0  0  0
    2.4790    1.4637    0.0014 C   0  0  0  0  0  0  0  0  0  0  0  0
   -1.8443   -3.2976   -2.0569 C   0  0  0  0  0  0  0  0  0  0  0  0
   -2.0531   -3.0763    2.0623 C   0  0  0  0  0  0  0  0  0  0  0  0
    3.6519   -0.6506    0.0113 C   0  0  0  0  0  0  0  0  0  0  0  0
    3.7137    0.6895    0.0003 C   0  0  0  0  0  0  0  0  0  0  0  0
   -5.0609   -1.3043   -0.0582 C   0  0  0  0  0  0  0  0  0  0  0  0
    4.9632   -1.3565    0.0023 C   0  0  0  0  0  0  0  0  0  0  0  0
   -4.7450   -3.3922    0.1495 H   0  0  0  0  0  0  0  0  0  0  0  0
    4.0000   -3.0880    0.0002 H   0  0  0  0  0  0  0  0  0  0  0  0
   -0.0428   -3.5369   -0.4670 H   0  0  0  0  0  0  0  0  0  0  0  0
    1.2290   -3.2089    0.5196 H   0  0  0  0  0  0  0  0  0  0  0  0
    0.0034    2.4876    0.0204 H   0  0  0  0  0  0  0  0  0  0  0  0
   -1.9227   -3.3972   -0.0680 H   0  0  0  0  0  0  0  0  0  0  0  0
   -3.4026   -3.2354   -0.7469 H   0  0  0  0  0  0  0  0  0  0  0  0
   -0.5439   -4.5312    1.6250 H   0  0  0  0  0  0  0  0  0  0  0  0
    0.0305   -3.1308    2.5525 H   0  0  0  0  0  0  0  0  0  0  0  0
   -4.5842    1.2180    0.1130 H   0  0  0  0  0  0  0  0  0  0  0  0
   -0.8556   -2.8932   -2.2615 H   0  0  0  0  0  0  0  0  0  0  0  0
   -1.7404   -4.3856   -1.9009 H   0  0  0  0  0  0  0  0  0  0  0  0
   -2.5322   -3.1210   -2.8730 H   0  0  0  0  0  0  0  0  0  0  0  0
   -2.8018   -3.6366    1.4822 H   0  0  0  0  0  0  0  0  0  0  0  0
   -2.3338   -3.3581    3.0772 H   0  0  0  0  0  0  0  0  0  0  0  0
   -2.2507   -2.0075    1.9678 H   0  0  0  0  0  0  0  0  0  0  0  0
    4.6374    1.2545   -0.0086 H   0  0  0  0  0  0  0  0  0  0  0  0
  1 13  1  0  0  0  0
  1 24  1  0  0  0  0
  2 19  2  0  0  0  0
  3 21  2  0  0  0  0
  4 26  1  0  0  0  0
  4 28  1  0  0  0  0
  5 26  2  0  0  0  0
  6 27  1  0  0  0  0
  6 29  1  0  0  0  0
  7 27  2  0  0  0  0
  8  9  1  0  0  0  0
  8 16  1  0  0  0  0
  8 17  1  0  0  0  0
  9 10  2  0  0  0  0
  9 11  1  0  0  0  0
 10 12  1  0  0  0  0
 10 13  1  0  0  0  0
 11 15  2  0  0  0  0
 11 19  1  0  0  0  0
 12 18  1  0  0  0  0
 12 30  1  0  0  0  0
 12 31  1  0  0  0  0
 13 14  2  0  0  0  0
 14 15  1  0  0  0  0
 14 21  1  0  0  0  0
 15 32  1  0  0  0  0
 16 22  1  0  0  0  0
 16 33  1  0  0  0  0
 16 34  1  0  0  0  0
 17 20  2  0  0  0  0
 17 26  1  0  0  0  0
 18 23  1  0  0  0  0
 18 35  1  0  0  0  0
 18 36  1  0  0  0  0
 19 20  1  0  0  0  0
 20 37  1  0  0  0  0
 21 25  1  0  0  0  0
 22 38  1  0  0  0  0
 22 39  1  0  0  0  0
 22 40  1  0  0  0  0
 23 41  1  0  0  0  0
 23 42  1  0  0  0  0
 23 43  1  0  0  0  0
 24 25  2  0  0  0  0
 24 27  1  0  0  0  0
 25 44  1  0  0  0  0
M  END
>  <DRUGBANK_ID>
DB00716

>  <SECONDARY_ACCESSION_NUMBERS>
APRD01137

>  <COMMON_NAME>
Nedocromil

>  <CAS_NUMBER>
69049-73-6

>  <UNII>
0B535E0BN0

>  <SYNONYMS>
9-Ethyl-6,9-dihydro-4,6-dioxo-10-propyl-4H-pyrano(3,2-g)chinolin-2,8-dicarbonsäure; 9-ethyl-6,9-dihydro-4,6-dioxo-10-propyl-4H-pyrano(3,2-g)quinoline-2,8-dicarboxylic acid; Nédocromil; Nedocromil; Nedocromilo; Nedocromilum

$$$$
