
 OpenBabel10282417243D

 22 21  0  0  0  0  0  0  0  0999 V2000
    1.0522    0.0172   -0.0835 O   0  0  0  0  0  0  0  0  0  0  0  0
    0.3422   -0.6586    0.9439 C   0  0  0  0  0  0  0  0  0  0  0  0
    0.9777   -1.2635    1.8634 O   0  0  0  0  0  0  0  0  0  0  0  0
   -1.1778   -0.6586    0.9439 C   0  0  0  0  0  0  0  0  0  0  0  0
   -1.6845    0.7720    1.0273 C   0  0  0  0  0  0  0  0  0  0  0  0
   -1.0311    1.7876   -0.5165 Se  0  0  0  0  0  0  0  0  0  0  0  0
    1.3689    1.7876   -0.5165 Se  0  0  0  0  0  0  0  0  0  0  0  0
    2.0222    2.8032   -2.0603 C   0  0  0  0  0  0  0  0  0  0  0  0
    1.5155    2.1602   -3.3410 C   0  0  0  0  0  0  0  0  0  0  0  0
   -0.0045    2.1602   -3.3410 C   0  0  0  0  0  0  0  0  0  0  0  0
   -0.7145    2.8360   -4.3684 O   0  0  0  0  0  0  0  0  0  0  0  0
   -0.6399    1.5553   -2.4215 O   0  0  0  0  0  0  0  0  0  0  0  0
    2.0522    0.0172   -0.0835 H   0  0  0  0  0  0  0  0  0  0  0  0
   -1.5345   -1.1113    0.0423 H   0  0  0  0  0  0  0  0  0  0  0  0
   -1.5345   -1.2131    1.7866 H   0  0  0  0  0  0  0  0  0  0  0  0
   -2.7545    0.7720    1.0273 H   0  0  0  0  0  0  0  0  0  0  0  0
   -1.3278    1.2247    1.9289 H   0  0  0  0  0  0  0  0  0  0  0  0
    1.6655    3.8103   -2.0015 H   0  0  0  0  0  0  0  0  0  0  0  0
    3.0922    2.8032   -2.0603 H   0  0  0  0  0  0  0  0  0  0  0  0
    1.8722    2.7146   -4.1838 H   0  0  0  0  0  0  0  0  0  0  0  0
    1.8722    1.1531   -3.3998 H   0  0  0  0  0  0  0  0  0  0  0  0
   -0.2145    3.3120   -5.0919 H   0  0  0  0  0  0  0  0  0  0  0  0
  1  2  1  0  0  0  0
  1 13  1  0  0  0  0
  2  3  2  0  0  0  0
  2  4  1  0  0  0  0
  4  5  1  0  0  0  0
  4 14  1  0  0  0  0
  4 15  1  0  0  0  0
  5  6  1  0  0  0  0
  5 16  1  0  0  0  0
  5 17  1  0  0  0  0
  6  7  1  0  0  0  0
  7  8  1  0  0  0  0
  8  9  1  0  0  0  0
  8 18  1  0  0  0  0
  8 19  1  0  0  0  0
  9 10  1  0  0  0  0
  9 20  1  0  0  0  0
  9 21  1  0  0  0  0
 10 11  1  0  0  0  0
 10 12  2  0  0  0  0
 11 22  1  0  0  0  0
M  END
>  <DRUGBANK_ID>
DB18043

>  <COMMON_NAME>
3',3-diselenodipropionic acid

>  <CAS_NUMBER>
7370-58-3

>  <UNII>
2SP2QS73W9

>  <SYNONYMS>
3',3-diseleno dipropionic acid; Diseleno-3,3'-dipropionic acid; Diselenodipropionic acid; Propionic acid, 3,3'-diselenodi-

$$$$
