
 OpenBabel10282417183D

 49 52  0  0  0  0  0  0  0  0999 V2000
   -0.6379   -0.4311   -0.5845 N   0  0  0  0  0  0  0  0  0  0  0  0
   -1.7349    0.1177    0.0129 C   0  0  0  0  0  0  0  0  0  0  0  0
    0.0583    0.8252   -0.7673 C   0  0  1  0  0  0  0  0  0  0  0  0
   -1.3262    1.4924   -0.5522 C   0  0  2  0  0  0  0  0  0  0  0  0
   -0.0325   -1.6484   -0.4314 C   0  0  0  0  0  0  0  0  0  0  0  0
    1.2612   -1.7447   -0.0185 C   0  0  0  0  0  0  0  0  0  0  0  0
    1.3248    0.9987    0.5293 S   0  0  0  0  0  0  0  0  0  0  0  0
    1.3596   -3.7262    1.5984 N   0  3  0  0  0  0  0  0  0  0  0  0
   -1.4223    2.7287    0.2861 N   0  0  0  0  0  0  0  0  0  0  0  0
   -0.8922   -2.9400   -0.8216 C   0  0  0  0  0  0  0  0  0  0  0  0
   -2.1084    3.8191   -0.2224 C   0  0  0  0  0  0  0  0  0  0  0  0
    1.9137   -3.0818    0.3360 C   0  0  0  0  0  0  0  0  0  0  0  0
    2.1810   -0.5367    0.0470 C   0  0  0  0  0  0  0  0  0  0  0  0
   -2.1401    5.0738    0.6277 C   0  0  0  0  0  0  0  0  0  0  0  0
   -0.4240   -5.3852    5.0832 C   0  0  0  0  0  0  0  0  0  0  0  0
   -1.6027    6.2895   -0.0892 C   0  0  0  0  0  0  0  0  0  0  0  0
   -2.6074   -0.2850    0.7619 O   0  0  0  0  0  0  0  0  0  0  0  0
   -0.4289    6.2093   -1.3406 S   0  0  0  0  0  0  0  0  0  0  0  0
    0.2831   -4.9212    3.8738 C   0  0  0  0  0  0  0  0  0  0  0  0
   -2.1134   -2.8898   -0.5374 O   0  5  0  0  0  0  0  0  0  0  0  0
   -0.4972    7.8965   -1.6127 C   0  0  0  0  0  0  0  0  0  0  0  0
   -0.1785   -3.9552   -1.0898 O   0  0  0  0  0  0  0  0  0  0  0  0
   -1.9621    7.6018    0.1606 C   0  0  0  0  0  0  0  0  0  0  0  0
   -2.6668    3.7754   -1.3191 O   0  0  0  0  0  0  0  0  0  0  0  0
   -1.6445   -5.3594    5.1666 O   0  0  0  0  0  0  0  0  0  0  0  0
   -1.3367    8.5256   -0.7230 C   0  0  0  0  0  0  0  0  0  0  0  0
    0.0356   -3.9070    1.7858 C   0  0  0  0  0  0  0  0  0  0  0  0
    2.1915   -4.2083    2.5498 C   0  0  0  0  0  0  0  0  0  0  0  0
    1.6677   -4.8528    3.6833 C   0  0  0  0  0  0  0  0  0  0  0  0
   -0.5370   -4.4636    2.8845 C   0  0  0  0  0  0  0  0  0  0  0  0
    0.3381   -5.7931    6.1241 N   0  0  0  0  0  0  0  0  0  0  0  0
    0.4390    0.9387   -1.7870 H   0  0  0  0  0  0  0  0  0  0  0  0
   -1.8398    1.6416   -1.5111 H   0  0  0  0  0  0  0  0  0  0  0  0
   -1.0199    2.7565    1.2173 H   0  0  0  0  0  0  0  0  0  0  0  0
    1.9176   -3.8112   -0.4771 H   0  0  0  0  0  0  0  0  0  0  0  0
    2.9869   -2.9200    0.5232 H   0  0  0  0  0  0  0  0  0  0  0  0
    2.6454   -0.3977   -0.9397 H   0  0  0  0  0  0  0  0  0  0  0  0
    2.9991   -0.6801    0.7608 H   0  0  0  0  0  0  0  0  0  0  0  0
   -3.2000    5.2554    0.8547 H   0  0  0  0  0  0  0  0  0  0  0  0
   -1.6257    4.9348    1.5828 H   0  0  0  0  0  0  0  0  0  0  0  0
    0.0860    8.3504   -2.4030 H   0  0  0  0  0  0  0  0  0  0  0  0
   -2.6714    7.8814    0.9297 H   0  0  0  0  0  0  0  0  0  0  0  0
   -1.5071    9.5948   -0.7148 H   0  0  0  0  0  0  0  0  0  0  0  0
   -0.6963   -3.5994    1.0881 H   0  0  0  0  0  0  0  0  0  0  0  0
    3.2592   -4.0691    2.4110 H   0  0  0  0  0  0  0  0  0  0  0  0
    2.3538   -5.2847    4.4005 H   0  0  0  0  0  0  0  0  0  0  0  0
   -1.6254   -4.5046    2.9269 H   0  0  0  0  0  0  0  0  0  0  0  0
    1.3418   -5.7982    6.1324 H   0  0  0  0  0  0  0  0  0  0  0  0
   -0.1636   -6.0550    6.9621 H   0  0  0  0  0  0  0  0  0  0  0  0
  2  1  1  0  0  0  0
  2  4  1  0  0  0  0
  3  1  1  0  0  0  0
  3 32  1  6  0  0  0
  4  3  1  0  0  0  0
  4  9  1  0  0  0  0
  4 33  1  6  0  0  0
  5  1  1  0  0  0  0
  6  5  2  0  0  0  0
  7  3  1  0  0  0  0
  7 13  1  0  0  0  0
  8 12  1  0  0  0  0
  9 34  1  0  0  0  0
 10  5  1  0  0  0  0
 11  9  1  0  0  0  0
 12  6  1  0  0  0  0
 12 35  1  0  0  0  0
 12 36  1  0  0  0  0
 13  6  1  0  0  0  0
 13 37  1  0  0  0  0
 13 38  1  0  0  0  0
 14 11  1  0  0  0  0
 14 39  1  0  0  0  0
 14 40  1  0  0  0  0
 15 19  1  0  0  0  0
 16 14  1  0  0  0  0
 17  2  2  0  0  0  0
 18 16  1  0  0  0  0
 19 29  1  0  0  0  0
 20 10  1  0  0  0  0
 21 18  1  0  0  0  0
 21 41  1  0  0  0  0
 22 10  2  0  0  0  0
 23 16  2  0  0  0  0
 23 42  1  0  0  0  0
 24 11  2  0  0  0  0
 25 15  2  0  0  0  0
 26 23  1  0  0  0  0
 26 21  2  0  0  0  0
 26 43  1  0  0  0  0
 27  8  2  0  0  0  0
 27 44  1  0  0  0  0
 28  8  1  0  0  0  0
 28 45  1  0  0  0  0
 29 28  2  0  0  0  0
 29 46  1  0  0  0  0
 30 27  1  0  0  0  0
 30 19  2  0  0  0  0
 30 47  1  0  0  0  0
 31 15  1  0  0  0  0
 31 48  1  0  0  0  0
 31 49  1  0  0  0  0
M  CHG  2   8   1  20  -1
M  END
>  <DRUGBANK_ID>
DB11385

>  <COMMON_NAME>
Cefalonium

>  <CAS_NUMBER>
5575-21-3

>  <UNII>
K2P920217W

>  <SYNONYMS>
Cefalonio; Cefalonium; Cephalonium

$$$$
