
 OpenBabel10282417183D

 54 56  0  0  0  0  0  0  0  0999 V2000
    1.1008   -0.5372    0.2009 C   0  0  0  0  0  0  0  0  0  0  0  0
    0.9122    0.8092   -0.4055 C   0  0  0  0  0  0  0  0  0  0  0  0
    1.3476    0.9984   -1.7704 O   0  0  0  0  0  0  0  0  0  0  0  0
    2.5655    1.6566   -1.8177 C   0  0  0  0  0  0  0  0  0  0  0  0
    3.5279    0.7260   -1.4459 C   0  0  0  0  0  0  0  0  0  0  0  0
    4.8716    0.9235   -1.5741 C   0  0  0  0  0  0  0  0  0  0  0  0
    5.2599    2.1126   -2.1829 C   0  0  0  0  0  0  0  0  0  0  0  0
    4.3148    3.1152   -2.5218 C   0  0  0  0  0  0  0  0  0  0  0  0
    2.9186    2.9319   -2.3356 C   0  0  0  0  0  0  0  0  0  0  0  0
    2.0768    4.1668   -2.7834 C   0  0  0  0  0  0  0  0  0  0  0  0
    2.6260    5.1520   -3.2304 O   0  0  0  0  0  0  0  0  0  0  0  0
    0.6897    4.2601   -2.6825 N   0  0  0  0  0  0  0  0  0  0  0  0
   -0.1285    3.3767   -1.9476 C   0  0  0  0  0  0  0  0  0  0  0  0
   -0.5735    3.7119   -0.5414 C   0  0  3  0  0  0  0  0  0  0  0  0
   -0.2402    5.0842   -0.0527 C   0  0  0  0  0  0  0  0  0  0  0  0
   -0.8776    5.2881    1.2707 N   0  0  0  0  0  0  0  0  0  0  0  0
   -0.2783    4.3525    2.2513 C   0  0  0  0  0  0  0  0  0  0  0  0
   -0.3560    2.9290    1.7607 C   0  0  0  0  0  0  0  0  0  0  0  0
    0.0514    2.8509    0.4168 O   0  0  0  0  0  0  0  0  0  0  0  0
   -2.3835    5.2889    1.2119 C   0  0  0  0  0  0  0  0  0  0  0  0
   -3.2356    4.0154    0.9190 C   0  0  0  0  0  0  0  0  0  0  0  0
   -3.3212    2.9617    1.8468 C   0  0  0  0  0  0  0  0  0  0  0  0
   -3.4654    1.6335    1.3855 C   0  0  0  0  0  0  0  0  0  0  0  0
   -3.8621    1.3904    0.0831 C   0  0  0  0  0  0  0  0  0  0  0  0
   -4.0943    2.4544   -0.7757 C   0  0  0  0  0  0  0  0  0  0  0  0
   -3.7665    3.7651   -0.3698 C   0  0  0  0  0  0  0  0  0  0  0  0
   -3.9775    0.1283   -0.3537 F   0  0  0  0  0  0  0  0  0  0  0  0
    6.9218    2.3386   -2.5881 Cl  0  0  0  0  0  0  0  0  0  0  0  0
    5.6476   -0.2143   -1.3616 N   0  0  0  0  0  0  0  0  0  0  0  0
    0.8275   -1.2781   -0.5420 H   0  0  0  0  0  0  0  0  0  0  0  0
    0.4918   -0.6172    1.1073 H   0  0  0  0  0  0  0  0  0  0  0  0
    2.1390   -0.6405    0.5153 H   0  0  0  0  0  0  0  0  0  0  0  0
   -0.1780    0.9465   -0.4289 H   0  0  0  0  0  0  0  0  0  0  0  0
    1.4524    1.4886    0.2702 H   0  0  0  0  0  0  0  0  0  0  0  0
    3.1925   -0.2574   -1.1464 H   0  0  0  0  0  0  0  0  0  0  0  0
    4.6846    4.0265   -2.9951 H   0  0  0  0  0  0  0  0  0  0  0  0
    0.2923    5.1370   -3.0011 H   0  0  0  0  0  0  0  0  0  0  0  0
   -0.8356    2.8135   -2.5710 H   0  0  0  0  0  0  0  0  0  0  0  0
    0.5883    2.6821   -1.6964 H   0  0  0  0  0  0  0  0  0  0  0  0
   -1.6075    3.4671   -0.6005 H   0  0  0  0  0  0  0  0  0  0  0  0
    0.8604    5.1204    0.0501 H   0  0  0  0  0  0  0  0  0  0  0  0
   -0.5172    5.8513   -0.7746 H   0  0  0  0  0  0  0  0  0  0  0  0
    0.7946    4.5694    2.3829 H   0  0  0  0  0  0  0  0  0  0  0  0
   -0.7337    4.4679    3.2384 H   0  0  0  0  0  0  0  0  0  0  0  0
    0.1312    2.1883    2.4067 H   0  0  0  0  0  0  0  0  0  0  0  0
   -1.3310    2.5431    1.7556 H   0  0  0  0  0  0  0  0  0  0  0  0
   -2.7190    5.7017    2.1641 H   0  0  0  0  0  0  0  0  0  0  0  0
   -2.6286    6.0309    0.4430 H   0  0  0  0  0  0  0  0  0  0  0  0
   -2.9412    3.1042    2.8599 H   0  0  0  0  0  0  0  0  0  0  0  0
   -3.1107    0.7965    1.9891 H   0  0  0  0  0  0  0  0  0  0  0  0
   -4.4144    2.2441   -1.7918 H   0  0  0  0  0  0  0  0  0  0  0  0
   -3.7508    4.5431   -1.1316 H   0  0  0  0  0  0  0  0  0  0  0  0
    6.6470   -0.0898   -1.2982 H   0  0  0  0  0  0  0  0  0  0  0  0
    5.2499   -0.8959   -0.7172 H   0  0  0  0  0  0  0  0  0  0  0  0
  1  2  1  0  0  0  0
  1 30  1  0  0  0  0
  1 31  1  0  0  0  0
  1 32  1  0  0  0  0
  2  3  1  0  0  0  0
  2 33  1  0  0  0  0
  2 34  1  0  0  0  0
  3  4  1  0  0  0  0
  4  5  2  0  0  0  0
  4  9  1  0  0  0  0
  5  6  1  0  0  0  0
  5 35  1  0  0  0  0
  6  7  2  0  0  0  0
  6 29  1  0  0  0  0
  7  8  1  0  0  0  0
  7 28  1  0  0  0  0
  8  9  2  0  0  0  0
  8 36  1  0  0  0  0
  9 10  1  0  0  0  0
 10 11  2  0  0  0  0
 10 12  1  0  0  0  0
 12 13  1  0  0  0  0
 12 37  1  0  0  0  0
 13 14  1  0  0  0  0
 13 38  1  0  0  0  0
 13 39  1  0  0  0  0
 14 15  1  0  0  0  0
 14 19  1  0  0  0  0
 14 40  1  0  0  0  0
 15 16  1  0  0  0  0
 15 41  1  0  0  0  0
 15 42  1  0  0  0  0
 16 17  1  0  0  0  0
 16 20  1  0  0  0  0
 17 18  1  0  0  0  0
 17 43  1  0  0  0  0
 17 44  1  0  0  0  0
 18 19  1  0  0  0  0
 18 45  1  0  0  0  0
 18 46  1  0  0  0  0
 20 21  1  0  0  0  0
 20 47  1  0  0  0  0
 20 48  1  0  0  0  0
 21 22  2  0  0  0  0
 21 26  1  0  0  0  0
 22 23  1  0  0  0  0
 22 49  1  0  0  0  0
 23 24  2  0  0  0  0
 23 50  1  0  0  0  0
 24 25  1  0  0  0  0
 24 27  1  0  0  0  0
 25 26  2  0  0  0  0
 25 51  1  0  0  0  0
 26 52  1  0  0  0  0
 29 53  1  0  0  0  0
 29 54  1  0  0  0  0
M  END
>  <DRUGBANK_ID>
DB11675

>  <COMMON_NAME>
Mosapride

>  <CAS_NUMBER>
112885-41-3

>  <UNII>
I8MFJ1C0BY

>  <SYNONYMS>
Mosapride

$$$$
