
 OpenBabel10282417213D

 56 59  0  0  0  0  0  0  0  0999 V2000
   -2.4316    0.9240   -1.3335 C   0  0  0  0  0  0  0  0  0  0  0  0
   -1.2780    0.3739   -0.4697 C   0  0  0  0  0  0  0  0  0  0  0  0
   -1.7481    0.9287    0.8288 C   0  0  0  0  0  0  0  0  0  0  0  0
   -1.2421   -1.1782   -0.3730 C   0  0  0  0  0  0  0  0  0  0  0  0
    0.0025   -1.7770    0.3597 C   0  0  0  0  0  0  0  0  0  0  0  0
    1.2520   -1.1804   -0.3283 C   0  0  0  0  0  0  0  0  0  0  0  0
    1.3040    0.3549   -0.2524 C   0  0  0  0  0  0  0  0  0  0  0  0
    2.4502    0.9504   -1.0773 C   0  0  0  0  0  0  0  0  0  0  0  0
    1.7449    0.7372    1.1509 C   0  0  0  0  0  0  0  0  0  0  0  0
    0.0448    0.9970   -0.7472 N   0  0  0  0  0  0  0  0  0  0  0  0
    0.0542   -2.0746    1.8174 O   0  0  0  0  0  0  0  0  0  0  0  0
   -0.0261   -1.1742    2.8682 C   0  0  0  0  0  0  0  0  0  0  0  0
    1.0932   -0.7424    3.4956 N   0  0  0  0  0  0  0  0  0  0  0  0
    1.1489    0.5720    4.1259 N   0  0  0  0  0  0  0  0  0  0  0  0
    0.0948    1.4042    4.0629 C   0  0  0  0  0  0  0  0  0  0  0  0
   -1.0828    0.8445    3.5805 C   0  0  0  0  0  0  0  0  0  0  0  0
   -1.1903   -0.5054    3.1396 C   0  0  0  0  0  0  0  0  0  0  0  0
    0.1144    2.7933    4.5873 C   0  0  0  0  0  0  0  0  0  0  0  0
   -0.9605    3.2469    5.3894 C   0  0  0  0  0  0  0  0  0  0  0  0
   -2.0933    2.5176    5.6611 O   0  0  0  0  0  0  0  0  0  0  0  0
   -0.9714    4.4889    6.0100 C   0  0  0  0  0  0  0  0  0  0  0  0
    0.0904    5.3706    5.8341 C   0  0  0  0  0  0  0  0  0  0  0  0
    1.1309    5.0086    4.9713 C   0  0  0  0  0  0  0  0  0  0  0  0
    1.1422    3.7392    4.3468 C   0  0  0  0  0  0  0  0  0  0  0  0
    0.1002    6.5901    6.5905 C   0  0  0  0  0  0  0  0  0  0  0  0
    0.1138    7.8700    6.0404 C   0  0  0  0  0  0  0  0  0  0  0  0
    0.0744    8.7136    7.1082 N   0  0  0  0  0  0  0  0  0  0  0  0
    0.0272    8.1095    8.3014 N   0  0  0  0  0  0  0  0  0  0  0  0
    0.0337    6.8078    7.9803 C   0  0  0  0  0  0  0  0  0  0  0  0
   -2.5378    2.0110   -1.1749 H   0  0  0  0  0  0  0  0  0  0  0  0
   -2.3273    0.7448   -2.3982 H   0  0  0  0  0  0  0  0  0  0  0  0
   -3.3910    0.4968   -0.9942 H   0  0  0  0  0  0  0  0  0  0  0  0
   -0.9097    0.6943    1.4204 H   0  0  0  0  0  0  0  0  0  0  0  0
   -1.8486    2.0121    0.9073 H   0  0  0  0  0  0  0  0  0  0  0  0
   -2.6768    0.4579    1.1771 H   0  0  0  0  0  0  0  0  0  0  0  0
   -2.1638   -1.5937    0.0497 H   0  0  0  0  0  0  0  0  0  0  0  0
   -1.2069   -1.5356   -1.4182 H   0  0  0  0  0  0  0  0  0  0  0  0
    0.0024   -2.8162   -0.0115 H   0  0  0  0  0  0  0  0  0  0  0  0
    2.1604   -1.6462    0.0707 H   0  0  0  0  0  0  0  0  0  0  0  0
    1.2237   -1.4466   -1.3982 H   0  0  0  0  0  0  0  0  0  0  0  0
    2.5582    2.0212   -0.8443 H   0  0  0  0  0  0  0  0  0  0  0  0
    3.4044    0.4759   -0.8157 H   0  0  0  0  0  0  0  0  0  0  0  0
    2.2849    0.8528   -2.1490 H   0  0  0  0  0  0  0  0  0  0  0  0
    2.5799    0.1143    1.5088 H   0  0  0  0  0  0  0  0  0  0  0  0
    1.9941    1.7841    1.3246 H   0  0  0  0  0  0  0  0  0  0  0  0
    0.9068    0.5684    1.7668 H   0  0  0  0  0  0  0  0  0  0  0  0
    0.0344    1.9499   -0.3718 H   0  0  0  0  0  0  0  0  0  0  0  0
   -1.8982    1.5386    3.3366 H   0  0  0  0  0  0  0  0  0  0  0  0
   -2.1164   -0.8523    2.6982 H   0  0  0  0  0  0  0  0  0  0  0  0
   -1.9807    1.5904    5.4104 H   0  0  0  0  0  0  0  0  0  0  0  0
   -1.8100    4.7428    6.6528 H   0  0  0  0  0  0  0  0  0  0  0  0
    1.9592    5.7037    4.8212 H   0  0  0  0  0  0  0  0  0  0  0  0
    1.9762    3.5138    3.6805 H   0  0  0  0  0  0  0  0  0  0  0  0
    0.1297    8.2185    5.0309 H   0  0  0  0  0  0  0  0  0  0  0  0
    0.0710    9.7410    7.0918 H   0  0  0  0  0  0  0  0  0  0  0  0
   -0.0060    6.0698    8.7749 H   0  0  0  0  0  0  0  0  0  0  0  0
  1  2  1  0  0  0  0
  1 30  1  0  0  0  0
  1 31  1  0  0  0  0
  1 32  1  0  0  0  0
  2  3  1  0  0  0  0
  2  4  1  0  0  0  0
  2 10  1  0  0  0  0
  3 33  1  0  0  0  0
  3 34  1  0  0  0  0
  3 35  1  0  0  0  0
  4  5  1  0  0  0  0
  4 36  1  0  0  0  0
  4 37  1  0  0  0  0
  5  6  1  0  0  0  0
  5 11  1  0  0  0  0
  5 38  1  0  0  0  0
  6  7  1  0  0  0  0
  6 39  1  0  0  0  0
  6 40  1  0  0  0  0
  7  8  1  0  0  0  0
  7  9  1  0  0  0  0
  7 10  1  0  0  0  0
  8 41  1  0  0  0  0
  8 42  1  0  0  0  0
  8 43  1  0  0  0  0
  9 44  1  0  0  0  0
  9 45  1  0  0  0  0
  9 46  1  0  0  0  0
 10 47  1  0  0  0  0
 11 12  1  0  0  0  0
 12 13  2  0  0  0  0
 12 17  1  0  0  0  0
 13 14  1  0  0  0  0
 14 15  2  0  0  0  0
 15 16  1  0  0  0  0
 15 18  1  0  0  0  0
 16 17  2  0  0  0  0
 16 48  1  0  0  0  0
 17 49  1  0  0  0  0
 18 19  2  0  0  0  0
 18 24  1  0  0  0  0
 19 20  1  0  0  0  0
 19 21  1  0  0  0  0
 20 50  1  0  0  0  0
 21 22  2  0  0  0  0
 21 51  1  0  0  0  0
 22 23  1  0  0  0  0
 22 25  1  0  0  0  0
 23 24  2  0  0  0  0
 23 52  1  0  0  0  0
 24 53  1  0  0  0  0
 25 26  2  0  0  0  0
 25 29  1  0  0  0  0
 26 27  1  0  0  0  0
 26 54  1  0  0  0  0
 27 28  1  0  0  0  0
 27 55  1  0  0  0  0
 28 29  2  0  0  0  0
 29 56  1  0  0  0  0
M  END
>  <DRUGBANK_ID>
DB14918

>  <COMMON_NAME>
Branaplam

>  <CAS_NUMBER>
1562338-42-4

>  <UNII>
P12R69543A

>  <SYNONYMS>
Branaplam

$$$$
