450
 OpenBabel10282417103D

 50 53  0  0  1  0  0  0  0  0999 V2000
    2.3372   -0.2787    0.0564 F   0  0  0  0  0  0  0  0  0  0  0  0
   -5.4057    5.5900   -3.2737 O   0  0  0  0  0  0  0  0  0  0  0  0
   -3.9929   -1.3572    0.0384 O   0  0  0  0  0  0  0  0  0  0  0  0
   -2.1899    3.4266    0.1760 N   0  0  0  0  0  0  0  0  0  0  0  0
   -3.0403    5.9832   -3.0963 N   0  0  0  0  0  0  0  0  0  0  0  0
   -4.2034    6.8424   -4.8356 N   0  0  0  0  0  0  0  0  0  0  0  0
   -2.2243    4.8546    0.4170 C   0  0  0  0  0  0  0  0  0  0  0  0
   -1.9415    5.6462   -0.8769 C   0  0  0  0  0  0  0  0  0  0  0  0
   -2.9955    3.0752   -1.0020 C   0  0  0  0  0  0  0  0  0  0  0  0
   -2.7063    5.1650   -2.0775 C   0  0  0  0  0  0  0  0  0  0  0  0
   -2.5584    2.6364    1.3909 C   0  0  0  0  0  0  0  0  0  0  0  0
   -3.1345    3.9186   -2.1530 C   0  0  0  0  0  0  0  0  0  0  0  0
   -3.9579    2.0113    1.3319 C   0  0  0  0  0  0  0  0  0  0  0  0
   -2.1359    6.6150   -3.9449 C   0  0  0  0  0  0  0  0  0  0  0  0
   -4.2563    0.9863    0.1930 C   0  0  0  0  0  0  0  0  0  0  0  0
   -4.3381    6.0731   -3.6811 C   0  0  0  0  0  0  0  0  0  0  0  0
   -2.8585    7.1574   -4.9980 C   0  0  0  0  0  0  0  0  0  0  0  0
   -0.7588    6.6652   -3.8738 C   0  0  0  0  0  0  0  0  0  0  0  0
   -3.3963   -0.2771    0.0806 C   0  0  0  0  0  0  0  0  0  0  0  0
   -2.2389    7.8487   -6.0027 C   0  0  0  0  0  0  0  0  0  0  0  0
   -0.1097    7.3731   -4.8763 C   0  0  0  0  0  0  0  0  0  0  0  0
   -0.8449    7.9676   -5.9220 C   0  0  0  0  0  0  0  0  0  0  0  0
   -1.8645   -0.2939   -0.0569 C   0  0  0  0  0  0  0  0  0  0  0  0
   -1.0248    0.7993   -0.2391 C   0  0  0  0  0  0  0  0  0  0  0  0
   -1.1635   -1.4789    0.0180 C   0  0  0  0  0  0  0  0  0  0  0  0
    0.3513    0.8888   -0.1059 C   0  0  0  0  0  0  0  0  0  0  0  0
    0.2584   -1.4703    0.0277 C   0  0  0  0  0  0  0  0  0  0  0  0
    1.0026   -0.2868    0.0119 C   0  0  0  0  0  0  0  0  0  0  0  0
   -4.9767    7.0740   -5.4342 H   0  0  0  0  0  0  0  0  0  0  0  0
   -3.2017    5.1138    0.8335 H   0  0  0  0  0  0  0  0  0  0  0  0
   -1.4555    5.1099    1.1578 H   0  0  0  0  0  0  0  0  0  0  0  0
   -2.1940    6.6883   -0.6796 H   0  0  0  0  0  0  0  0  0  0  0  0
   -0.8721    5.5647   -1.0981 H   0  0  0  0  0  0  0  0  0  0  0  0
   -2.7012    2.1396   -1.4943 H   0  0  0  0  0  0  0  0  0  0  0  0
   -4.0286    3.1046   -0.6944 H   0  0  0  0  0  0  0  0  0  0  0  0
   -2.3942    3.2289    2.3009 H   0  0  0  0  0  0  0  0  0  0  0  0
   -1.8720    1.8096    1.6036 H   0  0  0  0  0  0  0  0  0  0  0  0
   -3.7084    3.5058   -2.9808 H   0  0  0  0  0  0  0  0  0  0  0  0
   -4.6635    2.8562    1.2894 H   0  0  0  0  0  0  0  0  0  0  0  0
   -4.1555    1.5119    2.2835 H   0  0  0  0  0  0  0  0  0  0  0  0
   -4.3384    1.3305   -0.8426 H   0  0  0  0  0  0  0  0  0  0  0  0
   -5.3168    0.7252    0.3272 H   0  0  0  0  0  0  0  0  0  0  0  0
   -0.1968    6.1768   -3.0877 H   0  0  0  0  0  0  0  0  0  0  0  0
   -2.7996    8.2833   -6.8177 H   0  0  0  0  0  0  0  0  0  0  0  0
    0.9730    7.4656   -4.8455 H   0  0  0  0  0  0  0  0  0  0  0  0
   -0.3118    8.5248   -6.6864 H   0  0  0  0  0  0  0  0  0  0  0  0
   -1.3647    1.7504   -0.4799 H   0  0  0  0  0  0  0  0  0  0  0  0
   -1.7136   -2.4136    0.0557 H   0  0  0  0  0  0  0  0  0  0  0  0
    0.8293    1.8676   -0.1253 H   0  0  0  0  0  0  0  0  0  0  0  0
    0.8008   -2.4024    0.0560 H   0  0  0  0  0  0  0  0  0  0  0  0
  1 28  1  0  0  0  0
  2 16  2  0  0  0  0
  3 19  2  0  0  0  0
  4  7  1  0  0  0  0
  4  9  1  0  0  0  0
  4 11  1  0  0  0  0
  5 10  1  0  0  0  0
  5 14  1  0  0  0  0
  5 16  1  0  0  0  0
  6 16  1  0  0  0  0
  6 17  1  0  0  0  0
  6 29  1  0  0  0  0
  7  8  1  0  0  0  0
  7 30  1  0  0  0  0
  7 31  1  0  0  0  0
  8 10  1  0  0  0  0
  8 32  1  0  0  0  0
  8 33  1  0  0  0  0
  9 12  1  0  0  0  0
  9 34  1  0  0  0  0
  9 35  1  0  0  0  0
 10 12  2  0  0  0  0
 11 13  1  0  0  0  0
 11 36  1  0  0  0  0
 11 37  1  0  0  0  0
 12 38  1  0  0  0  0
 13 15  1  0  0  0  0
 13 39  1  0  0  0  0
 13 40  1  0  0  0  0
 14 17  1  0  0  0  0
 14 18  2  0  0  0  0
 15 19  1  0  0  0  0
 15 41  1  0  0  0  0
 15 42  1  0  0  0  0
 17 20  2  0  0  0  0
 18 21  1  0  0  0  0
 18 43  1  0  0  0  0
 19 23  1  0  0  0  0
 20 22  1  0  0  0  0
 20 44  1  0  0  0  0
 21 22  2  0  0  0  0
 21 45  1  0  0  0  0
 22 46  1  0  0  0  0
 23 24  2  0  0  0  0
 23 25  1  0  0  0  0
 24 26  1  0  0  0  0
 24 47  1  0  0  0  0
 25 27  2  0  0  0  0
 25 48  1  0  0  0  0
 26 28  2  0  0  0  0
 26 49  1  0  0  0  0
 27 28  1  0  0  0  0
 27 50  1  0  0  0  0
M  END
>  <DRUGBANK_ID>
DB00450

>  <SECONDARY_ACCESSION_NUMBERS>
APRD00939

>  <COMMON_NAME>
Droperidol

>  <CAS_NUMBER>
548-73-2

>  <UNII>
O9U0F09D5X

>  <SYNONYMS>
1-(1-(3-(p-fluorobenzoyl)propyl)-1,2,3,6-tetrahydro-4-pyridyl)-2-benzimidazolinone; 1-(1-(4-(p-fluorophenyl)-4-oxobutyl)-1,2,3,6-tetrahydro-4-pyridyl)-2-benzimidazolinone; 1-{1-[4-(4-Fluoro-phenyl)-4-oxo-butyl]-1,2,3,6-tetrahydro-pyridin-4-yl}-1,3-dihydro-benzoimidazol-2-one; 1-{1-[4-(4-fluorophenyl)-4-oxobutyl]-1,2,3,6-tetrahydro-4-pyridinyl}-2,3-dihydro-1H-benzo[d]imidazol-2-one; Droperidol; Drop√©ridol; Droperidolo; Droperidolum

$$$$
