I4A
 OpenBabel10282417173D

 49 52  0  0  0  0  0  0  0  0999 V2000
   -0.0765   -0.4976    1.0515 O   0  0  0  0  0  0  0  0  0  0  0  0
   -0.3659   -1.6344    0.4408 C   0  0  0  0  0  0  0  0  0  0  0  0
   -1.4299   -1.7342   -0.1646 O   0  0  0  0  0  0  0  0  0  0  0  0
    0.7334   -2.6686    0.4313 C   0  0  0  0  0  0  0  0  0  0  0  0
    1.9669   -2.6874    1.1815 C   0  0  0  0  0  0  0  0  0  0  0  0
    2.7094   -3.8896    1.1972 C   0  0  0  0  0  0  0  0  0  0  0  0
    3.7598   -3.7501    2.1310 C   0  0  0  0  0  0  0  0  0  0  0  0
    4.7762   -4.7746    2.5045 C   0  0  0  0  0  0  0  0  0  0  0  0
    6.1612   -4.3372    2.0292 C   0  0  0  0  0  0  0  0  0  0  0  0
    6.7914   -3.3082    2.9737 C   0  0  0  0  0  0  0  0  0  0  0  0
    6.1521   -1.9136    2.9261 C   0  0  0  0  0  0  0  0  0  0  0  0
    4.7544   -1.8837    3.5521 C   0  0  0  0  0  0  0  0  0  0  0  0
    3.7495   -2.4542    2.5957 C   0  0  0  0  0  0  0  0  0  0  0  0
    2.3180   -4.9922    0.4077 C   0  0  0  0  0  0  0  0  0  0  0  0
    1.2401   -4.8891   -0.4552 C   0  0  0  0  0  0  0  0  0  0  0  0
    0.4837   -3.7333   -0.4614 C   0  0  0  0  0  0  0  0  0  0  0  0
    2.7319   -1.7736    1.9494 N   0  0  0  0  0  0  0  0  0  0  0  0
    2.5769   -0.3113    2.0633 C   0  0  0  0  0  0  0  0  0  0  0  0
    2.7910    0.4331    0.7232 C   0  0  0  0  0  0  0  0  0  0  0  0
    2.2076    0.0492   -0.5269 C   0  0  0  0  0  0  0  0  0  0  0  0
    2.2954    0.6955   -1.7526 C   0  0  0  0  0  0  0  0  0  0  0  0
    1.5810    0.0991   -2.9645 C   0  0  0  0  0  0  0  0  0  0  0  0
    0.6486   -0.9175   -2.7910 N   0  0  0  0  0  0  0  0  0  0  0  0
    1.8267    0.4819   -4.1025 O   0  0  0  0  0  0  0  0  0  0  0  0
    3.1346    1.7953   -1.7600 C   0  0  0  0  0  0  0  0  0  0  0  0
    3.7264    2.2502   -0.5471 C   0  0  0  0  0  0  0  0  0  0  0  0
    3.5586    1.5833    0.6832 C   0  0  0  0  0  0  0  0  0  0  0  0
    0.8734   -0.5269    1.0344 H   0  0  0  0  0  0  0  0  0  0  0  0
    4.5265   -5.7447    2.0633 H   0  0  0  0  0  0  0  0  0  0  0  0
    4.7633   -4.9218    3.5921 H   0  0  0  0  0  0  0  0  0  0  0  0
    6.1108   -3.9307    1.0097 H   0  0  0  0  0  0  0  0  0  0  0  0
    6.8113   -5.2178    1.9891 H   0  0  0  0  0  0  0  0  0  0  0  0
    6.7464   -3.6896    4.0015 H   0  0  0  0  0  0  0  0  0  0  0  0
    7.8514   -3.2120    2.7180 H   0  0  0  0  0  0  0  0  0  0  0  0
    6.7975   -1.2283    3.4876 H   0  0  0  0  0  0  0  0  0  0  0  0
    6.1217   -1.5459    1.8917 H   0  0  0  0  0  0  0  0  0  0  0  0
    4.5233   -0.8679    3.8726 H   0  0  0  0  0  0  0  0  0  0  0  0
    4.7420   -2.4815    4.4730 H   0  0  0  0  0  0  0  0  0  0  0  0
    2.8634   -5.9316    0.4688 H   0  0  0  0  0  0  0  0  0  0  0  0
    0.9559   -5.7354   -1.0740 H   0  0  0  0  0  0  0  0  0  0  0  0
   -0.3568   -3.6711   -1.1531 H   0  0  0  0  0  0  0  0  0  0  0  0
    1.6041   -0.1520    2.5548 H   0  0  0  0  0  0  0  0  0  0  0  0
    3.2408    0.0895    2.8303 H   0  0  0  0  0  0  0  0  0  0  0  0
    1.6456   -0.8457   -0.6390 H   0  0  0  0  0  0  0  0  0  0  0  0
    0.2082   -1.2142   -1.9322 H   0  0  0  0  0  0  0  0  0  0  0  0
    0.1930   -1.2990   -3.6144 H   0  0  0  0  0  0  0  0  0  0  0  0
    3.3721    2.2861   -2.6999 H   0  0  0  0  0  0  0  0  0  0  0  0
    4.3479    3.1425   -0.5637 H   0  0  0  0  0  0  0  0  0  0  0  0
    4.0624    1.9408    1.5823 H   0  0  0  0  0  0  0  0  0  0  0  0
  1 28  1  0  0  0  0
  2  1  1  0  0  0  0
  2  4  1  0  0  0  0
  3  2  2  0  0  0  0
  4 16  1  0  0  0  0
  5  4  2  0  0  0  0
  5  6  1  0  0  0  0
  6 14  2  0  0  0  0
  7  6  1  0  0  0  0
  7  8  1  0  0  0  0
  8 29  1  0  0  0  0
  8 30  1  0  0  0  0
  9  8  1  0  0  0  0
  9 31  1  0  0  0  0
  9 32  1  0  0  0  0
 10  9  1  0  0  0  0
 10 33  1  0  0  0  0
 10 34  1  0  0  0  0
 11 10  1  0  0  0  0
 11 12  1  0  0  0  0
 11 35  1  0  0  0  0
 11 36  1  0  0  0  0
 12 13  1  0  0  0  0
 12 37  1  0  0  0  0
 12 38  1  0  0  0  0
 13  7  2  0  0  0  0
 14 15  1  0  0  0  0
 14 39  1  0  0  0  0
 15 40  1  0  0  0  0
 16 15  2  0  0  0  0
 16 41  1  0  0  0  0
 17  5  1  0  0  0  0
 17 13  1  0  0  0  0
 18 17  1  0  0  0  0
 18 42  1  0  0  0  0
 18 43  1  0  0  0  0
 19 18  1  0  0  0  0
 20 19  2  0  0  0  0
 20 44  1  0  0  0  0
 21 20  1  0  0  0  0
 22 21  1  0  0  0  0
 22 24  2  0  0  0  0
 23 22  1  0  0  0  0
 23 45  1  0  0  0  0
 23 46  1  0  0  0  0
 25 21  2  0  0  0  0
 25 26  1  0  0  0  0
 25 47  1  0  0  0  0
 26 27  2  0  0  0  0
 26 48  1  0  0  0  0
 27 19  1  0  0  0  0
 27 49  1  0  0  0  0
M  END
>  <DRUGBANK_ID>
DB07945

>  <COMMON_NAME>
5-(3-carbamoylbenzyl)-5,6,7,8,9,10-hexahydrocyclohepta[b]indole-4-carboxylic acid

$$$$
