
 OpenBabel10282417213D

 61 58  0  0  0  0  0  0  0  0999 V2000
    0.2444   -0.2574    0.5432 C   0  0  0  0  0  0  0  0  0  0  0  0
    2.1432   -0.3127    0.5544 N   0  0  0  0  0  0  0  0  0  0  0  0
   -0.7617   -1.0650    1.7780 S   0  5  0  0  0  0  0  0  0  0  0  0
   -1.6291   -0.5529   -0.5357 S   0  0  0  0  0  0  0  0  0  0  0  0
    3.4109    0.2985   -0.8481 C   0  0  0  0  0  0  0  0  0  0  0  0
    4.3129    1.7764   -1.3609 C   0  0  0  0  0  0  0  0  0  0  0  0
    5.2951    2.0873   -0.0629 C   0  0  0  0  0  0  0  0  0  0  0  0
    6.0966    0.9575    0.2974 C   0  0  0  0  0  0  0  0  0  0  0  0
    3.0524   -0.1640    1.9539 C   0  0  0  0  0  0  0  0  0  0  0  0
    2.9011    1.1932    2.8401 C   0  0  0  0  0  0  0  0  0  0  0  0
    1.4202    1.1907    3.0102 C   0  0  0  0  0  0  0  0  0  0  0  0
    1.0389   -0.0329    3.6977 C   0  0  0  0  0  0  0  0  0  0  0  0
    0.4452    0.5067   -1.5270 C   0  0  0  0  0  0  0  0  0  0  0  0
    1.7511    0.3727   -1.0950 N   0  0  0  0  0  0  0  0  0  0  0  0
   -0.7149    1.9764   -0.5449 S   0  5  0  0  0  0  0  0  0  0  0  0
    0.4408   -1.5666   -1.8967 S   0  0  0  0  0  0  0  0  0  0  0  0
    2.7689   -1.3398   -1.2148 C   0  0  0  0  0  0  0  0  0  0  0  0
    4.2931   -1.1850   -2.3738 C   0  0  0  0  0  0  0  0  0  0  0  0
    5.7974   -0.4785   -1.8754 C   0  0  0  0  0  0  0  0  0  0  0  0
    6.6679   -1.1020   -0.4107 C   0  0  0  0  0  0  0  0  0  0  0  0
    2.5003    1.7027    0.0692 C   0  0  0  0  0  0  0  0  0  0  0  0
    2.6968    3.1429   -0.2238 C   0  0  0  0  0  0  0  0  0  0  0  0
    1.3711    3.5464   -0.0107 C   0  0  0  0  0  0  0  0  0  0  0  0
    1.0164    3.5721    1.4226 C   0  0  0  0  0  0  0  0  0  0  0  0
    1.2755   -2.1857    0.8934 Zn  0  2  0  0  0  0  0  0  0  0  0  0
    4.2067   -0.3747   -0.6135 H   0  0  0  0  0  0  0  0  0  0  0  0
    2.9585    0.2087   -2.1385 H   0  0  0  0  0  0  0  0  0  0  0  0
    4.5402    1.5812   -2.4628 H   0  0  0  0  0  0  0  0  0  0  0  0
    4.0497    2.7643   -1.6804 H   0  0  0  0  0  0  0  0  0  0  0  0
    5.9855    2.8514   -0.3065 H   0  0  0  0  0  0  0  0  0  0  0  0
    4.8874    2.1316    0.9709 H   0  0  0  0  0  0  0  0  0  0  0  0
    6.8179    0.9754   -0.5640 H   0  0  0  0  0  0  0  0  0  0  0  0
    6.5065    0.7080    1.2717 H   0  0  0  0  0  0  0  0  0  0  0  0
    5.3312    0.1826    0.3269 H   0  0  0  0  0  0  0  0  0  0  0  0
    3.0079   -1.1478    2.3974 H   0  0  0  0  0  0  0  0  0  0  0  0
    4.1054   -0.1585    1.6312 H   0  0  0  0  0  0  0  0  0  0  0  0
    3.6057    1.2411    3.6533 H   0  0  0  0  0  0  0  0  0  0  0  0
    3.1641    2.2329    2.4446 H   0  0  0  0  0  0  0  0  0  0  0  0
    1.0039    2.0896    3.4473 H   0  0  0  0  0  0  0  0  0  0  0  0
    0.9574    1.0989    2.0255 H   0  0  0  0  0  0  0  0  0  0  0  0
    1.6346   -0.0709    4.5767 H   0  0  0  0  0  0  0  0  0  0  0  0
   -0.0255    0.0621    3.8609 H   0  0  0  0  0  0  0  0  0  0  0  0
    1.2672   -0.9001    3.0660 H   0  0  0  0  0  0  0  0  0  0  0  0
    3.4013   -1.6690   -0.1187 H   0  0  0  0  0  0  0  0  0  0  0  0
    2.4244   -2.3712   -1.3699 H   0  0  0  0  0  0  0  0  0  0  0  0
    4.7262   -2.1376   -2.5389 H   0  0  0  0  0  0  0  0  0  0  0  0
    3.9201   -0.5556   -3.2272 H   0  0  0  0  0  0  0  0  0  0  0  0
    6.1742    0.4214   -2.4732 H   0  0  0  0  0  0  0  0  0  0  0  0
    5.3901    0.3409   -1.4361 H   0  0  0  0  0  0  0  0  0  0  0  0
    7.0423   -1.9412   -0.9058 H   0  0  0  0  0  0  0  0  0  0  0  0
    7.5887   -0.4416   -0.0132 H   0  0  0  0  0  0  0  0  0  0  0  0
    6.0552   -1.3178    0.6059 H   0  0  0  0  0  0  0  0  0  0  0  0
    2.7387    1.5792    1.0659 H   0  0  0  0  0  0  0  0  0  0  0  0
    3.5221    1.3177    0.3979 H   0  0  0  0  0  0  0  0  0  0  0  0
    3.4927    3.6470    0.3390 H   0  0  0  0  0  0  0  0  0  0  0  0
    2.6552    3.2128   -1.2873 H   0  0  0  0  0  0  0  0  0  0  0  0
    1.0100    4.2734   -0.6750 H   0  0  0  0  0  0  0  0  0  0  0  0
    1.1334    2.6879   -0.6249 H   0  0  0  0  0  0  0  0  0  0  0  0
    1.6504    4.1689    2.0562 H   0  0  0  0  0  0  0  0  0  0  0  0
   -0.0120    3.4208    1.7505 H   0  0  0  0  0  0  0  0  0  0  0  0
    1.4251    2.6586    1.6903 H   0  0  0  0  0  0  0  0  0  0  0  0
  2  1  1  0  0  0  0
  3  1  1  0  0  0  0
  4  1  2  0  0  0  0
  5  2  1  0  0  0  0
  5 26  1  0  0  0  0
  5 27  1  0  0  0  0
  6  5  1  0  0  0  0
  6 28  1  0  0  0  0
  6 29  1  0  0  0  0
  7  6  1  0  0  0  0
  7 30  1  0  0  0  0
  7 31  1  0  0  0  0
  8  7  1  0  0  0  0
  8 32  1  0  0  0  0
  8 33  1  0  0  0  0
  8 34  1  0  0  0  0
  9  2  1  0  0  0  0
  9 35  1  0  0  0  0
  9 36  1  0  0  0  0
 10  9  1  0  0  0  0
 10 37  1  0  0  0  0
 10 38  1  0  0  0  0
 11 10  1  0  0  0  0
 11 39  1  0  0  0  0
 11 40  1  0  0  0  0
 12 11  1  0  0  0  0
 12 41  1  0  0  0  0
 12 42  1  0  0  0  0
 12 43  1  0  0  0  0
 14 13  1  0  0  0  0
 15 13  1  0  0  0  0
 16 13  2  0  0  0  0
 17 14  1  0  0  0  0
 17 44  1  0  0  0  0
 17 45  1  0  0  0  0
 18 17  1  0  0  0  0
 18 46  1  0  0  0  0
 18 47  1  0  0  0  0
 19 18  1  0  0  0  0
 19 48  1  0  0  0  0
 19 49  1  0  0  0  0
 20 19  1  0  0  0  0
 20 50  1  0  0  0  0
 20 51  1  0  0  0  0
 20 52  1  0  0  0  0
 21 14  1  0  0  0  0
 21 53  1  0  0  0  0
 21 54  1  0  0  0  0
 22 21  1  0  0  0  0
 22 55  1  0  0  0  0
 22 56  1  0  0  0  0
 23 22  1  0  0  0  0
 23 57  1  0  0  0  0
 23 58  1  0  0  0  0
 24 23  1  0  0  0  0
 24 59  1  0  0  0  0
 24 60  1  0  0  0  0
 24 61  1  0  0  0  0
M  CHG  3   3  -1  15  -1  25   2
M  END
>  <DRUGBANK_ID>
DB14194

>  <COMMON_NAME>
Zinc dibutyldithiocarbamate

>  <CAS_NUMBER>
136-23-2

>  <UNII>
HNM5J934VP

>  <SYNONYMS>
(T-4)-bis(dibutylcarbamodithioato-κS,κS')zinc; bis(dibutyldithiocarbamato)zinc; dibutyldithiocarbamate zinc salt; zinc bis(dibutyldithiocarbamate); zinc bis(dibutyldithiocarbamoyl)disulfide; zinc bis(dibutyldithiocarbamoyl)disulphide; zinc bis(dibutylthiocarbamoyl)disulfide

$$$$
