
 OpenBabel10282417153D

160163  0  0  1  0  0  0  0  0999 V2000
   20.8301   18.7849    0.1174 N   0  0  0  0  0  0  0  0  0  0  0  0
   18.7208   18.3596    1.1701 C   0  0  2  0  0  0  0  0  0  0  0  0
   21.2694   19.1171   -1.6819 C   0  0  0  0  0  0  0  0  0  0  0  0
   22.9586   18.5718   -0.4367 C   0  0  0  0  0  0  0  0  0  0  0  0
   16.2421   17.3002    2.0366 C   0  0  0  0  0  0  0  0  0  0  0  0
   21.1597   19.5101    0.3616 C   0  0  0  0  0  0  0  0  0  0  0  0
   21.3546   17.7505   -2.3929 C   0  0  0  0  0  0  0  0  0  0  0  0
   20.6669   20.0673   -2.2020 O   0  0  0  0  0  0  0  0  0  0  0  0
   24.8082   19.0843   -1.2783 C   0  0  0  0  0  0  0  0  0  0  0  0
   13.8535   16.4143    2.4884 O   0  0  0  0  0  0  0  0  0  0  0  0
   15.2372   16.2429    3.0905 O   0  0  0  0  0  0  0  0  0  0  0  0
   23.5867   20.0878   -0.2407 C   0  0  0  0  0  0  0  0  0  0  0  0
   20.0650   17.3528   -3.1182 C   0  0  2  0  0  0  0  0  0  0  0  0
   22.2849   16.9821   -2.1849 O   0  0  0  0  0  0  0  0  0  0  0  0
   11.5131   15.6490    3.2101 C   0  0  2  0  0  0  0  0  0  0  0  0
   19.0529   17.0022   -2.0810 O   0  0  0  0  0  0  0  0  0  0  0  0
   20.1165   16.2455   -4.1607 C   0  0  1  0  0  0  0  0  0  0  0  0
   19.8100   18.4749   -3.9581 O   0  0  0  0  0  0  0  0  0  0  0  0
   10.0880   14.5923    2.5875 C   0  0  1  0  0  0  0  0  0  0  0  0
    9.5260   16.4063    4.1712 C   0  0  0  0  0  0  0  0  0  0  0  0
   19.3900   15.6826   -1.4949 C   0  0  2  0  0  0  0  0  0  0  0  0
   20.4153   14.9627   -3.5220 C   0  0  0  0  0  0  0  0  0  0  0  0
   18.7776   16.1372   -4.8658 C   0  0  0  0  0  0  0  0  0  0  0  0
    9.3285   13.8127    1.5606 C   0  0  0  0  0  0  0  0  0  0  0  0
   10.6771   15.8271    2.0136 C   0  0  0  0  0  0  0  0  0  0  0  0
   10.5960   16.3256    5.0494 C   0  0  0  0  0  0  0  0  0  0  0  0
   20.6557   15.7101   -0.6969 C   0  0  0  0  0  0  0  0  0  0  0  0
   19.4082   14.5981   -2.5234 C   0  0  0  0  0  0  0  0  0  0  0  0
    8.3095   14.6238    0.8355 C   0  0  1  0  0  0  0  0  0  0  0  0
   11.6938   17.2434    4.5949 C   0  0  1  0  0  0  0  0  0  0  0  0
   10.7136   15.4914    5.9349 O   0  0  0  0  0  0  0  0  0  0  0  0
   20.6255   16.6853    0.3995 C   0  0  1  0  0  0  0  0  0  0  0  0
    8.7103   16.0851    0.6732 C   0  0  0  0  0  0  0  0  0  0  0  0
    8.0928   14.0550   -0.5687 C   0  0  0  0  0  0  0  0  0  0  0  0
   12.2460   18.0690    5.6420 C   0  0  0  0  0  0  0  0  0  0  0  0
   12.8259   16.4390    4.1914 C   0  0  0  0  0  0  0  0  0  0  0  0
   19.5496   16.3491    1.3910 C   0  0  0  0  0  0  0  0  0  0  0  0
   21.8912   16.8286    1.0404 O   0  0  0  0  0  0  0  0  0  0  0  0
    7.8897   17.0458   -0.1495 C   0  0  2  0  0  0  0  0  0  0  0  0
    7.1858   14.8708   -1.4499 C   0  0  0  0  0  0  0  0  0  0  0  0
   13.5356   18.0036    6.1025 C   0  0  0  0  0  0  0  0  0  0  0  0
   19.8059   16.2093    2.7018 C   0  0  0  0  0  0  0  0  0  0  0  0
   18.1189   16.2570    0.9276 C   0  0  0  0  0  0  0  0  0  0  0  0
   22.2207   15.5839    1.5968 C   0  0  0  0  0  0  0  0  0  0  0  0
    7.5996   16.3088   -1.4810 C   0  0  1  0  0  0  0  0  0  0  0  0
    8.3134   18.3036   -0.2657 O   0  0  0  0  0  0  0  0  0  0  0  0
   13.9678   18.7756    7.3058 C   0  0  2  0  0  0  0  0  0  0  0  0
   14.5571   17.0547    5.5854 C   0  0  0  0  0  0  0  0  0  0  0  0
   18.8056   15.8295    3.6837 C   0  0  0  0  0  0  0  0  0  0  0  0
    6.5770   17.0011   -2.1911 O   0  0  0  0  0  0  0  0  0  0  0  0
   14.3895   17.8934    8.4742 C   0  0  2  0  0  0  0  0  0  0  0  0
   12.8952   19.6311    7.7189 O   0  0  0  0  0  0  0  0  0  0  0  0
   19.0817   15.6108    4.9772 C   0  0  0  0  0  0  0  0  0  0  0  0
   15.5588   17.0270    8.1062 C   0  0  0  0  0  0  0  0  0  0  0  0
   13.2787   17.1039    8.9048 O   0  0  0  0  0  0  0  0  0  0  0  0
   18.0472   15.2162    5.9533 C   0  0  0  0  0  0  0  0  0  0  0  0
   16.8672   17.0787    8.7692 C   0  0  1  0  0  0  0  0  0  0  0  0
   15.5383   16.1307    7.3074 O   0  0  0  0  0  0  0  0  0  0  0  0
   12.8444   16.2578    7.8586 C   0  0  0  0  0  0  0  0  0  0  0  0
   18.3344   14.9197    7.2454 C   0  0  0  0  0  0  0  0  0  0  0  0
   17.1864   15.7149    9.3648 C   0  0  0  0  0  0  0  0  0  0  0  0
   17.9276   17.4812    7.7797 C   0  0  0  0  0  0  0  0  0  0  0  0
   17.2714   14.6429    8.2796 C   0  0  2  0  0  0  0  0  0  0  0  0
   17.5733   13.3120    8.8898 C   0  0  0  0  0  0  0  0  0  0  0  0
   18.6482   15.3612   -0.8715 H   0  0  0  0  0  0  0  0  0  0  0  0
    5.2926   17.1319   -1.7032 C   0  0  0  0  0  0  0  0  0  0  0  0
    4.9024   16.4870   -0.3663 C   0  0  0  0  0  0  0  0  0  0  0  0
    8.1651   19.0189    0.9383 C   0  0  0  0  0  0  0  0  0  0  0  0
    4.4388   17.7580   -2.3408 O   0  0  0  0  0  0  0  0  0  0  0  0
    4.4381   17.5611    0.5909 C   0  0  0  0  0  0  0  0  0  0  0  0
    3.7933   15.4834   -0.5883 C   0  0  0  0  0  0  0  0  0  0  0  0
    5.9145   15.7547    0.3499 C   0  0  0  0  0  0  0  0  0  0  0  0
    3.3118   18.2341    0.0667 O   0  0  0  0  0  0  0  0  0  0  0  0
    4.2017   14.4628   -1.4929 O   0  0  0  0  0  0  0  0  0  0  0  0
    9.5277   15.3524    3.2680 H   0  0  0  0  0  0  0  0  0  0  0  0
   20.0566   19.2968    1.2857 H   0  0  0  0  0  0  0  0  0  0  0  0
   23.8672   18.5417    0.3674 H   0  0  0  0  0  0  0  0  0  0  0  0
   23.5930   17.6546   -1.1133 H   0  0  0  0  0  0  0  0  0  0  0  0
   22.3386   20.3587   -0.7187 H   0  0  0  0  0  0  0  0  0  0  0  0
   22.4349   20.7046   -0.0868 H   0  0  0  0  0  0  0  0  0  0  0  0
   24.9350   19.2089   -2.3787 H   0  0  0  0  0  0  0  0  0  0  0  0
   25.8398   18.4385   -1.0200 H   0  0  0  0  0  0  0  0  0  0  0  0
   25.2903   20.5156   -0.9388 H   0  0  0  0  0  0  0  0  0  0  0  0
   25.2555   20.3665    0.2389 H   0  0  0  0  0  0  0  0  0  0  0  0
   20.8904   16.4346   -4.8937 H   0  0  0  0  0  0  0  0  0  0  0  0
   19.0298   18.3061   -4.4984 H   0  0  0  0  0  0  0  0  0  0  0  0
   10.6906   13.9680    3.1492 H   0  0  0  0  0  0  0  0  0  0  0  0
    8.5382   16.6873    4.9566 H   0  0  0  0  0  0  0  0  0  0  0  0
    9.3348   17.1758    3.4739 H   0  0  0  0  0  0  0  0  0  0  0  0
   21.3423   15.0853   -3.0034 H   0  0  0  0  0  0  0  0  0  0  0  0
   20.4585   14.1999   -4.2683 H   0  0  0  0  0  0  0  0  0  0  0  0
   18.5489   17.0605   -5.3701 H   0  0  0  0  0  0  0  0  0  0  0  0
   18.7928   15.3458   -5.5981 H   0  0  0  0  0  0  0  0  0  0  0  0
   17.9914   15.9408   -4.1452 H   0  0  0  0  0  0  0  0  0  0  0  0
   10.0642   13.4845    0.8563 H   0  0  0  0  0  0  0  0  0  0  0  0
    8.8421   12.9278    1.9942 H   0  0  0  0  0  0  0  0  0  0  0  0
   11.0675   16.7412    2.5819 H   0  0  0  0  0  0  0  0  0  0  0  0
   11.3848   15.5452    1.3187 H   0  0  0  0  0  0  0  0  0  0  0  0
   10.0894   16.5195    1.6057 H   0  0  0  0  0  0  0  0  0  0  0  0
   20.9137   14.7569   -0.2991 H   0  0  0  0  0  0  0  0  0  0  0  0
   21.4222   15.8945   -1.3558 H   0  0  0  0  0  0  0  0  0  0  0  0
   19.6868   13.6412   -2.1100 H   0  0  0  0  0  0  0  0  0  0  0  0
   18.4492   14.5067   -3.0082 H   0  0  0  0  0  0  0  0  0  0  0  0
    7.3922   14.5767    1.4369 H   0  0  0  0  0  0  0  0  0  0  0  0
   11.4737   17.8005    3.7053 H   0  0  0  0  0  0  0  0  0  0  0  0
   20.2744   17.4906   -0.1164 H   0  0  0  0  0  0  0  0  0  0  0  0
    8.6882   16.5191    1.7089 H   0  0  0  0  0  0  0  0  0  0  0  0
    9.7077   16.0956    0.1849 H   0  0  0  0  0  0  0  0  0  0  0  0
    9.0209   14.0535   -1.0934 H   0  0  0  0  0  0  0  0  0  0  0  0
    7.6714   13.0714   -0.5001 H   0  0  0  0  0  0  0  0  0  0  0  0
   11.5521   18.7279    6.1095 H   0  0  0  0  0  0  0  0  0  0  0  0
   12.9991   15.0800    3.4339 H   0  0  0  0  0  0  0  0  0  0  0  0
   13.4819   17.3473    3.5011 H   0  0  0  0  0  0  0  0  0  0  0  0
   13.1391   16.0440    5.1257 H   0  0  0  0  0  0  0  0  0  0  0  0
    6.8732   17.3840    0.4539 H   0  0  0  0  0  0  0  0  0  0  0  0
    6.0401   14.7843   -1.1686 H   0  0  0  0  0  0  0  0  0  0  0  0
    6.9910   14.4504   -2.3377 H   0  0  0  0  0  0  0  0  0  0  0  0
   20.8360   16.3569    3.0553 H   0  0  0  0  0  0  0  0  0  0  0  0
   17.7351   17.1621    0.4609 H   0  0  0  0  0  0  0  0  0  0  0  0
   17.9421   15.4856    0.2830 H   0  0  0  0  0  0  0  0  0  0  0  0
   17.4840   15.9882    1.7248 H   0  0  0  0  0  0  0  0  0  0  0  0
   21.4817   15.2433    2.2856 H   0  0  0  0  0  0  0  0  0  0  0  0
   22.2540   14.8328    0.8404 H   0  0  0  0  0  0  0  0  0  0  0  0
   23.1459   15.6420    2.1196 H   0  0  0  0  0  0  0  0  0  0  0  0
    8.5273   16.2840   -2.0031 H   0  0  0  0  0  0  0  0  0  0  0  0
   14.8050   19.3837    6.9923 H   0  0  0  0  0  0  0  0  0  0  0  0
   15.3792   17.4548    5.1490 H   0  0  0  0  0  0  0  0  0  0  0  0
   14.6372   16.1534    6.0702 H   0  0  0  0  0  0  0  0  0  0  0  0
   14.4088   16.5656    4.7206 H   0  0  0  0  0  0  0  0  0  0  0  0
   17.7728   15.7184    3.3675 H   0  0  0  0  0  0  0  0  0  0  0  0
   14.7046   18.5193    9.2997 H   0  0  0  0  0  0  0  0  0  0  0  0
   12.1414   19.0677    8.0040 H   0  0  0  0  0  0  0  0  0  0  0  0
   20.1168   15.7132    5.3081 H   0  0  0  0  0  0  0  0  0  0  0  0
   17.0030   15.1431    5.6410 H   0  0  0  0  0  0  0  0  0  0  0  0
   16.8183   17.8151    9.5407 H   0  0  0  0  0  0  0  0  0  0  0  0
   12.5045   16.8307    7.0601 H   0  0  0  0  0  0  0  0  0  0  0  0
   13.6339   15.6189    7.5206 H   0  0  0  0  0  0  0  0  0  0  0  0
   12.0074   15.6767    8.1388 H   0  0  0  0  0  0  0  0  0  0  0  0
   19.3586   15.1107    7.6069 H   0  0  0  0  0  0  0  0  0  0  0  0
   16.4172   15.4451   10.0836 H   0  0  0  0  0  0  0  0  0  0  0  0
   18.1393   15.7649    9.8837 H   0  0  0  0  0  0  0  0  0  0  0  0
   18.4769   16.6670    7.4436 H   0  0  0  0  0  0  0  0  0  0  0  0
   17.5108   17.9465    6.9070 H   0  0  0  0  0  0  0  0  0  0  0  0
   18.6654   18.1030    8.2383 H   0  0  0  0  0  0  0  0  0  0  0  0
   16.3131   14.5734    7.7810 H   0  0  0  0  0  0  0  0  0  0  0  0
   18.5282   13.3538    9.4011 H   0  0  0  0  0  0  0  0  0  0  0  0
   16.8048   13.0381    9.6019 H   0  0  0  0  0  0  0  0  0  0  0  0
   17.6220   12.5551    8.1160 H   0  0  0  0  0  0  0  0  0  0  0  0
    7.1265   19.2770    1.1162 H   0  0  0  0  0  0  0  0  0  0  0  0
    8.5347   18.4551    1.7835 H   0  0  0  0  0  0  0  0  0  0  0  0
    8.7422   19.9187    0.8308 H   0  0  0  0  0  0  0  0  0  0  0  0
    4.1768   17.1116    1.5513 H   0  0  0  0  0  0  0  0  0  0  0  0
    5.2309   18.2795    0.7649 H   0  0  0  0  0  0  0  0  0  0  0  0
    3.5219   15.0205    0.3633 H   0  0  0  0  0  0  0  0  0  0  0  0
    2.9251   15.9766   -0.9922 H   0  0  0  0  0  0  0  0  0  0  0  0
    6.5816   15.0596    0.0556 H   0  0  0  0  0  0  0  0  0  0  0  0
    6.8284   16.0425    0.4868 H   0  0  0  0  0  0  0  0  0  0  0  0
    5.7946   15.3076    1.2289 H   0  0  0  0  0  0  0  0  0  0  0  0
    3.5573   18.6358   -0.8006 H   0  0  0  0  0  0  0  0  0  0  0  0
    4.4621   14.8817   -2.3430 H   0  0  0  0  0  0  0  0  0  0  0  0
  1  2  1  0  0  0  0
  1  3  1  0  0  0  0
  1  4  1  0  0  0  0
  2  5  1  0  0  0  0
  2  6  1  0  0  0  0
  2 76  1  1  0  0  0
  3  7  1  0  0  0  0
  3  8  2  0  0  0  0
  4  9  1  0  0  0  0
  4 77  1  0  0  0  0
  4 78  1  0  0  0  0
  5 10  1  0  0  0  0
  5 11  2  0  0  0  0
  6 12  1  0  0  0  0
  6 79  1  0  0  0  0
  6 80  1  0  0  0  0
  7 13  1  0  0  0  0
  7 14  2  0  0  0  0
  9 12  1  0  0  0  0
  9 81  1  0  0  0  0
  9 82  1  0  0  0  0
 10 15  1  0  0  0  0
 12 83  1  0  0  0  0
 12 84  1  0  0  0  0
 13 16  1  0  0  0  0
 13 17  1  0  0  0  0
 13 18  1  6  0  0  0
 15 20  1  0  0  0  0
 15 75  1  1  0  0  0
 15 19  1  0  0  0  0
 17 22  1  0  0  0  0
 17 23  1  0  0  0  0
 17 85  1  6  0  0  0
 18 86  1  0  0  0  0
 19 24  1  0  0  0  0
 19 25  1  0  0  0  0
 19 87  1  6  0  0  0
 20 26  1  0  0  0  0
 20 88  1  0  0  0  0
 20 89  1  0  0  0  0
 21 16  1  0  0  0  0
 21 27  1  0  0  0  0
 21 28  1  0  0  0  0
 21 65  1  1  0  0  0
 22 28  1  0  0  0  0
 22 90  1  0  0  0  0
 22 91  1  0  0  0  0
 23 92  1  0  0  0  0
 23 93  1  0  0  0  0
 23 94  1  0  0  0  0
 24 95  1  0  0  0  0
 24 96  1  0  0  0  0
 25 97  1  0  0  0  0
 25 98  1  0  0  0  0
 25 99  1  0  0  0  0
 26 30  1  0  0  0  0
 26 31  2  0  0  0  0
 27 32  1  0  0  0  0
 27100  1  0  0  0  0
 27101  1  0  0  0  0
 28102  1  0  0  0  0
 28103  1  0  0  0  0
 29 33  1  0  0  0  0
 29 34  1  0  0  0  0
 29104  1  1  0  0  0
 29 24  1  0  0  0  0
 30 35  1  0  0  0  0
 30105  1  6  0  0  0
 30 36  1  0  0  0  0
 32 37  1  0  0  0  0
 32 38  1  0  0  0  0
 32106  1  6  0  0  0
 33 39  1  0  0  0  0
 33107  1  0  0  0  0
 33108  1  0  0  0  0
 34 40  1  0  0  0  0
 34109  1  0  0  0  0
 34110  1  0  0  0  0
 35 41  2  0  0  0  0
 35111  1  0  0  0  0
 36112  1  0  0  0  0
 36113  1  0  0  0  0
 36114  1  0  0  0  0
 37 42  2  0  0  0  0
 37 43  1  0  0  0  0
 38 44  1  0  0  0  0
 39 45  1  0  0  0  0
 39115  1  1  0  0  0
 39 46  1  0  0  0  0
 40 45  1  0  0  0  0
 40116  1  0  0  0  0
 40117  1  0  0  0  0
 41 47  1  0  0  0  0
 41 48  1  0  0  0  0
 42 49  1  0  0  0  0
 42118  1  0  0  0  0
 43119  1  0  0  0  0
 43120  1  0  0  0  0
 43121  1  0  0  0  0
 44122  1  0  0  0  0
 44123  1  0  0  0  0
 44124  1  0  0  0  0
 45 50  1  0  0  0  0
 45125  1  6  0  0  0
 46 68  1  0  0  0  0
 47 51  1  0  0  0  0
 47 52  1  0  0  0  0
 47126  1  6  0  0  0
 48127  1  0  0  0  0
 48128  1  0  0  0  0
 48129  1  0  0  0  0
 49 53  2  0  0  0  0
 49130  1  0  0  0  0
 50 66  1  0  0  0  0
 51 54  1  0  0  0  0
 51 55  1  0  0  0  0
 51131  1  1  0  0  0
 52132  1  0  0  0  0
 53 56  1  0  0  0  0
 53133  1  0  0  0  0
 54 57  1  0  0  0  0
 54 58  2  0  0  0  0
 55 59  1  0  0  0  0
 56 60  2  0  0  0  0
 56134  1  0  0  0  0
 57 61  1  0  0  0  0
 57135  1  1  0  0  0
 57 62  1  0  0  0  0
 59136  1  0  0  0  0
 59137  1  0  0  0  0
 59138  1  0  0  0  0
 60 63  1  0  0  0  0
 60139  1  0  0  0  0
 61 63  1  0  0  0  0
 61140  1  0  0  0  0
 61141  1  0  0  0  0
 62142  1  0  0  0  0
 62143  1  0  0  0  0
 62144  1  0  0  0  0
 63 64  1  0  0  0  0
 63145  1  6  0  0  0
 64146  1  0  0  0  0
 64147  1  0  0  0  0
 64148  1  0  0  0  0
 66 67  1  0  0  0  0
 66 69  2  0  0  0  0
 67 70  1  0  0  0  0
 67 71  1  0  0  0  0
 67 72  1  0  0  0  0
 68149  1  0  0  0  0
 68150  1  0  0  0  0
 68151  1  0  0  0  0
 70 73  1  0  0  0  0
 70152  1  0  0  0  0
 70153  1  0  0  0  0
 71 74  1  0  0  0  0
 71154  1  0  0  0  0
 71155  1  0  0  0  0
 72156  1  0  0  0  0
 72157  1  0  0  0  0
 72158  1  0  0  0  0
 73159  1  0  0  0  0
 74160  1  0  0  0  0
M  END
>  <DRUGBANK_ID>
DB06287

>  <COMMON_NAME>
Temsirolimus

>  <CAS_NUMBER>
162635-04-3

>  <UNII>
624KN6GM2T

>  <SYNONYMS>
Temsirolimus

$$$$
