
 OpenBabel10282417123D

 20 21  0  0  0  0  0  0  0  0999 V2000
    1.0803    0.0124   -0.1557 N   0  0  0  0  0  0  0  0  0  0  0  0
    0.3590    1.0667   -0.6920 C   0  0  0  0  0  0  0  0  0  0  0  0
    0.6320    1.5016   -1.9892 C   0  0  0  0  0  0  0  0  0  0  0  0
   -0.2271    2.3972   -2.6234 C   0  0  0  0  0  0  0  0  0  0  0  0
   -1.1672    3.0940   -1.8649 C   0  0  0  0  0  0  0  0  0  0  0  0
   -1.9009    4.2196   -2.4659 C   0  0  0  0  0  0  0  0  0  0  0  0
   -1.7788    4.5035   -3.6572 O   0  0  0  0  0  0  0  0  0  0  0  0
   -2.6945    4.9573   -1.6261 N   0  0  0  0  0  0  0  0  0  0  0  0
   -2.8301    4.6725   -0.2750 N   0  0  0  0  0  0  0  0  0  0  0  0
   -2.2101    3.6088    0.3278 C   0  0  0  0  0  0  0  0  0  0  0  0
   -2.3468    3.3765    1.5286 O   0  0  0  0  0  0  0  0  0  0  0  0
   -1.3366    2.7814   -0.5191 C   0  0  0  0  0  0  0  0  0  0  0  0
   -0.6339    1.7106    0.0447 C   0  0  0  0  0  0  0  0  0  0  0  0
    0.6322   -0.5458    0.5610 H   0  0  0  0  0  0  0  0  0  0  0  0
    2.0894    0.0933   -0.1028 H   0  0  0  0  0  0  0  0  0  0  0  0
    1.4809    1.0999   -2.5358 H   0  0  0  0  0  0  0  0  0  0  0  0
   -0.1421    2.5666   -3.6945 H   0  0  0  0  0  0  0  0  0  0  0  0
   -3.1641    5.7703   -2.0125 H   0  0  0  0  0  0  0  0  0  0  0  0
   -3.4150    5.2681    0.3030 H   0  0  0  0  0  0  0  0  0  0  0  0
   -0.8388    1.4131    1.0705 H   0  0  0  0  0  0  0  0  0  0  0  0
  1  2  1  0  0  0  0
  1 14  1  0  0  0  0
  1 15  1  0  0  0  0
  2  3  2  0  0  0  0
  2 13  1  0  0  0  0
  3  4  1  0  0  0  0
  3 16  1  0  0  0  0
  4  5  2  0  0  0  0
  4 17  1  0  0  0  0
  5  6  1  0  0  0  0
  5 12  1  0  0  0  0
  6  7  2  0  0  0  0
  6  8  1  0  0  0  0
  8  9  1  0  0  0  0
  8 18  1  0  0  0  0
  9 10  1  0  0  0  0
  9 19  1  0  0  0  0
 10 11  2  0  0  0  0
 10 12  1  0  0  0  0
 12 13  2  0  0  0  0
 13 20  1  0  0  0  0
M  END
>  <DRUGBANK_ID>
DB02041

>  <SECONDARY_ACCESSION_NUMBERS>
EXPT00549

>  <COMMON_NAME>
Isoluminol

>  <UNII>
5ID1912ANA

>  <SYNONYMS>
4-aminophthalhydrazide

$$$$
