DQN
 OpenBabel10282417123D

 24 24  0  0  0  0  0  0  0  0999 V2000
    1.4240   -0.2544    0.1528 C   0  0  0  0  0  0  0  0  0  0  0  0
    2.5957   -0.4686    0.4514 O   0  0  0  0  0  0  0  0  0  0  0  0
    0.9219    1.1222   -0.0566 C   0  0  0  0  0  0  0  0  0  0  0  0
    1.9609    2.1842   -0.2453 C   0  0  0  0  0  0  0  0  0  0  0  0
   -0.3997    1.3721   -0.0718 C   0  0  0  0  0  0  0  0  0  0  0  0
   -0.9657    2.7507   -0.2614 C   0  0  0  0  0  0  0  0  0  0  0  0
   -1.3744    0.2534    0.1009 C   0  0  0  0  0  0  0  0  0  0  0  0
   -2.5597    0.4726    0.3312 O   0  0  0  0  0  0  0  0  0  0  0  0
   -0.8552   -1.1337   -0.0701 C   0  0  0  0  0  0  0  0  0  0  0  0
   -1.8317   -2.2582   -0.2561 C   0  0  0  0  0  0  0  0  0  0  0  0
    0.4699   -1.3644   -0.0573 C   0  0  0  0  0  0  0  0  0  0  0  0
    1.0589   -2.7286   -0.2519 C   0  0  0  0  0  0  0  0  0  0  0  0
    1.8254    2.6668   -1.2197 H   0  0  0  0  0  0  0  0  0  0  0  0
    1.8824    2.9367    0.5454 H   0  0  0  0  0  0  0  0  0  0  0  0
    2.9806    1.7925   -0.2278 H   0  0  0  0  0  0  0  0  0  0  0  0
   -1.5955    2.7910   -1.1549 H   0  0  0  0  0  0  0  0  0  0  0  0
   -1.5450    3.0638    0.6115 H   0  0  0  0  0  0  0  0  0  0  0  0
   -0.1843    3.5051   -0.4022 H   0  0  0  0  0  0  0  0  0  0  0  0
   -1.6568   -2.7450   -1.2233 H   0  0  0  0  0  0  0  0  0  0  0  0
   -1.6971   -3.0101    0.5304 H   0  0  0  0  0  0  0  0  0  0  0  0
   -2.8760   -1.9411   -0.2354 H   0  0  0  0  0  0  0  0  0  0  0  0
    0.7212   -3.4072    0.5371 H   0  0  0  0  0  0  0  0  0  0  0  0
    0.7546   -3.1310   -1.2245 H   0  0  0  0  0  0  0  0  0  0  0  0
    2.1515   -2.7246   -0.2403 H   0  0  0  0  0  0  0  0  0  0  0  0
  1  2  2  0  0  0  0
  1  3  1  0  0  0  0
  1 11  1  0  0  0  0
  3  4  1  0  0  0  0
  3  5  2  0  0  0  0
  4 13  1  0  0  0  0
  4 14  1  0  0  0  0
  4 15  1  0  0  0  0
  5  6  1  0  0  0  0
  5  7  1  0  0  0  0
  6 16  1  0  0  0  0
  6 17  1  0  0  0  0
  6 18  1  0  0  0  0
  7  8  2  0  0  0  0
  7  9  1  0  0  0  0
  9 10  1  0  0  0  0
  9 11  2  0  0  0  0
 10 19  1  0  0  0  0
 10 20  1  0  0  0  0
 10 21  1  0  0  0  0
 11 12  1  0  0  0  0
 12 22  1  0  0  0  0
 12 23  1  0  0  0  0
 12 24  1  0  0  0  0
M  END
>  <DRUGBANK_ID>
DB01927

>  <SECONDARY_ACCESSION_NUMBERS>
EXPT01265

>  <COMMON_NAME>
Duroquinone

>  <CAS_NUMBER>
527-17-3

>  <UNII>
X0Q8791R69

$$$$
