
 OpenBabel10282417203D

 32 32  0  0  0  0  0  0  0  0999 V2000
   -2.4136   -1.1991    0.0490 O   0  0  0  0  0  0  0  0  0  0  0  0
    2.4088   -1.2127    0.0586 O   0  0  0  0  0  0  0  0  0  0  0  0
    0.0088    2.5865   -0.0007 O   0  0  0  0  0  0  0  0  0  0  0  0
   -1.1536    0.6548    0.0061 N   0  0  0  0  0  0  0  0  0  0  0  0
    1.1598    0.6481   -0.0161 N   0  0  0  0  0  0  0  0  0  0  0  0
   -0.0026   -1.5326   -0.0659 C   0  0  0  0  0  0  0  0  0  0  0  0
   -1.2857   -0.7049    0.0146 C   0  0  0  0  0  0  0  0  0  0  0  0
    1.2842   -0.7120    0.0131 C   0  0  0  0  0  0  0  0  0  0  0  0
   -0.0022   -2.5037    1.1403 C   0  0  0  0  0  0  0  0  0  0  0  0
   -0.0066   -2.2270   -1.4576 C   0  0  0  0  0  0  0  0  0  0  0  0
    0.0051    1.3628   -0.0071 C   0  0  0  0  0  0  0  0  0  0  0  0
   -0.0008   -3.8463    0.9969 C   0  0  0  0  0  0  0  0  0  0  0  0
   -0.0035   -1.8399    2.5023 C   0  0  0  0  0  0  0  0  0  0  0  0
    0.0398   -1.2550   -2.6314 C   0  0  0  0  0  0  0  0  0  0  0  0
   -0.0075   -4.8708    2.0900 C   0  0  0  0  0  0  0  0  0  0  0  0
   -1.2751   -5.6996    2.0251 C   0  0  0  0  0  0  0  0  0  0  0  0
   -2.0109    1.1896    0.0263 H   0  0  0  0  0  0  0  0  0  0  0  0
    2.0202    1.1779   -0.0047 H   0  0  0  0  0  0  0  0  0  0  0  0
    0.8581   -2.8978   -1.5490 H   0  0  0  0  0  0  0  0  0  0  0  0
   -0.9072   -2.8463   -1.5686 H   0  0  0  0  0  0  0  0  0  0  0  0
   -0.0004   -4.2919    0.0028 H   0  0  0  0  0  0  0  0  0  0  0  0
    0.8905   -1.2235    2.6293 H   0  0  0  0  0  0  0  0  0  0  0  0
   -0.8930   -1.2168    2.6271 H   0  0  0  0  0  0  0  0  0  0  0  0
   -0.0084   -2.5362    3.3401 H   0  0  0  0  0  0  0  0  0  0  0  0
    0.9504   -0.6497   -2.6079 H   0  0  0  0  0  0  0  0  0  0  0  0
    0.0322   -1.8070   -3.5749 H   0  0  0  0  0  0  0  0  0  0  0  0
   -0.8239   -0.5847   -2.6261 H   0  0  0  0  0  0  0  0  0  0  0  0
    0.8785   -5.5051    1.9841 H   0  0  0  0  0  0  0  0  0  0  0  0
    0.0530   -4.4327    3.0851 H   0  0  0  0  0  0  0  0  0  0  0  0
   -1.3184   -6.2834    1.1004 H   0  0  0  0  0  0  0  0  0  0  0  0
   -1.3058   -6.3883    2.8735 H   0  0  0  0  0  0  0  0  0  0  0  0
   -2.1652   -5.0617    2.0716 H   0  0  0  0  0  0  0  0  0  0  0  0
  1  7  2  0  0  0  0
  2  8  2  0  0  0  0
  3 11  2  0  0  0  0
  4  7  1  0  0  0  0
  4 11  1  0  0  0  0
  4 17  1  0  0  0  0
  5  8  1  0  0  0  0
  5 11  1  0  0  0  0
  5 18  1  0  0  0  0
  6  7  1  0  0  0  0
  6  8  1  0  0  0  0
  6  9  1  0  0  0  0
  6 10  1  0  0  0  0
  9 12  2  0  0  0  0
  9 13  1  0  0  0  0
 10 14  1  0  0  0  0
 10 19  1  0  0  0  0
 10 20  1  0  0  0  0
 12 15  1  0  0  0  0
 12 21  1  0  0  0  0
 13 22  1  0  0  0  0
 13 23  1  0  0  0  0
 13 24  1  0  0  0  0
 14 25  1  0  0  0  0
 14 26  1  0  0  0  0
 14 27  1  0  0  0  0
 15 16  1  0  0  0  0
 15 28  1  0  0  0  0
 15 29  1  0  0  0  0
 16 30  1  0  0  0  0
 16 31  1  0  0  0  0
 16 32  1  0  0  0  0
M  END
>  <DRUGBANK_ID>
DB13377

>  <COMMON_NAME>
Vinbarbital

>  <CAS_NUMBER>
125-42-8

>  <UNII>
7NZH2C1T6O

>  <SYNONYMS>
Vinbarbital; Vinbarbitalum

$$$$
