
 OpenBabel10282417133D

 26 26  0  0  1  0  0  0  0  0999 V2000
   -0.6502   -0.6525   -0.6837 C   0  0  0  0  0  0  0  0  0  0  0  0
   -1.1928   -2.0994   -0.5646 C   0  0  0  0  0  0  0  0  0  0  0  0
   -0.5018   -3.1969   -1.4633 C   0  0  1  0  0  0  0  0  0  0  0  0
    1.0461   -3.4173   -1.3332 C   0  0  0  0  0  0  0  0  0  0  0  0
    1.5505   -3.9540   -0.0837 O   0  0  0  0  0  0  0  0  0  0  0  0
    0.9843   -3.1312    1.3288 P   0  0  0  0  0  0  0  0  0  0  0  0
    1.1953   -1.7556    0.6430 O   0  0  0  0  0  0  0  0  0  0  0  0
   -0.2756   -4.1086    1.1422 O   0  0  0  0  0  0  0  0  0  0  0  0
    0.4775   -2.3948    2.5930 O   0  0  0  0  0  0  0  0  0  0  0  0
   -1.1234   -4.5545   -1.4000 N   0  0  0  0  0  0  0  0  0  0  0  0
    0.6206   -0.1520   -0.9737 C   0  0  0  0  0  0  0  0  0  0  0  0
    0.7209    1.0559   -0.3169 N   0  0  0  0  0  0  0  0  0  0  0  0
   -0.5664    1.4001   -0.0206 C   0  0  0  0  0  0  0  0  0  0  0  0
   -1.3804    0.3911   -0.1307 N   0  0  0  0  0  0  0  0  0  0  0  0
   -1.1921   -2.3513    0.5010 H   0  0  0  0  0  0  0  0  0  0  0  0
   -2.2763   -2.1087   -0.7347 H   0  0  0  0  0  0  0  0  0  0  0  0
   -0.6998   -2.8547   -2.4815 H   0  0  0  0  0  0  0  0  0  0  0  0
    1.3728   -4.1105   -2.1174 H   0  0  0  0  0  0  0  0  0  0  0  0
    1.5957   -2.5119   -1.5664 H   0  0  0  0  0  0  0  0  0  0  0  0
    0.7410   -1.1422    1.2690 H   0  0  0  0  0  0  0  0  0  0  0  0
    0.0744   -5.0162    1.2804 H   0  0  0  0  0  0  0  0  0  0  0  0
   -0.6893   -5.1451   -2.1125 H   0  0  0  0  0  0  0  0  0  0  0  0
   -0.8376   -4.9769   -0.5122 H   0  0  0  0  0  0  0  0  0  0  0  0
    1.5677   -0.6171   -1.2300 H   0  0  0  0  0  0  0  0  0  0  0  0
    1.5654    1.5396   -0.0796 H   0  0  0  0  0  0  0  0  0  0  0  0
   -0.8075    2.4090    0.3040 H   0  0  0  0  0  0  0  0  0  0  0  0
  1  2  1  0  0  0  0
  1 11  2  0  0  0  0
  1 14  1  0  0  0  0
  2  3  1  0  0  0  0
  2 15  1  0  0  0  0
  2 16  1  0  0  0  0
  3  4  1  0  0  0  0
  3 10  1  0  0  0  0
  3 17  1  6  0  0  0
  4  5  1  0  0  0  0
  4 18  1  0  0  0  0
  4 19  1  0  0  0  0
  5  6  1  0  0  0  0
  6  7  1  0  0  0  0
  6  8  1  0  0  0  0
  6  9  2  0  0  0  0
  7 20  1  0  0  0  0
  8 21  1  0  0  0  0
 10 22  1  0  0  0  0
 10 23  1  0  0  0  0
 11 12  1  0  0  0  0
 11 24  1  0  0  0  0
 12 13  1  0  0  0  0
 12 25  1  0  0  0  0
 13 14  2  0  0  0  0
 13 26  1  0  0  0  0
M  END
>  <DRUGBANK_ID>
DB03997

>  <SECONDARY_ACCESSION_NUMBERS>
EXPT01781

>  <COMMON_NAME>
L-histidinol phosphate

>  <CAS_NUMBER>
25679-93-0

>  <SYNONYMS>
phosphoric acid mono-[2-amino-3-(3H-imidazol-4-yl)-propyl]ester

$$$$
