
 OpenBabel10282417153D

 51 53  0  0  0  0  0  0  0  0999 V2000
    1.0566   -0.1597    0.0348 C   0  0  0  0  0  0  0  0  0  0  0  0
    0.4913   -0.1579    1.4516 C   0  0  0  0  0  0  0  0  0  0  0  0
    0.9758    1.0052    2.2894 C   0  0  0  0  0  0  0  0  0  0  0  0
    1.7606    1.0145    3.4742 C   0  0  0  0  0  0  0  0  0  0  0  0
    1.8140    2.4137    3.8870 C   0  0  0  0  0  0  0  0  0  0  0  0
    1.1977    3.1772    2.8908 C   0  0  0  0  0  0  0  0  0  0  0  0
    0.6208    2.3160    1.9723 N   0  0  0  0  0  0  0  0  0  0  0  0
   -0.2245    2.7528    0.8349 C   0  0  0  0  0  0  0  0  0  0  0  0
   -1.5494    3.3576    1.2319 C   0  0  0  0  0  0  0  0  0  0  0  0
   -1.6316    4.5476    1.9495 C   0  0  0  0  0  0  0  0  0  0  0  0
   -2.7749    4.9550    2.6029 C   0  0  0  0  0  0  0  0  0  0  0  0
   -3.9602    4.3438    2.2706 C   0  0  0  0  0  0  0  0  0  0  0  0
   -3.9610    3.3172    1.3254 C   0  0  0  0  0  0  0  0  0  0  0  0
   -2.7587    2.7636    0.8746 C   0  0  0  0  0  0  0  0  0  0  0  0
    1.2283    4.5864    2.9561 C   0  0  0  0  0  0  0  0  0  0  0  0
    1.6102    5.2531    4.1051 C   0  0  0  0  0  0  0  0  0  0  0  0
    2.1872    4.5400    5.1074 C   0  0  0  0  0  0  0  0  0  0  0  0
    2.3501    3.1674    4.9765 C   0  0  0  0  0  0  0  0  0  0  0  0
    3.0089    2.5036    5.9276 O   0  0  0  0  0  0  0  0  0  0  0  0
    3.7411    3.0816    6.9820 C   0  0  0  0  0  0  0  0  0  0  0  0
    4.8320    4.0414    6.5609 C   0  0  0  0  0  0  0  0  0  0  0  0
    4.8307    5.2269    6.8778 O   0  0  0  0  0  0  0  0  0  0  0  0
    5.7691    3.4519    5.7660 O   0  0  0  0  0  0  0  0  0  0  0  0
    6.7279    4.3819    5.2617 C   0  0  0  0  0  0  0  0  0  0  0  0
    2.3516   -0.2260    4.1021 C   0  0  0  0  0  0  0  0  0  0  0  0
    2.2051   -1.3358    3.5719 O   0  0  0  0  0  0  0  0  0  0  0  0
    3.1976   -0.3282    5.4023 C   0  0  0  0  0  0  0  0  0  0  0  0
    3.6064    0.5311    6.1641 O   0  0  0  0  0  0  0  0  0  0  0  0
    3.6432   -1.5142    5.8743 N   0  0  0  0  0  0  0  0  0  0  0  0
    0.7746    0.7112   -0.5584 H   0  0  0  0  0  0  0  0  0  0  0  0
    0.6878   -1.0318   -0.5126 H   0  0  0  0  0  0  0  0  0  0  0  0
    2.1489   -0.1739    0.0496 H   0  0  0  0  0  0  0  0  0  0  0  0
   -0.6065   -0.1567    1.4348 H   0  0  0  0  0  0  0  0  0  0  0  0
    0.7604   -1.1132    1.9032 H   0  0  0  0  0  0  0  0  0  0  0  0
    0.3791    3.4128    0.2020 H   0  0  0  0  0  0  0  0  0  0  0  0
   -0.4737    1.8802    0.2361 H   0  0  0  0  0  0  0  0  0  0  0  0
   -0.8148    5.2301    2.0222 H   0  0  0  0  0  0  0  0  0  0  0  0
   -2.7118    5.7744    3.3124 H   0  0  0  0  0  0  0  0  0  0  0  0
   -4.8780    4.7078    2.7143 H   0  0  0  0  0  0  0  0  0  0  0  0
   -4.9050    2.9378    0.9518 H   0  0  0  0  0  0  0  0  0  0  0  0
   -2.7814    1.8865    0.2313 H   0  0  0  0  0  0  0  0  0  0  0  0
    0.9392    5.2051    2.1235 H   0  0  0  0  0  0  0  0  0  0  0  0
    1.5074    6.3266    4.2077 H   0  0  0  0  0  0  0  0  0  0  0  0
    2.5562    5.0761    5.9700 H   0  0  0  0  0  0  0  0  0  0  0  0
    3.0405    3.5449    7.6812 H   0  0  0  0  0  0  0  0  0  0  0  0
    4.2235    2.2768    7.5539 H   0  0  0  0  0  0  0  0  0  0  0  0
    6.2377    5.1124    4.6091 H   0  0  0  0  0  0  0  0  0  0  0  0
    7.2402    4.8872    6.0866 H   0  0  0  0  0  0  0  0  0  0  0  0
    7.4737    3.8407    4.6731 H   0  0  0  0  0  0  0  0  0  0  0  0
    3.5307   -2.4076    5.4361 H   0  0  0  0  0  0  0  0  0  0  0  0
    4.1868   -1.3528    6.7164 H   0  0  0  0  0  0  0  0  0  0  0  0
  1  2  1  0  0  0  0
  1 30  1  0  0  0  0
  1 31  1  0  0  0  0
  1 32  1  0  0  0  0
  2  3  1  0  0  0  0
  2 33  1  0  0  0  0
  2 34  1  0  0  0  0
  3  4  2  0  0  0  0
  3  7  1  0  0  0  0
  4  5  1  0  0  0  0
  4 25  1  0  0  0  0
  5  6  1  0  0  0  0
  5 18  2  0  0  0  0
  6  7  1  0  0  0  0
  6 15  2  0  0  0  0
  7  8  1  0  0  0  0
  8  9  1  0  0  0  0
  8 35  1  0  0  0  0
  8 36  1  0  0  0  0
  9 10  2  0  0  0  0
  9 14  1  0  0  0  0
 10 11  1  0  0  0  0
 10 37  1  0  0  0  0
 11 12  2  0  0  0  0
 11 38  1  0  0  0  0
 12 13  1  0  0  0  0
 12 39  1  0  0  0  0
 13 14  2  0  0  0  0
 13 40  1  0  0  0  0
 14 41  1  0  0  0  0
 15 16  1  0  0  0  0
 15 42  1  0  0  0  0
 16 17  2  0  0  0  0
 16 43  1  0  0  0  0
 17 18  1  0  0  0  0
 17 44  1  0  0  0  0
 18 19  1  0  0  0  0
 19 20  1  0  0  0  0
 20 21  1  0  0  0  0
 20 45  1  0  0  0  0
 20 46  1  0  0  0  0
 21 22  2  0  0  0  0
 21 23  1  0  0  0  0
 23 24  1  0  0  0  0
 24 47  1  0  0  0  0
 24 48  1  0  0  0  0
 24 49  1  0  0  0  0
 25 26  2  0  0  0  0
 25 27  1  0  0  0  0
 27 28  2  0  0  0  0
 27 29  1  0  0  0  0
 29 50  1  0  0  0  0
 29 51  1  0  0  0  0
M  END
>  <DRUGBANK_ID>
DB05737

>  <SECONDARY_ACCESSION_NUMBERS>
DB12164

>  <COMMON_NAME>
Varespladib methyl

>  <CAS_NUMBER>
172733-08-3

>  <UNII>
0NB98NBX3D

>  <SYNONYMS>
Varespladib methyl; Varespladib methyl ester

$$$$
