BH7
 OpenBabel10282417133D

 51 52  0  0  0  0  0  0  0  0999 V2000
   -1.1663   -1.2453    0.2295 N   0  0  0  0  0  0  0  0  0  0  0  0
    0.0519   -1.0211    0.9778 C   0  0  2  0  0  0  0  0  0  0  0  0
    0.0705    0.4921    1.1385 C   0  0  2  0  0  0  0  0  0  0  0  0
   -1.1035    0.9588    0.4100 N   0  0  0  0  0  0  0  0  0  0  0  0
   -1.7811   -0.0798   -0.1468 C   0  0  0  0  0  0  0  0  0  0  0  0
    1.3176   -1.4922    0.2369 C   0  0  0  0  0  0  0  0  0  0  0  0
    1.8205   -0.1203   -0.7907 S   0  0  0  0  0  0  0  0  0  0  0  0
    1.3881    0.9627    0.5678 C   0  0  1  0  0  0  0  0  0  0  0  0
   -2.7834    0.0242   -0.8574 O   0  0  0  0  0  0  0  0  0  0  0  0
    1.2424    2.3502    0.1271 C   0  0  0  0  0  0  0  0  0  0  0  0
    0.9025    3.2096    1.3890 C   0  0  0  0  0  0  0  0  0  0  0  0
    2.0584    3.4445    2.3167 C   0  0  0  0  0  0  0  0  0  0  0  0
    3.2428    4.0776    1.5638 C   0  0  0  0  0  0  0  0  0  0  0  0
    3.0841    5.5323    1.0119 C   0  0  0  0  0  0  0  0  0  0  0  0
    3.7908    6.4298    1.4789 O   0  0  0  0  0  0  0  0  0  0  0  0
    2.2288    5.8898   -0.0094 N   0  0  0  0  0  0  0  0  0  0  0  0
    1.3699    5.0396   -0.7758 C   0  0  0  0  0  0  0  0  0  0  0  0
   -0.1490    5.1661   -0.4831 C   0  0  0  0  0  0  0  0  0  0  0  0
   -0.6236    6.3883   -1.1945 C   0  0  0  0  0  0  0  0  0  0  0  0
   -0.4753    6.1637   -2.6921 C   0  0  0  0  0  0  0  0  0  0  0  0
   -1.2867    4.9671   -3.2007 C   0  0  0  0  0  0  0  0  0  0  0  0
   -2.7578    5.1576   -2.9072 C   0  0  0  0  0  0  0  0  0  0  0  0
   -3.5209    5.2944   -4.0071 O   0  0  0  0  0  0  0  0  0  0  0  0
   -3.2325    5.2073   -1.7832 O   0  0  0  0  0  0  0  0  0  0  0  0
   -0.0283   -1.5028    1.9536 H   0  0  0  0  0  0  0  0  0  0  0  0
   -0.0431    0.8269    2.1749 H   0  0  0  0  0  0  0  0  0  0  0  0
    2.2040    0.8963    1.2935 H   0  0  0  0  0  0  0  0  0  0  0  0
   -1.5311   -2.1384   -0.0575 H   0  0  0  0  0  0  0  0  0  0  0  0
   -1.3931    1.9158    0.2254 H   0  0  0  0  0  0  0  0  0  0  0  0
    2.1348   -1.6367    0.9523 H   0  0  0  0  0  0  0  0  0  0  0  0
    1.1748   -2.3841   -0.3651 H   0  0  0  0  0  0  0  0  0  0  0  0
    2.2048    2.5366   -0.3702 H   0  0  0  0  0  0  0  0  0  0  0  0
    0.4908    2.4638   -0.6726 H   0  0  0  0  0  0  0  0  0  0  0  0
    0.6894    4.2351    1.2182 H   0  0  0  0  0  0  0  0  0  0  0  0
   -0.0424    2.9193    1.8558 H   0  0  0  0  0  0  0  0  0  0  0  0
    1.7234    4.1324    3.1027 H   0  0  0  0  0  0  0  0  0  0  0  0
    2.3135    2.5001    2.8035 H   0  0  0  0  0  0  0  0  0  0  0  0
    4.0642    4.1067    2.2895 H   0  0  0  0  0  0  0  0  0  0  0  0
    3.6139    3.4223    0.7684 H   0  0  0  0  0  0  0  0  0  0  0  0
    2.2558    6.8643   -0.2738 H   0  0  0  0  0  0  0  0  0  0  0  0
    1.6270    4.9148   -1.8297 H   0  0  0  0  0  0  0  0  0  0  0  0
    1.7920    4.1450   -0.4714 H   0  0  0  0  0  0  0  0  0  0  0  0
   -0.7022    4.2572   -0.7691 H   0  0  0  0  0  0  0  0  0  0  0  0
   -0.4592    5.3302    0.5578 H   0  0  0  0  0  0  0  0  0  0  0  0
   -1.6473    6.6178   -0.8910 H   0  0  0  0  0  0  0  0  0  0  0  0
   -0.0188    7.2259   -0.8359 H   0  0  0  0  0  0  0  0  0  0  0  0
   -0.7407    7.0864   -3.2024 H   0  0  0  0  0  0  0  0  0  0  0  0
    0.5756    5.9961   -2.9505 H   0  0  0  0  0  0  0  0  0  0  0  0
   -1.0988    4.8408   -4.2697 H   0  0  0  0  0  0  0  0  0  0  0  0
   -0.9799    4.0096   -2.7574 H   0  0  0  0  0  0  0  0  0  0  0  0
   -3.0438    5.1788   -4.8475 H   0  0  0  0  0  0  0  0  0  0  0  0
  1  2  1  0  0  0  0
  1  5  1  0  0  0  0
  1 28  1  0  0  0  0
  2  3  1  0  0  0  0
  2  6  1  0  0  0  0
  2 25  1  1  0  0  0
  3  4  1  0  0  0  0
  3  8  1  0  0  0  0
  3 26  1  1  0  0  0
  4  5  1  0  0  0  0
  4 29  1  0  0  0  0
  5  9  2  0  0  0  0
  6  7  1  0  0  0  0
  6 30  1  0  0  0  0
  6 31  1  0  0  0  0
  7  8  1  0  0  0  0
  8 10  1  0  0  0  0
  8 27  1  1  0  0  0
 10 11  1  0  0  0  0
 10 32  1  0  0  0  0
 10 33  1  0  0  0  0
 11 12  1  0  0  0  0
 11 34  1  0  0  0  0
 11 35  1  0  0  0  0
 12 13  1  0  0  0  0
 12 36  1  0  0  0  0
 12 37  1  0  0  0  0
 13 14  1  0  0  0  0
 13 38  1  0  0  0  0
 13 39  1  0  0  0  0
 14 15  2  0  0  0  0
 14 16  1  0  0  0  0
 16 17  1  0  0  0  0
 16 40  1  0  0  0  0
 17 18  1  0  0  0  0
 17 41  1  0  0  0  0
 17 42  1  0  0  0  0
 18 19  1  0  0  0  0
 18 43  1  0  0  0  0
 18 44  1  0  0  0  0
 19 20  1  0  0  0  0
 19 45  1  0  0  0  0
 19 46  1  0  0  0  0
 20 21  1  0  0  0  0
 20 47  1  0  0  0  0
 20 48  1  0  0  0  0
 21 22  1  0  0  0  0
 21 49  1  0  0  0  0
 21 50  1  0  0  0  0
 22 23  1  0  0  0  0
 22 24  2  0  0  0  0
 23 51  1  0  0  0  0
M  END
>  <DRUGBANK_ID>
DB03139

>  <SECONDARY_ACCESSION_NUMBERS>
EXPT00692

>  <COMMON_NAME>
6-[5-(2-Oxo-Hexahydro-Thieno[3,4-D]Imidazol-4-Yl)-Pentanoylamino]-Hexanoic Acid

$$$$
