
 OpenBabel10282417113D

 16 16  0  0  0  0  0  0  0  0999 V2000
   -1.8501    0.0583   -0.0117 C   0  0  0  0  0  0  0  0  0  0  0  0
   -1.1921   -1.1691   -0.0020 C   0  0  0  0  0  0  0  0  0  0  0  0
   -1.1102    1.2455    0.0016 C   0  0  0  0  0  0  0  0  0  0  0  0
    0.2034   -1.2126    0.0091 C   0  0  0  0  0  0  0  0  0  0  0  0
    0.2979    1.2183    0.0171 C   0  0  0  0  0  0  0  0  0  0  0  0
    0.9452   -0.0259    0.0106 C   0  0  0  0  0  0  0  0  0  0  0  0
    1.0101    2.5278    0.0475 C   0  0  0  0  0  0  0  0  0  0  0  0
    2.3094   -0.1048    0.0036 O   0  0  0  0  0  0  0  0  0  0  0  0
    0.4602    3.6194    0.0621 O   0  0  0  0  0  0  0  0  0  0  0  0
    2.3499    2.4394    0.0664 O   0  0  0  0  0  0  0  0  0  0  0  0
   -2.9379    0.0915   -0.0263 H   0  0  0  0  0  0  0  0  0  0  0  0
   -1.7670   -2.0929   -0.0040 H   0  0  0  0  0  0  0  0  0  0  0  0
   -1.6416    2.1963    0.0010 H   0  0  0  0  0  0  0  0  0  0  0  0
    0.6977   -2.1797    0.0183 H   0  0  0  0  0  0  0  0  0  0  0  0
    2.6083   -1.0250   -0.0222 H   0  0  0  0  0  0  0  0  0  0  0  0
    2.6977    3.3507    0.0907 H   0  0  0  0  0  0  0  0  0  0  0  0
  1 11  1  0  0  0  0
  2  1  2  0  0  0  0
  2 12  1  0  0  0  0
  3  1  1  0  0  0  0
  3 13  1  0  0  0  0
  4  2  1  0  0  0  0
  4 14  1  0  0  0  0
  5  3  2  0  0  0  0
  6  4  2  0  0  0  0
  6  5  1  0  0  0  0
  7  5  1  0  0  0  0
  8  6  1  0  0  0  0
  8 15  1  0  0  0  0
  9  7  2  0  0  0  0
 10  7  1  0  0  0  0
 10 16  1  0  0  0  0
M  END
>  <DRUGBANK_ID>
DB00936

>  <SECONDARY_ACCESSION_NUMBERS>
APRD01605; DB01398

>  <COMMON_NAME>
Salicylic acid

>  <CAS_NUMBER>
69-72-7

>  <UNII>
O414PZ4LPZ

>  <SYNONYMS>
2-Carboxyphenol; 2-Hydroxybenzoic acid; ácido salicílico; Acidum salicylicum; O-carboxyphenol; O-hydroxybenzoic acid; Salicylic acid

$$$$
