
 OpenBabel10282417133D

 48 50  0  0  0  0  0  0  0  0999 V2000
    1.3885   -0.1674    0.3740 S   0  0  0  0  0  0  0  0  0  0  0  0
   -0.9321   -0.5305   -2.3969 O   0  0  0  0  0  0  0  0  0  0  0  0
    0.4960    2.9032   -2.7936 O   0  0  0  0  0  0  0  0  0  0  0  0
    1.2903    0.7000   -4.3217 O   0  0  0  0  0  0  0  0  0  0  0  0
    0.7545   -1.5300   -0.2437 O   0  0  0  0  0  0  0  0  0  0  0  0
    1.3042    0.2548    1.7477 O   0  0  0  0  0  0  0  0  0  0  0  0
    0.6982    0.7583   -0.3580 O   0  0  0  0  0  0  0  0  0  0  0  0
    4.9380   -0.8607    0.9611 O   0  0  0  0  0  0  0  0  0  0  0  0
    2.8269   -3.7759    0.3567 O   0  0  0  0  0  0  0  0  0  0  0  0
   -1.8135    0.9712   -0.7251 N   0  0  0  0  0  0  0  0  0  0  0  0
   -3.2944    2.0086    0.6307 N   0  0  0  0  0  0  0  0  0  0  0  0
   -1.1470   -0.7499    0.9950 N   0  0  0  0  0  0  0  0  0  0  0  0
    2.9626   -0.3237    0.0253 N   0  0  0  0  0  0  0  0  0  0  0  0
   -1.5350    0.0295    3.2514 N   0  0  0  0  0  0  0  0  0  0  0  0
   -3.2333    1.4755    3.7399 N   0  0  0  0  0  0  0  0  0  0  0  0
    2.2970   -1.2783    3.0803 N   0  0  0  0  0  0  0  0  0  0  0  0
    0.4817    1.5904   -2.2689 C   0  0  2  0  0  0  0  0  0  0  0  0
    1.2432    0.4075   -2.9326 C   0  0  1  0  0  0  0  0  0  0  0  0
   -1.0063    0.8703   -1.9871 C   0  0  1  0  0  0  0  0  0  0  0  0
    0.4260   -0.8988   -2.6871 C   0  0  1  0  0  0  0  0  0  0  0  0
    0.9695   -1.8877   -1.6136 C   0  0  0  0  0  0  0  0  0  0  0  0
   -1.7814    0.3467    0.5405 C   0  0  0  0  0  0  0  0  0  0  0  0
   -2.8848    1.8373   -0.6117 C   0  0  0  0  0  0  0  0  0  0  0  0
   -2.5258    1.1554    1.3849 C   0  0  0  0  0  0  0  0  0  0  0  0
   -2.4310    0.9019    2.7801 C   0  0  0  0  0  0  0  0  0  0  0  0
   -0.9678   -0.7475    2.3414 C   0  0  0  0  0  0  0  0  0  0  0  0
    3.7272   -1.0232    0.9894 C   0  0  0  0  0  0  0  0  0  0  0  0
    3.0213   -1.9925    2.0479 C   0  0  2  0  0  0  0  0  0  0  0  0
    2.1618   -3.0904    1.4033 C   0  0  0  0  0  0  0  0  0  0  0  0
    3.3816    0.4787   -0.4395 H   0  0  0  0  0  0  0  0  0  0  0  0
   -4.0805    1.8980    3.3970 H   0  0  0  0  0  0  0  0  0  0  0  0
   -3.1747    1.0377    4.6508 H   0  0  0  0  0  0  0  0  0  0  0  0
    1.6864   -1.7552    3.7217 H   0  0  0  0  0  0  0  0  0  0  0  0
    2.6445   -0.3783    3.4027 H   0  0  0  0  0  0  0  0  0  0  0  0
    0.2821    2.8829   -3.7211 H   0  0  0  0  0  0  0  0  0  0  0  0
    0.3714    0.8923   -4.5706 H   0  0  0  0  0  0  0  0  0  0  0  0
    3.2128   -3.1372   -0.2690 H   0  0  0  0  0  0  0  0  0  0  0  0
    1.1664    1.9470   -1.4827 H   0  0  0  0  0  0  0  0  0  0  0  0
    2.2765    0.2452   -2.5866 H   0  0  0  0  0  0  0  0  0  0  0  0
   -1.6394    1.3255   -2.7591 H   0  0  0  0  0  0  0  0  0  0  0  0
    0.4124   -1.4792   -3.6253 H   0  0  0  0  0  0  0  0  0  0  0  0
    2.0400   -2.0605   -1.7595 H   0  0  0  0  0  0  0  0  0  0  0  0
    0.5081   -2.8828   -1.7623 H   0  0  0  0  0  0  0  0  0  0  0  0
   -3.3076    2.3259   -1.4760 H   0  0  0  0  0  0  0  0  0  0  0  0
   -0.1610   -1.3711    2.7150 H   0  0  0  0  0  0  0  0  0  0  0  0
    3.8218   -2.4835    2.5832 H   0  0  0  0  0  0  0  0  0  0  0  0
    1.7004   -3.7803    2.1114 H   0  0  0  0  0  0  0  0  0  0  0  0
    1.2327   -2.7352    1.0270 H   0  0  0  0  0  0  0  0  0  0  0  0
  1  5  1  0  0  0  0
  1  6  2  0  0  0  0
  1  7  2  0  0  0  0
  1 13  1  0  0  0  0
  2 19  1  0  0  0  0
  2 20  1  0  0  0  0
  3 35  1  0  0  0  0
  4 36  1  0  0  0  0
  5 21  1  0  0  0  0
  8 27  2  0  0  0  0
  9 29  1  0  0  0  0
  9 37  1  0  0  0  0
 10 22  1  0  0  0  0
 10 23  1  0  0  0  0
 11 23  2  0  0  0  0
 11 24  1  0  0  0  0
 12 22  2  0  0  0  0
 12 26  1  0  0  0  0
 13 27  1  0  0  0  0
 13 30  1  0  0  0  0
 14 25  1  0  0  0  0
 14 26  2  0  0  0  0
 15 25  1  0  0  0  0
 15 31  1  0  0  0  0
 15 32  1  0  0  0  0
 16 33  1  0  0  0  0
 16 34  1  0  0  0  0
 17  3  1  0  0  0  0
 17 18  1  0  0  0  0
 17 19  1  0  0  0  0
 17 38  1  1  0  0  0
 18  4  1  0  0  0  0
 18 20  1  0  0  0  0
 18 39  1  1  0  0  0
 19 40  1  6  0  0  0
 19 10  1  0  0  0  0
 20 21  1  0  0  0  0
 20 41  1  6  0  0  0
 21 42  1  0  0  0  0
 21 43  1  0  0  0  0
 22 24  1  0  0  0  0
 23 44  1  0  0  0  0
 24 25  2  0  0  0  0
 26 45  1  0  0  0  0
 27 28  1  0  0  0  0
 28 16  1  0  0  0  0
 28 29  1  0  0  0  0
 28 46  1  1  0  0  0
 29 47  1  0  0  0  0
 29 48  1  0  0  0  0
M  END
>  <DRUGBANK_ID>
DB03869

>  <SECONDARY_ACCESSION_NUMBERS>
EXPT02955

>  <COMMON_NAME>
5'-O-(L-Serylsulfamoyl)adenosine

$$$$
