
 OpenBabel10282417243D

 87 88  0  0  1  0  0  0  0  0999 V2000
    0.4582    1.2774   -1.3696 Na  0  3  0  0  0  0  0  0  0  0  0  0
    1.1790    0.0516    0.0642 N   0  0  0  0  0  0  0  0  0  0  0  0
    0.5314   -1.2885    0.3336 C   0  0  0  0  0  0  0  0  0  0  0  0
    0.9962   -1.4653    1.7336 C   0  0  0  0  0  0  0  0  0  0  0  0
    0.4574   -0.5313    2.6617 O   0  0  0  0  0  0  0  0  0  0  0  0
   -1.0028   -1.3408    0.3771 C   0  0  0  0  0  0  0  0  0  0  0  0
   -1.5320   -1.0712   -0.9171 O   0  0  0  0  0  0  0  0  0  0  0  0
    1.0566   -2.3294   -0.6706 C   0  0  0  0  0  0  0  0  0  0  0  0
    0.6261   -1.9681   -1.9814 O   0  0  0  0  0  0  0  0  0  0  0  0
   -0.1780   -4.7325    4.6480 O   0  0  0  0  0  0  0  0  0  0  0  0
    0.2632   -4.6258    2.9785 P   0  0  3  0  0  0  0  0  0  0  0  0
   -0.7477   -3.5373    2.7364 O   0  5  0  0  0  0  0  0  0  0  0  0
    1.3062   -5.6356    2.6267 O   0  0  0  0  0  0  0  0  0  0  0  0
    0.7043   -4.5191    1.3091 O   0  0  0  0  0  0  0  0  0  0  0  0
    2.3333   -4.2939    1.0553 C   0  0  0  0  0  0  0  0  0  0  0  0
    3.1654   -3.1628    1.8188 O   0  0  0  0  0  0  0  0  0  0  0  0
    2.9022   -2.8827    3.3361 C   0  0  1  0  0  0  0  0  0  0  0  0
    1.8323   -3.6824    3.8894 C   0  0  0  0  0  0  0  0  0  0  0  0
    1.9571   -5.4538    4.6197 C   0  0  3  0  0  0  0  0  0  0  0  0
    1.8066   -5.0338    6.0430 C   0  0  0  0  0  0  0  0  0  0  0  0
    2.6061   -3.6897    5.9806 C   0  0  0  0  0  0  0  0  0  0  0  0
    3.5612   -3.4039    4.5685 C   0  0  3  0  0  0  0  0  0  0  0  0
    4.1329   -4.7276    4.2166 C   0  0  0  0  0  0  0  0  0  0  0  0
    3.3192   -5.9148    4.3202 C   0  0  0  0  0  0  0  0  0  0  0  0
    4.3828   -2.2842    4.7795 N   0  0  0  0  0  0  0  0  0  0  0  0
    5.6668   -2.2294    4.3303 C   0  0  0  0  0  0  0  0  0  0  0  0
    6.2068   -1.1365    4.3091 O   0  0  0  0  0  0  0  0  0  0  0  0
    6.4387   -3.5494    4.0747 C   0  0  0  0  0  0  0  0  0  0  0  0
    6.5252   -4.6153    5.0093 O   0  0  0  0  0  0  0  0  0  0  0  0
    6.4855   -4.3653    6.3502 C   0  0  0  0  0  0  0  0  0  0  0  0
    6.9380   -5.4331    7.1088 C   0  0  0  0  0  0  0  0  0  0  0  0
    7.3405   -5.2005    8.4176 C   0  0  0  0  0  0  0  0  0  0  0  0
    7.1781   -3.9349    8.9836 C   0  0  0  0  0  0  0  0  0  0  0  0
    7.7939   -3.6037   10.5465 Cl  0  0  0  0  0  0  0  0  0  0  0  0
    6.5299   -2.9421    8.2762 C   0  0  0  0  0  0  0  0  0  0  0  0
    6.3388   -1.7127    8.7759 F   0  0  0  0  0  0  0  0  0  0  0  0
    6.1385   -3.1779    6.9813 C   0  0  0  0  0  0  0  0  0  0  0  0
    1.0215   -6.9022    4.3464 N   0  0  0  0  0  0  0  0  0  0  0  0
    1.3861   -8.1442    3.7409 C   0  0  0  0  0  0  0  0  0  0  0  0
    0.5917   -9.0356    3.6001 O   0  0  0  0  0  0  0  0  0  0  0  0
    2.8709   -8.4277    3.2856 C   0  0  0  0  0  0  0  0  0  0  0  0
    3.5482   -7.8647    2.1716 O   0  0  0  0  0  0  0  0  0  0  0  0
    2.8837   -7.7184    0.9954 C   0  0  0  0  0  0  0  0  0  0  0  0
    3.7194   -7.4858   -0.0948 C   0  0  0  0  0  0  0  0  0  0  0  0
    3.2028   -7.5644   -1.3838 C   0  0  0  0  0  0  0  0  0  0  0  0
    1.8389   -7.7989   -1.5682 C   0  0  0  0  0  0  0  0  0  0  0  0
    1.2171   -8.0249   -3.1515 Cl  0  0  0  0  0  0  0  0  0  0  0  0
    0.9918   -7.8688   -0.4748 C   0  0  0  0  0  0  0  0  0  0  0  0
   -0.3252   -8.0784   -0.6160 F   0  0  0  0  0  0  0  0  0  0  0  0
    1.5100   -7.7978    0.7987 C   0  0  0  0  0  0  0  0  0  0  0  0
    1.0085    0.5427    0.9556 H   0  0  0  0  0  0  0  0  0  0  0  0
    2.2005   -0.1728    0.1337 H   0  0  0  0  0  0  0  0  0  0  0  0
    0.6952   -2.4304    1.9940 H   0  0  0  0  0  0  0  0  0  0  0  0
    2.0718   -1.3421    1.7426 H   0  0  0  0  0  0  0  0  0  0  0  0
    1.0617    0.2162    2.7337 H   0  0  0  0  0  0  0  0  0  0  0  0
   -1.3594   -2.3340    0.6733 H   0  0  0  0  0  0  0  0  0  0  0  0
   -1.3976   -0.6138    1.0909 H   0  0  0  0  0  0  0  0  0  0  0  0
   -1.2443   -0.1898   -1.1513 H   0  0  0  0  0  0  0  0  0  0  0  0
    2.1512   -2.3663   -0.6769 H   0  0  0  0  0  0  0  0  0  0  0  0
    0.6477   -3.3266   -0.4943 H   0  0  0  0  0  0  0  0  0  0  0  0
   -0.3401   -2.1599   -1.9343 H   0  0  0  0  0  0  0  0  0  0  0  0
   -0.3467   -3.8303    4.9719 H   0  0  0  0  0  0  0  0  0  0  0  0
    2.9087   -5.1922    1.2536 H   0  0  0  0  0  0  0  0  0  0  0  0
    2.4785   -4.2170   -0.0527 H   0  0  0  0  0  0  0  0  0  0  0  0
    2.4851   -1.8667    3.4500 H   0  0  0  0  0  0  0  0  0  0  0  0
    1.0174   -2.9845    4.1915 H   0  0  0  0  0  0  0  0  0  0  0  0
    1.7743   -3.6983    2.8483 H   0  0  0  0  0  0  0  0  0  0  0  0
    0.7844   -4.8577    6.4426 H   0  0  0  0  0  0  0  0  0  0  0  0
    2.1643   -5.8722    6.6359 H   0  0  0  0  0  0  0  0  0  0  0  0
    1.8819   -2.8582    6.0683 H   0  0  0  0  0  0  0  0  0  0  0  0
    3.2959   -3.7464    6.7910 H   0  0  0  0  0  0  0  0  0  0  0  0
    4.5265   -4.7372    3.1983 H   0  0  0  0  0  0  0  0  0  0  0  0
    4.6875   -4.9808    5.0696 H   0  0  0  0  0  0  0  0  0  0  0  0
    3.6976   -6.6476    5.0418 H   0  0  0  0  0  0  0  0  0  0  0  0
    3.4813   -6.2917    3.3338 H   0  0  0  0  0  0  0  0  0  0  0  0
    3.8839   -1.3952    4.8395 H   0  0  0  0  0  0  0  0  0  0  0  0
    6.1054   -3.9416    3.1001 H   0  0  0  0  0  0  0  0  0  0  0  0
    7.4637   -3.3123    3.8632 H   0  0  0  0  0  0  0  0  0  0  0  0
    7.0666   -6.4079    6.6423 H   0  0  0  0  0  0  0  0  0  0  0  0
    7.8405   -5.9927    8.9609 H   0  0  0  0  0  0  0  0  0  0  0  0
    5.6205   -2.3487    6.5419 H   0  0  0  0  0  0  0  0  0  0  0  0
   -0.0028   -6.7922    4.2114 H   0  0  0  0  0  0  0  0  0  0  0  0
    3.4835   -8.2792    4.1772 H   0  0  0  0  0  0  0  0  0  0  0  0
    3.0133   -9.5000    3.1708 H   0  0  0  0  0  0  0  0  0  0  0  0
    4.7768   -7.2945    0.0749 H   0  0  0  0  0  0  0  0  0  0  0  0
    3.8761   -7.4976   -2.2298 H   0  0  0  0  0  0  0  0  0  0  0  0
    0.7776   -7.7874    1.5902 H   0  0  0  0  0  0  0  0  0  0  0  0
  2  3  1  0  0  0  0
  2 51  1  0  0  0  0
  2 52  1  0  0  0  0
  3  4  1  0  0  0  0
  3  6  1  0  0  0  0
  3  8  1  0  0  0  0
  4  5  1  0  0  0  0
  4 53  1  0  0  0  0
  4 54  1  0  0  0  0
  5 55  1  0  0  0  0
  6  7  1  0  0  0  0
  6 56  1  0  0  0  0
  6 57  1  0  0  0  0
  7 58  1  0  0  0  0
  8  9  1  0  0  0  0
  8 59  1  0  0  0  0
  8 60  1  0  0  0  0
  9 61  1  0  0  0  0
 10 11  1  0  0  0  0
 10 62  1  0  0  0  0
 11 12  1  0  0  0  0
 11 13  2  0  0  0  0
 11 14  1  0  0  0  0
 14 15  1  0  0  0  0
 15 16  1  0  0  0  0
 15 63  1  0  0  0  0
 15 64  1  0  0  0  0
 17 18  1  0  0  0  0
 17 22  1  0  0  0  0
 17 65  1  1  0  0  0
 17 16  1  0  0  0  0
 18 19  1  0  0  0  0
 18 66  1  0  0  0  0
 18 67  1  0  0  0  0
 19 20  1  0  0  0  0
 19 24  1  0  0  0  0
 19 38  1  0  0  0  0
 20 21  1  0  0  0  0
 20 68  1  0  0  0  0
 20 69  1  0  0  0  0
 21 22  1  0  0  0  0
 21 70  1  0  0  0  0
 21 71  1  0  0  0  0
 22 23  1  0  0  0  0
 22 25  1  0  0  0  0
 23 24  1  0  0  0  0
 23 72  1  0  0  0  0
 23 73  1  0  0  0  0
 24 74  1  0  0  0  0
 24 75  1  0  0  0  0
 25 26  1  0  0  0  0
 25 76  1  0  0  0  0
 26 27  2  0  0  0  0
 26 28  1  0  0  0  0
 28 29  1  0  0  0  0
 28 77  1  0  0  0  0
 28 78  1  0  0  0  0
 29 30  1  0  0  0  0
 30 31  2  0  0  0  0
 30 37  1  0  0  0  0
 31 32  1  0  0  0  0
 31 79  1  0  0  0  0
 32 33  2  0  0  0  0
 32 80  1  0  0  0  0
 33 34  1  0  0  0  0
 33 35  1  0  0  0  0
 35 36  1  0  0  0  0
 35 37  2  0  0  0  0
 37 81  1  0  0  0  0
 38 39  1  0  0  0  0
 38 82  1  0  0  0  0
 39 40  2  0  0  0  0
 39 41  1  0  0  0  0
 41 42  1  0  0  0  0
 41 83  1  0  0  0  0
 41 84  1  0  0  0  0
 42 43  1  0  0  0  0
 43 44  2  0  0  0  0
 43 50  1  0  0  0  0
 44 45  1  0  0  0  0
 44 85  1  0  0  0  0
 45 46  2  0  0  0  0
 45 86  1  0  0  0  0
 46 47  1  0  0  0  0
 46 48  1  0  0  0  0
 48 49  1  0  0  0  0
 48 50  2  0  0  0  0
 50 87  1  0  0  0  0
M  CHG  2   1   1  12  -1
M  END
>  <DRUGBANK_ID>
DB18407

>  <COMMON_NAME>
ABBV-CLS-7262

>  <UNII>
BN9FN5629V

>  <SYNONYMS>
Sodium ({(2S)-1,4-bis[2-(4-chloro-3- fluorophenoxy)acetamido]bicyclo[2.2.2]octan-2- yl}oxy)methyl hydrogen phosphate - 2-amino-2- (hydroxymethyl)propane-1,3-diol (1/1/1)

$$$$
