C27
 OpenBabel10282417163D

 51 53  0  0  0  0  0  0  0  0999 V2000
    1.3015    0.0696    0.1757 C   0  0  0  0  0  0  0  0  0  0  0  0
    1.1967    0.8658   -0.9976 O   0  0  0  0  0  0  0  0  0  0  0  0
    1.6881    2.1460   -1.0334 C   0  0  0  0  0  0  0  0  0  0  0  0
    2.9527    2.5612   -0.9259 C   0  0  0  0  0  0  0  0  0  0  0  0
    3.1995    3.9221   -1.2496 C   0  0  0  0  0  0  0  0  0  0  0  0
    2.2322    4.8516   -1.7906 C   0  0  0  0  0  0  0  0  0  0  0  0
    0.9376    4.4822   -2.0172 C   0  0  0  0  0  0  0  0  0  0  0  0
    0.8069    3.1399   -1.4889 C   0  0  0  0  0  0  0  0  0  0  0  0
   -0.0918    5.4595   -2.8013 C   0  0  0  0  0  0  0  0  0  0  0  0
   -0.0033    5.6624   -4.1928 C   0  0  0  0  0  0  0  0  0  0  0  0
   -0.9598    6.4370   -4.9375 C   0  0  0  0  0  0  0  0  0  0  0  0
   -2.1620    6.8913   -4.3739 C   0  0  0  0  0  0  0  0  0  0  0  0
   -2.3496    6.7002   -3.0165 C   0  0  0  0  0  0  0  0  0  0  0  0
   -3.8964    6.6256   -2.4516 C   0  0  0  0  0  0  0  0  0  0  0  0
   -4.7524    5.1529   -2.1983 C   0  0  0  0  0  0  0  0  0  0  0  0
   -4.2282    4.1901   -1.0595 C   0  0  2  0  0  0  0  0  0  0  0  0
   -4.4889    4.4936    0.4264 C   0  0  0  0  0  0  0  0  0  0  0  0
   -2.8486    4.5802   -1.1421 C   0  0  0  0  0  0  0  0  0  0  0  0
   -1.9183    3.5350   -1.0761 C   0  0  0  0  0  0  0  0  0  0  0  0
   -1.0866    3.8131   -0.1711 O   0  0  0  0  0  0  0  0  0  0  0  0
   -2.1329    2.5337   -2.0024 N   0  0  0  0  0  0  0  0  0  0  0  0
   -1.1366    1.5994   -2.6327 C   0  0  0  0  0  0  0  0  0  0  0  0
   -3.3745    2.0193   -1.7678 C   0  0  0  0  0  0  0  0  0  0  0  0
   -4.3746    2.7359   -1.3363 N   0  0  0  0  0  0  0  0  0  0  0  0
   -3.5305    0.6794   -1.9402 N   0  0  0  0  0  0  0  0  0  0  0  0
   -1.1521    6.2609   -2.2537 C   0  0  0  0  0  0  0  0  0  0  0  0
    0.7862   -0.8896   -0.0121 H   0  0  0  0  0  0  0  0  0  0  0  0
    0.7961    0.5239    1.0340 H   0  0  0  0  0  0  0  0  0  0  0  0
    2.3460   -0.1571    0.3765 H   0  0  0  0  0  0  0  0  0  0  0  0
    3.7023    1.8550   -0.6100 H   0  0  0  0  0  0  0  0  0  0  0  0
    4.2023    4.2879   -1.0961 H   0  0  0  0  0  0  0  0  0  0  0  0
    2.4911    5.8839   -1.9838 H   0  0  0  0  0  0  0  0  0  0  0  0
   -0.0759    2.6613   -1.1559 H   0  0  0  0  0  0  0  0  0  0  0  0
    0.8417    5.2536   -4.7425 H   0  0  0  0  0  0  0  0  0  0  0  0
   -0.7833    6.6370   -5.9952 H   0  0  0  0  0  0  0  0  0  0  0  0
   -2.9262    7.3707   -4.9846 H   0  0  0  0  0  0  0  0  0  0  0  0
   -3.9391    7.1844   -1.5121 H   0  0  0  0  0  0  0  0  0  0  0  0
   -4.5253    7.1572   -3.1821 H   0  0  0  0  0  0  0  0  0  0  0  0
   -5.8086    5.3629   -2.0082 H   0  0  0  0  0  0  0  0  0  0  0  0
   -4.6917    4.6031   -3.1532 H   0  0  0  0  0  0  0  0  0  0  0  0
   -4.3087    5.5563    0.6530 H   0  0  0  0  0  0  0  0  0  0  0  0
   -5.4762    4.2216    0.7786 H   0  0  0  0  0  0  0  0  0  0  0  0
   -3.7519    3.9440    1.0466 H   0  0  0  0  0  0  0  0  0  0  0  0
   -2.5915    5.3632   -0.4102 H   0  0  0  0  0  0  0  0  0  0  0  0
   -2.6817    4.8291   -2.1598 H   0  0  0  0  0  0  0  0  0  0  0  0
   -0.8755    0.8902   -1.8436 H   0  0  0  0  0  0  0  0  0  0  0  0
   -1.5069    1.0038   -3.4704 H   0  0  0  0  0  0  0  0  0  0  0  0
   -0.2442    2.0682   -3.0620 H   0  0  0  0  0  0  0  0  0  0  0  0
   -4.3521    0.2852   -1.5109 H   0  0  0  0  0  0  0  0  0  0  0  0
   -2.7289    0.0552   -1.9632 H   0  0  0  0  0  0  0  0  0  0  0  0
   -1.1728    6.3826   -1.1748 H   0  0  0  0  0  0  0  0  0  0  0  0
  1  2  1  0  0  0  0
  1 27  1  0  0  0  0
  1 28  1  0  0  0  0
  1 29  1  0  0  0  0
  2  3  1  0  0  0  0
  3  4  1  0  0  0  0
  3  8  2  0  0  0  0
  4  5  2  0  0  0  0
  4 30  1  0  0  0  0
  5  6  1  0  0  0  0
  5 31  1  0  0  0  0
  6  7  2  0  0  0  0
  6 32  1  0  0  0  0
  7  8  1  0  0  0  0
  7  9  1  0  0  0  0
  8 33  1  0  0  0  0
  9 10  1  0  0  0  0
  9 26  2  0  0  0  0
 10 11  2  0  0  0  0
 10 34  1  0  0  0  0
 11 12  1  0  0  0  0
 11 35  1  0  0  0  0
 12 13  2  0  0  0  0
 12 36  1  0  0  0  0
 13 14  1  0  0  0  0
 13 26  1  0  0  0  0
 14 15  1  0  0  0  0
 14 37  1  0  0  0  0
 14 38  1  0  0  0  0
 15 39  1  0  0  0  0
 15 40  1  0  0  0  0
 16 15  1  6  0  0  0
 16 17  1  0  0  0  0
 16 18  1  0  0  0  0
 16 24  1  0  0  0  0
 17 41  1  0  0  0  0
 17 42  1  0  0  0  0
 17 43  1  0  0  0  0
 18 19  1  0  0  0  0
 18 44  1  0  0  0  0
 18 45  1  0  0  0  0
 19 20  2  0  0  0  0
 19 21  1  0  0  0  0
 21 22  1  0  0  0  0
 21 23  1  0  0  0  0
 22 46  1  0  0  0  0
 22 47  1  0  0  0  0
 22 48  1  0  0  0  0
 23 24  2  0  0  0  0
 23 25  1  0  0  0  0
 25 49  1  0  0  0  0
 25 50  1  0  0  0  0
 26 51  1  0  0  0  0
M  END
>  <DRUGBANK_ID>
DB07519

>  <COMMON_NAME>
(6R)-2-amino-6-[2-(3'-methoxybiphenyl-3-yl)ethyl]-3,6-dimethyl-5,6-dihydropyrimidin-4(3H)-one

$$$$
