
 OpenBabel10282417113D

163165  0  0  0  0  0  0  0  0999 V2000
    1.5175    2.0000    1.2049 C   0  0  3  0  0  0  0  0  0  0  0  0
    1.4721    0.0639    0.2284 C   0  0  2  0  0  0  0  0  0  0  0  0
    0.7016   -1.2325   -0.2629 C   0  0  2  0  0  0  0  0  0  0  0  0
   10.4700    5.5887   13.1232 C   0  0  3  0  0  0  0  0  0  0  0  0
   -0.5074    1.3287    0.3934 O   0  0  0  0  0  0  0  0  0  0  0  0
   -0.7317   -1.2217    0.2437 C   0  0  1  0  0  0  0  0  0  0  0  0
   11.9087    5.6946   15.5994 C   0  0  3  0  0  0  0  0  0  0  0  0
    8.3197    5.0623   10.6725 C   0  0  3  0  0  0  0  0  0  0  0  0
   17.0407   -5.3291   11.0673 O   0  0  0  0  0  0  0  0  0  0  0  0
   16.5696   -4.0597   10.7550 C   0  0  0  0  0  0  0  0  0  0  0  0
   16.3956   -6.5153   10.5798 C   0  0  3  0  0  0  0  0  0  0  0  0
   -1.3457    0.0300   -0.2102 C   0  0  1  0  0  0  0  0  0  0  0  0
   12.6487    6.4890   14.7357 C   0  0  0  0  0  0  0  0  0  0  0  0
   18.6405  -10.1777    8.9750 C   0  0  0  0  0  0  0  0  0  0  0  0
   18.0236  -11.4478    8.4440 C   0  0  0  0  0  0  0  0  0  0  0  0
   12.0930    4.9021   17.7869 C   0  0  0  0  0  0  0  0  0  0  0  0
   15.3990   -3.8580    9.8090 C   0  0  0  0  0  0  0  0  0  0  0  0
    2.8131    2.9312    3.3694 O   0  0  0  0  0  0  0  0  0  0  0  0
    6.2424    4.3406    8.1893 C   0  0  0  0  0  0  0  0  0  0  0  0
   12.0936    3.7829   16.9421 C   0  0  0  0  0  0  0  0  0  0  0  0
   17.1456   -7.7554   11.0570 C   0  0  3  0  0  0  0  0  0  0  0  0
   16.4606   -8.9976   10.5209 C   0  0  0  0  0  0  0  0  0  0  0  0
   17.8602   -9.0071    8.4593 C   0  0  3  0  0  0  0  0  0  0  0  0
   18.7298  -12.3612    7.5589 C   0  0  0  0  0  0  0  0  0  0  0  0
    4.3657    3.4960    5.6123 C   0  0  3  0  0  0  0  0  0  0  0  0
   11.9367    2.3665   17.3059 C   0  0  0  0  0  0  0  0  0  0  0  0
   16.4603   -8.9711    9.0014 C   0  0  3  0  0  0  0  0  0  0  0  0
   14.2164   -3.0626   10.7003 C   0  0  0  0  0  0  0  0  0  0  0  0
   17.1042   -3.0463   11.2012 O   0  0  0  0  0  0  0  0  0  0  0  0
   10.5008   -0.6024   12.7923 C   0  0  0  0  0  0  0  0  0  0  0  0
   14.9618   -6.5781   11.0880 C   0  0  3  0  0  0  0  0  0  0  0  0
   14.4342    6.6502   15.2794 O   0  0  0  0  0  0  0  0  0  0  0  0
   11.7654   -0.2364   14.8893 C   0  0  0  0  0  0  0  0  0  0  0  0
   10.7555    2.0052   15.1893 C   0  0  0  0  0  0  0  0  0  0  0  0
   11.6884   -1.3330   12.2041 C   0  0  0  0  0  0  0  0  0  0  0  0
   16.9875  -12.0084    8.7386 O   0  0  0  0  0  0  0  0  0  0  0  0
   10.6937    1.8080   16.6793 C   0  0  3  0  0  0  0  0  0  0  0  0
   10.4869   -0.7861   14.2937 C   0  0  3  0  0  0  0  0  0  0  0  0
   11.8940    1.2404   14.5761 C   0  0  3  0  0  0  0  0  0  0  0  0
    1.3673   -2.4613    0.2581 N   0  0  0  0  0  0  0  0  0  0  0  0
   12.1281    4.0285   15.7449 O   0  0  0  0  0  0  0  0  0  0  0  0
    5.0262    0.1506    4.2191 C   0  0  0  0  0  0  0  0  0  0  0  0
    5.7647   -1.0362    4.7032 C   0  0  0  0  0  0  0  0  0  0  0  0
    6.8595   -0.9436    5.4877 C   0  0  0  0  0  0  0  0  0  0  0  0
    7.6049   -2.1372    5.9767 C   0  0  0  0  0  0  0  0  0  0  0  0
    8.6998   -2.0453    6.7620 C   0  0  0  0  0  0  0  0  0  0  0  0
    9.4363   -3.2411    7.2445 C   0  0  0  0  0  0  0  0  0  0  0  0
   10.5173   -3.1610    8.0127 C   0  0  0  0  0  0  0  0  0  0  0  0
   11.2784   -4.3730    8.5130 C   0  0  0  0  0  0  0  0  0  0  0  0
   12.3872   -4.3683    9.2875 C   0  0  0  0  0  0  0  0  0  0  0  0
    3.9555    0.0319    3.4462 C   0  0  0  0  0  0  0  0  0  0  0  0
   13.0934   -5.4855    9.8025 C   0  0  0  0  0  0  0  0  0  0  0  0
    3.3953    1.1537    2.9723 C   0  0  0  0  0  0  0  0  0  0  0  0
    2.9750    2.2207    3.8203 C   0  0  0  0  0  0  0  0  0  0  0  0
   14.0975   -5.5017   10.6799 C   0  0  0  0  0  0  0  0  0  0  0  0
   13.7306   -3.5819   11.7793 O   0  0  0  0  0  0  0  0  0  0  0  0
   12.8391   -1.0383   12.5473 O   0  0  0  0  0  0  0  0  0  0  0  0
    1.1760   -0.3247    1.4589 O   0  0  0  0  0  0  0  0  0  0  0  0
   18.1048  -12.7280    6.3677 C   0  0  0  0  0  0  0  0  0  0  0  0
   20.0148  -12.8026    7.8390 C   0  0  0  0  0  0  0  0  0  0  0  0
   -1.4551   -2.3375   -0.2583 O   0  0  0  0  0  0  0  0  0  0  0  0
   12.9263    6.2740   17.6740 O   0  0  0  0  0  0  0  0  0  0  0  0
    9.7017    6.3017   12.2154 O   0  0  0  0  0  0  0  0  0  0  0  0
   14.1623    7.4849   16.3110 O   0  0  0  0  0  0  0  0  0  0  0  0
   20.0781  -13.9465    5.7128 C   0  0  0  0  0  0  0  0  0  0  0  0
   20.7487  -14.7234    4.8030 N   0  0  0  0  0  0  0  0  0  0  0  0
   18.7815  -13.5157    5.4506 C   0  0  0  0  0  0  0  0  0  0  0  0
   20.6920  -13.5730    6.9049 C   0  0  0  0  0  0  0  0  0  0  0  0
   17.9010   -8.9128    7.0673 O   0  0  0  0  0  0  0  0  0  0  0  0
   13.1082    1.7525   15.0464 O   0  0  0  0  0  0  0  0  0  0  0  0
    9.3601   -0.1676   14.8691 O   0  0  0  0  0  0  0  0  0  0  0  0
    9.5827    2.4953   17.2316 O   0  0  0  0  0  0  0  0  0  0  0  0
   -2.8027    0.0071    0.2519 C   0  0  0  0  0  0  0  0  0  0  0  0
   12.1292   -1.9631    9.9250 C   0  0  0  0  0  0  0  0  0  0  0  0
   18.5773   -7.7038   10.6532 C   0  0  0  0  0  0  0  0  0  0  0  0
   13.6415   -1.8660   10.1208 C   0  0  0  0  0  0  0  0  0  0  0  0
   11.4399   -2.4097   11.1835 C   0  0  0  0  0  0  0  0  0  0  0  0
   15.7034  -10.0980    8.4335 C   0  0  0  0  0  0  0  0  0  0  0  0
   14.9559   -6.5965   12.5897 C   0  0  0  0  0  0  0  0  0  0  0  0
    0.9400    1.4922   -0.7087 H   0  0  0  0  0  0  0  0  0  0  0  0
    2.4622   -0.0044   -0.1500 H   0  0  0  0  0  0  0  0  0  0  0  0
    0.7122   -1.2793   -1.3376 H   0  0  0  0  0  0  0  0  0  0  0  0
   11.8700    5.6146   14.4307 H   0  0  0  0  0  0  0  0  0  0  0  0
   -0.7572   -1.2251    1.3264 H   0  0  0  0  0  0  0  0  0  0  0  0
   13.3307    5.2920   16.9801 H   0  0  0  0  0  0  0  0  0  0  0  0
    8.7781    5.6345   12.3309 H   0  0  0  0  0  0  0  0  0  0  0  0
   16.4112   -6.4913    9.4978 H   0  0  0  0  0  0  0  0  0  0  0  0
   -1.2892    0.0092   -1.2945 H   0  0  0  0  0  0  0  0  0  0  0  0
   19.6619  -10.1345    8.6355 H   0  0  0  0  0  0  0  0  0  0  0  0
   18.6451  -10.2013   10.0605 H   0  0  0  0  0  0  0  0  0  0  0  0
   11.3200    5.5177   18.0229 H   0  0  0  0  0  0  0  0  0  0  0  0
   12.1638    4.3241   18.9880 H   0  0  0  0  0  0  0  0  0  0  0  0
   15.5600   -3.3551    8.9558 H   0  0  0  0  0  0  0  0  0  0  0  0
   15.0663   -4.8523    9.4475 H   0  0  0  0  0  0  0  0  0  0  0  0
    4.5810    3.9948    7.2083 H   0  0  0  0  0  0  0  0  0  0  0  0
    4.6336    4.2453    7.0687 H   0  0  0  0  0  0  0  0  0  0  0  0
   17.1473   -7.7824   12.1368 H   0  0  0  0  0  0  0  0  0  0  0  0
   16.9750   -9.8802   10.8763 H   0  0  0  0  0  0  0  0  0  0  0  0
   15.4423   -9.0438   10.8809 H   0  0  0  0  0  0  0  0  0  0  0  0
   18.3307   -8.1482    8.6274 H   0  0  0  0  0  0  0  0  0  0  0  0
    3.1108    3.5134    4.0264 H   0  0  0  0  0  0  0  0  0  0  0  0
   11.9676    2.2025   18.3479 H   0  0  0  0  0  0  0  0  0  0  0  0
   12.7774    1.8462   17.0663 H   0  0  0  0  0  0  0  0  0  0  0  0
   15.9364   -8.0998    8.6536 H   0  0  0  0  0  0  0  0  0  0  0  0
   10.5732    0.4550   12.5547 H   0  0  0  0  0  0  0  0  0  0  0  0
    9.5793   -0.9745   12.3700 H   0  0  0  0  0  0  0  0  0  0  0  0
   14.4770   -7.4490   10.6961 H   0  0  0  0  0  0  0  0  0  0  0  0
   11.7694   -0.3853   15.9590 H   0  0  0  0  0  0  0  0  0  0  0  0
   12.6147   -0.7666   14.4888 H   0  0  0  0  0  0  0  0  0  0  0  0
   10.7836    3.0340   14.9316 H   0  0  0  0  0  0  0  0  0  0  0  0
    9.8583    1.8179   14.7600 H   0  0  0  0  0  0  0  0  0  0  0  0
   10.6018    0.7481   16.9110 H   0  0  0  0  0  0  0  0  0  0  0  0
   10.3977   -1.8362   14.5276 H   0  0  0  0  0  0  0  0  0  0  0  0
   11.9077    1.3859   13.5059 H   0  0  0  0  0  0  0  0  0  0  0  0
    2.3454   -2.4619   -0.0064 H   0  0  0  0  0  0  0  0  0  0  0  0
    0.8986   -3.2788   -0.1108 H   0  0  0  0  0  0  0  0  0  0  0  0
    5.3684    1.1507    4.4968 H   0  0  0  0  0  0  0  0  0  0  0  0
    5.4151   -2.0303    4.4167 H   0  0  0  0  0  0  0  0  0  0  0  0
    7.2077    0.0508    5.7722 H   0  0  0  0  0  0  0  0  0  0  0  0
    7.2562   -3.1320    5.6916 H   0  0  0  0  0  0  0  0  0  0  0  0
    9.0487   -1.0508    7.0470 H   0  0  0  0  0  0  0  0  0  0  0  0
    9.0963   -4.2345    6.9658 H   0  0  0  0  0  0  0  0  0  0  0  0
   10.8445   -2.1451    8.2781 H   0  0  0  0  0  0  0  0  0  0  0  0
   10.9329   -5.3434    8.2385 H   0  0  0  0  0  0  0  0  0  0  0  0
   12.8521   -3.4777    9.5997 H   0  0  0  0  0  0  0  0  0  0  0  0
    3.5747   -0.9309    3.1419 H   0  0  0  0  0  0  0  0  0  0  0  0
   12.7751   -6.4477    9.5112 H   0  0  0  0  0  0  0  0  0  0  0  0
    3.7999    2.1077    3.2319 H   0  0  0  0  0  0  0  0  0  0  0  0
    2.2604    0.8865    2.5668 H   0  0  0  0  0  0  0  0  0  0  0  0
   14.5792   -4.6347   10.9892 H   0  0  0  0  0  0  0  0  0  0  0  0
    0.5657    0.0524    2.0877 H   0  0  0  0  0  0  0  0  0  0  0  0
   17.1031  -12.3889    6.1526 H   0  0  0  0  0  0  0  0  0  0  0  0
   20.4945  -12.5445    8.7679 H   0  0  0  0  0  0  0  0  0  0  0  0
   -1.4472   -2.3100   -1.2352 H   0  0  0  0  0  0  0  0  0  0  0  0
   12.8080    7.1337   18.8658 H   0  0  0  0  0  0  0  0  0  0  0  0
   10.8095    6.9999   13.2967 H   0  0  0  0  0  0  0  0  0  0  0  0
   15.5283    8.2787   17.1301 H   0  0  0  0  0  0  0  0  0  0  0  0
   20.2955  -14.9828    3.9368 H   0  0  0  0  0  0  0  0  0  0  0  0
   21.6900  -15.0323    5.0066 H   0  0  0  0  0  0  0  0  0  0  0  0
   18.2933  -13.7900    4.5278 H   0  0  0  0  0  0  0  0  0  0  0  0
   21.7065  -13.8785    7.1103 H   0  0  0  0  0  0  0  0  0  0  0  0
   17.4616   -9.7106    6.7305 H   0  0  0  0  0  0  0  0  0  0  0  0
   13.1869    1.5442   15.9360 H   0  0  0  0  0  0  0  0  0  0  0  0
    9.3355    0.7091   14.5938 H   0  0  0  0  0  0  0  0  0  0  0  0
    9.6622    3.4488   17.0218 H   0  0  0  0  0  0  0  0  0  0  0  0
   -3.3133    0.8827   -0.1112 H   0  0  0  0  0  0  0  0  0  0  0  0
   -3.3161   -0.8772   -0.1119 H   0  0  0  0  0  0  0  0  0  0  0  0
   -2.8385    0.0028    1.3363 H   0  0  0  0  0  0  0  0  0  0  0  0
   11.7433   -1.1052    9.5007 H   0  0  0  0  0  0  0  0  0  0  0  0
   11.9057   -2.6465    9.1276 H   0  0  0  0  0  0  0  0  0  0  0  0
   19.0733   -6.8258   10.9549 H   0  0  0  0  0  0  0  0  0  0  0  0
   19.1132   -8.5871   10.9128 H   0  0  0  0  0  0  0  0  0  0  0  0
   18.6839   -7.5189    9.6833 H   0  0  0  0  0  0  0  0  0  0  0  0
   13.8178   -1.1222   10.8384 H   0  0  0  0  0  0  0  0  0  0  0  0
   14.1347   -1.6491    9.1964 H   0  0  0  0  0  0  0  0  0  0  0  0
   10.3891   -2.5434   10.9960 H   0  0  0  0  0  0  0  0  0  0  0  0
   11.8266   -3.3569   11.5517 H   0  0  0  0  0  0  0  0  0  0  0  0
   14.7409  -10.2400    8.8206 H   0  0  0  0  0  0  0  0  0  0  0  0
   15.7740  -10.1990    7.3827 H   0  0  0  0  0  0  0  0  0  0  0  0
   16.0722  -10.8589    8.8988 H   0  0  0  0  0  0  0  0  0  0  0  0
   13.9413   -6.6264   12.9524 H   0  0  0  0  0  0  0  0  0  0  0  0
   15.4788   -7.4708   12.9459 H   0  0  0  0  0  0  0  0  0  0  0  0
   15.4462   -5.7128   12.9796 H   0  0  0  0  0  0  0  0  0  0  0  0
  1 18  1  0  0  0  0
  1 80  1  0  0  0  0
  2  1  1  0  0  0  0
  2 81  1  6  0  0  0
  2 58  1  0  0  0  0
  3  2  1  0  0  0  0
  3 82  1  6  0  0  0
  3 40  1  0  0  0  0
  4  8  1  0  0  0  0
  4 83  1  0  0  0  0
  5  1  1  0  0  0  0
  6 12  1  0  0  0  0
  6 61  1  0  0  0  0
  6  3  1  0  0  0  0
  6 84  1  1  0  0  0
  7  4  1  0  0  0  0
  7 85  1  0  0  0  0
  8 19  1  0  0  0  0
  8 86  1  0  0  0  0
  9 11  1  0  0  0  0
 10  9  1  0  0  0  0
 11 31  1  0  0  0  0
 11 87  1  0  0  0  0
 12  5  1  0  0  0  0
 12 88  1  6  0  0  0
 12 73  1  0  0  0  0
 13  4  1  0  0  0  0
 14 23  1  0  0  0  0
 14 89  1  0  0  0  0
 14 90  1  0  0  0  0
 15 14  1  0  0  0  0
 16  7  1  0  0  0  0
 16 91  1  0  0  0  0
 16 92  1  0  0  0  0
 17 10  1  0  0  0  0
 17 93  1  0  0  0  0
 17 94  1  0  0  0  0
 19 25  1  0  0  0  0
 19 95  1  0  0  0  0
 19 96  1  0  0  0  0
 20 16  1  0  0  0  0
 21 11  1  0  0  0  0
 21 97  1  0  0  0  0
 22 21  1  0  0  0  0
 22 98  1  0  0  0  0
 22 99  1  0  0  0  0
 23 27  1  0  0  0  0
 23100  1  0  0  0  0
 24 15  1  0  0  0  0
 25 18  1  0  0  0  0
 25101  1  0  0  0  0
 26 20  1  0  0  0  0
 26102  1  0  0  0  0
 26103  1  0  0  0  0
 27 22  1  0  0  0  0
 27104  1  0  0  0  0
 28 76  1  0  0  0  0
 28 17  1  0  0  0  0
 29 10  2  0  0  0  0
 30 38  1  0  0  0  0
 30105  1  0  0  0  0
 30106  1  0  0  0  0
 31 55  1  0  0  0  0
 31107  1  0  0  0  0
 32 13  2  0  0  0  0
 33 39  1  0  0  0  0
 33108  1  0  0  0  0
 33109  1  0  0  0  0
 34 37  1  0  0  0  0
 34110  1  0  0  0  0
 34111  1  0  0  0  0
 35 30  1  0  0  0  0
 36 15  2  0  0  0  0
 37 26  1  0  0  0  0
 37112  1  0  0  0  0
 38 33  1  0  0  0  0
 38113  1  0  0  0  0
 39 34  1  0  0  0  0
 39114  1  0  0  0  0
 40115  1  0  0  0  0
 40116  1  0  0  0  0
 41 20  2  0  0  0  0
 42 51  2  0  0  0  0
 42117  1  0  0  0  0
 43 42  1  0  0  0  0
 43118  1  0  0  0  0
 44 43  2  0  0  0  0
 44119  1  0  0  0  0
 45 44  1  0  0  0  0
 45120  1  0  0  0  0
 46 45  2  0  0  0  0
 46121  1  0  0  0  0
 47 46  1  0  0  0  0
 47122  1  0  0  0  0
 48 47  2  0  0  0  0
 48123  1  0  0  0  0
 49 48  1  0  0  0  0
 49124  1  0  0  0  0
 50 49  2  0  0  0  0
 50125  1  0  0  0  0
 51 53  1  0  0  0  0
 51126  1  0  0  0  0
 52 50  1  0  0  0  0
 52127  1  0  0  0  0
 53 54  2  0  0  0  0
 53128  1  0  0  0  0
 54 25  1  0  0  0  0
 54129  1  0  0  0  0
 55 52  2  0  0  0  0
 55130  1  0  0  0  0
 56 28  2  0  0  0  0
 57 35  2  0  0  0  0
 58131  1  0  0  0  0
 59 24  2  0  0  0  0
 59132  1  0  0  0  0
 60 24  1  0  0  0  0
 60133  1  0  0  0  0
 61134  1  0  0  0  0
 62  7  1  0  0  0  0
 62135  1  0  0  0  0
 63  8  1  0  0  0  0
 63136  1  0  0  0  0
 64 13  1  0  0  0  0
 64137  1  0  0  0  0
 65 68  1  0  0  0  0
 65 67  2  0  0  0  0
 66 65  1  0  0  0  0
 66138  1  0  0  0  0
 66139  1  0  0  0  0
 67 59  1  0  0  0  0
 67140  1  0  0  0  0
 68 60  2  0  0  0  0
 68141  1  0  0  0  0
 69 23  1  0  0  0  0
 69142  1  0  0  0  0
 70 39  1  0  0  0  0
 70143  1  0  0  0  0
 71 38  1  0  0  0  0
 71144  1  0  0  0  0
 72 37  1  0  0  0  0
 72145  1  0  0  0  0
 73146  1  0  0  0  0
 73147  1  0  0  0  0
 73148  1  0  0  0  0
 74 77  1  0  0  0  0
 74149  1  0  0  0  0
 74150  1  0  0  0  0
 75 21  1  0  0  0  0
 75151  1  0  0  0  0
 75152  1  0  0  0  0
 75153  1  0  0  0  0
 76 74  1  0  0  0  0
 76154  1  0  0  0  0
 76155  1  0  0  0  0
 77 35  1  0  0  0  0
 77156  1  0  0  0  0
 77157  1  0  0  0  0
 78 27  1  0  0  0  0
 78158  1  0  0  0  0
 78159  1  0  0  0  0
 78160  1  0  0  0  0
 79 31  1  0  0  0  0
 79161  1  0  0  0  0
 79162  1  0  0  0  0
 79163  1  0  0  0  0
M  END
>  <DRUGBANK_ID>
DB01152

>  <SECONDARY_ACCESSION_NUMBERS>
APRD00843

>  <COMMON_NAME>
Candicidin

>  <CAS_NUMBER>
1403-17-4

>  <UNII>
48N2IYJ202

>  <SYNONYMS>
Candicidin; Candicidina; Candicidine; Candicidinum; Candizidin; Levorin; Levorina; Levorine; Levorinum

$$$$
