
 OpenBabel10282417193D

 20 20  0  0  0  0  0  0  0  0999 V2000
    1.4172   -0.3173   -0.0304 C   0  0  0  0  0  0  0  0  0  0  0  0
    0.5156   -1.3817    0.0194 C   0  0  0  0  0  0  0  0  0  0  0  0
    0.9457    0.9637   -0.2603 C   0  0  0  0  0  0  0  0  0  0  0  0
   -0.8661   -1.1529   -0.0296 C   0  0  0  0  0  0  0  0  0  0  0  0
   -0.4201    1.1703   -0.4124 C   0  0  0  0  0  0  0  0  0  0  0  0
   -2.8150    0.4943   -0.1911 C   0  0  0  0  0  0  0  0  0  0  0  0
   -3.2794    1.2835    1.0551 C   0  0  0  0  0  0  0  0  0  0  0  0
   -1.6613    2.7845    1.7326 C   0  0  0  0  0  0  0  0  0  0  0  0
   -1.3479    0.1453   -0.2056 C   0  0  0  0  0  0  0  0  0  0  0  0
   -2.7004    2.6389    1.1854 N   0  0  0  0  0  0  0  0  0  0  0  0
   -0.2326    3.1254    2.3554 S   0  0  0  0  0  0  0  0  0  0  0  0
    2.4840   -0.4823    0.0881 H   0  0  0  0  0  0  0  0  0  0  0  0
    0.8972   -2.3955    0.0956 H   0  0  0  0  0  0  0  0  0  0  0  0
    1.6213    1.8135   -0.3035 H   0  0  0  0  0  0  0  0  0  0  0  0
   -1.5484   -1.9958    0.0530 H   0  0  0  0  0  0  0  0  0  0  0  0
   -0.7727    2.1781   -0.6156 H   0  0  0  0  0  0  0  0  0  0  0  0
   -3.0395    1.0609   -1.1036 H   0  0  0  0  0  0  0  0  0  0  0  0
   -3.4097   -0.4274   -0.2606 H   0  0  0  0  0  0  0  0  0  0  0  0
   -4.3601    1.4440    0.9302 H   0  0  0  0  0  0  0  0  0  0  0  0
   -3.1631    0.6901    1.9699 H   0  0  0  0  0  0  0  0  0  0  0  0
  1 12  1  0  0  0  0
  2  1  2  0  0  0  0
  2 13  1  0  0  0  0
  3  1  1  0  0  0  0
  3 14  1  0  0  0  0
  4  2  1  0  0  0  0
  4 15  1  0  0  0  0
  5  3  2  0  0  0  0
  5 16  1  0  0  0  0
  6 17  1  0  0  0  0
  6 18  1  0  0  0  0
  7  6  1  0  0  0  0
  7 19  1  0  0  0  0
  7 20  1  0  0  0  0
  9  4  2  0  0  0  0
  9  5  1  0  0  0  0
  9  6  1  0  0  0  0
 10  7  1  0  0  0  0
 10  8  2  0  0  0  0
 11  8  2  0  0  0  0
M  END
>  <DRUGBANK_ID>
DB12695

>  <COMMON_NAME>
Phenethyl Isothiocyanate

>  <CAS_NUMBER>
2257-09-2

>  <UNII>
6U7TFK75KV

$$$$
