BJM
 OpenBabel10282417163D

 48 52  0  0  0  0  0  0  0  0999 V2000
    0.6866   -0.0484   -0.4606 C   0  0  1  0  0  0  0  0  0  0  0  0
    2.2189    0.0312   -1.3808 C   0  0  1  0  0  0  0  0  0  0  0  0
   -1.3507   -0.1347   -0.2606 C   0  0  0  0  0  0  0  0  0  0  0  0
   -0.9041    0.0396   -1.5066 C   0  0  1  0  0  0  0  0  0  0  0  0
   -0.0676   -1.4902    0.9071 C   0  0  2  0  0  0  0  0  0  0  0  0
   -0.1563    1.4609    0.8612 C   0  0  1  0  0  0  0  0  0  0  0  0
   -1.0205   -1.6458   -0.5120 C   0  0  0  0  0  0  0  0  0  0  0  0
   -1.1186    1.6046   -0.5001 C   0  0  0  0  0  0  0  0  0  0  0  0
   -0.1408   -0.0036    1.7616 C   0  0  0  0  0  0  0  0  0  0  0  0
    7.1136   -1.8673   -0.0994 C   0  0  1  0  0  0  0  0  0  0  0  0
    6.5345   -2.3319    1.1705 C   0  0  0  0  0  0  0  0  0  0  0  0
    6.5923   -2.3256   -1.4044 C   0  0  0  0  0  0  0  0  0  0  0  0
    4.8678   -1.7597   -2.9173 C   0  0  0  0  0  0  0  0  0  0  0  0
    4.3006   -2.1782   -3.7954 N   0  0  0  0  0  0  0  0  0  0  0  0
    1.1254   -1.3694    0.1151 C   0  0  0  0  0  0  0  0  0  0  0  0
    1.0418    1.3213    0.0754 C   0  0  0  0  0  0  0  0  0  0  0  0
    3.7643    0.0154   -0.3853 C   0  0  0  0  0  0  0  0  0  0  0  0
    2.3065   -1.0018   -2.3731 N   0  0  0  0  0  0  0  0  0  0  0  0
    4.8062   -0.9835   -0.4842 N   0  0  0  0  0  0  0  0  0  0  0  0
    3.9463    0.9036    0.4651 O   0  0  0  0  0  0  0  0  0  0  0  0
   -1.6590    0.1150   -2.6592 O   0  0  0  0  0  0  0  0  0  0  0  0
    5.9419   -1.0706    0.5819 C   0  0  2  0  0  0  0  0  0  0  0  0
    5.5736   -1.2284   -1.7510 C   0  0  1  0  0  0  0  0  0  0  0  0
    2.3294    0.9827   -1.9256 H   0  0  0  0  0  0  0  0  0  0  0  0
   -0.0620   -2.3661    1.5465 H   0  0  0  0  0  0  0  0  0  0  0  0
   -0.1089    2.3440    1.4922 H   0  0  0  0  0  0  0  0  0  0  0  0
    8.1960   -1.8267   -0.0821 H   0  0  0  0  0  0  0  0  0  0  0  0
    5.8617   -0.3708    1.4115 H   0  0  0  0  0  0  0  0  0  0  0  0
    6.0899   -0.2851   -1.9801 H   0  0  0  0  0  0  0  0  0  0  0  0
   -2.3637   -0.4288   -0.8644 H   0  0  0  0  0  0  0  0  0  0  0  0
   -2.0632    0.1844    0.5693 H   0  0  0  0  0  0  0  0  0  0  0  0
   -2.0004   -1.9581    0.0199 H   0  0  0  0  0  0  0  0  0  0  0  0
   -0.8558   -2.4798   -1.1863 H   0  0  0  0  0  0  0  0  0  0  0  0
   -2.1224    1.8433   -0.0572 H   0  0  0  0  0  0  0  0  0  0  0  0
   -0.9329    2.4643   -1.1385 H   0  0  0  0  0  0  0  0  0  0  0  0
    0.7871    0.0245    2.3496 H   0  0  0  0  0  0  0  0  0  0  0  0
   -1.0193   -0.0124    2.3955 H   0  0  0  0  0  0  0  0  0  0  0  0
    7.2710   -2.2683    1.9784 H   0  0  0  0  0  0  0  0  0  0  0  0
    5.8806   -3.1781    1.2510 H   0  0  0  0  0  0  0  0  0  0  0  0
    7.3605   -2.4577   -2.1758 H   0  0  0  0  0  0  0  0  0  0  0  0
    6.0668   -3.2889   -1.3131 H   0  0  0  0  0  0  0  0  0  0  0  0
    1.1465   -2.1593   -0.6619 H   0  0  0  0  0  0  0  0  0  0  0  0
    2.0628   -1.3617    0.6396 H   0  0  0  0  0  0  0  0  0  0  0  0
    1.9267    1.3631    0.6699 H   0  0  0  0  0  0  0  0  0  0  0  0
    1.1142    2.0814   -0.7327 H   0  0  0  0  0  0  0  0  0  0  0  0
    3.0106   -0.7142   -3.0516 H   0  0  0  0  0  0  0  0  0  0  0  0
    2.6728   -1.8526   -1.9406 H   0  0  0  0  0  0  0  0  0  0  0  0
   -1.4055    0.9862   -3.0147 H   0  0  0  0  0  0  0  0  0  0  0  0
  1  2  1  6  0  0  0
  1  3  1  0  0  0  0
  1 16  1  0  0  0  0
  1 15  1  0  0  0  0
  2 17  1  0  0  0  0
  2 18  1  0  0  0  0
  2 24  1  6  0  0  0
  3  4  1  0  0  0  0
  3 30  1  0  0  0  0
  3 31  1  0  0  0  0
  4  8  1  0  0  0  0
  4 21  1  1  0  0  0
  4  7  1  0  0  0  0
  5  7  1  0  0  0  0
  5  9  1  0  0  0  0
  5 15  1  0  0  0  0
  5 25  1  1  0  0  0
  6 16  1  0  0  0  0
  6  8  1  0  0  0  0
  6  9  1  0  0  0  0
  6 26  1  1  0  0  0
  7 32  1  0  0  0  0
  7 33  1  0  0  0  0
  8 34  1  0  0  0  0
  8 35  1  0  0  0  0
  9 36  1  0  0  0  0
  9 37  1  0  0  0  0
 10 11  1  0  0  0  0
 10 12  1  0  0  0  0
 10 22  1  0  0  0  0
 10 27  1  1  0  0  0
 11 22  1  0  0  0  0
 11 38  1  0  0  0  0
 11 39  1  0  0  0  0
 12 23  1  0  0  0  0
 12 40  1  0  0  0  0
 12 41  1  0  0  0  0
 13 14  3  0  0  0  0
 15 42  1  0  0  0  0
 15 43  1  0  0  0  0
 16 44  1  0  0  0  0
 16 45  1  0  0  0  0
 17 20  2  0  0  0  0
 17 19  1  0  0  0  0
 18 46  1  0  0  0  0
 18 47  1  0  0  0  0
 19 22  1  0  0  0  0
 19 23  1  0  0  0  0
 21 48  1  0  0  0  0
 22 28  1  1  0  0  0
 23 29  1  6  0  0  0
 23 13  1  0  0  0  0
M  END
>  <DRUGBANK_ID>
DB07465

>  <COMMON_NAME>
(1S,3S,5S)-2-{(2S)-2-amino-2-[(1R,3S,5R,7S)-3-hydroxytricyclo[3.3.1.1~3,7~]dec-1-yl]acetyl}-2-azabicyclo[3.1.0]hexane-3-carbonitrile

$$$$
