
 OpenBabel10282417153D

 67 70  0  0  0  0  0  0  0  0999 V2000
    1.3425   -0.0521   -1.0001 C   0  0  0  0  0  0  0  0  0  0  0  0
    0.6840   -1.3069   -1.5318 C   0  0  0  0  0  0  0  0  0  0  0  0
    0.8433   -2.6813   -0.7536 C   0  0  0  0  0  0  0  0  0  0  0  0
    0.0642   -3.2054    0.5404 C   0  0  0  0  0  0  0  0  0  0  0  0
   -1.3389   -3.0009    0.9185 N   0  0  0  0  0  0  0  0  0  0  0  0
   -1.6267   -3.0844    2.4360 C   0  0  0  0  0  0  0  0  0  0  0  0
   -1.2861   -1.9964    3.6183 C   0  0  0  0  0  0  0  0  0  0  0  0
   -1.9163   -0.5298    3.6780 C   0  0  0  0  0  0  0  0  0  0  0  0
   -3.3676   -0.5342    3.2700 C   0  0  0  0  0  0  0  0  0  0  0  0
   -1.6413   -1.6704    0.4374 C   0  0  0  0  0  0  0  0  0  0  0  0
   -0.7145   -0.5165    1.0350 C   0  0  3  0  0  0  0  0  0  0  0  0
    0.7312   -0.3024    1.9290 C   0  0  0  0  0  0  0  0  0  0  0  0
    1.3563    0.9529    1.9239 C   0  0  0  0  0  0  0  0  0  0  0  0
    0.8740    2.3328    1.7461 C   0  0  0  0  0  0  0  0  0  0  0  0
    1.9843    3.1982    1.5948 C   0  0  0  0  0  0  0  0  0  0  0  0
    1.8047    4.5699    1.4782 C   0  0  0  0  0  0  0  0  0  0  0  0
    0.4990    5.0819    1.4661 C   0  0  0  0  0  0  0  0  0  0  0  0
   -0.6071    4.2423    1.5547 C   0  0  0  0  0  0  0  0  0  0  0  0
   -0.4134    2.8766    1.7482 C   0  0  0  0  0  0  0  0  0  0  0  0
    0.2379    6.7823    1.4194 Cl  0  0  0  0  0  0  0  0  0  0  0  0
    3.2218    2.3480    1.6172 C   0  0  0  0  0  0  0  0  0  0  0  0
    4.4817    2.7366    1.4271 C   0  0  0  0  0  0  0  0  0  0  0  0
    5.6756    1.8409    1.3435 C   0  0  0  0  0  0  0  0  0  0  0  0
    5.8181    0.9184    0.2815 C   0  0  0  0  0  0  0  0  0  0  0  0
    6.6802   -0.1888    0.4153 C   0  0  0  0  0  0  0  0  0  0  0  0
    7.5278   -0.2741    1.5159 C   0  0  0  0  0  0  0  0  0  0  0  0
    7.5193    0.7308    2.4821 C   0  0  0  0  0  0  0  0  0  0  0  0
    6.5538    1.7488    2.4289 C   0  0  0  0  0  0  0  0  0  0  0  0
    8.5300   -1.6582    1.7264 Cl  0  0  0  0  0  0  0  0  0  0  0  0
    2.7771    0.9463    1.8552 C   0  0  0  0  0  0  0  0  0  0  0  0
    3.5464   -0.2137    1.8361 C   0  0  0  0  0  0  0  0  0  0  0  0
    2.9543   -1.4246    2.0059 C   0  0  0  0  0  0  0  0  0  0  0  0
    1.6171   -1.4046    2.2828 C   0  0  0  0  0  0  0  0  0  0  0  0
    3.8355   -2.8827    1.7381 Cl  0  0  0  0  0  0  0  0  0  0  0  0
   -1.4267    0.6568    0.6788 O   0  0  0  0  0  0  0  0  0  0  0  0
    1.0486   -0.0860   -0.0129 H   0  0  0  0  0  0  0  0  0  0  0  0
    0.9113    0.9159   -1.2908 H   0  0  0  0  0  0  0  0  0  0  0  0
    2.4270   -0.0252   -0.9135 H   0  0  0  0  0  0  0  0  0  0  0  0
   -0.3604   -1.0623   -1.6996 H   0  0  0  0  0  0  0  0  0  0  0  0
    1.1127   -1.4240   -2.5247 H   0  0  0  0  0  0  0  0  0  0  0  0
    0.6685   -3.4564   -1.4950 H   0  0  0  0  0  0  0  0  0  0  0  0
    1.9094   -2.7237   -0.4867 H   0  0  0  0  0  0  0  0  0  0  0  0
    0.4719   -4.1616    0.8918 H   0  0  0  0  0  0  0  0  0  0  0  0
    0.4255   -2.5586    1.2474 H   0  0  0  0  0  0  0  0  0  0  0  0
   -2.7080   -3.2518    2.5144 H   0  0  0  0  0  0  0  0  0  0  0  0
   -1.1826   -4.0321    2.7729 H   0  0  0  0  0  0  0  0  0  0  0  0
   -1.5572   -2.4622    4.5703 H   0  0  0  0  0  0  0  0  0  0  0  0
   -0.2076   -1.9149    3.7193 H   0  0  0  0  0  0  0  0  0  0  0  0
   -1.5922   -0.0038    4.5809 H   0  0  0  0  0  0  0  0  0  0  0  0
   -1.5234    0.2614    3.0274 H   0  0  0  0  0  0  0  0  0  0  0  0
   -3.9956   -0.7527    4.1236 H   0  0  0  0  0  0  0  0  0  0  0  0
   -3.6433    0.4200    2.8034 H   0  0  0  0  0  0  0  0  0  0  0  0
   -3.5631   -1.2784    2.4963 H   0  0  0  0  0  0  0  0  0  0  0  0
   -1.7158   -1.6654   -0.6493 H   0  0  0  0  0  0  0  0  0  0  0  0
   -2.6946   -1.4496    0.6652 H   0  0  0  0  0  0  0  0  0  0  0  0
   -1.0937   -0.8346    1.9283 H   0  0  0  0  0  0  0  0  0  0  0  0
    2.6508    5.2396    1.4228 H   0  0  0  0  0  0  0  0  0  0  0  0
   -1.6232    4.6349    1.5225 H   0  0  0  0  0  0  0  0  0  0  0  0
   -1.3115    2.2952    1.9139 H   0  0  0  0  0  0  0  0  0  0  0  0
    4.7236    3.7979    1.3393 H   0  0  0  0  0  0  0  0  0  0  0  0
    5.1087    0.9212   -0.5452 H   0  0  0  0  0  0  0  0  0  0  0  0
    6.6029   -1.0250   -0.2788 H   0  0  0  0  0  0  0  0  0  0  0  0
    8.2255    0.6980    3.3071 H   0  0  0  0  0  0  0  0  0  0  0  0
    6.4591    2.4266    3.2748 H   0  0  0  0  0  0  0  0  0  0  0  0
    4.5948   -0.2702    1.7130 H   0  0  0  0  0  0  0  0  0  0  0  0
    1.3106   -2.3955    2.6268 H   0  0  0  0  0  0  0  0  0  0  0  0
   -1.0608    1.0037   -0.1480 H   0  0  0  0  0  0  0  0  0  0  0  0
  1  2  1  0  0  0  0
  1 36  1  0  0  0  0
  1 37  1  0  0  0  0
  1 38  1  0  0  0  0
  2  3  1  0  0  0  0
  2 39  1  0  0  0  0
  2 40  1  0  0  0  0
  3  4  1  0  0  0  0
  3 41  1  0  0  0  0
  3 42  1  0  0  0  0
  4  5  1  0  0  0  0
  4 43  1  0  0  0  0
  4 44  1  0  0  0  0
  5  6  1  0  0  0  0
  5 10  1  0  0  0  0
  6  7  1  0  0  0  0
  6 45  1  0  0  0  0
  6 46  1  0  0  0  0
  7  8  1  0  0  0  0
  7 47  1  0  0  0  0
  7 48  1  0  0  0  0
  8  9  1  0  0  0  0
  8 49  1  0  0  0  0
  8 50  1  0  0  0  0
  9 51  1  0  0  0  0
  9 52  1  0  0  0  0
  9 53  1  0  0  0  0
 10 11  1  0  0  0  0
 10 54  1  0  0  0  0
 10 55  1  0  0  0  0
 11 12  1  0  0  0  0
 11 35  1  0  0  0  0
 11 56  1  0  0  0  0
 12 13  2  0  0  0  0
 12 33  1  0  0  0  0
 13 14  1  0  0  0  0
 13 30  1  0  0  0  0
 14 15  2  0  0  0  0
 14 19  1  0  0  0  0
 15 16  1  0  0  0  0
 15 21  1  0  0  0  0
 16 17  2  0  0  0  0
 16 57  1  0  0  0  0
 17 18  1  0  0  0  0
 17 20  1  0  0  0  0
 18 19  2  0  0  0  0
 18 58  1  0  0  0  0
 19 59  1  0  0  0  0
 21 22  2  0  0  0  0
 21 30  1  0  0  0  0
 22 23  1  0  0  0  0
 22 60  1  0  0  0  0
 23 24  2  0  0  0  0
 23 28  1  0  0  0  0
 24 25  1  0  0  0  0
 24 61  1  0  0  0  0
 25 26  2  0  0  0  0
 25 62  1  0  0  0  0
 26 27  1  0  0  0  0
 26 29  1  0  0  0  0
 27 28  2  0  0  0  0
 27 63  1  0  0  0  0
 28 64  1  0  0  0  0
 30 31  2  0  0  0  0
 31 32  1  0  0  0  0
 31 65  1  0  0  0  0
 32 33  2  0  0  0  0
 32 34  1  0  0  0  0
 33 66  1  0  0  0  0
 35 67  1  0  0  0  0
M  END
>  <DRUGBANK_ID>
DB06708

>  <COMMON_NAME>
Lumefantrine

>  <CAS_NUMBER>
82186-77-4

>  <UNII>
F38R0JR742

>  <SYNONYMS>
(±)-2,7-Dichloro-9-((Z)-p-chlorobenzylidene)-α-((dibutylamino)methyl)fluorene-4-methanol; 2-Dibutylamino-1-[2,7-dichloro-9-(4-chloro-benzylidene)-9H-fluoren-4-yl]-ethanol; 2-Dibutylamino-1-{2,7-dichloro-9-[1-(4-chloro-phenyl)-meth-(Z)-ylidene]-9H-fluoren-4-yl}-ethanol; Benflumetol; dl-Benflumelol; Lumefantrine

$$$$
