959
 OpenBabel10282417163D

 28 28  0  0  0  0  0  0  0  0999 V2000
    0.9198   -0.0745   -0.0630 O   0  0  0  0  0  0  0  0  0  0  0  0
    2.1508   -0.0509   -0.0217 C   0  0  0  0  0  0  0  0  0  0  0  0
    2.9464   -1.3322    0.0161 C   0  0  0  0  0  0  0  0  0  0  0  0
    2.9382    1.2557   -0.0438 C   0  0  0  0  0  0  0  0  0  0  0  0
    2.5680    2.0463   -1.2010 N   0  0  0  0  0  0  0  0  0  0  0  0
    1.8634    3.2108   -1.1930 C   0  0  0  0  0  0  0  0  0  0  0  0
    1.4854    3.7189   -2.2450 O   0  0  0  0  0  0  0  0  0  0  0  0
    1.7557    3.7679    0.0363 O   0  0  0  0  0  0  0  0  0  0  0  0
    1.1870    5.0897    0.0925 C   0  0  0  0  0  0  0  0  0  0  0  0
    2.0489    6.1887   -0.4992 C   0  0  0  0  0  0  0  0  0  0  0  0
    1.6097    7.5186   -0.4243 C   0  0  0  0  0  0  0  0  0  0  0  0
    2.3771    8.5496   -0.9729 C   0  0  0  0  0  0  0  0  0  0  0  0
    3.5933    8.2671   -1.5932 C   0  0  0  0  0  0  0  0  0  0  0  0
    4.0557    6.9596   -1.6469 C   0  0  0  0  0  0  0  0  0  0  0  0
    3.2787    5.9314   -1.1245 C   0  0  0  0  0  0  0  0  0  0  0  0
    3.5678   -1.4103   -0.8800 H   0  0  0  0  0  0  0  0  0  0  0  0
    3.5700   -1.3621    0.9126 H   0  0  0  0  0  0  0  0  0  0  0  0
    2.2618   -2.1858    0.0382 H   0  0  0  0  0  0  0  0  0  0  0  0
    2.7395    1.7890    0.8889 H   0  0  0  0  0  0  0  0  0  0  0  0
    4.0101    1.0507   -0.1123 H   0  0  0  0  0  0  0  0  0  0  0  0
    2.6850    1.6605   -2.1284 H   0  0  0  0  0  0  0  0  0  0  0  0
    0.1832    5.0856   -0.3503 H   0  0  0  0  0  0  0  0  0  0  0  0
    1.0657    5.3168    1.1602 H   0  0  0  0  0  0  0  0  0  0  0  0
    0.6620    7.7596    0.0533 H   0  0  0  0  0  0  0  0  0  0  0  0
    2.0274    9.5764   -0.9150 H   0  0  0  0  0  0  0  0  0  0  0  0
    4.1809    9.0616   -2.0419 H   0  0  0  0  0  0  0  0  0  0  0  0
    5.0154    6.7249   -2.0978 H   0  0  0  0  0  0  0  0  0  0  0  0
    3.6520    4.9206   -1.2479 H   0  0  0  0  0  0  0  0  0  0  0  0
  1  2  2  0  0  0  0
  2  3  1  0  0  0  0
  2  4  1  0  0  0  0
  3 16  1  0  0  0  0
  3 17  1  0  0  0  0
  3 18  1  0  0  0  0
  4  5  1  0  0  0  0
  4 19  1  0  0  0  0
  4 20  1  0  0  0  0
  5  6  1  0  0  0  0
  5 21  1  0  0  0  0
  6  7  2  0  0  0  0
  6  8  1  0  0  0  0
  8  9  1  0  0  0  0
  9 10  1  0  0  0  0
  9 22  1  0  0  0  0
  9 23  1  0  0  0  0
 10 11  2  0  0  0  0
 10 15  1  0  0  0  0
 11 12  1  0  0  0  0
 11 24  1  0  0  0  0
 12 13  2  0  0  0  0
 12 25  1  0  0  0  0
 13 14  1  0  0  0  0
 13 26  1  0  0  0  0
 14 15  2  0  0  0  0
 14 27  1  0  0  0  0
 15 28  1  0  0  0  0
M  END
>  <DRUGBANK_ID>
DB07293

>  <COMMON_NAME>
benzyl (2-oxopropyl)carbamate

>  <UNII>
UAZ6B2TP7B

$$$$
