
 OpenBabel10282417183D

197197  0  0  1  0  0  0  0  0999 V2000
   -8.1798    2.2823   -9.8638 C   0  0  0  0  0  0  0  0  0  0  0  0
   -6.8661    1.6556   -9.4449 C   0  0  0  0  0  0  0  0  0  0  0  0
   -6.2836    2.0122   -8.2799 C   0  0  0  0  0  0  0  0  0  0  0  0
   -4.9216    2.1591   -7.7578 C   0  0  0  0  0  0  0  0  0  0  0  0
   -5.0116    5.3300   -7.3706 C   0  0  1  0  0  0  0  0  0  0  0  0
   -4.6504    3.4513   -6.7732 C   0  0  0  0  0  0  0  0  0  0  0  0
   -6.1550    8.7870   -6.6797 C   0  0  0  0  0  0  0  0  0  0  0  0
   -4.8677    6.7743   -7.0859 O   0  0  0  0  0  0  0  0  0  0  0  0
   -7.9636   12.5087   -5.9624 C   0  0  1  0  0  0  0  0  0  0  0  0
  -10.1430   16.9256   -6.0606 C   0  0  0  0  0  0  0  0  0  0  0  0
  -11.3997   19.0633   -6.2197 O   0  0  0  0  0  0  0  0  0  0  0  0
  -12.2229   21.0748   -6.0192 N   0  0  0  0  0  0  0  0  0  0  0  0
  -14.1899   25.0233   -5.7225 C   0  0  2  0  0  0  0  0  0  0  0  0
  -16.4107   27.7263   -5.7422 C   0  0  0  0  0  0  0  0  0  0  0  0
  -18.3019   28.3379   -5.8651 O   0  0  0  0  0  0  0  0  0  0  0  0
  -16.2659   27.1370   -5.5031 N   0  0  0  0  0  0  0  0  0  0  0  0
  -16.8735   25.9291   -5.6630 C   0  0  0  0  0  0  0  0  0  0  0  0
  -16.2490   25.1804   -6.8401 C   0  0  0  0  0  0  0  0  0  0  0  0
  -16.3247   25.6668   -7.9954 O   0  0  0  0  0  0  0  0  0  0  0  0
  -15.5516   23.9171   -6.5976 N   0  0  0  0  0  0  0  0  0  0  0  0
  -14.9364   23.1945   -7.7267 C   0  0  2  0  0  0  0  0  0  0  0  0
  -13.4530   23.0317   -7.5770 C   0  0  0  0  0  0  0  0  0  0  0  0
  -12.7287   24.1042   -7.3592 O   0  0  0  0  0  0  0  0  0  0  0  0
  -12.8630   21.7040   -7.5375 N   0  0  0  0  0  0  0  0  0  0  0  0
  -11.3398   21.5911   -7.2306 C   0  0  2  0  0  0  0  0  0  0  0  0
  -10.8906   20.8826   -5.7957 C   0  0  0  0  0  0  0  0  0  0  0  0
  -11.5690   21.2506   -4.7509 O   0  0  0  0  0  0  0  0  0  0  0  0
  -10.2150   19.6146   -5.8672 N   0  0  0  0  0  0  0  0  0  0  0  0
  -10.1737   18.7864   -4.6707 C   0  0  2  0  0  0  0  0  0  0  0  0
  -10.8408   17.3913   -4.7210 C   0  0  0  0  0  0  0  0  0  0  0  0
  -12.0556   17.2910   -5.0023 O   0  0  0  0  0  0  0  0  0  0  0  0
   -9.9707   16.1926   -4.6730 N   0  0  0  0  0  0  0  0  0  0  0  0
  -10.5799   14.8638   -4.8026 C   0  0  2  0  0  0  0  0  0  0  0  0
   -9.9508   14.1177   -5.9758 C   0  0  0  0  0  0  0  0  0  0  0  0
  -10.0288   14.5924   -7.1386 O   0  0  0  0  0  0  0  0  0  0  0  0
   -9.3266   12.8762   -5.7244 N   0  0  0  0  0  0  0  0  0  0  0  0
   -8.8086   12.0839   -7.0360 C   0  0  1  0  0  0  0  0  0  0  0  0
   -6.8513   12.0691   -7.0496 C   0  0  0  0  0  0  0  0  0  0  0  0
   -6.3893   13.0513   -6.5064 O   0  0  0  0  0  0  0  0  0  0  0  0
   -6.5129   10.8113   -6.7422 N   0  0  0  0  0  0  0  0  0  0  0  0
   -5.0818   10.5200   -6.3202 C   0  0  2  0  0  0  0  0  0  0  0  0
   -4.8455    9.7396   -5.0180 C   0  0  0  0  0  0  0  0  0  0  0  0
   -5.3048   10.1813   -3.9380 O   0  0  0  0  0  0  0  0  0  0  0  0
   -4.0932    8.4757   -5.0646 N   0  0  0  0  0  0  0  0  0  0  0  0
   -3.8886    7.7130   -3.8262 C   0  0  2  0  0  0  0  0  0  0  0  0
   -4.5129    6.3634   -3.9091 C   0  0  0  0  0  0  0  0  0  0  0  0
   -5.7647    6.2411   -4.1558 O   0  0  0  0  0  0  0  0  0  0  0  0
   -3.5916    5.2688   -3.6787 N   0  0  0  0  0  0  0  0  0  0  0  0
   -4.7317    3.9925   -3.5057 C   0  0  2  0  0  0  0  0  0  0  0  0
   -4.7417    5.6693   -5.3666 C   0  0  0  0  0  0  0  0  0  0  0  0
   -3.5692    3.6677   -5.8813 O   0  0  0  0  0  0  0  0  0  0  0  0
   -6.0888    8.4868   -5.3682 N   0  0  0  0  0  0  0  0  0  0  0  0
   -4.4726    4.9044   -4.5830 C   0  0  0  0  0  0  0  0  0  0  0  0
   -5.8340    3.9249   -4.1740 C   0  0  0  0  0  0  0  0  0  0  0  0
   -6.4128    2.5618   -4.2979 C   0  0  0  0  0  0  0  0  0  0  0  0
   -6.4213    4.6745   -3.0093 C   0  0  0  0  0  0  0  0  0  0  0  0
   -2.2321    5.2583   -3.5913 C   0  0  0  0  0  0  0  0  0  0  0  0
   -4.5145    8.4484   -2.6561 C   0  0  0  0  0  0  0  0  0  0  0  0
   -4.2803    7.6792   -1.3738 C   0  0  0  0  0  0  0  0  0  0  0  0
   -2.7891    7.5331   -1.1365 C   0  0  0  0  0  0  0  0  0  0  0  0
   -4.9094    8.4204   -0.2107 C   0  0  0  0  0  0  0  0  0  0  0  0
   -3.5868    7.9563   -6.3371 C   0  0  0  0  0  0  0  0  0  0  0  0
   -4.4597   11.8810   -6.1970 C   0  0  0  0  0  0  0  0  0  0  0  0
   -2.9722   11.7435   -5.9631 C   0  0  0  0  0  0  0  0  0  0  0  0
   -2.3434   10.9984   -7.1254 C   0  0  0  0  0  0  0  0  0  0  0  0
   -2.3445   13.1180   -5.8419 C   0  0  0  0  0  0  0  0  0  0  0  0
   -7.4390    9.4456   -6.7295 C   0  0  0  0  0  0  0  0  0  0  0  0
   -9.3089   10.7802   -6.9900 C   0  0  0  0  0  0  0  0  0  0  0  0
  -12.0722   15.0015   -5.0399 C   0  0  0  0  0  0  0  0  0  0  0  0
  -10.8058   19.5165   -3.5160 C   0  0  0  0  0  0  0  0  0  0  0  0
  -10.5715   18.7474   -2.2346 C   0  0  0  0  0  0  0  0  0  0  0  0
   -9.0801   18.6011   -1.9976 C   0  0  0  0  0  0  0  0  0  0  0  0
  -11.2006   19.4886   -1.0715 C   0  0  0  0  0  0  0  0  0  0  0  0
   -9.8707   19.0316   -7.2247 C   0  0  0  0  0  0  0  0  0  0  0  0
  -10.7495   22.9538   -7.0633 C   0  0  0  0  0  0  0  0  0  0  0  0
   -9.2654   22.8111   -6.8225 C   0  0  0  0  0  0  0  0  0  0  0  0
  -10.9833   23.7294   -8.3475 C   0  0  0  0  0  0  0  0  0  0  0  0
  -15.1658   23.9666   -9.0125 C   0  0  0  0  0  0  0  0  0  0  0  0
  -14.5429   23.2279  -10.1778 C   0  0  0  0  0  0  0  0  0  0  0  0
  -15.1683   21.8507  -10.2962 C   0  0  0  0  0  0  0  0  0  0  0  0
  -14.7761   24.0039  -11.4588 C   0  0  0  0  0  0  0  0  0  0  0  0
  -15.4510   23.3620   -5.2404 C   0  0  0  0  0  0  0  0  0  0  0  0
  -14.6255   27.3792   -5.0774 C   0  0  0  0  0  0  0  0  0  0  0  0
  -15.9576   28.4828   -5.0411 C   0  0  0  0  0  0  0  0  0  0  0  0
  -16.8417   29.7824   -3.1246 C   0  0  0  0  0  0  0  0  0  0  0  0
  -16.4193   31.5568   -4.3641 C   0  0  0  0  0  0  0  0  0  0  0  0
   -8.4975    2.9851   -9.1163 H   0  0  0  0  0  0  0  0  0  0  0  0
   -8.9272    1.5201   -9.9728 H   0  0  0  0  0  0  0  0  0  0  0  0
   -8.0563    2.7940  -10.7995 H   0  0  0  0  0  0  0  0  0  0  0  0
   -6.3973    0.9249  -10.0793 H   0  0  0  0  0  0  0  0  0  0  0  0
   -6.7484    2.7425   -7.6447 H   0  0  0  0  0  0  0  0  0  0  0  0
   -5.0862    0.8832   -6.9226 H   0  0  0  0  0  0  0  0  0  0  0  0
   -4.6439    0.6967   -8.6056 H   0  0  0  0  0  0  0  0  0  0  0  0
   -3.9211    3.2734   -8.4706 H   0  0  0  0  0  0  0  0  0  0  0  0
   -4.5884    2.8984   -5.7303 H   0  0  0  0  0  0  0  0  0  0  0  0
   -3.6113    4.4665   -6.5191 H   0  0  0  0  0  0  0  0  0  0  0  0
   -5.3271    3.9163   -6.9402 H   0  0  0  0  0  0  0  0  0  0  0  0
   -6.6926   10.2510   -5.8721 H   0  0  0  0  0  0  0  0  0  0  0  0
  -13.2560   23.4334   -6.4316 H   0  0  0  0  0  0  0  0  0  0  0  0
  -15.1222   27.9418   -5.6603 H   0  0  0  0  0  0  0  0  0  0  0  0
  -17.9255   26.0320   -5.8314 H   0  0  0  0  0  0  0  0  0  0  0  0
  -16.7075   25.3877   -4.7575 H   0  0  0  0  0  0  0  0  0  0  0  0
  -15.3780   22.2230   -7.8074 H   0  0  0  0  0  0  0  0  0  0  0  0
  -13.4142   20.8824   -7.5108 H   0  0  0  0  0  0  0  0  0  0  0  0
  -10.9451   21.0527   -8.0047 H   0  0  0  0  0  0  0  0  0  0  0  0
   -9.1247   18.6766   -4.5198 H   0  0  0  0  0  0  0  0  0  0  0  0
   -8.9687   16.2871   -4.5248 H   0  0  0  0  0  0  0  0  0  0  0  0
  -10.4126   14.3154   -3.8965 H   0  0  0  0  0  0  0  0  0  0  0  0
   -9.1905   12.4655   -4.7907 H   0  0  0  0  0  0  0  0  0  0  0  0
   -8.8130   12.6819   -7.7824 H   0  0  0  0  0  0  0  0  0  0  0  0
   -4.6551    9.9873   -7.1419 H   0  0  0  0  0  0  0  0  0  0  0  0
   -2.8367    7.6133   -3.6607 H   0  0  0  0  0  0  0  0  0  0  0  0
   -4.1439    3.2729   -3.0192 H   0  0  0  0  0  0  0  0  0  0  0  0
   -3.7151    2.2016   -3.9920 H   0  0  0  0  0  0  0  0  0  0  0  0
   -2.9003    2.6134   -3.8402 H   0  0  0  0  0  0  0  0  0  0  0  0
   -3.5897    2.5971   -3.3175 H   0  0  0  0  0  0  0  0  0  0  0  0
   -5.9662    4.4803   -5.0858 H   0  0  0  0  0  0  0  0  0  0  0  0
   -6.2460    2.0112   -3.3929 H   0  0  0  0  0  0  0  0  0  0  0  0
   -7.4664    2.6612   -4.4665 H   0  0  0  0  0  0  0  0  0  0  0  0
   -5.9707    2.0334   -5.1200 H   0  0  0  0  0  0  0  0  0  0  0  0
   -5.9795    5.6405   -2.8935 H   0  0  0  0  0  0  0  0  0  0  0  0
   -7.4671    4.7855   -3.1803 H   0  0  0  0  0  0  0  0  0  0  0  0
   -6.2469    4.1356   -2.1056 H   0  0  0  0  0  0  0  0  0  0  0  0
   -1.9766    4.7758   -2.6715 H   0  0  0  0  0  0  0  0  0  0  0  0
   -1.6996    4.7990   -4.4004 H   0  0  0  0  0  0  0  0  0  0  0  0
   -1.9699    6.2924   -3.5391 H   0  0  0  0  0  0  0  0  0  0  0  0
   -4.0723    9.4262   -2.5734 H   0  0  0  0  0  0  0  0  0  0  0  0
   -5.5721    8.5542   -2.8248 H   0  0  0  0  0  0  0  0  0  0  0  0
   -4.7248    6.7046   -1.4580 H   0  0  0  0  0  0  0  0  0  0  0  0
   -2.3422    8.5053   -1.0531 H   0  0  0  0  0  0  0  0  0  0  0  0
   -2.6195    6.9846   -0.2313 H   0  0  0  0  0  0  0  0  0  0  0  0
   -2.3422    7.0087   -1.9557 H   0  0  0  0  0  0  0  0  0  0  0  0
   -5.9644    8.5234   -0.3760 H   0  0  0  0  0  0  0  0  0  0  0  0
   -4.7438    7.8737    0.6976 H   0  0  0  0  0  0  0  0  0  0  0  0
   -4.4669    9.3944   -0.1242 H   0  0  0  0  0  0  0  0  0  0  0  0
   -2.5343    7.8551   -6.2888 H   0  0  0  0  0  0  0  0  0  0  0  0
   -3.9404    7.0424   -6.4809 H   0  0  0  0  0  0  0  0  0  0  0  0
   -3.8584    8.6171   -7.1353 H   0  0  0  0  0  0  0  0  0  0  0  0
   -4.6303   12.4338   -7.1056 H   0  0  0  0  0  0  0  0  0  0  0  0
   -4.9083   12.4107   -5.3746 H   0  0  0  0  0  0  0  0  0  0  0  0
   -2.8052   11.1936   -5.0550 H   0  0  0  0  0  0  0  0  0  0  0  0
   -2.5099   11.5448   -8.0339 H   0  0  0  0  0  0  0  0  0  0  0  0
   -1.2893   10.8951   -6.9601 H   0  0  0  0  0  0  0  0  0  0  0  0
   -2.7837   10.0266   -7.2126 H   0  0  0  0  0  0  0  0  0  0  0  0
   -2.7870   13.6461   -5.0195 H   0  0  0  0  0  0  0  0  0  0  0  0
   -1.2894   13.0194   -5.6743 H   0  0  0  0  0  0  0  0  0  0  0  0
   -2.5099   13.6694   -6.7479 H   0  0  0  0  0  0  0  0  0  0  0  0
   -7.0612    8.8811   -7.5574 H   0  0  0  0  0  0  0  0  0  0  0  0
   -7.3432    8.8540   -5.8076 H   0  0  0  0  0  0  0  0  0  0  0  0
   -8.3246    9.7058   -6.8074 H   0  0  0  0  0  0  0  0  0  0  0  0
  -10.0168   11.3231   -7.5045 H   0  0  0  0  0  0  0  0  0  0  0  0
   -9.1673    9.8382   -7.5582 H   0  0  0  0  0  0  0  0  0  0  0  0
   -9.6179   10.5390   -5.9892 H   0  0  0  0  0  0  0  0  0  0  0  0
  -12.5186   14.0347   -5.1247 H   0  0  0  0  0  0  0  0  0  0  0  0
  -12.5194   15.5298   -4.2170 H   0  0  0  0  0  0  0  0  0  0  0  0
  -12.2424   15.5528   -5.9479 H   0  0  0  0  0  0  0  0  0  0  0  0
  -10.3634   20.4943   -3.4339 H   0  0  0  0  0  0  0  0  0  0  0  0
  -11.8634   19.6222   -3.6858 H   0  0  0  0  0  0  0  0  0  0  0  0
  -11.0162   17.7726   -2.3190 H   0  0  0  0  0  0  0  0  0  0  0  0
   -8.6335   19.5735   -1.9140 H   0  0  0  0  0  0  0  0  0  0  0  0
   -8.9107   18.0528   -1.0922 H   0  0  0  0  0  0  0  0  0  0  0  0
   -8.6330   18.0754   -2.8189 H   0  0  0  0  0  0  0  0  0  0  0  0
  -12.2556   19.5917   -1.2368 H   0  0  0  0  0  0  0  0  0  0  0  0
  -11.0351   18.9419   -0.1633 H   0  0  0  0  0  0  0  0  0  0  0  0
  -10.7581   20.4627   -0.9850 H   0  0  0  0  0  0  0  0  0  0  0  0
   -8.8245   18.9231   -7.1513 H   0  0  0  0  0  0  0  0  0  0  0  0
  -10.3168   18.0605   -7.4405 H   0  0  0  0  0  0  0  0  0  0  0  0
  -10.1510   19.6871   -7.9972 H   0  0  0  0  0  0  0  0  0  0  0  0
  -11.1978   23.4800   -6.2355 H   0  0  0  0  0  0  0  0  0  0  0  0
   -8.8193   22.2846   -7.6444 H   0  0  0  0  0  0  0  0  0  0  0  0
   -8.8196   23.7822   -6.7379 H   0  0  0  0  0  0  0  0  0  0  0  0
   -9.0958   22.2623   -5.9161 H   0  0  0  0  0  0  0  0  0  0  0  0
  -12.0257   23.8286   -8.5472 H   0  0  0  0  0  0  0  0  0  0  0  0
  -10.5505   24.7041   -8.2608 H   0  0  0  0  0  0  0  0  0  0  0  0
  -10.5506   23.2062   -9.1677 H   0  0  0  0  0  0  0  0  0  0  0  0
  -16.2237   24.0722   -9.1796 H   0  0  0  0  0  0  0  0  0  0  0  0
  -14.7239   24.9443   -8.9281 H   0  0  0  0  0  0  0  0  0  0  0  0
  -13.4864   23.1260  -10.0099 H   0  0  0  0  0  0  0  0  0  0  0  0
  -16.2239   21.9497  -10.4632 H   0  0  0  0  0  0  0  0  0  0  0  0
  -14.7261   21.3231  -11.1180 H   0  0  0  0  0  0  0  0  0  0  0  0
  -15.0030   21.2990   -9.3912 H   0  0  0  0  0  0  0  0  0  0  0  0
  -14.3331   24.9777  -11.3773 H   0  0  0  0  0  0  0  0  0  0  0  0
  -14.3331   23.4801  -12.2838 H   0  0  0  0  0  0  0  0  0  0  0  0
  -15.8309   24.1069  -11.6291 H   0  0  0  0  0  0  0  0  0  0  0  0
  -15.9166   22.3993   -5.2117 H   0  0  0  0  0  0  0  0  0  0  0  0
  -14.4199   23.2696   -4.9580 H   0  0  0  0  0  0  0  0  0  0  0  0
  -15.9447   24.0161   -4.5508 H   0  0  0  0  0  0  0  0  0  0  0  0
  -14.5545   26.9010   -4.3677 H   0  0  0  0  0  0  0  0  0  0  0  0
  -14.1261   27.0112   -6.1248 H   0  0  0  0  0  0  0  0  0  0  0  0
  -14.4214   28.4236   -5.1961 H   0  0  0  0  0  0  0  0  0  0  0  0
  -17.8437   30.3933   -4.6240 H   0  0  0  0  0  0  0  0  0  0  0  0
  -15.8091   29.7125   -2.9255 H   0  0  0  0  0  0  0  0  0  0  0  0
  -17.3095   30.3391   -2.2775 H   0  0  0  0  0  0  0  0  0  0  0  0
  -17.3095   28.8406   -3.1760 H   0  0  0  0  0  0  0  0  0  0  0  0
  -16.6366   32.5133   -5.1691 H   0  0  0  0  0  0  0  0  0  0  0  0
  -16.9149   32.4878   -3.4397 H   0  0  0  0  0  0  0  0  0  0  0  0
  -15.4154   31.8677   -4.0945 H   0  0  0  0  0  0  0  0  0  0  0  0
  1  2  1  0  0  0  0
  1 87  1  0  0  0  0
  1 88  1  0  0  0  0
  1 89  1  0  0  0  0
  2  3  2  0  0  0  0
  2 90  1  0  0  0  0
  3  4  1  0  0  0  0
  3 91  1  0  0  0  0
  4  5  1  0  0  0  0
  4 92  1  0  0  0  0
  4 93  1  0  0  0  0
  5  6  1  0  0  0  0
  5  7  1  0  0  0  0
  5 94  1  1  0  0  0
  6 95  1  0  0  0  0
  6 96  1  0  0  0  0
  6 97  1  0  0  0  0
  7  8  2  0  0  0  0
  9 10  1  0  0  0  0
  9 52  1  0  0  0  0
  9 98  1  1  0  0  0
  9  7  1  0  0  0  0
 10 11  2  0  0  0  0
 10 12  1  0  0  0  0
 12 13  1  0  0  0  0
 12 99  1  0  0  0  0
 13 14  1  0  0  0  0
 13 84  1  0  0  0  0
 13100  1  1  0  0  0
 14 15  2  0  0  0  0
 14 16  1  0  0  0  0
 16 17  1  0  0  0  0
 16 83  1  0  0  0  0
 17 18  1  0  0  0  0
 17101  1  0  0  0  0
 17102  1  0  0  0  0
 18 19  2  0  0  0  0
 18 20  1  0  0  0  0
 20 21  1  0  0  0  0
 20 82  1  0  0  0  0
 21 22  1  0  0  0  0
 21 78  1  0  0  0  0
 21103  1  6  0  0  0
 22 23  2  0  0  0  0
 22 24  1  0  0  0  0
 24 25  1  0  0  0  0
 24104  1  0  0  0  0
 25 26  1  0  0  0  0
 25 75  1  0  0  0  0
 25105  1  6  0  0  0
 26 27  2  0  0  0  0
 26 28  1  0  0  0  0
 28 29  1  0  0  0  0
 28 74  1  0  0  0  0
 29 30  1  0  0  0  0
 29 70  1  0  0  0  0
 29106  1  1  0  0  0
 30 31  2  0  0  0  0
 30 32  1  0  0  0  0
 32 33  1  0  0  0  0
 32107  1  0  0  0  0
 33 34  1  0  0  0  0
 33 69  1  0  0  0  0
 33108  1  1  0  0  0
 34 35  2  0  0  0  0
 34 36  1  0  0  0  0
 36 37  1  0  0  0  0
 36109  1  0  0  0  0
 37 38  1  0  0  0  0
 37110  1  6  0  0  0
 37 68  1  0  0  0  0
 38 39  2  0  0  0  0
 38 40  1  0  0  0  0
 40 41  1  0  0  0  0
 40 67  1  0  0  0  0
 41 42  1  0  0  0  0
 41 63  1  0  0  0  0
 41111  1  6  0  0  0
 42 43  2  0  0  0  0
 42 44  1  0  0  0  0
 44 45  1  0  0  0  0
 44 62  1  0  0  0  0
 45 46  1  0  0  0  0
 45 58  1  0  0  0  0
 45112  1  1  0  0  0
 46 47  2  0  0  0  0
 46 48  1  0  0  0  0
 48 49  1  0  0  0  0
 48 57  1  0  0  0  0
 49 50  1  0  0  0  0
 49 54  1  0  0  0  0
 49113  1  6  0  0  0
 50 51  2  0  0  0  0
 50 52  1  0  0  0  0
 52 53  1  0  0  0  0
 53114  1  0  0  0  0
 53115  1  0  0  0  0
 53116  1  0  0  0  0
 54 55  1  0  0  0  0
 54 56  1  0  0  0  0
 54117  1  0  0  0  0
 55118  1  0  0  0  0
 55119  1  0  0  0  0
 55120  1  0  0  0  0
 56121  1  0  0  0  0
 56122  1  0  0  0  0
 56123  1  0  0  0  0
 57124  1  0  0  0  0
 57125  1  0  0  0  0
 57126  1  0  0  0  0
 58 59  1  0  0  0  0
 58127  1  0  0  0  0
 58128  1  0  0  0  0
 59 60  1  0  0  0  0
 59 61  1  0  0  0  0
 59129  1  0  0  0  0
 60130  1  0  0  0  0
 60131  1  0  0  0  0
 60132  1  0  0  0  0
 61133  1  0  0  0  0
 61134  1  0  0  0  0
 61135  1  0  0  0  0
 62136  1  0  0  0  0
 62137  1  0  0  0  0
 62138  1  0  0  0  0
 63 64  1  0  0  0  0
 63139  1  0  0  0  0
 63140  1  0  0  0  0
 64 65  1  0  0  0  0
 64 66  1  0  0  0  0
 64141  1  0  0  0  0
 65142  1  0  0  0  0
 65143  1  0  0  0  0
 65144  1  0  0  0  0
 66145  1  0  0  0  0
 66146  1  0  0  0  0
 66147  1  0  0  0  0
 67148  1  0  0  0  0
 67149  1  0  0  0  0
 67150  1  0  0  0  0
 68151  1  0  0  0  0
 68152  1  0  0  0  0
 68153  1  0  0  0  0
 69154  1  0  0  0  0
 69155  1  0  0  0  0
 69156  1  0  0  0  0
 70 71  1  0  0  0  0
 70157  1  0  0  0  0
 70158  1  0  0  0  0
 71 72  1  0  0  0  0
 71 73  1  0  0  0  0
 71159  1  0  0  0  0
 72160  1  0  0  0  0
 72161  1  0  0  0  0
 72162  1  0  0  0  0
 73163  1  0  0  0  0
 73164  1  0  0  0  0
 73165  1  0  0  0  0
 74166  1  0  0  0  0
 74167  1  0  0  0  0
 74168  1  0  0  0  0
 75 76  1  0  0  0  0
 75 77  1  0  0  0  0
 75169  1  0  0  0  0
 76170  1  0  0  0  0
 76171  1  0  0  0  0
 76172  1  0  0  0  0
 77173  1  0  0  0  0
 77174  1  0  0  0  0
 77175  1  0  0  0  0
 78 79  1  0  0  0  0
 78176  1  0  0  0  0
 78177  1  0  0  0  0
 79 80  1  0  0  0  0
 79 81  1  0  0  0  0
 79178  1  0  0  0  0
 80179  1  0  0  0  0
 80180  1  0  0  0  0
 80181  1  0  0  0  0
 81182  1  0  0  0  0
 81183  1  0  0  0  0
 81184  1  0  0  0  0
 82185  1  0  0  0  0
 82186  1  0  0  0  0
 82187  1  0  0  0  0
 83188  1  0  0  0  0
 83189  1  0  0  0  0
 83190  1  0  0  0  0
 84 85  1  0  0  0  0
 84 86  1  0  0  0  0
 84191  1  0  0  0  0
 85192  1  0  0  0  0
 85193  1  0  0  0  0
 85194  1  0  0  0  0
 86195  1  0  0  0  0
 86196  1  0  0  0  0
 86197  1  0  0  0  0
M  END
>  <DRUGBANK_ID>
DB11869

>  <COMMON_NAME>
Valspodar

>  <CAS_NUMBER>
121584-18-7

>  <UNII>
Q7ZP55KF3X

>  <SYNONYMS>
AMDRAY; Valspodar

$$$$
