
 OpenBabel10282417203D

129136  0  0  1  0  0  0  0  0999 V2000
  -10.5570  -10.6516    2.0505 C   0  0  0  0  0  0  0  0  0  0  0  0
  -11.1620  -10.4996    3.4693 C   0  0  2  0  0  0  0  0  0  0  0  0
  -11.9491   -9.1802    3.7560 C   0  0  2  0  0  0  0  0  0  0  0  0
  -12.4859   -9.1973    5.2125 C   0  0  2  0  0  0  0  0  0  0  0  0
  -11.2876   -9.3373    6.0680 C   0  0  0  0  0  0  0  0  0  0  0  0
  -10.3844  -10.5337    5.7706 C   0  0  1  0  0  0  0  0  0  0  0  0
  -10.1309  -10.8161    4.4112 O   0  0  0  0  0  0  0  0  0  0  0  0
   -9.1603  -10.4730    6.5118 O   0  0  0  0  0  0  0  0  0  0  0  0
   -8.3061   -9.3655    6.2302 C   0  0  2  0  0  0  0  0  0  0  0  0
   -8.9008   -8.0075    6.7310 C   0  0  2  0  0  0  0  0  0  0  0  0
   -8.4233   -6.7465    6.2882 O   0  0  0  0  0  0  0  0  0  0  0  0
   -7.8430   -6.7846    4.9983 C   0  0  2  0  0  0  0  0  0  0  0  0
   -7.0871   -8.0950    4.6192 C   0  0  0  0  0  0  0  0  0  0  0  0
   -7.9383   -9.2694    4.6924 C   0  0  2  0  0  0  0  0  0  0  0  0
   -8.9886   -8.9463    3.7590 O   0  0  0  0  0  0  0  0  0  0  0  0
   -8.9417   -8.1286    2.6788 C   0  0  0  0  0  0  0  0  0  0  0  0
   -9.9426   -7.7965    2.0586 O   0  0  0  0  0  0  0  0  0  0  0  0
   -7.0355   -5.6384    4.8222 O   0  0  0  0  0  0  0  0  0  0  0  0
   -5.9073   -5.6526    5.6878 C   0  0  2  0  0  0  0  0  0  0  0  0
   -4.8563   -6.6269    5.1704 C   0  0  2  0  0  0  0  0  0  0  0  0
   -3.7917   -6.8319    6.0104 O   0  0  0  0  0  0  0  0  0  0  0  0
   -4.1435   -7.1042    7.3676 C   0  0  2  0  0  0  0  0  0  0  0  0
   -5.1320   -6.0727    8.0278 C   0  0  0  0  0  0  0  0  0  0  0  0
   -6.3139   -5.9570    7.2025 C   0  0  2  0  0  0  0  0  0  0  0  0
   -6.7273   -7.2994    7.5389 O   0  0  0  0  0  0  0  0  0  0  0  0
   -6.9024   -7.7105    8.8265 C   0  0  0  0  0  0  0  0  0  0  0  0
   -7.0194   -8.8892    9.1065 O   0  0  0  0  0  0  0  0  0  0  0  0
   -2.8991   -7.0812    8.0318 O   0  0  0  0  0  0  0  0  0  0  0  0
   -2.2277   -5.9201    7.5270 C   0  0  1  0  0  0  0  0  0  0  0  0
   -3.0436   -4.6871    7.8276 C   0  0  0  0  0  0  0  0  0  0  0  0
   -3.3436   -4.7187    9.3840 C   0  0  0  0  0  0  0  0  0  0  0  0
   -2.0565   -4.4103   10.0759 C   0  0  1  0  0  0  0  0  0  0  0  0
   -1.0183   -5.5076    9.6437 C   0  0  1  0  0  0  0  0  0  0  0  0
   -0.9073   -5.7568    8.1395 C   0  0  0  0  0  0  0  0  0  0  0  0
    0.3741   -5.1450   10.0898 C   0  0  0  0  0  0  0  0  0  0  0  0
    0.7328   -3.7491    9.6083 C   0  0  0  0  0  0  0  0  0  0  0  0
   -0.3000   -2.6956   10.0713 C   0  0  2  0  0  0  0  0  0  0  0  0
   -1.6849   -2.9968    9.5950 C   0  0  2  0  0  0  0  0  0  0  0  0
   -2.7409   -1.9175    9.9247 C   0  0  0  0  0  0  0  0  0  0  0  0
   -2.2845   -0.5406    9.4605 C   0  0  0  0  0  0  0  0  0  0  0  0
   -0.8995   -0.1932   10.0764 C   0  0  1  0  0  0  0  0  0  0  0  0
    0.1222   -1.3006    9.6934 C   0  0  2  0  0  0  0  0  0  0  0  0
    0.4184   -1.0097    8.2171 C   0  0  0  0  0  0  0  0  0  0  0  0
    0.5103    0.5256    8.1694 C   0  0  1  0  0  0  0  0  0  0  0  0
   -0.3290    1.1091    9.3712 C   0  0  2  0  0  0  0  0  0  0  0  0
    0.3949    2.1531   10.2026 C   0  0  0  0  0  0  0  0  0  0  0  0
    1.0094    3.2607    9.7798 C   0  0  0  0  0  0  0  0  0  0  0  0
    1.7833    3.8070   10.9159 C   0  0  0  0  0  0  0  0  0  0  0  0
    2.5031    4.7537   10.8774 O   0  0  0  0  0  0  0  0  0  0  0  0
    1.5503    3.0418   12.0155 O   0  0  0  0  0  0  0  0  0  0  0  0
    0.6983    1.9857   11.6442 C   0  0  0  0  0  0  0  0  0  0  0  0
    1.8931    0.9578    8.0446 O   0  0  0  0  0  0  0  0  0  0  0  0
    2.8154    0.8827    9.0336 C   0  0  0  0  0  0  0  0  0  0  0  0
    2.6974    0.5668   10.2094 O   0  0  0  0  0  0  0  0  0  0  0  0
    1.3453   -1.2413   10.3819 O   0  0  0  0  0  0  0  0  0  0  0  0
   -1.1601   -0.1022   11.5899 C   0  0  0  0  0  0  0  0  0  0  0  0
   -2.2655   -4.4862   11.6065 C   0  0  0  0  0  0  0  0  0  0  0  0
   -4.4838   -6.6168    3.6955 C   0  0  0  0  0  0  0  0  0  0  0  0
   -9.5882   -7.9163    8.1201 C   0  0  0  0  0  0  0  0  0  0  0  0
  -13.4015  -10.2364    5.4945 O   0  0  0  0  0  0  0  0  0  0  0  0
  -13.6279  -10.5338    6.7947 C   0  0  0  0  0  0  0  0  0  0  0  0
  -14.2998  -11.4876    7.1492 O   0  0  0  0  0  0  0  0  0  0  0  0
  -13.0670   -9.0777    2.8672 O   0  0  0  0  0  0  0  0  0  0  0  0
  -13.2553   -7.9593    2.1405 C   0  0  0  0  0  0  0  0  0  0  0  0
  -14.2162   -7.8236    1.3971 O   0  0  0  0  0  0  0  0  0  0  0  0
   -9.7035  -10.0299    1.7814 H   0  0  0  0  0  0  0  0  0  0  0  0
  -10.1023  -11.6416    1.9501 H   0  0  0  0  0  0  0  0  0  0  0  0
  -11.3046  -10.4805    1.2772 H   0  0  0  0  0  0  0  0  0  0  0  0
  -11.8831  -11.3076    3.5531 H   0  0  0  0  0  0  0  0  0  0  0  0
  -11.3262   -8.2772    3.6924 H   0  0  0  0  0  0  0  0  0  0  0  0
  -12.9511   -8.2164    5.4201 H   0  0  0  0  0  0  0  0  0  0  0  0
  -10.9986   -8.3502    5.7940 H   0  0  0  0  0  0  0  0  0  0  0  0
  -11.4206   -9.2662    7.1435 H   0  0  0  0  0  0  0  0  0  0  0  0
  -10.8789  -11.4231    6.1585 H   0  0  0  0  0  0  0  0  0  0  0  0
   -7.3714   -9.5800    6.7812 H   0  0  0  0  0  0  0  0  0  0  0  0
   -9.6202   -7.9309    6.0032 H   0  0  0  0  0  0  0  0  0  0  0  0
   -8.6917   -6.6023    4.3423 H   0  0  0  0  0  0  0  0  0  0  0  0
   -6.3845   -8.5190    5.3167 H   0  0  0  0  0  0  0  0  0  0  0  0
   -6.6008   -8.0238    3.6456 H   0  0  0  0  0  0  0  0  0  0  0  0
   -7.3890  -10.1853    4.4111 H   0  0  0  0  0  0  0  0  0  0  0  0
   -7.9773   -7.6826    2.4443 H   0  0  0  0  0  0  0  0  0  0  0  0
   -5.4736   -4.6442    5.5971 H   0  0  0  0  0  0  0  0  0  0  0  0
   -5.1984   -7.5931    5.3047 H   0  0  0  0  0  0  0  0  0  0  0  0
   -4.5606   -8.1248    7.4473 H   0  0  0  0  0  0  0  0  0  0  0  0
   -5.0621   -5.0089    8.1944 H   0  0  0  0  0  0  0  0  0  0  0  0
   -5.2467   -6.3803    9.0671 H   0  0  0  0  0  0  0  0  0  0  0  0
   -7.0086   -5.1608    7.5339 H   0  0  0  0  0  0  0  0  0  0  0  0
   -6.9896   -6.8848    9.5585 H   0  0  0  0  0  0  0  0  0  0  0  0
   -2.0323   -6.0123    6.4542 H   0  0  0  0  0  0  0  0  0  0  0  0
   -3.8480   -4.6859    7.0955 H   0  0  0  0  0  0  0  0  0  0  0  0
   -2.6716   -3.7457    7.4600 H   0  0  0  0  0  0  0  0  0  0  0  0
   -3.6371   -5.6981    9.7972 H   0  0  0  0  0  0  0  0  0  0  0  0
   -4.1665   -4.0571    9.6836 H   0  0  0  0  0  0  0  0  0  0  0  0
   -1.3186   -6.4615   10.1032 H   0  0  0  0  0  0  0  0  0  0  0  0
   -0.2997   -6.6387    7.9194 H   0  0  0  0  0  0  0  0  0  0  0  0
   -0.4871   -4.9068    7.5976 H   0  0  0  0  0  0  0  0  0  0  0  0
    0.4336   -5.1975   11.1773 H   0  0  0  0  0  0  0  0  0  0  0  0
    1.0890   -5.8713    9.6882 H   0  0  0  0  0  0  0  0  0  0  0  0
    1.7258   -3.5254    9.9994 H   0  0  0  0  0  0  0  0  0  0  0  0
    0.8316   -3.7205    8.5158 H   0  0  0  0  0  0  0  0  0  0  0  0
   -0.3096   -2.7396   11.1636 H   0  0  0  0  0  0  0  0  0  0  0  0
   -1.5788   -2.9586    8.5145 H   0  0  0  0  0  0  0  0  0  0  0  0
   -3.7079   -2.1142    9.4512 H   0  0  0  0  0  0  0  0  0  0  0  0
   -2.9516   -1.9084   10.9951 H   0  0  0  0  0  0  0  0  0  0  0  0
   -2.2714   -0.5220    8.3639 H   0  0  0  0  0  0  0  0  0  0  0  0
   -3.0321    0.2054    9.7607 H   0  0  0  0  0  0  0  0  0  0  0  0
    1.3458   -1.4675    7.8592 H   0  0  0  0  0  0  0  0  0  0  0  0
   -0.3925   -1.3547    7.5618 H   0  0  0  0  0  0  0  0  0  0  0  0
    0.0390    0.8514    7.2270 H   0  0  0  0  0  0  0  0  0  0  0  0
   -1.1941    1.6374    8.9316 H   0  0  0  0  0  0  0  0  0  0  0  0
    1.0970    3.6619    8.7874 H   0  0  0  0  0  0  0  0  0  0  0  0
    1.2325    1.0599   11.8560 H   0  0  0  0  0  0  0  0  0  0  0  0
   -0.2049    2.0724   12.2476 H   0  0  0  0  0  0  0  0  0  0  0  0
    3.7672    1.2684    8.6765 H   0  0  0  0  0  0  0  0  0  0  0  0
    1.2216   -1.0887   11.3284 H   0  0  0  0  0  0  0  0  0  0  0  0
   -0.2577   -0.0375   12.1822 H   0  0  0  0  0  0  0  0  0  0  0  0
   -1.8270    0.7389   11.8080 H   0  0  0  0  0  0  0  0  0  0  0  0
   -1.6044   -0.9941   12.0268 H   0  0  0  0  0  0  0  0  0  0  0  0
   -1.3487   -4.2508   12.1513 H   0  0  0  0  0  0  0  0  0  0  0  0
   -3.0400   -3.7978   11.9559 H   0  0  0  0  0  0  0  0  0  0  0  0
   -2.5693   -5.4914   11.9186 H   0  0  0  0  0  0  0  0  0  0  0  0
   -4.0109   -7.5795    3.4438 H   0  0  0  0  0  0  0  0  0  0  0  0
   -5.3518   -6.5189    3.0341 H   0  0  0  0  0  0  0  0  0  0  0  0
   -3.7741   -5.8300    3.4588 H   0  0  0  0  0  0  0  0  0  0  0  0
  -10.3765   -7.1605    8.0843 H   0  0  0  0  0  0  0  0  0  0  0  0
   -9.9697   -8.8762    8.4762 H   0  0  0  0  0  0  0  0  0  0  0  0
   -9.0116   -7.5389    8.9617 H   0  0  0  0  0  0  0  0  0  0  0  0
  -13.1327   -9.8775    7.5275 H   0  0  0  0  0  0  0  0  0  0  0  0
  -12.4965   -7.1746    2.2824 H   0  0  0  0  0  0  0  0  0  0  0  0
  1 66  1  0  0  0  0
  1 67  1  0  0  0  0
  1 68  1  0  0  0  0
  2  1  1  0  0  0  0
  2  3  1  0  0  0  0
  2  7  1  0  0  0  0
  2 69  1  1  0  0  0
  3  4  1  0  0  0  0
  3 70  1  6  0  0  0
  3 63  1  0  0  0  0
  4  5  1  0  0  0  0
  4 71  1  1  0  0  0
  4 60  1  0  0  0  0
  5  6  1  0  0  0  0
  5 72  1  0  0  0  0
  5 73  1  0  0  0  0
  6  7  1  0  0  0  0
  6  8  1  0  0  0  0
  6 74  1  1  0  0  0
  9  8  1  0  0  0  0
  9 10  1  0  0  0  0
  9 14  1  0  0  0  0
  9 75  1  1  0  0  0
 10 11  1  0  0  0  0
 10 59  1  0  0  0  0
 10 76  1  6  0  0  0
 11 12  1  0  0  0  0
 12 13  1  0  0  0  0
 12 18  1  0  0  0  0
 12 77  1  6  0  0  0
 13 14  1  0  0  0  0
 13 78  1  0  0  0  0
 13 79  1  0  0  0  0
 14 80  1  6  0  0  0
 14 15  1  0  0  0  0
 15 16  1  0  0  0  0
 16 17  2  0  0  0  0
 16 81  1  0  0  0  0
 19 18  1  0  0  0  0
 19 20  1  0  0  0  0
 19 24  1  0  0  0  0
 19 82  1  6  0  0  0
 20 21  1  0  0  0  0
 20 58  1  0  0  0  0
 20 83  1  1  0  0  0
 21 22  1  0  0  0  0
 22 23  1  0  0  0  0
 22 28  1  0  0  0  0
 22 84  1  1  0  0  0
 23 24  1  0  0  0  0
 23 85  1  0  0  0  0
 23 86  1  0  0  0  0
 24 87  1  1  0  0  0
 24 25  1  0  0  0  0
 25 26  1  0  0  0  0
 26 27  2  0  0  0  0
 26 88  1  0  0  0  0
 29 30  1  0  0  0  0
 29 34  1  0  0  0  0
 29 89  1  6  0  0  0
 29 28  1  0  0  0  0
 30 31  1  0  0  0  0
 30 90  1  0  0  0  0
 30 91  1  0  0  0  0
 31 32  1  0  0  0  0
 31 92  1  0  0  0  0
 31 93  1  0  0  0  0
 32 33  1  0  0  0  0
 32 38  1  0  0  0  0
 32 57  1  1  0  0  0
 33 34  1  0  0  0  0
 33 35  1  0  0  0  0
 33 94  1  1  0  0  0
 34 95  1  0  0  0  0
 34 96  1  0  0  0  0
 35 36  1  0  0  0  0
 35 97  1  0  0  0  0
 35 98  1  0  0  0  0
 36 99  1  0  0  0  0
 36100  1  0  0  0  0
 37 36  1  0  0  0  0
 37 38  1  0  0  0  0
 37 42  1  0  0  0  0
 37101  1  1  0  0  0
 38 39  1  0  0  0  0
 38102  1  6  0  0  0
 39 40  1  0  0  0  0
 39103  1  0  0  0  0
 39104  1  0  0  0  0
 40 41  1  0  0  0  0
 40105  1  0  0  0  0
 40106  1  0  0  0  0
 41 42  1  0  0  0  0
 41 45  1  0  0  0  0
 41 56  1  1  0  0  0
 42 43  1  0  0  0  0
 42 55  1  1  0  0  0
 43 44  1  0  0  0  0
 43107  1  0  0  0  0
 43108  1  0  0  0  0
 44 45  1  0  0  0  0
 44 52  1  0  0  0  0
 44109  1  6  0  0  0
 45110  1  6  0  0  0
 45 46  1  0  0  0  0
 46 47  2  0  0  0  0
 46 51  1  0  0  0  0
 47 48  1  0  0  0  0
 47111  1  0  0  0  0
 48 49  2  0  0  0  0
 48 50  1  0  0  0  0
 50 51  1  0  0  0  0
 51112  1  0  0  0  0
 51113  1  0  0  0  0
 52 53  1  0  0  0  0
 53 54  2  0  0  0  0
 53114  1  0  0  0  0
 55115  1  0  0  0  0
 56116  1  0  0  0  0
 56117  1  0  0  0  0
 56118  1  0  0  0  0
 57119  1  0  0  0  0
 57120  1  0  0  0  0
 57121  1  0  0  0  0
 58122  1  0  0  0  0
 58123  1  0  0  0  0
 58124  1  0  0  0  0
 59125  1  0  0  0  0
 59126  1  0  0  0  0
 59127  1  0  0  0  0
 60 61  1  0  0  0  0
 61 62  2  0  0  0  0
 61128  1  0  0  0  0
 63 64  1  0  0  0  0
 64 65  2  0  0  0  0
 64129  1  0  0  0  0
M  END
>  <DRUGBANK_ID>
DB13537

>  <COMMON_NAME>
Gitoformate

>  <CAS_NUMBER>
10176-39-3

>  <UNII>
B69U29O7J9

>  <SYNONYMS>
Gitoformate

$$$$
