SCW
 OpenBabel10282417173D

 38 41  0  0  0  0  0  0  0  0999 V2000
    1.5540   -1.1769   -0.0002 C   0  0  0  0  0  0  0  0  0  0  0  0
    0.2534   -0.7308   -0.0077 N   0  0  0  0  0  0  0  0  0  0  0  0
    0.3255    0.6589   -0.0053 C   0  0  0  0  0  0  0  0  0  0  0  0
    1.5853    1.0657   -0.0080 N   0  0  0  0  0  0  0  0  0  0  0  0
    2.3498   -0.0612   -0.0016 C   0  0  0  0  0  0  0  0  0  0  0  0
   -0.9472   -1.4362   -0.0210 C   0  0  0  0  0  0  0  0  0  0  0  0
   -2.1125   -0.7638   -0.0380 C   0  0  0  0  0  0  0  0  0  0  0  0
   -2.0590    0.7014   -0.0210 C   0  0  0  0  0  0  0  0  0  0  0  0
   -0.9045    1.4127   -0.0040 C   0  0  0  0  0  0  0  0  0  0  0  0
   -0.9239    2.7976    0.0119 N   0  0  0  0  0  0  0  0  0  0  0  0
   -3.3938   -1.4922   -0.0361 C   0  0  0  0  0  0  0  0  0  0  0  0
    0.2232    3.6831    0.0208 C   0  0  0  0  0  0  0  0  0  0  0  0
    0.2319    4.5332   -1.2009 C   0  0  0  0  0  0  0  0  0  0  0  0
    0.3572    4.0173   -2.4764 C   0  0  0  0  0  0  0  0  0  0  0  0
    0.3898    4.7799   -3.5877 N   0  0  0  0  0  0  0  0  0  0  0  0
    0.3050    6.1035   -3.3835 C   0  0  0  0  0  0  0  0  0  0  0  0
    0.2035    6.7191   -2.1951 N   0  0  0  0  0  0  0  0  0  0  0  0
    0.1753    5.9072   -1.1236 C   0  0  0  0  0  0  0  0  0  0  0  0
   -4.3434   -1.2400   -1.0351 C   0  0  0  0  0  0  0  0  0  0  0  0
   -5.6308   -1.7669   -0.9297 C   0  0  0  0  0  0  0  0  0  0  0  0
   -5.9447   -2.6295    0.1187 C   0  0  0  0  0  0  0  0  0  0  0  0
   -4.9721   -2.9711    1.0568 C   0  0  0  0  0  0  0  0  0  0  0  0
   -3.7153   -2.3678    1.0079 C   0  0  0  0  0  0  0  0  0  0  0  0
    2.1756   -2.9306    0.0000 Br  0  0  0  0  0  0  0  0  0  0  0  0
    3.4298    0.0051   -0.0008 H   0  0  0  0  0  0  0  0  0  0  0  0
   -0.8827   -2.5177   -0.0214 H   0  0  0  0  0  0  0  0  0  0  0  0
   -3.0162    1.2159   -0.0088 H   0  0  0  0  0  0  0  0  0  0  0  0
   -1.8353    3.2435    0.0009 H   0  0  0  0  0  0  0  0  0  0  0  0
    0.1770    4.2945    0.9283 H   0  0  0  0  0  0  0  0  0  0  0  0
    1.1894    3.1867    0.0708 H   0  0  0  0  0  0  0  0  0  0  0  0
    0.4418    2.9459   -2.6474 H   0  0  0  0  0  0  0  0  0  0  0  0
    0.3186    6.7387   -4.2614 H   0  0  0  0  0  0  0  0  0  0  0  0
    0.1096    6.4114   -0.1635 H   0  0  0  0  0  0  0  0  0  0  0  0
   -4.0943   -0.6123   -1.8883 H   0  0  0  0  0  0  0  0  0  0  0  0
   -6.3888   -1.4994   -1.6613 H   0  0  0  0  0  0  0  0  0  0  0  0
   -6.9489   -3.0360    0.2051 H   0  0  0  0  0  0  0  0  0  0  0  0
   -5.1987   -3.6886    1.8406 H   0  0  0  0  0  0  0  0  0  0  0  0
   -3.0003   -2.5658    1.8030 H   0  0  0  0  0  0  0  0  0  0  0  0
  1  2  1  0  0  0  0
  1 24  1  0  0  0  0
  2  6  1  0  0  0  0
  3  9  1  0  0  0  0
  3  2  1  0  0  0  0
  4  5  1  0  0  0  0
  4  3  2  0  0  0  0
  5  1  2  0  0  0  0
  5 25  1  0  0  0  0
  6  7  2  0  0  0  0
  6 26  1  0  0  0  0
  7 11  1  0  0  0  0
  8  7  1  0  0  0  0
  8 27  1  0  0  0  0
  9  8  2  0  0  0  0
 10 12  1  0  0  0  0
 10  9  1  0  0  0  0
 10 28  1  0  0  0  0
 11 19  1  0  0  0  0
 12 29  1  0  0  0  0
 12 30  1  0  0  0  0
 13 14  1  0  0  0  0
 13 12  1  0  0  0  0
 14 31  1  0  0  0  0
 15 14  2  0  0  0  0
 16 15  1  0  0  0  0
 16 32  1  0  0  0  0
 17 16  2  0  0  0  0
 17 18  1  0  0  0  0
 18 13  2  0  0  0  0
 18 33  1  0  0  0  0
 19 20  2  0  0  0  0
 19 34  1  0  0  0  0
 20 35  1  0  0  0  0
 21 20  1  0  0  0  0
 21 36  1  0  0  0  0
 22 21  2  0  0  0  0
 22 37  1  0  0  0  0
 23 11  2  0  0  0  0
 23 22  1  0  0  0  0
 23 38  1  0  0  0  0
M  END
>  <DRUGBANK_ID>
DB08537

>  <COMMON_NAME>
3-bromo-6-phenyl-N-(pyrimidin-5-ylmethyl)imidazo[1,2-a]pyridin-8-amine

$$$$
