
 OpenBabel10282417133D

 11 11  0  0  0  0  0  0  0  0999 V2000
   -0.2006   -1.3176   -0.0022 C   0  0  0  0  0  0  0  0  0  0  0  0
   -0.4360   -2.7552   -0.0065 C   0  0  0  0  0  0  0  0  0  0  0  0
   -1.5188   -3.3264   -0.0114 O   0  0  0  0  0  0  0  0  0  0  0  0
    0.7064   -3.5012   -0.0057 O   0  0  0  0  0  0  0  0  0  0  0  0
    1.0880   -0.6818    0.0039 C   0  0  0  0  0  0  0  0  0  0  0  0
   -1.2212   -0.4411   -0.0041 N   0  0  0  0  0  0  0  0  0  0  0  0
    1.1093    0.6458    0.0034 N   0  0  0  0  0  0  0  0  0  0  0  0
   -0.5069    1.0761   -0.0013 S   0  0  0  0  0  0  0  0  0  0  0  0
    2.2977   -1.2712    0.0104 O   0  0  0  0  0  0  0  0  0  0  0  0
    0.3718   -4.4269   -0.0112 H   0  0  0  0  0  0  0  0  0  0  0  0
    2.1839   -2.2403    0.0130 H   0  0  0  0  0  0  0  0  0  0  0  0
  1  2  1  0  0  0  0
  1  5  1  0  0  0  0
  1  6  2  0  0  0  0
  2  3  2  0  0  0  0
  2  4  1  0  0  0  0
  4 10  1  0  0  0  0
  5  7  2  0  0  0  0
  5  9  1  0  0  0  0
  6  8  1  0  0  0  0
  7  8  1  0  0  0  0
  9 11  1  0  0  0  0
M  END
>  <DRUGBANK_ID>
DB03162

>  <SECONDARY_ACCESSION_NUMBERS>
EXPT01550

>  <COMMON_NAME>
4-oxo-4,5-dihydro-1,2,5-thiadiazole-3-carboxylic acid

>  <CAS_NUMBER>
45654-48-6

$$$$
