432
 OpenBabel10282417103D

 31 32  0  0  1  0  0  0  0  0999 V2000
    1.0813   -0.1131   -0.0135 F   0  0  0  0  0  0  0  0  0  0  0  0
    2.8367    0.0805    1.2502 F   0  0  0  0  0  0  0  0  0  0  0  0
    2.9027   -1.2108   -0.4924 F   0  0  0  0  0  0  0  0  0  0  0  0
    1.3501    5.3143   -1.3915 O   0  0  0  0  0  0  0  0  0  0  0  0
    2.5812    7.7846    0.1178 O   0  0  0  0  0  0  0  0  0  0  0  0
    0.7495    5.8147   -3.9450 O   0  0  0  0  0  0  0  0  0  0  0  0
    3.2002    4.2432   -3.3943 O   0  0  0  0  0  0  0  0  0  0  0  0
    3.3301   -0.1365   -2.7520 O   0  0  0  0  0  0  0  0  0  0  0  0
    2.8914    3.5239   -1.2083 N   0  0  0  0  0  0  0  0  0  0  0  0
    3.5913    2.0947   -2.9089 N   0  0  0  0  0  0  0  0  0  0  0  0
    2.5362    4.8592   -0.7272 C   0  0  1  0  0  0  0  0  0  0  0  0
    2.8278    7.1759   -1.1500 C   0  0  1  0  0  0  0  0  0  0  0  0
    3.6182    5.9070   -0.9323 C   0  0  0  0  0  0  0  0  0  0  0  0
    1.5344    6.6932   -1.8071 C   0  0  1  0  0  0  0  0  0  0  0  0
    1.5952    6.7867   -3.3404 C   0  0  0  0  0  0  0  0  0  0  0  0
    2.7692    2.4292   -0.3676 C   0  0  0  0  0  0  0  0  0  0  0  0
    3.2238    3.3581   -2.5462 C   0  0  0  0  0  0  0  0  0  0  0  0
    2.8471    1.1694   -0.8281 C   0  0  0  0  0  0  0  0  0  0  0  0
    3.2669    0.9665   -2.2184 C   0  0  0  0  0  0  0  0  0  0  0  0
    2.4386   -0.0213   -0.0476 C   0  0  0  0  0  0  0  0  0  0  0  0
    2.0010    7.2071    0.6426 H   0  0  0  0  0  0  0  0  0  0  0  0
    1.0981    4.9585   -3.6230 H   0  0  0  0  0  0  0  0  0  0  0  0
    3.8410    1.9750   -3.8794 H   0  0  0  0  0  0  0  0  0  0  0  0
    2.2761    4.8051    0.3388 H   0  0  0  0  0  0  0  0  0  0  0  0
    3.3728    7.9051   -1.7570 H   0  0  0  0  0  0  0  0  0  0  0  0
    4.2238    5.6966   -1.8171 H   0  0  0  0  0  0  0  0  0  0  0  0
    4.2959    5.9391   -0.0745 H   0  0  0  0  0  0  0  0  0  0  0  0
    0.6627    7.2567   -1.4533 H   0  0  0  0  0  0  0  0  0  0  0  0
    1.2665    7.7773   -3.6717 H   0  0  0  0  0  0  0  0  0  0  0  0
    2.6102    6.6452   -3.7236 H   0  0  0  0  0  0  0  0  0  0  0  0
    2.5131    2.6258    0.6722 H   0  0  0  0  0  0  0  0  0  0  0  0
  1 20  1  0  0  0  0
  2 20  1  0  0  0  0
  3 20  1  0  0  0  0
  4 11  1  0  0  0  0
  4 14  1  0  0  0  0
  5 21  1  0  0  0  0
  6 15  1  0  0  0  0
  6 22  1  0  0  0  0
  7 17  2  0  0  0  0
  8 19  2  0  0  0  0
  9 16  1  0  0  0  0
  9 17  1  0  0  0  0
 10 17  1  0  0  0  0
 10 19  1  0  0  0  0
 10 23  1  0  0  0  0
 11  9  1  0  0  0  0
 11 13  1  0  0  0  0
 11 24  1  1  0  0  0
 12  5  1  0  0  0  0
 12 13  1  0  0  0  0
 12 14  1  0  0  0  0
 12 25  1  6  0  0  0
 13 26  1  0  0  0  0
 13 27  1  0  0  0  0
 14 28  1  1  0  0  0
 14 15  1  0  0  0  0
 15 29  1  0  0  0  0
 15 30  1  0  0  0  0
 16 18  2  0  0  0  0
 16 31  1  0  0  0  0
 18 19  1  0  0  0  0
 18 20  1  0  0  0  0
M  END
>  <DRUGBANK_ID>
DB00432

>  <SECONDARY_ACCESSION_NUMBERS>
APRD01275

>  <COMMON_NAME>
Trifluridine

>  <CAS_NUMBER>
70-00-8

>  <UNII>
RMW9V5RW38

>  <SYNONYMS>
5-(Trifluoromethyl)deoxyuridine; 5-Trifluoromethyl-2-deoxyuridine; F‚ÇÉT; TFT; Trifluoromethyldeoxyuridine; Trifluorothymidine; Trifluorothymine deoxyriboside; Trifluridin; Trifluridina; Trifluridine; Trifluridinum

$$$$
