
 OpenBabel10282417173D

 34 34  0  0  0  0  0  0  0  0999 V2000
    0.4306    0.3650    0.7773 C   0  0  0  0  0  0  0  0  0  0  0  0
    0.3249    1.1656    1.9698 C   0  0  0  0  0  0  0  0  0  0  0  0
    2.9718   -0.0896   -2.2397 C   0  0  0  0  0  0  0  0  0  0  0  0
    3.5487    1.2890   -1.8233 C   0  0  0  0  0  0  0  0  0  0  0  0
    0.1001   -2.3257   -1.7458 C   0  0  0  0  0  0  0  0  0  0  0  0
    3.4491    1.3652    1.2529 C   0  0  0  0  0  0  0  0  0  0  0  0
    1.2555   -2.7314   -0.8320 C   0  0  3  0  0  0  0  0  0  0  0  0
    1.8650   -0.4716   -1.3123 C   0  0  3  0  0  0  0  0  0  0  0  0
    2.4372    2.5171    1.3388 C   0  0  0  0  0  0  0  0  0  0  0  0
    2.1837   -3.6448   -1.5883 C   0  0  0  0  0  0  0  0  0  0  0  0
    2.1160   -1.6122   -0.4266 N   0  0  0  0  0  0  0  0  0  0  0  0
    2.8261    3.6735    1.1597 O   0  0  0  0  0  0  0  0  0  0  0  0
    2.4720   -4.8076   -1.2812 O   0  0  0  0  0  0  0  0  0  0  0  0
    2.7829   -3.0117   -2.6165 O   0  0  0  0  0  0  0  0  0  0  0  0
    1.1345    2.3518    1.7289 O   0  0  0  0  0  0  0  0  0  0  0  0
    4.5762    1.3540   -0.2584 S   0  0  0  0  0  0  0  0  0  0  0  0
    0.2260   -0.5807   -2.0792 S   0  0  0  0  0  0  0  0  0  0  0  0
    0.2454    1.0282   -0.0762 H   0  0  0  0  0  0  0  0  0  0  0  0
   -0.1045   -0.5798    0.7311 H   0  0  0  0  0  0  0  0  0  0  0  0
    1.4672    0.1259    0.8713 H   0  0  0  0  0  0  0  0  0  0  0  0
   -0.7479    1.3700    1.9819 H   0  0  0  0  0  0  0  0  0  0  0  0
    0.6991    0.5766    2.8043 H   0  0  0  0  0  0  0  0  0  0  0  0
    2.5558   -0.0378   -3.2525 H   0  0  0  0  0  0  0  0  0  0  0  0
    3.7633   -0.8365   -2.2179 H   0  0  0  0  0  0  0  0  0  0  0  0
    2.7840    2.0763   -1.7876 H   0  0  0  0  0  0  0  0  0  0  0  0
    4.2222    1.5638   -2.6427 H   0  0  0  0  0  0  0  0  0  0  0  0
    0.2140   -2.7305   -2.7448 H   0  0  0  0  0  0  0  0  0  0  0  0
   -0.8783   -2.6027   -1.3371 H   0  0  0  0  0  0  0  0  0  0  0  0
    4.1423    1.5663    2.0849 H   0  0  0  0  0  0  0  0  0  0  0  0
    3.1284    0.3593    1.5157 H   0  0  0  0  0  0  0  0  0  0  0  0
    0.8773   -3.2485    0.0652 H   0  0  0  0  0  0  0  0  0  0  0  0
    1.8648    0.4532   -0.7723 H   0  0  0  0  0  0  0  0  0  0  0  0
    1.9745   -1.4764    0.5703 H   0  0  0  0  0  0  0  0  0  0  0  0
    3.5556   -3.5380   -2.8846 H   0  0  0  0  0  0  0  0  0  0  0  0
  1 18  1  0  0  0  0
  1 19  1  0  0  0  0
  1 20  1  0  0  0  0
  2  1  1  0  0  0  0
  2 21  1  0  0  0  0
  2 22  1  0  0  0  0
  3 23  1  0  0  0  0
  3 24  1  0  0  0  0
  4  3  1  0  0  0  0
  4 25  1  0  0  0  0
  4 26  1  0  0  0  0
  5 27  1  0  0  0  0
  5 28  1  0  0  0  0
  6 29  1  0  0  0  0
  6 30  1  0  0  0  0
  7  5  1  0  0  0  0
  7 31  1  0  0  0  0
  8  3  1  0  0  0  0
  8 32  1  0  0  0  0
  9  6  1  0  0  0  0
 10  7  1  0  0  0  0
 11  7  1  0  0  0  0
 11  8  1  0  0  0  0
 11 33  1  0  0  0  0
 12  9  2  0  0  0  0
 13 10  2  0  0  0  0
 14 10  1  0  0  0  0
 14 34  1  0  0  0  0
 15  2  1  0  0  0  0
 15  9  1  0  0  0  0
 16  4  1  0  0  0  0
 16  6  1  0  0  0  0
 17  5  1  0  0  0  0
 17  8  1  0  0  0  0
M  END
>  <DRUGBANK_ID>
DB08939

>  <COMMON_NAME>
Letosteine

>  <CAS_NUMBER>
53943-88-7

>  <UNII>
6MVF9U95DW

>  <SYNONYMS>
letosteina; Letosteine

$$$$
