745
 OpenBabel10282417113D

 34 35  0  0  1  0  0  0  0  0999 V2000
    0.9996    0.2125    0.0246 S   0  0  3  0  0  0  0  0  0  0  0  0
    0.5426    0.7932   -1.2839 O   0  0  0  0  0  0  0  0  0  0  0  0
    4.0990    2.0131    0.8472 O   0  0  0  0  0  0  0  0  0  0  0  0
    3.1451    2.2192   -1.1920 N   0  0  0  0  0  0  0  0  0  0  0  0
    0.5871   -1.6191    0.0920 C   0  0  0  0  0  0  0  0  0  0  0  0
    0.9335   -2.4063   -1.1806 C   0  0  0  0  0  0  0  0  0  0  0  0
    0.9999   -2.2703    1.4410 C   0  0  0  0  0  0  0  0  0  0  0  0
    2.8248    0.1315    0.0414 C   0  0  0  0  0  0  0  0  0  0  0  0
    1.7118   -1.8867   -2.2196 C   0  0  0  0  0  0  0  0  0  0  0  0
    1.2599   -1.4956    2.5844 C   0  0  0  0  0  0  0  0  0  0  0  0
    0.4773   -3.7253   -1.3529 C   0  0  0  0  0  0  0  0  0  0  0  0
    0.9855   -3.6663    1.6460 C   0  0  0  0  0  0  0  0  0  0  0  0
    2.1660   -2.6754   -3.2690 C   0  0  0  0  0  0  0  0  0  0  0  0
    1.4918   -2.0790    3.8325 C   0  0  0  0  0  0  0  0  0  0  0  0
    1.0132   -4.5563   -2.3352 C   0  0  0  0  0  0  0  0  0  0  0  0
    1.1117   -4.2488    2.9049 C   0  0  0  0  0  0  0  0  0  0  0  0
    1.8411   -4.0207   -3.3104 C   0  0  0  0  0  0  0  0  0  0  0  0
    1.3961   -3.4538    3.9969 C   0  0  0  0  0  0  0  0  0  0  0  0
    3.3943    1.5274   -0.0418 C   0  0  0  0  0  0  0  0  0  0  0  0
    2.3851    1.9369   -1.8093 H   0  0  0  0  0  0  0  0  0  0  0  0
    3.4061    3.1973   -1.2083 H   0  0  0  0  0  0  0  0  0  0  0  0
   -0.5139   -1.5887    0.1250 H   0  0  0  0  0  0  0  0  0  0  0  0
    3.1680   -0.3317    0.9689 H   0  0  0  0  0  0  0  0  0  0  0  0
    3.2517   -0.4456   -0.7783 H   0  0  0  0  0  0  0  0  0  0  0  0
    1.9817   -0.8404   -2.2718 H   0  0  0  0  0  0  0  0  0  0  0  0
    1.2964   -0.4106    2.5532 H   0  0  0  0  0  0  0  0  0  0  0  0
   -0.2693   -4.1527   -0.6853 H   0  0  0  0  0  0  0  0  0  0  0  0
    0.8792   -4.3879    0.8512 H   0  0  0  0  0  0  0  0  0  0  0  0
    2.7866   -2.2216   -4.0350 H   0  0  0  0  0  0  0  0  0  0  0  0
    1.7198   -1.4430    4.6822 H   0  0  0  0  0  0  0  0  0  0  0  0
    0.7875   -5.6190   -2.3294 H   0  0  0  0  0  0  0  0  0  0  0  0
    0.9857   -5.3237    3.0103 H   0  0  0  0  0  0  0  0  0  0  0  0
    2.2032   -4.6393   -4.1229 H   0  0  0  0  0  0  0  0  0  0  0  0
    1.5492   -3.9072    4.9694 H   0  0  0  0  0  0  0  0  0  0  0  0
  1  2  2  0  0  0  0
  1  5  1  0  0  0  0
  1  8  1  0  0  0  0
  3 19  2  0  0  0  0
  4 19  1  0  0  0  0
  4 20  1  0  0  0  0
  4 21  1  0  0  0  0
  5  6  1  0  0  0  0
  5  7  1  0  0  0  0
  5 22  1  0  0  0  0
  6  9  2  0  0  0  0
  6 11  1  0  0  0  0
  7 10  2  0  0  0  0
  7 12  1  0  0  0  0
  8 19  1  0  0  0  0
  8 23  1  0  0  0  0
  8 24  1  0  0  0  0
  9 13  1  0  0  0  0
  9 25  1  0  0  0  0
 10 14  1  0  0  0  0
 10 26  1  0  0  0  0
 11 15  2  0  0  0  0
 11 27  1  0  0  0  0
 12 16  2  0  0  0  0
 12 28  1  0  0  0  0
 13 17  2  0  0  0  0
 13 29  1  0  0  0  0
 14 18  2  0  0  0  0
 14 30  1  0  0  0  0
 15 17  1  0  0  0  0
 15 31  1  0  0  0  0
 16 18  1  0  0  0  0
 16 32  1  0  0  0  0
 17 33  1  0  0  0  0
 18 34  1  0  0  0  0
M  END
>  <DRUGBANK_ID>
DB00745

>  <SECONDARY_ACCESSION_NUMBERS>
APRD00534

>  <COMMON_NAME>
Modafinil

>  <CAS_NUMBER>
68693-11-8

>  <UNII>
R3UK8X3U3D

>  <SYNONYMS>
2-((diphenylmethyl)sulfinyl)acetamide; Modafinil; Modafinilo; Modafinilum

$$$$
