
 OpenBabel10282417193D

 55 57  0  0  0  0  0  0  0  0999 V2000
    1.1741   -0.0069    0.0043 C   0  0  0  0  0  0  0  0  0  0  0  0
    0.6424   -0.5770    1.3268 C   0  0  0  0  0  0  0  0  0  0  0  0
    0.5194   -2.1107    1.2528 C   0  0  0  0  0  0  0  0  0  0  0  0
   -0.5687   -2.5316    0.2837 C   0  0  0  0  0  0  0  0  0  0  0  0
   -0.4096   -3.3619   -0.5945 O   0  0  0  0  0  0  0  0  0  0  0  0
   -1.7445   -1.8820    0.5623 N   0  0  0  0  0  0  0  0  0  0  0  0
   -1.6871   -0.5007    0.5202 C   0  0  0  0  0  0  0  0  0  0  0  0
   -2.3280    0.2394   -0.2001 O   0  0  0  0  0  0  0  0  0  0  0  0
   -0.7375    0.0128    1.5828 C   0  0  0  0  0  0  0  0  0  0  0  0
   -2.9965   -2.6183    0.6333 C   0  0  0  0  0  0  0  0  0  0  0  0
   -3.6113   -2.4159    2.0457 C   0  0  0  0  0  0  0  0  0  0  0  0
   -3.9676   -0.9709    2.3491 C   0  0  0  0  0  0  0  0  0  0  0  0
   -4.8082   -0.4125    1.2380 C   0  0  0  0  0  0  0  0  0  0  0  0
   -6.1942   -0.8748    1.3330 N   0  0  0  0  0  0  0  0  0  0  0  0
   -6.7506   -1.0932   -0.0379 C   0  0  0  0  0  0  0  0  0  0  0  0
   -6.6381    0.1568   -0.9368 C   0  0  0  0  0  0  0  0  0  0  0  0
   -7.1602    1.3192   -0.2418 N   0  0  0  0  0  0  0  0  0  0  0  0
   -6.8143    1.5753    1.1408 C   0  0  0  0  0  0  0  0  0  0  0  0
   -6.9371    0.2529    1.9531 C   0  0  0  0  0  0  0  0  0  0  0  0
   -8.1261    2.0992   -0.7780 C   0  0  0  0  0  0  0  0  0  0  0  0
   -7.9040    3.4225   -0.7792 N   0  0  0  0  0  0  0  0  0  0  0  0
   -8.8602    4.1983   -1.3020 C   0  0  0  0  0  0  0  0  0  0  0  0
  -10.0563    3.7064   -1.7543 C   0  0  0  0  0  0  0  0  0  0  0  0
  -10.2090    2.3450   -1.6610 C   0  0  0  0  0  0  0  0  0  0  0  0
   -9.2524    1.5201   -1.2093 N   0  0  0  0  0  0  0  0  0  0  0  0
    1.5603   -0.1872    2.4883 C   0  0  0  0  0  0  0  0  0  0  0  0
    0.8594    1.0352   -0.1266 H   0  0  0  0  0  0  0  0  0  0  0  0
    0.7927   -0.5637   -0.8589 H   0  0  0  0  0  0  0  0  0  0  0  0
    2.2641   -0.0417   -0.0322 H   0  0  0  0  0  0  0  0  0  0  0  0
    1.4641   -2.5820    0.9748 H   0  0  0  0  0  0  0  0  0  0  0  0
    0.2168   -2.5217    2.2284 H   0  0  0  0  0  0  0  0  0  0  0  0
   -1.0986   -0.3158    2.5666 H   0  0  0  0  0  0  0  0  0  0  0  0
   -0.7492    1.1076    1.5961 H   0  0  0  0  0  0  0  0  0  0  0  0
   -3.6669   -2.3226   -0.1777 H   0  0  0  0  0  0  0  0  0  0  0  0
   -2.8094   -3.6880    0.4995 H   0  0  0  0  0  0  0  0  0  0  0  0
   -4.5189   -3.0191    2.1461 H   0  0  0  0  0  0  0  0  0  0  0  0
   -2.9041   -2.7514    2.8129 H   0  0  0  0  0  0  0  0  0  0  0  0
   -4.4339   -0.8383    3.3304 H   0  0  0  0  0  0  0  0  0  0  0  0
   -3.0905   -0.3334    2.4200 H   0  0  0  0  0  0  0  0  0  0  0  0
   -4.6552    0.6569    1.3255 H   0  0  0  0  0  0  0  0  0  0  0  0
   -4.4100   -0.6257    0.2514 H   0  0  0  0  0  0  0  0  0  0  0  0
   -6.2401   -1.9453   -0.5109 H   0  0  0  0  0  0  0  0  0  0  0  0
   -7.8035   -1.3972    0.0415 H   0  0  0  0  0  0  0  0  0  0  0  0
   -5.5814    0.3506   -1.1645 H   0  0  0  0  0  0  0  0  0  0  0  0
   -7.1049   -0.0241   -1.9118 H   0  0  0  0  0  0  0  0  0  0  0  0
   -5.8086    2.0077    1.1392 H   0  0  0  0  0  0  0  0  0  0  0  0
   -7.4167    2.3432    1.6342 H   0  0  0  0  0  0  0  0  0  0  0  0
   -7.9911   -0.0321    2.0561 H   0  0  0  0  0  0  0  0  0  0  0  0
   -6.5590    0.3967    2.9729 H   0  0  0  0  0  0  0  0  0  0  0  0
   -8.6222    5.2555   -1.3415 H   0  0  0  0  0  0  0  0  0  0  0  0
  -10.8244    4.3475   -2.1564 H   0  0  0  0  0  0  0  0  0  0  0  0
  -11.1314    1.8570   -1.9555 H   0  0  0  0  0  0  0  0  0  0  0  0
    2.5661   -0.5898    2.3381 H   0  0  0  0  0  0  0  0  0  0  0  0
    1.6346    0.9017    2.5795 H   0  0  0  0  0  0  0  0  0  0  0  0
    1.1842   -0.5752    3.4432 H   0  0  0  0  0  0  0  0  0  0  0  0
  1  2  1  0  0  0  0
  1 27  1  0  0  0  0
  1 28  1  0  0  0  0
  1 29  1  0  0  0  0
  2  3  1  0  0  0  0
  2  9  1  0  0  0  0
  2 26  1  0  0  0  0
  3  4  1  0  0  0  0
  3 30  1  0  0  0  0
  3 31  1  0  0  0  0
  4  5  2  0  0  0  0
  4  6  1  0  0  0  0
  6  7  1  0  0  0  0
  6 10  1  0  0  0  0
  7  8  2  0  0  0  0
  7  9  1  0  0  0  0
  9 32  1  0  0  0  0
  9 33  1  0  0  0  0
 10 11  1  0  0  0  0
 10 34  1  0  0  0  0
 10 35  1  0  0  0  0
 11 12  1  0  0  0  0
 11 36  1  0  0  0  0
 11 37  1  0  0  0  0
 12 13  1  0  0  0  0
 12 38  1  0  0  0  0
 12 39  1  0  0  0  0
 13 14  1  0  0  0  0
 13 40  1  0  0  0  0
 13 41  1  0  0  0  0
 14 15  1  0  0  0  0
 14 19  1  0  0  0  0
 15 16  1  0  0  0  0
 15 42  1  0  0  0  0
 15 43  1  0  0  0  0
 16 17  1  0  0  0  0
 16 44  1  0  0  0  0
 16 45  1  0  0  0  0
 17 18  1  0  0  0  0
 17 20  1  0  0  0  0
 18 19  1  0  0  0  0
 18 46  1  0  0  0  0
 18 47  1  0  0  0  0
 19 48  1  0  0  0  0
 19 49  1  0  0  0  0
 20 21  2  0  0  0  0
 20 25  1  0  0  0  0
 21 22  1  0  0  0  0
 22 23  2  0  0  0  0
 22 50  1  0  0  0  0
 23 24  1  0  0  0  0
 23 51  1  0  0  0  0
 24 25  2  0  0  0  0
 24 52  1  0  0  0  0
 26 53  1  0  0  0  0
 26 54  1  0  0  0  0
 26 55  1  0  0  0  0
M  END
>  <DRUGBANK_ID>
DB12184

>  <COMMON_NAME>
Gepirone

>  <CAS_NUMBER>
83928-76-1

>  <UNII>
JW5Y7B8Z18

>  <SYNONYMS>
Gepirone

$$$$
