
 OpenBabel10282417133D

 26 28  0  0  0  0  0  0  0  0999 V2000
   -1.1049   -1.1974    0.0178 C   0  0  0  0  0  0  0  0  0  0  0  0
   -0.3152    0.0066    0.5820 C   0  0  1  0  0  0  0  0  0  0  0  0
   -0.9665    1.3324    0.1584 C   0  0  0  0  0  0  0  0  0  0  0  0
    0.0777    1.4638   -0.8536 C   0  0  1  0  0  0  0  0  0  0  0  0
    0.0394   -0.0081   -1.7504 C   0  0  0  0  0  0  0  0  0  0  0  0
    0.0412   -1.4798   -0.8314 C   0  0  2  0  0  0  0  0  0  0  0  0
    1.1835   -1.6313    0.4090 C   0  0  0  0  0  0  0  0  0  0  0  0
    1.2555    0.0799    1.3766 C   0  0  1  0  0  0  0  0  0  0  0  0
    1.6846   -0.1390    0.0895 C   0  0  0  0  0  0  0  0  0  0  0  0
    1.2641    1.6440    0.3341 C   0  0  0  0  0  0  0  0  0  0  0  0
   -1.3437   -1.9708    0.7610 H   0  0  0  0  0  0  0  0  0  0  0  0
   -1.9920   -1.0368   -0.6022 H   0  0  0  0  0  0  0  0  0  0  0  0
   -0.6173   -0.0462    1.6655 H   0  0  0  0  0  0  0  0  0  0  0  0
   -2.0239    1.2969   -0.1155 H   0  0  0  0  0  0  0  0  0  0  0  0
   -0.8770    2.1736    0.8697 H   0  0  0  0  0  0  0  0  0  0  0  0
   -0.0314    2.3287   -1.5092 H   0  0  0  0  0  0  0  0  0  0  0  0
    0.8237   -0.0210   -2.5035 H   0  0  0  0  0  0  0  0  0  0  0  0
   -0.9344   -0.0014   -2.2735 H   0  0  0  0  0  0  0  0  0  0  0  0
   -0.0374   -2.3599   -1.4709 H   0  0  0  0  0  0  0  0  0  0  0  0
    1.2675   -2.4566    1.1197 H   0  0  0  0  0  0  0  0  0  0  0  0
    2.0409   -1.9444   -0.2836 H   0  0  0  0  0  0  0  0  0  0  0  0
    1.7099   -0.0014    2.3432 H   0  0  0  0  0  0  0  0  0  0  0  0
    2.6115   -0.2757    0.7895 H   0  0  0  0  0  0  0  0  0  0  0  0
    2.4273    0.3242   -0.5727 H   0  0  0  0  0  0  0  0  0  0  0  0
    1.2930    2.4744    1.0341 H   0  0  0  0  0  0  0  0  0  0  0  0
    2.1060    1.9188   -0.3393 H   0  0  0  0  0  0  0  0  0  0  0  0
  1  6  1  0  0  0  0
  1 11  1  0  0  0  0
  1 12  1  0  0  0  0
  2  1  1  0  0  0  0
  2  9  1  0  0  0  0
  2  3  1  0  0  0  0
  2 13  1  6  0  0  0
  3 14  1  0  0  0  0
  3 15  1  0  0  0  0
  4 10  1  0  0  0  0
  4  3  1  0  0  0  0
  4  5  1  0  0  0  0
  4 16  1  1  0  0  0
  5 17  1  0  0  0  0
  5 18  1  0  0  0  0
  6  7  1  0  0  0  0
  6  5  1  0  0  0  0
  6 19  1  1  0  0  0
  7 20  1  0  0  0  0
  7 21  1  0  0  0  0
  8  7  1  0  0  0  0
  8  9  1  0  0  0  0
  8 10  1  0  0  0  0
  8 22  1  1  0  0  0
  9 23  1  0  0  0  0
  9 24  1  0  0  0  0
 10 25  1  0  0  0  0
 10 26  1  0  0  0  0
M  END
>  <DRUGBANK_ID>
DB03627

>  <SECONDARY_ACCESSION_NUMBERS>
EXPT00433

>  <COMMON_NAME>
Adamantane

>  <UNII>
PJY633525U

$$$$
