
 OpenBabel10282417133D

 29 28  0  0  0  0  0  0  0  0999 V2000
    0.9500    0.1543   -0.0663 N   0  0  0  0  0  0  0  0  0  0  0  0
   -4.3059   -1.3521    1.8719 C   0  0  0  0  0  0  0  0  0  0  0  0
   -5.6341   -1.4441    1.6566 O   0  0  0  0  0  0  0  0  0  0  0  0
    0.2821   -1.0696    0.3869 C   0  0  0  0  0  0  0  0  0  0  0  0
   -3.4413   -1.5565    0.6215 C   0  0  1  0  0  0  0  0  0  0  0  0
   -3.8638   -1.1250    2.9972 O   0  0  0  0  0  0  0  0  0  0  0  0
   -4.2368   -1.9393   -0.5605 N   0  0  0  0  0  0  0  0  0  0  0  0
   -0.5756   -0.8845    1.6540 C   0  0  0  0  0  0  0  0  0  0  0  0
   -2.6600   -0.2867    0.3155 C   0  0  0  0  0  0  0  0  0  0  0  0
   -1.7104    0.1213    1.4683 C   0  0  0  0  0  0  0  0  0  0  0  0
    0.3304    1.2878   -0.4845 C   0  0  0  0  0  0  0  0  0  0  0  0
    1.0461    2.4201   -0.3672 N   0  0  0  0  0  0  0  0  0  0  0  0
   -0.8826    1.3726   -0.8893 N   0  0  0  0  0  0  0  0  0  0  0  0
    1.9381    0.1894    0.1323 H   0  0  0  0  0  0  0  0  0  0  0  0
   -5.8137   -1.6601    0.7245 H   0  0  0  0  0  0  0  0  0  0  0  0
   -0.3021   -1.5068   -0.4289 H   0  0  0  0  0  0  0  0  0  0  0  0
    1.0434   -1.8253    0.6217 H   0  0  0  0  0  0  0  0  0  0  0  0
   -2.7558   -2.3899    0.8032 H   0  0  0  0  0  0  0  0  0  0  0  0
   -4.7111   -2.8274   -0.4423 H   0  0  0  0  0  0  0  0  0  0  0  0
   -4.8153   -1.1848   -0.9161 H   0  0  0  0  0  0  0  0  0  0  0  0
   -1.0030   -1.8525    1.9515 H   0  0  0  0  0  0  0  0  0  0  0  0
    0.0481   -0.5744    2.5001 H   0  0  0  0  0  0  0  0  0  0  0  0
   -3.3253    0.5524    0.0759 H   0  0  0  0  0  0  0  0  0  0  0  0
   -2.1073   -0.4921   -0.6105 H   0  0  0  0  0  0  0  0  0  0  0  0
   -2.2615    0.2740    2.3953 H   0  0  0  0  0  0  0  0  0  0  0  0
   -1.2787    1.1159    1.3399 H   0  0  0  0  0  0  0  0  0  0  0  0
    0.6053    3.1948   -0.8512 H   0  0  0  0  0  0  0  0  0  0  0  0
    2.0143    2.3456   -0.6411 H   0  0  0  0  0  0  0  0  0  0  0  0
   -1.2089    2.3370   -0.8956 H   0  0  0  0  0  0  0  0  0  0  0  0
  1 11  1  0  0  0  0
  1 14  1  0  0  0  0
  3  2  1  0  0  0  0
  3 15  1  0  0  0  0
  4  1  1  0  0  0  0
  4 16  1  0  0  0  0
  4 17  1  0  0  0  0
  5  2  1  0  0  0  0
  5  7  1  0  0  0  0
  5 18  1  1  0  0  0
  6  2  2  0  0  0  0
  7 19  1  0  0  0  0
  7 20  1  0  0  0  0
  8  4  1  0  0  0  0
  8 21  1  0  0  0  0
  8 22  1  0  0  0  0
  9  5  1  0  0  0  0
  9 23  1  0  0  0  0
  9 24  1  0  0  0  0
 10  8  1  0  0  0  0
 10  9  1  0  0  0  0
 10 25  1  0  0  0  0
 10 26  1  0  0  0  0
 11 12  1  0  0  0  0
 11 13  2  0  0  0  0
 12 27  1  0  0  0  0
 12 28  1  0  0  0  0
 13 29  1  0  0  0  0
M  END
>  <DRUGBANK_ID>
DB03974

>  <SECONDARY_ACCESSION_NUMBERS>
EXPT01779

>  <COMMON_NAME>
L-homoarginine

>  <CAS_NUMBER>
156-86-5

>  <UNII>
JF751CK38I

>  <SYNONYMS>
Homo-L-arginine; Homoarginine; N6-(Aminoiminomethyl)-L-lysine; N6-amidino-L-Lysine; N6-amidino-Lysine

$$$$
