
 OpenBabel10282417133D

 26 25  0  0  0  0  0  0  0  0999 V2000
    1.0610   -0.0691   -0.0387 P   0  0  0  0  0  0  0  0  0  0  0  0
    1.1427    0.5523   -1.4426 O   0  0  0  0  0  0  0  0  0  0  0  0
    0.9458   -1.7012   -0.2854 O   0  0  0  0  0  0  0  0  0  0  0  0
   -0.6690   -0.0691   -0.0387 O   0  0  0  0  0  0  0  0  0  0  0  0
    2.7910   -0.0691   -0.0387 O   0  0  0  0  0  0  0  0  0  0  0  0
   -1.2725    1.0062   -0.7718 C   0  0  0  0  0  0  0  0  0  0  0  0
   -0.7946    2.3730   -0.2902 C   0  0  0  0  0  0  0  0  0  0  0  0
    1.9308   -2.6273   -0.7145 C   0  0  0  0  0  0  0  0  0  0  0  0
    2.7982   -2.2076   -1.8959 C   0  0  0  0  0  0  0  0  0  0  0  0
    3.6124   -0.8129    0.8550 C   0  0  0  0  0  0  0  0  0  0  0  0
    2.9770   -1.3466    2.1270 C   0  0  0  0  0  0  0  0  0  0  0  0
   -1.0775    0.8714   -1.8431 H   0  0  0  0  0  0  0  0  0  0  0  0
   -2.3564    0.9309   -0.6536 H   0  0  0  0  0  0  0  0  0  0  0  0
    0.2960    2.4729   -0.2897 H   0  0  0  0  0  0  0  0  0  0  0  0
   -1.1900    3.1690   -0.9269 H   0  0  0  0  0  0  0  0  0  0  0  0
   -1.1105    2.5409    0.7422 H   0  0  0  0  0  0  0  0  0  0  0  0
    2.5087   -2.9282    0.1485 H   0  0  0  0  0  0  0  0  0  0  0  0
    1.4178   -3.5610   -0.9842 H   0  0  0  0  0  0  0  0  0  0  0  0
    2.9281   -1.1320   -2.0072 H   0  0  0  0  0  0  0  0  0  0  0  0
    3.8055   -2.6453   -1.7896 H   0  0  0  0  0  0  0  0  0  0  0  0
    2.3773   -2.5630   -2.8275 H   0  0  0  0  0  0  0  0  0  0  0  0
    4.0471   -1.6468    0.2952 H   0  0  0  0  0  0  0  0  0  0  0  0
    4.4986   -0.2142    1.0924 H   0  0  0  0  0  0  0  0  0  0  0  0
    1.8896   -1.4328    2.0777 H   0  0  0  0  0  0  0  0  0  0  0  0
    3.3771   -2.3452    2.3502 H   0  0  0  0  0  0  0  0  0  0  0  0
    3.2289   -0.7079    2.9746 H   0  0  0  0  0  0  0  0  0  0  0  0
  1  2  2  0  0  0  0
  1  3  1  0  0  0  0
  1  4  1  0  0  0  0
  1  5  1  0  0  0  0
  3  8  1  0  0  0  0
  4  6  1  0  0  0  0
  5 10  1  0  0  0  0
  6  7  1  0  0  0  0
  6 12  1  0  0  0  0
  6 13  1  0  0  0  0
  7 14  1  0  0  0  0
  7 15  1  0  0  0  0
  7 16  1  0  0  0  0
  8  9  1  0  0  0  0
  8 17  1  0  0  0  0
  8 18  1  0  0  0  0
  9 19  1  0  0  0  0
  9 20  1  0  0  0  0
  9 21  1  0  0  0  0
 10 11  1  0  0  0  0
 10 22  1  0  0  0  0
 10 23  1  0  0  0  0
 11 24  1  0  0  0  0
 11 25  1  0  0  0  0
 11 26  1  0  0  0  0
M  END
>  <DRUGBANK_ID>
DB03347

>  <SECONDARY_ACCESSION_NUMBERS>
EXPT03038

>  <COMMON_NAME>
Triethyl phosphate

>  <CAS_NUMBER>
78-40-0

>  <UNII>
QIH4K96K7J

>  <SYNONYMS>
Ethyl phosphate; o-Phosphoric acid triethyl ester; TEP; Triethoxyphosphine oxide; Triethylphosphate; Tris(ethyl) phosphate

$$$$
