
 OpenBabel10282417203D

 30 32  0  0  0  0  0  0  0  0999 V2000
    3.6760    0.7008    0.0058 C   0  0  0  0  0  0  0  0  0  0  0  0
    2.4553    1.3558    0.0062 C   0  0  0  0  0  0  0  0  0  0  0  0
    3.7106   -0.6930    0.0037 C   0  0  0  0  0  0  0  0  0  0  0  0
   -0.0031    1.4196   -0.0305 C   0  0  0  0  0  0  0  0  0  0  0  0
   -2.4685    1.3651    0.0061 C   0  0  0  0  0  0  0  0  0  0  0  0
   -3.7299   -0.6862    0.0037 C   0  0  0  0  0  0  0  0  0  0  0  0
    1.2587    0.6236    0.0037 C   0  0  0  0  0  0  0  0  0  0  0  0
   -1.2695    0.6364    0.0038 C   0  0  0  0  0  0  0  0  0  0  0  0
   -3.6992    0.7113    0.0055 C   0  0  0  0  0  0  0  0  0  0  0  0
    2.5203   -1.4317    0.0024 C   0  0  0  0  0  0  0  0  0  0  0  0
   -2.5354   -1.4136    0.0048 C   0  0  0  0  0  0  0  0  0  0  0  0
    1.2792   -0.7800    0.0044 C   0  0  0  0  0  0  0  0  0  0  0  0
   -1.2946   -0.7598    0.0055 C   0  0  0  0  0  0  0  0  0  0  0  0
   -0.0187   -1.5228    0.0019 C   0  0  0  0  0  0  0  0  0  0  0  0
   -4.9184    1.5513    0.0013 C   0  0  0  0  0  0  0  0  0  0  0  0
    2.5866   -2.7956   -0.0065 O   0  0  0  0  0  0  0  0  0  0  0  0
   -2.6531   -2.7791    0.0006 O   0  0  0  0  0  0  0  0  0  0  0  0
   -0.0932   -2.7486   -0.0007 O   0  0  0  0  0  0  0  0  0  0  0  0
   -4.9357    2.7718   -0.0005 O   0  0  0  0  0  0  0  0  0  0  0  0
   -6.0482    0.8290    0.0002 O   0  0  0  0  0  0  0  0  0  0  0  0
    4.5934    1.2834    0.0021 H   0  0  0  0  0  0  0  0  0  0  0  0
    2.4236    2.4450    0.0010 H   0  0  0  0  0  0  0  0  0  0  0  0
    4.6774   -1.1865    0.0011 H   0  0  0  0  0  0  0  0  0  0  0  0
   -0.0012    2.0044   -0.9588 H   0  0  0  0  0  0  0  0  0  0  0  0
   -0.0010    2.1037    0.8272 H   0  0  0  0  0  0  0  0  0  0  0  0
   -2.4302    2.4550    0.0012 H   0  0  0  0  0  0  0  0  0  0  0  0
   -4.6759   -1.2194   -0.0004 H   0  0  0  0  0  0  0  0  0  0  0  0
    3.5067   -3.0990   -0.0135 H   0  0  0  0  0  0  0  0  0  0  0  0
   -1.7415   -3.1576    0.0000 H   0  0  0  0  0  0  0  0  0  0  0  0
   -6.7705    1.4912   -0.0006 H   0  0  0  0  0  0  0  0  0  0  0  0
  1 21  1  0  0  0  0
  2  1  2  0  0  0  0
  2 22  1  0  0  0  0
  3  1  1  0  0  0  0
  3 23  1  0  0  0  0
  4 24  1  0  0  0  0
  4 25  1  0  0  0  0
  5 26  1  0  0  0  0
  6 27  1  0  0  0  0
  7  2  1  0  0  0  0
  7  4  1  0  0  0  0
  8  4  1  0  0  0  0
  8  5  2  0  0  0  0
  9  5  1  0  0  0  0
  9  6  2  0  0  0  0
 10  3  2  0  0  0  0
 11  6  1  0  0  0  0
 12  7  2  0  0  0  0
 12 10  1  0  0  0  0
 13  8  1  0  0  0  0
 13 11  2  0  0  0  0
 14 12  1  0  0  0  0
 14 13  1  0  0  0  0
 15  9  1  0  0  0  0
 16 10  1  0  0  0  0
 16 28  1  0  0  0  0
 17 11  1  0  0  0  0
 17 29  1  0  0  0  0
 18 14  2  0  0  0  0
 19 15  2  0  0  0  0
 20 15  1  0  0  0  0
 20 30  1  0  0  0  0
M  END
>  <DRUGBANK_ID>
DB13175

>  <COMMON_NAME>
Rheinanthrone

>  <CAS_NUMBER>
480-09-1

>  <UNII>
0YQK3WBH32

$$$$
