
 OpenBabel10282417153D

 53 56  0  0  1  0  0  0  0  0999 V2000
    4.8188   -2.7917   -0.4013 O   0  0  0  0  0  0  0  0  0  0  0  0
    3.8915   -3.6070   -0.4447 C   0  0  0  0  0  0  0  0  0  0  0  0
    4.1359   -4.8060   -1.2520 C   0  0  0  0  0  0  0  0  0  0  0  0
    3.1725   -5.3687   -2.0780 C   0  0  0  0  0  0  0  0  0  0  0  0
    3.5690   -6.4868   -2.8446 C   0  0  0  0  0  0  0  0  0  0  0  0
    2.7219   -7.1145   -3.6493 N   0  0  0  0  0  0  0  0  0  0  0  0
    1.4869   -6.6257   -3.7127 C   0  0  0  0  0  0  0  0  0  0  0  0
    0.6392   -7.3096   -4.5175 C   0  0  0  0  0  0  0  0  0  0  0  0
   -0.6680   -6.8921   -4.6356 C   0  0  0  0  0  0  0  0  0  0  0  0
   -1.2025   -5.7592   -3.9778 C   0  0  0  0  0  0  0  0  0  0  0  0
   -2.5510   -5.2913   -4.0725 C   0  0  0  0  0  0  0  0  0  0  0  0
   -3.6017   -5.8360   -4.7777 O   0  0  0  0  0  0  0  0  0  0  0  0
   -3.3929   -7.0216   -5.5232 C   0  0  0  0  0  0  0  0  0  0  0  0
   -2.9433   -4.1296   -3.3834 C   0  0  0  0  0  0  0  0  0  0  0  0
   -2.0424   -3.4191   -2.6005 C   0  0  0  0  0  0  0  0  0  0  0  0
   -0.7335   -3.8751   -2.4879 C   0  0  0  0  0  0  0  0  0  0  0  0
   -0.2919   -5.0417   -3.1550 C   0  0  0  0  0  0  0  0  0  0  0  0
    1.0410   -5.4907   -3.0010 C   0  0  0  0  0  0  0  0  0  0  0  0
    1.9119   -4.8795   -2.1715 N   0  0  0  0  0  0  0  0  0  0  0  0
    4.8612   -6.9804   -2.7925 C   0  0  0  0  0  0  0  0  0  0  0  0
    5.8153   -6.3855   -1.9846 C   0  0  0  0  0  0  0  0  0  0  0  0
    5.4511   -5.2944   -1.2187 C   0  0  0  0  0  0  0  0  0  0  0  0
    2.6949   -3.4678    0.2284 N   0  0  0  0  0  0  0  0  0  0  0  0
    2.3288   -2.2365    0.9508 C   0  0  2  0  0  0  0  0  0  0  0  0
    2.9665   -1.0228    0.2668 C   0  0  0  0  0  0  0  0  0  0  0  0
    2.6546   -2.3386    2.4809 C   0  0  0  0  0  0  0  0  0  0  0  0
    2.2835   -1.1794    3.3405 N   0  0  0  0  0  0  0  0  0  0  0  0
    2.6119   -1.4646    4.7432 C   0  0  0  0  0  0  0  0  0  0  0  0
    2.9997    0.0502    2.9929 C   0  0  0  0  0  0  0  0  0  0  0  0
    0.9678   -8.1901   -5.0618 H   0  0  0  0  0  0  0  0  0  0  0  0
   -1.2182   -7.5372   -5.2944 H   0  0  0  0  0  0  0  0  0  0  0  0
   -2.6811   -6.8324   -6.3363 H   0  0  0  0  0  0  0  0  0  0  0  0
   -3.1029   -7.8448   -4.8578 H   0  0  0  0  0  0  0  0  0  0  0  0
   -4.3158   -7.3409   -6.0076 H   0  0  0  0  0  0  0  0  0  0  0  0
   -3.9690   -3.7727   -3.4634 H   0  0  0  0  0  0  0  0  0  0  0  0
   -2.3550   -2.5168   -2.0790 H   0  0  0  0  0  0  0  0  0  0  0  0
   -0.0399   -3.2992   -1.8726 H   0  0  0  0  0  0  0  0  0  0  0  0
    5.1283   -7.8401   -3.4031 H   0  0  0  0  0  0  0  0  0  0  0  0
    6.8323   -6.7611   -1.9568 H   0  0  0  0  0  0  0  0  0  0  0  0
    6.1907   -4.7956   -0.5959 H   0  0  0  0  0  0  0  0  0  0  0  0
    1.9964   -4.2015    0.1460 H   0  0  0  0  0  0  0  0  0  0  0  0
    1.2386   -2.1509    0.8494 H   0  0  0  0  0  0  0  0  0  0  0  0
    2.3136   -0.1517    0.3088 H   0  0  0  0  0  0  0  0  0  0  0  0
    3.9340   -0.7999    0.7366 H   0  0  0  0  0  0  0  0  0  0  0  0
    3.1540   -1.1659   -0.7995 H   0  0  0  0  0  0  0  0  0  0  0  0
    2.1032   -3.2160    2.8594 H   0  0  0  0  0  0  0  0  0  0  0  0
    3.7164   -2.5887    2.6094 H   0  0  0  0  0  0  0  0  0  0  0  0
    3.6848   -1.6486    4.8770 H   0  0  0  0  0  0  0  0  0  0  0  0
    2.3386   -0.6064    5.3705 H   0  0  0  0  0  0  0  0  0  0  0  0
    2.0520   -2.3231    5.1228 H   0  0  0  0  0  0  0  0  0  0  0  0
    4.0833   -0.1081    2.9481 H   0  0  0  0  0  0  0  0  0  0  0  0
    2.6482    0.4749    2.0597 H   0  0  0  0  0  0  0  0  0  0  0  0
    2.7896    0.8558    3.7020 H   0  0  0  0  0  0  0  0  0  0  0  0
  1  2  2  0  0  0  0
  2  3  1  0  0  0  0
  2 23  1  0  0  0  0
  3  4  2  0  0  0  0
  3 22  1  0  0  0  0
  4  5  1  0  0  0  0
  4 19  1  0  0  0  0
  5  6  1  0  0  0  0
  5 20  2  0  0  0  0
  6  7  2  0  0  0  0
  7  8  1  0  0  0  0
  7 18  1  0  0  0  0
  8  9  2  0  0  0  0
  8 30  1  0  0  0  0
  9 10  1  0  0  0  0
  9 31  1  0  0  0  0
 10 11  2  0  0  0  0
 10 17  1  0  0  0  0
 11 12  1  0  0  0  0
 11 14  1  0  0  0  0
 12 13  1  0  0  0  0
 13 32  1  0  0  0  0
 13 33  1  0  0  0  0
 13 34  1  0  0  0  0
 14 15  2  0  0  0  0
 14 35  1  0  0  0  0
 15 16  1  0  0  0  0
 15 36  1  0  0  0  0
 16 17  2  0  0  0  0
 16 37  1  0  0  0  0
 17 18  1  0  0  0  0
 18 19  2  0  0  0  0
 20 21  1  0  0  0  0
 20 38  1  0  0  0  0
 21 22  2  0  0  0  0
 21 39  1  0  0  0  0
 22 40  1  0  0  0  0
 23 41  1  0  0  0  0
 24 26  1  0  0  0  0
 24 42  1  6  0  0  0
 24 25  1  0  0  0  0
 24 23  1  0  0  0  0
 25 43  1  0  0  0  0
 25 44  1  0  0  0  0
 25 45  1  0  0  0  0
 26 27  1  0  0  0  0
 26 46  1  0  0  0  0
 26 47  1  0  0  0  0
 27 28  1  0  0  0  0
 27 29  1  0  0  0  0
 28 48  1  0  0  0  0
 28 49  1  0  0  0  0
 28 50  1  0  0  0  0
 29 51  1  0  0  0  0
 29 52  1  0  0  0  0
 29 53  1  0  0  0  0
M  END
>  <DRUGBANK_ID>
DB06517

>  <COMMON_NAME>
MLN576

>  <CAS_NUMBER>
346689-77-8

>  <UNII>
Q2L4XU3YX6

$$$$
