B21
 OpenBabel10282417163D

 26 27  0  0  0  0  0  0  0  0999 V2000
    0.6741    0.0124    0.1140 C   0  0  0  0  0  0  0  0  0  0  0  0
    0.3126    0.5305   -1.1644 O   0  0  0  0  0  0  0  0  0  0  0  0
    0.8313    1.7589   -1.5053 C   0  0  0  0  0  0  0  0  0  0  0  0
   -0.0775    2.6271   -2.1375 C   0  0  0  0  0  0  0  0  0  0  0  0
    0.3523    3.8455   -2.6706 C   0  0  0  0  0  0  0  0  0  0  0  0
    1.6786    4.2367   -2.5158 C   0  0  0  0  0  0  0  0  0  0  0  0
    2.5879    3.3842   -1.8842 C   0  0  0  0  0  0  0  0  0  0  0  0
    2.1864    2.1325   -1.3918 C   0  0  0  0  0  0  0  0  0  0  0  0
    3.2080    1.2217   -0.8977 C   0  0  0  0  0  0  0  0  0  0  0  0
    3.8774    1.5761    0.2439 O   0  0  0  0  0  0  0  0  0  0  0  0
    3.5419   -0.0660   -1.2639 C   0  0  0  0  0  0  0  0  0  0  0  0
    4.4239   -0.5448   -0.2734 C   0  0  0  0  0  0  0  0  0  0  0  0
    4.6324    0.4882    0.6263 C   0  0  0  0  0  0  0  0  0  0  0  0
    5.4522    0.5432    1.8091 C   0  0  0  0  0  0  0  0  0  0  0  0
    5.6091    1.4669    2.6023 O   0  0  0  0  0  0  0  0  0  0  0  0
    6.1222   -0.6232    1.9853 O   0  0  0  0  0  0  0  0  0  0  0  0
    0.2535   -0.9926    0.2052 H   0  0  0  0  0  0  0  0  0  0  0  0
    0.3168    0.6565    0.9176 H   0  0  0  0  0  0  0  0  0  0  0  0
    1.7326   -0.1487    0.2629 H   0  0  0  0  0  0  0  0  0  0  0  0
   -1.1283    2.3556   -2.2226 H   0  0  0  0  0  0  0  0  0  0  0  0
   -0.3401    4.4839   -3.2161 H   0  0  0  0  0  0  0  0  0  0  0  0
    2.0126    5.1980   -2.8986 H   0  0  0  0  0  0  0  0  0  0  0  0
    3.6334    3.6767   -1.8216 H   0  0  0  0  0  0  0  0  0  0  0  0
    3.0795   -0.6203   -2.0691 H   0  0  0  0  0  0  0  0  0  0  0  0
    4.8360   -1.5396   -0.1886 H   0  0  0  0  0  0  0  0  0  0  0  0
    6.6802   -0.4801    2.7764 H   0  0  0  0  0  0  0  0  0  0  0  0
  1  2  1  0  0  0  0
  1 17  1  0  0  0  0
  1 18  1  0  0  0  0
  1 19  1  0  0  0  0
  2  3  1  0  0  0  0
  3  8  2  0  0  0  0
  3  4  1  0  0  0  0
  4  5  2  0  0  0  0
  4 20  1  0  0  0  0
  5  6  1  0  0  0  0
  5 21  1  0  0  0  0
  6  7  2  0  0  0  0
  6 22  1  0  0  0  0
  7  8  1  0  0  0  0
  7 23  1  0  0  0  0
  8  9  1  0  0  0  0
  9 10  1  0  0  0  0
  9 11  2  0  0  0  0
 10 13  1  0  0  0  0
 11 12  1  0  0  0  0
 11 24  1  0  0  0  0
 12 13  2  0  0  0  0
 12 25  1  0  0  0  0
 13 14  1  0  0  0  0
 14 15  2  0  0  0  0
 14 16  1  0  0  0  0
 16 26  1  0  0  0  0
M  END
>  <DRUGBANK_ID>
DB07407

>  <COMMON_NAME>
5-(2-METHOXYPHENYL)-2-FUROIC ACID

$$$$
