
 OpenBabel10282417123D

 29 29  0  0  0  0  0  0  0  0999 V2000
   -1.5496   -1.7590    0.0160 C   0  0  0  0  0  0  0  0  0  0  0  0
   -0.4184   -0.7712   -0.0047 C   0  0  0  0  0  0  0  0  0  0  0  0
    0.8230   -1.3100   -0.0115 N   0  0  0  0  0  0  0  0  0  0  0  0
    1.8689   -0.4634   -0.0325 C   0  0  0  0  0  0  0  0  0  0  0  0
    1.7554    0.9272   -0.0296 C   0  0  0  0  0  0  0  0  0  0  0  0
    3.0416    1.7197    0.0167 C   0  0  0  0  0  0  0  0  0  0  0  0
    3.7437    1.5233    1.2464 O   0  0  0  0  0  0  0  0  0  0  0  0
    2.7632    1.8082    2.6429 P   0  0  0  0  0  0  0  0  0  0  0  0
    4.1389    1.5485    3.4992 O   0  0  0  0  0  0  0  0  0  0  0  0
    3.0820    3.4010    2.3815 O   0  0  0  0  0  0  0  0  0  0  0  0
    1.8856    2.0631    3.8928 O   0  0  0  0  0  0  0  0  0  0  0  0
    0.4547    1.4971   -0.0210 C   0  0  0  0  0  0  0  0  0  0  0  0
    0.2680    2.9983   -0.0376 C   0  0  0  0  0  0  0  0  0  0  0  0
    0.8042    3.6229    1.1706 N   0  0  0  0  0  0  0  0  0  0  0  0
   -0.6440    0.6135   -0.0144 C   0  0  0  0  0  0  0  0  0  0  0  0
   -1.9484    1.0180   -0.0153 O   0  0  0  0  0  0  0  0  0  0  0  0
   -1.4988   -2.3937   -0.8743 H   0  0  0  0  0  0  0  0  0  0  0  0
   -1.4702   -2.3896    0.9072 H   0  0  0  0  0  0  0  0  0  0  0  0
   -2.5348   -1.2852    0.0319 H   0  0  0  0  0  0  0  0  0  0  0  0
    2.8426   -0.9490   -0.0347 H   0  0  0  0  0  0  0  0  0  0  0  0
    3.6956    1.3990   -0.8020 H   0  0  0  0  0  0  0  0  0  0  0  0
    2.8886    2.7885   -0.1455 H   0  0  0  0  0  0  0  0  0  0  0  0
    4.1575    0.6846    3.9349 H   0  0  0  0  0  0  0  0  0  0  0  0
    2.4048    3.7395    1.7576 H   0  0  0  0  0  0  0  0  0  0  0  0
    0.7614    3.4095   -0.9251 H   0  0  0  0  0  0  0  0  0  0  0  0
   -0.7776    3.2979   -0.1232 H   0  0  0  0  0  0  0  0  0  0  0  0
    0.5546    4.6179    1.1615 H   0  0  0  0  0  0  0  0  0  0  0  0
    0.3033    3.2524    1.9913 H   0  0  0  0  0  0  0  0  0  0  0  0
   -2.0498    1.9801    0.0221 H   0  0  0  0  0  0  0  0  0  0  0  0
  1  2  1  0  0  0  0
  1 17  1  0  0  0  0
  1 18  1  0  0  0  0
  1 19  1  0  0  0  0
  2  3  2  0  0  0  0
  2 15  1  0  0  0  0
  3  4  1  0  0  0  0
  4  5  2  0  0  0  0
  4 20  1  0  0  0  0
  5  6  1  0  0  0  0
  5 12  1  0  0  0  0
  6  7  1  0  0  0  0
  6 21  1  0  0  0  0
  6 22  1  0  0  0  0
  7  8  1  0  0  0  0
  8  9  1  0  0  0  0
  8 10  1  0  0  0  0
  8 11  2  0  0  0  0
  9 23  1  0  0  0  0
 10 24  1  0  0  0  0
 12 13  1  0  0  0  0
 12 15  2  0  0  0  0
 13 14  1  0  0  0  0
 13 25  1  0  0  0  0
 13 26  1  0  0  0  0
 14 27  1  0  0  0  0
 14 28  1  0  0  0  0
 15 16  1  0  0  0  0
 16 29  1  0  0  0  0
M  END
>  <DRUGBANK_ID>
DB02142

>  <SECONDARY_ACCESSION_NUMBERS>
EXPT02621

>  <COMMON_NAME>
Pyridoxamine-5'-Phosphate

>  <CAS_NUMBER>
529-96-4

>  <UNII>
Q05R77UO7P

>  <SYNONYMS>
Pyridoxamine phosphate

$$$$
