
 OpenBabel10282417143D

 26 26  0  0  1  0  0  0  0  0999 V2000
   -0.2622    1.1644    0.0450 S   0  0  0  0  0  0  0  0  0  0  0  0
    2.6490   -3.4490   -0.4550 S   0  0  0  0  0  0  0  0  0  0  0  0
    2.0357   -0.1109   -0.0457 O   0  0  0  0  0  0  0  0  0  0  0  0
    0.4543   -3.1696   -3.4604 O   0  0  0  0  0  0  0  0  0  0  0  0
    3.9981   -4.0582   -3.9277 O   0  0  0  0  0  0  0  0  0  0  0  0
    4.7922   -5.0535   -2.0775 O   0  0  0  0  0  0  0  0  0  0  0  0
   -0.0176   -1.8956   -1.6810 N   0  0  0  0  0  0  0  0  0  0  0  0
    0.0262   -1.5023   -0.2720 C   0  0  3  0  0  0  0  0  0  0  0  0
   -1.3490   -1.2361    0.3086 C   0  0  0  0  0  0  0  0  0  0  0  0
   -1.7653    0.1592   -0.1027 C   0  0  0  0  0  0  0  0  0  0  0  0
    0.8245   -0.2220   -0.0470 C   0  0  0  0  0  0  0  0  0  0  0  0
    0.5323   -3.0164   -2.2403 C   0  0  0  0  0  0  0  0  0  0  0  0
    1.1804   -4.0640   -1.3501 C   0  0  0  0  0  0  0  0  0  0  0  0
    3.7158   -2.9027   -1.8258 C   0  0  0  0  0  0  0  0  0  0  0  0
    4.2233   -4.1014   -2.5958 C   0  0  0  0  0  0  0  0  0  0  0  0
    3.4987   -3.2882   -4.2610 H   0  0  0  0  0  0  0  0  0  0  0  0
   -0.3902   -1.2430   -2.3656 H   0  0  0  0  0  0  0  0  0  0  0  0
    0.4591   -2.2931    0.3337 H   0  0  0  0  0  0  0  0  0  0  0  0
   -2.0770   -1.9897   -0.0093 H   0  0  0  0  0  0  0  0  0  0  0  0
   -1.2832   -1.2936    1.4039 H   0  0  0  0  0  0  0  0  0  0  0  0
   -2.1213    0.1725   -1.1368 H   0  0  0  0  0  0  0  0  0  0  0  0
   -2.5472    0.5467    0.5537 H   0  0  0  0  0  0  0  0  0  0  0  0
    0.4327   -4.3929   -0.6193 H   0  0  0  0  0  0  0  0  0  0  0  0
    1.4509   -4.9394   -1.9461 H   0  0  0  0  0  0  0  0  0  0  0  0
    3.2168   -2.1674   -2.4648 H   0  0  0  0  0  0  0  0  0  0  0  0
    4.5862   -2.3984   -1.3908 H   0  0  0  0  0  0  0  0  0  0  0  0
  1 10  1  0  0  0  0
  1 11  1  0  0  0  0
  2 13  1  0  0  0  0
  2 14  1  0  0  0  0
  3 11  2  0  0  0  0
  4 12  2  0  0  0  0
  5 15  1  0  0  0  0
  5 16  1  0  0  0  0
  6 15  2  0  0  0  0
  7  8  1  0  0  0  0
  7 12  1  0  0  0  0
  7 17  1  0  0  0  0
  8  9  1  0  0  0  0
  8 11  1  0  0  0  0
  8 18  1  0  0  0  0
  9 10  1  0  0  0  0
  9 19  1  0  0  0  0
  9 20  1  0  0  0  0
 10 21  1  0  0  0  0
 10 22  1  0  0  0  0
 12 13  1  0  0  0  0
 13 23  1  0  0  0  0
 13 24  1  0  0  0  0
 14 15  1  0  0  0  0
 14 25  1  0  0  0  0
 14 26  1  0  0  0  0
M  END
>  <DRUGBANK_ID>
DB05057

>  <COMMON_NAME>
Erdosteine

>  <CAS_NUMBER>
84611-23-4

>  <UNII>
76J0853EKA

>  <SYNONYMS>
Erdosteine

$$$$
