
 OpenBabel10282417223D

 26 27  0  0  0  0  0  0  0  0999 V2000
   -0.0007   -1.1120    0.2993 C   0  0  3  0  0  0  0  0  0  0  0  0
   -1.2571   -0.7867   -0.5749 C   0  0  0  0  0  0  0  0  0  0  0  0
   -0.0230    0.0035    1.3563 C   0  0  0  0  0  0  0  0  0  0  0  0
    1.3036   -0.7557   -0.4501 C   0  0  0  0  0  0  0  0  0  0  0  0
   -1.2048    0.7381   -0.5239 C   0  0  0  0  0  0  0  0  0  0  0  0
   -2.5423   -1.3602    0.0437 C   0  0  0  0  0  0  0  0  0  0  0  0
   -1.1422   -1.3264   -2.0066 C   0  0  0  0  0  0  0  0  0  0  0  0
   -0.0013    1.1228    0.3184 C   0  0  3  0  0  0  0  0  0  0  0  0
    1.2631    0.7837   -0.4922 C   0  0  0  0  0  0  0  0  0  0  0  0
   -2.0669    1.5952   -1.0915 C   0  0  0  0  0  0  0  0  0  0  0  0
    0.0039   -2.1236    0.7136 H   0  0  0  0  0  0  0  0  0  0  0  0
    0.8635    0.0022    2.0016 H   0  0  0  0  0  0  0  0  0  0  0  0
   -0.9177    0.0054    1.9871 H   0  0  0  0  0  0  0  0  0  0  0  0
    1.3796   -1.2001   -1.4451 H   0  0  0  0  0  0  0  0  0  0  0  0
    2.1812   -1.0982    0.1090 H   0  0  0  0  0  0  0  0  0  0  0  0
   -3.4192   -1.0910   -0.5575 H   0  0  0  0  0  0  0  0  0  0  0  0
   -2.4941   -2.4551    0.0749 H   0  0  0  0  0  0  0  0  0  0  0  0
   -2.7249   -1.0060    1.0625 H   0  0  0  0  0  0  0  0  0  0  0  0
   -0.3254   -0.8648   -2.5696 H   0  0  0  0  0  0  0  0  0  0  0  0
   -0.9787   -2.4096   -1.9914 H   0  0  0  0  0  0  0  0  0  0  0  0
   -2.0530   -1.1270   -2.5806 H   0  0  0  0  0  0  0  0  0  0  0  0
   -0.0219    2.1364    0.7239 H   0  0  0  0  0  0  0  0  0  0  0  0
    1.2136    1.1641   -1.5186 H   0  0  0  0  0  0  0  0  0  0  0  0
    2.1621    1.1913   -0.0180 H   0  0  0  0  0  0  0  0  0  0  0  0
   -1.9452    2.6685   -0.9955 H   0  0  0  0  0  0  0  0  0  0  0  0
   -2.9088    1.2385   -1.6751 H   0  0  0  0  0  0  0  0  0  0  0  0
  1  2  1  0  0  0  0
  1  3  1  0  0  0  0
  1  4  1  0  0  0  0
  1 11  1  0  0  0  0
  2  5  1  0  0  0  0
  2  6  1  0  0  0  0
  2  7  1  0  0  0  0
  3  8  1  0  0  0  0
  3 12  1  0  0  0  0
  3 13  1  0  0  0  0
  4  9  1  0  0  0  0
  4 14  1  0  0  0  0
  4 15  1  0  0  0  0
  5 10  2  0  0  0  0
  5  8  1  0  0  0  0
  6 16  1  0  0  0  0
  6 17  1  0  0  0  0
  6 18  1  0  0  0  0
  7 19  1  0  0  0  0
  7 20  1  0  0  0  0
  7 21  1  0  0  0  0
  8  9  1  0  0  0  0
  8 22  1  0  0  0  0
  9 23  1  0  0  0  0
  9 24  1  0  0  0  0
 10 25  1  0  0  0  0
 10 26  1  0  0  0  0
M  END
>  <DRUGBANK_ID>
DB15917

>  <COMMON_NAME>
Camphene

>  <CAS_NUMBER>
79-92-5

>  <UNII>
G3VG94Z26E

>  <SYNONYMS>
DL-Camphene

$$$$
