
 OpenBabel10282417113D

 32 33  0  0  0  0  0  0  0  0999 V2000
   -1.9708   -0.0042   -0.0157 C   0  0  0  0  0  0  0  0  0  0  0  0
   -1.2666   -1.2262   -0.0020 C   0  0  0  0  0  0  0  0  0  0  0  0
   -3.3937    0.1036   -0.0496 N   0  0  0  0  0  0  0  0  0  0  0  0
   -1.2141    1.1771   -0.0017 C   0  0  0  0  0  0  0  0  0  0  0  0
    0.1427   -1.2807    0.0151 C   0  0  0  0  0  0  0  0  0  0  0  0
   -3.9852   -1.0020   -0.0330 N   0  0  0  0  0  0  0  0  0  0  0  0
    0.1869    1.1466    0.0111 C   0  0  0  0  0  0  0  0  0  0  0  0
    0.8600   -0.0729    0.0106 C   0  0  0  0  0  0  0  0  0  0  0  0
    0.9012   -2.5659    0.0408 C   0  0  0  0  0  0  0  0  0  0  0  0
   -5.3992   -0.8928   -0.0736 C   0  0  0  0  0  0  0  0  0  0  0  0
    2.2288    0.0100    0.0021 O   0  0  0  0  0  0  0  0  0  0  0  0
    0.1993   -3.7140    0.0582 O   0  0  0  0  0  0  0  0  0  0  0  0
    2.1271   -2.5684    0.0475 O   0  0  0  0  0  0  0  0  0  0  0  0
   -6.0799   -0.0357   -0.9594 C   0  0  0  0  0  0  0  0  0  0  0  0
   -6.1618   -1.7406    0.7407 C   0  0  0  0  0  0  0  0  0  0  0  0
   -7.4893    0.0016   -1.0171 C   0  0  0  0  0  0  0  0  0  0  0  0
   -7.5597   -1.7233    0.6948 C   0  0  0  0  0  0  0  0  0  0  0  0
   -8.2185   -0.8621   -0.1797 C   0  0  0  0  0  0  0  0  0  0  0  0
   -8.2413    0.9170   -1.9251 C   0  0  0  0  0  0  0  0  0  0  0  0
   -9.5878   -0.9385   -0.1540 O   0  0  0  0  0  0  0  0  0  0  0  0
   -7.5327    1.7423   -2.7170 O   0  0  0  0  0  0  0  0  0  0  0  0
   -9.4672    0.9149   -1.9411 O   0  0  0  0  0  0  0  0  0  0  0  0
   -1.8563   -2.1322   -0.0069 H   0  0  0  0  0  0  0  0  0  0  0  0
   -1.7132    2.1440   -0.0017 H   0  0  0  0  0  0  0  0  0  0  0  0
    0.7573    2.0742    0.0213 H   0  0  0  0  0  0  0  0  0  0  0  0
    2.6116   -0.8971   -0.0043 H   0  0  0  0  0  0  0  0  0  0  0  0
   -0.7708   -3.6830    0.0561 H   0  0  0  0  0  0  0  0  0  0  0  0
   -5.4675    0.5829   -1.6019 H   0  0  0  0  0  0  0  0  0  0  0  0
   -5.6681   -2.4316    1.4203 H   0  0  0  0  0  0  0  0  0  0  0  0
   -8.1387   -2.3830    1.3389 H   0  0  0  0  0  0  0  0  0  0  0  0
   -9.9638   -0.3014   -0.8036 H   0  0  0  0  0  0  0  0  0  0  0  0
   -6.5631    1.7246   -2.6778 H   0  0  0  0  0  0  0  0  0  0  0  0
  1  2  1  0  0  0  0
  1  3  1  0  0  0  0
  1  4  2  0  0  0  0
  2  5  2  0  0  0  0
  2 23  1  0  0  0  0
  3  6  2  0  0  0  0
  4  7  1  0  0  0  0
  4 24  1  0  0  0  0
  5  8  1  0  0  0  0
  5  9  1  0  0  0  0
  6 10  1  0  0  0  0
  7  8  2  0  0  0  0
  7 25  1  0  0  0  0
  8 11  1  0  0  0  0
  9 12  1  0  0  0  0
  9 13  2  0  0  0  0
 10 14  1  0  0  0  0
 10 15  2  0  0  0  0
 11 26  1  0  0  0  0
 12 27  1  0  0  0  0
 14 16  2  0  0  0  0
 14 28  1  0  0  0  0
 15 17  1  0  0  0  0
 15 29  1  0  0  0  0
 16 18  1  0  0  0  0
 16 19  1  0  0  0  0
 17 18  2  0  0  0  0
 17 30  1  0  0  0  0
 18 20  1  0  0  0  0
 19 21  1  0  0  0  0
 19 22  2  0  0  0  0
 20 31  1  0  0  0  0
 21 32  1  0  0  0  0
M  END
>  <DRUGBANK_ID>
DB01250

>  <COMMON_NAME>
Olsalazine

>  <CAS_NUMBER>
15722-48-2

>  <UNII>
ULS5I8J03O

>  <SYNONYMS>
Olsalazine

$$$$
