
 OpenBabel10282417203D

 51 53  0  0  0  0  0  0  0  0999 V2000
    0.8906    0.0332    0.0910 C   0  0  0  0  0  0  0  0  0  0  0  0
   -0.7563    1.9507    4.3157 C   0  0  0  0  0  0  0  0  0  0  0  0
   -1.5075   -4.6380    4.6757 C   0  0  0  0  0  0  0  0  0  0  0  0
   -1.1435   -5.8313    3.7692 C   0  0  0  0  0  0  0  0  0  0  0  0
   -0.4325   -3.5452    4.8562 C   0  0  0  0  0  0  0  0  0  0  0  0
    2.3397   -4.5589    1.6089 C   0  0  0  0  0  0  0  0  0  0  0  0
    3.6064   -6.3339    2.4832 C   0  0  0  0  0  0  0  0  0  0  0  0
    4.4100   -4.0356    2.6549 C   0  0  0  0  0  0  0  0  0  0  0  0
    0.6226   -7.4171    3.1765 C   0  0  0  0  0  0  0  0  0  0  0  0
    0.0156   -3.3441    2.4332 C   0  0  0  0  0  0  0  0  0  0  0  0
    2.3858   -5.9080    1.9799 C   0  0  0  0  0  0  0  0  0  0  0  0
    3.2298   -3.6119    2.1237 C   0  0  0  0  0  0  0  0  0  0  0  0
    4.6227   -5.3980    2.7328 C   0  0  0  0  0  0  0  0  0  0  0  0
    1.1628   -6.8161    1.8290 C   0  0  3  0  0  0  0  0  0  0  0  0
   -0.2262   -1.4614    3.3630 C   0  0  0  0  0  0  0  0  0  0  0  0
    0.0804   -1.3136    2.0388 C   0  0  0  0  0  0  0  0  0  0  0  0
   -0.4804   -0.3773    4.2104 C   0  0  0  0  0  0  0  0  0  0  0  0
    0.0685    1.0359    2.1949 C   0  0  0  0  0  0  0  0  0  0  0  0
    0.1179   -6.4563    4.1691 N   0  0  0  0  0  0  0  0  0  0  0  0
    0.2272   -2.5046    1.4491 N   0  0  0  0  0  0  0  0  0  0  0  0
    0.3246   -0.1039    1.4374 N   0  0  0  0  0  0  0  0  0  0  0  0
   -0.3616    0.8315    3.5233 N   0  0  0  0  0  0  0  0  0  0  0  0
   -0.2208   -2.7834    3.6372 N   0  0  0  0  0  0  0  0  0  0  0  0
    3.0235   -2.2672    2.1332 O   0  0  0  0  0  0  0  0  0  0  0  0
    5.8848   -5.7904    3.0475 O   0  0  0  0  0  0  0  0  0  0  0  0
    1.4596   -7.8785    0.9325 O   0  0  0  0  0  0  0  0  0  0  0  0
   -0.8035   -0.5023    5.3748 O   0  0  0  0  0  0  0  0  0  0  0  0
    0.2044    2.1644    1.7179 O   0  0  0  0  0  0  0  0  0  0  0  0
    0.6000    0.9925   -0.3507 H   0  0  0  0  0  0  0  0  0  0  0  0
    0.5606   -0.7656   -0.5812 H   0  0  0  0  0  0  0  0  0  0  0  0
    1.9880    0.0247    0.1439 H   0  0  0  0  0  0  0  0  0  0  0  0
   -1.7949    1.7771    4.6180 H   0  0  0  0  0  0  0  0  0  0  0  0
   -0.1280    1.9652    5.2105 H   0  0  0  0  0  0  0  0  0  0  0  0
   -0.6777    2.8875    3.7720 H   0  0  0  0  0  0  0  0  0  0  0  0
   -1.7801   -5.0362    5.6578 H   0  0  0  0  0  0  0  0  0  0  0  0
   -2.4017   -4.1570    4.2585 H   0  0  0  0  0  0  0  0  0  0  0  0
   -1.9542   -6.5650    3.7749 H   0  0  0  0  0  0  0  0  0  0  0  0
   -1.1549   -5.5176    2.7252 H   0  0  0  0  0  0  0  0  0  0  0  0
    0.5321   -3.9625    5.1760 H   0  0  0  0  0  0  0  0  0  0  0  0
   -0.7413   -2.8633    5.6515 H   0  0  0  0  0  0  0  0  0  0  0  0
    1.5501   -4.2522    0.9319 H   0  0  0  0  0  0  0  0  0  0  0  0
    3.7836   -7.3914    2.6281 H   0  0  0  0  0  0  0  0  0  0  0  0
    5.1658   -3.3040    2.9137 H   0  0  0  0  0  0  0  0  0  0  0  0
    1.4313   -7.9840    3.6560 H   0  0  0  0  0  0  0  0  0  0  0  0
   -0.1569   -8.1658    2.9798 H   0  0  0  0  0  0  0  0  0  0  0  0
    0.1703   -4.3902    2.3769 H   0  0  0  0  0  0  0  0  0  0  0  0
    0.3345   -6.2729    1.3593 H   0  0  0  0  0  0  0  0  0  0  0  0
    0.8598   -5.7806    4.3465 H   0  0  0  0  0  0  0  0  0  0  0  0
    2.1106   -2.1005    1.8486 H   0  0  0  0  0  0  0  0  0  0  0  0
    5.9285   -6.7498    2.9294 H   0  0  0  0  0  0  0  0  0  0  0  0
    2.2403   -8.3335    1.2806 H   0  0  0  0  0  0  0  0  0  0  0  0
  1 29  1  0  0  0  0
  1 30  1  0  0  0  0
  1 31  1  0  0  0  0
  2 32  1  0  0  0  0
  2 33  1  0  0  0  0
  2 34  1  0  0  0  0
  3 35  1  0  0  0  0
  3 36  1  0  0  0  0
  4  3  1  0  0  0  0
  4 37  1  0  0  0  0
  4 38  1  0  0  0  0
  5  3  1  0  0  0  0
  5 39  1  0  0  0  0
  5 40  1  0  0  0  0
  6 41  1  0  0  0  0
  7 42  1  0  0  0  0
  8 43  1  0  0  0  0
  9 44  1  0  0  0  0
  9 45  1  0  0  0  0
 10 46  1  0  0  0  0
 11  6  2  0  0  0  0
 11  7  1  0  0  0  0
 12  6  1  0  0  0  0
 12  8  2  0  0  0  0
 13  7  2  0  0  0  0
 13  8  1  0  0  0  0
 14  9  1  0  0  0  0
 14 11  1  0  0  0  0
 14 47  1  0  0  0  0
 16 15  2  0  0  0  0
 17 15  1  0  0  0  0
 19  4  1  0  0  0  0
 19  9  1  0  0  0  0
 19 48  1  0  0  0  0
 20 10  2  0  0  0  0
 20 16  1  0  0  0  0
 21  1  1  0  0  0  0
 21 16  1  0  0  0  0
 21 18  1  0  0  0  0
 22  2  1  0  0  0  0
 22 17  1  0  0  0  0
 22 18  1  0  0  0  0
 23  5  1  0  0  0  0
 23 10  1  0  0  0  0
 23 15  1  0  0  0  0
 24 12  1  0  0  0  0
 24 49  1  0  0  0  0
 25 13  1  0  0  0  0
 25 50  1  0  0  0  0
 26 14  1  0  0  0  0
 26 51  1  0  0  0  0
 27 17  2  0  0  0  0
 28 18  2  0  0  0  0
M  END
>  <DRUGBANK_ID>
DB12846

>  <COMMON_NAME>
Reproterol

>  <CAS_NUMBER>
54063-54-6

>  <UNII>
11941YC6RN

>  <SYNONYMS>
7-(3-((2-(3,5-Dihydroxyphenyl)-2-hydroxyethyl)amino)propyl)theophylline; Reproterol; Reproterolum

$$$$
