
 OpenBabel10282417193D

 49 51  0  0  0  0  0  0  0  0999 V2000
    0.8799    0.0514   -0.1331 C   0  0  0  0  0  0  0  0  0  0  0  0
    0.4324   -1.4024   -0.1266 C   0  0  0  0  0  0  0  0  0  0  0  0
    0.9321   -2.2098    1.0890 C   0  0  0  0  0  0  0  0  0  0  0  0
    0.4349   -1.6939    2.3617 N   0  0  0  0  0  0  0  0  0  0  0  0
   -0.1517   -2.5278    3.3874 C   0  0  0  0  0  0  0  0  0  0  0  0
   -0.5007   -1.5014    4.4235 C   0  0  0  0  0  0  0  0  0  0  0  0
   -0.0455   -0.2753    4.1038 C   0  0  0  0  0  0  0  0  0  0  0  0
    0.7672   -0.4619    2.8939 C   0  0  0  0  0  0  0  0  0  0  0  0
    1.5935    0.3485    2.5026 O   0  0  0  0  0  0  0  0  0  0  0  0
   -0.1727    0.9908    4.8172 C   0  0  0  0  0  0  0  0  0  0  0  0
   -0.8615    2.0727    4.2512 C   0  0  0  0  0  0  0  0  0  0  0  0
   -1.0537    3.2454    4.9880 C   0  0  0  0  0  0  0  0  0  0  0  0
   -0.5540    3.3515    6.2909 C   0  0  0  0  0  0  0  0  0  0  0  0
    0.1516    2.2768    6.8420 C   0  0  0  0  0  0  0  0  0  0  0  0
    0.3488    1.1112    6.1062 C   0  0  0  0  0  0  0  0  0  0  0  0
   -0.7532    4.6003    7.0954 C   0  0  0  0  0  0  0  0  0  0  0  0
   -1.1420   -1.8079    5.7069 C   0  0  0  0  0  0  0  0  0  0  0  0
   -0.5094   -2.6679    6.6145 C   0  0  0  0  0  0  0  0  0  0  0  0
   -0.9969   -2.8182    7.9200 C   0  0  0  0  0  0  0  0  0  0  0  0
   -2.1201   -2.0969    8.3275 C   0  0  0  0  0  0  0  0  0  0  0  0
   -2.7353   -1.2032    7.4459 C   0  0  0  0  0  0  0  0  0  0  0  0
   -2.2760   -1.0987    6.1290 C   0  0  0  0  0  0  0  0  0  0  0  0
   -2.8881   -2.3539    9.9149 S   0  0  0  0  0  0  0  0  0  0  0  0
   -2.7399   -1.1205   10.6626 O   0  0  0  0  0  0  0  0  0  0  0  0
   -4.1993   -2.9107    9.6376 O   0  0  0  0  0  0  0  0  0  0  0  0
   -1.9604   -3.6073   10.7588 C   0  0  0  0  0  0  0  0  0  0  0  0
    0.3449    0.6112    0.6375 H   0  0  0  0  0  0  0  0  0  0  0  0
    0.6359    0.5596   -1.0672 H   0  0  0  0  0  0  0  0  0  0  0  0
    1.9612    0.1251    0.0293 H   0  0  0  0  0  0  0  0  0  0  0  0
   -0.6630   -1.4278   -0.1577 H   0  0  0  0  0  0  0  0  0  0  0  0
    0.7935   -1.8752   -1.0479 H   0  0  0  0  0  0  0  0  0  0  0  0
    0.5828   -3.2444    0.9754 H   0  0  0  0  0  0  0  0  0  0  0  0
    2.0272   -2.2264    1.1152 H   0  0  0  0  0  0  0  0  0  0  0  0
   -1.0279   -3.0476    2.9917 H   0  0  0  0  0  0  0  0  0  0  0  0
    0.5991   -3.2411    3.7449 H   0  0  0  0  0  0  0  0  0  0  0  0
   -1.2652    2.0130    3.2420 H   0  0  0  0  0  0  0  0  0  0  0  0
   -1.6007    4.0732    4.5415 H   0  0  0  0  0  0  0  0  0  0  0  0
    0.5482    2.3340    7.8520 H   0  0  0  0  0  0  0  0  0  0  0  0
    0.8968    0.2851    6.5504 H   0  0  0  0  0  0  0  0  0  0  0  0
   -1.2959    4.3736    8.0187 H   0  0  0  0  0  0  0  0  0  0  0  0
    0.2167    5.0419    7.3450 H   0  0  0  0  0  0  0  0  0  0  0  0
   -1.3307    5.3459    6.5398 H   0  0  0  0  0  0  0  0  0  0  0  0
    0.3968   -3.1982    6.3289 H   0  0  0  0  0  0  0  0  0  0  0  0
   -0.4682   -3.4864    8.5905 H   0  0  0  0  0  0  0  0  0  0  0  0
   -3.5631   -0.5778    7.7765 H   0  0  0  0  0  0  0  0  0  0  0  0
   -2.7866   -0.4229    5.4443 H   0  0  0  0  0  0  0  0  0  0  0  0
   -1.9753   -4.5284   10.1726 H   0  0  0  0  0  0  0  0  0  0  0  0
   -0.9396   -3.2572   10.9207 H   0  0  0  0  0  0  0  0  0  0  0  0
   -2.4351   -3.7925   11.7259 H   0  0  0  0  0  0  0  0  0  0  0  0
  1  2  1  0  0  0  0
  1 27  1  0  0  0  0
  1 28  1  0  0  0  0
  1 29  1  0  0  0  0
  2  3  1  0  0  0  0
  2 30  1  0  0  0  0
  2 31  1  0  0  0  0
  3  4  1  0  0  0  0
  3 32  1  0  0  0  0
  3 33  1  0  0  0  0
  4  5  1  0  0  0  0
  4  8  1  0  0  0  0
  5  6  1  0  0  0  0
  5 34  1  0  0  0  0
  5 35  1  0  0  0  0
  6  7  2  0  0  0  0
  6 17  1  0  0  0  0
  7  8  1  0  0  0  0
  7 10  1  0  0  0  0
  8  9  2  0  0  0  0
 10 11  2  0  0  0  0
 10 15  1  0  0  0  0
 11 12  1  0  0  0  0
 11 36  1  0  0  0  0
 12 13  2  0  0  0  0
 12 37  1  0  0  0  0
 13 14  1  0  0  0  0
 13 16  1  0  0  0  0
 14 15  2  0  0  0  0
 14 38  1  0  0  0  0
 15 39  1  0  0  0  0
 16 40  1  0  0  0  0
 16 41  1  0  0  0  0
 16 42  1  0  0  0  0
 17 18  2  0  0  0  0
 17 22  1  0  0  0  0
 18 19  1  0  0  0  0
 18 43  1  0  0  0  0
 19 20  2  0  0  0  0
 19 44  1  0  0  0  0
 20 21  1  0  0  0  0
 20 23  1  0  0  0  0
 21 22  2  0  0  0  0
 21 45  1  0  0  0  0
 22 46  1  0  0  0  0
 23 24  2  0  0  0  0
 23 25  2  0  0  0  0
 23 26  1  0  0  0  0
 26 47  1  0  0  0  0
 26 48  1  0  0  0  0
 26 49  1  0  0  0  0
M  END
>  <DRUGBANK_ID>
DB12354

>  <COMMON_NAME>
Imrecoxib

>  <CAS_NUMBER>
395683-14-4

>  <UNII>
SGW6W5758V

$$$$
