
 OpenBabel10282417213D

 35 36  0  0  0  0  0  0  0  0999 V2000
    0.9181    0.0667   -0.0876 F   0  0  0  0  0  0  0  0  0  0  0  0
    2.7384    0.0015   -1.2885 F   0  0  0  0  0  0  0  0  0  0  0  0
    2.7309    1.0437    0.6211 F   0  0  0  0  0  0  0  0  0  0  0  0
    5.5162   -4.9098   -1.7278 F   0  0  0  0  0  0  0  0  0  0  0  0
    7.4583   -5.5088   -0.9725 F   0  0  0  0  0  0  0  0  0  0  0  0
    6.2987   -6.8570   -2.2175 F   0  0  0  0  0  0  0  0  0  0  0  0
    4.5269   -2.7525    4.1557 O   0  0  0  0  0  0  0  0  0  0  0  0
    2.7588   -3.3192    1.3460 N   0  0  0  0  0  0  0  0  0  0  0  0
    2.1332   -2.5011    0.4860 N   0  0  0  0  0  0  0  0  0  0  0  0
    4.6622   -4.8401    3.3015 N   0  0  0  0  0  0  0  0  0  0  0  0
    5.4085   -9.5086   -1.6315 N   0  0  0  0  0  0  0  0  0  0  0  0
    4.0755   -2.8370    1.7682 C   0  0  2  0  0  0  0  0  0  0  0  0
    3.7773   -1.3355    1.7349 C   0  0  0  0  0  0  0  0  0  0  0  0
    5.1794   -3.0143    0.7465 C   0  0  0  0  0  0  0  0  0  0  0  0
    2.6759   -1.3328    0.6930 C   0  0  0  0  0  0  0  0  0  0  0  0
    4.4441   -3.4668    3.1494 C   0  0  0  0  0  0  0  0  0  0  0  0
    2.2691   -0.0696   -0.0119 C   0  0  0  0  0  0  0  0  0  0  0  0
    4.7709   -5.8603    2.3261 C   0  0  0  0  0  0  0  0  0  0  0  0
    5.5929   -5.6998    1.2204 C   0  0  0  0  0  0  0  0  0  0  0  0
    4.1658   -7.1011    2.4507 C   0  0  0  0  0  0  0  0  0  0  0  0
    5.5586   -6.4988    0.0682 C   0  0  0  0  0  0  0  0  0  0  0  0
    4.9483   -7.7325    0.1944 C   0  0  0  0  0  0  0  0  0  0  0  0
    4.2839   -8.0424    1.3981 C   0  0  0  0  0  0  0  0  0  0  0  0
    6.1986   -5.9692   -1.2007 C   0  0  0  0  0  0  0  0  0  0  0  0
    5.1478   -8.7335   -0.8199 C   0  0  0  0  0  0  0  0  0  0  0  0
    2.5440   -4.3145    1.3231 H   0  0  0  0  0  0  0  0  0  0  0  0
    4.7411   -5.1176    4.2770 H   0  0  0  0  0  0  0  0  0  0  0  0
    3.4010   -0.9267    2.6714 H   0  0  0  0  0  0  0  0  0  0  0  0
    4.6371   -0.7445    1.3972 H   0  0  0  0  0  0  0  0  0  0  0  0
    4.9129   -3.8419    0.0988 H   0  0  0  0  0  0  0  0  0  0  0  0
    5.3592   -2.2034    0.0412 H   0  0  0  0  0  0  0  0  0  0  0  0
    6.1261   -3.1233    1.2858 H   0  0  0  0  0  0  0  0  0  0  0  0
    6.3564   -4.9364    1.2435 H   0  0  0  0  0  0  0  0  0  0  0  0
    3.6032   -7.3715    3.3414 H   0  0  0  0  0  0  0  0  0  0  0  0
    3.8573   -9.0362    1.5234 H   0  0  0  0  0  0  0  0  0  0  0  0
  1 17  1  0  0  0  0
  2 17  1  0  0  0  0
  3 17  1  0  0  0  0
  4 24  1  0  0  0  0
  5 24  1  0  0  0  0
  6 24  1  0  0  0  0
  7 16  2  0  0  0  0
  8  9  1  0  0  0  0
  8 12  1  0  0  0  0
  8 26  1  0  0  0  0
  9 15  2  0  0  0  0
 10 16  1  0  0  0  0
 10 18  1  0  0  0  0
 10 27  1  0  0  0  0
 11 25  3  0  0  0  0
 12 13  1  0  0  0  0
 12 16  1  1  0  0  0
 12 14  1  0  0  0  0
 13 15  1  0  0  0  0
 13 28  1  0  0  0  0
 13 29  1  0  0  0  0
 14 30  1  0  0  0  0
 14 31  1  0  0  0  0
 14 32  1  0  0  0  0
 15 17  1  0  0  0  0
 18 19  2  0  0  0  0
 18 20  1  0  0  0  0
 19 21  1  0  0  0  0
 19 33  1  0  0  0  0
 20 23  2  0  0  0  0
 20 34  1  0  0  0  0
 21 22  2  0  0  0  0
 21 24  1  0  0  0  0
 22 23  1  0  0  0  0
 22 25  1  0  0  0  0
 23 35  1  0  0  0  0
M  END
>  <DRUGBANK_ID>
DB13936

>  <COMMON_NAME>
JNJ-28330835

>  <CAS_NUMBER>
888072-47-7

>  <UNII>
544SF265DA

$$$$
