
 OpenBabel10282417203D

 33 34  0  0  0  0  0  0  0  0999 V2000
   -0.7893   -0.9668   -0.1187 N   0  0  0  0  0  0  0  0  0  0  0  0
   -1.5799   -2.0071   -0.6635 C   0  0  0  0  0  0  0  0  0  0  0  0
    0.5947   -1.0795    0.0464 C   0  0  0  0  0  0  0  0  0  0  0  0
   -1.1763    0.3682   -0.2308 N   0  0  0  0  0  0  0  0  0  0  0  0
   -1.6386   -3.2331    0.0025 C   0  0  0  0  0  0  0  0  0  0  0  0
   -2.3591   -1.8259   -1.8173 C   0  0  0  0  0  0  0  0  0  0  0  0
    1.1423    0.3350    0.0592 C   0  0  3  0  0  0  0  0  0  0  0  0
    1.2707   -2.0999    0.1042 O   0  0  0  0  0  0  0  0  0  0  0  0
   -0.0684    1.1900   -0.1997 C   0  0  0  0  0  0  0  0  0  0  0  0
   -2.5016   -4.2417   -0.4366 C   0  0  0  0  0  0  0  0  0  0  0  0
   -3.2273   -2.8374   -2.2536 C   0  0  0  0  0  0  0  0  0  0  0  0
    1.8173    0.6812    1.3917 C   0  0  0  0  0  0  0  0  0  0  0  0
   -0.0828    2.4068   -0.3456 O   0  0  0  0  0  0  0  0  0  0  0  0
   -3.2931   -4.0475   -1.5661 C   0  0  0  0  0  0  0  0  0  0  0  0
    3.0878   -0.1468    1.6439 C   0  0  0  0  0  0  0  0  0  0  0  0
    4.1388    0.0208    0.5435 C   0  0  0  0  0  0  0  0  0  0  0  0
    4.6246    1.4590    0.4576 C   0  0  0  0  0  0  0  0  0  0  0  0
   -1.9262    0.6594    0.3950 H   0  0  0  0  0  0  0  0  0  0  0  0
   -1.0445   -3.3961    0.8974 H   0  0  0  0  0  0  0  0  0  0  0  0
   -2.2652   -0.9265   -2.4224 H   0  0  0  0  0  0  0  0  0  0  0  0
    1.8054    0.4763   -0.7993 H   0  0  0  0  0  0  0  0  0  0  0  0
   -2.5677   -5.1735    0.1184 H   0  0  0  0  0  0  0  0  0  0  0  0
   -3.8594   -2.6842   -3.1260 H   0  0  0  0  0  0  0  0  0  0  0  0
    2.0678    1.7500    1.4183 H   0  0  0  0  0  0  0  0  0  0  0  0
    1.1233    0.5363    2.2293 H   0  0  0  0  0  0  0  0  0  0  0  0
   -3.9529   -4.8408   -1.9119 H   0  0  0  0  0  0  0  0  0  0  0  0
    3.5241    0.1339    2.6104 H   0  0  0  0  0  0  0  0  0  0  0  0
    2.8293   -1.2068    1.7389 H   0  0  0  0  0  0  0  0  0  0  0  0
    4.9871   -0.6425    0.7443 H   0  0  0  0  0  0  0  0  0  0  0  0
    3.7404   -0.2929   -0.4275 H   0  0  0  0  0  0  0  0  0  0  0  0
    5.0762    1.7620    1.4072 H   0  0  0  0  0  0  0  0  0  0  0  0
    5.3662    1.5691   -0.3366 H   0  0  0  0  0  0  0  0  0  0  0  0
    3.8077    2.1519    0.2339 H   0  0  0  0  0  0  0  0  0  0  0  0
  1  2  1  0  0  0  0
  1  3  1  0  0  0  0
  1  4  1  0  0  0  0
  2  5  2  0  0  0  0
  2  6  1  0  0  0  0
  3  7  1  0  0  0  0
  3  8  2  0  0  0  0
  4  9  1  0  0  0  0
  4 18  1  0  0  0  0
  5 10  1  0  0  0  0
  5 19  1  0  0  0  0
  6 11  2  0  0  0  0
  6 20  1  0  0  0  0
  7 12  1  0  0  0  0
  7  9  1  0  0  0  0
  7 21  1  0  0  0  0
  9 13  2  0  0  0  0
 10 14  2  0  0  0  0
 10 22  1  0  0  0  0
 11 14  1  0  0  0  0
 11 23  1  0  0  0  0
 12 15  1  0  0  0  0
 12 24  1  0  0  0  0
 12 25  1  0  0  0  0
 14 26  1  0  0  0  0
 15 16  1  0  0  0  0
 15 27  1  0  0  0  0
 15 28  1  0  0  0  0
 16 17  1  0  0  0  0
 16 29  1  0  0  0  0
 16 30  1  0  0  0  0
 17 31  1  0  0  0  0
 17 32  1  0  0  0  0
 17 33  1  0  0  0  0
M  END
>  <DRUGBANK_ID>
DB13629

>  <COMMON_NAME>
Mofebutazone

>  <CAS_NUMBER>
2210-63-1

>  <UNII>
SPW36WUI5Z

>  <SYNONYMS>
Mofebutazona; Mofebutazone; Mofebutazonum

$$$$
