841
 OpenBabel10282417113D

 45 46  0  0  1  0  0  0  0  0999 V2000
    1.7195   -1.3566    0.0333 O   0  0  0  0  0  0  0  0  0  0  0  0
   -3.9560    6.7325    3.6077 O   0  0  0  0  0  0  0  0  0  0  0  0
    1.7278    1.3731    0.0376 O   0  0  0  0  0  0  0  0  0  0  0  0
   -4.4813    0.2665    1.1951 N   0  0  0  0  0  0  0  0  0  0  0  0
   -5.2459    0.6503    2.3686 C   0  0  3  0  0  0  0  0  0  0  0  0
   -4.4139    0.4208    3.6761 C   0  0  0  0  0  0  0  0  0  0  0  0
   -3.0630    1.1806    3.8379 C   0  0  0  0  0  0  0  0  0  0  0  0
   -4.1010   -1.1346    1.1251 C   0  0  0  0  0  0  0  0  0  0  0  0
   -5.6686    2.0854    2.0174 C   0  0  0  0  0  0  0  0  0  0  0  0
   -3.2347   -1.3960   -0.1184 C   0  0  0  0  0  0  0  0  0  0  0  0
   -3.1948    2.6759    4.0320 C   0  0  0  0  0  0  0  0  0  0  0  0
   -1.8951   -0.6743   -0.1087 C   0  0  0  0  0  0  0  0  0  0  0  0
   -2.1149    3.5505    3.8304 C   0  0  0  0  0  0  0  0  0  0  0  0
   -4.4365    3.2412    4.3174 C   0  0  0  0  0  0  0  0  0  0  0  0
   -0.6937   -1.3920   -0.0239 C   0  0  0  0  0  0  0  0  0  0  0  0
   -1.8300    0.7322   -0.1880 C   0  0  0  0  0  0  0  0  0  0  0  0
   -2.3444    4.9332    3.7699 C   0  0  0  0  0  0  0  0  0  0  0  0
   -4.7032    4.5712    4.0420 C   0  0  0  0  0  0  0  0  0  0  0  0
    0.5190   -0.7011    0.0061 C   0  0  0  0  0  0  0  0  0  0  0  0
   -3.6420    5.4247    3.7948 C   0  0  0  0  0  0  0  0  0  0  0  0
   -0.6257    1.4174   -0.0649 C   0  0  0  0  0  0  0  0  0  0  0  0
    0.5457    0.6924    0.0053 C   0  0  0  0  0  0  0  0  0  0  0  0
    1.5409   -2.3119   -0.0013 H   0  0  0  0  0  0  0  0  0  0  0  0
   -3.1360    7.2521    3.6488 H   0  0  0  0  0  0  0  0  0  0  0  0
    2.4140    0.6807   -0.0100 H   0  0  0  0  0  0  0  0  0  0  0  0
   -3.6368    0.8299    1.2414 H   0  0  0  0  0  0  0  0  0  0  0  0
   -6.1646    0.0557    2.4275 H   0  0  0  0  0  0  0  0  0  0  0  0
   -5.0486    0.5941    4.5512 H   0  0  0  0  0  0  0  0  0  0  0  0
   -4.1868   -0.6506    3.7552 H   0  0  0  0  0  0  0  0  0  0  0  0
   -2.5210    0.7655    4.6965 H   0  0  0  0  0  0  0  0  0  0  0  0
   -2.4307    0.9780    2.9620 H   0  0  0  0  0  0  0  0  0  0  0  0
   -5.0105   -1.7437    1.0819 H   0  0  0  0  0  0  0  0  0  0  0  0
   -3.5264   -1.4420    2.0029 H   0  0  0  0  0  0  0  0  0  0  0  0
   -6.2044    2.1522    1.0637 H   0  0  0  0  0  0  0  0  0  0  0  0
   -6.3520    2.4945    2.7650 H   0  0  0  0  0  0  0  0  0  0  0  0
   -4.7987    2.7407    1.8841 H   0  0  0  0  0  0  0  0  0  0  0  0
   -3.7843   -1.1234   -1.0270 H   0  0  0  0  0  0  0  0  0  0  0  0
   -3.0696   -2.4794   -0.1677 H   0  0  0  0  0  0  0  0  0  0  0  0
   -1.1077    3.1651    3.6978 H   0  0  0  0  0  0  0  0  0  0  0  0
   -5.2875    2.6190    4.5835 H   0  0  0  0  0  0  0  0  0  0  0  0
   -0.7150   -2.4773    0.0015 H   0  0  0  0  0  0  0  0  0  0  0  0
   -2.7270    1.3298   -0.3375 H   0  0  0  0  0  0  0  0  0  0  0  0
   -1.4992    5.6090    3.6549 H   0  0  0  0  0  0  0  0  0  0  0  0
   -5.7262    4.9185    3.9818 H   0  0  0  0  0  0  0  0  0  0  0  0
   -0.6093    2.5024   -0.0511 H   0  0  0  0  0  0  0  0  0  0  0  0
  1 19  1  0  0  0  0
  1 23  1  0  0  0  0
  2 20  1  0  0  0  0
  2 24  1  0  0  0  0
  3 22  1  0  0  0  0
  3 25  1  0  0  0  0
  4  5  1  0  0  0  0
  4  8  1  0  0  0  0
  4 26  1  0  0  0  0
  5  6  1  0  0  0  0
  5  9  1  0  0  0  0
  5 27  1  0  0  0  0
  6  7  1  0  0  0  0
  6 28  1  0  0  0  0
  6 29  1  0  0  0  0
  7 11  1  0  0  0  0
  7 30  1  0  0  0  0
  7 31  1  0  0  0  0
  8 10  1  0  0  0  0
  8 32  1  0  0  0  0
  8 33  1  0  0  0  0
  9 34  1  0  0  0  0
  9 35  1  0  0  0  0
  9 36  1  0  0  0  0
 10 12  1  0  0  0  0
 10 37  1  0  0  0  0
 10 38  1  0  0  0  0
 11 13  2  0  0  0  0
 11 14  1  0  0  0  0
 12 15  2  0  0  0  0
 12 16  1  0  0  0  0
 13 17  1  0  0  0  0
 13 39  1  0  0  0  0
 14 18  2  0  0  0  0
 14 40  1  0  0  0  0
 15 19  1  0  0  0  0
 15 41  1  0  0  0  0
 16 21  2  0  0  0  0
 16 42  1  0  0  0  0
 17 20  2  0  0  0  0
 17 43  1  0  0  0  0
 18 20  1  0  0  0  0
 18 44  1  0  0  0  0
 19 22  2  0  0  0  0
 21 22  1  0  0  0  0
 21 45  1  0  0  0  0
M  END
>  <DRUGBANK_ID>
DB00841

>  <SECONDARY_ACCESSION_NUMBERS>
APRD00122

>  <COMMON_NAME>
Dobutamine

>  <CAS_NUMBER>
34368-04-2

>  <UNII>
3S12J47372

>  <SYNONYMS>
(±)-4-(2-((3-(p-hydroxyphenyl)-1-methylpropyl)amino)ethyl)pyrocatechol; 3,4-dihydroxy-N-[3-(4-hydroxyphenyl)-1-methylpropyl]-β-phenylethylamine; 4-{2-[3-(4-Hydroxy-phenyl)-1-methyl-propylamino]-ethyl}-benzene-1,2-diol; DL-dobutamine; Dobutamin; Dobutamina; Dobutamine; Dobutaminum; rac-dobutamine; racemic-dobutamine

$$$$
