
 OpenBabel10282417233D

 61 65  0  0  0  0  0  0  0  0999 V2000
    1.0620    0.1346    0.0508 C   0  0  0  0  0  0  0  0  0  0  0  0
    0.5874   -1.3160    0.1795 C   0  0  0  0  0  0  0  0  0  0  0  0
    1.0676   -1.8818    1.5249 C   0  0  0  0  0  0  0  0  0  0  0  0
   -0.8489   -1.2825    0.1732 O   0  0  0  0  0  0  0  0  0  0  0  0
    1.0391   -2.2155   -0.9710 C   0  0  0  0  0  0  0  0  0  0  0  0
    1.6105   -1.7003   -2.1424 C   0  0  0  0  0  0  0  0  0  0  0  0
    1.9090   -2.5496   -3.2057 C   0  0  0  0  0  0  0  0  0  0  0  0
    2.3502   -1.9955   -4.4423 N   0  0  0  0  0  0  0  0  0  0  0  0
    2.7058   -2.8003   -5.5471 C   0  0  0  0  0  0  0  0  0  0  0  0
    1.6821   -3.5078   -6.1573 C   0  0  0  0  0  0  0  0  0  0  0  0
    1.9618   -4.4348   -7.1468 C   0  0  0  0  0  0  0  0  0  0  0  0
    0.9893   -5.1665   -7.7885 O   0  0  0  0  0  0  0  0  0  0  0  0
   -0.3222   -5.0046   -7.4710 C   0  0  0  0  0  0  0  0  0  0  0  0
   -1.0700   -3.8669   -7.6041 C   0  0  0  0  0  0  0  0  0  0  0  0
   -2.2809   -4.1625   -7.0484 N   0  0  0  0  0  0  0  0  0  0  0  0
   -2.3700   -5.4320   -6.5974 N   0  0  0  0  0  0  0  0  0  0  0  0
   -1.1737   -5.9668   -6.8824 C   0  0  0  0  0  0  0  0  0  0  0  0
   -0.8331   -7.3659   -6.4646 C   0  0  0  0  0  0  0  0  0  0  0  0
    0.2878   -7.3339   -5.4155 C   0  0  0  0  0  0  0  0  0  0  0  0
    0.7936   -8.7219   -5.0850 C   0  0  0  0  0  0  0  0  0  0  0  0
    1.1824   -9.4081   -6.2727 O   0  0  0  0  0  0  0  0  0  0  0  0
    0.0887   -9.5930   -7.1700 C   0  0  0  0  0  0  0  0  0  0  0  0
   -0.4403   -8.2515   -7.6555 C   0  0  0  0  0  0  0  0  0  0  0  0
   -3.4294   -3.2855   -6.9672 C   0  0  0  0  0  0  0  0  0  0  0  0
   -3.9393   -2.6274   -8.2404 C   0  0  0  0  0  0  0  0  0  0  0  0
   -3.4567   -1.7755   -7.1166 C   0  0  0  0  0  0  0  0  0  0  0  0
    3.2895   -4.6797   -7.4668 C   0  0  0  0  0  0  0  0  0  0  0  0
    4.2581   -3.9145   -6.8304 C   0  0  0  0  0  0  0  0  0  0  0  0
    3.9944   -2.9595   -5.9007 N   0  0  0  0  0  0  0  0  0  0  0  0
    1.6303   -3.9091   -3.0415 C   0  0  0  0  0  0  0  0  0  0  0  0
    1.0871   -4.3550   -1.8541 C   0  0  0  0  0  0  0  0  0  0  0  0
    0.7921   -3.5449   -0.8254 N   0  0  0  0  0  0  0  0  0  0  0  0
    0.6936    0.7463    0.8805 H   0  0  0  0  0  0  0  0  0  0  0  0
    0.6631    0.5989   -0.8591 H   0  0  0  0  0  0  0  0  0  0  0  0
    2.1553    0.1960    0.0296 H   0  0  0  0  0  0  0  0  0  0  0  0
    0.7068   -1.2685    2.3587 H   0  0  0  0  0  0  0  0  0  0  0  0
    0.6836   -2.8928    1.7057 H   0  0  0  0  0  0  0  0  0  0  0  0
    2.1618   -1.9199    1.5724 H   0  0  0  0  0  0  0  0  0  0  0  0
   -1.1408   -0.8107    0.9689 H   0  0  0  0  0  0  0  0  0  0  0  0
    1.8027   -0.6408   -2.2559 H   0  0  0  0  0  0  0  0  0  0  0  0
    3.0327   -1.2579   -4.3091 H   0  0  0  0  0  0  0  0  0  0  0  0
    0.6755   -3.3304   -5.7994 H   0  0  0  0  0  0  0  0  0  0  0  0
   -0.8235   -2.8769   -7.9687 H   0  0  0  0  0  0  0  0  0  0  0  0
   -1.7177   -7.8242   -5.9975 H   0  0  0  0  0  0  0  0  0  0  0  0
    1.1395   -6.7676   -5.8046 H   0  0  0  0  0  0  0  0  0  0  0  0
   -0.0484   -6.8150   -4.5103 H   0  0  0  0  0  0  0  0  0  0  0  0
    1.6786   -8.6370   -4.4458 H   0  0  0  0  0  0  0  0  0  0  0  0
    0.0424   -9.3058   -4.5438 H   0  0  0  0  0  0  0  0  0  0  0  0
   -0.6952  -10.1774   -6.6752 H   0  0  0  0  0  0  0  0  0  0  0  0
    0.4524  -10.1789   -8.0203 H   0  0  0  0  0  0  0  0  0  0  0  0
   -1.2958   -8.4040   -8.3250 H   0  0  0  0  0  0  0  0  0  0  0  0
    0.3425   -7.7603   -8.2467 H   0  0  0  0  0  0  0  0  0  0  0  0
   -4.1864   -3.6985   -6.3055 H   0  0  0  0  0  0  0  0  0  0  0  0
   -3.3329   -2.6711   -9.1380 H   0  0  0  0  0  0  0  0  0  0  0  0
   -5.0031   -2.7195   -8.4289 H   0  0  0  0  0  0  0  0  0  0  0  0
   -4.2182   -1.2180   -6.5770 H   0  0  0  0  0  0  0  0  0  0  0  0
   -2.5343   -1.2232   -7.2426 H   0  0  0  0  0  0  0  0  0  0  0  0
    3.5652   -5.4478   -8.1801 H   0  0  0  0  0  0  0  0  0  0  0  0
    5.3130   -4.0661   -7.0506 H   0  0  0  0  0  0  0  0  0  0  0  0
    1.8266   -4.6403   -3.8147 H   0  0  0  0  0  0  0  0  0  0  0  0
    0.8556   -5.4053   -1.7074 H   0  0  0  0  0  0  0  0  0  0  0  0
  1  2  1  0  0  0  0
  1 33  1  0  0  0  0
  1 34  1  0  0  0  0
  1 35  1  0  0  0  0
  2  3  1  0  0  0  0
  2  4  1  0  0  0  0
  2  5  1  0  0  0  0
  3 36  1  0  0  0  0
  3 37  1  0  0  0  0
  3 38  1  0  0  0  0
  4 39  1  0  0  0  0
  5  6  2  0  0  0  0
  5 32  1  0  0  0  0
  6  7  1  0  0  0  0
  6 40  1  0  0  0  0
  7  8  1  0  0  0  0
  7 30  2  0  0  0  0
  8  9  1  0  0  0  0
  8 41  1  0  0  0  0
  9 10  2  0  0  0  0
  9 29  1  0  0  0  0
 10 11  1  0  0  0  0
 10 42  1  0  0  0  0
 11 12  1  0  0  0  0
 11 27  2  0  0  0  0
 12 13  1  0  0  0  0
 13 14  2  0  0  0  0
 13 17  1  0  0  0  0
 14 15  1  0  0  0  0
 14 43  1  0  0  0  0
 15 16  1  0  0  0  0
 15 24  1  0  0  0  0
 16 17  2  0  0  0  0
 17 18  1  0  0  0  0
 18 19  1  0  0  0  0
 18 23  1  0  0  0  0
 18 44  1  0  0  0  0
 19 20  1  0  0  0  0
 19 45  1  0  0  0  0
 19 46  1  0  0  0  0
 20 21  1  0  0  0  0
 20 47  1  0  0  0  0
 20 48  1  0  0  0  0
 21 22  1  0  0  0  0
 22 23  1  0  0  0  0
 22 49  1  0  0  0  0
 22 50  1  0  0  0  0
 23 51  1  0  0  0  0
 23 52  1  0  0  0  0
 24 25  1  0  0  0  0
 24 26  1  0  0  0  0
 24 53  1  0  0  0  0
 25 26  1  0  0  0  0
 25 54  1  0  0  0  0
 25 55  1  0  0  0  0
 26 56  1  0  0  0  0
 26 57  1  0  0  0  0
 27 28  1  0  0  0  0
 27 58  1  0  0  0  0
 28 29  2  0  0  0  0
 28 59  1  0  0  0  0
 30 31  1  0  0  0  0
 30 60  1  0  0  0  0
 31 32  2  0  0  0  0
 31 61  1  0  0  0  0
M  END
>  <DRUGBANK_ID>
DB16064

>  <COMMON_NAME>
LY-3200882

>  <CAS_NUMBER>
1898283-02-7

>  <UNII>
19HY34R6UN

$$$$
