BOS
 OpenBabel10282417163D

 32 33  0  0  0  0  0  0  0  0999 V2000
    1.0625    0.0469    0.0289 N   0  0  0  0  0  0  0  0  0  0  0  0
    0.4401    1.6030   -0.1863 S   0  0  0  0  0  0  0  0  0  0  0  0
    1.1146    2.1271   -1.3543 O   0  0  0  0  0  0  0  0  0  0  0  0
   -0.9914    1.4856   -0.0931 O   0  0  0  0  0  0  0  0  0  0  0  0
    0.9718    2.5223    1.2226 C   0  0  0  0  0  0  0  0  0  0  0  0
    0.9274    3.9245    1.2103 C   0  0  0  0  0  0  0  0  0  0  0  0
    1.1338    4.6536    2.3999 C   0  0  0  0  0  0  0  0  0  0  0  0
    1.2941    3.9691    3.6043 C   0  0  0  0  0  0  0  0  0  0  0  0
    1.1229    2.5919    3.5662 C   0  0  0  0  0  0  0  0  0  0  0  0
    1.1868    1.8503    2.4017 C   0  0  0  0  0  0  0  0  0  0  0  0
    1.6486    4.6406    4.7989 N   0  0  0  0  0  0  0  0  0  0  0  0
    2.0631    4.1460    6.0375 C   0  0  0  0  0  0  0  0  0  0  0  0
    2.2847    4.9356    6.9562 O   0  0  0  0  0  0  0  0  0  0  0  0
    2.2631    2.6914    6.3072 C   0  0  0  0  0  0  0  0  0  0  0  0
    3.0660    1.9336    5.4246 C   0  0  0  0  0  0  0  0  0  0  0  0
    3.0279    0.5359    5.4505 C   0  0  0  0  0  0  0  0  0  0  0  0
    2.3789   -0.1093    6.4929 C   0  0  0  0  0  0  0  0  0  0  0  0
    1.7305    0.6426    7.4766 C   0  0  0  0  0  0  0  0  0  0  0  0
    1.5885    2.0381    7.3548 C   0  0  0  0  0  0  0  0  0  0  0  0
    0.4350    2.8042    8.4930 S   0  0  0  0  0  0  0  0  0  0  0  0
    0.6190   -0.5640   -0.6640 H   0  0  0  0  0  0  0  0  0  0  0  0
    2.0765    0.0227   -0.0610 H   0  0  0  0  0  0  0  0  0  0  0  0
    0.7031    4.4450    0.2822 H   0  0  0  0  0  0  0  0  0  0  0  0
    1.1082    5.7407    2.3646 H   0  0  0  0  0  0  0  0  0  0  0  0
    0.9231    2.0311    4.4652 H   0  0  0  0  0  0  0  0  0  0  0  0
    1.2808    0.7714    2.4687 H   0  0  0  0  0  0  0  0  0  0  0  0
    1.6896    5.6557    4.7707 H   0  0  0  0  0  0  0  0  0  0  0  0
    3.5612    2.4218    4.5859 H   0  0  0  0  0  0  0  0  0  0  0  0
    3.4614   -0.0397    4.6345 H   0  0  0  0  0  0  0  0  0  0  0  0
    2.3630   -1.1963    6.5378 H   0  0  0  0  0  0  0  0  0  0  0  0
    1.2957    0.1177    8.3255 H   0  0  0  0  0  0  0  0  0  0  0  0
    0.4260    4.0427    7.9718 H   0  0  0  0  0  0  0  0  0  0  0  0
  1  2  1  0  0  0  0
  1 21  1  0  0  0  0
  1 22  1  0  0  0  0
  2  3  2  0  0  0  0
  2  4  2  0  0  0  0
  2  5  1  0  0  0  0
  5  6  2  0  0  0  0
  5 10  1  0  0  0  0
  6  7  1  0  0  0  0
  6 23  1  0  0  0  0
  7  8  2  0  0  0  0
  7 24  1  0  0  0  0
  8  9  1  0  0  0  0
  8 11  1  0  0  0  0
  9 10  2  0  0  0  0
  9 25  1  0  0  0  0
 10 26  1  0  0  0  0
 11 12  1  0  0  0  0
 11 27  1  0  0  0  0
 12 13  2  0  0  0  0
 12 14  1  0  0  0  0
 14 15  2  0  0  0  0
 14 19  1  0  0  0  0
 15 16  1  0  0  0  0
 15 28  1  0  0  0  0
 16 17  2  0  0  0  0
 16 29  1  0  0  0  0
 17 18  1  0  0  0  0
 17 30  1  0  0  0  0
 18 19  2  0  0  0  0
 18 31  1  0  0  0  0
 19 20  1  0  0  0  0
 20 32  1  0  0  0  0
M  END
>  <DRUGBANK_ID>
DB07476

>  <COMMON_NAME>
N-[4-(AMINOSULFONYL)PHENYL]-2-MERCAPTOBENZAMIDE

$$$$
