
 OpenBabel10282417243D

 82 88  0  0  1  0  0  0  0  0999 V2000
    0.8762   -0.0322    0.2073 C   0  0  0  0  0  0  0  0  0  0  0  0
    0.3565   -1.2583   -0.5941 C   0  0  0  0  0  0  0  0  0  0  0  0
    0.6518   -2.8088   -0.5984 N   0  0  0  0  0  0  0  0  0  0  0  0
    2.1153   -2.9142   -0.1856 C   0  0  2  0  0  0  0  0  0  0  0  0
    2.8441   -3.9528   -1.1698 C   0  0  2  0  0  0  0  0  0  0  0  0
    4.1100   -3.2847   -2.5181 C   0  0  0  0  0  0  0  0  0  0  0  0
    4.5223   -3.9716   -3.6128 C   0  0  0  0  0  0  0  0  0  0  0  0
    4.6294   -3.1445   -4.7454 C   0  0  0  0  0  0  0  0  0  0  0  0
    5.3853   -1.9585   -4.7923 C   0  0  0  0  0  0  0  0  0  0  0  0
    5.6508   -1.2966   -3.6909 C   0  0  0  0  0  0  0  0  0  0  0  0
    7.1454   -0.3730   -3.3836 Cl  0  0  0  0  0  0  0  0  0  0  0  0
    4.8797   -1.8065   -2.6963 C   0  0  0  0  0  0  0  0  0  0  0  0
    5.4163   -1.0277   -1.7702 F   0  0  0  0  0  0  0  0  0  0  0  0
    1.4906   -4.7572   -1.4330 C   0  0  1  0  0  0  0  0  0  0  0  0
    1.9648   -5.3851   -2.5720 C   0  0  0  0  0  0  0  0  0  0  0  0
    2.6577   -4.8094   -3.4360 O   0  0  0  0  0  0  0  0  0  0  0  0
    1.7353   -6.5993   -2.8608 N   0  0  0  0  0  0  0  0  0  0  0  0
    1.5844   -7.1217   -1.6451 C   0  0  0  0  0  0  0  0  0  0  0  0
    1.8364   -8.4257   -1.4799 C   0  0  0  0  0  0  0  0  0  0  0  0
    1.8030   -8.7922   -0.1729 C   0  0  0  0  0  0  0  0  0  0  0  0
    1.8543  -10.4720    0.1190 Cl  0  0  0  0  0  0  0  0  0  0  0  0
    1.6760   -7.8340    0.8766 C   0  0  0  0  0  0  0  0  0  0  0  0
    1.5255   -6.4508    0.6372 C   0  0  0  0  0  0  0  0  0  0  0  0
    1.3930   -6.0908   -0.6820 C   0  0  0  0  0  0  0  0  0  0  0  0
    0.3898   -3.8553   -2.0779 C   0  0  0  0  0  0  0  0  0  0  0  0
    0.0041   -4.0457   -4.0066 C   0  0  0  0  0  0  0  0  0  0  0  0
    1.2305   -3.8916   -4.7500 C   0  0  0  0  0  0  0  0  0  0  0  0
    1.5495   -2.5920   -3.9360 C   0  0  0  0  0  0  0  0  0  0  0  0
    0.2076   -1.8826   -3.3315 C   0  0  0  0  0  0  0  0  0  0  0  0
   -0.7069   -2.9405   -2.3012 C   0  0  0  0  0  0  0  0  0  0  0  0
    2.6363   -2.7713    1.5922 C   0  0  0  0  0  0  0  0  0  0  0  0
    1.8332   -3.0312    2.4978 O   0  0  0  0  0  0  0  0  0  0  0  0
    4.0084   -2.3508    2.1314 N   0  0  0  0  0  0  0  0  0  0  0  0
    5.1246   -1.6917    1.4382 C   0  0  3  0  0  0  0  0  0  0  0  0
    4.1373   -1.3779    0.1824 C   0  0  0  0  0  0  0  0  0  0  0  0
    4.6096   -2.5979   -0.3751 C   0  0  0  0  0  0  0  0  0  0  0  0
    6.0488   -2.3103   -0.4664 C   0  0  3  0  0  0  0  0  0  0  0  0
    6.4485   -3.5686    0.4712 C   0  0  0  0  0  0  0  0  0  0  0  0
    6.6851   -2.4997    1.3609 C   0  0  0  0  0  0  0  0  0  0  0  0
    5.9652   -0.3850    0.2395 C   0  0  0  0  0  0  0  0  0  0  0  0
    6.1032   -0.5730    1.7055 C   0  0  0  0  0  0  0  0  0  0  0  0
    7.0121   -3.0291   -1.7256 C   0  0  0  0  0  0  0  0  0  0  0  0
    8.3253   -2.8301   -1.5461 O   0  0  0  0  0  0  0  0  0  0  0  0
    6.7398   -3.8471   -2.5905 O   0  0  0  0  0  0  0  0  0  0  0  0
    0.5999   -0.0086    1.2523 H   0  0  0  0  0  0  0  0  0  0  0  0
    0.5256    0.8700   -0.3270 H   0  0  0  0  0  0  0  0  0  0  0  0
    1.9374    0.1828    0.1177 H   0  0  0  0  0  0  0  0  0  0  0  0
   -0.7056   -1.0610   -0.7243 H   0  0  0  0  0  0  0  0  0  0  0  0
    0.9512   -0.9248   -1.4104 H   0  0  0  0  0  0  0  0  0  0  0  0
    2.2962   -1.9805   -0.6502 H   0  0  0  0  0  0  0  0  0  0  0  0
    3.2987   -4.6423   -0.4076 H   0  0  0  0  0  0  0  0  0  0  0  0
    4.4039   -5.0478   -3.7284 H   0  0  0  0  0  0  0  0  0  0  0  0
    3.7969   -3.1416   -5.4513 H   0  0  0  0  0  0  0  0  0  0  0  0
    6.2141   -1.9336   -5.4609 H   0  0  0  0  0  0  0  0  0  0  0  0
    2.1577   -6.8872   -3.7308 H   0  0  0  0  0  0  0  0  0  0  0  0
    2.0057   -9.0284   -2.3622 H   0  0  0  0  0  0  0  0  0  0  0  0
    1.6831   -8.1884    1.9005 H   0  0  0  0  0  0  0  0  0  0  0  0
    1.5461   -5.7286    1.4529 H   0  0  0  0  0  0  0  0  0  0  0  0
   -0.5324   -4.8119   -4.6304 H   0  0  0  0  0  0  0  0  0  0  0  0
   -0.6211   -3.2510   -4.5085 H   0  0  0  0  0  0  0  0  0  0  0  0
    2.0271   -4.4674   -5.2894 H   0  0  0  0  0  0  0  0  0  0  0  0
    1.1255   -4.9617   -4.4119 H   0  0  0  0  0  0  0  0  0  0  0  0
    2.1799   -1.9021   -4.4841 H   0  0  0  0  0  0  0  0  0  0  0  0
    2.1203   -2.6961   -3.0188 H   0  0  0  0  0  0  0  0  0  0  0  0
   -0.4159   -1.4576   -4.1033 H   0  0  0  0  0  0  0  0  0  0  0  0
    0.6832   -1.0156   -2.9314 H   0  0  0  0  0  0  0  0  0  0  0  0
   -1.4122   -3.7288   -2.6553 H   0  0  0  0  0  0  0  0  0  0  0  0
   -1.3803   -2.5324   -1.5578 H   0  0  0  0  0  0  0  0  0  0  0  0
    4.1442   -2.3849    3.1230 H   0  0  0  0  0  0  0  0  0  0  0  0
    3.1797   -0.9497    0.4066 H   0  0  0  0  0  0  0  0  0  0  0  0
    4.0697   -0.6922   -0.7663 H   0  0  0  0  0  0  0  0  0  0  0  0
    4.4752   -3.6092   -0.0582 H   0  0  0  0  0  0  0  0  0  0  0  0
    3.8806   -2.3305   -1.0692 H   0  0  0  0  0  0  0  0  0  0  0  0
    5.7337   -4.3057    0.8976 H   0  0  0  0  0  0  0  0  0  0  0  0
    7.2740   -4.1885    0.1133 H   0  0  0  0  0  0  0  0  0  0  0  0
    7.4791   -1.8950    0.7724 H   0  0  0  0  0  0  0  0  0  0  0  0
    7.2497   -2.6730    2.2505 H   0  0  0  0  0  0  0  0  0  0  0  0
    5.0543    0.1718    0.9297 H   0  0  0  0  0  0  0  0  0  0  0  0
    5.2237    0.3525   -0.2858 H   0  0  0  0  0  0  0  0  0  0  0  0
    6.0546   -0.3097    2.7468 H   0  0  0  0  0  0  0  0  0  0  0  0
    7.0176    0.0193    1.3994 H   0  0  0  0  0  0  0  0  0  0  0  0
    8.4331   -2.2001   -0.8344 H   0  0  0  0  0  0  0  0  0  0  0  0
  1  2  1  0  0  0  0
  1 45  1  0  0  0  0
  1 46  1  0  0  0  0
  1 47  1  0  0  0  0
  2  3  1  0  0  0  0
  2 48  1  0  0  0  0
  2 49  1  0  0  0  0
  3 25  1  0  0  0  0
  4  3  1  0  0  0  0
  4 50  1  6  0  0  0
  4 31  1  0  0  0  0
  5  4  1  0  0  0  0
  5  6  1  0  0  0  0
  5 14  1  0  0  0  0
  5 51  1  1  0  0  0
  6  7  2  0  0  0  0
  6 12  1  0  0  0  0
  7  8  1  0  0  0  0
  7 52  1  0  0  0  0
  8  9  2  0  0  0  0
  8 53  1  0  0  0  0
  9 10  1  0  0  0  0
  9 54  1  0  0  0  0
 10 11  1  0  0  0  0
 10 12  2  0  0  0  0
 12 13  1  0  0  0  0
 14 15  1  6  0  0  0
 14 24  1  0  0  0  0
 14 25  1  0  0  0  0
 15 16  2  0  0  0  0
 15 17  1  0  0  0  0
 17 18  1  0  0  0  0
 17 55  1  0  0  0  0
 18 19  2  0  0  0  0
 18 24  1  0  0  0  0
 19 20  1  0  0  0  0
 19 56  1  0  0  0  0
 20 21  1  0  0  0  0
 20 22  2  0  0  0  0
 22 23  1  0  0  0  0
 22 57  1  0  0  0  0
 23 24  2  0  0  0  0
 23 58  1  0  0  0  0
 25 26  1  0  0  0  0
 25 30  1  0  0  0  0
 26 27  1  0  0  0  0
 26 59  1  0  0  0  0
 26 60  1  0  0  0  0
 27 28  1  0  0  0  0
 27 61  1  0  0  0  0
 27 62  1  0  0  0  0
 28 29  1  0  0  0  0
 28 63  1  0  0  0  0
 28 64  1  0  0  0  0
 29 30  1  0  0  0  0
 29 65  1  0  0  0  0
 29 66  1  0  0  0  0
 30 67  1  0  0  0  0
 30 68  1  0  0  0  0
 31 32  2  0  0  0  0
 31 33  1  0  0  0  0
 33 34  1  0  0  0  0
 33 69  1  0  0  0  0
 34 35  1  0  0  0  0
 34 39  1  0  0  0  0
 34 41  1  0  0  0  0
 35 36  1  0  0  0  0
 35 70  1  0  0  0  0
 35 71  1  0  0  0  0
 36 37  1  0  0  0  0
 36 72  1  0  0  0  0
 36 73  1  0  0  0  0
 37 38  1  0  0  0  0
 37 40  1  0  0  0  0
 37 42  1  0  0  0  0
 38 39  1  0  0  0  0
 38 74  1  0  0  0  0
 38 75  1  0  0  0  0
 39 76  1  0  0  0  0
 39 77  1  0  0  0  0
 40 41  1  0  0  0  0
 40 78  1  0  0  0  0
 40 79  1  0  0  0  0
 41 80  1  0  0  0  0
 41 81  1  0  0  0  0
 42 43  1  0  0  0  0
 42 44  2  0  0  0  0
 43 82  1  0  0  0  0
M  END
>  <DRUGBANK_ID>
DB17549

>  <COMMON_NAME>
Alrizomadlin

>  <CAS_NUMBER>
1818393-16-6

>  <UNII>
15QAU0SI9J

>  <SYNONYMS>
(3'r,4's,5'r)-4-((6-chloro-2-oxo-1,2-dihydro-spiro(indole-3,3'-pyrrolidin)e-4'-(3-chloro-2-fluoro -phenyl)-1'-ethyl-spiro(cyclohexane-1,2'-pyrrolidine)-5'-carbonyl)-amino)-bicyclo(2.2.2)octane-1-carboxylic acid; 4-((3'R,4'S,5'R)-6''-chloro-4'-(3-chloro-2-fluorophenyl)-1'-ethyl-2''-oxodispiro[cyclohexane-1,2'-pyrrolidine-3',3''-indoline]-5'-carboxamido)bicyclo [2.2.2]octane-1-carboxylic acid; Bicyclo(2.2.2)octane-1-carboxylic acid, 4-((((3'r,4's,5'r)-6''-chloro-4'-(3-chloro-2-fluorophenyl)-1'-ethyl-1'',2''-dihydro-2''-oxodispiro(cyclohexane-1,2'-pyrrolidine-3',3''-(3h)indol)-5'-yl)carbonyl)amino)-

$$$$
