W01
 OpenBabel10282417173D

 45 47  0  0  0  0  0  0  0  0999 V2000
   -0.9364    0.7468    0.2387 O   0  0  0  0  0  0  0  0  0  0  0  0
    0.3445    1.1985   -0.0287 N   0  0  0  0  0  0  0  0  0  0  0  0
    1.0910    0.0902   -0.0158 C   0  0  0  0  0  0  0  0  0  0  0  0
    2.5422    0.1301   -0.0440 C   0  0  0  0  0  0  0  0  0  0  0  0
    0.3628   -1.0759    0.1347 C   0  0  0  0  0  0  0  0  0  0  0  0
   -0.8681   -0.5780    0.4870 C   0  0  0  0  0  0  0  0  0  0  0  0
   -2.0533   -1.3587    0.5966 C   0  0  0  0  0  0  0  0  0  0  0  0
   -3.1976   -1.0308    1.5227 C   0  0  0  0  0  0  0  0  0  0  0  0
   -3.8551    0.2918    1.1315 C   0  0  0  0  0  0  0  0  0  0  0  0
   -4.7430    0.2266   -0.0341 O   0  0  0  0  0  0  0  0  0  0  0  0
   -4.2149    0.0532   -1.2999 C   0  0  0  0  0  0  0  0  0  0  0  0
   -3.7891   -1.2208   -1.7754 C   0  0  0  0  0  0  0  0  0  0  0  0
   -3.9809   -2.5716   -1.0791 C   0  0  0  0  0  0  0  0  0  0  0  0
   -2.9707   -1.2416   -2.9322 C   0  0  0  0  0  0  0  0  0  0  0  0
   -2.8390   -0.1368   -3.7782 C   0  0  0  0  0  0  0  0  0  0  0  0
   -3.4968    1.0408   -3.4333 C   0  0  0  0  0  0  0  0  0  0  0  0
   -4.1671    1.1625   -2.1913 C   0  0  0  0  0  0  0  0  0  0  0  0
   -4.8526    2.4776   -1.9155 C   0  0  0  0  0  0  0  0  0  0  0  0
   -2.1298   -0.2727   -5.0412 C   0  0  0  0  0  0  0  0  0  0  0  0
   -2.3722   -1.3302   -5.8900 N   0  0  0  0  0  0  0  0  0  0  0  0
   -1.2202    0.5872   -5.5359 N   0  0  0  0  0  0  0  0  0  0  0  0
   -0.9349   -0.0196   -6.7061 N   0  0  0  0  0  0  0  0  0  0  0  0
    0.0005    0.5267   -7.6529 C   0  0  0  0  0  0  0  0  0  0  0  0
   -1.6116   -1.1492   -6.9593 N   0  0  0  0  0  0  0  0  0  0  0  0
    2.8866    0.6512   -0.9327 H   0  0  0  0  0  0  0  0  0  0  0  0
    2.8710    0.6238    0.8731 H   0  0  0  0  0  0  0  0  0  0  0  0
    2.9253   -0.8958   -0.0384 H   0  0  0  0  0  0  0  0  0  0  0  0
    0.6243   -2.1130    0.0727 H   0  0  0  0  0  0  0  0  0  0  0  0
   -2.3452   -1.1014   -0.3873 H   0  0  0  0  0  0  0  0  0  0  0  0
   -1.7953   -2.4242    0.5720 H   0  0  0  0  0  0  0  0  0  0  0  0
   -4.0043   -1.7764    1.4642 H   0  0  0  0  0  0  0  0  0  0  0  0
   -2.8394   -1.0910    2.5528 H   0  0  0  0  0  0  0  0  0  0  0  0
   -4.5057    0.5501    1.9778 H   0  0  0  0  0  0  0  0  0  0  0  0
   -3.1258    1.1059    1.0741 H   0  0  0  0  0  0  0  0  0  0  0  0
   -3.5661   -2.7523   -0.0965 H   0  0  0  0  0  0  0  0  0  0  0  0
   -5.0281   -2.7955   -0.9098 H   0  0  0  0  0  0  0  0  0  0  0  0
   -3.4248   -3.3497   -1.6154 H   0  0  0  0  0  0  0  0  0  0  0  0
   -2.3850   -2.1332   -3.1576 H   0  0  0  0  0  0  0  0  0  0  0  0
   -3.4941    1.8690   -4.1431 H   0  0  0  0  0  0  0  0  0  0  0  0
   -5.9072    2.3109   -1.6776 H   0  0  0  0  0  0  0  0  0  0  0  0
   -4.3637    3.0272   -1.1079 H   0  0  0  0  0  0  0  0  0  0  0  0
   -4.8405    3.1267   -2.8043 H   0  0  0  0  0  0  0  0  0  0  0  0
   -0.3503    1.5165   -7.9530 H   0  0  0  0  0  0  0  0  0  0  0  0
    0.9823    0.5931   -7.1784 H   0  0  0  0  0  0  0  0  0  0  0  0
    0.0591   -0.1254   -8.5296 H   0  0  0  0  0  0  0  0  0  0  0  0
  1  2  1  0  0  0  0
  1  6  1  0  0  0  0
  2  3  2  0  0  0  0
  3  4  1  0  0  0  0
  3  5  1  0  0  0  0
  4 25  1  0  0  0  0
  4 26  1  0  0  0  0
  4 27  1  0  0  0  0
  5  6  2  0  0  0  0
  5 28  1  0  0  0  0
  6  7  1  0  0  0  0
  7  8  1  0  0  0  0
  7 29  1  0  0  0  0
  7 30  1  0  0  0  0
  8  9  1  0  0  0  0
  8 31  1  0  0  0  0
  8 32  1  0  0  0  0
  9 10  1  0  0  0  0
  9 33  1  0  0  0  0
  9 34  1  0  0  0  0
 10 11  1  0  0  0  0
 11 12  2  0  0  0  0
 11 17  1  0  0  0  0
 12 13  1  0  0  0  0
 12 14  1  0  0  0  0
 13 35  1  0  0  0  0
 13 36  1  0  0  0  0
 13 37  1  0  0  0  0
 14 15  2  0  0  0  0
 14 38  1  0  0  0  0
 15 16  1  0  0  0  0
 15 19  1  0  0  0  0
 16 17  2  0  0  0  0
 16 39  1  0  0  0  0
 17 18  1  0  0  0  0
 18 40  1  0  0  0  0
 18 41  1  0  0  0  0
 18 42  1  0  0  0  0
 19 20  1  0  0  0  0
 19 21  2  0  0  0  0
 20 24  2  0  0  0  0
 21 22  1  0  0  0  0
 22 23  1  0  0  0  0
 22 24  1  0  0  0  0
 23 43  1  0  0  0  0
 23 44  1  0  0  0  0
 23 45  1  0  0  0  0
M  END
>  <DRUGBANK_ID>
DB08713

>  <COMMON_NAME>
2,6-DIMETHYL-1-(3-[3-METHYL-5-ISOXAZOLYL]-PROPANYL)-4-[2N-METHYL-2H-TETRAZOL-5-YL]-PHENOL

$$$$
