NCW
 OpenBabel10282417173D

 50 51  0  0  0  0  0  0  0  0999 V2000
    0.7931    0.0894   -0.2049 S   0  0  0  0  0  0  0  0  0  0  0  0
    2.4702    0.0532   -0.1328 C   0  0  0  0  0  0  0  0  0  0  0  0
    3.2561    1.0569   -0.6541 N   0  0  0  0  0  0  0  0  0  0  0  0
    2.8625    2.4521   -0.6762 C   0  0  2  0  0  0  0  0  0  0  0  0
    2.0647    2.7943   -1.9542 C   0  0  1  0  0  0  0  0  0  0  0  0
    2.1482    4.2021   -2.2230 O   0  0  0  0  0  0  0  0  0  0  0  0
    2.4643    1.9648   -3.2087 C   0  0  2  0  0  0  0  0  0  0  0  0
    1.3750    1.0873   -3.5606 O   0  0  0  0  0  0  0  0  0  0  0  0
    3.7520    1.1011   -3.1032 C   0  0  1  0  0  0  0  0  0  0  0  0
    4.7348    1.6057   -4.0343 O   0  0  0  0  0  0  0  0  0  0  0  0
    4.2367    3.1006   -0.6654 C   0  0  0  0  0  0  0  0  0  0  0  0
    5.0805    2.2087   -1.4210 O   0  0  0  0  0  0  0  0  0  0  0  0
    4.3194    0.9938   -1.6488 C   0  0  1  0  0  0  0  0  0  0  0  0
    3.1705   -0.9250    0.5500 N   0  0  0  0  0  0  0  0  0  0  0  0
    2.5481   -1.9231    1.4487 C   0  0  0  0  0  0  0  0  0  0  0  0
    2.9617   -3.3370    1.0647 C   0  0  0  0  0  0  0  0  0  0  0  0
    4.4428   -3.5871    1.3408 C   0  0  0  0  0  0  0  0  0  0  0  0
    4.7845   -3.4765    2.8321 C   0  0  0  0  0  0  0  0  0  0  0  0
    4.0359   -4.5111    3.6820 C   0  0  0  0  0  0  0  0  0  0  0  0
    4.4042   -5.9491    3.2992 C   0  0  0  0  0  0  0  0  0  0  0  0
    5.9014   -6.2283    3.4501 C   0  0  0  0  0  0  0  0  0  0  0  0
    6.3557   -6.0374    4.8889 C   0  0  0  0  0  0  0  0  0  0  0  0
    2.2941    2.7294    0.2169 H   0  0  0  0  0  0  0  0  0  0  0  0
    4.9772    0.1237   -1.5458 H   0  0  0  0  0  0  0  0  0  0  0  0
    1.0025    2.6172   -1.7540 H   0  0  0  0  0  0  0  0  0  0  0  0
    2.5442    2.6453   -4.0657 H   0  0  0  0  0  0  0  0  0  0  0  0
    3.5246    0.0895   -3.4545 H   0  0  0  0  0  0  0  0  0  0  0  0
    2.9673    4.3855   -2.7136 H   0  0  0  0  0  0  0  0  0  0  0  0
    1.2190    0.4821   -2.8095 H   0  0  0  0  0  0  0  0  0  0  0  0
    4.7907    2.5731   -3.9358 H   0  0  0  0  0  0  0  0  0  0  0  0
    4.2859    4.1044   -1.0916 H   0  0  0  0  0  0  0  0  0  0  0  0
    4.6413    3.1510    0.3512 H   0  0  0  0  0  0  0  0  0  0  0  0
    4.1515   -0.7667    0.6893 H   0  0  0  0  0  0  0  0  0  0  0  0
    2.8336   -1.6697    2.4771 H   0  0  0  0  0  0  0  0  0  0  0  0
    1.4603   -1.8747    1.4446 H   0  0  0  0  0  0  0  0  0  0  0  0
    2.3438   -4.0602    1.6121 H   0  0  0  0  0  0  0  0  0  0  0  0
    2.7460   -3.5109    0.0053 H   0  0  0  0  0  0  0  0  0  0  0  0
    4.7164   -4.5753    0.9553 H   0  0  0  0  0  0  0  0  0  0  0  0
    5.0543   -2.8768    0.7749 H   0  0  0  0  0  0  0  0  0  0  0  0
    5.8672   -3.5769    2.9583 H   0  0  0  0  0  0  0  0  0  0  0  0
    4.5667   -2.4743    3.2134 H   0  0  0  0  0  0  0  0  0  0  0  0
    4.2465   -4.3293    4.7410 H   0  0  0  0  0  0  0  0  0  0  0  0
    2.9519   -4.3788    3.5977 H   0  0  0  0  0  0  0  0  0  0  0  0
    3.8325   -6.6473    3.9206 H   0  0  0  0  0  0  0  0  0  0  0  0
    4.0989   -6.1574    2.2669 H   0  0  0  0  0  0  0  0  0  0  0  0
    6.1149   -7.2519    3.1266 H   0  0  0  0  0  0  0  0  0  0  0  0
    6.4885   -5.5802    2.7893 H   0  0  0  0  0  0  0  0  0  0  0  0
    5.8055   -6.7140    5.5497 H   0  0  0  0  0  0  0  0  0  0  0  0
    7.4244   -6.2382    4.9857 H   0  0  0  0  0  0  0  0  0  0  0  0
    6.1897   -5.0135    5.2385 H   0  0  0  0  0  0  0  0  0  0  0  0
  1  2  2  0  0  0  0
  2  3  1  0  0  0  0
  2 14  1  0  0  0  0
  3  4  1  0  0  0  0
  3 13  1  0  0  0  0
  4  5  1  0  0  0  0
  4 11  1  0  0  0  0
  4 23  1  1  0  0  0
  5  6  1  0  0  0  0
  5  7  1  0  0  0  0
  5 25  1  1  0  0  0
  6 28  1  0  0  0  0
  7  8  1  0  0  0  0
  7  9  1  0  0  0  0
  7 26  1  6  0  0  0
  8 29  1  0  0  0  0
  9 13  1  0  0  0  0
  9 27  1  6  0  0  0
  9 10  1  0  0  0  0
 10 30  1  0  0  0  0
 11 12  1  0  0  0  0
 11 31  1  0  0  0  0
 11 32  1  0  0  0  0
 12 13  1  0  0  0  0
 13 24  1  1  0  0  0
 14 15  1  0  0  0  0
 14 33  1  0  0  0  0
 15 16  1  0  0  0  0
 15 34  1  0  0  0  0
 15 35  1  0  0  0  0
 16 17  1  0  0  0  0
 16 36  1  0  0  0  0
 16 37  1  0  0  0  0
 17 18  1  0  0  0  0
 17 38  1  0  0  0  0
 17 39  1  0  0  0  0
 18 19  1  0  0  0  0
 18 40  1  0  0  0  0
 18 41  1  0  0  0  0
 19 20  1  0  0  0  0
 19 42  1  0  0  0  0
 19 43  1  0  0  0  0
 20 21  1  0  0  0  0
 20 44  1  0  0  0  0
 20 45  1  0  0  0  0
 21 22  1  0  0  0  0
 21 46  1  0  0  0  0
 21 47  1  0  0  0  0
 22 48  1  0  0  0  0
 22 49  1  0  0  0  0
 22 50  1  0  0  0  0
M  END
>  <DRUGBANK_ID>
DB08260

>  <COMMON_NAME>
(1S,2R,3S,4R,5R)-2,3,4-trihydroxy-N-octyl-6-oxa-8-azabicyclo[3.2.1]octane-8-carbothioamide

$$$$
