
 OpenBabel10282417113D

 50 50  0  0  0  0  0  0  0  0999 V2000
   -1.1706   -0.2949   -0.0129 C   0  0  0  0  0  0  0  0  0  0  0  0
   -0.9259    1.1487   -0.5457 C   0  0  0  0  0  0  0  0  0  0  0  0
    0.1527   -1.0934    0.1406 C   0  0  0  0  0  0  0  0  0  0  0  0
    1.3598   -0.4660    0.0252 C   0  0  0  0  0  0  0  0  0  0  0  0
    1.5054    1.0423   -0.1347 C   0  0  0  0  0  0  0  0  0  0  0  0
    0.2380    1.8329    0.1370 C   0  0  0  0  0  0  0  0  0  0  0  0
   -4.6730   -9.6945    1.5790 C   0  0  0  0  0  0  0  0  0  0  0  0
   -3.5167   -9.0032    1.4711 C   0  0  0  0  0  0  0  0  0  0  0  0
   -3.5312   -7.5407    1.2168 C   0  0  0  0  0  0  0  0  0  0  0  0
   -2.4045   -6.8173    1.1047 C   0  0  0  0  0  0  0  0  0  0  0  0
   -2.2534   -5.3962    0.8794 C   0  0  0  0  0  0  0  0  0  0  0  0
   -1.0548   -4.7664    0.8030 C   0  0  0  0  0  0  0  0  0  0  0  0
    0.0750   -2.5484    0.3972 C   0  0  0  0  0  0  0  0  0  0  0  0
   -2.1438   -9.6302    1.5972 C   0  0  0  0  0  0  0  0  0  0  0  0
    0.2843   -5.4510    0.9088 C   0  0  0  0  0  0  0  0  0  0  0  0
   -2.1280   -0.9069   -1.0719 C   0  0  0  0  0  0  0  0  0  0  0  0
   -1.8575   -0.1823    1.3679 C   0  0  0  0  0  0  0  0  0  0  0  0
   -1.0112   -3.3164    0.6140 C   0  0  0  0  0  0  0  0  0  0  0  0
    2.7228   -1.1264    0.0181 C   0  0  0  0  0  0  0  0  0  0  0  0
   -4.8749  -11.1427    1.8282 C   0  0  0  0  0  0  0  0  0  0  0  0
   -5.9748  -11.6716    1.9072 O   0  0  0  0  0  0  0  0  0  0  0  0
   -3.7574  -11.8619    1.9655 O   0  0  0  0  0  0  0  0  0  0  0  0
   -0.7174    1.1191   -1.6251 H   0  0  0  0  0  0  0  0  0  0  0  0
   -1.8319    1.7559   -0.4272 H   0  0  0  0  0  0  0  0  0  0  0  0
    2.2845    1.4188    0.5408 H   0  0  0  0  0  0  0  0  0  0  0  0
    1.8478    1.2514   -1.1570 H   0  0  0  0  0  0  0  0  0  0  0  0
    0.3473    2.8553   -0.2437 H   0  0  0  0  0  0  0  0  0  0  0  0
    0.0659    1.9194    1.2151 H   0  0  0  0  0  0  0  0  0  0  0  0
   -5.6241   -9.1746    1.4784 H   0  0  0  0  0  0  0  0  0  0  0  0
   -4.4936   -7.0400    1.1235 H   0  0  0  0  0  0  0  0  0  0  0  0
   -1.4709   -7.3478    1.2059 H   0  0  0  0  0  0  0  0  0  0  0  0
   -3.1777   -4.8279    0.7741 H   0  0  0  0  0  0  0  0  0  0  0  0
    1.0272   -3.0614    0.4243 H   0  0  0  0  0  0  0  0  0  0  0  0
   -1.5810   -9.4976    0.6674 H   0  0  0  0  0  0  0  0  0  0  0  0
   -1.6026   -9.1899    2.4411 H   0  0  0  0  0  0  0  0  0  0  0  0
   -2.1068  -10.6948    1.7824 H   0  0  0  0  0  0  0  0  0  0  0  0
    0.8502   -5.3269   -0.0205 H   0  0  0  0  0  0  0  0  0  0  0  0
    0.8517   -5.0322    1.7458 H   0  0  0  0  0  0  0  0  0  0  0  0
    0.2333   -6.5229    1.0875 H   0  0  0  0  0  0  0  0  0  0  0  0
   -2.4836   -1.9134   -0.8690 H   0  0  0  0  0  0  0  0  0  0  0  0
   -3.0359   -0.3025   -1.1661 H   0  0  0  0  0  0  0  0  0  0  0  0
   -1.6397   -0.9584   -2.0523 H   0  0  0  0  0  0  0  0  0  0  0  0
   -2.7932    0.3806    1.2974 H   0  0  0  0  0  0  0  0  0  0  0  0
   -2.1052   -1.1505    1.8076 H   0  0  0  0  0  0  0  0  0  0  0  0
   -1.2146    0.3231    2.0978 H   0  0  0  0  0  0  0  0  0  0  0  0
   -1.9928   -2.8699    0.6694 H   0  0  0  0  0  0  0  0  0  0  0  0
    3.2181   -0.9266   -0.9391 H   0  0  0  0  0  0  0  0  0  0  0  0
    3.3473   -0.7224    0.8218 H   0  0  0  0  0  0  0  0  0  0  0  0
    2.7170   -2.2079    0.1384 H   0  0  0  0  0  0  0  0  0  0  0  0
   -3.9963  -12.7948    2.1241 H   0  0  0  0  0  0  0  0  0  0  0  0
  1 16  1  0  0  0  0
  1 17  1  0  0  0  0
  1  2  1  0  0  0  0
  1  3  1  0  0  0  0
  2  6  1  0  0  0  0
  2 23  1  0  0  0  0
  2 24  1  0  0  0  0
  3 13  1  0  0  0  0
  4  3  2  0  0  0  0
  5  4  1  0  0  0  0
  5 25  1  0  0  0  0
  5 26  1  0  0  0  0
  6  5  1  0  0  0  0
  6 27  1  0  0  0  0
  6 28  1  0  0  0  0
  7 20  1  0  0  0  0
  7 29  1  0  0  0  0
  8  7  2  0  0  0  0
  9  8  1  0  0  0  0
  9 30  1  0  0  0  0
 10  9  2  0  0  0  0
 10 31  1  0  0  0  0
 11 10  1  0  0  0  0
 11 32  1  0  0  0  0
 12 11  2  0  0  0  0
 13 18  2  0  0  0  0
 13 33  1  0  0  0  0
 14  8  1  0  0  0  0
 14 34  1  0  0  0  0
 14 35  1  0  0  0  0
 14 36  1  0  0  0  0
 15 12  1  0  0  0  0
 15 37  1  0  0  0  0
 15 38  1  0  0  0  0
 15 39  1  0  0  0  0
 16 40  1  0  0  0  0
 16 41  1  0  0  0  0
 16 42  1  0  0  0  0
 17 43  1  0  0  0  0
 17 44  1  0  0  0  0
 17 45  1  0  0  0  0
 18 12  1  0  0  0  0
 18 46  1  0  0  0  0
 19  4  1  0  0  0  0
 19 47  1  0  0  0  0
 19 48  1  0  0  0  0
 19 49  1  0  0  0  0
 20 21  2  0  0  0  0
 20 22  1  0  0  0  0
 22 50  1  0  0  0  0
M  END
>  <DRUGBANK_ID>
DB00755

>  <SECONDARY_ACCESSION_NUMBERS>
NUTR00051; APRD00362

>  <COMMON_NAME>
Tretinoin

>  <CAS_NUMBER>
302-79-4

>  <UNII>
5688UTC01R

>  <SYNONYMS>
(all-E)-3,7-Dimethyl-9-(2,6,6-trimethyl-1-cyclohexen-1-yl)-2,4,6,8-nonatetraenoic acid; 3,7-Dimethyl-9-(2,6,6-trimethyl-1-cyclohexene-1-yl)-2,4,6,8-nonatetraenoic acid (ECL); Acide retinoique; all trans Retinoic acid; all trans-Retinoic acid; all-(E)-Retinoic acid; all-trans-beta-Retinoic acid; all-trans-Retinoic acid; all-trans-Tretinoin; all-trans-Vitamin A acid; all-trans-Vitamin A1 acid; ATRA; beta-Retinoic acid; Retinoic acid; Retionic acid; trans-Retinoic acid; Tretin M; Tretinoin; Tretinoina; Trétinoïne; Tretinoinum; Vitamin A acid

$$$$
