
 OpenBabel10282417133D

 15 15  0  0  0  0  0  0  0  0999 V2000
    1.9236   -0.0018   -0.0362 O   0  0  0  0  0  0  0  0  0  0  0  0
   -2.0098   -2.7215   -1.2467 O   0  0  0  0  0  0  0  0  0  0  0  0
   -0.1151   -1.0848    0.0636 N   0  0  0  0  0  0  0  0  0  0  0  0
   -1.5115   -0.7424    0.0702 C   0  0  1  0  0  0  0  0  0  0  0  0
   -1.5113    0.7405   -0.2737 C   0  0  0  0  0  0  0  0  0  0  0  0
   -0.1569    1.2359    0.2234 C   0  0  0  0  0  0  0  0  0  0  0  0
    0.7092    0.0172    0.0536 C   0  0  0  0  0  0  0  0  0  0  0  0
   -2.2842   -1.5609   -0.9507 C   0  0  0  0  0  0  0  0  0  0  0  0
    0.2449   -2.0272   -0.0497 H   0  0  0  0  0  0  0  0  0  0  0  0
   -1.9233   -0.9273    1.0672 H   0  0  0  0  0  0  0  0  0  0  0  0
   -2.3475    1.2767    0.1853 H   0  0  0  0  0  0  0  0  0  0  0  0
   -1.5796    0.8933   -1.3587 H   0  0  0  0  0  0  0  0  0  0  0  0
   -0.1885    1.5016    1.2849 H   0  0  0  0  0  0  0  0  0  0  0  0
    0.2116    2.0765   -0.3682 H   0  0  0  0  0  0  0  0  0  0  0  0
   -3.1872   -1.0782   -1.3628 H   0  0  0  0  0  0  0  0  0  0  0  0
  1  7  2  0  0  0  0
  2  8  2  0  0  0  0
  3  4  1  0  0  0  0
  3  7  1  0  0  0  0
  3  9  1  0  0  0  0
  4  5  1  0  0  0  0
  4 10  1  1  0  0  0
  4  8  1  0  0  0  0
  5  6  1  0  0  0  0
  5 11  1  0  0  0  0
  5 12  1  0  0  0  0
  6  7  1  0  0  0  0
  6 13  1  0  0  0  0
  6 14  1  0  0  0  0
  8 15  1  0  0  0  0
M  END
>  <DRUGBANK_ID>
DB03901

>  <SECONDARY_ACCESSION_NUMBERS>
EXPT00900

>  <COMMON_NAME>
5-Oxoprolinal

>  <CAS_NUMBER>
96914-00-0

>  <SYNONYMS>
(2S)-5-Oxo-2-pyrrolidinecarbaldehyde; 5-Ketoprolinal

$$$$
