
 OpenBabel10282417243D

 26 27  0  0  0  0  0  0  0  0999 V2000
    0.9886   -0.0656   -0.0746 C   0  0  0  0  0  0  0  0  0  0  0  0
    0.4819   -0.6957   -1.3617 C   0  0  0  0  0  0  0  0  0  0  0  0
    1.0852   -2.3982   -1.4783 S   0  0  0  0  0  0  0  0  0  0  0  0
    3.6152   -2.3982   -1.4783 Bi  0  0  0  0  0  0  0  0  0  0  0  0
    4.1618   -3.6209   -0.7127 S   0  0  0  0  0  0  0  0  0  0  0  0
    5.4166   -3.1441    0.0397 C   0  0  0  0  0  0  0  0  0  0  0  0
    5.5886   -1.6476   -0.2950 C   0  0  0  0  0  0  0  0  0  0  0  0
    4.1638   -1.1802   -0.6951 S   0  0  0  0  0  0  0  0  0  0  0  0
    0.3852   -1.0178    1.3415 S   0  0  0  0  0  0  0  0  0  0  0  0
    1.2286   -3.3975    1.1786 Bi  0  0  0  0  0  0  0  0  0  0  0  0
    0.4290   -4.6328    0.7152 S   0  0  0  0  0  0  0  0  0  0  0  0
    0.9866   -5.8361    1.4958 C   0  0  0  0  0  0  0  0  0  0  0  0
    2.1059   -5.2896    2.4067 C   0  0  0  0  0  0  0  0  0  0  0  0
    1.7561   -3.7877    2.5812 S   0  0  0  0  0  0  0  0  0  0  0  0
    0.6319    0.9408   -0.0057 H   0  0  0  0  0  0  0  0  0  0  0  0
    2.0586   -0.0656   -0.0746 H   0  0  0  0  0  0  0  0  0  0  0  0
   -0.5881   -0.6957   -1.3617 H   0  0  0  0  0  0  0  0  0  0  0  0
    0.8386   -0.1328   -2.1989 H   0  0  0  0  0  0  0  0  0  0  0  0
    5.3150   -3.2946    1.0942 H   0  0  0  0  0  0  0  0  0  0  0  0
    6.2739   -3.6960   -0.2849 H   0  0  0  0  0  0  0  0  0  0  0  0
    5.9883   -1.0878    0.5246 H   0  0  0  0  0  0  0  0  0  0  0  0
    6.2728   -1.5167   -1.1072 H   0  0  0  0  0  0  0  0  0  0  0  0
    0.2198   -6.3127    2.0699 H   0  0  0  0  0  0  0  0  0  0  0  0
    1.3835   -6.5635    0.8189 H   0  0  0  0  0  0  0  0  0  0  0  0
    2.1634   -5.8080    3.3409 H   0  0  0  0  0  0  0  0  0  0  0  0
    3.0630   -5.4048    1.9424 H   0  0  0  0  0  0  0  0  0  0  0  0
  1  2  1  0  0  0  0
  1  9  1  0  0  0  0
  1 15  1  0  0  0  0
  1 16  1  0  0  0  0
  2  3  1  0  0  0  0
  2 17  1  0  0  0  0
  2 18  1  0  0  0  0
  3  4  1  0  0  0  0
  4  5  1  0  0  0  0
  4  8  1  0  0  0  0
  5  6  1  0  0  0  0
  6  7  1  0  0  0  0
  6 19  1  0  0  0  0
  6 20  1  0  0  0  0
  7  8  1  0  0  0  0
  7 21  1  0  0  0  0
  7 22  1  0  0  0  0
  9 10  1  0  0  0  0
 10 11  1  0  0  0  0
 10 14  1  0  0  0  0
 11 12  1  0  0  0  0
 12 13  1  0  0  0  0
 12 23  1  0  0  0  0
 12 24  1  0  0  0  0
 13 14  1  0  0  0  0
 13 25  1  0  0  0  0
 13 26  1  0  0  0  0
M  END
>  <DRUGBANK_ID>
DB17784

>  <COMMON_NAME>
Pravibismane

>  <CAS_NUMBER>
175880-68-9

>  <UNII>
G3T79NDD38

>  <SYNONYMS>
1,2-(bis(1,3-dithia-2-bismolane)thio)ethane; 1,2-bis((1,3-dithia-2-bismolan-2-yl)thio)ethane; 1,2-bis((1,3-dithia-2-bismolane-2-yl)thio)ethane; 1,3,2-dithiabismolane, 2,2'-(1,2-ethanediylbis(thio))bis; 2,2'-(1,2-ethanediylbis(thio))bis(1,3,2-dithiabismolane); 2,2'-(ethane-1,2-diylbis(sulfanediyl))bis(1,3,2-dithiabismolane); BisEDT

$$$$
