
 OpenBabel10282417193D

 67 70  0  0  1  0  0  0  0  0999 V2000
    1.0361    0.0327    0.0213 C   0  0  0  0  0  0  0  0  0  0  0  0
    0.4384   -0.3049    1.2667 O   0  0  0  0  0  0  0  0  0  0  0  0
    0.8951   -1.4440    1.8719 C   0  0  0  0  0  0  0  0  0  0  0  0
    2.2160   -1.8926    1.8081 C   0  0  0  0  0  0  0  0  0  0  0  0
    2.6144   -2.9947    2.5650 C   0  0  0  0  0  0  0  0  0  0  0  0
    4.0690   -3.4059    2.6336 C   0  0  0  0  0  0  0  0  0  0  0  0
    4.7027   -3.1970    4.0276 C   0  0  0  0  0  0  0  0  0  0  0  0
    4.0795   -4.0217    5.0977 C   0  0  0  0  0  0  0  0  0  0  0  0
    3.2483   -3.7121    6.1600 C   0  0  0  0  0  0  0  0  0  0  0  0
    2.8702   -4.9609    6.7162 C   0  0  0  0  0  0  0  0  0  0  0  0
    2.0650   -5.1607    7.8188 N   0  0  0  0  0  0  0  0  0  0  0  0
    1.6988   -6.3600    8.4130 C   0  0  0  0  0  0  0  0  0  0  0  0
    0.8741   -6.3581    9.3160 O   0  0  0  0  0  0  0  0  0  0  0  0
    2.2953   -7.6626    7.9916 C   0  0  0  0  0  0  0  0  0  0  0  0
    3.6685   -7.8159    7.7896 C   0  0  0  0  0  0  0  0  0  0  0  0
    4.1894   -9.0088    7.2719 C   0  0  0  0  0  0  0  0  0  0  0  0
    3.3752  -10.1260    7.0658 C   0  0  0  0  0  0  0  0  0  0  0  0
    2.0207   -9.9932    7.4067 C   0  0  0  0  0  0  0  0  0  0  0  0
    1.4691   -8.7717    7.8245 C   0  0  0  0  0  0  0  0  0  0  0  0
    3.8502  -11.3061    6.5335 N   0  0  0  0  0  0  0  0  0  0  0  0
    5.0861  -11.9509    6.9880 C   0  0  0  0  0  0  0  0  0  0  0  0
    6.0803  -12.2107    5.8225 C   0  0  2  0  0  0  0  0  0  0  0  0
    6.9139  -10.9689    5.4713 C   0  0  0  0  0  0  0  0  0  0  0  0
    5.4340  -12.8484    4.6418 N   0  0  0  0  0  0  0  0  0  0  0  0
    4.2106  -12.1133    4.2169 C   0  0  2  0  0  0  0  0  0  0  0  0
    4.5484  -10.7466    3.6210 C   0  0  0  0  0  0  0  0  0  0  0  0
    3.1879  -11.9284    5.3744 C   0  0  0  0  0  0  0  0  0  0  0  0
    3.3084   -5.9440    5.9340 N   0  0  0  0  0  0  0  0  0  0  0  0
    4.1557   -5.3814    5.0854 N   0  0  0  0  0  0  0  0  0  0  0  0
    1.6507   -3.6673    3.3309 C   0  0  0  0  0  0  0  0  0  0  0  0
    0.3586   -3.1788    3.4815 C   0  0  0  0  0  0  0  0  0  0  0  0
   -0.5696   -3.6746    4.3634 O   0  0  0  0  0  0  0  0  0  0  0  0
   -0.0431   -4.5084    5.3949 C   0  0  0  0  0  0  0  0  0  0  0  0
   -0.0276   -2.0938    2.7035 C   0  0  0  0  0  0  0  0  0  0  0  0
    0.6648    1.0216   -0.2634 H   0  0  0  0  0  0  0  0  0  0  0  0
    0.7264   -0.6852   -0.7434 H   0  0  0  0  0  0  0  0  0  0  0  0
    2.1263    0.1105    0.0624 H   0  0  0  0  0  0  0  0  0  0  0  0
    2.9602   -1.3778    1.2115 H   0  0  0  0  0  0  0  0  0  0  0  0
    4.1590   -4.4492    2.3056 H   0  0  0  0  0  0  0  0  0  0  0  0
    4.6498   -2.8106    1.9169 H   0  0  0  0  0  0  0  0  0  0  0  0
    5.7671   -3.4555    3.9742 H   0  0  0  0  0  0  0  0  0  0  0  0
    4.6374   -2.1405    4.3105 H   0  0  0  0  0  0  0  0  0  0  0  0
    2.8836   -2.7276    6.4237 H   0  0  0  0  0  0  0  0  0  0  0  0
    1.6207   -4.3482    8.2271 H   0  0  0  0  0  0  0  0  0  0  0  0
    4.3331   -6.9651    7.9195 H   0  0  0  0  0  0  0  0  0  0  0  0
    5.2337   -9.0111    6.9766 H   0  0  0  0  0  0  0  0  0  0  0  0
    1.3802  -10.8697    7.3679 H   0  0  0  0  0  0  0  0  0  0  0  0
    0.4006   -8.6967    8.0074 H   0  0  0  0  0  0  0  0  0  0  0  0
    5.5764  -11.4079    7.8025 H   0  0  0  0  0  0  0  0  0  0  0  0
    4.7934  -12.9269    7.3995 H   0  0  0  0  0  0  0  0  0  0  0  0
    6.8155  -12.9424    6.1842 H   0  0  0  0  0  0  0  0  0  0  0  0
    7.5458  -10.6817    6.3150 H   0  0  0  0  0  0  0  0  0  0  0  0
    7.5485  -11.1531    4.5981 H   0  0  0  0  0  0  0  0  0  0  0  0
    6.3375  -10.0716    5.2642 H   0  0  0  0  0  0  0  0  0  0  0  0
    5.1196  -13.7746    4.9481 H   0  0  0  0  0  0  0  0  0  0  0  0
    3.7430  -12.7087    3.4206 H   0  0  0  0  0  0  0  0  0  0  0  0
    5.4347  -10.7906    2.9795 H   0  0  0  0  0  0  0  0  0  0  0  0
    3.7155  -10.3259    3.0565 H   0  0  0  0  0  0  0  0  0  0  0  0
    4.7127  -10.0156    4.4100 H   0  0  0  0  0  0  0  0  0  0  0  0
    2.7918  -12.9055    5.6759 H   0  0  0  0  0  0  0  0  0  0  0  0
    2.3457  -11.3316    5.0027 H   0  0  0  0  0  0  0  0  0  0  0  0
    4.6588   -5.9921    4.4501 H   0  0  0  0  0  0  0  0  0  0  0  0
    1.9405   -4.5679    3.8537 H   0  0  0  0  0  0  0  0  0  0  0  0
    0.3296   -5.4557    4.9896 H   0  0  0  0  0  0  0  0  0  0  0  0
    0.7239   -3.9615    5.9371 H   0  0  0  0  0  0  0  0  0  0  0  0
   -0.8126   -4.7412    6.1360 H   0  0  0  0  0  0  0  0  0  0  0  0
   -1.0551   -1.7465    2.7500 H   0  0  0  0  0  0  0  0  0  0  0  0
  1  2  1  0  0  0  0
  1 35  1  0  0  0  0
  1 36  1  0  0  0  0
  1 37  1  0  0  0  0
  2  3  1  0  0  0  0
  3  4  2  0  0  0  0
  3 34  1  0  0  0  0
  4  5  1  0  0  0  0
  4 38  1  0  0  0  0
  5  6  1  0  0  0  0
  5 30  2  0  0  0  0
  6  7  1  0  0  0  0
  6 39  1  0  0  0  0
  6 40  1  0  0  0  0
  7  8  1  0  0  0  0
  7 41  1  0  0  0  0
  7 42  1  0  0  0  0
  8  9  2  0  0  0  0
  8 29  1  0  0  0  0
  9 10  1  0  0  0  0
  9 43  1  0  0  0  0
 10 11  1  0  0  0  0
 10 28  2  0  0  0  0
 11 12  1  0  0  0  0
 11 44  1  0  0  0  0
 12 13  2  0  0  0  0
 12 14  1  0  0  0  0
 14 15  2  0  0  0  0
 14 19  1  0  0  0  0
 15 16  1  0  0  0  0
 15 45  1  0  0  0  0
 16 17  2  0  0  0  0
 16 46  1  0  0  0  0
 17 18  1  0  0  0  0
 17 20  1  0  0  0  0
 18 19  2  0  0  0  0
 18 47  1  0  0  0  0
 19 48  1  0  0  0  0
 20 21  1  0  0  0  0
 20 27  1  0  0  0  0
 21 49  1  0  0  0  0
 21 50  1  0  0  0  0
 22 21  1  0  0  0  0
 22 23  1  0  0  0  0
 22 24  1  0  0  0  0
 22 51  1  1  0  0  0
 23 52  1  0  0  0  0
 23 53  1  0  0  0  0
 23 54  1  0  0  0  0
 24 55  1  0  0  0  0
 25 24  1  0  0  0  0
 25 26  1  0  0  0  0
 25 27  1  0  0  0  0
 25 56  1  6  0  0  0
 26 57  1  0  0  0  0
 26 58  1  0  0  0  0
 26 59  1  0  0  0  0
 27 60  1  0  0  0  0
 27 61  1  0  0  0  0
 28 29  1  0  0  0  0
 29 62  1  0  0  0  0
 30 31  1  0  0  0  0
 30 63  1  0  0  0  0
 31 32  1  0  0  0  0
 31 34  2  0  0  0  0
 32 33  1  0  0  0  0
 33 64  1  0  0  0  0
 33 65  1  0  0  0  0
 33 66  1  0  0  0  0
 34 67  1  0  0  0  0
M  END
>  <DRUGBANK_ID>
DB12247

>  <COMMON_NAME>
AZD-4547

>  <CAS_NUMBER>
1035270-39-3

>  <UNII>
2167OG1EKJ

$$$$
