
 OpenBabel10282417203D

 32 33  0  0  0  0  0  0  0  0999 V2000
    0.9139   -0.1354    0.2914 C   0  0  0  0  0  0  0  0  0  0  0  0
    0.5450    1.2421    0.5524 N   0  0  0  0  0  0  0  0  0  0  0  0
   -0.4965    1.3309    1.5418 C   0  0  0  0  0  0  0  0  0  0  0  0
   -0.9141    2.7151    1.9311 C   0  0  0  0  0  0  0  0  0  0  0  0
   -0.1361    3.8696    1.3483 C   0  0  0  0  0  0  0  0  0  0  0  0
    0.9119    3.5631    0.3891 N   0  0  0  0  0  0  0  0  0  0  0  0
    1.1949    2.3469    0.0368 C   0  0  0  0  0  0  0  0  0  0  0  0
    2.3210    2.2802   -0.9764 C   0  0  0  0  0  0  0  0  0  0  0  0
    2.7318    1.1558   -1.5865 C   0  0  0  0  0  0  0  0  0  0  0  0
    3.8361    0.9685   -2.5043 C   0  0  0  0  0  0  0  0  0  0  0  0
    5.0573    1.6067   -2.3215 C   0  0  0  0  0  0  0  0  0  0  0  0
    6.0877    1.3698   -3.2237 C   0  0  0  0  0  0  0  0  0  0  0  0
    5.9088    0.4674   -4.2788 C   0  0  0  0  0  0  0  0  0  0  0  0
    4.7108   -0.2275   -4.4002 C   0  0  0  0  0  0  0  0  0  0  0  0
    3.6788    0.0075   -3.5129 C   0  0  0  0  0  0  0  0  0  0  0  0
    4.4918   -1.1479   -5.3800 O   0  0  0  0  0  0  0  0  0  0  0  0
    0.6026   -0.4074   -0.7230 H   0  0  0  0  0  0  0  0  0  0  0  0
    0.4127   -0.8457    0.9521 H   0  0  0  0  0  0  0  0  0  0  0  0
    1.9850   -0.2801    0.4681 H   0  0  0  0  0  0  0  0  0  0  0  0
   -0.1598    0.7979    2.4392 H   0  0  0  0  0  0  0  0  0  0  0  0
   -1.3722    0.7874    1.1650 H   0  0  0  0  0  0  0  0  0  0  0  0
   -1.9766    2.8361    1.6837 H   0  0  0  0  0  0  0  0  0  0  0  0
   -0.8894    2.7785    3.0275 H   0  0  0  0  0  0  0  0  0  0  0  0
   -0.8511    4.5476    0.8661 H   0  0  0  0  0  0  0  0  0  0  0  0
    0.2985    4.4474    2.1738 H   0  0  0  0  0  0  0  0  0  0  0  0
    2.7964    3.2308   -1.1994 H   0  0  0  0  0  0  0  0  0  0  0  0
    2.2574    0.2082   -1.4535 H   0  0  0  0  0  0  0  0  0  0  0  0
    5.2075    2.2726   -1.4750 H   0  0  0  0  0  0  0  0  0  0  0  0
    7.0284    1.8973   -3.1000 H   0  0  0  0  0  0  0  0  0  0  0  0
    6.7151    0.3188   -4.9868 H   0  0  0  0  0  0  0  0  0  0  0  0
    2.7523   -0.5551   -3.6136 H   0  0  0  0  0  0  0  0  0  0  0  0
    5.2741   -1.1877   -5.9519 H   0  0  0  0  0  0  0  0  0  0  0  0
  1  2  1  0  0  0  0
  1 17  1  0  0  0  0
  1 18  1  0  0  0  0
  1 19  1  0  0  0  0
  2  3  1  0  0  0  0
  2  7  1  0  0  0  0
  3  4  1  0  0  0  0
  3 20  1  0  0  0  0
  3 21  1  0  0  0  0
  4  5  1  0  0  0  0
  4 22  1  0  0  0  0
  4 23  1  0  0  0  0
  5  6  1  0  0  0  0
  5 24  1  0  0  0  0
  5 25  1  0  0  0  0
  6  7  2  0  0  0  0
  7  8  1  0  0  0  0
  8  9  2  0  0  0  0
  8 26  1  0  0  0  0
  9 10  1  0  0  0  0
  9 27  1  0  0  0  0
 10 11  2  0  0  0  0
 10 15  1  0  0  0  0
 11 12  1  0  0  0  0
 11 28  1  0  0  0  0
 12 13  2  0  0  0  0
 12 29  1  0  0  0  0
 13 14  1  0  0  0  0
 13 30  1  0  0  0  0
 14 15  2  0  0  0  0
 14 16  1  0  0  0  0
 15 31  1  0  0  0  0
 16 32  1  0  0  0  0
M  END
>  <DRUGBANK_ID>
DB13670

>  <COMMON_NAME>
Oxantel

>  <CAS_NUMBER>
36531-26-7

>  <UNII>
94AJJ30D9E

>  <SYNONYMS>
Oxantel

$$$$
