
 OpenBabel10282417233D

 45 46  0  0  0  0  0  0  0  0999 V2000
    1.4063   -0.2642   -0.0075 C   0  0  0  0  0  0  0  0  0  0  0  0
    0.5026   -1.3351    0.0041 C   0  0  0  0  0  0  0  0  0  0  0  0
   -0.8736   -1.0993   -0.0330 C   0  0  0  0  0  0  0  0  0  0  0  0
   -1.3590    0.2098   -0.1106 C   0  0  0  0  0  0  0  0  0  0  0  0
   -0.4406    1.2644   -0.1755 C   0  0  0  0  0  0  0  0  0  0  0  0
    0.9211    1.0389   -0.1128 C   0  0  0  0  0  0  0  0  0  0  0  0
    3.6999    0.0871   -1.0003 C   0  0  0  0  0  0  0  0  0  0  0  0
    2.8912   -0.4904    0.1489 C   0  0  3  0  0  0  0  0  0  0  0  0
    4.6432    0.8545   -0.8275 O   0  0  0  0  0  0  0  0  0  0  0  0
    3.2804   -0.3795   -2.2112 O   0  0  0  0  0  0  0  0  0  0  0  0
   -2.8383    0.4933   -0.1861 C   0  0  0  0  0  0  0  0  0  0  0  0
   -3.4137    1.2716    1.0177 C   0  0  0  0  0  0  0  0  0  0  0  0
   -2.7772    2.6481    1.2241 C   0  0  0  0  0  0  0  0  0  0  0  0
   -4.9150    1.4790    0.8205 C   0  0  0  0  0  0  0  0  0  0  0  0
    3.3517    0.1468    1.4701 C   0  0  0  0  0  0  0  0  0  0  0  0
    3.9915    0.1459   -3.3489 C   0  0  0  0  0  0  0  0  0  0  0  0
    3.7515    1.6249   -3.5538 C   0  0  0  0  0  0  0  0  0  0  0  0
    2.5394    2.0837   -4.0588 C   0  0  0  0  0  0  0  0  0  0  0  0
    2.3365    3.4577   -4.1601 C   0  0  0  0  0  0  0  0  0  0  0  0
    3.3261    4.3311   -3.7226 C   0  0  0  0  0  0  0  0  0  0  0  0
    4.4960    3.7935   -3.2216 C   0  0  0  0  0  0  0  0  0  0  0  0
    4.7381    2.4701   -3.1639 N   0  0  0  0  0  0  0  0  0  0  0  0
    0.8638   -2.3596    0.0486 H   0  0  0  0  0  0  0  0  0  0  0  0
   -1.5577   -1.9448   -0.0060 H   0  0  0  0  0  0  0  0  0  0  0  0
   -0.7620    2.2966   -0.2567 H   0  0  0  0  0  0  0  0  0  0  0  0
    1.5918    1.8959   -0.1383 H   0  0  0  0  0  0  0  0  0  0  0  0
    3.1085   -1.5641    0.1927 H   0  0  0  0  0  0  0  0  0  0  0  0
   -3.0257    1.0365   -1.1214 H   0  0  0  0  0  0  0  0  0  0  0  0
   -3.3816   -0.4573   -0.2845 H   0  0  0  0  0  0  0  0  0  0  0  0
   -3.2556    0.6810    1.9292 H   0  0  0  0  0  0  0  0  0  0  0  0
   -2.8003    3.2274    0.2931 H   0  0  0  0  0  0  0  0  0  0  0  0
   -3.2911    3.2235    1.9975 H   0  0  0  0  0  0  0  0  0  0  0  0
   -1.7451    2.5598    1.5717 H   0  0  0  0  0  0  0  0  0  0  0  0
   -5.4405    0.5236    0.7381 H   0  0  0  0  0  0  0  0  0  0  0  0
   -5.3380    2.0286    1.6678 H   0  0  0  0  0  0  0  0  0  0  0  0
   -5.1110    2.0597   -0.0882 H   0  0  0  0  0  0  0  0  0  0  0  0
    2.7956   -0.2528    2.3243 H   0  0  0  0  0  0  0  0  0  0  0  0
    4.4183   -0.0325    1.6358 H   0  0  0  0  0  0  0  0  0  0  0  0
    3.2100    1.2359    1.4668 H   0  0  0  0  0  0  0  0  0  0  0  0
    5.0615   -0.0766   -3.2556 H   0  0  0  0  0  0  0  0  0  0  0  0
    3.6395   -0.3942   -4.2365 H   0  0  0  0  0  0  0  0  0  0  0  0
    1.7643    1.3875   -4.3618 H   0  0  0  0  0  0  0  0  0  0  0  0
    1.4060    3.8444   -4.5643 H   0  0  0  0  0  0  0  0  0  0  0  0
    3.1908    5.4050   -3.7677 H   0  0  0  0  0  0  0  0  0  0  0  0
    5.2911    4.4239   -2.8346 H   0  0  0  0  0  0  0  0  0  0  0  0
  1  2  1  0  0  0  0
  1  6  2  0  0  0  0
  1  8  1  0  0  0  0
  2  3  2  0  0  0  0
  2 23  1  0  0  0  0
  3  4  1  0  0  0  0
  3 24  1  0  0  0  0
  4  5  2  0  0  0  0
  4 11  1  0  0  0  0
  5  6  1  0  0  0  0
  5 25  1  0  0  0  0
  6 26  1  0  0  0  0
  7  8  1  0  0  0  0
  7  9  2  0  0  0  0
  7 10  1  0  0  0  0
  8 15  1  0  0  0  0
  8 27  1  0  0  0  0
 10 16  1  0  0  0  0
 11 12  1  0  0  0  0
 11 28  1  0  0  0  0
 11 29  1  0  0  0  0
 12 13  1  0  0  0  0
 12 14  1  0  0  0  0
 12 30  1  0  0  0  0
 13 31  1  0  0  0  0
 13 32  1  0  0  0  0
 13 33  1  0  0  0  0
 14 34  1  0  0  0  0
 14 35  1  0  0  0  0
 14 36  1  0  0  0  0
 15 37  1  0  0  0  0
 15 38  1  0  0  0  0
 15 39  1  0  0  0  0
 16 17  1  0  0  0  0
 16 40  1  0  0  0  0
 16 41  1  0  0  0  0
 17 18  1  0  0  0  0
 17 22  2  0  0  0  0
 18 19  2  0  0  0  0
 18 42  1  0  0  0  0
 19 20  1  0  0  0  0
 19 43  1  0  0  0  0
 20 21  2  0  0  0  0
 20 44  1  0  0  0  0
 21 22  1  0  0  0  0
 21 45  1  0  0  0  0
M  END
>  <DRUGBANK_ID>
DB16887

>  <COMMON_NAME>
Ibuprofen piconol

>  <CAS_NUMBER>
64622-45-3

>  <UNII>
B0F91K5U4N

>  <SYNONYMS>
Ibuprofen piconol

$$$$
