
 OpenBabel10282417243D

 55 58  0  0  1  0  0  0  0  0999 V2000
   -1.9805   -5.7854   18.8999 C   0  0  0  0  0  0  0  0  0  0  0  0
   -2.4563   -5.7924   17.4681 C   0  0  0  0  0  0  0  0  0  0  0  0
   -3.5784   -6.2178   17.1895 O   0  0  0  0  0  0  0  0  0  0  0  0
   -1.5480   -5.2741   16.3902 C   0  0  0  0  0  0  0  0  0  0  0  0
   -2.0253   -4.4777   15.4120 C   0  0  0  0  0  0  0  0  0  0  0  0
   -3.4351   -3.9448   15.3697 C   0  0  0  0  0  0  0  0  0  0  0  0
   -1.1403   -4.1534   14.2722 C   0  0  0  0  0  0  0  0  0  0  0  0
   -1.5873   -3.4412   13.1704 C   0  0  0  0  0  0  0  0  0  0  0  0
   -0.8762   -3.2611   12.0413 N   0  0  0  0  0  0  0  0  0  0  0  0
    0.3760   -3.7274   11.9725 C   0  0  0  0  0  0  0  0  0  0  0  0
    1.1417   -3.5206   10.8231 N   0  0  0  0  0  0  0  0  0  0  0  0
    0.4349   -3.1328    9.5872 C   0  0  2  0  0  0  0  0  0  0  0  0
    0.0151   -1.6696    9.7024 C   0  0  0  0  0  0  0  0  0  0  0  0
   -0.7934   -1.2342    8.5034 C   0  0  0  0  0  0  0  0  0  0  0  0
   -1.9026   -2.1011    8.2814 O   0  0  0  0  0  0  0  0  0  0  0  0
   -1.4975   -3.4369    7.9894 C   0  0  0  0  0  0  0  0  0  0  0  0
   -0.7274   -4.0692    9.1552 C   0  0  1  0  0  0  0  0  0  0  0  0
   -0.2487   -5.3728    8.7871 O   0  0  0  0  0  0  0  0  0  0  0  0
    0.9590   -4.3082   13.0832 C   0  0  0  0  0  0  0  0  0  0  0  0
    0.1862   -4.5958   14.2231 C   0  0  0  0  0  0  0  0  0  0  0  0
    0.6949   -5.3473   15.3271 N   0  0  0  0  0  0  0  0  0  0  0  0
    2.0614   -5.8730   15.3208 C   0  0  0  0  0  0  0  0  0  0  0  0
    2.1366   -7.4007   15.2733 C   0  0  0  0  0  0  0  0  0  0  0  0
    3.5177   -7.7339   15.8238 C   0  0  0  0  0  0  0  0  0  0  0  0
    4.0398   -6.4752   16.5211 C   0  0  0  0  0  0  0  0  0  0  0  0
    2.8844   -5.4894   16.5503 C   0  0  0  0  0  0  0  0  0  0  0  0
   -0.1336   -5.7172   16.3838 C   0  0  0  0  0  0  0  0  0  0  0  0
    0.2543   -6.4274   17.3181 O   0  0  0  0  0  0  0  0  0  0  0  0
   -2.8058   -6.1097   19.5409 H   0  0  0  0  0  0  0  0  0  0  0  0
   -1.6831   -4.7782   19.1997 H   0  0  0  0  0  0  0  0  0  0  0  0
   -1.1683   -6.4946   19.0594 H   0  0  0  0  0  0  0  0  0  0  0  0
   -3.4274   -2.8522   15.2963 H   0  0  0  0  0  0  0  0  0  0  0  0
   -3.9770   -4.3637   14.5149 H   0  0  0  0  0  0  0  0  0  0  0  0
   -4.0199   -4.1642   16.2637 H   0  0  0  0  0  0  0  0  0  0  0  0
   -2.5677   -2.9769   13.1301 H   0  0  0  0  0  0  0  0  0  0  0  0
    1.8737   -4.2069   10.6822 H   0  0  0  0  0  0  0  0  0  0  0  0
    1.1895   -3.1943    8.7883 H   0  0  0  0  0  0  0  0  0  0  0  0
   -0.5991   -1.5056   10.5910 H   0  0  0  0  0  0  0  0  0  0  0  0
    0.9026   -1.0393    9.8299 H   0  0  0  0  0  0  0  0  0  0  0  0
   -1.1844   -0.2290    8.6871 H   0  0  0  0  0  0  0  0  0  0  0  0
   -0.1707   -1.1984    7.6046 H   0  0  0  0  0  0  0  0  0  0  0  0
   -0.9064   -3.4465    7.0655 H   0  0  0  0  0  0  0  0  0  0  0  0
   -2.3976   -4.0266    7.7791 H   0  0  0  0  0  0  0  0  0  0  0  0
   -1.4445   -4.2205    9.9641 H   0  0  0  0  0  0  0  0  0  0  0  0
    0.3913   -5.2752    8.0639 H   0  0  0  0  0  0  0  0  0  0  0  0
    2.0101   -4.5385   13.0003 H   0  0  0  0  0  0  0  0  0  0  0  0
    2.6325   -5.5095   14.4664 H   0  0  0  0  0  0  0  0  0  0  0  0
    1.3765   -7.8843   15.8935 H   0  0  0  0  0  0  0  0  0  0  0  0
    1.9858   -7.7843   14.2583 H   0  0  0  0  0  0  0  0  0  0  0  0
    3.4555   -8.5774   16.5193 H   0  0  0  0  0  0  0  0  0  0  0  0
    4.1933   -8.0249   15.0130 H   0  0  0  0  0  0  0  0  0  0  0  0
    4.3995   -6.6887   17.5320 H   0  0  0  0  0  0  0  0  0  0  0  0
    4.8748   -6.0539   15.9511 H   0  0  0  0  0  0  0  0  0  0  0  0
    3.2138   -4.4458   16.5099 H   0  0  0  0  0  0  0  0  0  0  0  0
    2.3417   -5.6055   17.4904 H   0  0  0  0  0  0  0  0  0  0  0  0
  1  2  1  0  0  0  0
  1 29  1  0  0  0  0
  1 30  1  0  0  0  0
  1 31  1  0  0  0  0
  2  3  2  0  0  0  0
  2  4  1  0  0  0  0
  4  5  2  0  0  0  0
  4 27  1  0  0  0  0
  5  6  1  0  0  0  0
  5  7  1  0  0  0  0
  6 32  1  0  0  0  0
  6 33  1  0  0  0  0
  6 34  1  0  0  0  0
  7  8  2  0  0  0  0
  7 20  1  0  0  0  0
  8  9  1  0  0  0  0
  8 35  1  0  0  0  0
  9 10  2  0  0  0  0
 10 11  1  0  0  0  0
 10 19  1  0  0  0  0
 11 36  1  0  0  0  0
 12 13  1  0  0  0  0
 12 17  1  0  0  0  0
 12 37  1  6  0  0  0
 12 11  1  0  0  0  0
 13 14  1  0  0  0  0
 13 38  1  0  0  0  0
 13 39  1  0  0  0  0
 14 15  1  0  0  0  0
 14 40  1  0  0  0  0
 14 41  1  0  0  0  0
 15 16  1  0  0  0  0
 16 42  1  0  0  0  0
 16 43  1  0  0  0  0
 17 16  1  0  0  0  0
 17 18  1  0  0  0  0
 17 44  1  1  0  0  0
 18 45  1  0  0  0  0
 19 20  2  0  0  0  0
 19 46  1  0  0  0  0
 20 21  1  0  0  0  0
 21 22  1  0  0  0  0
 21 27  1  0  0  0  0
 22 23  1  0  0  0  0
 22 26  1  0  0  0  0
 22 47  1  0  0  0  0
 23 24  1  0  0  0  0
 23 48  1  0  0  0  0
 23 49  1  0  0  0  0
 24 25  1  0  0  0  0
 24 50  1  0  0  0  0
 24 51  1  0  0  0  0
 25 26  1  0  0  0  0
 25 52  1  0  0  0  0
 25 53  1  0  0  0  0
 26 54  1  0  0  0  0
 26 55  1  0  0  0  0
 27 28  2  0  0  0  0
M  END
>  <DRUGBANK_ID>
DB18039

>  <COMMON_NAME>
PF-06842874

>  <CAS_NUMBER>
2516247-98-4

>  <UNII>
AX8OYB2MWW

>  <SYNONYMS>
3-acetyl-1-cyclopentyl-7-(((3s,4r)-3-hydroxyoxan-4-yl)amino)-4-methyl-1,6-naphthyridin-2(1h)-one; 3-Acetyl-1-cyclopentyl-7-{[(3S,4R)-3-hydroxyoxan-4-yl]amino }-4-methyl-1,6-naphthyridin-2(1H)-one

$$$$
