
 OpenBabel10282417203D

 57 60  0  0  0  0  0  0  0  0999 V2000
    1.1498    0.0327    0.2685 C   0  0  0  0  0  0  0  0  0  0  0  0
   -0.1214   -2.7851   -7.1691 C   0  0  0  0  0  0  0  0  0  0  0  0
   -5.1492   -2.6229   -1.7026 C   0  0  0  0  0  0  0  0  0  0  0  0
   -0.2178   -1.4126   -6.9831 C   0  0  0  0  0  0  0  0  0  0  0  0
   -5.2223   -1.3981   -2.3628 C   0  0  0  0  0  0  0  0  0  0  0  0
   -1.7024   -0.0542   -1.3409 C   0  0  0  0  0  0  0  0  0  0  0  0
   -0.4169   -3.6495   -6.1190 C   0  0  0  0  0  0  0  0  0  0  0  0
   -3.9823   -3.4212   -1.7021 C   0  0  0  0  0  0  0  0  0  0  0  0
   -0.6835   -0.9139   -5.7669 C   0  0  0  0  0  0  0  0  0  0  0  0
   -4.1366   -1.0028   -3.0781 C   0  0  0  0  0  0  0  0  0  0  0  0
   -1.1734   -4.2237   -3.8329 C   0  0  0  0  0  0  0  0  0  0  0  0
   -1.5424   -3.7633   -2.4348 C   0  0  0  0  0  0  0  0  0  0  0  0
    2.9507    0.8186   -4.0845 C   0  0  0  0  0  0  0  0  0  0  0  0
    1.6644    2.6883   -3.1421 C   0  0  0  0  0  0  0  0  0  0  0  0
    3.7373    1.7931   -4.6832 C   0  0  0  0  0  0  0  0  0  0  0  0
    2.4132    3.6372   -3.7575 C   0  0  0  0  0  0  0  0  0  0  0  0
   -0.8452   -1.0640   -0.5404 C   0  0  0  0  0  0  0  0  0  0  0  0
   -1.5121   -0.1231   -2.9183 C   0  0  0  0  0  0  0  0  0  0  0  0
    1.3205   -0.9532   -1.9165 C   0  0  0  0  0  0  0  0  0  0  0  0
   -0.8990   -3.1682   -4.8912 C   0  0  0  0  0  0  0  0  0  0  0  0
   -2.8723   -3.0294   -2.4241 C   0  0  0  0  0  0  0  0  0  0  0  0
    1.9803    1.3007   -3.2569 C   0  0  0  0  0  0  0  0  0  0  0  0
    3.4866    3.1759   -4.4871 C   0  0  0  0  0  0  0  0  0  0  0  0
   -1.1245   -1.7846   -4.7458 C   0  0  0  0  0  0  0  0  0  0  0  0
   -3.0071   -1.8316   -3.1173 C   0  0  0  0  0  0  0  0  0  0  0  0
    1.1523    0.5102   -2.3986 C   0  0  0  0  0  0  0  0  0  0  0  0
    4.5542    4.3478   -5.1285 Cl  0  0  0  0  0  0  0  0  0  0  0  0
    0.6506   -1.0598   -0.5760 N   0  0  0  0  0  0  0  0  0  0  0  0
   -1.9135   -1.2609   -3.7146 N   0  0  0  0  0  0  0  0  0  0  0  0
    0.2300    1.2254   -2.0510 O   0  0  0  0  0  0  0  0  0  0  0  0
    0.7873   -0.0557    1.2896 H   0  0  0  0  0  0  0  0  0  0  0  0
    0.8348    1.0240   -0.0640 H   0  0  0  0  0  0  0  0  0  0  0  0
    2.2432    0.0265    0.2688 H   0  0  0  0  0  0  0  0  0  0  0  0
    0.1662   -3.1913   -8.1338 H   0  0  0  0  0  0  0  0  0  0  0  0
   -6.0278   -2.9628   -1.1730 H   0  0  0  0  0  0  0  0  0  0  0  0
    0.0007   -0.7344   -7.8037 H   0  0  0  0  0  0  0  0  0  0  0  0
   -6.0822   -0.7419   -2.3326 H   0  0  0  0  0  0  0  0  0  0  0  0
   -2.7516   -0.0808   -1.0304 H   0  0  0  0  0  0  0  0  0  0  0  0
   -1.4253    0.9354   -0.9433 H   0  0  0  0  0  0  0  0  0  0  0  0
   -0.3254   -4.7227   -6.2681 H   0  0  0  0  0  0  0  0  0  0  0  0
   -3.9532   -4.3411   -1.1312 H   0  0  0  0  0  0  0  0  0  0  0  0
   -0.8114    0.1623   -5.6634 H   0  0  0  0  0  0  0  0  0  0  0  0
   -4.0856   -0.0197   -3.5502 H   0  0  0  0  0  0  0  0  0  0  0  0
   -1.9744   -4.8704   -4.1933 H   0  0  0  0  0  0  0  0  0  0  0  0
   -0.2572   -4.8257   -3.7309 H   0  0  0  0  0  0  0  0  0  0  0  0
   -0.6862   -3.1719   -2.0949 H   0  0  0  0  0  0  0  0  0  0  0  0
   -1.5686   -4.6034   -1.7298 H   0  0  0  0  0  0  0  0  0  0  0  0
    3.0930   -0.2467   -4.2479 H   0  0  0  0  0  0  0  0  0  0  0  0
    0.8247    3.0540   -2.5414 H   0  0  0  0  0  0  0  0  0  0  0  0
    4.5730    1.4773   -5.2934 H   0  0  0  0  0  0  0  0  0  0  0  0
    2.1427    4.6750   -3.6008 H   0  0  0  0  0  0  0  0  0  0  0  0
   -1.2012   -2.0508   -0.7754 H   0  0  0  0  0  0  0  0  0  0  0  0
   -1.1545   -1.0087    0.5147 H   0  0  0  0  0  0  0  0  0  0  0  0
   -1.7549    0.8279   -3.4035 H   0  0  0  0  0  0  0  0  0  0  0  0
   -0.4987   -0.3456   -3.0707 H   0  0  0  0  0  0  0  0  0  0  0  0
    2.3824   -1.1984   -1.8247 H   0  0  0  0  0  0  0  0  0  0  0  0
    0.9171   -1.7088   -2.6053 H   0  0  0  0  0  0  0  0  0  0  0  0
  1 31  1  0  0  0  0
  1 32  1  0  0  0  0
  1 33  1  0  0  0  0
  2 34  1  0  0  0  0
  3 35  1  0  0  0  0
  4  2  2  0  0  0  0
  4 36  1  0  0  0  0
  5  3  2  0  0  0  0
  5 37  1  0  0  0  0
  6 38  1  0  0  0  0
  6 39  1  0  0  0  0
  7  2  1  0  0  0  0
  7 40  1  0  0  0  0
  8  3  1  0  0  0  0
  8 41  1  0  0  0  0
  9  4  1  0  0  0  0
  9 42  1  0  0  0  0
 10  5  1  0  0  0  0
 10 43  1  0  0  0  0
 11 44  1  0  0  0  0
 11 45  1  0  0  0  0
 12 11  1  0  0  0  0
 12 46  1  0  0  0  0
 12 47  1  0  0  0  0
 13 48  1  0  0  0  0
 14 49  1  0  0  0  0
 15 13  1  0  0  0  0
 15 50  1  0  0  0  0
 16 14  2  0  0  0  0
 16 51  1  0  0  0  0
 17  6  1  0  0  0  0
 17 52  1  0  0  0  0
 17 53  1  0  0  0  0
 18  6  1  0  0  0  0
 18 54  1  0  0  0  0
 18 55  1  0  0  0  0
 19 56  1  0  0  0  0
 19 57  1  0  0  0  0
 20  7  2  0  0  0  0
 20 11  1  0  0  0  0
 21  8  2  0  0  0  0
 21 12  1  0  0  0  0
 22 13  2  0  0  0  0
 22 14  1  0  0  0  0
 23 15  2  0  0  0  0
 23 16  1  0  0  0  0
 24  9  2  0  0  0  0
 24 20  1  0  0  0  0
 25 10  2  0  0  0  0
 25 21  1  0  0  0  0
 26 19  1  0  0  0  0
 26 22  1  0  0  0  0
 27 23  1  0  0  0  0
 28  1  1  0  0  0  0
 28 17  1  0  0  0  0
 28 19  1  0  0  0  0
 29 18  1  0  0  0  0
 29 24  1  0  0  0  0
 29 25  1  0  0  0  0
 30 26  2  0  0  0  0
M  END
>  <DRUGBANK_ID>
DB13411

>  <COMMON_NAME>
Lofepramine

>  <CAS_NUMBER>
23047-25-8

>  <UNII>
OCA4JT7PAW

>  <SYNONYMS>
Lofepramine

$$$$
