
 OpenBabel10282417243D

 58 57  0  0  1  0  0  0  0  0999 V2000
   -0.5417   -1.4607   17.0672 C   0  0  0  0  0  0  0  0  0  0  0  0
   -1.6588   -2.2634   16.4337 C   0  0  0  0  0  0  0  0  0  0  0  0
   -2.9845   -1.6240   16.7206 C   0  0  0  0  0  0  0  0  0  0  0  0
   -3.7953   -1.0873   15.7986 C   0  0  0  0  0  0  0  0  0  0  0  0
   -3.5277   -1.0673   14.3161 C   0  0  0  0  0  0  0  0  0  0  0  0
   -4.5779   -1.8201   13.4942 C   0  0  2  0  0  0  0  0  0  0  0  0
   -5.8679   -1.2317   13.5849 O   0  0  0  0  0  0  0  0  0  0  0  0
   -4.6793   -3.2826   13.8445 C   0  0  0  0  0  0  0  0  0  0  0  0
   -4.3958   -4.3090   13.0258 C   0  0  0  0  0  0  0  0  0  0  0  0
   -3.9629   -4.1406   11.6609 C   0  0  0  0  0  0  0  0  0  0  0  0
   -3.7052   -5.1387   10.8115 C   0  0  0  0  0  0  0  0  0  0  0  0
   -3.2924   -4.8563    9.4590 C   0  0  0  0  0  0  0  0  0  0  0  0
   -3.0133   -5.8200    8.5746 C   0  0  0  0  0  0  0  0  0  0  0  0
   -2.5720   -5.5489    7.1659 C   0  0  2  0  0  0  0  0  0  0  0  0
   -3.3541   -4.4893    6.6271 O   0  0  0  0  0  0  0  0  0  0  0  0
   -2.7369   -6.8058    6.3114 C   0  0  0  0  0  0  0  0  0  0  0  0
   -2.1833   -6.6213    4.9212 C   0  0  0  0  0  0  0  0  0  0  0  0
   -1.1264   -7.2851    4.4449 C   0  0  0  0  0  0  0  0  0  0  0  0
   -0.3734   -8.2963    5.2332 C   0  0  0  0  0  0  0  0  0  0  0  0
   -0.3834   -9.6055    4.5356 C   0  0  0  0  0  0  0  0  0  0  0  0
    0.7270  -10.2554    4.1790 C   0  0  0  0  0  0  0  0  0  0  0  0
    2.1285   -9.7824    4.4488 C   0  0  0  0  0  0  0  0  0  0  0  0
    2.8876  -10.7079    5.3865 C   0  0  0  0  0  0  0  0  0  0  0  0
    3.0843  -12.0654    4.7652 C   0  0  0  0  0  0  0  0  0  0  0  0
    4.3676  -12.3971    4.5324 O   0  0  0  0  0  0  0  0  0  0  0  0
    2.1662  -12.8279    4.4731 O   0  0  0  0  0  0  0  0  0  0  0  0
   -0.5658   -0.4180   16.7289 H   0  0  0  0  0  0  0  0  0  0  0  0
    0.4244   -1.8852   16.7810 H   0  0  0  0  0  0  0  0  0  0  0  0
   -0.6226   -1.4732   18.1575 H   0  0  0  0  0  0  0  0  0  0  0  0
   -1.4415   -2.3326   15.3669 H   0  0  0  0  0  0  0  0  0  0  0  0
   -1.6664   -3.2944   16.7987 H   0  0  0  0  0  0  0  0  0  0  0  0
   -3.2966   -1.5919   17.7643 H   0  0  0  0  0  0  0  0  0  0  0  0
   -4.7259   -0.6374   16.1390 H   0  0  0  0  0  0  0  0  0  0  0  0
   -3.4821   -0.0230   13.9911 H   0  0  0  0  0  0  0  0  0  0  0  0
   -2.5560   -1.4976   14.0599 H   0  0  0  0  0  0  0  0  0  0  0  0
   -4.2778   -1.6773   12.4573 H   0  0  0  0  0  0  0  0  0  0  0  0
   -5.9682   -0.8653   14.4748 H   0  0  0  0  0  0  0  0  0  0  0  0
   -4.9960   -3.5176   14.8602 H   0  0  0  0  0  0  0  0  0  0  0  0
   -4.5036   -5.3263   13.3995 H   0  0  0  0  0  0  0  0  0  0  0  0
   -3.8457   -3.1328   11.2788 H   0  0  0  0  0  0  0  0  0  0  0  0
   -3.8114   -6.1729   11.1216 H   0  0  0  0  0  0  0  0  0  0  0  0
   -3.2018   -3.8158    9.1466 H   0  0  0  0  0  0  0  0  0  0  0  0
   -3.0914   -6.8584    8.8871 H   0  0  0  0  0  0  0  0  0  0  0  0
   -1.5189   -5.2369    7.1824 H   0  0  0  0  0  0  0  0  0  0  0  0
   -3.2283   -4.5048    5.6651 H   0  0  0  0  0  0  0  0  0  0  0  0
   -2.2491   -7.6199    6.8510 H   0  0  0  0  0  0  0  0  0  0  0  0
   -3.7844   -7.1059    6.2229 H   0  0  0  0  0  0  0  0  0  0  0  0
   -2.6678   -5.9093    4.2583 H   0  0  0  0  0  0  0  0  0  0  0  0
   -0.7717   -7.0813    3.4337 H   0  0  0  0  0  0  0  0  0  0  0  0
    0.6101   -7.8653    5.4065 H   0  0  0  0  0  0  0  0  0  0  0  0
   -0.7520   -8.4945    6.2335 H   0  0  0  0  0  0  0  0  0  0  0  0
   -1.3556  -10.0593    4.3353 H   0  0  0  0  0  0  0  0  0  0  0  0
    0.5984  -11.2117    3.6736 H   0  0  0  0  0  0  0  0  0  0  0  0
    2.6440   -9.6573    3.4929 H   0  0  0  0  0  0  0  0  0  0  0  0
    2.1535   -8.7953    4.9155 H   0  0  0  0  0  0  0  0  0  0  0  0
    3.8528  -10.2468    5.6267 H   0  0  0  0  0  0  0  0  0  0  0  0
    2.3608  -10.8287    6.3418 H   0  0  0  0  0  0  0  0  0  0  0  0
    5.0285  -11.7416    4.8197 H   0  0  0  0  0  0  0  0  0  0  0  0
  1  2  1  0  0  0  0
  1 27  1  0  0  0  0
  1 28  1  0  0  0  0
  1 29  1  0  0  0  0
  2  3  1  0  0  0  0
  2 30  1  0  0  0  0
  2 31  1  0  0  0  0
  3  4  2  0  0  0  0
  3 32  1  0  0  0  0
  4  5  1  0  0  0  0
  4 33  1  0  0  0  0
  5 34  1  0  0  0  0
  5 35  1  0  0  0  0
  6  8  1  0  0  0  0
  6 36  1  6  0  0  0
  6  7  1  0  0  0  0
  6  5  1  0  0  0  0
  7 37  1  0  0  0  0
  8  9  2  0  0  0  0
  8 38  1  0  0  0  0
  9 10  1  0  0  0  0
  9 39  1  0  0  0  0
 10 11  2  0  0  0  0
 10 40  1  0  0  0  0
 11 12  1  0  0  0  0
 11 41  1  0  0  0  0
 12 13  2  0  0  0  0
 12 42  1  0  0  0  0
 13 43  1  0  0  0  0
 14 16  1  0  0  0  0
 14 44  1  1  0  0  0
 14 15  1  0  0  0  0
 14 13  1  0  0  0  0
 15 45  1  0  0  0  0
 16 17  1  0  0  0  0
 16 46  1  0  0  0  0
 16 47  1  0  0  0  0
 17 18  2  0  0  0  0
 17 48  1  0  0  0  0
 18 19  1  0  0  0  0
 18 49  1  0  0  0  0
 19 20  1  0  0  0  0
 19 50  1  0  0  0  0
 19 51  1  0  0  0  0
 20 21  2  0  0  0  0
 20 52  1  0  0  0  0
 21 22  1  0  0  0  0
 21 53  1  0  0  0  0
 22 23  1  0  0  0  0
 22 54  1  0  0  0  0
 22 55  1  0  0  0  0
 23 24  1  0  0  0  0
 23 56  1  0  0  0  0
 23 57  1  0  0  0  0
 24 25  1  0  0  0  0
 24 26  2  0  0  0  0
 25 58  1  0  0  0  0
M  END
>  <DRUGBANK_ID>
DB18511

>  <COMMON_NAME>
AP-001

>  <CAS_NUMBER>
660430-03-5

>  <UNII>
P3FX063KLI

>  <SYNONYMS>
(4Z,7Z,10R,11E,13E,15Z,17S,19Z) 10,17-DIHYDROXY-DOCOSA-4,7,11,13,15,19-HEXAENOIC ACID; 4,7,11,13,15,19-DOCOSAHEXAENOIC ACID, 10,17-DIHYDROXY-, (4Z,7Z,10R,11E,13E,15Z,17S,19Z)-; NEUROPROTECTIN D1; NPD-1; PROTECTIN D1

$$$$
