
 OpenBabel10282417203D

 41 43  0  0  0  0  0  0  0  0999 V2000
    1.4234   -0.2848   -0.0076 C   0  0  0  0  0  0  0  0  0  0  0  0
    0.5228   -1.3513    0.0193 C   0  0  0  0  0  0  0  0  0  0  0  0
   -0.8560   -1.1228   -0.0587 C   0  0  0  0  0  0  0  0  0  0  0  0
   -1.3381    0.1755   -0.2473 C   0  0  0  0  0  0  0  0  0  0  0  0
   -0.4074    1.2166   -0.3770 C   0  0  0  0  0  0  0  0  0  0  0  0
    0.9546    1.0064   -0.1938 C   0  0  0  0  0  0  0  0  0  0  0  0
   -2.8202    0.4877   -0.2931 C   0  0  0  0  0  0  0  0  0  0  0  0
   -3.3534    1.2362    0.9534 C   0  0  3  0  0  0  0  0  0  0  0  0
   -2.7448    2.6091    1.2320 C   0  0  0  0  0  0  0  0  0  0  0  0
   -3.3628    3.8008    0.8280 C   0  0  0  0  0  0  0  0  0  0  0  0
   -2.7301    5.0306    1.0134 C   0  0  0  0  0  0  0  0  0  0  0  0
   -1.4473    5.0873    1.5519 C   0  0  0  0  0  0  0  0  0  0  0  0
   -0.8296    3.9231    1.9912 C   0  0  0  0  0  0  0  0  0  0  0  0
   -1.4953    2.7029    1.8771 C   0  0  0  0  0  0  0  0  0  0  0  0
   -4.8149    1.3384    0.9021 N   0  0  0  0  0  0  0  0  0  0  0  0
   -5.7429    0.9435    1.8238 C   0  0  0  0  0  0  0  0  0  0  0  0
   -6.9411    1.1379    1.6050 O   0  0  0  0  0  0  0  0  0  0  0  0
   -5.3349    0.2444    3.0537 C   0  0  0  0  0  0  0  0  0  0  0  0
   -4.2643    0.6472    3.8549 C   0  0  0  0  0  0  0  0  0  0  0  0
   -3.9387   -0.0830    4.9903 C   0  0  0  0  0  0  0  0  0  0  0  0
   -4.7440   -1.1571    5.3240 C   0  0  0  0  0  0  0  0  0  0  0  0
   -5.7994   -1.5667    4.5843 N   0  0  0  0  0  0  0  0  0  0  0  0
   -6.0726   -0.8555    3.4621 C   0  0  0  0  0  0  0  0  0  0  0  0
    2.4900   -0.4594    0.0984 H   0  0  0  0  0  0  0  0  0  0  0  0
    0.9006   -2.3669    0.0994 H   0  0  0  0  0  0  0  0  0  0  0  0
   -1.5379   -1.9675    0.0145 H   0  0  0  0  0  0  0  0  0  0  0  0
   -0.7483    2.2365   -0.5419 H   0  0  0  0  0  0  0  0  0  0  0  0
    1.6319    1.8560   -0.2022 H   0  0  0  0  0  0  0  0  0  0  0  0
   -3.0394    1.0466   -1.2088 H   0  0  0  0  0  0  0  0  0  0  0  0
   -3.3763   -0.4585   -0.3750 H   0  0  0  0  0  0  0  0  0  0  0  0
   -3.0876    0.5868    1.7858 H   0  0  0  0  0  0  0  0  0  0  0  0
   -4.3437    3.7983    0.3611 H   0  0  0  0  0  0  0  0  0  0  0  0
   -3.2399    5.9442    0.7204 H   0  0  0  0  0  0  0  0  0  0  0  0
   -0.9301    6.0392    1.6270 H   0  0  0  0  0  0  0  0  0  0  0  0
    0.1794    3.9532    2.3947 H   0  0  0  0  0  0  0  0  0  0  0  0
   -0.9690    1.8003    2.1897 H   0  0  0  0  0  0  0  0  0  0  0  0
   -5.2241    1.8407    0.1223 H   0  0  0  0  0  0  0  0  0  0  0  0
   -3.6721    1.5227    3.6126 H   0  0  0  0  0  0  0  0  0  0  0  0
   -3.0897    0.1962    5.6040 H   0  0  0  0  0  0  0  0  0  0  0  0
   -4.5642   -1.7229    6.2328 H   0  0  0  0  0  0  0  0  0  0  0  0
   -6.9228   -1.2093    2.8838 H   0  0  0  0  0  0  0  0  0  0  0  0
  1  2  2  0  0  0  0
  1  6  1  0  0  0  0
  1 24  1  0  0  0  0
  2  3  1  0  0  0  0
  2 25  1  0  0  0  0
  3  4  2  0  0  0  0
  3 26  1  0  0  0  0
  4  5  1  0  0  0  0
  4  7  1  0  0  0  0
  5  6  2  0  0  0  0
  5 27  1  0  0  0  0
  6 28  1  0  0  0  0
  7  8  1  0  0  0  0
  7 29  1  0  0  0  0
  7 30  1  0  0  0  0
  8  9  1  0  0  0  0
  8 15  1  0  0  0  0
  8 31  1  0  0  0  0
  9 10  2  0  0  0  0
  9 14  1  0  0  0  0
 10 11  1  0  0  0  0
 10 32  1  0  0  0  0
 11 12  2  0  0  0  0
 11 33  1  0  0  0  0
 12 13  1  0  0  0  0
 12 34  1  0  0  0  0
 13 14  2  0  0  0  0
 13 35  1  0  0  0  0
 14 36  1  0  0  0  0
 15 16  1  0  0  0  0
 15 37  1  0  0  0  0
 16 17  2  0  0  0  0
 16 18  1  0  0  0  0
 18 19  2  0  0  0  0
 18 23  1  0  0  0  0
 19 20  1  0  0  0  0
 19 38  1  0  0  0  0
 20 21  2  0  0  0  0
 20 39  1  0  0  0  0
 21 22  1  0  0  0  0
 21 40  1  0  0  0  0
 22 23  2  0  0  0  0
 23 41  1  0  0  0  0
M  END
>  <DRUGBANK_ID>
DB13531

>  <COMMON_NAME>
Nicofetamide

>  <CAS_NUMBER>
553-06-0

>  <UNII>
9882JU353F

$$$$
