197
 OpenBabel10282417103D

 58 61  0  0  1  0  0  0  0  0999 V2000
   -0.9875    0.9856   -0.2711 S   0  0  0  0  0  0  0  0  0  0  0  0
   -0.9057    6.1344    1.5870 O   0  0  0  0  0  0  0  0  0  0  0  0
   -0.8560    7.2462   -1.1163 O   0  0  0  0  0  0  0  0  0  0  0  0
   -1.2463    3.7604    6.5513 O   0  0  0  0  0  0  0  0  0  0  0  0
    2.5680   -0.4683   -0.0279 O   0  0  0  0  0  0  0  0  0  0  0  0
   -1.8774   -1.4471    0.0263 O   0  0  0  0  0  0  0  0  0  0  0  0
    0.3887   -1.1265   -0.0490 N   0  0  0  0  0  0  0  0  0  0  0  0
   -1.2218    7.5265    1.3701 C   0  0  3  0  0  0  0  0  0  0  0  0
   -0.6042    8.3693    2.4841 C   0  0  0  0  0  0  0  0  0  0  0  0
   -1.1392    7.9113    3.8204 C   0  0  0  0  0  0  0  0  0  0  0  0
   -1.0695    6.4184    3.9757 C   0  0  0  0  0  0  0  0  0  0  0  0
   -0.9422    5.6170    2.8529 C   0  0  0  0  0  0  0  0  0  0  0  0
   -0.6148    8.0662    0.0305 C   0  0  0  0  0  0  0  0  0  0  0  0
   -2.7498    7.6080    1.3057 C   0  0  0  0  0  0  0  0  0  0  0  0
   -1.2105    5.7999    5.2321 C   0  0  0  0  0  0  0  0  0  0  0  0
   -0.8490    4.2182    2.9920 C   0  0  0  0  0  0  0  0  0  0  0  0
   -0.9112    3.5889    4.2435 C   0  0  0  0  0  0  0  0  0  0  0  0
   -1.1191    4.3972    5.3488 C   0  0  0  0  0  0  0  0  0  0  0  0
   -1.5005    6.6340    6.4402 C   0  0  0  0  0  0  0  0  0  0  0  0
   -0.5907    3.3786    1.8046 C   0  0  0  0  0  0  0  0  0  0  0  0
   -0.7782    2.0888    4.3635 C   0  0  0  0  0  0  0  0  0  0  0  0
   -0.1346    6.0835   -1.1917 C   0  0  0  0  0  0  0  0  0  0  0  0
    0.9470    3.4850   -1.2917 C   0  0  0  0  0  0  0  0  0  0  0  0
    0.8655    5.6897   -0.3023 C   0  0  0  0  0  0  0  0  0  0  0  0
   -0.4985    5.2125   -2.2128 C   0  0  0  0  0  0  0  0  0  0  0  0
    1.4016    2.0450   -1.2404 C   0  0  0  0  0  0  0  0  0  0  0  0
    0.8278    1.2192   -0.0873 C   0  0  3  0  0  0  0  0  0  0  0  0
    1.4026    4.4057   -0.3507 C   0  0  0  0  0  0  0  0  0  0  0  0
    0.0347    3.9201   -2.2596 C   0  0  0  0  0  0  0  0  0  0  0  0
    1.3766   -0.1880   -0.0682 C   0  0  0  0  0  0  0  0  0  0  0  0
   -0.9069   -0.7290   -0.0649 C   0  0  0  0  0  0  0  0  0  0  0  0
   -1.4409    4.4071    7.2418 H   0  0  0  0  0  0  0  0  0  0  0  0
    0.6039   -2.1072   -0.0085 H   0  0  0  0  0  0  0  0  0  0  0  0
    0.4896    8.2410    2.4812 H   0  0  0  0  0  0  0  0  0  0  0  0
   -0.8010    9.4387    2.3458 H   0  0  0  0  0  0  0  0  0  0  0  0
   -0.5478    8.4114    4.5913 H   0  0  0  0  0  0  0  0  0  0  0  0
   -2.1862    8.2149    3.9225 H   0  0  0  0  0  0  0  0  0  0  0  0
    0.4580    8.2920    0.1039 H   0  0  0  0  0  0  0  0  0  0  0  0
   -1.0762    9.0416   -0.1869 H   0  0  0  0  0  0  0  0  0  0  0  0
   -3.0989    8.6414    1.2402 H   0  0  0  0  0  0  0  0  0  0  0  0
   -3.1252    7.0404    0.4482 H   0  0  0  0  0  0  0  0  0  0  0  0
   -3.2097    7.1427    2.1839 H   0  0  0  0  0  0  0  0  0  0  0  0
   -2.4609    6.3256    6.8597 H   0  0  0  0  0  0  0  0  0  0  0  0
   -0.6914    6.5147    7.1629 H   0  0  0  0  0  0  0  0  0  0  0  0
   -1.5917    7.6977    6.2203 H   0  0  0  0  0  0  0  0  0  0  0  0
   -1.2687    3.5957    0.9785 H   0  0  0  0  0  0  0  0  0  0  0  0
    0.4494    3.5398    1.5670 H   0  0  0  0  0  0  0  0  0  0  0  0
   -0.6526    2.3164    2.0231 H   0  0  0  0  0  0  0  0  0  0  0  0
   -1.5458    1.5927    3.7562 H   0  0  0  0  0  0  0  0  0  0  0  0
    0.2137    1.7635    4.0228 H   0  0  0  0  0  0  0  0  0  0  0  0
   -0.9066    1.7223    5.3823 H   0  0  0  0  0  0  0  0  0  0  0  0
    1.1633    6.3029    0.5433 H   0  0  0  0  0  0  0  0  0  0  0  0
   -1.2266    5.5241   -2.9563 H   0  0  0  0  0  0  0  0  0  0  0  0
    2.4958    2.0538   -1.1813 H   0  0  0  0  0  0  0  0  0  0  0  0
    1.1551    1.5528   -2.1873 H   0  0  0  0  0  0  0  0  0  0  0  0
    1.0999    1.6417    0.8874 H   0  0  0  0  0  0  0  0  0  0  0  0
    2.0804    4.1086    0.4487 H   0  0  0  0  0  0  0  0  0  0  0  0
   -0.2931    3.2445   -3.0440 H   0  0  0  0  0  0  0  0  0  0  0  0
  1 27  1  0  0  0  0
  1 31  1  0  0  0  0
  2  8  1  0  0  0  0
  2 12  1  0  0  0  0
  3 13  1  0  0  0  0
  3 22  1  0  0  0  0
  4 18  1  0  0  0  0
  4 32  1  0  0  0  0
  5 30  2  0  0  0  0
  6 31  2  0  0  0  0
  7 30  1  0  0  0  0
  7 31  1  0  0  0  0
  7 33  1  0  0  0  0
  8  9  1  0  0  0  0
  8 13  1  0  0  0  0
  8 14  1  0  0  0  0
  9 10  1  0  0  0  0
  9 34  1  0  0  0  0
  9 35  1  0  0  0  0
 10 11  1  0  0  0  0
 10 36  1  0  0  0  0
 10 37  1  0  0  0  0
 11 12  2  0  0  0  0
 11 15  1  0  0  0  0
 12 16  1  0  0  0  0
 13 38  1  0  0  0  0
 13 39  1  0  0  0  0
 14 40  1  0  0  0  0
 14 41  1  0  0  0  0
 14 42  1  0  0  0  0
 15 18  2  0  0  0  0
 15 19  1  0  0  0  0
 16 17  2  0  0  0  0
 16 20  1  0  0  0  0
 17 18  1  0  0  0  0
 17 21  1  0  0  0  0
 19 43  1  0  0  0  0
 19 44  1  0  0  0  0
 19 45  1  0  0  0  0
 20 46  1  0  0  0  0
 20 47  1  0  0  0  0
 20 48  1  0  0  0  0
 21 49  1  0  0  0  0
 21 50  1  0  0  0  0
 21 51  1  0  0  0  0
 22 24  2  0  0  0  0
 22 25  1  0  0  0  0
 23 26  1  0  0  0  0
 23 28  2  0  0  0  0
 23 29  1  0  0  0  0
 24 28  1  0  0  0  0
 24 52  1  0  0  0  0
 25 29  2  0  0  0  0
 25 53  1  0  0  0  0
 26 27  1  0  0  0  0
 26 54  1  0  0  0  0
 26 55  1  0  0  0  0
 27 30  1  0  0  0  0
 27 56  1  0  0  0  0
 28 57  1  0  0  0  0
 29 58  1  0  0  0  0
M  END
>  <DRUGBANK_ID>
DB00197

>  <SECONDARY_ACCESSION_NUMBERS>
APRD00488

>  <COMMON_NAME>
Troglitazone

>  <CAS_NUMBER>
97322-87-7

>  <UNII>
I66ZZ0ZN0E

>  <SYNONYMS>
Troglitazona; Troglitazone

$$$$
