
 OpenBabel10282417183D

 31 32  0  0  0  0  0  0  0  0999 V2000
    2.5129    1.1054    0.0123 C   0  0  0  0  0  0  0  0  0  0  0  0
   -2.6382    0.8080   -0.0672 C   0  0  0  0  0  0  0  0  0  0  0  0
    0.0492   -1.7683   -0.0057 C   0  0  0  0  0  0  0  0  0  0  0  0
   -4.0389    4.1206   -0.0955 C   0  0  0  0  0  0  0  0  0  0  0  0
    1.2135   -1.0151    0.0009 C   0  0  0  0  0  0  0  0  0  0  0  0
   -1.1649   -1.1181   -0.0300 C   0  0  0  0  0  0  0  0  0  0  0  0
   -3.3780    3.7043    1.1982 C   0  0  0  0  0  0  0  0  0  0  0  0
   -3.1619    4.9945   -0.9576 C   0  0  0  0  0  0  0  0  0  0  0  0
    1.1809    0.4011   -0.0074 C   0  0  0  0  0  0  0  0  0  0  0  0
   -1.2367    0.2857   -0.0577 C   0  0  0  0  0  0  0  0  0  0  0  0
   -0.0628    1.0940   -0.0375 C   0  0  0  0  0  0  0  0  0  0  0  0
   -1.2243    3.3044    0.0894 C   0  0  0  0  0  0  0  0  0  0  0  0
   -2.0110    3.2482    1.1047 N   0  0  0  0  0  0  0  0  0  0  0  0
   -0.0880    2.5263    0.0383 N   0  0  0  0  0  0  0  0  0  0  0  0
   -1.5401    4.2777   -1.3314 S   0  0  0  0  0  0  0  0  0  0  0  0
    2.6267    1.7285   -0.8794 H   0  0  0  0  0  0  0  0  0  0  0  0
    2.6141    1.7139    0.9149 H   0  0  0  0  0  0  0  0  0  0  0  0
    3.3446    0.3888    0.0085 H   0  0  0  0  0  0  0  0  0  0  0  0
   -2.8401    1.1941    0.9269 H   0  0  0  0  0  0  0  0  0  0  0  0
   -2.7760    1.5267   -0.8771 H   0  0  0  0  0  0  0  0  0  0  0  0
   -3.4008    0.0398   -0.2100 H   0  0  0  0  0  0  0  0  0  0  0  0
    0.0760   -2.8532    0.0098 H   0  0  0  0  0  0  0  0  0  0  0  0
   -4.9569    4.6661    0.1605 H   0  0  0  0  0  0  0  0  0  0  0  0
   -4.3779    3.2452   -0.6654 H   0  0  0  0  0  0  0  0  0  0  0  0
    2.1610   -1.5496    0.0193 H   0  0  0  0  0  0  0  0  0  0  0  0
   -2.0824   -1.7035   -0.0192 H   0  0  0  0  0  0  0  0  0  0  0  0
   -3.4703    4.4667    1.9732 H   0  0  0  0  0  0  0  0  0  0  0  0
   -3.9659    2.8520    1.5686 H   0  0  0  0  0  0  0  0  0  0  0  0
   -3.6834    5.1785   -1.9053 H   0  0  0  0  0  0  0  0  0  0  0  0
   -3.0204    5.9666   -0.4771 H   0  0  0  0  0  0  0  0  0  0  0  0
    0.7573    2.9856   -0.2704 H   0  0  0  0  0  0  0  0  0  0  0  0
  1 16  1  0  0  0  0
  1 17  1  0  0  0  0
  1 18  1  0  0  0  0
  2 19  1  0  0  0  0
  2 20  1  0  0  0  0
  2 21  1  0  0  0  0
  3 22  1  0  0  0  0
  4 23  1  0  0  0  0
  4 24  1  0  0  0  0
  5  3  2  0  0  0  0
  5 25  1  0  0  0  0
  6  3  1  0  0  0  0
  6 26  1  0  0  0  0
  7  4  1  0  0  0  0
  7 27  1  0  0  0  0
  7 28  1  0  0  0  0
  8  4  1  0  0  0  0
  8 29  1  0  0  0  0
  8 30  1  0  0  0  0
  9  1  1  0  0  0  0
  9  5  1  0  0  0  0
 10  2  1  0  0  0  0
 10  6  2  0  0  0  0
 11  9  2  0  0  0  0
 11 10  1  0  0  0  0
 13  7  1  0  0  0  0
 13 12  2  0  0  0  0
 14 11  1  0  0  0  0
 14 12  1  0  0  0  0
 14 31  1  0  0  0  0
 15  8  1  0  0  0  0
 15 12  1  0  0  0  0
M  END
>  <DRUGBANK_ID>
DB11477

>  <COMMON_NAME>
Xylazine

>  <CAS_NUMBER>
7361-61-7

>  <UNII>
2KFG9TP5V8

>  <SYNONYMS>
Xilazina; Xylazine; Xylazinum

$$$$
