
 OpenBabel10282417133D

 28 29  0  0  1  0  0  0  0  0999 V2000
    2.2095   -0.6750    0.0039 C   0  0  0  0  0  0  0  0  0  0  0  0
    2.1860    0.7181   -0.0119 C   0  0  0  0  0  0  0  0  0  0  0  0
    1.0203   -1.4107    0.0365 C   0  0  0  0  0  0  0  0  0  0  0  0
    0.9794    1.4199    0.0123 C   0  0  0  0  0  0  0  0  0  0  0  0
   -2.3129    0.0100   -0.2950 C   0  0  0  0  0  0  0  0  0  0  0  0
   -0.2113   -0.7286   -0.0090 C   0  0  0  0  0  0  0  0  0  0  0  0
   -1.5796   -1.1449   -0.0888 C   0  0  0  0  0  0  0  0  0  0  0  0
   -0.1970    0.6676   -0.0133 C   0  0  0  0  0  0  0  0  0  0  0  0
   -2.9749   -2.8589    1.2228 C   0  0  1  0  0  0  0  0  0  0  0  0
   -2.1033   -2.5525   -0.0327 C   0  0  1  0  0  0  0  0  0  0  0  0
   -4.2658   -2.0249    1.2489 C   0  0  0  0  0  0  0  0  0  0  0  0
   -3.3501   -4.3072    1.2347 N   0  0  0  0  0  0  0  0  0  0  0  0
   -1.5023    1.0834   -0.0648 N   0  0  0  0  0  0  0  0  0  0  0  0
   -2.7995   -2.8966   -1.2411 O   0  0  0  0  0  0  0  0  0  0  0  0
   -5.3815   -2.4166    0.9226 O   0  0  0  0  0  0  0  0  0  0  0  0
   -4.1035   -0.7472    1.6350 O   0  0  0  0  0  0  0  0  0  0  0  0
   -2.4160   -2.6544    2.1429 H   0  0  0  0  0  0  0  0  0  0  0  0
   -1.2424   -3.2344    0.0006 H   0  0  0  0  0  0  0  0  0  0  0  0
    3.1601   -1.2008   -0.0282 H   0  0  0  0  0  0  0  0  0  0  0  0
    3.1211    1.2701   -0.0560 H   0  0  0  0  0  0  0  0  0  0  0  0
    1.0539   -2.4963    0.0329 H   0  0  0  0  0  0  0  0  0  0  0  0
    0.9597    2.5045    0.0016 H   0  0  0  0  0  0  0  0  0  0  0  0
   -3.3630    0.1617   -0.4928 H   0  0  0  0  0  0  0  0  0  0  0  0
   -4.0394   -4.4583    1.9712 H   0  0  0  0  0  0  0  0  0  0  0  0
   -3.8569   -4.4829    0.3594 H   0  0  0  0  0  0  0  0  0  0  0  0
   -1.8067    2.0462   -0.0289 H   0  0  0  0  0  0  0  0  0  0  0  0
   -3.5339   -2.2702   -1.3382 H   0  0  0  0  0  0  0  0  0  0  0  0
   -4.9158   -0.2800    1.3472 H   0  0  0  0  0  0  0  0  0  0  0  0
  1 19  1  0  0  0  0
  2  1  2  0  0  0  0
  2 20  1  0  0  0  0
  3  1  1  0  0  0  0
  3 21  1  0  0  0  0
  4  2  1  0  0  0  0
  4 22  1  0  0  0  0
  5 23  1  0  0  0  0
  6  3  2  0  0  0  0
  7  5  2  0  0  0  0
  7  6  1  0  0  0  0
  8  4  2  0  0  0  0
  8  6  1  0  0  0  0
  9 12  1  0  0  0  0
  9 17  1  1  0  0  0
 10  7  1  0  0  0  0
 10  9  1  0  0  0  0
 10 14  1  0  0  0  0
 10 18  1  1  0  0  0
 11  9  1  0  0  0  0
 12 24  1  0  0  0  0
 12 25  1  0  0  0  0
 13  5  1  0  0  0  0
 13  8  1  0  0  0  0
 13 26  1  0  0  0  0
 14 27  1  0  0  0  0
 15 11  2  0  0  0  0
 16 11  1  0  0  0  0
 16 28  1  0  0  0  0
M  END
>  <DRUGBANK_ID>
DB04159

>  <SECONDARY_ACCESSION_NUMBERS>
EXPT01793

>  <COMMON_NAME>
Beta-Hydroxytryptophane

$$$$
