
 OpenBabel10282417173D

 75 78  0  0  0  0  0  0  0  0999 V2000
    1.2284   -1.4954    0.3816 C   0  0  1  0  0  0  0  0  0  0  0  0
   -0.0075   -0.6766   -0.0923 C   0  0  1  0  0  0  0  0  0  0  0  0
    2.5414   -0.8345   -0.1737 C   0  0  2  0  0  0  0  0  0  0  0  0
    1.1926   -2.8435   -0.2985 C   0  0  0  0  0  0  0  0  0  0  0  0
    0.1379    0.7371    0.3367 C   0  0  1  0  0  0  0  0  0  0  0  0
   -1.4664   -1.0195    0.2402 C   0  0  0  0  0  0  0  0  0  0  0  0
    2.6291    0.5821    0.4590 C   0  0  0  0  0  0  0  0  0  0  0  0
    2.3087   -1.0700   -1.7226 C   0  0  2  0  0  0  0  0  0  0  0  0
    3.8376   -1.5323    0.2574 C   0  0  0  0  0  0  0  0  0  0  0  0
    1.4944   -2.4782   -1.7417 C   0  0  0  0  0  0  0  0  0  0  0  0
   -0.8303    1.5088   -0.4673 C   0  0  2  0  0  0  0  0  0  0  0  0
    1.4760    1.3976    0.0335 C   0  0  0  0  0  0  0  0  0  0  0  0
   -2.5887    0.1065   -0.5164 C   0  0  0  0  0  0  0  0  0  0  0  0
    3.5231   -0.8752   -2.4874 O   0  0  0  0  0  0  0  0  0  0  0  0
   -2.2267    1.7633   -0.5749 C   0  0  0  0  0  0  0  0  0  0  0  0
   -0.7581    1.2686   -2.1582 C   0  0  0  0  0  0  0  0  0  0  0  0
   -2.0796    3.0449   -1.2589 C   0  0  0  0  0  0  0  0  0  0  0  0
    0.1569    2.3325   -2.6191 C   0  0  0  0  0  0  0  0  0  0  0  0
   -0.3997    3.4158   -1.6519 C   0  0  0  0  0  0  0  0  0  0  0  0
    0.2556    4.2026   -1.0107 O   0  0  0  0  0  0  0  0  0  0  0  0
    1.2739   -1.5675    1.4668 H   0  0  0  0  0  0  0  0  0  0  0  0
    0.0003   -0.7386   -1.1659 H   0  0  0  0  0  0  0  0  0  0  0  0
   -0.0779    0.8059    1.4129 H   0  0  0  0  0  0  0  0  0  0  0  0
   -0.7030    2.4135    0.1697 H   0  0  0  0  0  0  0  0  0  0  0  0
    3.5385   -0.8903   -3.8595 C   0  0  0  0  0  0  0  0  0  0  0  0
    2.7164   -2.0190   -4.4166 C   0  0  0  0  0  0  0  0  0  0  0  0
    1.7742   -1.6822   -5.5358 C   0  0  0  0  0  0  0  0  0  0  0  0
    2.5645   -1.3940   -6.7871 C   0  0  0  0  0  0  0  0  0  0  0  0
    3.5001   -2.5703   -7.0982 C   0  0  0  0  0  0  0  0  0  0  0  0
    2.6947   -3.8548   -7.3346 C   0  0  0  0  0  0  0  0  0  0  0  0
    1.7319   -3.6575   -8.5091 C   0  0  0  0  0  0  0  0  0  0  0  0
    2.5041   -3.3138   -9.7884 C   0  0  0  0  0  0  0  0  0  0  0  0
    3.4933   -4.4212  -10.1552 C   0  0  0  0  0  0  0  0  0  0  0  0
    2.7565   -5.7289  -10.3934 C   0  0  0  0  0  0  0  0  0  0  0  0
    4.2606   -0.1991   -4.5284 O   0  0  0  0  0  0  0  0  0  0  0  0
    1.9588   -3.5519    0.0279 H   0  0  0  0  0  0  0  0  0  0  0  0
    0.2324   -3.3334   -0.1271 H   0  0  0  0  0  0  0  0  0  0  0  0
   -1.7229   -2.0317   -0.1063 H   0  0  0  0  0  0  0  0  0  0  0  0
   -1.4836   -1.0800    1.3373 H   0  0  0  0  0  0  0  0  0  0  0  0
    3.5549    1.1187    0.2202 H   0  0  0  0  0  0  0  0  0  0  0  0
    2.5651    0.5241    1.5528 H   0  0  0  0  0  0  0  0  0  0  0  0
    1.6474   -0.3128   -2.1532 H   0  0  0  0  0  0  0  0  0  0  0  0
    4.2830   -1.0305    1.1217 H   0  0  0  0  0  0  0  0  0  0  0  0
    3.6645   -2.5647    0.5440 H   0  0  0  0  0  0  0  0  0  0  0  0
    4.5979   -1.5214   -0.5307 H   0  0  0  0  0  0  0  0  0  0  0  0
    1.9648   -3.3452   -2.2164 H   0  0  0  0  0  0  0  0  0  0  0  0
    0.5245   -2.3405   -2.2624 H   0  0  0  0  0  0  0  0  0  0  0  0
    1.5360    2.4537    0.3284 H   0  0  0  0  0  0  0  0  0  0  0  0
    1.6353    1.4169   -1.0162 H   0  0  0  0  0  0  0  0  0  0  0  0
   -3.5729   -0.1106   -0.1057 H   0  0  0  0  0  0  0  0  0  0  0  0
   -2.5787   -0.2818   -1.5464 H   0  0  0  0  0  0  0  0  0  0  0  0
   -1.7103    1.4362   -2.7333 H   0  0  0  0  0  0  0  0  0  0  0  0
   -0.6056    0.2457   -2.4899 H   0  0  0  0  0  0  0  0  0  0  0  0
   -2.3856    3.4903   -2.2227 H   0  0  0  0  0  0  0  0  0  0  0  0
    0.1308    2.6344   -3.6553 H   0  0  0  0  0  0  0  0  0  0  0  0
    1.1072    1.8252   -2.5309 H   0  0  0  0  0  0  0  0  0  0  0  0
    3.3679   -2.8863   -4.5459 H   0  0  0  0  0  0  0  0  0  0  0  0
    2.0114   -2.3375   -3.7077 H   0  0  0  0  0  0  0  0  0  0  0  0
    1.0994   -2.5423   -5.6702 H   0  0  0  0  0  0  0  0  0  0  0  0
    1.1138   -0.8524   -5.2656 H   0  0  0  0  0  0  0  0  0  0  0  0
    1.8699   -1.1847   -7.6043 H   0  0  0  0  0  0  0  0  0  0  0  0
    3.1399   -0.4753   -6.6660 H   0  0  0  0  0  0  0  0  0  0  0  0
    4.1284   -2.3124   -7.9525 H   0  0  0  0  0  0  0  0  0  0  0  0
    4.2316   -2.7444   -6.3030 H   0  0  0  0  0  0  0  0  0  0  0  0
    3.3791   -4.6922   -7.5022 H   0  0  0  0  0  0  0  0  0  0  0  0
    2.1321   -4.1610   -6.4453 H   0  0  0  0  0  0  0  0  0  0  0  0
    1.1148   -4.5500   -8.6379 H   0  0  0  0  0  0  0  0  0  0  0  0
    1.0012   -2.8699   -8.2982 H   0  0  0  0  0  0  0  0  0  0  0  0
    1.7997   -3.1423  -10.6072 H   0  0  0  0  0  0  0  0  0  0  0  0
    3.0453   -2.3660   -9.6774 H   0  0  0  0  0  0  0  0  0  0  0  0
    4.0546   -4.1318  -11.0477 H   0  0  0  0  0  0  0  0  0  0  0  0
    4.2457   -4.5595   -9.3693 H   0  0  0  0  0  0  0  0  0  0  0  0
    2.0294   -5.6015  -11.2007 H   0  0  0  0  0  0  0  0  0  0  0  0
    3.4538   -6.5249  -10.6552 H   0  0  0  0  0  0  0  0  0  0  0  0
    2.2147   -6.0647   -9.5032 H   0  0  0  0  0  0  0  0  0  0  0  0
  1  2  1  0  0  0  0
  1  3  1  0  0  0  0
  1  4  1  0  0  0  0
  1 21  1  6  0  0  0
  2  5  1  0  0  0  0
  2  6  1  0  0  0  0
  2 22  1  1  0  0  0
  3  7  1  0  0  0  0
  3  8  1  0  0  0  0
  3  9  1  1  0  0  0
  4 10  1  0  0  0  0
  4 36  1  0  0  0  0
  4 37  1  0  0  0  0
  5 12  1  0  0  0  0
  5 11  1  0  0  0  0
  5 23  1  6  0  0  0
  6 13  1  0  0  0  0
  6 38  1  0  0  0  0
  6 39  1  0  0  0  0
  7 12  1  0  0  0  0
  7 40  1  0  0  0  0
  7 41  1  0  0  0  0
  8 10  1  0  0  0  0
  8 14  1  0  0  0  0
  8 42  1  6  0  0  0
  9 43  1  0  0  0  0
  9 44  1  0  0  0  0
  9 45  1  0  0  0  0
 10 46  1  0  0  0  0
 10 47  1  0  0  0  0
 11 15  1  0  0  0  0
 11 16  1  0  0  0  0
 11 24  1  1  0  0  0
 12 48  1  0  0  0  0
 12 49  1  0  0  0  0
 13 15  1  0  0  0  0
 13 50  1  0  0  0  0
 13 51  1  0  0  0  0
 14 25  1  0  0  0  0
 15 17  2  0  0  0  0
 16 18  1  0  0  0  0
 16 52  1  0  0  0  0
 16 53  1  0  0  0  0
 17 19  1  0  0  0  0
 17 54  1  0  0  0  0
 18 19  1  0  0  0  0
 18 55  1  0  0  0  0
 18 56  1  0  0  0  0
 19 20  2  0  0  0  0
 25 26  1  0  0  0  0
 25 35  2  0  0  0  0
 26 27  1  0  0  0  0
 26 57  1  0  0  0  0
 26 58  1  0  0  0  0
 27 28  1  0  0  0  0
 27 59  1  0  0  0  0
 27 60  1  0  0  0  0
 28 29  1  0  0  0  0
 28 61  1  0  0  0  0
 28 62  1  0  0  0  0
 29 30  1  0  0  0  0
 29 63  1  0  0  0  0
 29 64  1  0  0  0  0
 30 31  1  0  0  0  0
 30 65  1  0  0  0  0
 30 66  1  0  0  0  0
 31 32  1  0  0  0  0
 31 67  1  0  0  0  0
 31 68  1  0  0  0  0
 32 33  1  0  0  0  0
 32 69  1  0  0  0  0
 32 70  1  0  0  0  0
 33 34  1  0  0  0  0
 33 71  1  0  0  0  0
 33 72  1  0  0  0  0
 34 73  1  0  0  0  0
 34 74  1  0  0  0  0
 34 75  1  0  0  0  0
M  END
>  <DRUGBANK_ID>
DB08804

>  <COMMON_NAME>
Nandrolone decanoate

>  <CAS_NUMBER>
360-70-3

>  <UNII>
H45187T098

>  <SYNONYMS>
19-nortestosterone decanoate; Nandrolone 17Î²-decanoate; Nandrolone decanoate

$$$$
