
 OpenBabel10282417173D

 40 41  0  0  0  0  0  0  0  0999 V2000
    1.3599   -0.1592   -0.1219 C   0  0  0  0  0  0  0  0  0  0  0  0
    0.8576    1.1370   -0.0771 C   0  0  0  0  0  0  0  0  0  0  0  0
   -0.5207    1.3463   -0.0197 C   0  0  0  0  0  0  0  0  0  0  0  0
   -1.4043    0.2669   -0.0471 C   0  0  0  0  0  0  0  0  0  0  0  0
   -0.9107   -1.0320   -0.0904 C   0  0  0  0  0  0  0  0  0  0  0  0
    0.4770   -1.2550   -0.1073 C   0  0  0  0  0  0  0  0  0  0  0  0
    0.5868   -3.4348    1.1207 O   0  0  0  0  0  0  0  0  0  0  0  0
    0.8653   -2.9543    2.3777 C   0  0  0  0  0  0  0  0  0  0  0  0
    0.7466   -1.6241    2.7637 C   0  0  0  0  0  0  0  0  0  0  0  0
    1.1314   -3.8940    3.3764 C   0  0  0  0  0  0  0  0  0  0  0  0
    1.2337   -3.4839    4.7166 C   0  0  0  0  0  0  0  0  0  0  0  0
    0.8886   -1.1988    4.0721 C   0  0  0  0  0  0  0  0  0  0  0  0
    1.0368   -2.6662   -0.0198 C   0  0  1  0  0  0  0  0  0  0  0  0
    0.6241   -3.3901   -1.3213 C   0  0  0  0  0  0  0  0  0  0  0  0
    1.0945   -2.6469   -2.5841 C   0  0  0  0  0  0  0  0  0  0  0  0
    3.0013   -1.7842   -3.7677 C   0  0  0  0  0  0  0  0  0  0  0  0
    2.5567   -2.5621   -2.6219 N   0  0  0  0  0  0  0  0  0  0  0  0
    1.1364   -2.1311    5.0721 C   0  0  0  0  0  0  0  0  0  0  0  0
    0.3982   -2.1683    7.3403 F   0  0  0  0  0  0  0  0  0  0  0  0
    2.5395   -1.9866    6.9790 F   0  0  0  0  0  0  0  0  0  0  0  0
    1.3179   -1.6521    6.4827 C   0  0  0  0  0  0  0  0  0  0  0  0
    1.2269   -0.2965    6.6100 F   0  0  0  0  0  0  0  0  0  0  0  0
    2.4360   -0.3172   -0.0844 H   0  0  0  0  0  0  0  0  0  0  0  0
    1.5415    1.9807   -0.0538 H   0  0  0  0  0  0  0  0  0  0  0  0
   -0.9094    2.3567    0.0667 H   0  0  0  0  0  0  0  0  0  0  0  0
   -2.4770    0.4336   -0.0054 H   0  0  0  0  0  0  0  0  0  0  0  0
   -1.6006   -1.8731   -0.0448 H   0  0  0  0  0  0  0  0  0  0  0  0
    0.4805   -0.8243    2.0958 H   0  0  0  0  0  0  0  0  0  0  0  0
    1.2488   -4.9426    3.1213 H   0  0  0  0  0  0  0  0  0  0  0  0
    1.3819   -4.2347    5.4933 H   0  0  0  0  0  0  0  0  0  0  0  0
    0.7732   -0.1399    4.2888 H   0  0  0  0  0  0  0  0  0  0  0  0
    2.1320   -2.6480    0.0422 H   0  0  0  0  0  0  0  0  0  0  0  0
    1.0010   -4.4197   -1.3199 H   0  0  0  0  0  0  0  0  0  0  0  0
   -0.4701   -3.4917   -1.3618 H   0  0  0  0  0  0  0  0  0  0  0  0
    0.7214   -3.1751   -3.4680 H   0  0  0  0  0  0  0  0  0  0  0  0
    0.6551   -1.6414   -2.6240 H   0  0  0  0  0  0  0  0  0  0  0  0
    2.6282   -0.7557   -3.7191 H   0  0  0  0  0  0  0  0  0  0  0  0
    4.0944   -1.7453   -3.7643 H   0  0  0  0  0  0  0  0  0  0  0  0
    2.6800   -2.2477   -4.7035 H   0  0  0  0  0  0  0  0  0  0  0  0
    2.8993   -2.0900   -1.7873 H   0  0  0  0  0  0  0  0  0  0  0  0
  1  2  1  0  0  0  0
  1 23  1  0  0  0  0
  2  3  2  0  0  0  0
  2 24  1  0  0  0  0
  3  4  1  0  0  0  0
  3 25  1  0  0  0  0
  4  5  2  0  0  0  0
  4 26  1  0  0  0  0
  5 27  1  0  0  0  0
  6  1  2  0  0  0  0
  6  5  1  0  0  0  0
  6 13  1  0  0  0  0
  7  8  1  0  0  0  0
  8 10  1  0  0  0  0
  9  8  2  0  0  0  0
  9 12  1  0  0  0  0
  9 28  1  0  0  0  0
 10 11  2  0  0  0  0
 10 29  1  0  0  0  0
 11 18  1  0  0  0  0
 11 30  1  0  0  0  0
 12 31  1  0  0  0  0
 13  7  1  0  0  0  0
 13 14  1  0  0  0  0
 13 32  1  1  0  0  0
 14 15  1  0  0  0  0
 14 33  1  0  0  0  0
 14 34  1  0  0  0  0
 15 17  1  0  0  0  0
 15 35  1  0  0  0  0
 15 36  1  0  0  0  0
 16 37  1  0  0  0  0
 16 38  1  0  0  0  0
 16 39  1  0  0  0  0
 17 16  1  0  0  0  0
 17 40  1  0  0  0  0
 18 12  2  0  0  0  0
 18 21  1  0  0  0  0
 21 19  1  0  0  0  0
 21 20  1  0  0  0  0
 21 22  1  0  0  0  0
M  END
>  <DRUGBANK_ID>
DB08544

>  <COMMON_NAME>
(S)-Fluoxetine

>  <CAS_NUMBER>
100568-02-3

>  <UNII>
6MYD4C025Q

>  <SYNONYMS>
(−)-fluoxetine; (S)-(−)-fluoxetine; (S)-N-methyl-3-(4-trifluoromethylphenoxy)-3-phenylpropylamine; (S)-N-methyl-3-(4-trifluoromethylphenyloxy)-3-(phenyl)propylamine; (S)-N-methyl-3-phenyl-3-[(α,α,α-trifluoro-p-tolyl)oxy]propylamine; (S)-N-methyl-γ-(4-trifluoromethylphenoxy)-3-phenylpropylamine; (S)-Prozac

$$$$
