
 OpenBabel10282417223D

131133  0  0  0  0  0  0  0  0999 V2000
    1.3657   -0.8379   -0.2299 C   0  0  0  0  0  0  0  0  0  0  0  0
    3.2292   -2.7130    1.3357 C   0  0  0  0  0  0  0  0  0  0  0  0
    0.6364   -1.6654    0.3506 C   0  0  0  0  0  0  0  0  0  0  0  0
    5.8598   -4.6331    2.7308 C   0  0  1  0  0  0  0  0  0  0  0  0
    8.3976   -6.4768    4.3221 C   0  0  0  0  0  0  0  0  0  0  0  0
   10.6567   -8.3589    5.7315 N   0  0  0  0  0  0  0  0  0  0  0  0
   12.7041  -10.4143    6.9813 C   0  0  2  0  0  0  0  0  0  0  0  0
   14.6274  -12.3704    6.9366 C   0  0  0  0  0  0  0  0  0  0  0  0
   14.6860  -14.0163    6.4658 N   0  0  0  0  0  0  0  0  0  0  0  0
   13.9242  -14.1047    4.9425 C   0  0  2  0  0  0  0  0  0  0  0  0
   12.6356  -13.5111    4.2506 C   0  0  0  0  0  0  0  0  0  0  0  0
   11.6134  -14.3884    3.7109 N   0  0  0  0  0  0  0  0  0  0  0  0
   10.2993  -13.9630    3.0427 C   0  0  2  0  0  0  0  0  0  0  0  0
    9.8074  -12.7133    3.7893 C   0  0  0  0  0  0  0  0  0  0  0  0
    8.9218  -11.7590    3.1676 N   0  0  0  0  0  0  0  0  0  0  0  0
    8.4556  -10.5939    3.9077 C   0  0  2  0  0  0  0  0  0  0  0  0
    6.8999  -10.6883    3.9413 C   0  0  0  0  0  0  0  0  0  0  0  0
    6.0653   -9.4885    3.2333 N   0  0  0  0  0  0  0  0  0  0  0  0
    4.7018   -9.4481    3.3535 C   0  0  2  0  0  0  0  0  0  0  0  0
    4.1438   -9.4726    1.9856 C   0  0  0  0  0  0  0  0  0  0  0  0
    3.0674   -8.4403    1.4878 N   0  0  0  0  0  0  0  0  0  0  0  0
    2.8143   -8.1764    0.0934 C   0  0  2  0  0  0  0  0  0  0  0  0
    3.2967   -6.9258   -0.5176 C   0  0  0  0  0  0  0  0  0  0  0  0
    2.4494   -5.7243   -0.3119 N   0  0  0  0  0  0  0  0  0  0  0  0
    2.9455   -4.6330   -1.6238 C   0  0  2  0  0  0  0  0  0  0  0  0
    2.6620   -3.6777   -0.6524 C   0  0  0  0  0  0  0  0  0  0  0  0
    4.1577   -3.8039    0.8278 N   0  0  0  0  0  0  0  0  0  0  0  0
    3.6126   -2.8137   -0.4263 O   0  0  0  0  0  0  0  0  0  0  0  0
    3.1464   -3.3537   -2.4206 C   0  0  0  0  0  0  0  0  0  0  0  0
    2.0030   -2.5783   -2.7452 C   0  0  0  0  0  0  0  0  0  0  0  0
    1.0353   -2.2965   -1.2190 C   0  0  0  0  0  0  0  0  0  0  0  0
    2.4895   -1.4794   -0.7389 N   0  0  0  0  0  0  0  0  0  0  0  0
    2.1524    0.0791    0.4249 C   0  0  0  0  0  0  0  0  0  0  0  0
    2.7180    0.7883    0.9013 N   0  0  0  0  0  0  0  0  0  0  0  0
    0.6365    0.5399    0.4800 N   0  0  0  0  0  0  0  0  0  0  0  0
    4.1843   -7.0472   -1.3195 O   0  0  0  0  0  0  0  0  0  0  0  0
    1.5780   -7.7611   -0.5742 C   0  0  0  0  0  0  0  0  0  0  0  0
    1.8921   -6.9073   -1.8787 C   0  0  0  0  0  0  0  0  0  0  0  0
    2.8542   -7.5019   -2.7745 C   0  0  0  0  0  0  0  0  0  0  0  0
    2.4497   -7.5768   -4.0812 N   0  0  0  0  0  0  0  0  0  0  0  0
    3.9351   -8.0819   -2.5638 O   0  0  0  0  0  0  0  0  0  0  0  0
    3.5509  -10.4676    1.6812 O   0  0  0  0  0  0  0  0  0  0  0  0
    3.7122   -8.3721    3.6467 C   0  0  0  0  0  0  0  0  0  0  0  0
    4.2540   -7.2893    2.6797 C   0  0  0  0  0  0  0  0  0  0  0  0
    4.6103   -7.5177    1.2252 N   0  0  0  0  0  0  0  0  0  0  0  0
    4.7168   -6.3770    0.6877 C   0  0  0  0  0  0  0  0  0  0  0  0
    4.4551   -5.4749    1.4961 N   0  0  0  0  0  0  0  0  0  0  0  0
    4.0912   -5.9986    2.6867 C   0  0  0  0  0  0  0  0  0  0  0  0
    6.5357  -10.7231    5.1444 O   0  0  0  0  0  0  0  0  0  0  0  0
    8.1490   -9.1106    3.9018 C   0  0  0  0  0  0  0  0  0  0  0  0
    8.2350   -8.4163    2.5545 C   0  0  0  0  0  0  0  0  0  0  0  0
    7.7464   -9.3595    1.4412 C   0  0  0  0  0  0  0  0  0  0  0  0
    6.6618   -8.9702    0.6524 O   0  0  0  0  0  0  0  0  0  0  0  0
    8.2931  -10.4538    1.2846 O   0  0  0  0  0  0  0  0  0  0  0  0
   10.7821  -12.1268    4.2917 O   0  0  0  0  0  0  0  0  0  0  0  0
    9.3937  -15.1873    3.0972 C   0  0  0  0  0  0  0  0  0  0  0  0
   10.1979  -16.2805    3.7740 C   0  0  0  0  0  0  0  0  0  0  0  0
   11.6593  -15.8737    3.5834 C   0  0  0  0  0  0  0  0  0  0  0  0
   10.3661  -13.6586    2.0029 H   0  0  0  0  0  0  0  0  0  0  0  0
   12.9800  -12.6242    3.4277 O   0  0  0  0  0  0  0  0  0  0  0  0
   14.9882  -15.0930    4.6507 C   0  0  0  0  0  0  0  0  0  0  0  0
   15.9115  -15.2338    5.7353 O   0  0  0  0  0  0  0  0  0  0  0  0
   16.1114  -13.3987    6.7331 O   0  0  0  0  0  0  0  0  0  0  0  0
   13.6903  -12.2979    8.7265 C   0  0  0  0  0  0  0  0  0  0  0  0
   12.5997  -12.7798    8.3852 C   0  0  0  0  0  0  0  0  0  0  0  0
   12.3776  -13.6050    7.3217 C   0  0  0  0  0  0  0  0  0  0  0  0
   11.6903  -14.7344    7.0523 N   0  0  0  0  0  0  0  0  0  0  0  0
   12.5843  -13.1778    6.2366 O   0  0  0  0  0  0  0  0  0  0  0  0
    9.9955   -7.0113    5.4309 O   0  0  0  0  0  0  0  0  0  0  0  0
    0.3814    0.3408   -1.7110 H   0  0  0  0  0  0  0  0  0  0  0  0
    1.2296    1.0803   -0.9157 H   0  0  0  0  0  0  0  0  0  0  0  0
    0.0726    0.7828   -0.7863 H   0  0  0  0  0  0  0  0  0  0  0  0
    1.6613   -1.4460    1.1229 H   0  0  0  0  0  0  0  0  0  0  0  0
   -0.8946   -1.2137   -1.0346 H   0  0  0  0  0  0  0  0  0  0  0  0
   -1.2665   -1.7954    0.0793 H   0  0  0  0  0  0  0  0  0  0  0  0
   -1.1798   -0.6236   -0.0433 H   0  0  0  0  0  0  0  0  0  0  0  0
    4.6402   -3.4221    1.9360 H   0  0  0  0  0  0  0  0  0  0  0  0
   12.2089   -9.1472    6.7513 H   0  0  0  0  0  0  0  0  0  0  0  0
   14.2256  -11.7869    8.0526 H   0  0  0  0  0  0  0  0  0  0  0  0
   13.6161  -14.2466    6.8409 H   0  0  0  0  0  0  0  0  0  0  0  0
   14.0752  -13.9583    3.8751 H   0  0  0  0  0  0  0  0  0  0  0  0
    8.6892  -11.8488    2.1796 H   0  0  0  0  0  0  0  0  0  0  0  0
    9.3477  -10.5384    4.5004 H   0  0  0  0  0  0  0  0  0  0  0  0
    6.6271   -8.6672    2.9485 H   0  0  0  0  0  0  0  0  0  0  0  0
    4.5425  -10.0688    4.2088 H   0  0  0  0  0  0  0  0  0  0  0  0
    2.9140   -7.5562    2.0769 H   0  0  0  0  0  0  0  0  0  0  0  0
    2.6712   -9.1781   -0.1875 H   0  0  0  0  0  0  0  0  0  0  0  0
    1.4109   -5.9444   -0.8031 H   0  0  0  0  0  0  0  0  0  0  0  0
    3.5855   -5.0713   -2.3884 H   0  0  0  0  0  0  0  0  0  0  0  0
    2.8501   -3.2276   -0.4281 H   0  0  0  0  0  0  0  0  0  0  0  0
    3.8261   -2.7162   -1.8967 H   0  0  0  0  0  0  0  0  0  0  0  0
    3.5699   -3.5380   -3.3519 H   0  0  0  0  0  0  0  0  0  0  0  0
    2.0169   -1.6222   -3.1213 H   0  0  0  0  0  0  0  0  0  0  0  0
    1.1567   -3.1746   -3.1980 H   0  0  0  0  0  0  0  0  0  0  0  0
    0.2151   -1.7415   -1.4691 H   0  0  0  0  0  0  0  0  0  0  0  0
    0.9023   -3.2080   -0.7206 H   0  0  0  0  0  0  0  0  0  0  0  0
    3.0879   -1.8033   -0.2033 H   0  0  0  0  0  0  0  0  0  0  0  0
    2.3009    1.6096    1.1620 H   0  0  0  0  0  0  0  0  0  0  0  0
    3.5292    0.3370    1.0764 H   0  0  0  0  0  0  0  0  0  0  0  0
    0.2238    1.3282    0.1963 H   0  0  0  0  0  0  0  0  0  0  0  0
    1.0968   -8.6041   -0.9923 H   0  0  0  0  0  0  0  0  0  0  0  0
    0.9300   -7.2658    0.1327 H   0  0  0  0  0  0  0  0  0  0  0  0
    1.0149   -6.4709   -2.2135 H   0  0  0  0  0  0  0  0  0  0  0  0
    2.3818   -6.0134   -2.0766 H   0  0  0  0  0  0  0  0  0  0  0  0
    3.0742   -8.0365   -4.7567 H   0  0  0  0  0  0  0  0  0  0  0  0
    1.5517   -7.2314   -4.3991 H   0  0  0  0  0  0  0  0  0  0  0  0
    2.6010   -8.5138    3.6664 H   0  0  0  0  0  0  0  0  0  0  0  0
    4.0200   -8.0329    4.5820 H   0  0  0  0  0  0  0  0  0  0  0  0
    4.3989   -8.5144    0.7454 H   0  0  0  0  0  0  0  0  0  0  0  0
    4.9682   -6.2730   -0.3468 H   0  0  0  0  0  0  0  0  0  0  0  0
    3.8868   -5.4812    3.5867 H   0  0  0  0  0  0  0  0  0  0  0  0
    7.1868   -9.1987    4.2340 H   0  0  0  0  0  0  0  0  0  0  0  0
    8.4209   -8.4638    4.7019 H   0  0  0  0  0  0  0  0  0  0  0  0
    7.6184   -7.5146    2.5635 H   0  0  0  0  0  0  0  0  0  0  0  0
    9.2437   -8.1543    2.3968 H   0  0  0  0  0  0  0  0  0  0  0  0
    6.2240   -8.0981    0.7740 H   0  0  0  0  0  0  0  0  0  0  0  0
    8.7720  -16.0393    2.8330 H   0  0  0  0  0  0  0  0  0  0  0  0
    8.7007  -14.3814    2.8675 H   0  0  0  0  0  0  0  0  0  0  0  0
   10.2314  -17.2806    4.2267 H   0  0  0  0  0  0  0  0  0  0  0  0
    9.2093  -16.4491    4.2315 H   0  0  0  0  0  0  0  0  0  0  0  0
   12.4193  -16.6645    3.5602 H   0  0  0  0  0  0  0  0  0  0  0  0
   12.4990  -15.9902    2.8869 H   0  0  0  0  0  0  0  0  0  0  0  0
   14.6393  -16.0777    4.4602 H   0  0  0  0  0  0  0  0  0  0  0  0
   15.5709  -14.7254    3.8259 H   0  0  0  0  0  0  0  0  0  0  0  0
   16.1442  -14.2551    5.9454 H   0  0  0  0  0  0  0  0  0  0  0  0
   13.9584  -13.8967    9.5278 H   0  0  0  0  0  0  0  0  0  0  0  0
   13.8651  -12.2349   10.0336 H   0  0  0  0  0  0  0  0  0  0  0  0
   11.7894  -12.9733    8.9625 H   0  0  0  0  0  0  0  0  0  0  0  0
   12.5569  -11.7960    8.0213 H   0  0  0  0  0  0  0  0  0  0  0  0
   11.7165  -15.3704    6.2198 H   0  0  0  0  0  0  0  0  0  0  0  0
   10.9094  -14.8087    7.6749 H   0  0  0  0  0  0  0  0  0  0  0  0
  1  2  1  0  0  0  0
  1 70  1  0  0  0  0
  1 71  1  0  0  0  0
  1 72  1  0  0  0  0
  2  3  1  0  0  0  0
  2 73  1  0  0  0  0
  3 74  1  0  0  0  0
  3 75  1  0  0  0  0
  3 76  1  0  0  0  0
  4  5  1  0  0  0  0
  4 27  1  0  0  0  0
  4 77  1  6  0  0  0
  4  2  1  0  0  0  0
  5 69  2  0  0  0  0
  6  5  1  0  0  0  0
  6 78  1  0  0  0  0
  7  6  1  0  0  0  0
  7 79  1  1  0  0  0
  7 64  1  0  0  0  0
  8  7  1  0  0  0  0
  8 63  2  0  0  0  0
  9  8  1  0  0  0  0
  9 80  1  0  0  0  0
 10  9  1  0  0  0  0
 10 61  1  0  0  0  0
 10 81  1  6  0  0  0
 11 10  1  0  0  0  0
 11 60  2  0  0  0  0
 12 11  1  0  0  0  0
 13 12  1  0  0  0  0
 13 56  1  0  0  0  0
 13 59  1  6  0  0  0
 14 13  1  0  0  0  0
 14 55  2  0  0  0  0
 15 14  1  0  0  0  0
 15 82  1  0  0  0  0
 16 15  1  0  0  0  0
 16 83  1  1  0  0  0
 16 50  1  0  0  0  0
 17 16  1  0  0  0  0
 17 49  2  0  0  0  0
 18 17  1  0  0  0  0
 18 84  1  0  0  0  0
 19 18  1  0  0  0  0
 19 85  1  1  0  0  0
 19 43  1  0  0  0  0
 20 19  1  0  0  0  0
 20 42  2  0  0  0  0
 21 20  1  0  0  0  0
 21 86  1  0  0  0  0
 22 21  1  0  0  0  0
 22 87  1  6  0  0  0
 22 37  1  0  0  0  0
 23 22  1  0  0  0  0
 23 36  2  0  0  0  0
 24 23  1  0  0  0  0
 24 88  1  0  0  0  0
 25 24  1  0  0  0  0
 25 89  1  1  0  0  0
 25 29  1  0  0  0  0
 26 25  1  0  0  0  0
 26 28  2  0  0  0  0
 27 26  1  0  0  0  0
 27 90  1  0  0  0  0
 29 30  1  0  0  0  0
 29 91  1  0  0  0  0
 29 92  1  0  0  0  0
 30 31  1  0  0  0  0
 30 93  1  0  0  0  0
 30 94  1  0  0  0  0
 31 32  1  0  0  0  0
 31 95  1  0  0  0  0
 31 96  1  0  0  0  0
 32 33  1  0  0  0  0
 32 97  1  0  0  0  0
 33 34  1  0  0  0  0
 33 35  2  0  0  0  0
 34 98  1  0  0  0  0
 34 99  1  0  0  0  0
 35100  1  0  0  0  0
 37 38  1  0  0  0  0
 37101  1  0  0  0  0
 37102  1  0  0  0  0
 38 39  1  0  0  0  0
 38103  1  0  0  0  0
 38104  1  0  0  0  0
 39 40  1  0  0  0  0
 39 41  2  0  0  0  0
 40105  1  0  0  0  0
 40106  1  0  0  0  0
 43 44  1  0  0  0  0
 43107  1  0  0  0  0
 43108  1  0  0  0  0
 44 45  1  0  0  0  0
 44 48  2  0  0  0  0
 45109  1  0  0  0  0
 46 45  1  0  0  0  0
 46110  1  0  0  0  0
 47 46  2  0  0  0  0
 48 47  1  0  0  0  0
 48111  1  0  0  0  0
 50 51  1  0  0  0  0
 50112  1  0  0  0  0
 50113  1  0  0  0  0
 51 52  1  0  0  0  0
 51114  1  0  0  0  0
 51115  1  0  0  0  0
 52 53  1  0  0  0  0
 52 54  2  0  0  0  0
 53116  1  0  0  0  0
 56 57  1  0  0  0  0
 56117  1  0  0  0  0
 56118  1  0  0  0  0
 57 58  1  0  0  0  0
 57119  1  0  0  0  0
 57120  1  0  0  0  0
 58 12  1  0  0  0  0
 58121  1  0  0  0  0
 58122  1  0  0  0  0
 61 62  1  0  0  0  0
 61123  1  0  0  0  0
 61124  1  0  0  0  0
 62125  1  0  0  0  0
 64 65  1  0  0  0  0
 64126  1  0  0  0  0
 64127  1  0  0  0  0
 65 66  1  0  0  0  0
 65128  1  0  0  0  0
 65129  1  0  0  0  0
 66 67  1  0  0  0  0
 66 68  2  0  0  0  0
 67130  1  0  0  0  0
 67131  1  0  0  0  0
M  END
>  <DRUGBANK_ID>
DB15188

>  <COMMON_NAME>
Livoletide

>  <CAS_NUMBER>
1088543-62-7

>  <UNII>
9VHD7J6363

>  <SYNONYMS>
Livoletide; Livol√©tide; Livoletidum

$$$$
