
 OpenBabel10282417123D

 82 84  0  0  1  0  0  0  0  0999 V2000
   -0.2457   -2.0019   -0.4544 C   0  0  0  0  0  0  0  0  0  0  0  0
   -0.6801   -1.5810   -1.8411 C   0  0  0  0  0  0  0  0  0  0  0  0
   -0.1554   -2.5789   -2.8841 C   0  0  0  0  0  0  0  0  0  0  0  0
   -0.7611   -3.9714   -2.6807 C   0  0  0  0  0  0  0  0  0  0  0  0
   -2.2921   -3.9221   -2.6454 C   0  0  0  0  0  0  0  0  0  0  0  0
   -2.8341   -3.3622   -3.9350 C   0  0  0  0  0  0  0  0  0  0  0  0
   -3.2147   -4.2732   -4.8694 C   0  0  0  0  0  0  0  0  0  0  0  0
   -3.5453   -3.8520   -6.1505 C   0  0  0  0  0  0  0  0  0  0  0  0
   -3.7066   -2.5473   -6.5371 C   0  0  0  0  0  0  0  0  0  0  0  0
   -3.2892   -1.6088   -5.6127 C   0  0  0  0  0  0  0  0  0  0  0  0
   -2.8170   -2.0234   -4.3518 C   0  0  0  0  0  0  0  0  0  0  0  0
   -4.1441   -2.1988   -7.9268 C   0  0  0  0  0  0  0  0  0  0  0  0
   -4.0871   -1.0149   -8.2622 O   0  0  0  0  0  0  0  0  0  0  0  0
   -4.5056   -3.1501   -8.8886 N   0  0  0  0  0  0  0  0  0  0  0  0
   -5.0693   -4.4376   -8.7820 C   0  0  0  0  0  0  0  0  0  0  0  0
   -6.0348   -4.6962   -7.8339 C   0  0  0  0  0  0  0  0  0  0  0  0
   -6.5333   -6.0017   -7.7157 C   0  0  0  0  0  0  0  0  0  0  0  0
   -5.9637   -7.0969   -8.4150 C   0  0  0  0  0  0  0  0  0  0  0  0
   -5.0722   -6.8276   -9.4402 C   0  0  0  0  0  0  0  0  0  0  0  0
   -4.6431   -5.4907   -9.6257 C   0  0  0  0  0  0  0  0  0  0  0  0
   -6.1047   -8.8782   -7.8015 S   0  0  0  0  0  0  0  0  0  0  0  0
   -7.1979   -9.2204   -8.6887 O   0  0  0  0  0  0  0  0  0  0  0  0
   -4.9212   -9.6614   -7.9694 O   0  0  0  0  0  0  0  0  0  0  0  0
   -6.4214   -8.9034   -6.0126 N   0  0  0  0  0  0  0  0  0  0  0  0
   -7.7242   -8.4031   -5.5903 C   0  0  0  0  0  0  0  0  0  0  0  0
   -8.8074   -8.9005   -6.4537 C   0  0  0  0  0  0  0  0  0  0  0  0
   -9.2205  -10.2700   -6.2021 N   0  0  0  0  0  0  0  0  0  0  0  0
   -8.4522  -11.3698   -6.8774 C   0  0  0  0  0  0  0  0  0  0  0  0
   -8.6260  -11.5098   -8.4137 C   0  0  0  0  0  0  0  0  0  0  0  0
   -9.9852  -11.3443   -8.8387 O   0  0  0  0  0  0  0  0  0  0  0  0
  -10.5220  -10.1302   -8.2953 C   0  0  0  0  0  0  0  0  0  0  0  0
  -10.5772  -10.2697   -6.7631 C   0  0  0  0  0  0  0  0  0  0  0  0
   -5.3491   -8.5617   -4.8915 C   0  0  2  0  0  0  0  0  0  0  0  0
   -5.0367   -7.0436   -4.7329 C   0  0  0  0  0  0  0  0  0  0  0  0
   -4.4448   -6.7556   -6.0405 C   0  0  0  0  0  0  0  0  0  0  0  0
   -6.1189   -5.9842   -4.3758 C   0  0  0  0  0  0  0  0  0  0  0  0
   -4.0042   -9.3727   -4.9172 C   0  0  0  0  0  0  0  0  0  0  0  0
   -3.6697   -9.9619   -3.8749 O   0  0  0  0  0  0  0  0  0  0  0  0
   -3.0798   -9.4194   -5.9091 N   0  0  0  0  0  0  0  0  0  0  0  0
   -2.9475   -8.7549   -7.1261 O   0  0  0  0  0  0  0  0  0  0  0  0
   -0.6424   -2.9883   -0.1923 H   0  0  0  0  0  0  0  0  0  0  0  0
   -0.6179   -1.3001    0.2924 H   0  0  0  0  0  0  0  0  0  0  0  0
    0.8441   -2.0461   -0.4143 H   0  0  0  0  0  0  0  0  0  0  0  0
   -1.7732   -1.5067   -1.8284 H   0  0  0  0  0  0  0  0  0  0  0  0
   -0.3291   -0.5738   -2.0814 H   0  0  0  0  0  0  0  0  0  0  0  0
   -0.3640   -2.2308   -3.9023 H   0  0  0  0  0  0  0  0  0  0  0  0
    0.9358   -2.6307   -2.8451 H   0  0  0  0  0  0  0  0  0  0  0  0
   -0.4138   -4.6433   -3.4767 H   0  0  0  0  0  0  0  0  0  0  0  0
   -0.3928   -4.4118   -1.7473 H   0  0  0  0  0  0  0  0  0  0  0  0
   -2.6607   -4.9461   -2.4693 H   0  0  0  0  0  0  0  0  0  0  0  0
   -2.6948   -3.3517   -1.8053 H   0  0  0  0  0  0  0  0  0  0  0  0
   -3.1582   -5.3200   -4.6156 H   0  0  0  0  0  0  0  0  0  0  0  0
   -3.6085   -4.5800   -6.9238 H   0  0  0  0  0  0  0  0  0  0  0  0
   -3.2489   -0.5565   -5.8727 H   0  0  0  0  0  0  0  0  0  0  0  0
   -2.3459   -1.2573   -3.7528 H   0  0  0  0  0  0  0  0  0  0  0  0
   -4.6962   -2.7175   -9.7855 H   0  0  0  0  0  0  0  0  0  0  0  0
   -6.2340   -3.9784   -7.0319 H   0  0  0  0  0  0  0  0  0  0  0  0
   -7.1191   -6.1194   -6.8320 H   0  0  0  0  0  0  0  0  0  0  0  0
   -4.7009   -7.6453  -10.0548 H   0  0  0  0  0  0  0  0  0  0  0  0
   -3.8751   -5.3008  -10.3704 H   0  0  0  0  0  0  0  0  0  0  0  0
   -7.9647   -8.4901   -4.5263 H   0  0  0  0  0  0  0  0  0  0  0  0
   -7.7542   -7.3583   -5.7958 H   0  0  0  0  0  0  0  0  0  0  0  0
   -9.6171   -8.1765   -6.3038 H   0  0  0  0  0  0  0  0  0  0  0  0
   -8.5919   -8.6815   -7.4787 H   0  0  0  0  0  0  0  0  0  0  0  0
   -8.8621  -12.3050   -6.4679 H   0  0  0  0  0  0  0  0  0  0  0  0
   -7.3921  -11.4039   -6.5806 H   0  0  0  0  0  0  0  0  0  0  0  0
   -8.0871  -10.8084   -9.0063 H   0  0  0  0  0  0  0  0  0  0  0  0
   -8.1939  -12.4447   -8.7854 H   0  0  0  0  0  0  0  0  0  0  0  0
  -11.5238   -9.9606   -8.6798 H   0  0  0  0  0  0  0  0  0  0  0  0
   -9.9449   -9.2630   -8.6586 H   0  0  0  0  0  0  0  0  0  0  0  0
  -11.0731  -11.1868   -6.4534 H   0  0  0  0  0  0  0  0  0  0  0  0
  -11.1322   -9.4400   -6.3061 H   0  0  0  0  0  0  0  0  0  0  0  0
   -5.8105   -8.8170   -3.9161 H   0  0  0  0  0  0  0  0  0  0  0  0
   -4.2281   -6.9107   -4.0149 H   0  0  0  0  0  0  0  0  0  0  0  0
   -5.0480   -7.3532   -6.6316 H   0  0  0  0  0  0  0  0  0  0  0  0
   -4.6291   -5.8165   -6.4497 H   0  0  0  0  0  0  0  0  0  0  0  0
   -3.4281   -7.0095   -6.2520 H   0  0  0  0  0  0  0  0  0  0  0  0
   -6.3127   -5.9633   -3.3058 H   0  0  0  0  0  0  0  0  0  0  0  0
   -5.8049   -4.9782   -4.6852 H   0  0  0  0  0  0  0  0  0  0  0  0
   -7.1044   -6.0499   -4.8233 H   0  0  0  0  0  0  0  0  0  0  0  0
   -2.3344  -10.0899   -5.7884 H   0  0  0  0  0  0  0  0  0  0  0  0
   -3.8512   -8.7903   -7.4784 H   0  0  0  0  0  0  0  0  0  0  0  0
  1  2  1  0  0  0  0
  1 41  1  0  0  0  0
  1 42  1  0  0  0  0
  1 43  1  0  0  0  0
  2  3  1  0  0  0  0
  2 44  1  0  0  0  0
  2 45  1  0  0  0  0
  3  4  1  0  0  0  0
  3 46  1  0  0  0  0
  3 47  1  0  0  0  0
  4  5  1  0  0  0  0
  4 48  1  0  0  0  0
  4 49  1  0  0  0  0
  5  6  1  0  0  0  0
  5 50  1  0  0  0  0
  5 51  1  0  0  0  0
  6  7  2  0  0  0  0
  6 11  1  0  0  0  0
  7  8  1  0  0  0  0
  7 52  1  0  0  0  0
  8  9  2  0  0  0  0
  8 53  1  0  0  0  0
  9 10  1  0  0  0  0
  9 12  1  0  0  0  0
 10 11  2  0  0  0  0
 10 54  1  0  0  0  0
 11 55  1  0  0  0  0
 12 13  2  0  0  0  0
 12 14  1  0  0  0  0
 14 15  1  0  0  0  0
 14 56  1  0  0  0  0
 15 16  2  0  0  0  0
 15 20  1  0  0  0  0
 16 17  1  0  0  0  0
 16 57  1  0  0  0  0
 17 18  2  0  0  0  0
 17 58  1  0  0  0  0
 18 19  1  0  0  0  0
 18 21  1  0  0  0  0
 19 20  2  0  0  0  0
 19 59  1  0  0  0  0
 20 60  1  0  0  0  0
 21 22  2  0  0  0  0
 21 23  2  0  0  0  0
 21 24  1  0  0  0  0
 24 25  1  0  0  0  0
 25 26  1  0  0  0  0
 25 61  1  0  0  0  0
 25 62  1  0  0  0  0
 26 27  1  0  0  0  0
 26 63  1  0  0  0  0
 26 64  1  0  0  0  0
 27 28  1  0  0  0  0
 27 32  1  0  0  0  0
 28 29  1  0  0  0  0
 28 65  1  0  0  0  0
 28 66  1  0  0  0  0
 29 30  1  0  0  0  0
 29 67  1  0  0  0  0
 29 68  1  0  0  0  0
 30 31  1  0  0  0  0
 31 32  1  0  0  0  0
 31 69  1  0  0  0  0
 31 70  1  0  0  0  0
 32 71  1  0  0  0  0
 32 72  1  0  0  0  0
 33 37  1  0  0  0  0
 33 73  1  1  0  0  0
 33 34  1  0  0  0  0
 33 24  1  0  0  0  0
 34 35  1  0  0  0  0
 34 36  1  0  0  0  0
 34 74  1  0  0  0  0
 35 75  1  0  0  0  0
 35 76  1  0  0  0  0
 35 77  1  0  0  0  0
 36 78  1  0  0  0  0
 36 79  1  0  0  0  0
 36 80  1  0  0  0  0
 37 38  2  0  0  0  0
 37 39  1  0  0  0  0
 39 40  1  0  0  0  0
 39 81  1  0  0  0  0
 40 82  1  0  0  0  0
M  END
>  <DRUGBANK_ID>
DB01630

>  <SECONDARY_ACCESSION_NUMBERS>
EXPT01815

>  <COMMON_NAME>
SC-74020

$$$$
