
 OpenBabel10282417223D

 77 79  0  0  0  0  0  0  0  0999 V2000
    1.4792   -0.9262   -0.5346 C   0  0  1  0  0  0  0  0  0  0  0  0
    0.1009   -1.5833   -0.5933 C   0  0  0  0  0  0  0  0  0  0  0  0
   -0.9240   -0.8050    0.2136 C   0  0  1  0  0  0  0  0  0  0  0  0
   -0.9527    0.6717   -0.1929 C   0  0  0  0  0  0  0  0  0  0  0  0
    0.3688    1.3396   -0.2073 C   0  0  0  0  0  0  0  0  0  0  0  0
    1.4472    0.5615   -0.9245 C   0  0  0  0  0  0  0  0  0  0  0  0
    2.0672   -1.1069    0.7570 O   0  0  0  0  0  0  0  0  0  0  0  0
   -2.2025   -1.4232    0.0919 O   0  0  0  0  0  0  0  0  0  0  0  0
    0.6901    2.4823    0.4510 C   0  0  0  0  0  0  0  0  0  0  0  0
   -0.1788    3.2572    1.3039 C   0  0  0  0  0  0  0  0  0  0  0  0
   -2.8310    4.0869    5.1353 C   0  0  1  0  0  0  0  0  0  0  0  0
   -2.9819    5.2880    4.1561 C   0  0  0  0  0  0  0  0  0  0  0  0
   -2.2234    4.9265    2.8887 C   0  0  0  0  0  0  0  0  0  0  0  0
   -1.9793    3.4359    3.0582 C   0  0  1  0  0  0  0  0  0  0  0  0
   -0.9481    2.7100    2.2767 C   0  0  0  0  0  0  0  0  0  0  0  0
   -0.9293    1.2467    2.6496 C   0  0  0  0  0  0  0  0  0  0  0  0
   -0.8270    0.9225    4.1182 C   0  0  0  0  0  0  0  0  0  0  0  0
   -1.8308    1.7339    4.9033 C   0  0  0  0  0  0  0  0  0  0  0  0
   -1.6998    3.2401    4.5645 C   0  0  2  0  0  0  0  0  0  0  0  0
   -0.3215    3.7939    4.9933 C   0  0  0  0  0  0  0  0  0  0  0  0
   -2.6540    4.5373    6.5938 C   0  0  1  0  0  0  0  0  0  0  0  0
   -3.7987    5.5031    6.9332 C   0  0  0  0  0  0  0  0  0  0  0  0
   -5.1866    4.8952    6.6932 C   0  0  0  0  0  0  0  0  0  0  0  0
   -5.5010    3.7555    7.6542 C   0  0  0  0  0  0  0  0  0  0  0  0
   -5.2753    4.1568    9.1214 C   0  0  0  0  0  0  0  0  0  0  0  0
   -6.2837    5.2261    9.5609 C   0  0  0  0  0  0  0  0  0  0  0  0
   -7.6915    4.6695    9.3568 C   0  0  0  0  0  0  0  0  0  0  0  0
   -6.0394    5.6366   11.0005 C   0  0  0  0  0  0  0  0  0  0  0  0
   -2.4849    3.3425    7.5525 C   0  0  0  0  0  0  0  0  0  0  0  0
   -6.1001    6.4236    8.8069 O   0  0  0  0  0  0  0  0  0  0  0  0
   -2.0999    1.3493   -0.3970 C   0  0  0  0  0  0  0  0  0  0  0  0
   -2.9422    2.9572    2.8013 H   0  0  0  0  0  0  0  0  0  0  0  0
   -3.7419    3.4759    5.0516 H   0  0  0  0  0  0  0  0  0  0  0  0
    2.1383   -1.4495   -1.2337 H   0  0  0  0  0  0  0  0  0  0  0  0
   -0.2429   -1.6560   -1.6308 H   0  0  0  0  0  0  0  0  0  0  0  0
    0.1494   -2.6067   -0.2009 H   0  0  0  0  0  0  0  0  0  0  0  0
   -0.6607   -0.9180    1.2693 H   0  0  0  0  0  0  0  0  0  0  0  0
    2.4332    0.9984   -0.7190 H   0  0  0  0  0  0  0  0  0  0  0  0
    1.2629    0.6546   -2.0003 H   0  0  0  0  0  0  0  0  0  0  0  0
    1.5746   -0.5783    1.4086 H   0  0  0  0  0  0  0  0  0  0  0  0
   -2.5128   -1.2555   -0.8119 H   0  0  0  0  0  0  0  0  0  0  0  0
    1.6993    2.8886    0.3791 H   0  0  0  0  0  0  0  0  0  0  0  0
   -0.2024    4.3255    1.1150 H   0  0  0  0  0  0  0  0  0  0  0  0
   -2.5659    6.2147    4.5625 H   0  0  0  0  0  0  0  0  0  0  0  0
   -4.0415    5.4695    3.9355 H   0  0  0  0  0  0  0  0  0  0  0  0
   -1.2957    5.5051    2.8388 H   0  0  0  0  0  0  0  0  0  0  0  0
   -2.8086    5.1605    1.9928 H   0  0  0  0  0  0  0  0  0  0  0  0
   -1.8653    0.8017    2.2878 H   0  0  0  0  0  0  0  0  0  0  0  0
   -0.0679    0.7483    2.2189 H   0  0  0  0  0  0  0  0  0  0  0  0
   -1.0057   -0.1494    4.2590 H   0  0  0  0  0  0  0  0  0  0  0  0
    0.1930    1.1162    4.4631 H   0  0  0  0  0  0  0  0  0  0  0  0
   -2.8434    1.3757    4.6656 H   0  0  0  0  0  0  0  0  0  0  0  0
   -1.6637    1.5058    5.9537 H   0  0  0  0  0  0  0  0  0  0  0  0
   -0.2105    4.8490    4.7273 H   0  0  0  0  0  0  0  0  0  0  0  0
   -0.1778    3.7206    6.0735 H   0  0  0  0  0  0  0  0  0  0  0  0
    0.5124    3.2548    4.5431 H   0  0  0  0  0  0  0  0  0  0  0  0
   -1.7383    5.1313    6.6914 H   0  0  0  0  0  0  0  0  0  0  0  0
   -3.6580    5.8933    7.9452 H   0  0  0  0  0  0  0  0  0  0  0  0
   -3.7199    6.4086    6.3190 H   0  0  0  0  0  0  0  0  0  0  0  0
   -5.9414    5.6823    6.7514 H   0  0  0  0  0  0  0  0  0  0  0  0
   -5.3150    4.5416    5.6677 H   0  0  0  0  0  0  0  0  0  0  0  0
   -6.5162    3.4023    7.4744 H   0  0  0  0  0  0  0  0  0  0  0  0
   -4.9505    2.8544    7.4057 H   0  0  0  0  0  0  0  0  0  0  0  0
   -5.3387    3.2634    9.7537 H   0  0  0  0  0  0  0  0  0  0  0  0
   -4.2640    4.5396    9.2898 H   0  0  0  0  0  0  0  0  0  0  0  0
   -7.8152    3.7445    9.9301 H   0  0  0  0  0  0  0  0  0  0  0  0
   -8.4550    5.3931    9.6363 H   0  0  0  0  0  0  0  0  0  0  0  0
   -7.9018    4.4433    8.3064 H   0  0  0  0  0  0  0  0  0  0  0  0
   -5.0471    6.0936   11.1062 H   0  0  0  0  0  0  0  0  0  0  0  0
   -6.7643    6.4050   11.2886 H   0  0  0  0  0  0  0  0  0  0  0  0
   -6.1164    4.7877   11.6815 H   0  0  0  0  0  0  0  0  0  0  0  0
   -1.5113    2.8620    7.4564 H   0  0  0  0  0  0  0  0  0  0  0  0
   -2.5530    3.6344    8.5998 H   0  0  0  0  0  0  0  0  0  0  0  0
   -3.1853    2.5324    7.3509 H   0  0  0  0  0  0  0  0  0  0  0  0
   -6.8872    6.9831    8.8958 H   0  0  0  0  0  0  0  0  0  0  0  0
   -2.1120    2.4171   -0.5908 H   0  0  0  0  0  0  0  0  0  0  0  0
   -3.0676    0.8835   -0.2377 H   0  0  0  0  0  0  0  0  0  0  0  0
  1  2  1  0  0  0  0
  1  6  1  0  0  0  0
  1  7  1  0  0  0  0
  1 34  1  6  0  0  0
  2  3  1  0  0  0  0
  2 35  1  0  0  0  0
  2 36  1  0  0  0  0
  3  4  1  0  0  0  0
  3  8  1  0  0  0  0
  3 37  1  1  0  0  0
  4  5  1  0  0  0  0
  4 31  2  0  0  0  0
  5  6  1  0  0  0  0
  5  9  2  0  0  0  0
  6 38  1  0  0  0  0
  6 39  1  0  0  0  0
  7 40  1  0  0  0  0
  8 41  1  0  0  0  0
  9 10  1  0  0  0  0
  9 42  1  0  0  0  0
 10 15  2  0  0  0  0
 10 43  1  0  0  0  0
 11 12  1  0  0  0  0
 11 19  1  0  0  0  0
 11 33  1  6  0  0  0
 11 21  1  0  0  0  0
 12 13  1  0  0  0  0
 12 44  1  0  0  0  0
 12 45  1  0  0  0  0
 13 14  1  0  0  0  0
 13 46  1  0  0  0  0
 13 47  1  0  0  0  0
 14 15  1  0  0  0  0
 14 19  1  0  0  0  0
 14 32  1  6  0  0  0
 15 16  1  0  0  0  0
 16 17  1  0  0  0  0
 16 48  1  0  0  0  0
 16 49  1  0  0  0  0
 17 18  1  0  0  0  0
 17 50  1  0  0  0  0
 17 51  1  0  0  0  0
 18 19  1  0  0  0  0
 18 52  1  0  0  0  0
 18 53  1  0  0  0  0
 19 20  1  1  0  0  0
 20 54  1  0  0  0  0
 20 55  1  0  0  0  0
 20 56  1  0  0  0  0
 21 22  1  0  0  0  0
 21 29  1  0  0  0  0
 21 57  1  1  0  0  0
 22 23  1  0  0  0  0
 22 58  1  0  0  0  0
 22 59  1  0  0  0  0
 23 24  1  0  0  0  0
 23 60  1  0  0  0  0
 23 61  1  0  0  0  0
 24 25  1  0  0  0  0
 24 62  1  0  0  0  0
 24 63  1  0  0  0  0
 25 26  1  0  0  0  0
 25 64  1  0  0  0  0
 25 65  1  0  0  0  0
 26 27  1  0  0  0  0
 26 28  1  0  0  0  0
 26 30  1  0  0  0  0
 27 66  1  0  0  0  0
 27 67  1  0  0  0  0
 27 68  1  0  0  0  0
 28 69  1  0  0  0  0
 28 70  1  0  0  0  0
 28 71  1  0  0  0  0
 29 72  1  0  0  0  0
 29 73  1  0  0  0  0
 29 74  1  0  0  0  0
 30 75  1  0  0  0  0
 31 76  1  0  0  0  0
 31 77  1  0  0  0  0
M  END
>  <DRUGBANK_ID>
DB15557

>  <COMMON_NAME>
24-Homo-1,25-dihydroxyvitamin D3

>  <CAS_NUMBER>
103656-40-2

>  <UNII>
F35KTH803S

>  <SYNONYMS>
24-Homo-calcitriol

$$$$
