
 OpenBabel10282417203D

196196  0  0  1  0  0  0  0  0999 V2000
   -2.5981    6.2991   -4.3031 C   0  0  0  0  0  0  0  0  0  0  0  0
   -4.4793    6.5504   -7.7524 C   0  0  0  0  0  0  0  0  0  0  0  0
   -7.3851    6.8423  -11.4751 C   0  0  1  0  0  0  0  0  0  0  0  0
  -10.5978    7.7359  -15.3650 C   0  0  0  0  0  0  0  0  0  0  0  0
  -11.8848    8.0362  -17.3273 O   0  0  0  0  0  0  0  0  0  0  0  0
  -13.6872    8.6174  -19.0690 N   0  0  0  0  0  0  0  0  0  0  0  0
  -16.2662    8.7923  -22.3358 C   0  0  0  0  0  0  0  0  0  0  0  0
  -17.6553    9.1800  -25.3978 C   0  0  0  0  0  0  0  0  0  0  0  0
  -17.1432    9.7095  -26.9691 O   0  0  0  0  0  0  0  0  0  0  0  0
  -17.1048    8.7740  -24.9071 N   0  0  0  0  0  0  0  0  0  0  0  0
  -15.7191    8.8126  -24.9337 C   0  0  2  0  0  0  0  0  0  0  0  0
  -15.2076    9.8117  -23.9025 C   0  0  0  0  0  0  0  0  0  0  0  0
  -15.5592   11.0185  -24.0002 O   0  0  0  0  0  0  0  0  0  0  0  0
  -14.3702    9.3486  -22.7976 N   0  0  0  0  0  0  0  0  0  0  0  0
  -13.8819   10.3112  -21.7926 C   0  0  2  0  0  0  0  0  0  0  0  0
  -14.3712   10.0217  -20.4198 C   0  0  0  0  0  0  0  0  0  0  0  0
  -15.6517    9.8876  -20.1799 O   0  0  0  0  0  0  0  0  0  0  0  0
  -13.3149    9.8521  -19.3325 N   0  0  0  0  0  0  0  0  0  0  0  0
  -13.9465    9.2721  -17.9263 C   0  0  2  0  0  0  0  0  0  0  0  0
  -13.6004    7.7342  -17.5226 C   0  0  0  0  0  0  0  0  0  0  0  0
  -13.7353    6.8285  -18.3930 O   0  0  0  0  0  0  0  0  0  0  0  0
  -12.7079    7.5685  -16.3567 N   0  0  0  0  0  0  0  0  0  0  0  0
  -12.0917    6.2699  -16.1426 C   0  0  2  0  0  0  0  0  0  0  0  0
  -10.5454    6.2299  -16.1610 C   0  0  0  0  0  0  0  0  0  0  0  0
   -9.9256    6.5838  -17.1965 O   0  0  0  0  0  0  0  0  0  0  0  0
   -9.8296    5.9292  -14.9217 N   0  0  0  0  0  0  0  0  0  0  0  0
   -8.3586    5.9297  -14.9169 C   0  0  1  0  0  0  0  0  0  0  0  0
   -7.8492    6.9313  -13.8863 C   0  0  0  0  0  0  0  0  0  0  0  0
   -8.1603    8.1468  -13.9900 O   0  0  0  0  0  0  0  0  0  0  0  0
   -7.0022    6.4604  -12.8314 N   0  0  0  0  0  0  0  0  0  0  0  0
   -6.3869    7.6255  -11.9341 C   0  0  2  0  0  0  0  0  0  0  0  0
   -7.2239    7.4662  -10.0662 C   0  0  0  0  0  0  0  0  0  0  0  0
   -8.3205    6.9733  -10.1573 O   0  0  0  0  0  0  0  0  0  0  0  0
   -6.2019    6.9021   -9.3379 N   0  0  0  0  0  0  0  0  0  0  0  0
   -6.5712    6.3416   -7.9879 C   0  0  2  0  0  0  0  0  0  0  0  0
   -6.0613    4.9377   -7.6436 C   0  0  0  0  0  0  0  0  0  0  0  0
   -6.3422    3.9854   -8.4133 O   0  0  0  0  0  0  0  0  0  0  0  0
   -5.2216    4.7434   -6.4526 N   0  0  0  0  0  0  0  0  0  0  0  0
   -4.7174    3.4020   -6.1311 C   0  0  2  0  0  0  0  0  0  0  0  0
   -3.2143    3.3549   -6.1365 C   0  0  0  0  0  0  0  0  0  0  0  0
   -2.5665    3.6834   -7.1961 O   0  0  0  0  0  0  0  0  0  0  0  0
   -2.4685    3.0423   -4.9075 N   0  0  0  0  0  0  0  0  0  0  0  0
   -1.0265    3.0249   -4.9969 C   0  0  2  0  0  0  0  0  0  0  0  0
   -2.5254    4.9047   -6.1065 C   0  0  0  0  0  0  0  0  0  0  0  0
   -0.9774    5.1307   -4.2493 O   0  0  0  0  0  0  0  0  0  0  0  0
   -4.6985    5.6364   -8.5032 N   0  0  0  0  0  0  0  0  0  0  0  0
   -0.4730    3.4389   -6.2868 C   0  0  1  0  0  0  0  0  0  0  0  0
    1.0377    3.4479   -6.2851 C   0  0  2  0  0  0  0  0  0  0  0  0
    1.5418    4.6887   -5.5725 C   0  0  0  0  0  0  0  0  0  0  0  0
    1.5471    3.4408   -7.7145 C   0  0  0  0  0  0  0  0  0  0  0  0
    3.0624    3.4367   -7.7194 C   0  0  0  0  0  0  0  0  0  0  0  0
    3.7452    2.4215   -8.2995 C   0  0  0  0  0  0  0  0  0  0  0  0
    5.2595    2.4177   -8.3018 C   0  0  0  0  0  0  0  0  0  0  0  0
   -0.9476    2.5080   -7.2481 O   0  0  0  0  0  0  0  0  0  0  0  0
   -3.1930    2.6978   -3.6843 C   0  0  0  0  0  0  0  0  0  0  0  0
   -5.2204    2.4034   -7.1576 C   0  0  0  0  0  0  0  0  0  0  0  0
   -4.7158    1.0184   -6.8172 C   0  0  0  0  0  0  0  0  0  0  0  0
   -6.7415    2.3989   -7.1564 C   0  0  0  0  0  0  0  0  0  0  0  0
   -4.8621    5.8856   -5.6023 C   0  0  0  0  0  0  0  0  0  0  0  0
   -8.0757    6.3361   -7.9872 C   0  0  0  0  0  0  0  0  0  0  0  0
   -8.5850    5.9446   -6.6177 C   0  0  0  0  0  0  0  0  0  0  0  0
   -8.0784    6.9354   -5.5865 C   0  0  0  0  0  0  0  0  0  0  0  0
  -10.1012    5.9423   -6.6176 C   0  0  0  0  0  0  0  0  0  0  0  0
   -4.5898    6.8367   -9.6230 C   0  0  0  0  0  0  0  0  0  0  0  0
   -7.0191    8.8307  -12.1232 C   0  0  0  0  0  0  0  0  0  0  0  0
   -6.5145    9.8157  -11.0933 C   0  0  0  0  0  0  0  0  0  0  0  0
   -4.9973    9.8144  -11.0904 C   0  0  0  0  0  0  0  0  0  0  0  0
   -7.0215   11.2019  -11.4355 C   0  0  0  0  0  0  0  0  0  0  0  0
   -6.6330    5.0532  -12.6480 C   0  0  0  0  0  0  0  0  0  0  0  0
   -7.8732    4.5429  -14.6012 C   0  0  0  0  0  0  0  0  0  0  0  0
  -12.5860    5.2865  -17.1698 C   0  0  0  0  0  0  0  0  0  0  0  0
  -15.4476    9.2216  -17.9968 C   0  0  0  0  0  0  0  0  0  0  0  0
  -15.9527    8.8266  -16.6298 C   0  0  0  0  0  0  0  0  0  0  0  0
  -15.4452    9.8173  -15.5987 C   0  0  0  0  0  0  0  0  0  0  0  0
  -17.4683    8.8242  -16.6299 C   0  0  0  0  0  0  0  0  0  0  0  0
  -11.9841    9.6822  -19.5978 C   0  0  0  0  0  0  0  0  0  0  0  0
  -14.3843   11.7030  -22.1318 C   0  0  0  0  0  0  0  0  0  0  0  0
  -13.8834   12.6943  -21.1048 C   0  0  0  0  0  0  0  0  0  0  0  0
  -13.8756   12.1029  -23.5079 C   0  0  0  0  0  0  0  0  0  0  0  0
  -15.2097    9.2070  -26.3058 C   0  0  1  0  0  0  0  0  0  0  0  0
  -13.6995    9.2103  -26.3085 C   0  0  0  0  0  0  0  0  0  0  0  0
  -15.7197    8.2112  -27.3417 C   0  0  0  0  0  0  0  0  0  0  0  0
  -17.2351    8.1302  -27.3778 C   0  0  0  0  0  0  0  0  0  0  0  0
  -18.0320    8.2248  -23.5891 C   0  0  0  0  0  0  0  0  0  0  0  0
  -16.3580   10.0787  -22.0097 C   0  0  0  0  0  0  0  0  0  0  0  0
   -1.7547    5.3859   -2.2557 H   0  0  0  0  0  0  0  0  0  0  0  0
   -1.5454    6.9960   -2.1070 H   0  0  0  0  0  0  0  0  0  0  0  0
   -1.5057    6.0380   -1.6587 H   0  0  0  0  0  0  0  0  0  0  0  0
   -2.3519    6.3638   -5.7497 H   0  0  0  0  0  0  0  0  0  0  0  0
   -2.5010    6.5096   -5.5945 H   0  0  0  0  0  0  0  0  0  0  0  0
   -5.6588    6.0914   -9.3450 H   0  0  0  0  0  0  0  0  0  0  0  0
  -18.1499    8.7264  -24.7255 H   0  0  0  0  0  0  0  0  0  0  0  0
  -18.5221    8.9506  -24.3211 H   0  0  0  0  0  0  0  0  0  0  0  0
  -15.3671    7.8322  -24.6871 H   0  0  0  0  0  0  0  0  0  0  0  0
  -14.1259    8.3621  -22.7080 H   0  0  0  0  0  0  0  0  0  0  0  0
  -12.8130   10.3098  -21.7942 H   0  0  0  0  0  0  0  0  0  0  0  0
  -13.5649    9.9248  -17.2782 H   0  0  0  0  0  0  0  0  0  0  0  0
  -12.3405    8.4277  -15.8835 H   0  0  0  0  0  0  0  0  0  0  0  0
  -12.4398    6.0037  -15.1701 H   0  0  0  0  0  0  0  0  0  0  0  0
  -10.3369    5.6873  -14.0702 H   0  0  0  0  0  0  0  0  0  0  0  0
   -7.9995    6.2116  -15.8896 H   0  0  0  0  0  0  0  0  0  0  0  0
   -5.4381    7.4291  -11.7834 H   0  0  0  0  0  0  0  0  0  0  0  0
   -6.2028    7.0426   -7.2717 H   0  0  0  0  0  0  0  0  0  0  0  0
   -5.0753    3.1244   -5.1618 H   0  0  0  0  0  0  0  0  0  0  0  0
   -0.6358    2.0659   -4.6618 H   0  0  0  0  0  0  0  0  0  0  0  0
   -3.0080    4.7600   -6.6380 H   0  0  0  0  0  0  0  0  0  0  0  0
   -0.8297    4.4268   -6.5346 H   0  0  0  0  0  0  0  0  0  0  0  0
    1.3943    2.5728   -5.7746 H   0  0  0  0  0  0  0  0  0  0  0  0
    2.5051    4.5975   -5.1077 H   0  0  0  0  0  0  0  0  0  0  0  0
    1.5591    5.5068   -6.2665 H   0  0  0  0  0  0  0  0  0  0  0  0
    0.8075    4.8764   -4.8231 H   0  0  0  0  0  0  0  0  0  0  0  0
    1.1861    2.5636   -8.2190 H   0  0  0  0  0  0  0  0  0  0  0  0
    1.1862    4.3138   -8.2261 H   0  0  0  0  0  0  0  0  0  0  0  0
    3.5987    4.2462   -7.2560 H   0  0  0  0  0  0  0  0  0  0  0  0
    3.2085    1.6125   -8.7624 H   0  0  0  0  0  0  0  0  0  0  0  0
    5.6209    1.5448   -7.7927 H   0  0  0  0  0  0  0  0  0  0  0  0
    5.6209    2.4140   -9.3122 H   0  0  0  0  0  0  0  0  0  0  0  0
    5.6216    3.2951   -7.7998 H   0  0  0  0  0  0  0  0  0  0  0  0
   -0.6243    1.6049   -7.0212 H   0  0  0  0  0  0  0  0  0  0  0  0
   -2.9359    1.7012   -3.3851 H   0  0  0  0  0  0  0  0  0  0  0  0
   -2.9360    3.3835   -2.9008 H   0  0  0  0  0  0  0  0  0  0  0  0
   -4.2466    2.7508   -3.8669 H   0  0  0  0  0  0  0  0  0  0  0  0
   -4.8624    2.6848   -8.1330 H   0  0  0  0  0  0  0  0  0  0  0  0
   -5.0720    0.7365   -5.8450 H   0  0  0  0  0  0  0  0  0  0  0  0
   -5.0721    0.3150   -7.5439 H   0  0  0  0  0  0  0  0  0  0  0  0
   -3.6430    1.0157   -6.8164 H   0  0  0  0  0  0  0  0  0  0  0  0
   -7.1196    3.3707   -7.3822 H   0  0  0  0  0  0  0  0  0  0  0  0
   -7.0996    1.7059   -7.8893 H   0  0  0  0  0  0  0  0  0  0  0  0
   -7.0998    2.1278   -6.1901 H   0  0  0  0  0  0  0  0  0  0  0  0
   -5.2140    5.7223   -4.6168 H   0  0  0  0  0  0  0  0  0  0  0  0
   -3.8187    5.9923   -5.5529 H   0  0  0  0  0  0  0  0  0  0  0  0
   -5.2915    6.7831   -6.0016 H   0  0  0  0  0  0  0  0  0  0  0  0
   -8.4353    7.3203   -8.2352 H   0  0  0  0  0  0  0  0  0  0  0  0
   -8.4350    5.6358   -8.7207 H   0  0  0  0  0  0  0  0  0  0  0  0
   -8.2269    4.9617   -6.3735 H   0  0  0  0  0  0  0  0  0  0  0  0
   -8.4339    7.9184   -5.8288 H   0  0  0  0  0  0  0  0  0  0  0  0
   -8.4339    6.6578   -4.6142 H   0  0  0  0  0  0  0  0  0  0  0  0
   -7.0079    6.9381   -5.5834 H   0  0  0  0  0  0  0  0  0  0  0  0
  -10.4613    5.2413   -7.3453 H   0  0  0  0  0  0  0  0  0  0  0  0
  -10.4613    5.6630   -5.6465 H   0  0  0  0  0  0  0  0  0  0  0  0
  -10.4615    6.9234   -6.8612 H   0  0  0  0  0  0  0  0  0  0  0  0
   -4.1766    7.5238   -8.9323 H   0  0  0  0  0  0  0  0  0  0  0  0
   -4.1557    5.8460   -9.4628 H   0  0  0  0  0  0  0  0  0  0  0  0
   -4.4509    7.0877  -10.6008 H   0  0  0  0  0  0  0  0  0  0  0  0
   -6.6636    9.1008  -13.0936 H   0  0  0  0  0  0  0  0  0  0  0  0
   -8.0944    8.8204  -12.1210 H   0  0  0  0  0  0  0  0  0  0  0  0
   -6.8724    9.5356  -10.1194 H   0  0  0  0  0  0  0  0  0  0  0  0
   -4.6373   10.0927  -12.0621 H   0  0  0  0  0  0  0  0  0  0  0  0
   -4.6376   10.5144  -10.3632 H   0  0  0  0  0  0  0  0  0  0  0  0
   -4.6367    8.8362  -10.8474 H   0  0  0  0  0  0  0  0  0  0  0  0
   -8.0942   11.2045  -11.4363 H   0  0  0  0  0  0  0  0  0  0  0  0
   -6.6650   11.9057  -10.7087 H   0  0  0  0  0  0  0  0  0  0  0  0
   -6.6650   11.4842  -12.4076 H   0  0  0  0  0  0  0  0  0  0  0  0
   -5.5828    4.9389  -12.7005 H   0  0  0  0  0  0  0  0  0  0  0  0
   -7.0135    4.6565  -11.7303 H   0  0  0  0  0  0  0  0  0  0  0  0
   -6.8718    4.5079  -13.4344 H   0  0  0  0  0  0  0  0  0  0  0  0
   -8.5619    3.8083  -14.9047 H   0  0  0  0  0  0  0  0  0  0  0  0
   -6.9112    4.3707  -15.0640 H   0  0  0  0  0  0  0  0  0  0  0  0
   -7.9388    4.4405  -13.5367 H   0  0  0  0  0  0  0  0  0  0  0  0
  -12.2315    4.3081  -16.9307 H   0  0  0  0  0  0  0  0  0  0  0  0
  -13.6608    5.2864  -17.1726 H   0  0  0  0  0  0  0  0  0  0  0  0
  -12.2297    5.5664  -18.1452 H   0  0  0  0  0  0  0  0  0  0  0  0
  -15.8022   10.2024  -18.2482 H   0  0  0  0  0  0  0  0  0  0  0  0
  -15.8046    8.5177  -18.7317 H   0  0  0  0  0  0  0  0  0  0  0  0
  -15.5943    7.8434  -16.3858 H   0  0  0  0  0  0  0  0  0  0  0  0
  -15.8010   10.8002  -15.8411 H   0  0  0  0  0  0  0  0  0  0  0  0
  -15.8011    9.5397  -14.6265 H   0  0  0  0  0  0  0  0  0  0  0  0
  -14.3726    9.8194  -15.5960 H   0  0  0  0  0  0  0  0  0  0  0  0
  -17.8284    8.1231  -17.3576 H   0  0  0  0  0  0  0  0  0  0  0  0
  -17.8284    8.5449  -15.6588 H   0  0  0  0  0  0  0  0  0  0  0  0
  -17.8286    9.8053  -16.8735 H   0  0  0  0  0  0  0  0  0  0  0  0
  -11.5444   10.4004  -18.9404 H   0  0  0  0  0  0  0  0  0  0  0  0
  -11.5437    8.7186  -19.4263 H   0  0  0  0  0  0  0  0  0  0  0  0
  -11.8182    9.9705  -20.6114 H   0  0  0  0  0  0  0  0  0  0  0  0
  -15.4600   11.7039  -22.1324 H   0  0  0  0  0  0  0  0  0  0  0  0
  -12.8104   12.6955  -21.1028 H   0  0  0  0  0  0  0  0  0  0  0  0
  -14.2397   13.6762  -21.3464 H   0  0  0  0  0  0  0  0  0  0  0  0
  -14.2397   12.4166  -20.1317 H   0  0  0  0  0  0  0  0  0  0  0  0
  -14.2074   11.4089  -24.2471 H   0  0  0  0  0  0  0  0  0  0  0  0
  -14.2395   13.0783  -23.7563 H   0  0  0  0  0  0  0  0  0  0  0  0
  -12.8099   12.0973  -23.5129 H   0  0  0  0  0  0  0  0  0  0  0  0
  -15.5685   10.1934  -26.5503 H   0  0  0  0  0  0  0  0  0  0  0  0
  -13.3395    8.2293  -26.0646 H   0  0  0  0  0  0  0  0  0  0  0  0
  -13.3398    9.4897  -27.2792 H   0  0  0  0  0  0  0  0  0  0  0  0
  -13.3393    9.9112  -25.5810 H   0  0  0  0  0  0  0  0  0  0  0  0
  -15.3665    8.4947  -28.3117 H   0  0  0  0  0  0  0  0  0  0  0  0
  -15.3664    7.2341  -27.0969 H   0  0  0  0  0  0  0  0  0  0  0  0
  -17.7704    9.0316  -27.8038 H   0  0  0  0  0  0  0  0  0  0  0  0
  -17.6024    7.5083  -28.0709 H   0  0  0  0  0  0  0  0  0  0  0  0
  -17.5942    7.8852  -26.3884 H   0  0  0  0  0  0  0  0  0  0  0  0
  -17.6642    7.4395  -23.4048 H   0  0  0  0  0  0  0  0  0  0  0  0
  -17.8348    9.1361  -22.7981 H   0  0  0  0  0  0  0  0  0  0  0  0
  -19.0129    8.4505  -23.7975 H   0  0  0  0  0  0  0  0  0  0  0  0
  -18.6437   10.9729  -23.7602 H   0  0  0  0  0  0  0  0  0  0  0  0
  -17.8295   11.1710  -24.3963 H   0  0  0  0  0  0  0  0  0  0  0  0
  -18.2465   11.2532  -24.1048 H   0  0  0  0  0  0  0  0  0  0  0  0
  1  2  1  0  0  0  0
  1 86  1  0  0  0  0
  1 87  1  0  0  0  0
  1 88  1  0  0  0  0
  2 89  1  0  0  0  0
  2 90  1  0  0  0  0
  3  4  1  0  0  0  0
  3 46  1  0  0  0  0
  3 91  1  1  0  0  0
  3  2  1  0  0  0  0
  4  5  2  0  0  0  0
  4  6  1  0  0  0  0
  6  7  1  0  0  0  0
  6 85  1  0  0  0  0
  7  8  1  0  0  0  0
  7 92  1  0  0  0  0
  7 93  1  0  0  0  0
  8  9  2  0  0  0  0
  8 10  1  0  0  0  0
 10 11  1  0  0  0  0
 10 84  1  0  0  0  0
 11 12  1  0  0  0  0
 11 80  1  0  0  0  0
 11 94  1  1  0  0  0
 12 13  2  0  0  0  0
 12 14  1  0  0  0  0
 14 15  1  0  0  0  0
 14 95  1  0  0  0  0
 15 16  1  0  0  0  0
 15 77  1  0  0  0  0
 15 96  1  6  0  0  0
 16 17  2  0  0  0  0
 16 18  1  0  0  0  0
 18 19  1  0  0  0  0
 18 76  1  0  0  0  0
 19 20  1  0  0  0  0
 19 72  1  0  0  0  0
 19 97  1  1  0  0  0
 20 21  2  0  0  0  0
 20 22  1  0  0  0  0
 22 23  1  0  0  0  0
 22 98  1  0  0  0  0
 23 24  1  0  0  0  0
 23 71  1  0  0  0  0
 23 99  1  1  0  0  0
 24 25  2  0  0  0  0
 24 26  1  0  0  0  0
 26 27  1  0  0  0  0
 26100  1  0  0  0  0
 27 28  1  0  0  0  0
 27101  1  6  0  0  0
 27 70  1  0  0  0  0
 28 29  2  0  0  0  0
 28 30  1  0  0  0  0
 30 31  1  0  0  0  0
 30 69  1  0  0  0  0
 31 32  1  0  0  0  0
 31 65  1  0  0  0  0
 31102  1  6  0  0  0
 32 33  2  0  0  0  0
 32 34  1  0  0  0  0
 34 35  1  0  0  0  0
 34 64  1  0  0  0  0
 35 36  1  0  0  0  0
 35 60  1  0  0  0  0
 35103  1  1  0  0  0
 36 37  2  0  0  0  0
 36 38  1  0  0  0  0
 38 39  1  0  0  0  0
 38 59  1  0  0  0  0
 39 40  1  0  0  0  0
 39 56  1  0  0  0  0
 39104  1  1  0  0  0
 40 41  2  0  0  0  0
 40 42  1  0  0  0  0
 42 43  1  0  0  0  0
 42 55  1  0  0  0  0
 43 44  1  0  0  0  0
 43 47  1  0  0  0  0
 43105  1  1  0  0  0
 44 45  2  0  0  0  0
 44 46  1  0  0  0  0
 46106  1  0  0  0  0
 47 54  1  0  0  0  0
 47107  1  6  0  0  0
 48 50  1  0  0  0  0
 48108  1  1  0  0  0
 48 49  1  0  0  0  0
 48 47  1  0  0  0  0
 49109  1  0  0  0  0
 49110  1  0  0  0  0
 49111  1  0  0  0  0
 50 51  1  0  0  0  0
 50112  1  0  0  0  0
 50113  1  0  0  0  0
 51 52  2  0  0  0  0
 51114  1  0  0  0  0
 52 53  1  0  0  0  0
 52115  1  0  0  0  0
 53116  1  0  0  0  0
 53117  1  0  0  0  0
 53118  1  0  0  0  0
 54119  1  0  0  0  0
 55120  1  0  0  0  0
 55121  1  0  0  0  0
 55122  1  0  0  0  0
 56 57  1  0  0  0  0
 56 58  1  0  0  0  0
 56123  1  0  0  0  0
 57124  1  0  0  0  0
 57125  1  0  0  0  0
 57126  1  0  0  0  0
 58127  1  0  0  0  0
 58128  1  0  0  0  0
 58129  1  0  0  0  0
 59130  1  0  0  0  0
 59131  1  0  0  0  0
 59132  1  0  0  0  0
 60 61  1  0  0  0  0
 60133  1  0  0  0  0
 60134  1  0  0  0  0
 61 62  1  0  0  0  0
 61 63  1  0  0  0  0
 61135  1  0  0  0  0
 62136  1  0  0  0  0
 62137  1  0  0  0  0
 62138  1  0  0  0  0
 63139  1  0  0  0  0
 63140  1  0  0  0  0
 63141  1  0  0  0  0
 64142  1  0  0  0  0
 64143  1  0  0  0  0
 64144  1  0  0  0  0
 65 66  1  0  0  0  0
 65145  1  0  0  0  0
 65146  1  0  0  0  0
 66 67  1  0  0  0  0
 66 68  1  0  0  0  0
 66147  1  0  0  0  0
 67148  1  0  0  0  0
 67149  1  0  0  0  0
 67150  1  0  0  0  0
 68151  1  0  0  0  0
 68152  1  0  0  0  0
 68153  1  0  0  0  0
 69154  1  0  0  0  0
 69155  1  0  0  0  0
 69156  1  0  0  0  0
 70157  1  0  0  0  0
 70158  1  0  0  0  0
 70159  1  0  0  0  0
 71160  1  0  0  0  0
 71161  1  0  0  0  0
 71162  1  0  0  0  0
 72 73  1  0  0  0  0
 72163  1  0  0  0  0
 72164  1  0  0  0  0
 73 74  1  0  0  0  0
 73 75  1  0  0  0  0
 73165  1  0  0  0  0
 74166  1  0  0  0  0
 74167  1  0  0  0  0
 74168  1  0  0  0  0
 75169  1  0  0  0  0
 75170  1  0  0  0  0
 75171  1  0  0  0  0
 76172  1  0  0  0  0
 76173  1  0  0  0  0
 76174  1  0  0  0  0
 77 78  1  0  0  0  0
 77 79  1  0  0  0  0
 77175  1  0  0  0  0
 78176  1  0  0  0  0
 78177  1  0  0  0  0
 78178  1  0  0  0  0
 79179  1  0  0  0  0
 79180  1  0  0  0  0
 79181  1  0  0  0  0
 80 81  1  0  0  0  0
 80 82  1  0  0  0  0
 80182  1  6  0  0  0
 81183  1  0  0  0  0
 81184  1  0  0  0  0
 81185  1  0  0  0  0
 82 83  1  0  0  0  0
 82186  1  0  0  0  0
 82187  1  0  0  0  0
 83188  1  0  0  0  0
 83189  1  0  0  0  0
 83190  1  0  0  0  0
 84191  1  0  0  0  0
 84192  1  0  0  0  0
 84193  1  0  0  0  0
 85194  1  0  0  0  0
 85195  1  0  0  0  0
 85196  1  0  0  0  0
M  END
>  <DRUGBANK_ID>
DB13068

>  <COMMON_NAME>
9-(N-methyl-L-isoleucine)-cyclosporin A

>  <CAS_NUMBER>
143205-42-9

>  <UNII>
96262S4I14

$$$$
