
 OpenBabel10282417123D

 20 19  0  0  0  0  0  0  0  0999 V2000
    1.0872   -0.1241    0.0097 N   0  3  0  0  0  0  0  0  0  0  0  0
    0.6324    0.3605    1.3384 C   0  0  0  0  0  0  0  0  0  0  0  0
    1.1386    1.7839    1.5398 C   0  0  0  0  0  0  0  0  0  0  0  0
    0.5554    2.7909    0.5307 C   0  0  0  0  0  0  0  0  0  0  0  0
   -0.9776    2.8496    0.5165 C   0  0  0  0  0  0  0  0  0  0  0  0
   -1.5331    3.2330    1.8668 C   0  0  0  0  0  0  0  0  0  0  0  0
   -2.2637    4.3553    1.8902 O   0  0  0  0  0  0  0  0  0  0  0  0
   -1.3364    2.5525    2.8674 O   0  0  0  0  0  0  0  0  0  0  0  0
    0.7398    0.4587   -0.7618 H   0  0  0  0  0  0  0  0  0  0  0  0
    0.7623   -1.0822   -0.1696 H   0  0  0  0  0  0  0  0  0  0  0  0
    2.1144   -0.1270   -0.0436 H   0  0  0  0  0  0  0  0  0  0  0  0
   -0.4580    0.2826    1.3505 H   0  0  0  0  0  0  0  0  0  0  0  0
    1.0378   -0.3258    2.0858 H   0  0  0  0  0  0  0  0  0  0  0  0
    0.9133    2.1040    2.5622 H   0  0  0  0  0  0  0  0  0  0  0  0
    2.2336    1.8016    1.4786 H   0  0  0  0  0  0  0  0  0  0  0  0
    0.9603    3.7860    0.7484 H   0  0  0  0  0  0  0  0  0  0  0  0
    0.9105    2.5384   -0.4765 H   0  0  0  0  0  0  0  0  0  0  0  0
   -1.3155    3.5447   -0.2577 H   0  0  0  0  0  0  0  0  0  0  0  0
   -1.4086    1.8782    0.2477 H   0  0  0  0  0  0  0  0  0  0  0  0
   -2.4090    4.8102    1.0393 H   0  0  0  0  0  0  0  0  0  0  0  0
  1  2  1  0  0  0  0
  1  9  1  0  0  0  0
  1 10  1  0  0  0  0
  1 11  1  0  0  0  0
  2  3  1  0  0  0  0
  2 12  1  0  0  0  0
  2 13  1  0  0  0  0
  3  4  1  0  0  0  0
  3 14  1  0  0  0  0
  3 15  1  0  0  0  0
  4  5  1  0  0  0  0
  4 16  1  0  0  0  0
  4 17  1  0  0  0  0
  5  6  1  0  0  0  0
  5 18  1  0  0  0  0
  5 19  1  0  0  0  0
  6  7  1  0  0  0  0
  6  8  2  0  0  0  0
  7 20  1  0  0  0  0
M  CHG  1   1   1
M  END
>  <DRUGBANK_ID>
DB02068

>  <SECONDARY_ACCESSION_NUMBERS>
EXPT01116

>  <COMMON_NAME>
Delta-Amino Valeric Acid

$$$$
