
 OpenBabel10282417223D

 23 22  0  0  0  0  0  0  0  0999 V2000
    0.9579    0.0294    0.1277 C   0  0  0  0  0  0  0  0  0  0  0  0
    0.5105    0.3086    1.4572 O   0  0  0  0  0  0  0  0  0  0  0  0
    0.4686    1.1018   -0.8401 C   0  0  0  0  0  0  0  0  0  0  0  0
    0.7984   -0.5407    2.4730 C   0  0  0  0  0  0  0  0  0  0  0  0
    0.9198    0.7901   -2.2723 C   0  0  0  0  0  0  0  0  0  0  0  0
    1.6568   -1.7501    2.2056 C   0  0  0  0  0  0  0  0  0  0  0  0
    0.3752   -0.3184    3.6076 O   0  0  0  0  0  0  0  0  0  0  0  0
    0.4036   -0.5584   -2.7879 C   0  0  0  0  0  0  0  0  0  0  0  0
   -1.1167   -0.6135   -2.7908 C   0  0  0  0  0  0  0  0  0  0  0  0
    0.5543   -0.9455   -0.1584 H   0  0  0  0  0  0  0  0  0  0  0  0
    2.0525    0.0135    0.1101 H   0  0  0  0  0  0  0  0  0  0  0  0
   -0.6224    1.1928   -0.7830 H   0  0  0  0  0  0  0  0  0  0  0  0
    0.8468    2.0840   -0.5340 H   0  0  0  0  0  0  0  0  0  0  0  0
    0.5802    1.5879   -2.9436 H   0  0  0  0  0  0  0  0  0  0  0  0
    2.0166    0.7930   -2.3139 H   0  0  0  0  0  0  0  0  0  0  0  0
    2.5667   -1.6730    2.8071 H   0  0  0  0  0  0  0  0  0  0  0  0
    1.0998   -2.6488    2.4856 H   0  0  0  0  0  0  0  0  0  0  0  0
    1.9674   -1.8780    1.1699 H   0  0  0  0  0  0  0  0  0  0  0  0
    0.7797   -0.7314   -3.8020 H   0  0  0  0  0  0  0  0  0  0  0  0
    0.8008   -1.3813   -2.1831 H   0  0  0  0  0  0  0  0  0  0  0  0
   -1.5222    0.1632   -3.4462 H   0  0  0  0  0  0  0  0  0  0  0  0
   -1.4668   -1.5876   -3.1399 H   0  0  0  0  0  0  0  0  0  0  0  0
   -1.5331   -0.4642   -1.7899 H   0  0  0  0  0  0  0  0  0  0  0  0
  1  2  1  0  0  0  0
  1  3  1  0  0  0  0
  1 10  1  0  0  0  0
  1 11  1  0  0  0  0
  2  4  1  0  0  0  0
  3  5  1  0  0  0  0
  3 12  1  0  0  0  0
  3 13  1  0  0  0  0
  4  6  1  0  0  0  0
  4  7  2  0  0  0  0
  5  8  1  0  0  0  0
  5 14  1  0  0  0  0
  5 15  1  0  0  0  0
  6 16  1  0  0  0  0
  6 17  1  0  0  0  0
  6 18  1  0  0  0  0
  8  9  1  0  0  0  0
  8 19  1  0  0  0  0
  8 20  1  0  0  0  0
  9 21  1  0  0  0  0
  9 22  1  0  0  0  0
  9 23  1  0  0  0  0
M  END
>  <DRUGBANK_ID>
DB15927

>  <COMMON_NAME>
Amyl acetate

>  <CAS_NUMBER>
628-63-7

>  <UNII>
92Q24NH7AS

>  <SYNONYMS>
Acetate d'amyle; Acetic acid, amyl ester; Acetic acid, pentyl ester; Amylazetat; Amylester kyseliny octove; N-Amyl acetate; Octan amylu; Pentyl acetate

$$$$
