
 OpenBabel10282417123D

 95 97  0  0  0  0  0  0  0  0999 V2000
    3.6087    1.3873    1.8282 C   0  0  0  0  0  0  0  0  0  0  0  0
    4.4026    3.4084    0.7318 N   0  0  0  0  0  0  0  0  0  0  0  0
    4.3465    2.0983    0.7589 C   0  0  0  0  0  0  0  0  0  0  0  0
    4.9789    1.5801   -0.3595 N   0  0  0  0  0  0  0  0  0  0  0  0
    5.3583    2.6236   -1.1539 C   0  0  0  0  0  0  0  0  0  0  0  0
    4.9635    3.7360   -0.4622 C   0  0  0  0  0  0  0  0  0  0  0  0
    5.2935    0.2174   -0.6707 C   0  0  0  0  0  0  0  0  0  0  0  0
    6.3186   -0.3236    0.2908 C   0  0  0  0  0  0  0  0  0  0  0  0
    5.7712   -0.5039    1.7270 C   0  0  0  0  0  0  0  0  0  0  0  0
    4.3780   -1.2722    1.7899 C   0  0  0  0  0  0  0  0  0  0  0  0
    4.6248   -2.7099    1.6157 C   0  0  0  0  0  0  0  0  0  0  0  0
    3.8117   -3.7078    2.1107 C   0  0  0  0  0  0  0  0  0  0  0  0
    4.2470   -5.0423    1.9834 C   0  0  0  0  0  0  0  0  0  0  0  0
    5.5443   -5.3165    1.4293 C   0  0  0  0  0  0  0  0  0  0  0  0
    6.2259   -4.2962    0.8032 C   0  0  0  0  0  0  0  0  0  0  0  0
    5.7875   -3.0559    0.9783 C   0  0  0  0  0  0  0  0  0  0  0  0
    6.1691   -6.8875    0.7151 C   0  0  0  0  0  0  0  0  0  0  0  0
    6.0319   -6.9565   -1.4797 C   0  0  0  0  0  0  0  0  0  0  0  0
    6.5811   -7.2712   -2.5047 O   0  0  0  0  0  0  0  0  0  0  0  0
    4.2794   -7.4381   -1.9639 N   0  0  0  0  0  0  0  0  0  0  0  0
    2.7914   -6.5775   -1.2499 C   0  0  2  0  0  0  0  0  0  0  0  0
    2.9263   -4.9478   -0.7465 C   0  0  0  0  0  0  0  0  0  0  0  0
    2.1558   -4.3719    0.0084 O   0  0  0  0  0  0  0  0  0  0  0  0
    2.1789   -7.5367   -0.1724 C   0  0  0  0  0  0  0  0  0  0  0  0
    1.0714   -6.9972    0.4931 O   0  0  0  0  0  0  0  0  0  0  0  0
    3.9665   -4.2824   -1.3534 N   0  0  0  0  0  0  0  0  0  0  0  0
    4.8009   -5.2792   -1.7841 C   0  0  2  0  0  0  0  0  0  0  0  0
    4.4808   -5.6193   -3.3104 C   0  0  0  0  0  0  0  0  0  0  0  0
    3.3868   -6.0320   -3.7091 O   0  0  0  0  0  0  0  0  0  0  0  0
    4.7046   -6.6548   -0.3614 C   0  0  0  0  0  0  0  0  0  0  0  0
    5.8021   -8.4860   -0.5101 C   0  0  0  0  0  0  0  0  0  0  0  0
    7.7190   -8.1365   -0.8450 C   0  0  0  0  0  0  0  0  0  0  0  0
    8.4767   -7.4311    0.2398 C   0  0  0  0  0  0  0  0  0  0  0  0
    8.3366   -8.4090    1.2849 N   0  0  0  0  0  0  0  0  0  0  0  0
    5.4841   -5.7883   -4.1817 N   0  0  0  0  0  0  0  0  0  0  0  0
    6.8474   -5.3478   -4.0383 C   0  0  0  0  0  0  0  0  0  0  0  0
    7.8792   -6.3652   -4.4931 C   0  0  0  0  0  0  0  0  0  0  0  0
    7.5892   -6.7956   -5.9047 C   0  0  0  0  0  0  0  0  0  0  0  0
    8.5918   -7.8646   -6.2950 C   0  0  0  0  0  0  0  0  0  0  0  0
    8.4289   -8.2201   -7.7573 C   0  0  0  0  0  0  0  0  0  0  0  0
    8.5470   -6.9823   -8.6377 C   0  0  0  0  0  0  0  0  0  0  0  0
    7.5309   -5.9237   -8.2476 C   0  0  0  0  0  0  0  0  0  0  0  0
    7.6682   -5.5626   -6.7931 C   0  0  0  0  0  0  0  0  0  0  0  0
    3.3774    2.0111    2.6837 H   0  0  0  0  0  0  0  0  0  0  0  0
    4.1651    0.7090    2.4310 H   0  0  0  0  0  0  0  0  0  0  0  0
    2.7624    0.8327    1.4237 H   0  0  0  0  0  0  0  0  0  0  0  0
    5.8423    2.5045   -2.1146 H   0  0  0  0  0  0  0  0  0  0  0  0
    5.0399    4.7649   -0.7632 H   0  0  0  0  0  0  0  0  0  0  0  0
    4.3743   -0.3724   -0.7235 H   0  0  0  0  0  0  0  0  0  0  0  0
    5.7343    0.1370   -1.6752 H   0  0  0  0  0  0  0  0  0  0  0  0
    6.6310   -1.1946   -0.2712 H   0  0  0  0  0  0  0  0  0  0  0  0
    7.2488    0.2438    0.3647 H   0  0  0  0  0  0  0  0  0  0  0  0
    6.4361   -0.9731    2.4623 H   0  0  0  0  0  0  0  0  0  0  0  0
    5.8286    0.5217    2.1035 H   0  0  0  0  0  0  0  0  0  0  0  0
    3.8722   -1.1619    2.7599 H   0  0  0  0  0  0  0  0  0  0  0  0
    3.6559   -0.9606    1.0221 H   0  0  0  0  0  0  0  0  0  0  0  0
    2.8512   -3.4398    2.5551 H   0  0  0  0  0  0  0  0  0  0  0  0
    3.4786   -5.8001    2.1284 H   0  0  0  0  0  0  0  0  0  0  0  0
    6.9015   -4.3822   -0.0479 H   0  0  0  0  0  0  0  0  0  0  0  0
    6.6038   -2.4219    0.7642 H   0  0  0  0  0  0  0  0  0  0  0  0
    6.9058   -6.8469    1.4920 H   0  0  0  0  0  0  0  0  0  0  0  0
    5.3571   -7.5465    1.3273 H   0  0  0  0  0  0  0  0  0  0  0  0
    4.1401   -7.6497   -2.9398 H   0  0  0  0  0  0  0  0  0  0  0  0
    2.0783   -6.3709   -2.0350 H   0  0  0  0  0  0  0  0  0  0  0  0
    2.0424   -8.4565   -0.7316 H   0  0  0  0  0  0  0  0  0  0  0  0
    2.7735   -7.8964    0.6904 H   0  0  0  0  0  0  0  0  0  0  0  0
    1.4182   -6.2196    0.9837 H   0  0  0  0  0  0  0  0  0  0  0  0
    4.3586   -3.3826   -1.0946 H   0  0  0  0  0  0  0  0  0  0  0  0
    5.8513   -4.8834   -1.7612 H   0  0  0  0  0  0  0  0  0  0  0  0
    5.4174   -5.7996   -0.2687 H   0  0  0  0  0  0  0  0  0  0  0  0
    4.0309   -7.1248    0.2340 H   0  0  0  0  0  0  0  0  0  0  0  0
    5.7610   -9.2126    0.2991 H   0  0  0  0  0  0  0  0  0  0  0  0
    5.5251   -9.0366   -1.4495 H   0  0  0  0  0  0  0  0  0  0  0  0
    8.1554   -8.9558   -1.4172 H   0  0  0  0  0  0  0  0  0  0  0  0
    8.0642   -7.2950   -1.5526 H   0  0  0  0  0  0  0  0  0  0  0  0
    9.4784   -7.1100   -0.0181 H   0  0  0  0  0  0  0  0  0  0  0  0
    8.0735   -6.3905    0.3607 H   0  0  0  0  0  0  0  0  0  0  0  0
    8.5452   -7.9762    2.1709 H   0  0  0  0  0  0  0  0  0  0  0  0
    7.3608   -8.7242    1.3747 H   0  0  0  0  0  0  0  0  0  0  0  0
    5.1697   -6.3621   -4.9579 H   0  0  0  0  0  0  0  0  0  0  0  0
    6.8555   -4.4199   -4.5952 H   0  0  0  0  0  0  0  0  0  0  0  0
    7.1238   -5.0537   -3.0307 H   0  0  0  0  0  0  0  0  0  0  0  0
    8.8666   -5.9107   -4.3781 H   0  0  0  0  0  0  0  0  0  0  0  0
    7.9473   -7.2792   -3.8974 H   0  0  0  0  0  0  0  0  0  0  0  0
    6.5871   -7.2410   -5.9733 H   0  0  0  0  0  0  0  0  0  0  0  0
    9.6044   -7.4899   -6.1082 H   0  0  0  0  0  0  0  0  0  0  0  0
    8.4512   -8.7577   -5.6722 H   0  0  0  0  0  0  0  0  0  0  0  0
    9.1967   -8.9462   -8.0314 H   0  0  0  0  0  0  0  0  0  0  0  0
    7.4470   -8.6851   -7.9093 H   0  0  0  0  0  0  0  0  0  0  0  0
    9.5569   -6.5648   -8.5431 H   0  0  0  0  0  0  0  0  0  0  0  0
    8.3935   -7.2589   -9.6826 H   0  0  0  0  0  0  0  0  0  0  0  0
    7.6728   -5.0200   -8.8451 H   0  0  0  0  0  0  0  0  0  0  0  0
    6.5149   -6.2944   -8.4267 H   0  0  0  0  0  0  0  0  0  0  0  0
    6.8724   -4.8518   -6.5492 H   0  0  0  0  0  0  0  0  0  0  0  0
    8.6245   -5.0563   -6.6102 H   0  0  0  0  0  0  0  0  0  0  0  0
  1 44  1  0  0  0  0
  1 45  1  0  0  0  0
  1 46  1  0  0  0  0
  3  1  1  0  0  0  0
  3  2  2  0  0  0  0
  3  4  1  0  0  0  0
  5  4  1  0  0  0  0
  5 47  1  0  0  0  0
  6  2  1  0  0  0  0
  6  5  2  0  0  0  0
  6 48  1  0  0  0  0
  7  4  1  0  0  0  0
  7 49  1  0  0  0  0
  7 50  1  0  0  0  0
  8  7  1  0  0  0  0
  8 51  1  0  0  0  0
  8 52  1  0  0  0  0
  9  8  1  0  0  0  0
  9 53  1  0  0  0  0
  9 54  1  0  0  0  0
 10  9  1  0  0  0  0
 10 55  1  0  0  0  0
 10 56  1  0  0  0  0
 11 10  1  0  0  0  0
 11 16  1  0  0  0  0
 12 11  2  0  0  0  0
 12 57  1  0  0  0  0
 13 12  1  0  0  0  0
 13 58  1  0  0  0  0
 14 13  2  0  0  0  0
 14 15  1  0  0  0  0
 14 17  1  0  0  0  0
 15 59  1  0  0  0  0
 16 15  2  0  0  0  0
 16 60  1  0  0  0  0
 17 18  1  0  0  0  0
 17 61  1  0  0  0  0
 17 62  1  0  0  0  0
 18 19  2  0  0  0  0
 18 20  1  0  0  0  0
 20 63  1  0  0  0  0
 21 24  1  0  0  0  0
 21 64  1  6  0  0  0
 21 22  1  0  0  0  0
 21 20  1  0  0  0  0
 22 23  2  0  0  0  0
 22 26  1  0  0  0  0
 24 25  1  0  0  0  0
 24 65  1  0  0  0  0
 24 66  1  0  0  0  0
 25 67  1  0  0  0  0
 26 68  1  0  0  0  0
 27 30  1  0  0  0  0
 27 69  1  1  0  0  0
 27 28  1  0  0  0  0
 27 26  1  0  0  0  0
 28 29  2  0  0  0  0
 28 35  1  0  0  0  0
 30 31  1  0  0  0  0
 30 70  1  0  0  0  0
 30 71  1  0  0  0  0
 31 72  1  0  0  0  0
 31 73  1  0  0  0  0
 32 31  1  0  0  0  0
 32 33  1  0  0  0  0
 32 74  1  0  0  0  0
 32 75  1  0  0  0  0
 33 34  1  0  0  0  0
 33 76  1  0  0  0  0
 33 77  1  0  0  0  0
 34 78  1  0  0  0  0
 34 79  1  0  0  0  0
 35 80  1  0  0  0  0
 36 35  1  0  0  0  0
 36 37  1  0  0  0  0
 36 81  1  0  0  0  0
 36 82  1  0  0  0  0
 37 38  1  0  0  0  0
 37 83  1  0  0  0  0
 37 84  1  0  0  0  0
 38 39  1  0  0  0  0
 38 85  1  0  0  0  0
 39 86  1  0  0  0  0
 39 87  1  0  0  0  0
 40 39  1  0  0  0  0
 40 41  1  0  0  0  0
 40 88  1  0  0  0  0
 40 89  1  0  0  0  0
 41 90  1  0  0  0  0
 41 91  1  0  0  0  0
 42 41  1  0  0  0  0
 42 92  1  0  0  0  0
 42 93  1  0  0  0  0
 43 38  1  0  0  0  0
 43 42  1  0  0  0  0
 43 94  1  0  0  0  0
 43 95  1  0  0  0  0
M  END
>  <DRUGBANK_ID>
DB02477

>  <SECONDARY_ACCESSION_NUMBERS>
EXPT02176

>  <COMMON_NAME>
N-({4-[4-(2-Methyl-1H-imidazol-1-yl)butyl]phenyl}acetyl)-L-seryl-N-(2-cyclohexylethyl)-L-lysinamide

>  <CAS_NUMBER>
164931-25-3

$$$$
