
 OpenBabel10282417233D

 72 77  0  0  0  0  0  0  0  0999 V2000
    0.9904   -0.0025   -0.0715 C   0  0  0  0  0  0  0  0  0  0  0  0
    0.4916   -0.0216    1.3619 C   0  0  0  0  0  0  0  0  0  0  0  0
    0.9708    1.1316    2.0979 N   0  0  0  0  0  0  0  0  0  0  0  0
    1.7780    1.1386    3.2203 C   0  0  0  0  0  0  0  0  0  0  0  0
    1.8059    2.3648    3.7288 N   0  0  0  0  0  0  0  0  0  0  0  0
    1.1045    3.1787    2.8646 C   0  0  0  0  0  0  0  0  0  0  0  0
    0.5591    2.4269    1.8331 C   0  0  0  0  0  0  0  0  0  0  0  0
   -0.2194    3.0098    0.8249 C   0  0  0  0  0  0  0  0  0  0  0  0
   -0.3598    4.3881    0.8954 C   0  0  0  0  0  0  0  0  0  0  0  0
   -1.0894    4.9566   -0.1502 O   0  0  0  0  0  0  0  0  0  0  0  0
   -1.2266    6.3227   -0.1610 C   0  0  0  0  0  0  0  0  0  0  0  0
   -0.1125    7.1812   -0.1781 C   0  0  0  0  0  0  0  0  0  0  0  0
   -0.3181    8.5454   -0.1039 C   0  0  0  0  0  0  0  0  0  0  0  0
    0.7346    9.4056    0.2832 N   0  0  0  0  0  0  0  0  0  0  0  0
    0.6731   10.7019    0.7873 C   0  0  0  0  0  0  0  0  0  0  0  0
    1.6675   11.3783    0.9178 O   0  0  0  0  0  0  0  0  0  0  0  0
   -0.6617   11.2981    1.0421 C   0  0  0  0  0  0  0  0  0  0  0  0
   -1.7489   10.7253    1.7565 C   0  0  0  0  0  0  0  0  0  0  0  0
   -3.1103   11.0974    1.4784 C   0  0  0  0  0  0  0  0  0  0  0  0
   -3.3740   12.1916    0.6986 C   0  0  0  0  0  0  0  0  0  0  0  0
   -4.6484   12.6586    0.5255 O   0  0  0  0  0  0  0  0  0  0  0  0
   -4.9614   13.8764   -0.2122 C   0  0  0  0  0  0  0  0  0  0  0  0
   -4.4524   15.1890    0.4290 C   0  0  0  0  0  0  0  0  0  0  0  0
   -3.0116   15.3363    0.2830 N   0  0  0  0  0  0  0  0  0  0  0  0
   -2.3898   16.5479    0.7694 C   0  0  0  0  0  0  0  0  0  0  0  0
   -2.5966   17.6061   -0.3171 C   0  0  0  0  0  0  0  0  0  0  0  0
   -2.1305   17.2212   -1.6332 O   0  0  0  0  0  0  0  0  0  0  0  0
   -2.7287   16.0021   -2.0660 C   0  0  0  0  0  0  0  0  0  0  0  0
   -2.4314   14.9811   -1.0338 C   0  0  0  0  0  0  0  0  0  0  0  0
   -2.2061   12.8397    0.3654 C   0  0  0  0  0  0  0  0  0  0  0  0
   -0.9082   12.3764    0.2618 C   0  0  0  0  0  0  0  0  0  0  0  0
   -1.6067    8.9941   -0.3841 C   0  0  0  0  0  0  0  0  0  0  0  0
   -2.7242    8.1722   -0.3394 C   0  0  0  0  0  0  0  0  0  0  0  0
   -2.5346    6.8165   -0.2025 C   0  0  0  0  0  0  0  0  0  0  0  0
    0.1524    5.1532    1.8845 N   0  0  0  0  0  0  0  0  0  0  0  0
    0.8741    4.5608    2.8765 C   0  0  0  0  0  0  0  0  0  0  0  0
    2.4014   -0.0478    3.9249 C   0  0  0  0  0  0  0  0  0  0  0  0
    2.0311   -0.3219    5.1827 N   0  0  0  0  0  0  0  0  0  0  0  0
    2.7661   -1.4344    5.5547 O   0  0  0  0  0  0  0  0  0  0  0  0
    3.6114   -1.8416    4.5387 N   0  0  0  0  0  0  0  0  0  0  0  0
    3.3894   -1.0023    3.5252 C   0  0  0  0  0  0  0  0  0  0  0  0
    4.0719   -1.1212    2.3661 N   0  0  0  0  0  0  0  0  0  0  0  0
    0.6514    0.8844   -0.6139 H   0  0  0  0  0  0  0  0  0  0  0  0
    0.6236   -0.8727   -0.6186 H   0  0  0  0  0  0  0  0  0  0  0  0
    2.0836    0.0113   -0.0961 H   0  0  0  0  0  0  0  0  0  0  0  0
   -0.6054    0.0033    1.3991 H   0  0  0  0  0  0  0  0  0  0  0  0
    0.8160   -0.9320    1.8714 H   0  0  0  0  0  0  0  0  0  0  0  0
   -0.6747    2.4531    0.0172 H   0  0  0  0  0  0  0  0  0  0  0  0
    0.8902    6.7703   -0.1949 H   0  0  0  0  0  0  0  0  0  0  0  0
    1.6821    9.0469    0.2935 H   0  0  0  0  0  0  0  0  0  0  0  0
   -1.5674    9.8541    2.3729 H   0  0  0  0  0  0  0  0  0  0  0  0
   -3.9401   10.5043    1.8439 H   0  0  0  0  0  0  0  0  0  0  0  0
   -4.6991   13.7989   -1.2760 H   0  0  0  0  0  0  0  0  0  0  0  0
   -6.0579   13.9644   -0.2483 H   0  0  0  0  0  0  0  0  0  0  0  0
   -4.9592   16.0471   -0.0260 H   0  0  0  0  0  0  0  0  0  0  0  0
   -4.7302   15.1825    1.4925 H   0  0  0  0  0  0  0  0  0  0  0  0
   -1.3207   16.3374    0.9383 H   0  0  0  0  0  0  0  0  0  0  0  0
   -2.7834   16.8431    1.7509 H   0  0  0  0  0  0  0  0  0  0  0  0
   -3.6657   17.8165   -0.3987 H   0  0  0  0  0  0  0  0  0  0  0  0
   -2.0716   18.5157   -0.0378 H   0  0  0  0  0  0  0  0  0  0  0  0
   -2.2887   15.6405   -3.0017 H   0  0  0  0  0  0  0  0  0  0  0  0
   -3.8125   16.0847   -2.1971 H   0  0  0  0  0  0  0  0  0  0  0  0
   -1.3408   14.8870   -0.9143 H   0  0  0  0  0  0  0  0  0  0  0  0
   -2.7656   14.0235   -1.4423 H   0  0  0  0  0  0  0  0  0  0  0  0
   -2.1027   13.7360    0.9786 H   0  0  0  0  0  0  0  0  0  0  0  0
   -0.1334   12.9629   -0.2284 H   0  0  0  0  0  0  0  0  0  0  0  0
   -1.7988   10.0349   -0.5928 H   0  0  0  0  0  0  0  0  0  0  0  0
   -3.7126    8.6213   -0.3955 H   0  0  0  0  0  0  0  0  0  0  0  0
   -3.3972    6.1602   -0.1682 H   0  0  0  0  0  0  0  0  0  0  0  0
    1.2618    5.2181    3.6443 H   0  0  0  0  0  0  0  0  0  0  0  0
    4.8622   -1.7671    2.3537 H   0  0  0  0  0  0  0  0  0  0  0  0
    4.0868   -0.4342    1.6254 H   0  0  0  0  0  0  0  0  0  0  0  0
  1  2  1  0  0  0  0
  1 43  1  0  0  0  0
  1 44  1  0  0  0  0
  1 45  1  0  0  0  0
  2  3  1  0  0  0  0
  2 46  1  0  0  0  0
  2 47  1  0  0  0  0
  3  4  1  0  0  0  0
  3  7  1  0  0  0  0
  4  5  2  0  0  0  0
  4 37  1  0  0  0  0
  5  6  1  0  0  0  0
  6  7  2  0  0  0  0
  6 36  1  0  0  0  0
  7  8  1  0  0  0  0
  8  9  2  0  0  0  0
  8 48  1  0  0  0  0
  9 10  1  0  0  0  0
  9 35  1  0  0  0  0
 10 11  1  0  0  0  0
 11 12  2  0  0  0  0
 11 34  1  0  0  0  0
 12 13  1  0  0  0  0
 12 49  1  0  0  0  0
 13 14  1  0  0  0  0
 13 32  2  0  0  0  0
 14 15  1  0  0  0  0
 14 50  1  0  0  0  0
 15 16  2  0  0  0  0
 15 17  1  0  0  0  0
 17 18  2  0  0  0  0
 17 31  1  0  0  0  0
 18 19  1  0  0  0  0
 18 51  1  0  0  0  0
 19 20  2  0  0  0  0
 19 52  1  0  0  0  0
 20 21  1  0  0  0  0
 20 30  1  0  0  0  0
 21 22  1  0  0  0  0
 22 23  1  0  0  0  0
 22 53  1  0  0  0  0
 22 54  1  0  0  0  0
 23 24  1  0  0  0  0
 23 55  1  0  0  0  0
 23 56  1  0  0  0  0
 24 25  1  0  0  0  0
 24 29  1  0  0  0  0
 25 26  1  0  0  0  0
 25 57  1  0  0  0  0
 25 58  1  0  0  0  0
 26 27  1  0  0  0  0
 26 59  1  0  0  0  0
 26 60  1  0  0  0  0
 27 28  1  0  0  0  0
 28 29  1  0  0  0  0
 28 61  1  0  0  0  0
 28 62  1  0  0  0  0
 29 63  1  0  0  0  0
 29 64  1  0  0  0  0
 30 31  2  0  0  0  0
 30 65  1  0  0  0  0
 31 66  1  0  0  0  0
 32 33  1  0  0  0  0
 32 67  1  0  0  0  0
 33 34  2  0  0  0  0
 33 68  1  0  0  0  0
 34 69  1  0  0  0  0
 35 36  2  0  0  0  0
 36 70  1  0  0  0  0
 37 38  2  0  0  0  0
 37 41  1  0  0  0  0
 38 39  1  0  0  0  0
 39 40  1  0  0  0  0
 40 41  2  0  0  0  0
 41 42  1  0  0  0  0
 42 71  1  0  0  0  0
 42 72  1  0  0  0  0
M  END
>  <DRUGBANK_ID>
DB17030

>  <COMMON_NAME>
GSK-269962A

>  <CAS_NUMBER>
850664-21-0

>  <UNII>
F89KMM7TE2

>  <SYNONYMS>
Benzamide, n-(3-((2-(4-amino-1,2,5-oxadiazol-3-yl)-1-ethyl-1h-imidazo(4,5-c)pyridin-6-yl)oxy)phenyl)-4-(2-(4-morpholinyl)ethoxy)-; N-(3-((2-(4-amino-1,2,5-oxadiazol-3-yl)-1-ethyl-1h-imidazo(4,5-c)pyridin-6-yl)oxy)phenyl)-4-(2-(4-morpholinyl)ethoxy)benzamide

$$$$
