
 OpenBabel10282417203D

 54 56  0  0  0  0  0  0  0  0999 V2000
    1.0335    0.0625    0.1428 C   0  0  0  0  0  0  0  0  0  0  0  0
    0.4464    0.9481   -0.9549 C   0  0  0  0  0  0  0  0  0  0  0  0
    0.9809    0.5850   -2.3728 N   0  3  0  0  0  0  0  0  0  0  0  0
    0.0435    1.1065   -3.5008 C   0  0  0  0  0  0  0  0  0  0  0  0
   -1.0428    0.0562   -3.6702 C   0  0  0  0  0  0  0  0  0  0  0  0
   -0.3678   -1.2790   -3.4058 C   0  0  3  0  0  0  0  0  0  0  0  0
    0.9398   -0.9712   -2.6424 C   0  0  0  0  0  0  0  0  0  0  0  0
   -1.2558   -2.2174   -2.7414 O   0  0  0  0  0  0  0  0  0  0  0  0
   -1.7454   -1.8552   -1.5168 C   0  0  0  0  0  0  0  0  0  0  0  0
   -1.4480   -0.8122   -0.9792 O   0  0  0  0  0  0  0  0  0  0  0  0
   -2.6792   -2.8693   -0.8484 C   0  0  0  0  0  0  0  0  0  0  0  0
   -4.0356   -2.9376   -1.5600 C   0  0  0  0  0  0  0  0  0  0  0  0
   -4.7167   -4.1518   -1.6954 C   0  0  0  0  0  0  0  0  0  0  0  0
   -5.7890   -4.3404   -2.5399 C   0  0  0  0  0  0  0  0  0  0  0  0
   -6.4573   -3.2248   -2.9791 C   0  0  0  0  0  0  0  0  0  0  0  0
   -5.9758   -1.9590   -2.6373 C   0  0  0  0  0  0  0  0  0  0  0  0
   -4.7261   -1.8064   -2.0157 C   0  0  0  0  0  0  0  0  0  0  0  0
   -1.8874   -4.1633   -0.5853 C   0  0  0  0  0  0  0  0  0  0  0  0
   -0.7706   -4.1723    0.2592 C   0  0  0  0  0  0  0  0  0  0  0  0
   -0.1705   -5.3861    0.6125 C   0  0  0  0  0  0  0  0  0  0  0  0
   -0.7611   -6.5978    0.2537 C   0  0  0  0  0  0  0  0  0  0  0  0
   -1.8617   -6.5972   -0.5705 C   0  0  0  0  0  0  0  0  0  0  0  0
   -2.2340   -5.3981   -1.1457 C   0  0  0  0  0  0  0  0  0  0  0  0
   -2.9736   -2.2994    0.4534 O   0  0  0  0  0  0  0  0  0  0  0  0
    2.4065    1.1823   -2.4717 C   0  0  0  0  0  0  0  0  0  0  0  0
    2.4250    2.7087   -2.3009 C   0  0  0  0  0  0  0  0  0  0  0  0
    0.7189   -0.9805    0.0849 H   0  0  0  0  0  0  0  0  0  0  0  0
    0.7059    0.4175    1.1217 H   0  0  0  0  0  0  0  0  0  0  0  0
    2.1277    0.0695    0.1378 H   0  0  0  0  0  0  0  0  0  0  0  0
   -0.6354    1.0395   -0.9943 H   0  0  0  0  0  0  0  0  0  0  0  0
    0.7283    1.9703   -0.7247 H   0  0  0  0  0  0  0  0  0  0  0  0
    0.6335    1.1963   -4.4218 H   0  0  0  0  0  0  0  0  0  0  0  0
   -0.3662    2.0803   -3.2186 H   0  0  0  0  0  0  0  0  0  0  0  0
   -1.8674    0.2594   -2.9824 H   0  0  0  0  0  0  0  0  0  0  0  0
   -1.5058    0.0695   -4.6640 H   0  0  0  0  0  0  0  0  0  0  0  0
   -0.1032   -1.7563   -4.3592 H   0  0  0  0  0  0  0  0  0  0  0  0
    1.0171   -1.5451   -1.7227 H   0  0  0  0  0  0  0  0  0  0  0  0
    1.8162   -1.2205   -3.2523 H   0  0  0  0  0  0  0  0  0  0  0  0
   -4.4491   -5.0223   -1.1148 H   0  0  0  0  0  0  0  0  0  0  0  0
   -6.1278   -5.3526   -2.7396 H   0  0  0  0  0  0  0  0  0  0  0  0
   -7.3948   -3.3564   -3.5075 H   0  0  0  0  0  0  0  0  0  0  0  0
   -6.5990   -1.0921   -2.8361 H   0  0  0  0  0  0  0  0  0  0  0  0
   -4.3522   -0.7987   -1.8352 H   0  0  0  0  0  0  0  0  0  0  0  0
   -0.3475   -3.2414    0.6326 H   0  0  0  0  0  0  0  0  0  0  0  0
    0.7402   -5.3947    1.2014 H   0  0  0  0  0  0  0  0  0  0  0  0
   -0.3384   -7.5493    0.5569 H   0  0  0  0  0  0  0  0  0  0  0  0
   -2.3976   -7.5078   -0.8268 H   0  0  0  0  0  0  0  0  0  0  0  0
   -2.8537   -5.4819   -2.0308 H   0  0  0  0  0  0  0  0  0  0  0  0
   -3.6358   -2.8684    0.8785 H   0  0  0  0  0  0  0  0  0  0  0  0
    3.0082    0.7136   -1.6868 H   0  0  0  0  0  0  0  0  0  0  0  0
    2.8284    0.8983   -3.4399 H   0  0  0  0  0  0  0  0  0  0  0  0
    2.0833    3.0602   -1.3224 H   0  0  0  0  0  0  0  0  0  0  0  0
    3.4480    3.0875   -2.3725 H   0  0  0  0  0  0  0  0  0  0  0  0
    1.8130    3.2041   -3.0585 H   0  0  0  0  0  0  0  0  0  0  0  0
  1  2  1  0  0  0  0
  1 27  1  0  0  0  0
  1 28  1  0  0  0  0
  1 29  1  0  0  0  0
  2  3  1  0  0  0  0
  2 30  1  0  0  0  0
  2 31  1  0  0  0  0
  3  4  1  0  0  0  0
  3  7  1  0  0  0  0
  3 25  1  0  0  0  0
  4  5  1  0  0  0  0
  4 32  1  0  0  0  0
  4 33  1  0  0  0  0
  5  6  1  0  0  0  0
  5 34  1  0  0  0  0
  5 35  1  0  0  0  0
  6  7  1  0  0  0  0
  6  8  1  0  0  0  0
  6 36  1  0  0  0  0
  7 37  1  0  0  0  0
  7 38  1  0  0  0  0
  8  9  1  0  0  0  0
  9 10  2  0  0  0  0
  9 11  1  0  0  0  0
 11 12  1  0  0  0  0
 11 18  1  0  0  0  0
 11 24  1  0  0  0  0
 12 13  2  0  0  0  0
 12 17  1  0  0  0  0
 13 14  1  0  0  0  0
 13 39  1  0  0  0  0
 14 15  2  0  0  0  0
 14 40  1  0  0  0  0
 15 16  1  0  0  0  0
 15 41  1  0  0  0  0
 16 17  2  0  0  0  0
 16 42  1  0  0  0  0
 17 43  1  0  0  0  0
 18 19  2  0  0  0  0
 18 23  1  0  0  0  0
 19 20  1  0  0  0  0
 19 44  1  0  0  0  0
 20 21  2  0  0  0  0
 20 45  1  0  0  0  0
 21 22  1  0  0  0  0
 21 46  1  0  0  0  0
 22 23  2  0  0  0  0
 22 47  1  0  0  0  0
 23 48  1  0  0  0  0
 24 49  1  0  0  0  0
 25 26  1  0  0  0  0
 25 50  1  0  0  0  0
 25 51  1  0  0  0  0
 26 52  1  0  0  0  0
 26 53  1  0  0  0  0
 26 54  1  0  0  0  0
M  CHG  1   3   1
M  END
>  <DRUGBANK_ID>
DB13369

>  <COMMON_NAME>
Benzilone

>  <CAS_NUMBER>
16175-92-1

>  <UNII>
GY56LQX77B

>  <SYNONYMS>
Benzilonium

$$$$
