
 OpenBabel10282417103D

 35 36  0  0  1  0  0  0  0  0999 V2000
    2.9742   -5.1075   -2.2342 C   0  0  0  0  0  0  0  0  0  0  0  0
    3.5361   -4.5135   -3.3545 C   0  0  0  0  0  0  0  0  0  0  0  0
    4.1186   -5.2871   -4.3685 C   0  0  0  0  0  0  0  0  0  0  0  0
    4.2288   -6.6897   -4.2258 C   0  0  0  0  0  0  0  0  0  0  0  0
    3.6545   -7.2742   -3.0828 C   0  0  0  0  0  0  0  0  0  0  0  0
    3.1074   -6.4874   -2.0734 C   0  0  0  0  0  0  0  0  0  0  0  0
   -0.0253   -4.1288   -0.0270 C   0  0  0  0  0  0  0  0  0  0  0  0
   -0.0922   -2.9516    0.3116 O   0  0  0  0  0  0  0  0  0  0  0  0
    0.6162   -4.6586   -1.3143 C   0  0  1  0  0  0  0  0  0  0  0  0
    2.1235   -4.2856   -1.2946 C   0  0  0  0  0  0  0  0  0  0  0  0
    0.3140   -6.1054   -1.4280 N   0  0  0  0  0  0  0  0  0  0  0  0
   -0.4824   -5.1065    0.7899 O   0  0  0  0  0  0  0  0  0  0  0  0
    4.4773   -4.0568   -6.0713 I   0  0  0  0  0  0  0  0  0  0  0  0
    4.8070   -7.6093   -5.0698 O   0  0  0  0  0  0  0  0  0  0  0  0
    7.8354   -5.6243   -9.1981 O   0  0  0  0  0  0  0  0  0  0  0  0
    8.9604   -4.4103   -6.3929 I   0  0  0  0  0  0  0  0  0  0  0  0
    5.6853   -7.2024   -6.0288 C   0  0  0  0  0  0  0  0  0  0  0  0
    7.5261   -5.8786   -6.8164 C   0  0  0  0  0  0  0  0  0  0  0  0
    6.8181   -6.4352   -5.7485 C   0  0  0  0  0  0  0  0  0  0  0  0
    5.3389   -7.5422   -7.3344 C   0  0  0  0  0  0  0  0  0  0  0  0
    7.1651   -6.1773   -8.1395 C   0  0  0  0  0  0  0  0  0  0  0  0
    3.3638   -9.3600   -2.8599 I   0  0  0  0  0  0  0  0  0  0  0  0
    6.0789   -7.0238   -8.3927 C   0  0  0  0  0  0  0  0  0  0  0  0
    5.4425   -7.4701  -10.3309 I   0  0  0  0  0  0  0  0  0  0  0  0
    3.4681   -3.4327   -3.4682 H   0  0  0  0  0  0  0  0  0  0  0  0
    2.6881   -6.9720   -1.1962 H   0  0  0  0  0  0  0  0  0  0  0  0
    0.1220   -4.1834   -2.1699 H   0  0  0  0  0  0  0  0  0  0  0  0
    2.5534   -4.3580   -0.2897 H   0  0  0  0  0  0  0  0  0  0  0  0
    2.2083   -3.2224   -1.5716 H   0  0  0  0  0  0  0  0  0  0  0  0
    0.7372   -6.4875   -2.2699 H   0  0  0  0  0  0  0  0  0  0  0  0
    0.7406   -6.5639   -0.6207 H   0  0  0  0  0  0  0  0  0  0  0  0
   -0.9193   -4.6658    1.5432 H   0  0  0  0  0  0  0  0  0  0  0  0
    8.5483   -5.0628   -8.8475 H   0  0  0  0  0  0  0  0  0  0  0  0
    7.0419   -6.1600   -4.7203 H   0  0  0  0  0  0  0  0  0  0  0  0
    4.4512   -8.1480   -7.5025 H   0  0  0  0  0  0  0  0  0  0  0  0
  1 10  1  0  0  0  0
  2  1  1  0  0  0  0
  2 25  1  0  0  0  0
  3  4  1  0  0  0  0
  3  2  2  0  0  0  0
  4 14  1  0  0  0  0
  5  4  2  0  0  0  0
  5  6  1  0  0  0  0
  5 22  1  0  0  0  0
  6  1  2  0  0  0  0
  6 26  1  0  0  0  0
  8  7  2  0  0  0  0
  9 11  1  0  0  0  0
  9 27  1  6  0  0  0
  9 10  1  0  0  0  0
  9  7  1  0  0  0  0
 10 28  1  0  0  0  0
 10 29  1  0  0  0  0
 11 30  1  0  0  0  0
 11 31  1  0  0  0  0
 12  7  1  0  0  0  0
 12 32  1  0  0  0  0
 13  3  1  0  0  0  0
 14 17  1  0  0  0  0
 15 33  1  0  0  0  0
 17 20  1  0  0  0  0
 18 16  1  0  0  0  0
 18 19  1  0  0  0  0
 18 21  2  0  0  0  0
 19 17  2  0  0  0  0
 19 34  1  0  0  0  0
 20 23  2  0  0  0  0
 20 35  1  0  0  0  0
 21 15  1  0  0  0  0
 23 21  1  0  0  0  0
 23 24  1  0  0  0  0
M  END
>  <DRUGBANK_ID>
DB00509

>  <SECONDARY_ACCESSION_NUMBERS>
APRD00911

>  <COMMON_NAME>
Dextrothyroxine

>  <CAS_NUMBER>
51-49-0

>  <UNII>
4W9K63FION

>  <SYNONYMS>
D-thyroxine; Dextrothyroxine; Dextrothyroxinum; O-(4-hydroxy-3,5-diiodophenyl)-3,5-diiodo-D-tyrosine

$$$$
