FBQ
 OpenBabel10282417163D

 47 49  0  0  0  0  0  0  0  0999 V2000
    1.1728    1.3599    0.0649 N   0  0  0  0  0  0  0  0  0  0  0  0
    0.0265    0.6635    0.0905 C   0  0  0  0  0  0  0  0  0  0  0  0
    0.0026   -0.7470    0.0769 C   0  0  0  0  0  0  0  0  0  0  0  0
    1.2327   -1.4290    0.0138 C   0  0  0  0  0  0  0  0  0  0  0  0
    2.4386   -0.6986   -0.0543 C   0  0  0  0  0  0  0  0  0  0  0  0
    2.3575    0.7015   -0.0487 C   0  0  0  0  0  0  0  0  0  0  0  0
   -1.2414   -1.3979    0.1041 C   0  0  0  0  0  0  0  0  0  0  0  0
   -2.4327   -0.7137   -0.0501 C   0  0  0  0  0  0  0  0  0  0  0  0
   -2.3999    0.6701   -0.1358 C   0  0  0  0  0  0  0  0  0  0  0  0
   -1.1871    1.3395    0.0485 C   0  0  0  0  0  0  0  0  0  0  0  0
    1.2490   -2.8211   -0.2753 N   0  0  0  0  0  0  0  0  0  0  0  0
    3.7480   -1.4413   -0.1302 C   0  0  0  0  0  0  0  0  0  0  0  0
    4.0257   -2.5753    1.2869 S   0  0  0  0  0  0  0  0  0  0  0  0
    3.8617   -1.4277    2.7012 C   0  0  0  0  0  0  0  0  0  0  0  0
    4.9433   -0.3851    2.7704 C   0  0  0  0  0  0  0  0  0  0  0  0
    6.2801   -0.7703    2.9063 C   0  0  0  0  0  0  0  0  0  0  0  0
    7.3153    0.1757    2.9068 C   0  0  0  0  0  0  0  0  0  0  0  0
    6.9691    1.5386    2.9328 C   0  0  0  0  0  0  0  0  0  0  0  0
    5.6361    1.9343    2.8896 C   0  0  0  0  0  0  0  0  0  0  0  0
    4.6357    0.9768    2.7496 C   0  0  0  0  0  0  0  0  0  0  0  0
    8.7701   -0.2682    2.8063 C   0  0  0  0  0  0  0  0  0  0  0  0
    9.3986    0.2549    1.4603 C   0  0  0  0  0  0  0  0  0  0  0  0
    9.4381    1.6108    1.4195 F   0  0  0  0  0  0  0  0  0  0  0  0
   10.6794   -0.1778    1.3378 F   0  0  0  0  0  0  0  0  0  0  0  0
    8.7269   -0.1710    0.3663 F   0  0  0  0  0  0  0  0  0  0  0  0
    9.4665    0.2160    3.9580 O   0  0  0  0  0  0  0  0  0  0  0  0
   -1.3042   -2.7341    0.2668 F   0  0  0  0  0  0  0  0  0  0  0  0
    3.5461    1.6062   -0.2320 C   0  0  0  0  0  0  0  0  0  0  0  0
    8.8441   -1.6967    2.8980 O   0  0  0  0  0  0  0  0  0  0  0  0
   -3.3632   -1.2657   -0.1096 H   0  0  0  0  0  0  0  0  0  0  0  0
   -3.3086    1.2244   -0.3477 H   0  0  0  0  0  0  0  0  0  0  0  0
   -1.1884    2.4280    0.1099 H   0  0  0  0  0  0  0  0  0  0  0  0
    0.4170   -3.3121    0.0496 H   0  0  0  0  0  0  0  0  0  0  0  0
    2.0978   -3.2976    0.0241 H   0  0  0  0  0  0  0  0  0  0  0  0
    3.7483   -2.0339   -1.0539 H   0  0  0  0  0  0  0  0  0  0  0  0
    4.6291   -0.8097   -0.2032 H   0  0  0  0  0  0  0  0  0  0  0  0
    2.8663   -0.9713    2.7220 H   0  0  0  0  0  0  0  0  0  0  0  0
    3.9316   -2.0311    3.6131 H   0  0  0  0  0  0  0  0  0  0  0  0
    6.5119   -1.8329    2.9865 H   0  0  0  0  0  0  0  0  0  0  0  0
    7.7299    2.3156    2.9643 H   0  0  0  0  0  0  0  0  0  0  0  0
    5.3768    2.9887    2.9471 H   0  0  0  0  0  0  0  0  0  0  0  0
    3.6072    1.3045    2.6176 H   0  0  0  0  0  0  0  0  0  0  0  0
    9.4061    1.1849    3.9407 H   0  0  0  0  0  0  0  0  0  0  0  0
    3.4752    2.1467   -1.1800 H   0  0  0  0  0  0  0  0  0  0  0  0
    3.5785    2.3439    0.5743 H   0  0  0  0  0  0  0  0  0  0  0  0
    4.5062    1.0925   -0.2302 H   0  0  0  0  0  0  0  0  0  0  0  0
    9.7691   -1.9249    2.7091 H   0  0  0  0  0  0  0  0  0  0  0  0
  1  2  2  0  0  0  0
  1  6  1  0  0  0  0
  2  3  1  0  0  0  0
  2 10  1  0  0  0  0
  3  4  2  0  0  0  0
  3  7  1  0  0  0  0
  4  5  1  0  0  0  0
  4 11  1  0  0  0  0
  5  6  2  0  0  0  0
  5 12  1  0  0  0  0
  6 28  1  0  0  0  0
  7  8  2  0  0  0  0
  7 27  1  0  0  0  0
  8  9  1  0  0  0  0
  8 30  1  0  0  0  0
  9 10  2  0  0  0  0
  9 31  1  0  0  0  0
 10 32  1  0  0  0  0
 11 33  1  0  0  0  0
 11 34  1  0  0  0  0
 12 13  1  0  0  0  0
 12 35  1  0  0  0  0
 12 36  1  0  0  0  0
 13 14  1  0  0  0  0
 14 15  1  0  0  0  0
 14 37  1  0  0  0  0
 14 38  1  0  0  0  0
 15 16  2  0  0  0  0
 15 20  1  0  0  0  0
 16 17  1  0  0  0  0
 16 39  1  0  0  0  0
 17 18  2  0  0  0  0
 17 21  1  0  0  0  0
 18 19  1  0  0  0  0
 18 40  1  0  0  0  0
 19 20  2  0  0  0  0
 19 41  1  0  0  0  0
 20 42  1  0  0  0  0
 21 22  1  0  0  0  0
 21 26  1  0  0  0  0
 21 29  1  0  0  0  0
 22 23  1  0  0  0  0
 22 24  1  0  0  0  0
 22 25  1  0  0  0  0
 26 43  1  0  0  0  0
 28 44  1  0  0  0  0
 28 45  1  0  0  0  0
 28 46  1  0  0  0  0
 29 47  1  0  0  0  0
M  END
>  <DRUGBANK_ID>
DB07756

>  <COMMON_NAME>
1-[3-({[(4-AMINO-5-FLUORO-2-METHYLQUINOLIN-3-YL)METHYL]THIO}METHYL)PHENYL]-2,2,2-TRIFLUOROETHANE-1,1-DIOL

$$$$
