
 OpenBabel10282417203D

 12 11  0  0  0  0  0  0  0  0999 V2000
    0.9331    0.0538    0.0195 O   0  0  0  0  0  0  0  0  0  0  0  0
    0.4986   -1.2967    0.1926 C   0  0  0  0  0  0  0  0  0  0  0  0
    0.9727   -2.1438   -1.0011 C   0  0  0  0  0  0  0  0  0  0  0  0
    3.1294   -2.1955   -1.1979 I   0  0  0  0  0  0  0  0  0  0  0  0
    0.9382   -1.8746    1.5473 C   0  0  0  0  0  0  0  0  0  0  0  0
    0.1403   -0.7547    3.2010 I   0  0  0  0  0  0  0  0  0  0  0  0
    1.9086    0.0620    0.0460 H   0  0  0  0  0  0  0  0  0  0  0  0
   -0.5984   -1.2705    0.1605 H   0  0  0  0  0  0  0  0  0  0  0  0
    0.5953   -3.1684   -0.9167 H   0  0  0  0  0  0  0  0  0  0  0  0
    0.5805   -1.7143   -1.9301 H   0  0  0  0  0  0  0  0  0  0  0  0
    0.6016   -2.9138    1.6336 H   0  0  0  0  0  0  0  0  0  0  0  0
    2.0268   -1.8630    1.6489 H   0  0  0  0  0  0  0  0  0  0  0  0
  1  2  1  0  0  0  0
  1  7  1  0  0  0  0
  2  3  1  0  0  0  0
  2  5  1  0  0  0  0
  2  8  1  0  0  0  0
  3  4  1  0  0  0  0
  3  9  1  0  0  0  0
  3 10  1  0  0  0  0
  5  6  1  0  0  0  0
  5 11  1  0  0  0  0
  5 12  1  0  0  0  0
M  END
>  <DRUGBANK_ID>
DB13383

>  <COMMON_NAME>
Diiodohydroxypropane

>  <CAS_NUMBER>
534-08-7

>  <UNII>
1Z11279H67

$$$$
