
 OpenBabel10282417183D

 48 51  0  0  0  0  0  0  0  0999 V2000
   -2.4181   -0.6807    0.1297 C   0  0  0  0  0  0  0  0  0  0  0  0
   -1.2072   -1.3702    0.0259 C   0  0  0  0  0  0  0  0  0  0  0  0
    0.0120   -0.7017    0.0462 C   0  0  0  0  0  0  0  0  0  0  0  0
   -0.0324    0.7040   -0.0251 C   0  0  0  0  0  0  0  0  0  0  0  0
   -1.2381    1.4104   -0.0759 C   0  0  0  0  0  0  0  0  0  0  0  0
   -2.4167    0.7146    0.0728 C   0  0  0  0  0  0  0  0  0  0  0  0
   -3.5609    1.4021    0.2129 F   0  0  0  0  0  0  0  0  0  0  0  0
    1.1543    2.7086   -0.0318 O   0  0  0  0  0  0  0  0  0  0  0  0
    1.2151    1.4857   -0.0002 C   0  0  0  0  0  0  0  0  0  0  0  0
    2.4910    0.7435    0.0708 C   0  0  0  0  0  0  0  0  0  0  0  0
    2.4120   -0.5991    0.1141 C   0  0  0  0  0  0  0  0  0  0  0  0
    1.2587   -1.3887    0.1694 N   0  0  0  0  0  0  0  0  0  0  0  0
    3.9357    2.6763    0.1090 O   0  0  0  0  0  0  0  0  0  0  0  0
    3.7772    1.4799    0.1044 C   0  0  0  0  0  0  0  0  0  0  0  0
    4.8588    0.6709    0.1594 O   0  0  0  0  0  0  0  0  0  0  0  0
   -6.7946   -1.7145    1.5529 C   0  0  0  0  0  0  0  0  0  0  0  0
   -6.7818   -3.0256    0.7647 C   0  0  0  0  0  0  0  0  0  0  0  0
    1.3292   -2.8505   -0.1658 C   0  0  0  0  0  0  0  0  0  0  0  0
    1.5606   -4.1313    0.6018 C   0  0  0  0  0  0  0  0  0  0  0  0
    2.6930   -3.5181   -0.1373 C   0  0  0  0  0  0  0  0  0  0  0  0
   -3.7180   -2.3693    1.3620 C   0  0  0  0  0  0  0  0  0  0  0  0
   -4.3928   -3.6619    0.8684 C   0  0  0  0  0  0  0  0  0  0  0  0
   -5.5857   -3.4552    0.0200 N   0  0  0  0  0  0  0  0  0  0  0  0
   -5.2323   -2.5640   -1.1077 C   0  0  0  0  0  0  0  0  0  0  0  0
   -4.6315   -1.2041   -0.7126 C   0  0  0  0  0  0  0  0  0  0  0  0
   -3.5679   -1.4141    0.2606 N   0  0  0  0  0  0  0  0  0  0  0  0
   -1.2673   -2.4510   -0.0577 H   0  0  0  0  0  0  0  0  0  0  0  0
   -1.2638    2.4912   -0.1717 H   0  0  0  0  0  0  0  0  0  0  0  0
    3.3359   -1.1622    0.1222 H   0  0  0  0  0  0  0  0  0  0  0  0
    5.5995    1.3152    0.2020 H   0  0  0  0  0  0  0  0  0  0  0  0
   -6.6182   -0.8409    0.9354 H   0  0  0  0  0  0  0  0  0  0  0  0
   -7.7671   -1.5304    2.0096 H   0  0  0  0  0  0  0  0  0  0  0  0
   -6.0940   -1.7200    2.3834 H   0  0  0  0  0  0  0  0  0  0  0  0
   -7.6178   -2.9932    0.0564 H   0  0  0  0  0  0  0  0  0  0  0  0
   -7.0327   -3.8257    1.4713 H   0  0  0  0  0  0  0  0  0  0  0  0
    0.5807   -3.0904   -0.9192 H   0  0  0  0  0  0  0  0  0  0  0  0
    1.6079   -4.1914    1.6797 H   0  0  0  0  0  0  0  0  0  0  0  0
    1.1760   -5.0520    0.1564 H   0  0  0  0  0  0  0  0  0  0  0  0
    3.0418   -3.8596   -1.1007 H   0  0  0  0  0  0  0  0  0  0  0  0
    3.4831   -3.1439    0.5061 H   0  0  0  0  0  0  0  0  0  0  0  0
   -4.2818   -1.8996    2.1636 H   0  0  0  0  0  0  0  0  0  0  0  0
   -2.7688   -2.6172    1.8543 H   0  0  0  0  0  0  0  0  0  0  0  0
   -4.6326   -4.3256    1.7078 H   0  0  0  0  0  0  0  0  0  0  0  0
   -3.6463   -4.2135    0.2757 H   0  0  0  0  0  0  0  0  0  0  0  0
   -4.4742   -3.0834   -1.7153 H   0  0  0  0  0  0  0  0  0  0  0  0
   -6.0900   -2.4277   -1.7743 H   0  0  0  0  0  0  0  0  0  0  0  0
   -5.3709   -0.5068   -0.3300 H   0  0  0  0  0  0  0  0  0  0  0  0
   -4.2603   -0.7075   -1.6178 H   0  0  0  0  0  0  0  0  0  0  0  0
  1  2  2  0  0  0  0
  1  6  1  0  0  0  0
  1 26  1  0  0  0  0
  2  3  1  0  0  0  0
  2 27  1  0  0  0  0
  3  4  2  0  0  0  0
  3 12  1  0  0  0  0
  4  5  1  0  0  0  0
  4  9  1  0  0  0  0
  5  6  2  0  0  0  0
  5 28  1  0  0  0  0
  6  7  1  0  0  0  0
  8  9  2  0  0  0  0
  9 10  1  0  0  0  0
 10 11  2  0  0  0  0
 10 14  1  0  0  0  0
 11 12  1  0  0  0  0
 11 29  1  0  0  0  0
 12 18  1  0  0  0  0
 13 14  2  0  0  0  0
 14 15  1  0  0  0  0
 15 30  1  0  0  0  0
 16 17  1  0  0  0  0
 16 31  1  0  0  0  0
 16 32  1  0  0  0  0
 16 33  1  0  0  0  0
 17 23  1  0  0  0  0
 17 34  1  0  0  0  0
 17 35  1  0  0  0  0
 18 19  1  0  0  0  0
 18 20  1  0  0  0  0
 18 36  1  0  0  0  0
 19 20  1  0  0  0  0
 19 37  1  0  0  0  0
 19 38  1  0  0  0  0
 20 39  1  0  0  0  0
 20 40  1  0  0  0  0
 21 22  1  0  0  0  0
 21 26  1  0  0  0  0
 21 41  1  0  0  0  0
 21 42  1  0  0  0  0
 22 23  1  0  0  0  0
 22 43  1  0  0  0  0
 22 44  1  0  0  0  0
 23 24  1  0  0  0  0
 24 25  1  0  0  0  0
 24 45  1  0  0  0  0
 24 46  1  0  0  0  0
 25 26  1  0  0  0  0
 25 47  1  0  0  0  0
 25 48  1  0  0  0  0
M  END
>  <DRUGBANK_ID>
DB11404

>  <COMMON_NAME>
Enrofloxacin

>  <CAS_NUMBER>
93106-60-6

>  <UNII>
3DX3XEK1BN

>  <SYNONYMS>
Enrofloxacin; Enrofloxacine; Enrofloxacino; Enrofloxacinum

$$$$
