
 OpenBabel10282417213D

 30 30  0  0  0  0  0  0  0  0999 V2000
    1.0665   -0.0701    0.0229 C   0  0  0  0  0  0  0  0  0  0  0  0
    0.6455    0.8896   -1.0857 C   0  0  0  0  0  0  0  0  0  0  0  0
    1.1280    0.4747   -2.4136 N   0  0  0  0  0  0  0  0  0  0  0  0
    0.1132    0.2137   -3.4399 C   0  0  0  0  0  0  0  0  0  0  0  0
    0.1858    1.1557   -4.6324 C   0  0  0  0  0  0  0  0  0  0  0  0
    2.5095    0.4058   -2.6041 C   0  0  0  0  0  0  0  0  0  0  0  0
    3.2860    0.8444   -1.7409 O   0  0  0  0  0  0  0  0  0  0  0  0
    3.1200   -0.0915   -3.9072 C   0  0  0  0  0  0  0  0  0  0  0  0
    2.5860   -1.7141   -4.5126 S   0  0  0  0  0  0  0  0  0  0  0  0
    2.9909   -2.8115   -3.1756 C   0  0  0  0  0  0  0  0  0  0  0  0
    2.6852   -4.1579   -3.3313 C   0  0  0  0  0  0  0  0  0  0  0  0
    2.9814   -5.0503   -2.3053 C   0  0  0  0  0  0  0  0  0  0  0  0
    3.5715   -4.5473   -1.1666 C   0  0  0  0  0  0  0  0  0  0  0  0
    3.8671   -3.2416   -1.0246 N   0  0  0  0  0  0  0  0  0  0  0  0
    3.5738   -2.3635   -2.0481 N   0  0  0  0  0  0  0  0  0  0  0  0
    3.9656   -5.5582    0.1556 Cl  0  0  0  0  0  0  0  0  0  0  0  0
    0.7086   -1.0831   -0.1845 H   0  0  0  0  0  0  0  0  0  0  0  0
    0.6624    0.2538    0.9869 H   0  0  0  0  0  0  0  0  0  0  0  0
    2.1534   -0.1210    0.1303 H   0  0  0  0  0  0  0  0  0  0  0  0
   -0.4494    0.9480   -1.0875 H   0  0  0  0  0  0  0  0  0  0  0  0
    1.0178    1.8993   -0.8773 H   0  0  0  0  0  0  0  0  0  0  0  0
    0.1857   -0.8297   -3.7470 H   0  0  0  0  0  0  0  0  0  0  0  0
   -0.8854    0.3112   -2.9986 H   0  0  0  0  0  0  0  0  0  0  0  0
    1.1294    1.1000   -5.1696 H   0  0  0  0  0  0  0  0  0  0  0  0
   -0.5883    0.9056   -5.3627 H   0  0  0  0  0  0  0  0  0  0  0  0
    0.0601    2.1949   -4.3161 H   0  0  0  0  0  0  0  0  0  0  0  0
    2.9408    0.6543   -4.6829 H   0  0  0  0  0  0  0  0  0  0  0  0
    4.2087   -0.1159   -3.8002 H   0  0  0  0  0  0  0  0  0  0  0  0
    2.2201   -4.5177   -4.2438 H   0  0  0  0  0  0  0  0  0  0  0  0
    2.7516   -6.1044   -2.4050 H   0  0  0  0  0  0  0  0  0  0  0  0
  1  2  1  0  0  0  0
  1 17  1  0  0  0  0
  1 18  1  0  0  0  0
  1 19  1  0  0  0  0
  2  3  1  0  0  0  0
  2 20  1  0  0  0  0
  2 21  1  0  0  0  0
  3  4  1  0  0  0  0
  3  6  1  0  0  0  0
  4  5  1  0  0  0  0
  4 22  1  0  0  0  0
  4 23  1  0  0  0  0
  5 24  1  0  0  0  0
  5 25  1  0  0  0  0
  5 26  1  0  0  0  0
  6  7  2  0  0  0  0
  6  8  1  0  0  0  0
  8  9  1  0  0  0  0
  8 27  1  0  0  0  0
  8 28  1  0  0  0  0
  9 10  1  0  0  0  0
 10 11  2  0  0  0  0
 10 15  1  0  0  0  0
 11 12  1  0  0  0  0
 11 29  1  0  0  0  0
 12 13  2  0  0  0  0
 12 30  1  0  0  0  0
 13 14  1  0  0  0  0
 13 16  1  0  0  0  0
 14 15  2  0  0  0  0
M  END
>  <DRUGBANK_ID>
DB13992

>  <COMMON_NAME>
Azintamide

>  <CAS_NUMBER>
1830-32-6

>  <UNII>
ACZ6L64B41

>  <SYNONYMS>
Azintamid; Azintamida; Azintamide; Azintamidum; Oragallin

$$$$
