
 OpenBabel10282417183D

 31 32  0  0  0  0  0  0  0  0999 V2000
    1.0149   -0.1068    0.0636 S   0  0  0  0  0  0  0  0  0  0  0  0
    0.3348    0.2013   -1.4298 N   0  0  0  0  0  0  0  0  0  0  0  0
   -0.3873   -0.5159   -2.3990 C   0  0  0  0  0  0  0  0  0  0  0  0
    0.6344   -1.7535    0.6368 C   0  0  0  0  0  0  0  0  0  0  0  0
    0.3578    0.8222    0.9760 O   0  0  0  0  0  0  0  0  0  0  0  0
    2.4417   -0.0439   -0.1144 O   0  0  0  0  0  0  0  0  0  0  0  0
   -0.6008   -0.0254   -3.4994 O   0  0  0  0  0  0  0  0  0  0  0  0
   -1.0442   -1.7763   -2.0529 C   0  0  0  0  0  0  0  0  0  0  0  0
   -0.3831   -1.9834    1.5790 C   0  0  0  0  0  0  0  0  0  0  0  0
    1.3161   -2.8373    0.0828 C   0  0  0  0  0  0  0  0  0  0  0  0
   -0.1735   -4.3966    1.2438 C   0  0  0  0  0  0  0  0  0  0  0  0
   -0.8085   -5.6397    1.2170 N   0  0  0  0  0  0  0  0  0  0  0  0
    0.8936   -4.1453    0.3708 C   0  0  0  0  0  0  0  0  0  0  0  0
   -0.7868   -3.3032    1.8675 C   0  0  0  0  0  0  0  0  0  0  0  0
   -1.8732   -1.7602   -0.9406 C   0  0  0  0  0  0  0  0  0  0  0  0
   -0.9606   -2.9256   -2.8468 C   0  0  0  0  0  0  0  0  0  0  0  0
   -1.6026   -4.0955   -2.4250 C   0  0  0  0  0  0  0  0  0  0  0  0
   -2.4860   -2.9317   -0.5155 C   0  0  0  0  0  0  0  0  0  0  0  0
   -2.2879   -4.1153   -1.2144 C   0  0  0  0  0  0  0  0  0  0  0  0
    0.6270    1.1184   -1.7703 H   0  0  0  0  0  0  0  0  0  0  0  0
   -1.0143   -1.1634    1.9264 H   0  0  0  0  0  0  0  0  0  0  0  0
    2.0996   -2.6762   -0.6523 H   0  0  0  0  0  0  0  0  0  0  0  0
   -1.5696   -5.8197    1.8598 H   0  0  0  0  0  0  0  0  0  0  0  0
   -0.2636   -6.4486    0.9429 H   0  0  0  0  0  0  0  0  0  0  0  0
    1.3329   -4.9668   -0.1894 H   0  0  0  0  0  0  0  0  0  0  0  0
   -1.7132   -3.4585    2.4218 H   0  0  0  0  0  0  0  0  0  0  0  0
   -1.9446   -0.8586   -0.3373 H   0  0  0  0  0  0  0  0  0  0  0  0
   -0.4053   -2.9252   -3.7810 H   0  0  0  0  0  0  0  0  0  0  0  0
   -1.5805   -4.9999   -3.0258 H   0  0  0  0  0  0  0  0  0  0  0  0
   -3.0051   -2.9418    0.4386 H   0  0  0  0  0  0  0  0  0  0  0  0
   -2.6234   -5.0554   -0.7813 H   0  0  0  0  0  0  0  0  0  0  0  0
  2  1  1  0  0  0  0
  2 20  1  0  0  0  0
  3  2  1  0  0  0  0
  4  1  1  0  0  0  0
  5  1  2  0  0  0  0
  6  1  2  0  0  0  0
  7  3  2  0  0  0  0
  8  3  1  0  0  0  0
  9  4  2  0  0  0  0
  9 21  1  0  0  0  0
 10  4  1  0  0  0  0
 10 22  1  0  0  0  0
 11 13  1  0  0  0  0
 11 14  2  0  0  0  0
 12 11  1  0  0  0  0
 12 23  1  0  0  0  0
 12 24  1  0  0  0  0
 13 10  2  0  0  0  0
 13 25  1  0  0  0  0
 14  9  1  0  0  0  0
 14 26  1  0  0  0  0
 15  8  2  0  0  0  0
 15 27  1  0  0  0  0
 16  8  1  0  0  0  0
 16 28  1  0  0  0  0
 17 16  2  0  0  0  0
 17 29  1  0  0  0  0
 18 15  1  0  0  0  0
 18 19  2  0  0  0  0
 18 30  1  0  0  0  0
 19 17  1  0  0  0  0
 19 31  1  0  0  0  0
M  END
>  <DRUGBANK_ID>
DB09355

>  <COMMON_NAME>
Sulfabenzamide

>  <CAS_NUMBER>
127-71-9

>  <UNII>
G58F8OPL4I

>  <SYNONYMS>
N-Benzoylsulfanilamide; N-Sulfanilylbenzamide; Sulfabenzamida; Sulfabenzamide; Sulfabenzamidum; Sulfabenzoylamide; Sulfamylbenzamide

$$$$
