
 OpenBabel10282417123D

 54 56  0  0  0  0  0  0  0  0999 V2000
    1.4546   -0.2845    0.0151 C   0  0  0  0  0  0  0  0  0  0  0  0
    0.5393   -1.3361    0.0151 C   0  0  0  0  0  0  0  0  0  0  0  0
    1.0051    1.0298   -0.0946 C   0  0  0  0  0  0  0  0  0  0  0  0
   -0.8286   -1.0846   -0.0878 C   0  0  0  0  0  0  0  0  0  0  0  0
   -0.3502    1.2756   -0.2436 C   0  0  0  0  0  0  0  0  0  0  0  0
   -2.6147    0.8916    5.8609 C   0  0  0  0  0  0  0  0  0  0  0  0
   -3.4696    0.4214    4.8821 C   0  0  0  0  0  0  0  0  0  0  0  0
   -2.7525    0.5507   -0.3807 C   0  0  0  0  0  0  0  0  0  0  0  0
   -3.2978    1.3139    0.8292 C   0  0  0  0  0  0  0  0  0  0  0  0
   -1.2150    1.2086    9.9787 C   0  0  0  0  0  0  0  0  0  0  0  0
   -0.0628   -0.3246    8.5132 C   0  0  0  0  0  0  0  0  0  0  0  0
   -0.8120   -1.1581   10.7827 C   0  0  0  0  0  0  0  0  0  0  0  0
   -2.3079    2.9549    4.6489 C   0  0  0  0  0  0  0  0  0  0  0  0
   -1.2849    0.2339   -0.2357 C   0  0  0  0  0  0  0  0  0  0  0  0
   -0.7108   -0.0746    9.7337 C   0  0  0  0  0  0  0  0  0  0  0  0
   -2.0122    2.1510    5.7547 C   0  0  0  0  0  0  0  0  0  0  0  0
   -3.1737    2.4985    3.6326 C   0  0  0  0  0  0  0  0  0  0  0  0
   -1.1813    2.1792    8.9744 C   0  0  0  0  0  0  0  0  0  0  0  0
   -0.0495    0.6354    7.5029 C   0  0  0  0  0  0  0  0  0  0  0  0
   -3.8126    1.2630    3.8349 C   0  0  0  0  0  0  0  0  0  0  0  0
   -1.6824   -2.3514   10.3628 C   0  0  0  0  0  0  0  0  0  0  0  0
   -0.7260    1.8448    7.6962 C   0  0  0  0  0  0  0  0  0  0  0  0
   -3.3295    3.2684    2.3224 C   0  0  3  0  0  0  0  0  0  0  0  0
   -1.7109    3.9478    9.4029 Br  0  0  0  0  0  0  0  0  0  0  0  0
    0.8178    0.1932    5.8697 Br  0  0  0  0  0  0  0  0  0  0  0  0
   -2.7098    2.6186    1.1660 N   0  0  0  0  0  0  0  0  0  0  0  0
   -4.8099    0.8330    3.0045 O   0  0  0  0  0  0  0  0  0  0  0  0
   -1.1368   -3.0262    9.2464 O   0  0  0  0  0  0  0  0  0  0  0  0
   -1.7625   -3.2992   11.4073 O   0  0  0  0  0  0  0  0  0  0  0  0
   -2.6708    4.5250    2.4373 O   0  0  0  0  0  0  0  0  0  0  0  0
   -1.0669    2.6597    6.6382 O   0  0  0  0  0  0  0  0  0  0  0  0
    2.5185   -0.4800    0.0865 H   0  0  0  0  0  0  0  0  0  0  0  0
    0.8991   -2.3614    0.0850 H   0  0  0  0  0  0  0  0  0  0  0  0
    1.7032    1.8596   -0.0882 H   0  0  0  0  0  0  0  0  0  0  0  0
   -1.5263   -1.9180   -0.0673 H   0  0  0  0  0  0  0  0  0  0  0  0
   -0.6819    2.3073   -0.3617 H   0  0  0  0  0  0  0  0  0  0  0  0
   -2.4409    0.2288    6.7011 H   0  0  0  0  0  0  0  0  0  0  0  0
   -3.8709   -0.5830    4.9505 H   0  0  0  0  0  0  0  0  0  0  0  0
   -2.9404    1.0867   -1.3149 H   0  0  0  0  0  0  0  0  0  0  0  0
   -3.3180   -0.3919   -0.4416 H   0  0  0  0  0  0  0  0  0  0  0  0
   -4.3821    1.4139    0.7058 H   0  0  0  0  0  0  0  0  0  0  0  0
   -3.0606    0.6266    1.6407 H   0  0  0  0  0  0  0  0  0  0  0  0
   -1.6442    1.4519   10.9492 H   0  0  0  0  0  0  0  0  0  0  0  0
    0.4062   -1.2899    8.3315 H   0  0  0  0  0  0  0  0  0  0  0  0
    0.2029   -1.4965   11.0219 H   0  0  0  0  0  0  0  0  0  0  0  0
   -1.2180   -0.7450   11.7149 H   0  0  0  0  0  0  0  0  0  0  0  0
   -1.8572    3.9428    4.5943 H   0  0  0  0  0  0  0  0  0  0  0  0
   -2.7048   -2.0358   10.1249 H   0  0  0  0  0  0  0  0  0  0  0  0
   -4.3846    3.4948    2.1425 H   0  0  0  0  0  0  0  0  0  0  0  0
   -1.7432    2.4446    1.4240 H   0  0  0  0  0  0  0  0  0  0  0  0
   -4.7292   -0.1337    2.9144 H   0  0  0  0  0  0  0  0  0  0  0  0
   -1.4988   -2.5815    8.4610 H   0  0  0  0  0  0  0  0  0  0  0  0
   -0.8521   -3.6231   11.5174 H   0  0  0  0  0  0  0  0  0  0  0  0
   -1.7292    4.3266    2.3130 H   0  0  0  0  0  0  0  0  0  0  0  0
  1 32  1  0  0  0  0
  2  1  2  0  0  0  0
  2 33  1  0  0  0  0
  3  1  1  0  0  0  0
  3 34  1  0  0  0  0
  4  2  1  0  0  0  0
  4 35  1  0  0  0  0
  5  3  2  0  0  0  0
  5 36  1  0  0  0  0
  6 37  1  0  0  0  0
  7  6  2  0  0  0  0
  7 38  1  0  0  0  0
  8 39  1  0  0  0  0
  8 40  1  0  0  0  0
  9  8  1  0  0  0  0
  9 41  1  0  0  0  0
  9 42  1  0  0  0  0
 10 43  1  0  0  0  0
 11 44  1  0  0  0  0
 12 45  1  0  0  0  0
 12 46  1  0  0  0  0
 13 47  1  0  0  0  0
 14  4  2  0  0  0  0
 14  5  1  0  0  0  0
 14  8  1  0  0  0  0
 15 10  2  0  0  0  0
 15 11  1  0  0  0  0
 15 12  1  0  0  0  0
 16  6  1  0  0  0  0
 16 13  2  0  0  0  0
 17 13  1  0  0  0  0
 18 10  1  0  0  0  0
 19 11  2  0  0  0  0
 20  7  1  0  0  0  0
 20 17  2  0  0  0  0
 21 12  1  0  0  0  0
 21 48  1  0  0  0  0
 22 18  2  0  0  0  0
 22 19  1  0  0  0  0
 23 17  1  0  0  0  0
 23 49  1  0  0  0  0
 24 18  1  0  0  0  0
 25 19  1  0  0  0  0
 26  9  1  0  0  0  0
 26 23  1  0  0  0  0
 26 50  1  0  0  0  0
 27 20  1  0  0  0  0
 27 51  1  0  0  0  0
 28 21  1  0  0  0  0
 28 52  1  0  0  0  0
 29 21  1  0  0  0  0
 29 53  1  0  0  0  0
 30 23  1  0  0  0  0
 30 54  1  0  0  0  0
 31 16  1  0  0  0  0
 31 22  1  0  0  0  0
M  END
>  <DRUGBANK_ID>
DB02106

>  <SECONDARY_ACCESSION_NUMBERS>
EXPT00196

>  <COMMON_NAME>
[3,5-Dibromo-4-(4-Hydroxy-3-Phenethylcarbamoyl-Phenoxy)-Phenyl]-Acetic Acid

$$$$
