DC8
 OpenBabel10282417163D

 39 42  0  0  0  0  0  0  0  0999 V2000
   -0.8748   -0.8656    0.0061 C   0  0  0  0  0  0  0  0  0  0  0  0
    1.1347   -1.9194    0.7244 C   0  0  1  0  0  0  0  0  0  0  0  0
    1.8830   -0.5949    0.5010 C   0  0  1  0  0  0  0  0  0  0  0  0
    2.2701   -0.3431   -0.9643 C   0  0  0  0  0  0  0  0  0  0  0  0
    0.9961    0.6008    0.8603 C   0  0  2  0  0  0  0  0  0  0  0  0
   -0.4364    0.3781    0.4616 C   0  0  0  0  0  0  0  0  0  0  0  0
    3.2646   -3.2800    1.0558 C   0  0  0  0  0  0  0  0  0  0  0  0
    4.1902   -4.2276    0.6105 C   0  0  0  0  0  0  0  0  0  0  0  0
    3.8641   -5.0705   -0.4391 C   0  0  0  0  0  0  0  0  0  0  0  0
    2.6112   -5.0044   -1.0388 C   0  0  0  0  0  0  0  0  0  0  0  0
   -2.6502    1.2809    0.0714 C   0  0  0  0  0  0  0  0  0  0  0  0
   -3.0740    0.0603   -0.4349 C   0  0  0  0  0  0  0  0  0  0  0  0
   -2.1806   -1.0152   -0.4671 C   0  0  0  0  0  0  0  0  0  0  0  0
   -0.0719   -1.9712   -0.0628 O   0  0  0  0  0  0  0  0  0  0  0  0
    2.3537    1.1635   -1.0801 C   0  0  0  0  0  0  0  0  0  0  0  0
    1.8074    1.5783   -2.2438 F   0  0  0  0  0  0  0  0  0  0  0  0
    3.6460    1.5662   -1.0802 F   0  0  0  0  0  0  0  0  0  0  0  0
    1.6357    1.7761    0.1086 C   0  0  0  0  0  0  0  0  0  0  0  0
   -1.3495    1.4421    0.5253 C   0  0  0  0  0  0  0  0  0  0  0  0
    2.0397   -3.1049    0.3819 C   0  0  0  0  0  0  0  0  0  0  0  0
    4.8094   -5.9536   -0.8703 O   0  0  0  0  0  0  0  0  0  0  0  0
    1.7187   -4.0022   -0.6477 C   0  0  0  0  0  0  0  0  0  0  0  0
   -3.4692    2.3676    0.1331 O   0  0  0  0  0  0  0  0  0  0  0  0
    0.8403   -2.0254    1.7778 H   0  0  0  0  0  0  0  0  0  0  0  0
    2.7939   -0.5468    1.1137 H   0  0  0  0  0  0  0  0  0  0  0  0
    1.0143    0.7726    1.9443 H   0  0  0  0  0  0  0  0  0  0  0  0
    1.5220   -0.7342   -1.6619 H   0  0  0  0  0  0  0  0  0  0  0  0
    3.2273   -0.8172   -1.2051 H   0  0  0  0  0  0  0  0  0  0  0  0
    3.5284   -2.6559    1.9054 H   0  0  0  0  0  0  0  0  0  0  0  0
    5.1727   -4.2941    1.0732 H   0  0  0  0  0  0  0  0  0  0  0  0
    2.3194   -5.6984   -1.8179 H   0  0  0  0  0  0  0  0  0  0  0  0
   -4.0855   -0.0755   -0.8026 H   0  0  0  0  0  0  0  0  0  0  0  0
   -2.5025   -1.9738   -0.8650 H   0  0  0  0  0  0  0  0  0  0  0  0
    2.3560    2.2782    0.7635 H   0  0  0  0  0  0  0  0  0  0  0  0
    0.9179    2.5305   -0.2265 H   0  0  0  0  0  0  0  0  0  0  0  0
   -1.0456    2.4156    0.9027 H   0  0  0  0  0  0  0  0  0  0  0  0
    4.4755   -6.3998   -1.6646 H   0  0  0  0  0  0  0  0  0  0  0  0
    0.7734   -3.9153   -1.1811 H   0  0  0  0  0  0  0  0  0  0  0  0
   -4.3419    2.1242   -0.2149 H   0  0  0  0  0  0  0  0  0  0  0  0
  1 13  1  0  0  0  0
  1 14  1  0  0  0  0
  1  6  2  0  0  0  0
  2 14  1  0  0  0  0
  2 20  1  0  0  0  0
  2  3  1  0  0  0  0
  2 24  1  1  0  0  0
  3  5  1  0  0  0  0
  3  4  1  0  0  0  0
  3 25  1  1  0  0  0
  4 15  1  0  0  0  0
  4 27  1  0  0  0  0
  4 28  1  0  0  0  0
  5  6  1  0  0  0  0
  5 18  1  0  0  0  0
  5 26  1  1  0  0  0
  6 19  1  0  0  0  0
  7 20  2  0  0  0  0
  7  8  1  0  0  0  0
  7 29  1  0  0  0  0
  8  9  2  0  0  0  0
  8 30  1  0  0  0  0
  9 10  1  0  0  0  0
  9 21  1  0  0  0  0
 10 22  2  0  0  0  0
 10 31  1  0  0  0  0
 11 12  1  0  0  0  0
 11 23  1  0  0  0  0
 11 19  2  0  0  0  0
 12 13  2  0  0  0  0
 12 32  1  0  0  0  0
 13 33  1  0  0  0  0
 15 18  1  0  0  0  0
 15 17  1  0  0  0  0
 15 16  1  0  0  0  0
 18 34  1  0  0  0  0
 18 35  1  0  0  0  0
 19 36  1  0  0  0  0
 20 22  1  0  0  0  0
 21 37  1  0  0  0  0
 22 38  1  0  0  0  0
 23 39  1  0  0  0  0
M  END
>  <DRUGBANK_ID>
DB07638

>  <COMMON_NAME>
(3AS,4R,9BR)-2,2-DIFLUORO-4-(4-HYDROXYPHENYL)-1,2,3,3A,4,9B-HEXAHYDROCYCLOPENTA[C]CHROMEN-8-OL

$$$$
