
 OpenBabel10282417123D

 15 14  0  0  1  0  0  0  0  0999 V2000
    0.9062   -0.0349    0.0245 C   0  0  0  0  0  0  0  0  0  0  0  0
    0.4121    1.0768    0.9365 C   0  0  0  0  0  0  0  0  0  0  0  0
    0.8945    2.4629    0.5011 C   0  0  1  0  0  0  0  0  0  0  0  0
    0.4054    2.8512   -0.8883 C   0  0  0  0  0  0  0  0  0  0  0  0
    0.4307    3.4315    1.4393 O   0  0  0  0  0  0  0  0  0  0  0  0
    0.5235    0.0809   -0.9937 H   0  0  0  0  0  0  0  0  0  0  0  0
    0.5678   -1.0084    0.3903 H   0  0  0  0  0  0  0  0  0  0  0  0
    2.0000   -0.0442   -0.0183 H   0  0  0  0  0  0  0  0  0  0  0  0
   -0.6842    1.0595    0.9816 H   0  0  0  0  0  0  0  0  0  0  0  0
    0.7513    0.8836    1.9623 H   0  0  0  0  0  0  0  0  0  0  0  0
    1.9898    2.4961    0.5239 H   0  0  0  0  0  0  0  0  0  0  0  0
   -0.6894    2.8456   -0.9303 H   0  0  0  0  0  0  0  0  0  0  0  0
    0.7292    3.8659   -1.1403 H   0  0  0  0  0  0  0  0  0  0  0  0
    0.7875    2.1752   -1.6579 H   0  0  0  0  0  0  0  0  0  0  0  0
   -0.5440    3.4268    1.4184 H   0  0  0  0  0  0  0  0  0  0  0  0
  1  2  1  0  0  0  0
  1  6  1  0  0  0  0
  1  7  1  0  0  0  0
  1  8  1  0  0  0  0
  2  3  1  0  0  0  0
  2  9  1  0  0  0  0
  2 10  1  0  0  0  0
  3  4  1  0  0  0  0
  3  5  1  0  0  0  0
  3 11  1  1  0  0  0
  4 12  1  0  0  0  0
  4 13  1  0  0  0  0
  4 14  1  0  0  0  0
  5 15  1  0  0  0  0
M  END
>  <DRUGBANK_ID>
DB02606

>  <SECONDARY_ACCESSION_NUMBERS>
EXPT02861

>  <COMMON_NAME>
2-Butanol

>  <CAS_NUMBER>
78-92-2

>  <UNII>
DLH38K423J

$$$$
