
 OpenBabel10282417123D

 45 46  0  0  1  0  0  0  0  0999 V2000
    1.2506   -0.1575    0.2526 C   0  0  0  0  0  0  0  0  0  0  0  0
   -2.2873    3.2565   -1.6928 C   0  0  0  0  0  0  0  0  0  0  0  0
   -2.6540    4.3970   -3.8149 C   0  0  0  0  0  0  0  0  0  0  0  0
    0.5429    1.1780    0.4685 C   0  0  2  0  0  0  0  0  0  0  0  0
   -2.8869    4.2340   -2.3078 C   0  0  0  0  0  0  0  0  0  0  0  0
   -1.7856    3.2101   -0.2438 C   0  0  1  0  0  0  0  0  0  0  0  0
   -0.7884    1.0626   -0.3024 C   0  0  2  0  0  0  0  0  0  0  0  0
   -3.7075    5.1124   -1.4494 C   0  0  2  0  0  0  0  0  0  0  0  0
   -2.1422    4.4842    0.5151 C   0  0  1  0  0  0  0  0  0  0  0  0
   -0.4137    1.3332   -1.8229 C   0  0  1  0  0  0  0  0  0  0  0  0
   -3.5610    4.8419    0.1060 C   0  0  1  0  0  0  0  0  0  0  0  0
    0.4456    2.7250   -2.1221 C   0  0  2  0  0  0  0  0  0  0  0  0
    1.6698    2.6314   -1.2048 C   0  0  1  0  0  0  0  0  0  0  0  0
   -1.9241    1.8720    0.2744 N   0  0  0  0  0  0  0  0  0  0  0  0
   -3.7003    3.7912   -4.5408 O   0  0  0  0  0  0  0  0  0  0  0  0
   -5.0374    4.7639   -1.8081 O   0  0  0  0  0  0  0  0  0  0  0  0
   -1.8912    4.3285    1.9140 O   0  0  0  0  0  0  0  0  0  0  0  0
    0.2984    0.2623   -2.4656 O   0  0  0  0  0  0  0  0  0  0  0  0
   -3.9853    5.9864    0.8354 O   0  0  0  0  0  0  0  0  0  0  0  0
    0.1031    4.1481   -2.1217 O   0  0  0  0  0  0  0  0  0  0  0  0
    2.4171    3.8486   -1.2200 O   0  0  0  0  0  0  0  0  0  0  0  0
    1.3353    2.3376    0.1491 O   0  0  0  0  0  0  0  0  0  0  0  0
    0.3536    1.2753    1.5457 H   0  0  0  0  0  0  0  0  0  0  0  0
   -0.7147    3.3400   -0.1511 H   0  0  0  0  0  0  0  0  0  0  0  0
   -1.1636    0.0350   -0.1831 H   0  0  0  0  0  0  0  0  0  0  0  0
   -3.4875    6.1521   -1.6933 H   0  0  0  0  0  0  0  0  0  0  0  0
   -1.4530    5.2920    0.2177 H   0  0  0  0  0  0  0  0  0  0  0  0
   -1.3594    1.1438   -2.3350 H   0  0  0  0  0  0  0  0  0  0  0  0
   -4.1956    3.9997    0.4075 H   0  0  0  0  0  0  0  0  0  0  0  0
    0.7016    2.6513   -3.1781 H   0  0  0  0  0  0  0  0  0  0  0  0
    2.3321    1.8661   -1.5959 H   0  0  0  0  0  0  0  0  0  0  0  0
    0.8911   -0.6815   -0.6350 H   0  0  0  0  0  0  0  0  0  0  0  0
    0.9484   -0.8529    1.0396 H   0  0  0  0  0  0  0  0  0  0  0  0
    2.3278   -0.0662    0.1559 H   0  0  0  0  0  0  0  0  0  0  0  0
   -1.8784    2.6686   -2.4870 H   0  0  0  0  0  0  0  0  0  0  0  0
   -2.5061    5.4369   -4.1122 H   0  0  0  0  0  0  0  0  0  0  0  0
   -1.7248    3.8904   -4.1463 H   0  0  0  0  0  0  0  0  0  0  0  0
   -1.8476    1.8629    1.2940 H   0  0  0  0  0  0  0  0  0  0  0  0
   -3.7897    2.8841   -4.2034 H   0  0  0  0  0  0  0  0  0  0  0  0
   -5.0705    3.7859   -1.7952 H   0  0  0  0  0  0  0  0  0  0  0  0
   -2.4245    3.5909    2.2477 H   0  0  0  0  0  0  0  0  0  0  0  0
    1.2480    0.3548   -2.3009 H   0  0  0  0  0  0  0  0  0  0  0  0
   -3.4087    6.7222    0.5696 H   0  0  0  0  0  0  0  0  0  0  0  0
   -0.6149    4.4997   -1.5860 H   0  0  0  0  0  0  0  0  0  0  0  0
    1.7822    4.5498   -0.9791 H   0  0  0  0  0  0  0  0  0  0  0  0
  1 32  1  0  0  0  0
  1 33  1  0  0  0  0
  1 34  1  0  0  0  0
  2 35  1  0  0  0  0
  3 36  1  0  0  0  0
  3 37  1  0  0  0  0
  4  1  1  0  0  0  0
  4 23  1  1  0  0  0
  5  2  2  0  0  0  0
  5  3  1  0  0  0  0
  6  2  1  0  0  0  0
  6 14  1  0  0  0  0
  6 24  1  6  0  0  0
  7  4  1  0  0  0  0
  7 25  1  1  0  0  0
  7 14  1  0  0  0  0
  8  5  1  0  0  0  0
  8 16  1  0  0  0  0
  8 26  1  6  0  0  0
  9  6  1  0  0  0  0
  9 17  1  0  0  0  0
  9 27  1  6  0  0  0
 10  7  1  0  0  0  0
 10 18  1  0  0  0  0
 10 28  1  6  0  0  0
 11  8  1  0  0  0  0
 11  9  1  0  0  0  0
 11 19  1  0  0  0  0
 11 29  1  1  0  0  0
 12 10  1  0  0  0  0
 12 30  1  6  0  0  0
 12 20  1  0  0  0  0
 13 12  1  0  0  0  0
 13 31  1  6  0  0  0
 13 21  1  0  0  0  0
 14 38  1  0  0  0  0
 15  3  1  0  0  0  0
 15 39  1  0  0  0  0
 16 40  1  0  0  0  0
 17 41  1  0  0  0  0
 18 42  1  0  0  0  0
 19 43  1  0  0  0  0
 20 44  1  0  0  0  0
 21 45  1  0  0  0  0
 22  4  1  0  0  0  0
 22 13  1  0  0  0  0
M  END
>  <DRUGBANK_ID>
DB02218

>  <SECONDARY_ACCESSION_NUMBERS>
EXPT00405

>  <COMMON_NAME>
N-[4-hydroxymethyl-cyclohexan-6-yl-1,2,3-triol]-4,6-dideoxy-4-aminoglucopyranoside

$$$$
