TI3
 OpenBabel10282417123D

 53 55  0  0  0  0  0  0  0  0999 V2000
    0.8464    0.3453   -0.0902 S   0  0  0  0  0  0  0  0  0  0  0  0
    0.5956   -0.2707   -1.7790 C   0  0  1  0  0  0  0  0  0  0  0  0
    1.0514    0.8038   -2.8065 C   0  0  0  0  0  0  0  0  0  0  0  0
    2.5442    1.0640   -3.0192 C   0  0  0  0  0  0  0  0  0  0  0  0
    3.1677    2.2507   -2.6210 C   0  0  0  0  0  0  0  0  0  0  0  0
    3.3895    0.0759   -3.5241 C   0  0  0  0  0  0  0  0  0  0  0  0
    4.5661    2.3219   -2.4544 C   0  0  0  0  0  0  0  0  0  0  0  0
    4.7698    0.0916   -3.1971 C   0  0  0  0  0  0  0  0  0  0  0  0
    5.3518    1.1940   -2.6093 C   0  0  0  0  0  0  0  0  0  0  0  0
    0.9389   -1.7524   -2.0738 C   0  0  0  0  0  0  0  0  0  0  0  0
    0.0755   -2.4994   -2.5537 O   0  0  0  0  0  0  0  0  0  0  0  0
    2.1642   -2.3278   -1.9140 N   0  0  0  0  0  0  0  0  0  0  0  0
    3.4129   -1.7312   -1.5301 C   0  0  0  0  0  0  0  0  0  0  0  0
    4.3318   -1.7905   -0.3357 C   0  0  0  0  0  0  0  0  0  0  0  0
    5.5102   -1.5074   -0.4172 O   0  0  0  0  0  0  0  0  0  0  0  0
    3.6441   -1.8763    0.8377 N   0  0  0  0  0  0  0  0  0  0  0  0
    2.4499   -2.6594    0.9948 C   0  0  2  0  0  0  0  0  0  0  0  0
    4.1434   -1.3426    2.0892 C   0  0  1  0  0  0  0  0  0  0  0  0
    2.9662   -1.5877    3.0494 C   0  0  0  0  0  0  0  0  0  0  0  0
    1.7905   -2.0164    2.1872 C   0  0  0  0  0  0  0  0  0  0  0  0
    2.7653   -4.1274    1.0786 C   0  0  0  0  0  0  0  0  0  0  0  0
    1.7130   -5.0102    1.3082 C   0  0  0  0  0  0  0  0  0  0  0  0
    4.0530   -4.6482    0.8523 C   0  0  0  0  0  0  0  0  0  0  0  0
    1.9599   -6.3723    1.3944 C   0  0  0  0  0  0  0  0  0  0  0  0
    4.2981   -6.0076    0.9177 C   0  0  0  0  0  0  0  0  0  0  0  0
    3.2529   -6.8661    1.2210 C   0  0  0  0  0  0  0  0  0  0  0  0
    5.3906   -2.0784    2.5843 C   0  0  0  0  0  0  0  0  0  0  0  0
    5.4515   -3.2257    3.0002 O   0  0  0  0  0  0  0  0  0  0  0  0
    6.5241   -1.3608    2.4739 O   0  0  0  0  0  0  0  0  0  0  0  0
   -0.5070   -0.2886   -1.8050 H   0  0  0  0  0  0  0  0  0  0  0  0
    1.7624   -2.5669    0.1675 H   0  0  0  0  0  0  0  0  0  0  0  0
    4.3655   -0.2769    1.9486 H   0  0  0  0  0  0  0  0  0  0  0  0
    2.1567    0.1023    0.0397 H   0  0  0  0  0  0  0  0  0  0  0  0
    0.5918    0.5613   -3.7683 H   0  0  0  0  0  0  0  0  0  0  0  0
    0.5825    1.7471   -2.4844 H   0  0  0  0  0  0  0  0  0  0  0  0
    2.5745    3.1369   -2.4196 H   0  0  0  0  0  0  0  0  0  0  0  0
    2.9463   -0.8414   -3.9117 H   0  0  0  0  0  0  0  0  0  0  0  0
    5.0450    3.2500   -2.1620 H   0  0  0  0  0  0  0  0  0  0  0  0
    5.3718   -0.8210   -3.2117 H   0  0  0  0  0  0  0  0  0  0  0  0
    6.3938    1.1495   -2.2958 H   0  0  0  0  0  0  0  0  0  0  0  0
    2.2417   -3.2299   -2.3710 H   0  0  0  0  0  0  0  0  0  0  0  0
    4.0504   -2.0342   -2.3509 H   0  0  0  0  0  0  0  0  0  0  0  0
    3.1740   -0.6808   -1.4257 H   0  0  0  0  0  0  0  0  0  0  0  0
    2.7181   -0.6862    3.6128 H   0  0  0  0  0  0  0  0  0  0  0  0
    3.1728   -2.4038    3.7419 H   0  0  0  0  0  0  0  0  0  0  0  0
    1.2547   -1.1168    1.8935 H   0  0  0  0  0  0  0  0  0  0  0  0
    1.0458   -2.6488    2.6677 H   0  0  0  0  0  0  0  0  0  0  0  0
    0.6986   -4.6333    1.4184 H   0  0  0  0  0  0  0  0  0  0  0  0
    4.9133   -4.0123    0.6592 H   0  0  0  0  0  0  0  0  0  0  0  0
    1.1360   -7.0473    1.5947 H   0  0  0  0  0  0  0  0  0  0  0  0
    5.3056   -6.3741    0.7456 H   0  0  0  0  0  0  0  0  0  0  0  0
    3.4492   -7.9265    1.3211 H   0  0  0  0  0  0  0  0  0  0  0  0
    7.2205   -2.0137    2.6996 H   0  0  0  0  0  0  0  0  0  0  0  0
  1 33  1  0  0  0  0
  2  1  1  0  0  0  0
  2  3  1  0  0  0  0
  2 10  1  0  0  0  0
  2 30  1  6  0  0  0
  3  4  1  0  0  0  0
  3 34  1  0  0  0  0
  3 35  1  0  0  0  0
  4  5  2  0  0  0  0
  4  6  1  0  0  0  0
  5  7  1  0  0  0  0
  5 36  1  0  0  0  0
  6  8  2  0  0  0  0
  6 37  1  0  0  0  0
  7  9  2  0  0  0  0
  7 38  1  0  0  0  0
  8  9  1  0  0  0  0
  8 39  1  0  0  0  0
  9 40  1  0  0  0  0
 10 11  2  0  0  0  0
 10 12  1  0  0  0  0
 12 13  1  0  0  0  0
 12 41  1  0  0  0  0
 13 14  1  0  0  0  0
 13 42  1  0  0  0  0
 13 43  1  0  0  0  0
 14 15  2  0  0  0  0
 14 16  1  0  0  0  0
 16 17  1  0  0  0  0
 16 18  1  0  0  0  0
 17 20  1  0  0  0  0
 17 21  1  0  0  0  0
 17 31  1  6  0  0  0
 18 19  1  0  0  0  0
 18 32  1  6  0  0  0
 18 27  1  0  0  0  0
 19 20  1  0  0  0  0
 19 44  1  0  0  0  0
 19 45  1  0  0  0  0
 20 46  1  0  0  0  0
 20 47  1  0  0  0  0
 21 22  1  0  0  0  0
 21 23  2  0  0  0  0
 22 24  2  0  0  0  0
 22 48  1  0  0  0  0
 23 25  1  0  0  0  0
 23 49  1  0  0  0  0
 24 26  1  0  0  0  0
 24 50  1  0  0  0  0
 25 26  2  0  0  0  0
 25 51  1  0  0  0  0
 26 52  1  0  0  0  0
 27 28  2  0  0  0  0
 27 29  1  0  0  0  0
 29 53  1  0  0  0  0
M  END
>  <DRUGBANK_ID>
DB02669

>  <SECONDARY_ACCESSION_NUMBERS>
EXPT03062

>  <COMMON_NAME>
RB106

$$$$
