
 OpenBabel10282417123D

 34 33  0  0  1  0  0  0  0  0999 V2000
   -0.4433   -0.3577    5.8336 O   0  0  0  0  0  0  0  0  0  0  0  0
    0.4622   -1.3153    5.2379 C   0  0  2  0  0  0  0  0  0  0  0  0
    1.5511   -1.6852    6.2210 C   0  0  0  0  0  0  0  0  0  0  0  0
    3.0358   -1.6402    5.7563 O   0  0  0  0  0  0  0  0  0  0  0  0
    2.7772   -3.2515    5.1820 P   0  0  0  0  0  0  0  0  0  0  0  0
    4.4087   -3.3537    5.2449 O   0  0  0  0  0  0  0  0  0  0  0  0
    2.5865   -3.8906    6.6885 O   0  0  0  0  0  0  0  0  0  0  0  0
    2.5458   -4.6936    4.6681 O   0  0  0  0  0  0  0  0  0  0  0  0
    0.9541   -0.7450    3.8863 C   0  0  2  0  0  0  0  0  0  0  0  0
    2.3590   -0.8623    3.6118 O   0  0  0  0  0  0  0  0  0  0  0  0
    0.5296    0.6947    3.5370 C   0  0  2  0  0  0  0  0  0  0  0  0
    0.9866    0.9692    2.2114 O   0  0  0  0  0  0  0  0  0  0  0  0
    1.1007    1.7963    4.4346 C   0  0  0  0  0  0  0  0  0  0  0  0
    0.3440    2.5341    5.1174 O   0  0  0  0  0  0  0  0  0  0  0  0
    2.6188    1.9427    4.5992 C   0  0  0  0  0  0  0  0  0  0  0  0
    3.1796    0.8372    5.3275 O   0  0  0  0  0  0  0  0  0  0  0  0
    2.4636    0.4962    6.8651 P   0  0  0  0  0  0  0  0  0  0  0  0
    3.9790    0.6627    7.4568 O   0  0  0  0  0  0  0  0  0  0  0  0
    2.0942    2.0865    7.0301 O   0  0  0  0  0  0  0  0  0  0  0  0
    1.8228    0.1910    8.2411 O   0  0  0  0  0  0  0  0  0  0  0  0
   -0.4187   -0.3110    6.8154 H   0  0  0  0  0  0  0  0  0  0  0  0
   -0.1230   -2.2290    5.0963 H   0  0  0  0  0  0  0  0  0  0  0  0
    1.2463   -0.9958    6.9390 H   0  0  0  0  0  0  0  0  0  0  0  0
    1.3995   -2.3389    7.0850 H   0  0  0  0  0  0  0  0  0  0  0  0
    4.7997   -3.3802    4.3577 H   0  0  0  0  0  0  0  0  0  0  0  0
    2.5919   -3.4761    7.5617 H   0  0  0  0  0  0  0  0  0  0  0  0
    0.5413   -1.4290    3.1415 H   0  0  0  0  0  0  0  0  0  0  0  0
    2.8747   -0.3492    4.2805 H   0  0  0  0  0  0  0  0  0  0  0  0
   -0.5649    0.7673    3.5470 H   0  0  0  0  0  0  0  0  0  0  0  0
    1.8776    0.5707    2.1433 H   0  0  0  0  0  0  0  0  0  0  0  0
    3.1043    2.0435    3.6255 H   0  0  0  0  0  0  0  0  0  0  0  0
    2.8581    2.8811    5.1208 H   0  0  0  0  0  0  0  0  0  0  0  0
    4.4154   -0.1899    7.6099 H   0  0  0  0  0  0  0  0  0  0  0  0
    1.2094    2.3761    6.7099 H   0  0  0  0  0  0  0  0  0  0  0  0
  1 21  1  0  0  0  0
  2 22  1  6  0  0  0
  2  3  1  0  0  0  0
  2  1  1  0  0  0  0
  3  4  1  0  0  0  0
  3 23  1  0  0  0  0
  3 24  1  0  0  0  0
  4  5  1  0  0  0  0
  5  6  1  0  0  0  0
  5  7  1  0  0  0  0
  5  8  2  0  0  0  0
  6 25  1  0  0  0  0
  7 26  1  0  0  0  0
  9 27  1  6  0  0  0
  9 10  1  0  0  0  0
  9  2  1  0  0  0  0
 10 28  1  0  0  0  0
 11 13  1  0  0  0  0
 11 29  1  1  0  0  0
 11 12  1  0  0  0  0
 11  9  1  0  0  0  0
 12 30  1  0  0  0  0
 13 14  2  0  0  0  0
 13 15  1  0  0  0  0
 15 16  1  0  0  0  0
 15 31  1  0  0  0  0
 15 32  1  0  0  0  0
 16 17  1  0  0  0  0
 17 18  1  0  0  0  0
 17 19  1  0  0  0  0
 17 20  2  0  0  0  0
 18 33  1  0  0  0  0
 19 34  1  0  0  0  0
M  END
>  <DRUGBANK_ID>
DB02512

>  <SECONDARY_ACCESSION_NUMBERS>
EXPT00120

>  <COMMON_NAME>
1,6-Fructose Diphosphate (Linear Form)

$$$$
