654
 OpenBabel10282417133D

 32 34  0  0  0  0  0  0  0  0999 V2000
   -1.0703    0.0291    0.1377 S   0  0  0  0  0  0  0  0  0  0  0  0
    0.1196    1.2448    0.0331 C   0  0  0  0  0  0  0  0  0  0  0  0
    1.3912    0.7213   -0.0552 C   0  0  0  0  0  0  0  0  0  0  0  0
    1.3872   -0.7035   -0.0250 C   0  0  0  0  0  0  0  0  0  0  0  0
    0.1071   -1.2124    0.0155 C   0  0  0  0  0  0  0  0  0  0  0  0
   -0.1666    2.7024    0.0515 C   0  0  0  0  0  0  0  0  0  0  0  0
   -1.0199    3.3208    0.9271 N   0  0  0  0  0  0  0  0  0  0  0  0
    0.3691    3.6137   -0.8367 C   0  0  0  0  0  0  0  0  0  0  0  0
   -0.2354    4.8038   -0.5199 N   0  0  0  0  0  0  0  0  0  0  0  0
   -0.9886    4.5981    0.6010 C   0  0  0  0  0  0  0  0  0  0  0  0
   -0.1734    6.0437   -1.2881 C   0  0  0  0  0  0  0  0  0  0  0  0
   -0.8363    5.9609   -2.6508 C   0  0  0  0  0  0  0  0  0  0  0  0
   -1.4258    4.7848   -3.1401 C   0  0  0  0  0  0  0  0  0  0  0  0
   -1.9905    4.7229   -4.4086 C   0  0  0  0  0  0  0  0  0  0  0  0
   -0.8654    7.0973   -3.4762 C   0  0  0  0  0  0  0  0  0  0  0  0
   -1.4589    7.0441   -4.7450 C   0  0  0  0  0  0  0  0  0  0  0  0
   -2.0222    5.8535   -5.2182 C   0  0  0  0  0  0  0  0  0  0  0  0
   -2.6753    5.7823   -6.5634 C   0  0  0  0  0  0  0  0  0  0  0  0
    2.2856    1.3315   -0.0706 H   0  0  0  0  0  0  0  0  0  0  0  0
    2.2770   -1.3204   -0.0350 H   0  0  0  0  0  0  0  0  0  0  0  0
   -0.1925   -2.2516    0.0153 H   0  0  0  0  0  0  0  0  0  0  0  0
    0.9759    3.4861   -1.7211 H   0  0  0  0  0  0  0  0  0  0  0  0
   -1.5130    5.3895    1.1155 H   0  0  0  0  0  0  0  0  0  0  0  0
    0.8886    6.2940   -1.3928 H   0  0  0  0  0  0  0  0  0  0  0  0
   -0.6620    6.8234   -0.6914 H   0  0  0  0  0  0  0  0  0  0  0  0
   -1.4693    3.8730   -2.5519 H   0  0  0  0  0  0  0  0  0  0  0  0
   -2.4122    3.7788   -4.7453 H   0  0  0  0  0  0  0  0  0  0  0  0
   -0.4344    8.0394   -3.1408 H   0  0  0  0  0  0  0  0  0  0  0  0
   -1.4824    7.9389   -5.3639 H   0  0  0  0  0  0  0  0  0  0  0  0
   -3.5231    6.4721   -6.6038 H   0  0  0  0  0  0  0  0  0  0  0  0
   -1.9558    6.0285   -7.3489 H   0  0  0  0  0  0  0  0  0  0  0  0
   -3.0572    4.7743   -6.7625 H   0  0  0  0  0  0  0  0  0  0  0  0
  1  2  1  0  0  0  0
  1  5  1  0  0  0  0
  2  3  2  0  0  0  0
  2  6  1  0  0  0  0
  3  4  1  0  0  0  0
  3 19  1  0  0  0  0
  4  5  2  0  0  0  0
  4 20  1  0  0  0  0
  5 21  1  0  0  0  0
  6  7  1  0  0  0  0
  6  8  2  0  0  0  0
  7 10  2  0  0  0  0
  8  9  1  0  0  0  0
  8 22  1  0  0  0  0
  9 10  1  0  0  0  0
  9 11  1  0  0  0  0
 10 23  1  0  0  0  0
 11 12  1  0  0  0  0
 11 24  1  0  0  0  0
 11 25  1  0  0  0  0
 12 13  2  0  0  0  0
 12 15  1  0  0  0  0
 13 14  1  0  0  0  0
 13 26  1  0  0  0  0
 14 17  2  0  0  0  0
 14 27  1  0  0  0  0
 15 16  2  0  0  0  0
 15 28  1  0  0  0  0
 16 17  1  0  0  0  0
 16 29  1  0  0  0  0
 17 18  1  0  0  0  0
 18 30  1  0  0  0  0
 18 31  1  0  0  0  0
 18 32  1  0  0  0  0
M  END
>  <DRUGBANK_ID>
DB03030

>  <SECONDARY_ACCESSION_NUMBERS>
EXPT00269

>  <COMMON_NAME>
4-(2-Thienyl)-1-(4-Methylbenzyl)-1h-Imidazole

$$$$
