GRR
 OpenBabel10282417163D

 38 39  0  0  0  0  0  0  0  0999 V2000
    0.9658   -0.0624   -0.0794 C   0  0  0  0  0  0  0  0  0  0  0  0
    0.5051   -1.5137    0.0154 C   0  0  0  0  0  0  0  0  0  0  0  0
    0.9305   -2.2079    1.2847 C   0  0  0  0  0  0  0  0  0  0  0  0
    0.8782   -3.6044    1.3888 C   0  0  0  0  0  0  0  0  0  0  0  0
    1.0666   -4.2257    2.6290 C   0  0  0  0  0  0  0  0  0  0  0  0
    1.2343   -1.4658    2.4260 C   0  0  0  0  0  0  0  0  0  0  0  0
    1.4243   -2.0822    3.6472 C   0  0  0  0  0  0  0  0  0  0  0  0
    1.3863   -3.4654    3.7539 C   0  0  0  0  0  0  0  0  0  0  0  0
    1.6936   -4.1569    4.8904 O   0  0  0  0  0  0  0  0  0  0  0  0
    2.1418   -3.3808    6.0053 C   0  0  2  0  0  0  0  0  0  0  0  0
    3.4398   -2.5956    5.7818 C   0  0  0  0  0  0  0  0  0  0  0  0
    4.4833   -3.3386    5.3721 O   0  0  0  0  0  0  0  0  0  0  0  0
    3.5673   -1.3796    5.9156 O   0  0  0  0  0  0  0  0  0  0  0  0
    2.3817   -4.3190    7.1855 C   0  0  0  0  0  0  0  0  0  0  0  0
    1.1602   -5.1146    7.5742 C   0  0  0  0  0  0  0  0  0  0  0  0
    1.2107   -6.5132    7.5298 C   0  0  0  0  0  0  0  0  0  0  0  0
    0.1184   -7.2712    7.9428 C   0  0  0  0  0  0  0  0  0  0  0  0
   -1.0281   -6.6380    8.4170 C   0  0  0  0  0  0  0  0  0  0  0  0
   -1.0878   -5.2466    8.4671 C   0  0  0  0  0  0  0  0  0  0  0  0
   -0.0130   -4.4851    8.0111 C   0  0  0  0  0  0  0  0  0  0  0  0
    1.3546   -2.6685    6.2880 H   0  0  0  0  0  0  0  0  0  0  0  0
    0.5612    0.5422    0.7409 H   0  0  0  0  0  0  0  0  0  0  0  0
    0.6183    0.3994   -1.0049 H   0  0  0  0  0  0  0  0  0  0  0  0
    2.0590   -0.0024   -0.0385 H   0  0  0  0  0  0  0  0  0  0  0  0
   -0.5919   -1.5336   -0.0069 H   0  0  0  0  0  0  0  0  0  0  0  0
    0.8673   -2.0660   -0.8584 H   0  0  0  0  0  0  0  0  0  0  0  0
    0.6799   -4.2172    0.5119 H   0  0  0  0  0  0  0  0  0  0  0  0
    0.9497   -5.3032    2.7178 H   0  0  0  0  0  0  0  0  0  0  0  0
    1.3173   -0.3848    2.4139 H   0  0  0  0  0  0  0  0  0  0  0  0
    1.5934   -1.4201    4.4864 H   0  0  0  0  0  0  0  0  0  0  0  0
    5.1905   -2.6887    5.1763 H   0  0  0  0  0  0  0  0  0  0  0  0
    3.1996   -5.0101    6.9436 H   0  0  0  0  0  0  0  0  0  0  0  0
    2.7154   -3.7495    8.0627 H   0  0  0  0  0  0  0  0  0  0  0  0
    2.1035   -7.0182    7.1676 H   0  0  0  0  0  0  0  0  0  0  0  0
    0.1709   -8.3554    7.9069 H   0  0  0  0  0  0  0  0  0  0  0  0
   -1.8782   -7.2295    8.7437 H   0  0  0  0  0  0  0  0  0  0  0  0
   -1.9683   -4.7540    8.8705 H   0  0  0  0  0  0  0  0  0  0  0  0
   -0.1025   -3.4015    8.0054 H   0  0  0  0  0  0  0  0  0  0  0  0
  1  2  1  0  0  0  0
  1 22  1  0  0  0  0
  1 23  1  0  0  0  0
  1 24  1  0  0  0  0
  2 25  1  0  0  0  0
  2 26  1  0  0  0  0
  3  2  1  0  0  0  0
  3  6  1  0  0  0  0
  4  3  2  0  0  0  0
  4  5  1  0  0  0  0
  4 27  1  0  0  0  0
  5  8  2  0  0  0  0
  5 28  1  0  0  0  0
  6  7  2  0  0  0  0
  6 29  1  0  0  0  0
  7 30  1  0  0  0  0
  8  7  1  0  0  0  0
  8  9  1  0  0  0  0
 10  9  1  0  0  0  0
 10 11  1  0  0  0  0
 10 21  1  1  0  0  0
 11 13  2  0  0  0  0
 11 12  1  0  0  0  0
 12 31  1  0  0  0  0
 14 10  1  0  0  0  0
 14 32  1  0  0  0  0
 14 33  1  0  0  0  0
 15 14  1  0  0  0  0
 16 15  2  0  0  0  0
 16 34  1  0  0  0  0
 17 16  1  0  0  0  0
 17 35  1  0  0  0  0
 18 17  2  0  0  0  0
 18 19  1  0  0  0  0
 18 36  1  0  0  0  0
 19 20  2  0  0  0  0
 19 37  1  0  0  0  0
 20 15  1  0  0  0  0
 20 38  1  0  0  0  0
M  END
>  <DRUGBANK_ID>
DB07842

>  <COMMON_NAME>
(2S)-2-(4-ethylphenoxy)-3-phenylpropanoic acid

$$$$
