
 OpenBabel10282417103D

269281  0  0  0  0  0  0  0  0999 V2000
    7.0195   -3.1553   -9.3058 C   0  0  2  0  0  0  0  0  0  0  0  0
    8.2552   -2.6884   -8.6703 C   0  0  1  0  0  0  0  0  0  0  0  0
    8.2204   -1.9855   -7.4415 C   0  0  2  0  0  0  0  0  0  0  0  0
    3.5414   -7.7844  -10.3128 C   0  0  0  0  0  0  0  0  0  0  0  0
    6.0451   -3.5022   -8.2043 C   0  0  0  0  0  0  0  0  0  0  0  0
    2.6529   -7.5938  -14.5861 C   0  0  2  0  0  0  0  0  0  0  0  0
    6.0135   -2.8556   -7.0700 C   0  0  0  0  0  0  0  0  0  0  0  0
    9.4798   -1.6944   -7.1186 O   0  0  0  0  0  0  0  0  0  0  0  0
    9.5338   -2.7879   -9.0314 C   0  0  0  0  0  0  0  0  0  0  0  0
    9.5695   -5.4548  -12.3192 C   0  0  2  0  0  0  0  0  0  0  0  0
    6.9494   -1.7073   -6.7688 C   0  0  1  0  0  0  0  0  0  0  0  0
    2.1008   -6.2946  -15.1777 O   0  0  0  0  0  0  0  0  0  0  0  0
    9.0396   -4.5429  -14.3843 C   0  0  2  0  0  0  0  0  0  0  0  0
   10.4317   -8.2060  -12.4332 C   0  0  2  0  0  0  0  0  0  0  0  0
    2.9402   -8.8327  -11.0584 O   0  0  0  0  0  0  0  0  0  0  0  0
    9.0510   -7.8544  -11.8742 O   0  0  0  0  0  0  0  0  0  0  0  0
    8.0035   -5.6610  -14.5393 O   0  0  0  0  0  0  0  0  0  0  0  0
   11.3253   -7.1125  -12.2163 C   0  0  0  0  0  0  0  0  0  0  0  0
   10.4183   -5.0784  -14.7774 C   0  0  0  0  0  0  0  0  0  0  0  0
   10.9300   -5.8997  -12.8609 C   0  0  2  0  0  0  0  0  0  0  0  0
    9.8308   -7.3034  -14.1031 C   0  0  2  0  0  0  0  0  0  0  0  0
    8.8385   -6.7669  -13.3610 C   0  0  1  0  0  0  0  0  0  0  0  0
    8.5477   -6.5736  -12.5472 C   0  0  1  0  0  0  0  0  0  0  0  0
    2.4516   -7.5864  -13.0684 C   0  0  0  0  0  0  0  0  0  0  0  0
    4.0469   -7.6966  -14.8803 O   0  0  0  0  0  0  0  0  0  0  0  0
   10.7391   -6.2092  -13.9643 C   0  0  1  0  0  0  0  0  0  0  0  0
    2.2468   -6.3348  -16.7022 C   0  0  1  0  0  0  0  0  0  0  0  0
    3.0625   -8.8584  -12.4729 C   0  0  2  0  0  0  0  0  0  0  0  0
    8.4283   -6.8578  -13.6827 C   0  0  2  0  0  0  0  0  0  0  0  0
    7.8665   -7.4093  -14.3373 C   0  0  0  0  0  0  0  0  0  0  0  0
    9.1482   -4.2782  -12.9934 O   0  0  0  0  0  0  0  0  0  0  0  0
    9.5175   -8.0062  -13.5012 O   0  0  0  0  0  0  0  0  0  0  0  0
    7.0551   -8.4198  -13.9236 C   0  0  0  0  0  0  0  0  0  0  0  0
   10.2865   -2.1822   -8.0867 C   0  0  0  0  0  0  0  0  0  0  0  0
   10.0006   -3.3943  -10.1561 C   0  0  0  0  0  0  0  0  0  0  0  0
    2.4589   -7.2376   -9.9327 O   0  0  0  0  0  0  0  0  0  0  0  0
    9.0287   -4.0367  -11.1324 C   0  0  0  0  0  0  0  0  0  0  0  0
    4.5428   -8.9310  -12.8635 C   0  0  0  0  0  0  0  0  0  0  0  0
    4.6623   -8.8884  -14.3886 C   0  0  1  0  0  0  0  0  0  0  0  0
    8.5235   -5.2854  -13.2335 C   0  0  2  0  0  0  0  0  0  0  0  0
    1.5245   -7.5728  -17.2418 C   0  0  2  0  0  0  0  0  0  0  0  0
    9.4955   -4.6430  -12.2572 C   0  0  0  0  0  0  0  0  0  0  0  0
    7.6438   -3.3732   -9.7536 O   0  0  0  0  0  0  0  0  0  0  0  0
    1.9608   -8.7081  -15.1535 C   0  0  0  0  0  0  0  0  0  0  0  0
    2.1001   -8.8226  -16.5707 C   0  0  0  0  0  0  0  0  0  0  0  0
    6.0832   -9.0622  -14.8999 C   0  0  0  0  0  0  0  0  0  0  0  0
    2.2986   -5.8519  -18.1425 C   0  0  0  0  0  0  0  0  0  0  0  0
    7.9596   -0.8383   -6.2781 O   0  0  0  0  0  0  0  0  0  0  0  0
   10.2540   -8.3779  -13.2768 O   0  0  0  0  0  0  0  0  0  0  0  0
   11.8951   -4.8904  -12.6035 O   0  0  0  0  0  0  0  0  0  0  0  0
   12.0379   -6.6600  -14.3196 O   0  0  0  0  0  0  0  0  0  0  0  0
    5.0004   -3.2721   -6.0162 C   0  0  0  0  0  0  0  0  0  0  0  0
    7.8012   -6.9220  -15.7756 C   0  0  0  0  0  0  0  0  0  0  0  0
    7.2075   -6.1738  -11.9520 C   0  0  0  0  0  0  0  0  0  0  0  0
    7.4487   -8.0021  -13.8861 C   0  0  0  0  0  0  0  0  0  0  0  0
    8.0098   -3.9535  -12.7113 C   0  0  0  0  0  0  0  0  0  0  0  0
    0.4623   -7.8590  -18.2907 C   0  0  0  0  0  0  0  0  0  0  0  0
    1.8739   -4.1609  -18.3303 C   0  0  0  0  0  0  0  0  0  0  0  0
    4.2860   -6.2960  -18.8450 C   0  0  0  0  0  0  0  0  0  0  0  0
   11.9705   -3.5126  -12.2684 C   0  0  0  0  0  0  0  0  0  0  0  0
   12.3494   -6.3801  -15.6764 C   0  0  0  0  0  0  0  0  0  0  0  0
    4.1398   -9.7378  -14.7764 H   0  0  0  0  0  0  0  0  0  0  0  0
    2.5474   -9.7168  -12.8506 H   0  0  0  0  0  0  0  0  0  0  0  0
    2.9873   -5.6891  -16.2784 H   0  0  0  0  0  0  0  0  0  0  0  0
    7.7097   -1.5457   -6.6105 H   0  0  0  0  0  0  0  0  0  0  0  0
    7.3498   -2.5689  -10.1376 H   0  0  0  0  0  0  0  0  0  0  0  0
    7.0195   -3.1553   -9.3058 C   0  0  2  0  0  0  0  0  0  0  0  0
    8.2552   -2.6884   -8.6703 C   0  0  1  0  0  0  0  0  0  0  0  0
    8.2204   -1.9855   -7.4415 C   0  0  2  0  0  0  0  0  0  0  0  0
    3.5414   -7.7844  -10.3128 C   0  0  0  0  0  0  0  0  0  0  0  0
    6.0451   -3.5022   -8.2043 C   0  0  0  0  0  0  0  0  0  0  0  0
    2.6529   -7.5938  -14.5861 C   0  0  2  0  0  0  0  0  0  0  0  0
    6.0135   -2.8556   -7.0700 C   0  0  0  0  0  0  0  0  0  0  0  0
    9.4798   -1.6944   -7.1186 O   0  0  0  0  0  0  0  0  0  0  0  0
    9.5338   -2.7879   -9.0314 C   0  0  0  0  0  0  0  0  0  0  0  0
    9.5695   -5.4548  -12.3192 C   0  0  2  0  0  0  0  0  0  0  0  0
    6.9494   -1.7073   -6.7688 C   0  0  1  0  0  0  0  0  0  0  0  0
    2.1008   -6.2946  -15.1777 O   0  0  0  0  0  0  0  0  0  0  0  0
    9.0396   -4.5429  -14.3843 C   0  0  2  0  0  0  0  0  0  0  0  0
   10.4317   -8.2060  -12.4332 C   0  0  2  0  0  0  0  0  0  0  0  0
    2.9402   -8.8327  -11.0584 O   0  0  0  0  0  0  0  0  0  0  0  0
    9.0510   -7.8544  -11.8742 O   0  0  0  0  0  0  0  0  0  0  0  0
    8.0035   -5.6610  -14.5393 O   0  0  0  0  0  0  0  0  0  0  0  0
   11.3253   -7.1125  -12.2163 C   0  0  0  0  0  0  0  0  0  0  0  0
   10.4183   -5.0784  -14.7774 C   0  0  0  0  0  0  0  0  0  0  0  0
   10.9300   -5.8997  -12.8609 C   0  0  2  0  0  0  0  0  0  0  0  0
    9.8308   -7.3034  -14.1031 C   0  0  2  0  0  0  0  0  0  0  0  0
    8.8385   -6.7669  -13.3610 C   0  0  1  0  0  0  0  0  0  0  0  0
    8.5477   -6.5736  -12.5472 C   0  0  1  0  0  0  0  0  0  0  0  0
    2.4516   -7.5864  -13.0684 C   0  0  0  0  0  0  0  0  0  0  0  0
    4.0469   -7.6966  -14.8803 O   0  0  0  0  0  0  0  0  0  0  0  0
   10.7391   -6.2092  -13.9643 C   0  0  1  0  0  0  0  0  0  0  0  0
    2.2468   -6.3348  -16.7022 C   0  0  1  0  0  0  0  0  0  0  0  0
    3.0625   -8.8584  -12.4729 C   0  0  2  0  0  0  0  0  0  0  0  0
    8.4283   -6.8578  -13.6827 C   0  0  2  0  0  0  0  0  0  0  0  0
    7.8665   -7.4093  -14.3373 C   0  0  0  0  0  0  0  0  0  0  0  0
    9.1482   -4.2782  -12.9934 O   0  0  0  0  0  0  0  0  0  0  0  0
    9.5175   -8.0062  -13.5012 O   0  0  0  0  0  0  0  0  0  0  0  0
    7.0551   -8.4198  -13.9236 C   0  0  0  0  0  0  0  0  0  0  0  0
   10.2865   -2.1822   -8.0867 C   0  0  0  0  0  0  0  0  0  0  0  0
   10.0006   -3.3943  -10.1561 C   0  0  0  0  0  0  0  0  0  0  0  0
    2.4589   -7.2376   -9.9327 O   0  0  0  0  0  0  0  0  0  0  0  0
    9.0287   -4.0367  -11.1324 C   0  0  0  0  0  0  0  0  0  0  0  0
    4.5428   -8.9310  -12.8635 C   0  0  0  0  0  0  0  0  0  0  0  0
    4.6623   -8.8884  -14.3886 C   0  0  1  0  0  0  0  0  0  0  0  0
    8.5235   -5.2854  -13.2335 C   0  0  2  0  0  0  0  0  0  0  0  0
    1.5245   -7.5728  -17.2418 C   0  0  2  0  0  0  0  0  0  0  0  0
    9.4955   -4.6430  -12.2572 C   0  0  0  0  0  0  0  0  0  0  0  0
    7.6438   -3.3732   -9.7536 O   0  0  0  0  0  0  0  0  0  0  0  0
    1.9608   -8.7081  -15.1535 C   0  0  0  0  0  0  0  0  0  0  0  0
    2.1001   -8.8226  -16.5707 C   0  0  0  0  0  0  0  0  0  0  0  0
    6.0832   -9.0622  -14.8999 C   0  0  0  0  0  0  0  0  0  0  0  0
    2.2986   -5.8519  -18.1425 C   0  0  2  0  0  0  0  0  0  0  0  0
    7.9596   -0.8383   -6.2781 O   0  0  0  0  0  0  0  0  0  0  0  0
   10.2540   -8.3779  -13.2768 O   0  0  0  0  0  0  0  0  0  0  0  0
   11.8951   -4.8904  -12.6035 O   0  0  0  0  0  0  0  0  0  0  0  0
   12.0379   -6.6600  -14.3196 O   0  0  0  0  0  0  0  0  0  0  0  0
    5.0004   -3.2721   -6.0162 C   0  0  0  0  0  0  0  0  0  0  0  0
    7.8012   -6.9220  -15.7756 C   0  0  0  0  0  0  0  0  0  0  0  0
    7.2075   -6.1738  -11.9520 C   0  0  0  0  0  0  0  0  0  0  0  0
    7.4487   -8.0021  -13.8861 C   0  0  0  0  0  0  0  0  0  0  0  0
    8.0098   -3.9535  -12.7113 C   0  0  0  0  0  0  0  0  0  0  0  0
    0.4623   -7.8590  -18.2907 C   0  0  0  0  0  0  0  0  0  0  0  0
    2.4970   -6.8918  -19.7511 C   0  0  0  0  0  0  0  0  0  0  0  0
    3.5725   -3.8945  -18.2389 C   0  0  0  0  0  0  0  0  0  0  0  0
   11.9705   -3.5126  -12.2684 C   0  0  0  0  0  0  0  0  0  0  0  0
   12.3494   -6.3801  -15.6764 C   0  0  0  0  0  0  0  0  0  0  0  0
    3.2364   -8.4641  -19.2650 C   0  0  0  0  0  0  0  0  0  0  0  0
    4.1398   -9.7378  -14.7764 H   0  0  0  0  0  0  0  0  0  0  0  0
    2.5474   -9.7168  -12.8506 H   0  0  0  0  0  0  0  0  0  0  0  0
    2.9873   -5.6891  -16.2784 H   0  0  0  0  0  0  0  0  0  0  0  0
    7.7097   -1.5457   -6.6105 H   0  0  0  0  0  0  0  0  0  0  0  0
    7.3498   -2.5689  -10.1376 H   0  0  0  0  0  0  0  0  0  0  0  0
    5.3565   -4.3064   -8.3590 H   0  0  0  0  0  0  0  0  0  0  0  0
    9.6501   -5.2515  -11.2718 H   0  0  0  0  0  0  0  0  0  0  0  0
    6.2357   -1.0763   -6.2815 H   0  0  0  0  0  0  0  0  0  0  0  0
    8.7542   -3.6963  -14.9732 H   0  0  0  0  0  0  0  0  0  0  0  0
   11.0968   -9.0268  -12.2633 H   0  0  0  0  0  0  0  0  0  0  0  0
   11.3247   -6.9173  -11.1643 H   0  0  0  0  0  0  0  0  0  0  0  0
   12.2910   -7.3895  -12.5845 H   0  0  0  0  0  0  0  0  0  0  0  0
   10.4076   -5.3704  -15.8067 H   0  0  0  0  0  0  0  0  0  0  0  0
   11.1529   -4.3142  -14.6313 H   0  0  0  0  0  0  0  0  0  0  0  0
   10.8579   -6.0632  -13.9158 H   0  0  0  0  0  0  0  0  0  0  0  0
    9.8123   -7.6245  -15.1236 H   0  0  0  0  0  0  0  0  0  0  0  0
    9.3200   -6.3479  -12.5023 H   0  0  0  0  0  0  0  0  0  0  0  0
    8.4296   -6.7428  -13.5971 H   0  0  0  0  0  0  0  0  0  0  0  0
    1.4202   -7.3215  -12.9628 H   0  0  0  0  0  0  0  0  0  0  0  0
    2.9743   -6.8775  -12.4608 H   0  0  0  0  0  0  0  0  0  0  0  0
   10.6784   -5.8848  -12.9465 H   0  0  0  0  0  0  0  0  0  0  0  0
    8.4340   -6.5775  -12.6501 H   0  0  0  0  0  0  0  0  0  0  0  0
    7.1011   -8.7624  -12.9110 H   0  0  0  0  0  0  0  0  0  0  0  0
   11.2498   -2.1840   -8.5524 H   0  0  0  0  0  0  0  0  0  0  0  0
   10.8328   -1.9906   -7.1869 H   0  0  0  0  0  0  0  0  0  0  0  0
   11.0519   -3.4190  -10.3536 H   0  0  0  0  0  0  0  0  0  0  0  0
    7.9773   -4.0119  -10.9350 H   0  0  0  0  0  0  0  0  0  0  0  0
    4.9900   -9.8607  -12.5798 H   0  0  0  0  0  0  0  0  0  0  0  0
    5.0269   -8.1130  -12.3723 H   0  0  0  0  0  0  0  0  0  0  0  0
    7.8371   -5.2635  -14.0540 H   0  0  0  0  0  0  0  0  0  0  0  0
    0.9264   -6.7833  -17.6465 H   0  0  0  0  0  0  0  0  0  0  0  0
   10.5468   -4.6677  -12.4546 H   0  0  0  0  0  0  0  0  0  0  0  0
    6.5824   -3.8393  -10.5433 H   0  0  0  0  0  0  0  0  0  0  0  0
    1.2312   -9.4904  -15.1334 H   0  0  0  0  0  0  0  0  0  0  0  0
    2.1439   -8.6501  -14.1009 H   0  0  0  0  0  0  0  0  0  0  0  0
    2.0459   -9.6417  -17.2571 H   0  0  0  0  0  0  0  0  0  0  0  0
    3.1246   -9.0790  -16.3990 H   0  0  0  0  0  0  0  0  0  0  0  0
    6.0567   -9.6749  -15.7767 H   0  0  0  0  0  0  0  0  0  0  0  0
    7.0364   -8.9557  -15.3742 H   0  0  0  0  0  0  0  0  0  0  0  0
    1.3129   -5.8642  -18.5585 H   0  0  0  0  0  0  0  0  0  0  0  0
    7.9606    0.1942   -6.6789 H   0  0  0  0  0  0  0  0  0  0  0  0
   10.2714   -8.0781  -12.3230 H   0  0  0  0  0  0  0  0  0  0  0  0
    5.4589   -3.9532   -5.3301 H   0  0  0  0  0  0  0  0  0  0  0  0
    4.6606   -2.4068   -5.4864 H   0  0  0  0  0  0  0  0  0  0  0  0
    4.1684   -3.7495   -6.4903 H   0  0  0  0  0  0  0  0  0  0  0  0
    6.8077   -7.0512  -16.1512 H   0  0  0  0  0  0  0  0  0  0  0  0
    8.0648   -5.8856  -15.8134 H   0  0  0  0  0  0  0  0  0  0  0  0
    8.4852   -7.4860  -16.3747 H   0  0  0  0  0  0  0  0  0  0  0  0
    6.8609   -5.2780  -12.4234 H   0  0  0  0  0  0  0  0  0  0  0  0
    6.4979   -6.9585  -12.1117 H   0  0  0  0  0  0  0  0  0  0  0  0
    7.3204   -6.0033  -10.9017 H   0  0  0  0  0  0  0  0  0  0  0  0
    7.1418   -8.3948  -12.9392 H   0  0  0  0  0  0  0  0  0  0  0  0
    6.8446   -7.1542  -14.1333 H   0  0  0  0  0  0  0  0  0  0  0  0
    7.3329   -8.7541  -14.6385 H   0  0  0  0  0  0  0  0  0  0  0  0
    7.3220   -4.2858  -11.9620 H   0  0  0  0  0  0  0  0  0  0  0  0
    8.6400   -3.1908  -12.3039 H   0  0  0  0  0  0  0  0  0  0  0  0
    7.4665   -3.5598  -13.5448 H   0  0  0  0  0  0  0  0  0  0  0  0
   -0.4317   -8.1731  -17.7937 H   0  0  0  0  0  0  0  0  0  0  0  0
    0.2646   -6.9698  -18.8520 H   0  0  0  0  0  0  0  0  0  0  0  0
    0.7930   -8.6323  -18.9522 H   0  0  0  0  0  0  0  0  0  0  0  0
    3.2654   -4.9905  -17.8275 H   0  0  0  0  0  0  0  0  0  0  0  0
    1.7713   -3.8739  -19.4272 H   0  0  0  0  0  0  0  0  0  0  0  0
    1.3712   -3.6655  -17.5195 H   0  0  0  0  0  0  0  0  0  0  0  0
    4.6338   -7.0468  -19.6203 H   0  0  0  0  0  0  0  0  0  0  0  0
    4.7921   -5.7185  -19.7240 H   0  0  0  0  0  0  0  0  0  0  0  0
    4.9493   -6.6671  -18.1098 H   0  0  0  0  0  0  0  0  0  0  0  0
   11.4886   -2.9337  -13.0285 H   0  0  0  0  0  0  0  0  0  0  0  0
   11.4829   -3.3464  -11.3306 H   0  0  0  0  0  0  0  0  0  0  0  0
   12.9968   -3.2193  -12.1937 H   0  0  0  0  0  0  0  0  0  0  0  0
   11.7260   -6.9708  -16.3146 H   0  0  0  0  0  0  0  0  0  0  0  0
   12.1808   -5.3422  -15.8743 H   0  0  0  0  0  0  0  0  0  0  0  0
   13.3762   -6.6165  -15.8627 H   0  0  0  0  0  0  0  0  0  0  0  0
    5.3565   -4.3064   -8.3590 H   0  0  0  0  0  0  0  0  0  0  0  0
    9.6501   -5.2515  -11.2718 H   0  0  0  0  0  0  0  0  0  0  0  0
    6.2357   -1.0763   -6.2815 H   0  0  0  0  0  0  0  0  0  0  0  0
    8.7542   -3.6963  -14.9732 H   0  0  0  0  0  0  0  0  0  0  0  0
   11.0968   -9.0268  -12.2633 H   0  0  0  0  0  0  0  0  0  0  0  0
   11.3247   -6.9173  -11.1643 H   0  0  0  0  0  0  0  0  0  0  0  0
   12.2910   -7.3895  -12.5845 H   0  0  0  0  0  0  0  0  0  0  0  0
   10.4076   -5.3704  -15.8067 H   0  0  0  0  0  0  0  0  0  0  0  0
   11.1529   -4.3142  -14.6313 H   0  0  0  0  0  0  0  0  0  0  0  0
   10.8579   -6.0632  -13.9158 H   0  0  0  0  0  0  0  0  0  0  0  0
    9.8123   -7.6245  -15.1236 H   0  0  0  0  0  0  0  0  0  0  0  0
    9.3200   -6.3479  -12.5023 H   0  0  0  0  0  0  0  0  0  0  0  0
    8.4296   -6.7428  -13.5971 H   0  0  0  0  0  0  0  0  0  0  0  0
    1.4202   -7.3215  -12.9628 H   0  0  0  0  0  0  0  0  0  0  0  0
    2.9743   -6.8775  -12.4608 H   0  0  0  0  0  0  0  0  0  0  0  0
   10.6784   -5.8848  -12.9465 H   0  0  0  0  0  0  0  0  0  0  0  0
    8.4340   -6.5775  -12.6501 H   0  0  0  0  0  0  0  0  0  0  0  0
    7.1011   -8.7624  -12.9110 H   0  0  0  0  0  0  0  0  0  0  0  0
   11.2498   -2.1840   -8.5524 H   0  0  0  0  0  0  0  0  0  0  0  0
   10.8328   -1.9906   -7.1869 H   0  0  0  0  0  0  0  0  0  0  0  0
   11.0519   -3.4190  -10.3536 H   0  0  0  0  0  0  0  0  0  0  0  0
    7.9773   -4.0119  -10.9350 H   0  0  0  0  0  0  0  0  0  0  0  0
    4.9900   -9.8607  -12.5798 H   0  0  0  0  0  0  0  0  0  0  0  0
    5.0269   -8.1130  -12.3723 H   0  0  0  0  0  0  0  0  0  0  0  0
    7.8371   -5.2635  -14.0540 H   0  0  0  0  0  0  0  0  0  0  0  0
    0.9264   -6.7833  -17.6465 H   0  0  0  0  0  0  0  0  0  0  0  0
   10.5468   -4.6677  -12.4546 H   0  0  0  0  0  0  0  0  0  0  0  0
    8.4708   -2.4954  -10.5691 H   0  0  0  0  0  0  0  0  0  0  0  0
    1.2312   -9.4904  -15.1334 H   0  0  0  0  0  0  0  0  0  0  0  0
    2.1439   -8.6501  -14.1009 H   0  0  0  0  0  0  0  0  0  0  0  0
    2.0459   -9.6417  -17.2571 H   0  0  0  0  0  0  0  0  0  0  0  0
    3.1246   -9.0790  -16.3990 H   0  0  0  0  0  0  0  0  0  0  0  0
    6.0567   -9.6749  -15.7767 H   0  0  0  0  0  0  0  0  0  0  0  0
    7.0364   -8.9557  -15.3742 H   0  0  0  0  0  0  0  0  0  0  0  0
    1.3129   -5.8642  -18.5585 H   0  0  0  0  0  0  0  0  0  0  0  0
    8.9076   -1.0782   -5.7030 H   0  0  0  0  0  0  0  0  0  0  0  0
   10.2714   -8.0781  -12.3230 H   0  0  0  0  0  0  0  0  0  0  0  0
    5.4589   -3.9532   -5.3301 H   0  0  0  0  0  0  0  0  0  0  0  0
    4.6606   -2.4068   -5.4864 H   0  0  0  0  0  0  0  0  0  0  0  0
    4.1684   -3.7495   -6.4903 H   0  0  0  0  0  0  0  0  0  0  0  0
    6.8077   -7.0512  -16.1512 H   0  0  0  0  0  0  0  0  0  0  0  0
    8.0648   -5.8856  -15.8134 H   0  0  0  0  0  0  0  0  0  0  0  0
    8.4852   -7.4860  -16.3747 H   0  0  0  0  0  0  0  0  0  0  0  0
    6.8609   -5.2780  -12.4234 H   0  0  0  0  0  0  0  0  0  0  0  0
    6.4979   -6.9585  -12.1117 H   0  0  0  0  0  0  0  0  0  0  0  0
    7.3204   -6.0033  -10.9017 H   0  0  0  0  0  0  0  0  0  0  0  0
    7.1418   -8.3948  -12.9392 H   0  0  0  0  0  0  0  0  0  0  0  0
    6.8446   -7.1542  -14.1333 H   0  0  0  0  0  0  0  0  0  0  0  0
    7.3329   -8.7541  -14.6385 H   0  0  0  0  0  0  0  0  0  0  0  0
    7.3220   -4.2858  -11.9620 H   0  0  0  0  0  0  0  0  0  0  0  0
    8.6400   -3.1908  -12.3039 H   0  0  0  0  0  0  0  0  0  0  0  0
    7.4665   -3.5598  -13.5448 H   0  0  0  0  0  0  0  0  0  0  0  0
   -0.4317   -8.1731  -17.7937 H   0  0  0  0  0  0  0  0  0  0  0  0
    0.2646   -6.9698  -18.8520 H   0  0  0  0  0  0  0  0  0  0  0  0
    0.7930   -8.6323  -18.9522 H   0  0  0  0  0  0  0  0  0  0  0  0
    1.6132   -7.0572  -20.5854 H   0  0  0  0  0  0  0  0  0  0  0  0
    2.7900   -6.1185  -20.5320 H   0  0  0  0  0  0  0  0  0  0  0  0
    3.9330   -3.7019  -17.1321 H   0  0  0  0  0  0  0  0  0  0  0  0
    4.3730   -3.9214  -18.9193 H   0  0  0  0  0  0  0  0  0  0  0  0
    3.1522   -2.7894  -18.3171 H   0  0  0  0  0  0  0  0  0  0  0  0
   11.4886   -2.9337  -13.0285 H   0  0  0  0  0  0  0  0  0  0  0  0
   11.4829   -3.3464  -11.3306 H   0  0  0  0  0  0  0  0  0  0  0  0
   12.9968   -3.2193  -12.1937 H   0  0  0  0  0  0  0  0  0  0  0  0
   11.7260   -6.9708  -16.3146 H   0  0  0  0  0  0  0  0  0  0  0  0
   12.1808   -5.3422  -15.8743 H   0  0  0  0  0  0  0  0  0  0  0  0
   13.3762   -6.6165  -15.8627 H   0  0  0  0  0  0  0  0  0  0  0  0
    2.5225   -9.3066  -19.1663 H   0  0  0  0  0  0  0  0  0  0  0  0
    4.1451   -9.0345  -19.4978 H   0  0  0  0  0  0  0  0  0  0  0  0
    3.6253   -8.2141  -18.2411 H   0  0  0  0  0  0  0  0  0  0  0  0
  1  4  1  0  0  0  0
  1 66  1  1  0  0  0
  2  1  1  0  0  0  0
  2 43  1  6  0  0  0
  3  2  1  0  0  0  0
  3 65  1  6  0  0  0
  5  1  1  0  0  0  0
  5134  1  0  0  0  0
  6 24  1  0  0  0  0
  6 12  1  6  0  0  0
  7  5  2  0  0  0  0
  8  3  1  0  0  0  0
  9  2  1  0  0  0  0
 10 23  1  0  0  0  0
 10 31  1  0  0  0  0
 10 20  1  0  0  0  0
 10135  1  1  0  0  0
 11  7  1  0  0  0  0
 11  3  1  0  0  0  0
 11136  1  6  0  0  0
 11 48  1  0  0  0  0
 13 31  1  0  0  0  0
 13137  1  6  0  0  0
 14 32  1  0  0  0  0
 14138  1  1  0  0  0
 15  4  1  0  0  0  0
 16 14  1  0  0  0  0
 17 13  1  0  0  0  0
 18 14  1  0  0  0  0
 18139  1  0  0  0  0
 18140  1  0  0  0  0
 19 13  1  0  0  0  0
 19141  1  0  0  0  0
 19142  1  0  0  0  0
 20 18  1  0  0  0  0
 20143  1  6  0  0  0
 20 50  1  0  0  0  0
 21 29  1  0  0  0  0
 21 49  1  0  0  0  0
 21 26  1  0  0  0  0
 21144  1  6  0  0  0
 22 40  1  0  0  0  0
 22 32  1  0  0  0  0
 22145  1  1  0  0  0
 23 16  1  0  0  0  0
 23 54  1  0  0  0  0
 23146  1  6  0  0  0
 24 28  1  0  0  0  0
 24147  1  0  0  0  0
 24148  1  0  0  0  0
 25 39  1  0  0  0  0
 25  6  1  0  0  0  0
 26 19  1  0  0  0  0
 26149  1  1  0  0  0
 26 51  1  0  0  0  0
 27 12  1  0  0  0  0
 27 64  1  6  0  0  0
 28 15  1  0  0  0  0
 28 63  1  1  0  0  0
 29 17  1  0  0  0  0
 29150  1  1  0  0  0
 29 55  1  0  0  0  0
 30 33  2  0  0  0  0
 30 22  1  0  0  0  0
 33 46  1  0  0  0  0
 33151  1  0  0  0  0
 34  9  1  0  0  0  0
 34  8  1  0  0  0  0
 34152  1  0  0  0  0
 34153  1  0  0  0  0
 35  9  2  0  0  0  0
 35154  1  0  0  0  0
 36  4  2  0  0  0  0
 37 35  1  0  0  0  0
 37155  1  0  0  0  0
 38 28  1  0  0  0  0
 38156  1  0  0  0  0
 38157  1  0  0  0  0
 39 38  1  0  0  0  0
 39 46  1  0  0  0  0
 39 62  1  1  0  0  0
 40 42  1  0  0  0  0
 40158  1  6  0  0  0
 40 56  1  0  0  0  0
 41 45  1  0  0  0  0
 41 27  1  0  0  0  0
 41 57  1  0  0  0  0
 41159  1  1  0  0  0
 42 37  2  0  0  0  0
 42160  1  0  0  0  0
 43161  1  0  0  0  0
 44  6  1  0  0  0  0
 44162  1  0  0  0  0
 44163  1  0  0  0  0
 45 44  1  0  0  0  0
 45164  1  0  0  0  0
 45165  1  0  0  0  0
 46166  1  0  0  0  0
 46167  1  0  0  0  0
 47 58  1  0  0  0  0
 47168  1  0  0  0  0
 47 27  1  0  0  0  0
 48169  1  0  0  0  0
 49170  1  0  0  0  0
 52171  1  0  0  0  0
 52172  1  0  0  0  0
 52173  1  0  0  0  0
 52  7  1  0  0  0  0
 53174  1  0  0  0  0
 53175  1  0  0  0  0
 53176  1  0  0  0  0
 53 30  1  0  0  0  0
 54177  1  0  0  0  0
 54178  1  0  0  0  0
 54179  1  0  0  0  0
 55180  1  0  0  0  0
 55181  1  0  0  0  0
 55182  1  0  0  0  0
 56183  1  0  0  0  0
 56184  1  0  0  0  0
 56185  1  0  0  0  0
 57186  1  0  0  0  0
 57187  1  0  0  0  0
 57188  1  0  0  0  0
 58189  1  0  0  0  0
 58190  1  0  0  0  0
 58191  1  0  0  0  0
 59 47  1  0  0  0  0
 59192  1  0  0  0  0
 59193  1  0  0  0  0
 59194  1  0  0  0  0
 60 50  1  0  0  0  0
 60195  1  0  0  0  0
 60196  1  0  0  0  0
 60197  1  0  0  0  0
 61 51  1  0  0  0  0
 61198  1  0  0  0  0
 61199  1  0  0  0  0
 61200  1  0  0  0  0
 67 70  1  0  0  0  0
 67133  1  1  0  0  0
 68 67  1  0  0  0  0
 68109  1  6  0  0  0
 69 68  1  0  0  0  0
 69132  1  6  0  0  0
 71 67  1  0  0  0  0
 71201  1  0  0  0  0
 72 90  1  0  0  0  0
 72 78  1  6  0  0  0
 72110  1  0  0  0  0
 73 71  2  0  0  0  0
 74 69  1  0  0  0  0
 75 68  1  0  0  0  0
 76 89  1  0  0  0  0
 76 97  1  0  0  0  0
 76 86  1  0  0  0  0
 76202  1  1  0  0  0
 77 73  1  0  0  0  0
 77 69  1  0  0  0  0
 77203  1  6  0  0  0
 77114  1  0  0  0  0
 79 97  1  0  0  0  0
 79204  1  6  0  0  0
 80 98  1  0  0  0  0
 80205  1  1  0  0  0
 81 70  1  0  0  0  0
 82 80  1  0  0  0  0
 83 79  1  0  0  0  0
 84 80  1  0  0  0  0
 84206  1  0  0  0  0
 84207  1  0  0  0  0
 85 79  1  0  0  0  0
 85208  1  0  0  0  0
 85209  1  0  0  0  0
 86 84  1  0  0  0  0
 86210  1  6  0  0  0
 86116  1  0  0  0  0
 87 95  1  0  0  0  0
 87115  1  0  0  0  0
 87 92  1  0  0  0  0
 87211  1  6  0  0  0
 88106  1  0  0  0  0
 88 98  1  0  0  0  0
 88212  1  1  0  0  0
 89 82  1  0  0  0  0
 89120  1  0  0  0  0
 89213  1  6  0  0  0
 90 94  1  0  0  0  0
 90214  1  0  0  0  0
 90215  1  0  0  0  0
 91 72  1  0  0  0  0
 92 85  1  0  0  0  0
 92216  1  1  0  0  0
 92117  1  0  0  0  0
 93 78  1  0  0  0  0
 93131  1  6  0  0  0
 94 81  1  0  0  0  0
 94130  1  1  0  0  0
 95 83  1  0  0  0  0
 95217  1  1  0  0  0
 95121  1  0  0  0  0
 96 99  2  0  0  0  0
 96 88  1  0  0  0  0
 99112  1  0  0  0  0
 99218  1  0  0  0  0
100 75  1  0  0  0  0
100 74  1  0  0  0  0
100219  1  0  0  0  0
100220  1  0  0  0  0
101 75  2  0  0  0  0
101221  1  0  0  0  0
102 70  2  0  0  0  0
103101  1  0  0  0  0
103222  1  0  0  0  0
104 94  1  0  0  0  0
104223  1  0  0  0  0
104224  1  0  0  0  0
105104  1  0  0  0  0
105112  1  0  0  0  0
105 91  1  0  0  0  0
105129  1  1  0  0  0
106108  1  0  0  0  0
106225  1  6  0  0  0
106122  1  0  0  0  0
107 93  1  0  0  0  0
107123  1  0  0  0  0
107226  1  1  0  0  0
108103  2  0  0  0  0
108227  1  0  0  0  0
109228  1  0  0  0  0
110229  1  0  0  0  0
110230  1  0  0  0  0
111110  1  0  0  0  0
111107  1  0  0  0  0
111231  1  0  0  0  0
111232  1  0  0  0  0
112233  1  0  0  0  0
112234  1  0  0  0  0
113235  1  6  0  0  0
113 93  1  0  0  0  0
113125  1  0  0  0  0
113124  1  0  0  0  0
114236  1  0  0  0  0
115237  1  0  0  0  0
118238  1  0  0  0  0
118239  1  0  0  0  0
118240  1  0  0  0  0
118 73  1  0  0  0  0
119241  1  0  0  0  0
119242  1  0  0  0  0
119243  1  0  0  0  0
119 96  1  0  0  0  0
120244  1  0  0  0  0
120245  1  0  0  0  0
120246  1  0  0  0  0
121247  1  0  0  0  0
121248  1  0  0  0  0
121249  1  0  0  0  0
122250  1  0  0  0  0
122251  1  0  0  0  0
122252  1  0  0  0  0
123253  1  0  0  0  0
123254  1  0  0  0  0
123255  1  0  0  0  0
124256  1  0  0  0  0
124257  1  0  0  0  0
125258  1  0  0  0  0
125259  1  0  0  0  0
125260  1  0  0  0  0
126116  1  0  0  0  0
126261  1  0  0  0  0
126262  1  0  0  0  0
126263  1  0  0  0  0
127117  1  0  0  0  0
127264  1  0  0  0  0
127265  1  0  0  0  0
127266  1  0  0  0  0
128124  1  0  0  0  0
128267  1  0  0  0  0
128268  1  0  0  0  0
128269  1  0  0  0  0
M  END
>  <DRUGBANK_ID>
DB00602

>  <SECONDARY_ACCESSION_NUMBERS>
APRD01058

>  <COMMON_NAME>
Ivermectin

>  <CAS_NUMBER>
70288-86-7

>  <UNII>
8883YP2R6D

>  <SYNONYMS>
Ivermectin; Ivermectina; Ivermectine; Ivermectinum

$$$$
