
 OpenBabel10282417183D

  9  9  0  0  0  0  0  0  0  0999 V2000
    0.6350    1.1954   -0.0446 C   0  0  0  0  0  0  0  0  0  0  0  0
    1.5752   -0.0042    0.0233 C   0  0  0  0  0  0  0  0  0  0  0  0
    0.4444   -0.9148    0.0029 O   0  0  0  0  0  0  0  0  0  0  0  0
   -0.4507    0.1070   -0.0024 C   0  0  0  0  0  0  0  0  0  0  0  0
   -1.6576    0.0516    0.0084 O   0  0  0  0  0  0  0  0  0  0  0  0
    0.6449    1.8600    0.8207 H   0  0  0  0  0  0  0  0  0  0  0  0
    0.6484    1.7629   -0.9770 H   0  0  0  0  0  0  0  0  0  0  0  0
    2.2273   -0.1470   -0.8428 H   0  0  0  0  0  0  0  0  0  0  0  0
    2.1501   -0.1075    0.9483 H   0  0  0  0  0  0  0  0  0  0  0  0
  1  2  1  0  0  0  0
  1  4  1  0  0  0  0
  1  6  1  0  0  0  0
  1  7  1  0  0  0  0
  2  3  1  0  0  0  0
  2  8  1  0  0  0  0
  2  9  1  0  0  0  0
  3  4  1  0  0  0  0
  4  5  2  0  0  0  0
M  END
>  <DRUGBANK_ID>
DB09348

>  <COMMON_NAME>
Propiolactone

>  <CAS_NUMBER>
57-57-8

>  <UNII>
6RC3ZT4HB0

>  <SYNONYMS>
1,3-propiolactone; 3-propanolide; beta-Propiolactone; betapron; Propiolactona; Propiolactone; Î²-propiolactone

$$$$
