
 OpenBabel10282417163D

 34 35  0  0  0  0  0  0  0  0999 V2000
    1.1193   -0.0918    0.0488 O   0  0  0  0  0  0  0  0  0  0  0  0
    6.1115    4.9761   -0.1665 N   0  0  0  0  0  0  0  0  0  0  0  0
    4.6178    6.6108   -1.1057 N   0  0  0  0  0  0  0  0  0  0  0  0
    6.5214    7.2399   -0.2058 N   0  0  0  0  0  0  0  0  0  0  0  0
    3.1607    0.1748   -1.2248 C   0  0  0  0  0  0  0  0  0  0  0  0
    4.0493    1.3906   -1.1689 C   0  0  0  0  0  0  0  0  0  0  0  0
    2.3401   -0.0532    0.0605 C   0  0  0  0  0  0  0  0  0  0  0  0
    3.0619   -0.3960    1.3250 C   0  0  0  0  0  0  0  0  0  0  0  0
    3.4240    2.6149   -1.3280 C   0  0  0  0  0  0  0  0  0  0  0  0
    5.3743    1.3629   -0.7031 C   0  0  0  0  0  0  0  0  0  0  0  0
    4.0570    3.7693   -0.8991 C   0  0  0  0  0  0  0  0  0  0  0  0
    6.0034    2.5563   -0.2889 C   0  0  0  0  0  0  0  0  0  0  0  0
    5.3803    3.8004   -0.4553 C   0  0  0  0  0  0  0  0  0  0  0  0
    2.6704   -1.5162    2.0520 C   0  0  0  0  0  0  0  0  0  0  0  0
    4.1540    0.3391    1.7773 C   0  0  0  0  0  0  0  0  0  0  0  0
    3.4487   -1.9417    3.1355 C   0  0  0  0  0  0  0  0  0  0  0  0
    5.0118   -0.1544    2.7525 C   0  0  0  0  0  0  0  0  0  0  0  0
    4.6391   -1.2852    3.4583 C   0  0  0  0  0  0  0  0  0  0  0  0
    5.7384    6.1748   -0.4862 C   0  0  0  0  0  0  0  0  0  0  0  0
    4.4548    7.5826   -1.2984 H   0  0  0  0  0  0  0  0  0  0  0  0
    4.1200    5.9821   -1.7116 H   0  0  0  0  0  0  0  0  0  0  0  0
    7.4684    7.0660    0.1026 H   0  0  0  0  0  0  0  0  0  0  0  0
    6.3114    8.1541   -0.5714 H   0  0  0  0  0  0  0  0  0  0  0  0
    3.7191   -0.7272   -1.4855 H   0  0  0  0  0  0  0  0  0  0  0  0
    2.4344    0.3281   -2.0382 H   0  0  0  0  0  0  0  0  0  0  0  0
    2.3989    2.6836   -1.6832 H   0  0  0  0  0  0  0  0  0  0  0  0
    5.8567    0.4092   -0.4870 H   0  0  0  0  0  0  0  0  0  0  0  0
    3.4080    4.6267   -0.8450 H   0  0  0  0  0  0  0  0  0  0  0  0
    6.9426    2.4986    0.2627 H   0  0  0  0  0  0  0  0  0  0  0  0
    1.7665   -2.0553    1.7815 H   0  0  0  0  0  0  0  0  0  0  0  0
    4.3552    1.3272    1.3923 H   0  0  0  0  0  0  0  0  0  0  0  0
    3.1397   -2.8047    3.7171 H   0  0  0  0  0  0  0  0  0  0  0  0
    5.9475    0.3597    2.9599 H   0  0  0  0  0  0  0  0  0  0  0  0
    5.2586   -1.6279    4.2820 H   0  0  0  0  0  0  0  0  0  0  0  0
  1  7  2  0  0  0  0
  2 13  1  0  0  0  0
  2 19  2  0  0  0  0
  3 19  1  0  0  0  0
  3 20  1  0  0  0  0
  3 21  1  0  0  0  0
  4 19  1  0  0  0  0
  4 22  1  0  0  0  0
  4 23  1  0  0  0  0
  5  6  1  0  0  0  0
  5  7  1  0  0  0  0
  5 24  1  0  0  0  0
  5 25  1  0  0  0  0
  6  9  2  0  0  0  0
  6 10  1  0  0  0  0
  7  8  1  0  0  0  0
  8 14  2  0  0  0  0
  8 15  1  0  0  0  0
  9 11  1  0  0  0  0
  9 26  1  0  0  0  0
 10 12  2  0  0  0  0
 10 27  1  0  0  0  0
 11 13  2  0  0  0  0
 11 28  1  0  0  0  0
 12 13  1  0  0  0  0
 12 29  1  0  0  0  0
 14 16  1  0  0  0  0
 14 30  1  0  0  0  0
 15 17  2  0  0  0  0
 15 31  1  0  0  0  0
 16 18  2  0  0  0  0
 16 32  1  0  0  0  0
 17 18  1  0  0  0  0
 17 33  1  0  0  0  0
 18 34  1  0  0  0  0
M  END
>  <DRUGBANK_ID>
DB07122

>  <COMMON_NAME>
1-[4-(2-oxo-2-phenylethyl)phenyl]guanidine

$$$$
