519
 OpenBabel10282417103D

 65 67  0  0  1  0  0  0  0  0999 V2000
    1.0449   -0.0944    0.3610 O   0  0  0  0  0  0  0  0  0  0  0  0
    0.4961    0.6256    3.5733 O   0  0  0  0  0  0  0  0  0  0  0  0
    0.3874    2.3249    2.0867 O   0  0  0  0  0  0  0  0  0  0  0  0
    2.4848   -5.5287   -1.9222 O   0  0  0  0  0  0  0  0  0  0  0  0
    2.3422   -4.9784    0.2391 O   0  0  0  0  0  0  0  0  0  0  0  0
    2.9562    0.9621    0.9787 N   0  0  0  0  0  0  0  0  0  0  0  0
    2.6695   -2.2538   -0.4725 N   0  0  0  0  0  0  0  0  0  0  0  0
    3.9028    2.9802    1.5731 C   0  0  1  0  0  0  0  0  0  0  0  0
    4.1601    1.7470    0.7001 C   0  0  2  0  0  0  0  0  0  0  0  0
    3.3071    2.4267    2.8529 C   0  0  0  0  0  0  0  0  0  0  0  0
    2.5263    1.1818    2.3756 C   0  0  1  0  0  0  0  0  0  0  0  0
    5.1510    3.8211    1.7255 C   0  0  0  0  0  0  0  0  0  0  0  0
    4.4066    2.2522   -0.7168 C   0  0  0  0  0  0  0  0  0  0  0  0
    5.5216    4.3770    0.3544 C   0  0  0  0  0  0  0  0  0  0  0  0
    5.4998    3.3417   -0.7831 C   0  0  0  0  0  0  0  0  0  0  0  0
    2.2570    0.0615    0.1926 C   0  0  0  0  0  0  0  0  0  0  0  0
    1.0325    1.4341    2.6217 C   0  0  0  0  0  0  0  0  0  0  0  0
    3.0222   -0.8525   -0.7900 C   0  0  2  0  0  0  0  0  0  0  0  0
    2.6208   -0.5795   -2.2371 C   0  0  0  0  0  0  0  0  0  0  0  0
    3.3931   -3.2958   -1.2283 C   0  0  1  0  0  0  0  0  0  0  0  0
    4.9074   -3.1662   -1.0343 C   0  0  0  0  0  0  0  0  0  0  0  0
    2.7052   -4.6656   -0.9003 C   0  0  0  0  0  0  0  0  0  0  0  0
    5.3607   -3.3731    0.4080 C   0  0  0  0  0  0  0  0  0  0  0  0
    5.1655   -4.7964    0.8501 C   0  0  0  0  0  0  0  0  0  0  0  0
    2.1478   -5.0613   -3.2371 C   0  0  0  0  0  0  0  0  0  0  0  0
    5.4494   -5.8543   -0.0308 C   0  0  0  0  0  0  0  0  0  0  0  0
    4.5983   -5.0870    2.0967 C   0  0  0  0  0  0  0  0  0  0  0  0
    5.1629   -7.1668    0.3137 C   0  0  0  0  0  0  0  0  0  0  0  0
    4.3842   -6.4140    2.4707 C   0  0  0  0  0  0  0  0  0  0  0  0
    1.0713   -3.9838   -3.2348 C   0  0  0  0  0  0  0  0  0  0  0  0
    4.6534   -7.4487    1.5743 C   0  0  0  0  0  0  0  0  0  0  0  0
    3.1241    3.5990    1.0981 H   0  0  0  0  0  0  0  0  0  0  0  0
    5.0271    1.1770    1.0638 H   0  0  0  0  0  0  0  0  0  0  0  0
    1.0715   -0.0954    3.8902 H   0  0  0  0  0  0  0  0  0  0  0  0
    2.7235   -2.4561    0.5280 H   0  0  0  0  0  0  0  0  0  0  0  0
    2.6618    3.1820    3.3192 H   0  0  0  0  0  0  0  0  0  0  0  0
    4.0848    2.1678    3.5780 H   0  0  0  0  0  0  0  0  0  0  0  0
    2.8695    0.3182    2.9611 H   0  0  0  0  0  0  0  0  0  0  0  0
    5.9770    3.2277    2.1358 H   0  0  0  0  0  0  0  0  0  0  0  0
    4.9722    4.6478    2.4236 H   0  0  0  0  0  0  0  0  0  0  0  0
    4.7036    1.4254   -1.3699 H   0  0  0  0  0  0  0  0  0  0  0  0
    3.4728    2.6548   -1.1264 H   0  0  0  0  0  0  0  0  0  0  0  0
    6.5105    4.8484    0.4093 H   0  0  0  0  0  0  0  0  0  0  0  0
    4.8143    5.1796    0.1100 H   0  0  0  0  0  0  0  0  0  0  0  0
    6.4813    2.8548   -0.8229 H   0  0  0  0  0  0  0  0  0  0  0  0
    5.3921    3.8812   -1.7331 H   0  0  0  0  0  0  0  0  0  0  0  0
    4.0866   -0.6847   -0.6284 H   0  0  0  0  0  0  0  0  0  0  0  0
    2.8267    0.4508   -2.5240 H   0  0  0  0  0  0  0  0  0  0  0  0
    3.1717   -1.2146   -2.9408 H   0  0  0  0  0  0  0  0  0  0  0  0
    1.5520   -0.7675   -2.3964 H   0  0  0  0  0  0  0  0  0  0  0  0
    3.2659   -3.1282   -2.2921 H   0  0  0  0  0  0  0  0  0  0  0  0
    5.4279   -3.8207   -1.7396 H   0  0  0  0  0  0  0  0  0  0  0  0
    5.2354   -2.1700   -1.3583 H   0  0  0  0  0  0  0  0  0  0  0  0
    6.4217   -3.1198    0.4982 H   0  0  0  0  0  0  0  0  0  0  0  0
    4.8269   -2.6775    1.0696 H   0  0  0  0  0  0  0  0  0  0  0  0
    3.0685   -4.7607   -3.7456 H   0  0  0  0  0  0  0  0  0  0  0  0
    1.7534   -5.9273   -3.7813 H   0  0  0  0  0  0  0  0  0  0  0  0
    5.8036   -5.6710   -1.0402 H   0  0  0  0  0  0  0  0  0  0  0  0
    4.2283   -4.2930    2.7423 H   0  0  0  0  0  0  0  0  0  0  0  0
    5.3114   -7.9544   -0.4182 H   0  0  0  0  0  0  0  0  0  0  0  0
    3.9579   -6.6407    3.4431 H   0  0  0  0  0  0  0  0  0  0  0  0
    1.3380   -3.1017   -2.6576 H   0  0  0  0  0  0  0  0  0  0  0  0
    0.8707   -3.6401   -4.2505 H   0  0  0  0  0  0  0  0  0  0  0  0
    0.1553   -4.3499   -2.7651 H   0  0  0  0  0  0  0  0  0  0  0  0
    4.4256   -8.4750    1.8415 H   0  0  0  0  0  0  0  0  0  0  0  0
  1 16  2  0  0  0  0
  2 17  1  0  0  0  0
  2 34  1  0  0  0  0
  3 17  2  0  0  0  0
  4 22  1  0  0  0  0
  4 25  1  0  0  0  0
  5 22  2  0  0  0  0
  6  9  1  0  0  0  0
  6 11  1  0  0  0  0
  6 16  1  0  0  0  0
  7 35  1  0  0  0  0
  8  9  1  0  0  0  0
  8 10  1  0  0  0  0
  8 12  1  0  0  0  0
  8 32  1  6  0  0  0
  9 13  1  0  0  0  0
  9 33  1  1  0  0  0
 10 11  1  0  0  0  0
 10 36  1  0  0  0  0
 10 37  1  0  0  0  0
 11 17  1  0  0  0  0
 11 38  1  1  0  0  0
 12 14  1  0  0  0  0
 12 39  1  0  0  0  0
 12 40  1  0  0  0  0
 13 15  1  0  0  0  0
 13 41  1  0  0  0  0
 13 42  1  0  0  0  0
 14 15  1  0  0  0  0
 14 43  1  0  0  0  0
 14 44  1  0  0  0  0
 15 45  1  0  0  0  0
 15 46  1  0  0  0  0
 16 18  1  0  0  0  0
 18  7  1  0  0  0  0
 18 19  1  0  0  0  0
 18 47  1  1  0  0  0
 19 48  1  0  0  0  0
 19 49  1  0  0  0  0
 19 50  1  0  0  0  0
 20  7  1  0  0  0  0
 20 21  1  0  0  0  0
 20 22  1  0  0  0  0
 20 51  1  6  0  0  0
 21 23  1  0  0  0  0
 21 52  1  0  0  0  0
 21 53  1  0  0  0  0
 23 24  1  0  0  0  0
 23 54  1  0  0  0  0
 23 55  1  0  0  0  0
 24 26  2  0  0  0  0
 24 27  1  0  0  0  0
 25 30  1  0  0  0  0
 25 56  1  0  0  0  0
 25 57  1  0  0  0  0
 26 28  1  0  0  0  0
 26 58  1  0  0  0  0
 27 29  2  0  0  0  0
 27 59  1  0  0  0  0
 28 31  2  0  0  0  0
 28 60  1  0  0  0  0
 29 31  1  0  0  0  0
 29 61  1  0  0  0  0
 30 62  1  0  0  0  0
 30 63  1  0  0  0  0
 30 64  1  0  0  0  0
 31 65  1  0  0  0  0
M  END
>  <DRUGBANK_ID>
DB00519

>  <SECONDARY_ACCESSION_NUMBERS>
APRD01269

>  <COMMON_NAME>
Trandolapril

>  <CAS_NUMBER>
87679-37-6

>  <UNII>
1T0N3G9CRC

>  <SYNONYMS>
Trandolapril; Trandolaprilum

$$$$
