
 OpenBabel10282417203D

 66 69  0  0  1  0  0  0  0  0999 V2000
    2.1459    0.7375   -0.0118 C   0  0  0  0  0  0  0  0  0  0  0  0
    0.9235    1.4242   -0.0104 C   0  0  0  0  0  0  0  0  0  0  0  0
   -0.2578    0.6795   -0.0164 C   0  0  0  0  0  0  0  0  0  0  0  0
   -0.1825   -0.7060   -0.0032 C   0  0  0  0  0  0  0  0  0  0  0  0
    1.0193   -1.4197    0.0101 C   0  0  0  0  0  0  0  0  0  0  0  0
    2.2080   -0.6681    0.0012 C   0  0  0  0  0  0  0  0  0  0  0  0
    3.5474   -1.3501    0.0059 C   0  0  0  0  0  0  0  0  0  0  0  0
    3.7027   -2.6383    0.0230 N   0  0  0  0  0  0  0  0  0  0  0  0
    4.7023   -0.6375   -0.0061 N   0  0  0  0  0  0  0  0  0  0  0  0
   -1.4884   -1.1098   -0.0068 N   0  0  0  0  0  0  0  0  0  0  0  0
   -2.2868    0.0056   -0.0166 C   0  0  0  0  0  0  0  0  0  0  0  0
   -1.5592    1.1048   -0.0454 N   0  0  0  0  0  0  0  0  0  0  0  0
   -3.7364   -0.0841   -0.0103 C   0  0  0  0  0  0  0  0  0  0  0  0
   -4.4547    0.5239   -1.0415 C   0  0  0  0  0  0  0  0  0  0  0  0
   -5.8498    0.4792   -1.0533 C   0  0  0  0  0  0  0  0  0  0  0  0
   -6.5195   -0.1787   -0.0051 C   0  0  0  0  0  0  0  0  0  0  0  0
   -5.8280   -0.7658    1.0702 C   0  0  0  0  0  0  0  0  0  0  0  0
   -4.4211   -0.7454    1.0224 C   0  0  0  0  0  0  0  0  0  0  0  0
   -3.6559   -1.3769    1.9773 O   0  0  0  0  0  0  0  0  0  0  0  0
   -6.5998   -1.2917    2.2173 C   0  0  0  0  0  0  0  0  0  0  0  0
   -7.5881   -2.2754    2.0310 C   0  0  0  0  0  0  0  0  0  0  0  0
   -8.3428   -2.7482    3.1150 C   0  0  0  0  0  0  0  0  0  0  0  0
   -8.1309   -2.2362    4.3976 C   0  0  0  0  0  0  0  0  0  0  0  0
   -7.1551   -1.2552    4.6015 C   0  0  0  0  0  0  0  0  0  0  0  0
   -6.4024   -0.7948    3.5223 C   0  0  0  0  0  0  0  0  0  0  0  0
   -5.4290    0.1494    3.7151 O   0  0  0  0  0  0  0  0  0  0  0  0
   -9.5816   -3.9782    2.7864 S   0  0  0  0  0  0  0  0  0  0  0  0
  -10.6078   -3.3704    1.9800 O   0  0  0  0  0  0  0  0  0  0  0  0
   -8.9040   -5.1962    2.3959 O   0  0  0  0  0  0  0  0  0  0  0  0
  -10.3095   -4.2924    4.2760 N   0  0  0  0  0  0  0  0  0  0  0  0
   -6.6213    1.2051   -2.1334 C   0  0  0  0  0  0  0  0  0  0  0  0
   -6.2970    2.6912   -2.2151 C   0  0  0  0  0  0  0  0  0  0  0  0
   -5.7883    3.1837   -3.2225 O   0  0  0  0  0  0  0  0  0  0  0  0
   -6.5990    3.5002   -1.1570 N   0  0  0  0  0  0  0  0  0  0  0  0
   -7.1583    3.1284    0.1415 C   0  0  1  0  0  0  0  0  0  0  0  0
   -6.1690    3.3085    1.2860 C   0  0  0  0  0  0  0  0  0  0  0  0
   -5.8746    4.7577    1.5345 C   0  0  0  0  0  0  0  0  0  0  0  0
   -6.1090    5.3634    2.5679 O   0  0  0  0  0  0  0  0  0  0  0  0
   -5.3248    5.3742    0.4694 O   0  0  0  0  0  0  0  0  0  0  0  0
   -8.4985    3.7967    0.4085 C   0  0  0  0  0  0  0  0  0  0  0  0
   -9.5609    3.2071    0.5415 O   0  0  0  0  0  0  0  0  0  0  0  0
   -8.4343    5.1348    0.5190 O   0  0  0  0  0  0  0  0  0  0  0  0
    3.0428    1.3450   -0.0280 H   0  0  0  0  0  0  0  0  0  0  0  0
    0.8871    2.5076   -0.0133 H   0  0  0  0  0  0  0  0  0  0  0  0
    0.9971   -2.5006    0.0206 H   0  0  0  0  0  0  0  0  0  0  0  0
    2.8188   -3.1430    0.0327 H   0  0  0  0  0  0  0  0  0  0  0  0
    4.7643    0.3662   -0.0204 H   0  0  0  0  0  0  0  0  0  0  0  0
    5.5654   -1.1648   -0.0019 H   0  0  0  0  0  0  0  0  0  0  0  0
   -1.8327   -2.0583    0.0063 H   0  0  0  0  0  0  0  0  0  0  0  0
   -3.9149    1.0474   -1.8314 H   0  0  0  0  0  0  0  0  0  0  0  0
   -7.6106   -0.1585    0.0189 H   0  0  0  0  0  0  0  0  0  0  0  0
   -4.2282   -1.6024    2.7292 H   0  0  0  0  0  0  0  0  0  0  0  0
   -7.7693   -2.6783    1.0345 H   0  0  0  0  0  0  0  0  0  0  0  0
   -8.7072   -2.5882    5.2479 H   0  0  0  0  0  0  0  0  0  0  0  0
   -6.9949   -0.8617    5.6016 H   0  0  0  0  0  0  0  0  0  0  0  0
   -5.3523    0.4017    4.6499 H   0  0  0  0  0  0  0  0  0  0  0  0
  -10.8501   -3.4906    4.5993 H   0  0  0  0  0  0  0  0  0  0  0  0
  -10.9234   -5.1054    4.1637 H   0  0  0  0  0  0  0  0  0  0  0  0
   -6.3829    0.7404   -3.0975 H   0  0  0  0  0  0  0  0  0  0  0  0
   -7.7039    1.1007   -1.9964 H   0  0  0  0  0  0  0  0  0  0  0  0
   -6.2799    4.4609   -1.2600 H   0  0  0  0  0  0  0  0  0  0  0  0
   -7.4256    2.0800    0.1076 H   0  0  0  0  0  0  0  0  0  0  0  0
   -6.5919    2.8882    2.2070 H   0  0  0  0  0  0  0  0  0  0  0  0
   -5.2225    2.7874    1.1015 H   0  0  0  0  0  0  0  0  0  0  0  0
   -5.2223    6.3131    0.7299 H   0  0  0  0  0  0  0  0  0  0  0  0
   -9.3407    5.4159    0.7643 H   0  0  0  0  0  0  0  0  0  0  0  0
  1  2  1  0  0  0  0
  1  6  2  0  0  0  0
  1 43  1  0  0  0  0
  2  3  2  0  0  0  0
  2 44  1  0  0  0  0
  3  4  1  0  0  0  0
  3 12  1  0  0  0  0
  4  5  2  0  0  0  0
  4 10  1  0  0  0  0
  5  6  1  0  0  0  0
  5 45  1  0  0  0  0
  6  7  1  0  0  0  0
  7  8  2  0  0  0  0
  7  9  1  0  0  0  0
  8 46  1  0  0  0  0
  9 47  1  0  0  0  0
  9 48  1  0  0  0  0
 10 11  1  0  0  0  0
 10 49  1  0  0  0  0
 11 12  2  0  0  0  0
 11 13  1  0  0  0  0
 13 14  2  0  0  0  0
 13 18  1  0  0  0  0
 14 15  1  0  0  0  0
 14 50  1  0  0  0  0
 15 16  2  0  0  0  0
 15 31  1  0  0  0  0
 16 17  1  0  0  0  0
 16 51  1  0  0  0  0
 17 18  2  0  0  0  0
 17 20  1  0  0  0  0
 18 19  1  0  0  0  0
 19 52  1  0  0  0  0
 20 21  2  0  0  0  0
 20 25  1  0  0  0  0
 21 22  1  0  0  0  0
 21 53  1  0  0  0  0
 22 23  2  0  0  0  0
 22 27  1  0  0  0  0
 23 24  1  0  0  0  0
 23 54  1  0  0  0  0
 24 25  2  0  0  0  0
 24 55  1  0  0  0  0
 25 26  1  0  0  0  0
 26 56  1  0  0  0  0
 27 28  2  0  0  0  0
 27 29  2  0  0  0  0
 27 30  1  0  0  0  0
 30 57  1  0  0  0  0
 30 58  1  0  0  0  0
 31 32  1  0  0  0  0
 31 59  1  0  0  0  0
 31 60  1  0  0  0  0
 32 33  2  0  0  0  0
 32 34  1  0  0  0  0
 34 61  1  0  0  0  0
 35 34  1  0  0  0  0
 35 36  1  0  0  0  0
 35 40  1  0  0  0  0
 35 62  1  6  0  0  0
 36 37  1  0  0  0  0
 36 63  1  0  0  0  0
 36 64  1  0  0  0  0
 37 38  2  0  0  0  0
 37 39  1  0  0  0  0
 39 65  1  0  0  0  0
 40 41  2  0  0  0  0
 40 42  1  0  0  0  0
 42 66  1  0  0  0  0
M  END
>  <DRUGBANK_ID>
DB13000

>  <COMMON_NAME>
PCI-27483

>  <CAS_NUMBER>
871266-63-6

>  <UNII>
6073LCU8U9

$$$$
