962
 OpenBabel10282417113D

 38 40  0  0  0  0  0  0  0  0999 V2000
    1.0830    0.0316   -0.0243 O   0  0  0  0  0  0  0  0  0  0  0  0
    3.0490    0.8401    0.8803 N   0  0  0  0  0  0  0  0  0  0  0  0
    7.1139    1.9772   -2.5127 N   0  0  0  0  0  0  0  0  0  0  0  0
    6.3750    3.1111   -2.3577 N   0  0  0  0  0  0  0  0  0  0  0  0
    8.5317    0.8896   -4.1499 N   0  0  0  0  0  0  0  0  0  0  0  0
    8.1554    3.9617   -6.6989 N   0  0  0  0  0  0  0  0  0  0  0  0
    6.5810    0.9406   -0.3040 C   0  0  0  0  0  0  0  0  0  0  0  0
    4.4689    0.9070    0.9116 C   0  0  0  0  0  0  0  0  0  0  0  0
    7.2696    0.9220   -1.6031 C   0  0  0  0  0  0  0  0  0  0  0  0
    5.1888    1.0599   -0.2734 C   0  0  0  0  0  0  0  0  0  0  0  0
    2.3096    1.6352    1.8751 C   0  0  0  0  0  0  0  0  0  0  0  0
    7.2726    0.7857    0.8967 C   0  0  0  0  0  0  0  0  0  0  0  0
    5.1741    0.7401    2.1074 C   0  0  0  0  0  0  0  0  0  0  0  0
    7.7474    1.9428   -3.7616 C   0  0  0  0  0  0  0  0  0  0  0  0
    6.5683    0.6409    2.0915 C   0  0  0  0  0  0  0  0  0  0  0  0
    8.0061   -0.1496   -1.9555 C   0  0  0  0  0  0  0  0  0  0  0  0
    2.3189    0.0697   -0.0340 C   0  0  0  0  0  0  0  0  0  0  0  0
    1.4411    2.7022    1.2148 C   0  0  0  0  0  0  0  0  0  0  0  0
    7.4025    3.1223   -4.3807 C   0  0  0  0  0  0  0  0  0  0  0  0
    8.6427   -0.0835   -3.2977 C   0  0  0  0  0  0  0  0  0  0  0  0
    6.5630    3.7923   -3.4850 C   0  0  0  0  0  0  0  0  0  0  0  0
    3.0293   -0.7985   -1.0564 C   0  0  0  0  0  0  0  0  0  0  0  0
    7.8267    3.5636   -5.6638 C   0  0  0  0  0  0  0  0  0  0  0  0
    4.6518    1.2457   -1.2022 H   0  0  0  0  0  0  0  0  0  0  0  0
    1.6919    0.9618    2.4802 H   0  0  0  0  0  0  0  0  0  0  0  0
    3.0007    2.1515    2.5527 H   0  0  0  0  0  0  0  0  0  0  0  0
    8.3595    0.7864    0.9095 H   0  0  0  0  0  0  0  0  0  0  0  0
    4.6560    0.6324    3.0567 H   0  0  0  0  0  0  0  0  0  0  0  0
    7.1052    0.4146    3.0090 H   0  0  0  0  0  0  0  0  0  0  0  0
    8.1513   -1.0352   -1.3509 H   0  0  0  0  0  0  0  0  0  0  0  0
    0.6814    2.2645    0.5629 H   0  0  0  0  0  0  0  0  0  0  0  0
    0.9167    3.2972    1.9675 H   0  0  0  0  0  0  0  0  0  0  0  0
    2.0541    3.3700    0.6011 H   0  0  0  0  0  0  0  0  0  0  0  0
    9.2657   -0.9540   -3.5660 H   0  0  0  0  0  0  0  0  0  0  0  0
    6.0764    4.7533   -3.5937 H   0  0  0  0  0  0  0  0  0  0  0  0
    2.6870   -1.8293   -0.9489 H   0  0  0  0  0  0  0  0  0  0  0  0
    2.7872   -0.4286   -2.0585 H   0  0  0  0  0  0  0  0  0  0  0  0
    4.1079   -0.8559   -0.9631 H   0  0  0  0  0  0  0  0  0  0  0  0
  1 17  2  0  0  0  0
  2  8  1  0  0  0  0
  2 11  1  0  0  0  0
  2 17  1  0  0  0  0
  3  4  1  0  0  0  0
  3  9  1  0  0  0  0
  3 14  1  0  0  0  0
  4 21  2  0  0  0  0
  5 14  1  0  0  0  0
  5 20  2  0  0  0  0
  6 23  3  0  0  0  0
  7  9  1  0  0  0  0
  7 10  2  0  0  0  0
  7 12  1  0  0  0  0
  8 10  1  0  0  0  0
  8 13  2  0  0  0  0
  9 16  2  0  0  0  0
 10 24  1  0  0  0  0
 11 18  1  0  0  0  0
 11 25  1  0  0  0  0
 11 26  1  0  0  0  0
 12 15  2  0  0  0  0
 12 27  1  0  0  0  0
 13 15  1  0  0  0  0
 13 28  1  0  0  0  0
 14 19  2  0  0  0  0
 15 29  1  0  0  0  0
 16 20  1  0  0  0  0
 16 30  1  0  0  0  0
 17 22  1  0  0  0  0
 18 31  1  0  0  0  0
 18 32  1  0  0  0  0
 18 33  1  0  0  0  0
 19 21  1  0  0  0  0
 19 23  1  0  0  0  0
 20 34  1  0  0  0  0
 21 35  1  0  0  0  0
 22 36  1  0  0  0  0
 22 37  1  0  0  0  0
 22 38  1  0  0  0  0
M  END
>  <DRUGBANK_ID>
DB00962

>  <SECONDARY_ACCESSION_NUMBERS>
APRD00411

>  <COMMON_NAME>
Zaleplon

>  <CAS_NUMBER>
151319-34-5

>  <UNII>
S62U433RMH

>  <SYNONYMS>
3'-(3-Cyanopyrazolo(1,5-a)pyrimidin-7-yl)-N-ethylacetanilide; Zaleplon

$$$$
