
 OpenBabel10282417143D

 49 52  0  0  0  0  0  0  0  0999 V2000
    0.9405   -0.1365   -0.0068 F   0  0  0  0  0  0  0  0  0  0  0  0
    2.7404   -1.1992    0.5993 F   0  0  0  0  0  0  0  0  0  0  0  0
    2.7422   -0.0257   -1.2306 F   0  0  0  0  0  0  0  0  0  0  0  0
    4.9691    2.7425    6.9448 O   0  0  0  0  0  0  0  0  0  0  0  0
    7.5710    1.0853    4.9801 N   0  0  0  0  0  0  0  0  0  0  0  0
    5.5158    1.8156    2.9465 N   0  0  0  0  0  0  0  0  0  0  0  0
    6.6487    4.2940    5.7513 N   0  0  0  0  0  0  0  0  0  0  0  0
    4.3594    4.5908    6.0081 N   0  0  0  0  0  0  0  0  0  0  0  0
    7.5288    0.5936    3.5968 C   0  0  0  0  0  0  0  0  0  0  0  0
    6.1795    1.3531    5.3088 C   0  0  0  0  0  0  0  0  0  0  0  0
    6.8764    1.5022    2.5077 C   0  0  0  0  0  0  0  0  0  0  0  0
    5.4390    2.3135    4.2700 C   0  0  0  0  0  0  0  0  0  0  0  0
    8.3973    2.2509    5.3774 C   0  0  0  0  0  0  0  0  0  0  0  0
    7.9238    3.6816    5.0118 C   0  0  0  0  0  0  0  0  0  0  0  0
    4.4397    2.1547    2.1688 C   0  0  0  0  0  0  0  0  0  0  0  0
    6.2457    5.5822    5.2957 C   0  0  0  0  0  0  0  0  0  0  0  0
    5.3891    3.7670    6.3736 C   0  0  0  0  0  0  0  0  0  0  0  0
    3.8025    1.0512    1.6533 C   0  0  0  0  0  0  0  0  0  0  0  0
    4.8789    5.7306    5.5116 C   0  0  0  0  0  0  0  0  0  0  0  0
    3.8029    3.4093    2.0432 C   0  0  0  0  0  0  0  0  0  0  0  0
    2.7394    1.1809    0.7842 C   0  0  0  0  0  0  0  0  0  0  0  0
    6.9731    6.6411    4.8363 C   0  0  0  0  0  0  0  0  0  0  0  0
    2.6457    3.5435    1.2625 C   0  0  0  0  0  0  0  0  0  0  0  0
    4.1637    6.8772    5.4626 C   0  0  0  0  0  0  0  0  0  0  0  0
    2.1817    2.4406    0.5550 C   0  0  0  0  0  0  0  0  0  0  0  0
    6.3104    7.8750    4.9049 C   0  0  0  0  0  0  0  0  0  0  0  0
    4.9394    7.9914    5.2588 C   0  0  0  0  0  0  0  0  0  0  0  0
    2.2918   -0.0343    0.0524 C   0  0  0  0  0  0  0  0  0  0  0  0
    3.3993    4.2864    6.0090 H   0  0  0  0  0  0  0  0  0  0  0  0
    8.5123    0.2352    3.3066 H   0  0  0  0  0  0  0  0  0  0  0  0
    6.8809   -0.2998    3.6529 H   0  0  0  0  0  0  0  0  0  0  0  0
    5.5820    0.4456    5.4287 H   0  0  0  0  0  0  0  0  0  0  0  0
    6.3400    1.6472    6.3419 H   0  0  0  0  0  0  0  0  0  0  0  0
    7.4729    2.4119    2.3868 H   0  0  0  0  0  0  0  0  0  0  0  0
    6.8706    0.9911    1.5442 H   0  0  0  0  0  0  0  0  0  0  0  0
    5.8958    3.2740    4.0750 H   0  0  0  0  0  0  0  0  0  0  0  0
    4.4028    2.5315    4.5430 H   0  0  0  0  0  0  0  0  0  0  0  0
    8.4925    2.2830    6.4733 H   0  0  0  0  0  0  0  0  0  0  0  0
    9.4236    2.0627    5.0274 H   0  0  0  0  0  0  0  0  0  0  0  0
    8.7640    4.3795    5.1350 H   0  0  0  0  0  0  0  0  0  0  0  0
    7.7888    3.7097    3.9166 H   0  0  0  0  0  0  0  0  0  0  0  0
    4.1633    0.0756    1.9775 H   0  0  0  0  0  0  0  0  0  0  0  0
    4.1668    4.2993    2.5563 H   0  0  0  0  0  0  0  0  0  0  0  0
    8.0229    6.5740    4.5850 H   0  0  0  0  0  0  0  0  0  0  0  0
    2.1169    4.4929    1.1832 H   0  0  0  0  0  0  0  0  0  0  0  0
    3.1313    6.8793    5.7881 H   0  0  0  0  0  0  0  0  0  0  0  0
    1.3791    2.5459   -0.1695 H   0  0  0  0  0  0  0  0  0  0  0  0
    6.8830    8.7852    4.7660 H   0  0  0  0  0  0  0  0  0  0  0  0
    4.4886    8.9568    5.4494 H   0  0  0  0  0  0  0  0  0  0  0  0
  1 28  1  0  0  0  0
  2 28  1  0  0  0  0
  3 28  1  0  0  0  0
  4 17  2  0  0  0  0
  5  9  1  0  0  0  0
  5 10  1  0  0  0  0
  5 13  1  0  0  0  0
  6 11  1  0  0  0  0
  6 12  1  0  0  0  0
  6 15  1  0  0  0  0
  7 14  1  0  0  0  0
  7 16  1  0  0  0  0
  7 17  1  0  0  0  0
  8 17  1  0  0  0  0
  8 19  1  0  0  0  0
  8 29  1  0  0  0  0
  9 11  1  0  0  0  0
  9 30  1  0  0  0  0
  9 31  1  0  0  0  0
 10 12  1  0  0  0  0
 10 32  1  0  0  0  0
 10 33  1  0  0  0  0
 11 34  1  0  0  0  0
 11 35  1  0  0  0  0
 12 36  1  0  0  0  0
 12 37  1  0  0  0  0
 13 14  1  0  0  0  0
 13 38  1  0  0  0  0
 13 39  1  0  0  0  0
 14 40  1  0  0  0  0
 14 41  1  0  0  0  0
 15 18  1  0  0  0  0
 15 20  2  0  0  0  0
 16 19  1  0  0  0  0
 16 22  2  0  0  0  0
 18 21  2  0  0  0  0
 18 42  1  0  0  0  0
 19 24  2  0  0  0  0
 20 23  1  0  0  0  0
 20 43  1  0  0  0  0
 21 25  1  0  0  0  0
 21 28  1  0  0  0  0
 22 26  1  0  0  0  0
 22 44  1  0  0  0  0
 23 25  2  0  0  0  0
 23 45  1  0  0  0  0
 24 27  1  0  0  0  0
 24 46  1  0  0  0  0
 25 47  1  0  0  0  0
 26 27  2  0  0  0  0
 26 48  1  0  0  0  0
 27 49  1  0  0  0  0
M  END
>  <DRUGBANK_ID>
DB04908

>  <COMMON_NAME>
Flibanserin

>  <CAS_NUMBER>
167933-07-5

>  <UNII>
37JK4STR6Z

>  <SYNONYMS>
Flibanserin

$$$$
