
 OpenBabel10282417143D

 75 78  0  0  1  0  0  0  0  0999 V2000
    1.1322    0.0278   -0.2288 C   0  0  0  0  0  0  0  0  0  0  0  0
    0.4819    1.1273    0.5842 C   0  0  0  0  0  0  0  0  0  0  0  0
    1.0079    2.5079    0.1973 C   0  0  0  0  0  0  0  0  0  0  0  0
   -1.0521    1.0231    0.5379 C   0  0  0  0  0  0  0  0  0  0  0  0
   -1.5456   -0.2301    1.2842 C   0  0  0  0  0  0  0  0  0  0  0  0
   -1.0852   -0.4026    2.7536 C   0  0  0  0  0  0  0  0  0  0  0  0
   -1.6195    0.6568    3.7532 C   0  0  1  0  0  0  0  0  0  0  0  0
   -3.1514    0.6539    3.7052 C   0  0  0  0  0  0  0  0  0  0  0  0
   -1.3132    0.2008    5.0715 O   0  0  0  0  0  0  0  0  0  0  0  0
   -0.9796    2.0648    3.5257 C   0  0  1  0  0  0  0  0  0  0  0  0
   -1.9489    3.2695    3.6067 C   0  0  0  0  0  0  0  0  0  0  0  0
   -1.1128    4.4783    4.0055 C   0  0  0  0  0  0  0  0  0  0  0  0
    0.3203    4.0092    3.8348 C   0  0  1  0  0  0  0  0  0  0  0  0
    1.4222    4.7702    4.5452 C   0  0  2  0  0  0  0  0  0  0  0  0
    1.3583    6.2550    4.1932 C   0  0  0  0  0  0  0  0  0  0  0  0
    2.5829    6.9857    4.6171 C   0  0  0  0  0  0  0  0  0  0  0  0
    3.7398    6.3815    4.9849 C   0  0  0  0  0  0  0  0  0  0  0  0
    4.8986    7.2070    5.4691 C   0  0  0  0  0  0  0  0  0  0  0  0
    6.1924    6.8648    4.7282 C   0  0  1  0  0  0  0  0  0  0  0  0
    7.2874    7.5530    5.3273 O   0  0  0  0  0  0  0  0  0  0  0  0
    6.4723    5.3637    4.7453 C   0  0  0  0  0  0  0  0  0  0  0  0
    5.2885    4.5810    4.1862 C   0  0  0  0  0  0  0  0  0  0  0  0
    3.9556    4.8673    4.9344 C   0  0  1  0  0  0  0  0  0  0  0  0
    4.0335    4.3279    6.3836 C   0  0  0  0  0  0  0  0  0  0  0  0
    2.8011    4.1647    4.1550 C   0  0  1  0  0  0  0  0  0  0  0  0
    2.8625    2.6181    4.2677 C   0  0  0  0  0  0  0  0  0  0  0  0
    1.6408    1.9494    3.6672 C   0  0  0  0  0  0  0  0  0  0  0  0
    0.3227    2.5163    4.2307 C   0  0  2  0  0  0  0  0  0  0  0  0
    0.2545    2.2603    5.7398 C   0  0  0  0  0  0  0  0  0  0  0  0
    0.8162    0.0967   -1.2695 H   0  0  0  0  0  0  0  0  0  0  0  0
    0.8520   -0.9538    0.1661 H   0  0  0  0  0  0  0  0  0  0  0  0
    2.2212    0.0942   -0.1619 H   0  0  0  0  0  0  0  0  0  0  0  0
    0.8132    0.9186    1.5933 H   0  0  0  0  0  0  0  0  0  0  0  0
    0.7222    2.7757   -0.8193 H   0  0  0  0  0  0  0  0  0  0  0  0
    0.6223    3.2865    0.8609 H   0  0  0  0  0  0  0  0  0  0  0  0
    2.1021    2.5403    0.2777 H   0  0  0  0  0  0  0  0  0  0  0  0
   -1.5580    1.9120    0.9338 H   0  0  0  0  0  0  0  0  0  0  0  0
   -1.3876    1.0079   -0.5022 H   0  0  0  0  0  0  0  0  0  0  0  0
   -2.6378   -0.2565    1.2366 H   0  0  0  0  0  0  0  0  0  0  0  0
   -1.2234   -1.1134    0.7242 H   0  0  0  0  0  0  0  0  0  0  0  0
   -1.4182   -1.3964    3.0874 H   0  0  0  0  0  0  0  0  0  0  0  0
    0.0059   -0.4791    2.8341 H   0  0  0  0  0  0  0  0  0  0  0  0
   -3.5313   -0.3441    3.9522 H   0  0  0  0  0  0  0  0  0  0  0  0
   -3.5757    1.3082    4.4707 H   0  0  0  0  0  0  0  0  0  0  0  0
   -3.5460    0.9563    2.7332 H   0  0  0  0  0  0  0  0  0  0  0  0
   -1.5408   -0.7378    5.1609 H   0  0  0  0  0  0  0  0  0  0  0  0
   -0.6636    2.1070    2.5031 H   0  0  0  0  0  0  0  0  0  0  0  0
   -2.7461    3.1492    4.3378 H   0  0  0  0  0  0  0  0  0  0  0  0
   -2.4208    3.4294    2.6261 H   0  0  0  0  0  0  0  0  0  0  0  0
   -1.3286    4.7511    5.0413 H   0  0  0  0  0  0  0  0  0  0  0  0
   -1.3445    5.3406    3.3694 H   0  0  0  0  0  0  0  0  0  0  0  0
    0.5249    4.1058    2.7584 H   0  0  0  0  0  0  0  0  0  0  0  0
    1.2744    4.6864    5.6263 H   0  0  0  0  0  0  0  0  0  0  0  0
    0.4897    6.6994    4.6961 H   0  0  0  0  0  0  0  0  0  0  0  0
    1.2121    6.3995    3.1155 H   0  0  0  0  0  0  0  0  0  0  0  0
    2.5013    8.0657    4.6446 H   0  0  0  0  0  0  0  0  0  0  0  0
    5.0278    7.0392    6.5459 H   0  0  0  0  0  0  0  0  0  0  0  0
    4.7007    8.2808    5.3705 H   0  0  0  0  0  0  0  0  0  0  0  0
    6.1191    7.2075    3.6891 H   0  0  0  0  0  0  0  0  0  0  0  0
    7.3545    7.2544    6.2505 H   0  0  0  0  0  0  0  0  0  0  0  0
    7.3728    5.1476    4.1589 H   0  0  0  0  0  0  0  0  0  0  0  0
    6.7033    5.0305    5.7642 H   0  0  0  0  0  0  0  0  0  0  0  0
    5.1779    4.8410    3.1234 H   0  0  0  0  0  0  0  0  0  0  0  0
    5.5311    3.5124    4.2172 H   0  0  0  0  0  0  0  0  0  0  0  0
    3.0861    4.4672    6.9150 H   0  0  0  0  0  0  0  0  0  0  0  0
    4.2806    3.2621    6.4116 H   0  0  0  0  0  0  0  0  0  0  0  0
    4.8086    4.8193    6.9751 H   0  0  0  0  0  0  0  0  0  0  0  0
    2.9316    4.3897    3.0820 H   0  0  0  0  0  0  0  0  0  0  0  0
    3.7505    2.2470    3.7405 H   0  0  0  0  0  0  0  0  0  0  0  0
    2.9461    2.2706    5.2965 H   0  0  0  0  0  0  0  0  0  0  0  0
    1.7407    2.1826    2.6106 H   0  0  0  0  0  0  0  0  0  0  0  0
    1.7021    0.8625    3.7778 H   0  0  0  0  0  0  0  0  0  0  0  0
   -0.6989    2.5986    6.1533 H   0  0  0  0  0  0  0  0  0  0  0  0
    0.3851    1.1962    5.9508 H   0  0  0  0  0  0  0  0  0  0  0  0
    1.0556    2.7348    6.3046 H   0  0  0  0  0  0  0  0  0  0  0  0
  1  2  1  0  0  0  0
  1 30  1  0  0  0  0
  1 31  1  0  0  0  0
  1 32  1  0  0  0  0
  2  3  1  0  0  0  0
  2  4  1  0  0  0  0
  2 33  1  0  0  0  0
  3 34  1  0  0  0  0
  3 35  1  0  0  0  0
  3 36  1  0  0  0  0
  4  5  1  0  0  0  0
  4 37  1  0  0  0  0
  4 38  1  0  0  0  0
  5  6  1  0  0  0  0
  5 39  1  0  0  0  0
  5 40  1  0  0  0  0
  6  7  1  0  0  0  0
  6 41  1  0  0  0  0
  6 42  1  0  0  0  0
  7  8  1  0  0  0  0
  7  9  1  1  0  0  0
  8 43  1  0  0  0  0
  8 44  1  0  0  0  0
  8 45  1  0  0  0  0
  9 46  1  0  0  0  0
 10  7  1  0  0  0  0
 10 11  1  0  0  0  0
 10 28  1  0  0  0  0
 10 47  1  6  0  0  0
 11 12  1  0  0  0  0
 11 48  1  0  0  0  0
 11 49  1  0  0  0  0
 12 50  1  0  0  0  0
 12 51  1  0  0  0  0
 13 12  1  0  0  0  0
 13 14  1  0  0  0  0
 13 28  1  0  0  0  0
 13 52  1  6  0  0  0
 14 15  1  0  0  0  0
 14 25  1  0  0  0  0
 14 53  1  1  0  0  0
 15 16  1  0  0  0  0
 15 54  1  0  0  0  0
 15 55  1  0  0  0  0
 16 17  2  0  0  0  0
 16 56  1  0  0  0  0
 17 18  1  0  0  0  0
 17 23  1  0  0  0  0
 18 19  1  0  0  0  0
 18 57  1  0  0  0  0
 18 58  1  0  0  0  0
 19 20  1  0  0  0  0
 19 21  1  0  0  0  0
 19 59  1  6  0  0  0
 20 60  1  0  0  0  0
 21 22  1  0  0  0  0
 21 61  1  0  0  0  0
 21 62  1  0  0  0  0
 22 23  1  0  0  0  0
 22 63  1  0  0  0  0
 22 64  1  0  0  0  0
 23 24  1  1  0  0  0
 23 25  1  0  0  0  0
 24 65  1  0  0  0  0
 24 66  1  0  0  0  0
 24 67  1  0  0  0  0
 25 26  1  0  0  0  0
 25 68  1  6  0  0  0
 26 27  1  0  0  0  0
 26 69  1  0  0  0  0
 26 70  1  0  0  0  0
 27 28  1  0  0  0  0
 27 71  1  0  0  0  0
 27 72  1  0  0  0  0
 28 29  1  1  0  0  0
 29 73  1  0  0  0  0
 29 74  1  0  0  0  0
 29 75  1  0  0  0  0
M  END
>  <DRUGBANK_ID>
DB04704

>  <COMMON_NAME>
20-hydroxycholesterol

>  <CAS_NUMBER>
516-72-3

>  <UNII>
30060WAL99

$$$$
