
 OpenBabel10282417153D

 36 38  0  0  0  0  0  0  0  0999 V2000
    1.0002    0.0036    0.0235 C   0  0  0  0  0  0  0  0  0  0  0  0
    0.5397    1.3716    0.4143 C   0  0  0  0  0  0  0  0  0  0  0  0
   -0.5285    1.5815    1.1480 N   0  0  0  0  0  0  0  0  0  0  0  0
   -0.6107    2.9432    1.3295 C   0  0  0  0  0  0  0  0  0  0  0  0
    0.4657    3.6099    0.7311 C   0  0  0  0  0  0  0  0  0  0  0  0
    1.1407    2.5810    0.0617 N   0  0  0  0  0  0  0  0  0  0  0  0
    2.2735    2.6710   -0.8558 C   0  0  0  0  0  0  0  0  0  0  0  0
    1.9975    3.2831   -2.2501 C   0  0  0  0  0  0  0  0  0  0  0  0
    1.5463    4.7215   -2.1670 C   0  0  0  0  0  0  0  0  0  0  0  0
    3.2707    3.3025   -3.0981 C   0  0  0  0  0  0  0  0  0  0  0  0
    0.5425    5.0238    0.8789 C   0  0  0  0  0  0  0  0  0  0  0  0
   -0.5453    5.6612    1.5010 C   0  0  0  0  0  0  0  0  0  0  0  0
   -0.5594    7.0530    1.4766 C   0  0  0  0  0  0  0  0  0  0  0  0
    0.4325    7.7750    0.8135 C   0  0  0  0  0  0  0  0  0  0  0  0
    1.4670    7.0574    0.2570 C   0  0  0  0  0  0  0  0  0  0  0  0
    1.5858    5.7039    0.3407 N   0  0  0  0  0  0  0  0  0  0  0  0
   -1.5698    5.0086    2.0757 N   0  0  0  0  0  0  0  0  0  0  0  0
   -1.6074    3.6615    2.0244 C   0  0  0  0  0  0  0  0  0  0  0  0
   -2.6654    3.0287    2.6424 N   0  0  0  0  0  0  0  0  0  0  0  0
    0.6371   -0.2642   -0.9738 H   0  0  0  0  0  0  0  0  0  0  0  0
    0.6026   -0.7395    0.7267 H   0  0  0  0  0  0  0  0  0  0  0  0
    2.0881   -0.0985    0.0494 H   0  0  0  0  0  0  0  0  0  0  0  0
    3.0867    3.1685   -0.3185 H   0  0  0  0  0  0  0  0  0  0  0  0
    2.6271    1.6480   -1.0419 H   0  0  0  0  0  0  0  0  0  0  0  0
    1.2199    2.7049   -2.7634 H   0  0  0  0  0  0  0  0  0  0  0  0
    2.3412    5.2782   -1.6635 H   0  0  0  0  0  0  0  0  0  0  0  0
    1.4043    5.2115   -3.1290 H   0  0  0  0  0  0  0  0  0  0  0  0
    0.5852    4.7830   -1.6583 H   0  0  0  0  0  0  0  0  0  0  0  0
    3.6029    2.2959   -3.3562 H   0  0  0  0  0  0  0  0  0  0  0  0
    3.0949    3.8563   -4.0286 H   0  0  0  0  0  0  0  0  0  0  0  0
    4.0824    3.8142   -2.5662 H   0  0  0  0  0  0  0  0  0  0  0  0
   -1.3778    7.5858    1.9494 H   0  0  0  0  0  0  0  0  0  0  0  0
    0.3870    8.8575    0.7376 H   0  0  0  0  0  0  0  0  0  0  0  0
    2.2325    7.5634   -0.3322 H   0  0  0  0  0  0  0  0  0  0  0  0
   -2.6262    2.0208    2.7069 H   0  0  0  0  0  0  0  0  0  0  0  0
   -3.2557    3.5892    3.2318 H   0  0  0  0  0  0  0  0  0  0  0  0
  1  2  1  0  0  0  0
  1 20  1  0  0  0  0
  1 21  1  0  0  0  0
  1 22  1  0  0  0  0
  2  3  2  0  0  0  0
  2  6  1  0  0  0  0
  3  4  1  0  0  0  0
  4  5  2  0  0  0  0
  4 18  1  0  0  0  0
  5  6  1  0  0  0  0
  5 11  1  0  0  0  0
  6  7  1  0  0  0  0
  7  8  1  0  0  0  0
  7 23  1  0  0  0  0
  7 24  1  0  0  0  0
  8  9  1  0  0  0  0
  8 10  1  0  0  0  0
  8 25  1  0  0  0  0
  9 26  1  0  0  0  0
  9 27  1  0  0  0  0
  9 28  1  0  0  0  0
 10 29  1  0  0  0  0
 10 30  1  0  0  0  0
 10 31  1  0  0  0  0
 11 12  1  0  0  0  0
 11 16  2  0  0  0  0
 12 13  2  0  0  0  0
 12 17  1  0  0  0  0
 13 14  1  0  0  0  0
 13 32  1  0  0  0  0
 14 15  2  0  0  0  0
 14 33  1  0  0  0  0
 15 16  1  0  0  0  0
 15 34  1  0  0  0  0
 17 18  2  0  0  0  0
 18 19  1  0  0  0  0
 19 35  1  0  0  0  0
 19 36  1  0  0  0  0
M  END
>  <DRUGBANK_ID>
DB05680

>  <COMMON_NAME>
Sotirimod

>  <CAS_NUMBER>
227318-75-4

>  <UNII>
X04FQM7J4M

>  <SYNONYMS>
Sotirimod

$$$$
