
 OpenBabel10282417233D

 46 48  0  0  1  0  0  0  0  0999 V2000
    0.8616   -0.1222   -0.0659 C   0  0  0  0  0  0  0  0  0  0  0  0
    0.5031    0.4825    1.1746 O   0  0  0  0  0  0  0  0  0  0  0  0
    0.9201   -0.1185    2.3379 C   0  0  0  0  0  0  0  0  0  0  0  0
    2.2359   -0.5423    2.6272 C   0  0  0  0  0  0  0  0  0  0  0  0
    2.5125   -1.0473    3.9183 C   0  0  0  0  0  0  0  0  0  0  0  0
    1.5270   -1.1142    4.9008 C   0  0  0  0  0  0  0  0  0  0  0  0
    0.2475   -0.6776    4.6011 C   0  0  0  0  0  0  0  0  0  0  0  0
   -0.6994   -0.7264    5.5475 F   0  0  0  0  0  0  0  0  0  0  0  0
   -0.0616   -0.1784    3.3390 C   0  0  0  0  0  0  0  0  0  0  0  0
    3.3401   -0.4770    1.6641 C   0  0  0  0  0  0  0  0  0  0  0  0
    3.7177    0.7421    1.0616 C   0  0  0  0  0  0  0  0  0  0  0  0
    4.6294    0.7484    0.0066 C   0  0  0  0  0  0  0  0  0  0  0  0
    4.7955    1.9480   -0.7456 N   0  0  0  0  0  0  0  0  0  0  0  0
    5.8097    2.0476   -1.7297 C   0  0  0  0  0  0  0  0  0  0  0  0
    6.8985    2.8115   -1.5272 N   0  0  0  0  0  0  0  0  0  0  0  0
    7.8665    2.7589   -2.4814 C   0  0  0  0  0  0  0  0  0  0  0  0
    7.7926    1.9927   -3.6425 C   0  0  0  0  0  0  0  0  0  0  0  0
    6.6493    1.2263   -3.8588 C   0  0  0  0  0  0  0  0  0  0  0  0
    6.4642    0.3809   -5.0902 C   0  0  0  0  0  0  0  0  0  0  0  0
    6.3985   -1.3922   -4.7144 S   0  0  1  0  0  0  0  0  0  0  0  0
    4.9332   -1.6510   -3.7193 C   0  0  0  0  0  0  0  0  0  0  0  0
    6.1266   -2.1121   -6.0563 N   0  0  0  0  0  0  0  0  0  0  0  0
    7.5402   -1.7169   -3.8669 O   0  0  0  0  0  0  0  0  0  0  0  0
    5.6424    1.3151   -2.9001 C   0  0  0  0  0  0  0  0  0  0  0  0
    5.2139   -0.4041   -0.3998 N   0  0  0  0  0  0  0  0  0  0  0  0
    4.8903   -1.5644    0.2214 C   0  0  0  0  0  0  0  0  0  0  0  0
    3.9590   -1.6482    1.2285 C   0  0  0  0  0  0  0  0  0  0  0  0
    3.6074   -2.8474    1.7165 F   0  0  0  0  0  0  0  0  0  0  0  0
    0.4256    0.4836   -0.8659 H   0  0  0  0  0  0  0  0  0  0  0  0
    0.4946   -1.1476   -0.1430 H   0  0  0  0  0  0  0  0  0  0  0  0
    1.9249   -0.1066   -0.2785 H   0  0  0  0  0  0  0  0  0  0  0  0
    3.5189   -1.3827    4.1675 H   0  0  0  0  0  0  0  0  0  0  0  0
    1.7561   -1.4932    5.8920 H   0  0  0  0  0  0  0  0  0  0  0  0
   -1.0729    0.1665    3.1458 H   0  0  0  0  0  0  0  0  0  0  0  0
    3.1986    1.6571    1.3353 H   0  0  0  0  0  0  0  0  0  0  0  0
    4.8844    2.7391   -0.1209 H   0  0  0  0  0  0  0  0  0  0  0  0
    8.7457    3.3694   -2.2845 H   0  0  0  0  0  0  0  0  0  0  0  0
    8.6106    2.0134   -4.3576 H   0  0  0  0  0  0  0  0  0  0  0  0
    5.5481    0.6635   -5.6192 H   0  0  0  0  0  0  0  0  0  0  0  0
    7.3095    0.5106   -5.7760 H   0  0  0  0  0  0  0  0  0  0  0  0
    4.0564   -1.2436   -4.2276 H   0  0  0  0  0  0  0  0  0  0  0  0
    4.8084   -2.7188   -3.5330 H   0  0  0  0  0  0  0  0  0  0  0  0
    5.0740   -1.1828   -2.7524 H   0  0  0  0  0  0  0  0  0  0  0  0
    5.2423   -1.8648   -6.5044 H   0  0  0  0  0  0  0  0  0  0  0  0
    4.6915    0.8173   -3.0285 H   0  0  0  0  0  0  0  0  0  0  0  0
    5.3794   -2.4586   -0.1529 H   0  0  0  0  0  0  0  0  0  0  0  0
  1  2  1  0  0  0  0
  1 29  1  0  0  0  0
  1 30  1  0  0  0  0
  1 31  1  0  0  0  0
  2  3  1  0  0  0  0
  3  4  2  0  0  0  0
  3  9  1  0  0  0  0
  4  5  1  0  0  0  0
  4 10  1  0  0  0  0
  5  6  2  0  0  0  0
  5 32  1  0  0  0  0
  6  7  1  0  0  0  0
  6 33  1  0  0  0  0
  7  8  1  0  0  0  0
  7  9  2  0  0  0  0
  9 34  1  0  0  0  0
 10 11  2  0  0  0  0
 10 27  1  0  0  0  0
 11 12  1  0  0  0  0
 11 35  1  0  0  0  0
 12 13  1  0  0  0  0
 12 25  2  0  0  0  0
 13 14  1  0  0  0  0
 13 36  1  0  0  0  0
 14 15  2  0  0  0  0
 14 24  1  0  0  0  0
 15 16  1  0  0  0  0
 16 17  2  0  0  0  0
 16 37  1  0  0  0  0
 17 18  1  0  0  0  0
 17 38  1  0  0  0  0
 18 19  1  0  0  0  0
 18 24  2  0  0  0  0
 19 39  1  0  0  0  0
 19 40  1  0  0  0  0
 20 19  1  0  0  0  0
 20 21  1  0  0  0  0
 20 22  2  0  0  0  0
 20 23  2  1  0  0  0
 21 41  1  0  0  0  0
 21 42  1  0  0  0  0
 21 43  1  0  0  0  0
 22 44  1  0  0  0  0
 24 45  1  0  0  0  0
 25 26  1  0  0  0  0
 26 27  2  0  0  0  0
 26 46  1  0  0  0  0
 27 28  1  0  0  0  0
M  END
>  <DRUGBANK_ID>
DB17297

>  <COMMON_NAME>
Enitociclib

>  <CAS_NUMBER>
1610408-97-3

>  <UNII>
1255AT22ZJ

>  <SYNONYMS>
2-pyridinamine, 5-fluoro-4-(4-fluoro-2-methoxyphenyl)-n-(4-(((s(s))-s-methylsulfonimidoyl)methyl)-2-pyridinyl)-

$$$$
