LGS
 OpenBabel10282417173D

 50 51  0  0  0  0  0  0  0  0999 V2000
    1.2076   -2.5157    0.4666 O   0  0  0  0  0  0  0  0  0  0  0  0
    0.5839   -1.2520    0.2863 C   0  0  2  0  0  0  0  0  0  0  0  0
   -0.1897   -0.8216    1.4999 C   0  0  1  0  0  0  0  0  0  0  0  0
    0.7508   -0.6911    2.6755 C   0  0  0  0  0  0  0  0  0  0  0  0
    0.4573    0.6072    3.2071 O   0  0  0  0  0  0  0  0  0  0  0  0
   -0.3731   -1.2593   -0.8836 C   0  0  2  0  0  0  0  0  0  0  0  0
    0.3753   -1.7172   -2.0254 O   0  0  0  0  0  0  0  0  0  0  0  0
   -0.9261    0.1457   -1.1562 C   0  0  1  0  0  0  0  0  0  0  0  0
   -2.2108   -0.0285   -1.7738 O   0  0  0  0  0  0  0  0  0  0  0  0
   -0.9976    1.1077    0.0611 C   0  0  2  0  0  0  0  0  0  0  0  0
   -0.0599    2.1488   -0.2174 O   0  0  0  0  0  0  0  0  0  0  0  0
   -0.6578    0.5323    1.3271 N   0  0  0  0  0  0  0  0  0  0  0  0
   -0.4044    1.2864    2.4141 C   0  0  0  0  0  0  0  0  0  0  0  0
   -0.9007    2.4447    2.6824 N   0  0  0  0  0  0  0  0  0  0  0  0
   -0.7016    3.1196    3.9579 C   0  0  0  0  0  0  0  0  0  0  0  0
   -1.5870    2.4732    5.0333 C   0  0  0  0  0  0  0  0  0  0  0  0
   -1.1747    1.0293    5.3013 C   0  0  0  0  0  0  0  0  0  0  0  0
    0.3166    0.9728    5.7112 C   0  0  0  0  0  0  0  0  0  0  0  0
    0.5341    1.6158    7.0617 C   0  0  0  0  0  0  0  0  0  0  0  0
   -0.2629    0.8537    8.1082 C   0  0  0  0  0  0  0  0  0  0  0  0
    0.1482   -0.6212    8.1548 C   0  0  0  0  0  0  0  0  0  0  0  0
    1.6208   -0.7456    8.5098 C   0  0  0  0  0  0  0  0  0  0  0  0
    1.3873   -0.5314    0.0958 H   0  0  0  0  0  0  0  0  0  0  0  0
   -1.0232   -1.4947    1.7569 H   0  0  0  0  0  0  0  0  0  0  0  0
   -1.1847   -1.9836   -0.7313 H   0  0  0  0  0  0  0  0  0  0  0  0
   -0.2874    0.6130   -1.9171 H   0  0  0  0  0  0  0  0  0  0  0  0
   -1.9883    1.5686    0.1330 H   0  0  0  0  0  0  0  0  0  0  0  0
    1.7639   -2.6183   -0.3320 H   0  0  0  0  0  0  0  0  0  0  0  0
    1.8081   -0.6704    2.3990 H   0  0  0  0  0  0  0  0  0  0  0  0
    0.6146   -1.4918    3.4165 H   0  0  0  0  0  0  0  0  0  0  0  0
   -0.2840   -2.0173   -2.6767 H   0  0  0  0  0  0  0  0  0  0  0  0
   -2.3577    0.7503   -2.3404 H   0  0  0  0  0  0  0  0  0  0  0  0
    0.8168    1.7844   -0.0162 H   0  0  0  0  0  0  0  0  0  0  0  0
    0.3528    3.1986    4.2465 H   0  0  0  0  0  0  0  0  0  0  0  0
   -1.0269    4.1615    3.8520 H   0  0  0  0  0  0  0  0  0  0  0  0
   -1.5364    3.0512    5.9636 H   0  0  0  0  0  0  0  0  0  0  0  0
   -2.6371    2.4994    4.7236 H   0  0  0  0  0  0  0  0  0  0  0  0
   -1.8246    0.5628    6.0436 H   0  0  0  0  0  0  0  0  0  0  0  0
   -1.4088    0.4133    4.4287 H   0  0  0  0  0  0  0  0  0  0  0  0
    0.6792   -0.0599    5.6640 H   0  0  0  0  0  0  0  0  0  0  0  0
    0.9979    1.5079    5.0446 H   0  0  0  0  0  0  0  0  0  0  0  0
    1.6058    1.6324    7.2839 H   0  0  0  0  0  0  0  0  0  0  0  0
    0.2471    2.6714    7.0336 H   0  0  0  0  0  0  0  0  0  0  0  0
   -0.1272    1.3320    9.0788 H   0  0  0  0  0  0  0  0  0  0  0  0
   -1.3359    0.9252    7.9010 H   0  0  0  0  0  0  0  0  0  0  0  0
   -0.4713   -1.1447    8.8859 H   0  0  0  0  0  0  0  0  0  0  0  0
   -0.0419   -1.1326    7.2020 H   0  0  0  0  0  0  0  0  0  0  0  0
    1.8076   -0.2545    9.4686 H   0  0  0  0  0  0  0  0  0  0  0  0
    1.9180   -1.7926    8.5725 H   0  0  0  0  0  0  0  0  0  0  0  0
    2.2692   -0.2782    7.7604 H   0  0  0  0  0  0  0  0  0  0  0  0
  1 28  1  0  0  0  0
  2  3  1  0  0  0  0
  2  6  1  0  0  0  0
  2 23  1  6  0  0  0
  2  1  1  0  0  0  0
  3  4  1  0  0  0  0
  3 12  1  0  0  0  0
  3 24  1  1  0  0  0
  4  5  1  0  0  0  0
  4 29  1  0  0  0  0
  4 30  1  0  0  0  0
  5 13  1  0  0  0  0
  6  8  1  0  0  0  0
  6 25  1  1  0  0  0
  6  7  1  0  0  0  0
  7 31  1  0  0  0  0
  8 10  1  0  0  0  0
  8 26  1  6  0  0  0
  8  9  1  0  0  0  0
  9 32  1  0  0  0  0
 10 11  1  0  0  0  0
 10 12  1  0  0  0  0
 10 27  1  1  0  0  0
 11 33  1  0  0  0  0
 12 13  1  0  0  0  0
 13 14  2  0  0  0  0
 14 15  1  0  0  0  0
 15 16  1  0  0  0  0
 15 34  1  0  0  0  0
 15 35  1  0  0  0  0
 16 17  1  0  0  0  0
 16 36  1  0  0  0  0
 16 37  1  0  0  0  0
 17 18  1  0  0  0  0
 17 38  1  0  0  0  0
 17 39  1  0  0  0  0
 18 19  1  0  0  0  0
 18 40  1  0  0  0  0
 18 41  1  0  0  0  0
 19 20  1  0  0  0  0
 19 42  1  0  0  0  0
 19 43  1  0  0  0  0
 20 21  1  0  0  0  0
 20 44  1  0  0  0  0
 20 45  1  0  0  0  0
 21 22  1  0  0  0  0
 21 46  1  0  0  0  0
 21 47  1  0  0  0  0
 22 48  1  0  0  0  0
 22 49  1  0  0  0  0
 22 50  1  0  0  0  0
M  END
>  <DRUGBANK_ID>
DB08090

>  <COMMON_NAME>
(3Z,5S,6R,7S,8R,8aR)-3-(octylimino)hexahydro[1,3]oxazolo[3,4-a]pyridine-5,6,7,8-tetrol

$$$$
