
 OpenBabel10282417143D

 20 20  0  0  0  0  0  0  0  0999 V2000
   -2.1896   -0.2444   -0.0045 Cl  0  0  0  0  0  0  0  0  0  0  0  0
    6.8047    2.1878    0.1387 O   0  0  0  0  0  0  0  0  0  0  0  0
    3.7914    0.1931    0.0483 N   0  0  0  0  0  0  0  0  0  0  0  0
    5.9167    1.1148    0.0691 N   0  0  0  0  0  0  0  0  0  0  0  0
    4.1498    2.5686    0.0172 N   0  0  0  0  0  0  0  0  0  0  0  0
    2.3735    0.1162    0.0078 C   0  0  0  0  0  0  0  0  0  0  0  0
    1.4932    1.1997   -0.0481 C   0  0  0  0  0  0  0  0  0  0  0  0
    1.7461   -1.1480    0.0131 C   0  0  0  0  0  0  0  0  0  0  0  0
    0.1075    1.0931   -0.0227 C   0  0  0  0  0  0  0  0  0  0  0  0
    0.3344   -1.2794   -0.0037 C   0  0  0  0  0  0  0  0  0  0  0  0
   -0.4769   -0.1495   -0.0035 C   0  0  0  0  0  0  0  0  0  0  0  0
    4.5482    1.2729    0.0516 C   0  0  0  0  0  0  0  0  0  0  0  0
    6.2600    2.9803    0.0923 H   0  0  0  0  0  0  0  0  0  0  0  0
    6.3239    0.1879    0.1143 H   0  0  0  0  0  0  0  0  0  0  0  0
    3.2117    2.8062    0.2405 H   0  0  0  0  0  0  0  0  0  0  0  0
    4.7099    3.3958    0.0727 H   0  0  0  0  0  0  0  0  0  0  0  0
    1.7841    2.2187   -0.1518 H   0  0  0  0  0  0  0  0  0  0  0  0
    2.3463   -2.0574    0.0196 H   0  0  0  0  0  0  0  0  0  0  0  0
   -0.4741    2.0098   -0.0394 H   0  0  0  0  0  0  0  0  0  0  0  0
   -0.1276   -2.2630   -0.0170 H   0  0  0  0  0  0  0  0  0  0  0  0
  1 11  1  0  0  0  0
  2  4  1  0  0  0  0
  2 13  1  0  0  0  0
  3  6  1  0  0  0  0
  3 12  2  0  0  0  0
  4 12  1  0  0  0  0
  4 14  1  0  0  0  0
  5 12  1  0  0  0  0
  5 15  1  0  0  0  0
  5 16  1  0  0  0  0
  6  7  2  0  0  0  0
  6  8  1  0  0  0  0
  7  9  1  0  0  0  0
  7 17  1  0  0  0  0
  8 10  2  0  0  0  0
  8 18  1  0  0  0  0
  9 11  2  0  0  0  0
  9 19  1  0  0  0  0
 10 11  1  0  0  0  0
 10 20  1  0  0  0  0
M  END
>  <DRUGBANK_ID>
DB04559

>  <SECONDARY_ACCESSION_NUMBERS>
EXPT02578

>  <COMMON_NAME>
N-(Chlorophenyl)-N'-hydroxyguanidine

>  <CAS_NUMBER>
130974-86-6

$$$$
