
 OpenBabel10282417173D

 32 32  0  0  1  0  0  0  0  0999 V2000
   -1.2169   -1.2144    0.0177 C   0  0  0  0  0  0  0  0  0  0  0  0
   -1.8891    0.0034   -0.0016 C   0  0  0  0  0  0  0  0  0  0  0  0
    2.5344    2.5117    2.7887 C   0  0  0  0  0  0  0  0  0  0  0  0
    1.0322    2.7291    2.6029 C   0  0  0  0  0  0  0  0  0  0  0  0
    0.1781   -1.2448    0.0254 C   0  0  0  0  0  0  0  0  0  0  0  0
   -1.1638    1.1918   -0.0420 C   0  0  0  0  0  0  0  0  0  0  0  0
    3.3413    3.8106    2.8279 C   0  0  0  0  0  0  0  0  0  0  0  0
    0.6168    3.5004    1.3483 C   0  0  0  0  0  0  0  0  0  0  0  0
    0.9038   -0.0527   -0.0047 C   0  0  0  0  0  0  0  0  0  0  0  0
    0.2410    1.1779   -0.0597 C   0  0  0  0  0  0  0  0  0  0  0  0
    2.2658   -0.1111    0.0350 O   0  0  0  0  0  0  0  0  0  0  0  0
    4.3833    5.4358    4.1311 O   0  0  0  0  0  0  0  0  0  0  0  0
    2.0782    5.7882    3.3639 O   0  0  0  0  0  0  0  0  0  0  0  0
    2.5318    5.5426    5.6132 O   0  0  0  0  0  0  0  0  0  0  0  0
    2.5484    2.5763   -0.2748 O   0  0  0  0  0  0  0  0  0  0  0  0
    2.9028    4.7488    4.3366 P   0  0  0  0  0  0  0  0  0  0  0  0
    1.0646    2.7670   -0.2404 S   0  0  2  0  0  0  0  0  0  0  0  0
   -1.7804   -2.1435    0.0232 H   0  0  0  0  0  0  0  0  0  0  0  0
   -2.9758    0.0310   -0.0054 H   0  0  0  0  0  0  0  0  0  0  0  0
    2.6896    1.9827    3.7388 H   0  0  0  0  0  0  0  0  0  0  0  0
    2.9312    1.8481    2.0165 H   0  0  0  0  0  0  0  0  0  0  0  0
    0.6556    3.2762    3.4780 H   0  0  0  0  0  0  0  0  0  0  0  0
    0.5314    1.7555    2.6443 H   0  0  0  0  0  0  0  0  0  0  0  0
    0.6847   -2.2049    0.0483 H   0  0  0  0  0  0  0  0  0  0  0  0
   -1.7083    2.1331   -0.0780 H   0  0  0  0  0  0  0  0  0  0  0  0
    4.3957    3.5095    2.8929 H   0  0  0  0  0  0  0  0  0  0  0  0
    3.2470    4.3905    1.9042 H   0  0  0  0  0  0  0  0  0  0  0  0
    1.0773    4.4874    1.3135 H   0  0  0  0  0  0  0  0  0  0  0  0
   -0.4642    3.6723    1.3682 H   0  0  0  0  0  0  0  0  0  0  0  0
    2.5706   -1.0260   -0.0592 H   0  0  0  0  0  0  0  0  0  0  0  0
    4.6744    5.9146    4.9263 H   0  0  0  0  0  0  0  0  0  0  0  0
    1.2668    5.4285    2.9671 H   0  0  0  0  0  0  0  0  0  0  0  0
  1 18  1  0  0  0  0
  2  1  2  0  0  0  0
  2 19  1  0  0  0  0
  3 20  1  0  0  0  0
  3 21  1  0  0  0  0
  4  3  1  0  0  0  0
  4 22  1  0  0  0  0
  4 23  1  0  0  0  0
  5  1  1  0  0  0  0
  5 24  1  0  0  0  0
  6  2  1  0  0  0  0
  6 25  1  0  0  0  0
  7  3  1  0  0  0  0
  7 26  1  0  0  0  0
  7 27  1  0  0  0  0
  8  4  1  0  0  0  0
  8 28  1  0  0  0  0
  8 29  1  0  0  0  0
  9  5  2  0  0  0  0
 10  6  2  0  0  0  0
 10  9  1  0  0  0  0
 11  9  1  0  0  0  0
 11 30  1  0  0  0  0
 12 31  1  0  0  0  0
 13 32  1  0  0  0  0
 16  7  1  0  0  0  0
 16 12  1  0  0  0  0
 16 13  1  0  0  0  0
 16 14  2  0  0  0  0
 17  8  1  0  0  0  0
 17 10  1  0  0  0  0
 17 15  2  1  0  0  0
M  END
>  <DRUGBANK_ID>
DB07925

>  <COMMON_NAME>
4-(2-HYDROXYPHENYLSULFINYL)-BUTYLPHOSPHONIC ACID

$$$$
