
 OpenBabel10282417223D

 24 23  0  0  0  0  0  0  0  0999 V2000
    0.8531    0.1039   -0.0745 C   0  0  0  0  0  0  0  0  0  0  0  0
    0.2194    0.9031   -0.7546 O   0  0  0  0  0  0  0  0  0  0  0  0
    0.2842   -0.8670    0.7051 O   0  0  0  0  0  0  0  0  0  0  0  0
    2.2265    0.0953   -0.0185 N   0  0  0  0  0  0  0  0  0  0  0  0
    3.0339    1.0672   -0.7515 C   0  0  0  0  0  0  0  0  0  0  0  0
    3.9794    1.8612    0.1569 C   0  0  0  0  0  0  0  0  0  0  0  0
    5.0272    0.9868    0.8483 C   0  0  0  0  0  0  0  0  0  0  0  0
    5.9354    0.2842   -0.1503 C   0  0  0  0  0  0  0  0  0  0  0  0
   -1.1881   -0.8927    0.7409 C   0  0  0  0  0  0  0  0  0  0  0  0
   -1.6948    0.4328    1.2854 C   0  0  0  0  0  0  0  0  0  0  0  0
   -2.1294    1.5699    1.7525 C   0  0  0  0  0  0  0  0  0  0  0  0
   -2.8194    3.3810    2.4954 I   0  0  0  0  0  0  0  0  0  0  0  0
    2.6802   -0.6414    0.5056 H   0  0  0  0  0  0  0  0  0  0  0  0
    3.5939    0.5320   -1.5252 H   0  0  0  0  0  0  0  0  0  0  0  0
    2.3860    1.7723   -1.2818 H   0  0  0  0  0  0  0  0  0  0  0  0
    4.4954    2.6289   -0.4367 H   0  0  0  0  0  0  0  0  0  0  0  0
    3.3961    2.3964    0.9163 H   0  0  0  0  0  0  0  0  0  0  0  0
    5.6383    1.6089    1.5134 H   0  0  0  0  0  0  0  0  0  0  0  0
    4.5326    0.2443    1.4835 H   0  0  0  0  0  0  0  0  0  0  0  0
    6.4755    1.0152   -0.7606 H   0  0  0  0  0  0  0  0  0  0  0  0
    6.6637   -0.3436    0.3689 H   0  0  0  0  0  0  0  0  0  0  0  0
    5.3712   -0.3686   -0.8221 H   0  0  0  0  0  0  0  0  0  0  0  0
   -1.5537   -1.0684   -0.2760 H   0  0  0  0  0  0  0  0  0  0  0  0
   -1.4933   -1.7213    1.3854 H   0  0  0  0  0  0  0  0  0  0  0  0
  2  1  2  0  0  0  0
  3  1  1  0  0  0  0
  4  1  1  0  0  0  0
  4 13  1  0  0  0  0
  5  4  1  0  0  0  0
  5 14  1  0  0  0  0
  5 15  1  0  0  0  0
  6  5  1  0  0  0  0
  6 16  1  0  0  0  0
  6 17  1  0  0  0  0
  7  6  1  0  0  0  0
  7 18  1  0  0  0  0
  7 19  1  0  0  0  0
  8  7  1  0  0  0  0
  8 20  1  0  0  0  0
  8 21  1  0  0  0  0
  8 22  1  0  0  0  0
  9  3  1  0  0  0  0
  9 23  1  0  0  0  0
  9 24  1  0  0  0  0
 10  9  1  0  0  0  0
 11 10  3  0  0  0  0
 12 11  1  0  0  0  0
M  END
>  <DRUGBANK_ID>
DB15666

>  <COMMON_NAME>
Iodopropynyl butylcarbamate

>  <CAS_NUMBER>
55406-53-6

>  <UNII>
603P14DHEB

>  <SYNONYMS>
3-iodo-2-propyn-1-yl N-butylcarbamate; 3-iodo-2-propynyl butylcarbamate; 3-iodoprop-2-yn-1-yl butylcarbamate; 3-iodoprop-2-ynyl butylcarbamate; butyl-3-iodo-2-propynylcarbamate; Iodocarbe; Iodopropynyl butyl carbamate; IPBC

$$$$
