
 OpenBabel10282417133D

 40 42  0  0  1  0  0  0  0  0999 V2000
    0.9420   -0.0994   -0.1258 C   0  0  0  0  0  0  0  0  0  0  0  0
   -1.0077   -4.6660   -4.2753 C   0  0  0  0  0  0  0  0  0  0  0  0
    0.6307   -1.5696   -2.0648 C   0  0  0  0  0  0  0  0  0  0  0  0
   -0.9719    0.3439   -5.6188 C   0  0  0  0  0  0  0  0  0  0  0  0
   -1.1420   -4.2844   -5.7762 C   0  0  2  0  0  0  0  0  0  0  0  0
   -0.1615    0.4371   -3.6526 C   0  0  0  0  0  0  0  0  0  0  0  0
    0.1942   -4.2636   -6.5477 C   0  0  2  0  0  0  0  0  0  0  0  0
    0.6809   -2.8316   -6.3604 C   0  0  2  0  0  0  0  0  0  0  0  0
    0.1399    0.8239   -2.2747 C   0  0  0  0  0  0  0  0  0  0  0  0
    0.0327   -0.8751   -4.0675 C   0  0  0  0  0  0  0  0  0  0  0  0
   -0.6038   -2.0338   -6.2647 C   0  0  2  0  0  0  0  0  0  0  0  0
    0.0545    2.0690   -1.9452 N   0  0  0  0  0  0  0  0  0  0  0  0
   -0.7387    1.1931   -4.6451 N   0  0  0  0  0  0  0  0  0  0  0  0
    0.4726   -1.9318   -3.3153 N   0  0  0  0  0  0  0  0  0  0  0  0
    0.5064   -0.2868   -1.5075 N   0  0  0  0  0  0  0  0  0  0  0  0
   -0.5381   -0.9270   -5.3221 N   0  0  0  0  0  0  0  0  0  0  0  0
   -0.0198   -4.5054   -7.9488 O   0  0  0  0  0  0  0  0  0  0  0  0
    1.4947   -2.3502   -7.4241 O   0  0  0  0  0  0  0  0  0  0  0  0
   -3.5232   -2.7105   -4.4635 O   0  0  0  0  0  0  0  0  0  0  0  0
   -3.7989   -3.2109   -2.0529 O   0  0  0  0  0  0  0  0  0  0  0  0
   -2.0869   -1.5335   -2.7017 O   0  0  0  0  0  0  0  0  0  0  0  0
   -1.9032   -4.1948   -3.2719 O   0  0  0  0  0  0  0  0  0  0  0  0
   -1.6697   -2.9494   -5.9287 O   0  0  0  0  0  0  0  0  0  0  0  0
   -2.6830   -2.7959   -3.1158 P   0  0  0  0  0  0  0  0  0  0  0  0
   -1.8293   -4.9931   -6.2695 H   0  0  0  0  0  0  0  0  0  0  0  0
    0.9204   -5.0048   -6.1972 H   0  0  0  0  0  0  0  0  0  0  0  0
    1.2607   -2.7742   -5.4411 H   0  0  0  0  0  0  0  0  0  0  0  0
   -0.8914   -1.6042   -7.2353 H   0  0  0  0  0  0  0  0  0  0  0  0
    0.2787    2.2166   -0.9675 H   0  0  0  0  0  0  0  0  0  0  0  0
    0.5908   -0.9036    0.5309 H   0  0  0  0  0  0  0  0  0  0  0  0
    0.5795    0.8301    0.3252 H   0  0  0  0  0  0  0  0  0  0  0  0
    2.0364   -0.0763   -0.0909 H   0  0  0  0  0  0  0  0  0  0  0  0
   -1.1241   -5.7639   -4.2536 H   0  0  0  0  0  0  0  0  0  0  0  0
    0.0079   -4.5000   -3.9184 H   0  0  0  0  0  0  0  0  0  0  0  0
    0.8874   -2.3378   -1.3122 H   0  0  0  0  0  0  0  0  0  0  0  0
   -1.4475    0.6030   -6.5563 H   0  0  0  0  0  0  0  0  0  0  0  0
   -0.7869   -3.9913   -8.2526 H   0  0  0  0  0  0  0  0  0  0  0  0
    1.0043   -2.4741   -8.2567 H   0  0  0  0  0  0  0  0  0  0  0  0
   -2.8397   -2.4671   -5.1261 H   0  0  0  0  0  0  0  0  0  0  0  0
   -4.1421   -4.0786   -2.2751 H   0  0  0  0  0  0  0  0  0  0  0  0
  1 30  1  0  0  0  0
  1 31  1  0  0  0  0
  1 32  1  0  0  0  0
  2 33  1  0  0  0  0
  2 34  1  0  0  0  0
  3 35  1  0  0  0  0
  4 36  1  0  0  0  0
  5 25  1  6  0  0  0
  5  2  1  0  0  0  0
  7  5  1  0  0  0  0
  7 17  1  0  0  0  0
  7 26  1  1  0  0  0
  8  7  1  0  0  0  0
  8 18  1  0  0  0  0
  8 27  1  1  0  0  0
  9  6  1  0  0  0  0
 10  6  2  0  0  0  0
 11  8  1  0  0  0  0
 11 16  1  0  0  0  0
 11 28  1  6  0  0  0
 12  9  2  0  0  0  0
 13  4  2  0  0  0  0
 13  6  1  0  0  0  0
 14  3  2  0  0  0  0
 14 10  1  0  0  0  0
 15  1  1  0  0  0  0
 15  3  1  0  0  0  0
 15  9  1  0  0  0  0
 16  4  1  0  0  0  0
 16 10  1  0  0  0  0
 17 37  1  0  0  0  0
 18 38  1  0  0  0  0
 19 39  1  0  0  0  0
 20 40  1  0  0  0  0
 22  2  1  0  0  0  0
 23  5  1  0  0  0  0
 23 11  1  0  0  0  0
 24 19  1  0  0  0  0
 24 20  1  0  0  0  0
 24 21  2  0  0  0  0
 24 22  1  0  0  0  0
 29 12  1  0  0  0  0
M  END
>  <DRUGBANK_ID>
DB03318

>  <SECONDARY_ACCESSION_NUMBERS>
EXPT00075

>  <COMMON_NAME>
6-Hydro-1-Methyladenosine-5'-Monophosphate

$$$$
