
 OpenBabel10282417133D

 65 68  0  0  0  0  0  0  0  0999 V2000
    0.1025   -0.9944    0.4639 C   0  0  0  0  0  0  0  0  0  0  0  0
   -1.1598   -1.6192   -0.0442 C   0  0  0  0  0  0  0  0  0  0  0  0
   -0.7936   -0.4121    0.7334 N   0  0  0  0  0  0  0  0  0  0  0  0
    0.0356    1.0604   -0.3782 C   0  0  0  0  0  0  0  0  0  0  0  0
    1.3514    1.7025   -0.3509 C   0  0  0  0  0  0  0  0  0  0  0  0
    1.0175    0.1914   -0.7823 N   0  0  0  0  0  0  0  0  0  0  0  0
    1.3541   -0.0612   -2.1572 C   0  0  0  0  0  0  0  0  0  0  0  0
    0.0589    0.1123   -2.9575 C   0  0  0  0  0  0  0  0  0  0  0  0
   -0.7949    1.4857   -2.9516 C   0  0  0  0  0  0  0  0  0  0  0  0
    0.0771    2.6861   -2.9242 C   0  0  0  0  0  0  0  0  0  0  0  0
   -0.4396    3.8768   -2.4360 C   0  0  0  0  0  0  0  0  0  0  0  0
    0.3238    5.0018   -2.4814 C   0  0  0  0  0  0  0  0  0  0  0  0
    1.6381    4.8995   -2.9083 C   0  0  0  0  0  0  0  0  0  0  0  0
    2.2573    3.6820   -3.0673 C   0  0  0  0  0  0  0  0  0  0  0  0
    1.4381    2.6019   -3.1972 C   0  0  0  0  0  0  0  0  0  0  0  0
   -1.5590   -0.2041    2.1792 C   0  0  0  0  0  0  0  0  0  0  0  0
   -0.3377   -0.0929    3.0712 C   0  0  0  0  0  0  0  0  0  0  0  0
    0.5923    0.9226    2.8119 O   0  0  0  0  0  0  0  0  0  0  0  0
    0.7949    0.8178    1.4479 C   0  0  0  0  0  0  0  0  0  0  0  0
    2.0929   -0.5699    0.6920 C   0  0  0  0  0  0  0  0  0  0  0  0
    3.2788   -0.3488   -0.0424 C   0  0  0  0  0  0  0  0  0  0  0  0
    3.6875   -1.5409   -0.7948 C   0  0  0  0  0  0  0  0  0  0  0  0
    2.9797   -2.9120   -0.9343 C   0  0  0  0  0  0  0  0  0  0  0  0
    1.7321   -3.2357   -0.7324 C   0  0  0  0  0  0  0  0  0  0  0  0
    1.4891   -2.0784   -0.2417 C   0  0  0  0  0  0  0  0  0  0  0  0
    3.5897   -3.9586   -1.4344 F   0  0  0  0  0  0  0  0  0  0  0  0
   -1.2455    1.5758    0.9294 C   0  0  0  0  0  0  0  0  0  0  0  0
   -2.1750    0.5449   -0.2404 C   0  0  0  0  0  0  0  0  0  0  0  0
   -3.3142    0.2243   -0.8704 C   0  0  0  0  0  0  0  0  0  0  0  0
   -3.7734    1.4462   -0.9807 C   0  0  0  0  0  0  0  0  0  0  0  0
   -3.0428    2.6644   -0.5095 C   0  0  0  0  0  0  0  0  0  0  0  0
   -1.7774    2.7452    0.3393 C   0  0  0  0  0  0  0  0  0  0  0  0
   -4.9403    1.5262   -1.5907 F   0  0  0  0  0  0  0  0  0  0  0  0
    0.6873   -1.1921    1.5882 H   0  0  0  0  0  0  0  0  0  0  0  0
    0.7559   -1.9288    1.2663 H   0  0  0  0  0  0  0  0  0  0  0  0
   -1.7606   -2.4068    0.4331 H   0  0  0  0  0  0  0  0  0  0  0  0
   -1.1170   -1.8055   -1.1656 H   0  0  0  0  0  0  0  0  0  0  0  0
   -0.4525    1.0389   -1.2362 H   0  0  0  0  0  0  0  0  0  0  0  0
    0.0033    2.1870   -0.0089 H   0  0  0  0  0  0  0  0  0  0  0  0
    1.2296    2.5746    0.7678 H   0  0  0  0  0  0  0  0  0  0  0  0
    1.5454    2.5288   -1.0068 H   0  0  0  0  0  0  0  0  0  0  0  0
    2.2147    0.6045   -2.2566 H   0  0  0  0  0  0  0  0  0  0  0  0
    1.8413   -0.9970   -2.3910 H   0  0  0  0  0  0  0  0  0  0  0  0
    0.2240   -0.1142   -3.9888 H   0  0  0  0  0  0  0  0  0  0  0  0
   -0.5121   -0.7338   -2.5861 H   0  0  0  0  0  0  0  0  0  0  0  0
   -1.8625    1.3014   -3.0810 H   0  0  0  0  0  0  0  0  0  0  0  0
   -1.2773    1.8802   -2.0410 H   0  0  0  0  0  0  0  0  0  0  0  0
   -1.4637    3.9440   -2.0957 H   0  0  0  0  0  0  0  0  0  0  0  0
   -0.1642    5.9382   -2.2693 H   0  0  0  0  0  0  0  0  0  0  0  0
    2.1724    5.7814   -3.2030 H   0  0  0  0  0  0  0  0  0  0  0  0
    3.3186    3.5615   -3.2233 H   0  0  0  0  0  0  0  0  0  0  0  0
    1.9004    1.6857   -3.5090 H   0  0  0  0  0  0  0  0  0  0  0  0
   -2.1919    0.7052    2.3609 H   0  0  0  0  0  0  0  0  0  0  0  0
   -2.2482   -1.0364    2.2878 H   0  0  0  0  0  0  0  0  0  0  0  0
   -0.4370   -0.0653    4.1068 H   0  0  0  0  0  0  0  0  0  0  0  0
    0.1539   -1.0307    2.9823 H   0  0  0  0  0  0  0  0  0  0  0  0
    1.9044    1.4073    1.3676 H   0  0  0  0  0  0  0  0  0  0  0  0
    3.5017    0.6182   -0.5436 H   0  0  0  0  0  0  0  0  0  0  0  0
    4.4999   -1.4562   -1.4953 H   0  0  0  0  0  0  0  0  0  0  0  0
    1.2447   -3.9866   -0.0626 H   0  0  0  0  0  0  0  0  0  0  0  0
    0.3836   -2.6587    0.0449 H   0  0  0  0  0  0  0  0  0  0  0  0
   -1.5387   -0.0610   -1.0388 H   0  0  0  0  0  0  0  0  0  0  0  0
   -3.5382   -0.8238   -1.0946 H   0  0  0  0  0  0  0  0  0  0  0  0
   -3.4688    3.6083   -0.7987 H   0  0  0  0  0  0  0  0  0  0  0  0
   -1.0990    3.5211   -0.0903 H   0  0  0  0  0  0  0  0  0  0  0  0
  1  2  1  0  0  0  0
  1  6  1  0  0  0  0
  1 34  1  0  0  0  0
  1 35  1  0  0  0  0
  2  3  1  0  0  0  0
  2 36  1  0  0  0  0
  2 37  1  0  0  0  0
  3  4  1  0  0  0  0
  3 16  1  0  0  0  0
  4  5  1  0  0  0  0
  4 38  1  0  0  0  0
  4 39  1  0  0  0  0
  5  6  1  0  0  0  0
  5 40  1  0  0  0  0
  5 41  1  0  0  0  0
  6  7  1  0  0  0  0
  7  8  1  0  0  0  0
  7 42  1  0  0  0  0
  7 43  1  0  0  0  0
  8  9  1  0  0  0  0
  8 44  1  0  0  0  0
  8 45  1  0  0  0  0
  9 10  1  0  0  0  0
  9 46  1  0  0  0  0
  9 47  1  0  0  0  0
 10 11  2  0  0  0  0
 10 15  1  0  0  0  0
 11 12  1  0  0  0  0
 11 48  1  0  0  0  0
 12 13  2  0  0  0  0
 12 49  1  0  0  0  0
 13 14  1  0  0  0  0
 13 50  1  0  0  0  0
 14 15  2  0  0  0  0
 14 51  1  0  0  0  0
 15 52  1  0  0  0  0
 16 17  1  0  0  0  0
 16 53  1  0  0  0  0
 16 54  1  0  0  0  0
 17 18  1  0  0  0  0
 17 55  1  0  0  0  0
 17 56  1  0  0  0  0
 18 19  1  0  0  0  0
 19 20  1  0  0  0  0
 19 27  1  0  0  0  0
 19 57  1  0  0  0  0
 20 21  2  0  0  0  0
 20 25  1  0  0  0  0
 21 22  1  0  0  0  0
 21 58  1  0  0  0  0
 22 23  2  0  0  0  0
 22 59  1  0  0  0  0
 23 24  1  0  0  0  0
 23 26  1  0  0  0  0
 24 25  2  0  0  0  0
 24 60  1  0  0  0  0
 25 61  1  0  0  0  0
 27 28  2  0  0  0  0
 27 32  1  0  0  0  0
 28 29  1  0  0  0  0
 28 62  1  0  0  0  0
 29 30  2  0  0  0  0
 29 63  1  0  0  0  0
 30 31  1  0  0  0  0
 30 33  1  0  0  0  0
 31 32  2  0  0  0  0
 31 64  1  0  0  0  0
 32 65  1  0  0  0  0
M  END
>  <DRUGBANK_ID>
DB03701

>  <SECONDARY_ACCESSION_NUMBERS>
EXPT03312

>  <COMMON_NAME>
Vanoxerine

>  <CAS_NUMBER>
67469-69-6

>  <UNII>
90X28IKH43

>  <SYNONYMS>
1-(2-(bis(p-fluorophenyl)methoxy)ethyl)-4-(3-phenylpropyl)piperazine; vanoxerina; Vanoxerine

$$$$
