CXZ
 OpenBabel10282417163D

 47 50  0  0  0  0  0  0  0  0999 V2000
    2.1259    0.7319    0.0091 C   0  0  0  0  0  0  0  0  0  0  0  0
    0.8961    1.4110   -0.0154 C   0  0  0  0  0  0  0  0  0  0  0  0
   -0.2388    0.6020   -0.0218 C   0  0  0  0  0  0  0  0  0  0  0  0
   -0.2009   -0.7692   -0.0227 C   0  0  0  0  0  0  0  0  0  0  0  0
    1.0378   -1.4191   -0.0082 C   0  0  0  0  0  0  0  0  0  0  0  0
    2.2128   -0.6688    0.0468 C   0  0  0  0  0  0  0  0  0  0  0  0
    3.4475   -1.2636    0.1296 N   0  0  0  0  0  0  0  0  0  0  0  0
    3.7037   -2.6910    0.1649 C   0  0  0  0  0  0  0  0  0  0  0  0
    4.4273   -3.1323   -1.1044 C   0  0  0  0  0  0  0  0  0  0  0  0
    5.8648   -2.8035   -1.2135 N   0  0  0  0  0  0  0  0  0  0  0  0
    6.2085   -1.3721   -1.3981 C   0  0  0  0  0  0  0  0  0  0  0  0
    5.7607   -0.7697   -2.7401 C   0  0  0  0  0  0  0  0  0  0  0  0
    6.2796   -1.5334   -3.8386 O   0  0  0  0  0  0  0  0  0  0  0  0
    5.8884   -2.9068   -3.7245 C   0  0  0  0  0  0  0  0  0  0  0  0
    6.3867   -3.5206   -2.4018 C   0  0  0  0  0  0  0  0  0  0  0  0
   -1.5531   -1.1870   -0.0184 C   0  0  0  0  0  0  0  0  0  0  0  0
   -2.3688   -0.1198   -0.0370 N   0  0  0  0  0  0  0  0  0  0  0  0
   -1.5400    1.0002   -0.0275 O   0  0  0  0  0  0  0  0  0  0  0  0
   -2.0405   -2.5633    0.0121 C   0  0  0  0  0  0  0  0  0  0  0  0
   -2.8371   -3.0264   -1.0478 C   0  0  0  0  0  0  0  0  0  0  0  0
   -3.2931   -4.3475   -1.0621 C   0  0  0  0  0  0  0  0  0  0  0  0
   -2.9652   -5.2160   -0.0199 C   0  0  0  0  0  0  0  0  0  0  0  0
   -2.1595   -4.7816    1.0240 C   0  0  0  0  0  0  0  0  0  0  0  0
   -1.6922   -3.4655    1.0367 C   0  0  0  0  0  0  0  0  0  0  0  0
   -0.8869   -3.1522    2.0991 O   0  0  0  0  0  0  0  0  0  0  0  0
   -3.4092   -6.5090    0.0223 O   0  0  0  0  0  0  0  0  0  0  0  0
   -4.2519   -4.9026   -2.3834 Cl  0  0  0  0  0  0  0  0  0  0  0  0
    3.0410    1.3254    0.0111 H   0  0  0  0  0  0  0  0  0  0  0  0
    0.8387    2.4910   -0.0171 H   0  0  0  0  0  0  0  0  0  0  0  0
    1.0355   -2.4983   -0.0058 H   0  0  0  0  0  0  0  0  0  0  0  0
    4.2467   -0.6634    0.2625 H   0  0  0  0  0  0  0  0  0  0  0  0
    4.2753   -2.9546    1.0589 H   0  0  0  0  0  0  0  0  0  0  0  0
    2.7903   -3.2908    0.2194 H   0  0  0  0  0  0  0  0  0  0  0  0
    4.3504   -4.2291   -1.1014 H   0  0  0  0  0  0  0  0  0  0  0  0
    3.8493   -2.7922   -1.9714 H   0  0  0  0  0  0  0  0  0  0  0  0
    7.3047   -1.3041   -1.3551 H   0  0  0  0  0  0  0  0  0  0  0  0
    5.8868   -0.7433   -0.5678 H   0  0  0  0  0  0  0  0  0  0  0  0
    4.6693   -0.7085   -2.8171 H   0  0  0  0  0  0  0  0  0  0  0  0
    6.1519    0.2492   -2.8388 H   0  0  0  0  0  0  0  0  0  0  0  0
    6.3124   -3.4580   -4.5665 H   0  0  0  0  0  0  0  0  0  0  0  0
    4.7986   -2.9665   -3.8258 H   0  0  0  0  0  0  0  0  0  0  0  0
    7.4812   -3.4848   -2.3602 H   0  0  0  0  0  0  0  0  0  0  0  0
    6.1108   -4.5803   -2.3484 H   0  0  0  0  0  0  0  0  0  0  0  0
   -3.0896   -2.3600   -1.8703 H   0  0  0  0  0  0  0  0  0  0  0  0
   -1.8978   -5.4631    1.8295 H   0  0  0  0  0  0  0  0  0  0  0  0
   -0.6671   -2.2059    2.0988 H   0  0  0  0  0  0  0  0  0  0  0  0
   -3.9870   -6.6479   -0.7513 H   0  0  0  0  0  0  0  0  0  0  0  0
  1  2  2  0  0  0  0
  1  6  1  0  0  0  0
  1 28  1  0  0  0  0
  2  3  1  0  0  0  0
  2 29  1  0  0  0  0
  3  4  2  0  0  0  0
  3 18  1  0  0  0  0
  4  5  1  0  0  0  0
  4 16  1  0  0  0  0
  5  6  2  0  0  0  0
  5 30  1  0  0  0  0
  6  7  1  0  0  0  0
  7  8  1  0  0  0  0
  7 31  1  0  0  0  0
  8  9  1  0  0  0  0
  8 32  1  0  0  0  0
  8 33  1  0  0  0  0
  9 10  1  0  0  0  0
  9 34  1  0  0  0  0
  9 35  1  0  0  0  0
 10 11  1  0  0  0  0
 10 15  1  0  0  0  0
 11 12  1  0  0  0  0
 11 36  1  0  0  0  0
 11 37  1  0  0  0  0
 12 13  1  0  0  0  0
 12 38  1  0  0  0  0
 12 39  1  0  0  0  0
 13 14  1  0  0  0  0
 14 15  1  0  0  0  0
 14 40  1  0  0  0  0
 14 41  1  0  0  0  0
 15 42  1  0  0  0  0
 15 43  1  0  0  0  0
 16 17  2  0  0  0  0
 16 19  1  0  0  0  0
 17 18  1  0  0  0  0
 19 20  2  0  0  0  0
 19 24  1  0  0  0  0
 20 21  1  0  0  0  0
 20 44  1  0  0  0  0
 21 22  2  0  0  0  0
 21 27  1  0  0  0  0
 22 23  1  0  0  0  0
 22 26  1  0  0  0  0
 23 24  2  0  0  0  0
 23 45  1  0  0  0  0
 24 25  1  0  0  0  0
 25 46  1  0  0  0  0
 26 47  1  0  0  0  0
M  END
>  <DRUGBANK_ID>
DB07601

>  <COMMON_NAME>
4-chloro-6-{5-[(2-morpholin-4-ylethyl)amino]-1,2-benzisoxazol-3-yl}benzene-1,3-diol

$$$$
