
 OpenBabel10282417223D

 45 48  0  0  0  0  0  0  0  0999 V2000
    1.0032    0.0338   -0.1194 C   0  0  0  0  0  0  0  0  0  0  0  0
    0.6116   -1.2078   -0.8795 C   0  0  0  0  0  0  0  0  0  0  0  0
    1.0217   -2.4302   -0.5060 C   0  0  0  0  0  0  0  0  0  0  0  0
    0.7440   -3.5741   -1.2203 N   0  0  0  0  0  0  0  0  0  0  0  0
    0.0229   -3.5551   -2.3887 C   0  0  0  0  0  0  0  0  0  0  0  0
   -0.1276   -4.5856   -3.0374 O   0  0  0  0  0  0  0  0  0  0  0  0
   -0.5751   -2.1814   -2.8226 C   0  0  0  0  0  0  0  0  0  0  0  0
   -1.4180   -2.0808   -3.9422 N   0  0  0  0  0  0  0  0  0  0  0  0
   -1.7484   -3.1244   -4.8355 C   0  0  0  0  0  0  0  0  0  0  0  0
   -2.4308   -4.2264   -4.3536 C   0  0  0  0  0  0  0  0  0  0  0  0
   -2.7465   -5.2412   -5.2256 C   0  0  0  0  0  0  0  0  0  0  0  0
   -3.5494   -6.2860   -4.7940 N   0  0  0  0  0  0  0  0  0  0  0  0
   -2.4266   -5.1772   -6.5203 N   0  0  0  0  0  0  0  0  0  0  0  0
   -1.7863   -4.0592   -6.9095 C   0  0  0  0  0  0  0  0  0  0  0  0
   -1.4539   -3.0029   -6.1393 N   0  0  0  0  0  0  0  0  0  0  0  0
   -0.2230   -1.1059   -2.0740 C   0  0  0  0  0  0  0  0  0  0  0  0
    1.3845   -4.7670   -0.5835 C   0  0  0  0  0  0  0  0  0  0  0  0
    0.3559   -5.8397   -0.0967 C   0  0  0  0  0  0  0  0  0  0  0  0
    1.0355   -7.0763    0.5304 C   0  0  0  0  0  0  0  0  0  0  0  0
    2.0104   -7.7126   -0.4515 C   0  0  0  0  0  0  0  0  0  0  0  0
    3.0940   -6.6983   -0.7940 C   0  0  0  0  0  0  0  0  0  0  0  0
    2.4826   -5.4487   -1.4656 C   0  0  0  0  0  0  0  0  0  0  0  0
    2.0213   -4.1539    0.5793 N   0  0  0  0  0  0  0  0  0  0  0  0
    1.8423   -2.7961    0.6651 C   0  0  0  0  0  0  0  0  0  0  0  0
    2.2713   -2.0593    1.5405 O   0  0  0  0  0  0  0  0  0  0  0  0
    0.6303    0.0003    0.9114 H   0  0  0  0  0  0  0  0  0  0  0  0
    0.6283    0.9578   -0.5711 H   0  0  0  0  0  0  0  0  0  0  0  0
    2.0964    0.1194   -0.0836 H   0  0  0  0  0  0  0  0  0  0  0  0
   -1.4034   -1.1834   -4.4150 H   0  0  0  0  0  0  0  0  0  0  0  0
   -2.6879   -4.2931   -3.3070 H   0  0  0  0  0  0  0  0  0  0  0  0
   -3.6446   -7.0481   -5.4523 H   0  0  0  0  0  0  0  0  0  0  0  0
   -3.5650   -6.5060   -3.8085 H   0  0  0  0  0  0  0  0  0  0  0  0
   -1.5205   -4.0044   -7.9615 H   0  0  0  0  0  0  0  0  0  0  0  0
   -0.5915   -0.1114   -2.3268 H   0  0  0  0  0  0  0  0  0  0  0  0
   -0.2675   -6.1842   -0.9326 H   0  0  0  0  0  0  0  0  0  0  0  0
   -0.3365   -5.4121    0.6394 H   0  0  0  0  0  0  0  0  0  0  0  0
    0.2969   -7.8224    0.8464 H   0  0  0  0  0  0  0  0  0  0  0  0
    1.5800   -6.7843    1.4378 H   0  0  0  0  0  0  0  0  0  0  0  0
    2.4554   -8.6166   -0.0174 H   0  0  0  0  0  0  0  0  0  0  0  0
    1.4825   -8.0264   -1.3612 H   0  0  0  0  0  0  0  0  0  0  0  0
    3.6183   -6.4096    0.1262 H   0  0  0  0  0  0  0  0  0  0  0  0
    3.8463   -7.1717   -1.4361 H   0  0  0  0  0  0  0  0  0  0  0  0
    2.0667   -5.7587   -2.4333 H   0  0  0  0  0  0  0  0  0  0  0  0
    3.2925   -4.7456   -1.6973 H   0  0  0  0  0  0  0  0  0  0  0  0
    2.5635   -4.6411    1.2765 H   0  0  0  0  0  0  0  0  0  0  0  0
  1  2  1  0  0  0  0
  1 26  1  0  0  0  0
  1 27  1  0  0  0  0
  1 28  1  0  0  0  0
  2  3  2  0  0  0  0
  2 16  1  0  0  0  0
  3  4  1  0  0  0  0
  3 24  1  0  0  0  0
  4  5  1  0  0  0  0
  4 17  1  0  0  0  0
  5  6  2  0  0  0  0
  5  7  1  0  0  0  0
  7  8  1  0  0  0  0
  7 16  2  0  0  0  0
  8  9  1  0  0  0  0
  8 29  1  0  0  0  0
  9 10  2  0  0  0  0
  9 15  1  0  0  0  0
 10 11  1  0  0  0  0
 10 30  1  0  0  0  0
 11 12  1  0  0  0  0
 11 13  2  0  0  0  0
 12 31  1  0  0  0  0
 12 32  1  0  0  0  0
 13 14  1  0  0  0  0
 14 15  2  0  0  0  0
 14 33  1  0  0  0  0
 16 34  1  0  0  0  0
 17 18  1  0  0  0  0
 17 22  1  0  0  0  0
 17 23  1  0  0  0  0
 18 19  1  0  0  0  0
 18 35  1  0  0  0  0
 18 36  1  0  0  0  0
 19 20  1  0  0  0  0
 19 37  1  0  0  0  0
 19 38  1  0  0  0  0
 20 21  1  0  0  0  0
 20 39  1  0  0  0  0
 20 40  1  0  0  0  0
 21 22  1  0  0  0  0
 21 41  1  0  0  0  0
 21 42  1  0  0  0  0
 22 43  1  0  0  0  0
 22 44  1  0  0  0  0
 23 24  1  0  0  0  0
 23 45  1  0  0  0  0
 24 25  2  0  0  0  0
M  END
>  <DRUGBANK_ID>
DB15219

>  <COMMON_NAME>
Tomivosertib

>  <CAS_NUMBER>
1849590-01-7

>  <UNII>
U2H19X4WBV

>  <SYNONYMS>
6'-((6-Amino-4-pyrimidinyl)amino)-8'-methyl-2'H-spiro(cyclohexane-1,3'-imidazo(1,5-a)pyridine)-1',5'-dione; Tomivosertib

$$$$
