BB2
 OpenBabel10282417143D

 62 62  0  0  0  0  0  0  0  0999 V2000
    1.0344   -2.0255    1.6349 C   0  0  0  0  0  0  0  0  0  0  0  0
    2.5324   -1.6746    1.8572 C   0  0  0  0  0  0  0  0  0  0  0  0
    3.2195   -1.0058    1.0894 O   0  0  0  0  0  0  0  0  0  0  0  0
    3.0963   -2.0250    3.0524 N   0  0  0  0  0  0  0  0  0  0  0  0
    2.3582   -2.4674    4.1613 O   0  0  0  0  0  0  0  0  0  0  0  0
    0.4227   -1.5087    0.3341 C   0  0  2  0  0  0  0  0  0  0  0  0
    0.9835   -0.1842    0.0101 C   0  0  0  0  0  0  0  0  0  0  0  0
    1.4751    0.0303   -1.1148 O   0  0  0  0  0  0  0  0  0  0  0  0
   -1.1000   -1.3647    0.2801 C   0  0  0  0  0  0  0  0  0  0  0  0
   -1.5753   -0.9200   -1.1223 C   0  0  0  0  0  0  0  0  0  0  0  0
   -1.1354   -1.8937   -2.2234 C   0  0  0  0  0  0  0  0  0  0  0  0
   -1.6203   -3.3173   -1.9486 C   0  0  0  0  0  0  0  0  0  0  0  0
   -3.1387   -3.3686   -1.9048 C   0  0  0  0  0  0  0  0  0  0  0  0
    1.0985    0.7617    0.9576 N   0  0  0  0  0  0  0  0  0  0  0  0
    0.5495    1.1175    2.2903 C   0  0  1  0  0  0  0  0  0  0  0  0
    1.4517    0.7649    3.5208 C   0  0  0  0  0  0  0  0  0  0  0  0
    2.7354    1.5373    3.7578 C   0  0  0  0  0  0  0  0  0  0  0  0
    0.6717    0.7332    4.8284 C   0  0  0  0  0  0  0  0  0  0  0  0
    0.0350    2.5946    2.4310 C   0  0  0  0  0  0  0  0  0  0  0  0
   -1.1459    2.7678    2.7566 O   0  0  0  0  0  0  0  0  0  0  0  0
    0.9580    3.6305    2.4996 N   0  0  0  0  0  0  0  0  0  0  0  0
    2.0652    4.0324    1.6157 C   0  0  1  0  0  0  0  0  0  0  0  0
    0.8586    4.6220    3.5698 C   0  0  0  0  0  0  0  0  0  0  0  0
    2.2112    5.3618    3.5572 C   0  0  0  0  0  0  0  0  0  0  0  0
    3.0933    4.5916    2.5863 C   0  0  0  0  0  0  0  0  0  0  0  0
    2.6964    3.0520    0.6782 C   0  0  0  0  0  0  0  0  0  0  0  0
    1.7746    2.7756   -0.3607 O   0  0  0  0  0  0  0  0  0  0  0  0
    0.7796   -2.2008   -0.4385 H   0  0  0  0  0  0  0  0  0  0  0  0
   -0.3459    0.4940    2.3857 H   0  0  0  0  0  0  0  0  0  0  0  0
    1.6550    4.8446    1.0054 H   0  0  0  0  0  0  0  0  0  0  0  0
    0.4396   -1.6091    2.4529 H   0  0  0  0  0  0  0  0  0  0  0  0
    0.9321   -3.1100    1.6840 H   0  0  0  0  0  0  0  0  0  0  0  0
    3.9363   -1.4924    3.2798 H   0  0  0  0  0  0  0  0  0  0  0  0
    1.4470   -2.6024    3.8562 H   0  0  0  0  0  0  0  0  0  0  0  0
   -1.5638   -2.3119    0.5668 H   0  0  0  0  0  0  0  0  0  0  0  0
   -1.4667   -0.6277    1.0001 H   0  0  0  0  0  0  0  0  0  0  0  0
   -2.6653   -0.8141   -1.1158 H   0  0  0  0  0  0  0  0  0  0  0  0
   -1.2079    0.0861   -1.3625 H   0  0  0  0  0  0  0  0  0  0  0  0
   -1.5097   -1.5476   -3.1932 H   0  0  0  0  0  0  0  0  0  0  0  0
   -0.0438   -1.8953   -2.3240 H   0  0  0  0  0  0  0  0  0  0  0  0
   -1.2424   -3.9896   -2.7246 H   0  0  0  0  0  0  0  0  0  0  0  0
   -1.2112   -3.6961   -1.0046 H   0  0  0  0  0  0  0  0  0  0  0  0
   -3.5508   -3.0293   -2.8597 H   0  0  0  0  0  0  0  0  0  0  0  0
   -3.4850   -4.3834   -1.7042 H   0  0  0  0  0  0  0  0  0  0  0  0
   -3.5481   -2.7300   -1.1154 H   0  0  0  0  0  0  0  0  0  0  0  0
    2.0462    1.0190    0.7573 H   0  0  0  0  0  0  0  0  0  0  0  0
    1.7716   -0.2430    3.4090 H   0  0  0  0  0  0  0  0  0  0  0  0
    2.4803    2.5610    3.9845 H   0  0  0  0  0  0  0  0  0  0  0  0
    3.2846    1.2023    4.6417 H   0  0  0  0  0  0  0  0  0  0  0  0
    3.4447    1.4524    2.9356 H   0  0  0  0  0  0  0  0  0  0  0  0
   -0.1225   -0.0152    4.7736 H   0  0  0  0  0  0  0  0  0  0  0  0
    1.3394    0.4460    5.6496 H   0  0  0  0  0  0  0  0  0  0  0  0
    0.2433    1.7085    5.0629 H   0  0  0  0  0  0  0  0  0  0  0  0
    0.6768    4.1185    4.5267 H   0  0  0  0  0  0  0  0  0  0  0  0
    0.0297    5.3115    3.3801 H   0  0  0  0  0  0  0  0  0  0  0  0
    2.6628    5.4265    4.5516 H   0  0  0  0  0  0  0  0  0  0  0  0
    2.0832    6.3764    3.1706 H   0  0  0  0  0  0  0  0  0  0  0  0
    3.6580    3.8150    3.1127 H   0  0  0  0  0  0  0  0  0  0  0  0
    3.8505    5.1944    2.0831 H   0  0  0  0  0  0  0  0  0  0  0  0
    3.6113    3.3958    0.2032 H   0  0  0  0  0  0  0  0  0  0  0  0
    3.0367    2.1867    1.2339 H   0  0  0  0  0  0  0  0  0  0  0  0
    0.9775    2.3402    0.0077 H   0  0  0  0  0  0  0  0  0  0  0  0
  1  2  1  0  0  0  0
  1 31  1  0  0  0  0
  1 32  1  0  0  0  0
  2  3  2  0  0  0  0
  2  4  1  0  0  0  0
  4  5  1  0  0  0  0
  4 33  1  0  0  0  0
  5 34  1  0  0  0  0
  6  9  1  0  0  0  0
  6 28  1  6  0  0  0
  6  7  1  0  0  0  0
  6  1  1  0  0  0  0
  7  8  2  0  0  0  0
  7 14  1  0  0  0  0
  9 10  1  0  0  0  0
  9 35  1  0  0  0  0
  9 36  1  0  0  0  0
 10 11  1  0  0  0  0
 10 37  1  0  0  0  0
 10 38  1  0  0  0  0
 11 12  1  0  0  0  0
 11 39  1  0  0  0  0
 11 40  1  0  0  0  0
 12 13  1  0  0  0  0
 12 41  1  0  0  0  0
 12 42  1  0  0  0  0
 13 43  1  0  0  0  0
 13 44  1  0  0  0  0
 13 45  1  0  0  0  0
 14 46  1  0  0  0  0
 15 14  1  0  0  0  0
 15 16  1  0  0  0  0
 15 19  1  0  0  0  0
 15 29  1  1  0  0  0
 16 17  1  0  0  0  0
 16 18  1  0  0  0  0
 16 47  1  0  0  0  0
 17 48  1  0  0  0  0
 17 49  1  0  0  0  0
 17 50  1  0  0  0  0
 18 51  1  0  0  0  0
 18 52  1  0  0  0  0
 18 53  1  0  0  0  0
 19 20  2  0  0  0  0
 19 21  1  0  0  0  0
 21 22  1  0  0  0  0
 21 23  1  0  0  0  0
 22 25  1  0  0  0  0
 22 30  1  6  0  0  0
 22 26  1  0  0  0  0
 23 24  1  0  0  0  0
 23 54  1  0  0  0  0
 23 55  1  0  0  0  0
 24 25  1  0  0  0  0
 24 56  1  0  0  0  0
 24 57  1  0  0  0  0
 25 58  1  0  0  0  0
 25 59  1  0  0  0  0
 26 27  1  0  0  0  0
 26 60  1  0  0  0  0
 26 61  1  0  0  0  0
 27 62  1  0  0  0  0
M  END
>  <DRUGBANK_ID>
DB04310

>  <SECONDARY_ACCESSION_NUMBERS>
EXPT00630

>  <COMMON_NAME>
2-[(Formyl-Hydroxy-Amino)-Methyl]-Heptanoic Acid [1-(2-Hydroxymethyl-Pyrrolidine-1-Carbonyl)-2-Methyl-Propyl]-Amide

>  <CAS_NUMBER>
13434-13-4

>  <UNII>
P18SPA8N0K

$$$$
