
 OpenBabel10282417123D

 19 18  0  0  1  0  0  0  0  0999 V2000
    1.0206    0.0544    0.0826 C   0  0  2  0  0  0  0  0  0  0  0  0
    0.4502    1.4552    0.3266 C   0  0  0  0  0  0  0  0  0  0  0  0
    0.3440   -0.5526   -1.1882 C   0  0  1  0  0  0  0  0  0  0  0  0
    0.8953   -0.8117    1.2769 N   0  0  0  0  0  0  0  0  0  0  0  0
   -0.2246    2.1143   -0.4472 O   0  0  0  0  0  0  0  0  0  0  0  0
    0.8159    1.9775    1.5189 O   0  0  0  0  0  0  0  0  0  0  0  0
    0.9166   -1.7928   -1.6129 O   0  0  0  0  0  0  0  0  0  0  0  0
   -1.2175   -3.0405   -0.2581 O   0  0  0  0  0  0  0  0  0  0  0  0
   -1.6663   -1.1192    1.2449 O   0  0  0  0  0  0  0  0  0  0  0  0
   -3.2373   -1.7156   -0.6069 O   0  0  0  0  0  0  0  0  0  0  0  0
   -1.0715   -0.6444   -1.1432 O   0  0  0  0  0  0  0  0  0  0  0  0
   -1.8920   -1.5870   -0.1119 S   0  0  0  0  0  0  0  0  0  0  0  0
    2.0987    0.1645   -0.0962 H   0  0  0  0  0  0  0  0  0  0  0  0
    0.5713    0.1351   -2.0142 H   0  0  0  0  0  0  0  0  0  0  0  0
    1.1710   -0.2949    2.1138 H   0  0  0  0  0  0  0  0  0  0  0  0
   -0.1123   -0.9287    1.4622 H   0  0  0  0  0  0  0  0  0  0  0  0
    0.3974    2.8662    1.5421 H   0  0  0  0  0  0  0  0  0  0  0  0
    1.8609   -1.7806   -1.3753 H   0  0  0  0  0  0  0  0  0  0  0  0
   -1.2861   -3.3199   -1.1930 H   0  0  0  0  0  0  0  0  0  0  0  0
  1  4  1  0  0  0  0
  1 13  1  6  0  0  0
  2  1  1  0  0  0  0
  3  1  1  0  0  0  0
  3  7  1  0  0  0  0
  3 14  1  6  0  0  0
  4 15  1  0  0  0  0
  4 16  1  0  0  0  0
  5  2  2  0  0  0  0
  6  2  1  0  0  0  0
  6 17  1  0  0  0  0
  7 18  1  0  0  0  0
  8 19  1  0  0  0  0
 11  3  1  0  0  0  0
 12  8  1  0  0  0  0
 12  9  2  0  0  0  0
 12 10  2  0  0  0  0
 12 11  1  0  0  0  0
M  END
>  <DRUGBANK_ID>
DB02735

>  <SECONDARY_ACCESSION_NUMBERS>
EXPT00503

>  <COMMON_NAME>
2-Amino-3-Oxo-4-Sulfo-Butyric Acid

$$$$
