302
 OpenBabel10282417163D

 39 40  0  0  0  0  0  0  0  0999 V2000
   -2.8361   -7.9231   -3.5857 C   0  0  0  0  0  0  0  0  0  0  0  0
   -0.5868   -8.9020   -3.4687 C   0  0  0  0  0  0  0  0  0  0  0  0
   -2.5177  -10.3674   -3.7011 C   0  0  0  0  0  0  0  0  0  0  0  0
   -3.4009   -9.1444   -3.5573 C   0  0  0  0  0  0  0  0  0  0  0  0
   -1.4427   -7.8315   -3.6609 N   0  0  0  0  0  0  0  0  0  0  0  0
   -1.1574  -10.1406   -3.5781 N   0  0  0  0  0  0  0  0  0  0  0  0
   -0.7286  -12.6936   -0.4615 O   0  0  0  0  0  0  0  0  0  0  0  0
   -1.7357  -11.8179   -0.7148 C   0  0  0  0  0  0  0  0  0  0  0  0
   -2.7572  -12.2132   -1.2035 O   0  0  0  0  0  0  0  0  0  0  0  0
   -1.3698  -10.3440   -0.3306 C   0  0  0  0  0  0  0  0  0  0  0  0
   -2.1504   -9.2786   -0.7396 C   0  0  0  0  0  0  0  0  0  0  0  0
   -1.8965   -7.8862   -0.6266 C   0  0  0  0  0  0  0  0  0  0  0  0
   -0.1412   -9.8771    0.0912 C   0  0  0  0  0  0  0  0  0  0  0  0
    0.1952   -8.4606    0.1682 C   0  0  0  0  0  0  0  0  0  0  0  0
   -0.6661   -7.4455   -0.2436 C   0  0  0  0  0  0  0  0  0  0  0  0
   -0.3622   -6.0143   -0.6512 C   0  0  0  0  0  0  0  0  0  0  0  0
   -1.3311   -5.1415   -0.6441 N   0  0  0  0  0  0  0  0  0  0  0  0
   -0.9913   -3.9082   -1.2384 O   0  0  0  0  0  0  0  0  0  0  0  0
   -2.1569   -3.0471   -1.2154 C   0  0  0  0  0  0  0  0  0  0  0  0
   -3.0857   -3.2396   -2.4292 C   0  0  0  0  0  0  0  0  0  0  0  0
   -3.8082   -4.4999   -2.4188 O   0  0  0  0  0  0  0  0  0  0  0  0
   -3.0478   -5.4796   -3.1198 N   0  0  0  0  0  0  0  0  0  0  0  0
   -3.6005   -6.6601   -3.0989 C   0  0  0  0  0  0  0  0  0  0  0  0
   -3.0054  -11.4814   -3.7266 O   0  0  0  0  0  0  0  0  0  0  0  0
    0.5752   -8.7592   -3.0863 O   0  0  0  0  0  0  0  0  0  0  0  0
   -4.3649   -9.3294   -3.0749 H   0  0  0  0  0  0  0  0  0  0  0  0
   -1.0358   -6.9298   -3.4223 H   0  0  0  0  0  0  0  0  0  0  0  0
   -0.5874  -10.9184   -3.2536 H   0  0  0  0  0  0  0  0  0  0  0  0
   -0.1012  -12.3951    0.2069 H   0  0  0  0  0  0  0  0  0  0  0  0
   -2.4630   -9.4671   -1.7274 H   0  0  0  0  0  0  0  0  0  0  0  0
   -2.4364   -7.1767   -1.2389 H   0  0  0  0  0  0  0  0  0  0  0  0
    0.6565  -10.5855    0.2533 H   0  0  0  0  0  0  0  0  0  0  0  0
    1.1712   -8.1941    0.5418 H   0  0  0  0  0  0  0  0  0  0  0  0
    0.6434   -5.7683   -1.0415 H   0  0  0  0  0  0  0  0  0  0  0  0
   -1.7856   -2.0106   -1.2208 H   0  0  0  0  0  0  0  0  0  0  0  0
   -2.7077   -3.1760   -0.2753 H   0  0  0  0  0  0  0  0  0  0  0  0
   -2.5279   -3.1388   -3.3666 H   0  0  0  0  0  0  0  0  0  0  0  0
   -3.8324   -2.4286   -2.4196 H   0  0  0  0  0  0  0  0  0  0  0  0
   -4.5770   -6.8376   -2.5913 H   0  0  0  0  0  0  0  0  0  0  0  0
  1  4  2  0  0  0  0
  1  5  1  0  0  0  0
  1 23  1  0  0  0  0
  2  6  1  0  0  0  0
  2 25  2  0  0  0  0
  2  5  1  0  0  0  0
  3 24  2  0  0  0  0
  3  6  1  0  0  0  0
  3  4  1  0  0  0  0
  4 26  1  0  0  0  0
  5 27  1  0  0  0  0
  6 28  1  0  0  0  0
  7  8  1  0  0  0  0
  7 29  1  0  0  0  0
  8  9  2  0  0  0  0
  8 10  1  0  0  0  0
 10 11  1  0  0  0  0
 10 13  2  0  0  0  0
 11 12  2  0  0  0  0
 11 30  1  0  0  0  0
 12 15  1  0  0  0  0
 12 31  1  0  0  0  0
 13 14  1  0  0  0  0
 13 32  1  0  0  0  0
 14 15  2  0  0  0  0
 14 33  1  0  0  0  0
 15 16  1  0  0  0  0
 16 17  2  0  0  0  0
 16 34  1  0  0  0  0
 17 18  1  0  0  0  0
 18 19  1  0  0  0  0
 19 20  1  0  0  0  0
 19 35  1  0  0  0  0
 19 36  1  0  0  0  0
 20 21  1  0  0  0  0
 20 37  1  0  0  0  0
 20 38  1  0  0  0  0
 21 22  1  0  0  0  0
 22 23  2  0  0  0  0
 23 39  1  0  0  0  0
M  END
>  <DRUGBANK_ID>
DB06990

>  <COMMON_NAME>
4-[(1E,7E)-8-(2,6-DIOXO-1,2,3,6-TETRAHYDROPYRIMIDIN-4-YL)-3,6-DIOXA-2,7-DIAZAOCTA-1,7-DIEN-1-YL]BENZOIC ACID

$$$$
