AD7
 OpenBabel10282417163D

 68 69  0  0  0  0  0  0  0  0999 V2000
    1.4816    1.7753    6.6002 C   0  0  0  0  0  0  0  0  0  0  0  0
    3.1494    1.7145    6.1444 C   0  0  0  0  0  0  0  0  0  0  0  0
    3.3979    2.0909    4.3832 C   0  0  0  0  0  0  0  0  0  0  0  0
    3.0778    4.0239    4.0809 C   0  0  0  0  0  0  0  0  0  0  0  0
    3.6601    5.4893    5.4129 C   0  0  0  0  0  0  0  0  0  0  0  0
    4.9147    6.3371    5.0220 C   0  0  0  0  0  0  0  0  0  0  0  0
    4.8093    6.7638    3.7192 O   0  0  0  0  0  0  0  0  0  0  0  0
    4.2451    5.7099    2.9892 C   0  0  2  0  0  0  0  0  0  0  0  0
    2.6061    6.0456    3.1950 O   0  0  0  0  0  0  0  0  0  0  0  0
    1.6408    5.3704    4.5189 C   0  0  2  0  0  0  0  0  0  0  0  0
    1.5340    6.6224    5.2290 C   0  0  0  0  0  0  0  0  0  0  0  0
    1.2329    7.8071    4.5871 O   0  0  0  0  0  0  0  0  0  0  0  0
    2.4738    3.8741    5.6037 C   0  0  2  0  0  0  0  0  0  0  0  0
    2.2527    4.2146    6.9683 O   0  0  0  0  0  0  0  0  0  0  0  0
    4.4676    3.5264    5.2562 C   0  0  2  0  0  0  0  0  0  0  0  0
    5.3385    3.9803    6.3254 N   0  0  0  0  0  0  0  0  0  0  0  0
    4.9308    4.0035    3.3715 C   0  0  1  0  0  0  0  0  0  0  0  0
    4.3233    2.9780    2.1300 O   0  0  0  0  0  0  0  0  0  0  0  0
    2.8366    2.8007    1.8094 C   0  0  1  0  0  0  0  0  0  0  0  0
    2.1290    4.0440    1.3147 C   0  0  0  0  0  0  0  0  0  0  0  0
    2.3481    1.6600    1.1046 O   0  0  0  0  0  0  0  0  0  0  0  0
    0.8718    1.6333    1.1536 C   0  0  1  0  0  0  0  0  0  0  0  0
    0.3178    1.2289    2.5467 C   0  0  0  0  0  0  0  0  0  0  0  0
    0.2288    2.9591    0.6275 C   0  0  1  0  0  0  0  0  0  0  0  0
   -1.1825    2.8818    0.5807 O   0  0  0  0  0  0  0  0  0  0  0  0
    0.6163    4.0922    1.5096 C   0  0  1  0  0  0  0  0  0  0  0  0
   -0.1430    3.9392    2.7227 O   0  0  0  0  0  0  0  0  0  0  0  0
    0.3721    3.1759    6.5250 C   0  0  0  0  0  0  0  0  0  0  0  0
    4.4175    5.7742    1.8973 H   0  0  0  0  0  0  0  0  0  0  0  0
    0.6269    5.2629    4.0765 H   0  0  0  0  0  0  0  0  0  0  0  0
    1.7827    2.8830    5.0298 H   0  0  0  0  0  0  0  0  0  0  0  0
    5.0189    2.5475    5.3981 H   0  0  0  0  0  0  0  0  0  0  0  0
    5.9953    3.9190    3.2391 H   0  0  0  0  0  0  0  0  0  0  0  0
    2.3448    2.5673    2.7128 H   0  0  0  0  0  0  0  0  0  0  0  0
    0.5704    0.8611    0.4533 H   0  0  0  0  0  0  0  0  0  0  0  0
    0.6468    3.2143   -0.3490 H   0  0  0  0  0  0  0  0  0  0  0  0
    0.3127    5.1032    1.2306 H   0  0  0  0  0  0  0  0  0  0  0  0
   -1.0529    2.9729    6.6535 C   0  0  0  0  0  0  0  0  0  0  0  0
    1.4686    1.4830    7.6435 H   0  0  0  0  0  0  0  0  0  0  0  0
    1.0870    1.0992    5.8448 H   0  0  0  0  0  0  0  0  0  0  0  0
    3.6904    2.3841    6.8646 H   0  0  0  0  0  0  0  0  0  0  0  0
    3.7769    0.8409    6.3665 H   0  0  0  0  0  0  0  0  0  0  0  0
    4.4399    1.8411    3.9959 H   0  0  0  0  0  0  0  0  0  0  0  0
    2.8512    1.3540    3.8168 H   0  0  0  0  0  0  0  0  0  0  0  0
    3.0550    4.3113    3.0438 H   0  0  0  0  0  0  0  0  0  0  0  0
    2.0064    3.8214    3.7948 H   0  0  0  0  0  0  0  0  0  0  0  0
    3.2093    6.3547    6.1901 H   0  0  0  0  0  0  0  0  0  0  0  0
    3.7057    5.2120    6.6160 H   0  0  0  0  0  0  0  0  0  0  0  0
    5.1555    7.0049    5.8667 H   0  0  0  0  0  0  0  0  0  0  0  0
    5.8218    5.7492    4.9097 H   0  0  0  0  0  0  0  0  0  0  0  0
    1.2845    6.3040    6.2404 H   0  0  0  0  0  0  0  0  0  0  0  0
    2.5317    6.8614    4.9812 H   0  0  0  0  0  0  0  0  0  0  0  0
    1.9378    7.8113    3.8749 H   0  0  0  0  0  0  0  0  0  0  0  0
    2.7620    3.6101    7.4883 H   0  0  0  0  0  0  0  0  0  0  0  0
    6.2859    4.2145    6.0848 H   0  0  0  0  0  0  0  0  0  0  0  0
    5.1076    4.7588    5.8245 H   0  0  0  0  0  0  0  0  0  0  0  0
    2.3804    4.9381    1.7682 H   0  0  0  0  0  0  0  0  0  0  0  0
    2.5940    4.3552    0.3904 H   0  0  0  0  0  0  0  0  0  0  0  0
   -0.7706    1.3401    2.6225 H   0  0  0  0  0  0  0  0  0  0  0  0
    0.6565    0.2558    2.8879 H   0  0  0  0  0  0  0  0  0  0  0  0
    0.7156    1.8273    3.3530 H   0  0  0  0  0  0  0  0  0  0  0  0
   -1.4761    2.8632    1.5144 H   0  0  0  0  0  0  0  0  0  0  0  0
    0.2403    3.4103    3.4292 H   0  0  0  0  0  0  0  0  0  0  0  0
    0.4916    4.0045    7.2683 H   0  0  0  0  0  0  0  0  0  0  0  0
    0.3421    3.6556    5.5360 H   0  0  0  0  0  0  0  0  0  0  0  0
   -1.1154    2.6483    7.6815 H   0  0  0  0  0  0  0  0  0  0  0  0
   -1.4792    3.9802    6.4696 H   0  0  0  0  0  0  0  0  0  0  0  0
   -1.2562    2.2890    5.8412 H   0  0  0  0  0  0  0  0  0  0  0  0
  1  2  1  0  0  0  0
  1 28  1  0  0  0  0
  1 39  1  0  0  0  0
  1 40  1  0  0  0  0
  2  3  1  0  0  0  0
  2 41  1  0  0  0  0
  2 42  1  0  0  0  0
  3  4  1  0  0  0  0
  3 43  1  0  0  0  0
  3 44  1  0  0  0  0
  4  5  1  0  0  0  0
  4 45  1  0  0  0  0
  4 46  1  0  0  0  0
  5  6  1  0  0  0  0
  5 47  1  0  0  0  0
  5 48  1  0  0  0  0
  6  7  1  0  0  0  0
  6 49  1  0  0  0  0
  6 50  1  0  0  0  0
  8  7  1  0  0  0  0
  8  9  1  0  0  0  0
  8 17  1  0  0  0  0
  8 29  1  6  0  0  0
  9 10  1  0  0  0  0
 10 11  1  0  0  0  0
 10 13  1  0  0  0  0
 10 30  1  6  0  0  0
 11 12  1  0  0  0  0
 11 51  1  0  0  0  0
 11 52  1  0  0  0  0
 12 53  1  0  0  0  0
 13 14  1  0  0  0  0
 13 15  1  0  0  0  0
 13 31  1  6  0  0  0
 14 54  1  0  0  0  0
 15 16  1  0  0  0  0
 15 17  1  0  0  0  0
 15 32  1  1  0  0  0
 16 55  1  0  0  0  0
 16 56  1  0  0  0  0
 17 18  1  0  0  0  0
 17 33  1  6  0  0  0
 19 20  1  0  0  0  0
 19 21  1  0  0  0  0
 19 34  1  1  0  0  0
 19 18  1  0  0  0  0
 20 26  1  0  0  0  0
 20 57  1  0  0  0  0
 20 58  1  0  0  0  0
 21 22  1  0  0  0  0
 22 23  1  0  0  0  0
 22 24  1  0  0  0  0
 22 35  1  6  0  0  0
 23 59  1  0  0  0  0
 23 60  1  0  0  0  0
 23 61  1  0  0  0  0
 24 25  1  0  0  0  0
 24 26  1  0  0  0  0
 24 36  1  6  0  0  0
 25 62  1  0  0  0  0
 26 27  1  0  0  0  0
 26 37  1  6  0  0  0
 27 63  1  0  0  0  0
 28 38  1  0  0  0  0
 28 64  1  0  0  0  0
 28 65  1  0  0  0  0
 38 66  1  0  0  0  0
 38 67  1  0  0  0  0
 38 68  1  0  0  0  0
M  END
>  <DRUGBANK_ID>
DB07341

>  <COMMON_NAME>
octyl 3-amino-3-deoxy-2-O-(2,6-dideoxy-alpha-L-lyxo-hexopyranosyl)-beta-D-galactopyranoside

$$$$
