C94
 OpenBabel10282417163D

 37 39  0  0  0  0  0  0  0  0999 V2000
    1.1351    0.0602   -0.0489 O   0  0  0  0  0  0  0  0  0  0  0  0
    2.5371   -0.2680    0.0197 S   0  0  0  0  0  0  0  0  0  0  0  0
    3.0034   -1.6344   -0.0978 O   0  0  0  0  0  0  0  0  0  0  0  0
    3.3059    0.5224   -1.2341 N   0  0  0  0  0  0  0  0  0  0  0  0
    3.1195    0.3603    1.6014 C   0  0  0  0  0  0  0  0  0  0  0  0
    3.0746    1.7105    1.9754 C   0  0  0  0  0  0  0  0  0  0  0  0
    2.7622    2.8640    1.0601 C   0  0  0  0  0  0  0  0  0  0  0  0
    1.7530    3.6463    1.5278 F   0  0  0  0  0  0  0  0  0  0  0  0
    3.8463    3.6857    0.9490 F   0  0  0  0  0  0  0  0  0  0  0  0
    2.4275    2.5576   -0.2143 F   0  0  0  0  0  0  0  0  0  0  0  0
    3.3783    2.0502    3.3304 C   0  0  0  0  0  0  0  0  0  0  0  0
    3.7090    1.0948    4.3072 C   0  0  0  0  0  0  0  0  0  0  0  0
    3.6923   -0.2436    3.9215 C   0  0  0  0  0  0  0  0  0  0  0  0
    3.4412   -0.6042    2.5822 C   0  0  0  0  0  0  0  0  0  0  0  0
    3.9551    1.5042    5.6924 C   0  0  0  0  0  0  0  0  0  0  0  0
    5.1236    1.1164    6.3042 O   0  0  0  0  0  0  0  0  0  0  0  0
    3.2167    2.2707    6.5631 C   0  0  0  0  0  0  0  0  0  0  0  0
    3.9487    2.3372    7.7658 C   0  0  0  0  0  0  0  0  0  0  0  0
    5.1212    1.6058    7.6084 C   0  0  0  0  0  0  0  0  0  0  0  0
    6.1499    1.3887    8.5803 C   0  0  0  0  0  0  0  0  0  0  0  0
    5.9165    0.8052    9.7683 C   0  0  0  0  0  0  0  0  0  0  0  0
    4.4383    0.1017   10.3371 S   0  0  0  0  0  0  0  0  0  0  0  0
    5.1904   -0.5010   11.7751 C   0  0  0  0  0  0  0  0  0  0  0  0
    4.6096   -1.2753   12.6101 N   0  0  0  0  0  0  0  0  0  0  0  0
    6.4620   -0.0628   11.8852 N   0  0  0  0  0  0  0  0  0  0  0  0
    6.9704    0.6236   10.8139 C   0  0  0  0  0  0  0  0  0  0  0  0
    8.1269    1.0049   10.7290 O   0  0  0  0  0  0  0  0  0  0  0  0
    4.1199    1.0981   -1.0489 H   0  0  0  0  0  0  0  0  0  0  0  0
    2.6453    0.9117   -1.9138 H   0  0  0  0  0  0  0  0  0  0  0  0
    3.3341    3.1016    3.6267 H   0  0  0  0  0  0  0  0  0  0  0  0
    3.8200   -1.0246    4.6705 H   0  0  0  0  0  0  0  0  0  0  0  0
    3.4585   -1.6645    2.3251 H   0  0  0  0  0  0  0  0  0  0  0  0
    2.2512    2.7077    6.3575 H   0  0  0  0  0  0  0  0  0  0  0  0
    3.6531    2.8459    8.6735 H   0  0  0  0  0  0  0  0  0  0  0  0
    7.1496    1.7477    8.3437 H   0  0  0  0  0  0  0  0  0  0  0  0
    5.2356   -1.5418   13.3707 H   0  0  0  0  0  0  0  0  0  0  0  0
    7.0600   -0.2857   12.6638 H   0  0  0  0  0  0  0  0  0  0  0  0
  1  2  2  0  0  0  0
  2  3  2  0  0  0  0
  2  4  1  0  0  0  0
  2  5  1  0  0  0  0
  4 28  1  0  0  0  0
  4 29  1  0  0  0  0
  5  6  1  0  0  0  0
  5 14  2  0  0  0  0
  6  7  1  0  0  0  0
  6 11  2  0  0  0  0
  7  8  1  0  0  0  0
  7  9  1  0  0  0  0
  7 10  1  0  0  0  0
 11 12  1  0  0  0  0
 11 30  1  0  0  0  0
 12 13  2  0  0  0  0
 12 15  1  0  0  0  0
 13 14  1  0  0  0  0
 13 31  1  0  0  0  0
 14 32  1  0  0  0  0
 15 16  1  0  0  0  0
 15 17  2  0  0  0  0
 16 19  1  0  0  0  0
 17 18  1  0  0  0  0
 17 33  1  0  0  0  0
 18 19  2  0  0  0  0
 18 34  1  0  0  0  0
 19 20  1  0  0  0  0
 20 21  2  0  0  0  0
 20 35  1  0  0  0  0
 21 22  1  0  0  0  0
 21 26  1  0  0  0  0
 22 23  1  0  0  0  0
 23 24  2  0  0  0  0
 23 25  1  0  0  0  0
 24 36  1  0  0  0  0
 25 26  1  0  0  0  0
 25 37  1  0  0  0  0
 26 27  2  0  0  0  0
M  END
>  <DRUGBANK_ID>
DB07538

>  <COMMON_NAME>
4-{5-[(Z)-(2-IMINO-4-OXO-1,3-THIAZOLIDIN-5-YLIDENE)METHYL]FURAN-2-YL}-2-(TRIFLUOROMETHYL)BENZENESULFONAMIDE

$$$$
