
 OpenBabel10282417173D

 38 40  0  0  0  0  0  0  0  0999 V2000
    0.9078   -0.0521   -0.0846 S   0  0  0  0  0  0  0  0  0  0  0  0
    5.6856   -1.1254   -2.2370 O   0  0  0  0  0  0  0  0  0  0  0  0
    0.5277   -0.6229   -1.3578 O   0  0  0  0  0  0  0  0  0  0  0  0
    0.4279   -0.6158    1.1595 O   0  0  0  0  0  0  0  0  0  0  0  0
    6.1352   -3.3672   -2.3471 N   0  0  0  0  0  0  0  0  0  0  0  0
    6.8900   -0.0932    0.4096 N   0  0  0  0  0  0  0  0  0  0  0  0
    0.3902    1.5594   -0.0978 N   0  0  0  0  0  0  0  0  0  0  0  0
    7.8503   -3.6215   -0.8314 C   0  0  0  0  0  0  0  0  0  0  0  0
    7.3350   -2.2413   -0.7392 C   0  0  0  0  0  0  0  0  0  0  0  0
    7.0847   -4.2330   -1.8378 C   0  0  0  0  0  0  0  0  0  0  0  0
    6.2792   -2.1119   -1.8231 C   0  0  0  0  0  0  0  0  0  0  0  0
    2.6749    0.0069    0.0267 C   0  0  0  0  0  0  0  0  0  0  0  0
    7.6184   -1.2479    0.1257 C   0  0  0  0  0  0  0  0  0  0  0  0
    5.4754   -0.0238    0.3580 C   0  0  0  0  0  0  0  0  0  0  0  0
    8.7984   -4.3777   -0.1642 C   0  0  0  0  0  0  0  0  0  0  0  0
    7.2772   -5.5222   -2.2816 C   0  0  0  0  0  0  0  0  0  0  0  0
    3.4019    1.1982    0.1392 C   0  0  0  0  0  0  0  0  0  0  0  0
    3.3382   -1.2038    0.1200 C   0  0  0  0  0  0  0  0  0  0  0  0
    4.8012    1.1874    0.2338 C   0  0  0  0  0  0  0  0  0  0  0  0
    4.6931   -1.1944    0.4317 C   0  0  0  0  0  0  0  0  0  0  0  0
    9.0087   -5.7042   -0.5922 C   0  0  0  0  0  0  0  0  0  0  0  0
    8.2729   -6.2603   -1.6571 C   0  0  0  0  0  0  0  0  0  0  0  0
    0.7212    2.3529   -1.2857 C   0  0  0  0  0  0  0  0  0  0  0  0
    8.4588   -1.3219    0.8122 H   0  0  0  0  0  0  0  0  0  0  0  0
    5.4701   -3.5579   -3.0782 H   0  0  0  0  0  0  0  0  0  0  0  0
    7.3785    0.7797    0.2212 H   0  0  0  0  0  0  0  0  0  0  0  0
   -0.6054    1.5654    0.1368 H   0  0  0  0  0  0  0  0  0  0  0  0
    9.3730   -3.9826    0.6670 H   0  0  0  0  0  0  0  0  0  0  0  0
    6.6906   -5.9270   -3.0978 H   0  0  0  0  0  0  0  0  0  0  0  0
    2.9107    2.1608    0.1630 H   0  0  0  0  0  0  0  0  0  0  0  0
    2.8303   -2.1525   -0.0321 H   0  0  0  0  0  0  0  0  0  0  0  0
    5.3318    2.1350    0.2145 H   0  0  0  0  0  0  0  0  0  0  0  0
    5.1631   -2.1526    0.6223 H   0  0  0  0  0  0  0  0  0  0  0  0
    9.7582   -6.3225   -0.1007 H   0  0  0  0  0  0  0  0  0  0  0  0
    8.4754   -7.2737   -1.9961 H   0  0  0  0  0  0  0  0  0  0  0  0
    0.2920    1.9114   -2.1833 H   0  0  0  0  0  0  0  0  0  0  0  0
    0.3279    3.3635   -1.1504 H   0  0  0  0  0  0  0  0  0  0  0  0
    1.7948    2.4557   -1.4344 H   0  0  0  0  0  0  0  0  0  0  0  0
  1  3  2  0  0  0  0
  1  4  2  0  0  0  0
  1  7  1  0  0  0  0
  1 12  1  0  0  0  0
  2 11  2  0  0  0  0
  5 10  1  0  0  0  0
  5 11  1  0  0  0  0
  5 25  1  0  0  0  0
  6 14  1  0  0  0  0
  6 13  1  0  0  0  0
  6 26  1  0  0  0  0
  7 23  1  0  0  0  0
  7 27  1  0  0  0  0
  8  9  1  0  0  0  0
  8 10  1  0  0  0  0
  8 15  2  0  0  0  0
  9 11  1  0  0  0  0
  9 13  2  0  0  0  0
 10 16  2  0  0  0  0
 12 17  2  0  0  0  0
 12 18  1  0  0  0  0
 13 24  1  0  0  0  0
 14 19  2  0  0  0  0
 14 20  1  0  0  0  0
 15 21  1  0  0  0  0
 15 28  1  0  0  0  0
 16 22  1  0  0  0  0
 16 29  1  0  0  0  0
 17 19  1  0  0  0  0
 17 30  1  0  0  0  0
 18 20  2  0  0  0  0
 18 31  1  0  0  0  0
 19 32  1  0  0  0  0
 20 33  1  0  0  0  0
 21 22  2  0  0  0  0
 21 34  1  0  0  0  0
 22 35  1  0  0  0  0
 23 36  1  0  0  0  0
 23 37  1  0  0  0  0
 23 38  1  0  0  0  0
M  END
>  <DRUGBANK_ID>
DB08122

>  <COMMON_NAME>
N-Methyl-4-{[(2-oxo-1,2-dihydro-3H-indol-3-ylidene)methyl]amino}benzenesulfonamide

$$$$
