
 OpenBabel10282417133D

 42 45  0  0  0  0  0  0  0  0999 V2000
    0.7367    0.1986   -0.0668 N   0  0  0  0  0  0  0  0  0  0  0  0
    0.0908    1.1333   -0.8494 C   0  0  0  0  0  0  0  0  0  0  0  0
    0.5691    1.1795   -2.1267 N   0  0  0  0  0  0  0  0  0  0  0  0
   -0.0302    2.0009   -3.0057 C   0  0  0  0  0  0  0  0  0  0  0  0
    0.4024    2.0172   -4.3030 O   0  0  0  0  0  0  0  0  0  0  0  0
   -1.0476    2.8286   -2.5532 C   0  0  0  0  0  0  0  0  0  0  0  0
   -1.7897    3.7170   -3.2186 N   0  0  0  0  0  0  0  0  0  0  0  0
   -2.5084    4.3199   -2.2481 N   0  0  0  0  0  0  0  0  0  0  0  0
   -2.3631    3.7939   -0.9829 N   0  0  0  0  0  0  0  0  0  0  0  0
   -1.4550    2.8031   -1.1856 C   0  0  0  0  0  0  0  0  0  0  0  0
   -0.9173    1.8899   -0.3032 N   0  0  0  0  0  0  0  0  0  0  0  0
   -3.4459    5.3239   -2.6920 C   0  0  0  0  0  0  0  0  0  0  0  0
   -4.2058    4.9902   -3.8344 C   0  0  0  0  0  0  0  0  0  0  0  0
   -5.0460    5.9102   -4.4226 C   0  0  0  0  0  0  0  0  0  0  0  0
   -5.1064    7.1911   -3.9133 C   0  0  0  0  0  0  0  0  0  0  0  0
   -4.3512    7.6282   -2.8264 C   0  0  0  0  0  0  0  0  0  0  0  0
   -3.5042    6.6572   -2.1995 C   0  0  0  0  0  0  0  0  0  0  0  0
   -4.3977    9.0625   -2.3203 C   0  0  0  0  0  0  0  0  0  0  0  0
   -3.6625    9.3844   -1.4013 O   0  0  0  0  0  0  0  0  0  0  0  0
   -5.2302   10.0539   -2.8287 N   0  0  0  0  0  0  0  0  0  0  0  0
   -6.1847   10.1352   -3.9146 C   0  0  0  0  0  0  0  0  0  0  0  0
   -7.6075   10.2034   -3.4495 C   0  0  0  0  0  0  0  0  0  0  0  0
   -8.1837   11.4611   -3.2681 C   0  0  0  0  0  0  0  0  0  0  0  0
   -9.5151   11.5684   -2.8832 C   0  0  0  0  0  0  0  0  0  0  0  0
  -10.1943   13.1325   -2.6740 Cl  0  0  0  0  0  0  0  0  0  0  0  0
  -10.2919   10.4309   -2.6760 C   0  0  0  0  0  0  0  0  0  0  0  0
   -9.7244    9.1730   -2.8569 C   0  0  0  0  0  0  0  0  0  0  0  0
  -10.6838    7.7620   -2.6227 Cl  0  0  0  0  0  0  0  0  0  0  0  0
   -8.3871    9.0508   -3.2370 C   0  0  0  0  0  0  0  0  0  0  0  0
    0.3010   -0.2086    0.7427 H   0  0  0  0  0  0  0  0  0  0  0  0
    1.7188    0.0371   -0.2427 H   0  0  0  0  0  0  0  0  0  0  0  0
    1.0979    1.3450   -4.3357 H   0  0  0  0  0  0  0  0  0  0  0  0
   -4.1664    4.0048   -4.2912 H   0  0  0  0  0  0  0  0  0  0  0  0
   -5.6660    5.6746   -5.2852 H   0  0  0  0  0  0  0  0  0  0  0  0
   -5.8032    7.7633   -4.4737 H   0  0  0  0  0  0  0  0  0  0  0  0
   -2.8453    6.9783   -1.3938 H   0  0  0  0  0  0  0  0  0  0  0  0
   -5.1139   10.9215   -2.3110 H   0  0  0  0  0  0  0  0  0  0  0  0
   -5.9189   10.9865   -4.5510 H   0  0  0  0  0  0  0  0  0  0  0  0
   -6.1325    9.3432   -4.6268 H   0  0  0  0  0  0  0  0  0  0  0  0
   -7.5874   12.3529   -3.4479 H   0  0  0  0  0  0  0  0  0  0  0  0
  -11.3304   10.5252   -2.3758 H   0  0  0  0  0  0  0  0  0  0  0  0
   -7.9699    8.0559   -3.3813 H   0  0  0  0  0  0  0  0  0  0  0  0
  1 30  1  0  0  0  0
  1 31  1  0  0  0  0
  2  1  1  0  0  0  0
  2  3  1  0  0  0  0
  2 11  2  0  0  0  0
  4  3  2  0  0  0  0
  4  5  1  0  0  0  0
  4  6  1  0  0  0  0
  5 32  1  0  0  0  0
  6  7  2  0  0  0  0
  7  8  1  0  0  0  0
  8  9  1  0  0  0  0
 10  6  1  0  0  0  0
 10  9  2  0  0  0  0
 10 11  1  0  0  0  0
 12  8  1  0  0  0  0
 12 13  1  0  0  0  0
 12 17  2  0  0  0  0
 13 14  2  0  0  0  0
 13 33  1  0  0  0  0
 14 15  1  0  0  0  0
 14 34  1  0  0  0  0
 15 16  2  0  0  0  0
 15 35  1  0  0  0  0
 16 17  1  0  0  0  0
 16 18  1  0  0  0  0
 17 36  1  0  0  0  0
 18 19  2  0  0  0  0
 18 20  1  0  0  0  0
 20 37  1  0  0  0  0
 21 20  1  0  0  0  0
 21 22  1  0  0  0  0
 21 38  1  0  0  0  0
 21 39  1  0  0  0  0
 22 23  1  0  0  0  0
 22 29  2  0  0  0  0
 23 24  2  0  0  0  0
 23 40  1  0  0  0  0
 24 25  1  0  0  0  0
 24 26  1  0  0  0  0
 26 27  2  0  0  0  0
 26 41  1  0  0  0  0
 27 28  1  0  0  0  0
 27 29  1  0  0  0  0
 29 42  1  0  0  0  0
M  END
>  <DRUGBANK_ID>
DB03571

>  <SECONDARY_ACCESSION_NUMBERS>
EXPT00198

>  <COMMON_NAME>
3-(5-amino-7-hydroxy-[1,2,3]triazolo[4,5-d]pyrimidin-2-yl)-N-(3,5-dichlorobenzyl)-benzamide

$$$$
