
 OpenBabel10282417193D

 50 53  0  0  0  0  0  0  0  0999 V2000
    0.9637    0.0807    0.1115 C   0  0  0  0  0  0  0  0  0  0  0  0
    0.4614    0.5901    1.3481 O   0  0  0  0  0  0  0  0  0  0  0  0
    0.8792   -0.1271    2.4368 C   0  0  0  0  0  0  0  0  0  0  0  0
    2.2090   -0.4876    2.6442 C   0  0  0  0  0  0  0  0  0  0  0  0
    2.5705   -1.2354    3.7642 C   0  0  0  0  0  0  0  0  0  0  0  0
    1.6089   -1.6212    4.6991 C   0  0  0  0  0  0  0  0  0  0  0  0
    1.9715   -2.3630    5.8317 C   0  0  0  0  0  0  0  0  0  0  0  0
    1.0061   -2.7768    6.7403 C   0  0  0  0  0  0  0  0  0  0  0  0
   -0.3390   -2.5012    6.4716 C   0  0  0  0  0  0  0  0  0  0  0  0
   -0.7007   -1.6660    5.4144 C   0  0  0  0  0  0  0  0  0  0  0  0
    0.2621   -1.2357    4.5023 C   0  0  0  0  0  0  0  0  0  0  0  0
   -0.0863   -0.4611    3.3851 C   0  0  0  0  0  0  0  0  0  0  0  0
    1.5096   -3.2784    7.9181 O   0  0  0  0  0  0  0  0  0  0  0  0
    0.5627   -3.6882    8.9089 C   0  0  0  0  0  0  0  0  0  0  0  0
   -0.2396   -2.5284    9.5615 C   0  0  0  0  0  0  0  0  0  0  0  0
   -0.0887   -1.0982    8.9088 C   0  0  0  0  0  0  0  0  0  0  0  0
   -0.1049   -0.5656   10.2371 N   0  0  0  0  0  0  0  0  0  0  0  0
    0.3770   -1.8187   10.8219 C   0  0  0  0  0  0  0  0  0  0  0  0
   -0.3245    0.7021   10.7160 C   0  0  0  0  0  0  0  0  0  0  0  0
   -0.2224    1.0034   11.9050 O   0  0  0  0  0  0  0  0  0  0  0  0
   -0.6596    1.7804    9.7201 C   0  0  0  0  0  0  0  0  0  0  0  0
   -1.8086    1.7241    8.9134 C   0  0  0  0  0  0  0  0  0  0  0  0
   -2.0523    2.7212    7.9539 C   0  0  0  0  0  0  0  0  0  0  0  0
   -1.1666    3.7852    7.8205 C   0  0  0  0  0  0  0  0  0  0  0  0
   -0.0574    3.8893    8.6510 C   0  0  0  0  0  0  0  0  0  0  0  0
    0.1908    2.8933    9.6083 C   0  0  0  0  0  0  0  0  0  0  0  0
   -1.3870    4.7205    6.8857 F   0  0  0  0  0  0  0  0  0  0  0  0
   -1.7094   -3.1117    9.7453 C   0  0  0  0  0  0  0  0  0  0  0  0
   -2.0985   -4.2540    9.5126 O   0  0  0  0  0  0  0  0  0  0  0  0
   -2.6584   -2.2406   10.1497 O   0  0  0  0  0  0  0  0  0  0  0  0
    0.5753    0.7100   -0.6945 H   0  0  0  0  0  0  0  0  0  0  0  0
    0.6116   -0.9433   -0.0561 H   0  0  0  0  0  0  0  0  0  0  0  0
    2.0554    0.1237    0.0527 H   0  0  0  0  0  0  0  0  0  0  0  0
    2.9874   -0.1848    1.9537 H   0  0  0  0  0  0  0  0  0  0  0  0
    3.6096   -1.5264    3.8928 H   0  0  0  0  0  0  0  0  0  0  0  0
    3.0147   -2.5970    6.0313 H   0  0  0  0  0  0  0  0  0  0  0  0
   -1.1401   -2.8089    7.1326 H   0  0  0  0  0  0  0  0  0  0  0  0
   -1.7387   -1.3516    5.3252 H   0  0  0  0  0  0  0  0  0  0  0  0
   -1.1167   -0.1504    3.2274 H   0  0  0  0  0  0  0  0  0  0  0  0
   -0.0810   -4.4333    8.4212 H   0  0  0  0  0  0  0  0  0  0  0  0
    1.0891   -4.2575    9.6864 H   0  0  0  0  0  0  0  0  0  0  0  0
    0.8690   -0.8604    8.4307 H   0  0  0  0  0  0  0  0  0  0  0  0
   -0.9175   -0.7570    8.2923 H   0  0  0  0  0  0  0  0  0  0  0  0
   -0.0632   -2.0701   11.7879 H   0  0  0  0  0  0  0  0  0  0  0  0
    1.4714   -1.8765   10.8816 H   0  0  0  0  0  0  0  0  0  0  0  0
   -2.5243    0.9147    9.0278 H   0  0  0  0  0  0  0  0  0  0  0  0
   -2.9239    2.6790    7.3061 H   0  0  0  0  0  0  0  0  0  0  0  0
    0.6086    4.7411    8.5423 H   0  0  0  0  0  0  0  0  0  0  0  0
    1.0553    2.9873   10.2608 H   0  0  0  0  0  0  0  0  0  0  0  0
   -3.4546   -2.8194   10.1755 H   0  0  0  0  0  0  0  0  0  0  0  0
  1  2  1  0  0  0  0
  1 31  1  0  0  0  0
  1 32  1  0  0  0  0
  1 33  1  0  0  0  0
  2  3  1  0  0  0  0
  3  4  2  0  0  0  0
  3 12  1  0  0  0  0
  4  5  1  0  0  0  0
  4 34  1  0  0  0  0
  5  6  2  0  0  0  0
  5 35  1  0  0  0  0
  6  7  1  0  0  0  0
  6 11  1  0  0  0  0
  7  8  2  0  0  0  0
  7 36  1  0  0  0  0
  8  9  1  0  0  0  0
  8 13  1  0  0  0  0
  9 10  2  0  0  0  0
  9 37  1  0  0  0  0
 10 11  1  0  0  0  0
 10 38  1  0  0  0  0
 11 12  2  0  0  0  0
 12 39  1  0  0  0  0
 13 14  1  0  0  0  0
 14 15  1  0  0  0  0
 14 40  1  0  0  0  0
 14 41  1  0  0  0  0
 15 16  1  0  0  0  0
 15 18  1  0  0  0  0
 15 28  1  0  0  0  0
 16 17  1  0  0  0  0
 16 42  1  0  0  0  0
 16 43  1  0  0  0  0
 17 18  1  0  0  0  0
 17 19  1  0  0  0  0
 18 44  1  0  0  0  0
 18 45  1  0  0  0  0
 19 20  2  0  0  0  0
 19 21  1  0  0  0  0
 21 22  2  0  0  0  0
 21 26  1  0  0  0  0
 22 23  1  0  0  0  0
 22 46  1  0  0  0  0
 23 24  2  0  0  0  0
 23 47  1  0  0  0  0
 24 25  1  0  0  0  0
 24 27  1  0  0  0  0
 25 26  2  0  0  0  0
 25 48  1  0  0  0  0
 26 49  1  0  0  0  0
 28 29  2  0  0  0  0
 28 30  1  0  0  0  0
 30 50  1  0  0  0  0
M  END
>  <DRUGBANK_ID>
DB12024

>  <COMMON_NAME>
PF-04418948

>  <CAS_NUMBER>
1078166-57-0

>  <UNII>
I7Z38E70VF

$$$$
