988
 OpenBabel10282417123D

 20 20  0  0  0  0  0  0  0  0999 V2000
    1.6952   -1.3415   -0.0054 O   0  0  0  0  0  0  0  0  0  0  0  0
    1.6720    1.3947   -0.0034 O   0  0  0  0  0  0  0  0  0  0  0  0
   -5.2267   -0.5241    1.1832 O   0  0  0  0  0  0  0  0  0  0  0  0
   -3.2686   -1.3925    0.0220 C   0  0  0  0  0  0  0  0  0  0  0  0
   -1.9355   -0.6787    0.0089 C   0  0  0  0  0  0  0  0  0  0  0  0
   -4.1206   -1.0439    1.2176 C   0  0  0  0  0  0  0  0  0  0  0  0
   -0.7224   -1.3917   -0.0021 C   0  0  0  0  0  0  0  0  0  0  0  0
   -1.9043    0.7267    0.0044 C   0  0  0  0  0  0  0  0  0  0  0  0
    0.4881   -0.6962   -0.0033 C   0  0  0  0  0  0  0  0  0  0  0  0
   -0.6897    1.4116    0.0096 C   0  0  0  0  0  0  0  0  0  0  0  0
    0.4976    0.6969    0.0019 C   0  0  0  0  0  0  0  0  0  0  0  0
   -3.5538   -1.3759    2.3949 O   0  0  0  0  0  0  0  0  0  0  0  0
    1.5326   -2.3004    0.0063 H   0  0  0  0  0  0  0  0  0  0  0  0
    2.3749    0.7176   -0.0219 H   0  0  0  0  0  0  0  0  0  0  0  0
   -3.8217   -1.1227   -0.8866 H   0  0  0  0  0  0  0  0  0  0  0  0
   -3.1465   -2.4813   -0.0021 H   0  0  0  0  0  0  0  0  0  0  0  0
   -0.7365   -2.4779   -0.0036 H   0  0  0  0  0  0  0  0  0  0  0  0
   -2.8296    1.3005    0.0049 H   0  0  0  0  0  0  0  0  0  0  0  0
   -0.6697    2.4965    0.0218 H   0  0  0  0  0  0  0  0  0  0  0  0
   -4.1780   -1.0554    3.0792 H   0  0  0  0  0  0  0  0  0  0  0  0
  1  9  1  0  0  0  0
  1 13  1  0  0  0  0
  2 11  1  0  0  0  0
  2 14  1  0  0  0  0
  3  6  2  0  0  0  0
  4  5  1  0  0  0  0
  4  6  1  0  0  0  0
  4 15  1  0  0  0  0
  4 16  1  0  0  0  0
  5  7  2  0  0  0  0
  5  8  1  0  0  0  0
  6 12  1  0  0  0  0
  7  9  1  0  0  0  0
  7 17  1  0  0  0  0
  8 10  2  0  0  0  0
  8 18  1  0  0  0  0
  9 11  2  0  0  0  0
 10 11  1  0  0  0  0
 10 19  1  0  0  0  0
 12 20  1  0  0  0  0
M  END
>  <DRUGBANK_ID>
DB01702

>  <SECONDARY_ACCESSION_NUMBERS>
EXPT01685; EXPT01200

>  <COMMON_NAME>
2-(3,4-Dihydroxyphenyl)Acetic Acid

>  <CAS_NUMBER>
102-32-9

>  <UNII>
KEX5N0R4N5

$$$$
