
 OpenBabel10282417203D

 48 50  0  0  0  0  0  0  0  0999 V2000
    0.9319   -0.0066   -0.0518 C   0  0  0  0  0  0  0  0  0  0  0  0
    0.3271    0.0198   -1.4556 C   0  0  0  0  0  0  0  0  0  0  0  0
    0.8234   -1.1351   -2.3437 C   0  0  0  0  0  0  0  0  0  0  0  0
    0.4961   -2.4167   -1.9119 C   0  0  0  0  0  0  0  0  0  0  0  0
    0.8413   -3.5245   -2.6736 C   0  0  0  0  0  0  0  0  0  0  0  0
    1.5065   -3.3788   -3.8946 C   0  0  0  0  0  0  0  0  0  0  0  0
    1.8963   -2.1196   -4.3497 C   0  0  0  0  0  0  0  0  0  0  0  0
    1.5900   -1.0195   -3.5538 C   0  0  0  0  0  0  0  0  0  0  0  0
    2.2306    0.2292   -3.9150 C   0  0  0  0  0  0  0  0  0  0  0  0
    2.7736    0.5530   -5.1154 C   0  0  0  0  0  0  0  0  0  0  0  0
    2.9858   -0.6503   -6.0225 C   0  0  0  0  0  0  0  0  0  0  0  0
    3.5567   -0.5333   -7.1223 O   0  0  0  0  0  0  0  0  0  0  0  0
    2.6001   -1.9165   -5.5724 N   0  0  0  0  0  0  0  0  0  0  0  0
    2.9057   -3.0696   -6.4067 C   0  0  0  0  0  0  0  0  0  0  0  0
    3.2937    1.9279   -5.5877 C   0  0  0  0  0  0  0  0  0  0  0  0
    3.9263    1.9676   -6.6610 O   0  0  0  0  0  0  0  0  0  0  0  0
    3.0987    3.1274   -4.8647 N   0  0  0  0  0  0  0  0  0  0  0  0
    2.1842    3.3328   -3.7329 C   0  0  0  0  0  0  0  0  0  0  0  0
    2.9797    3.5386   -2.4198 C   0  0  0  0  0  0  0  0  0  0  0  0
    3.5465    4.3755   -5.4008 C   0  0  0  0  0  0  0  0  0  0  0  0
    3.2265    4.7198   -6.7085 C   0  0  0  0  0  0  0  0  0  0  0  0
    3.5133    5.9990   -7.1731 C   0  0  0  0  0  0  0  0  0  0  0  0
    4.0668    6.9552   -6.3195 C   0  0  0  0  0  0  0  0  0  0  0  0
    4.3352    6.6410   -4.9969 C   0  0  0  0  0  0  0  0  0  0  0  0
    4.1496    5.3350   -4.5726 C   0  0  0  0  0  0  0  0  0  0  0  0
    2.3028    0.9464   -2.7749 O   0  0  0  0  0  0  0  0  0  0  0  0
    0.6247   -0.9035    0.4929 H   0  0  0  0  0  0  0  0  0  0  0  0
    0.5944    0.8612    0.5252 H   0  0  0  0  0  0  0  0  0  0  0  0
    2.0274    0.0158   -0.0796 H   0  0  0  0  0  0  0  0  0  0  0  0
   -0.7654   -0.0455   -1.4031 H   0  0  0  0  0  0  0  0  0  0  0  0
    0.4599    1.0339   -1.8477 H   0  0  0  0  0  0  0  0  0  0  0  0
   -0.0234   -2.5505   -0.9669 H   0  0  0  0  0  0  0  0  0  0  0  0
    0.5726   -4.5118   -2.3147 H   0  0  0  0  0  0  0  0  0  0  0  0
    1.7230   -4.2778   -4.4594 H   0  0  0  0  0  0  0  0  0  0  0  0
    3.5347   -3.7649   -5.8418 H   0  0  0  0  0  0  0  0  0  0  0  0
    1.9691   -3.5505   -6.7034 H   0  0  0  0  0  0  0  0  0  0  0  0
    3.4473   -2.7992   -7.3173 H   0  0  0  0  0  0  0  0  0  0  0  0
    1.4679    4.1494   -3.8714 H   0  0  0  0  0  0  0  0  0  0  0  0
    1.4831    2.5078   -3.8017 H   0  0  0  0  0  0  0  0  0  0  0  0
    3.2470    4.5820   -2.2667 H   0  0  0  0  0  0  0  0  0  0  0  0
    2.4140    3.2513   -1.5329 H   0  0  0  0  0  0  0  0  0  0  0  0
    3.9414    2.9929   -2.4186 H   0  0  0  0  0  0  0  0  0  0  0  0
    2.7331    4.0050   -7.3608 H   0  0  0  0  0  0  0  0  0  0  0  0
    3.2829    6.2471   -8.2030 H   0  0  0  0  0  0  0  0  0  0  0  0
    4.3133    7.9425   -6.6922 H   0  0  0  0  0  0  0  0  0  0  0  0
    4.7062    7.3880   -4.3006 H   0  0  0  0  0  0  0  0  0  0  0  0
    4.5348    5.0840   -3.5930 H   0  0  0  0  0  0  0  0  0  0  0  0
    3.0563    1.5213   -2.8053 H   0  0  0  0  0  0  0  0  0  0  0  0
  1  2  1  0  0  0  0
  1 27  1  0  0  0  0
  1 28  1  0  0  0  0
  1 29  1  0  0  0  0
  2  3  1  0  0  0  0
  2 30  1  0  0  0  0
  2 31  1  0  0  0  0
  3  4  1  0  0  0  0
  3  8  2  0  0  0  0
  4  5  2  0  0  0  0
  4 32  1  0  0  0  0
  5  6  1  0  0  0  0
  5 33  1  0  0  0  0
  6  7  2  0  0  0  0
  6 34  1  0  0  0  0
  7  8  1  0  0  0  0
  7 13  1  0  0  0  0
  8  9  1  0  0  0  0
  9 10  2  0  0  0  0
  9 26  1  0  0  0  0
 10 11  1  0  0  0  0
 10 15  1  0  0  0  0
 11 12  2  0  0  0  0
 11 13  1  0  0  0  0
 13 14  1  0  0  0  0
 14 35  1  0  0  0  0
 14 36  1  0  0  0  0
 14 37  1  0  0  0  0
 15 16  2  0  0  0  0
 15 17  1  0  0  0  0
 17 18  1  0  0  0  0
 17 20  1  0  0  0  0
 18 19  1  0  0  0  0
 18 38  1  0  0  0  0
 18 39  1  0  0  0  0
 19 40  1  0  0  0  0
 19 41  1  0  0  0  0
 19 42  1  0  0  0  0
 20 21  2  0  0  0  0
 20 25  1  0  0  0  0
 21 22  1  0  0  0  0
 21 43  1  0  0  0  0
 22 23  2  0  0  0  0
 22 44  1  0  0  0  0
 23 24  1  0  0  0  0
 23 45  1  0  0  0  0
 24 25  2  0  0  0  0
 24 46  1  0  0  0  0
 25 47  1  0  0  0  0
 26 48  1  0  0  0  0
M  END
>  <DRUGBANK_ID>
DB13118

>  <SECONDARY_ACCESSION_NUMBERS>
DB05901

>  <COMMON_NAME>
Paquinimod

>  <CAS_NUMBER>
248282-01-1

>  <UNII>
HB76GLG27V

>  <SYNONYMS>
Paquinimod

$$$$
