
 OpenBabel10282417183D

 21  2  0  0  0  0  0  0  0  0999 V2000
    1.0909    0.0054    0.0413 Si  0  0  0  0  0  0  0  0  0  0  0  0
    0.9314   -0.0327   -0.0650 Si  0  0  0  0  0  0  0  0  0  0  0  0
    0.9854    0.0189   -0.0971 Si  0  0  0  0  0  0  0  0  0  0  0  0
    0.9425   -0.0286    0.0766 Si  0  0  0  0  0  0  0  0  0  0  0  0
    1.0690    0.0595   -0.0412 Mg  0  2  0  0  0  0  0  0  0  0  0  0
    1.0663   -0.0527   -0.0532 Mg  0  2  0  0  0  0  0  0  0  0  0  0
    0.9801    0.0809   -0.0553 Mg  0  2  0  0  0  0  0  0  0  0  0  0
    1.0044    0.0125    0.0991 O   0  5  0  0  0  0  0  0  0  0  0  0
    1.0068   -0.0134   -0.0989 O   0  5  0  0  0  0  0  0  0  0  0  0
    0.9323    0.0219   -0.0703 O   0  6  0  0  0  0  0  0  0  0  0  0
    1.0793   -0.0556    0.0249 O   0  6  0  0  0  0  0  0  0  0  0  0
    0.9021   -0.0096    0.0179 O   0  6  0  0  0  0  0  0  0  0  0  0
    1.0534    0.0585    0.0610 O   0  6  0  0  0  0  0  0  0  0  0  0
    0.9195    0.0225   -0.0549 O   0  6  0  0  0  0  0  0  0  0  0  0
    1.0409   -0.0891   -0.0196 O   0  6  0  0  0  0  0  0  0  0  0  0
    0.9268   -0.0328   -0.0597 O   0  6  0  0  0  0  0  0  0  0  0  0
    1.0777   -0.0065    0.0627 O   0  6  0  0  0  0  0  0  0  0  0  0
    1.0045   -0.0591   -0.0805 O   0  6  0  0  0  0  0  0  0  0  0  0
    1.0832   -0.0212    0.0513 O   0  6  0  0  0  0  0  0  0  0  0  0
    2.0044    0.0125    0.0991 H   0  0  0  0  0  0  0  0  0  0  0  0
    2.0068   -0.0134   -0.0989 H   0  0  0  0  0  0  0  0  0  0  0  0
  8 20  1  0  0  0  0
  9 21  1  0  0  0  0
M  CHG  8   1   4   2   4   3   4   4   4   5   2   6   2   7   2   8  -1
M  CHG  8   9  -1  10  -2  11  -2  12  -2  13  -2  14  -2  15  -2  16  -2
M  CHG  3  17  -2  18  -2  19  -2
M  END
>  <DRUGBANK_ID>
DB09511

>  <COMMON_NAME>
Talc

>  <CAS_NUMBER>
14807-96-6

>  <UNII>
7SEV7J4R1U

>  <SYNONYMS>
E-553(III); Pulvis Talci; Sterile talc powder; Talc; Talc Powder, Sterile; Talco; Talcum

$$$$
