612
 OpenBabel10282417163D

 48 49  0  0  0  0  0  0  0  0999 V2000
   -1.5044    0.3942   -0.2394 C   0  0  0  0  0  0  0  0  0  0  0  0
   -0.5774    1.4283    0.4203 C   0  0  0  0  0  0  0  0  0  0  0  0
    0.8957    1.2193    0.0742 C   0  0  0  0  0  0  0  0  0  0  0  0
    1.3713   -0.0538    0.7111 C   0  0  0  0  0  0  0  0  0  0  0  0
    0.2596   -1.0639    0.5780 C   0  0  0  0  0  0  0  0  0  0  0  0
   -1.2286   -0.8536    0.5568 C   0  0  0  0  0  0  0  0  0  0  0  0
   -1.5552    0.1427   -2.1318 S   0  0  0  0  0  0  0  0  0  0  0  0
    0.0560   -0.2041   -2.8248 C   0  0  0  0  0  0  0  0  0  0  0  0
    0.6701   -1.4229   -2.6632 C   0  0  0  0  0  0  0  0  0  0  0  0
    0.2318   -2.6666   -1.8398 C   0  0  0  0  0  0  0  0  0  0  0  0
    1.2439   -3.2125   -0.7394 C   0  0  0  0  0  0  0  0  0  0  0  0
   -0.1745   -3.8860   -2.6152 C   0  0  0  0  0  0  0  0  0  0  0  0
    2.0433   -1.5613   -3.1944 C   0  0  0  0  0  0  0  0  0  0  0  0
    2.7368   -2.5716   -3.0040 O   0  0  0  0  0  0  0  0  0  0  0  0
    0.6812    0.8163   -3.6074 N   0  0  0  0  0  0  0  0  0  0  0  0
    1.9339    0.6252   -4.1845 C   0  0  0  0  0  0  0  0  0  0  0  0
    2.5182    1.4170   -4.9188 O   0  0  0  0  0  0  0  0  0  0  0  0
    2.5608   -0.5380   -3.8848 N   0  0  0  0  0  0  0  0  0  0  0  0
    0.0817    2.1093   -3.9663 C   0  0  0  0  0  0  0  0  0  0  0  0
    0.9008    3.2433   -3.6023 O   0  0  0  0  0  0  0  0  0  0  0  0
    1.1810    3.3738   -2.2238 C   0  0  0  0  0  0  0  0  0  0  0  0
   -0.0930    3.6180   -1.4599 C   0  0  0  0  0  0  0  0  0  0  0  0
   -2.5362    0.6815    0.0030 H   0  0  0  0  0  0  0  0  0  0  0  0
   -1.0188    2.3970    0.2517 H   0  0  0  0  0  0  0  0  0  0  0  0
   -0.6293    1.3512    1.5143 H   0  0  0  0  0  0  0  0  0  0  0  0
    1.5651    2.0358    0.3518 H   0  0  0  0  0  0  0  0  0  0  0  0
    1.0076    1.0722   -0.9953 H   0  0  0  0  0  0  0  0  0  0  0  0
    1.6680    0.0420    1.7484 H   0  0  0  0  0  0  0  0  0  0  0  0
    2.2656   -0.3911    0.1469 H   0  0  0  0  0  0  0  0  0  0  0  0
    0.4528   -1.9590    1.1510 H   0  0  0  0  0  0  0  0  0  0  0  0
    0.4143   -1.1478   -0.4658 H   0  0  0  0  0  0  0  0  0  0  0  0
   -1.5424   -0.7721    1.5973 H   0  0  0  0  0  0  0  0  0  0  0  0
   -1.7815   -1.7063    0.1427 H   0  0  0  0  0  0  0  0  0  0  0  0
   -0.7217   -2.3992   -1.3800 H   0  0  0  0  0  0  0  0  0  0  0  0
    1.7879   -2.4855   -0.1310 H   0  0  0  0  0  0  0  0  0  0  0  0
    0.7023   -3.8609   -0.0368 H   0  0  0  0  0  0  0  0  0  0  0  0
    2.0881   -3.7564   -1.1491 H   0  0  0  0  0  0  0  0  0  0  0  0
    0.7171   -4.3896   -2.9845 H   0  0  0  0  0  0  0  0  0  0  0  0
   -0.6950   -4.5555   -1.9156 H   0  0  0  0  0  0  0  0  0  0  0  0
   -0.8556   -3.6300   -3.4238 H   0  0  0  0  0  0  0  0  0  0  0  0
    3.4947   -0.6584   -4.2440 H   0  0  0  0  0  0  0  0  0  0  0  0
    0.0029    2.1604   -5.0583 H   0  0  0  0  0  0  0  0  0  0  0  0
   -0.9311    2.2536   -3.5924 H   0  0  0  0  0  0  0  0  0  0  0  0
    1.7654    2.5064   -1.9172 H   0  0  0  0  0  0  0  0  0  0  0  0
    1.8505    4.2141   -2.0240 H   0  0  0  0  0  0  0  0  0  0  0  0
   -0.7906    2.7968   -1.6263 H   0  0  0  0  0  0  0  0  0  0  0  0
    0.1365    3.7391   -0.3993 H   0  0  0  0  0  0  0  0  0  0  0  0
   -0.6453    4.4969   -1.7815 H   0  0  0  0  0  0  0  0  0  0  0  0
  1  6  1  0  0  0  0
  1  2  1  0  0  0  0
  1 23  1  0  0  0  0
  2  3  1  0  0  0  0
  2 24  1  0  0  0  0
  2 25  1  0  0  0  0
  3  4  1  0  0  0  0
  3 26  1  0  0  0  0
  3 27  1  0  0  0  0
  4 28  1  0  0  0  0
  4 29  1  0  0  0  0
  5  4  1  0  0  0  0
  5 30  1  0  0  0  0
  5 31  1  0  0  0  0
  6  5  1  0  0  0  0
  6 32  1  0  0  0  0
  6 33  1  0  0  0  0
  7  1  1  0  0  0  0
  8  7  1  0  0  0  0
  9  8  2  0  0  0  0
  9 10  1  0  0  0  0
 10 12  1  0  0  0  0
 10 11  1  0  0  0  0
 10 34  1  0  0  0  0
 11 35  1  0  0  0  0
 11 36  1  0  0  0  0
 11 37  1  0  0  0  0
 12 38  1  0  0  0  0
 12 39  1  0  0  0  0
 12 40  1  0  0  0  0
 13  9  1  0  0  0  0
 14 13  2  0  0  0  0
 15  8  1  0  0  0  0
 15 19  1  0  0  0  0
 16 15  1  0  0  0  0
 17 16  2  0  0  0  0
 18 13  1  0  0  0  0
 18 16  1  0  0  0  0
 18 41  1  0  0  0  0
 19 20  1  0  0  0  0
 19 42  1  0  0  0  0
 19 43  1  0  0  0  0
 21 20  1  0  0  0  0
 21 22  1  0  0  0  0
 21 44  1  0  0  0  0
 21 45  1  0  0  0  0
 22 46  1  0  0  0  0
 22 47  1  0  0  0  0
 22 48  1  0  0  0  0
M  END
>  <DRUGBANK_ID>
DB07184

>  <COMMON_NAME>
6-(cyclohexylsulfanyl)-1-(ethoxymethyl)-5-(1-methylethyl)pyrimidine-2,4(1H,3H)-dione

$$$$
