
 OpenBabel10282417213D

112111  0  0  0  0  0  0  0  0999 V2000
    0.6989    1.7596    1.6132 N   0  0  0  0  0  0  0  0  0  0  0  0
    0.6934    1.1945    2.8729 C   0  0  0  0  0  0  0  0  0  0  0  0
    0.5542   -0.2899    3.0030 C   0  0  0  0  0  0  0  0  0  0  0  0
    1.9825   -0.9329    3.2058 C   0  0  0  0  0  0  0  0  0  0  0  0
    2.3754   -0.8743    4.6421 C   0  0  0  0  0  0  0  0  0  0  0  0
    1.2831   -1.6105    5.3994 C   0  0  0  0  0  0  0  0  0  0  0  0
    1.2333   -3.0953    4.9842 C   0  0  0  0  0  0  0  0  0  0  0  0
    2.5628   -3.7552    5.3279 C   0  0  0  0  0  0  0  0  0  0  0  0
    0.8718    1.8889    3.8579 O   0  0  0  0  0  0  0  0  0  0  0  0
    2.9104   -3.4369    6.7718 C   0  0  0  0  0  0  0  0  0  0  0  0
    2.9396   -5.9664   11.1563 C   0  0  0  0  0  0  0  0  0  0  0  0
    4.1435   -9.9385   13.2410 C   0  0  0  0  0  0  0  0  0  0  0  0
    4.0971   -8.4419   13.5045 C   0  0  0  0  0  0  0  0  0  0  0  0
    4.9911   -7.6919   12.5155 C   0  0  0  0  0  0  0  0  0  0  0  0
    4.5417   -7.9168   11.0683 C   0  0  0  0  0  0  0  0  0  0  0  0
    3.0895   -7.4655   10.8697 C   0  0  0  0  0  0  0  0  0  0  0  0
    2.1210   -5.0427    8.4815 C   0  0  0  0  0  0  0  0  0  0  0  0
    3.5134   -5.4930    8.7720 C   0  0  0  0  0  0  0  0  0  0  0  0
    1.8591   -4.0512    7.6395 C   0  0  0  0  0  0  0  0  0  0  0  0
    3.8282   -5.1539   10.2186 C   0  0  0  0  0  0  0  0  0  0  0  0
    1.5567   -4.5627    0.1998 C   0  0  0  0  0  0  0  0  0  0  0  0
    0.4294   -5.5836    0.0745 C   0  0  0  0  0  0  0  0  0  0  0  0
    0.5059   -6.1870   -1.3342 C   0  0  0  0  0  0  0  0  0  0  0  0
    0.0745   -2.8338   -0.7929 C   0  0  0  0  0  0  0  0  0  0  0  0
    1.3837   -3.5856   -0.9765 C   0  0  0  0  0  0  0  0  0  0  0  0
    1.4458   -1.1276    0.4029 C   0  0  2  0  0  0  0  0  0  0  0  0
    0.1729   -2.0028    0.4551 C   0  0  0  0  0  0  0  0  0  0  0  0
    1.4535    0.1664   -0.3483 C   0  0  2  0  0  0  0  0  0  0  0  0
    0.4440    1.2560    0.2056 C   0  0  2  0  0  0  0  0  0  0  0  0
    0.6223    2.4283   -0.7902 C   0  0  0  0  0  0  0  0  0  0  0  0
    1.3414   -0.1279   -1.7373 O   0  0  0  0  0  0  0  0  0  0  0  0
    0.2339    2.0566   -2.1109 O   0  0  0  0  0  0  0  0  0  0  0  0
    1.8846   -6.8382   -1.5048 C   0  0  0  0  0  0  0  0  0  0  0  0
    2.0174   -7.9436   -0.4565 C   0  0  0  0  0  0  0  0  0  0  0  0
    0.8774   -8.9469   -0.6543 C   0  0  0  0  0  0  0  0  0  0  0  0
    0.9592   -9.5360   -2.0658 C   0  0  0  0  0  0  0  0  0  0  0  0
    2.3001  -10.2532   -2.2506 C   0  0  0  0  0  0  0  0  0  0  0  0
    2.4404  -11.4004   -1.2445 C   0  0  0  0  0  0  0  0  0  0  0  0
    1.3098  -12.4182   -1.4001 C   0  0  0  0  0  0  0  0  0  0  0  0
    1.3250  -13.0190   -2.7962 C   0  0  0  0  0  0  0  0  0  0  0  0
    2.6867   -1.8210    0.4841 O   0  0  0  0  0  0  0  0  0  0  0  0
    0.7305    2.7677    1.7293 H   0  0  0  0  0  0  0  0  0  0  0  0
   -0.2193   -0.6419    3.6736 H   0  0  0  0  0  0  0  0  0  0  0  0
   -0.0040   -0.5501    2.1203 H   0  0  0  0  0  0  0  0  0  0  0  0
    2.0153   -1.9769    2.8528 H   0  0  0  0  0  0  0  0  0  0  0  0
    2.7980   -0.4341    2.6556 H   0  0  0  0  0  0  0  0  0  0  0  0
    3.3750   -1.3114    4.7702 H   0  0  0  0  0  0  0  0  0  0  0  0
    2.4769    0.1703    4.9375 H   0  0  0  0  0  0  0  0  0  0  0  0
    1.4217   -1.4398    6.4635 H   0  0  0  0  0  0  0  0  0  0  0  0
    0.2980   -1.1791    5.2629 H   0  0  0  0  0  0  0  0  0  0  0  0
    0.3946   -3.5782    5.4923 H   0  0  0  0  0  0  0  0  0  0  0  0
    1.0128   -3.2663    3.9246 H   0  0  0  0  0  0  0  0  0  0  0  0
    2.5121   -4.8375    5.1573 H   0  0  0  0  0  0  0  0  0  0  0  0
    3.3715   -3.3993    4.6787 H   0  0  0  0  0  0  0  0  0  0  0  0
    3.9273   -3.7759    6.9302 H   0  0  0  0  0  0  0  0  0  0  0  0
    2.9840   -2.3736    7.0077 H   0  0  0  0  0  0  0  0  0  0  0  0
    3.1885   -5.7204   12.1918 H   0  0  0  0  0  0  0  0  0  0  0  0
    1.8889   -5.6767   11.0531 H   0  0  0  0  0  0  0  0  0  0  0  0
    5.1712  -10.3009   13.3372 H   0  0  0  0  0  0  0  0  0  0  0  0
    3.5050  -10.4750   13.9439 H   0  0  0  0  0  0  0  0  0  0  0  0
    3.7903  -10.1913   12.2359 H   0  0  0  0  0  0  0  0  0  0  0  0
    4.4208   -8.2271   14.5265 H   0  0  0  0  0  0  0  0  0  0  0  0
    3.0604   -8.0897   13.4464 H   0  0  0  0  0  0  0  0  0  0  0  0
    6.0325   -8.0088   12.6291 H   0  0  0  0  0  0  0  0  0  0  0  0
    4.9863   -6.6224   12.7592 H   0  0  0  0  0  0  0  0  0  0  0  0
    4.6419   -8.9666   10.7790 H   0  0  0  0  0  0  0  0  0  0  0  0
    5.2242   -7.3938   10.3888 H   0  0  0  0  0  0  0  0  0  0  0  0
    2.3950   -8.0269   11.4987 H   0  0  0  0  0  0  0  0  0  0  0  0
    2.7656   -7.7224    9.8560 H   0  0  0  0  0  0  0  0  0  0  0  0
    1.2857   -5.4911    9.0154 H   0  0  0  0  0  0  0  0  0  0  0  0
    3.6044   -6.5484    8.5117 H   0  0  0  0  0  0  0  0  0  0  0  0
    4.2906   -5.0270    8.1734 H   0  0  0  0  0  0  0  0  0  0  0  0
    0.8232   -3.7264    7.5455 H   0  0  0  0  0  0  0  0  0  0  0  0
    4.8903   -5.3492   10.4004 H   0  0  0  0  0  0  0  0  0  0  0  0
    3.6999   -4.0805   10.4080 H   0  0  0  0  0  0  0  0  0  0  0  0
    2.5552   -5.0112    0.1834 H   0  0  0  0  0  0  0  0  0  0  0  0
    1.5293   -4.1054    1.1947 H   0  0  0  0  0  0  0  0  0  0  0  0
    0.4949   -6.3266    0.8724 H   0  0  0  0  0  0  0  0  0  0  0  0
   -0.5535   -5.1392    0.2449 H   0  0  0  0  0  0  0  0  0  0  0  0
   -0.3314   -6.8629   -1.5003 H   0  0  0  0  0  0  0  0  0  0  0  0
    0.3338   -5.4660   -2.1360 H   0  0  0  0  0  0  0  0  0  0  0  0
   -0.7997   -3.4877   -0.7275 H   0  0  0  0  0  0  0  0  0  0  0  0
   -0.1525   -2.2210   -1.6568 H   0  0  0  0  0  0  0  0  0  0  0  0
    1.4078   -4.0359   -1.9632 H   0  0  0  0  0  0  0  0  0  0  0  0
    2.2542   -2.9581   -1.1124 H   0  0  0  0  0  0  0  0  0  0  0  0
    1.5516   -0.6320    1.2951 H   0  0  0  0  0  0  0  0  0  0  0  0
    0.1918   -2.6558    1.3464 H   0  0  0  0  0  0  0  0  0  0  0  0
   -0.7670   -1.4474    0.5686 H   0  0  0  0  0  0  0  0  0  0  0  0
    2.4515    0.5954   -0.2119 H   0  0  0  0  0  0  0  0  0  0  0  0
   -0.5972    0.9041    0.1632 H   0  0  0  0  0  0  0  0  0  0  0  0
    0.0432    3.3086   -0.5090 H   0  0  0  0  0  0  0  0  0  0  0  0
    1.6806    2.7188   -0.8136 H   0  0  0  0  0  0  0  0  0  0  0  0
    0.4851   -0.5697   -1.8750 H   0  0  0  0  0  0  0  0  0  0  0  0
    0.8330    1.3202   -2.3726 H   0  0  0  0  0  0  0  0  0  0  0  0
    2.0051   -7.1971   -2.5293 H   0  0  0  0  0  0  0  0  0  0  0  0
    2.7180   -6.1347   -1.4074 H   0  0  0  0  0  0  0  0  0  0  0  0
    3.0052   -8.4040   -0.5202 H   0  0  0  0  0  0  0  0  0  0  0  0
    1.9970   -7.5544    0.5658 H   0  0  0  0  0  0  0  0  0  0  0  0
    0.9143   -9.7103    0.1245 H   0  0  0  0  0  0  0  0  0  0  0  0
   -0.1078   -8.4951   -0.5015 H   0  0  0  0  0  0  0  0  0  0  0  0
    0.1058  -10.1947   -2.2412 H   0  0  0  0  0  0  0  0  0  0  0  0
    0.8439   -8.7710   -2.8412 H   0  0  0  0  0  0  0  0  0  0  0  0
    2.3921  -10.6039   -3.2808 H   0  0  0  0  0  0  0  0  0  0  0  0
    3.1457   -9.5657   -2.1398 H   0  0  0  0  0  0  0  0  0  0  0  0
    3.4125  -11.8842   -1.3749 H   0  0  0  0  0  0  0  0  0  0  0  0
    2.4474  -11.0201   -0.2154 H   0  0  0  0  0  0  0  0  0  0  0  0
    1.4172  -13.2031   -0.6468 H   0  0  0  0  0  0  0  0  0  0  0  0
    0.3325  -11.9596   -1.2066 H   0  0  0  0  0  0  0  0  0  0  0  0
    2.2865  -13.5077   -2.9783 H   0  0  0  0  0  0  0  0  0  0  0  0
    0.5215  -13.7466   -2.9133 H   0  0  0  0  0  0  0  0  0  0  0  0
    1.1807  -12.2608   -3.5729 H   0  0  0  0  0  0  0  0  0  0  0  0
    3.2442   -1.5413   -0.2587 H   0  0  0  0  0  0  0  0  0  0  0  0
  1  2  1  0  0  0  0
  1 42  1  0  0  0  0
  3  2  1  0  0  0  0
  3 43  1  0  0  0  0
  3 44  1  0  0  0  0
  4  3  1  0  0  0  0
  4  5  1  0  0  0  0
  4 45  1  0  0  0  0
  4 46  1  0  0  0  0
  5 47  1  0  0  0  0
  5 48  1  0  0  0  0
  6  5  1  0  0  0  0
  6  7  1  0  0  0  0
  6 49  1  0  0  0  0
  6 50  1  0  0  0  0
  7 51  1  0  0  0  0
  7 52  1  0  0  0  0
  8  7  1  0  0  0  0
  8 10  1  0  0  0  0
  8 53  1  0  0  0  0
  8 54  1  0  0  0  0
  9  2  2  0  0  0  0
 10 19  1  0  0  0  0
 10 55  1  0  0  0  0
 10 56  1  0  0  0  0
 11 20  1  0  0  0  0
 11 57  1  0  0  0  0
 11 58  1  0  0  0  0
 12 13  1  0  0  0  0
 12 59  1  0  0  0  0
 12 60  1  0  0  0  0
 12 61  1  0  0  0  0
 13 14  1  0  0  0  0
 13 62  1  0  0  0  0
 13 63  1  0  0  0  0
 14 15  1  0  0  0  0
 14 64  1  0  0  0  0
 14 65  1  0  0  0  0
 15 16  1  0  0  0  0
 15 66  1  0  0  0  0
 15 67  1  0  0  0  0
 16 11  1  0  0  0  0
 16 68  1  0  0  0  0
 16 69  1  0  0  0  0
 17 70  1  0  0  0  0
 18 17  1  0  0  0  0
 18 71  1  0  0  0  0
 18 72  1  0  0  0  0
 19 17  2  0  0  0  0
 19 73  1  0  0  0  0
 20 18  1  0  0  0  0
 20 74  1  0  0  0  0
 20 75  1  0  0  0  0
 21 25  1  0  0  0  0
 21 76  1  0  0  0  0
 21 77  1  0  0  0  0
 22 21  1  0  0  0  0
 22 78  1  0  0  0  0
 22 79  1  0  0  0  0
 23 22  1  0  0  0  0
 23 33  1  0  0  0  0
 23 80  1  0  0  0  0
 23 81  1  0  0  0  0
 24 27  1  0  0  0  0
 24 82  1  0  0  0  0
 24 83  1  0  0  0  0
 25 24  1  0  0  0  0
 25 84  1  0  0  0  0
 25 85  1  0  0  0  0
 26 41  1  0  0  0  0
 26 86  1  1  0  0  0
 27 26  1  0  0  0  0
 27 87  1  0  0  0  0
 27 88  1  0  0  0  0
 28 26  1  0  0  0  0
 28 31  1  0  0  0  0
 28 89  1  1  0  0  0
 29 30  1  0  0  0  0
 29 90  1  6  0  0  0
 29  1  1  0  0  0  0
 29 28  1  0  0  0  0
 30 32  1  0  0  0  0
 30 91  1  0  0  0  0
 30 92  1  0  0  0  0
 31 93  1  0  0  0  0
 32 94  1  0  0  0  0
 33 34  1  0  0  0  0
 33 95  1  0  0  0  0
 33 96  1  0  0  0  0
 34 35  1  0  0  0  0
 34 97  1  0  0  0  0
 34 98  1  0  0  0  0
 35 36  1  0  0  0  0
 35 99  1  0  0  0  0
 35100  1  0  0  0  0
 36 37  1  0  0  0  0
 36101  1  0  0  0  0
 36102  1  0  0  0  0
 37 38  1  0  0  0  0
 37103  1  0  0  0  0
 37104  1  0  0  0  0
 38 39  1  0  0  0  0
 38105  1  0  0  0  0
 38106  1  0  0  0  0
 39 40  1  0  0  0  0
 39107  1  0  0  0  0
 39108  1  0  0  0  0
 40109  1  0  0  0  0
 40110  1  0  0  0  0
 40111  1  0  0  0  0
 41112  1  0  0  0  0
M  END
>  <DRUGBANK_ID>
DB14111

>  <SECONDARY_ACCESSION_NUMBERS>
DB11258

>  <COMMON_NAME>
Ceramide NP

>  <CAS_NUMBER>
100403-19-8

>  <UNII>
4370DF050B

>  <SYNONYMS>
Cer(t18:0/18:1n-9); Ceramide 3; Ceramide III; Ceramide IIIb; Cytomide IIIa; Cytomide IIIb; N-(9Z-octadecenoyl)-4-hydroxysphinganine; N-(9Z-octadecenoyl)phytosphingosine; N-octadecanoylphytosphingosine; N-oleoylphytosphingosine; N-oloeoyl-4-hydroxysphinganine

$$$$
