
 OpenBabel10282417103D

 56 59  0  0  0  0  0  0  0  0999 V2000
    1.2492   -0.4803    1.2650 C   0  0  0  0  0  0  0  0  0  0  0  0
    1.4038   -0.5294    2.9124 C   0  0  0  0  0  0  0  0  0  0  0  0
    0.7157    0.8157    3.8108 C   0  0  0  0  0  0  0  0  0  0  0  0
    0.4922    1.9778    3.1121 C   0  0  0  0  0  0  0  0  0  0  0  0
    1.0478    1.7885    1.7841 C   0  0  2  0  0  0  0  0  0  0  0  0
    0.1963    0.5347    1.3966 C   0  0  0  0  0  0  0  0  0  0  0  0
   -0.0277    3.3886    3.3129 C   0  0  0  0  0  0  0  0  0  0  0  0
    0.5564    4.5013    2.2335 C   0  0  0  0  0  0  0  0  0  0  0  0
    0.2574    4.0793    0.6348 C   0  0  2  0  0  0  0  0  0  0  0  0
    1.0865    2.7780    0.6211 C   0  0  2  0  0  0  0  0  0  0  0  0
    0.5683    5.1209   -0.9207 C   0  0  1  0  0  0  0  0  0  0  0  0
    1.2589    4.0410   -1.5776 C   0  0  2  0  0  0  0  0  0  0  0  0
    1.9364    2.7440   -1.5782 C   0  0  0  0  0  0  0  0  0  0  0  0
    1.2118    1.9055   -0.6360 C   0  0  2  0  0  0  0  0  0  0  0  0
    0.6459    4.9667   -2.9869 C   0  0  0  0  0  0  0  0  0  0  0  0
    2.0861    4.8674   -3.5444 C   0  0  0  0  0  0  0  0  0  0  0  0
    2.3481    5.2487   -2.1906 C   0  0  1  0  0  0  0  0  0  0  0  0
    2.1311   -1.3314    3.4881 O   0  0  0  0  0  0  0  0  0  0  0  0
   -0.8243    3.9578    0.7380 H   0  0  0  0  0  0  0  0  0  0  0  0
    0.0757    1.3015   -1.2285 O   0  0  0  0  0  0  0  0  0  0  0  0
   -0.6427    3.8007   -1.7501 C   0  0  0  0  0  0  0  0  0  0  0  0
    2.3430    3.4043    0.7173 F   0  0  0  0  0  0  0  0  0  0  0  0
    1.1604    5.9178   -0.5005 H   0  0  0  0  0  0  0  0  0  0  0  0
    1.9914    6.7114   -2.1738 O   0  0  0  0  0  0  0  0  0  0  0  0
    2.6432    1.7204    2.1672 C   0  0  0  0  0  0  0  0  0  0  0  0
    3.7841    5.2736   -1.7205 C   0  0  0  0  0  0  0  0  0  0  0  0
    4.1810    4.7159   -0.7199 O   0  0  0  0  0  0  0  0  0  0  0  0
    4.6928    6.1656   -2.5551 C   0  0  0  0  0  0  0  0  0  0  0  0
    4.7814    5.7599   -3.9098 O   0  0  0  0  0  0  0  0  0  0  0  0
    0.7591   -1.0281    0.4483 H   0  0  0  0  0  0  0  0  0  0  0  0
    2.2284   -0.2441    0.8205 H   0  0  0  0  0  0  0  0  0  0  0  0
    0.5497    0.6854    4.8704 H   0  0  0  0  0  0  0  0  0  0  0  0
   -0.7301    0.7372    0.8449 H   0  0  0  0  0  0  0  0  0  0  0  0
   -0.4258   -0.0915    2.0903 H   0  0  0  0  0  0  0  0  0  0  0  0
    0.1795    3.6981    4.3458 H   0  0  0  0  0  0  0  0  0  0  0  0
   -1.1190    3.3730    3.1919 H   0  0  0  0  0  0  0  0  0  0  0  0
    1.6354    4.5474    2.4511 H   0  0  0  0  0  0  0  0  0  0  0  0
    0.1428    5.4773    2.4948 H   0  0  0  0  0  0  0  0  0  0  0  0
    1.9556    2.2664   -2.5609 H   0  0  0  0  0  0  0  0  0  0  0  0
    2.9866    2.7924   -1.2538 H   0  0  0  0  0  0  0  0  0  0  0  0
    1.9106    1.0926   -0.4990 H   0  0  0  0  0  0  0  0  0  0  0  0
    0.0405    5.6148   -3.6152 H   0  0  0  0  0  0  0  0  0  0  0  0
    0.3449    3.9810   -3.4495 H   0  0  0  0  0  0  0  0  0  0  0  0
    2.3345    5.5583   -4.3478 H   0  0  0  0  0  0  0  0  0  0  0  0
    2.4673    3.8615   -3.8034 H   0  0  0  0  0  0  0  0  0  0  0  0
   -0.7321    1.7983   -1.0467 H   0  0  0  0  0  0  0  0  0  0  0  0
   -1.1886    3.4780   -0.8758 H   0  0  0  0  0  0  0  0  0  0  0  0
   -1.1844    4.7768   -1.9476 H   0  0  0  0  0  0  0  0  0  0  0  0
   -0.9200    3.1229   -2.5523 H   0  0  0  0  0  0  0  0  0  0  0  0
    1.0335    6.8549   -2.3292 H   0  0  0  0  0  0  0  0  0  0  0  0
    2.9623    1.0866    2.9986 H   0  0  0  0  0  0  0  0  0  0  0  0
    3.2578    1.4482    1.3060 H   0  0  0  0  0  0  0  0  0  0  0  0
    2.9668    2.7067    2.5280 H   0  0  0  0  0  0  0  0  0  0  0  0
    4.3088    7.1907   -2.5159 H   0  0  0  0  0  0  0  0  0  0  0  0
    5.6848    6.1452   -2.1083 H   0  0  0  0  0  0  0  0  0  0  0  0
    4.9917    4.8106   -3.9167 H   0  0  0  0  0  0  0  0  0  0  0  0
  1  2  1  0  0  0  0
  1  6  1  0  0  0  0
  1 30  1  0  0  0  0
  1 31  1  0  0  0  0
  2  3  1  0  0  0  0
  2 18  2  0  0  0  0
  3  4  2  0  0  0  0
  3 32  1  0  0  0  0
  4  5  1  0  0  0  0
  4  7  1  0  0  0  0
  5  6  1  0  0  0  0
  5 10  1  0  0  0  0
  5 25  1  6  0  0  0
  6 33  1  0  0  0  0
  6 34  1  0  0  0  0
  7  8  1  0  0  0  0
  7 35  1  0  0  0  0
  7 36  1  0  0  0  0
  8  9  1  0  0  0  0
  8 37  1  0  0  0  0
  8 38  1  0  0  0  0
  9 10  1  0  0  0  0
  9 11  1  0  0  0  0
  9 19  1  6  0  0  0
 10 14  1  0  0  0  0
 10 22  1  1  0  0  0
 11 12  1  0  0  0  0
 11 15  1  0  0  0  0
 11 23  1  1  0  0  0
 12 13  1  0  0  0  0
 12 17  1  0  0  0  0
 12 21  1  6  0  0  0
 13 14  1  0  0  0  0
 13 39  1  0  0  0  0
 13 40  1  0  0  0  0
 14 20  1  0  0  0  0
 14 41  1  1  0  0  0
 15 16  1  0  0  0  0
 15 42  1  0  0  0  0
 15 43  1  0  0  0  0
 16 17  1  0  0  0  0
 16 44  1  0  0  0  0
 16 45  1  0  0  0  0
 17 24  1  1  0  0  0
 17 26  1  0  0  0  0
 20 46  1  0  0  0  0
 21 47  1  0  0  0  0
 21 48  1  0  0  0  0
 21 49  1  0  0  0  0
 24 50  1  0  0  0  0
 25 51  1  0  0  0  0
 25 52  1  0  0  0  0
 25 53  1  0  0  0  0
 26 27  2  0  0  0  0
 26 28  1  0  0  0  0
 28 29  1  0  0  0  0
 28 54  1  0  0  0  0
 28 55  1  0  0  0  0
 29 56  1  0  0  0  0
M  END
>  <DRUGBANK_ID>
DB00687

>  <SECONDARY_ACCESSION_NUMBERS>
APRD00756; DB02478

>  <COMMON_NAME>
Fludrocortisone

>  <CAS_NUMBER>
127-31-1

>  <UNII>
U0476M545B

>  <SYNONYMS>
9alpha-Fluorocortisol; Fludrocortison; Fludrocortisona; Fludrocortisone; Fludrocortisonum; Fluohydrocortisone

$$$$
