J80
 OpenBabel10282417173D

 60 62  0  0  0  0  0  0  0  0999 V2000
    1.0729    0.1084   -0.0600 C   0  0  0  0  0  0  0  0  0  0  0  0
    0.5769    0.4779   -1.4237 C   0  0  0  0  0  0  0  0  0  0  0  0
    0.0076   -0.4635   -2.2584 C   0  0  0  0  0  0  0  0  0  0  0  0
   -0.6245   -0.0316   -3.4221 C   0  0  0  0  0  0  0  0  0  0  0  0
   -0.4312    1.2696   -3.8649 C   0  0  0  0  0  0  0  0  0  0  0  0
    0.2266    2.1369   -3.0733 N   0  0  0  0  0  0  0  0  0  0  0  0
    0.6672    1.7628   -1.8143 N   0  0  0  0  0  0  0  0  0  0  0  0
   -0.8212    1.6467   -5.1233 N   0  0  0  0  0  0  0  0  0  0  0  0
   -2.2115    1.6882   -5.4908 C   0  0  0  0  0  0  0  0  0  0  0  0
   -2.3879    0.7659   -6.6579 C   0  0  0  0  0  0  0  0  0  0  0  0
   -1.3916    1.1163   -7.7822 C   0  0  0  0  0  0  0  0  0  0  0  0
    0.0534    1.1566   -7.3205 C   0  0  0  0  0  0  0  0  0  0  0  0
    0.1512    2.0830   -6.1170 C   0  0  0  0  0  0  0  0  0  0  0  0
   -1.5091    0.0663   -8.8296 C   0  0  0  0  0  0  0  0  0  0  0  0
   -2.9520    0.0533   -9.2446 C   0  0  0  0  0  0  0  0  0  0  0  0
   -3.4013    1.1741  -10.1669 C   0  0  0  0  0  0  0  0  0  0  0  0
   -2.5245    1.3217  -11.4178 C   0  0  0  0  0  0  0  0  0  0  0  0
   -2.7354    0.3180  -12.4609 O   0  0  0  0  0  0  0  0  0  0  0  0
   -2.4032   -0.9840  -12.1823 C   0  0  0  0  0  0  0  0  0  0  0  0
   -3.1984   -1.7956  -11.3831 C   0  0  0  0  0  0  0  0  0  0  0  0
   -2.6429   -2.9203  -10.7266 C   0  0  0  0  0  0  0  0  0  0  0  0
   -1.4217   -3.4299  -11.1378 C   0  0  0  0  0  0  0  0  0  0  0  0
   -0.7650   -2.7659  -12.1853 C   0  0  0  0  0  0  0  0  0  0  0  0
   -1.2896   -1.5799  -12.7435 C   0  0  0  0  0  0  0  0  0  0  0  0
   -0.8843   -4.7381  -10.6379 C   0  0  0  0  0  0  0  0  0  0  0  0
    0.0900   -5.2552  -11.1219 O   0  0  0  0  0  0  0  0  0  0  0  0
   -1.6820   -5.2875   -9.6680 O   0  0  0  0  0  0  0  0  0  0  0  0
   -1.3346   -6.6277   -9.2497 C   0  0  0  0  0  0  0  0  0  0  0  0
   -1.5576   -7.6500  -10.3560 C   0  0  0  0  0  0  0  0  0  0  0  0
    0.7072   -0.8808    0.2397 H   0  0  0  0  0  0  0  0  0  0  0  0
    0.7041    0.8232    0.6836 H   0  0  0  0  0  0  0  0  0  0  0  0
    2.1654    0.0955   -0.0329 H   0  0  0  0  0  0  0  0  0  0  0  0
    0.0462   -1.5197   -2.0172 H   0  0  0  0  0  0  0  0  0  0  0  0
   -1.2139   -0.7349   -3.9996 H   0  0  0  0  0  0  0  0  0  0  0  0
   -2.4813    2.7003   -5.8168 H   0  0  0  0  0  0  0  0  0  0  0  0
   -2.9020    1.3997   -4.6928 H   0  0  0  0  0  0  0  0  0  0  0  0
   -3.4279    0.8826   -6.9785 H   0  0  0  0  0  0  0  0  0  0  0  0
   -2.2571   -0.2864   -6.3660 H   0  0  0  0  0  0  0  0  0  0  0  0
   -1.6488    2.0930   -8.2127 H   0  0  0  0  0  0  0  0  0  0  0  0
    0.3899    0.1423   -7.0676 H   0  0  0  0  0  0  0  0  0  0  0  0
    0.6876    1.5039   -8.1481 H   0  0  0  0  0  0  0  0  0  0  0  0
    1.1808    2.0805   -5.7541 H   0  0  0  0  0  0  0  0  0  0  0  0
   -0.1008    3.0978   -6.4480 H   0  0  0  0  0  0  0  0  0  0  0  0
   -0.8227    0.2153   -9.6710 H   0  0  0  0  0  0  0  0  0  0  0  0
   -1.2329   -0.9228   -8.4313 H   0  0  0  0  0  0  0  0  0  0  0  0
   -2.9243   -0.8947   -9.6683 H   0  0  0  0  0  0  0  0  0  0  0  0
   -3.7134   -0.1699   -8.4946 H   0  0  0  0  0  0  0  0  0  0  0  0
   -4.4380    1.0032  -10.4747 H   0  0  0  0  0  0  0  0  0  0  0  0
   -3.4110    2.1113   -9.5895 H   0  0  0  0  0  0  0  0  0  0  0  0
   -2.7975    2.2900  -11.8651 H   0  0  0  0  0  0  0  0  0  0  0  0
   -1.4622    1.4498  -11.1666 H   0  0  0  0  0  0  0  0  0  0  0  0
   -4.1546   -1.4076  -11.0262 H   0  0  0  0  0  0  0  0  0  0  0  0
   -3.1320   -3.3095   -9.8322 H   0  0  0  0  0  0  0  0  0  0  0  0
    0.1654   -3.1676  -12.5794 H   0  0  0  0  0  0  0  0  0  0  0  0
   -0.8599   -1.1658  -13.6496 H   0  0  0  0  0  0  0  0  0  0  0  0
   -0.3043   -6.6541   -8.8772 H   0  0  0  0  0  0  0  0  0  0  0  0
   -1.9850   -6.8857   -8.4032 H   0  0  0  0  0  0  0  0  0  0  0  0
   -0.9424   -7.4355  -11.2334 H   0  0  0  0  0  0  0  0  0  0  0  0
   -1.3075   -8.6596  -10.0162 H   0  0  0  0  0  0  0  0  0  0  0  0
   -2.5997   -7.6351  -10.6898 H   0  0  0  0  0  0  0  0  0  0  0  0
  1  2  1  0  0  0  0
  1 30  1  0  0  0  0
  1 31  1  0  0  0  0
  1 32  1  0  0  0  0
  2  3  1  0  0  0  0
  2  7  2  0  0  0  0
  3  4  2  0  0  0  0
  3 33  1  0  0  0  0
  4  5  1  0  0  0  0
  4 34  1  0  0  0  0
  5  6  2  0  0  0  0
  5  8  1  0  0  0  0
  6  7  1  0  0  0  0
  8  9  1  0  0  0  0
  8 13  1  0  0  0  0
  9 10  1  0  0  0  0
  9 35  1  0  0  0  0
  9 36  1  0  0  0  0
 10 11  1  0  0  0  0
 10 37  1  0  0  0  0
 10 38  1  0  0  0  0
 11 12  1  0  0  0  0
 11 14  1  0  0  0  0
 11 39  1  0  0  0  0
 12 13  1  0  0  0  0
 12 40  1  0  0  0  0
 12 41  1  0  0  0  0
 13 42  1  0  0  0  0
 13 43  1  0  0  0  0
 14 15  1  0  0  0  0
 14 44  1  0  0  0  0
 14 45  1  0  0  0  0
 15 16  1  0  0  0  0
 15 46  1  0  0  0  0
 15 47  1  0  0  0  0
 16 17  1  0  0  0  0
 16 48  1  0  0  0  0
 16 49  1  0  0  0  0
 17 18  1  0  0  0  0
 17 50  1  0  0  0  0
 17 51  1  0  0  0  0
 18 19  1  0  0  0  0
 19 20  2  0  0  0  0
 19 24  1  0  0  0  0
 20 21  1  0  0  0  0
 20 52  1  0  0  0  0
 21 22  2  0  0  0  0
 21 53  1  0  0  0  0
 22 23  1  0  0  0  0
 22 25  1  0  0  0  0
 23 24  2  0  0  0  0
 23 54  1  0  0  0  0
 24 55  1  0  0  0  0
 25 26  2  0  0  0  0
 25 27  1  0  0  0  0
 27 28  1  0  0  0  0
 28 29  1  0  0  0  0
 28 56  1  0  0  0  0
 28 57  1  0  0  0  0
 29 58  1  0  0  0  0
 29 59  1  0  0  0  0
 29 60  1  0  0  0  0
M  END
>  <DRUGBANK_ID>
DB08014

>  <COMMON_NAME>
(METHYLPYRIDAZINE PIPERIDINE BUTYLOXYPHENYL)ETHYLACETATE

$$$$
