
 OpenBabel10282417123D

 18 17  0  0  1  0  0  0  0  0999 V2000
    0.8161   -0.0591   -0.0630 O   0  0  0  0  0  0  0  0  0  0  0  0
    0.4636   -0.8777   -1.1817 C   0  0  0  0  0  0  0  0  0  0  0  0
    1.0069   -0.2592   -2.4788 C   0  0  1  0  0  0  0  0  0  0  0  0
    2.4404   -0.2406   -2.4519 O   0  0  0  0  0  0  0  0  0  0  0  0
    3.0171    0.6931   -1.1145 P   0  0  0  0  0  0  0  0  0  0  0  0
    4.3771   -0.1949   -1.2809 O   0  0  0  0  0  0  0  0  0  0  0  0
    3.3725    1.8271   -2.2391 O   0  0  0  0  0  0  0  0  0  0  0  0
    3.5332    1.5287    0.0825 O   0  0  0  0  0  0  0  0  0  0  0  0
    0.5194   -1.1075   -3.6420 C   0  0  0  0  0  0  0  0  0  0  0  0
   -0.2672   -0.4681   -4.5362 O   0  0  0  0  0  0  0  0  0  0  0  0
    0.7834   -2.3000   -3.7631 O   0  0  0  0  0  0  0  0  0  0  0  0
    1.4777   -0.5270    0.4846 H   0  0  0  0  0  0  0  0  0  0  0  0
    0.8679   -1.8813   -1.0141 H   0  0  0  0  0  0  0  0  0  0  0  0
   -0.6282   -0.9344   -1.2066 H   0  0  0  0  0  0  0  0  0  0  0  0
    0.6601    0.7755   -2.5849 H   0  0  0  0  0  0  0  0  0  0  0  0
    4.4407   -0.8871   -0.6039 H   0  0  0  0  0  0  0  0  0  0  0  0
    2.7879    1.7855   -3.0089 H   0  0  0  0  0  0  0  0  0  0  0  0
   -0.4349    0.4838   -4.4027 H   0  0  0  0  0  0  0  0  0  0  0  0
  1  2  1  0  0  0  0
  1 12  1  0  0  0  0
  2  3  1  0  0  0  0
  2 13  1  0  0  0  0
  2 14  1  0  0  0  0
  3  4  1  0  0  0  0
  3  9  1  0  0  0  0
  3 15  1  6  0  0  0
  4  5  1  0  0  0  0
  5  6  1  0  0  0  0
  5  7  1  0  0  0  0
  5  8  2  0  0  0  0
  6 16  1  0  0  0  0
  7 17  1  0  0  0  0
  9 10  1  0  0  0  0
  9 11  2  0  0  0  0
 10 18  1  0  0  0  0
M  END
>  <DRUGBANK_ID>
DB01709

>  <SECONDARY_ACCESSION_NUMBERS>
EXPT00143; EXPT02490; DB03465

>  <COMMON_NAME>
2-phospho-D-glyceric acid

>  <UNII>
DZ2LFC6KEU

>  <SYNONYMS>
2-phospho-D-glycerate; D-glycerate 2-phosphate

$$$$
