1020
 OpenBabel10282417113D

 22 23  0  0  1  0  0  0  0  0999 V2000
    1.5125    0.8793   -0.3368 O   0  0  0  0  0  0  0  0  0  0  0  0
   -1.5572   -0.8405   -0.3683 O   0  0  0  0  0  0  0  0  0  0  0  0
    0.1571   -1.5229    1.6837 O   0  0  0  0  0  0  0  0  0  0  0  0
   -1.2021    2.6031    0.2953 O   0  0  0  0  0  0  0  0  0  0  0  0
   -1.0001   -3.1964    0.6596 O   0  5  0  0  0  0  0  0  0  0  0  0
   -1.4965   -2.5347    2.7317 O   0  0  0  0  0  0  0  0  0  0  0  0
   -0.8733   -2.5060    1.6770 N   0  3  0  0  0  0  0  0  0  0  0  0
   -0.1617   -0.7268   -0.6579 C   0  0  1  0  0  0  0  0  0  0  0  0
    0.1293    0.7543   -0.6575 C   0  0  1  0  0  0  0  0  0  0  0  0
    0.7796   -1.3040    0.4150 C   0  0  1  0  0  0  0  0  0  0  0  0
   -0.7858    1.2590    0.4549 C   0  0  2  0  0  0  0  0  0  0  0  0
    1.8287   -0.1797    0.5837 C   0  0  0  0  0  0  0  0  0  0  0  0
   -1.9696    0.3136    0.3720 C   0  0  0  0  0  0  0  0  0  0  0  0
    0.0638   -1.1979   -1.6217 H   0  0  0  0  0  0  0  0  0  0  0  0
   -0.0952    1.2322   -1.6178 H   0  0  0  0  0  0  0  0  0  0  0  0
   -1.9242    2.7448    0.9343 H   0  0  0  0  0  0  0  0  0  0  0  0
    1.3020   -2.2134    0.0918 H   0  0  0  0  0  0  0  0  0  0  0  0
   -0.2942    1.1886    1.4314 H   0  0  0  0  0  0  0  0  0  0  0  0
    2.8509   -0.5078    0.3758 H   0  0  0  0  0  0  0  0  0  0  0  0
    1.8192    0.2494    1.5935 H   0  0  0  0  0  0  0  0  0  0  0  0
   -2.2792    0.0099    1.3781 H   0  0  0  0  0  0  0  0  0  0  0  0
   -2.8354    0.7554   -0.1259 H   0  0  0  0  0  0  0  0  0  0  0  0
  1  9  1  0  0  0  0
  1 12  1  0  0  0  0
  2  8  1  0  0  0  0
  2 13  1  0  0  0  0
  3  7  1  0  0  0  0
  4 16  1  0  0  0  0
  5  7  1  0  0  0  0
  6  7  2  0  0  0  0
  8  9  1  0  0  0  0
  8 10  1  0  0  0  0
  8 14  1  6  0  0  0
  9 11  1  0  0  0  0
  9 15  1  6  0  0  0
 10 12  1  0  0  0  0
 10 17  1  6  0  0  0
 10  3  1  0  0  0  0
 11 13  1  0  0  0  0
 11 18  1  1  0  0  0
 11  4  1  0  0  0  0
 12 19  1  0  0  0  0
 12 20  1  0  0  0  0
 13 21  1  0  0  0  0
 13 22  1  0  0  0  0
M  CHG  2   5  -1   7   1
M  END
>  <DRUGBANK_ID>
DB01020

>  <SECONDARY_ACCESSION_NUMBERS>
APRD00528

>  <COMMON_NAME>
Isosorbide mononitrate

>  <CAS_NUMBER>
16051-77-7

>  <UNII>
LX1OH63030

>  <SYNONYMS>
IS 5-MN; IS-5-MN; IS-5MN; ISMN; Iso-5-mononitrate; Isosorbide 5-mononitrate; Isosorbide 5-nitrate; Isosorbide mononitrate; Isosorbide-5-mononitrate; Isosorbidi mononitras; Mononitrate d'isosorbide; Mononitrato de isosorbida; Monosorbitrate

$$$$
