
 OpenBabel10282417233D

 42 47  0  0  0  0  0  0  0  0999 V2000
    0.9739   -0.0810   -0.0673 C   0  0  0  0  0  0  0  0  0  0  0  0
    0.6369    1.3459    0.1007 C   0  0  0  0  0  0  0  0  0  0  0  0
    1.4397    2.4716   -0.2281 C   0  0  0  0  0  0  0  0  0  0  0  0
    3.1051    2.5586   -1.0006 C   0  0  0  0  0  0  0  0  0  0  0  0
    4.3780    2.2973   -0.5243 N   0  0  0  0  0  0  0  0  0  0  0  0
    5.3532    1.9422   -1.7319 C   0  0  0  0  0  0  0  0  0  0  0  0
    4.8446    2.7671   -2.7705 C   0  0  0  0  0  0  0  0  0  0  0  0
    3.3739    2.4326   -2.4112 N   0  0  0  0  0  0  0  0  0  0  0  0
    6.2194    3.7522   -3.0916 C   0  0  0  0  0  0  0  0  0  0  0  0
    7.9675    3.9763   -3.2338 C   0  0  0  0  0  0  0  0  0  0  0  0
    8.6829    4.8046   -3.8798 C   0  0  0  0  0  0  0  0  0  0  0  0
    7.8804    4.1516   -4.9047 C   0  0  0  0  0  0  0  0  0  0  0  0
    6.7003    3.1264   -4.8610 N   0  0  0  0  0  0  0  0  0  0  0  0
    6.4420    2.6524   -3.6140 C   0  0  0  0  0  0  0  0  0  0  0  0
    7.0924    2.3106   -2.2458 C   0  0  0  0  0  0  0  0  0  0  0  0
    6.6550    1.1650   -2.4651 C   0  0  0  0  0  0  0  0  0  0  0  0
    7.8224    1.0283   -3.7753 C   0  0  0  0  0  0  0  0  0  0  0  0
    8.7935    0.2308   -3.9383 C   0  0  0  0  0  0  0  0  0  0  0  0
    9.0767    0.8782   -2.6681 C   0  0  0  0  0  0  0  0  0  0  0  0
    8.2614    1.8578   -1.7325 N   0  0  0  0  0  0  0  0  0  0  0  0
    0.5156    3.5711    0.2097 C   0  0  0  0  0  0  0  0  0  0  0  0
   -0.6992    3.0795    0.7722 C   0  0  0  0  0  0  0  0  0  0  0  0
   -0.5986    1.7053    0.6947 N   0  0  0  0  0  0  0  0  0  0  0  0
   -1.7451    3.9154    1.2876 C   0  0  0  0  0  0  0  0  0  0  0  0
   -1.5579    5.3006    1.2246 C   0  0  0  0  0  0  0  0  0  0  0  0
   -0.3919    5.8047    0.6681 C   0  0  0  0  0  0  0  0  0  0  0  0
   -0.2209    7.1326    0.5982 F   0  0  0  0  0  0  0  0  0  0  0  0
    0.6211    4.9709    0.1720 C   0  0  0  0  0  0  0  0  0  0  0  0
    0.6044   -0.4452   -1.0291 H   0  0  0  0  0  0  0  0  0  0  0  0
    0.5947   -0.7250    0.7346 H   0  0  0  0  0  0  0  0  0  0  0  0
    2.0614   -0.1401   -0.0622 H   0  0  0  0  0  0  0  0  0  0  0  0
    2.7832    1.6875   -2.8412 H   0  0  0  0  0  0  0  0  0  0  0  0
    9.0853    3.1747   -3.6193 H   0  0  0  0  0  0  0  0  0  0  0  0
    9.3240    4.4426   -2.7684 H   0  0  0  0  0  0  0  0  0  0  0  0
    8.3388    3.3465   -5.5352 H   0  0  0  0  0  0  0  0  0  0  0  0
    8.7655    1.8706   -4.4238 H   0  0  0  0  0  0  0  0  0  0  0  0
    8.2483    0.5793   -5.1096 H   0  0  0  0  0  0  0  0  0  0  0  0
    9.8114    1.7268   -2.6371 H   0  0  0  0  0  0  0  0  0  0  0  0
   -1.3353    1.0808    1.0452 H   0  0  0  0  0  0  0  0  0  0  0  0
   -2.6741    3.5335    1.7260 H   0  0  0  0  0  0  0  0  0  0  0  0
   -2.3104    5.9927    1.6041 H   0  0  0  0  0  0  0  0  0  0  0  0
    1.5137    5.3978   -0.2521 H   0  0  0  0  0  0  0  0  0  0  0  0
  1  2  1  0  0  0  0
  1 29  1  0  0  0  0
  1 30  1  0  0  0  0
  1 31  1  0  0  0  0
  2  3  2  0  0  0  0
  2 23  1  0  0  0  0
  3  4  1  0  0  0  0
  3 21  1  0  0  0  0
  4  5  2  0  0  0  0
  4  8  1  0  0  0  0
  5  6  1  0  0  0  0
  6  7  2  0  0  0  0
  6 16  1  0  0  0  0
  7  8  1  0  0  0  0
  7  9  1  0  0  0  0
  8 32  1  0  0  0  0
  9 10  2  0  0  0  0
  9 14  1  0  0  0  0
 10 11  1  0  0  0  0
 10 33  1  0  0  0  0
 11 12  2  0  0  0  0
 11 34  1  0  0  0  0
 12 13  1  0  0  0  0
 12 35  1  0  0  0  0
 13 14  2  0  0  0  0
 14 15  1  0  0  0  0
 15 16  2  0  0  0  0
 15 20  1  0  0  0  0
 16 17  1  0  0  0  0
 17 18  2  0  0  0  0
 17 36  1  0  0  0  0
 18 19  1  0  0  0  0
 18 37  1  0  0  0  0
 19 20  2  0  0  0  0
 19 38  1  0  0  0  0
 21 22  2  0  0  0  0
 21 28  1  0  0  0  0
 22 23  1  0  0  0  0
 22 24  1  0  0  0  0
 23 39  1  0  0  0  0
 24 25  2  0  0  0  0
 24 40  1  0  0  0  0
 25 26  1  0  0  0  0
 25 41  1  0  0  0  0
 26 27  1  0  0  0  0
 26 28  2  0  0  0  0
 28 42  1  0  0  0  0
M  END
>  <DRUGBANK_ID>
DB17143

>  <COMMON_NAME>
APTO-253

>  <CAS_NUMBER>
916151-99-0

>  <UNII>
WB59MRW00U

>  <SYNONYMS>
1h-imidazo(4,5-f)(1,10)phenanthroline, 2-(5-fluoro-2-methyl-1h-indol-3-yl)-; 2-(5-fluoro-2-methyl-1h-indol-3-yl)-1h-imidazo(4,5-f)(1,10)phenanthroline; 2-(5-fluoro-2-methyl-1H-indol-3-yl)-1H-imidazo[4,5-f][1,10] phenanthroline; Lor-253(former code); Lt-253(former code)

$$$$
