
 OpenBabel10282417183D

 45 47  0  0  0  0  0  0  0  0999 V2000
   -1.2568   -1.4904    0.0361 N   0  0  0  0  0  0  0  0  0  0  0  0
   -3.9832    4.0549    0.3920 N   0  0  0  0  0  0  0  0  0  0  0  0
   -1.8770    0.9051    0.0592 C   0  0  3  0  0  0  0  0  0  0  0  0
   -2.4178   -0.5830    0.0159 C   0  0  0  0  0  0  0  0  0  0  0  0
   -2.5077    1.7876   -1.0611 C   0  0  0  0  0  0  0  0  0  0  0  0
   -0.3767    0.6727   -0.0749 C   0  0  0  0  0  0  0  0  0  0  0  0
   -0.1020   -0.6894   -0.0394 C   0  0  0  0  0  0  0  0  0  0  0  0
   -2.0707    1.5509    1.4376 C   0  0  0  0  0  0  0  0  0  0  0  0
   -4.0505    2.0132   -1.0309 C   0  0  0  0  0  0  0  0  0  0  0  0
    0.6778    1.5872   -0.0642 C   0  0  0  0  0  0  0  0  0  0  0  0
   -1.2989   -2.8711    0.1201 C   0  0  0  0  0  0  0  0  0  0  0  0
    1.2068   -1.1652   -0.0557 C   0  0  0  0  0  0  0  0  0  0  0  0
   -4.6787    2.7945    0.1423 C   0  0  0  0  0  0  0  0  0  0  0  0
    1.9972    1.1062   -0.0350 C   0  0  0  0  0  0  0  0  0  0  0  0
    2.2635   -0.2618   -0.0367 C   0  0  0  0  0  0  0  0  0  0  0  0
   -0.5471   -3.5307    1.1130 C   0  0  0  0  0  0  0  0  0  0  0  0
   -1.9087   -3.6640   -0.8597 C   0  0  0  0  0  0  0  0  0  0  0  0
   -0.3089   -4.9005    1.0690 C   0  0  0  0  0  0  0  0  0  0  0  0
   -1.7351   -5.0532   -0.8636 C   0  0  0  0  0  0  0  0  0  0  0  0
   -0.9047   -5.6686    0.0747 C   0  0  0  0  0  0  0  0  0  0  0  0
   -4.2686    4.5979    1.7126 C   0  0  0  0  0  0  0  0  0  0  0  0
   -2.9761    3.9413    0.3075 H   0  0  0  0  0  0  0  0  0  0  0  0
   -3.0163   -0.7685   -0.8841 H   0  0  0  0  0  0  0  0  0  0  0  0
   -3.0592   -0.7778    0.8848 H   0  0  0  0  0  0  0  0  0  0  0  0
   -2.0083    2.7649   -1.0892 H   0  0  0  0  0  0  0  0  0  0  0  0
   -2.2720    1.3406   -2.0389 H   0  0  0  0  0  0  0  0  0  0  0  0
   -1.6257    0.9697    2.2484 H   0  0  0  0  0  0  0  0  0  0  0  0
   -1.6338    2.5577    1.4628 H   0  0  0  0  0  0  0  0  0  0  0  0
   -3.1145    1.6329    1.7065 H   0  0  0  0  0  0  0  0  0  0  0  0
   -4.3189    2.5581   -1.9470 H   0  0  0  0  0  0  0  0  0  0  0  0
   -4.5565    1.0432   -1.1072 H   0  0  0  0  0  0  0  0  0  0  0  0
    0.4996    2.6548   -0.0329 H   0  0  0  0  0  0  0  0  0  0  0  0
    1.4175   -2.2276   -0.0602 H   0  0  0  0  0  0  0  0  0  0  0  0
   -5.7270    3.0136   -0.0951 H   0  0  0  0  0  0  0  0  0  0  0  0
   -4.7503    2.1562    1.0271 H   0  0  0  0  0  0  0  0  0  0  0  0
    2.8338    1.8017    0.0016 H   0  0  0  0  0  0  0  0  0  0  0  0
    3.2820   -0.6394   -0.0122 H   0  0  0  0  0  0  0  0  0  0  0  0
   -0.0828   -2.9393    1.9016 H   0  0  0  0  0  0  0  0  0  0  0  0
   -2.4466   -3.1964   -1.6796 H   0  0  0  0  0  0  0  0  0  0  0  0
    0.3605   -5.3578    1.7933 H   0  0  0  0  0  0  0  0  0  0  0  0
   -2.2152   -5.6589   -1.6295 H   0  0  0  0  0  0  0  0  0  0  0  0
   -0.7128   -6.7354    0.0267 H   0  0  0  0  0  0  0  0  0  0  0  0
   -3.8610    3.9624    2.5066 H   0  0  0  0  0  0  0  0  0  0  0  0
   -3.7927    5.5799    1.8029 H   0  0  0  0  0  0  0  0  0  0  0  0
   -5.3421    4.7295    1.8702 H   0  0  0  0  0  0  0  0  0  0  0  0
  1  4  1  0  0  0  0
  1  7  1  0  0  0  0
  1 11  1  0  0  0  0
  2 13  1  0  0  0  0
  2 21  1  0  0  0  0
  2 22  1  0  0  0  0
  3  4  1  0  0  0  0
  3  5  1  0  0  0  0
  3  6  1  0  0  0  0
  3  8  1  0  0  0  0
  4 23  1  0  0  0  0
  4 24  1  0  0  0  0
  5  9  1  0  0  0  0
  5 25  1  0  0  0  0
  5 26  1  0  0  0  0
  6  7  1  0  0  0  0
  6 10  2  0  0  0  0
  7 12  2  0  0  0  0
  8 27  1  0  0  0  0
  8 28  1  0  0  0  0
  8 29  1  0  0  0  0
  9 13  1  0  0  0  0
  9 30  1  0  0  0  0
  9 31  1  0  0  0  0
 10 14  1  0  0  0  0
 10 32  1  0  0  0  0
 11 16  2  0  0  0  0
 11 17  1  0  0  0  0
 12 15  1  0  0  0  0
 12 33  1  0  0  0  0
 13 34  1  0  0  0  0
 13 35  1  0  0  0  0
 14 15  2  0  0  0  0
 14 36  1  0  0  0  0
 15 37  1  0  0  0  0
 16 18  1  0  0  0  0
 16 38  1  0  0  0  0
 17 19  2  0  0  0  0
 17 39  1  0  0  0  0
 18 20  2  0  0  0  0
 18 40  1  0  0  0  0
 19 20  1  0  0  0  0
 19 41  1  0  0  0  0
 20 42  1  0  0  0  0
 21 43  1  0  0  0  0
 21 44  1  0  0  0  0
 21 45  1  0  0  0  0
M  END
>  <DRUGBANK_ID>
DB09189

>  <COMMON_NAME>
Daledalin

>  <CAS_NUMBER>
22136-27-2

>  <UNII>
IT56261A5A

>  <SYNONYMS>
Daledalin

$$$$
