C0E
 OpenBabel10282417163D

 26 26  0  0  0  0  0  0  0  0999 V2000
    0.9715    0.0438    0.1016 O   0  0  0  0  0  0  0  0  0  0  0  0
    0.2897    0.1228    1.2503 C   0  0  0  0  0  0  0  0  0  0  0  0
    0.8927    0.1961    2.3129 O   0  0  0  0  0  0  0  0  0  0  0  0
   -1.2037    0.1129    1.1051 C   0  0  0  0  0  0  0  0  0  0  0  0
   -1.9160    0.1948    2.3108 O   0  0  0  0  0  0  0  0  0  0  0  0
   -1.8713    0.0343   -0.0676 C   0  0  0  0  0  0  0  0  0  0  0  0
   -3.2282    0.0384    0.0016 F   0  0  0  0  0  0  0  0  0  0  0  0
   -1.3226   -0.0532   -1.4057 C   0  0  0  0  0  0  0  0  0  0  0  0
   -1.9931   -0.1331   -2.5620 C   0  0  0  0  0  0  0  0  0  0  0  0
   -1.1849   -0.2345   -3.8188 C   0  0  0  0  0  0  0  0  0  0  0  0
    0.0402   -0.2868   -3.8286 O   0  0  0  0  0  0  0  0  0  0  0  0
   -1.9246   -0.3121   -5.0948 C   0  0  0  0  0  0  0  0  0  0  0  0
   -1.5014   -1.2249   -6.0723 C   0  0  0  0  0  0  0  0  0  0  0  0
   -3.0119    0.5334   -5.3406 C   0  0  0  0  0  0  0  0  0  0  0  0
   -3.6982    0.4396   -6.5507 C   0  0  0  0  0  0  0  0  0  0  0  0
   -3.2862   -0.4832   -7.5073 C   0  0  0  0  0  0  0  0  0  0  0  0
   -3.9520   -0.5683   -8.6657 F   0  0  0  0  0  0  0  0  0  0  0  0
   -2.1929   -1.3133   -7.2819 C   0  0  0  0  0  0  0  0  0  0  0  0
    1.9269    0.0572    0.3022 H   0  0  0  0  0  0  0  0  0  0  0  0
   -2.8695    0.1814    2.1171 H   0  0  0  0  0  0  0  0  0  0  0  0
   -0.2481   -0.0615   -1.5114 H   0  0  0  0  0  0  0  0  0  0  0  0
   -3.0718   -0.1511   -2.6093 H   0  0  0  0  0  0  0  0  0  0  0  0
   -0.6423   -1.8691   -5.8918 H   0  0  0  0  0  0  0  0  0  0  0  0
   -3.3162    1.2789   -4.6112 H   0  0  0  0  0  0  0  0  0  0  0  0
   -4.5469    1.0836   -6.7568 H   0  0  0  0  0  0  0  0  0  0  0  0
   -1.8881   -2.0194   -8.0483 H   0  0  0  0  0  0  0  0  0  0  0  0
  1 19  1  0  0  0  0
  2  1  1  0  0  0  0
  3  2  2  0  0  0  0
  4  6  2  0  0  0  0
  4  2  1  0  0  0  0
  5  4  1  0  0  0  0
  5 20  1  0  0  0  0
  6  8  1  0  0  0  0
  7  6  1  0  0  0  0
  8  9  2  0  0  0  0
  8 21  1  0  0  0  0
  9 10  1  0  0  0  0
  9 22  1  0  0  0  0
 10 12  1  0  0  0  0
 11 10  2  0  0  0  0
 12 13  2  0  0  0  0
 12 14  1  0  0  0  0
 13 18  1  0  0  0  0
 13 23  1  0  0  0  0
 14 15  2  0  0  0  0
 14 24  1  0  0  0  0
 15 16  1  0  0  0  0
 15 25  1  0  0  0  0
 16 17  1  0  0  0  0
 18 16  2  0  0  0  0
 18 26  1  0  0  0  0
M  END
>  <DRUGBANK_ID>
DB07510

>  <COMMON_NAME>
3-fluoro-6-(4-fluorophenyl)-2-hydroxy-6-oxohexa-2,4-dienoic acid

$$$$
