
 OpenBabel10282417133D

 16 16  0  0  1  0  0  0  0  0999 V2000
   -1.5087   -0.7729    0.0284 C   0  0  1  0  0  0  0  0  0  0  0  0
   -0.1038   -1.1147    0.0287 N   0  0  0  0  0  0  0  0  0  0  0  0
   -1.5049    0.7245   -0.2782 C   0  0  0  0  0  0  0  0  0  0  0  0
   -2.3709   -1.5311   -0.9900 C   0  0  0  0  0  0  0  0  0  0  0  0
    0.7070    0.0023    0.0477 C   0  0  0  0  0  0  0  0  0  0  0  0
   -0.1563    1.2192    0.2223 C   0  0  0  0  0  0  0  0  0  0  0  0
   -1.9753   -2.7951   -1.2653 O   0  0  0  0  0  0  0  0  0  0  0  0
   -3.4093   -1.0797   -1.4550 O   0  0  0  0  0  0  0  0  0  0  0  0
    1.9241   -0.0253   -0.0196 O   0  0  0  0  0  0  0  0  0  0  0  0
   -1.9008   -0.9727    1.0326 H   0  0  0  0  0  0  0  0  0  0  0  0
    0.3325   -2.0266    0.0097 H   0  0  0  0  0  0  0  0  0  0  0  0
   -2.3426    1.2523    0.1889 H   0  0  0  0  0  0  0  0  0  0  0  0
   -1.5707    0.9008   -1.3596 H   0  0  0  0  0  0  0  0  0  0  0  0
   -0.1891    1.4854    1.2839 H   0  0  0  0  0  0  0  0  0  0  0  0
    0.2121    2.0629   -0.3659 H   0  0  0  0  0  0  0  0  0  0  0  0
   -1.1833   -3.1045   -0.7934 H   0  0  0  0  0  0  0  0  0  0  0  0
  1  2  1  0  0  0  0
  1  3  1  0  0  0  0
  1 10  1  1  0  0  0
  1  4  1  0  0  0  0
  2  5  1  0  0  0  0
  2 11  1  0  0  0  0
  3  6  1  0  0  0  0
  3 12  1  0  0  0  0
  3 13  1  0  0  0  0
  4  7  1  0  0  0  0
  4  8  2  0  0  0  0
  5  9  2  0  0  0  0
  5  6  1  0  0  0  0
  6 14  1  0  0  0  0
  6 15  1  0  0  0  0
  7 16  1  0  0  0  0
M  END
>  <DRUGBANK_ID>
DB03088

>  <SECONDARY_ACCESSION_NUMBERS>
EXPT00247

>  <COMMON_NAME>
Pidolic acid

>  <CAS_NUMBER>
98-79-3

>  <UNII>
SZB83O1W42

>  <SYNONYMS>
(−)-2-pyrrolidone-5-carboxylic acid; (S)-(−)-2-pyrrolidone-5-carboxylic acid; (S)-pyroglutamic acid; 5-L-oxoproline; 5-oxo-2-pyrrolidinecarboxylic acid; 5-oxo-L-proline; 5-Pyrrolidone-2-carboxylic acid; Glutimic acid; L-5-Pyrrolidone-2-carboxylic acid; L-pyroglutamic acid; L-pyrrolidone carboxylic acid; PCA; Pidolic acid; Pyroglutamic acid

$$$$
