
 OpenBabel10282417173D

 37 39  0  0  0  0  0  0  0  0999 V2000
    2.4201   -0.6736   -0.0338 C   0  0  0  0  0  0  0  0  0  0  0  0
    2.3731    0.7288   -0.0425 C   0  0  0  0  0  0  0  0  0  0  0  0
    1.2710   -1.4476   -0.0156 C   0  0  0  0  0  0  0  0  0  0  0  0
    1.1779    1.4304   -0.0256 C   0  0  0  0  0  0  0  0  0  0  0  0
   -2.9220   -2.7531    1.1729 C   0  0  0  0  0  0  0  0  0  0  0  0
   -1.8899   -2.5853    0.0303 C   0  0  0  0  0  0  0  0  0  0  0  0
   -4.8752   -1.7678   -0.3208 C   0  0  0  0  0  0  0  0  0  0  0  0
   -4.6277   -0.8265    2.0362 C   0  0  0  0  0  0  0  0  0  0  0  0
   -4.6579   -0.3656   -0.9019 C   0  0  0  0  0  0  0  0  0  0  0  0
   -4.4624    0.5894    1.4735 C   0  0  0  0  0  0  0  0  0  0  0  0
   -1.9363   -0.0911    0.1054 C   0  0  0  0  0  0  0  0  0  0  0  0
   -4.3217   -2.0267    1.0953 C   0  0  0  0  0  0  0  0  0  0  0  0
   -1.2453   -1.2513    0.0077 C   0  0  0  0  0  0  0  0  0  0  0  0
    0.0635   -0.7732   -0.0241 C   0  0  0  0  0  0  0  0  0  0  0  0
    0.0533    0.6392   -0.0269 C   0  0  0  0  0  0  0  0  0  0  0  0
   -4.9202    0.7408    0.0628 N   0  0  0  0  0  0  0  0  0  0  0  0
   -1.2373    1.0325   -0.0103 N   0  0  0  0  0  0  0  0  0  0  0  0
    3.3692   -1.1892   -0.0411 H   0  0  0  0  0  0  0  0  0  0  0  0
    3.2935    1.2955   -0.0634 H   0  0  0  0  0  0  0  0  0  0  0  0
    1.2703   -2.5291    0.0157 H   0  0  0  0  0  0  0  0  0  0  0  0
    1.1086    2.5132   -0.0122 H   0  0  0  0  0  0  0  0  0  0  0  0
   -3.1543   -3.8315    1.1717 H   0  0  0  0  0  0  0  0  0  0  0  0
   -2.4372   -2.5764    2.1424 H   0  0  0  0  0  0  0  0  0  0  0  0
   -2.3724   -2.7806   -0.9359 H   0  0  0  0  0  0  0  0  0  0  0  0
   -1.1186   -3.3600    0.1222 H   0  0  0  0  0  0  0  0  0  0  0  0
   -4.4936   -2.5262   -1.0141 H   0  0  0  0  0  0  0  0  0  0  0  0
   -5.9576   -1.9148   -0.2844 H   0  0  0  0  0  0  0  0  0  0  0  0
   -5.6940   -0.8906    2.2849 H   0  0  0  0  0  0  0  0  0  0  0  0
   -4.0885   -0.9277    2.9875 H   0  0  0  0  0  0  0  0  0  0  0  0
   -3.6711   -0.3246   -1.3915 H   0  0  0  0  0  0  0  0  0  0  0  0
   -5.2779   -0.2150   -1.7909 H   0  0  0  0  0  0  0  0  0  0  0  0
   -4.9883    1.3248    2.0907 H   0  0  0  0  0  0  0  0  0  0  0  0
   -3.4288    0.9230    1.6711 H   0  0  0  0  0  0  0  0  0  0  0  0
   -2.9313   -0.0565    0.2659 H   0  0  0  0  0  0  0  0  0  0  0  0
   -4.9710   -2.8068    1.5233 H   0  0  0  0  0  0  0  0  0  0  0  0
   -4.5176    1.5988   -0.3202 H   0  0  0  0  0  0  0  0  0  0  0  0
   -1.6217    1.9749    0.0181 H   0  0  0  0  0  0  0  0  0  0  0  0
  1 18  1  0  0  0  0
  2  1  2  0  0  0  0
  2 19  1  0  0  0  0
  3  1  1  0  0  0  0
  3 20  1  0  0  0  0
  4  2  1  0  0  0  0
  4 21  1  0  0  0  0
  5 22  1  0  0  0  0
  5 23  1  0  0  0  0
  6  5  1  0  0  0  0
  6 24  1  0  0  0  0
  6 25  1  0  0  0  0
  7 26  1  0  0  0  0
  7 27  1  0  0  0  0
  8 28  1  0  0  0  0
  8 29  1  0  0  0  0
  9  7  1  0  0  0  0
  9 30  1  0  0  0  0
  9 31  1  0  0  0  0
 10  8  1  0  0  0  0
 10 32  1  0  0  0  0
 10 33  1  0  0  0  0
 11 34  1  0  0  0  0
 12  5  1  0  0  0  0
 12  7  1  0  0  0  0
 12  8  1  0  0  0  0
 12 35  1  0  0  0  0
 13  6  1  0  0  0  0
 13 11  2  0  0  0  0
 14  3  2  0  0  0  0
 14 13  1  0  0  0  0
 15  4  2  0  0  0  0
 15 14  1  0  0  0  0
 16  9  1  0  0  0  0
 16 10  1  0  0  0  0
 16 36  1  0  0  0  0
 17 11  1  0  0  0  0
 17 15  1  0  0  0  0
 17 37  1  0  0  0  0
M  END
>  <DRUGBANK_ID>
DB08953

>  <COMMON_NAME>
Indalpine

>  <CAS_NUMBER>
63758-79-2

>  <UNII>
V35562QSVT

>  <SYNONYMS>
Indalpine

$$$$
