
 OpenBabel10282417193D

 49 51  0  0  0  0  0  0  0  0999 V2000
    0.9062   -0.1367    0.0360 C   0  0  0  0  0  0  0  0  0  0  0  0
    0.3668    0.8923    1.0012 C   0  0  0  0  0  0  0  0  0  0  0  0
    0.8683    2.2701    0.6531 C   0  0  0  0  0  0  0  0  0  0  0  0
    0.4133    2.7800   -0.6311 N   0  0  0  0  0  0  0  0  0  0  0  0
   -0.3605    3.8917   -0.8922 C   0  0  0  0  0  0  0  0  0  0  0  0
   -0.7752    4.0667   -2.0435 O   0  0  0  0  0  0  0  0  0  0  0  0
   -0.6916    4.8590    0.1883 C   0  0  0  0  0  0  0  0  0  0  0  0
    0.2371    5.2905    1.1494 C   0  0  0  0  0  0  0  0  0  0  0  0
   -0.2320    6.1678    2.1492 C   0  0  0  0  0  0  0  0  0  0  0  0
    0.6152    6.6649    3.1662 C   0  0  0  0  0  0  0  0  0  0  0  0
    0.1608    7.5565    4.1224 C   0  0  0  0  0  0  0  0  0  0  0  0
   -1.1618    7.9553    4.0880 C   0  0  0  0  0  0  0  0  0  0  0  0
   -2.0152    7.5280    3.0498 C   0  0  0  0  0  0  0  0  0  0  0  0
   -1.5735    6.5923    2.0997 C   0  0  0  0  0  0  0  0  0  0  0  0
   -2.3984    6.1451    1.1316 N   0  0  0  0  0  0  0  0  0  0  0  0
   -1.9776    5.2624    0.1843 N   0  0  0  0  0  0  0  0  0  0  0  0
   -3.3517    8.1370    2.9470 C   0  0  0  0  0  0  0  0  0  0  0  0
   -4.4477    7.2720    3.1342 C   0  0  0  0  0  0  0  0  0  0  0  0
   -5.7582    7.7305    3.2039 C   0  0  0  0  0  0  0  0  0  0  0  0
   -5.9892    9.0969    3.0902 C   0  0  0  0  0  0  0  0  0  0  0  0
   -4.9166    9.9785    2.8866 C   0  0  0  0  0  0  0  0  0  0  0  0
   -3.5995    9.5074    2.7435 C   0  0  0  0  0  0  0  0  0  0  0  0
   -2.6983   10.4913    2.4072 O   0  0  0  0  0  0  0  0  0  0  0  0
   -1.4017   10.1191    1.9464 C   0  0  0  0  0  0  0  0  0  0  0  0
   -6.8471    6.9272    3.4156 O   0  0  0  0  0  0  0  0  0  0  0  0
   -6.5606    5.5387    3.5953 C   0  0  0  0  0  0  0  0  0  0  0  0
    1.6357    5.0660    1.0297 N   0  0  0  0  0  0  0  0  0  0  0  0
    0.5579    0.0640   -0.9808 H   0  0  0  0  0  0  0  0  0  0  0  0
    0.5710   -1.1325    0.3291 H   0  0  0  0  0  0  0  0  0  0  0  0
    2.0013   -0.1191    0.0322 H   0  0  0  0  0  0  0  0  0  0  0  0
   -0.7277    0.8858    1.0184 H   0  0  0  0  0  0  0  0  0  0  0  0
    0.7151    0.6612    2.0159 H   0  0  0  0  0  0  0  0  0  0  0  0
    0.5229    2.9049    1.4644 H   0  0  0  0  0  0  0  0  0  0  0  0
    1.9638    2.2810    0.6277 H   0  0  0  0  0  0  0  0  0  0  0  0
    0.5969    2.2369   -1.4698 H   0  0  0  0  0  0  0  0  0  0  0  0
    1.6605    6.3793    3.2197 H   0  0  0  0  0  0  0  0  0  0  0  0
    0.8502    7.9818    4.8458 H   0  0  0  0  0  0  0  0  0  0  0  0
   -1.5044    8.7129    4.7924 H   0  0  0  0  0  0  0  0  0  0  0  0
   -4.2313    6.2119    3.2233 H   0  0  0  0  0  0  0  0  0  0  0  0
   -7.0042    9.4830    3.1490 H   0  0  0  0  0  0  0  0  0  0  0  0
   -5.1153   11.0477    2.8395 H   0  0  0  0  0  0  0  0  0  0  0  0
   -0.7721    9.8678    2.7964 H   0  0  0  0  0  0  0  0  0  0  0  0
   -1.4236    9.3253    1.1911 H   0  0  0  0  0  0  0  0  0  0  0  0
   -0.8989   10.9811    1.5026 H   0  0  0  0  0  0  0  0  0  0  0  0
   -6.1267    5.1076    2.6853 H   0  0  0  0  0  0  0  0  0  0  0  0
   -5.8992    5.3782    4.4561 H   0  0  0  0  0  0  0  0  0  0  0  0
   -7.4956    5.0117    3.8005 H   0  0  0  0  0  0  0  0  0  0  0  0
    2.1366    4.9817    1.9079 H   0  0  0  0  0  0  0  0  0  0  0  0
    1.8956    4.3358    0.3731 H   0  0  0  0  0  0  0  0  0  0  0  0
  1  2  1  0  0  0  0
  1 28  1  0  0  0  0
  1 29  1  0  0  0  0
  1 30  1  0  0  0  0
  2  3  1  0  0  0  0
  2 31  1  0  0  0  0
  2 32  1  0  0  0  0
  3  4  1  0  0  0  0
  3 33  1  0  0  0  0
  3 34  1  0  0  0  0
  4  5  1  0  0  0  0
  4 35  1  0  0  0  0
  5  6  2  0  0  0  0
  5  7  1  0  0  0  0
  7  8  1  0  0  0  0
  7 16  2  0  0  0  0
  8  9  2  0  0  0  0
  8 27  1  0  0  0  0
  9 10  1  0  0  0  0
  9 14  1  0  0  0  0
 10 11  2  0  0  0  0
 10 36  1  0  0  0  0
 11 12  1  0  0  0  0
 11 37  1  0  0  0  0
 12 13  2  0  0  0  0
 12 38  1  0  0  0  0
 13 14  1  0  0  0  0
 13 17  1  0  0  0  0
 14 15  2  0  0  0  0
 15 16  1  0  0  0  0
 17 18  2  0  0  0  0
 17 22  1  0  0  0  0
 18 19  1  0  0  0  0
 18 39  1  0  0  0  0
 19 20  2  0  0  0  0
 19 25  1  0  0  0  0
 20 21  1  0  0  0  0
 20 40  1  0  0  0  0
 21 22  2  0  0  0  0
 21 41  1  0  0  0  0
 22 23  1  0  0  0  0
 23 24  1  0  0  0  0
 24 42  1  0  0  0  0
 24 43  1  0  0  0  0
 24 44  1  0  0  0  0
 25 26  1  0  0  0  0
 26 45  1  0  0  0  0
 26 46  1  0  0  0  0
 26 47  1  0  0  0  0
 27 48  1  0  0  0  0
 27 49  1  0  0  0  0
M  END
>  <DRUGBANK_ID>
DB12210

>  <COMMON_NAME>
AZD-6280

>  <CAS_NUMBER>
942436-93-3

>  <UNII>
B9Z1OEH19D

$$$$
