
 OpenBabel10282417213D

 64 68  0  0  1  0  0  0  0  0999 V2000
    1.2649   -0.2066   -0.2199 C   0  0  0  0  0  0  0  0  0  0  0  0
    0.5840    0.2267   -1.3906 O   0  0  0  0  0  0  0  0  0  0  0  0
    1.0170    1.5188   -1.8447 C   0  0  0  0  0  0  0  0  0  0  0  0
    0.5217    2.7055   -0.9909 C   0  0  0  0  0  0  0  0  0  0  0  0
    1.0507    2.7165    0.3826 N   0  0  0  0  0  0  0  0  0  0  0  0
    0.3759    3.6446    1.2782 C   0  0  0  0  0  0  0  0  0  0  0  0
   -1.1678    3.4619    1.3153 C   0  0  0  0  0  0  0  0  0  0  0  0
   -1.6614    2.0706    1.7969 C   0  0  0  0  0  0  0  0  0  0  0  0
   -1.3871    0.8072    1.1350 C   0  0  0  0  0  0  0  0  0  0  0  0
   -1.4977   -0.4935    1.7834 C   0  0  0  0  0  0  0  0  0  0  0  0
   -0.6783   -1.7884    1.4905 N   0  0  0  0  0  0  0  0  0  0  0  0
   -0.9741   -3.2194    2.1339 C   0  0  0  0  0  0  0  0  0  0  0  0
   -2.2320   -3.4903    1.8617 N   0  0  0  0  0  0  0  0  0  0  0  0
   -2.6319   -4.5906    2.4812 C   0  0  0  0  0  0  0  0  0  0  0  0
   -1.8384   -5.5321    3.2520 C   0  0  0  0  0  0  0  0  0  0  0  0
   -2.2375   -6.8794    3.2555 C   0  0  0  0  0  0  0  0  0  0  0  0
   -1.0182   -7.3925    2.0298 C   0  0  1  0  0  0  0  0  0  0  0  0
    0.7028   -7.2629    1.7476 C   0  0  0  0  0  0  0  0  0  0  0  0
    1.2648   -5.9911    1.6348 C   0  0  0  0  0  0  0  0  0  0  0  0
    2.5452   -5.6272    2.1074 C   0  0  0  0  0  0  0  0  0  0  0  0
    3.4787   -6.6076    2.3518 C   0  0  0  0  0  0  0  0  0  0  0  0
    3.0493   -7.9338    2.3222 C   0  0  0  0  0  0  0  0  0  0  0  0
    1.6919   -8.2647    2.0320 C   0  0  0  0  0  0  0  0  0  0  0  0
    1.3723   -9.5678    2.0996 F   0  0  0  0  0  0  0  0  0  0  0  0
   -0.8907   -8.3179    3.1247 C   0  0  0  0  0  0  0  0  0  0  0  0
   -1.6760   -9.6771    2.6917 C   0  0  0  0  0  0  0  0  0  0  0  0
   -1.6213  -10.8323    3.3634 C   0  0  0  0  0  0  0  0  0  0  0  0
   -0.7876  -10.5494    4.4063 C   0  0  0  0  0  0  0  0  0  0  0  0
   -0.1231   -8.9800    4.7264 C   0  0  0  0  0  0  0  0  0  0  0  0
   -0.0261   -7.5216    4.1180 C   0  0  0  0  0  0  0  0  0  0  0  0
   -0.5553   -5.6283    3.6767 C   0  0  0  0  0  0  0  0  0  0  0  0
   -0.0717   -4.2965    3.0391 N   0  0  0  0  0  0  0  0  0  0  0  0
   -2.1362   -0.4579    2.9985 C   0  0  0  0  0  0  0  0  0  0  0  0
   -2.5082    0.7489    3.6126 C   0  0  0  0  0  0  0  0  0  0  0  0
   -2.3021    2.0008    3.0258 C   0  0  0  0  0  0  0  0  0  0  0  0
    1.1084   -1.2681   -0.0627 H   0  0  0  0  0  0  0  0  0  0  0  0
    0.8316    0.2244    0.6671 H   0  0  0  0  0  0  0  0  0  0  0  0
    2.3223    0.0407   -0.2219 H   0  0  0  0  0  0  0  0  0  0  0  0
    2.1047    1.5236   -1.9338 H   0  0  0  0  0  0  0  0  0  0  0  0
    0.6042    1.6452   -2.8550 H   0  0  0  0  0  0  0  0  0  0  0  0
    0.8178    3.6441   -1.4652 H   0  0  0  0  0  0  0  0  0  0  0  0
   -0.5706    2.6622   -1.0260 H   0  0  0  0  0  0  0  0  0  0  0  0
    0.8291    1.8441    0.8360 H   0  0  0  0  0  0  0  0  0  0  0  0
    0.7808    3.4514    2.2837 H   0  0  0  0  0  0  0  0  0  0  0  0
    0.6901    4.6567    1.0047 H   0  0  0  0  0  0  0  0  0  0  0  0
   -1.5362    4.2593    1.9805 H   0  0  0  0  0  0  0  0  0  0  0  0
   -1.6014    3.7017    0.3404 H   0  0  0  0  0  0  0  0  0  0  0  0
   -1.0484    0.9083    0.1116 H   0  0  0  0  0  0  0  0  0  0  0  0
   -0.8753   -1.8555    0.4667 H   0  0  0  0  0  0  0  0  0  0  0  0
   -3.6834   -4.8201    2.3376 H   0  0  0  0  0  0  0  0  0  0  0  0
   -2.1015   -7.0001    4.3934 H   0  0  0  0  0  0  0  0  0  0  0  0
   -3.2826   -7.1092    3.1587 H   0  0  0  0  0  0  0  0  0  0  0  0
   -1.5212   -7.7072    1.1316 H   0  0  0  0  0  0  0  0  0  0  0  0
    0.6305   -5.1962    1.3010 H   0  0  0  0  0  0  0  0  0  0  0  0
    2.7750   -4.5698    2.2649 H   0  0  0  0  0  0  0  0  0  0  0  0
    4.5228   -6.3291    2.4840 H   0  0  0  0  0  0  0  0  0  0  0  0
    3.7685   -8.7141    2.5613 H   0  0  0  0  0  0  0  0  0  0  0  0
   -2.3183   -9.6325    1.8065 H   0  0  0  0  0  0  0  0  0  0  0  0
   -2.0839  -11.7748    3.0382 H   0  0  0  0  0  0  0  0  0  0  0  0
   -0.4983  -11.4759    4.9510 H   0  0  0  0  0  0  0  0  0  0  0  0
    0.7424   -9.3568    5.3360 H   0  0  0  0  0  0  0  0  0  0  0  0
   -2.3344   -1.3953    3.4881 H   0  0  0  0  0  0  0  0  0  0  0  0
   -2.9011    0.6877    4.6200 H   0  0  0  0  0  0  0  0  0  0  0  0
   -2.6312    2.8985    3.5485 H   0  0  0  0  0  0  0  0  0  0  0  0
  1  2  1  0  0  0  0
  1 36  1  0  0  0  0
  1 37  1  0  0  0  0
  1 38  1  0  0  0  0
  2  3  1  0  0  0  0
  3  4  1  0  0  0  0
  3 39  1  0  0  0  0
  3 40  1  0  0  0  0
  4  5  1  0  0  0  0
  4 41  1  0  0  0  0
  4 42  1  0  0  0  0
  5  6  1  0  0  0  0
  5 43  1  0  0  0  0
  6  7  1  0  0  0  0
  6 44  1  0  0  0  0
  6 45  1  0  0  0  0
  7  8  1  0  0  0  0
  7 46  1  0  0  0  0
  7 47  1  0  0  0  0
  8  9  2  0  0  0  0
  8 35  1  0  0  0  0
  9 10  1  0  0  0  0
  9 48  1  0  0  0  0
 10 11  1  0  0  0  0
 10 33  2  0  0  0  0
 11 12  1  0  0  0  0
 11 49  1  0  0  0  0
 12 13  2  0  0  0  0
 12 32  1  0  0  0  0
 13 14  1  0  0  0  0
 14 15  2  0  0  0  0
 14 50  1  0  0  0  0
 15 16  1  0  0  0  0
 15 31  1  0  0  0  0
 16 51  1  0  0  0  0
 16 52  1  0  0  0  0
 17 16  1  0  0  0  0
 17 18  1  0  0  0  0
 17 25  1  0  0  0  0
 17 53  1  6  0  0  0
 18 19  2  0  0  0  0
 18 23  1  0  0  0  0
 19 20  1  0  0  0  0
 19 54  1  0  0  0  0
 20 21  2  0  0  0  0
 20 55  1  0  0  0  0
 21 22  1  0  0  0  0
 21 56  1  0  0  0  0
 22 23  2  0  0  0  0
 22 57  1  0  0  0  0
 23 24  1  0  0  0  0
 25 26  2  0  0  0  0
 25 30  1  0  0  0  0
 26 27  1  0  0  0  0
 26 58  1  0  0  0  0
 27 28  2  0  0  0  0
 27 59  1  0  0  0  0
 28 29  1  0  0  0  0
 28 60  1  0  0  0  0
 29 30  2  0  0  0  0
 29 61  1  0  0  0  0
 30 31  1  0  0  0  0
 31 32  2  0  0  0  0
 33 34  1  0  0  0  0
 33 62  1  0  0  0  0
 34 35  2  0  0  0  0
 34 63  1  0  0  0  0
 35 64  1  0  0  0  0
M  END
>  <DRUGBANK_ID>
DB14889

>  <COMMON_NAME>
Derazantinib

>  <CAS_NUMBER>
1234356-69-4

>  <UNII>
N9B0H171MJ

>  <SYNONYMS>
Derazantinib

$$$$
