
 OpenBabel10282417123D

 70 71  0  0  0  0  0  0  0  0999 V2000
    7.4232   -1.9796    0.2728 O   0  0  0  0  0  0  0  0  0  0  0  0
    7.5975   -6.9086    2.2483 O   0  0  0  0  0  0  0  0  0  0  0  0
    2.5434   -4.9954    2.9674 O   0  0  0  0  0  0  0  0  0  0  0  0
    3.3222   -3.2147    4.0967 O   0  0  0  0  0  0  0  0  0  0  0  0
    4.8600   -2.8786    1.5678 N   0  0  0  0  0  0  0  0  0  0  0  0
    7.7557   -4.1408   -0.0338 N   0  0  0  0  0  0  0  0  0  0  0  0
    9.6271   -5.9677    1.9761 N   0  0  0  0  0  0  0  0  0  0  0  0
    9.4742   -8.8988   -0.5078 N   0  3  0  0  0  0  0  0  0  0  0  0
    9.9135  -11.0779   -0.1386 N   0  0  0  0  0  0  0  0  0  0  0  0
   11.7029   -9.6369   -0.2881 N   0  0  0  0  0  0  0  0  0  0  0  0
    5.4074   -3.3588    0.2961 C   0  0  1  0  0  0  0  0  0  0  0  0
    4.7672   -2.6604   -0.9311 C   0  0  0  0  0  0  0  0  0  0  0  0
    7.6443   -5.5474    0.2829 C   0  0  1  0  0  0  0  0  0  0  0  0
    8.0332   -6.4148   -0.9124 C   0  0  0  0  0  0  0  0  0  0  0  0
    6.9203   -3.1006    0.2416 C   0  0  0  0  0  0  0  0  0  0  0  0
    5.2327   -3.2158   -2.2778 C   0  0  0  0  0  0  0  0  0  0  0  0
    9.3922   -6.5813   -1.4543 C   0  0  0  0  0  0  0  0  0  0  0  0
    3.4098   -3.1378    1.6662 C   0  0  2  0  0  0  0  0  0  0  0  0
    8.2715   -6.0729    1.6171 C   0  0  0  0  0  0  0  0  0  0  0  0
    9.9907   -7.5907   -0.5890 C   0  0  0  0  0  0  0  0  0  0  0  0
    4.8623   -4.6723   -2.4344 C   0  0  0  0  0  0  0  0  0  0  0  0
    2.6667   -1.8228    1.4586 C   0  0  0  0  0  0  0  0  0  0  0  0
    3.0808   -3.7440    3.0429 C   0  0  0  0  0  0  0  0  0  0  0  0
    5.8812   -5.5582   -2.6639 C   0  0  0  0  0  0  0  0  0  0  0  0
    3.5960   -5.2235   -2.3414 C   0  0  0  0  0  0  0  0  0  0  0  0
   10.7308   -5.4165    1.2188 C   0  0  0  0  0  0  0  0  0  0  0  0
    5.7299   -6.9539   -2.5293 C   0  0  0  0  0  0  0  0  0  0  0  0
    3.4221   -6.6157   -2.1982 C   0  0  0  0  0  0  0  0  0  0  0  0
   10.3748   -9.8626   -0.3160 C   0  0  0  0  0  0  0  0  0  0  0  0
    4.5019   -7.4858   -2.2231 C   0  0  0  0  0  0  0  0  0  0  0  0
   10.6018   -4.1864    0.6129 C   0  0  0  0  0  0  0  0  0  0  0  0
   11.8603   -6.1909    0.8421 C   0  0  0  0  0  0  0  0  0  0  0  0
   11.3350   -3.8491   -0.5395 C   0  0  0  0  0  0  0  0  0  0  0  0
   12.6120   -5.8561   -0.3248 C   0  0  0  0  0  0  0  0  0  0  0  0
   12.3117   -4.7028   -1.0427 C   0  0  0  0  0  0  0  0  0  0  0  0
    5.3521   -3.2824    2.3684 H   0  0  0  0  0  0  0  0  0  0  0  0
    8.6327   -3.7930   -0.3763 H   0  0  0  0  0  0  0  0  0  0  0  0
    9.8362   -6.7576    2.5853 H   0  0  0  0  0  0  0  0  0  0  0  0
    8.5276   -9.0579   -0.1633 H   0  0  0  0  0  0  0  0  0  0  0  0
   10.5413  -11.8631   -0.1486 H   0  0  0  0  0  0  0  0  0  0  0  0
    8.9146  -11.2367   -0.1411 H   0  0  0  0  0  0  0  0  0  0  0  0
   12.1406   -8.7316   -0.4050 H   0  0  0  0  0  0  0  0  0  0  0  0
   12.3692  -10.3794   -0.1612 H   0  0  0  0  0  0  0  0  0  0  0  0
    2.4071   -5.3572    2.0745 H   0  0  0  0  0  0  0  0  0  0  0  0
    5.2012   -4.4255    0.2528 H   0  0  0  0  0  0  0  0  0  0  0  0
    3.6834   -2.7794   -0.9126 H   0  0  0  0  0  0  0  0  0  0  0  0
    4.9751   -1.5834   -0.8940 H   0  0  0  0  0  0  0  0  0  0  0  0
    6.5706   -5.7471    0.3922 H   0  0  0  0  0  0  0  0  0  0  0  0
    7.5521   -7.3868   -0.8036 H   0  0  0  0  0  0  0  0  0  0  0  0
    7.7341   -5.9367   -1.7947 H   0  0  0  0  0  0  0  0  0  0  0  0
    4.8116   -2.6502   -3.1109 H   0  0  0  0  0  0  0  0  0  0  0  0
    6.3225   -3.0631   -2.3425 H   0  0  0  0  0  0  0  0  0  0  0  0
    9.4487   -6.9187   -2.4960 H   0  0  0  0  0  0  0  0  0  0  0  0
    9.8634   -5.6024   -1.4670 H   0  0  0  0  0  0  0  0  0  0  0  0
    3.0847   -3.8627    0.9085 H   0  0  0  0  0  0  0  0  0  0  0  0
   11.0110   -7.5841   -0.8937 H   0  0  0  0  0  0  0  0  0  0  0  0
    9.8234   -7.3325    0.4223 H   0  0  0  0  0  0  0  0  0  0  0  0
    1.7684   -1.7591    2.0754 H   0  0  0  0  0  0  0  0  0  0  0  0
    3.3005   -0.9603    1.6990 H   0  0  0  0  0  0  0  0  0  0  0  0
    2.3668   -1.7041    0.4113 H   0  0  0  0  0  0  0  0  0  0  0  0
    6.8283   -5.0641   -2.8724 H   0  0  0  0  0  0  0  0  0  0  0  0
    2.7308   -4.5749   -2.3985 H   0  0  0  0  0  0  0  0  0  0  0  0
    6.5768   -7.6341   -2.6001 H   0  0  0  0  0  0  0  0  0  0  0  0
    2.4277   -7.0294   -2.0786 H   0  0  0  0  0  0  0  0  0  0  0  0
    4.3920   -8.5578   -2.0805 H   0  0  0  0  0  0  0  0  0  0  0  0
    9.8552   -3.5049    1.0020 H   0  0  0  0  0  0  0  0  0  0  0  0
   12.0132   -7.1882    1.2580 H   0  0  0  0  0  0  0  0  0  0  0  0
   11.0698   -2.9493   -1.0910 H   0  0  0  0  0  0  0  0  0  0  0  0
   13.3366   -6.5472   -0.7639 H   0  0  0  0  0  0  0  0  0  0  0  0
   12.8081   -4.4734   -1.9879 H   0  0  0  0  0  0  0  0  0  0  0  0
  1 15  2  0  0  0  0
  2 19  2  0  0  0  0
  3 23  1  0  0  0  0
  3 44  1  0  0  0  0
  4 23  2  0  0  0  0
  5 36  1  0  0  0  0
  6 15  1  0  0  0  0
  6 37  1  0  0  0  0
  7 19  1  0  0  0  0
  7 26  1  0  0  0  0
  7 38  1  0  0  0  0
  8 20  1  0  0  0  0
  8 29  2  0  0  0  0
  8 39  1  0  0  0  0
  9 29  1  0  0  0  0
  9 40  1  0  0  0  0
  9 41  1  0  0  0  0
 10 29  1  0  0  0  0
 10 42  1  0  0  0  0
 10 43  1  0  0  0  0
 11  5  1  0  0  0  0
 11 12  1  0  0  0  0
 11 15  1  0  0  0  0
 11 45  1  6  0  0  0
 12 16  1  0  0  0  0
 12 46  1  0  0  0  0
 12 47  1  0  0  0  0
 13  6  1  0  0  0  0
 13 14  1  0  0  0  0
 13 19  1  0  0  0  0
 13 48  1  1  0  0  0
 14 17  1  0  0  0  0
 14 49  1  0  0  0  0
 14 50  1  0  0  0  0
 16 21  1  0  0  0  0
 16 51  1  0  0  0  0
 16 52  1  0  0  0  0
 17 20  1  0  0  0  0
 17 53  1  0  0  0  0
 17 54  1  0  0  0  0
 18 23  1  0  0  0  0
 18 55  1  6  0  0  0
 18 22  1  0  0  0  0
 18  5  1  0  0  0  0
 20 56  1  0  0  0  0
 20 57  1  0  0  0  0
 21 24  2  0  0  0  0
 21 25  1  0  0  0  0
 22 58  1  0  0  0  0
 22 59  1  0  0  0  0
 22 60  1  0  0  0  0
 24 27  1  0  0  0  0
 24 61  1  0  0  0  0
 25 28  2  0  0  0  0
 25 62  1  0  0  0  0
 26 31  2  0  0  0  0
 26 32  1  0  0  0  0
 27 30  2  0  0  0  0
 27 63  1  0  0  0  0
 28 30  1  0  0  0  0
 28 64  1  0  0  0  0
 30 65  1  0  0  0  0
 31 33  1  0  0  0  0
 31 66  1  0  0  0  0
 32 34  2  0  0  0  0
 32 67  1  0  0  0  0
 33 35  2  0  0  0  0
 33 68  1  0  0  0  0
 34 35  1  0  0  0  0
 34 69  1  0  0  0  0
 35 70  1  0  0  0  0
M  CHG  1   8   1
M  END
>  <DRUGBANK_ID>
DB02747

>  <SECONDARY_ACCESSION_NUMBERS>
EXPT01886

>  <COMMON_NAME>
Diamino-N-[(4S)-5-anilino-4-{[(2S)-2-{[(1R)-1-carboxyethyl]amino}-4-phenylbutanoyl]amino}-5-oxopentyl]methaniminium

$$$$
