
 OpenBabel10282417233D

 55 57  0  0  0  0  0  0  0  0999 V2000
    0.9966   -0.0735    0.0774 C   0  0  0  0  0  0  0  0  0  0  0  0
    1.0011   -2.3577    1.0695 C   0  0  0  0  0  0  0  0  0  0  0  0
   -1.0284   -1.5203   -0.1364 C   0  0  0  0  0  0  0  0  0  0  0  0
    3.1775    1.7860  -13.9865 C   0  0  0  0  0  0  0  0  0  0  0  0
    3.2991    0.7691  -13.0452 C   0  0  0  0  0  0  0  0  0  0  0  0
    3.9760   -3.2075   -7.7520 C   0  0  0  0  0  0  0  0  0  0  0  0
    2.7246   -4.5789   -9.2952 C   0  0  0  0  0  0  0  0  0  0  0  0
    3.8016   -2.1086   -8.5938 C   0  0  0  0  0  0  0  0  0  0  0  0
    2.5617   -3.4802  -10.1432 C   0  0  0  0  0  0  0  0  0  0  0  0
    1.2341   -1.3012   -2.5776 C   0  0  0  0  0  0  0  0  0  0  0  0
    1.0252   -3.5202   -1.6594 C   0  0  0  0  0  0  0  0  0  0  0  0
    1.3773   -1.8501   -3.8465 C   0  0  0  0  0  0  0  0  0  0  0  0
    1.1338   -4.0783   -2.9315 C   0  0  0  0  0  0  0  0  0  0  0  0
    1.9676    1.9304  -14.6441 C   0  0  0  0  0  0  0  0  0  0  0  0
    3.0915   -5.4552   -6.9712 C   0  0  0  0  0  0  0  0  0  0  0  0
    1.0535    0.1404  -13.5218 C   0  0  0  0  0  0  0  0  0  0  0  0
    3.3396   -4.4226   -8.0495 C   0  0  0  0  0  0  0  0  0  0  0  0
    3.0879   -2.2311   -9.7955 C   0  0  0  0  0  0  0  0  0  0  0  0
    0.9870   -2.1226   -1.4673 C   0  0  0  0  0  0  0  0  0  0  0  0
    2.2209   -0.0766  -12.7964 C   0  0  0  0  0  0  0  0  0  0  0  0
    1.2994   -3.2349   -4.0185 C   0  0  0  0  0  0  0  0  0  0  0  0
    2.9858   -1.0188  -10.6631 C   0  0  0  0  0  0  0  0  0  0  0  0
    0.5174   -1.5249   -0.1316 C   0  0  0  0  0  0  0  0  0  0  0  0
    0.8986    1.1298  -14.4359 N   0  0  0  0  0  0  0  0  0  0  0  0
    2.7726   -4.8377   -5.6566 N   0  0  0  0  0  0  0  0  0  0  0  0
    2.3107   -1.1380  -11.8715 N   0  0  0  0  0  0  0  0  0  0  0  0
    3.4922    0.0277  -10.2631 O   0  0  0  0  0  0  0  0  0  0  0  0
    0.2214   -4.7895   -5.8269 O   0  0  0  0  0  0  0  0  0  0  0  0
    1.5294   -2.7538   -6.5136 O   0  0  0  0  0  0  0  0  0  0  0  0
    1.3479   -3.8929   -5.6530 S   0  0  0  0  0  0  0  0  0  0  0  0
    0.6486    0.3254    1.0364 H   0  0  0  0  0  0  0  0  0  0  0  0
    0.6083    0.6042   -0.6916 H   0  0  0  0  0  0  0  0  0  0  0  0
    2.0905   -0.0152    0.0593 H   0  0  0  0  0  0  0  0  0  0  0  0
    0.6552   -1.9273    2.0149 H   0  0  0  0  0  0  0  0  0  0  0  0
    0.6162   -3.3824    1.0449 H   0  0  0  0  0  0  0  0  0  0  0  0
    2.0950   -2.4089    1.0922 H   0  0  0  0  0  0  0  0  0  0  0  0
   -1.4272   -0.9109   -0.9569 H   0  0  0  0  0  0  0  0  0  0  0  0
   -1.4361   -2.5314   -0.2543 H   0  0  0  0  0  0  0  0  0  0  0  0
   -1.4252   -1.1123    0.8003 H   0  0  0  0  0  0  0  0  0  0  0  0
    4.0119    2.4438  -14.1995 H   0  0  0  0  0  0  0  0  0  0  0  0
    4.2473    0.6252  -12.5349 H   0  0  0  0  0  0  0  0  0  0  0  0
    4.4653   -3.0459   -6.7946 H   0  0  0  0  0  0  0  0  0  0  0  0
    2.2993   -5.5380   -9.5824 H   0  0  0  0  0  0  0  0  0  0  0  0
    4.1646   -1.1357   -8.2634 H   0  0  0  0  0  0  0  0  0  0  0  0
    1.9788   -3.6322  -11.0424 H   0  0  0  0  0  0  0  0  0  0  0  0
    1.2768   -0.2185   -2.4974 H   0  0  0  0  0  0  0  0  0  0  0  0
    0.9240   -4.2074   -0.8251 H   0  0  0  0  0  0  0  0  0  0  0  0
    1.4934   -1.1778   -4.6946 H   0  0  0  0  0  0  0  0  0  0  0  0
    1.0444   -5.1532   -3.0641 H   0  0  0  0  0  0  0  0  0  0  0  0
    1.8265    2.7161  -15.3808 H   0  0  0  0  0  0  0  0  0  0  0  0
    3.9636   -6.1117   -6.8796 H   0  0  0  0  0  0  0  0  0  0  0  0
    2.2437   -6.0982   -7.2457 H   0  0  0  0  0  0  0  0  0  0  0  0
    0.1600   -0.4525  -13.3504 H   0  0  0  0  0  0  0  0  0  0  0  0
    3.5676   -4.3489   -5.2484 H   0  0  0  0  0  0  0  0  0  0  0  0
    1.7166   -1.9354  -12.0412 H   0  0  0  0  0  0  0  0  0  0  0  0
  1 31  1  0  0  0  0
  1 32  1  0  0  0  0
  1 33  1  0  0  0  0
  2 34  1  0  0  0  0
  2 35  1  0  0  0  0
  2 36  1  0  0  0  0
  3 37  1  0  0  0  0
  3 38  1  0  0  0  0
  3 39  1  0  0  0  0
  4 40  1  0  0  0  0
  5  4  2  0  0  0  0
  5 41  1  0  0  0  0
  6 42  1  0  0  0  0
  7 43  1  0  0  0  0
  8  6  1  0  0  0  0
  8 44  1  0  0  0  0
  9  7  2  0  0  0  0
  9 45  1  0  0  0  0
 10 46  1  0  0  0  0
 11 47  1  0  0  0  0
 12 10  1  0  0  0  0
 12 48  1  0  0  0  0
 13 11  2  0  0  0  0
 13 49  1  0  0  0  0
 14  4  1  0  0  0  0
 14 50  1  0  0  0  0
 15 51  1  0  0  0  0
 15 52  1  0  0  0  0
 16 53  1  0  0  0  0
 17  6  2  0  0  0  0
 17  7  1  0  0  0  0
 17 15  1  0  0  0  0
 18  8  2  0  0  0  0
 18  9  1  0  0  0  0
 19 10  2  0  0  0  0
 19 11  1  0  0  0  0
 20  5  1  0  0  0  0
 20 16  2  0  0  0  0
 21 12  2  0  0  0  0
 21 13  1  0  0  0  0
 22 18  1  0  0  0  0
 23  1  1  0  0  0  0
 23  2  1  0  0  0  0
 23  3  1  0  0  0  0
 23 19  1  0  0  0  0
 24 14  2  0  0  0  0
 24 16  1  0  0  0  0
 25 15  1  0  0  0  0
 25 54  1  0  0  0  0
 26 20  1  0  0  0  0
 26 22  1  0  0  0  0
 26 55  1  0  0  0  0
 27 22  2  0  0  0  0
 30 21  1  0  0  0  0
 30 25  1  0  0  0  0
 30 28  2  0  0  0  0
 30 29  2  0  0  0  0
M  END
>  <DRUGBANK_ID>
DB16761

>  <COMMON_NAME>
STF-31

>  <CAS_NUMBER>
724741-75-7

>  <SYNONYMS>
STF 31; STF31

$$$$
