
 OpenBabel10282417223D

 56 60  0  0  1  0  0  0  0  0999 V2000
    5.2816   -5.1852   -6.8676 C   0  0  0  0  0  0  0  0  0  0  0  0
    6.6541   -4.9457   -6.5885 O   0  0  0  0  0  0  0  0  0  0  0  0
    6.9281   -5.0458   -5.1917 C   0  0  0  0  0  0  0  0  0  0  0  0
    6.4752   -3.9063   -4.2269 C   0  0  0  0  0  0  0  0  0  0  0  0
    5.1147   -3.5007   -4.1597 O   0  0  0  0  0  0  0  0  0  0  0  0
    4.6035   -2.7259   -5.1599 C   0  0  0  0  0  0  0  0  0  0  0  0
    3.3082   -2.3990   -4.9740 C   0  0  0  0  0  0  0  0  0  0  0  0
    2.5554   -2.1456   -6.1120 C   0  0  0  0  0  0  0  0  0  0  0  0
    3.0385   -2.1907   -7.4041 C   0  0  0  0  0  0  0  0  0  0  0  0
    2.1463   -1.9425   -8.5401 C   0  0  0  0  0  0  0  0  0  0  0  0
    0.9565   -1.3726   -8.2686 C   0  0  0  0  0  0  0  0  0  0  0  0
    0.6547   -0.9947   -6.9504 N   0  0  0  0  0  0  0  0  0  0  0  0
   -0.2160    0.0949   -6.5302 C   0  0  2  0  0  0  0  0  0  0  0  0
    0.3670    0.9099   -5.1974 C   0  0  0  0  0  0  0  0  0  0  0  0
   -1.6048   -0.4605   -6.1825 C   0  0  0  0  0  0  0  0  0  0  0  0
   -2.1328    0.0467   -5.0748 N   0  0  0  0  0  0  0  0  0  0  0  0
   -1.7377   -0.8363   -4.0949 N   0  0  0  0  0  0  0  0  0  0  0  0
   -1.7527   -2.0176   -4.6641 C   0  0  0  0  0  0  0  0  0  0  0  0
   -1.9737   -1.8211   -6.0268 N   0  0  0  0  0  0  0  0  0  0  0  0
   -2.8426   -2.6798   -6.7301 C   0  0  0  0  0  0  0  0  0  0  0  0
   -3.3662   -3.7601   -6.0854 C   0  0  0  0  0  0  0  0  0  0  0  0
   -2.9539   -4.0369   -4.7061 C   0  0  0  0  0  0  0  0  0  0  0  0
   -2.0911   -3.2390   -4.0724 C   0  0  0  0  0  0  0  0  0  0  0  0
   -1.7928   -3.4208   -2.7732 F   0  0  0  0  0  0  0  0  0  0  0  0
   -4.2790   -4.6624   -6.6849 C   0  0  0  0  0  0  0  0  0  0  0  0
   -3.9839   -5.4463   -7.7691 C   0  0  0  0  0  0  0  0  0  0  0  0
   -5.1188   -6.1500   -8.0260 N   0  0  0  0  0  0  0  0  0  0  0  0
   -5.3581   -6.9723   -9.1840 C   0  0  0  0  0  0  0  0  0  0  0  0
   -6.1008   -5.9468   -7.1250 N   0  0  0  0  0  0  0  0  0  0  0  0
   -5.5814   -5.0353   -6.2951 C   0  0  0  0  0  0  0  0  0  0  0  0
    1.2968   -1.5646   -5.8891 C   0  0  0  0  0  0  0  0  0  0  0  0
    0.9529   -1.5006   -4.6905 O   0  0  0  0  0  0  0  0  0  0  0  0
    4.3451   -2.3414   -7.5920 N   0  0  0  0  0  0  0  0  0  0  0  0
    5.1001   -2.5013   -6.4481 C   0  0  0  0  0  0  0  0  0  0  0  0
    5.0329   -4.7652   -7.8465 H   0  0  0  0  0  0  0  0  0  0  0  0
    4.7121   -4.6940   -6.1087 H   0  0  0  0  0  0  0  0  0  0  0  0
    4.8926   -6.1864   -6.7141 H   0  0  0  0  0  0  0  0  0  0  0  0
    6.5217   -6.0076   -4.8742 H   0  0  0  0  0  0  0  0  0  0  0  0
    8.0204   -5.0977   -5.1086 H   0  0  0  0  0  0  0  0  0  0  0  0
    6.6796   -4.3116   -3.2253 H   0  0  0  0  0  0  0  0  0  0  0  0
    7.0695   -2.9971   -4.3178 H   0  0  0  0  0  0  0  0  0  0  0  0
    2.8867   -2.3114   -3.9733 H   0  0  0  0  0  0  0  0  0  0  0  0
    2.5013   -2.1834   -9.5420 H   0  0  0  0  0  0  0  0  0  0  0  0
    0.2236   -1.2024   -9.0602 H   0  0  0  0  0  0  0  0  0  0  0  0
   -0.2338    0.8494   -7.3275 H   0  0  0  0  0  0  0  0  0  0  0  0
   -0.0593    0.5649   -4.2433 H   0  0  0  0  0  0  0  0  0  0  0  0
    1.4459    0.8107   -4.9998 H   0  0  0  0  0  0  0  0  0  0  0  0
    0.1026    1.9686   -5.2082 H   0  0  0  0  0  0  0  0  0  0  0  0
   -3.1556   -2.3956   -7.7313 H   0  0  0  0  0  0  0  0  0  0  0  0
   -3.3869   -4.8699   -4.1613 H   0  0  0  0  0  0  0  0  0  0  0  0
   -3.0861   -5.5398   -8.3623 H   0  0  0  0  0  0  0  0  0  0  0  0
   -5.6876   -7.9592   -8.8557 H   0  0  0  0  0  0  0  0  0  0  0  0
   -6.1244   -6.4797   -9.7868 H   0  0  0  0  0  0  0  0  0  0  0  0
   -4.4319   -7.0555   -9.7592 H   0  0  0  0  0  0  0  0  0  0  0  0
   -6.1723   -4.6827   -5.4569 H   0  0  0  0  0  0  0  0  0  0  0  0
    6.1420   -2.6638   -6.6734 H   0  0  0  0  0  0  0  0  0  0  0  0
  1  2  1  0  0  0  0
  1 35  1  0  0  0  0
  1 36  1  0  0  0  0
  1 37  1  0  0  0  0
  2  3  1  0  0  0  0
  3  4  1  0  0  0  0
  3 38  1  0  0  0  0
  3 39  1  0  0  0  0
  4  5  1  0  0  0  0
  4 40  1  0  0  0  0
  4 41  1  0  0  0  0
  5  6  1  0  0  0  0
  6  7  2  0  0  0  0
  6 34  1  0  0  0  0
  7  8  1  0  0  0  0
  7 42  1  0  0  0  0
  8  9  2  0  0  0  0
  8 31  1  0  0  0  0
  9 10  1  0  0  0  0
  9 33  1  0  0  0  0
 10 11  2  0  0  0  0
 10 43  1  0  0  0  0
 11 12  1  0  0  0  0
 11 44  1  0  0  0  0
 12 31  1  0  0  0  0
 13 15  1  0  0  0  0
 13 45  1  6  0  0  0
 13 14  1  0  0  0  0
 13 12  1  0  0  0  0
 14 46  1  0  0  0  0
 14 47  1  0  0  0  0
 14 48  1  0  0  0  0
 15 16  2  0  0  0  0
 15 19  1  0  0  0  0
 16 17  1  0  0  0  0
 17 18  2  0  0  0  0
 18 19  1  0  0  0  0
 18 23  1  0  0  0  0
 19 20  1  0  0  0  0
 20 21  2  0  0  0  0
 20 49  1  0  0  0  0
 21 22  1  0  0  0  0
 21 25  1  0  0  0  0
 22 23  2  0  0  0  0
 22 50  1  0  0  0  0
 23 24  1  0  0  0  0
 25 26  2  0  0  0  0
 25 30  1  0  0  0  0
 26 27  1  0  0  0  0
 26 51  1  0  0  0  0
 27 28  1  0  0  0  0
 27 29  1  0  0  0  0
 28 52  1  0  0  0  0
 28 53  1  0  0  0  0
 28 54  1  0  0  0  0
 29 30  2  0  0  0  0
 30 55  1  0  0  0  0
 31 32  2  0  0  0  0
 33 34  2  0  0  0  0
 34 56  1  0  0  0  0
M  END
>  <DRUGBANK_ID>
DB15639

>  <COMMON_NAME>
AMG-337

>  <CAS_NUMBER>
1173699-31-4

>  <UNII>
08WG8S0L8D

$$$$
