793
 OpenBabel10282417113D

 18 18  0  0  0  0  0  0  0  0999 V2000
    1.0665   -0.1497   -0.1161 I   0  0  0  0  0  0  0  0  0  0  0  0
    3.1756    2.1124    1.7008 Cl  0  0  0  0  0  0  0  0  0  0  0  0
    8.2334    3.7389    4.7226 Cl  0  0  0  0  0  0  0  0  0  0  0  0
    5.3088    5.1760    4.9323 Cl  0  0  0  0  0  0  0  0  0  0  0  0
    6.3739    0.4662    1.4233 O   0  0  0  0  0  0  0  0  0  0  0  0
    5.9962    1.6270    2.0882 C   0  0  0  0  0  0  0  0  0  0  0  0
    4.7745    2.3235    2.2469 C   0  0  0  0  0  0  0  0  0  0  0  0
    7.0557    2.1209    2.8903 C   0  0  0  0  0  0  0  0  0  0  0  0
    6.8937    3.2214    3.7692 C   0  0  0  0  0  0  0  0  0  0  0  0
    4.6405    3.4253    3.1007 C   0  0  0  0  0  0  0  0  0  0  0  0
    5.6786    3.8696    3.8770 C   0  0  0  0  0  0  0  0  0  0  0  0
    5.9761    0.0747    0.0664 C   0  0  0  0  0  0  0  0  0  0  0  0
    4.4561    0.0747    0.0664 C   0  0  0  0  0  0  0  0  0  0  0  0
    3.1522    0.0747    0.0664 C   0  0  0  0  0  0  0  0  0  0  0  0
    8.0271    1.6314    2.8512 H   0  0  0  0  0  0  0  0  0  0  0  0
    3.6726    3.9182    3.1958 H   0  0  0  0  0  0  0  0  0  0  0  0
    6.3829   -0.9111   -0.1698 H   0  0  0  0  0  0  0  0  0  0  0  0
    6.3618    0.8250   -0.6300 H   0  0  0  0  0  0  0  0  0  0  0  0
  1 14  1  0  0  0  0
  2  7  1  0  0  0  0
  3  9  1  0  0  0  0
  4 11  1  0  0  0  0
  5  6  1  0  0  0  0
  5 12  1  0  0  0  0
  6  7  1  0  0  0  0
  6  8  2  0  0  0  0
  7 10  2  0  0  0  0
  8  9  1  0  0  0  0
  8 15  1  0  0  0  0
  9 11  2  0  0  0  0
 10 11  1  0  0  0  0
 10 16  1  0  0  0  0
 12 13  1  0  0  0  0
 12 17  1  0  0  0  0
 12 18  1  0  0  0  0
 13 14  3  0  0  0  0
M  END
>  <DRUGBANK_ID>
DB00793

>  <SECONDARY_ACCESSION_NUMBERS>
APRD01011

>  <COMMON_NAME>
Haloprogin

>  <CAS_NUMBER>
777-11-7

>  <UNII>
AIU7053OWL

>  <SYNONYMS>
Haloprogin; Haloprogina; Haloprogine; Haloproginum

$$$$
