
 OpenBabel10282417133D

  9  8  0  0  0  0  0  0  0  0999 V2000
    0.9467    0.0052    0.1484 O   0  0  0  0  0  0  0  0  0  0  0  0
    0.5215   -1.1145    0.9042 C   0  0  0  0  0  0  0  0  0  0  0  0
    0.9719   -2.4627    0.3404 C   0  0  0  0  0  0  0  0  0  0  0  0
    1.7311   -3.2002    1.1842 O   0  0  0  0  0  0  0  0  0  0  0  0
    0.7146   -2.8496   -0.7919 O   0  0  0  0  0  0  0  0  0  0  0  0
    1.9092   -0.0643    0.0246 H   0  0  0  0  0  0  0  0  0  0  0  0
    0.8698   -0.9814    1.9323 H   0  0  0  0  0  0  0  0  0  0  0  0
   -0.5734   -1.1160    0.9301 H   0  0  0  0  0  0  0  0  0  0  0  0
    1.9132   -2.8083    2.0585 H   0  0  0  0  0  0  0  0  0  0  0  0
  1  2  1  0  0  0  0
  1  6  1  0  0  0  0
  2  3  1  0  0  0  0
  2  7  1  0  0  0  0
  2  8  1  0  0  0  0
  3  4  1  0  0  0  0
  3  5  2  0  0  0  0
  4  9  1  0  0  0  0
M  END
>  <DRUGBANK_ID>
DB03085

>  <SECONDARY_ACCESSION_NUMBERS>
EXPT01629; DB11307

>  <COMMON_NAME>
Glycolic acid

>  <CAS_NUMBER>
79-14-1

>  <UNII>
0WT12SX38S

>  <SYNONYMS>
2-Hydroxyacetic acid; 2-Hydroxyethanoic acid; alpha-Hydroxyacetic acid; Glycollic acid; Hydroxyacetic acid; Hydroxyethanoic acid; Î±-hydroxyacetic acid

$$$$
