
 OpenBabel10282417133D

111115  0  0  0  0  0  0  0  0999 V2000
  -10.8940   -3.1780    5.5456 S   0  0  0  0  0  0  0  0  0  0  0  0
  -12.6896    0.7298    4.2112 P   0  0  0  0  0  0  0  0  0  0  0  0
   -8.0993    0.3050    6.5593 P   0  0  3  0  0  0  0  0  0  0  0  0
   -6.8010    2.4064    7.9304 P   0  0  3  0  0  0  0  0  0  0  0  0
  -11.0597   -0.9775    7.6133 O   0  0  0  0  0  0  0  0  0  0  0  0
  -13.0988    1.1796    5.8308 O   0  0  0  0  0  0  0  0  0  0  0  0
  -13.2400   -1.4208    5.3544 O   0  0  0  0  0  0  0  0  0  0  0  0
   -9.2277    1.3459    7.0389 O   0  0  0  0  0  0  0  0  0  0  0  0
  -14.0679    1.5136    3.8076 O   0  0  0  0  0  0  0  0  0  0  0  0
  -11.7595    2.0672    4.2273 O   0  0  0  0  0  0  0  0  0  0  0  0
   -7.3348    0.7646    8.0417 O   0  0  0  0  0  0  0  0  0  0  0  0
  -12.3234    0.3272    2.7616 O   0  0  0  0  0  0  0  0  0  0  0  0
   -5.2775    1.8692    7.3113 O   0  0  0  0  0  0  0  0  0  0  0  0
   -6.8440    0.9792    6.1155 O   0  0  0  0  0  0  0  0  0  0  0  0
   -8.7834   -0.1063    5.2326 O   0  0  0  0  0  0  0  0  0  0  0  0
   -7.5363    4.0404    3.9188 O   0  0  0  0  0  0  0  0  0  0  0  0
   -5.9663    2.4975    9.3395 O   0  0  0  0  0  0  0  0  0  0  0  0
   -8.1645    2.8873    8.4845 O   0  0  0  0  0  0  0  0  0  0  0  0
   -9.4698    3.0682    5.6301 O   0  0  0  0  0  0  0  0  0  0  0  0
   -8.9957   -2.2024    1.4539 O   0  0  0  0  0  0  0  0  0  0  0  0
  -13.8083   -4.6862    4.2108 O   0  0  0  0  0  0  0  0  0  0  0  0
  -12.4832   -1.9606    8.9955 N   0  0  0  0  0  0  0  0  0  0  0  0
  -12.1715   -2.1071   11.1497 N   0  0  0  0  0  0  0  0  0  0  0  0
  -14.2276   -3.5610    8.5888 N   0  0  0  0  0  0  0  0  0  0  0  0
  -15.1592   -4.2541   10.7008 N   0  0  0  0  0  0  0  0  0  0  0  0
  -14.2636   -3.4575   12.7647 N   0  0  0  0  0  0  0  0  0  0  0  0
   -9.0551    1.6117    3.9890 N   0  0  0  0  0  0  0  0  0  0  0  0
   -8.5621   -2.6928    3.5602 N   0  0  0  0  0  0  0  0  0  0  0  0
  -13.4395   -8.2666    8.7417 N   0  0  0  0  0  0  0  0  0  0  0  0
  -12.1710   -5.6461    5.4629 N   0  0  0  0  0  0  0  0  0  0  0  0
  -12.8503    0.3565    6.9285 C   0  0  1  0  0  0  0  0  0  0  0  0
  -13.2964   -1.0791    6.7494 C   0  0  2  0  0  0  0  0  0  0  0  0
  -11.3580    0.2474    7.0064 C   0  0  1  0  0  0  0  0  0  0  0  0
  -12.2416   -1.7520    7.6278 C   0  0  1  0  0  0  0  0  0  0  0  0
  -10.5082    1.2797    7.6712 C   0  0  0  0  0  0  0  0  0  0  0  0
  -13.3841   -2.8790    9.3716 C   0  0  0  0  0  0  0  0  0  0  0  0
  -11.6585   -1.6551   10.0349 C   0  0  0  0  0  0  0  0  0  0  0  0
  -13.2526   -2.8614   10.7281 C   0  0  0  0  0  0  0  0  0  0  0  0
   -5.7745    2.1906    4.7096 C   0  0  0  0  0  0  0  0  0  0  0  0
  -14.2343   -3.5525   11.4031 C   0  0  0  0  0  0  0  0  0  0  0  0
   -7.2137    3.0393    4.9289 C   0  0  2  0  0  0  0  0  0  0  0  0
   -4.8861    2.5340    5.9935 C   0  0  0  0  0  0  0  0  0  0  0  0
   -5.5193    0.5361    4.5342 C   0  0  0  0  0  0  0  0  0  0  0  0
   -5.3837    2.7513    3.3726 C   0  0  0  0  0  0  0  0  0  0  0  0
  -15.0864   -4.2502    9.3499 C   0  0  0  0  0  0  0  0  0  0  0  0
   -8.6494    2.5346    4.9373 C   0  0  0  0  0  0  0  0  0  0  0  0
   -8.4618    0.9371    2.8353 C   0  0  0  0  0  0  0  0  0  0  0  0
   -7.8137   -0.4870    2.6118 C   0  0  0  0  0  0  0  0  0  0  0  0
   -8.5558   -1.7976    2.5197 C   0  0  0  0  0  0  0  0  0  0  0  0
  -11.8543   -6.7875    8.3118 C   0  0  0  0  0  0  0  0  0  0  0  0
  -11.1330   -5.6197    7.7854 C   0  0  0  0  0  0  0  0  0  0  0  0
  -11.2677   -7.8483    9.0385 C   0  0  0  0  0  0  0  0  0  0  0  0
  -12.2867   -8.7531    9.3152 C   0  0  0  0  0  0  0  0  0  0  0  0
   -8.4605   -2.3930    4.9460 C   0  0  0  0  0  0  0  0  0  0  0  0
  -10.9080   -5.8141    6.2770 C   0  0  0  0  0  0  0  0  0  0  0  0
  -13.1883   -7.0761    8.1283 C   0  0  0  0  0  0  0  0  0  0  0  0
   -9.9588   -8.1070    9.4864 C   0  0  0  0  0  0  0  0  0  0  0  0
   -9.8356   -1.9018    5.3024 C   0  0  0  0  0  0  0  0  0  0  0  0
  -12.0628   -9.9100   10.0602 C   0  0  0  0  0  0  0  0  0  0  0  0
   -9.7194   -9.2564   10.2347 C   0  0  0  0  0  0  0  0  0  0  0  0
  -10.7596  -10.1386   10.5190 C   0  0  0  0  0  0  0  0  0  0  0  0
  -11.6559   -3.6595    4.0447 C   0  0  0  0  0  0  0  0  0  0  0  0
  -12.6372   -4.6863    4.5723 C   0  0  0  0  0  0  0  0  0  0  0  0
  -13.5406   -2.8864   13.1898 H   0  0  0  0  0  0  0  0  0  0  0  0
  -14.9897   -3.9209   13.2713 H   0  0  0  0  0  0  0  0  0  0  0  0
   -9.7784    1.0470    4.4127 H   0  0  0  0  0  0  0  0  0  0  0  0
   -9.2831   -3.3664    3.3767 H   0  0  0  0  0  0  0  0  0  0  0  0
  -14.3427   -8.7160    8.7766 H   0  0  0  0  0  0  0  0  0  0  0  0
  -12.9062   -6.2919    5.7009 H   0  0  0  0  0  0  0  0  0  0  0  0
  -12.3145   -1.5838    5.1059 H   0  0  0  0  0  0  0  0  0  0  0  0
  -14.7819    0.8882    3.6095 H   0  0  0  0  0  0  0  0  0  0  0  0
  -11.2267    2.2579    5.0251 H   0  0  0  0  0  0  0  0  0  0  0  0
   -6.1346    0.6110    6.7218 H   0  0  0  0  0  0  0  0  0  0  0  0
   -8.2866    3.6810    3.3884 H   0  0  0  0  0  0  0  0  0  0  0  0
   -5.1262    2.9715    9.1912 H   0  0  0  0  0  0  0  0  0  0  0  0
  -13.2884    0.7600    7.8495 H   0  0  0  0  0  0  0  0  0  0  0  0
  -14.3186   -1.3133    7.0415 H   0  0  0  0  0  0  0  0  0  0  0  0
  -11.0345    0.1934    5.9793 H   0  0  0  0  0  0  0  0  0  0  0  0
  -12.0602   -2.7656    7.3342 H   0  0  0  0  0  0  0  0  0  0  0  0
  -10.3838    1.0994    8.7422 H   0  0  0  0  0  0  0  0  0  0  0  0
  -10.9902    2.2596    7.5605 H   0  0  0  0  0  0  0  0  0  0  0  0
  -10.7230   -1.1138    9.9186 H   0  0  0  0  0  0  0  0  0  0  0  0
   -7.0863    3.6465    5.8393 H   0  0  0  0  0  0  0  0  0  0  0  0
   -3.8735    2.1793    5.7839 H   0  0  0  0  0  0  0  0  0  0  0  0
   -4.8638    3.6109    6.1669 H   0  0  0  0  0  0  0  0  0  0  0  0
   -6.4802    0.1852    4.2549 H   0  0  0  0  0  0  0  0  0  0  0  0
   -4.7034    0.2183    3.8970 H   0  0  0  0  0  0  0  0  0  0  0  0
   -5.3496   -0.1550    5.4027 H   0  0  0  0  0  0  0  0  0  0  0  0
   -6.1262    2.4890    2.6148 H   0  0  0  0  0  0  0  0  0  0  0  0
   -5.3871    3.8375    3.4203 H   0  0  0  0  0  0  0  0  0  0  0  0
   -4.4473    2.3482    3.0294 H   0  0  0  0  0  0  0  0  0  0  0  0
  -15.8135   -4.8483    8.8091 H   0  0  0  0  0  0  0  0  0  0  0  0
   -7.6516    1.6018    2.6469 H   0  0  0  0  0  0  0  0  0  0  0  0
   -9.2268    1.0651    2.0757 H   0  0  0  0  0  0  0  0  0  0  0  0
   -6.8997   -0.8147    3.0934 H   0  0  0  0  0  0  0  0  0  0  0  0
   -7.3795   -0.3474    1.6108 H   0  0  0  0  0  0  0  0  0  0  0  0
  -10.1655   -5.4984    8.2945 H   0  0  0  0  0  0  0  0  0  0  0  0
  -11.6933   -4.7194    8.0451 H   0  0  0  0  0  0  0  0  0  0  0  0
   -7.6036   -1.7271    5.0766 H   0  0  0  0  0  0  0  0  0  0  0  0
   -8.2151   -3.1940    5.6539 H   0  0  0  0  0  0  0  0  0  0  0  0
  -10.4984   -6.7859    6.0181 H   0  0  0  0  0  0  0  0  0  0  0  0
  -10.0610   -5.1782    6.0193 H   0  0  0  0  0  0  0  0  0  0  0  0
  -13.9647   -6.5328    7.6047 H   0  0  0  0  0  0  0  0  0  0  0  0
   -9.1485   -7.4166    9.2707 H   0  0  0  0  0  0  0  0  0  0  0  0
  -10.3654   -1.1899    4.6492 H   0  0  0  0  0  0  0  0  0  0  0  0
   -9.7166   -1.5368    6.3146 H   0  0  0  0  0  0  0  0  0  0  0  0
  -12.8676  -10.5981   10.2882 H   0  0  0  0  0  0  0  0  0  0  0  0
   -8.7166   -9.4523   10.6038 H   0  0  0  0  0  0  0  0  0  0  0  0
  -10.5552  -11.0239   11.1140 H   0  0  0  0  0  0  0  0  0  0  0  0
  -12.1355   -2.8140    3.5401 H   0  0  0  0  0  0  0  0  0  0  0  0
  -10.9628   -4.1650    3.3912 H   0  0  0  0  0  0  0  0  0  0  0  0
  1 58  1  0  0  0  0
  1 62  1  0  0  0  0
  2  6  1  0  0  0  0
  2  9  1  0  0  0  0
  2 10  1  0  0  0  0
  2 12  2  0  0  0  0
  3  8  1  0  0  0  0
  3 11  1  0  0  0  0
  3 14  1  0  0  0  0
  3 15  2  0  0  0  0
  4 11  1  0  0  0  0
  4 13  1  0  0  0  0
  4 17  1  0  0  0  0
  4 18  2  0  0  0  0
  5 33  1  0  0  0  0
  5 34  1  0  0  0  0
  7 70  1  0  0  0  0
  8 35  1  0  0  0  0
  9 71  1  0  0  0  0
 10 72  1  0  0  0  0
 13 42  1  0  0  0  0
 14 73  1  0  0  0  0
 16 74  1  0  0  0  0
 17 75  1  0  0  0  0
 19 46  2  0  0  0  0
 20 49  2  0  0  0  0
 21 63  2  0  0  0  0
 22 36  1  0  0  0  0
 22 37  1  0  0  0  0
 23 37  2  0  0  0  0
 23 38  1  0  0  0  0
 24 36  2  0  0  0  0
 24 45  1  0  0  0  0
 25 40  1  0  0  0  0
 25 45  2  0  0  0  0
 26 40  1  0  0  0  0
 26 64  1  0  0  0  0
 26 65  1  0  0  0  0
 27 46  1  0  0  0  0
 27 47  1  0  0  0  0
 27 66  1  0  0  0  0
 28 49  1  0  0  0  0
 28 54  1  0  0  0  0
 28 67  1  0  0  0  0
 29 53  1  0  0  0  0
 29 56  1  0  0  0  0
 29 68  1  0  0  0  0
 30 55  1  0  0  0  0
 30 63  1  0  0  0  0
 30 69  1  0  0  0  0
 31  6  1  0  0  0  0
 31 32  1  0  0  0  0
 31 33  1  0  0  0  0
 31 76  1  1  0  0  0
 32  7  1  0  0  0  0
 32 34  1  0  0  0  0
 32 77  1  1  0  0  0
 33 78  1  6  0  0  0
 33 35  1  0  0  0  0
 34 22  1  0  0  0  0
 34 79  1  6  0  0  0
 35 80  1  0  0  0  0
 35 81  1  0  0  0  0
 36 38  1  0  0  0  0
 37 82  1  0  0  0  0
 38 40  2  0  0  0  0
 39 42  1  0  0  0  0
 39 43  1  0  0  0  0
 39 44  1  0  0  0  0
 41 46  1  0  0  0  0
 41 83  1  1  0  0  0
 41 39  1  0  0  0  0
 41 16  1  0  0  0  0
 42 84  1  0  0  0  0
 42 85  1  0  0  0  0
 43 86  1  0  0  0  0
 43 87  1  0  0  0  0
 43 88  1  0  0  0  0
 44 89  1  0  0  0  0
 44 90  1  0  0  0  0
 44 91  1  0  0  0  0
 45 92  1  0  0  0  0
 47 48  1  0  0  0  0
 47 93  1  0  0  0  0
 47 94  1  0  0  0  0
 48 49  1  0  0  0  0
 48 95  1  0  0  0  0
 48 96  1  0  0  0  0
 50 51  1  0  0  0  0
 50 52  1  0  0  0  0
 50 56  2  0  0  0  0
 51 55  1  0  0  0  0
 51 97  1  0  0  0  0
 51 98  1  0  0  0  0
 52 53  1  0  0  0  0
 52 57  2  0  0  0  0
 53 59  2  0  0  0  0
 54 58  1  0  0  0  0
 54 99  1  0  0  0  0
 54100  1  0  0  0  0
 55101  1  0  0  0  0
 55102  1  0  0  0  0
 56103  1  0  0  0  0
 57 60  1  0  0  0  0
 57104  1  0  0  0  0
 58105  1  0  0  0  0
 58106  1  0  0  0  0
 59 61  1  0  0  0  0
 59107  1  0  0  0  0
 60 61  2  0  0  0  0
 60108  1  0  0  0  0
 61109  1  0  0  0  0
 62 63  1  0  0  0  0
 62110  1  0  0  0  0
 62111  1  0  0  0  0
M  END
>  <DRUGBANK_ID>
DB02931

>  <SECONDARY_ACCESSION_NUMBERS>
EXPT00990

>  <COMMON_NAME>
CoA-s-acetyl tryptamine

>  <SYNONYMS>
CoA-S-acetyl-tryptamine

$$$$
