
 OpenBabel10282417213D

 35 36  0  0  0  0  0  0  0  0999 V2000
    1.1199    1.4525   -0.1894 C   0  0  1  0  0  0  0  0  0  0  0  0
   -0.0908    2.0044    0.3525 O   0  0  0  0  0  0  0  0  0  0  0  0
    1.2568   -0.0194    0.2439 C   0  0  1  0  0  0  0  0  0  0  0  0
    1.1806    1.5009   -1.6236 O   0  0  0  0  0  0  0  0  0  0  0  0
   -1.2632    1.3547   -0.1696 C   0  0  1  0  0  0  0  0  0  0  0  0
    0.0207   -0.8183   -0.2054 C   0  0  2  0  0  0  0  0  0  0  0  0
    2.4574   -0.6016   -0.2800 O   0  0  0  0  0  0  0  0  0  0  0  0
    1.1035    2.7310   -2.2157 C   0  0  0  0  0  0  0  0  0  0  0  0
   -1.2761   -0.1198    0.2440 C   0  0  2  0  0  0  0  0  0  0  0  0
   -2.5016    2.0857    0.3607 C   0  0  0  0  0  0  0  0  0  0  0  0
    0.0686   -2.1526    0.3197 O   0  0  0  0  0  0  0  0  0  0  0  0
    1.0389    3.9557   -1.5443 C   0  0  0  0  0  0  0  0  0  0  0  0
    1.0620    2.7096   -3.6104 C   0  0  0  0  0  0  0  0  0  0  0  0
   -2.4289   -0.7796   -0.2792 O   0  0  0  0  0  0  0  0  0  0  0  0
   -2.4770    3.4571   -0.0354 O   0  0  0  0  0  0  0  0  0  0  0  0
    0.9194    5.1468   -2.2618 C   0  0  0  0  0  0  0  0  0  0  0  0
    0.9528    3.8992   -4.3303 C   0  0  0  0  0  0  0  0  0  0  0  0
    0.8806    5.1090   -3.6487 C   0  0  0  0  0  0  0  0  0  0  0  0
    0.7735    6.2486   -4.3870 O   0  0  0  0  0  0  0  0  0  0  0  0
    1.9783    2.0042    0.2150 H   0  0  0  0  0  0  0  0  0  0  0  0
    1.3345   -0.0720    1.3365 H   0  0  0  0  0  0  0  0  0  0  0  0
   -1.2758    1.4529   -1.2628 H   0  0  0  0  0  0  0  0  0  0  0  0
    0.0240   -0.9422   -1.2946 H   0  0  0  0  0  0  0  0  0  0  0  0
    2.3924   -0.5682   -1.2531 H   0  0  0  0  0  0  0  0  0  0  0  0
   -1.3429   -0.1911    1.3367 H   0  0  0  0  0  0  0  0  0  0  0  0
   -3.4197    1.6414   -0.0346 H   0  0  0  0  0  0  0  0  0  0  0  0
   -2.5353    2.0600    1.4539 H   0  0  0  0  0  0  0  0  0  0  0  0
    0.1184   -2.0999    1.2900 H   0  0  0  0  0  0  0  0  0  0  0  0
    1.0641    4.0199   -0.4625 H   0  0  0  0  0  0  0  0  0  0  0  0
    1.1072    1.7635   -4.1450 H   0  0  0  0  0  0  0  0  0  0  0  0
   -2.3459   -0.8315   -1.2480 H   0  0  0  0  0  0  0  0  0  0  0  0
   -1.6222    3.8101    0.2717 H   0  0  0  0  0  0  0  0  0  0  0  0
    0.8561    6.0846   -1.7175 H   0  0  0  0  0  0  0  0  0  0  0  0
    0.9206    3.8834   -5.4147 H   0  0  0  0  0  0  0  0  0  0  0  0
    0.7214    7.0064   -3.7810 H   0  0  0  0  0  0  0  0  0  0  0  0
  1  2  1  0  0  0  0
  1  3  1  0  0  0  0
  1 20  1  1  0  0  0
  1  4  1  0  0  0  0
  2  5  1  0  0  0  0
  3  6  1  0  0  0  0
  3  7  1  0  0  0  0
  3 21  1  1  0  0  0
  4  8  1  0  0  0  0
  5  9  1  0  0  0  0
  5 10  1  0  0  0  0
  5 22  1  6  0  0  0
  6 11  1  0  0  0  0
  6  9  1  0  0  0  0
  6 23  1  6  0  0  0
  7 24  1  0  0  0  0
  8 12  2  0  0  0  0
  8 13  1  0  0  0  0
  9 14  1  0  0  0  0
  9 25  1  1  0  0  0
 10 15  1  0  0  0  0
 10 26  1  0  0  0  0
 10 27  1  0  0  0  0
 11 28  1  0  0  0  0
 12 16  1  0  0  0  0
 12 29  1  0  0  0  0
 13 17  2  0  0  0  0
 13 30  1  0  0  0  0
 14 31  1  0  0  0  0
 15 32  1  0  0  0  0
 16 18  2  0  0  0  0
 16 33  1  0  0  0  0
 17 18  1  0  0  0  0
 17 34  1  0  0  0  0
 18 19  1  0  0  0  0
 19 35  1  0  0  0  0
M  END
>  <DRUGBANK_ID>
DB14109

>  <COMMON_NAME>
alpha-Arbutin

>  <CAS_NUMBER>
84380-01-8

>  <UNII>
72VUP07IT5

>  <SYNONYMS>
Alpha Arbutin; alpha-D-Glucopyranoside, 4-hydroxyphenyl; Î±-Arbutin

$$$$
