
 OpenBabel10282417223D

 52 54  0  0  0  0  0  0  0  0999 V2000
    9.1120   -4.4432   -1.2386 C   0  0  0  0  0  0  0  0  0  0  0  0
   10.4384   -4.3988   -0.5175 C   0  0  0  0  0  0  0  0  0  0  0  0
   11.5405   -4.8743   -1.1504 N   0  0  0  0  0  0  0  0  0  0  0  0
   12.7308   -4.7731   -0.4754 C   0  0  0  0  0  0  0  0  0  0  0  0
   13.9421   -5.3185   -1.1688 C   0  0  0  0  0  0  0  0  0  0  0  0
   12.8105   -4.1937    0.7959 C   0  0  0  0  0  0  0  0  0  0  0  0
   11.7080   -3.7267    1.4434 N   0  0  0  0  0  0  0  0  0  0  0  0
   10.5275   -3.8720    0.7774 C   0  0  0  0  0  0  0  0  0  0  0  0
    9.3551   -3.3418    1.4541 C   0  0  0  0  0  0  0  0  0  0  0  0
    8.2377   -4.1402    1.7585 C   0  0  0  0  0  0  0  0  0  0  0  0
    7.0859   -3.5805    2.3063 C   0  0  0  0  0  0  0  0  0  0  0  0
    7.0356   -2.2071    2.5608 C   0  0  0  0  0  0  0  0  0  0  0  0
    8.1282   -1.4202    2.1675 C   0  0  0  0  0  0  0  0  0  0  0  0
    9.2906   -1.9745    1.6777 C   0  0  0  0  0  0  0  0  0  0  0  0
    5.8651   -1.6036    3.3264 C   0  0  1  0  0  0  0  0  0  0  0  0
    5.6633   -2.3334    4.6725 C   0  0  0  0  0  0  0  0  0  0  0  0
    6.8353   -2.0623    5.6197 C   0  0  0  0  0  0  0  0  0  0  0  0
    6.9801   -0.5591    5.9240 C   0  0  2  0  0  0  0  0  0  0  0  0
    5.7816    0.0294    6.6785 C   0  0  0  0  0  0  0  0  0  0  0  0
    5.5242   -0.6634    7.9919 C   0  0  0  0  0  0  0  0  0  0  0  0
    5.6139    0.1363    9.0700 O   0  0  0  0  0  0  0  0  0  0  0  0
    5.2265   -1.8486    8.0961 O   0  0  0  0  0  0  0  0  0  0  0  0
    7.1709    0.2103    4.6121 C   0  0  0  0  0  0  0  0  0  0  0  0
    6.0498   -0.0890    3.5886 C   0  0  0  0  0  0  0  0  0  0  0  0
   14.1174   -4.0563    1.5338 C   0  0  0  0  0  0  0  0  0  0  0  0
   14.0825   -3.4518    2.7623 N   0  0  0  0  0  0  0  0  0  0  0  0
   15.1935   -4.4507    1.0989 O   0  0  0  0  0  0  0  0  0  0  0  0
    8.5088   -5.2799   -0.8699 H   0  0  0  0  0  0  0  0  0  0  0  0
    9.2339   -4.5521   -2.3180 H   0  0  0  0  0  0  0  0  0  0  0  0
    8.5445   -3.5162   -1.0806 H   0  0  0  0  0  0  0  0  0  0  0  0
   14.6732   -4.5205   -1.3331 H   0  0  0  0  0  0  0  0  0  0  0  0
   14.3909   -6.1165   -0.5678 H   0  0  0  0  0  0  0  0  0  0  0  0
   13.6894   -5.7429   -2.1436 H   0  0  0  0  0  0  0  0  0  0  0  0
    8.2521   -5.2082    1.5517 H   0  0  0  0  0  0  0  0  0  0  0  0
    6.2457   -4.2289    2.5482 H   0  0  0  0  0  0  0  0  0  0  0  0
    8.1394   -0.3423    2.2679 H   0  0  0  0  0  0  0  0  0  0  0  0
   10.1276   -1.3205    1.4461 H   0  0  0  0  0  0  0  0  0  0  0  0
    4.9646   -1.7422    2.7128 H   0  0  0  0  0  0  0  0  0  0  0  0
    4.7232   -2.0009    5.1291 H   0  0  0  0  0  0  0  0  0  0  0  0
    5.5473   -3.4149    4.5414 H   0  0  0  0  0  0  0  0  0  0  0  0
    6.7179   -2.6464    6.5348 H   0  0  0  0  0  0  0  0  0  0  0  0
    7.7670   -2.4405    5.1788 H   0  0  0  0  0  0  0  0  0  0  0  0
    7.8842   -0.4232    6.5328 H   0  0  0  0  0  0  0  0  0  0  0  0
    5.9488    1.1023    6.8320 H   0  0  0  0  0  0  0  0  0  0  0  0
    4.8577   -0.0385    6.0960 H   0  0  0  0  0  0  0  0  0  0  0  0
    5.8057    1.0709    8.8736 H   0  0  0  0  0  0  0  0  0  0  0  0
    7.2360    1.2913    4.7751 H   0  0  0  0  0  0  0  0  0  0  0  0
    8.1632   -0.0673    4.2434 H   0  0  0  0  0  0  0  0  0  0  0  0
    6.2378    0.4410    2.6461 H   0  0  0  0  0  0  0  0  0  0  0  0
    5.1067    0.3307    3.9543 H   0  0  0  0  0  0  0  0  0  0  0  0
   14.9517   -3.3724    3.2731 H   0  0  0  0  0  0  0  0  0  0  0  0
   13.2153   -3.1252    3.1693 H   0  0  0  0  0  0  0  0  0  0  0  0
  1  2  1  0  0  0  0
  1 28  1  0  0  0  0
  1 29  1  0  0  0  0
  1 30  1  0  0  0  0
  2  3  2  0  0  0  0
  2  8  1  0  0  0  0
  3  4  1  0  0  0  0
  4  5  1  0  0  0  0
  4  6  2  0  0  0  0
  5 31  1  0  0  0  0
  5 32  1  0  0  0  0
  5 33  1  0  0  0  0
  6  7  1  0  0  0  0
  6 25  1  0  0  0  0
  7  8  2  0  0  0  0
  8  9  1  0  0  0  0
  9 10  2  0  0  0  0
  9 14  1  0  0  0  0
 10 11  1  0  0  0  0
 10 34  1  0  0  0  0
 11 12  2  0  0  0  0
 11 35  1  0  0  0  0
 12 13  1  0  0  0  0
 13 14  2  0  0  0  0
 13 36  1  0  0  0  0
 14 37  1  0  0  0  0
 15 16  1  0  0  0  0
 15 24  1  0  0  0  0
 15 38  1  6  0  0  0
 15 12  1  0  0  0  0
 16 17  1  0  0  0  0
 16 39  1  0  0  0  0
 16 40  1  0  0  0  0
 17 41  1  0  0  0  0
 17 42  1  0  0  0  0
 18 17  1  0  0  0  0
 18 19  1  0  0  0  0
 18 23  1  0  0  0  0
 18 43  1  1  0  0  0
 19 20  1  0  0  0  0
 19 44  1  0  0  0  0
 19 45  1  0  0  0  0
 20 21  1  0  0  0  0
 20 22  2  0  0  0  0
 21 46  1  0  0  0  0
 23 24  1  0  0  0  0
 23 47  1  0  0  0  0
 23 48  1  0  0  0  0
 24 49  1  0  0  0  0
 24 50  1  0  0  0  0
 25 26  1  0  0  0  0
 25 27  2  0  0  0  0
 26 51  1  0  0  0  0
 26 52  1  0  0  0  0
M  END
>  <DRUGBANK_ID>
DB14949

>  <COMMON_NAME>
AZD-7687

>  <CAS_NUMBER>
1166827-44-6

>  <UNII>
6QTJ9P2NYT

$$$$
