
 OpenBabel10282417213D

  5  4  0  0  0  0  0  0  0  0999 V2000
    1.0611    0.0916   -0.0423 Cl  0  0  0  0  0  0  0  0  0  0  0  0
    2.5050    0.0696   -0.0345 O   0  0  0  0  0  0  0  0  0  0  0  0
    0.2999   -1.0659    0.3688 O   0  0  0  0  0  0  0  0  0  0  0  0
    0.2475    1.4034   -0.5082 O   0  0  0  0  0  0  0  0  0  0  0  0
   -0.6883    1.1745   -0.4269 H   0  0  0  0  0  0  0  0  0  0  0  0
  1  3  2  0  0  0  0
  1  4  1  0  0  0  0
  1  2  2  0  0  0  0
  4  5  1  0  0  0  0
M  END
>  <DRUGBANK_ID>
DB14150

>  <COMMON_NAME>
Chloric acid

>  <CAS_NUMBER>
7790-93-4

>  <UNII>
Z0V9L75H3K

>  <SYNONYMS>
Chlorate; Chlors√§ure

$$$$
