
 OpenBabel10282417203D

 53 55  0  0  0  0  0  0  0  0999 V2000
    1.0529    0.0957    0.0645 C   0  0  0  0  0  0  0  0  0  0  0  0
    1.1047    1.8970   -1.6722 C   0  0  0  0  0  0  0  0  0  0  0  0
   -5.3404    5.0669    3.6143 C   0  0  0  0  0  0  0  0  0  0  0  0
   -4.3626    5.0564    2.6395 C   0  0  0  0  0  0  0  0  0  0  0  0
   -6.0777    3.9102    3.8749 C   0  0  0  0  0  0  0  0  0  0  0  0
   -4.1331    3.8880    1.9335 C   0  0  0  0  0  0  0  0  0  0  0  0
   -5.8422    2.7348    3.1615 C   0  0  0  0  0  0  0  0  0  0  0  0
   -6.7300    0.5418   -4.5235 C   0  0  0  0  0  0  0  0  0  0  0  0
   -7.6675    2.6315   -3.7533 C   0  0  0  0  0  0  0  0  0  0  0  0
   -5.8920    0.5110   -3.4049 C   0  0  0  0  0  0  0  0  0  0  0  0
   -6.8713    2.5699   -2.6044 C   0  0  0  0  0  0  0  0  0  0  0  0
   -3.0214    2.7192   -1.0990 C   0  0  0  0  0  0  0  0  0  0  0  0
   -3.0414    0.1640   -1.0657 C   0  0  0  0  0  0  0  0  0  0  0  0
   -1.5188    2.6735   -1.0540 C   0  0  0  0  0  0  0  0  0  0  0  0
   -1.5350    0.2536   -1.0776 C   0  0  0  0  0  0  0  0  0  0  0  0
   -4.7532    1.4948    1.2690 C   0  0  0  0  0  0  0  0  0  0  0  0
    0.4697    1.4583   -0.3444 C   0  0  0  0  0  0  0  0  0  0  0  0
   -4.8983    2.7244    2.1391 C   0  0  0  0  0  0  0  0  0  0  0  0
   -7.6331    1.5902   -4.6783 C   0  0  0  0  0  0  0  0  0  0  0  0
   -5.9819    1.5063   -2.4198 C   0  0  0  0  0  0  0  0  0  0  0  0
   -3.6808    1.4413   -1.5863 C   0  0  0  0  0  0  0  0  0  0  0  0
   -5.6727    1.5108    0.0199 C   0  0  0  0  0  0  0  0  0  0  0  0
   -8.7545    1.5667   -5.9835 Cl  0  0  0  0  0  0  0  0  0  0  0  0
   -1.0177    1.4509   -0.4025 N   0  0  0  0  0  0  0  0  0  0  0  0
   -5.1252    1.4660   -1.2755 N   0  0  0  0  0  0  0  0  0  0  0  0
   -6.9064    1.4971    0.2000 O   0  0  0  0  0  0  0  0  0  0  0  0
    0.8341   -0.6767   -0.6820 H   0  0  0  0  0  0  0  0  0  0  0  0
    0.6532   -0.2332    1.0302 H   0  0  0  0  0  0  0  0  0  0  0  0
    2.1424    0.1393    0.1388 H   0  0  0  0  0  0  0  0  0  0  0  0
    0.7622    1.2599   -2.4944 H   0  0  0  0  0  0  0  0  0  0  0  0
    0.8513    2.9344   -1.9173 H   0  0  0  0  0  0  0  0  0  0  0  0
    2.1935    1.8501   -1.6312 H   0  0  0  0  0  0  0  0  0  0  0  0
   -5.5127    5.9747    4.1799 H   0  0  0  0  0  0  0  0  0  0  0  0
   -3.7697    5.9374    2.4106 H   0  0  0  0  0  0  0  0  0  0  0  0
   -6.8560    3.9275    4.6295 H   0  0  0  0  0  0  0  0  0  0  0  0
   -3.3091    3.9572    1.2414 H   0  0  0  0  0  0  0  0  0  0  0  0
   -6.4010    1.8323    3.3991 H   0  0  0  0  0  0  0  0  0  0  0  0
   -6.6861   -0.2600   -5.2559 H   0  0  0  0  0  0  0  0  0  0  0  0
   -8.3216    3.4848   -3.9104 H   0  0  0  0  0  0  0  0  0  0  0  0
   -5.2153   -0.3300   -3.2825 H   0  0  0  0  0  0  0  0  0  0  0  0
   -6.9389    3.3649   -1.8665 H   0  0  0  0  0  0  0  0  0  0  0  0
   -3.3805    3.6084   -1.6304 H   0  0  0  0  0  0  0  0  0  0  0  0
   -3.3337    2.8634   -0.0984 H   0  0  0  0  0  0  0  0  0  0  0  0
   -3.3582   -0.1051   -0.0567 H   0  0  0  0  0  0  0  0  0  0  0  0
   -3.3682   -0.6870   -1.6718 H   0  0  0  0  0  0  0  0  0  0  0  0
   -1.1880    2.7548   -2.0912 H   0  0  0  0  0  0  0  0  0  0  0  0
   -1.1579    3.5560   -0.5051 H   0  0  0  0  0  0  0  0  0  0  0  0
   -1.2097   -0.6522   -0.5588 H   0  0  0  0  0  0  0  0  0  0  0  0
   -1.1797    0.2113   -2.1103 H   0  0  0  0  0  0  0  0  0  0  0  0
   -4.9956    0.5813    1.8307 H   0  0  0  0  0  0  0  0  0  0  0  0
   -3.6912    1.3847    1.0751 H   0  0  0  0  0  0  0  0  0  0  0  0
    0.7689    2.1786    0.4310 H   0  0  0  0  0  0  0  0  0  0  0  0
   -3.5353    1.4523   -2.6758 H   0  0  0  0  0  0  0  0  0  0  0  0
  1 27  1  0  0  0  0
  1 28  1  0  0  0  0
  1 29  1  0  0  0  0
  2 30  1  0  0  0  0
  2 31  1  0  0  0  0
  2 32  1  0  0  0  0
  3 33  1  0  0  0  0
  4  3  2  0  0  0  0
  4 34  1  0  0  0  0
  5  3  1  0  0  0  0
  5 35  1  0  0  0  0
  6  4  1  0  0  0  0
  6 36  1  0  0  0  0
  7  5  2  0  0  0  0
  7 37  1  0  0  0  0
  8 38  1  0  0  0  0
  9 39  1  0  0  0  0
 10  8  1  0  0  0  0
 10 40  1  0  0  0  0
 11  9  2  0  0  0  0
 11 41  1  0  0  0  0
 12 42  1  0  0  0  0
 12 43  1  0  0  0  0
 13 44  1  0  0  0  0
 13 45  1  0  0  0  0
 14 12  1  0  0  0  0
 14 46  1  0  0  0  0
 14 47  1  0  0  0  0
 15 13  1  0  0  0  0
 15 48  1  0  0  0  0
 15 49  1  0  0  0  0
 16 50  1  0  0  0  0
 16 51  1  0  0  0  0
 17  1  1  0  0  0  0
 17  2  1  0  0  0  0
 17 52  1  0  0  0  0
 18  6  2  0  0  0  0
 18  7  1  0  0  0  0
 18 16  1  0  0  0  0
 19  8  2  0  0  0  0
 19  9  1  0  0  0  0
 20 10  2  0  0  0  0
 20 11  1  0  0  0  0
 21 12  1  0  0  0  0
 21 13  1  0  0  0  0
 21 53  1  0  0  0  0
 22 16  1  0  0  0  0
 23 19  1  0  0  0  0
 24 14  1  0  0  0  0
 24 15  1  0  0  0  0
 24 17  1  0  0  0  0
 25 20  1  0  0  0  0
 25 21  1  0  0  0  0
 25 22  1  0  0  0  0
 26 22  2  0  0  0  0
M  END
>  <DRUGBANK_ID>
DB13653

>  <COMMON_NAME>
Lorcainide

>  <CAS_NUMBER>
59729-31-6

>  <UNII>
KGJ2T0N7IQ

>  <SYNONYMS>
Lorcainide

$$$$
