
 OpenBabel10282417203D

 24 23  0  0  0  0  0  0  0  0999 V2000
    0.9278   -0.0135   -0.0555 C   0  0  0  0  0  0  0  0  0  0  0  0
   -0.3498   -2.0712    0.4807 C   0  0  0  0  0  0  0  0  0  0  0  0
   -1.0272   -7.9211   -3.7629 C   0  0  0  0  0  0  0  0  0  0  0  0
   -1.0147   -6.1590   -2.1109 C   0  0  0  0  0  0  0  0  0  0  0  0
    0.8888   -1.8619   -1.7381 C   0  0  0  0  0  0  0  0  0  0  0  0
    0.2657   -5.8042   -4.2725 C   0  0  0  0  0  0  0  0  0  0  0  0
    0.4951   -1.3436   -0.4763 N   0  0  0  0  0  0  0  0  0  0  0  0
   -0.5506   -6.5771   -3.4147 N   0  0  0  0  0  0  0  0  0  0  0  0
    1.8589   -1.0180   -2.8288 S   0  0  0  0  0  0  0  0  0  0  0  0
    0.7763   -6.3591   -5.7973 S   0  0  0  0  0  0  0  0  0  0  0  0
    0.2604   -3.4836   -2.0542 S   0  0  0  0  0  0  0  0  0  0  0  0
    0.8681   -4.1600   -3.8841 S   0  0  0  0  0  0  0  0  0  0  0  0
    0.5436    0.2401    0.9358 H   0  0  0  0  0  0  0  0  0  0  0  0
    0.5575    0.7264   -0.7708 H   0  0  0  0  0  0  0  0  0  0  0  0
    2.0207    0.0133   -0.0213 H   0  0  0  0  0  0  0  0  0  0  0  0
   -1.3198   -2.2914    0.0238 H   0  0  0  0  0  0  0  0  0  0  0  0
    0.1424   -3.0042    0.7729 H   0  0  0  0  0  0  0  0  0  0  0  0
   -0.5272   -1.4834    1.3862 H   0  0  0  0  0  0  0  0  0  0  0  0
   -0.6678   -8.6177   -2.9958 H   0  0  0  0  0  0  0  0  0  0  0  0
   -2.1237   -7.9081   -3.7416 H   0  0  0  0  0  0  0  0  0  0  0  0
   -0.7093   -8.2890   -4.7336 H   0  0  0  0  0  0  0  0  0  0  0  0
   -0.1502   -6.0051   -1.4619 H   0  0  0  0  0  0  0  0  0  0  0  0
   -1.6461   -5.2760   -2.2282 H   0  0  0  0  0  0  0  0  0  0  0  0
   -1.6325   -6.9285   -1.6370 H   0  0  0  0  0  0  0  0  0  0  0  0
  1 13  1  0  0  0  0
  1 14  1  0  0  0  0
  1 15  1  0  0  0  0
  2 16  1  0  0  0  0
  2 17  1  0  0  0  0
  2 18  1  0  0  0  0
  3 19  1  0  0  0  0
  3 20  1  0  0  0  0
  3 21  1  0  0  0  0
  4 22  1  0  0  0  0
  4 23  1  0  0  0  0
  4 24  1  0  0  0  0
  7  1  1  0  0  0  0
  7  2  1  0  0  0  0
  7  5  1  0  0  0  0
  8  3  1  0  0  0  0
  8  4  1  0  0  0  0
  8  6  1  0  0  0  0
  9  5  2  0  0  0  0
 10  6  2  0  0  0  0
 11  5  1  0  0  0  0
 12  6  1  0  0  0  0
 12 11  1  0  0  0  0
M  END
>  <DRUGBANK_ID>
DB13245

>  <COMMON_NAME>
Thiram

>  <CAS_NUMBER>
137-26-8

>  <UNII>
0D771IS0FH

>  <SYNONYMS>
Tetramethylthiuram disulfide; Thiram; Thirame; Thiramum; Thiuram; Tiramo

$$$$
