
 OpenBabel10282417193D

 38 37  0  0  1  0  0  0  0  0999 V2000
    2.9652    0.8037   -0.7623 C   0  0  0  0  0  0  0  0  0  0  0  0
    2.7109    2.5229   -0.4296 S   0  0  0  0  0  0  0  0  0  0  0  0
    3.2073    2.7322    0.9151 O   0  0  0  0  0  0  0  0  0  0  0  0
    3.1875    3.3118   -1.5395 O   0  0  0  0  0  0  0  0  0  0  0  0
    1.0752    2.6116   -0.4183 O   0  0  0  0  0  0  0  0  0  0  0  0
    0.5211    3.9044   -0.1493 C   0  0  0  0  0  0  0  0  0  0  0  0
    0.8272    4.3841    1.2753 C   0  0  2  0  0  0  0  0  0  0  0  0
    0.2123    3.3780    2.2796 C   0  0  2  0  0  0  0  0  0  0  0  0
   -0.5248    4.0059    3.5570 C   0  0  1  0  0  0  0  0  0  0  0  0
   -0.9117    2.9233    4.5375 C   0  0  1  0  0  0  0  0  0  0  0  0
    0.3585    2.1490    4.9903 C   0  0  0  0  0  0  0  0  0  0  0  0
    1.5136    2.9889    5.3883 O   0  0  0  0  0  0  0  0  0  0  0  0
    2.6376    3.6564    4.3520 S   0  0  0  0  0  0  0  0  0  0  0  0
    3.3677    2.5964    3.6728 O   0  0  0  0  0  0  0  0  0  0  0  0
    2.1171    4.7643    3.5988 O   0  0  0  0  0  0  0  0  0  0  0  0
    3.7188    4.5329    5.4040 C   0  0  0  0  0  0  0  0  0  0  0  0
   -1.4650    3.5504    5.7165 O   0  0  0  0  0  0  0  0  0  0  0  0
    0.0192    5.0017    4.4512 O   0  0  0  0  0  0  0  0  0  0  0  0
    0.9837    2.1649    2.4238 O   0  0  0  0  0  0  0  0  0  0  0  0
    0.3543    5.7161    1.4505 O   0  0  0  0  0  0  0  0  0  0  0  0
    4.0498    0.6620   -0.7022 H   0  0  0  0  0  0  0  0  0  0  0  0
    2.6096    0.5515   -1.7582 H   0  0  0  0  0  0  0  0  0  0  0  0
    2.4944    0.1974    0.0144 H   0  0  0  0  0  0  0  0  0  0  0  0
    0.8753    4.6332   -0.8849 H   0  0  0  0  0  0  0  0  0  0  0  0
   -0.5711    3.8716   -0.2710 H   0  0  0  0  0  0  0  0  0  0  0  0
    1.9104    4.4548    1.3703 H   0  0  0  0  0  0  0  0  0  0  0  0
   -0.6385    2.9252    1.7644 H   0  0  0  0  0  0  0  0  0  0  0  0
   -1.3708    4.5649    3.1542 H   0  0  0  0  0  0  0  0  0  0  0  0
   -1.7127    2.3052    4.1097 H   0  0  0  0  0  0  0  0  0  0  0  0
    0.0482    1.5795    5.8761 H   0  0  0  0  0  0  0  0  0  0  0  0
    0.6289    1.3581    4.2876 H   0  0  0  0  0  0  0  0  0  0  0  0
    3.1343    5.0892    6.1370 H   0  0  0  0  0  0  0  0  0  0  0  0
    4.4589    3.8552    5.8005 H   0  0  0  0  0  0  0  0  0  0  0  0
    4.2011    5.2756    4.7442 H   0  0  0  0  0  0  0  0  0  0  0  0
   -0.8122    4.2640    5.9031 H   0  0  0  0  0  0  0  0  0  0  0  0
    0.8511    5.3292    4.0622 H   0  0  0  0  0  0  0  0  0  0  0  0
    1.9588    2.2890    2.5141 H   0  0  0  0  0  0  0  0  0  0  0  0
   -0.6101    5.7080    1.5301 H   0  0  0  0  0  0  0  0  0  0  0  0
  1  2  1  0  0  0  0
  1 21  1  0  0  0  0
  1 22  1  0  0  0  0
  1 23  1  0  0  0  0
  2  3  2  0  0  0  0
  2  4  2  0  0  0  0
  2  5  1  0  0  0  0
  5  6  1  0  0  0  0
  6 24  1  0  0  0  0
  6 25  1  0  0  0  0
  7 20  1  0  0  0  0
  7 26  1  1  0  0  0
  7  8  1  0  0  0  0
  7  6  1  0  0  0  0
  8 27  1  6  0  0  0
  8 19  1  0  0  0  0
  8  9  1  0  0  0  0
  9 10  1  0  0  0  0
  9 18  1  0  0  0  0
  9 28  1  6  0  0  0
 10 11  1  0  0  0  0
 10 17  1  0  0  0  0
 10 29  1  6  0  0  0
 11 12  1  0  0  0  0
 11 30  1  0  0  0  0
 11 31  1  0  0  0  0
 12 13  1  0  0  0  0
 13 14  2  0  0  0  0
 13 15  2  0  0  0  0
 13 16  1  0  0  0  0
 16 32  1  0  0  0  0
 16 33  1  0  0  0  0
 16 34  1  0  0  0  0
 17 35  1  0  0  0  0
 18 36  1  0  0  0  0
 19 37  1  0  0  0  0
 20 38  1  0  0  0  0
M  END
>  <DRUGBANK_ID>
DB12097

>  <COMMON_NAME>
Mannitol busulfan

>  <CAS_NUMBER>
1187-00-4

>  <UNII>
6STO1P091F

$$$$
