
 OpenBabel10282417143D

 31 32  0  0  1  0  0  0  0  0999 V2000
   -1.3666   -0.0882   -0.0182 C   0  0  0  0  0  0  0  0  0  0  0  0
   -0.7509    1.0970    0.0741 C   0  0  0  0  0  0  0  0  0  0  0  0
    0.7327   -1.2352    0.0569 C   0  0  0  0  0  0  0  0  0  0  0  0
   -0.5774    5.1378    0.8232 C   0  0  0  0  0  0  0  0  0  0  0  0
   -0.6048   -1.3176   -0.0190 C   0  0  0  0  0  0  0  0  0  0  0  0
    0.8331    4.7048    0.4066 C   0  0  2  0  0  0  0  0  0  0  0  0
    1.4310    0.0708   -0.0278 C   0  0  0  0  0  0  0  0  0  0  0  0
    1.0369    4.6736   -1.1118 C   0  0  2  0  0  0  0  0  0  0  0  0
    0.8085    3.2149   -1.4769 C   0  0  2  0  0  0  0  0  0  0  0  0
    1.2811    2.4893   -0.2065 C   0  0  2  0  0  0  0  0  0  0  0  0
   -1.2893   -2.5072   -0.0090 N   0  0  0  0  0  0  0  0  0  0  0  0
    0.6310    1.2031    0.0153 N   0  0  0  0  0  0  0  0  0  0  0  0
   -1.5967    4.3234    0.2511 O   0  0  0  0  0  0  0  0  0  0  0  0
    2.6597    0.0809   -0.1525 O   0  0  0  0  0  0  0  0  0  0  0  0
    2.3652    5.0794   -1.4700 O   0  0  0  0  0  0  0  0  0  0  0  0
    1.4859    2.8219   -2.6666 O   0  0  0  0  0  0  0  0  0  0  0  0
    1.0622    3.3688    0.9055 O   0  0  0  0  0  0  0  0  0  0  0  0
    1.5639    5.3654    0.8892 H   0  0  0  0  0  0  0  0  0  0  0  0
    0.3549    5.3499   -1.6376 H   0  0  0  0  0  0  0  0  0  0  0  0
   -0.2560    3.0440   -1.6562 H   0  0  0  0  0  0  0  0  0  0  0  0
    2.3658    2.3487   -0.2743 H   0  0  0  0  0  0  0  0  0  0  0  0
   -2.4507   -0.1365   -0.0374 H   0  0  0  0  0  0  0  0  0  0  0  0
   -1.3269    2.0094    0.1642 H   0  0  0  0  0  0  0  0  0  0  0  0
    1.3696   -2.1015    0.1587 H   0  0  0  0  0  0  0  0  0  0  0  0
   -0.6822    5.0605    1.9106 H   0  0  0  0  0  0  0  0  0  0  0  0
   -0.7671    6.1740    0.5296 H   0  0  0  0  0  0  0  0  0  0  0  0
   -0.7498   -3.3382   -0.2348 H   0  0  0  0  0  0  0  0  0  0  0  0
   -2.2409   -2.5011   -0.3630 H   0  0  0  0  0  0  0  0  0  0  0  0
   -1.5806    4.4246   -0.7139 H   0  0  0  0  0  0  0  0  0  0  0  0
    3.0125    4.5267   -1.0002 H   0  0  0  0  0  0  0  0  0  0  0  0
    2.4201    3.0849   -2.5846 H   0  0  0  0  0  0  0  0  0  0  0  0
  1 22  1  0  0  0  0
  2  1  2  0  0  0  0
  2 23  1  0  0  0  0
  3 24  1  0  0  0  0
  4 25  1  0  0  0  0
  4 26  1  0  0  0  0
  5  1  1  0  0  0  0
  5  3  2  0  0  0  0
  6 18  1  1  0  0  0
  6  4  1  0  0  0  0
  7  3  1  0  0  0  0
  8  6  1  0  0  0  0
  8 15  1  0  0  0  0
  8 19  1  6  0  0  0
  9  8  1  0  0  0  0
  9 16  1  0  0  0  0
  9 20  1  6  0  0  0
 10  9  1  0  0  0  0
 10 12  1  0  0  0  0
 10 21  1  6  0  0  0
 11  5  1  0  0  0  0
 11 27  1  0  0  0  0
 11 28  1  0  0  0  0
 12  2  1  0  0  0  0
 12  7  1  0  0  0  0
 13  4  1  0  0  0  0
 13 29  1  0  0  0  0
 14  7  2  0  0  0  0
 15 30  1  0  0  0  0
 16 31  1  0  0  0  0
 17  6  1  0  0  0  0
 17 10  1  0  0  0  0
M  END
>  <DRUGBANK_ID>
DB04385

>  <SECONDARY_ACCESSION_NUMBERS>
EXPT01050

>  <COMMON_NAME>
3-Deazacytidine

$$$$
