
 OpenBabel10282417183D

 39 40  0  0  0  0  0  0  0  0999 V2000
   -1.3565    0.5315   -0.2927 C   0  0  0  0  0  0  0  0  0  0  0  0
   -1.1686   -0.8641   -0.2860 C   0  0  0  0  0  0  0  0  0  0  0  0
    0.0163    1.6449   -0.5917 S   0  3  0  0  0  0  0  0  0  0  0  0
   -2.6297    1.1234   -0.1313 C   0  0  0  0  0  0  0  0  0  0  0  0
    0.0184   -1.5154   -0.4109 N   0  0  0  0  0  0  0  0  0  0  0  0
   -2.3309   -1.5970   -0.1183 C   0  0  0  0  0  0  0  0  0  0  0  0
    1.3976    0.5283   -0.3452 C   0  0  0  0  0  0  0  0  0  0  0  0
   -3.8097    0.3812   -0.0424 C   0  0  0  0  0  0  0  0  0  0  0  0
    1.2115   -0.8674   -0.3348 C   0  0  0  0  0  0  0  0  0  0  0  0
   -3.6146   -1.0083   -0.0149 C   0  0  0  0  0  0  0  0  0  0  0  0
    2.6678    1.1205   -0.1707 C   0  0  0  0  0  0  0  0  0  0  0  0
   -5.0708    0.9629    0.0050 N   0  0  0  0  0  0  0  0  0  0  0  0
    2.3764   -1.6016   -0.1878 C   0  0  0  0  0  0  0  0  0  0  0  0
    3.8465    0.3800   -0.0620 C   0  0  0  0  0  0  0  0  0  0  0  0
   -5.2913    2.4056   -0.0450 C   0  0  0  0  0  0  0  0  0  0  0  0
   -6.2743    0.1381   -0.0155 C   0  0  0  0  0  0  0  0  0  0  0  0
    3.6570   -1.0110   -0.0661 C   0  0  0  0  0  0  0  0  0  0  0  0
    5.1019    0.9657    0.0453 N   0  0  0  0  0  0  0  0  0  0  0  0
    5.3152    2.4098    0.0620 C   0  0  0  0  0  0  0  0  0  0  0  0
    6.3043    0.1419    0.0405 C   0  0  0  0  0  0  0  0  0  0  0  0
    0.3189    0.2042    3.1894 Cl  0  5  0  0  0  0  0  0  0  0  0  0
   -2.6432    2.2054   -0.0736 H   0  0  0  0  0  0  0  0  0  0  0  0
   -2.2508   -2.6808   -0.0397 H   0  0  0  0  0  0  0  0  0  0  0  0
   -4.4552   -1.6843    0.1035 H   0  0  0  0  0  0  0  0  0  0  0  0
    2.6760    2.2002   -0.0833 H   0  0  0  0  0  0  0  0  0  0  0  0
    2.2987   -2.6854   -0.1080 H   0  0  0  0  0  0  0  0  0  0  0  0
   -5.8474    2.6695   -0.9519 H   0  0  0  0  0  0  0  0  0  0  0  0
   -5.8832    2.7203    0.8216 H   0  0  0  0  0  0  0  0  0  0  0  0
   -4.3922    3.0221   -0.0416 H   0  0  0  0  0  0  0  0  0  0  0  0
   -6.3022   -0.5002   -0.9061 H   0  0  0  0  0  0  0  0  0  0  0  0
   -6.3398   -0.4844    0.8829 H   0  0  0  0  0  0  0  0  0  0  0  0
   -7.1819    0.7542   -0.0426 H   0  0  0  0  0  0  0  0  0  0  0  0
    4.4964   -1.6856    0.0679 H   0  0  0  0  0  0  0  0  0  0  0  0
    5.8913    2.6947    0.9495 H   0  0  0  0  0  0  0  0  0  0  0  0
    5.8830    2.7117   -0.8253 H   0  0  0  0  0  0  0  0  0  0  0  0
    4.4129    3.0218    0.0776 H   0  0  0  0  0  0  0  0  0  0  0  0
    6.3446   -0.5050    0.9234 H   0  0  0  0  0  0  0  0  0  0  0  0
    6.3523   -0.4731   -0.8653 H   0  0  0  0  0  0  0  0  0  0  0  0
    7.2128    0.7564    0.0521 H   0  0  0  0  0  0  0  0  0  0  0  0
  1  2  1  0  0  0  0
  1  3  2  0  0  0  0
  1  4  1  0  0  0  0
  2  5  2  0  0  0  0
  2  6  1  0  0  0  0
  3  7  1  0  0  0  0
  4  8  2  0  0  0  0
  4 22  1  0  0  0  0
  5  9  1  0  0  0  0
  6 10  2  0  0  0  0
  6 23  1  0  0  0  0
  7 11  1  0  0  0  0
  7  9  2  0  0  0  0
  8 12  1  0  0  0  0
  8 10  1  0  0  0  0
  9 13  1  0  0  0  0
 10 24  1  0  0  0  0
 11 14  2  0  0  0  0
 11 25  1  0  0  0  0
 12 15  1  0  0  0  0
 12 16  1  0  0  0  0
 13 17  2  0  0  0  0
 13 26  1  0  0  0  0
 14 18  1  0  0  0  0
 14 17  1  0  0  0  0
 15 27  1  0  0  0  0
 15 28  1  0  0  0  0
 15 29  1  0  0  0  0
 16 30  1  0  0  0  0
 16 31  1  0  0  0  0
 16 32  1  0  0  0  0
 17 33  1  0  0  0  0
 18 19  1  0  0  0  0
 18 20  1  0  0  0  0
 19 34  1  0  0  0  0
 19 35  1  0  0  0  0
 19 36  1  0  0  0  0
 20 37  1  0  0  0  0
 20 38  1  0  0  0  0
 20 39  1  0  0  0  0
M  CHG  2   3   1  21  -1
M  END
>  <DRUGBANK_ID>
DB09241

>  <COMMON_NAME>
Methylene blue

>  <CAS_NUMBER>
61-73-4

>  <UNII>
8NAP7826UB

>  <SYNONYMS>
Azul de metileno; Basic Blue 9; C.I. basic blue 9; Chlorure de m√©thylthioninium; Cloruro de metiltioninio; Lowacryl blue 9; Methylene blue; Methylene blue anhydrous; Methylenium ceruleum; Methylthioninii chloridum; Methylthioninium chloride; Solvent blue 8; Swiss blue

$$$$
