
 OpenBabel10282417183D

137143  0  0  0  0  0  0  0  0999 V2000
   -1.0854   10.9613   -2.0946 C   0  0  1  0  0  0  0  0  0  0  0  0
   -2.2154   10.4038    0.0233 C   0  0  2  0  0  0  0  0  0  0  0  0
   -1.2777   10.0705   -1.0450 O   0  0  0  0  0  0  0  0  0  0  0  0
   -2.6877    6.3490   -1.2937 C   0  0  2  0  0  0  0  0  0  0  0  0
   -2.2394    8.1397    0.3303 C   0  0  1  0  0  0  0  0  0  0  0  0
   -0.7326   12.2926   -1.4284 C   0  0  2  0  0  0  0  0  0  0  0  0
    0.1581    0.9616   -1.6634 O   0  0  0  0  0  0  0  0  0  0  0  0
   -1.9229   -0.6894   -2.7048 O   0  0  0  0  0  0  0  0  0  0  0  0
   -0.6860    1.2189    0.0644 C   0  0  1  0  0  0  0  0  0  0  0  0
   -1.8854   11.6750    0.6983 C   0  0  1  0  0  0  0  0  0  0  0  0
   -0.2660    1.3623    1.6524 C   0  0  1  0  0  0  0  0  0  0  0  0
   -1.0069    1.5582   -3.0824 C   0  0  1  0  0  0  0  0  0  0  0  0
   -2.1923   -1.9959   -2.6872 C   0  0  1  0  0  0  0  0  0  0  0  0
   -2.2769    9.4496    1.2332 C   0  0  1  0  0  0  0  0  0  0  0  0
   -1.7775   12.6741   -0.3892 C   0  0  1  0  0  0  0  0  0  0  0  0
   -2.7631    7.7919   -0.9854 O   0  0  0  0  0  0  0  0  0  0  0  0
   -2.4200    2.1709   -0.3874 C   0  0  2  0  0  0  0  0  0  0  0  0
   -1.4081    0.2011   -3.6765 C   0  0  2  0  0  0  0  0  0  0  0  0
   -1.1674    2.4808    1.6666 O   0  0  0  0  0  0  0  0  0  0  0  0
   -2.6318    5.1971   -0.3575 O   0  0  0  0  0  0  0  0  0  0  0  0
   -0.7893    7.5382    0.4461 C   0  0  1  0  0  0  0  0  0  0  0  0
    0.0636   10.5665   -3.0549 C   0  0  0  0  0  0  0  0  0  0  0  0
   -3.1650    4.9813    1.2304 C   0  0  2  0  0  0  0  0  0  0  0  0
   -1.1829    6.1575   -1.6394 C   0  0  0  0  0  0  0  0  0  0  0  0
   -2.4562    2.6320   -2.2772 C   0  0  0  0  0  0  0  0  0  0  0  0
   -0.8429    3.8869   -1.0007 O   0  0  0  0  0  0  0  0  0  0  0  0
   -0.4768    6.4478   -0.3486 C   0  0  2  0  0  0  0  0  0  0  0  0
   -2.0329    3.7534    2.3478 C   0  0  1  0  0  0  0  0  0  0  0  0
   -2.5535    0.4015   -4.5757 C   0  0  2  0  0  0  0  0  0  0  0  0
   -0.1543    9.2698   -3.7451 C   0  0  0  0  0  0  0  0  0  0  0  0
   -1.0569    3.7368    0.2731 C   0  0  1  0  0  0  0  0  0  0  0  0
   -2.4489    3.2413    0.3556 O   0  0  0  0  0  0  0  0  0  0  0  0
   -3.3219   -1.8656   -3.6551 C   0  0  1  0  0  0  0  0  0  0  0  0
   -2.9184   -1.0345   -4.9046 C   0  0  0  0  0  0  0  0  0  0  0  0
   -0.4746    2.6238   -1.4569 C   0  0  1  0  0  0  0  0  0  0  0  0
   -1.0252    1.3438    2.9574 C   0  0  0  0  0  0  0  0  0  0  0  0
   -0.3381    9.2587   -5.0700 O   0  0  0  0  0  0  0  0  0  0  0  0
   -4.4571    5.4576    0.4146 C   0  0  0  0  0  0  0  0  0  0  0  0
   -2.2980   10.9917   -2.8156 O   0  0  0  0  0  0  0  0  0  0  0  0
   -4.1048    5.7574   -1.3132 C   0  0  0  0  0  0  0  0  0  0  0  0
   -2.3602    2.5316    3.0916 C   0  0  0  0  0  0  0  0  0  0  0  0
    1.2947    2.7860   -1.0924 C   0  0  2  0  0  0  0  0  0  0  0  0
   -0.1465    8.2210   -3.1541 O   0  0  0  0  0  0  0  0  0  0  0  0
   -0.9933   -2.6177   -3.0359 O   0  0  0  0  0  0  0  0  0  0  0  0
    1.4146    2.8901    0.3918 C   0  0  0  0  0  0  0  0  0  0  0  0
   -2.9018   11.9715    1.6682 O   0  0  0  0  0  0  0  0  0  0  0  0
   -1.4991   13.9356    0.1922 O   0  0  0  0  0  0  0  0  0  0  0  0
    0.4699    3.6410    1.3165 C   0  0  0  0  0  0  0  0  0  0  0  0
    0.6336    5.9040    0.2016 O   0  0  0  0  0  0  0  0  0  0  0  0
   -0.7511   13.4235   -2.4214 C   0  0  0  0  0  0  0  0  0  0  0  0
   -2.6696   -2.5310   -1.3074 C   0  0  0  0  0  0  0  0  0  0  0  0
    1.5073    0.9273    1.8607 C   0  0  0  0  0  0  0  0  0  0  0  0
   -1.1326    9.7932    2.6524 C   0  0  0  0  0  0  0  0  0  0  0  0
    0.0153    8.5792    0.8604 C   0  0  0  0  0  0  0  0  0  0  0  0
    2.2169    3.7197   -1.6883 O   0  0  0  0  0  0  0  0  0  0  0  0
   -2.6615    6.1656    1.9211 C   0  0  0  0  0  0  0  0  0  0  0  0
   -2.0782    1.2402   -5.7290 C   0  0  0  0  0  0  0  0  0  0  0  0
   -3.6923   -3.2518   -4.0128 C   0  0  0  0  0  0  0  0  0  0  0  0
   -1.6756    0.9097   -1.4338 C   0  0  0  0  0  0  0  0  0  0  0  0
   -4.2086   11.9401    1.0934 C   0  0  0  0  0  0  0  0  0  0  0  0
    1.9500    4.9356   -1.1380 C   0  0  0  0  0  0  0  0  0  0  0  0
   -1.2881    4.6049    0.7315 H   0  0  0  0  0  0  0  0  0  0  0  0
   -3.1739   10.3205   -0.4956 H   0  0  0  0  0  0  0  0  0  0  0  0
   -1.2239    4.4106    2.7569 H   0  0  0  0  0  0  0  0  0  0  0  0
   -0.6326    0.1206    0.1985 H   0  0  0  0  0  0  0  0  0  0  0  0
   -0.4550    2.2026   -3.8079 H   0  0  0  0  0  0  0  0  0  0  0  0
   -3.2424    7.8794    0.6836 H   0  0  0  0  0  0  0  0  0  0  0  0
   -0.4595   -0.1837   -4.0220 H   0  0  0  0  0  0  0  0  0  0  0  0
    0.2496   12.2031   -0.9280 H   0  0  0  0  0  0  0  0  0  0  0  0
   -0.9028   11.6056    1.1922 H   0  0  0  0  0  0  0  0  0  0  0  0
   -3.2234    9.4433    1.8159 H   0  0  0  0  0  0  0  0  0  0  0  0
   -2.7371   12.7028   -0.9040 H   0  0  0  0  0  0  0  0  0  0  0  0
   -3.3651    1.5939   -0.1905 H   0  0  0  0  0  0  0  0  0  0  0  0
   -0.2116    7.0346    1.3489 H   0  0  0  0  0  0  0  0  0  0  0  0
    0.1709   11.3004   -3.8509 H   0  0  0  0  0  0  0  0  0  0  0  0
    1.0294   10.5027   -2.5328 H   0  0  0  0  0  0  0  0  0  0  0  0
   -0.9250    5.3351   -2.3079 H   0  0  0  0  0  0  0  0  0  0  0  0
   -0.5289    6.8399   -2.0995 H   0  0  0  0  0  0  0  0  0  0  0  0
   -3.4824    2.4809   -2.6703 H   0  0  0  0  0  0  0  0  0  0  0  0
   -2.3251    3.7132   -2.4898 H   0  0  0  0  0  0  0  0  0  0  0  0
   -1.0120    5.9811    0.3892 H   0  0  0  0  0  0  0  0  0  0  0  0
   -3.3985    0.8896   -4.0572 H   0  0  0  0  0  0  0  0  0  0  0  0
   -4.1387   -1.3071   -3.1486 H   0  0  0  0  0  0  0  0  0  0  0  0
   -3.7251   -1.0270   -5.6201 H   0  0  0  0  0  0  0  0  0  0  0  0
   -2.0099   -1.4901   -5.3176 H   0  0  0  0  0  0  0  0  0  0  0  0
   -0.2528    3.1287   -2.4400 H   0  0  0  0  0  0  0  0  0  0  0  0
   -1.4566    0.3617    2.9433 H   0  0  0  0  0  0  0  0  0  0  0  0
   -0.2575    1.6376    3.6882 H   0  0  0  0  0  0  0  0  0  0  0  0
   -0.2871   10.1103   -5.5286 H   0  0  0  0  0  0  0  0  0  0  0  0
   -5.3242    4.8560    0.6023 H   0  0  0  0  0  0  0  0  0  0  0  0
   -4.6819    6.4941    0.7268 H   0  0  0  0  0  0  0  0  0  0  0  0
   -2.4630   10.0493   -3.0319 H   0  0  0  0  0  0  0  0  0  0  0  0
   -4.2379    4.7906   -1.8309 H   0  0  0  0  0  0  0  0  0  0  0  0
   -4.7928    6.4532   -1.8017 H   0  0  0  0  0  0  0  0  0  0  0  0
   -2.5257    2.8795    4.0925 H   0  0  0  0  0  0  0  0  0  0  0  0
   -3.1922    2.1260    2.5224 H   0  0  0  0  0  0  0  0  0  0  0  0
    1.8077    1.8904   -1.4308 H   0  0  0  0  0  0  0  0  0  0  0  0
   -0.6098   -2.0205   -3.6941 H   0  0  0  0  0  0  0  0  0  0  0  0
    2.4026    3.0038    0.7975 H   0  0  0  0  0  0  0  0  0  0  0  0
    1.1768    1.8684    0.2900 H   0  0  0  0  0  0  0  0  0  0  0  0
   -0.5701   13.9134    0.4757 H   0  0  0  0  0  0  0  0  0  0  0  0
    0.9078    4.5812    1.6835 H   0  0  0  0  0  0  0  0  0  0  0  0
    0.3861    3.3553    2.4173 H   0  0  0  0  0  0  0  0  0  0  0  0
    0.3149    4.9986    0.1293 H   0  0  0  0  0  0  0  0  0  0  0  0
   -0.1116   14.2237   -2.0532 H   0  0  0  0  0  0  0  0  0  0  0  0
   -0.4257   13.1231   -3.4098 H   0  0  0  0  0  0  0  0  0  0  0  0
   -1.7773   13.7935   -2.5186 H   0  0  0  0  0  0  0  0  0  0  0  0
   -3.5453   -2.0017   -0.9049 H   0  0  0  0  0  0  0  0  0  0  0  0
   -2.9474   -3.5851   -1.4128 H   0  0  0  0  0  0  0  0  0  0  0  0
   -1.8996   -2.5078   -0.5232 H   0  0  0  0  0  0  0  0  0  0  0  0
    2.0603    1.6027    2.5351 H   0  0  0  0  0  0  0  0  0  0  0  0
    1.6111   -0.1536    1.8920 H   0  0  0  0  0  0  0  0  0  0  0  0
    2.2948    0.9738    0.9992 H   0  0  0  0  0  0  0  0  0  0  0  0
   -1.1993   10.7627    3.1171 H   0  0  0  0  0  0  0  0  0  0  0  0
   -1.1110    8.9579    3.3981 H   0  0  0  0  0  0  0  0  0  0  0  0
   -0.0316    9.8629    2.4031 H   0  0  0  0  0  0  0  0  0  0  0  0
   -0.4871    8.3674    1.8233 H   0  0  0  0  0  0  0  0  0  0  0  0
    1.0430    8.7609    0.7747 H   0  0  0  0  0  0  0  0  0  0  0  0
   -0.3677    9.2870    0.2355 H   0  0  0  0  0  0  0  0  0  0  0  0
   -2.4541    6.4624    0.9614 H   0  0  0  0  0  0  0  0  0  0  0  0
   -3.2750    6.9626    2.2820 H   0  0  0  0  0  0  0  0  0  0  0  0
   -1.6653    6.1751    2.3361 H   0  0  0  0  0  0  0  0  0  0  0  0
   -1.9925    0.6054   -6.6014 H   0  0  0  0  0  0  0  0  0  0  0  0
   -2.7700    2.0699   -5.8734 H   0  0  0  0  0  0  0  0  0  0  0  0
   -1.0850    1.6812   -5.5817 H   0  0  0  0  0  0  0  0  0  0  0  0
   -3.0257   -3.9765   -3.5335 H   0  0  0  0  0  0  0  0  0  0  0  0
   -4.7045   -3.4121   -3.6551 H   0  0  0  0  0  0  0  0  0  0  0  0
   -3.5838   -3.3679   -5.0834 H   0  0  0  0  0  0  0  0  0  0  0  0
   -2.7370    0.8494   -1.9157 H   0  0  0  0  0  0  0  0  0  0  0  0
   -1.1097   -0.0797   -1.3823 H   0  0  0  0  0  0  0  0  0  0  0  0
   -2.2186    0.3471   -0.5189 H   0  0  0  0  0  0  0  0  0  0  0  0
   -4.2683   12.6684    0.2888 H   0  0  0  0  0  0  0  0  0  0  0  0
   -4.4796   10.9531    0.7007 H   0  0  0  0  0  0  0  0  0  0  0  0
   -4.9405   12.1720    1.8552 H   0  0  0  0  0  0  0  0  0  0  0  0
    0.9371    4.9993   -1.5203 H   0  0  0  0  0  0  0  0  0  0  0  0
    2.1552    4.8296   -0.0540 H   0  0  0  0  0  0  0  0  0  0  0  0
    2.2855    5.9572   -1.3019 H   0  0  0  0  0  0  0  0  0  0  0  0
  1 39  1  6  0  0  0
  2  3  1  0  0  0  0
  2 63  1  6  0  0  0
  2 14  1  0  0  0  0
  3  1  1  0  0  0  0
  4 16  1  1  0  0  0
  4 20  1  0  0  0  0
  5 67  1  1  0  0  0
  5 14  1  0  0  0  0
  6  1  1  0  0  0  0
  6 69  1  1  0  0  0
  6 50  1  0  0  0  0
  7  9  1  0  0  0  0
  8 18  1  0  0  0  0
  9 11  1  0  0  0  0
  9 65  1  1  0  0  0
 10 15  1  0  0  0  0
 10 46  1  0  0  0  0
 10  2  1  0  0  0  0
 10 70  1  1  0  0  0
 11 19  1  0  0  0  0
 11 52  1  1  0  0  0
 11 36  1  0  0  0  0
 12  7  1  0  0  0  0
 12 25  1  0  0  0  0
 12 66  1  6  0  0  0
 13  8  1  0  0  0  0
 13 44  1  6  0  0  0
 13 51  1  0  0  0  0
 14 53  1  0  0  0  0
 14 71  1  1  0  0  0
 15  6  1  0  0  0  0
 15 72  1  6  0  0  0
 15 47  1  0  0  0  0
 16  5  1  0  0  0  0
 17  9  1  0  0  0  0
 17 73  1  1  0  0  0
 17 32  1  0  0  0  0
 18 12  1  0  0  0  0
 18 68  1  6  0  0  0
 19 28  1  0  0  0  0
 21  5  1  0  0  0  0
 21 74  1  1  0  0  0
 21 54  1  0  0  0  0
 22  1  1  0  0  0  0
 22 75  1  0  0  0  0
 22 76  1  0  0  0  0
 23 20  1  0  0  0  0
 23 56  1  1  0  0  0
 24 27  1  0  0  0  0
 24  4  1  0  0  0  0
 24 77  1  0  0  0  0
 24 78  1  0  0  0  0
 25 17  1  0  0  0  0
 25 79  1  0  0  0  0
 25 80  1  0  0  0  0
 26 31  1  0  0  0  0
 27 21  1  0  0  0  0
 27 49  1  0  0  0  0
 27 81  1  6  0  0  0
 28 64  1  1  0  0  0
 28 23  1  0  0  0  0
 29 18  1  0  0  0  0
 29 82  1  1  0  0  0
 29 57  1  0  0  0  0
 30 22  1  0  0  0  0
 31 32  1  0  0  0  0
 31 62  1  1  0  0  0
 33 34  1  0  0  0  0
 33 13  1  0  0  0  0
 33 83  1  1  0  0  0
 33 58  1  0  0  0  0
 34 29  1  0  0  0  0
 34 84  1  0  0  0  0
 34 85  1  0  0  0  0
 35 26  1  0  0  0  0
 35 59  1  0  0  0  0
 35 86  1  6  0  0  0
 36 41  1  0  0  0  0
 36 87  1  0  0  0  0
 36 88  1  0  0  0  0
 37 30  1  0  0  0  0
 37 89  1  0  0  0  0
 38 40  1  0  0  0  0
 38 23  1  0  0  0  0
 38 90  1  0  0  0  0
 38 91  1  0  0  0  0
 39 92  1  0  0  0  0
 40  4  1  0  0  0  0
 40 93  1  0  0  0  0
 40 94  1  0  0  0  0
 41 28  1  0  0  0  0
 41 95  1  0  0  0  0
 41 96  1  0  0  0  0
 42 45  1  0  0  0  0
 42 55  1  0  0  0  0
 42 35  1  0  0  0  0
 42 97  1  6  0  0  0
 43 30  2  0  0  0  0
 44 98  1  0  0  0  0
 45 48  1  0  0  0  0
 45 99  1  0  0  0  0
 45100  1  0  0  0  0
 47101  1  0  0  0  0
 48 31  1  0  0  0  0
 48102  1  0  0  0  0
 48103  1  0  0  0  0
 49104  1  0  0  0  0
 50105  1  0  0  0  0
 50106  1  0  0  0  0
 50107  1  0  0  0  0
 51108  1  0  0  0  0
 51109  1  0  0  0  0
 51110  1  0  0  0  0
 52111  1  0  0  0  0
 52112  1  0  0  0  0
 52113  1  0  0  0  0
 53114  1  0  0  0  0
 53115  1  0  0  0  0
 53116  1  0  0  0  0
 54117  1  0  0  0  0
 54118  1  0  0  0  0
 54119  1  0  0  0  0
 56120  1  0  0  0  0
 56121  1  0  0  0  0
 56122  1  0  0  0  0
 57123  1  0  0  0  0
 57124  1  0  0  0  0
 57125  1  0  0  0  0
 58126  1  0  0  0  0
 58127  1  0  0  0  0
 58128  1  0  0  0  0
 59129  1  0  0  0  0
 59130  1  0  0  0  0
 59131  1  0  0  0  0
 60 46  1  0  0  0  0
 60132  1  0  0  0  0
 60133  1  0  0  0  0
 60134  1  0  0  0  0
 61 55  1  0  0  0  0
 61135  1  0  0  0  0
 61136  1  0  0  0  0
 61137  1  0  0  0  0
M  END
>  <DRUGBANK_ID>
DB11545

>  <COMMON_NAME>
Semduramicin

>  <CAS_NUMBER>
113378-31-7

>  <UNII>
P6VXL377WL

>  <SYNONYMS>
Semduramicin; Semduramicina; Semduramicine; Semduramicinum

$$$$
