
 OpenBabel10282417233D

 33 34  0  0  0  0  0  0  0  0999 V2000
    0.9681    0.1578   -0.0669 C   0  0  0  0  0  0  0  0  0  0  0  0
    0.1609    1.1792   -0.8521 C   0  0  0  0  0  0  0  0  0  0  0  0
   -1.1944    1.1836   -0.7926 C   0  0  0  0  0  0  0  0  0  0  0  0
   -2.0243    2.1514   -1.5671 C   0  0  0  0  0  0  0  0  0  0  0  0
   -3.1295    2.7889   -1.0039 C   0  0  0  0  0  0  0  0  0  0  0  0
   -3.8385    3.7256   -1.7620 C   0  0  0  0  0  0  0  0  0  0  0  0
   -3.4322    4.0872   -3.0488 C   0  0  0  0  0  0  0  0  0  0  0  0
   -2.3294    3.4854   -3.6150 C   0  0  0  0  0  0  0  0  0  0  0  0
   -1.6937    2.4759   -2.9019 C   0  0  0  0  0  0  0  0  0  0  0  0
    0.3937   -0.7256    0.5764 O   0  0  0  0  0  0  0  0  0  0  0  0
    2.3523    0.1305   -0.1274 N   0  0  0  0  0  0  0  0  0  0  0  0
    3.2202    1.1457   -0.5674 C   0  0  0  0  0  0  0  0  0  0  0  0
    2.9625    2.4695   -0.2057 C   0  0  0  0  0  0  0  0  0  0  0  0
    3.5558    3.5161   -0.9082 C   0  0  0  0  0  0  0  0  0  0  0  0
    4.5411    3.2446   -1.8469 C   0  0  0  0  0  0  0  0  0  0  0  0
    4.9547    1.9270   -2.0526 C   0  0  0  0  0  0  0  0  0  0  0  0
    4.2643    0.8642   -1.4509 C   0  0  0  0  0  0  0  0  0  0  0  0
   -4.1565    5.0147   -3.7416 O   0  0  0  0  0  0  0  0  0  0  0  0
   -4.9619    4.2850   -1.2193 O   0  0  0  0  0  0  0  0  0  0  0  0
    0.7753    2.1415   -1.7043 C   0  0  0  0  0  0  0  0  0  0  0  0
    1.1444    2.9859   -2.4227 N   0  0  0  0  0  0  0  0  0  0  0  0
   -1.7347    0.4722   -0.1709 H   0  0  0  0  0  0  0  0  0  0  0  0
   -3.4537    2.5774    0.0105 H   0  0  0  0  0  0  0  0  0  0  0  0
   -1.9380    3.7528   -4.5913 H   0  0  0  0  0  0  0  0  0  0  0  0
   -0.8678    1.9878   -3.4147 H   0  0  0  0  0  0  0  0  0  0  0  0
    2.7835   -0.6908    0.2873 H   0  0  0  0  0  0  0  0  0  0  0  0
    2.1473    2.7008    0.4764 H   0  0  0  0  0  0  0  0  0  0  0  0
    3.1430    4.5181   -0.8112 H   0  0  0  0  0  0  0  0  0  0  0  0
    4.9537    4.0574   -2.4391 H   0  0  0  0  0  0  0  0  0  0  0  0
    5.7834    1.7364   -2.7292 H   0  0  0  0  0  0  0  0  0  0  0  0
    4.4903   -0.1512   -1.7685 H   0  0  0  0  0  0  0  0  0  0  0  0
   -3.7342    5.1315   -4.6126 H   0  0  0  0  0  0  0  0  0  0  0  0
   -5.3218    4.8634   -1.9204 H   0  0  0  0  0  0  0  0  0  0  0  0
  1  2  1  0  0  0  0
  1 10  2  0  0  0  0
  1 11  1  0  0  0  0
  2  3  2  0  0  0  0
  2 20  1  0  0  0  0
  3  4  1  0  0  0  0
  3 22  1  0  0  0  0
  4  5  1  0  0  0  0
  4  9  2  0  0  0  0
  5  6  2  0  0  0  0
  5 23  1  0  0  0  0
  6  7  1  0  0  0  0
  6 19  1  0  0  0  0
  7  8  2  0  0  0  0
  7 18  1  0  0  0  0
  8  9  1  0  0  0  0
  8 24  1  0  0  0  0
  9 25  1  0  0  0  0
 11 12  1  0  0  0  0
 11 26  1  0  0  0  0
 12 13  1  0  0  0  0
 12 17  2  0  0  0  0
 13 14  2  0  0  0  0
 13 27  1  0  0  0  0
 14 15  1  0  0  0  0
 14 28  1  0  0  0  0
 15 16  2  0  0  0  0
 15 29  1  0  0  0  0
 16 17  1  0  0  0  0
 16 30  1  0  0  0  0
 17 31  1  0  0  0  0
 18 32  1  0  0  0  0
 19 33  1  0  0  0  0
 20 21  3  0  0  0  0
M  END
>  <DRUGBANK_ID>
DB16774

>  <COMMON_NAME>
Tyrphostin B48

>  <CAS_NUMBER>
133550-35-3

>  <SYNONYMS>
AG 494; AG-494; Alpha-Cyano-(3,4-dihydroxy)-N-phenylcinnamide; Tyrphostin AG-494

$$$$
