
 OpenBabel10282417183D

 43 46  0  0  0  0  0  0  0  0999 V2000
    1.4959    0.2934   -0.1011 C   0  0  0  0  0  0  0  0  0  0  0  0
    0.6403    1.8415   -0.3322 C   0  0  0  0  0  0  0  0  0  0  0  0
   -1.0728    1.8590    0.1157 C   0  0  0  0  0  0  0  0  0  0  0  0
   -1.9189    0.4494    0.7819 N   0  0  0  0  0  0  0  0  0  0  0  0
   -1.1264   -1.1080    1.0430 C   0  0  0  0  0  0  0  0  0  0  0  0
    0.5681   -1.3646    0.7322 C   0  0  0  0  0  0  0  0  0  0  0  0
   -1.7953   -2.2709    0.7231 N   0  0  0  0  0  0  0  0  0  0  0  0
   -3.0708   -2.3491    0.2789 C   0  0  0  0  0  0  0  0  0  0  0  0
   -3.6070   -1.9206   -0.9242 C   0  0  0  0  0  0  0  0  0  0  0  0
   -4.9489   -2.0977   -1.1000 C   0  0  0  0  0  0  0  0  0  0  0  0
   -5.6411   -2.7821   -0.1144 C   0  0  0  0  0  0  0  0  0  0  0  0
   -4.9844   -3.4125    0.9428 C   0  0  0  0  0  0  0  0  0  0  0  0
   -3.6870   -3.1638    1.1655 C   0  0  0  0  0  0  0  0  0  0  0  0
   -5.6001   -4.3877    1.8433 C   0  0  0  0  0  0  0  0  0  0  0  0
   -4.9887   -5.6004    1.7421 F   0  0  0  0  0  0  0  0  0  0  0  0
   -5.5074   -4.0157    3.1443 F   0  0  0  0  0  0  0  0  0  0  0  0
   -6.9031   -4.5681    1.5489 F   0  0  0  0  0  0  0  0  0  0  0  0
    1.5477   -3.0856    0.8027 C   0  0  0  0  0  0  0  0  0  0  0  0
    1.0949   -4.1684    0.0579 O   0  0  0  0  0  0  0  0  0  0  0  0
    2.7884   -3.3107    0.6635 O   0  0  0  0  0  0  0  0  0  0  0  0
    0.6109   -3.2287   -0.7642 C   0  0  3  0  0  0  0  0  0  0  0  0
    1.8576   -1.7456   -0.7884 C   0  0  0  0  0  0  0  0  0  0  0  0
    0.4890   -1.0559   -1.5044 C   0  0  0  0  0  0  0  0  0  0  0  0
   -0.4902   -1.8615   -2.1761 C   0  0  0  0  0  0  0  0  0  0  0  0
   -0.4294   -3.1319   -1.7321 O   0  0  0  0  0  0  0  0  0  0  0  0
    2.5619   -1.1268    0.9135 C   0  0  0  0  0  0  0  0  0  0  0  0
    1.6727   -0.0039    1.9991 C   0  0  0  0  0  0  0  0  0  0  0  0
    0.1937    0.5477    1.3208 C   0  0  0  0  0  0  0  0  0  0  0  0
   -0.3541   -0.0296   -0.5386 C   0  0  0  0  0  0  0  0  0  0  0  0
   -1.3283   -1.3245   -2.8746 O   0  0  0  0  0  0  0  0  0  0  0  0
    2.5682    0.3808   -0.3217 H   0  0  0  0  0  0  0  0  0  0  0  0
    1.3072    2.6958   -0.1872 H   0  0  0  0  0  0  0  0  0  0  0  0
   -1.7356    2.7037   -0.0202 H   0  0  0  0  0  0  0  0  0  0  0  0
   -1.4185   -2.9630    0.1273 H   0  0  0  0  0  0  0  0  0  0  0  0
   -3.0633   -1.3704   -1.6751 H   0  0  0  0  0  0  0  0  0  0  0  0
   -5.4402   -1.6764   -1.9670 H   0  0  0  0  0  0  0  0  0  0  0  0
   -6.7148   -2.8423   -0.1554 H   0  0  0  0  0  0  0  0  0  0  0  0
   -3.1072   -3.5170    2.0253 H   0  0  0  0  0  0  0  0  0  0  0  0
   -0.1806   -3.6430   -0.0417 H   0  0  0  0  0  0  0  0  0  0  0  0
    3.5740   -1.2346    1.2700 H   0  0  0  0  0  0  0  0  0  0  0  0
    2.1321    0.7609    2.6452 H   0  0  0  0  0  0  0  0  0  0  0  0
    0.0173    1.5787    1.7528 H   0  0  0  0  0  0  0  0  0  0  0  0
   -1.2261    0.3200   -1.1383 H   0  0  0  0  0  0  0  0  0  0  0  0
  1  2  2  0  0  0  0
  1  6  1  0  0  0  0
  1 31  1  0  0  0  0
  2  3  1  0  0  0  0
  2 32  1  0  0  0  0
  3  4  2  0  0  0  0
  3 33  1  0  0  0  0
  4  5  1  0  0  0  0
  5  6  2  0  0  0  0
  5  7  1  0  0  0  0
  6 18  1  0  0  0  0
  7  8  1  0  0  0  0
  7 34  1  0  0  0  0
  8  9  2  0  0  0  0
  8 13  1  0  0  0  0
  9 10  1  0  0  0  0
  9 35  1  0  0  0  0
 10 11  2  0  0  0  0
 10 36  1  0  0  0  0
 11 12  1  0  0  0  0
 11 37  1  0  0  0  0
 12 13  2  0  0  0  0
 12 14  1  0  0  0  0
 13 38  1  0  0  0  0
 14 15  1  0  0  0  0
 14 16  1  0  0  0  0
 14 17  1  0  0  0  0
 18 19  1  0  0  0  0
 18 20  2  0  0  0  0
 19 21  1  0  0  0  0
 21 22  1  0  0  0  0
 21 25  1  0  0  0  0
 21 39  1  0  0  0  0
 22 23  1  0  0  0  0
 22 26  2  0  0  0  0
 23 24  1  0  0  0  0
 23 29  2  0  0  0  0
 24 25  1  0  0  0  0
 24 30  2  0  0  0  0
 26 27  1  0  0  0  0
 26 40  1  0  0  0  0
 27 28  2  0  0  0  0
 27 41  1  0  0  0  0
 28 29  1  0  0  0  0
 28 42  1  0  0  0  0
 29 43  1  0  0  0  0
M  END
>  <DRUGBANK_ID>
DB09295

>  <COMMON_NAME>
Talniflumate

>  <CAS_NUMBER>
66898-62-2

>  <UNII>
JFK78S0U9S

>  <SYNONYMS>
Talniflumate; Talniflumato; Talniflumatum

$$$$
