
 OpenBabel10282417163D

 33 36  0  0  0  0  0  0  0  0999 V2000
    0.7411   -0.3662   -0.0032 C   0  0  0  0  0  0  0  0  0  0  0  0
    1.4480   -1.5632   -0.0023 O   0  0  0  0  0  0  0  0  0  0  0  0
    2.8380   -1.5089    0.0342 C   0  0  0  0  0  0  0  0  0  0  0  0
    1.3978    0.8684   -0.0033 C   0  0  0  0  0  0  0  0  0  0  0  0
    3.5541   -0.3753    0.0125 C   0  0  0  0  0  0  0  0  0  0  0  0
    2.8611    0.9103   -0.0026 C   0  0  0  0  0  0  0  0  0  0  0  0
   -0.6784   -0.3949   -0.0026 C   0  0  0  0  0  0  0  0  0  0  0  0
    0.6901    2.0722   -0.0014 C   0  0  0  0  0  0  0  0  0  0  0  0
    3.5716   -2.7934    0.0598 C   0  0  0  0  0  0  0  0  0  0  0  0
    3.4896    1.9652   -0.0041 O   0  0  0  0  0  0  0  0  0  0  0  0
   -1.3909    0.8397   -0.0016 C   0  0  0  0  0  0  0  0  0  0  0  0
   -0.6981    2.0552   -0.0004 C   0  0  0  0  0  0  0  0  0  0  0  0
   -1.4382   -1.5836   -0.0011 C   0  0  0  0  0  0  0  0  0  0  0  0
    4.5242   -3.0376    1.0663 C   0  0  0  0  0  0  0  0  0  0  0  0
    3.4381   -3.7365   -0.9665 C   0  0  0  0  0  0  0  0  0  0  0  0
   -2.7929    0.8528   -0.0014 C   0  0  0  0  0  0  0  0  0  0  0  0
   -2.8380   -1.5526    0.0015 C   0  0  0  0  0  0  0  0  0  0  0  0
    5.4094   -4.1159    0.9747 C   0  0  0  0  0  0  0  0  0  0  0  0
    4.2567   -4.8746   -0.9979 C   0  0  0  0  0  0  0  0  0  0  0  0
   -3.5139   -0.3370   -0.0000 C   0  0  0  0  0  0  0  0  0  0  0  0
    5.2790   -5.0327   -0.0629 C   0  0  0  0  0  0  0  0  0  0  0  0
    4.6361   -0.3405    0.0085 H   0  0  0  0  0  0  0  0  0  0  0  0
    1.2190    3.0231    0.0001 H   0  0  0  0  0  0  0  0  0  0  0  0
   -1.2330    3.0034    0.0016 H   0  0  0  0  0  0  0  0  0  0  0  0
   -0.9406   -2.5511   -0.0007 H   0  0  0  0  0  0  0  0  0  0  0  0
    4.6072   -2.3671    1.9194 H   0  0  0  0  0  0  0  0  0  0  0  0
    2.7234   -3.5804   -1.7708 H   0  0  0  0  0  0  0  0  0  0  0  0
   -3.3381    1.7956   -0.0018 H   0  0  0  0  0  0  0  0  0  0  0  0
   -3.4023   -2.4816    0.0053 H   0  0  0  0  0  0  0  0  0  0  0  0
    6.2029   -4.2345    1.7087 H   0  0  0  0  0  0  0  0  0  0  0  0
    4.1144   -5.6291   -1.7679 H   0  0  0  0  0  0  0  0  0  0  0  0
   -4.6008   -0.3112    0.0002 H   0  0  0  0  0  0  0  0  0  0  0  0
    5.9698   -5.8695   -0.1397 H   0  0  0  0  0  0  0  0  0  0  0  0
  2  1  1  0  0  0  0
  3  2  1  0  0  0  0
  4  1  2  0  0  0  0
  5  3  2  0  0  0  0
  5 22  1  0  0  0  0
  6  4  1  0  0  0  0
  6  5  1  0  0  0  0
  7  1  1  0  0  0  0
  8  4  1  0  0  0  0
  8 23  1  0  0  0  0
  9  3  1  0  0  0  0
 10  6  2  0  0  0  0
 11  7  2  0  0  0  0
 12  8  2  0  0  0  0
 12 11  1  0  0  0  0
 12 24  1  0  0  0  0
 13  7  1  0  0  0  0
 13 25  1  0  0  0  0
 14  9  1  0  0  0  0
 14 26  1  0  0  0  0
 15  9  2  0  0  0  0
 15 27  1  0  0  0  0
 16 11  1  0  0  0  0
 16 28  1  0  0  0  0
 17 13  2  0  0  0  0
 17 29  1  0  0  0  0
 18 14  2  0  0  0  0
 18 30  1  0  0  0  0
 19 15  1  0  0  0  0
 19 31  1  0  0  0  0
 20 16  2  0  0  0  0
 20 17  1  0  0  0  0
 20 32  1  0  0  0  0
 21 18  1  0  0  0  0
 21 19  2  0  0  0  0
 21 33  1  0  0  0  0
M  END
>  <DRUGBANK_ID>
DB07453

>  <COMMON_NAME>
alpha-Naphthoflavone

>  <CAS_NUMBER>
604-59-1

>  <UNII>
FML65D8PY5

>  <SYNONYMS>
2-phenyl-4H-naphtho(1,2-b)pyran-4-one; 7,8-benzoflavone; Î±-naphthylflavone

$$$$
