4837
 OpenBabel10282417143D

 40 41  0  0  1  0  0  0  0  0999 V2000
   -1.9312   -0.7679    0.6067 Cl  0  0  0  0  0  0  0  0  0  0  0  0
    0.1102    3.3594    1.1240 O   0  0  0  0  0  0  0  0  0  0  0  0
   -1.8175    1.9405   -2.8637 N   0  0  0  0  0  0  0  0  0  0  0  0
   -0.5231    2.5517    0.1070 C   0  0  3  0  0  0  0  0  0  0  0  0
   -0.1324    3.1954   -1.2956 C   0  0  0  0  0  0  0  0  0  0  0  0
   -0.4259    2.3708   -2.6096 C   0  0  0  0  0  0  0  0  0  0  0  0
    0.2047    1.1250    0.2126 C   0  0  0  0  0  0  0  0  0  0  0  0
   -2.0560    2.7212    0.4083 C   0  0  0  0  0  0  0  0  0  0  0  0
   -0.3184   -0.2041    0.2771 C   0  0  0  0  0  0  0  0  0  0  0  0
    1.6291    1.1790    0.1099 C   0  0  0  0  0  0  0  0  0  0  0  0
   -2.6489    1.9918    1.4315 C   0  0  0  0  0  0  0  0  0  0  0  0
   -2.9399    3.3649   -0.5112 C   0  0  0  0  0  0  0  0  0  0  0  0
   -2.0985    1.3857   -4.1796 C   0  0  0  0  0  0  0  0  0  0  0  0
   -2.2119    0.8461   -1.9958 C   0  0  0  0  0  0  0  0  0  0  0  0
    0.5054   -1.3330    0.0908 C   0  0  0  0  0  0  0  0  0  0  0  0
    2.4439    0.0358    0.0329 C   0  0  0  0  0  0  0  0  0  0  0  0
   -4.0041    1.6213    1.3575 C   0  0  0  0  0  0  0  0  0  0  0  0
   -4.2923    2.9911   -0.5853 C   0  0  0  0  0  0  0  0  0  0  0  0
    1.8760   -1.2237   -0.0051 C   0  0  0  0  0  0  0  0  0  0  0  0
   -4.8077    2.0834    0.3094 C   0  0  0  0  0  0  0  0  0  0  0  0
   -0.2077    3.0081    1.9736 H   0  0  0  0  0  0  0  0  0  0  0  0
   -0.5626    4.2053   -1.3831 H   0  0  0  0  0  0  0  0  0  0  0  0
    0.9441    3.4323   -1.2979 H   0  0  0  0  0  0  0  0  0  0  0  0
   -0.1193    3.0255   -3.4389 H   0  0  0  0  0  0  0  0  0  0  0  0
    0.2541    1.5124   -2.6416 H   0  0  0  0  0  0  0  0  0  0  0  0
    2.1396    2.1433    0.0777 H   0  0  0  0  0  0  0  0  0  0  0  0
   -2.0256    1.4849    2.1704 H   0  0  0  0  0  0  0  0  0  0  0  0
   -2.5812    3.9590   -1.3430 H   0  0  0  0  0  0  0  0  0  0  0  0
   -1.5900    0.4237   -4.3216 H   0  0  0  0  0  0  0  0  0  0  0  0
   -3.1808    1.1861   -4.2269 H   0  0  0  0  0  0  0  0  0  0  0  0
   -1.8564    2.0588   -4.9967 H   0  0  0  0  0  0  0  0  0  0  0  0
   -1.6962   -0.0919   -2.2095 H   0  0  0  0  0  0  0  0  0  0  0  0
   -1.9435    1.0945   -1.0091 H   0  0  0  0  0  0  0  0  0  0  0  0
   -3.2934    0.6984   -1.9554 H   0  0  0  0  0  0  0  0  0  0  0  0
    0.0578   -2.3265    0.0394 H   0  0  0  0  0  0  0  0  0  0  0  0
    3.5251    0.1314   -0.0150 H   0  0  0  0  0  0  0  0  0  0  0  0
   -4.3847    0.8590    2.0234 H   0  0  0  0  0  0  0  0  0  0  0  0
   -4.8809    3.3040   -1.4535 H   0  0  0  0  0  0  0  0  0  0  0  0
    2.4799   -2.1224   -0.0827 H   0  0  0  0  0  0  0  0  0  0  0  0
   -5.8088    1.6779    0.1719 H   0  0  0  0  0  0  0  0  0  0  0  0
  1  9  1  0  0  0  0
  2  4  1  0  0  0  0
  2 21  1  0  0  0  0
  3  6  1  0  0  0  0
  3 13  1  0  0  0  0
  3 14  1  0  0  0  0
  4  5  1  0  0  0  0
  4  7  1  0  0  0  0
  4  8  1  0  0  0  0
  5  6  1  0  0  0  0
  5 22  1  0  0  0  0
  5 23  1  0  0  0  0
  6 24  1  0  0  0  0
  6 25  1  0  0  0  0
  7  9  1  0  0  0  0
  7 10  2  0  0  0  0
  8 11  2  0  0  0  0
  8 12  1  0  0  0  0
  9 15  2  0  0  0  0
 10 16  1  0  0  0  0
 10 26  1  0  0  0  0
 11 17  1  0  0  0  0
 11 27  1  0  0  0  0
 12 18  2  0  0  0  0
 12 28  1  0  0  0  0
 13 29  1  0  0  0  0
 13 30  1  0  0  0  0
 13 31  1  0  0  0  0
 14 32  1  0  0  0  0
 14 33  1  0  0  0  0
 14 34  1  0  0  0  0
 15 19  1  0  0  0  0
 15 35  1  0  0  0  0
 16 19  2  0  0  0  0
 16 36  1  0  0  0  0
 17 20  2  0  0  0  0
 17 37  1  0  0  0  0
 18 20  1  0  0  0  0
 18 38  1  0  0  0  0
 19 39  1  0  0  0  0
 20 40  1  0  0  0  0
M  END
>  <DRUGBANK_ID>
DB04837

>  <COMMON_NAME>
Clofedanol

>  <CAS_NUMBER>
791-35-5

>  <UNII>
42C50P12AP

>  <SYNONYMS>
Chlophedianol; Clofedanol; Clofedanolum; Clofedianolo

$$$$
