
 OpenBabel10282417233D

 63 67  0  0  0  0  0  0  0  0999 V2000
    1.7548   -0.7148   -0.3913 C   0  0  0  0  0  0  0  0  0  0  0  0
    1.0198    0.6980   -0.1207 C   0  0  0  0  0  0  0  0  0  0  0  0
   -0.3389    0.9555   -0.0206 C   0  0  0  0  0  0  0  0  0  0  0  0
   -1.0124   -0.2378   -0.1506 C   0  0  0  0  0  0  0  0  0  0  0  0
   -0.2712   -1.6881   -0.4550 C   0  0  0  0  0  0  0  0  0  0  0  0
    1.2751   -2.0687   -0.7657 C   0  0  0  0  0  0  0  0  0  0  0  0
    4.8714  -14.7534   -2.4300 C   0  0  0  0  0  0  0  0  0  0  0  0
    5.3342  -15.2590   -3.7713 C   0  0  0  0  0  0  0  0  0  0  0  0
    4.2026  -15.6539   -4.5999 N   0  0  0  0  0  0  0  0  0  0  0  0
    4.6804  -16.1492   -5.8806 C   0  0  0  0  0  0  0  0  0  0  0  0
    3.8824  -13.0159   -1.0605 C   0  0  0  0  0  0  0  0  0  0  0  0
    4.2676  -13.7025    0.1021 C   0  0  0  0  0  0  0  0  0  0  0  0
    5.0159  -14.8755   -0.0174 C   0  0  0  0  0  0  0  0  0  0  0  0
    5.3292  -15.3884   -1.2710 C   0  0  0  0  0  0  0  0  0  0  0  0
    4.0723  -13.6019   -2.3171 C   0  0  0  0  0  0  0  0  0  0  0  0
    2.1583   -6.8260    0.3146 C   0  0  0  0  0  0  0  0  0  0  0  0
    1.7202   -7.6623   -0.7510 C   0  0  0  0  0  0  0  0  0  0  0  0
    2.1721   -9.0094   -0.8252 C   0  0  0  0  0  0  0  0  0  0  0  0
    3.2081   -9.4520    0.0039 C   0  0  0  0  0  0  0  0  0  0  0  0
    3.7109   -8.5828    0.9697 C   0  0  0  0  0  0  0  0  0  0  0  0
    3.1674   -7.3222    1.1245 C   0  0  0  0  0  0  0  0  0  0  0  0
    2.7672   -4.3256    0.8454 C   0  0  0  0  0  0  0  0  0  0  0  0
    1.8413   -5.4578    0.5544 N   0  0  0  0  0  0  0  0  0  0  0  0
    4.5854   -4.9413   -0.1014 C   0  0  0  0  0  0  0  0  0  0  0  0
    3.6856   -4.9734   -1.1955 C   0  0  0  0  0  0  0  0  0  0  0  0
    2.3333   -3.5898   -1.0839 C   0  0  0  0  0  0  0  0  0  0  0  0
    2.5546   -3.3014    0.1617 N   0  0  0  0  0  0  0  0  0  0  0  0
    4.0681   -4.3589    0.9004 N   0  0  0  0  0  0  0  0  0  0  0  0
    6.4186   -6.9776    0.0616 C   0  0  0  0  0  0  0  0  0  0  0  0
    5.6784   -7.4491   -0.9699 C   0  0  0  0  0  0  0  0  0  0  0  0
    4.4486   -6.4945   -1.6029 C   0  0  0  0  0  0  0  0  0  0  0  0
    5.8459   -5.7570    0.4230 C   0  0  0  0  0  0  0  0  0  0  0  0
    3.9203  -10.7444   -0.1671 C   0  0  0  0  0  0  0  0  0  0  0  0
    3.3316  -11.7196   -0.9705 N   0  0  0  0  0  0  0  0  0  0  0  0
    5.0146  -10.8576    0.3872 O   0  0  0  0  0  0  0  0  0  0  0  0
    3.7699  -13.2809    1.4589 C   0  0  0  0  0  0  0  0  0  0  0  0
    2.7925   -0.5982   -0.0932 H   0  0  0  0  0  0  0  0  0  0  0  0
    1.6396    1.6045   -0.0416 H   0  0  0  0  0  0  0  0  0  0  0  0
   -0.7891    1.9567    0.1614 H   0  0  0  0  0  0  0  0  0  0  0  0
   -2.1178   -0.0981   -0.0548 H   0  0  0  0  0  0  0  0  0  0  0  0
   -1.1026   -2.3980   -0.2730 H   0  0  0  0  0  0  0  0  0  0  0  0
    5.9242  -14.4685   -4.2538 H   0  0  0  0  0  0  0  0  0  0  0  0
    6.0128  -16.1119   -3.6299 H   0  0  0  0  0  0  0  0  0  0  0  0
    3.6949  -16.3918   -4.1124 H   0  0  0  0  0  0  0  0  0  0  0  0
    5.3265  -17.0243   -5.7550 H   0  0  0  0  0  0  0  0  0  0  0  0
    3.8269  -16.4380   -6.4986 H   0  0  0  0  0  0  0  0  0  0  0  0
    5.2344  -15.3709   -6.4160 H   0  0  0  0  0  0  0  0  0  0  0  0
    5.3716  -15.3869    0.8715 H   0  0  0  0  0  0  0  0  0  0  0  0
    5.9246  -16.2955   -1.3383 H   0  0  0  0  0  0  0  0  0  0  0  0
    3.6774  -13.1458   -3.2225 H   0  0  0  0  0  0  0  0  0  0  0  0
    1.1581   -7.3106   -1.6254 H   0  0  0  0  0  0  0  0  0  0  0  0
    1.7496   -9.6834   -1.5635 H   0  0  0  0  0  0  0  0  0  0  0  0
    4.6224   -8.7879    1.5287 H   0  0  0  0  0  0  0  0  0  0  0  0
    3.6962   -6.6096    1.7484 H   0  0  0  0  0  0  0  0  0  0  0  0
    1.0484   -5.1178    0.0182 H   0  0  0  0  0  0  0  0  0  0  0  0
    7.1774   -7.5375    0.6541 H   0  0  0  0  0  0  0  0  0  0  0  0
    5.8329   -8.5615   -1.1072 H   0  0  0  0  0  0  0  0  0  0  0  0
    3.9298   -7.3053   -2.1872 H   0  0  0  0  0  0  0  0  0  0  0  0
    6.2164   -5.4119    1.3937 H   0  0  0  0  0  0  0  0  0  0  0  0
    2.6757  -11.4539   -1.6860 H   0  0  0  0  0  0  0  0  0  0  0  0
    4.1203  -12.3002    1.7673 H   0  0  0  0  0  0  0  0  0  0  0  0
    2.6736  -13.2630    1.4529 H   0  0  0  0  0  0  0  0  0  0  0  0
    4.1047  -13.9658    2.2387 H   0  0  0  0  0  0  0  0  0  0  0  0
  1  2  2  0  0  0  0
  1 37  1  0  0  0  0
  2  3  1  0  0  0  0
  2 38  1  0  0  0  0
  3  4  2  0  0  0  0
  3 39  1  0  0  0  0
  4  5  1  0  0  0  0
  4 40  1  0  0  0  0
  5  6  2  0  0  0  0
  5 41  1  0  0  0  0
  6  1  1  0  0  0  0
  7 15  2  0  0  0  0
  7  8  1  0  0  0  0
  8  9  1  0  0  0  0
  8 42  1  0  0  0  0
  8 43  1  0  0  0  0
  9 10  1  0  0  0  0
  9 44  1  0  0  0  0
 10 45  1  0  0  0  0
 10 46  1  0  0  0  0
 10 47  1  0  0  0  0
 11 12  2  0  0  0  0
 12 13  1  0  0  0  0
 12 36  1  0  0  0  0
 13 14  2  0  0  0  0
 13 48  1  0  0  0  0
 14  7  1  0  0  0  0
 14 49  1  0  0  0  0
 15 11  1  0  0  0  0
 15 50  1  0  0  0  0
 16 17  2  0  0  0  0
 17 18  1  0  0  0  0
 17 51  1  0  0  0  0
 18 19  2  0  0  0  0
 18 52  1  0  0  0  0
 19 20  1  0  0  0  0
 19 33  1  0  0  0  0
 20 21  2  0  0  0  0
 20 53  1  0  0  0  0
 21 16  1  0  0  0  0
 21 54  1  0  0  0  0
 22 23  1  0  0  0  0
 22 28  2  0  0  0  0
 23 16  1  0  0  0  0
 23 55  1  0  0  0  0
 24 25  1  0  0  0  0
 24 28  1  0  0  0  0
 24 32  2  0  0  0  0
 25 26  1  0  0  0  0
 26 27  2  0  0  0  0
 26  6  1  0  0  0  0
 27 22  1  0  0  0  0
 29 30  2  0  0  0  0
 29 56  1  0  0  0  0
 30 31  1  0  0  0  0
 30 57  1  0  0  0  0
 31 25  2  0  0  0  0
 31 58  1  0  0  0  0
 32 29  1  0  0  0  0
 32 59  1  0  0  0  0
 33 34  1  0  0  0  0
 33 35  2  0  0  0  0
 34 11  1  0  0  0  0
 34 60  1  0  0  0  0
 36 61  1  0  0  0  0
 36 62  1  0  0  0  0
 36 63  1  0  0  0  0
M  END
>  <DRUGBANK_ID>
DB16844

>  <COMMON_NAME>
BMS-833923

>  <CAS_NUMBER>
1059734-66-5

>  <UNII>
41J7ZJ239R

>  <SYNONYMS>
BMS-833923 free base anhydrous

$$$$
