
 OpenBabel10282417143D

244255  0  0  0  0  0  0  0  0999 V2000
  -46.1790    0.0666   -7.2770 C   0  0  0  0  0  0  0  0  0  0  0  0
  -44.9412    0.5576   -6.7168 C   0  0  0  0  0  0  0  0  0  0  0  0
  -45.8948   -1.8542   -7.2524 C   0  0  1  0  0  0  0  0  0  0  0  0
  -44.7389   -3.0540   -6.0637 C   0  0  1  0  0  0  0  0  0  0  0  0
  -42.9502   -2.7135   -5.2947 C   0  0  1  0  0  0  0  0  0  0  0  0
  -41.5227   -3.1363   -4.8389 C   0  0  0  0  0  0  0  0  0  0  0  0
  -40.5330   -2.0723   -5.5189 C   0  0  0  0  0  0  0  0  0  0  0  0
  -40.9706   -1.2713   -6.5268 N   0  0  0  0  0  0  0  0  0  0  0  0
  -42.2773   -1.3327   -6.4343 C   0  0  1  0  0  0  0  0  0  0  0  0
  -43.0422   -1.7214   -8.3830 C   0  0  2  0  0  0  0  0  0  0  0  0
  -45.0153   -2.4541   -8.3694 C   0  0  2  0  0  0  0  0  0  0  0  0
  -45.7822   -2.1416   -9.4739 O   0  0  0  0  0  0  0  0  0  0  0  0
  -43.4584   -3.3945   -9.1675 C   0  0  0  0  0  0  0  0  0  0  0  0
  -42.5755   -4.6028   -8.4817 N   0  0  0  0  0  0  0  0  0  0  0  0
  -41.6510   -5.3371   -9.0091 N   0  0  0  0  0  0  0  0  0  0  0  0
  -41.1002   -6.4667   -8.2730 C   0  0  0  0  0  0  0  0  0  0  0  0
  -40.7068   -7.5210   -8.9359 O   0  0  0  0  0  0  0  0  0  0  0  0
  -41.2040   -7.5179  -10.1952 C   0  0  0  0  0  0  0  0  0  0  0  0
  -42.7259   -7.5698  -10.2298 C   0  0  0  0  0  0  0  0  0  0  0  0
  -43.9502   -6.3624   -9.6256 S   0  0  0  0  0  0  0  0  0  0  0  0
  -43.6866   -6.6100   -7.3088 S   0  0  0  0  0  0  0  0  0  0  0  0
  -43.5113   -4.8706   -6.6835 C   0  0  0  0  0  0  0  0  0  0  0  0
  -42.6671   -3.1133   -7.2615 C   0  0  2  0  0  0  0  0  0  0  0  0
  -41.0978   -3.2289   -7.5582 N   0  0  0  0  0  0  0  0  0  0  0  0
  -40.4665   -4.2044   -6.9539 C   0  0  0  0  0  0  0  0  0  0  0  0
  -39.0567   -4.3292   -6.8925 C   0  0  1  0  0  0  0  0  0  0  0  0
  -38.9689   -4.5324   -5.5635 N   0  0  0  0  0  0  0  0  0  0  0  0
  -37.7993   -5.1890   -4.9862 C   0  0  0  0  0  0  0  0  0  0  0  0
  -37.5836   -4.5816   -3.4322 C   0  0  1  0  0  0  0  0  0  0  0  0
  -38.4247   -5.9266   -2.0748 N   0  0  0  0  0  0  0  0  0  0  0  0
  -37.3561   -7.8099   -1.8636 C   0  0  0  0  0  0  0  0  0  0  0  0
  -37.8490   -9.2234   -1.2792 C   0  0  1  0  0  0  0  0  0  0  0  0
  -37.0635  -10.1844   -1.9700 N   0  0  0  0  0  0  0  0  0  0  0  0
  -36.1210  -10.9254   -1.2343 C   0  0  0  0  0  0  0  0  0  0  0  0
  -35.3978  -11.9611   -1.9730 C   0  0  1  0  0  0  0  0  0  0  0  0
  -33.9464  -11.7580   -1.6807 N   0  0  0  0  0  0  0  0  0  0  0  0
  -33.1888  -12.7807   -1.2190 C   0  0  0  0  0  0  0  0  0  0  0  0
  -31.7528  -12.6606   -0.8327 C   0  0  0  0  0  0  0  0  0  0  0  0
  -31.4763  -12.7998    0.6424 C   0  0  0  0  0  0  0  0  0  0  0  0
  -31.9076  -14.1616    1.1422 C   0  0  2  0  0  0  0  0  0  0  0  0
  -31.2318  -15.2533    0.4372 N   0  0  0  0  0  0  0  0  0  0  0  0
  -30.3271  -16.0442    1.1332 C   0  0  0  0  0  0  0  0  0  0  0  0
  -29.6309  -16.8869    0.5858 O   0  0  0  0  0  0  0  0  0  0  0  0
  -30.1939  -15.8007    2.6261 C   0  0  0  0  0  0  0  0  0  0  0  0
  -31.3095  -15.6527    3.4561 C   0  0  0  0  0  0  0  0  0  0  0  0
  -31.2315  -15.0187    4.6928 C   0  0  0  0  0  0  0  0  0  0  0  0
  -30.0171  -14.8873    5.3276 C   0  0  0  0  0  0  0  0  0  0  0  0
  -28.9038  -15.3432    4.6000 C   0  0  0  0  0  0  0  0  0  0  0  0
  -28.9651  -15.6433    3.2191 C   0  0  0  0  0  0  0  0  0  0  0  0
  -29.9364  -14.4046    6.6273 N   0  0  0  0  0  0  0  0  0  0  0  0
  -31.1430  -13.9959    7.4178 C   0  0  0  0  0  0  0  0  0  0  0  0
  -31.4256  -14.9652    8.8878 C   0  0  0  0  0  0  0  0  0  0  0  0
  -32.5035  -16.2396    9.3991 N   0  0  0  0  0  0  0  0  0  0  0  0
  -32.4660  -16.8480   10.7887 C   0  0  0  0  0  0  0  0  0  0  0  0
  -31.6900  -15.8751   11.4757 C   0  0  0  0  0  0  0  0  0  0  0  0
  -30.9591  -14.8047   11.0781 N   0  0  0  0  0  0  0  0  0  0  0  0
  -30.5721  -14.4870    9.8184 C   0  0  0  0  0  0  0  0  0  0  0  0
  -31.9090  -16.3915   12.5702 N   0  0  0  0  0  0  0  0  0  0  0  0
  -32.7891  -17.4851   12.3804 C   0  0  0  0  0  0  0  0  0  0  0  0
  -32.6794  -17.9329   13.5531 N   0  0  0  0  0  0  0  0  0  0  0  0
  -33.1363  -18.2906   12.4031 C   0  0  0  0  0  0  0  0  0  0  0  0
  -33.8103  -19.2794   12.8217 O   0  0  0  0  0  0  0  0  0  0  0  0
  -33.7118  -18.2292   10.8079 N   0  0  0  0  0  0  0  0  0  0  0  0
  -33.4128  -14.3607    1.4090 C   0  0  0  0  0  0  0  0  0  0  0  0
  -33.9351  -14.5379    2.6103 O   0  0  0  0  0  0  0  0  0  0  0  0
  -34.2898  -14.4655    0.5908 O   0  0  0  0  0  0  0  0  0  0  0  0
  -33.5995  -13.9267   -1.3147 O   0  0  0  0  0  0  0  0  0  0  0  0
  -35.9872  -13.2557   -1.4138 C   0  0  0  0  0  0  0  0  0  0  0  0
  -37.4610  -13.3777   -1.5963 C   0  0  0  0  0  0  0  0  0  0  0  0
  -37.8962  -14.4011   -2.3621 O   0  0  0  0  0  0  0  0  0  0  0  0
  -38.2473  -12.5729   -1.1126 O   0  0  0  0  0  0  0  0  0  0  0  0
  -35.8641  -10.8988   -0.0245 O   0  0  0  0  0  0  0  0  0  0  0  0
  -37.5049   -9.4425    0.1277 C   0  0  0  0  0  0  0  0  0  0  0  0
  -38.5128   -8.7786    0.8406 C   0  0  0  0  0  0  0  0  0  0  0  0
  -40.0806   -8.4536    0.6095 C   0  0  0  0  0  0  0  0  0  0  0  0
  -40.3595   -9.4617    1.4019 N   0  0  0  0  0  0  0  0  0  0  0  0
  -41.1657   -9.2484    2.4282 C   0  0  0  0  0  0  0  0  0  0  0  0
  -41.5837  -10.3485    2.9102 N   0  0  0  0  0  0  0  0  0  0  0  0
  -41.6095   -8.0149    2.8685 N   0  0  0  0  0  0  0  0  0  0  0  0
  -36.1403   -7.8845   -2.6167 O   0  0  0  0  0  0  0  0  0  0  0  0
  -35.5018   -4.5413   -3.6055 C   0  0  0  0  0  0  0  0  0  0  0  0
  -35.3173   -3.2204   -3.4106 C   0  0  0  0  0  0  0  0  0  0  0  0
  -35.0153   -2.5126   -2.3714 O   0  0  0  0  0  0  0  0  0  0  0  0
  -35.5096   -2.8364   -4.5082 O   0  0  0  0  0  0  0  0  0  0  0  0
  -37.2158   -6.1520   -5.4694 O   0  0  0  0  0  0  0  0  0  0  0  0
  -38.2859   -5.3669   -7.4718 C   0  0  0  0  0  0  0  0  0  0  0  0
  -38.5416   -5.1218   -8.8460 C   0  0  0  0  0  0  0  0  0  0  0  0
  -37.5298   -4.8508   -9.6234 O   0  0  0  0  0  0  0  0  0  0  0  0
  -39.6139   -4.9853   -9.3588 O   0  0  0  0  0  0  0  0  0  0  0  0
  -41.3197   -4.8437   -6.3664 O   0  0  0  0  0  0  0  0  0  0  0  0
  -43.9749   -1.5030   -6.8810 C   0  0  0  0  0  0  0  0  0  0  0  0
  -44.5590   -0.6604   -8.3640 O   0  0  0  0  0  0  0  0  0  0  0  0
  -44.1544   -1.1649   -5.6727 O   0  0  0  0  0  0  0  0  0  0  0  0
  -41.0119   -6.8019   -7.1276 O   0  0  0  0  0  0  0  0  0  0  0  0
  -43.7798   -3.2056  -10.3258 O   0  0  0  0  0  0  0  0  0  0  0  0
  -42.7138   -0.5378   -9.0684 O   0  0  0  0  0  0  0  0  0  0  0  0
  -40.7110   -0.2859   -7.5098 C   0  0  0  0  0  0  0  0  0  0  0  0
  -39.1508   -2.0747   -5.4815 C   0  0  0  0  0  0  0  0  0  0  0  0
  -38.5140   -3.0071   -4.4058 C   0  0  0  0  0  0  0  0  0  0  0  0
  -39.4602   -4.5550   -3.6071 C   0  0  0  0  0  0  0  0  0  0  0  0
  -41.0896   -4.4116   -3.9934 C   0  0  0  0  0  0  0  0  0  0  0  0
  -38.2898   -6.3553   -3.4882 C   0  0  2  0  0  0  0  0  0  0  0  0
  -39.9851   -6.5536   -4.4592 C   0  0  0  0  0  0  0  0  0  0  0  0
  -41.1339   -7.2607   -4.5776 O   0  0  0  0  0  0  0  0  0  0  0  0
  -41.2701   -8.2422   -3.6730 C   0  0  0  0  0  0  0  0  0  0  0  0
  -39.9233   -6.1936   -5.6066 O   0  0  0  0  0  0  0  0  0  0  0  0
  -36.9847   -6.2635   -1.4868 C   0  0  0  0  0  0  0  0  0  0  0  0
  -36.9435   -7.2771   -0.2043 C   0  0  0  0  0  0  0  0  0  0  0  0
  -38.8407   -6.1953    0.1875 C   0  0  0  0  0  0  0  0  0  0  0  0
  -38.1146   -4.7050   -0.6923 C   0  0  0  0  0  0  0  0  0  0  0  0
  -35.9580   -4.8823   -0.4957 N   0  0  0  0  0  0  0  0  0  0  0  0
  -39.0577   -3.6375   -0.3538 C   0  0  0  0  0  0  0  0  0  0  0  0
  -40.3531   -4.1569   -0.2448 C   0  0  0  0  0  0  0  0  0  0  0  0
  -40.8540   -5.3478    0.2974 C   0  0  0  0  0  0  0  0  0  0  0  0
  -40.0118   -6.1907    0.8319 C   0  0  0  0  0  0  0  0  0  0  0  0
  -35.4520   -7.6942   -0.5660 C   0  0  0  0  0  0  0  0  0  0  0  0
  -35.0195   -6.1227   -1.5252 C   0  0  0  0  0  0  0  0  0  0  0  0
  -36.5694   -4.6644   -1.8414 N   0  0  2  0  0  0  0  0  0  0  0  0
  -36.4996   -6.1465   -3.1696 C   0  0  0  0  0  0  0  0  0  0  0  0
  -38.0814   -7.3725   -3.1690 C   0  0  2  0  0  0  0  0  0  0  0  0
  -38.9642   -7.7214   -4.0370 C   0  0  0  0  0  0  0  0  0  0  0  0
  -38.7521   -7.1610   -1.0661 C   0  0  0  0  0  0  0  0  0  0  0  0
  -37.3988   -5.9651    0.5550 C   0  0  2  0  0  0  0  0  0  0  0  0
  -37.0125   -4.5954    0.4730 C   0  0  0  0  0  0  0  0  0  0  0  0
  -37.4618   -7.0227    1.9323 C   0  0  0  0  0  0  0  0  0  0  0  0
  -37.7124   -6.5133    3.2122 C   0  0  0  0  0  0  0  0  0  0  0  0
  -38.1772   -4.8631    1.6494 O   0  0  0  0  0  0  0  0  0  0  0  0
  -37.4393   -8.4400   -3.3659 H   0  0  0  0  0  0  0  0  0  0  0  0
  -37.2447   -3.5013   -5.5158 O   0  0  0  0  0  0  0  0  0  0  0  0
  -36.4088   -2.9205   -6.4505 C   0  0  0  0  0  0  0  0  0  0  0  0
  -43.5849   -2.5571   -3.9880 C   0  0  0  0  0  0  0  0  0  0  0  0
  -44.8768   -3.3416   -3.9896 C   0  0  0  0  0  0  0  0  0  0  0  0
  -45.2785   -3.9867   -5.1975 N   0  0  3  0  0  0  0  0  0  0  0  0
  -46.6490   -3.8278   -5.5613 C   0  0  0  0  0  0  0  0  0  0  0  0
  -47.0882   -2.4530   -5.9753 C   0  0  0  0  0  0  0  0  0  0  0  0
  -47.3201   -2.2787   -7.2723 C   0  0  0  0  0  0  0  0  0  0  0  0
  -44.3966   -3.4672   -6.9783 H   0  0  0  0  0  0  0  0  0  0  0  0
  -42.5729   -0.3491   -5.9151 H   0  0  0  0  0  0  0  0  0  0  0  0
  -46.1827    0.8714   -8.0687 H   0  0  0  0  0  0  0  0  0  0  0  0
  -46.9379    0.2524   -6.5376 H   0  0  0  0  0  0  0  0  0  0  0  0
  -45.3249   -0.3345   -6.2369 H   0  0  0  0  0  0  0  0  0  0  0  0
  -44.0049    0.5034   -7.3113 H   0  0  0  0  0  0  0  0  0  0  0  0
  -44.3917    0.8510   -5.8825 H   0  0  0  0  0  0  0  0  0  0  0  0
  -45.5703   -3.1344   -7.7425 H   0  0  0  0  0  0  0  0  0  0  0  0
  -45.8931   -1.1817   -9.3591 H   0  0  0  0  0  0  0  0  0  0  0  0
  -42.0919   -4.6030   -7.4751 H   0  0  0  0  0  0  0  0  0  0  0  0
  -42.1034   -5.4007   -9.8646 H   0  0  0  0  0  0  0  0  0  0  0  0
  -40.7559   -6.6820  -10.7231 H   0  0  0  0  0  0  0  0  0  0  0  0
  -40.7806   -8.4424  -10.5540 H   0  0  0  0  0  0  0  0  0  0  0  0
  -42.9773   -7.6406  -11.2727 H   0  0  0  0  0  0  0  0  0  0  0  0
  -43.0745   -8.4099   -9.6508 H   0  0  0  0  0  0  0  0  0  0  0  0
  -44.5798   -4.9368   -6.9817 H   0  0  0  0  0  0  0  0  0  0  0  0
  -43.2612   -4.7480   -5.6525 H   0  0  0  0  0  0  0  0  0  0  0  0
  -41.9972   -2.9590   -8.5800 H   0  0  0  0  0  0  0  0  0  0  0  0
  -40.6797   -2.3322   -7.7252 H   0  0  0  0  0  0  0  0  0  0  0  0
  -38.6796   -3.4101   -7.2527 H   0  0  0  0  0  0  0  0  0  0  0  0
  -39.7357   -3.8019   -4.9380 H   0  0  0  0  0  0  0  0  0  0  0  0
  -38.1956   -3.8556   -2.6331 H   0  0  0  0  0  0  0  0  0  0  0  0
  -39.4707   -6.1713   -2.4389 H   0  0  0  0  0  0  0  0  0  0  0  0
  -38.8841   -9.1685   -1.5268 H   0  0  0  0  0  0  0  0  0  0  0  0
  -37.0124  -10.0510   -2.9733 H   0  0  0  0  0  0  0  0  0  0  0  0
  -35.6105  -11.8490   -3.0238 H   0  0  0  0  0  0  0  0  0  0  0  0
  -33.4908  -10.9148   -1.9927 H   0  0  0  0  0  0  0  0  0  0  0  0
  -31.2387  -13.4868   -1.3516 H   0  0  0  0  0  0  0  0  0  0  0  0
  -31.3668  -11.7349   -1.2149 H   0  0  0  0  0  0  0  0  0  0  0  0
  -30.3906  -12.6973    0.8284 H   0  0  0  0  0  0  0  0  0  0  0  0
  -31.9741  -12.0073    1.2061 H   0  0  0  0  0  0  0  0  0  0  0  0
  -31.4664  -14.1061    2.1141 H   0  0  0  0  0  0  0  0  0  0  0  0
  -31.3722  -15.4136   -0.5754 H   0  0  0  0  0  0  0  0  0  0  0  0
  -32.2758  -15.8930    3.0494 H   0  0  0  0  0  0  0  0  0  0  0  0
  -32.1395  -14.6794    5.1690 H   0  0  0  0  0  0  0  0  0  0  0  0
  -27.9586  -15.4857    5.1066 H   0  0  0  0  0  0  0  0  0  0  0  0
  -28.0727  -15.7885    2.6212 H   0  0  0  0  0  0  0  0  0  0  0  0
  -29.0130  -14.2772    7.0336 H   0  0  0  0  0  0  0  0  0  0  0  0
  -30.9878  -12.8754    7.5897 H   0  0  0  0  0  0  0  0  0  0  0  0
  -32.0330  -13.9689    6.8026 H   0  0  0  0  0  0  0  0  0  0  0  0
  -30.7547  -14.1572   11.8133 H   0  0  0  0  0  0  0  0  0  0  0  0
  -29.6185  -13.8967    9.6657 H   0  0  0  0  0  0  0  0  0  0  0  0
  -34.2497  -19.1291   10.9148 H   0  0  0  0  0  0  0  0  0  0  0  0
  -33.6349  -17.8683    9.8414 H   0  0  0  0  0  0  0  0  0  0  0  0
  -33.4202  -14.6041    3.4056 H   0  0  0  0  0  0  0  0  0  0  0  0
  -35.5063  -14.0861   -1.9164 H   0  0  0  0  0  0  0  0  0  0  0  0
  -35.7907  -13.3027   -0.3337 H   0  0  0  0  0  0  0  0  0  0  0  0
  -37.2689  -15.0553   -2.7313 H   0  0  0  0  0  0  0  0  0  0  0  0
  -37.7941  -10.2550    0.6876 H   0  0  0  0  0  0  0  0  0  0  0  0
  -36.4723   -9.1638    0.5630 H   0  0  0  0  0  0  0  0  0  0  0  0
  -38.0315   -8.9491    1.8789 H   0  0  0  0  0  0  0  0  0  0  0  0
  -38.1454   -7.9221    0.5887 H   0  0  0  0  0  0  0  0  0  0  0  0
  -40.9596   -7.7351    1.0059 H   0  0  0  0  0  0  0  0  0  0  0  0
  -40.3330   -8.4178   -0.4066 H   0  0  0  0  0  0  0  0  0  0  0  0
  -39.7975  -10.2024    1.0031 H   0  0  0  0  0  0  0  0  0  0  0  0
  -41.1083  -11.0990    2.3880 H   0  0  0  0  0  0  0  0  0  0  0  0
  -41.3720   -7.0561    2.6144 H   0  0  0  0  0  0  0  0  0  0  0  0
  -42.3255   -7.9797    3.5722 H   0  0  0  0  0  0  0  0  0  0  0  0
  -34.9316   -4.5753   -2.6053 H   0  0  0  0  0  0  0  0  0  0  0  0
  -34.8920   -5.5198   -3.6030 H   0  0  0  0  0  0  0  0  0  0  0  0
  -34.8394   -2.9429   -1.5254 H   0  0  0  0  0  0  0  0  0  0  0  0
  -37.2638   -5.1418   -7.1948 H   0  0  0  0  0  0  0  0  0  0  0  0
  -38.6108   -6.2791   -7.0210 H   0  0  0  0  0  0  0  0  0  0  0  0
  -36.6764   -4.8307   -9.1877 H   0  0  0  0  0  0  0  0  0  0  0  0
  -44.4182   -1.1217   -9.2719 H   0  0  0  0  0  0  0  0  0  0  0  0
  -43.1580   -0.6733   -9.8884 H   0  0  0  0  0  0  0  0  0  0  0  0
  -40.0816    0.2981   -6.9223 H   0  0  0  0  0  0  0  0  0  0  0  0
  -40.3624   -0.7708   -8.4246 H   0  0  0  0  0  0  0  0  0  0  0  0
  -41.6059    0.3193   -7.7419 H   0  0  0  0  0  0  0  0  0  0  0  0
  -38.7341   -1.8174   -6.5196 H   0  0  0  0  0  0  0  0  0  0  0  0
  -41.8495   -5.2265   -4.0893 H   0  0  0  0  0  0  0  0  0  0  0  0
  -40.4410   -8.8957   -3.8042 H   0  0  0  0  0  0  0  0  0  0  0  0
  -41.2798   -7.6556   -2.7839 H   0  0  0  0  0  0  0  0  0  0  0  0
  -42.0848   -8.9106   -3.8041 H   0  0  0  0  0  0  0  0  0  0  0  0
  -35.9905   -3.8459   -1.1085 H   0  0  0  0  0  0  0  0  0  0  0  0
  -38.6198   -2.7061   -0.6042 H   0  0  0  0  0  0  0  0  0  0  0  0
  -41.0974   -3.5688   -0.6685 H   0  0  0  0  0  0  0  0  0  0  0  0
  -41.8067   -5.8108    0.2463 H   0  0  0  0  0  0  0  0  0  0  0  0
  -39.9650   -6.6895    1.7428 H   0  0  0  0  0  0  0  0  0  0  0  0
  -35.3321   -8.8527   -0.6587 H   0  0  0  0  0  0  0  0  0  0  0  0
  -35.6159   -8.5000   -1.3314 H   0  0  0  0  0  0  0  0  0  0  0  0
  -34.2313   -6.6829   -0.7441 H   0  0  0  0  0  0  0  0  0  0  0  0
  -34.3019   -5.4019   -1.0822 H   0  0  0  0  0  0  0  0  0  0  0  0
  -36.0766   -6.3934   -4.1203 H   0  0  0  0  0  0  0  0  0  0  0  0
  -36.5414   -4.8312   -2.4709 H   0  0  0  0  0  0  0  0  0  0  0  0
  -38.7791   -8.7589   -3.7892 H   0  0  0  0  0  0  0  0  0  0  0  0
  -38.6787   -7.8081   -5.0365 H   0  0  0  0  0  0  0  0  0  0  0  0
  -39.9204   -7.4266   -1.4597 H   0  0  0  0  0  0  0  0  0  0  0  0
  -39.8457   -6.1264   -1.2035 H   0  0  0  0  0  0  0  0  0  0  0  0
  -36.3084   -4.5639    1.3022 H   0  0  0  0  0  0  0  0  0  0  0  0
  -37.0828   -3.4870    0.0867 H   0  0  0  0  0  0  0  0  0  0  0  0
  -38.6323   -7.5397    2.0693 H   0  0  0  0  0  0  0  0  0  0  0  0
  -36.6348   -7.7907    1.8440 H   0  0  0  0  0  0  0  0  0  0  0  0
  -38.7318   -6.1395    3.0270 H   0  0  0  0  0  0  0  0  0  0  0  0
  -37.7801   -7.5452    3.5431 H   0  0  0  0  0  0  0  0  0  0  0  0
  -36.8164   -6.0068    2.9039 H   0  0  0  0  0  0  0  0  0  0  0  0
  -39.1112   -5.0131    1.6981 H   0  0  0  0  0  0  0  0  0  0  0  0
  -36.8293   -3.1465   -7.4037 H   0  0  0  0  0  0  0  0  0  0  0  0
  -36.5837   -2.0202   -5.9240 H   0  0  0  0  0  0  0  0  0  0  0  0
  -35.5148   -3.5693   -6.3154 H   0  0  0  0  0  0  0  0  0  0  0  0
  -43.8448   -1.5274   -3.8483 H   0  0  0  0  0  0  0  0  0  0  0  0
  -42.9280   -2.8740   -3.2174 H   0  0  0  0  0  0  0  0  0  0  0  0
  -45.6291   -2.5831   -3.8898 H   0  0  0  0  0  0  0  0  0  0  0  0
  -44.7837   -4.0341   -3.1838 H   0  0  0  0  0  0  0  0  0  0  0  0
  -47.1901   -3.8392   -4.6654 H   0  0  0  0  0  0  0  0  0  0  0  0
  -46.8321   -4.5669   -6.3407 H   0  0  0  0  0  0  0  0  0  0  0  0
  -46.4241   -1.6667   -5.4918 H   0  0  0  0  0  0  0  0  0  0  0  0
  -47.4887   -1.3966   -7.8730 H   0  0  0  0  0  0  0  0  0  0  0  0
  1  2  1  0  0  0  0
  1139  1  0  0  0  0
  1140  1  0  0  0  0
  2141  1  0  0  0  0
  2142  1  0  0  0  0
  2143  1  0  0  0  0
  3  1  1  6  0  0  0
  3136  1  0  0  0  0
  4  3  1  0  0  0  0
  4133  1  0  0  0  0
  4137  1  6  0  0  0
  5  4  1  0  0  0  0
  5  6  1  6  0  0  0
  5131  1  0  0  0  0
  6  7  1  0  0  0  0
  6101  2  0  0  0  0
  7  8  1  0  0  0  0
  7 98  2  0  0  0  0
  8 97  1  0  0  0  0
  9  5  1  0  0  0  0
  9  8  1  0  0  0  0
  9 10  1  0  0  0  0
  9138  1  1  0  0  0
 10 11  1  0  0  0  0
 10 96  1  6  0  0  0
 10 13  1  0  0  0  0
 11  3  1  0  0  0  0
 11 12  1  0  0  0  0
 11144  1  1  0  0  0
 12145  1  0  0  0  0
 13 14  1  0  0  0  0
 13 95  2  0  0  0  0
 14 15  1  0  0  0  0
 14146  1  0  0  0  0
 15 16  1  0  0  0  0
 15147  1  0  0  0  0
 16 17  1  0  0  0  0
 16 94  2  0  0  0  0
 17 18  1  0  0  0  0
 18 19  1  0  0  0  0
 18148  1  0  0  0  0
 18149  1  0  0  0  0
 19 20  1  0  0  0  0
 19150  1  0  0  0  0
 19151  1  0  0  0  0
 20 21  1  0  0  0  0
 21 22  1  0  0  0  0
 22152  1  0  0  0  0
 22153  1  0  0  0  0
 23 91  1  0  0  0  0
 23154  1  6  0  0  0
 23 24  1  0  0  0  0
 23 22  1  0  0  0  0
 24 25  1  0  0  0  0
 24155  1  0  0  0  0
 25 90  2  0  0  0  0
 26 25  1  0  0  0  0
 26 27  1  0  0  0  0
 26 86  1  0  0  0  0
 26156  1  6  0  0  0
 27 28  1  0  0  0  0
 27157  1  0  0  0  0
 28 85  2  0  0  0  0
 29 28  1  0  0  0  0
 29 30  1  0  0  0  0
 29 81  1  0  0  0  0
 29158  1  1  0  0  0
 30 31  1  0  0  0  0
 30159  1  0  0  0  0
 31 80  2  0  0  0  0
 32 31  1  0  0  0  0
 32 33  1  0  0  0  0
 32 73  1  0  0  0  0
 32160  1  6  0  0  0
 33 34  1  0  0  0  0
 33161  1  0  0  0  0
 34 72  2  0  0  0  0
 35 34  1  0  0  0  0
 35 36  1  0  0  0  0
 35 68  1  0  0  0  0
 35162  1  6  0  0  0
 36 37  1  0  0  0  0
 36163  1  0  0  0  0
 37 38  1  0  0  0  0
 37 67  2  0  0  0  0
 38 39  1  0  0  0  0
 38164  1  0  0  0  0
 38165  1  0  0  0  0
 39166  1  0  0  0  0
 39167  1  0  0  0  0
 40 64  1  0  0  0  0
 40168  1  1  0  0  0
 40 41  1  0  0  0  0
 40 39  1  0  0  0  0
 41 42  1  0  0  0  0
 41169  1  0  0  0  0
 42 43  2  0  0  0  0
 42 44  1  0  0  0  0
 44 45  2  0  0  0  0
 44 49  1  0  0  0  0
 45 46  1  0  0  0  0
 45170  1  0  0  0  0
 46 47  2  0  0  0  0
 46171  1  0  0  0  0
 47 50  1  0  0  0  0
 48 47  1  0  0  0  0
 48172  1  0  0  0  0
 49 48  2  0  0  0  0
 49173  1  0  0  0  0
 50 51  1  0  0  0  0
 50174  1  0  0  0  0
 51 52  1  0  0  0  0
 51175  1  0  0  0  0
 51176  1  0  0  0  0
 52 53  1  0  0  0  0
 52 57  2  0  0  0  0
 53 54  2  0  0  0  0
 54 55  1  0  0  0  0
 54 61  1  0  0  0  0
 55 58  2  0  0  0  0
 56 55  1  0  0  0  0
 56177  1  0  0  0  0
 57 56  1  0  0  0  0
 57178  1  0  0  0  0
 58 59  1  0  0  0  0
 59 63  1  0  0  0  0
 60 59  2  0  0  0  0
 61 60  1  0  0  0  0
 61 62  2  0  0  0  0
 63179  1  0  0  0  0
 63180  1  0  0  0  0
 64 65  1  0  0  0  0
 64 66  2  0  0  0  0
 65181  1  0  0  0  0
 68 69  1  0  0  0  0
 68182  1  0  0  0  0
 68183  1  0  0  0  0
 69 70  1  0  0  0  0
 69 71  2  0  0  0  0
 70184  1  0  0  0  0
 73 74  1  0  0  0  0
 73185  1  0  0  0  0
 73186  1  0  0  0  0
 74 75  1  0  0  0  0
 74187  1  0  0  0  0
 74188  1  0  0  0  0
 75 76  1  0  0  0  0
 75189  1  0  0  0  0
 75190  1  0  0  0  0
 76 77  1  0  0  0  0
 76191  1  0  0  0  0
 77 78  2  0  0  0  0
 77 79  1  0  0  0  0
 78192  1  0  0  0  0
 79193  1  0  0  0  0
 79194  1  0  0  0  0
 81 82  1  0  0  0  0
 81195  1  0  0  0  0
 81196  1  0  0  0  0
 82 83  1  0  0  0  0
 82 84  2  0  0  0  0
 83197  1  0  0  0  0
 86 87  1  0  0  0  0
 86198  1  0  0  0  0
 86199  1  0  0  0  0
 87 88  1  0  0  0  0
 87 89  2  0  0  0  0
 88200  1  0  0  0  0
 91 92  1  0  0  0  0
 91 93  2  0  0  0  0
 92201  1  0  0  0  0
 96202  1  0  0  0  0
 97203  1  0  0  0  0
 97204  1  0  0  0  0
 97205  1  0  0  0  0
 98 99  1  0  0  0  0
 98206  1  0  0  0  0
 99129  1  0  0  0  0
100 99  2  0  0  0  0
101100  1  0  0  0  0
101207  1  0  0  0  0
102107  1  0  0  0  0
102121  1  0  0  0  0
102103  1  1  0  0  0
102100  1  0  0  0  0
103104  1  0  0  0  0
103106  2  0  0  0  0
104105  1  0  0  0  0
105208  1  0  0  0  0
105209  1  0  0  0  0
105210  1  0  0  0  0
107108  2  0  0  0  0
107111  1  0  0  0  0
108109  1  0  0  0  0
108116  1  0  0  0  0
109110  1  0  0  0  0
109115  2  0  0  0  0
110112  2  0  0  0  0
111110  1  0  0  0  0
111211  1  0  0  0  0
112113  1  0  0  0  0
112212  1  0  0  0  0
113213  1  0  0  0  0
114113  2  0  0  0  0
114214  1  0  0  0  0
115114  1  0  0  0  0
115215  1  0  0  0  0
116117  1  0  0  0  0
116216  1  0  0  0  0
116217  1  0  0  0  0
117218  1  0  0  0  0
117219  1  0  0  0  0
118117  1  6  0  0  0
118119  1  0  0  0  0
118124  1  0  0  0  0
119220  1  0  0  0  0
119221  1  0  0  0  0
120119  1  0  0  0  0
120122  1  0  0  0  0
120121  1  0  0  0  0
120128  1  1  0  0  0
121222  1  0  0  0  0
121223  1  0  0  0  0
122224  1  0  0  0  0
122225  1  0  0  0  0
123122  1  0  0  0  0
123124  1  0  0  0  0
123125  1  0  0  0  0
123127  1  1  0  0  0
124226  1  0  0  0  0
124227  1  0  0  0  0
125126  1  0  0  0  0
125228  1  0  0  0  0
125229  1  0  0  0  0
126230  1  0  0  0  0
126231  1  0  0  0  0
126232  1  0  0  0  0
127233  1  0  0  0  0
129130  1  0  0  0  0
130234  1  0  0  0  0
130235  1  0  0  0  0
130236  1  0  0  0  0
131132  1  0  0  0  0
131237  1  0  0  0  0
131238  1  0  0  0  0
132239  1  0  0  0  0
132240  1  0  0  0  0
133132  1  0  0  0  0
133134  1  0  0  0  0
134241  1  0  0  0  0
134242  1  0  0  0  0
135134  1  0  0  0  0
135243  1  0  0  0  0
136135  2  0  0  0  0
136244  1  0  0  0  0
M  END
>  <DRUGBANK_ID>
DB05168

>  <SECONDARY_ACCESSION_NUMBERS>
DB12503

>  <COMMON_NAME>
Vintafolide

>  <CAS_NUMBER>
742092-03-1

>  <UNII>
36O410ZD4I

>  <SYNONYMS>
Vintafolide

$$$$
