
 OpenBabel10282417133D

 38 41  0  0  0  0  0  0  0  0999 V2000
    0.8079    0.4932   -0.6386 C   0  0  1  0  0  0  0  0  0  0  0  0
   -0.6955    0.2904   -0.3464 C   0  0  0  0  0  0  0  0  0  0  0  0
    1.5967   -0.7744   -0.0682 C   0  0  2  0  0  0  0  0  0  0  0  0
    1.5265    1.7474    0.1448 C   0  0  0  0  0  0  0  0  0  0  0  0
   -1.2412   -0.9444   -0.0439 C   0  0  0  0  0  0  0  0  0  0  0  0
   -1.7106    1.2116   -0.2029 C   0  0  0  0  0  0  0  0  0  0  0  0
    1.0885   -2.3440    0.5870 C   0  0  0  0  0  0  0  0  0  0  0  0
    2.9997   -0.1086    0.1482 C   0  0  0  0  0  0  0  0  0  0  0  0
    1.9326   -1.8077   -1.0244 C   0  0  0  0  0  0  0  0  0  0  0  0
    2.9773    1.3486    0.4571 C   0  0  0  0  0  0  0  0  0  0  0  0
   -2.7112   -1.3404    0.4386 C   0  0  0  0  0  0  0  0  0  0  0  0
   -0.3871   -2.1002    0.4339 C   0  0  0  0  0  0  0  0  0  0  0  0
   -3.1377    0.7387    0.4162 C   0  0  0  0  0  0  0  0  0  0  0  0
    4.0796   -0.6751   -0.0356 O   0  0  0  0  0  0  0  0  0  0  0  0
   -3.7232   -0.6675    1.0282 C   0  0  0  0  0  0  0  0  0  0  0  0
   -3.1025   -2.5554    0.1968 C   0  0  0  0  0  0  0  0  0  0  0  0
   -4.7496   -2.1328    1.7842 C   0  0  0  0  0  0  0  0  0  0  0  0
   -4.5161   -2.8088    0.1915 C   0  0  0  0  0  0  0  0  0  0  0  0
   -4.7313   -3.4232    1.3052 C   0  0  0  0  0  0  0  0  0  0  0  0
   -3.9419   -4.5919    1.2249 O   0  0  0  0  0  0  0  0  0  0  0  0
    1.0177    0.6133   -1.7276 H   0  0  0  0  0  0  0  0  0  0  0  0
    1.6230    2.8237   -0.1283 H   0  0  0  0  0  0  0  0  0  0  0  0
    0.7253    1.9811    0.8239 H   0  0  0  0  0  0  0  0  0  0  0  0
   -1.4559    2.2652   -0.4154 H   0  0  0  0  0  0  0  0  0  0  0  0
    0.9080   -3.4392    0.1606 H   0  0  0  0  0  0  0  0  0  0  0  0
    1.9347   -3.2753    0.1080 H   0  0  0  0  0  0  0  0  0  0  0  0
    0.9737   -2.4436   -1.3775 H   0  0  0  0  0  0  0  0  0  0  0  0
    2.4547   -1.8558   -1.9227 H   0  0  0  0  0  0  0  0  0  0  0  0
    2.7974   -2.1148   -0.0679 H   0  0  0  0  0  0  0  0  0  0  0  0
    3.7809    1.5330    1.2019 H   0  0  0  0  0  0  0  0  0  0  0  0
    3.4846    1.9949   -0.2590 H   0  0  0  0  0  0  0  0  0  0  0  0
   -0.7893   -3.0303    0.0491 H   0  0  0  0  0  0  0  0  0  0  0  0
   -0.5641   -1.9026    1.4819 H   0  0  0  0  0  0  0  0  0  0  0  0
   -3.7715    1.6486    0.3315 H   0  0  0  0  0  0  0  0  0  0  0  0
   -2.4167   -3.3398    0.5758 H   0  0  0  0  0  0  0  0  0  0  0  0
   -5.9710   -2.1968    1.7472 H   0  0  0  0  0  0  0  0  0  0  0  0
   -5.2937   -1.7892    0.0196 H   0  0  0  0  0  0  0  0  0  0  0  0
   -4.0649   -5.3475    1.8141 H   0  0  0  0  0  0  0  0  0  0  0  0
  1  2  1  0  0  0  0
  1  3  1  0  0  0  0
  1  4  1  0  0  0  0
  1 21  1  1  0  0  0
  2  5  2  0  0  0  0
  2  6  1  0  0  0  0
  3  7  1  0  0  0  0
  3  8  1  0  0  0  0
  3  9  1  6  0  0  0
  4 10  1  0  0  0  0
  4 22  1  0  0  0  0
  4 23  1  0  0  0  0
  5 11  1  0  0  0  0
  5 12  1  0  0  0  0
  6 13  2  0  0  0  0
  6 24  1  0  0  0  0
  7 12  1  0  0  0  0
  7 25  1  0  0  0  0
  7 26  1  0  0  0  0
  8 10  1  0  0  0  0
  8 14  2  0  0  0  0
  9 27  1  0  0  0  0
  9 28  1  0  0  0  0
  9 29  1  0  0  0  0
 10 30  1  0  0  0  0
 10 31  1  0  0  0  0
 11 15  2  0  0  0  0
 11 16  1  0  0  0  0
 12 32  1  0  0  0  0
 12 33  1  0  0  0  0
 13 15  1  0  0  0  0
 13 34  1  0  0  0  0
 15 17  1  0  0  0  0
 16 18  2  0  0  0  0
 16 35  1  0  0  0  0
 17 19  2  0  0  0  0
 17 36  1  0  0  0  0
 18 19  1  0  0  0  0
 18 37  1  0  0  0  0
 19 20  1  0  0  0  0
 20 38  1  0  0  0  0
M  END
>  <DRUGBANK_ID>
DB03515

>  <SECONDARY_ACCESSION_NUMBERS>
EXPT01356

>  <COMMON_NAME>
Equilenin

>  <CAS_NUMBER>
517-09-9

>  <UNII>
W8FTJ17C4J

>  <SYNONYMS>
3-Hydroxyestra-1,3,5(10),6,8-pentaen-17-one; Equilenina

$$$$
