
 OpenBabel10282417193D

 89 89  0  0  0  0  0  0  0  0999 V2000
    1.0681    0.1496   -0.2728 C   0  0  0  0  0  0  0  0  0  0  0  0
    0.4766    0.4180   -1.5565 C   0  0  0  0  0  0  0  0  0  0  0  0
    1.0985   -0.5638   -2.5334 C   0  0  0  0  0  0  0  0  0  0  0  0
   -0.9538    0.3011   -1.3915 O   0  0  0  0  0  0  0  0  0  0  0  0
   -1.5305   -1.2819   -0.9983 P   0  0  0  0  0  0  0  0  0  0  0  0
   -0.5766   -2.1369   -1.7659 O   0  0  0  0  0  0  0  0  0  0  0  0
   -1.3354   -0.9106    0.7830 C   0  0  0  0  0  0  0  0  0  0  0  0
   -2.5341   -0.7280    1.5089 C   0  0  0  0  0  0  0  0  0  0  0  0
   -3.3938   -2.9062    1.8132 C   0  0  0  0  0  0  0  0  0  0  0  0
   -4.9382   -3.1607    1.4135 C   0  0  0  0  0  0  0  0  0  0  0  0
   -5.2508   -4.2980    0.8502 C   0  0  0  0  0  0  0  0  0  0  0  0
   -4.2457   -5.2153    1.0712 C   0  0  0  0  0  0  0  0  0  0  0  0
   -2.8888   -5.0610    1.5361 C   0  0  0  0  0  0  0  0  0  0  0  0
   -2.3771   -3.8881    1.8105 C   0  0  0  0  0  0  0  0  0  0  0  0
   -1.9128   -6.1120    1.8541 C   0  0  0  0  0  0  0  0  0  0  0  0
   -0.6670   -5.9690    0.9922 C   0  0  0  0  0  0  0  0  0  0  0  0
   -1.5806   -5.9406    3.3377 C   0  0  0  0  0  0  0  0  0  0  0  0
   -2.5927   -7.4094    1.6065 C   0  0  0  0  0  0  0  0  0  0  0  0
   -4.4565   -6.4772    0.7344 O   0  0  0  0  0  0  0  0  0  0  0  0
   -6.5447   -4.2937    0.1508 C   0  0  0  0  0  0  0  0  0  0  0  0
   -7.4864   -3.6090    1.1292 C   0  0  0  0  0  0  0  0  0  0  0  0
   -6.6495   -3.6603   -1.2305 C   0  0  0  0  0  0  0  0  0  0  0  0
   -6.8398   -5.7282    0.0135 C   0  0  0  0  0  0  0  0  0  0  0  0
   -0.1582   -2.0971    1.5281 P   0  0  0  0  0  0  0  0  0  0  0  0
    0.8839   -1.0600    1.4750 O   0  0  0  0  0  0  0  0  0  0  0  0
   -0.6416   -1.7448    3.1766 O   0  0  0  0  0  0  0  0  0  0  0  0
   -1.5362   -0.6723    3.4789 C   0  0  0  0  0  0  0  0  0  0  0  0
   -1.0212    0.7737    2.7651 C   0  0  0  0  0  0  0  0  0  0  0  0
   -3.1966   -1.3571    2.9202 C   0  0  0  0  0  0  0  0  0  0  0  0
    0.9546   -3.2189    2.2325 O   0  0  0  0  0  0  0  0  0  0  0  0
    2.2672   -2.6167    2.4542 C   0  0  0  0  0  0  0  0  0  0  0  0
    2.9526   -2.2434    1.1179 C   0  0  0  0  0  0  0  0  0  0  0  0
    2.1308   -1.4199    3.4329 C   0  0  0  0  0  0  0  0  0  0  0  0
   -2.1071   -2.8649   -0.6052 O   0  0  0  0  0  0  0  0  0  0  0  0
   -3.4627   -2.6894   -0.4317 C   0  0  0  0  0  0  0  0  0  0  0  0
   -3.7361   -1.6004    0.9226 C   0  0  0  0  0  0  0  0  0  0  0  0
   -4.3624   -1.9798   -1.3238 C   0  0  0  0  0  0  0  0  0  0  0  0
    0.6733   -0.8680   -0.2769 H   0  0  0  0  0  0  0  0  0  0  0  0
    0.7200    0.7529    0.5713 H   0  0  0  0  0  0  0  0  0  0  0  0
    2.1331    0.0800   -0.1565 H   0  0  0  0  0  0  0  0  0  0  0  0
    0.7883    1.4279   -1.7373 H   0  0  0  0  0  0  0  0  0  0  0  0
    1.0289   -1.6294   -2.3394 H   0  0  0  0  0  0  0  0  0  0  0  0
    0.6364   -0.3978   -3.4932 H   0  0  0  0  0  0  0  0  0  0  0  0
    2.1772   -0.5651   -2.4878 H   0  0  0  0  0  0  0  0  0  0  0  0
   -1.0790    0.0743    0.4897 H   0  0  0  0  0  0  0  0  0  0  0  0
   -2.6315    0.0797    2.2126 H   0  0  0  0  0  0  0  0  0  0  0  0
   -3.2132    0.1887    1.0436 H   0  0  0  0  0  0  0  0  0  0  0  0
   -5.5667   -2.2753    0.9640 H   0  0  0  0  0  0  0  0  0  0  0  0
   -1.3660   -3.7044    2.1022 H   0  0  0  0  0  0  0  0  0  0  0  0
   -0.1297   -5.0332    1.1650 H   0  0  0  0  0  0  0  0  0  0  0  0
    0.0063   -6.7811    1.2435 H   0  0  0  0  0  0  0  0  0  0  0  0
   -0.9206   -5.9916   -0.0718 H   0  0  0  0  0  0  0  0  0  0  0  0
   -2.4981   -5.9368    3.9396 H   0  0  0  0  0  0  0  0  0  0  0  0
   -0.9318   -6.7519    3.6324 H   0  0  0  0  0  0  0  0  0  0  0  0
   -1.0578   -4.9970    3.5560 H   0  0  0  0  0  0  0  0  0  0  0  0
   -3.5100   -7.4475    2.2261 H   0  0  0  0  0  0  0  0  0  0  0  0
   -2.8195   -7.4789    0.5261 H   0  0  0  0  0  0  0  0  0  0  0  0
   -1.9777   -8.2357    1.8623 H   0  0  0  0  0  0  0  0  0  0  0  0
   -5.3092   -6.7748    0.5115 H   0  0  0  0  0  0  0  0  0  0  0  0
   -7.3086   -2.5253    1.2069 H   0  0  0  0  0  0  0  0  0  0  0  0
   -8.4944   -3.7560    0.7926 H   0  0  0  0  0  0  0  0  0  0  0  0
   -7.3312   -4.0268    2.1337 H   0  0  0  0  0  0  0  0  0  0  0  0
   -5.8956   -4.0568   -1.9219 H   0  0  0  0  0  0  0  0  0  0  0  0
   -7.6411   -3.8130   -1.6314 H   0  0  0  0  0  0  0  0  0  0  0  0
   -6.6197   -2.5785   -1.2322 H   0  0  0  0  0  0  0  0  0  0  0  0
   -6.1319   -6.1285   -0.7434 H   0  0  0  0  0  0  0  0  0  0  0  0
   -6.7445   -6.1619    1.0285 H   0  0  0  0  0  0  0  0  0  0  0  0
   -7.8219   -5.9245   -0.3368 H   0  0  0  0  0  0  0  0  0  0  0  0
   -1.9355   -0.4054    4.4309 H   0  0  0  0  0  0  0  0  0  0  0  0
   -0.5162    0.6328    1.8407 H   0  0  0  0  0  0  0  0  0  0  0  0
   -1.8241    1.4693    2.3945 H   0  0  0  0  0  0  0  0  0  0  0  0
   -0.1445    1.1817    3.1883 H   0  0  0  0  0  0  0  0  0  0  0  0
   -3.5367   -2.2493    3.5508 H   0  0  0  0  0  0  0  0  0  0  0  0
   -3.9804   -0.4910    2.8834 H   0  0  0  0  0  0  0  0  0  0  0  0
   -2.4251   -2.0001    1.2671 H   0  0  0  0  0  0  0  0  0  0  0  0
    2.9137   -3.3583    2.9191 H   0  0  0  0  0  0  0  0  0  0  0  0
    2.4543   -1.5538    0.4712 H   0  0  0  0  0  0  0  0  0  0  0  0
    3.8638   -1.6757    1.2698 H   0  0  0  0  0  0  0  0  0  0  0  0
    2.9571   -3.0710    0.4166 H   0  0  0  0  0  0  0  0  0  0  0  0
    1.6769   -1.7453    4.3648 H   0  0  0  0  0  0  0  0  0  0  0  0
    3.0675   -0.8979    3.5494 H   0  0  0  0  0  0  0  0  0  0  0  0
    1.4560   -0.6091    3.1393 H   0  0  0  0  0  0  0  0  0  0  0  0
   -3.6296   -3.7341   -0.3749 H   0  0  0  0  0  0  0  0  0  0  0  0
   -3.5566   -0.8714    0.1095 H   0  0  0  0  0  0  0  0  0  0  0  0
   -4.6275   -1.2895    1.6122 H   0  0  0  0  0  0  0  0  0  0  0  0
   -2.4093   -2.0766    2.2359 H   0  0  0  0  0  0  0  0  0  0  0  0
   -4.4921   -2.6438   -2.1310 H   0  0  0  0  0  0  0  0  0  0  0  0
   -5.2625   -1.8051   -0.7517 H   0  0  0  0  0  0  0  0  0  0  0  0
   -4.0423   -0.9606   -1.4699 H   0  0  0  0  0  0  0  0  0  0  0  0
  1  2  1  0  0  0  0
  1 38  1  0  0  0  0
  1 39  1  0  0  0  0
  1 40  1  0  0  0  0
  2  3  1  0  0  0  0
  2  4  1  0  0  0  0
  2 41  1  0  0  0  0
  3 42  1  0  0  0  0
  3 43  1  0  0  0  0
  3 44  1  0  0  0  0
  4  5  1  0  0  0  0
  5  6  2  0  0  0  0
  5  7  1  0  0  0  0
  5 34  1  0  0  0  0
  7  8  1  0  0  0  0
  7 24  1  0  0  0  0
  7 45  1  0  0  0  0
  8  9  1  0  0  0  0
  8 46  1  0  0  0  0
  8 47  1  0  0  0  0
  9 10  2  0  0  0  0
  9 14  1  0  0  0  0
 10 11  1  0  0  0  0
 10 48  1  0  0  0  0
 11 12  2  0  0  0  0
 11 20  1  0  0  0  0
 12 13  1  0  0  0  0
 12 19  1  0  0  0  0
 13 14  2  0  0  0  0
 13 15  1  0  0  0  0
 14 49  1  0  0  0  0
 15 16  1  0  0  0  0
 15 17  1  0  0  0  0
 15 18  1  0  0  0  0
 16 50  1  0  0  0  0
 16 51  1  0  0  0  0
 16 52  1  0  0  0  0
 17 53  1  0  0  0  0
 17 54  1  0  0  0  0
 17 55  1  0  0  0  0
 18 56  1  0  0  0  0
 18 57  1  0  0  0  0
 18 58  1  0  0  0  0
 19 59  1  0  0  0  0
 20 21  1  0  0  0  0
 20 22  1  0  0  0  0
 20 23  1  0  0  0  0
 21 60  1  0  0  0  0
 21 61  1  0  0  0  0
 21 62  1  0  0  0  0
 22 63  1  0  0  0  0
 22 64  1  0  0  0  0
 22 65  1  0  0  0  0
 23 66  1  0  0  0  0
 23 67  1  0  0  0  0
 23 68  1  0  0  0  0
 24 25  2  0  0  0  0
 24 26  1  0  0  0  0
 24 30  1  0  0  0  0
 26 27  1  0  0  0  0
 27 28  1  0  0  0  0
 27 29  1  0  0  0  0
 27 69  1  0  0  0  0
 28 70  1  0  0  0  0
 28 71  1  0  0  0  0
 28 72  1  0  0  0  0
 29 73  1  0  0  0  0
 29 74  1  0  0  0  0
 29 75  1  0  0  0  0
 30 31  1  0  0  0  0
 31 32  1  0  0  0  0
 31 33  1  0  0  0  0
 31 76  1  0  0  0  0
 32 77  1  0  0  0  0
 32 78  1  0  0  0  0
 32 79  1  0  0  0  0
 33 80  1  0  0  0  0
 33 81  1  0  0  0  0
 33 82  1  0  0  0  0
 34 35  1  0  0  0  0
 35 36  1  0  0  0  0
 35 37  1  0  0  0  0
 35 83  1  0  0  0  0
 36 84  1  0  0  0  0
 36 85  1  0  0  0  0
 36 86  1  0  0  0  0
 37 87  1  0  0  0  0
 37 88  1  0  0  0  0
 37 89  1  0  0  0  0
M  END
>  <DRUGBANK_ID>
DB12276

>  <COMMON_NAME>
Apomine

>  <CAS_NUMBER>
126411-13-0

>  <UNII>
JQ95208805

>  <SYNONYMS>
tetraisopropyl 2-(3,5-di-tert-butyl-4-hydroxyphenyl)ethyl-1,1-biphosphonate

$$$$
