L0D
 OpenBabel10282417173D

 22 24  0  0  0  0  0  0  0  0999 V2000
    1.0574   -0.6100   -0.0297 C   0  0  0  0  0  0  0  0  0  0  0  0
    1.0135    0.7632   -0.0647 C   0  0  0  0  0  0  0  0  0  0  0  0
   -0.3614    1.0855    0.0148 C   0  0  0  0  0  0  0  0  0  0  0  0
   -1.1228   -0.0127    0.0816 N   0  0  0  0  0  0  0  0  0  0  0  0
   -0.2418   -1.0234    0.0239 N   0  0  0  0  0  0  0  0  0  0  0  0
   -0.9120    2.4713    0.0229 C   0  0  0  0  0  0  0  0  0  0  0  0
   -1.7418    2.9681    0.9206 N   0  0  0  0  0  0  0  0  0  0  0  0
   -1.9155    4.2836    0.5691 C   0  0  0  0  0  0  0  0  0  0  0  0
   -2.6595    5.2905    1.2003 C   0  0  0  0  0  0  0  0  0  0  0  0
   -2.7211    6.5558    0.6021 C   0  0  0  0  0  0  0  0  0  0  0  0
   -2.0468    6.8161   -0.5941 C   0  0  0  0  0  0  0  0  0  0  0  0
   -1.2782    5.8314   -1.2257 C   0  0  0  0  0  0  0  0  0  0  0  0
   -1.2307    4.5822   -0.6045 C   0  0  0  0  0  0  0  0  0  0  0  0
   -0.5867    3.4149   -0.9166 N   0  0  0  0  0  0  0  0  0  0  0  0
    1.8776   -1.3132   -0.0221 H   0  0  0  0  0  0  0  0  0  0  0  0
    1.8545    1.4413   -0.0687 H   0  0  0  0  0  0  0  0  0  0  0  0
   -0.5992   -1.9733    0.0383 H   0  0  0  0  0  0  0  0  0  0  0  0
   -3.1795    5.0801    2.1281 H   0  0  0  0  0  0  0  0  0  0  0  0
   -3.3098    7.3398    1.0722 H   0  0  0  0  0  0  0  0  0  0  0  0
   -2.1202    7.8048   -1.0428 H   0  0  0  0  0  0  0  0  0  0  0  0
   -0.7537    6.0353   -2.1528 H   0  0  0  0  0  0  0  0  0  0  0  0
   -0.0342    3.2417   -1.7445 H   0  0  0  0  0  0  0  0  0  0  0  0
  1  2  2  0  0  0  0
  1  5  1  0  0  0  0
  1 15  1  0  0  0  0
  2  3  1  0  0  0  0
  2 16  1  0  0  0  0
  3  4  2  0  0  0  0
  3  6  1  0  0  0  0
  4  5  1  0  0  0  0
  5 17  1  0  0  0  0
  6  7  2  0  0  0  0
  6 14  1  0  0  0  0
  7  8  1  0  0  0  0
  8  9  2  0  0  0  0
  8 13  1  0  0  0  0
  9 10  1  0  0  0  0
  9 18  1  0  0  0  0
 10 11  2  0  0  0  0
 10 19  1  0  0  0  0
 11 12  1  0  0  0  0
 11 20  1  0  0  0  0
 12 13  2  0  0  0  0
 12 21  1  0  0  0  0
 13 14  1  0  0  0  0
 14 22  1  0  0  0  0
M  END
>  <DRUGBANK_ID>
DB08065

>  <COMMON_NAME>
2-(1H-pyrazol-3-yl)-1H-benzimidazole

>  <UNII>
C26MF22L5F

$$$$
