ChEBI
 OpenBabel10282417153D

 82 84  0  0  1  0  0  0  0  0999 V2000
   -1.5889    7.7870   -5.5930 C   0  0  2  0  0  0  0  0  0  0  0  0
   -1.4104    5.9303   -6.1665 C   0  0  0  0  0  0  0  0  0  0  0  0
   -3.1980    4.8342   -6.5455 C   0  0  0  0  0  0  0  0  0  0  0  0
   -4.1054    6.3070   -7.7327 C   0  0  2  0  0  0  0  0  0  0  0  0
   -4.1593    8.2463   -7.4545 C   0  0  2  0  0  0  0  0  0  0  0  0
   -2.4214    8.7977   -6.9340 O   0  0  0  0  0  0  0  0  0  0  0  0
   -5.2645    8.3294   -6.3296 O   0  0  0  0  0  0  0  0  0  0  0  0
   -5.0648    7.3436   -5.0843 C   0  0  1  0  0  0  0  0  0  0  0  0
   -5.1864    5.9460   -5.4575 C   0  0  1  0  0  0  0  0  0  0  0  0
   -3.4843    6.3547   -5.6430 C   0  0  2  0  0  0  0  0  0  0  0  0
   -2.2712    5.1868   -4.5919 C   0  0  1  0  0  0  0  0  0  0  0  0
   -1.7560    6.4183   -4.1567 C   0  0  0  0  0  0  0  0  0  0  0  0
   -3.6180    7.1861   -3.6912 C   0  0  2  0  0  0  0  0  0  0  0  0
   -3.4449    7.6215   -5.9829 O   0  0  0  0  0  0  0  0  0  0  0  0
   -0.4081    8.4412   -3.9119 C   0  0  0  0  0  0  0  0  0  0  0  0
   -5.3761    5.9067   -8.1858 N   0  0  0  0  0  0  0  0  0  0  0  0
   -3.3208    6.2406   -1.7576 N   0  0  0  0  0  0  0  0  0  0  0  0
   -5.4667    4.8199   -4.5274 O   0  0  0  0  0  0  0  0  0  0  0  0
   -0.5827    9.7795   -3.0901 N   0  0  0  0  0  0  0  0  0  0  0  0
   -3.6318    9.0656   -4.9999 C   0  0  1  0  0  0  0  0  0  0  0  0
   -4.8891    9.0577   -3.9293 O   0  0  0  0  0  0  0  0  0  0  0  0
   -5.4089    7.5463   -3.0925 C   0  0  1  0  0  0  0  0  0  0  0  0
   -4.5119    7.5615   -1.9379 C   0  0  2  0  0  0  0  0  0  0  0  0
   -2.3415    7.7113   -2.4207 C   0  0  1  0  0  0  0  0  0  0  0  0
   -2.3348    9.0784   -4.0295 C   0  0  1  0  0  0  0  0  0  0  0  0
   -6.8647    7.3530   -3.1443 C   0  0  0  0  0  0  0  0  0  0  0  0
   -7.1954    8.7105   -3.2889 O   0  0  0  0  0  0  0  0  0  0  0  0
   -5.2740    5.9283   -1.6805 O   0  0  0  0  0  0  0  0  0  0  0  0
   -1.0854    6.3218   -1.9256 N   0  0  0  0  0  0  0  0  0  0  0  0
   -0.9404    9.4923   -5.3355 O   0  0  0  0  0  0  0  0  0  0  0  0
   -2.6456    4.0324   -3.9707 N   0  0  0  0  0  0  0  0  0  0  0  0
   -2.1030    2.2768   -1.8830 C   0  0  0  0  0  0  0  0  0  0  0  0
   -1.5153    1.4544   -2.9946 C   0  0  0  0  0  0  0  0  0  0  0  0
   -1.2966    2.1623   -4.2696 N   0  0  0  0  0  0  0  0  0  0  0  0
   -3.2022    3.7267   -2.8346 C   0  0  0  0  0  0  0  0  0  0  0  0
   -3.7577    4.3957   -2.0140 O   0  0  0  0  0  0  0  0  0  0  0  0
   -3.5210    2.4864   -2.2951 C   0  0  1  0  0  0  0  0  0  0  0  0
   -4.2179    2.0110   -3.4204 O   0  0  0  0  0  0  0  0  0  0  0  0
   -2.3993    7.7012   -4.9249 H   0  0  0  0  0  0  0  0  0  0  0  0
   -0.8878    6.1040   -7.0136 H   0  0  0  0  0  0  0  0  0  0  0  0
   -0.5037    5.5481   -5.1348 H   0  0  0  0  0  0  0  0  0  0  0  0
   -3.8114    4.8085   -5.3058 H   0  0  0  0  0  0  0  0  0  0  0  0
   -3.2453    3.7452   -6.4663 H   0  0  0  0  0  0  0  0  0  0  0  0
   -3.2731    6.4689   -8.4249 H   0  0  0  0  0  0  0  0  0  0  0  0
   -4.3731    9.1725   -7.9871 H   0  0  0  0  0  0  0  0  0  0  0  0
   -5.9515    7.9226   -4.8252 H   0  0  0  0  0  0  0  0  0  0  0  0
   -6.1004    5.9675   -6.0272 H   0  0  0  0  0  0  0  0  0  0  0  0
   -2.7473    6.2169   -6.9316 H   0  0  0  0  0  0  0  0  0  0  0  0
   -1.3462    4.4182   -5.3180 H   0  0  0  0  0  0  0  0  0  0  0  0
   -0.7781    6.8226   -4.5337 H   0  0  0  0  0  0  0  0  0  0  0  0
   -1.1095    6.8440   -3.5136 H   0  0  0  0  0  0  0  0  0  0  0  0
   -3.6190    8.5208   -2.9855 H   0  0  0  0  0  0  0  0  0  0  0  0
   -0.3544    8.0752   -2.8060 H   0  0  0  0  0  0  0  0  0  0  0  0
    0.5695    8.1512   -4.1860 H   0  0  0  0  0  0  0  0  0  0  0  0
   -5.2559    4.9358   -7.9564 H   0  0  0  0  0  0  0  0  0  0  0  0
   -6.0709    6.3349   -7.5583 H   0  0  0  0  0  0  0  0  0  0  0  0
   -3.9292    5.8574   -1.0950 H   0  0  0  0  0  0  0  0  0  0  0  0
   -3.1595    5.3987   -2.1899 H   0  0  0  0  0  0  0  0  0  0  0  0
   -4.6853    4.5124   -4.0128 H   0  0  0  0  0  0  0  0  0  0  0  0
    0.2513    9.8890   -2.5750 H   0  0  0  0  0  0  0  0  0  0  0  0
   -0.8217   10.4217   -3.8581 H   0  0  0  0  0  0  0  0  0  0  0  0
   -3.6775    9.9287   -5.7588 H   0  0  0  0  0  0  0  0  0  0  0  0
   -5.1000    6.4421   -3.5434 H   0  0  0  0  0  0  0  0  0  0  0  0
   -4.6810    8.1701   -1.1681 H   0  0  0  0  0  0  0  0  0  0  0  0
   -2.5677    6.2945   -3.0283 H   0  0  0  0  0  0  0  0  0  0  0  0
   -2.5548    9.9713   -3.4864 H   0  0  0  0  0  0  0  0  0  0  0  0
   -7.1638    6.6247   -3.9744 H   0  0  0  0  0  0  0  0  0  0  0  0
   -6.9479    6.9662   -2.1621 H   0  0  0  0  0  0  0  0  0  0  0  0
   -6.3454    9.2142   -3.1308 H   0  0  0  0  0  0  0  0  0  0  0  0
   -4.8841    5.2513   -2.3512 H   0  0  0  0  0  0  0  0  0  0  0  0
   -0.2015    6.2704   -2.5235 H   0  0  0  0  0  0  0  0  0  0  0  0
   -0.8560    6.7290   -1.0821 H   0  0  0  0  0  0  0  0  0  0  0  0
   -0.3154    8.5828   -5.8830 H   0  0  0  0  0  0  0  0  0  0  0  0
   -1.7603    3.5746   -4.1344 H   0  0  0  0  0  0  0  0  0  0  0  0
   -1.4714    3.1885   -1.6679 H   0  0  0  0  0  0  0  0  0  0  0  0
   -2.2346    1.8070   -0.9175 H   0  0  0  0  0  0  0  0  0  0  0  0
   -0.5777    1.0804   -2.6394 H   0  0  0  0  0  0  0  0  0  0  0  0
   -2.2417    0.6666   -3.1880 H   0  0  0  0  0  0  0  0  0  0  0  0
   -0.9246    1.5619   -4.9893 H   0  0  0  0  0  0  0  0  0  0  0  0
   -2.2090    2.3467   -4.7081 H   0  0  0  0  0  0  0  0  0  0  0  0
   -4.2452    2.7398   -1.4844 H   0  0  0  0  0  0  0  0  0  0  0  0
   -3.6496    2.1122   -4.1886 H   0  0  0  0  0  0  0  0  0  0  0  0
  1 15  1  0  0  0  0
  1  2  1  0  0  0  0
  1 39  1  1  0  0  0
  2  3  1  0  0  0  0
  2 40  1  0  0  0  0
  2 41  1  0  0  0  0
  3  4  1  0  0  0  0
  3 42  1  0  0  0  0
  3 43  1  0  0  0  0
  4 16  1  0  0  0  0
  4  5  1  0  0  0  0
  4 44  1  6  0  0  0
  5  7  1  0  0  0  0
  5  6  1  0  0  0  0
  5 45  1  6  0  0  0
  6  1  1  0  0  0  0
  8  7  1  0  0  0  0
  8  9  1  0  0  0  0
  8 46  1  1  0  0  0
  9 18  1  0  0  0  0
  9 10  1  0  0  0  0
  9 47  1  6  0  0  0
 10 14  1  0  0  0  0
 10 11  1  0  0  0  0
 10 48  1  6  0  0  0
 11 12  1  0  0  0  0
 11 49  1  6  0  0  0
 11 31  1  0  0  0  0
 12 13  1  0  0  0  0
 12 50  1  0  0  0  0
 12 51  1  0  0  0  0
 13  8  1  0  0  0  0
 13 52  1  1  0  0  0
 13 17  1  0  0  0  0
 15 19  1  0  0  0  0
 15 53  1  0  0  0  0
 15 54  1  0  0  0  0
 16 55  1  0  0  0  0
 16 56  1  0  0  0  0
 17 57  1  0  0  0  0
 17 58  1  0  0  0  0
 18 59  1  0  0  0  0
 19 60  1  0  0  0  0
 19 61  1  0  0  0  0
 20 14  1  0  0  0  0
 20 21  1  0  0  0  0
 20 62  1  6  0  0  0
 21 22  1  0  0  0  0
 22 23  1  0  0  0  0
 22 63  1  6  0  0  0
 22 26  1  0  0  0  0
 23 28  1  0  0  0  0
 23 24  1  0  0  0  0
 23 64  1  1  0  0  0
 24 25  1  0  0  0  0
 24 65  1  6  0  0  0
 24 29  1  0  0  0  0
 25 20  1  0  0  0  0
 25 30  1  0  0  0  0
 25 66  1  1  0  0  0
 26 27  1  0  0  0  0
 26 67  1  0  0  0  0
 26 68  1  0  0  0  0
 27 69  1  0  0  0  0
 28 70  1  0  0  0  0
 29 71  1  0  0  0  0
 29 72  1  0  0  0  0
 30 73  1  0  0  0  0
 31 35  1  0  0  0  0
 31 74  1  0  0  0  0
 32 33  1  0  0  0  0
 32 75  1  0  0  0  0
 32 76  1  0  0  0  0
 33 34  1  0  0  0  0
 33 77  1  0  0  0  0
 33 78  1  0  0  0  0
 34 79  1  0  0  0  0
 34 80  1  0  0  0  0
 35 36  2  0  0  0  0
 37 38  1  0  0  0  0
 37 81  1  1  0  0  0
 37 32  1  0  0  0  0
 37 35  1  0  0  0  0
 38 82  1  0  0  0  0
M  END
>  <DRUGBANK_ID>
DB06696

>  <COMMON_NAME>
Arbekacin

>  <CAS_NUMBER>
51025-85-5

>  <UNII>
G7V6SLI20L

>  <SYNONYMS>
ABK; Arbekacin; Arbekacina; Arbekacine; Arbekacinum; Haberacin

$$$$
