264
 OpenBabel10282417103D

 44 44  0  0  1  0  0  0  0  0999 V2000
    1.0889   -0.0137   -0.1425 O   0  0  0  0  0  0  0  0  0  0  0  0
    1.9371    2.3136    1.6741 O   0  0  0  0  0  0  0  0  0  0  0  0
    6.8441   -1.9531    1.6018 O   0  0  0  0  0  0  0  0  0  0  0  0
   -1.5943    3.1120    1.2361 N   0  0  0  0  0  0  0  0  0  0  0  0
    0.5905    1.9569    1.3416 C   0  0  3  0  0  0  0  0  0  0  0  0
   -0.1502    3.2909    1.3047 C   0  0  0  0  0  0  0  0  0  0  0  0
   -2.2982    4.3920    1.2464 C   0  0  0  0  0  0  0  0  0  0  0  0
    0.3931    1.2270   -0.0185 C   0  0  0  0  0  0  0  0  0  0  0  0
   -1.9566    5.2390    0.0193 C   0  0  0  0  0  0  0  0  0  0  0  0
   -3.7890    4.0712    1.2637 C   0  0  0  0  0  0  0  0  0  0  0  0
    2.4262    0.0667   -0.3982 C   0  0  0  0  0  0  0  0  0  0  0  0
    5.2265    0.0100   -0.2913 C   0  0  0  0  0  0  0  0  0  0  0  0
    6.7111   -0.0232    0.0098 C   0  0  0  0  0  0  0  0  0  0  0  0
    3.1659    1.2403   -0.4626 C   0  0  0  0  0  0  0  0  0  0  0  0
    3.0945   -1.1513   -0.4829 C   0  0  0  0  0  0  0  0  0  0  0  0
    4.5379    1.2242   -0.2580 C   0  0  0  0  0  0  0  0  0  0  0  0
    4.4884   -1.1562   -0.5597 C   0  0  0  0  0  0  0  0  0  0  0  0
    7.1925   -0.5877    1.3708 C   0  0  0  0  0  0  0  0  0  0  0  0
    5.5170   -2.0951    2.0875 C   0  0  0  0  0  0  0  0  0  0  0  0
    2.4290    1.4840    1.8034 H   0  0  0  0  0  0  0  0  0  0  0  0
   -1.8552    2.5989    0.3959 H   0  0  0  0  0  0  0  0  0  0  0  0
    0.2387    1.3230    2.1600 H   0  0  0  0  0  0  0  0  0  0  0  0
    0.1249    3.8842    2.1859 H   0  0  0  0  0  0  0  0  0  0  0  0
    0.2310    3.8462    0.4374 H   0  0  0  0  0  0  0  0  0  0  0  0
   -2.0460    4.9402    2.1621 H   0  0  0  0  0  0  0  0  0  0  0  0
    0.6008    1.8639   -0.8884 H   0  0  0  0  0  0  0  0  0  0  0  0
   -0.6672    0.9608   -0.1135 H   0  0  0  0  0  0  0  0  0  0  0  0
   -2.1695    4.6937   -0.9074 H   0  0  0  0  0  0  0  0  0  0  0  0
   -2.5365    6.1650    0.0180 H   0  0  0  0  0  0  0  0  0  0  0  0
   -0.9012    5.5300    0.0003 H   0  0  0  0  0  0  0  0  0  0  0  0
   -4.0522    3.4673    2.1397 H   0  0  0  0  0  0  0  0  0  0  0  0
   -4.3765    4.9926    1.2982 H   0  0  0  0  0  0  0  0  0  0  0  0
   -4.0860    3.5112    0.3687 H   0  0  0  0  0  0  0  0  0  0  0  0
    7.1914   -0.5716   -0.8061 H   0  0  0  0  0  0  0  0  0  0  0  0
    7.0906    1.0060   -0.0403 H   0  0  0  0  0  0  0  0  0  0  0  0
    2.6893    2.2187   -0.5045 H   0  0  0  0  0  0  0  0  0  0  0  0
    2.5389   -2.0820   -0.4194 H   0  0  0  0  0  0  0  0  0  0  0  0
    5.0417    2.1587   -0.0325 H   0  0  0  0  0  0  0  0  0  0  0  0
    4.9954   -2.1208   -0.6219 H   0  0  0  0  0  0  0  0  0  0  0  0
    8.2913   -0.5531    1.3646 H   0  0  0  0  0  0  0  0  0  0  0  0
    6.8734    0.0273    2.2207 H   0  0  0  0  0  0  0  0  0  0  0  0
    5.4338   -1.8855    3.1525 H   0  0  0  0  0  0  0  0  0  0  0  0
    4.8552   -1.3719    1.6408 H   0  0  0  0  0  0  0  0  0  0  0  0
    5.1528   -3.0945    1.8354 H   0  0  0  0  0  0  0  0  0  0  0  0
  1  8  1  0  0  0  0
  1 11  1  0  0  0  0
  2  5  1  0  0  0  0
  2 20  1  0  0  0  0
  3 18  1  0  0  0  0
  3 19  1  0  0  0  0
  4  6  1  0  0  0  0
  4  7  1  0  0  0  0
  4 21  1  0  0  0  0
  5  6  1  0  0  0  0
  5  8  1  0  0  0  0
  5 22  1  0  0  0  0
  6 23  1  0  0  0  0
  6 24  1  0  0  0  0
  7  9  1  0  0  0  0
  7 10  1  0  0  0  0
  7 25  1  0  0  0  0
  8 26  1  0  0  0  0
  8 27  1  0  0  0  0
  9 28  1  0  0  0  0
  9 29  1  0  0  0  0
  9 30  1  0  0  0  0
 10 31  1  0  0  0  0
 10 32  1  0  0  0  0
 10 33  1  0  0  0  0
 11 14  2  0  0  0  0
 11 15  1  0  0  0  0
 12 13  1  0  0  0  0
 12 16  2  0  0  0  0
 12 17  1  0  0  0  0
 13 18  1  0  0  0  0
 13 34  1  0  0  0  0
 13 35  1  0  0  0  0
 14 16  1  0  0  0  0
 14 36  1  0  0  0  0
 15 17  2  0  0  0  0
 15 37  1  0  0  0  0
 16 38  1  0  0  0  0
 17 39  1  0  0  0  0
 18 40  1  0  0  0  0
 18 41  1  0  0  0  0
 19 42  1  0  0  0  0
 19 43  1  0  0  0  0
 19 44  1  0  0  0  0
M  END
>  <DRUGBANK_ID>
DB00264

>  <SECONDARY_ACCESSION_NUMBERS>
APRD00208

>  <COMMON_NAME>
Metoprolol

>  <CAS_NUMBER>
51384-51-1

>  <UNII>
GEB06NHM23

>  <SYNONYMS>
(RS)-Metoprolol; 1-(isopropylamino)-3-[4-(2-methoxyethyl)phenoxy]propan-2-ol; DL-metoprolol; Metoprolol

$$$$
