
 OpenBabel10282417143D

 30 32  0  0  0  0  0  0  0  0999 V2000
    2.1763   -0.0409    0.0019 F   0  0  0  0  0  0  0  0  0  0  0  0
    0.8434    3.3788    0.8917 O   0  0  0  0  0  0  0  0  0  0  0  0
    4.0612    7.2066   -5.5183 O   0  0  0  0  0  0  0  0  0  0  0  0
    2.1456    6.0843   -5.2117 O   0  0  0  0  0  0  0  0  0  0  0  0
    1.8076    2.8029   -1.0434 N   0  0  0  0  0  0  0  0  0  0  0  0
    1.7484    4.4071    0.5785 N   0  0  0  0  0  0  0  0  0  0  0  0
    3.2237    4.7920   -1.3694 C   0  0  0  0  0  0  0  0  0  0  0  0
    2.2836    4.0051   -0.5870 C   0  0  0  0  0  0  0  0  0  0  0  0
    0.1743    1.2388    0.0069 C   0  0  0  0  0  0  0  0  0  0  0  0
    0.9531    2.4555   -0.1089 C   0  0  0  0  0  0  0  0  0  0  0  0
    2.8743    5.1885   -2.6697 C   0  0  0  0  0  0  0  0  0  0  0  0
    3.7324    5.9923   -3.4436 C   0  0  0  0  0  0  0  0  0  0  0  0
    4.4605    5.1829   -0.8483 C   0  0  0  0  0  0  0  0  0  0  0  0
    4.9609    6.3840   -2.8990 C   0  0  0  0  0  0  0  0  0  0  0  0
    5.3079    6.0027   -1.5986 C   0  0  0  0  0  0  0  0  0  0  0  0
    0.8354    0.0073    0.0059 C   0  0  0  0  0  0  0  0  0  0  0  0
   -1.2281    1.2449    0.0288 C   0  0  0  0  0  0  0  0  0  0  0  0
    0.1334   -1.1961    0.0112 C   0  0  0  0  0  0  0  0  0  0  0  0
   -1.9391    0.0363    0.0208 C   0  0  0  0  0  0  0  0  0  0  0  0
   -1.2587   -1.1826    0.0085 C   0  0  0  0  0  0  0  0  0  0  0  0
    3.2462    6.4177   -4.7908 C   0  0  0  0  0  0  0  0  0  0  0  0
    4.9195    7.4612   -5.1451 H   0  0  0  0  0  0  0  0  0  0  0  0
    1.9107    4.8776   -3.0754 H   0  0  0  0  0  0  0  0  0  0  0  0
    4.7784    4.8465    0.1369 H   0  0  0  0  0  0  0  0  0  0  0  0
    5.6777    6.9853   -3.4447 H   0  0  0  0  0  0  0  0  0  0  0  0
    6.2406    6.3594   -1.1659 H   0  0  0  0  0  0  0  0  0  0  0  0
   -1.7802    2.1826    0.0136 H   0  0  0  0  0  0  0  0  0  0  0  0
    0.6813   -2.1333    0.0034 H   0  0  0  0  0  0  0  0  0  0  0  0
   -3.0276    0.0429    0.0060 H   0  0  0  0  0  0  0  0  0  0  0  0
   -1.8109   -2.1197   -0.0095 H   0  0  0  0  0  0  0  0  0  0  0  0
  1 16  1  0  0  0  0
  2  6  1  0  0  0  0
  2 10  1  0  0  0  0
  3 21  1  0  0  0  0
  3 22  1  0  0  0  0
  4 21  2  0  0  0  0
  5  8  1  0  0  0  0
  5 10  2  0  0  0  0
  6  8  2  0  0  0  0
  7  8  1  0  0  0  0
  7 11  2  0  0  0  0
  7 13  1  0  0  0  0
  9 10  1  0  0  0  0
  9 16  1  0  0  0  0
  9 17  2  0  0  0  0
 11 12  1  0  0  0  0
 11 23  1  0  0  0  0
 12 14  2  0  0  0  0
 12 21  1  0  0  0  0
 13 15  2  0  0  0  0
 13 24  1  0  0  0  0
 14 15  1  0  0  0  0
 14 25  1  0  0  0  0
 15 26  1  0  0  0  0
 16 18  2  0  0  0  0
 17 19  1  0  0  0  0
 17 27  1  0  0  0  0
 18 20  1  0  0  0  0
 18 28  1  0  0  0  0
 19 20  2  0  0  0  0
 19 29  1  0  0  0  0
 20 30  1  0  0  0  0
M  END
>  <DRUGBANK_ID>
DB05016

>  <COMMON_NAME>
Ataluren

>  <CAS_NUMBER>
775304-57-9

>  <UNII>
K16AME9I3V

>  <SYNONYMS>
3-[5-(2-fluorophenyl)-1,2,4-oxadiazol-3-yl]benzoic acid; Ataluren

$$$$
