763
 OpenBabel10282417113D

 13 13  0  0  0  0  0  0  0  0999 V2000
   -1.9087    0.3903   -0.0104 S   0  0  0  0  0  0  0  0  0  0  0  0
    0.5903   -0.8262    0.0151 N   0  0  0  0  0  0  0  0  0  0  0  0
    0.6132    1.4008   -0.0114 N   0  0  0  0  0  0  0  0  0  0  0  0
   -0.2593    0.3005    0.0001 C   0  0  0  0  0  0  0  0  0  0  0  0
    1.9002   -0.3885    0.0116 C   0  0  0  0  0  0  0  0  0  0  0  0
    0.1776   -2.2074   -0.0299 C   0  0  0  0  0  0  0  0  0  0  0  0
    1.9092    0.9522   -0.0044 C   0  0  0  0  0  0  0  0  0  0  0  0
    0.3100    2.3643   -0.0348 H   0  0  0  0  0  0  0  0  0  0  0  0
    2.7392   -1.0672    0.0161 H   0  0  0  0  0  0  0  0  0  0  0  0
   -0.4886   -2.4094    0.8138 H   0  0  0  0  0  0  0  0  0  0  0  0
   -0.3736   -2.3766   -0.9599 H   0  0  0  0  0  0  0  0  0  0  0  0
    1.0419   -2.8751    0.0134 H   0  0  0  0  0  0  0  0  0  0  0  0
    2.7504    1.6272   -0.0172 H   0  0  0  0  0  0  0  0  0  0  0  0
  1  4  2  0  0  0  0
  2  4  1  0  0  0  0
  2  5  1  0  0  0  0
  2  6  1  0  0  0  0
  3  4  1  0  0  0  0
  3  7  1  0  0  0  0
  3  8  1  0  0  0  0
  5  7  2  0  0  0  0
  5  9  1  0  0  0  0
  6 10  1  0  0  0  0
  6 11  1  0  0  0  0
  6 12  1  0  0  0  0
  7 13  1  0  0  0  0
M  END
>  <DRUGBANK_ID>
DB00763

>  <SECONDARY_ACCESSION_NUMBERS>
APRD00002

>  <COMMON_NAME>
Methimazole

>  <CAS_NUMBER>
60-56-0

>  <UNII>
554Z48XN5E

>  <SYNONYMS>
1-Methylimidazole-2(3H)-thione; Methimazole; Thiamazol; Thiamazole; Thiamazolum; Tiamazol

$$$$
