MR2
 OpenBabel10282417173D

 46 50  0  0  0  0  0  0  0  0999 V2000
    2.1250    1.2182   -0.0026 C   0  0  0  0  0  0  0  0  0  0  0  0
    0.6490    1.2097    0.0048 C   0  0  0  0  0  0  0  0  0  0  0  0
    0.0022    2.4481   -0.0080 C   0  0  0  0  0  0  0  0  0  0  0  0
   -1.3777    2.4978   -0.0040 C   0  0  0  0  0  0  0  0  0  0  0  0
   -2.1141    1.3152    0.0049 C   0  0  0  0  0  0  0  0  0  0  0  0
   -1.5143    0.0303    0.0316 C   0  0  0  0  0  0  0  0  0  0  0  0
   -2.2016   -1.2323    0.0371 C   0  0  0  0  0  0  0  0  0  0  0  0
   -1.4933   -2.4429    0.0787 C   0  0  0  0  0  0  0  0  0  0  0  0
   -0.1153   -2.4276    0.1430 C   0  0  0  0  0  0  0  0  0  0  0  0
    0.5889   -1.2077    0.0962 C   0  0  0  0  0  0  0  0  0  0  0  0
   -0.0888    0.0130    0.0459 C   0  0  0  0  0  0  0  0  0  0  0  0
    2.1079   -1.2546   -0.0212 C   0  0  0  0  0  0  0  0  0  0  0  0
    2.5354   -1.8218   -1.3967 C   0  0  0  0  0  0  0  0  0  0  0  0
    3.8937   -2.0171   -1.7043 C   0  0  0  0  0  0  0  0  0  0  0  0
    4.2719   -2.6270   -2.9002 C   0  0  0  0  0  0  0  0  0  0  0  0
    3.3185   -2.8395   -3.8878 C   0  0  0  0  0  0  0  0  0  0  0  0
    1.9984   -2.4958   -3.6827 C   0  0  0  0  0  0  0  0  0  0  0  0
    1.5996   -2.0979   -2.4165 C   0  0  0  0  0  0  0  0  0  0  0  0
    2.6784   -1.9482    1.2319 C   0  0  0  0  0  0  0  0  0  0  0  0
    2.4070   -1.4029    2.5080 C   0  0  0  0  0  0  0  0  0  0  0  0
    2.9596   -1.9591    3.6596 C   0  0  0  0  0  0  0  0  0  0  0  0
    3.9180   -2.9526    3.5260 C   0  0  0  0  0  0  0  0  0  0  0  0
    4.2454   -3.4605    2.2798 C   0  0  0  0  0  0  0  0  0  0  0  0
    3.5123   -3.0697    1.1668 C   0  0  0  0  0  0  0  0  0  0  0  0
   -3.6769   -1.3589    0.0017 N   0  3  0  0  0  0  0  0  0  0  0  0
    2.7558    0.0419    0.0126 O   0  0  0  0  0  0  0  0  0  0  0  0
    2.7557    2.2795    0.0007 O   0  0  0  0  0  0  0  0  0  0  0  0
    3.6303   -3.4123   -5.0810 O   0  0  0  0  0  0  0  0  0  0  0  0
    4.5524   -3.4849    4.6060 O   0  0  0  0  0  0  0  0  0  0  0  0
   -4.1489   -2.5056   -0.0117 O   0  5  0  0  0  0  0  0  0  0  0  0
   -4.3769   -0.3423   -0.0066 O   0  0  0  0  0  0  0  0  0  0  0  0
    0.5711    3.3767   -0.0162 H   0  0  0  0  0  0  0  0  0  0  0  0
   -1.8985    3.4516   -0.0097 H   0  0  0  0  0  0  0  0  0  0  0  0
   -3.1906    1.4472   -0.0044 H   0  0  0  0  0  0  0  0  0  0  0  0
   -1.9924   -3.4099    0.0397 H   0  0  0  0  0  0  0  0  0  0  0  0
    0.4271   -3.3749    0.1338 H   0  0  0  0  0  0  0  0  0  0  0  0
    4.6628   -1.7385   -0.9836 H   0  0  0  0  0  0  0  0  0  0  0  0
    5.3089   -2.9096   -3.0430 H   0  0  0  0  0  0  0  0  0  0  0  0
    1.2675   -2.5637   -4.4820 H   0  0  0  0  0  0  0  0  0  0  0  0
    0.5275   -2.0185   -2.2692 H   0  0  0  0  0  0  0  0  0  0  0  0
    1.7613   -0.5320    2.6104 H   0  0  0  0  0  0  0  0  0  0  0  0
    2.6677   -1.5746    4.6310 H   0  0  0  0  0  0  0  0  0  0  0  0
    5.0654   -4.1623    2.1667 H   0  0  0  0  0  0  0  0  0  0  0  0
    3.6485   -3.6285    0.2463 H   0  0  0  0  0  0  0  0  0  0  0  0
    4.5367   -3.7529   -5.0245 H   0  0  0  0  0  0  0  0  0  0  0  0
    4.1056   -3.1698    5.4080 H   0  0  0  0  0  0  0  0  0  0  0  0
  1  2  1  0  0  0  0
  1 26  1  0  0  0  0
  1 27  2  0  0  0  0
  2  3  2  0  0  0  0
  2 11  1  0  0  0  0
  3  4  1  0  0  0  0
  3 32  1  0  0  0  0
  4  5  2  0  0  0  0
  4 33  1  0  0  0  0
  5  6  1  0  0  0  0
  5 34  1  0  0  0  0
  6  7  2  0  0  0  0
  6 11  1  0  0  0  0
  7  8  1  0  0  0  0
  7 25  1  0  0  0  0
  8  9  2  0  0  0  0
  8 35  1  0  0  0  0
  9 10  1  0  0  0  0
  9 36  1  0  0  0  0
 10 11  2  0  0  0  0
 10 12  1  0  0  0  0
 12 13  1  0  0  0  0
 12 19  1  0  0  0  0
 12 26  1  0  0  0  0
 13 14  2  0  0  0  0
 13 18  1  0  0  0  0
 14 15  1  0  0  0  0
 14 37  1  0  0  0  0
 15 16  2  0  0  0  0
 15 38  1  0  0  0  0
 16 17  1  0  0  0  0
 16 28  1  0  0  0  0
 17 18  2  0  0  0  0
 17 39  1  0  0  0  0
 18 40  1  0  0  0  0
 19 20  2  0  0  0  0
 19 24  1  0  0  0  0
 20 21  1  0  0  0  0
 20 41  1  0  0  0  0
 21 22  2  0  0  0  0
 21 42  1  0  0  0  0
 22 23  1  0  0  0  0
 22 29  1  0  0  0  0
 23 24  2  0  0  0  0
 23 43  1  0  0  0  0
 24 44  1  0  0  0  0
 25 30  1  0  0  0  0
 25 31  2  0  0  0  0
 28 45  1  0  0  0  0
 29 46  1  0  0  0  0
M  CHG  2  25   1  30  -1
M  END
>  <DRUGBANK_ID>
DB08204

>  <COMMON_NAME>
3-DIPHENOL-6-NITRO-3H-BENZO[DE]ISOCHROMEN-1-ONE

$$$$
