
 OpenBabel10282417213D

113112  0  0  0  0  0  0  0  0999 V2000
    1.0142   -0.0167    0.0453 C   0  0  0  0  0  0  0  0  0  0  0  0
    0.5344   -1.4095   -0.3345 C   0  0  0  0  0  0  0  0  0  0  0  0
    1.0415   -2.4749    0.6359 C   0  0  0  0  0  0  0  0  0  0  0  0
    1.0845    1.8331    1.7857 C   0  0  0  0  0  0  0  0  0  0  0  0
    0.5620    0.4767    1.4172 C   0  0  0  0  0  0  0  0  0  0  0  0
   -0.9390    2.8263    0.6804 C   0  0  0  0  0  0  0  0  0  0  0  0
    0.5771    2.8540    0.7974 C   0  0  0  0  0  0  0  0  0  0  0  0
   -1.6025    3.1104    2.0027 C   0  0  2  0  0  0  0  0  0  0  0  0
   -3.1529    3.0046    1.7162 C   0  0  2  0  0  0  0  0  0  0  0  0
   -4.0552    3.9294    2.4519 C   0  0  0  0  0  0  0  0  0  0  0  0
   -1.1070    4.3563    2.5093 O   0  0  0  0  0  0  0  0  0  0  0  0
   -3.6568    1.5652    1.8435 N   0  0  0  0  0  0  0  0  0  0  0  0
   -3.5866    5.2465    2.7142 O   0  0  0  0  0  0  0  0  0  0  0  0
    0.4887   -2.3497    2.0551 C   0  0  0  0  0  0  0  0  0  0  0  0
   -1.0396   -2.2164    2.0407 C   0  0  0  0  0  0  0  0  0  0  0  0
   -1.5962   -3.5644    1.6138 C   0  0  0  0  0  0  0  0  0  0  0  0
   -1.1061   -4.6278    2.5994 C   0  0  0  0  0  0  0  0  0  0  0  0
   -1.5781   -4.2780    4.0169 C   0  0  0  0  0  0  0  0  0  0  0  0
   -3.1078   -4.2745    4.0656 C   0  0  0  0  0  0  0  0  0  0  0  0
   -3.6615   -5.6317    3.6306 C   0  0  0  0  0  0  0  0  0  0  0  0
   -3.1479   -6.7252    4.5532 C   0  0  0  0  0  0  0  0  0  0  0  0
   -4.3442    0.7793    2.7801 C   0  0  0  0  0  0  0  0  0  0  0  0
   -4.7358   -0.2859    2.3836 O   0  0  0  0  0  0  0  0  0  0  0  0
   -4.7084    1.1989    4.2695 C   0  0  0  0  0  0  0  0  0  0  0  0
   -3.5881    1.3664    5.3264 C   0  0  0  0  0  0  0  0  0  0  0  0
   -2.6518    2.4491    4.9713 C   0  0  0  0  0  0  0  0  0  0  0  0
   -3.3195    3.7994    4.9431 C   0  0  0  0  0  0  0  0  0  0  0  0
   -3.6725    4.6140    6.0997 C   0  0  0  0  0  0  0  0  0  0  0  0
   -2.3304    4.9443    6.6366 C   0  0  0  0  0  0  0  0  0  0  0  0
   -1.5518    5.9105    5.7009 C   0  0  0  0  0  0  0  0  0  0  0  0
   -2.3742    7.1738    5.4101 C   0  0  0  0  0  0  0  0  0  0  0  0
   -2.7709    7.7665    6.7591 C   0  0  0  0  0  0  0  0  0  0  0  0
   -1.4914    8.0153    7.5666 C   0  0  0  0  0  0  0  0  0  0  0  0
   -0.5992    8.9900    6.7916 C   0  0  0  0  0  0  0  0  0  0  0  0
   -1.3614   10.3014    6.5976 C   0  0  0  0  0  0  0  0  0  0  0  0
   -1.7413   10.8661    7.9692 C   0  0  0  0  0  0  0  0  0  0  0  0
   -0.4735   11.1185    8.7929 C   0  0  0  0  0  0  0  0  0  0  0  0
    0.4261   12.1384    8.0870 C   0  0  0  0  0  0  0  0  0  0  0  0
   -0.3080   13.4631    7.8774 C   0  0  0  0  0  0  0  0  0  0  0  0
   -0.7291   14.0466    9.2161 C   0  0  0  0  0  0  0  0  0  0  0  0
    0.6534    0.6570   -0.7370 H   0  0  0  0  0  0  0  0  0  0  0  0
    2.1076    0.0017    0.0163 H   0  0  0  0  0  0  0  0  0  0  0  0
   -0.5584   -1.4195   -0.4334 H   0  0  0  0  0  0  0  0  0  0  0  0
    0.8971   -1.6449   -1.3422 H   0  0  0  0  0  0  0  0  0  0  0  0
    0.7712   -3.4589    0.2352 H   0  0  0  0  0  0  0  0  0  0  0  0
    2.1339   -2.4577    0.6674 H   0  0  0  0  0  0  0  0  0  0  0  0
    0.7851    2.0343    2.8259 H   0  0  0  0  0  0  0  0  0  0  0  0
    2.1775    1.7997    1.8102 H   0  0  0  0  0  0  0  0  0  0  0  0
   -0.5225    0.3878    1.5418 H   0  0  0  0  0  0  0  0  0  0  0  0
    1.0200   -0.0583    2.2188 H   0  0  0  0  0  0  0  0  0  0  0  0
   -1.2668    3.5754   -0.0393 H   0  0  0  0  0  0  0  0  0  0  0  0
   -1.3133    1.8575    0.3240 H   0  0  0  0  0  0  0  0  0  0  0  0
    0.9426    3.8348    1.0993 H   0  0  0  0  0  0  0  0  0  0  0  0
    0.9914    2.6565   -0.1909 H   0  0  0  0  0  0  0  0  0  0  0  0
   -1.2424    2.3466    2.6931 H   0  0  0  0  0  0  0  0  0  0  0  0
   -3.3316    3.3470    0.7014 H   0  0  0  0  0  0  0  0  0  0  0  0
   -5.1489    3.9333    2.4508 H   0  0  0  0  0  0  0  0  0  0  0  0
   -4.0477    3.2118    3.2285 H   0  0  0  0  0  0  0  0  0  0  0  0
   -0.1588    4.2444    2.7379 H   0  0  0  0  0  0  0  0  0  0  0  0
   -3.5443    1.0373    0.9844 H   0  0  0  0  0  0  0  0  0  0  0  0
   -2.6635    5.2740    3.0597 H   0  0  0  0  0  0  0  0  0  0  0  0
    0.8550   -3.1793    2.6536 H   0  0  0  0  0  0  0  0  0  0  0  0
    0.9585   -1.6042    2.6738 H   0  0  0  0  0  0  0  0  0  0  0  0
   -1.4074   -1.8812    3.0168 H   0  0  0  0  0  0  0  0  0  0  0  0
   -1.4373   -1.4522    1.3684 H   0  0  0  0  0  0  0  0  0  0  0  0
   -2.6866   -3.5171    1.5495 H   0  0  0  0  0  0  0  0  0  0  0  0
   -1.2781   -3.8126    0.5968 H   0  0  0  0  0  0  0  0  0  0  0  0
   -1.4261   -5.6138    2.2658 H   0  0  0  0  0  0  0  0  0  0  0  0
   -0.0205   -4.7449    2.5965 H   0  0  0  0  0  0  0  0  0  0  0  0
   -1.1454   -4.9805    4.7322 H   0  0  0  0  0  0  0  0  0  0  0  0
   -1.1974   -3.3102    4.3636 H   0  0  0  0  0  0  0  0  0  0  0  0
   -3.4454   -4.0235    5.0747 H   0  0  0  0  0  0  0  0  0  0  0  0
   -3.5196   -3.4868    3.4219 H   0  0  0  0  0  0  0  0  0  0  0  0
   -4.7531   -5.6037    3.6340 H   0  0  0  0  0  0  0  0  0  0  0  0
   -3.3839   -5.8637    2.5952 H   0  0  0  0  0  0  0  0  0  0  0  0
   -3.4561   -6.5128    5.5807 H   0  0  0  0  0  0  0  0  0  0  0  0
   -3.5303   -7.6992    4.2495 H   0  0  0  0  0  0  0  0  0  0  0  0
   -2.0553   -6.8011    4.5406 H   0  0  0  0  0  0  0  0  0  0  0  0
   -5.4008    2.0495    4.2524 H   0  0  0  0  0  0  0  0  0  0  0  0
   -5.3373    0.3907    4.6717 H   0  0  0  0  0  0  0  0  0  0  0  0
   -3.9774    1.6259    6.3135 H   0  0  0  0  0  0  0  0  0  0  0  0
   -2.9908    0.4546    5.3912 H   0  0  0  0  0  0  0  0  0  0  0  0
   -1.6689    2.5244    5.4473 H   0  0  0  0  0  0  0  0  0  0  0  0
   -2.3391    2.1031    4.0030 H   0  0  0  0  0  0  0  0  0  0  0  0
   -2.5525    4.2423    4.3398 H   0  0  0  0  0  0  0  0  0  0  0  0
   -4.3216    3.9572    4.5483 H   0  0  0  0  0  0  0  0  0  0  0  0
   -4.2576    5.5002    5.7796 H   0  0  0  0  0  0  0  0  0  0  0  0
   -4.3744    4.0237    6.6863 H   0  0  0  0  0  0  0  0  0  0  0  0
   -2.5011    5.3262    7.6339 H   0  0  0  0  0  0  0  0  0  0  0  0
   -1.7538    4.0306    6.7564 H   0  0  0  0  0  0  0  0  0  0  0  0
   -0.6070    6.1140    6.2052 H   0  0  0  0  0  0  0  0  0  0  0  0
   -1.1830    5.5048    4.7544 H   0  0  0  0  0  0  0  0  0  0  0  0
   -1.7973    7.8713    4.7915 H   0  0  0  0  0  0  0  0  0  0  0  0
   -3.2670    6.9958    4.8028 H   0  0  0  0  0  0  0  0  0  0  0  0
   -3.3779    8.6633    6.6191 H   0  0  0  0  0  0  0  0  0  0  0  0
   -3.4403    7.1043    7.3136 H   0  0  0  0  0  0  0  0  0  0  0  0
   -1.7473    8.3565    8.5701 H   0  0  0  0  0  0  0  0  0  0  0  0
   -0.9304    7.1033    7.7850 H   0  0  0  0  0  0  0  0  0  0  0  0
    0.3485    9.1219    7.3182 H   0  0  0  0  0  0  0  0  0  0  0  0
   -0.2792    8.6011    5.8198 H   0  0  0  0  0  0  0  0  0  0  0  0
   -0.7607   10.9973    6.0081 H   0  0  0  0  0  0  0  0  0  0  0  0
   -2.2613   10.1723    5.9879 H   0  0  0  0  0  0  0  0  0  0  0  0
   -2.3463   11.7662    7.8439 H   0  0  0  0  0  0  0  0  0  0  0  0
   -2.4103   10.1979    8.5211 H   0  0  0  0  0  0  0  0  0  0  0  0
   -0.7458   11.4439    9.7991 H   0  0  0  0  0  0  0  0  0  0  0  0
    0.0889   10.1958    8.9721 H   0  0  0  0  0  0  0  0  0  0  0  0
    1.3374   12.2918    8.6716 H   0  0  0  0  0  0  0  0  0  0  0  0
    0.7711   11.7554    7.1184 H   0  0  0  0  0  0  0  0  0  0  0  0
    0.3385   14.1620    7.3408 H   0  0  0  0  0  0  0  0  0  0  0  0
   -1.1896   13.3334    7.2381 H   0  0  0  0  0  0  0  0  0  0  0  0
    0.1536   14.2089    9.8413 H   0  0  0  0  0  0  0  0  0  0  0  0
   -1.2574   14.9899    9.0788 H   0  0  0  0  0  0  0  0  0  0  0  0
   -1.4086   13.3831    9.7612 H   0  0  0  0  0  0  0  0  0  0  0  0
  1  5  1  0  0  0  0
  1 41  1  0  0  0  0
  1 42  1  0  0  0  0
  2  1  1  0  0  0  0
  2 43  1  0  0  0  0
  2 44  1  0  0  0  0
  3  2  1  0  0  0  0
  3 14  1  0  0  0  0
  3 45  1  0  0  0  0
  3 46  1  0  0  0  0
  4  7  1  0  0  0  0
  4 47  1  0  0  0  0
  4 48  1  0  0  0  0
  5  4  1  0  0  0  0
  5 49  1  0  0  0  0
  5 50  1  0  0  0  0
  6 51  1  0  0  0  0
  6 52  1  0  0  0  0
  7  6  1  0  0  0  0
  7 53  1  0  0  0  0
  7 54  1  0  0  0  0
  8  6  1  0  0  0  0
  8 11  1  0  0  0  0
  8  9  1  0  0  0  0
  8 55  1  1  0  0  0
  9 12  1  0  0  0  0
  9 10  1  0  0  0  0
  9 56  1  6  0  0  0
 10 13  1  0  0  0  0
 10 57  1  0  0  0  0
 10 58  1  0  0  0  0
 11 59  1  0  0  0  0
 12 22  1  0  0  0  0
 12 60  1  0  0  0  0
 13 61  1  0  0  0  0
 14 15  1  0  0  0  0
 14 62  1  0  0  0  0
 14 63  1  0  0  0  0
 15 16  1  0  0  0  0
 15 64  1  0  0  0  0
 15 65  1  0  0  0  0
 16 17  1  0  0  0  0
 16 66  1  0  0  0  0
 16 67  1  0  0  0  0
 17 18  1  0  0  0  0
 17 68  1  0  0  0  0
 17 69  1  0  0  0  0
 18 19  1  0  0  0  0
 18 70  1  0  0  0  0
 18 71  1  0  0  0  0
 19 20  1  0  0  0  0
 19 72  1  0  0  0  0
 19 73  1  0  0  0  0
 20 21  1  0  0  0  0
 20 74  1  0  0  0  0
 20 75  1  0  0  0  0
 21 76  1  0  0  0  0
 21 77  1  0  0  0  0
 21 78  1  0  0  0  0
 22 23  2  0  0  0  0
 22 24  1  0  0  0  0
 24 25  1  0  0  0  0
 24 79  1  0  0  0  0
 24 80  1  0  0  0  0
 25 26  1  0  0  0  0
 25 81  1  0  0  0  0
 25 82  1  0  0  0  0
 26 27  1  0  0  0  0
 26 83  1  0  0  0  0
 26 84  1  0  0  0  0
 27 28  1  0  0  0  0
 27 85  1  0  0  0  0
 27 86  1  0  0  0  0
 28 29  1  0  0  0  0
 28 87  1  0  0  0  0
 28 88  1  0  0  0  0
 29 30  1  0  0  0  0
 29 89  1  0  0  0  0
 29 90  1  0  0  0  0
 30 31  1  0  0  0  0
 30 91  1  0  0  0  0
 30 92  1  0  0  0  0
 31 32  1  0  0  0  0
 31 93  1  0  0  0  0
 31 94  1  0  0  0  0
 32 33  1  0  0  0  0
 32 95  1  0  0  0  0
 32 96  1  0  0  0  0
 33 34  1  0  0  0  0
 33 97  1  0  0  0  0
 33 98  1  0  0  0  0
 34 35  1  0  0  0  0
 34 99  1  0  0  0  0
 34100  1  0  0  0  0
 35 36  1  0  0  0  0
 35101  1  0  0  0  0
 35102  1  0  0  0  0
 36 37  1  0  0  0  0
 36103  1  0  0  0  0
 36104  1  0  0  0  0
 37 38  1  0  0  0  0
 37105  1  0  0  0  0
 37106  1  0  0  0  0
 38 39  1  0  0  0  0
 38107  1  0  0  0  0
 38108  1  0  0  0  0
 39 40  1  0  0  0  0
 39109  1  0  0  0  0
 39110  1  0  0  0  0
 40111  1  0  0  0  0
 40112  1  0  0  0  0
 40113  1  0  0  0  0
M  END
>  <DRUGBANK_ID>
DB14706

>  <COMMON_NAME>
Ceramide NG

>  <CAS_NUMBER>
2304-80-5

>  <UNII>
8AD8CNQ956

>  <SYNONYMS>
1-stearoyl-C18-sphingosine; Ceramide 2; Ceramide 2 pure; Ceramide II; Ceramide NS; N-(octadecanoyl)-dihydroceramide; N-(octadecanoyl)-sphinganine; N-(octodecanoyl)-sphinganine; N-(stearoyl)-dihydroceramide; N-octodecanoyldihydroceramide; N-octodecanoyldihydrosphingosine; N-octodecanoylsphinganine; N-stearoyldihydroceramide; N-stearoyldihydrosphingosine; N-stearoylsphinganine; palmitoyl-c16-dihydrosphingosine

$$$$
