
 OpenBabel10282417223D

108112  0  0  0  0  0  0  0  0999 V2000
    0.9830   -0.1764    0.4108 S   0  0  0  0  0  0  0  0  0  0  0  0
   12.2123    1.7179    5.6269 S   0  0  0  0  0  0  0  0  0  0  0  0
    1.0017    1.1132   -1.9297 Na  0  3  0  0  0  0  0  0  0  0  0  0
    0.6780   -0.8234   -0.8612 O   0  5  0  0  0  0  0  0  0  0  0  0
    0.6953   -0.8987    1.6431 O   0  0  0  0  0  0  0  0  0  0  0  0
    0.6077    1.2294    0.3239 O   0  0  0  0  0  0  0  0  0  0  0  0
   10.8107    1.6345    5.2260 O   0  5  0  0  0  0  0  0  0  0  0  0
   12.4911    1.9746    7.0291 O   0  0  0  0  0  0  0  0  0  0  0  0
   13.0755    2.4314    4.6875 O   0  0  0  0  0  0  0  0  0  0  0  0
   16.7302    5.8338   -7.8118 O   0  0  0  0  0  0  0  0  0  0  0  0
    6.4275    2.6752    1.2794 N   0  0  0  0  0  0  0  0  0  0  0  0
   15.4399   -0.7881    2.1173 N   0  3  0  0  0  0  0  0  0  0  0  0
   14.1002    7.1045   -3.0787 N   0  0  0  0  0  0  0  0  0  0  0  0
   12.1484    3.2033    0.5356 C   0  0  0  0  0  0  0  0  0  0  0  0
   10.6243    3.0479    0.6989 C   0  0  0  0  0  0  0  0  0  0  0  0
   13.1147    2.4923    1.1842 C   0  0  0  0  0  0  0  0  0  0  0  0
    7.7808    2.8218    1.1194 C   0  0  0  0  0  0  0  0  0  0  0  0
   14.7048    0.2406    1.8184 C   0  0  0  0  0  0  0  0  0  0  0  0
    9.7091    3.8035   -0.0642 C   0  0  0  0  0  0  0  0  0  0  0  0
   14.5724    2.6199    1.0917 C   0  0  0  0  0  0  0  0  0  0  0  0
    8.3263    3.6855    0.1782 C   0  0  0  0  0  0  0  0  0  0  0  0
   12.7016    4.1968   -0.4022 C   0  0  0  0  0  0  0  0  0  0  0  0
   15.3208    1.5609    1.4344 C   0  0  0  0  0  0  0  0  0  0  0  0
    5.5947    2.5186    0.1000 C   0  0  0  0  0  0  0  0  0  0  0  0
   14.9217   -1.9689    2.9231 C   0  0  0  0  0  0  0  0  0  0  0  0
   10.0094    2.1621    1.6159 C   0  0  0  0  0  0  0  0  0  0  0  0
   12.6956    1.4250    2.0273 C   0  0  0  0  0  0  0  0  0  0  0  0
    8.6520    2.0716    1.8572 C   0  0  0  0  0  0  0  0  0  0  0  0
   13.2241    0.2140    1.9762 C   0  0  0  0  0  0  0  0  0  0  0  0
    5.8830    2.5893    2.6299 C   0  0  0  0  0  0  0  0  0  0  0  0
   16.8562   -0.8791    1.6244 C   0  0  0  0  0  0  0  0  0  0  0  0
    4.8524    1.1991    0.1200 C   0  0  0  0  0  0  0  0  0  0  0  0
   10.0032    4.7776   -1.1662 C   0  0  0  0  0  0  0  0  0  0  0  0
   15.2945    3.8506    0.6456 C   0  0  0  0  0  0  0  0  0  0  0  0
   14.0890   -1.6501    4.1685 C   0  0  0  0  0  0  0  0  0  0  0  0
   12.5473    5.5649   -0.0950 C   0  0  0  0  0  0  0  0  0  0  0  0
   13.3563    3.7990   -1.5766 C   0  0  0  0  0  0  0  0  0  0  0  0
    4.9145    3.7357    2.8373 C   0  0  0  0  0  0  0  0  0  0  0  0
   16.8864   -0.6670    0.1100 C   0  0  0  0  0  0  0  0  0  0  0  0
    3.4517    1.1531    0.2159 C   0  0  0  0  0  0  0  0  0  0  0  0
   12.9492    6.5296   -1.0142 C   0  0  0  0  0  0  0  0  0  0  0  0
   13.9076    4.7800   -2.3804 C   0  0  0  0  0  0  0  0  0  0  0  0
   13.8664   -0.3346    4.6443 C   0  0  0  0  0  0  0  0  0  0  0  0
   13.6170    6.1413   -2.1792 C   0  0  0  0  0  0  0  0  0  0  0  0
    5.5704   -0.0076    0.0963 C   0  0  0  0  0  0  0  0  0  0  0  0
   13.3780   -2.6826    4.7948 C   0  0  0  0  0  0  0  0  0  0  0  0
    2.7948   -0.0872    0.3036 C   0  0  0  0  0  0  0  0  0  0  0  0
   12.7650   -0.0289    5.4498 C   0  0  0  0  0  0  0  0  0  0  0  0
    4.9026   -1.2341    0.1081 C   0  0  0  0  0  0  0  0  0  0  0  0
   12.4019   -2.3818    5.7589 C   0  0  0  0  0  0  0  0  0  0  0  0
    3.5108   -1.2773    0.1851 C   0  0  0  0  0  0  0  0  0  0  0  0
   12.0363   -1.0564    6.0282 C   0  0  0  0  0  0  0  0  0  0  0  0
   14.6667    6.8340   -4.3342 C   0  0  0  0  0  0  0  0  0  0  0  0
   14.0676    5.9687   -5.2531 C   0  0  0  0  0  0  0  0  0  0  0  0
   15.8739    7.4415   -4.6695 C   0  0  0  0  0  0  0  0  0  0  0  0
   14.6968    5.6734   -6.4576 C   0  0  0  0  0  0  0  0  0  0  0  0
   16.5019    7.1470   -5.8823 C   0  0  0  0  0  0  0  0  0  0  0  0
   15.9492    6.2051   -6.7516 C   0  0  0  0  0  0  0  0  0  0  0  0
   16.2600    4.7697   -8.6484 C   0  0  0  0  0  0  0  0  0  0  0  0
   16.1688    3.4142   -7.9462 C   0  0  0  0  0  0  0  0  0  0  0  0
   13.6794    8.0253   -3.0071 H   0  0  0  0  0  0  0  0  0  0  0  0
    7.6599    4.3205   -0.3971 H   0  0  0  0  0  0  0  0  0  0  0  0
   16.3968    1.6875    1.4253 H   0  0  0  0  0  0  0  0  0  0  0  0
    6.1821    2.5497   -0.8294 H   0  0  0  0  0  0  0  0  0  0  0  0
    4.9074    3.3672    0.0367 H   0  0  0  0  0  0  0  0  0  0  0  0
   15.7790   -2.5724    3.2352 H   0  0  0  0  0  0  0  0  0  0  0  0
   14.3402   -2.5606    2.1995 H   0  0  0  0  0  0  0  0  0  0  0  0
   10.4737    1.4195    2.2335 H   0  0  0  0  0  0  0  0  0  0  0  0
   12.0206    1.6512    2.8352 H   0  0  0  0  0  0  0  0  0  0  0  0
    8.3180    1.3595    2.6100 H   0  0  0  0  0  0  0  0  0  0  0  0
   12.6992   -0.5455    2.5377 H   0  0  0  0  0  0  0  0  0  0  0  0
    5.3970    1.6220    2.7906 H   0  0  0  0  0  0  0  0  0  0  0  0
    6.6606    2.6740    3.4020 H   0  0  0  0  0  0  0  0  0  0  0  0
   17.4559   -0.1466    2.1752 H   0  0  0  0  0  0  0  0  0  0  0  0
   17.2436   -1.8766    1.8503 H   0  0  0  0  0  0  0  0  0  0  0  0
    9.4329    4.5376   -2.0612 H   0  0  0  0  0  0  0  0  0  0  0  0
    9.8320    5.8052   -0.8261 H   0  0  0  0  0  0  0  0  0  0  0  0
   10.9840    4.7151   -1.5885 H   0  0  0  0  0  0  0  0  0  0  0  0
   16.0797    4.1539    1.3325 H   0  0  0  0  0  0  0  0  0  0  0  0
   15.7151    3.6621   -0.3503 H   0  0  0  0  0  0  0  0  0  0  0  0
   14.6738    4.7332    0.6092 H   0  0  0  0  0  0  0  0  0  0  0  0
   12.0149    5.8468    0.8118 H   0  0  0  0  0  0  0  0  0  0  0  0
   13.5110    2.7522   -1.8249 H   0  0  0  0  0  0  0  0  0  0  0  0
    4.0908    3.6864    2.1206 H   0  0  0  0  0  0  0  0  0  0  0  0
    4.4954    3.7023    3.8439 H   0  0  0  0  0  0  0  0  0  0  0  0
    5.4247    4.6954    2.6961 H   0  0  0  0  0  0  0  0  0  0  0  0
   16.5073    0.3061   -0.2130 H   0  0  0  0  0  0  0  0  0  0  0  0
   17.9093   -0.7212   -0.2653 H   0  0  0  0  0  0  0  0  0  0  0  0
   16.2642   -1.4087   -0.4000 H   0  0  0  0  0  0  0  0  0  0  0  0
    2.8915    2.0844    0.2481 H   0  0  0  0  0  0  0  0  0  0  0  0
   12.7109    7.5687   -0.8110 H   0  0  0  0  0  0  0  0  0  0  0  0
   14.5760    4.4723   -3.1789 H   0  0  0  0  0  0  0  0  0  0  0  0
   14.4170    0.5223    4.2697 H   0  0  0  0  0  0  0  0  0  0  0  0
    6.6608    0.0105    0.0995 H   0  0  0  0  0  0  0  0  0  0  0  0
   13.5557   -3.7268    4.5379 H   0  0  0  0  0  0  0  0  0  0  0  0
    5.4744   -2.1575    0.0847 H   0  0  0  0  0  0  0  0  0  0  0  0
   11.9004   -3.1870    6.2896 H   0  0  0  0  0  0  0  0  0  0  0  0
    2.9851   -2.2289    0.1652 H   0  0  0  0  0  0  0  0  0  0  0  0
   11.2214   -0.8143    6.7057 H   0  0  0  0  0  0  0  0  0  0  0  0
   13.1351    5.4597   -5.0194 H   0  0  0  0  0  0  0  0  0  0  0  0
   16.3652    8.0825   -3.9424 H   0  0  0  0  0  0  0  0  0  0  0  0
   14.1892    4.9867   -7.1236 H   0  0  0  0  0  0  0  0  0  0  0  0
   17.4367    7.6411   -6.1297 H   0  0  0  0  0  0  0  0  0  0  0  0
   15.3157    5.0590   -9.1240 H   0  0  0  0  0  0  0  0  0  0  0  0
   16.9901    4.6695   -9.4610 H   0  0  0  0  0  0  0  0  0  0  0  0
   15.4833    3.4037   -7.0966 H   0  0  0  0  0  0  0  0  0  0  0  0
   15.8115    2.6481   -8.6394 H   0  0  0  0  0  0  0  0  0  0  0  0
   17.1386    3.1230   -7.5359 H   0  0  0  0  0  0  0  0  0  0  0  0
  1  4  1  0  0  0  0
  1  5  2  0  0  0  0
  1  6  2  0  0  0  0
  1 47  1  0  0  0  0
  2  7  1  0  0  0  0
  2  8  2  0  0  0  0
  2  9  2  0  0  0  0
  2 48  1  0  0  0  0
 10 58  1  0  0  0  0
 10 59  1  0  0  0  0
 11 17  1  0  0  0  0
 11 24  1  0  0  0  0
 11 30  1  0  0  0  0
 12 18  2  0  0  0  0
 12 25  1  0  0  0  0
 12 31  1  0  0  0  0
 13 44  1  0  0  0  0
 13 53  1  0  0  0  0
 13 61  1  0  0  0  0
 14 15  1  0  0  0  0
 14 16  2  0  0  0  0
 14 22  1  0  0  0  0
 15 19  2  0  0  0  0
 15 26  1  0  0  0  0
 16 20  1  0  0  0  0
 16 27  1  0  0  0  0
 17 21  2  0  0  0  0
 17 28  1  0  0  0  0
 18 23  1  0  0  0  0
 18 29  1  0  0  0  0
 19 21  1  0  0  0  0
 19 33  1  0  0  0  0
 20 23  2  0  0  0  0
 20 34  1  0  0  0  0
 21 62  1  0  0  0  0
 22 36  2  0  0  0  0
 22 37  1  0  0  0  0
 23 63  1  0  0  0  0
 24 32  1  0  0  0  0
 24 64  1  0  0  0  0
 24 65  1  0  0  0  0
 25 35  1  0  0  0  0
 25 66  1  0  0  0  0
 25 67  1  0  0  0  0
 26 28  2  0  0  0  0
 26 68  1  0  0  0  0
 27 29  2  0  0  0  0
 27 69  1  0  0  0  0
 28 70  1  0  0  0  0
 29 71  1  0  0  0  0
 30 38  1  0  0  0  0
 30 72  1  0  0  0  0
 30 73  1  0  0  0  0
 31 39  1  0  0  0  0
 31 74  1  0  0  0  0
 31 75  1  0  0  0  0
 32 40  2  0  0  0  0
 32 45  1  0  0  0  0
 33 76  1  0  0  0  0
 33 77  1  0  0  0  0
 33 78  1  0  0  0  0
 34 79  1  0  0  0  0
 34 80  1  0  0  0  0
 34 81  1  0  0  0  0
 35 43  2  0  0  0  0
 35 46  1  0  0  0  0
 36 41  1  0  0  0  0
 36 82  1  0  0  0  0
 37 42  2  0  0  0  0
 37 83  1  0  0  0  0
 38 84  1  0  0  0  0
 38 85  1  0  0  0  0
 38 86  1  0  0  0  0
 39 87  1  0  0  0  0
 39 88  1  0  0  0  0
 39 89  1  0  0  0  0
 40 47  1  0  0  0  0
 40 90  1  0  0  0  0
 41 44  2  0  0  0  0
 41 91  1  0  0  0  0
 42 44  1  0  0  0  0
 42 92  1  0  0  0  0
 43 48  1  0  0  0  0
 43 93  1  0  0  0  0
 45 49  2  0  0  0  0
 45 94  1  0  0  0  0
 46 50  2  0  0  0  0
 46 95  1  0  0  0  0
 47 51  2  0  0  0  0
 48 52  2  0  0  0  0
 49 51  1  0  0  0  0
 49 96  1  0  0  0  0
 50 52  1  0  0  0  0
 50 97  1  0  0  0  0
 51 98  1  0  0  0  0
 52 99  1  0  0  0  0
 53 54  2  0  0  0  0
 53 55  1  0  0  0  0
 54 56  1  0  0  0  0
 54100  1  0  0  0  0
 55 57  2  0  0  0  0
 55101  1  0  0  0  0
 56 58  2  0  0  0  0
 56102  1  0  0  0  0
 57 58  1  0  0  0  0
 57103  1  0  0  0  0
 59 60  1  0  0  0  0
 59104  1  0  0  0  0
 59105  1  0  0  0  0
 60106  1  0  0  0  0
 60107  1  0  0  0  0
 60108  1  0  0  0  0
M  CHG  4   3   1   4  -1   7  -1  12   1
M  END
>  <DRUGBANK_ID>
DB15594

>  <COMMON_NAME>
Brilliant blue G

>  <CAS_NUMBER>
6104-58-1

>  <UNII>
M1ZRX790SI

>  <SYNONYMS>
Acid Blue 90; Brilliant blue G; C.I. Acid Blue 90; Coomassie Brilliant Blue G

$$$$
