582
 OpenBabel10282417103D

 39 41  0  0  1  0  0  0  0  0999 V2000
    2.1041    1.0692    0.4741 F   0  0  0  0  0  0  0  0  0  0  0  0
    2.4922   -5.6502    1.2219 F   0  0  0  0  0  0  0  0  0  0  0  0
   -2.5059    0.9420   -0.0029 F   0  0  0  0  0  0  0  0  0  0  0  0
    2.5797   -2.7994   -1.0296 O   0  0  0  0  0  0  0  0  0  0  0  0
    3.8179   -0.1215   -1.3035 N   0  0  0  0  0  0  0  0  0  0  0  0
    0.2091   -2.9807    2.0571 N   0  0  0  0  0  0  0  0  0  0  0  0
    4.0903    1.2021   -1.2419 N   0  0  0  0  0  0  0  0  0  0  0  0
    3.4606    0.5868   -3.3431 N   0  0  0  0  0  0  0  0  0  0  0  0
   -1.0083   -5.0229    1.8772 N   0  0  0  0  0  0  0  0  0  0  0  0
    2.4695   -1.8358    0.0515 C   0  0  1  0  0  0  0  0  0  0  0  0
    2.5679   -2.7195    1.3868 C   0  0  1  0  0  0  0  0  0  0  0  0
    3.7527   -0.9291   -0.0913 C   0  0  0  0  0  0  0  0  0  0  0  0
    1.1468   -1.0499   -0.0898 C   0  0  0  0  0  0  0  0  0  0  0  0
    2.8541   -1.8801    2.6324 C   0  0  0  0  0  0  0  0  0  0  0  0
    1.3527   -3.6070    1.6845 C   0  0  0  0  0  0  0  0  0  0  0  0
    1.0432    0.3369    0.1163 C   0  0  0  0  0  0  0  0  0  0  0  0
   -0.0676   -1.7155   -0.3597 C   0  0  0  0  0  0  0  0  0  0  0  0
    1.3744   -4.9801    1.5165 C   0  0  0  0  0  0  0  0  0  0  0  0
   -0.1575    1.0282    0.0398 C   0  0  0  0  0  0  0  0  0  0  0  0
   -1.2962   -1.0595   -0.2583 C   0  0  0  0  0  0  0  0  0  0  0  0
    3.5289   -0.4826   -2.5832 C   0  0  0  0  0  0  0  0  0  0  0  0
   -1.3317    0.3114   -0.0856 C   0  0  0  0  0  0  0  0  0  0  0  0
    0.1680   -5.6422    1.6471 C   0  0  0  0  0  0  0  0  0  0  0  0
   -0.9259   -3.7046    2.0823 C   0  0  0  0  0  0  0  0  0  0  0  0
    3.7801    1.5933   -2.4805 C   0  0  0  0  0  0  0  0  0  0  0  0
    1.7639   -3.3215   -1.0800 H   0  0  0  0  0  0  0  0  0  0  0  0
    3.4250   -3.3974    1.2520 H   0  0  0  0  0  0  0  0  0  0  0  0
    3.8328   -0.2294    0.7490 H   0  0  0  0  0  0  0  0  0  0  0  0
    4.6678   -1.5328   -0.0888 H   0  0  0  0  0  0  0  0  0  0  0  0
    2.0806   -1.1209    2.7816 H   0  0  0  0  0  0  0  0  0  0  0  0
    2.8893   -2.5102    3.5278 H   0  0  0  0  0  0  0  0  0  0  0  0
    3.8223   -1.3783    2.5610 H   0  0  0  0  0  0  0  0  0  0  0  0
   -0.1006   -2.7910   -0.5104 H   0  0  0  0  0  0  0  0  0  0  0  0
   -0.1696    2.1055    0.1408 H   0  0  0  0  0  0  0  0  0  0  0  0
   -2.2243   -1.6244   -0.2762 H   0  0  0  0  0  0  0  0  0  0  0  0
    3.3427   -1.4993   -2.8922 H   0  0  0  0  0  0  0  0  0  0  0  0
    0.1083   -6.7217    1.5496 H   0  0  0  0  0  0  0  0  0  0  0  0
   -1.8530   -3.1546    2.2078 H   0  0  0  0  0  0  0  0  0  0  0  0
    3.7856    2.6382   -2.7642 H   0  0  0  0  0  0  0  0  0  0  0  0
  1 16  1  0  0  0  0
  2 18  1  0  0  0  0
  3 22  1  0  0  0  0
  4 26  1  0  0  0  0
  5  7  1  0  0  0  0
  5 12  1  0  0  0  0
  5 21  1  0  0  0  0
  6 15  2  0  0  0  0
  6 24  1  0  0  0  0
  7 25  2  0  0  0  0
  8 21  2  0  0  0  0
  8 25  1  0  0  0  0
  9 23  1  0  0  0  0
  9 24  2  0  0  0  0
 10 12  1  0  0  0  0
 10 13  1  0  0  0  0
 10 11  1  0  0  0  0
 10  4  1  6  0  0  0
 11 14  1  0  0  0  0
 11 15  1  0  0  0  0
 11 27  1  6  0  0  0
 12 28  1  0  0  0  0
 12 29  1  0  0  0  0
 13 16  2  0  0  0  0
 13 17  1  0  0  0  0
 14 30  1  0  0  0  0
 14 31  1  0  0  0  0
 14 32  1  0  0  0  0
 15 18  1  0  0  0  0
 16 19  1  0  0  0  0
 17 20  2  0  0  0  0
 17 33  1  0  0  0  0
 18 23  2  0  0  0  0
 19 22  2  0  0  0  0
 19 34  1  0  0  0  0
 20 22  1  0  0  0  0
 20 35  1  0  0  0  0
 21 36  1  0  0  0  0
 23 37  1  0  0  0  0
 24 38  1  0  0  0  0
 25 39  1  0  0  0  0
M  END
>  <DRUGBANK_ID>
DB00582

>  <SECONDARY_ACCESSION_NUMBERS>
APRD00543

>  <COMMON_NAME>
Voriconazole

>  <CAS_NUMBER>
137234-62-9

>  <UNII>
JFU09I87TR

>  <SYNONYMS>
(R-(R*,S*))-alpha-(2,4-difluorophenyl)-5-fluoro-beta-methyl-alpha-(1H-1,2,4-triazol-1-ylmethyl)-4-pyrimidineethanol; (αR,βS)-α-(2,4-difluorophenyl)-5-fluoro-β-methyl-α(1H-1,2,4-triazol-1-ylmethyl)-4-pyrimidineethanol; VCZ; Voriconazol; Voriconazole; Voriconazolum

$$$$
