
 OpenBabel10282417183D

 38 41  0  0  0  0  0  0  0  0999 V2000
   -0.4144   -1.5303   -1.0515 N   0  0  0  0  0  0  0  0  0  0  0  0
    1.0875   -1.4645   -0.9555 C   0  0  3  0  0  0  0  0  0  0  0  0
    1.7453   -0.4879    0.0129 C   0  0  0  0  0  0  0  0  0  0  0  0
    1.4578    0.7993   -0.1450 N   0  0  0  0  0  0  0  0  0  0  0  0
   -1.2704   -0.7076   -0.4232 C   0  0  0  0  0  0  0  0  0  0  0  0
   -0.9875    0.6893   -0.3450 C   0  0  0  0  0  0  0  0  0  0  0  0
    0.2931    1.2258   -0.9196 C   0  0  0  0  0  0  0  0  0  0  0  0
   -0.8315   -2.6375   -1.9100 C   0  0  0  0  0  0  0  0  0  0  0  0
    2.1115   -1.7721   -2.5719 C   0  0  0  0  0  0  0  0  0  0  0  0
    1.9510   -3.1836   -2.2969 N   0  0  0  0  0  0  0  0  0  0  0  0
    2.6009    1.5205    0.0321 C   0  0  0  0  0  0  0  0  0  0  0  0
    2.8667   -0.5567    0.8817 C   0  0  0  0  0  0  0  0  0  0  0  0
    3.5127    0.6907    0.6616 C   0  0  0  0  0  0  0  0  0  0  0  0
    0.3410   -2.7501   -2.8540 C   0  0  0  0  0  0  0  0  0  0  0  0
   -1.9169    1.5940    0.1281 C   0  0  0  0  0  0  0  0  0  0  0  0
   -2.5395   -1.1075    0.0968 C   0  0  0  0  0  0  0  0  0  0  0  0
    2.9819   -2.7530   -1.0499 C   0  0  0  0  0  0  0  0  0  0  0  0
   -3.1691    1.1839    0.5763 C   0  0  0  0  0  0  0  0  0  0  0  0
   -3.4588   -0.1818    0.5700 C   0  0  0  0  0  0  0  0  0  0  0  0
    1.0738   -2.3757   -0.2995 H   0  0  0  0  0  0  0  0  0  0  0  0
    0.3035    2.3114   -0.9036 H   0  0  0  0  0  0  0  0  0  0  0  0
    0.4294    0.8742   -1.9453 H   0  0  0  0  0  0  0  0  0  0  0  0
   -0.9637   -3.6091   -1.4520 H   0  0  0  0  0  0  0  0  0  0  0  0
   -1.7442   -2.3265   -2.4498 H   0  0  0  0  0  0  0  0  0  0  0  0
    3.2225   -1.7717   -2.7710 H   0  0  0  0  0  0  0  0  0  0  0  0
    1.8981   -1.8770   -3.6749 H   0  0  0  0  0  0  0  0  0  0  0  0
    2.6906    2.5089   -0.3585 H   0  0  0  0  0  0  0  0  0  0  0  0
    3.3907   -1.4301    1.2495 H   0  0  0  0  0  0  0  0  0  0  0  0
    4.5545    0.9255    0.8451 H   0  0  0  0  0  0  0  0  0  0  0  0
    0.1593   -3.2445   -3.8138 H   0  0  0  0  0  0  0  0  0  0  0  0
    0.2823   -1.6516   -3.2482 H   0  0  0  0  0  0  0  0  0  0  0  0
   -1.6830    2.6608    0.1133 H   0  0  0  0  0  0  0  0  0  0  0  0
   -2.7957   -2.1651    0.1248 H   0  0  0  0  0  0  0  0  0  0  0  0
    3.2233   -1.6123   -1.0608 H   0  0  0  0  0  0  0  0  0  0  0  0
    2.6066   -3.1953   -0.1462 H   0  0  0  0  0  0  0  0  0  0  0  0
    4.0672   -2.8918   -0.9168 H   0  0  0  0  0  0  0  0  0  0  0  0
   -3.8858    1.9146    0.9092 H   0  0  0  0  0  0  0  0  0  0  0  0
   -4.4390   -0.5070    0.9303 H   0  0  0  0  0  0  0  0  0  0  0  0
  2  1  1  0  0  0  0
  2 20  1  0  0  0  0
  3  2  1  0  0  0  0
  4  3  1  0  0  0  0
  4  7  1  0  0  0  0
  5  1  1  0  0  0  0
  6  5  2  0  0  0  0
  7  6  1  0  0  0  0
  7 21  1  0  0  0  0
  7 22  1  0  0  0  0
  8  1  1  0  0  0  0
  8 23  1  0  0  0  0
  8 24  1  0  0  0  0
  9  2  1  0  0  0  0
  9 25  1  0  0  0  0
  9 26  1  0  0  0  0
 10  9  1  0  0  0  0
 10 14  1  0  0  0  0
 11  4  1  0  0  0  0
 11 13  2  0  0  0  0
 11 27  1  0  0  0  0
 12  3  2  0  0  0  0
 12 28  1  0  0  0  0
 13 12  1  0  0  0  0
 13 29  1  0  0  0  0
 14  8  1  0  0  0  0
 14 30  1  0  0  0  0
 14 31  1  0  0  0  0
 15  6  1  0  0  0  0
 15 32  1  0  0  0  0
 16  5  1  0  0  0  0
 16 33  1  0  0  0  0
 17 10  1  0  0  0  0
 17 34  1  0  0  0  0
 17 35  1  0  0  0  0
 17 36  1  0  0  0  0
 18 15  2  0  0  0  0
 18 37  1  0  0  0  0
 19 16  2  0  0  0  0
 19 18  1  0  0  0  0
 19 38  1  0  0  0  0
M  END
>  <DRUGBANK_ID>
DB09305

>  <COMMON_NAME>
Aptazapine

>  <CAS_NUMBER>
71576-40-4

>  <UNII>
240J927J1R

>  <SYNONYMS>
Aptazapine

$$$$
