
 OpenBabel10282417133D

 94 98  0  0  1  0  0  0  0  0999 V2000
    1.0665   -0.9650    0.0593 N   0  0  0  0  0  0  0  0  0  0  0  0
    0.6996   -2.8433    0.1645 C   0  0  0  0  0  0  0  0  0  0  0  0
   -0.4769   -2.0725    0.5176 O   0  0  0  0  0  0  0  0  0  0  0  0
    1.1964   -5.0401    0.3364 C   0  0  0  0  0  0  0  0  0  0  0  0
    1.8725   -7.3057   -0.1539 C   0  0  2  0  0  0  0  0  0  0  0  0
    1.9919   -9.7256   -0.1066 N   0  0  0  0  0  0  0  0  0  0  0  0
    1.8816  -11.9297   -0.3860 C   0  0  0  0  0  0  0  0  0  0  0  0
    1.9189  -13.4389    0.1019 O   0  0  0  0  0  0  0  0  0  0  0  0
    1.8338  -13.9166   -1.6072 C   0  0  0  0  0  0  0  0  0  0  0  0
    1.3936  -15.5766   -2.9625 C   0  0  0  0  0  0  0  0  0  0  0  0
    1.1376  -15.1492   -4.5743 C   0  0  0  0  0  0  0  0  0  0  0  0
    0.0227  -14.1556   -4.3694 C   0  0  0  0  0  0  0  0  0  0  0  0
    0.3082  -13.2872   -3.2658 C   0  0  0  0  0  0  0  0  0  0  0  0
    0.4379  -13.9945   -2.0375 C   0  0  0  0  0  0  0  0  0  0  0  0
    2.9404  -13.9076   -2.4749 N   0  0  0  0  0  0  0  0  0  0  0  0
    2.8112  -12.6160   -2.2802 C   0  0  0  0  0  0  0  0  0  0  0  0
    1.7173  -12.0520   -2.1043 O   0  0  0  0  0  0  0  0  0  0  0  0
    3.7465  -11.6452   -2.5534 C   0  0  0  0  0  0  0  0  0  0  0  0
    2.8862  -10.4832   -3.0938 C   0  0  2  0  0  0  0  0  0  0  0  0
    1.8793   -9.8700   -2.2375 C   0  0  0  0  0  0  0  0  0  0  0  0
    1.9634   -8.6489   -1.7892 C   0  0  0  0  0  0  0  0  0  0  0  0
    0.7222   -8.4837   -0.3661 C   0  0  0  0  0  0  0  0  0  0  0  0
    2.0743   -8.0836    1.2494 C   0  0  2  0  0  0  0  0  0  0  0  0
    3.5653   -6.8993    0.3132 C   0  0  0  0  0  0  0  0  0  0  0  0
    3.1162   -5.8153   -0.7953 N   0  0  0  0  0  0  0  0  0  0  0  0
    2.5436   -5.3996    0.2890 C   0  0  0  0  0  0  0  0  0  0  0  0
    3.3602   -4.4635    0.5782 O   0  0  0  0  0  0  0  0  0  0  0  0
    3.0446   -9.0707    1.5475 C   0  0  0  0  0  0  0  0  0  0  0  0
    3.8247   -8.5028    2.5970 C   0  0  0  0  0  0  0  0  0  0  0  0
    4.5088   -9.4632    3.2608 C   0  0  0  0  0  0  0  0  0  0  0  0
    5.2006   -9.0896    4.3764 C   0  0  0  0  0  0  0  0  0  0  0  0
    5.2404   -7.7599    4.7819 C   0  0  0  0  0  0  0  0  0  0  0  0
    4.6260   -6.7611    4.0653 C   0  0  0  0  0  0  0  0  0  0  0  0
    4.7203   -5.3990    4.4087 C   0  0  0  0  0  0  0  0  0  0  0  0
    4.0877   -4.3878    3.7397 C   0  0  0  0  0  0  0  0  0  0  0  0
    3.1815   -4.7665    2.8747 C   0  0  0  0  0  0  0  0  0  0  0  0
    3.0692   -6.0982    2.6399 C   0  0  0  0  0  0  0  0  0  0  0  0
    3.8557   -7.1511    3.0402 C   0  0  0  0  0  0  0  0  0  0  0  0
    2.0730  -10.8307   -4.2765 C   0  0  0  0  0  0  0  0  0  0  0  0
    2.1634  -12.0721   -4.8228 C   0  0  0  0  0  0  0  0  0  0  0  0
    1.3378  -12.5141   -5.8051 C   0  0  0  0  0  0  0  0  0  0  0  0
    0.3829  -11.7173   -6.3138 C   0  0  0  0  0  0  0  0  0  0  0  0
   -0.4958  -12.1988   -7.4286 C   0  0  0  0  0  0  0  0  0  0  0  0
   -2.2683  -11.8570   -7.1280 P   0  0  0  0  0  0  0  0  0  0  0  0
   -1.9700  -10.6270   -6.1190 O   0  0  0  0  0  0  0  0  0  0  0  0
   -2.4061  -11.4473   -8.7164 O   0  0  0  0  0  0  0  0  0  0  0  0
   -3.7680  -11.5678   -6.8737 O   0  0  0  0  0  0  0  0  0  0  0  0
    0.3889  -10.4252   -5.8418 C   0  0  0  0  0  0  0  0  0  0  0  0
    1.2713   -9.9502   -4.9143 C   0  0  0  0  0  0  0  0  0  0  0  0
    0.4596    0.2590   -0.1400 H   0  0  0  0  0  0  0  0  0  0  0  0
    1.8979   -0.2311    0.0884 H   0  0  0  0  0  0  0  0  0  0  0  0
    1.6847   -3.8578    1.1066 H   0  0  0  0  0  0  0  0  0  0  0  0
    0.4323   -4.2039    1.2168 H   0  0  0  0  0  0  0  0  0  0  0  0
    0.9967   -6.3724   -0.4300 H   0  0  0  0  0  0  0  0  0  0  0  0
    2.7698  -10.9032   -0.3282 H   0  0  0  0  0  0  0  0  0  0  0  0
    2.0282  -16.6580   -3.4257 H   0  0  0  0  0  0  0  0  0  0  0  0
    0.3548  -16.3683   -3.0839 H   0  0  0  0  0  0  0  0  0  0  0  0
    2.1229  -14.7861   -4.8972 H   0  0  0  0  0  0  0  0  0  0  0  0
    0.8224  -15.7896   -5.4564 H   0  0  0  0  0  0  0  0  0  0  0  0
   -0.2606  -13.5361   -5.1751 H   0  0  0  0  0  0  0  0  0  0  0  0
   -0.9311  -14.5387   -4.1917 H   0  0  0  0  0  0  0  0  0  0  0  0
    1.2800  -13.0124   -3.4294 H   0  0  0  0  0  0  0  0  0  0  0  0
   -0.2106  -12.3770   -3.1416 H   0  0  0  0  0  0  0  0  0  0  0  0
   -0.4301  -14.5352   -1.7908 H   0  0  0  0  0  0  0  0  0  0  0  0
    0.4498  -13.3553   -1.2418 H   0  0  0  0  0  0  0  0  0  0  0  0
    3.2955  -14.3641   -3.3597 H   0  0  0  0  0  0  0  0  0  0  0  0
    4.3146  -12.1184   -3.3096 H   0  0  0  0  0  0  0  0  0  0  0  0
    4.2661  -11.4243   -1.6443 H   0  0  0  0  0  0  0  0  0  0  0  0
    3.5872   -9.7370   -3.3600 H   0  0  0  0  0  0  0  0  0  0  0  0
    1.0807  -10.4254   -1.6701 H   0  0  0  0  0  0  0  0  0  0  0  0
    2.8840   -8.0646   -1.9552 H   0  0  0  0  0  0  0  0  0  0  0  0
    0.2020   -9.1992    0.1508 H   0  0  0  0  0  0  0  0  0  0  0  0
    0.3057   -7.5084   -0.8281 H   0  0  0  0  0  0  0  0  0  0  0  0
    1.3483   -7.4075    1.8028 H   0  0  0  0  0  0  0  0  0  0  0  0
    4.0124   -7.2800   -0.5395 H   0  0  0  0  0  0  0  0  0  0  0  0
    4.2159   -6.3663    0.9814 H   0  0  0  0  0  0  0  0  0  0  0  0
    2.2307   -5.8296   -1.3836 H   0  0  0  0  0  0  0  0  0  0  0  0
    2.2614   -9.7701    1.7910 H   0  0  0  0  0  0  0  0  0  0  0  0
    3.6400   -9.2743    0.6177 H   0  0  0  0  0  0  0  0  0  0  0  0
    4.4442  -10.4894    2.9250 H   0  0  0  0  0  0  0  0  0  0  0  0
    5.7305   -9.8339    4.9446 H   0  0  0  0  0  0  0  0  0  0  0  0
    5.7562   -7.5028    5.6896 H   0  0  0  0  0  0  0  0  0  0  0  0
    5.2951   -5.1076    5.2540 H   0  0  0  0  0  0  0  0  0  0  0  0
    4.1310   -3.3453    3.9514 H   0  0  0  0  0  0  0  0  0  0  0  0
    2.6044   -4.0341    2.3650 H   0  0  0  0  0  0  0  0  0  0  0  0
    2.4106   -6.2642    1.8743 H   0  0  0  0  0  0  0  0  0  0  0  0
    2.7144  -12.8394   -4.3147 H   0  0  0  0  0  0  0  0  0  0  0  0
    1.2644  -13.5739   -5.9939 H   0  0  0  0  0  0  0  0  0  0  0  0
   -0.1373  -11.6522   -8.3028 H   0  0  0  0  0  0  0  0  0  0  0  0
   -0.3641  -13.2680   -7.6066 H   0  0  0  0  0  0  0  0  0  0  0  0
   -1.8068  -10.9254   -5.1793 H   0  0  0  0  0  0  0  0  0  0  0  0
   -1.6523  -11.6075   -9.3087 H   0  0  0  0  0  0  0  0  0  0  0  0
   -0.3313   -9.7322   -6.2207 H   0  0  0  0  0  0  0  0  0  0  0  0
    1.3918   -8.8967   -4.7515 H   0  0  0  0  0  0  0  0  0  0  0  0
  1  2  1  0  0  0  0
  1 50  1  0  0  0  0
  1 51  1  0  0  0  0
  2  3  2  0  0  0  0
  2  4  1  0  0  0  0
  4 52  1  0  0  0  0
  4 53  1  0  0  0  0
  5  4  1  0  0  0  0
  5  6  1  0  0  0  0
  5 26  1  0  0  0  0
  5 54  1  6  0  0  0
  6  7  1  0  0  0  0
  6 55  1  0  0  0  0
  7  8  2  0  0  0  0
  7  9  1  0  0  0  0
  9 10  1  0  0  0  0
  9 14  1  0  0  0  0
  9 15  1  0  0  0  0
 10 11  1  0  0  0  0
 10 56  1  0  0  0  0
 10 57  1  0  0  0  0
 11 12  1  0  0  0  0
 11 58  1  0  0  0  0
 11 59  1  0  0  0  0
 12 13  1  0  0  0  0
 12 60  1  0  0  0  0
 12 61  1  0  0  0  0
 13 14  1  0  0  0  0
 13 62  1  0  0  0  0
 13 63  1  0  0  0  0
 14 64  1  0  0  0  0
 14 65  1  0  0  0  0
 15 16  1  0  0  0  0
 15 66  1  0  0  0  0
 16 17  2  0  0  0  0
 16 18  1  0  0  0  0
 18 19  1  0  0  0  0
 18 67  1  0  0  0  0
 18 68  1  0  0  0  0
 19 20  1  0  0  0  0
 19 39  1  0  0  0  0
 19 69  1  6  0  0  0
 20 21  2  0  0  0  0
 20 70  1  0  0  0  0
 21 22  1  0  0  0  0
 21 71  1  0  0  0  0
 22 23  1  0  0  0  0
 22 72  1  0  0  0  0
 22 73  1  0  0  0  0
 23 24  1  0  0  0  0
 23 28  1  0  0  0  0
 23 74  1  1  0  0  0
 24 25  1  0  0  0  0
 24 75  1  0  0  0  0
 24 76  1  0  0  0  0
 25 26  1  0  0  0  0
 25 77  1  0  0  0  0
 26 27  2  0  0  0  0
 28 29  1  0  0  0  0
 28 78  1  0  0  0  0
 28 79  1  0  0  0  0
 29 30  2  0  0  0  0
 29 38  1  0  0  0  0
 30 31  1  0  0  0  0
 30 80  1  0  0  0  0
 31 32  2  0  0  0  0
 31 81  1  0  0  0  0
 32 33  1  0  0  0  0
 32 82  1  0  0  0  0
 33 34  2  0  0  0  0
 33 38  1  0  0  0  0
 34 35  1  0  0  0  0
 34 83  1  0  0  0  0
 35 36  2  0  0  0  0
 35 84  1  0  0  0  0
 36 37  1  0  0  0  0
 36 85  1  0  0  0  0
 37 38  2  0  0  0  0
 37 86  1  0  0  0  0
 39 40  2  0  0  0  0
 39 49  1  0  0  0  0
 40 41  1  0  0  0  0
 40 87  1  0  0  0  0
 41 42  2  0  0  0  0
 41 88  1  0  0  0  0
 42 43  1  0  0  0  0
 42 48  1  0  0  0  0
 43 44  1  0  0  0  0
 43 89  1  0  0  0  0
 43 90  1  0  0  0  0
 44 45  1  0  0  0  0
 44 46  1  0  0  0  0
 44 47  2  0  0  0  0
 45 91  1  0  0  0  0
 46 92  1  0  0  0  0
 48 49  2  0  0  0  0
 48 93  1  0  0  0  0
 49 94  1  0  0  0  0
M  END
>  <DRUGBANK_ID>
DB03276

>  <SECONDARY_ACCESSION_NUMBERS>
EXPT01283

>  <COMMON_NAME>
4-[(10s,14s,18s)-18-(2-Amino-2-Oxoethyl)-14-(1-Naphthylmethyl)-8,17,20-Trioxo-7,16,19-Triazaspiro[5.14]Icos-11-En-10-Yl]Benzylphosphonic Acid

$$$$
