1032
 OpenBabel10282417113D

 38 38  0  0  0  0  0  0  0  0999 V2000
    1.2989   -0.1341    0.0238 S   0  0  0  0  0  0  0  0  0  0  0  0
    1.3045   -0.8551   -1.2417 O   0  0  0  0  0  0  0  0  0  0  0  0
    0.8033   -0.7359    1.2333 O   0  0  0  0  0  0  0  0  0  0  0  0
    7.8989   -1.1392    0.2078 O   0  0  0  0  0  0  0  0  0  0  0  0
    7.8210    1.1026    0.1498 O   0  0  0  0  0  0  0  0  0  0  0  0
    0.5617    1.4180   -0.1309 N   0  0  0  0  0  0  0  0  0  0  0  0
    0.8805    2.3173   -1.3137 C   0  0  0  0  0  0  0  0  0  0  0  0
   -0.9149    1.4430    0.2810 C   0  0  0  0  0  0  0  0  0  0  0  0
    0.4120    1.8343   -2.6985 C   0  0  0  0  0  0  0  0  0  0  0  0
   -1.7600    0.6085   -0.6665 C   0  0  0  0  0  0  0  0  0  0  0  0
    3.0153    0.0078    0.2013 C   0  0  0  0  0  0  0  0  0  0  0  0
   -1.0448    2.1284   -3.1522 C   0  0  0  0  0  0  0  0  0  0  0  0
   -1.4903   -0.7884   -1.1530 C   0  0  0  0  0  0  0  0  0  0  0  0
    3.6743    1.2143    0.2153 C   0  0  0  0  0  0  0  0  0  0  0  0
    3.6935   -1.2187    0.1251 C   0  0  0  0  0  0  0  0  0  0  0  0
    5.0581    1.1904    0.1850 C   0  0  0  0  0  0  0  0  0  0  0  0
    5.0658   -1.2429    0.2149 C   0  0  0  0  0  0  0  0  0  0  0  0
    5.7606   -0.0332    0.2057 C   0  0  0  0  0  0  0  0  0  0  0  0
    7.2456    0.0479    0.1894 C   0  0  0  0  0  0  0  0  0  0  0  0
    7.3822   -1.9581    0.2113 H   0  0  0  0  0  0  0  0  0  0  0  0
    0.5231    3.3365   -1.1143 H   0  0  0  0  0  0  0  0  0  0  0  0
    1.9667    2.4347   -1.3791 H   0  0  0  0  0  0  0  0  0  0  0  0
   -1.0922    1.1694    1.3203 H   0  0  0  0  0  0  0  0  0  0  0  0
   -1.2479    2.4949    0.1805 H   0  0  0  0  0  0  0  0  0  0  0  0
    1.0459    2.3368   -3.4416 H   0  0  0  0  0  0  0  0  0  0  0  0
    0.6603    0.7771   -2.8103 H   0  0  0  0  0  0  0  0  0  0  0  0
   -2.8011    0.9225   -0.7859 H   0  0  0  0  0  0  0  0  0  0  0  0
   -1.2495    1.0178   -1.4723 H   0  0  0  0  0  0  0  0  0  0  0  0
   -1.2402    3.1941   -3.0804 H   0  0  0  0  0  0  0  0  0  0  0  0
   -1.2148    1.5845   -4.0820 H   0  0  0  0  0  0  0  0  0  0  0  0
   -1.9578    1.7904   -2.6536 H   0  0  0  0  0  0  0  0  0  0  0  0
   -1.4761   -1.5339   -0.3699 H   0  0  0  0  0  0  0  0  0  0  0  0
   -2.0383   -1.0781   -2.0553 H   0  0  0  0  0  0  0  0  0  0  0  0
   -0.5419   -0.7518   -1.6492 H   0  0  0  0  0  0  0  0  0  0  0  0
    3.1432    2.1557    0.2113 H   0  0  0  0  0  0  0  0  0  0  0  0
    3.1444   -2.1506   -0.0398 H   0  0  0  0  0  0  0  0  0  0  0  0
    5.5825    2.1426    0.1603 H   0  0  0  0  0  0  0  0  0  0  0  0
    5.5252   -2.2188    0.2838 H   0  0  0  0  0  0  0  0  0  0  0  0
  1  2  2  0  0  0  0
  1  3  2  0  0  0  0
  1  6  1  0  0  0  0
  1 11  1  0  0  0  0
  4 19  1  0  0  0  0
  4 20  1  0  0  0  0
  5 19  2  0  0  0  0
  6  7  1  0  0  0  0
  6  8  1  0  0  0  0
  7  9  1  0  0  0  0
  7 21  1  0  0  0  0
  7 22  1  0  0  0  0
  8 10  1  0  0  0  0
  8 23  1  0  0  0  0
  8 24  1  0  0  0  0
  9 12  1  0  0  0  0
  9 25  1  0  0  0  0
  9 26  1  0  0  0  0
 10 13  1  0  0  0  0
 10 27  1  0  0  0  0
 10 28  1  0  0  0  0
 11 14  2  0  0  0  0
 11 15  1  0  0  0  0
 12 29  1  0  0  0  0
 12 30  1  0  0  0  0
 12 31  1  0  0  0  0
 13 32  1  0  0  0  0
 13 33  1  0  0  0  0
 13 34  1  0  0  0  0
 14 16  1  0  0  0  0
 14 35  1  0  0  0  0
 15 17  2  0  0  0  0
 15 36  1  0  0  0  0
 16 18  2  0  0  0  0
 16 37  1  0  0  0  0
 17 18  1  0  0  0  0
 17 38  1  0  0  0  0
 18 19  1  0  0  0  0
M  END
>  <DRUGBANK_ID>
DB01032

>  <SECONDARY_ACCESSION_NUMBERS>
APRD00167

>  <COMMON_NAME>
Probenecid

>  <CAS_NUMBER>
57-66-9

>  <UNII>
PO572Z7917

>  <SYNONYMS>
4-((Dipropylamino)sulfonyl)benzoic acid; 4-(Di-n-propylsulfamoyl)benzoesäure; 4-(N,N-Dipropylsulfamoyl)benzoesäure; p-(Dipropylsulfamoyl)benzoic acid; Probenecid; Probenecid acid; Probenecida; Probenecide; Probenecidum

$$$$
