
 OpenBabel10282417153D

 66 70  0  0  0  0  0  0  0  0999 V2000
    0.9513   -0.1320   -0.2630 O   0  0  0  0  0  0  0  0  0  0  0  0
    5.9329    5.6201   -4.5488 O   0  0  0  0  0  0  0  0  0  0  0  0
    9.3976   -5.1809   -2.4925 O   0  0  0  0  0  0  0  0  0  0  0  0
    1.7487    2.5388    1.7746 N   0  0  0  0  0  0  0  0  0  0  0  0
    7.0598    0.7461   -2.1231 N   0  0  0  0  0  0  0  0  0  0  0  0
    2.7100    1.4701    1.5765 C   0  0  0  0  0  0  0  0  0  0  0  0
    2.1236    3.7462    1.0042 C   0  0  0  0  0  0  0  0  0  0  0  0
    4.1853    1.7365    1.5866 C   0  0  0  0  0  0  0  0  0  0  0  0
    3.5993    4.1414    1.1767 C   0  0  0  0  0  0  0  0  0  0  0  0
    4.4801    2.9891    0.7933 C   0  0  0  0  0  0  0  0  0  0  0  0
    0.4398    1.9669    1.3081 C   0  0  0  0  0  0  0  0  0  0  0  0
    0.3007    1.1803   -0.0926 C   0  0  0  0  0  0  0  0  0  0  0  0
    7.6077    0.0677   -3.1949 C   0  0  0  0  0  0  0  0  0  0  0  0
    6.8437    2.0890   -2.4969 C   0  0  0  0  0  0  0  0  0  0  0  0
    7.7352    0.9718   -4.2398 C   0  0  0  0  0  0  0  0  0  0  0  0
    7.1412    2.2040   -3.8680 C   0  0  0  0  0  0  0  0  0  0  0  0
    6.5919    0.0321   -0.8915 C   0  0  0  0  0  0  0  0  0  0  0  0
    5.1006   -0.3223   -0.9861 C   0  0  0  0  0  0  0  0  0  0  0  0
    8.0396   -1.3243   -3.1198 C   0  0  0  0  0  0  0  0  0  0  0  0
    6.3466    3.2200   -1.8484 C   0  0  0  0  0  0  0  0  0  0  0  0
    6.8819    3.4358   -4.5213 C   0  0  0  0  0  0  0  0  0  0  0  0
    8.3708    0.7203   -5.5499 C   0  0  0  0  0  0  0  0  0  0  0  0
    2.2115   -0.2835   -0.8318 C   0  0  0  0  0  0  0  0  0  0  0  0
    4.4118   -1.4247   -0.4796 C   0  0  0  0  0  0  0  0  0  0  0  0
    4.2805    0.6894   -1.4752 C   0  0  0  0  0  0  0  0  0  0  0  0
    6.2088    4.4662   -3.8776 C   0  0  0  0  0  0  0  0  0  0  0  0
    5.8802    4.3435   -2.5366 C   0  0  0  0  0  0  0  0  0  0  0  0
    2.9751   -1.4090   -0.4342 C   0  0  0  0  0  0  0  0  0  0  0  0
    2.8899    0.7341   -1.4646 C   0  0  0  0  0  0  0  0  0  0  0  0
    7.1345   -2.3710   -2.8934 C   0  0  0  0  0  0  0  0  0  0  0  0
    9.4045   -1.6016   -3.2177 C   0  0  0  0  0  0  0  0  0  0  0  0
    7.6083   -3.6562   -2.6410 C   0  0  0  0  0  0  0  0  0  0  0  0
    9.8660   -2.9064   -3.0903 C   0  0  0  0  0  0  0  0  0  0  0  0
    8.9695   -3.9129   -2.7457 C   0  0  0  0  0  0  0  0  0  0  0  0
    5.5234    6.2537   -3.9365 H   0  0  0  0  0  0  0  0  0  0  0  0
   10.3674   -5.1906   -2.5448 H   0  0  0  0  0  0  0  0  0  0  0  0
    2.5600    1.3372    0.5457 H   0  0  0  0  0  0  0  0  0  0  0  0
    2.4475    0.5208    2.0563 H   0  0  0  0  0  0  0  0  0  0  0  0
    1.5129    4.5960    1.3203 H   0  0  0  0  0  0  0  0  0  0  0  0
    1.9280    3.5974   -0.0683 H   0  0  0  0  0  0  0  0  0  0  0  0
    4.6842    0.8838    1.1237 H   0  0  0  0  0  0  0  0  0  0  0  0
    4.5901    1.7909    2.5903 H   0  0  0  0  0  0  0  0  0  0  0  0
    3.8463    4.4254    2.1995 H   0  0  0  0  0  0  0  0  0  0  0  0
    3.8381    4.9839    0.5130 H   0  0  0  0  0  0  0  0  0  0  0  0
    5.5338    3.2218    0.9267 H   0  0  0  0  0  0  0  0  0  0  0  0
    4.2570    2.8764   -0.2672 H   0  0  0  0  0  0  0  0  0  0  0  0
   -0.2827    2.7953    1.3151 H   0  0  0  0  0  0  0  0  0  0  0  0
    0.1152    1.2844    2.1041 H   0  0  0  0  0  0  0  0  0  0  0  0
    0.4768    1.8492   -0.9407 H   0  0  0  0  0  0  0  0  0  0  0  0
   -0.7695    0.9353   -0.1411 H   0  0  0  0  0  0  0  0  0  0  0  0
    6.8245    0.6826   -0.0386 H   0  0  0  0  0  0  0  0  0  0  0  0
    7.2117   -0.8632   -0.7498 H   0  0  0  0  0  0  0  0  0  0  0  0
    6.2378    3.2047   -0.7789 H   0  0  0  0  0  0  0  0  0  0  0  0
    7.1942    3.5768   -5.5578 H   0  0  0  0  0  0  0  0  0  0  0  0
    7.6474    0.8611   -6.3546 H   0  0  0  0  0  0  0  0  0  0  0  0
    9.2006    1.4224   -5.6733 H   0  0  0  0  0  0  0  0  0  0  0  0
    8.7720   -0.2927   -5.6164 H   0  0  0  0  0  0  0  0  0  0  0  0
    4.9409   -2.2584   -0.0159 H   0  0  0  0  0  0  0  0  0  0  0  0
    4.7459    1.6346   -1.6398 H   0  0  0  0  0  0  0  0  0  0  0  0
    5.3150    5.1090   -2.0218 H   0  0  0  0  0  0  0  0  0  0  0  0
    2.4570   -2.2352    0.0459 H   0  0  0  0  0  0  0  0  0  0  0  0
    2.4736    1.7250   -1.6278 H   0  0  0  0  0  0  0  0  0  0  0  0
    6.0631   -2.1861   -2.8708 H   0  0  0  0  0  0  0  0  0  0  0  0
   10.1061   -0.7891   -3.3932 H   0  0  0  0  0  0  0  0  0  0  0  0
    6.9209   -4.4509   -2.3653 H   0  0  0  0  0  0  0  0  0  0  0  0
   10.9187   -3.1071   -3.2513 H   0  0  0  0  0  0  0  0  0  0  0  0
  1 12  1  0  0  0  0
  1 23  1  0  0  0  0
  2 26  1  0  0  0  0
  2 35  1  0  0  0  0
  3 34  1  0  0  0  0
  3 36  1  0  0  0  0
  4  6  1  0  0  0  0
  4  7  1  0  0  0  0
  4 11  1  0  0  0  0
  5 13  1  0  0  0  0
  5 14  1  0  0  0  0
  5 17  1  0  0  0  0
  6  8  1  0  0  0  0
  6 37  1  0  0  0  0
  6 38  1  0  0  0  0
  7  9  1  0  0  0  0
  7 39  1  0  0  0  0
  7 40  1  0  0  0  0
  8 10  1  0  0  0  0
  8 41  1  0  0  0  0
  8 42  1  0  0  0  0
  9 10  1  0  0  0  0
  9 43  1  0  0  0  0
  9 44  1  0  0  0  0
 10 45  1  0  0  0  0
 10 46  1  0  0  0  0
 11 12  1  0  0  0  0
 11 47  1  0  0  0  0
 11 48  1  0  0  0  0
 12 49  1  0  0  0  0
 12 50  1  0  0  0  0
 13 15  2  0  0  0  0
 13 19  1  0  0  0  0
 14 16  2  0  0  0  0
 14 20  1  0  0  0  0
 15 16  1  0  0  0  0
 15 22  1  0  0  0  0
 16 21  1  0  0  0  0
 17 18  1  0  0  0  0
 17 51  1  0  0  0  0
 17 52  1  0  0  0  0
 18 24  2  0  0  0  0
 18 25  1  0  0  0  0
 19 30  2  0  0  0  0
 19 31  1  0  0  0  0
 20 27  2  0  0  0  0
 20 53  1  0  0  0  0
 21 26  2  0  0  0  0
 21 54  1  0  0  0  0
 22 55  1  0  0  0  0
 22 56  1  0  0  0  0
 22 57  1  0  0  0  0
 23 28  2  0  0  0  0
 23 29  1  0  0  0  0
 24 28  1  0  0  0  0
 24 58  1  0  0  0  0
 25 29  2  0  0  0  0
 25 59  1  0  0  0  0
 26 27  1  0  0  0  0
 27 60  1  0  0  0  0
 28 61  1  0  0  0  0
 29 62  1  0  0  0  0
 30 32  1  0  0  0  0
 30 63  1  0  0  0  0
 31 33  2  0  0  0  0
 31 64  1  0  0  0  0
 32 34  2  0  0  0  0
 32 65  1  0  0  0  0
 33 34  1  0  0  0  0
 33 66  1  0  0  0  0
M  END
>  <DRUGBANK_ID>
DB05414

>  <COMMON_NAME>
Pipendoxifene

>  <CAS_NUMBER>
198480-55-6

>  <UNII>
TPC5Q8496G

>  <SYNONYMS>
Pipendoxifene

$$$$
