
 OpenBabel10282417103D

 69 71  0  0  1  0  0  0  0  0999 V2000
   -6.8803   -4.8339    0.0804 C   0  0  2  0  0  0  0  0  0  0  0  0
   -7.0866   -6.3158    0.5038 C   0  0  2  0  0  0  0  0  0  0  0  0
   -7.3272   -6.4422    2.0237 C   0  0  1  0  0  0  0  0  0  0  0  0
   -6.1214   -5.8402    2.7569 C   0  0  2  0  0  0  0  0  0  0  0  0
   -5.9215   -4.3682    2.2771 C   0  0  2  0  0  0  0  0  0  0  0  0
   -5.9773   -4.0957    0.8881 O   0  0  0  0  0  0  0  0  0  0  0  0
   -8.1896   -4.0419   -0.0610 C   0  0  0  0  0  0  0  0  0  0  0  0
   -8.3073   -2.8770    0.7498 O   0  0  0  0  0  0  0  0  0  0  0  0
   -5.9653   -7.1541    0.1492 O   0  0  0  0  0  0  0  0  0  0  0  0
   -8.6051   -5.8702    2.4607 N   0  0  0  0  0  0  0  0  0  0  0  0
   -5.0007   -6.7401    2.6091 O   0  0  0  0  0  0  0  0  0  0  0  0
   -4.8005   -3.7128    2.8202 O   0  0  0  0  0  0  0  0  0  0  0  0
   -3.5687   -4.3878    2.6114 C   0  0  1  0  0  0  0  0  0  0  0  0
   -3.1185   -4.4551    1.1258 C   0  0  1  0  0  0  0  0  0  0  0  0
   -1.7380   -5.0707    0.9592 C   0  0  0  0  0  0  0  0  0  0  0  0
   -0.7384   -4.3224    1.7869 C   0  0  1  0  0  0  0  0  0  0  0  0
   -1.2119   -4.2738    3.2453 C   0  0  2  0  0  0  0  0  0  0  0  0
   -2.5825   -3.6550    3.4719 C   0  0  2  0  0  0  0  0  0  0  0  0
   -3.9213   -5.3768    0.3196 N   0  0  0  0  0  0  0  0  0  0  0  0
    0.5687   -4.9903    1.6666 N   0  0  0  0  0  0  0  0  0  0  0  0
   -2.9678   -3.7990    4.8614 O   0  0  0  0  0  0  0  0  0  0  0  0
   -0.2809   -3.6217    4.0598 O   0  0  0  0  0  0  0  0  0  0  0  0
    0.0443   -2.2771    3.7066 C   0  0  1  0  0  0  0  0  0  0  0  0
   -1.0367   -1.3460    3.6520 O   0  0  0  0  0  0  0  0  0  0  0  0
   -0.6600    0.0296    3.4236 C   0  0  1  0  0  0  0  0  0  0  0  0
    0.3643    0.4900    4.4813 C   0  0  2  0  0  0  0  0  0  0  0  0
    1.5206   -0.5071    4.5756 C   0  0  0  0  0  0  0  0  0  0  0  0
    1.0237   -1.9187    4.8199 C   0  0  1  0  0  0  0  0  0  0  0  0
   -0.1072    0.2460    1.9926 C   0  0  0  0  0  0  0  0  0  0  0  0
   -1.1062    0.0144    0.9535 N   0  0  0  0  0  0  0  0  0  0  0  0
   -0.2919    0.5999    5.7484 O   0  0  0  0  0  0  0  0  0  0  0  0
    0.3755   -2.0845    6.1398 N   0  0  0  0  0  0  0  0  0  0  0  0
   -6.4213   -4.8617   -0.9208 H   0  0  0  0  0  0  0  0  0  0  0  0
   -7.9160   -6.7514   -0.0570 H   0  0  0  0  0  0  0  0  0  0  0  0
   -7.3543   -7.5097    2.2720 H   0  0  0  0  0  0  0  0  0  0  0  0
   -6.2831   -5.8000    3.8398 H   0  0  0  0  0  0  0  0  0  0  0  0
   -6.7438   -3.8063    2.7172 H   0  0  0  0  0  0  0  0  0  0  0  0
   -8.2658   -3.6863   -1.0910 H   0  0  0  0  0  0  0  0  0  0  0  0
   -9.0584   -4.6773    0.1126 H   0  0  0  0  0  0  0  0  0  0  0  0
   -8.0507   -3.0639    1.6652 H   0  0  0  0  0  0  0  0  0  0  0  0
   -5.2555   -6.5380   -0.1283 H   0  0  0  0  0  0  0  0  0  0  0  0
   -8.6538   -5.8799    3.4798 H   0  0  0  0  0  0  0  0  0  0  0  0
   -8.6852   -4.8905    2.2029 H   0  0  0  0  0  0  0  0  0  0  0  0
   -5.2931   -7.5475    2.1537 H   0  0  0  0  0  0  0  0  0  0  0  0
   -3.5862   -5.3688    3.0764 H   0  0  0  0  0  0  0  0  0  0  0  0
   -3.1605   -3.4432    0.6925 H   0  0  0  0  0  0  0  0  0  0  0  0
   -1.7621   -6.1261    1.2755 H   0  0  0  0  0  0  0  0  0  0  0  0
   -1.4430   -5.0631   -0.0984 H   0  0  0  0  0  0  0  0  0  0  0  0
   -0.6462   -3.3156    1.3692 H   0  0  0  0  0  0  0  0  0  0  0  0
   -1.2531   -5.3061    3.6278 H   0  0  0  0  0  0  0  0  0  0  0  0
   -2.6648   -2.5974    3.2328 H   0  0  0  0  0  0  0  0  0  0  0  0
   -3.6458   -5.3541   -0.6408 H   0  0  0  0  0  0  0  0  0  0  0  0
   -3.8041   -6.3015    0.7708 H   0  0  0  0  0  0  0  0  0  0  0  0
    1.2063   -4.5614    2.3389 H   0  0  0  0  0  0  0  0  0  0  0  0
    0.4777   -5.9532    2.0017 H   0  0  0  0  0  0  0  0  0  0  0  0
   -2.2046   -4.1624    5.3451 H   0  0  0  0  0  0  0  0  0  0  0  0
    0.5403   -2.2847    2.7351 H   0  0  0  0  0  0  0  0  0  0  0  0
   -1.5752    0.6284    3.5417 H   0  0  0  0  0  0  0  0  0  0  0  0
    0.7442    1.4853    4.2339 H   0  0  0  0  0  0  0  0  0  0  0  0
    2.0722   -0.5060    3.6258 H   0  0  0  0  0  0  0  0  0  0  0  0
    2.2259   -0.2376    5.3628 H   0  0  0  0  0  0  0  0  0  0  0  0
    1.8487   -2.6378    4.7720 H   0  0  0  0  0  0  0  0  0  0  0  0
    0.2726    1.2678    1.8910 H   0  0  0  0  0  0  0  0  0  0  0  0
    0.7292   -0.4280    1.7936 H   0  0  0  0  0  0  0  0  0  0  0  0
   -0.6605    0.0054    0.0375 H   0  0  0  0  0  0  0  0  0  0  0  0
   -1.5406   -0.8983    1.0888 H   0  0  0  0  0  0  0  0  0  0  0  0
    0.2689    1.1352    6.3337 H   0  0  0  0  0  0  0  0  0  0  0  0
    0.9478   -1.6918    6.8743 H   0  0  0  0  0  0  0  0  0  0  0  0
   -0.4904   -1.5247    6.1158 H   0  0  0  0  0  0  0  0  0  0  0  0
  1  2  1  0  0  0  0
  1  6  1  0  0  0  0
  1 33  1  6  0  0  0
  1  7  1  0  0  0  0
  2  3  1  0  0  0  0
  2 34  1  6  0  0  0
  2  9  1  0  0  0  0
  3  4  1  0  0  0  0
  3 10  1  0  0  0  0
  3 35  1  1  0  0  0
  4  5  1  0  0  0  0
  4 36  1  1  0  0  0
  4 11  1  0  0  0  0
  5  6  1  0  0  0  0
  5 37  1  1  0  0  0
  5 12  1  0  0  0  0
  7  8  1  0  0  0  0
  7 38  1  0  0  0  0
  7 39  1  0  0  0  0
  8 40  1  0  0  0  0
  9 41  1  0  0  0  0
 10 42  1  0  0  0  0
 10 43  1  0  0  0  0
 11 44  1  0  0  0  0
 13 14  1  0  0  0  0
 13 18  1  0  0  0  0
 13 45  1  1  0  0  0
 13 12  1  0  0  0  0
 14 15  1  0  0  0  0
 14 19  1  0  0  0  0
 14 46  1  6  0  0  0
 15 16  1  0  0  0  0
 15 47  1  0  0  0  0
 15 48  1  0  0  0  0
 16 17  1  0  0  0  0
 16 20  1  0  0  0  0
 16 49  1  6  0  0  0
 17 18  1  0  0  0  0
 17 50  1  1  0  0  0
 17 22  1  0  0  0  0
 18 51  1  6  0  0  0
 18 21  1  0  0  0  0
 19 52  1  0  0  0  0
 19 53  1  0  0  0  0
 20 54  1  0  0  0  0
 20 55  1  0  0  0  0
 21 56  1  0  0  0  0
 23 24  1  0  0  0  0
 23 28  1  0  0  0  0
 23 57  1  6  0  0  0
 23 22  1  0  0  0  0
 24 25  1  0  0  0  0
 25 26  1  0  0  0  0
 25 29  1  0  0  0  0
 25 58  1  1  0  0  0
 26 27  1  0  0  0  0
 26 59  1  6  0  0  0
 26 31  1  0  0  0  0
 27 28  1  0  0  0  0
 27 60  1  0  0  0  0
 27 61  1  0  0  0  0
 28 32  1  0  0  0  0
 28 62  1  6  0  0  0
 29 30  1  0  0  0  0
 29 63  1  0  0  0  0
 29 64  1  0  0  0  0
 30 65  1  0  0  0  0
 30 66  1  0  0  0  0
 31 67  1  0  0  0  0
 32 68  1  0  0  0  0
 32 69  1  0  0  0  0
M  END
>  <DRUGBANK_ID>
DB00684

>  <SECONDARY_ACCESSION_NUMBERS>
APRD00582

>  <COMMON_NAME>
Tobramycin

>  <CAS_NUMBER>
32986-56-4

>  <UNII>
VZ8RRZ51VK

>  <SYNONYMS>
3'-Deoxykanamycin B; Nebramycin 6; O-3-Amino-3-deoxy-alpha-D-glucopyranosyl-(1-4)-O-(2,6-diamino-2,3,6-trideoxy-alpha-D-ribohexopyranosyl-(1-4))-2-deoxy-D-streptamine; Tobramicina; Tobramycin; Tobramycine; Tobramycinum

$$$$
