
 OpenBabel10282417153D

 79 84  0  0  0  0  0  0  0  0999 V2000
    1.1459    0.0229    0.4357 C   0  0  0  0  0  0  0  0  0  0  0  0
    0.4799   -0.9692    1.2218 N   0  0  0  0  0  0  0  0  0  0  0  0
   -0.9872   -0.8088    1.3451 C   0  0  0  0  0  0  0  0  0  0  0  0
   -1.9171   -1.5631    0.4285 C   0  0  0  0  0  0  0  0  0  0  0  0
   -1.8613   -2.9689    0.3768 C   0  0  0  0  0  0  0  0  0  0  0  0
   -2.3626   -3.6292   -0.7121 C   0  0  0  0  0  0  0  0  0  0  0  0
   -3.0847   -2.8620   -1.5834 C   0  0  0  0  0  0  0  0  0  0  0  0
   -3.5339   -1.5780   -1.3472 C   0  0  0  0  0  0  0  0  0  0  0  0
   -2.8207   -0.8799   -0.3978 C   0  0  0  0  0  0  0  0  0  0  0  0
    1.0055   -2.2872    0.8341 C   0  0  0  0  0  0  0  0  0  0  0  0
    0.7657   -2.8526   -0.6783 C   0  0  0  0  0  0  0  0  0  0  0  0
    0.8731   -4.3717   -0.8937 C   0  0  0  0  0  0  0  0  0  0  0  0
    1.0712   -5.5634   -0.0484 C   0  0  0  0  0  0  0  0  0  0  0  0
    1.3597   -5.4563    1.1591 O   0  0  0  0  0  0  0  0  0  0  0  0
    0.9602   -6.8090   -0.7464 N   0  0  0  0  0  0  0  0  0  0  0  0
    0.5075   -6.9669   -2.0835 C   0  0  0  0  0  0  0  0  0  0  0  0
    0.4134   -8.0667   -2.6357 O   0  0  0  0  0  0  0  0  0  0  0  0
    0.1710   -5.8054   -2.7833 N   0  0  0  0  0  0  0  0  0  0  0  0
    0.5707   -4.6239   -2.2041 C   0  0  0  0  0  0  0  0  0  0  0  0
    1.0183   -3.2937   -3.1376 S   0  0  0  0  0  0  0  0  0  0  0  0
    0.2111   -2.2932   -1.9648 C   0  0  0  0  0  0  0  0  0  0  0  0
   -0.4870   -1.0240   -2.5769 C   0  0  0  0  0  0  0  0  0  0  0  0
   -1.6718   -0.6348   -3.2655 C   0  0  0  0  0  0  0  0  0  0  0  0
   -2.1994    0.7783   -3.2797 C   0  0  0  0  0  0  0  0  0  0  0  0
   -1.4606    1.7722   -2.6746 C   0  0  0  0  0  0  0  0  0  0  0  0
   -0.6462    1.1120   -1.8289 C   0  0  0  0  0  0  0  0  0  0  0  0
    0.1615    0.1014   -2.3759 C   0  0  0  0  0  0  0  0  0  0  0  0
   -1.4853    3.2332   -2.9223 N   0  0  0  0  0  0  0  0  0  0  0  0
   -0.6695    4.3876   -2.8881 C   0  0  0  0  0  0  0  0  0  0  0  0
   -1.2492    5.4730   -3.2047 O   0  0  0  0  0  0  0  0  0  0  0  0
    0.6486    4.5836   -2.6292 N   0  0  0  0  0  0  0  0  0  0  0  0
    1.7814    3.7620   -2.6624 O   0  0  0  0  0  0  0  0  0  0  0  0
    1.2830    2.5215   -2.4492 C   0  0  0  0  0  0  0  0  0  0  0  0
   -0.4092   -5.9117   -4.1518 C   0  0  0  0  0  0  0  0  0  0  0  0
   -1.8616   -5.4969   -4.3514 C   0  0  0  0  0  0  0  0  0  0  0  0
   -2.2282   -4.1651   -4.3981 C   0  0  0  0  0  0  0  0  0  0  0  0
   -3.5560   -3.7053   -4.4888 C   0  0  0  0  0  0  0  0  0  0  0  0
   -4.5828   -4.5832   -4.6723 C   0  0  0  0  0  0  0  0  0  0  0  0
   -4.2232   -5.8951   -4.9193 C   0  0  0  0  0  0  0  0  0  0  0  0
   -2.9017   -6.3545   -4.6928 C   0  0  0  0  0  0  0  0  0  0  0  0
   -2.6518   -7.6526   -4.8945 F   0  0  0  0  0  0  0  0  0  0  0  0
   -1.2912   -3.2309   -4.3202 F   0  0  0  0  0  0  0  0  0  0  0  0
    1.4244   -8.0097   -0.0919 C   0  0  0  0  0  0  0  0  0  0  0  0
    2.4528   -8.7785   -0.6712 C   0  0  0  0  0  0  0  0  0  0  0  0
    3.0451   -9.8303    0.0360 C   0  0  0  0  0  0  0  0  0  0  0  0
    2.5992  -10.1404    1.3178 C   0  0  0  0  0  0  0  0  0  0  0  0
    1.5457   -9.4193    1.8787 C   0  0  0  0  0  0  0  0  0  0  0  0
    0.9322   -8.3877    1.1605 C   0  0  0  0  0  0  0  0  0  0  0  0
    0.8441    1.0572    0.5931 H   0  0  0  0  0  0  0  0  0  0  0  0
    0.8258   -0.2977   -0.5045 H   0  0  0  0  0  0  0  0  0  0  0  0
    2.2354   -0.0251    0.3403 H   0  0  0  0  0  0  0  0  0  0  0  0
   -1.2813   -1.1434    2.3414 H   0  0  0  0  0  0  0  0  0  0  0  0
   -1.2542    0.2591    1.3097 H   0  0  0  0  0  0  0  0  0  0  0  0
   -1.1822   -3.5190    1.0120 H   0  0  0  0  0  0  0  0  0  0  0  0
   -1.9345   -4.5687   -1.0580 H   0  0  0  0  0  0  0  0  0  0  0  0
   -2.7782   -3.0326   -2.5870 H   0  0  0  0  0  0  0  0  0  0  0  0
   -4.0603   -1.0576   -2.1472 H   0  0  0  0  0  0  0  0  0  0  0  0
   -2.8262    0.2058   -0.4516 H   0  0  0  0  0  0  0  0  0  0  0  0
    2.0965   -2.2498    1.0018 H   0  0  0  0  0  0  0  0  0  0  0  0
    0.6715   -2.9816    1.6159 H   0  0  0  0  0  0  0  0  0  0  0  0
   -2.3304   -1.3434   -3.7342 H   0  0  0  0  0  0  0  0  0  0  0  0
   -3.2338    0.9678   -3.5740 H   0  0  0  0  0  0  0  0  0  0  0  0
   -0.4115    1.5348   -0.8657 H   0  0  0  0  0  0  0  0  0  0  0  0
    1.2245   -0.0344   -2.2018 H   0  0  0  0  0  0  0  0  0  0  0  0
   -2.3570    3.5172   -3.3584 H   0  0  0  0  0  0  0  0  0  0  0  0
    0.9868    5.5377   -2.5693 H   0  0  0  0  0  0  0  0  0  0  0  0
    0.5824    2.7484   -1.6421 H   0  0  0  0  0  0  0  0  0  0  0  0
    0.8285    2.1934   -3.4036 H   0  0  0  0  0  0  0  0  0  0  0  0
    1.9272    1.7787   -1.9987 H   0  0  0  0  0  0  0  0  0  0  0  0
    0.2119   -5.2971   -4.8099 H   0  0  0  0  0  0  0  0  0  0  0  0
   -0.2826   -6.9334   -4.5138 H   0  0  0  0  0  0  0  0  0  0  0  0
   -3.7925   -2.6561   -4.3309 H   0  0  0  0  0  0  0  0  0  0  0  0
   -5.6035   -4.2139   -4.6869 H   0  0  0  0  0  0  0  0  0  0  0  0
   -4.9708   -6.5589   -5.3357 H   0  0  0  0  0  0  0  0  0  0  0  0
    2.8391   -8.5410   -1.6603 H   0  0  0  0  0  0  0  0  0  0  0  0
    3.8774  -10.3810   -0.3976 H   0  0  0  0  0  0  0  0  0  0  0  0
    3.0711  -10.9420    1.8811 H   0  0  0  0  0  0  0  0  0  0  0  0
    1.2196   -9.6377    2.8925 H   0  0  0  0  0  0  0  0  0  0  0  0
    0.0661   -7.8888    1.5857 H   0  0  0  0  0  0  0  0  0  0  0  0
  1  2  1  0  0  0  0
  1 49  1  0  0  0  0
  1 50  1  0  0  0  0
  1 51  1  0  0  0  0
  2  3  1  0  0  0  0
  2 10  1  0  0  0  0
  3  4  1  0  0  0  0
  3 52  1  0  0  0  0
  3 53  1  0  0  0  0
  4  5  2  0  0  0  0
  4  9  1  0  0  0  0
  5  6  1  0  0  0  0
  5 54  1  0  0  0  0
  6  7  2  0  0  0  0
  6 55  1  0  0  0  0
  7  8  1  0  0  0  0
  7 56  1  0  0  0  0
  8  9  2  0  0  0  0
  8 57  1  0  0  0  0
  9 58  1  0  0  0  0
 10 11  1  0  0  0  0
 10 59  1  0  0  0  0
 10 60  1  0  0  0  0
 11 12  1  0  0  0  0
 11 21  2  0  0  0  0
 12 13  1  0  0  0  0
 12 19  2  0  0  0  0
 13 14  2  0  0  0  0
 13 15  1  0  0  0  0
 15 16  1  0  0  0  0
 15 43  1  0  0  0  0
 16 17  2  0  0  0  0
 16 18  1  0  0  0  0
 18 19  1  0  0  0  0
 18 34  1  0  0  0  0
 19 20  1  0  0  0  0
 20 21  1  0  0  0  0
 21 22  1  0  0  0  0
 22 23  2  0  0  0  0
 22 27  1  0  0  0  0
 23 24  1  0  0  0  0
 23 61  1  0  0  0  0
 24 25  2  0  0  0  0
 24 62  1  0  0  0  0
 25 26  1  0  0  0  0
 25 28  1  0  0  0  0
 26 27  2  0  0  0  0
 26 63  1  0  0  0  0
 27 64  1  0  0  0  0
 28 29  1  0  0  0  0
 28 65  1  0  0  0  0
 29 30  2  0  0  0  0
 29 31  1  0  0  0  0
 31 32  1  0  0  0  0
 31 66  1  0  0  0  0
 32 33  1  0  0  0  0
 33 67  1  0  0  0  0
 33 68  1  0  0  0  0
 33 69  1  0  0  0  0
 34 35  1  0  0  0  0
 34 70  1  0  0  0  0
 34 71  1  0  0  0  0
 35 36  2  0  0  0  0
 35 40  1  0  0  0  0
 36 37  1  0  0  0  0
 36 42  1  0  0  0  0
 37 38  2  0  0  0  0
 37 72  1  0  0  0  0
 38 39  1  0  0  0  0
 38 73  1  0  0  0  0
 39 40  2  0  0  0  0
 39 74  1  0  0  0  0
 40 41  1  0  0  0  0
 43 44  2  0  0  0  0
 43 48  1  0  0  0  0
 44 45  1  0  0  0  0
 44 75  1  0  0  0  0
 45 46  2  0  0  0  0
 45 76  1  0  0  0  0
 46 47  1  0  0  0  0
 46 77  1  0  0  0  0
 47 48  2  0  0  0  0
 47 78  1  0  0  0  0
 48 79  1  0  0  0  0
M  END
>  <DRUGBANK_ID>
DB06494

>  <COMMON_NAME>
Sufugolix

>  <CAS_NUMBER>
308831-61-0

>  <UNII>
56S17Z6X9M

>  <SYNONYMS>
Sufugolix

$$$$
