
 OpenBabel10282417173D

 37 39  0  0  0  0  0  0  0  0999 V2000
    1.7310    1.1946   -0.0363 C   0  0  0  0  0  0  0  0  0  0  0  0
    1.7563   -1.2188   -0.0542 C   0  0  0  0  0  0  0  0  0  0  0  0
    0.3333    1.1941   -0.0312 C   0  0  0  0  0  0  0  0  0  0  0  0
    0.3529   -1.2214   -0.0431 C   0  0  0  0  0  0  0  0  0  0  0  0
    6.0202    0.5511    0.5397 C   0  0  0  0  0  0  0  0  0  0  0  0
    4.6991    0.6719    1.0064 C   0  0  0  0  0  0  0  0  0  0  0  0
    8.8839   -2.4221    3.6634 C   0  0  0  0  0  0  0  0  0  0  0  0
    8.7932   -3.5029    2.5775 C   0  0  0  0  0  0  0  0  0  0  0  0
    7.1623   -0.8491   -1.2262 C   0  0  0  0  0  0  0  0  0  0  0  0
    2.4588   -0.0095   -0.0516 C   0  0  0  0  0  0  0  0  0  0  0  0
   -0.3508   -0.0166   -0.0311 C   0  0  0  0  0  0  0  0  0  0  0  0
    6.0192   -0.3013   -0.5604 C   0  0  0  0  0  0  0  0  0  0  0  0
    3.9089    0.0483    0.0709 C   0  0  0  0  0  0  0  0  0  0  0  0
    7.9728   -1.7310   -0.6148 C   0  0  0  0  0  0  0  0  0  0  0  0
    7.7042   -1.5043    3.7161 C   0  0  0  0  0  0  0  0  0  0  0  0
    7.7099   -2.3671    0.7036 C   0  0  0  0  0  0  0  0  0  0  0  0
    9.8618   -3.1714    0.2912 C   0  0  0  0  0  0  0  0  0  0  0  0
   -2.0716   -0.0214   -0.0032 Cl  0  0  0  0  0  0  0  0  0  0  0  0
    8.8453   -2.9826    1.2001 N   0  0  0  0  0  0  0  0  0  0  0  0
    6.7258   -1.6066    4.4412 O   0  0  0  0  0  0  0  0  0  0  0  0
    7.7565   -0.5498    2.7749 O   0  0  0  0  0  0  0  0  0  0  0  0
    6.6231   -2.3744    1.2551 O   0  0  0  0  0  0  0  0  0  0  0  0
    4.6914   -0.5517   -0.8808 O   0  0  0  0  0  0  0  0  0  0  0  0
   11.2469   -4.0832    0.4781 S   0  0  0  0  0  0  0  0  0  0  0  0
    9.4930   -2.2940   -1.2051 S   0  0  0  0  0  0  0  0  0  0  0  0
    7.3993   -0.4601   -2.2118 H   0  0  0  0  0  0  0  0  0  0  0  0
    2.2542    2.1489   -0.0155 H   0  0  0  0  0  0  0  0  0  0  0  0
    2.2924   -2.1646   -0.0244 H   0  0  0  0  0  0  0  0  0  0  0  0
   -0.2080    2.1366   -0.0167 H   0  0  0  0  0  0  0  0  0  0  0  0
   -0.1857   -2.1656   -0.0293 H   0  0  0  0  0  0  0  0  0  0  0  0
    6.9064    0.9589    1.0056 H   0  0  0  0  0  0  0  0  0  0  0  0
    4.3426    1.1750    1.8948 H   0  0  0  0  0  0  0  0  0  0  0  0
    8.9322   -2.9030    4.6465 H   0  0  0  0  0  0  0  0  0  0  0  0
    9.7913   -1.8205    3.5516 H   0  0  0  0  0  0  0  0  0  0  0  0
    7.8655   -4.0779    2.6837 H   0  0  0  0  0  0  0  0  0  0  0  0
    9.6192   -4.1997    2.7436 H   0  0  0  0  0  0  0  0  0  0  0  0
    6.7914   -0.4296    2.6158 H   0  0  0  0  0  0  0  0  0  0  0  0
  1 27  1  0  0  0  0
  2 28  1  0  0  0  0
  3  1  1  0  0  0  0
  3 29  1  0  0  0  0
  4  2  2  0  0  0  0
  4 30  1  0  0  0  0
  5 31  1  0  0  0  0
  6  5  1  0  0  0  0
  6 32  1  0  0  0  0
  7 33  1  0  0  0  0
  7 34  1  0  0  0  0
  8  7  1  0  0  0  0
  8 35  1  0  0  0  0
  8 36  1  0  0  0  0
 10  1  2  0  0  0  0
 10  2  1  0  0  0  0
 11  3  2  0  0  0  0
 11  4  1  0  0  0  0
 12  5  2  0  0  0  0
 12  9  1  0  0  0  0
 13  6  2  0  0  0  0
 13 10  1  0  0  0  0
 14  9  2  0  0  0  0
 15  7  1  0  0  0  0
 16 14  1  0  0  0  0
 18 11  1  0  0  0  0
 19  8  1  0  0  0  0
 19 16  1  0  0  0  0
 19 17  1  0  0  0  0
 20 15  2  0  0  0  0
 21 15  1  0  0  0  0
 21 37  1  0  0  0  0
 22 16  2  0  0  0  0
 23 12  1  0  0  0  0
 23 13  1  0  0  0  0
 24 17  2  0  0  0  0
 25 14  1  0  0  0  0
 25 17  1  0  0  0  0
 26  9  1  0  0  0  0
M  END
>  <DRUGBANK_ID>
DB08177

>  <COMMON_NAME>
(E)-3-(5((5-(4-CHLOROPHENYL)FURAN-2-YL)METHYLENE)-4-OXO-2-THIOXOTHIAZOLIDIN-3-YL)PROPANOIC ACID

$$$$
