
 OpenBabel10282417223D

 18 19  0  0  0  0  0  0  0  0999 V2000
   -0.0192    0.7034    0.0958 C   0  0  0  0  0  0  0  0  0  0  0  0
   -0.0282   -0.7149    0.0672 C   0  0  0  0  0  0  0  0  0  0  0  0
    1.2135    1.3916    0.0774 C   0  0  0  0  0  0  0  0  0  0  0  0
   -1.2649    1.3561    0.0653 C   0  0  0  0  0  0  0  0  0  0  0  0
    1.2086   -1.3738    0.0039 C   0  0  0  0  0  0  0  0  0  0  0  0
   -1.1869   -1.4092    0.0496 N   0  0  0  0  0  0  0  0  0  0  0  0
    2.4208    0.7030   -0.0191 C   0  0  0  0  0  0  0  0  0  0  0  0
    1.2994    3.1250    0.0760 Cl  0  0  0  0  0  0  0  0  0  0  0  0
   -2.4307    0.6363   -0.1301 C   0  0  0  0  0  0  0  0  0  0  0  0
    2.4216   -0.6869   -0.0576 C   0  0  0  0  0  0  0  0  0  0  0  0
    1.2255   -2.7505   -0.0452 O   0  0  0  0  0  0  0  0  0  0  0  0
   -2.3487   -0.7380   -0.0777 C   0  0  0  0  0  0  0  0  0  0  0  0
   -1.3332    2.4395    0.1416 H   0  0  0  0  0  0  0  0  0  0  0  0
    3.3580    1.2479   -0.0897 H   0  0  0  0  0  0  0  0  0  0  0  0
   -3.3702    1.1367   -0.3280 H   0  0  0  0  0  0  0  0  0  0  0  0
    3.3658   -1.2132   -0.1526 H   0  0  0  0  0  0  0  0  0  0  0  0
    2.1375   -3.0702   -0.1135 H   0  0  0  0  0  0  0  0  0  0  0  0
   -3.2381   -1.3549   -0.1456 H   0  0  0  0  0  0  0  0  0  0  0  0
  1  2  1  0  0  0  0
  1  3  1  0  0  0  0
  1  4  2  0  0  0  0
  2  5  1  0  0  0  0
  2  6  2  0  0  0  0
  3  7  2  0  0  0  0
  3  8  1  0  0  0  0
  4  9  1  0  0  0  0
  4 13  1  0  0  0  0
  5 10  2  0  0  0  0
  5 11  1  0  0  0  0
  6 12  1  0  0  0  0
  7 10  1  0  0  0  0
  7 14  1  0  0  0  0
  9 12  2  0  0  0  0
  9 15  1  0  0  0  0
 10 16  1  0  0  0  0
 11 17  1  0  0  0  0
 12 18  1  0  0  0  0
M  END
>  <DRUGBANK_ID>
DB15933

>  <COMMON_NAME>
Cloxyquin

>  <CAS_NUMBER>
130-16-5

>  <UNII>
BPF36H1G6S

>  <SYNONYMS>
5-Chloro-8-hydroxyquinoline; Cloxiquina; Cloxiquine; Cloxiquinum; Cloxyquin

$$$$
