1056
 OpenBabel10282417113D

 30 30  0  0  1  0  0  0  0  0999 V2000
    1.0543    0.1269    0.2711 O   0  0  0  0  0  0  0  0  0  0  0  0
    3.0996    0.4327    1.1549 N   0  0  0  0  0  0  0  0  0  0  0  0
    2.5322   -1.8658   -1.5177 N   0  0  0  0  0  0  0  0  0  0  0  0
    4.5133    0.5125    1.2291 C   0  0  0  0  0  0  0  0  0  0  0  0
    5.2866    1.1544    0.2346 C   0  0  0  0  0  0  0  0  0  0  0  0
    5.1814   -0.0445    2.3450 C   0  0  0  0  0  0  0  0  0  0  0  0
    2.8888   -0.4642   -1.2225 C   0  0  3  0  0  0  0  0  0  0  0  0
    2.2850    0.0662    0.1001 C   0  0  0  0  0  0  0  0  0  0  0  0
    6.6818    1.0508    0.2460 C   0  0  0  0  0  0  0  0  0  0  0  0
    6.5914   -0.0833    2.3498 C   0  0  0  0  0  0  0  0  0  0  0  0
    4.7230    1.9741   -0.8797 C   0  0  0  0  0  0  0  0  0  0  0  0
    4.4733   -0.6662    3.5215 C   0  0  0  0  0  0  0  0  0  0  0  0
    7.3334    0.4302    1.2929 C   0  0  0  0  0  0  0  0  0  0  0  0
    2.4506    0.4164   -2.4075 C   0  0  0  0  0  0  0  0  0  0  0  0
    2.5795    0.5244    2.0212 H   0  0  0  0  0  0  0  0  0  0  0  0
    3.0752   -2.1416   -2.3389 H   0  0  0  0  0  0  0  0  0  0  0  0
    2.8804   -2.4506   -0.7591 H   0  0  0  0  0  0  0  0  0  0  0  0
    3.9714   -0.5289   -1.1237 H   0  0  0  0  0  0  0  0  0  0  0  0
    7.2596    1.4702   -0.5747 H   0  0  0  0  0  0  0  0  0  0  0  0
    7.1299   -0.5389    3.1780 H   0  0  0  0  0  0  0  0  0  0  0  0
    4.3537    1.2847   -1.6057 H   0  0  0  0  0  0  0  0  0  0  0  0
    3.9513    2.6714   -0.5447 H   0  0  0  0  0  0  0  0  0  0  0  0
    5.4693    2.5000   -1.4783 H   0  0  0  0  0  0  0  0  0  0  0  0
    3.8442    0.0713    4.0287 H   0  0  0  0  0  0  0  0  0  0  0  0
    3.8699   -1.5228    3.2077 H   0  0  0  0  0  0  0  0  0  0  0  0
    5.1923   -1.0342    4.2655 H   0  0  0  0  0  0  0  0  0  0  0  0
    8.4172    0.3727    1.2899 H   0  0  0  0  0  0  0  0  0  0  0  0
    2.5424    1.4921   -2.2065 H   0  0  0  0  0  0  0  0  0  0  0  0
    3.0649    0.1994   -3.2908 H   0  0  0  0  0  0  0  0  0  0  0  0
    1.3977    0.2824   -2.6610 H   0  0  0  0  0  0  0  0  0  0  0  0
  1  8  2  0  0  0  0
  2  4  1  0  0  0  0
  2  8  1  0  0  0  0
  2 15  1  0  0  0  0
  3  7  1  0  0  0  0
  3 16  1  0  0  0  0
  3 17  1  0  0  0  0
  4  5  2  0  0  0  0
  4  6  1  0  0  0  0
  5  9  1  0  0  0  0
  5 11  1  0  0  0  0
  6 10  2  0  0  0  0
  6 12  1  0  0  0  0
  7  8  1  0  0  0  0
  7 14  1  0  0  0  0
  7 18  1  0  0  0  0
  9 13  2  0  0  0  0
  9 19  1  0  0  0  0
 10 13  1  0  0  0  0
 10 20  1  0  0  0  0
 11 21  1  0  0  0  0
 11 22  1  0  0  0  0
 11 23  1  0  0  0  0
 12 24  1  0  0  0  0
 12 25  1  0  0  0  0
 12 26  1  0  0  0  0
 13 27  1  0  0  0  0
 14 28  1  0  0  0  0
 14 29  1  0  0  0  0
 14 30  1  0  0  0  0
M  END
>  <DRUGBANK_ID>
DB01056

>  <SECONDARY_ACCESSION_NUMBERS>
APRD01266

>  <COMMON_NAME>
Tocainide

>  <CAS_NUMBER>
41708-72-9

>  <UNII>
27DXO59SAN

>  <SYNONYMS>
2-Amino-2',6'-propionoxylidide; 2-amino-N-(2,6-dimethylphenyl)propanamide; 2-Amino-N-(2,6-dimethylphenyl)propionamid; Alanyl-2,6-xylidide; Tocainida; Tocainide; Tocainidum

$$$$
