
 OpenBabel10282417233D

 12 12  0  0  0  0  0  0  0  0999 V2000
    0.7888   -0.0387   -0.0960 O   0  0  0  0  0  0  0  0  0  0  0  0
    0.2142   -1.2177   -0.4289 C   0  0  0  0  0  0  0  0  0  0  0  0
    0.9146   -2.1991   -0.6562 O   0  0  0  0  0  0  0  0  0  0  0  0
   -1.2417   -1.2151   -0.4084 C   0  0  0  0  0  0  0  0  0  0  0  0
   -2.0423   -2.2411    0.0590 C   0  0  0  0  0  0  0  0  0  0  0  0
   -3.3289   -1.8187   -0.1216 N   0  0  0  0  0  0  0  0  0  0  0  0
   -3.2791   -0.5890   -0.7136 C   0  0  0  0  0  0  0  0  0  0  0  0
   -2.0405   -0.1810   -0.8735 N   0  0  0  0  0  0  0  0  0  0  0  0
    1.7470   -0.2301   -0.1117 H   0  0  0  0  0  0  0  0  0  0  0  0
   -1.8008   -3.1948    0.5064 H   0  0  0  0  0  0  0  0  0  0  0  0
   -4.1691   -2.3235    0.1270 H   0  0  0  0  0  0  0  0  0  0  0  0
   -4.1716   -0.0465   -0.9981 H   0  0  0  0  0  0  0  0  0  0  0  0
  1  2  1  0  0  0  0
  1  9  1  0  0  0  0
  2  3  2  0  0  0  0
  2  4  1  0  0  0  0
  4  5  2  0  0  0  0
  4  8  1  0  0  0  0
  5  6  1  0  0  0  0
  5 10  1  0  0  0  0
  6  7  1  0  0  0  0
  6 11  1  0  0  0  0
  7  8  2  0  0  0  0
  7 12  1  0  0  0  0
M  END
>  <DRUGBANK_ID>
DB16194

>  <COMMON_NAME>
Imidazole-4-carboxylic acid

>  <CAS_NUMBER>
1072-84-0

>  <UNII>
AE82Z8U4GJ

>  <SYNONYMS>
4-Carboxyimidazole; 4-Imidazolecarboxylic acid

$$$$
