4PN
 OpenBabel10282417133D

 32 33  0  0  0  0  0  0  0  0999 V2000
    0.6263    1.2451   -0.2193 C   0  0  0  0  0  0  0  0  0  0  0  0
   -0.8163    1.3643    0.2902 C   0  0  0  0  0  0  0  0  0  0  0  0
   -1.6567    0.1563   -0.1105 C   0  0  0  0  0  0  0  0  0  0  0  0
   -1.0008   -1.1065    0.4055 C   0  0  0  0  0  0  0  0  0  0  0  0
    0.4337   -1.1521   -0.0714 C   0  0  0  0  0  0  0  0  0  0  0  0
    1.2738    0.0004    0.2358 N   0  0  0  0  0  0  0  0  0  0  0  0
    2.6788   -0.1220   -0.2631 C   0  0  0  0  0  0  0  0  0  0  0  0
    2.8913   -0.1127   -1.7921 C   0  0  0  0  0  0  0  0  0  0  0  0
    2.5718   -1.4407   -2.4725 C   0  0  0  0  0  0  0  0  0  0  0  0
    3.2837   -2.5727   -1.8836 N   0  0  0  0  0  0  0  0  0  0  0  0
    3.1859   -2.6599   -0.4268 C   0  0  0  0  0  0  0  0  0  0  0  0
    3.4524   -1.3376    0.3009 C   0  0  0  0  0  0  0  0  0  0  0  0
    0.5963    1.2970   -1.3120 H   0  0  0  0  0  0  0  0  0  0  0  0
    1.1956    2.1163    0.1318 H   0  0  0  0  0  0  0  0  0  0  0  0
   -1.2737    2.2701   -0.1228 H   0  0  0  0  0  0  0  0  0  0  0  0
   -0.8132    1.4620    1.3811 H   0  0  0  0  0  0  0  0  0  0  0  0
   -2.6732    0.2292    0.2869 H   0  0  0  0  0  0  0  0  0  0  0  0
   -1.7347    0.1048   -1.2033 H   0  0  0  0  0  0  0  0  0  0  0  0
   -1.0420   -1.1699    1.4954 H   0  0  0  0  0  0  0  0  0  0  0  0
   -1.5172   -1.9884    0.0036 H   0  0  0  0  0  0  0  0  0  0  0  0
    0.8393   -2.0443    0.4018 H   0  0  0  0  0  0  0  0  0  0  0  0
    0.3610   -1.2820   -1.1404 H   0  0  0  0  0  0  0  0  0  0  0  0
    3.2012    0.7627    0.1336 H   0  0  0  0  0  0  0  0  0  0  0  0
    2.3387    0.7006   -2.2722 H   0  0  0  0  0  0  0  0  0  0  0  0
    3.9486    0.1164   -1.9870 H   0  0  0  0  0  0  0  0  0  0  0  0
    1.5033   -1.6475   -2.5107 H   0  0  0  0  0  0  0  0  0  0  0  0
    2.8506   -1.3645   -3.5283 H   0  0  0  0  0  0  0  0  0  0  0  0
    2.9011   -3.4322   -2.2798 H   0  0  0  0  0  0  0  0  0  0  0  0
    3.9144   -3.3992   -0.0756 H   0  0  0  0  0  0  0  0  0  0  0  0
    2.2283   -3.1058   -0.1575 H   0  0  0  0  0  0  0  0  0  0  0  0
    4.5282   -1.1267    0.2073 H   0  0  0  0  0  0  0  0  0  0  0  0
    3.2678   -1.4452    1.3770 H   0  0  0  0  0  0  0  0  0  0  0  0
  1  2  1  0  0  0  0
  1  6  1  0  0  0  0
  1 13  1  0  0  0  0
  1 14  1  0  0  0  0
  2  3  1  0  0  0  0
  2 15  1  0  0  0  0
  2 16  1  0  0  0  0
  3  4  1  0  0  0  0
  3 17  1  0  0  0  0
  3 18  1  0  0  0  0
  4  5  1  0  0  0  0
  4 19  1  0  0  0  0
  4 20  1  0  0  0  0
  5  6  1  0  0  0  0
  5 21  1  0  0  0  0
  5 22  1  0  0  0  0
  6  7  1  0  0  0  0
  7  8  1  0  0  0  0
  7 12  1  0  0  0  0
  7 23  1  0  0  0  0
  8  9  1  0  0  0  0
  8 24  1  0  0  0  0
  8 25  1  0  0  0  0
  9 10  1  0  0  0  0
  9 26  1  0  0  0  0
  9 27  1  0  0  0  0
 10 11  1  0  0  0  0
 10 28  1  0  0  0  0
 11 12  1  0  0  0  0
 11 29  1  0  0  0  0
 11 30  1  0  0  0  0
 12 31  1  0  0  0  0
 12 32  1  0  0  0  0
M  END
>  <DRUGBANK_ID>
DB03056

>  <SECONDARY_ACCESSION_NUMBERS>
EXPT00227

>  <COMMON_NAME>
4-Piperidino-Piperidine

>  <UNII>
WBP6BM27HP

$$$$
