LI6
 OpenBabel10282417123D

 23 24  0  0  0  0  0  0  0  0999 V2000
   -1.2378    1.3526    0.0651 C   0  0  0  0  0  0  0  0  0  0  0  0
   -0.0060    0.6865    0.0995 C   0  0  0  0  0  0  0  0  0  0  0  0
    0.0088   -0.7201    0.0957 C   0  0  0  0  0  0  0  0  0  0  0  0
    1.2871   -1.4254    0.0183 C   0  0  0  0  0  0  0  0  0  0  0  0
    2.4357   -0.7431   -0.0601 C   0  0  0  0  0  0  0  0  0  0  0  0
    3.5469    1.3025   -0.1190 O   0  0  0  0  0  0  0  0  0  0  0  0
    2.4429    0.7491   -0.0336 C   0  0  0  0  0  0  0  0  0  0  0  0
    3.6496   -1.4068   -0.1782 O   0  0  0  0  0  0  0  0  0  0  0  0
    1.2288    1.4045    0.0722 N   0  0  0  0  0  0  0  0  0  0  0  0
    1.2149    2.8582    0.0628 C   0  0  0  0  0  0  0  0  0  0  0  0
    1.2527   -2.8060   -0.0320 O   0  0  0  0  0  0  0  0  0  0  0  0
   -2.4153    0.6381   -0.1433 C   0  0  0  0  0  0  0  0  0  0  0  0
   -2.4080   -0.7476   -0.0503 C   0  0  0  0  0  0  0  0  0  0  0  0
   -1.2026   -1.4237    0.1167 C   0  0  0  0  0  0  0  0  0  0  0  0
   -1.3107    2.4311    0.1578 H   0  0  0  0  0  0  0  0  0  0  0  0
    4.3121   -0.6811   -0.2145 H   0  0  0  0  0  0  0  0  0  0  0  0
    0.6502    3.2149   -0.8054 H   0  0  0  0  0  0  0  0  0  0  0  0
    0.7559    3.2205    0.9883 H   0  0  0  0  0  0  0  0  0  0  0  0
    2.2238    3.2730   -0.0018 H   0  0  0  0  0  0  0  0  0  0  0  0
    2.1835   -3.0915   -0.1206 H   0  0  0  0  0  0  0  0  0  0  0  0
   -3.3341    1.1677   -0.3799 H   0  0  0  0  0  0  0  0  0  0  0  0
   -3.3379   -1.3046   -0.1149 H   0  0  0  0  0  0  0  0  0  0  0  0
   -1.2072   -2.5071    0.2115 H   0  0  0  0  0  0  0  0  0  0  0  0
  1  2  2  0  0  0  0
  1 12  1  0  0  0  0
  1 15  1  0  0  0  0
  2  3  1  0  0  0  0
  2  9  1  0  0  0  0
  3  4  1  0  0  0  0
  3 14  2  0  0  0  0
  4  5  2  0  0  0  0
  4 11  1  0  0  0  0
  5  7  1  0  0  0  0
  5  8  1  0  0  0  0
  6  7  2  0  0  0  0
  7  9  1  0  0  0  0
  8 16  1  0  0  0  0
  9 10  1  0  0  0  0
 10 17  1  0  0  0  0
 10 18  1  0  0  0  0
 10 19  1  0  0  0  0
 11 20  1  0  0  0  0
 12 13  2  0  0  0  0
 12 21  1  0  0  0  0
 13 14  1  0  0  0  0
 13 22  1  0  0  0  0
 14 23  1  0  0  0  0
M  END
>  <DRUGBANK_ID>
DB01754

>  <SECONDARY_ACCESSION_NUMBERS>
EXPT02028

>  <COMMON_NAME>
3,4-Dihydroxy-1-Methylquinolin-2(1h)-One

>  <UNII>
3LH3M77BN6

$$$$
