
 OpenBabel10282417163D

 49 51  0  0  0  0  0  0  0  0999 V2000
    1.3845   -0.2396    0.0238 C   0  0  0  0  0  0  0  0  0  0  0  0
    0.4986   -1.3195    0.0323 C   0  0  0  0  0  0  0  0  0  0  0  0
   -0.8758   -1.0944    0.0107 C   0  0  0  0  0  0  0  0  0  0  0  0
   -1.3653    0.2095    0.0306 C   0  0  0  0  0  0  0  0  0  0  0  0
   -0.4776    1.2893    0.0479 C   0  0  0  0  0  0  0  0  0  0  0  0
    0.9114    1.0811   -0.0124 C   0  0  0  0  0  0  0  0  0  0  0  0
    1.8290    2.2037   -0.2693 C   0  0  0  0  0  0  0  0  0  0  0  0
    1.8892    3.3330    0.5606 C   0  0  0  0  0  0  0  0  0  0  0  0
    2.5811    2.2159   -1.4585 C   0  0  0  0  0  0  0  0  0  0  0  0
    3.3672    3.3107   -1.8103 C   0  0  0  0  0  0  0  0  0  0  0  0
    3.3912    4.4299   -0.9905 C   0  0  0  0  0  0  0  0  0  0  0  0
    2.6212    4.4779    0.1778 C   0  0  0  0  0  0  0  0  0  0  0  0
    2.4710    5.7588    0.8818 C   0  0  0  0  0  0  0  0  0  0  0  0
    1.9936    6.8946    0.1739 C   0  0  0  0  0  0  0  0  0  0  0  0
    2.6184    5.8469    2.2663 C   0  0  0  0  0  0  0  0  0  0  0  0
    2.3128    7.0370    2.9197 C   0  0  0  0  0  0  0  0  0  0  0  0
    1.9187    8.1722    2.2021 C   0  0  0  0  0  0  0  0  0  0  0  0
    1.6358    8.0856    0.8388 C   0  0  0  0  0  0  0  0  0  0  0  0
    0.7096    9.1068    0.1840 C   0  0  0  0  0  0  0  0  0  0  0  0
   -0.8165    9.1184    0.6516 C   0  0  0  0  0  0  0  0  0  0  0  0
   -1.2725    9.6082    2.4757 P   0  0  0  0  0  0  0  0  0  0  0  0
   -0.7346    8.2453    2.8530 O   0  0  0  0  0  0  0  0  0  0  0  0
   -0.5438   11.0311    2.0463 O   0  0  0  0  0  0  0  0  0  0  0  0
   -0.5188   10.1694    3.8066 O   0  0  0  0  0  0  0  0  0  0  0  0
   -1.4038    7.4016    0.0803 P   0  0  0  0  0  0  0  0  0  0  0  0
   -1.2527    7.1825   -1.4129 O   0  0  0  0  0  0  0  0  0  0  0  0
   -0.5327    6.3873    0.9462 O   0  0  0  0  0  0  0  0  0  0  0  0
   -2.7641    6.7866    0.6263 O   0  0  0  0  0  0  0  0  0  0  0  0
   -1.5795   10.0815   -0.1479 O   0  0  0  0  0  0  0  0  0  0  0  0
    2.4553   -0.4312    0.0139 H   0  0  0  0  0  0  0  0  0  0  0  0
    0.8850   -2.3349    0.0258 H   0  0  0  0  0  0  0  0  0  0  0  0
   -1.5645   -1.9343   -0.0236 H   0  0  0  0  0  0  0  0  0  0  0  0
   -2.4371    0.3888    0.0015 H   0  0  0  0  0  0  0  0  0  0  0  0
   -0.8793    2.3010    0.0533 H   0  0  0  0  0  0  0  0  0  0  0  0
    1.3023    3.3465    1.4785 H   0  0  0  0  0  0  0  0  0  0  0  0
    2.5191    1.3768   -2.1485 H   0  0  0  0  0  0  0  0  0  0  0  0
    3.9160    3.3169   -2.7467 H   0  0  0  0  0  0  0  0  0  0  0  0
    3.9755    5.2985   -1.2850 H   0  0  0  0  0  0  0  0  0  0  0  0
    1.7206    6.7599   -0.8764 H   0  0  0  0  0  0  0  0  0  0  0  0
    2.9235    4.9779    2.8454 H   0  0  0  0  0  0  0  0  0  0  0  0
    2.2777    7.0572    4.0067 H   0  0  0  0  0  0  0  0  0  0  0  0
    1.6606    9.0648    2.7657 H   0  0  0  0  0  0  0  0  0  0  0  0
    1.1783   10.0908    0.2335 H   0  0  0  0  0  0  0  0  0  0  0  0
    0.6835    8.8930   -0.8954 H   0  0  0  0  0  0  0  0  0  0  0  0
    0.1176   11.1308    1.3422 H   0  0  0  0  0  0  0  0  0  0  0  0
   -0.7949   11.0769    4.0349 H   0  0  0  0  0  0  0  0  0  0  0  0
   -0.3061    6.7884    1.8307 H   0  0  0  0  0  0  0  0  0  0  0  0
   -2.6588    5.8292    0.3850 H   0  0  0  0  0  0  0  0  0  0  0  0
   -1.0420   10.8686   -0.3305 H   0  0  0  0  0  0  0  0  0  0  0  0
  1  6  1  0  0  0  0
  1 30  1  0  0  0  0
  2  1  2  0  0  0  0
  2 31  1  0  0  0  0
  3  2  1  0  0  0  0
  3  4  2  0  0  0  0
  3 32  1  0  0  0  0
  4  5  1  0  0  0  0
  4 33  1  0  0  0  0
  5  6  2  0  0  0  0
  5 34  1  0  0  0  0
  6  7  1  0  0  0  0
  8  7  1  0  0  0  0
  8 12  2  0  0  0  0
  8 35  1  0  0  0  0
  9  7  2  0  0  0  0
  9 36  1  0  0  0  0
 10  9  1  0  0  0  0
 10 11  2  0  0  0  0
 10 37  1  0  0  0  0
 11 12  1  0  0  0  0
 11 38  1  0  0  0  0
 13 12  1  0  0  0  0
 14 13  2  0  0  0  0
 14 18  1  0  0  0  0
 14 39  1  0  0  0  0
 15 13  1  0  0  0  0
 15 40  1  0  0  0  0
 16 15  2  0  0  0  0
 16 17  1  0  0  0  0
 16 41  1  0  0  0  0
 17 18  2  0  0  0  0
 17 42  1  0  0  0  0
 19 18  1  0  0  0  0
 19 20  1  0  0  0  0
 19 43  1  0  0  0  0
 19 44  1  0  0  0  0
 20 21  1  0  0  0  0
 20 29  1  0  0  0  0
 20 25  1  0  0  0  0
 22 21  2  0  0  0  0
 23 21  1  0  0  0  0
 23 45  1  0  0  0  0
 24 21  1  0  0  0  0
 24 46  1  0  0  0  0
 26 25  2  0  0  0  0
 27 25  1  0  0  0  0
 27 47  1  0  0  0  0
 28 25  1  0  0  0  0
 28 48  1  0  0  0  0
 29 49  1  0  0  0  0
M  END
>  <DRUGBANK_ID>
DB07404

>  <COMMON_NAME>
BPH-608

>  <SYNONYMS>
(1-hydroxy-1-phosphono-2-[1,1';3',1'']terphenyl-3-yl-ethyl)-phosphonic acid

$$$$
