
 OpenBabel10282417233D

 44 47  0  0  0  0  0  0  0  0999 V2000
   -0.1189   -0.7030    0.0310 C   0  0  0  0  0  0  0  0  0  0  0  0
    1.1561   -1.3841    0.0268 N   0  0  0  0  0  0  0  0  0  0  0  0
   -0.1109    0.6933    0.0061 C   0  0  0  0  0  0  0  0  0  0  0  0
   -1.3070   -1.4045    0.0723 N   0  0  0  0  0  0  0  0  0  0  0  0
    1.2218   -2.8122    0.0039 C   0  0  0  0  0  0  0  0  0  0  0  0
    2.3367   -0.6248    0.0252 C   0  0  0  0  0  0  0  0  0  0  0  0
    1.1568    1.4558    0.0070 C   0  0  0  0  0  0  0  0  0  0  0  0
   -1.3201    1.3765   -0.0097 C   0  0  0  0  0  0  0  0  0  0  0  0
   -2.5033   -0.7471    0.0319 C   0  0  0  0  0  0  0  0  0  0  0  0
    1.8441   -3.5430    1.0297 C   0  0  0  0  0  0  0  0  0  0  0  0
    0.6325   -3.5339   -1.0491 C   0  0  0  0  0  0  0  0  0  0  0  0
    2.4336    0.7174    0.0125 C   0  0  0  0  0  0  0  0  0  0  0  0
    1.1612    2.6848    0.0027 O   0  0  0  0  0  0  0  0  0  0  0  0
   -2.5084    0.6523   -0.0156 C   0  0  0  0  0  0  0  0  0  0  0  0
   -3.6654   -1.4790   -0.0334 N   0  0  0  0  0  0  0  0  0  0  0  0
    1.7956   -4.9343    1.0603 C   0  0  0  0  0  0  0  0  0  0  0  0
    2.4652   -2.9027    2.0319 F   0  0  0  0  0  0  0  0  0  0  0  0
    0.7702   -4.9207   -1.1250 C   0  0  0  0  0  0  0  0  0  0  0  0
    3.7524    1.3985   -0.0058 C   0  0  0  0  0  0  0  0  0  0  0  0
   -3.6608    1.3384   -0.0303 F   0  0  0  0  0  0  0  0  0  0  0  0
   -4.6769   -1.3077   -1.0743 C   0  0  0  0  0  0  0  0  0  0  0  0
   -4.1436   -2.4009    0.9798 C   0  0  0  0  0  0  0  0  0  0  0  0
    1.2829   -5.6116   -0.0358 C   0  0  0  0  0  0  0  0  0  0  0  0
    3.7109    2.7485   -0.0138 O   0  0  0  0  0  0  0  0  0  0  0  0
    4.8213    0.7907   -0.0196 O   0  0  0  0  0  0  0  0  0  0  0  0
   -5.5627   -2.5925   -0.9781 C   0  0  3  0  0  0  0  0  0  0  0  0
   -4.9303   -3.4190    0.1528 C   0  0  0  0  0  0  0  0  0  0  0  0
    1.2574   -6.9504   -0.0367 F   0  0  0  0  0  0  0  0  0  0  0  0
   -6.9839   -2.3112   -0.7312 N   0  0  0  0  0  0  0  0  0  0  0  0
    3.2466   -1.2281    0.0140 H   0  0  0  0  0  0  0  0  0  0  0  0
   -1.3473    2.4616   -0.0168 H   0  0  0  0  0  0  0  0  0  0  0  0
    0.0578   -3.0188   -1.8149 H   0  0  0  0  0  0  0  0  0  0  0  0
    2.1563   -5.4812    1.9231 H   0  0  0  0  0  0  0  0  0  0  0  0
    0.4569   -5.4616   -2.0124 H   0  0  0  0  0  0  0  0  0  0  0  0
   -5.2790   -0.4082   -0.9002 H   0  0  0  0  0  0  0  0  0  0  0  0
   -4.2239   -1.2408   -2.0689 H   0  0  0  0  0  0  0  0  0  0  0  0
   -3.3609   -2.8731    1.5785 H   0  0  0  0  0  0  0  0  0  0  0  0
   -4.8369   -1.8820    1.6574 H   0  0  0  0  0  0  0  0  0  0  0  0
    2.8036    3.1417   -0.0028 H   0  0  0  0  0  0  0  0  0  0  0  0
   -5.5074   -3.1525   -1.9193 H   0  0  0  0  0  0  0  0  0  0  0  0
   -5.6616   -3.9801    0.7465 H   0  0  0  0  0  0  0  0  0  0  0  0
   -4.2383   -4.1525   -0.2799 H   0  0  0  0  0  0  0  0  0  0  0  0
   -7.4999   -3.1880   -0.6472 H   0  0  0  0  0  0  0  0  0  0  0  0
   -7.0987   -1.8280    0.1589 H   0  0  0  0  0  0  0  0  0  0  0  0
  1  2  1  0  0  0  0
  1  3  2  0  0  0  0
  1  4  1  0  0  0  0
  2  5  1  0  0  0  0
  2  6  1  0  0  0  0
  3  7  1  0  0  0  0
  3  8  1  0  0  0  0
  4  9  2  0  0  0  0
  5 10  1  0  0  0  0
  5 11  2  0  0  0  0
  6 12  2  0  0  0  0
  6 30  1  0  0  0  0
  7 13  2  0  0  0  0
  7 12  1  0  0  0  0
  8 14  2  0  0  0  0
  8 31  1  0  0  0  0
  9 15  1  0  0  0  0
  9 14  1  0  0  0  0
 10 16  2  0  0  0  0
 10 17  1  0  0  0  0
 11 18  1  0  0  0  0
 11 32  1  0  0  0  0
 12 19  1  0  0  0  0
 14 20  1  0  0  0  0
 15 21  1  0  0  0  0
 15 22  1  0  0  0  0
 16 23  1  0  0  0  0
 16 33  1  0  0  0  0
 18 23  2  0  0  0  0
 18 34  1  0  0  0  0
 19 24  1  0  0  0  0
 19 25  2  0  0  0  0
 21 26  1  0  0  0  0
 21 35  1  0  0  0  0
 21 36  1  0  0  0  0
 22 27  1  0  0  0  0
 22 37  1  0  0  0  0
 22 38  1  0  0  0  0
 23 28  1  0  0  0  0
 24 39  1  0  0  0  0
 26 29  1  0  0  0  0
 26 27  1  0  0  0  0
 26 40  1  0  0  0  0
 27 41  1  0  0  0  0
 27 42  1  0  0  0  0
 29 43  1  0  0  0  0
 29 44  1  0  0  0  0
M  END
>  <DRUGBANK_ID>
DB16850

>  <COMMON_NAME>
Tosufloxacin

>  <CAS_NUMBER>
100490-36-6

>  <UNII>
GHJ553KQPS

>  <SYNONYMS>
Tosufloxacin

$$$$
