
 OpenBabel10282417203D

 37 37  0  0  0  0  0  0  0  0999 V2000
    1.2678    0.0493   -0.1211 C   0  0  0  0  0  0  0  0  0  0  0  0
    0.6264    1.0400   -1.1083 C   0  0  0  0  0  0  0  0  0  0  0  0
    1.0905    0.6331   -2.5028 C   0  0  0  0  0  0  0  0  0  0  0  0
   -0.9247    1.1246   -1.1214 C   0  0  0  0  0  0  0  0  0  0  0  0
   -1.4865    1.5159    0.1862 N   0  0  0  0  0  0  0  0  0  0  0  0
   -2.9448    1.3014    0.2573 C   0  0  0  0  0  0  0  0  0  0  0  0
   -3.4563   -0.1470    0.0119 C   0  0  0  0  0  0  0  0  0  0  0  0
   -3.0982   -1.0901    1.0764 O   0  0  0  0  0  0  0  0  0  0  0  0
   -1.7919   -1.4156    1.1218 C   0  0  0  0  0  0  0  0  0  0  0  0
   -0.9720   -1.0544    0.2955 O   0  0  0  0  0  0  0  0  0  0  0  0
   -1.2349   -2.2738    2.1541 C   0  0  0  0  0  0  0  0  0  0  0  0
   -1.7018   -3.5744    2.2235 C   0  0  0  0  0  0  0  0  0  0  0  0
   -1.0165   -4.4861    3.0170 C   0  0  0  0  0  0  0  0  0  0  0  0
    0.1385   -4.1025    3.7144 C   0  0  0  0  0  0  0  0  0  0  0  0
    0.6607   -2.8146    3.5991 C   0  0  0  0  0  0  0  0  0  0  0  0
    1.8035   -2.4510    4.2881 N   0  0  0  0  0  0  0  0  0  0  0  0
   -0.0311   -1.9037    2.8028 C   0  0  0  0  0  0  0  0  0  0  0  0
    1.0307   -0.9908   -0.3811 H   0  0  0  0  0  0  0  0  0  0  0  0
    0.9623    0.2646    0.9052 H   0  0  0  0  0  0  0  0  0  0  0  0
    2.3592    0.0878   -0.1361 H   0  0  0  0  0  0  0  0  0  0  0  0
    1.0085    2.0352   -0.8616 H   0  0  0  0  0  0  0  0  0  0  0  0
    0.7190   -0.3667   -2.7635 H   0  0  0  0  0  0  0  0  0  0  0  0
    0.7247    1.3385   -3.2518 H   0  0  0  0  0  0  0  0  0  0  0  0
    2.1826    0.6066   -2.5440 H   0  0  0  0  0  0  0  0  0  0  0  0
   -1.2668    1.8409   -1.8752 H   0  0  0  0  0  0  0  0  0  0  0  0
   -1.3005    0.1581   -1.4737 H   0  0  0  0  0  0  0  0  0  0  0  0
   -1.0679    0.8775    0.8646 H   0  0  0  0  0  0  0  0  0  0  0  0
   -3.2696    1.6022    1.2614 H   0  0  0  0  0  0  0  0  0  0  0  0
   -3.4177    1.9970   -0.4466 H   0  0  0  0  0  0  0  0  0  0  0  0
   -4.5511   -0.1134   -0.0219 H   0  0  0  0  0  0  0  0  0  0  0  0
   -3.1587   -0.5212   -0.9779 H   0  0  0  0  0  0  0  0  0  0  0  0
   -2.5472   -3.8792    1.6152 H   0  0  0  0  0  0  0  0  0  0  0  0
   -1.3733   -5.5083    3.0822 H   0  0  0  0  0  0  0  0  0  0  0  0
    0.6395   -4.8343    4.3418 H   0  0  0  0  0  0  0  0  0  0  0  0
    2.2275   -1.5412    4.1618 H   0  0  0  0  0  0  0  0  0  0  0  0
    2.3032   -3.1290    4.8486 H   0  0  0  0  0  0  0  0  0  0  0  0
    0.3934   -0.9135    2.6518 H   0  0  0  0  0  0  0  0  0  0  0  0
  1  2  1  0  0  0  0
  1 18  1  0  0  0  0
  1 19  1  0  0  0  0
  1 20  1  0  0  0  0
  2  3  1  0  0  0  0
  2  4  1  0  0  0  0
  2 21  1  0  0  0  0
  3 22  1  0  0  0  0
  3 23  1  0  0  0  0
  3 24  1  0  0  0  0
  4  5  1  0  0  0  0
  4 25  1  0  0  0  0
  4 26  1  0  0  0  0
  5  6  1  0  0  0  0
  5 27  1  0  0  0  0
  6  7  1  0  0  0  0
  6 28  1  0  0  0  0
  6 29  1  0  0  0  0
  7  8  1  0  0  0  0
  7 30  1  0  0  0  0
  7 31  1  0  0  0  0
  8  9  1  0  0  0  0
  9 10  2  0  0  0  0
  9 11  1  0  0  0  0
 11 12  2  0  0  0  0
 11 17  1  0  0  0  0
 12 13  1  0  0  0  0
 12 32  1  0  0  0  0
 13 14  2  0  0  0  0
 13 33  1  0  0  0  0
 14 15  1  0  0  0  0
 14 34  1  0  0  0  0
 15 16  1  0  0  0  0
 15 17  2  0  0  0  0
 16 35  1  0  0  0  0
 16 36  1  0  0  0  0
 17 37  1  0  0  0  0
M  END
>  <DRUGBANK_ID>
DB13578

>  <COMMON_NAME>
Metabutethamine

>  <CAS_NUMBER>
4439-25-2

>  <UNII>
PSJ9VIF3RV

$$$$
