5502
 OpenBabel10282417173D

 54 56  0  0  1  0  0  0  0  0999 V2000
    1.0186    0.0114    0.1632 O   0  0  0  0  0  0  0  0  0  0  0  0
   -1.1265   -1.0647   -1.5318 O   0  0  0  0  0  0  0  0  0  0  0  0
   -3.2690   -5.3491   -3.1324 O   0  0  0  0  0  0  0  0  0  0  0  0
   -5.8446   -5.2860   -2.4843 O   0  0  0  0  0  0  0  0  0  0  0  0
   -1.1628   -5.5254    3.6587 N   0  0  0  0  0  0  0  0  0  0  0  0
   -1.9872   -5.4254    2.5890 N   0  0  0  0  0  0  0  0  0  0  0  0
    0.2977   -3.4559    3.4707 C   0  0  3  0  0  0  0  0  0  0  0  0
   -0.0487   -3.0127    2.0543 C   0  0  0  0  0  0  0  0  0  0  0  0
   -0.1219   -2.2796    4.3962 C   0  0  0  0  0  0  0  0  0  0  0  0
   -1.0902   -3.4679    1.2526 C   0  0  0  0  0  0  0  0  0  0  0  0
   -0.2014   -4.7697    4.0394 C   0  0  0  0  0  0  0  0  0  0  0  0
    0.6880   -1.8741    1.5943 C   0  0  0  0  0  0  0  0  0  0  0  0
   -1.9607   -4.6496    1.5655 C   0  0  0  0  0  0  0  0  0  0  0  0
   -1.3905   -2.7138    0.0788 C   0  0  0  0  0  0  0  0  0  0  0  0
    0.3115   -2.3899    5.8398 C   0  0  0  0  0  0  0  0  0  0  0  0
    0.3899   -1.1733    0.4229 C   0  0  0  0  0  0  0  0  0  0  0  0
   -0.6682   -1.5978   -0.3560 C   0  0  0  0  0  0  0  0  0  0  0  0
    0.5292   -5.3492    5.2760 C   0  0  0  0  0  0  0  0  0  0  0  0
   -2.9966   -5.0355    0.5390 C   0  0  0  0  0  0  0  0  0  0  0  0
   -2.6147   -5.3201   -0.7783 C   0  0  0  0  0  0  0  0  0  0  0  0
   -4.3432   -5.0187    0.8911 C   0  0  0  0  0  0  0  0  0  0  0  0
   -3.5767   -5.3351   -1.7923 C   0  0  0  0  0  0  0  0  0  0  0  0
   -5.3108   -5.2060   -0.0958 C   0  0  0  0  0  0  0  0  0  0  0  0
   -4.9431   -5.2817   -1.4469 C   0  0  0  0  0  0  0  0  0  0  0  0
    2.4285   -0.1054    0.0203 C   0  0  0  0  0  0  0  0  0  0  0  0
   -0.4457    0.0794   -2.0298 C   0  0  0  0  0  0  0  0  0  0  0  0
   -1.8894   -5.2888   -3.4825 C   0  0  0  0  0  0  0  0  0  0  0  0
   -7.2230   -5.2095   -2.1391 C   0  0  0  0  0  0  0  0  0  0  0  0
    1.3947   -3.5626    3.4714 H   0  0  0  0  0  0  0  0  0  0  0  0
    0.2876   -1.3280    4.0375 H   0  0  0  0  0  0  0  0  0  0  0  0
   -1.2122   -2.1778    4.3630 H   0  0  0  0  0  0  0  0  0  0  0  0
    1.4647   -1.4565    2.2330 H   0  0  0  0  0  0  0  0  0  0  0  0
   -2.2478   -2.9502   -0.5468 H   0  0  0  0  0  0  0  0  0  0  0  0
    1.3644   -2.6872    5.9132 H   0  0  0  0  0  0  0  0  0  0  0  0
    0.1802   -1.4501    6.3766 H   0  0  0  0  0  0  0  0  0  0  0  0
   -0.3454   -3.0952    6.3498 H   0  0  0  0  0  0  0  0  0  0  0  0
    1.5757   -5.5421    5.0403 H   0  0  0  0  0  0  0  0  0  0  0  0
    0.5177   -4.7287    6.1655 H   0  0  0  0  0  0  0  0  0  0  0  0
    0.0379   -6.2713    5.6033 H   0  0  0  0  0  0  0  0  0  0  0  0
   -1.5565   -5.4130   -0.9967 H   0  0  0  0  0  0  0  0  0  0  0  0
   -4.6412   -4.8373    1.9205 H   0  0  0  0  0  0  0  0  0  0  0  0
   -6.3474   -5.2500    0.2193 H   0  0  0  0  0  0  0  0  0  0  0  0
    2.7796    0.8077   -0.4706 H   0  0  0  0  0  0  0  0  0  0  0  0
    2.9048   -0.1664    1.0012 H   0  0  0  0  0  0  0  0  0  0  0  0
    2.7086   -0.9559   -0.6107 H   0  0  0  0  0  0  0  0  0  0  0  0
   -0.5703    0.9260   -1.3470 H   0  0  0  0  0  0  0  0  0  0  0  0
    0.6083   -0.1451   -2.2256 H   0  0  0  0  0  0  0  0  0  0  0  0
   -0.8920    0.3671   -2.9849 H   0  0  0  0  0  0  0  0  0  0  0  0
   -1.4103   -4.3790   -3.1003 H   0  0  0  0  0  0  0  0  0  0  0  0
   -1.3668   -6.1846   -3.1323 H   0  0  0  0  0  0  0  0  0  0  0  0
   -1.8123   -5.2664   -4.5737 H   0  0  0  0  0  0  0  0  0  0  0  0
   -7.5288   -6.1014   -1.5827 H   0  0  0  0  0  0  0  0  0  0  0  0
   -7.4489   -4.2965   -1.5757 H   0  0  0  0  0  0  0  0  0  0  0  0
   -7.8072   -5.1775   -3.0634 H   0  0  0  0  0  0  0  0  0  0  0  0
  1 16  1  0  0  0  0
  1 25  1  0  0  0  0
  2 17  1  0  0  0  0
  2 26  1  0  0  0  0
  3 22  1  0  0  0  0
  3 27  1  0  0  0  0
  4 24  1  0  0  0  0
  4 28  1  0  0  0  0
  5  6  1  0  0  0  0
  5 11  2  0  0  0  0
  6 13  2  0  0  0  0
  7  8  1  0  0  0  0
  7  9  1  0  0  0  0
  7 11  1  0  0  0  0
  7 29  1  0  0  0  0
  8 10  1  0  0  0  0
  8 12  2  0  0  0  0
  9 15  1  0  0  0  0
  9 30  1  0  0  0  0
  9 31  1  0  0  0  0
 10 13  1  0  0  0  0
 10 14  2  0  0  0  0
 11 18  1  0  0  0  0
 12 16  1  0  0  0  0
 12 32  1  0  0  0  0
 13 19  1  0  0  0  0
 14 17  1  0  0  0  0
 14 33  1  0  0  0  0
 15 34  1  0  0  0  0
 15 35  1  0  0  0  0
 15 36  1  0  0  0  0
 16 17  2  0  0  0  0
 18 37  1  0  0  0  0
 18 38  1  0  0  0  0
 18 39  1  0  0  0  0
 19 20  2  0  0  0  0
 19 21  1  0  0  0  0
 20 22  1  0  0  0  0
 20 40  1  0  0  0  0
 21 23  2  0  0  0  0
 21 41  1  0  0  0  0
 22 24  2  0  0  0  0
 23 24  1  0  0  0  0
 23 42  1  0  0  0  0
 25 43  1  0  0  0  0
 25 44  1  0  0  0  0
 25 45  1  0  0  0  0
 26 46  1  0  0  0  0
 26 47  1  0  0  0  0
 26 48  1  0  0  0  0
 27 49  1  0  0  0  0
 27 50  1  0  0  0  0
 27 51  1  0  0  0  0
 28 52  1  0  0  0  0
 28 53  1  0  0  0  0
 28 54  1  0  0  0  0
M  END
>  <DRUGBANK_ID>
DB08811

>  <COMMON_NAME>
Tofisopam

>  <CAS_NUMBER>
22345-47-7

>  <UNII>
UZC80HAU42

>  <SYNONYMS>
Tofisopam; Tofisopamum

$$$$
