
 OpenBabel10282417133D

106109  0  0  1  0  0  0  0  0999 V2000
   -4.9530  -26.4011  -13.5496 C   0  0  0  0  0  0  0  0  0  0  0  0
   -3.7336  -27.1320  -13.4113 O   0  0  0  0  0  0  0  0  0  0  0  0
   -2.8320  -26.7394  -12.4579 C   0  0  0  0  0  0  0  0  0  0  0  0
   -3.0583  -25.7463  -11.5065 C   0  0  0  0  0  0  0  0  0  0  0  0
   -2.0588  -25.4347  -10.5865 C   0  0  0  0  0  0  0  0  0  0  0  0
   -2.2689  -24.3752   -9.6107 C   0  0  0  0  0  0  0  0  0  0  0  0
   -1.2624  -24.1253   -8.7546 C   0  0  0  0  0  0  0  0  0  0  0  0
   -1.2528  -23.3736   -7.5673 C   0  0  0  0  0  0  0  0  0  0  0  0
   -0.2268  -22.7745   -7.1292 O   0  0  0  0  0  0  0  0  0  0  0  0
   -2.5727  -23.5591   -6.5978 S   0  0  0  0  0  0  0  0  0  0  0  0
   -2.0452  -21.9273   -5.5596 C   0  0  0  0  0  0  0  0  0  0  0  0
   -2.7891  -22.4280   -4.3649 C   0  0  0  0  0  0  0  0  0  0  0  0
   -1.6486  -23.1410   -3.9389 N   0  0  0  0  0  0  0  0  0  0  0  0
   -0.6179  -22.3704   -3.4502 C   0  0  0  0  0  0  0  0  0  0  0  0
    0.5001  -22.4713   -3.9425 O   0  0  0  0  0  0  0  0  0  0  0  0
   -0.9660  -21.3747   -2.3814 C   0  0  0  0  0  0  0  0  0  0  0  0
   -1.1679  -19.9731   -2.8052 C   0  0  0  0  0  0  0  0  0  0  0  0
   -2.7087  -19.7269   -3.0541 N   0  0  0  0  0  0  0  0  0  0  0  0
   -3.9319  -18.7223   -3.0616 C   0  0  0  0  0  0  0  0  0  0  0  0
   -4.8202  -18.5114   -3.8766 O   0  0  0  0  0  0  0  0  0  0  0  0
   -3.9785  -17.4402   -2.4038 C   0  0  2  0  0  0  0  0  0  0  0  0
   -3.9261  -16.2275   -3.1554 O   0  0  0  0  0  0  0  0  0  0  0  0
   -2.7401  -17.7277   -1.7124 C   0  0  0  0  0  0  0  0  0  0  0  0
   -2.7654  -16.6817   -0.6802 C   0  0  0  0  0  0  0  0  0  0  0  0
   -3.0611  -19.1595   -0.8758 C   0  0  0  0  0  0  0  0  0  0  0  0
   -1.5294  -17.3987   -2.8488 C   0  0  0  0  0  0  0  0  0  0  0  0
   -1.4534  -18.1887   -4.1515 O   0  0  0  0  0  0  0  0  0  0  0  0
   -2.7745  -18.5311   -5.0585 P   0  0  2  0  0  0  0  0  0  0  0  0
   -2.2973  -16.8735   -5.1912 O   0  0  0  0  0  0  0  0  0  0  0  0
   -3.8223  -17.9431   -5.9882 O   0  0  0  0  0  0  0  0  0  0  0  0
   -3.2516  -20.1887   -4.9257 O   0  0  0  0  0  0  0  0  0  0  0  0
   -4.5976  -20.6577   -5.9062 P   0  0  2  0  0  0  0  0  0  0  0  0
   -5.6792  -19.9271   -4.7708 O   0  0  0  0  0  0  0  0  0  0  0  0
   -5.2948  -21.9741   -5.6130 O   0  0  0  0  0  0  0  0  0  0  0  0
   -3.5159  -21.3883   -7.0416 O   0  0  0  0  0  0  0  0  0  0  0  0
   -2.2981  -20.5608   -7.8354 C   0  0  0  0  0  0  0  0  0  0  0  0
   -2.6697  -19.1439   -8.0606 C   0  0  1  0  0  0  0  0  0  0  0  0
   -1.9015  -18.1707   -7.3967 O   0  0  0  0  0  0  0  0  0  0  0  0
   -1.7020  -17.0606   -8.2765 C   0  0  2  0  0  0  0  0  0  0  0  0
   -2.5349  -17.3861   -9.5181 C   0  0  2  0  0  0  0  0  0  0  0  0
   -3.8699  -16.8803   -9.3450 O   0  0  0  0  0  0  0  0  0  0  0  0
   -2.5291  -18.8966   -9.4980 C   0  0  2  0  0  0  0  0  0  0  0  0
   -3.5999  -19.6521   -9.9866 O   0  0  0  0  0  0  0  0  0  0  0  0
   -5.1492  -18.9868   -9.5993 P   0  0  0  0  0  0  0  0  0  0  0  0
   -5.6633  -19.7907  -10.9210 O   0  0  0  0  0  0  0  0  0  0  0  0
   -5.2971  -20.1983   -8.5106 O   0  0  0  0  0  0  0  0  0  0  0  0
   -6.5358  -18.3913   -9.2526 O   0  0  0  0  0  0  0  0  0  0  0  0
   -0.2836  -17.0162   -8.3598 N   0  0  0  0  0  0  0  0  0  0  0  0
    0.6153  -17.7611   -7.6366 C   0  0  0  0  0  0  0  0  0  0  0  0
    1.8446  -17.5270   -8.0251 N   0  0  0  0  0  0  0  0  0  0  0  0
    1.7154  -16.5473   -8.9853 C   0  0  0  0  0  0  0  0  0  0  0  0
    2.6440  -15.8710   -9.7711 C   0  0  0  0  0  0  0  0  0  0  0  0
    3.9874  -16.1339   -9.6783 N   0  0  0  0  0  0  0  0  0  0  0  0
    2.1897  -14.9461  -10.6513 N   0  0  0  0  0  0  0  0  0  0  0  0
    0.8584  -14.7189  -10.7308 C   0  0  0  0  0  0  0  0  0  0  0  0
   -0.1248  -15.3157  -10.0364 N   0  0  0  0  0  0  0  0  0  0  0  0
    0.3961  -16.2075   -9.1895 C   0  0  0  0  0  0  0  0  0  0  0  0
   -0.8614  -26.1596  -10.5806 C   0  0  0  0  0  0  0  0  0  0  0  0
   -0.6174  -27.1331  -11.5089 C   0  0  0  0  0  0  0  0  0  0  0  0
    0.5818  -27.7819  -11.4814 O   0  0  0  0  0  0  0  0  0  0  0  0
   -1.5912  -27.4150  -12.4522 C   0  0  0  0  0  0  0  0  0  0  0  0
   -1.2924  -28.3695  -13.3843 O   0  0  0  0  0  0  0  0  0  0  0  0
   -5.2957  -25.8632  -12.6637 H   0  0  0  0  0  0  0  0  0  0  0  0
   -5.7468  -27.1161  -13.7821 H   0  0  0  0  0  0  0  0  0  0  0  0
   -4.8606  -25.6972  -14.3822 H   0  0  0  0  0  0  0  0  0  0  0  0
   -3.9899  -25.1959  -11.4432 H   0  0  0  0  0  0  0  0  0  0  0  0
   -3.2472  -23.8977   -9.5839 H   0  0  0  0  0  0  0  0  0  0  0  0
   -0.2974  -24.5935   -8.7410 H   0  0  0  0  0  0  0  0  0  0  0  0
   -1.1127  -21.2827   -5.4742 H   0  0  0  0  0  0  0  0  0  0  0  0
   -2.2475  -20.9984   -6.0039 H   0  0  0  0  0  0  0  0  0  0  0  0
   -3.2433  -21.8318   -3.5778 H   0  0  0  0  0  0  0  0  0  0  0  0
   -3.6814  -23.0098   -4.6126 H   0  0  0  0  0  0  0  0  0  0  0  0
   -1.2999  -23.5909   -4.8002 H   0  0  0  0  0  0  0  0  0  0  0  0
   -1.8726  -21.6766   -1.8710 H   0  0  0  0  0  0  0  0  0  0  0  0
   -0.1064  -21.2974   -1.7316 H   0  0  0  0  0  0  0  0  0  0  0  0
   -0.8497  -19.3297   -2.0106 H   0  0  0  0  0  0  0  0  0  0  0  0
   -0.5166  -19.8224   -3.7055 H   0  0  0  0  0  0  0  0  0  0  0  0
   -2.7007  -20.3280   -3.8313 H   0  0  0  0  0  0  0  0  0  0  0  0
   -4.9767  -17.4736   -1.9442 H   0  0  0  0  0  0  0  0  0  0  0  0
   -4.7500  -16.1028   -3.6654 H   0  0  0  0  0  0  0  0  0  0  0  0
   -3.7405  -16.7688   -0.1817 H   0  0  0  0  0  0  0  0  0  0  0  0
   -1.9398  -16.9124   -0.0317 H   0  0  0  0  0  0  0  0  0  0  0  0
   -2.6906  -15.7053   -1.1584 H   0  0  0  0  0  0  0  0  0  0  0  0
   -3.3931  -20.1035   -1.3797 H   0  0  0  0  0  0  0  0  0  0  0  0
   -2.1795  -19.4848   -0.3515 H   0  0  0  0  0  0  0  0  0  0  0  0
   -4.0175  -19.0789   -0.3611 H   0  0  0  0  0  0  0  0  0  0  0  0
   -1.4734  -16.3336   -3.1175 H   0  0  0  0  0  0  0  0  0  0  0  0
   -0.5628  -17.5453   -2.3562 H   0  0  0  0  0  0  0  0  0  0  0  0
   -2.0137  -16.7663   -6.0931 H   0  0  0  0  0  0  0  0  0  0  0  0
   -6.5581  -20.3003   -4.9690 H   0  0  0  0  0  0  0  0  0  0  0  0
   -1.3164  -20.4571   -7.3143 H   0  0  0  0  0  0  0  0  0  0  0  0
   -1.9498  -21.1742   -8.6873 H   0  0  0  0  0  0  0  0  0  0  0  0
   -3.6751  -19.0114   -7.7125 H   0  0  0  0  0  0  0  0  0  0  0  0
   -2.0560  -16.1213   -7.8234 H   0  0  0  0  0  0  0  0  0  0  0  0
   -2.1331  -16.9968  -10.4501 H   0  0  0  0  0  0  0  0  0  0  0  0
   -4.1681  -16.9477   -8.4064 H   0  0  0  0  0  0  0  0  0  0  0  0
   -1.5737  -19.2964   -9.8615 H   0  0  0  0  0  0  0  0  0  0  0  0
   -5.7789  -19.1558  -11.6524 H   0  0  0  0  0  0  0  0  0  0  0  0
   -4.6041  -20.8793   -8.5888 H   0  0  0  0  0  0  0  0  0  0  0  0
    0.3348  -18.4693   -6.8604 H   0  0  0  0  0  0  0  0  0  0  0  0
    4.3021  -16.8050   -8.9894 H   0  0  0  0  0  0  0  0  0  0  0  0
    4.6252  -15.5972  -10.2390 H   0  0  0  0  0  0  0  0  0  0  0  0
    0.5354  -13.9688  -11.4449 H   0  0  0  0  0  0  0  0  0  0  0  0
   -0.0810  -25.9793   -9.8576 H   0  0  0  0  0  0  0  0  0  0  0  0
    1.1184  -27.4459  -10.7437 H   0  0  0  0  0  0  0  0  0  0  0  0
   -2.0685  -28.4339  -13.9619 H   0  0  0  0  0  0  0  0  0  0  0  0
  1  2  1  0  0  0  0
  1 63  1  0  0  0  0
  1 64  1  0  0  0  0
  1 65  1  0  0  0  0
  2  3  1  0  0  0  0
  3  4  2  0  0  0  0
  3 61  1  0  0  0  0
  4  5  1  0  0  0  0
  4 66  1  0  0  0  0
  5  6  1  0  0  0  0
  5 58  2  0  0  0  0
  6  7  2  0  0  0  0
  6 67  1  0  0  0  0
  7  8  1  0  0  0  0
  7 68  1  0  0  0  0
  8  9  2  0  0  0  0
  8 10  1  0  0  0  0
 10 11  1  0  0  0  0
 11 12  1  0  0  0  0
 11 69  1  0  0  0  0
 11 70  1  0  0  0  0
 12 13  1  0  0  0  0
 12 71  1  0  0  0  0
 12 72  1  0  0  0  0
 13 14  1  0  0  0  0
 13 73  1  0  0  0  0
 14 15  2  0  0  0  0
 14 16  1  0  0  0  0
 16 17  1  0  0  0  0
 16 74  1  0  0  0  0
 16 75  1  0  0  0  0
 17 18  1  0  0  0  0
 17 76  1  0  0  0  0
 17 77  1  0  0  0  0
 18 19  1  0  0  0  0
 18 78  1  0  0  0  0
 19 20  2  0  0  0  0
 21 23  1  0  0  0  0
 21 79  1  1  0  0  0
 21 22  1  0  0  0  0
 21 19  1  0  0  0  0
 22 80  1  0  0  0  0
 23 24  1  0  0  0  0
 23 25  1  0  0  0  0
 23 26  1  0  0  0  0
 24 81  1  0  0  0  0
 24 82  1  0  0  0  0
 24 83  1  0  0  0  0
 25 84  1  0  0  0  0
 25 85  1  0  0  0  0
 25 86  1  0  0  0  0
 26 27  1  0  0  0  0
 26 87  1  0  0  0  0
 26 88  1  0  0  0  0
 28 30  2  1  0  0  0
 28 31  1  0  0  0  0
 28 29  1  0  0  0  0
 28 27  1  0  0  0  0
 29 89  1  0  0  0  0
 32 34  2  1  0  0  0
 32 35  1  0  0  0  0
 32 33  1  0  0  0  0
 32 31  1  0  0  0  0
 33 90  1  0  0  0  0
 35 36  1  0  0  0  0
 36 91  1  0  0  0  0
 36 92  1  0  0  0  0
 37 38  1  0  0  0  0
 37 42  1  0  0  0  0
 37 93  1  1  0  0  0
 37 36  1  0  0  0  0
 38 39  1  0  0  0  0
 39 40  1  0  0  0  0
 39 48  1  0  0  0  0
 39 94  1  1  0  0  0
 40 41  1  0  0  0  0
 40 42  1  0  0  0  0
 40 95  1  6  0  0  0
 41 96  1  0  0  0  0
 42 43  1  0  0  0  0
 42 97  1  6  0  0  0
 43 44  1  0  0  0  0
 44 45  1  0  0  0  0
 44 46  1  0  0  0  0
 44 47  2  0  0  0  0
 45 98  1  0  0  0  0
 46 99  1  0  0  0  0
 48 49  1  0  0  0  0
 48 57  1  0  0  0  0
 49 50  2  0  0  0  0
 49100  1  0  0  0  0
 50 51  1  0  0  0  0
 51 52  2  0  0  0  0
 51 57  1  0  0  0  0
 52 53  1  0  0  0  0
 52 54  1  0  0  0  0
 53101  1  0  0  0  0
 53102  1  0  0  0  0
 54 55  2  0  0  0  0
 55 56  1  0  0  0  0
 55103  1  0  0  0  0
 56 57  2  0  0  0  0
 58 59  1  0  0  0  0
 58104  1  0  0  0  0
 59 60  1  0  0  0  0
 59 61  2  0  0  0  0
 60105  1  0  0  0  0
 61 62  1  0  0  0  0
 62106  1  0  0  0  0
M  END
>  <DRUGBANK_ID>
DB03923

>  <SECONDARY_ACCESSION_NUMBERS>
EXPT01489

>  <COMMON_NAME>
Feruloyl Coenzyme A

$$$$
