
 OpenBabel10282417143D

 34 34  0  0  0  0  0  0  0  0999 V2000
   -0.0459    2.0184    0.2729 O   0  0  0  0  0  0  0  0  0  0  0  0
    2.4636   -0.6629   -0.2124 O   0  0  0  0  0  0  0  0  0  0  0  0
    0.0838   -2.1546    0.3542 O   0  0  0  0  0  0  0  0  0  0  0  0
   -2.4227   -0.7801   -0.2532 O   0  0  0  0  0  0  0  0  0  0  0  0
   -2.4784    3.4621   -0.0089 O   0  0  0  0  0  0  0  0  0  0  0  0
    0.2658    1.9983   -2.5836 O   0  0  0  0  0  0  0  0  0  0  0  0
    4.1439    3.4592    0.1542 O   0  0  0  0  0  0  0  0  0  0  0  0
    2.2672    2.2445    0.1561 N   0  0  0  0  0  0  0  0  0  0  0  0
    1.9414    0.5326   -2.5308 N   0  0  0  0  0  0  0  0  0  0  0  0
    1.2579   -0.0200    0.2384 C   0  0  1  0  0  0  0  0  0  0  0  0
    1.1288    1.4332   -0.3156 C   0  0  1  0  0  0  0  0  0  0  0  0
    0.0119   -0.8271   -0.1735 C   0  0  2  0  0  0  0  0  0  0  0  0
   -1.2749   -0.1170    0.2781 C   0  0  1  0  0  0  0  0  0  0  0  0
   -1.2642    1.3590   -0.1438 C   0  0  1  0  0  0  0  0  0  0  0  0
   -2.4914    2.0970    0.4005 C   0  0  0  0  0  0  0  0  0  0  0  0
    1.0413    1.3511   -1.8949 C   0  0  0  0  0  0  0  0  0  0  0  0
    3.2320    2.9600   -0.4946 C   0  0  0  0  0  0  0  0  0  0  0  0
    3.2094    3.1044   -1.9917 C   0  0  0  0  0  0  0  0  0  0  0  0
    2.4084    2.2594    1.1599 H   0  0  0  0  0  0  0  0  0  0  0  0
    2.8477    0.4114   -2.0818 H   0  0  0  0  0  0  0  0  0  0  0  0
    1.9977    0.7473   -3.5218 H   0  0  0  0  0  0  0  0  0  0  0  0
    2.2693   -1.0343   -1.0949 H   0  0  0  0  0  0  0  0  0  0  0  0
    0.1047   -2.1041    1.3257 H   0  0  0  0  0  0  0  0  0  0  0  0
   -2.3646   -0.7894   -1.2265 H   0  0  0  0  0  0  0  0  0  0  0  0
   -1.6220    3.8298    0.2767 H   0  0  0  0  0  0  0  0  0  0  0  0
    1.3235   -0.0117    1.3354 H   0  0  0  0  0  0  0  0  0  0  0  0
   -0.0082   -0.9717   -1.2595 H   0  0  0  0  0  0  0  0  0  0  0  0
   -1.3439   -0.1873    1.3693 H   0  0  0  0  0  0  0  0  0  0  0  0
   -1.3688    1.4284   -1.2277 H   0  0  0  0  0  0  0  0  0  0  0  0
   -3.4070    1.6453    0.0035 H   0  0  0  0  0  0  0  0  0  0  0  0
   -2.5253    2.0702    1.4918 H   0  0  0  0  0  0  0  0  0  0  0  0
    3.5395    2.1739   -2.4472 H   0  0  0  0  0  0  0  0  0  0  0  0
    2.2255    3.4256   -2.3349 H   0  0  0  0  0  0  0  0  0  0  0  0
    3.9274    3.8437   -2.3414 H   0  0  0  0  0  0  0  0  0  0  0  0
  1 11  1  0  0  0  0
  1 14  1  0  0  0  0
  2 22  1  0  0  0  0
  3 23  1  0  0  0  0
  4 24  1  0  0  0  0
  5 15  1  0  0  0  0
  5 25  1  0  0  0  0
  6 16  2  0  0  0  0
  7 17  2  0  0  0  0
  8 17  1  0  0  0  0
  8 19  1  0  0  0  0
  9 16  1  0  0  0  0
  9 20  1  0  0  0  0
  9 21  1  0  0  0  0
 10  2  1  0  0  0  0
 10 11  1  0  0  0  0
 10 12  1  0  0  0  0
 10 26  1  1  0  0  0
 11  8  1  0  0  0  0
 11 16  1  6  0  0  0
 12  3  1  0  0  0  0
 12 13  1  0  0  0  0
 12 27  1  6  0  0  0
 13  4  1  0  0  0  0
 13 14  1  0  0  0  0
 13 28  1  1  0  0  0
 14 15  1  0  0  0  0
 14 29  1  6  0  0  0
 15 30  1  0  0  0  0
 15 31  1  0  0  0  0
 17 18  1  0  0  0  0
 18 32  1  0  0  0  0
 18 33  1  0  0  0  0
 18 34  1  0  0  0  0
M  END
>  <DRUGBANK_ID>
DB04544

>  <SECONDARY_ACCESSION_NUMBERS>
EXPT01015

>  <COMMON_NAME>
1-Deoxy-1-acetylamino-beta-D-gluco-2-heptulopyranosonamide

$$$$
