H64
 OpenBabel10282417163D

 49 52  0  0  0  0  0  0  0  0999 V2000
    1.0158   -0.0742    0.0684 C   0  0  0  0  0  0  0  0  0  0  0  0
    0.6044    1.1295    0.8997 C   0  0  0  0  0  0  0  0  0  0  0  0
    1.3144    2.3386    0.2627 C   0  0  0  0  0  0  0  0  0  0  0  0
   -0.8603    1.0783    0.9527 N   0  0  0  0  0  0  0  0  0  0  0  0
   -1.4867    2.0792    1.7786 C   0  0  0  0  0  0  0  0  0  0  0  0
   -1.2556    3.4539    1.2328 C   0  0  0  0  0  0  0  0  0  0  0  0
   -1.5819    3.6381   -0.2463 C   0  0  0  0  0  0  0  0  0  0  0  0
   -2.9901    3.8689   -0.3495 N   0  0  0  0  0  0  0  0  0  0  0  0
   -3.8284    2.9725   -0.9457 C   0  0  0  0  0  0  0  0  0  0  0  0
   -3.4973    1.9056   -1.6858 N   0  0  0  0  0  0  0  0  0  0  0  0
   -4.5883    1.2624   -2.1394 C   0  0  0  0  0  0  0  0  0  0  0  0
   -5.8793    1.5725   -1.8973 N   0  0  0  0  0  0  0  0  0  0  0  0
   -6.1554    2.6459   -1.1146 C   0  0  0  0  0  0  0  0  0  0  0  0
   -7.4837    2.9377   -0.8855 N   0  0  0  0  0  0  0  0  0  0  0  0
   -5.0969    3.4171   -0.6004 C   0  0  0  0  0  0  0  0  0  0  0  0
   -4.9978    4.5777    0.1798 N   0  0  0  0  0  0  0  0  0  0  0  0
   -3.6999    4.8647    0.2710 C   0  0  0  0  0  0  0  0  0  0  0  0
   -3.0483    6.3586    1.0194 S   0  0  0  0  0  0  0  0  0  0  0  0
   -1.2186    6.3122    1.3127 C   0  0  0  0  0  0  0  0  0  0  0  0
   -0.3104    6.3774    0.2220 C   0  0  0  0  0  0  0  0  0  0  0  0
    1.0561    6.1895    0.4472 C   0  0  0  0  0  0  0  0  0  0  0  0
    2.0431    6.0018   -0.4854 O   0  0  0  0  0  0  0  0  0  0  0  0
    3.2107    6.2481    0.3365 C   0  0  0  0  0  0  0  0  0  0  0  0
    2.9327    6.0302    1.7324 O   0  0  0  0  0  0  0  0  0  0  0  0
    1.5737    6.1054    1.7159 C   0  0  0  0  0  0  0  0  0  0  0  0
    0.7574    6.0725    2.8182 C   0  0  0  0  0  0  0  0  0  0  0  0
   -0.6402    6.1720    2.6223 C   0  0  0  0  0  0  0  0  0  0  0  0
   -1.6762    5.9164    4.2028 Br  0  0  0  0  0  0  0  0  0  0  0  0
    0.6523    0.0289   -0.9620 H   0  0  0  0  0  0  0  0  0  0  0  0
    0.6221   -1.0027    0.4883 H   0  0  0  0  0  0  0  0  0  0  0  0
    2.1063   -0.1431    0.0376 H   0  0  0  0  0  0  0  0  0  0  0  0
    0.9767    1.0125    1.9234 H   0  0  0  0  0  0  0  0  0  0  0  0
    0.8721    2.6222   -0.6973 H   0  0  0  0  0  0  0  0  0  0  0  0
    1.3573    3.2059    0.9174 H   0  0  0  0  0  0  0  0  0  0  0  0
    2.3691    2.1214    0.0768 H   0  0  0  0  0  0  0  0  0  0  0  0
   -1.2828    1.0598    0.0237 H   0  0  0  0  0  0  0  0  0  0  0  0
   -2.5712    1.9183    1.8325 H   0  0  0  0  0  0  0  0  0  0  0  0
   -1.1252    2.0421    2.8131 H   0  0  0  0  0  0  0  0  0  0  0  0
   -1.8882    4.0566    1.8763 H   0  0  0  0  0  0  0  0  0  0  0  0
   -0.2545    3.7883    1.4550 H   0  0  0  0  0  0  0  0  0  0  0  0
   -1.1230    4.4765   -0.7537 H   0  0  0  0  0  0  0  0  0  0  0  0
   -1.2949    2.8036   -0.8862 H   0  0  0  0  0  0  0  0  0  0  0  0
   -4.4113    0.4006   -2.7766 H   0  0  0  0  0  0  0  0  0  0  0  0
   -7.7151    3.7227   -0.3002 H   0  0  0  0  0  0  0  0  0  0  0  0
   -8.1813    2.3529   -1.3164 H   0  0  0  0  0  0  0  0  0  0  0  0
   -0.6712    6.4788   -0.7975 H   0  0  0  0  0  0  0  0  0  0  0  0
    3.4833    7.2993    0.1780 H   0  0  0  0  0  0  0  0  0  0  0  0
    4.0754    5.6333    0.0505 H   0  0  0  0  0  0  0  0  0  0  0  0
    1.2041    5.9103    3.7949 H   0  0  0  0  0  0  0  0  0  0  0  0
  1  2  1  0  0  0  0
  1 29  1  0  0  0  0
  1 30  1  0  0  0  0
  1 31  1  0  0  0  0
  2  3  1  0  0  0  0
  2  4  1  0  0  0  0
  2 32  1  0  0  0  0
  3 33  1  0  0  0  0
  3 34  1  0  0  0  0
  3 35  1  0  0  0  0
  4  5  1  0  0  0  0
  4 36  1  0  0  0  0
  5  6  1  0  0  0  0
  5 37  1  0  0  0  0
  5 38  1  0  0  0  0
  6  7  1  0  0  0  0
  6 39  1  0  0  0  0
  6 40  1  0  0  0  0
  7  8  1  0  0  0  0
  7 41  1  0  0  0  0
  7 42  1  0  0  0  0
  8  9  1  0  0  0  0
  8 17  1  0  0  0  0
  9 10  1  0  0  0  0
  9 15  2  0  0  0  0
 10 11  2  0  0  0  0
 11 12  1  0  0  0  0
 11 43  1  0  0  0  0
 12 13  2  0  0  0  0
 13 14  1  0  0  0  0
 13 15  1  0  0  0  0
 14 44  1  0  0  0  0
 14 45  1  0  0  0  0
 15 16  1  0  0  0  0
 16 17  2  0  0  0  0
 17 18  1  0  0  0  0
 18 19  1  0  0  0  0
 19 20  1  0  0  0  0
 19 27  2  0  0  0  0
 20 21  2  0  0  0  0
 20 46  1  0  0  0  0
 21 22  1  0  0  0  0
 21 25  1  0  0  0  0
 22 23  1  0  0  0  0
 23 24  1  0  0  0  0
 23 47  1  0  0  0  0
 23 48  1  0  0  0  0
 24 25  1  0  0  0  0
 25 26  2  0  0  0  0
 26 27  1  0  0  0  0
 26 49  1  0  0  0  0
 27 28  1  0  0  0  0
M  END
>  <DRUGBANK_ID>
DB07877

>  <COMMON_NAME>
8-(6-BROMO-BENZO[1,3]DIOXOL-5-YLSULFANYL)-9-(3-ISOPROPYLAMINO-PROPYL)-ADENINE

$$$$
