AAH
 OpenBabel10282417163D

 42 42  0  0  0  0  0  0  0  0999 V2000
    1.2694   -0.0768   -0.4096 C   0  0  0  0  0  0  0  0  0  0  0  0
    0.3037   -1.0542   -0.6623 C   0  0  0  0  0  0  0  0  0  0  0  0
   -1.0467   -0.8270   -0.3338 C   0  0  0  0  0  0  0  0  0  0  0  0
   -1.4651    0.4653   -0.0729 C   0  0  0  0  0  0  0  0  0  0  0  0
   -0.5268    1.4911    0.0078 C   0  0  0  0  0  0  0  0  0  0  0  0
    0.8381    1.2142   -0.1516 C   0  0  0  0  0  0  0  0  0  0  0  0
    1.8081    2.3019   -0.2470 N   0  3  0  0  0  0  0  0  0  0  0  0
    1.3621    3.4542   -0.3107 O   0  0  0  0  0  0  0  0  0  0  0  0
    3.0090    2.0011   -0.3315 O   0  5  0  0  0  0  0  0  0  0  0  0
   -2.0030   -1.9830   -0.1374 C   0  0  0  0  0  0  0  0  0  0  0  0
   -2.5875   -2.1340    1.2280 N   0  0  0  0  0  0  0  0  0  0  0  0
   -3.5413   -3.2954    1.3231 C   0  0  0  0  0  0  0  0  0  0  0  0
   -2.5642   -4.8420    1.3730 P   0  0  0  0  0  0  0  0  0  0  0  0
   -1.7592   -4.6398    0.1304 O   0  0  0  0  0  0  0  0  0  0  0  0
   -2.5850   -4.8748    2.9879 O   0  0  0  0  0  0  0  0  0  0  0  0
   -1.6405   -6.3040    1.4202 O   0  0  0  0  0  0  0  0  0  0  0  0
   -1.6201   -2.1054    2.3435 C   0  0  0  0  0  0  0  0  0  0  0  0
   -0.5609   -3.2432    2.5189 C   0  0  0  0  0  0  0  0  0  0  0  0
    0.4644   -3.5379    1.4662 C   0  0  0  0  0  0  0  0  0  0  0  0
    1.3915   -2.4043    1.5135 C   0  0  0  0  0  0  0  0  0  0  0  0
    2.1749   -2.3166    2.7715 C   0  0  0  0  0  0  0  0  0  0  0  0
    3.4930   -2.3948    2.4998 O   0  0  0  0  0  0  0  0  0  0  0  0
    1.7062   -2.1261    3.8606 O   0  0  0  0  0  0  0  0  0  0  0  0
    2.3267   -0.3415   -0.3345 H   0  0  0  0  0  0  0  0  0  0  0  0
    0.6334   -2.0601   -0.9252 H   0  0  0  0  0  0  0  0  0  0  0  0
   -2.5252    0.6480    0.0709 H   0  0  0  0  0  0  0  0  0  0  0  0
   -0.8793    2.4962    0.2056 H   0  0  0  0  0  0  0  0  0  0  0  0
   -2.7891   -1.9354   -0.8970 H   0  0  0  0  0  0  0  0  0  0  0  0
   -1.4098   -2.8241   -0.4328 H   0  0  0  0  0  0  0  0  0  0  0  0
   -4.1940   -3.2020    2.1978 H   0  0  0  0  0  0  0  0  0  0  0  0
   -4.1937   -3.3053    0.4429 H   0  0  0  0  0  0  0  0  0  0  0  0
   -2.4546   -4.0449    3.4842 H   0  0  0  0  0  0  0  0  0  0  0  0
   -1.4120   -6.4807    0.4863 H   0  0  0  0  0  0  0  0  0  0  0  0
   -1.1267   -1.1257    2.3767 H   0  0  0  0  0  0  0  0  0  0  0  0
   -2.2251   -2.0578    3.2650 H   0  0  0  0  0  0  0  0  0  0  0  0
   -0.1924   -3.2118    3.5422 H   0  0  0  0  0  0  0  0  0  0  0  0
   -0.8815   -4.2450    2.5636 H   0  0  0  0  0  0  0  0  0  0  0  0
    0.9366   -4.5143    1.6338 H   0  0  0  0  0  0  0  0  0  0  0  0
    0.0567   -3.6546    0.4661 H   0  0  0  0  0  0  0  0  0  0  0  0
    2.0179   -2.4749    0.6270 H   0  0  0  0  0  0  0  0  0  0  0  0
    0.8139   -1.4856    1.5361 H   0  0  0  0  0  0  0  0  0  0  0  0
    3.6606   -2.4956    1.5447 H   0  0  0  0  0  0  0  0  0  0  0  0
  1  2  2  0  0  0  0
  1  6  1  0  0  0  0
  1 24  1  0  0  0  0
  2  3  1  0  0  0  0
  2 25  1  0  0  0  0
  3  4  2  0  0  0  0
  3 10  1  0  0  0  0
  4  5  1  0  0  0  0
  4 26  1  0  0  0  0
  5  6  2  0  0  0  0
  5 27  1  0  0  0  0
  6  7  1  0  0  0  0
  7  8  2  0  0  0  0
  7  9  1  0  0  0  0
 10 11  1  0  0  0  0
 10 28  1  0  0  0  0
 10 29  1  0  0  0  0
 11 12  1  0  0  0  0
 11 17  1  0  0  0  0
 12 13  1  0  0  0  0
 12 30  1  0  0  0  0
 12 31  1  0  0  0  0
 13 14  2  0  0  0  0
 13 15  1  0  0  0  0
 13 16  1  0  0  0  0
 15 32  1  0  0  0  0
 16 33  1  0  0  0  0
 17 18  1  0  0  0  0
 17 34  1  0  0  0  0
 17 35  1  0  0  0  0
 18 19  1  0  0  0  0
 18 36  1  0  0  0  0
 18 37  1  0  0  0  0
 19 20  1  0  0  0  0
 19 38  1  0  0  0  0
 19 39  1  0  0  0  0
 20 21  1  0  0  0  0
 20 40  1  0  0  0  0
 20 41  1  0  0  0  0
 21 22  1  0  0  0  0
 21 23  2  0  0  0  0
 22 42  1  0  0  0  0
M  CHG  2   7   1   9  -1
M  END
>  <DRUGBANK_ID>
DB07329

>  <COMMON_NAME>
1-[N-4'-NITROBENZYL-N-4'-CARBOXYBUTYLAMINO]METHYLPHOSPHONIC ACID

$$$$
