
 OpenBabel10282417203D

120128  0  0  1  0  0  0  0  0999 V2000
   -1.8884    2.3312   11.4599 C   0  0  0  0  0  0  0  0  0  0  0  0
   -2.4407    3.5553   10.7273 C   0  0  0  0  0  0  0  0  0  0  0  0
   -2.9732    4.5822   11.7190 C   0  0  0  0  0  0  0  0  0  0  0  0
   -1.5654    4.1742    9.7528 O   0  0  0  0  0  0  0  0  0  0  0  0
   -0.3988    4.7471   10.1815 C   0  0  0  0  0  0  0  0  0  0  0  0
    0.5116    4.0933   10.9944 C   0  0  0  0  0  0  0  0  0  0  0  0
    1.6586    4.7402   11.4587 C   0  0  0  0  0  0  0  0  0  0  0  0
    2.0009    6.0475   11.0371 C   0  0  0  0  0  0  0  0  0  0  0  0
    1.1871    6.6004   10.0478 C   0  0  0  0  0  0  0  0  0  0  0  0
   -0.0347    5.9973    9.6765 C   0  0  0  0  0  0  0  0  0  0  0  0
    3.3019    6.6297   11.4220 C   0  0  0  0  0  0  0  0  0  0  0  0
    4.2480    5.7921   11.0766 N   0  0  0  0  0  0  0  0  0  0  0  0
    5.4182    6.0481   11.6242 C   0  0  0  0  0  0  0  0  0  0  0  0
    6.6171    5.5126   11.2159 C   0  0  0  0  0  0  0  0  0  0  0  0
    7.1364    5.0639    9.9946 C   0  0  0  0  0  0  0  0  0  0  0  0
    8.4130    4.5205    9.9215 C   0  0  0  0  0  0  0  0  0  0  0  0
    9.0353    4.1375   11.0923 C   0  0  0  0  0  0  0  0  0  0  0  0
    8.5021    4.6203   12.3280 C   0  0  0  0  0  0  0  0  0  0  0  0
    7.3869    5.5058   12.3461 C   0  0  0  0  0  0  0  0  0  0  0  0
    6.9115    6.6095   13.1343 O   0  0  0  0  0  0  0  0  0  0  0  0
    5.7189    7.0651   12.5000 C   0  0  0  0  0  0  0  0  0  0  0  0
    4.8591    8.1898   12.4716 C   0  0  0  0  0  0  0  0  0  0  0  0
    3.5534    7.8702   11.9518 N   0  0  0  0  0  0  0  0  0  0  0  0
    5.2685    9.4922   12.1503 O   0  0  0  0  0  0  0  0  0  0  0  0
    6.2242   10.4041   12.7393 C   0  0  2  0  0  0  0  0  0  0  0  0
    7.6000   11.2417   12.0028 C   0  0  0  0  0  0  0  0  0  0  0  0
    8.2732   11.8267   13.2437 C   0  0  1  0  0  0  0  0  0  0  0  0
    9.3345   10.8502   13.7108 C   0  0  0  0  0  0  0  0  0  0  0  0
    9.3127   10.2856   14.7974 O   0  0  0  0  0  0  0  0  0  0  0  0
   10.1910   10.5451   12.6294 N   0  0  0  0  0  0  0  0  0  0  0  0
   10.2066    9.1816   12.1268 C   0  0  2  0  0  0  0  0  0  0  0  0
   11.3486    8.9649   11.1357 C   0  0  0  0  0  0  0  0  0  0  0  0
   10.1655    8.7835   10.3626 C   0  0  1  0  0  0  0  0  0  0  0  0
    9.2451    9.4066    9.5048 C   0  0  0  0  0  0  0  0  0  0  0  0
    8.0068    8.9154    9.3411 C   0  0  0  0  0  0  0  0  0  0  0  0
    7.0925    9.8095    8.6126 C   0  0  0  0  0  0  0  0  0  0  0  0
    5.6573    9.6005    9.0025 C   0  0  0  0  0  0  0  0  0  0  0  0
    4.8537   10.8640    8.6602 C   0  0  0  0  0  0  0  0  0  0  0  0
    4.2247   11.6337    9.8749 C   0  0  0  0  0  0  0  0  0  0  0  0
    5.3548   12.5576   10.5592 C   0  0  0  0  0  0  0  0  0  0  0  0
    5.0836   12.9706   12.1254 C   0  0  1  0  0  0  0  0  0  0  0  0
    6.3217   13.1792   13.2480 C   0  0  0  0  0  0  0  0  0  0  0  0
    6.7041   14.3404   13.4576 O   0  0  0  0  0  0  0  0  0  0  0  0
    7.0220   12.1005   13.9261 N   0  0  0  0  0  0  0  0  0  0  0  0
    6.3521   10.7778   14.1890 C   0  0  0  0  0  0  0  0  0  0  0  0
    4.1485   13.9949   12.5524 N   0  0  0  0  0  0  0  0  0  0  0  0
    3.0398   13.5830   13.2947 C   0  0  0  0  0  0  0  0  0  0  0  0
    2.7456   14.1477   14.3392 O   0  0  0  0  0  0  0  0  0  0  0  0
    2.3526   12.5336   12.7459 O   0  0  0  0  0  0  0  0  0  0  0  0
    1.0662   12.1709   13.3024 C   0  0  0  0  0  0  0  0  0  0  0  0
    0.2693   11.3359   12.2785 C   0  0  0  0  0  0  0  0  0  0  0  0
   -1.1909   11.7979   12.3637 C   0  0  0  0  0  0  0  0  0  0  0  0
   -1.2390   12.8580   13.4497 C   0  0  0  0  0  0  0  0  0  0  0  0
    0.1742   13.3875   13.5199 C   0  0  0  0  0  0  0  0  0  0  0  0
    9.0277    8.4242   12.9478 C   0  0  0  0  0  0  0  0  0  0  0  0
    7.9592    8.6656   12.5660 O   0  0  0  0  0  0  0  0  0  0  0  0
    9.1836    7.7292   14.2084 N   0  0  0  0  0  0  0  0  0  0  0  0
   10.1650    6.4212   14.4692 S   0  0  0  0  0  0  0  0  0  0  0  0
   11.1410    6.7095   15.4933 O   0  0  0  0  0  0  0  0  0  0  0  0
    9.2864    5.3118   14.7674 O   0  0  0  0  0  0  0  0  0  0  0  0
   11.0522    6.3483   12.7902 C   0  0  0  0  0  0  0  0  0  0  0  0
   12.4480    5.8755   12.6110 C   0  0  0  0  0  0  0  0  0  0  0  0
   12.3054    7.2689   13.0949 C   0  0  0  0  0  0  0  0  0  0  0  0
   10.2603    6.4714   11.5343 C   0  0  0  0  0  0  0  0  0  0  0  0
   -1.1798    2.6228   12.2395 H   0  0  0  0  0  0  0  0  0  0  0  0
   -1.3969    1.6435   10.7638 H   0  0  0  0  0  0  0  0  0  0  0  0
   -2.6676    1.7943   12.0073 H   0  0  0  0  0  0  0  0  0  0  0  0
   -3.2963    3.1888   10.1422 H   0  0  0  0  0  0  0  0  0  0  0  0
   -2.1533    5.0460   12.2755 H   0  0  0  0  0  0  0  0  0  0  0  0
   -3.5022    5.3825   11.1932 H   0  0  0  0  0  0  0  0  0  0  0  0
   -3.6551    4.1183   12.4387 H   0  0  0  0  0  0  0  0  0  0  0  0
    0.3981    3.0546   11.2645 H   0  0  0  0  0  0  0  0  0  0  0  0
    2.3138    4.1571   12.1088 H   0  0  0  0  0  0  0  0  0  0  0  0
    1.5380    7.4812    9.5178 H   0  0  0  0  0  0  0  0  0  0  0  0
   -0.6855    6.5193    8.9801 H   0  0  0  0  0  0  0  0  0  0  0  0
    6.6106    5.3868    9.1109 H   0  0  0  0  0  0  0  0  0  0  0  0
    8.9954    4.6370    9.0082 H   0  0  0  0  0  0  0  0  0  0  0  0
   10.1316    3.9666   11.0658 H   0  0  0  0  0  0  0  0  0  0  0  0
    9.3061    4.5835   13.0310 H   0  0  0  0  0  0  0  0  0  0  0  0
    5.4276   11.0712   12.7732 H   0  0  0  0  0  0  0  0  0  0  0  0
    7.5868   12.2064   11.4531 H   0  0  0  0  0  0  0  0  0  0  0  0
    8.1168   10.6467   11.2669 H   0  0  0  0  0  0  0  0  0  0  0  0
    8.8299   12.7722   13.1883 H   0  0  0  0  0  0  0  0  0  0  0  0
   11.0690   11.0399   12.5886 H   0  0  0  0  0  0  0  0  0  0  0  0
   12.0800    9.7423   11.0218 H   0  0  0  0  0  0  0  0  0  0  0  0
   11.9421    8.0621   10.9607 H   0  0  0  0  0  0  0  0  0  0  0  0
   10.3886    7.8817    9.7745 H   0  0  0  0  0  0  0  0  0  0  0  0
    9.5936   10.1698    8.8217 H   0  0  0  0  0  0  0  0  0  0  0  0
    7.6259    8.0449    9.8834 H   0  0  0  0  0  0  0  0  0  0  0  0
    7.3931   10.8251    8.8961 H   0  0  0  0  0  0  0  0  0  0  0  0
    7.2115    9.6935    7.5361 H   0  0  0  0  0  0  0  0  0  0  0  0
    5.5598    9.3059   10.0404 H   0  0  0  0  0  0  0  0  0  0  0  0
    5.2874    8.7316    8.4432 H   0  0  0  0  0  0  0  0  0  0  0  0
    5.4073   11.5618    8.0241 H   0  0  0  0  0  0  0  0  0  0  0  0
    4.0395   10.4971    8.0151 H   0  0  0  0  0  0  0  0  0  0  0  0
    3.9935   11.3071   10.8934 H   0  0  0  0  0  0  0  0  0  0  0  0
    3.6291   10.6970    9.9795 H   0  0  0  0  0  0  0  0  0  0  0  0
    5.6983   13.4361    9.9924 H   0  0  0  0  0  0  0  0  0  0  0  0
    6.2129   11.9059   10.4453 H   0  0  0  0  0  0  0  0  0  0  0  0
    4.4409   12.1694   12.4011 H   0  0  0  0  0  0  0  0  0  0  0  0
    6.7989   10.7172   15.1881 H   0  0  0  0  0  0  0  0  0  0  0  0
    6.8811    9.8088   14.2264 H   0  0  0  0  0  0  0  0  0  0  0  0
    4.6294   14.6734   13.1463 H   0  0  0  0  0  0  0  0  0  0  0  0
    1.1955   11.5803   14.2209 H   0  0  0  0  0  0  0  0  0  0  0  0
    0.6510   11.4736   11.2601 H   0  0  0  0  0  0  0  0  0  0  0  0
    0.3377   10.2626   12.4943 H   0  0  0  0  0  0  0  0  0  0  0  0
   -1.5068   12.2231   11.4036 H   0  0  0  0  0  0  0  0  0  0  0  0
   -1.8757   10.9741   12.5919 H   0  0  0  0  0  0  0  0  0  0  0  0
   -1.9542   13.6551   13.2252 H   0  0  0  0  0  0  0  0  0  0  0  0
   -1.5243   12.4081   14.4071 H   0  0  0  0  0  0  0  0  0  0  0  0
    0.3602   13.8666   14.4848 H   0  0  0  0  0  0  0  0  0  0  0  0
    0.3578   14.1283   12.7330 H   0  0  0  0  0  0  0  0  0  0  0  0
    8.2582    7.5153   14.6076 H   0  0  0  0  0  0  0  0  0  0  0  0
   12.8473    5.1157   13.2455 H   0  0  0  0  0  0  0  0  0  0  0  0
   12.7820    5.8001   11.5686 H   0  0  0  0  0  0  0  0  0  0  0  0
   12.8690    7.9876   12.5156 H   0  0  0  0  0  0  0  0  0  0  0  0
   12.4416    7.6182   14.1110 H   0  0  0  0  0  0  0  0  0  0  0  0
    9.3460    6.1248   11.1252 H   0  0  0  0  0  0  0  0  0  0  0  0
    9.5788    7.2713   11.5701 H   0  0  0  0  0  0  0  0  0  0  0  0
   10.8462    6.3151   10.6314 H   0  0  0  0  0  0  0  0  0  0  0  0
  1  2  1  0  0  0  0
  1 65  1  0  0  0  0
  1 66  1  0  0  0  0
  1 67  1  0  0  0  0
  2  3  1  0  0  0  0
  2  4  1  0  0  0  0
  2 68  1  0  0  0  0
  3 69  1  0  0  0  0
  3 70  1  0  0  0  0
  3 71  1  0  0  0  0
  4  5  1  0  0  0  0
  5  6  2  0  0  0  0
  5 10  1  0  0  0  0
  6  7  1  0  0  0  0
  6 72  1  0  0  0  0
  7  8  2  0  0  0  0
  7 73  1  0  0  0  0
  8  9  1  0  0  0  0
  8 11  1  0  0  0  0
  9 10  2  0  0  0  0
  9 74  1  0  0  0  0
 10 75  1  0  0  0  0
 11 12  2  0  0  0  0
 11 23  1  0  0  0  0
 12 13  1  0  0  0  0
 13 14  1  0  0  0  0
 13 21  2  0  0  0  0
 14 15  1  0  0  0  0
 14 19  2  0  0  0  0
 15 16  2  0  0  0  0
 15 76  1  0  0  0  0
 16 17  1  0  0  0  0
 16 77  1  0  0  0  0
 17 18  2  0  0  0  0
 17 78  1  0  0  0  0
 18 19  1  0  0  0  0
 18 79  1  0  0  0  0
 19 20  1  0  0  0  0
 20 21  1  0  0  0  0
 21 22  1  0  0  0  0
 22 23  2  0  0  0  0
 22 24  1  0  0  0  0
 25 26  1  0  0  0  0
 25 45  1  0  0  0  0
 25 80  1  6  0  0  0
 25 24  1  0  0  0  0
 26 27  1  0  0  0  0
 26 81  1  0  0  0  0
 26 82  1  0  0  0  0
 27 28  1  0  0  0  0
 27 44  1  0  0  0  0
 27 83  1  1  0  0  0
 28 30  1  0  0  0  0
 28 29  2  0  0  0  0
 30 31  1  0  0  0  0
 30 84  1  0  0  0  0
 31 32  1  0  0  0  0
 31 33  1  0  0  0  0
 31 55  1  1  0  0  0
 32 85  1  0  0  0  0
 32 86  1  0  0  0  0
 33 32  1  0  0  0  0
 33 34  1  0  0  0  0
 33 87  1  1  0  0  0
 34 35  2  0  0  0  0
 34 88  1  0  0  0  0
 35 36  1  0  0  0  0
 35 89  1  0  0  0  0
 36 37  1  0  0  0  0
 36 90  1  0  0  0  0
 36 91  1  0  0  0  0
 37 38  1  0  0  0  0
 37 92  1  0  0  0  0
 37 93  1  0  0  0  0
 38 39  1  0  0  0  0
 38 94  1  0  0  0  0
 38 95  1  0  0  0  0
 39 40  1  0  0  0  0
 39 96  1  0  0  0  0
 39 97  1  0  0  0  0
 40 41  1  0  0  0  0
 40 98  1  0  0  0  0
 40 99  1  0  0  0  0
 41 42  1  0  0  0  0
 41 46  1  0  0  0  0
 41100  1  1  0  0  0
 42 44  1  0  0  0  0
 42 43  2  0  0  0  0
 44 45  1  0  0  0  0
 45101  1  0  0  0  0
 45102  1  0  0  0  0
 46 47  1  0  0  0  0
 46103  1  0  0  0  0
 47 48  2  0  0  0  0
 47 49  1  0  0  0  0
 49 50  1  0  0  0  0
 50 51  1  0  0  0  0
 50 54  1  0  0  0  0
 50104  1  0  0  0  0
 51 52  1  0  0  0  0
 51105  1  0  0  0  0
 51106  1  0  0  0  0
 52 53  1  0  0  0  0
 52107  1  0  0  0  0
 52108  1  0  0  0  0
 53 54  1  0  0  0  0
 53109  1  0  0  0  0
 53110  1  0  0  0  0
 54111  1  0  0  0  0
 54112  1  0  0  0  0
 55 56  2  0  0  0  0
 55 57  1  0  0  0  0
 57 58  1  0  0  0  0
 57113  1  0  0  0  0
 58 59  2  0  0  0  0
 58 60  2  0  0  0  0
 58 61  1  0  0  0  0
 61 62  1  0  0  0  0
 61 63  1  0  0  0  0
 61 64  1  0  0  0  0
 62 63  1  0  0  0  0
 62114  1  0  0  0  0
 62115  1  0  0  0  0
 63116  1  0  0  0  0
 63117  1  0  0  0  0
 64118  1  0  0  0  0
 64119  1  0  0  0  0
 64120  1  0  0  0  0
M  END
>  <DRUGBANK_ID>
DB12785

>  <COMMON_NAME>
Furaprevir

>  <CAS_NUMBER>
1435923-88-8

>  <UNII>
0UMM44REU9

>  <SYNONYMS>
Furaprevir

$$$$
