
 OpenBabel10282417103D

 37 37  0  0  0  0  0  0  0  0999 V2000
   -1.1094   -0.1276    0.0061 N   0  0  0  0  0  0  0  0  0  0  0  0
   -0.6310    1.1642    0.0972 C   0  0  0  0  0  0  0  0  0  0  0  0
   -0.3288   -1.2601    0.0924 C   0  0  0  0  0  0  0  0  0  0  0  0
    0.8652    1.3619    0.3508 C   0  0  3  0  0  0  0  0  0  0  0  0
    1.0150   -1.0698    0.2146 N   0  0  0  0  0  0  0  0  0  0  0  0
    1.6604    0.1128    0.0101 C   0  0  0  0  0  0  0  0  0  0  0  0
   -1.4160    2.1142    0.0702 O   0  0  0  0  0  0  0  0  0  0  0  0
   -0.7739   -2.3990    0.0294 O   0  0  0  0  0  0  0  0  0  0  0  0
    2.8458    0.1098   -0.3140 O   0  0  0  0  0  0  0  0  0  0  0  0
    1.0515    1.6058    1.8717 C   0  0  0  0  0  0  0  0  0  0  0  0
   -2.5364   -0.3082   -0.2178 C   0  0  0  0  0  0  0  0  0  0  0  0
    2.4868    1.8767    2.2605 C   0  0  0  0  0  0  0  0  0  0  0  0
    2.9249    3.0364    2.7635 C   0  0  0  0  0  0  0  0  0  0  0  0
    1.3989    2.5619   -0.4736 C   0  0  3  0  0  0  0  0  0  0  0  0
    1.1944    2.2712   -1.9515 C   0  0  0  0  0  0  0  0  0  0  0  0
    0.7332    3.9159   -0.1447 C   0  0  0  0  0  0  0  0  0  0  0  0
    1.0189    2.0218   -3.2192 C   0  0  0  0  0  0  0  0  0  0  0  0
    0.8143    1.7311   -4.6970 C   0  0  0  0  0  0  0  0  0  0  0  0
    1.1683    0.2840   -4.9895 C   0  0  0  0  0  0  0  0  0  0  0  0
    1.5738   -1.9028    0.0892 H   0  0  0  0  0  0  0  0  0  0  0  0
    0.4157    2.4402    2.1944 H   0  0  0  0  0  0  0  0  0  0  0  0
    0.6969    0.7399    2.4440 H   0  0  0  0  0  0  0  0  0  0  0  0
   -2.6820   -0.8129   -1.1777 H   0  0  0  0  0  0  0  0  0  0  0  0
   -2.9499   -0.9293    0.5811 H   0  0  0  0  0  0  0  0  0  0  0  0
   -3.0870    0.6374   -0.2423 H   0  0  0  0  0  0  0  0  0  0  0  0
    3.2202    1.0922    2.0693 H   0  0  0  0  0  0  0  0  0  0  0  0
    3.9808    3.1842    2.9717 H   0  0  0  0  0  0  0  0  0  0  0  0
    2.2537    3.8668    2.9552 H   0  0  0  0  0  0  0  0  0  0  0  0
    2.4792    2.6886   -0.3264 H   0  0  0  0  0  0  0  0  0  0  0  0
    0.8359    4.1768    0.9112 H   0  0  0  0  0  0  0  0  0  0  0  0
    1.1699    4.7279   -0.7324 H   0  0  0  0  0  0  0  0  0  0  0  0
   -0.3329    3.9424   -0.3841 H   0  0  0  0  0  0  0  0  0  0  0  0
   -0.2302    1.9258   -4.9616 H   0  0  0  0  0  0  0  0  0  0  0  0
    1.4465    2.4022   -5.2878 H   0  0  0  0  0  0  0  0  0  0  0  0
    0.5403   -0.3990   -4.4067 H   0  0  0  0  0  0  0  0  0  0  0  0
    1.0254    0.0608   -6.0507 H   0  0  0  0  0  0  0  0  0  0  0  0
    2.2128    0.0761   -4.7322 H   0  0  0  0  0  0  0  0  0  0  0  0
  2  1  1  0  0  0  0
  3  1  1  0  0  0  0
  4  2  1  0  0  0  0
  4 14  1  0  0  0  0
  5  3  1  0  0  0  0
  5 20  1  0  0  0  0
  6  5  1  0  0  0  0
  6  4  1  0  0  0  0
  7  2  2  0  0  0  0
  8  3  2  0  0  0  0
  9  6  2  0  0  0  0
 10  4  1  0  0  0  0
 10 21  1  0  0  0  0
 10 22  1  0  0  0  0
 11  1  1  0  0  0  0
 11 23  1  0  0  0  0
 11 24  1  0  0  0  0
 11 25  1  0  0  0  0
 12 10  1  0  0  0  0
 12 26  1  0  0  0  0
 13 12  2  0  0  0  0
 13 27  1  0  0  0  0
 13 28  1  0  0  0  0
 14 15  1  0  0  0  0
 14 16  1  0  0  0  0
 14 29  1  0  0  0  0
 15 17  3  0  0  0  0
 16 30  1  0  0  0  0
 16 31  1  0  0  0  0
 16 32  1  0  0  0  0
 17 18  1  0  0  0  0
 18 19  1  0  0  0  0
 18 33  1  0  0  0  0
 18 34  1  0  0  0  0
 19 35  1  0  0  0  0
 19 36  1  0  0  0  0
 19 37  1  0  0  0  0
M  END
>  <DRUGBANK_ID>
DB00474

>  <SECONDARY_ACCESSION_NUMBERS>
APRD00058

>  <COMMON_NAME>
Methohexital

>  <CAS_NUMBER>
151-83-7

>  <UNII>
E5B8ND5IPE

>  <SYNONYMS>
(±)-5-allyl-1-methyl-5-(1-methyl-2-pentynyl)barbituric acid; 5-allyl-1-methyl-5-(1-methyl-2-pentynyl)-2,4,6(1H,3H,5H)-pyrimidinetrione; 5-Allyl-1-methyl-5-(1-methyl-pent-2-ynyl)-pyrimidine-2,4,6-trione; 5-Allyl-5-(3-hexyn-2-yl)-1-methylbarbituric acid; Methohexital; Methohexitalum; Methohexitone; Metohexital; α-DL-1-methyl-5-allyl-5-(1'-methylpentyn-2-yl)barbituric acid

$$$$
