
 OpenBabel10282417233D

 31 31  0  0  0  0  0  0  0  0999 V2000
    0.9241    0.0260   -0.1277 C   0  0  1  0  0  0  0  0  0  0  0  0
    0.2054   -1.1829   -0.7601 C   0  0  0  0  0  0  0  0  0  0  0  0
    0.4863    1.2243   -0.8865 N   0  0  0  0  0  0  0  0  0  0  0  0
    0.0573    2.4736   -0.5208 C   0  0  0  0  0  0  0  0  0  0  0  0
    0.5711    0.0912    1.3524 C   0  0  0  0  0  0  0  0  0  0  0  0
    0.8408   -1.7955   -1.7803 O   0  0  0  0  0  0  0  0  0  0  0  0
   -0.2264    3.2516   -1.4381 O   0  0  0  0  0  0  0  0  0  0  0  0
    1.0247   -0.9279    2.3325 C   0  0  0  0  0  0  0  0  0  0  0  0
   -0.9256   -1.5568   -0.4378 O   0  0  0  0  0  0  0  0  0  0  0  0
    1.6252   -2.8075    4.2478 C   0  0  0  0  0  0  0  0  0  0  0  0
   -1.0729    2.2108    1.6623 N   0  0  0  0  0  0  0  0  0  0  0  0
    1.6970   -0.5333    3.4999 C   0  0  0  0  0  0  0  0  0  0  0  0
    0.6080   -2.2436    2.1746 C   0  0  0  0  0  0  0  0  0  0  0  0
    0.9192   -3.1918    3.1189 C   0  0  0  0  0  0  0  0  0  0  0  0
    2.0031   -1.4863    4.4599 C   0  0  0  0  0  0  0  0  0  0  0  0
    1.9525   -3.7368    5.1845 O   0  0  0  0  0  0  0  0  0  0  0  0
   -0.0500    2.9497    0.9435 C   0  0  0  0  0  0  0  0  0  0  0  0
    2.0113   -0.0637   -0.2465 H   0  0  0  0  0  0  0  0  0  0  0  0
    0.4330    1.1159   -1.8937 H   0  0  0  0  0  0  0  0  0  0  0  0
    1.0018    1.0048    1.7449 H   0  0  0  0  0  0  0  0  0  0  0  0
   -0.5192    0.0878    1.4394 H   0  0  0  0  0  0  0  0  0  0  0  0
    1.6384   -1.3644   -2.1353 H   0  0  0  0  0  0  0  0  0  0  0  0
   -1.0479    2.2263    2.6750 H   0  0  0  0  0  0  0  0  0  0  0  0
   -1.9952    2.1645    1.2470 H   0  0  0  0  0  0  0  0  0  0  0  0
    1.9532    0.5113    3.6826 H   0  0  0  0  0  0  0  0  0  0  0  0
   -0.0155   -2.5520    1.3469 H   0  0  0  0  0  0  0  0  0  0  0  0
    0.5735   -4.2025    2.9434 H   0  0  0  0  0  0  0  0  0  0  0  0
    2.5202   -1.1997    5.3691 H   0  0  0  0  0  0  0  0  0  0  0  0
    1.6256   -4.5912    4.8565 H   0  0  0  0  0  0  0  0  0  0  0  0
    0.9413    2.8667    1.4045 H   0  0  0  0  0  0  0  0  0  0  0  0
   -0.2892    4.0138    0.9727 H   0  0  0  0  0  0  0  0  0  0  0  0
  1 18  1  6  0  0  0
  1  3  1  0  0  0  0
  1  2  1  0  0  0  0
  3 19  1  0  0  0  0
  4  3  1  0  0  0  0
  5  1  1  0  0  0  0
  5 20  1  0  0  0  0
  5 21  1  0  0  0  0
  6  2  1  0  0  0  0
  6 22  1  0  0  0  0
  7  4  2  0  0  0  0
  8  5  1  0  0  0  0
  9  2  2  0  0  0  0
 10 14  1  0  0  0  0
 11 17  1  0  0  0  0
 11 23  1  0  0  0  0
 11 24  1  0  0  0  0
 12  8  2  0  0  0  0
 12 25  1  0  0  0  0
 13  8  1  0  0  0  0
 13 26  1  0  0  0  0
 14 13  2  0  0  0  0
 14 27  1  0  0  0  0
 15 12  1  0  0  0  0
 15 10  2  0  0  0  0
 15 28  1  0  0  0  0
 16 10  1  0  0  0  0
 16 29  1  0  0  0  0
 17  4  1  0  0  0  0
 17 30  1  0  0  0  0
 17 31  1  0  0  0  0
M  END
>  <DRUGBANK_ID>
DB15991

>  <COMMON_NAME>
Glycyltyrosine

>  <CAS_NUMBER>
658-79-7

>  <UNII>
A226496H4O

$$$$
