3B4
 OpenBabel10282417163D

 33 34  0  0  0  0  0  0  0  0999 V2000
   -1.4570    0.2729   -0.2744 C   0  0  0  0  0  0  0  0  0  0  0  0
   -1.0066   -1.1009    0.2173 C   0  0  0  0  0  0  0  0  0  0  0  0
    0.4090   -1.4335   -0.2513 C   0  0  0  0  0  0  0  0  0  0  0  0
    1.3984   -0.3507    0.1603 C   0  0  0  0  0  0  0  0  0  0  0  0
    0.9405    0.9955   -0.4077 C   0  0  0  0  0  0  0  0  0  0  0  0
   -0.4547    1.3454    0.1600 C   0  0  0  0  0  0  0  0  0  0  0  0
   -0.9395    2.6348   -0.3020 N   0  0  0  0  0  0  0  0  0  0  0  0
   -1.0451    3.7598    0.5164 C   0  0  0  0  0  0  0  0  0  0  0  0
   -2.2152    4.5288    0.2679 C   0  0  0  0  0  0  0  0  0  0  0  0
   -2.4329    5.7748    0.8525 C   0  0  0  0  0  0  0  0  0  0  0  0
   -1.4968    6.2746    1.7361 C   0  0  0  0  0  0  0  0  0  0  0  0
   -0.3525    5.5309    2.0297 C   0  0  0  0  0  0  0  0  0  0  0  0
   -0.1038    4.2602    1.4618 C   0  0  0  0  0  0  0  0  0  0  0  0
    1.1161    3.5079    1.9615 C   0  0  0  0  0  0  0  0  0  0  0  0
    2.0681    4.1990    2.6229 O   0  0  0  0  0  0  0  0  0  0  0  0
    1.3015    2.3070    1.8751 O   0  0  0  0  0  0  0  0  0  0  0  0
   -1.5590    0.2721   -1.3663 H   0  0  0  0  0  0  0  0  0  0  0  0
   -2.4469    0.5046    0.1380 H   0  0  0  0  0  0  0  0  0  0  0  0
   -1.0375   -1.1190    1.3147 H   0  0  0  0  0  0  0  0  0  0  0  0
   -1.7057   -1.8622   -0.1396 H   0  0  0  0  0  0  0  0  0  0  0  0
    0.7202   -2.4006    0.1553 H   0  0  0  0  0  0  0  0  0  0  0  0
    0.4184   -1.5175   -1.3444 H   0  0  0  0  0  0  0  0  0  0  0  0
    1.4637   -0.3063    1.2566 H   0  0  0  0  0  0  0  0  0  0  0  0
    2.4025   -0.5958   -0.2024 H   0  0  0  0  0  0  0  0  0  0  0  0
    1.7074    1.7498   -0.2050 H   0  0  0  0  0  0  0  0  0  0  0  0
    0.9069    0.9460   -1.5026 H   0  0  0  0  0  0  0  0  0  0  0  0
   -0.4922    1.3119    1.2533 H   0  0  0  0  0  0  0  0  0  0  0  0
   -0.8119    2.8280   -1.2919 H   0  0  0  0  0  0  0  0  0  0  0  0
   -2.9971    4.1244   -0.3781 H   0  0  0  0  0  0  0  0  0  0  0  0
   -3.3221    6.3520    0.6119 H   0  0  0  0  0  0  0  0  0  0  0  0
   -1.6570    7.2339    2.2215 H   0  0  0  0  0  0  0  0  0  0  0  0
    0.3257    5.9933    2.7324 H   0  0  0  0  0  0  0  0  0  0  0  0
    1.8431    5.0473    3.0217 H   0  0  0  0  0  0  0  0  0  0  0  0
  1 17  1  0  0  0  0
  1 18  1  0  0  0  0
  2  1  1  0  0  0  0
  2 19  1  0  0  0  0
  2 20  1  0  0  0  0
  3  2  1  0  0  0  0
  3 21  1  0  0  0  0
  3 22  1  0  0  0  0
  4  3  1  0  0  0  0
  4 23  1  0  0  0  0
  4 24  1  0  0  0  0
  5  4  1  0  0  0  0
  5  6  1  0  0  0  0
  5 25  1  0  0  0  0
  5 26  1  0  0  0  0
  6  1  1  0  0  0  0
  6  7  1  0  0  0  0
  6 27  1  0  0  0  0
  7  8  1  0  0  0  0
  7 28  1  0  0  0  0
  8 13  1  0  0  0  0
  9  8  2  0  0  0  0
  9 10  1  0  0  0  0
  9 29  1  0  0  0  0
 10 11  2  0  0  0  0
 10 30  1  0  0  0  0
 11 12  1  0  0  0  0
 11 31  1  0  0  0  0
 12 32  1  0  0  0  0
 13 12  2  0  0  0  0
 13 14  1  0  0  0  0
 14 15  1  0  0  0  0
 15 33  1  0  0  0  0
 16 14  2  0  0  0  0
M  END
>  <DRUGBANK_ID>
DB07038

>  <COMMON_NAME>
2-(cyclohexylamino)benzoic acid

>  <UNII>
B519KGK87P

$$$$
