
 OpenBabel10282417133D

 14 13  0  0  1  0  0  0  0  0999 V2000
    0.9429   -0.0279    0.0558 C   0  0  0  0  0  0  0  0  0  0  0  0
    0.1604    1.2527   -0.2963 C   0  0  1  0  0  0  0  0  0  0  0  0
   -0.7236    1.0151   -1.5360 C   0  0  0  0  0  0  0  0  0  0  0  0
    2.2885    0.0779   -0.0135 O   0  0  0  0  0  0  0  0  0  0  0  0
    0.4089   -1.0912    0.3561 O   0  0  0  0  0  0  0  0  0  0  0  0
   -0.6313    1.6986    0.8716 N   0  0  0  0  0  0  0  0  0  0  0  0
   -2.0448   -0.2329   -1.3236 S   0  0  0  0  0  0  0  0  0  0  0  0
    0.8748    2.0523   -0.5273 H   0  0  0  0  0  0  0  0  0  0  0  0
   -1.2287    1.9493   -1.8072 H   0  0  0  0  0  0  0  0  0  0  0  0
   -0.1058    0.7153   -2.3880 H   0  0  0  0  0  0  0  0  0  0  0  0
    2.6393    0.9712   -0.1813 H   0  0  0  0  0  0  0  0  0  0  0  0
   -1.2070    2.4998    0.6082 H   0  0  0  0  0  0  0  0  0  0  0  0
   -1.3132    0.9554    1.0690 H   0  0  0  0  0  0  0  0  0  0  0  0
   -1.2400   -1.2352   -0.9076 H   0  0  0  0  0  0  0  0  0  0  0  0
  2  1  1  0  0  0  0
  2  6  1  0  0  0  0
  2  8  1  6  0  0  0
  3  2  1  0  0  0  0
  3  9  1  0  0  0  0
  3 10  1  0  0  0  0
  4  1  1  0  0  0  0
  4 11  1  0  0  0  0
  5  1  2  0  0  0  0
  6 12  1  0  0  0  0
  6 13  1  0  0  0  0
  7  3  1  0  0  0  0
  7 14  1  0  0  0  0
M  END
>  <DRUGBANK_ID>
DB03201

>  <SECONDARY_ACCESSION_NUMBERS>
EXPT01139

>  <COMMON_NAME>
D-Cysteine

>  <CAS_NUMBER>
921-01-7

>  <UNII>
IU8WN3PPI2

>  <SYNONYMS>
(2S)-2-amino-3-mercaptopropanoic acid; (2S)-2-amino-3-sulfanylpropanoic acid; (S)-2-amino-3-mercaptopropanoic acid; D-Amino-3-mercaptopropionic acid; D-Cystein; D-Zystein

$$$$
