
 OpenBabel10282417153D

 17 11  0  0  0  0  0  0  0  0999 V2000
    1.0672    0.0570    0.0473 Cl  0  0  0  0  0  0  0  0  0  0  0  0
    0.9194    0.0162   -0.0570 Cl  0  0  0  0  0  0  0  0  0  0  0  0
    0.9333    0.0621   -0.0412 Cl  0  0  0  0  0  0  0  0  0  0  0  0
    1.0057    0.0252    0.0966 Cl  0  0  0  0  0  0  0  0  0  0  0  0
   -0.6128    0.0570    0.0473 O   0  5  0  0  0  0  0  0  0  0  0  0
   -0.7606    0.0162   -0.0570 O   0  5  0  0  0  0  0  0  0  0  0  0
   -0.7467    0.0621   -0.0412 O   0  5  0  0  0  0  0  0  0  0  0  0
   -0.6743    0.0252    0.0966 O   0  5  0  0  0  0  0  0  0  0  0  0
    2.5708    0.0570    0.0473 O   0  0  0  0  0  0  0  0  0  0  0  0
    2.4230    0.0162   -0.0570 O   0  0  0  0  0  0  0  0  0  0  0  0
    2.4369    0.0621   -0.0412 O   0  0  0  0  0  0  0  0  0  0  0  0
    2.5093    0.0252    0.0966 O   0  0  0  0  0  0  0  0  0  0  0  0
    1.0534   -0.0655   -0.0534 O   0  0  0  0  0  0  0  0  0  0  0  0
    0.9023    0.0089    0.0193 O   0  0  0  0  0  0  0  0  0  0  0  0
    2.0837    0.0089    0.0193 O   0  0  0  0  0  0  0  0  0  0  0  0
    0.7201   -0.9051    0.3755 H   0  0  0  0  0  0  0  0  0  0  0  0
    2.0534   -0.0655   -0.0534 H   0  0  0  0  0  0  0  0  0  0  0  0
  1  5  1  0  0  0  0
  1  9  2  0  0  0  0
  2  6  1  0  0  0  0
  2 10  2  0  0  0  0
  3  7  1  0  0  0  0
  3 11  2  0  0  0  0
  4  8  1  0  0  0  0
  4 12  2  0  0  0  0
 13 16  1  0  0  0  0
 13 17  1  0  0  0  0
 14 15  2  0  0  0  0
M  CHG  4   5  -1   6  -1   7  -1   8  -1
M  END
>  <DRUGBANK_ID>
DB05389

>  <COMMON_NAME>
Tetrachlorodecaoxide

>  <CAS_NUMBER>
92047-76-2

>  <UNII>
549BT7IE1Q

>  <SYNONYMS>
TCDO; Tetrachlorodecaoxygen

$$$$
