
 OpenBabel10282417133D

 18 17  0  0  1  0  0  0  0  0999 V2000
    0.9023    1.9129   -1.5593 C   0  0  0  0  0  0  0  0  0  0  0  0
    0.4671    1.4318   -0.1639 C   0  0  2  0  0  0  0  0  0  0  0  0
    1.2164    0.1500    0.2926 C   0  0  0  0  0  0  0  0  0  0  0  0
   -1.0048    1.3435   -0.0372 N   0  0  0  0  0  0  0  0  0  0  0  0
    1.6968   -0.0540    1.4038 O   0  0  0  0  0  0  0  0  0  0  0  0
    1.3830   -0.7748   -0.6722 O   0  0  0  0  0  0  0  0  0  0  0  0
    0.8562    1.8676   -3.8553 O   0  0  0  0  0  0  0  0  0  0  0  0
    0.4815   -0.2406   -2.7290 O   0  0  0  0  0  0  0  0  0  0  0  0
   -1.2022    0.6306   -3.8700 O   0  0  0  0  0  0  0  0  0  0  0  0
   -0.2377    1.2183   -2.8110 P   0  0  0  0  0  0  0  0  0  0  0  0
    0.7927    2.1858    0.5599 H   0  0  0  0  0  0  0  0  0  0  0  0
    1.9459    1.6356   -1.7532 H   0  0  0  0  0  0  0  0  0  0  0  0
    0.8223    3.0059   -1.6045 H   0  0  0  0  0  0  0  0  0  0  0  0
   -1.4274    2.2553   -0.2338 H   0  0  0  0  0  0  0  0  0  0  0  0
   -1.4442    0.6769   -0.6769 H   0  0  0  0  0  0  0  0  0  0  0  0
    2.0732   -1.4244   -0.4003 H   0  0  0  0  0  0  0  0  0  0  0  0
    0.4410    2.3863   -4.5619 H   0  0  0  0  0  0  0  0  0  0  0  0
    0.6131   -0.6305   -1.8446 H   0  0  0  0  0  0  0  0  0  0  0  0
  1 12  1  0  0  0  0
  1 13  1  0  0  0  0
  2  4  1  0  0  0  0
  2 11  1  1  0  0  0
  2  3  1  0  0  0  0
  2  1  1  0  0  0  0
  4 14  1  0  0  0  0
  4 15  1  0  0  0  0
  5  3  2  0  0  0  0
  6  3  1  0  0  0  0
  6 16  1  0  0  0  0
  7 17  1  0  0  0  0
  8 18  1  0  0  0  0
 10  1  1  0  0  0  0
 10  7  1  0  0  0  0
 10  8  1  0  0  0  0
 10  9  2  0  0  0  0
M  END
>  <DRUGBANK_ID>
DB03292

>  <SECONDARY_ACCESSION_NUMBERS>
EXPT00542

>  <COMMON_NAME>
3-Phosphono-D-alanine

>  <CAS_NUMBER>
128241-72-5

>  <UNII>
ZL1D9LZ2KD

>  <SYNONYMS>
(S)-2-Amino-3-phosphonopropanoic acid; D-2-Amino-3-phosphonopropionic acid

$$$$
