DT5
 OpenBabel10282417163D

 47 50  0  0  0  0  0  0  0  0999 V2000
    1.0035   -0.2070   -0.0245 N   0  0  0  0  0  0  0  0  0  0  0  0
    0.3792   -1.7676    0.0735 S   0  0  0  0  0  0  0  0  0  0  0  0
    1.0355   -2.3686    1.2050 O   0  0  0  0  0  0  0  0  0  0  0  0
   -1.0625   -1.6451   -0.0078 O   0  0  0  0  0  0  0  0  0  0  0  0
    0.9335   -2.6028   -1.3873 C   0  0  0  0  0  0  0  0  0  0  0  0
    1.7109   -2.0003   -2.3799 C   0  0  0  0  0  0  0  0  0  0  0  0
    0.6270   -3.9548   -1.4804 C   0  0  0  0  0  0  0  0  0  0  0  0
    1.1402   -4.7033   -2.5369 C   0  0  0  0  0  0  0  0  0  0  0  0
    2.1474   -2.7573   -3.4920 C   0  0  0  0  0  0  0  0  0  0  0  0
    1.8446   -4.1217   -3.6033 C   0  0  0  0  0  0  0  0  0  0  0  0
    2.2599   -4.9013   -4.7086 N   0  0  0  0  0  0  0  0  0  0  0  0
    1.8313   -6.2052   -4.9814 C   0  0  0  0  0  0  0  0  0  0  0  0
    2.7431   -7.2443   -5.2146 N   0  0  0  0  0  0  0  0  0  0  0  0
    2.3092   -8.5829   -5.3321 C   0  0  0  0  0  0  0  0  0  0  0  0
    0.9894   -8.9379   -5.2604 N   0  0  0  0  0  0  0  0  0  0  0  0
    3.3619   -9.3546   -5.4886 N   0  0  0  0  0  0  0  0  0  0  0  0
    4.4016   -8.4799   -5.4707 C   0  0  0  0  0  0  0  0  0  0  0  0
    4.0921   -7.1942   -5.3191 N   0  0  0  0  0  0  0  0  0  0  0  0
    0.5391   -6.5459   -4.9548 C   0  0  0  0  0  0  0  0  0  0  0  0
    0.1567   -7.9624   -5.0838 C   0  0  0  0  0  0  0  0  0  0  0  0
   -1.1636   -8.2507   -4.9911 O   0  0  0  0  0  0  0  0  0  0  0  0
   -2.2120   -7.2831   -4.7107 C   0  0  0  0  0  0  0  0  0  0  0  0
   -2.3587   -6.2694   -5.8603 C   0  0  0  0  0  0  0  0  0  0  0  0
   -3.3033   -5.1361   -5.5062 C   0  0  0  0  0  0  0  0  0  0  0  0
   -2.9578   -4.5026   -4.1600 C   0  0  0  0  0  0  0  0  0  0  0  0
   -2.9808   -5.5290   -3.0303 C   0  0  0  0  0  0  0  0  0  0  0  0
   -2.0469   -6.6930   -3.2997 C   0  0  0  0  0  0  0  0  0  0  0  0
    0.5704    0.3460    0.7218 H   0  0  0  0  0  0  0  0  0  0  0  0
    2.0166   -0.2140    0.0924 H   0  0  0  0  0  0  0  0  0  0  0  0
    1.9812   -0.9500   -2.3125 H   0  0  0  0  0  0  0  0  0  0  0  0
    0.0076   -4.4443   -0.7320 H   0  0  0  0  0  0  0  0  0  0  0  0
    0.9838   -5.7765   -2.5012 H   0  0  0  0  0  0  0  0  0  0  0  0
    2.7435   -2.2617   -4.2555 H   0  0  0  0  0  0  0  0  0  0  0  0
    2.7661   -4.4442   -5.4617 H   0  0  0  0  0  0  0  0  0  0  0  0
    5.4313   -8.7913   -5.5755 H   0  0  0  0  0  0  0  0  0  0  0  0
   -0.1621   -5.7602   -4.7606 H   0  0  0  0  0  0  0  0  0  0  0  0
   -3.1466   -7.8604   -4.6918 H   0  0  0  0  0  0  0  0  0  0  0  0
   -1.4170   -5.8162   -6.1728 H   0  0  0  0  0  0  0  0  0  0  0  0
   -2.6761   -6.7900   -6.7712 H   0  0  0  0  0  0  0  0  0  0  0  0
   -3.2545   -4.3735   -6.2918 H   0  0  0  0  0  0  0  0  0  0  0  0
   -4.3272   -5.5210   -5.4827 H   0  0  0  0  0  0  0  0  0  0  0  0
   -1.9690   -4.0272   -4.2131 H   0  0  0  0  0  0  0  0  0  0  0  0
   -3.6785   -3.7085   -3.9390 H   0  0  0  0  0  0  0  0  0  0  0  0
   -2.6855   -5.0443   -2.0920 H   0  0  0  0  0  0  0  0  0  0  0  0
   -3.9968   -5.9119   -2.8961 H   0  0  0  0  0  0  0  0  0  0  0  0
   -2.1591   -7.4820   -2.5469 H   0  0  0  0  0  0  0  0  0  0  0  0
   -1.0378   -6.3387   -3.1133 H   0  0  0  0  0  0  0  0  0  0  0  0
  1  2  1  0  0  0  0
  1 28  1  0  0  0  0
  1 29  1  0  0  0  0
  2  3  2  0  0  0  0
  2  4  2  0  0  0  0
  2  5  1  0  0  0  0
  5  6  2  0  0  0  0
  5  7  1  0  0  0  0
  6  9  1  0  0  0  0
  6 30  1  0  0  0  0
  7  8  2  0  0  0  0
  7 31  1  0  0  0  0
  8 10  1  0  0  0  0
  8 32  1  0  0  0  0
  9 10  2  0  0  0  0
  9 33  1  0  0  0  0
 10 11  1  0  0  0  0
 11 12  1  0  0  0  0
 11 34  1  0  0  0  0
 12 13  1  0  0  0  0
 12 19  2  0  0  0  0
 13 14  1  0  0  0  0
 13 18  1  0  0  0  0
 14 15  1  0  0  0  0
 14 16  2  0  0  0  0
 15 20  2  0  0  0  0
 16 17  1  0  0  0  0
 17 18  2  0  0  0  0
 17 35  1  0  0  0  0
 19 20  1  0  0  0  0
 19 36  1  0  0  0  0
 20 21  1  0  0  0  0
 21 22  1  0  0  0  0
 22 23  1  0  0  0  0
 22 27  1  0  0  0  0
 22 37  1  0  0  0  0
 23 24  1  0  0  0  0
 23 38  1  0  0  0  0
 23 39  1  0  0  0  0
 24 25  1  0  0  0  0
 24 40  1  0  0  0  0
 24 41  1  0  0  0  0
 25 26  1  0  0  0  0
 25 42  1  0  0  0  0
 25 43  1  0  0  0  0
 26 27  1  0  0  0  0
 26 44  1  0  0  0  0
 26 45  1  0  0  0  0
 27 46  1  0  0  0  0
 27 47  1  0  0  0  0
M  END
>  <DRUGBANK_ID>
DB07688

>  <COMMON_NAME>
4-{[5-(CYCLOHEXYLOXY)[1,2,4]TRIAZOLO[1,5-A]PYRIMIDIN-7-YL]AMINO}BENZENESULFONAMIDE

$$$$
