
 OpenBabel10282417183D

 69 70  0  0  0  0  0  0  0  0999 V2000
    1.0083    0.2359    0.1140 O   0  0  0  0  0  0  0  0  0  0  0  0
   -5.5894    2.5469    3.0796 O   0  0  0  0  0  0  0  0  0  0  0  0
    1.0724    0.8680    2.3075 O   0  0  0  0  0  0  0  0  0  0  0  0
   -3.8449    3.7865    2.8021 O   0  0  0  0  0  0  0  0  0  0  0  0
    2.4338   -0.0083   -2.4540 O   0  0  0  0  0  0  0  0  0  0  0  0
   -5.6602    1.3320   -0.0071 O   0  0  0  0  0  0  0  0  0  0  0  0
    2.6528    5.4096    3.5203 O   0  5  0  0  0  0  0  0  0  0  0  0
    2.6280    4.1156    1.7468 O   0  0  0  0  0  0  0  0  0  0  0  0
   -3.0405   -0.3951    0.7798 N   0  0  0  0  0  0  0  0  0  0  0  0
    2.0929    4.6249    2.7440 N   0  3  0  0  0  0  0  0  0  0  0  0
   -1.8906    1.8787    1.6751 C   0  0  3  0  0  0  0  0  0  0  0  0
   -1.0324    0.6697    1.1685 C   0  0  0  0  0  0  0  0  0  0  0  0
   -3.3396    1.4171    2.2584 C   0  0  0  0  0  0  0  0  0  0  0  0
   -1.1352    2.8123    2.5989 C   0  0  0  0  0  0  0  0  0  0  0  0
   -1.7001   -0.4350    0.7839 C   0  0  0  0  0  0  0  0  0  0  0  0
   -3.6934    0.1545    1.8506 C   0  0  0  0  0  0  0  0  0  0  0  0
    0.4321    0.5947    1.2692 C   0  0  0  0  0  0  0  0  0  0  0  0
   -4.2522    2.6173    2.8440 C   0  0  0  0  0  0  0  0  0  0  0  0
    0.0395    3.4235    2.1625 C   0  0  0  0  0  0  0  0  0  0  0  0
   -1.6338    3.1755    3.8528 C   0  0  0  0  0  0  0  0  0  0  0  0
   -1.2528   -1.8271    0.5821 C   0  0  0  0  0  0  0  0  0  0  0  0
   -4.8965   -0.6735    2.0135 C   0  0  0  0  0  0  0  0  0  0  0  0
    0.7127    4.2664    3.0357 C   0  0  0  0  0  0  0  0  0  0  0  0
   -1.1670    4.2863    4.5165 C   0  0  0  0  0  0  0  0  0  0  0  0
    0.0856    4.7511    4.1868 C   0  0  0  0  0  0  0  0  0  0  0  0
    2.4542    0.2340    0.0535 C   0  0  0  0  0  0  0  0  0  0  0  0
   -6.5780    1.6172    2.6118 C   0  0  0  0  0  0  0  0  0  0  0  0
    3.0284   -0.4148   -1.2235 C   0  0  0  0  0  0  0  0  0  0  0  0
   -6.7245    1.2595    0.9805 C   0  0  0  0  0  0  0  0  0  0  0  0
    1.0236   -0.1745   -2.5614 C   0  0  0  0  0  0  0  0  0  0  0  0
   -4.8207    2.4643   -0.0041 C   0  0  0  0  0  0  0  0  0  0  0  0
    0.5040   -1.6221   -2.4668 C   0  0  0  0  0  0  0  0  0  0  0  0
   -5.3454    3.8408   -0.2644 C   0  0  0  0  0  0  0  0  0  0  0  0
    0.9311   -2.5059   -1.2983 C   0  0  0  0  0  0  0  0  0  0  0  0
   -6.6522    4.1164    0.4498 C   0  0  0  0  0  0  0  0  0  0  0  0
   -3.4903   -1.2220    0.3815 H   0  0  0  0  0  0  0  0  0  0  0  0
   -2.0834    2.4936    0.7770 H   0  0  0  0  0  0  0  0  0  0  0  0
    0.4784    3.1620    1.2008 H   0  0  0  0  0  0  0  0  0  0  0  0
   -2.5065    2.7064    4.2884 H   0  0  0  0  0  0  0  0  0  0  0  0
   -1.7889   -2.4994    1.2623 H   0  0  0  0  0  0  0  0  0  0  0  0
   -1.4989   -2.1575   -0.4338 H   0  0  0  0  0  0  0  0  0  0  0  0
   -0.2268   -1.9250    0.8831 H   0  0  0  0  0  0  0  0  0  0  0  0
   -5.3077   -1.0927    1.0829 H   0  0  0  0  0  0  0  0  0  0  0  0
   -5.0951   -1.2837    2.8835 H   0  0  0  0  0  0  0  0  0  0  0  0
   -5.4978    0.1286    2.1419 H   0  0  0  0  0  0  0  0  0  0  0  0
   -1.7822    4.7307    5.2921 H   0  0  0  0  0  0  0  0  0  0  0  0
    0.5573    5.4637    4.8490 H   0  0  0  0  0  0  0  0  0  0  0  0
    2.7775    1.2754    0.0751 H   0  0  0  0  0  0  0  0  0  0  0  0
    2.8425   -0.3119    0.9205 H   0  0  0  0  0  0  0  0  0  0  0  0
   -6.4041    0.7835    3.3152 H   0  0  0  0  0  0  0  0  0  0  0  0
   -7.5734    1.8837    2.9776 H   0  0  0  0  0  0  0  0  0  0  0  0
    4.1020   -0.2028   -1.2863 H   0  0  0  0  0  0  0  0  0  0  0  0
    3.0358   -1.4984   -1.1712 H   0  0  0  0  0  0  0  0  0  0  0  0
   -7.0436    0.2070    0.9363 H   0  0  0  0  0  0  0  0  0  0  0  0
   -7.6035    1.6909    0.5215 H   0  0  0  0  0  0  0  0  0  0  0  0
    0.5006    0.5159   -1.8947 H   0  0  0  0  0  0  0  0  0  0  0  0
    0.7338    0.2242   -3.5415 H   0  0  0  0  0  0  0  0  0  0  0  0
   -4.6279    2.5815    0.9980 H   0  0  0  0  0  0  0  0  0  0  0  0
   -3.8214    2.2845   -0.4291 H   0  0  0  0  0  0  0  0  0  0  0  0
   -0.5914   -1.5587   -2.4697 H   0  0  0  0  0  0  0  0  0  0  0  0
    0.8042   -2.1512   -3.3723 H   0  0  0  0  0  0  0  0  0  0  0  0
   -4.5996    4.5637    0.1052 H   0  0  0  0  0  0  0  0  0  0  0  0
   -5.4308    3.9351   -1.3400 H   0  0  0  0  0  0  0  0  0  0  0  0
    1.0057   -1.9266   -0.3925 H   0  0  0  0  0  0  0  0  0  0  0  0
    0.2325   -3.3298   -1.1286 H   0  0  0  0  0  0  0  0  0  0  0  0
    1.9066   -2.9767   -1.4010 H   0  0  0  0  0  0  0  0  0  0  0  0
   -6.5556    4.0751    1.5407 H   0  0  0  0  0  0  0  0  0  0  0  0
   -7.0540    5.0841    0.1830 H   0  0  0  0  0  0  0  0  0  0  0  0
   -7.4147    3.4139    0.1438 H   0  0  0  0  0  0  0  0  0  0  0  0
  1 17  1  0  0  0  0
  1 26  1  0  0  0  0
  2 18  1  0  0  0  0
  2 27  1  0  0  0  0
  3 17  2  0  0  0  0
  4 18  2  0  0  0  0
  5 28  1  0  0  0  0
  5 30  1  0  0  0  0
  6 29  1  0  0  0  0
  6 31  1  0  0  0  0
  7 10  1  0  0  0  0
  8 10  2  0  0  0  0
  9 15  1  0  0  0  0
  9 16  1  0  0  0  0
  9 36  1  0  0  0  0
 10 23  1  0  0  0  0
 11 12  1  0  0  0  0
 11 13  1  0  0  0  0
 11 14  1  0  0  0  0
 11 37  1  0  0  0  0
 12 15  2  0  0  0  0
 12 17  1  0  0  0  0
 13 16  2  0  0  0  0
 13 18  1  0  0  0  0
 14 19  2  0  0  0  0
 14 20  1  0  0  0  0
 15 21  1  0  0  0  0
 16 22  1  0  0  0  0
 19 23  1  0  0  0  0
 19 38  1  0  0  0  0
 20 24  2  0  0  0  0
 20 39  1  0  0  0  0
 21 40  1  0  0  0  0
 21 41  1  0  0  0  0
 21 42  1  0  0  0  0
 22 43  1  0  0  0  0
 22 44  1  0  0  0  0
 22 45  1  0  0  0  0
 23 25  2  0  0  0  0
 24 25  1  0  0  0  0
 24 46  1  0  0  0  0
 25 47  1  0  0  0  0
 26 28  1  0  0  0  0
 26 48  1  0  0  0  0
 26 49  1  0  0  0  0
 27 29  1  0  0  0  0
 27 50  1  0  0  0  0
 27 51  1  0  0  0  0
 28 52  1  0  0  0  0
 28 53  1  0  0  0  0
 29 54  1  0  0  0  0
 29 55  1  0  0  0  0
 30 32  1  0  0  0  0
 30 56  1  0  0  0  0
 30 57  1  0  0  0  0
 31 33  1  0  0  0  0
 31 58  1  0  0  0  0
 31 59  1  0  0  0  0
 32 34  1  0  0  0  0
 32 60  1  0  0  0  0
 32 61  1  0  0  0  0
 33 35  1  0  0  0  0
 33 62  1  0  0  0  0
 33 63  1  0  0  0  0
 34 64  1  0  0  0  0
 34 65  1  0  0  0  0
 34 66  1  0  0  0  0
 35 67  1  0  0  0  0
 35 68  1  0  0  0  0
 35 69  1  0  0  0  0
M  CHG  2   7  -1  10   1
M  END
>  <DRUGBANK_ID>
DB09240

>  <COMMON_NAME>
Niludipine

>  <CAS_NUMBER>
22609-73-0

>  <UNII>
9844OS3B0J

>  <SYNONYMS>
Niludipine

$$$$
