DF1
 OpenBabel10282417163D

 46 49  0  0  0  0  0  0  0  0999 V2000
    1.3722   -0.1392    0.5646 C   0  0  0  0  0  0  0  0  0  0  0  0
    0.4824   -1.2223    0.5904 C   0  0  0  0  0  0  0  0  0  0  0  0
   -0.8881   -1.0099    0.4209 C   0  0  0  0  0  0  0  0  0  0  0  0
   -1.3727    0.2837    0.2327 C   0  0  0  0  0  0  0  0  0  0  0  0
   -0.4841    1.3634    0.1636 C   0  0  0  0  0  0  0  0  0  0  0  0
    0.9044    1.1512    0.2431 C   0  0  0  0  0  0  0  0  0  0  0  0
    1.8517    2.2143   -0.1888 C   0  0  0  0  0  0  0  0  0  0  0  0
    2.6942    2.4195   -1.3807 C   0  0  0  0  0  0  0  0  0  0  0  0
    3.0693    1.7618   -2.5997 C   0  0  0  0  0  0  0  0  0  0  0  0
    2.7008    0.5211   -3.0786 N   0  0  0  0  0  0  0  0  0  0  0  0
    1.8351   -0.3584   -2.3597 C   0  0  0  0  0  0  0  0  0  0  0  0
    0.5261   -0.7167   -3.0460 C   0  0  1  0  0  0  0  0  0  0  0  0
    0.8090   -1.6329   -4.1898 C   0  0  0  0  0  0  0  0  0  0  0  0
   -0.3827   -1.4512   -2.2268 O   0  0  0  0  0  0  0  0  0  0  0  0
    3.9031    2.4164   -3.4513 N   0  0  0  0  0  0  0  0  0  0  0  0
    4.3443    3.6428   -3.1401 C   0  0  0  0  0  0  0  0  0  0  0  0
    4.0837    4.3450   -2.0343 N   0  0  0  0  0  0  0  0  0  0  0  0
    3.2608    3.6792   -1.2074 C   0  0  0  0  0  0  0  0  0  0  0  0
    2.8513    4.2050   -0.0106 N   0  0  0  0  0  0  0  0  0  0  0  0
    1.9940    3.3354    0.6147 C   0  0  0  0  0  0  0  0  0  0  0  0
    1.3377    3.6116    1.8824 C   0  0  0  0  0  0  0  0  0  0  0  0
    0.4701    4.6956    2.0075 C   0  0  0  0  0  0  0  0  0  0  0  0
   -0.3452    4.7950    3.1330 C   0  0  0  0  0  0  0  0  0  0  0  0
   -0.3149    3.7993    4.1128 C   0  0  0  0  0  0  0  0  0  0  0  0
    0.5406    2.7098    3.9825 C   0  0  0  0  0  0  0  0  0  0  0  0
    1.3978    2.6407    2.8931 C   0  0  0  0  0  0  0  0  0  0  0  0
    0.0051    0.2033   -3.3338 H   0  0  0  0  0  0  0  0  0  0  0  0
    2.4425   -0.3386    0.5584 H   0  0  0  0  0  0  0  0  0  0  0  0
    0.8719   -2.2389    0.5640 H   0  0  0  0  0  0  0  0  0  0  0  0
   -1.5616   -1.8563    0.2857 H   0  0  0  0  0  0  0  0  0  0  0  0
   -2.4303    0.4351    0.0261 H   0  0  0  0  0  0  0  0  0  0  0  0
   -0.8852    2.3563   -0.0230 H   0  0  0  0  0  0  0  0  0  0  0  0
    3.1719    0.2216   -3.9212 H   0  0  0  0  0  0  0  0  0  0  0  0
    2.3672   -1.2071   -1.9134 H   0  0  0  0  0  0  0  0  0  0  0  0
    1.4803    0.2280   -1.5705 H   0  0  0  0  0  0  0  0  0  0  0  0
    1.2985   -2.5340   -3.8005 H   0  0  0  0  0  0  0  0  0  0  0  0
   -0.1354   -1.9416   -4.6403 H   0  0  0  0  0  0  0  0  0  0  0  0
    1.4527   -1.1488   -4.9203 H   0  0  0  0  0  0  0  0  0  0  0  0
    0.1031   -2.1723   -1.7935 H   0  0  0  0  0  0  0  0  0  0  0  0
    4.9884    4.1190   -3.8749 H   0  0  0  0  0  0  0  0  0  0  0  0
    3.1505    5.0948    0.3368 H   0  0  0  0  0  0  0  0  0  0  0  0
    0.3714    5.4222    1.2044 H   0  0  0  0  0  0  0  0  0  0  0  0
   -1.0394    5.6248    3.2242 H   0  0  0  0  0  0  0  0  0  0  0  0
   -0.9740    3.8621    4.9729 H   0  0  0  0  0  0  0  0  0  0  0  0
    0.5185    1.8942    4.6996 H   0  0  0  0  0  0  0  0  0  0  0  0
    2.0515    1.7775    2.7851 H   0  0  0  0  0  0  0  0  0  0  0  0
  1  2  2  0  0  0  0
  1  6  1  0  0  0  0
  1 28  1  0  0  0  0
  2  3  1  0  0  0  0
  2 29  1  0  0  0  0
  3  4  2  0  0  0  0
  3 30  1  0  0  0  0
  4  5  1  0  0  0  0
  4 31  1  0  0  0  0
  5  6  2  0  0  0  0
  5 32  1  0  0  0  0
  6  7  1  0  0  0  0
  7  8  1  0  0  0  0
  7 20  2  0  0  0  0
  8  9  2  0  0  0  0
  8 18  1  0  0  0  0
  9 10  1  0  0  0  0
  9 15  1  0  0  0  0
 10 11  1  0  0  0  0
 10 33  1  0  0  0  0
 11 12  1  0  0  0  0
 11 34  1  0  0  0  0
 11 35  1  0  0  0  0
 12 13  1  0  0  0  0
 12 14  1  0  0  0  0
 12 27  1  6  0  0  0
 13 36  1  0  0  0  0
 13 37  1  0  0  0  0
 13 38  1  0  0  0  0
 14 39  1  0  0  0  0
 15 16  2  0  0  0  0
 16 17  1  0  0  0  0
 16 40  1  0  0  0  0
 17 18  2  0  0  0  0
 18 19  1  0  0  0  0
 19 20  1  0  0  0  0
 19 41  1  0  0  0  0
 20 21  1  0  0  0  0
 21 22  2  0  0  0  0
 21 26  1  0  0  0  0
 22 23  1  0  0  0  0
 22 42  1  0  0  0  0
 23 24  2  0  0  0  0
 23 43  1  0  0  0  0
 24 25  1  0  0  0  0
 24 44  1  0  0  0  0
 25 26  2  0  0  0  0
 25 45  1  0  0  0  0
 26 46  1  0  0  0  0
M  END
>  <DRUGBANK_ID>
DB07647

>  <COMMON_NAME>
(2R)-1-[(5,6-DIPHENYL-7H-PYRROLO[2,3-D]PYRIMIDIN-4-YL)AMINO]PROPAN-2-OL

$$$$
