
 OpenBabel10282417213D

 55 59  0  0  0  0  0  0  0  0999 V2000
    2.4922    0.0053   -0.0006 C   0  0  0  0  0  0  0  0  0  0  0  0
    0.9886   -0.0489    0.0364 C   0  0  0  0  0  0  0  0  0  0  0  0
    0.2799    1.1675    0.0207 C   0  0  0  0  0  0  0  0  0  0  0  0
   -1.1114    1.1838    0.0095 C   0  0  0  0  0  0  0  0  0  0  0  0
   -1.8110   -0.0178    0.0120 C   0  0  0  0  0  0  0  0  0  0  0  0
   -1.1207   -1.2372    0.0375 C   0  0  0  0  0  0  0  0  0  0  0  0
    0.2874   -1.2799    0.0546 C   0  0  0  0  0  0  0  0  0  0  0  0
    1.0239   -2.6098   -0.0794 C   0  0  0  0  0  0  0  0  0  0  0  0
    0.6551   -3.6486    0.8433 N   0  0  0  0  0  0  0  0  0  0  0  0
   -0.1202   -4.6940    0.4527 C   0  0  0  0  0  0  0  0  0  0  0  0
   -0.0473   -5.3582   -0.6779 N   0  0  0  0  0  0  0  0  0  0  0  0
   -1.2130   -6.3102   -0.5725 C   0  0  0  0  0  0  0  0  0  0  0  0
   -1.8941   -6.0025    0.7656 C   0  0  0  0  0  0  0  0  0  0  0  0
   -0.7919   -5.3418    1.4514 N   0  0  0  0  0  0  0  0  0  0  0  0
    0.2407   -6.0077    2.1264 C   0  0  0  0  0  0  0  0  0  0  0  0
    1.3848   -5.3285    2.3980 C   0  0  0  0  0  0  0  0  0  0  0  0
    2.6019   -5.9003    3.0464 C   0  0  0  0  0  0  0  0  0  0  0  0
    2.4623   -7.2765    3.5589 N   0  0  0  0  0  0  0  0  0  0  0  0
    2.5328   -7.3410    5.0355 C   0  0  0  0  0  0  0  0  0  0  0  0
    1.4311   -6.6272    5.8079 C   0  0  0  0  0  0  0  0  0  0  0  0
    0.3693   -5.9854    5.1835 C   0  0  0  0  0  0  0  0  0  0  0  0
   -0.6638   -5.2584    5.7249 C   0  0  0  0  0  0  0  0  0  0  0  0
   -0.6928   -5.2039    7.0802 C   0  0  0  0  0  0  0  0  0  0  0  0
    0.3233   -5.8539    7.8014 C   0  0  0  0  0  0  0  0  0  0  0  0
    1.3839   -6.5527    7.1790 C   0  0  0  0  0  0  0  0  0  0  0  0
    1.3804   -8.1150    3.0207 C   0  0  0  0  0  0  0  0  0  0  0  0
    0.1374   -7.4773    2.3817 C   0  0  0  0  0  0  0  0  0  0  0  0
    1.4377   -3.8758    1.9792 C   0  0  0  0  0  0  0  0  0  0  0  0
    2.2145   -3.1057    2.4786 O   0  0  0  0  0  0  0  0  0  0  0  0
    2.9095   -0.4965    0.8775 H   0  0  0  0  0  0  0  0  0  0  0  0
    2.8616   -0.4706   -0.9148 H   0  0  0  0  0  0  0  0  0  0  0  0
    2.8618    1.0360    0.0036 H   0  0  0  0  0  0  0  0  0  0  0  0
    0.8148    2.1157    0.0025 H   0  0  0  0  0  0  0  0  0  0  0  0
   -1.6436    2.1320   -0.0086 H   0  0  0  0  0  0  0  0  0  0  0  0
   -2.8977   -0.0040   -0.0201 H   0  0  0  0  0  0  0  0  0  0  0  0
   -1.6992   -2.1574    0.0130 H   0  0  0  0  0  0  0  0  0  0  0  0
    0.8197   -2.9831   -1.0857 H   0  0  0  0  0  0  0  0  0  0  0  0
    2.1019   -2.4762    0.0148 H   0  0  0  0  0  0  0  0  0  0  0  0
   -1.0659   -7.3976   -0.6823 H   0  0  0  0  0  0  0  0  0  0  0  0
   -1.7938   -5.9998   -1.4327 H   0  0  0  0  0  0  0  0  0  0  0  0
   -2.3404   -6.8338    1.3233 H   0  0  0  0  0  0  0  0  0  0  0  0
   -2.7062   -5.2902    0.5569 H   0  0  0  0  0  0  0  0  0  0  0  0
    3.4311   -5.8623    2.3291 H   0  0  0  0  0  0  0  0  0  0  0  0
    2.9117   -5.2333    3.8642 H   0  0  0  0  0  0  0  0  0  0  0  0
    3.5142   -6.9486    5.3355 H   0  0  0  0  0  0  0  0  0  0  0  0
    2.5498   -8.4019    5.3207 H   0  0  0  0  0  0  0  0  0  0  0  0
    0.2824   -6.0395    4.1534 H   0  0  0  0  0  0  0  0  0  0  0  0
   -1.3858   -4.7926    5.0568 H   0  0  0  0  0  0  0  0  0  0  0  0
   -1.5041   -4.6676    7.5529 H   0  0  0  0  0  0  0  0  0  0  0  0
    0.2881   -5.8094    8.8806 H   0  0  0  0  0  0  0  0  0  0  0  0
    2.1550   -7.0344    7.7694 H   0  0  0  0  0  0  0  0  0  0  0  0
    1.8111   -8.8124    2.2938 H   0  0  0  0  0  0  0  0  0  0  0  0
    0.9933   -8.7650    3.8166 H   0  0  0  0  0  0  0  0  0  0  0  0
   -0.7329   -7.6580    3.0277 H   0  0  0  0  0  0  0  0  0  0  0  0
   -0.0564   -7.9829    1.4323 H   0  0  0  0  0  0  0  0  0  0  0  0
  1  2  1  0  0  0  0
  1 30  1  0  0  0  0
  1 31  1  0  0  0  0
  1 32  1  0  0  0  0
  2  3  2  0  0  0  0
  2  7  1  0  0  0  0
  3  4  1  0  0  0  0
  3 33  1  0  0  0  0
  4  5  2  0  0  0  0
  4 34  1  0  0  0  0
  5  6  1  0  0  0  0
  5 35  1  0  0  0  0
  6  7  2  0  0  0  0
  6 36  1  0  0  0  0
  7  8  1  0  0  0  0
  8  9  1  0  0  0  0
  8 37  1  0  0  0  0
  8 38  1  0  0  0  0
  9 10  1  0  0  0  0
  9 28  1  0  0  0  0
 10 11  2  0  0  0  0
 10 14  1  0  0  0  0
 11 12  1  0  0  0  0
 12 13  1  0  0  0  0
 12 39  1  0  0  0  0
 12 40  1  0  0  0  0
 13 14  1  0  0  0  0
 13 41  1  0  0  0  0
 13 42  1  0  0  0  0
 14 15  1  0  0  0  0
 15 16  2  0  0  0  0
 15 27  1  0  0  0  0
 16 17  1  0  0  0  0
 16 28  1  0  0  0  0
 17 18  1  0  0  0  0
 17 43  1  0  0  0  0
 17 44  1  0  0  0  0
 18 19  1  0  0  0  0
 18 26  1  0  0  0  0
 19 20  1  0  0  0  0
 19 45  1  0  0  0  0
 19 46  1  0  0  0  0
 20 21  2  0  0  0  0
 20 25  1  0  0  0  0
 21 22  1  0  0  0  0
 21 47  1  0  0  0  0
 22 23  2  0  0  0  0
 22 48  1  0  0  0  0
 23 24  1  0  0  0  0
 23 49  1  0  0  0  0
 24 25  2  0  0  0  0
 24 50  1  0  0  0  0
 25 51  1  0  0  0  0
 26 27  1  0  0  0  0
 26 52  1  0  0  0  0
 26 53  1  0  0  0  0
 27 54  1  0  0  0  0
 27 55  1  0  0  0  0
 28 29  2  0  0  0  0
M  END
>  <DRUGBANK_ID>
DB14844

>  <COMMON_NAME>
Dordaviprone

>  <CAS_NUMBER>
1616632-77-9

>  <UNII>
9U35A31JAI

>  <SYNONYMS>
2,4,6,7,8,9-Hexahydro-4-((2-methylphenyl)methyl)-7-phenylmethyl)imidazo)(1,2-a)pyrido(3,4-e)pyrimidin-5(1H)-one; 7-benzyl-4-(2-methylbenzyl)-1,2,6,7,8,9-hexahydroimidazo(1,2-A)pyrido(3,4-E)pyrimidin-5(4H)-one

$$$$
