
 OpenBabel10282417223D

 32 33  0  0  1  0  0  0  0  0999 V2000
    0.9226    0.0753   -0.2222 O   0  0  0  0  0  0  0  0  0  0  0  0
    0.4410    1.1127    0.6306 C   0  0  0  0  0  0  0  0  0  0  0  0
    0.9982    1.0170    2.0531 C   0  0  1  0  0  0  0  0  0  0  0  0
    1.4562   -0.3202    2.3006 O   0  0  0  0  0  0  0  0  0  0  0  0
    2.4422   -0.2268    3.3372 C   0  0  1  0  0  0  0  0  0  0  0  0
    3.4592   -1.2462    3.1206 N   0  0  0  0  0  0  0  0  0  0  0  0
    4.3082   -1.2475    1.9150 C   0  0  0  0  0  0  0  0  0  0  0  0
    5.1068   -2.5431    1.7767 C   0  0  0  0  0  0  0  0  0  0  0  0
    5.7324   -2.8679    3.1147 C   0  0  1  0  0  0  0  0  0  0  0  0
    6.7036   -1.9101    3.4846 O   0  0  0  0  0  0  0  0  0  0  0  0
    4.7371   -2.8992    4.1262 N   0  0  0  0  0  0  0  0  0  0  0  0
    3.6891   -2.0603    4.2009 C   0  0  0  0  0  0  0  0  0  0  0  0
    2.9963   -2.0673    5.2195 O   0  0  0  0  0  0  0  0  0  0  0  0
    2.9173    1.2290    3.4346 C   0  0  0  0  0  0  0  0  0  0  0  0
    2.5124    1.7906    4.6023 F   0  0  0  0  0  0  0  0  0  0  0  0
    4.2578    1.3711    3.3584 F   0  0  0  0  0  0  0  0  0  0  0  0
    2.2217    1.9004    2.2632 C   0  0  2  0  0  0  0  0  0  0  0  0
    1.8645    3.2654    2.4808 O   0  0  0  0  0  0  0  0  0  0  0  0
    1.8560   -0.0836   -0.0083 H   0  0  0  0  0  0  0  0  0  0  0  0
    0.6997    2.0688    0.1690 H   0  0  0  0  0  0  0  0  0  0  0  0
   -0.6501    1.0364    0.6511 H   0  0  0  0  0  0  0  0  0  0  0  0
    0.2109    1.2885    2.7731 H   0  0  0  0  0  0  0  0  0  0  0  0
    1.8907   -0.4288    4.2609 H   0  0  0  0  0  0  0  0  0  0  0  0
    4.9936   -0.3935    1.9655 H   0  0  0  0  0  0  0  0  0  0  0  0
    3.6884   -1.1074    1.0223 H   0  0  0  0  0  0  0  0  0  0  0  0
    5.8774   -2.4468    1.0035 H   0  0  0  0  0  0  0  0  0  0  0  0
    4.4310   -3.3561    1.4844 H   0  0  0  0  0  0  0  0  0  0  0  0
    6.2195   -3.8464    3.1035 H   0  0  0  0  0  0  0  0  0  0  0  0
    6.2491   -1.0587    3.5953 H   0  0  0  0  0  0  0  0  0  0  0  0
    4.8130   -3.5438    4.9002 H   0  0  0  0  0  0  0  0  0  0  0  0
    2.8741    1.8558    1.3852 H   0  0  0  0  0  0  0  0  0  0  0  0
    1.4818    3.3445    3.3770 H   0  0  0  0  0  0  0  0  0  0  0  0
  1  2  1  0  0  0  0
  1 19  1  0  0  0  0
  2 20  1  0  0  0  0
  2 21  1  0  0  0  0
  3  2  1  0  0  0  0
  3  4  1  0  0  0  0
  3 17  1  0  0  0  0
  3 22  1  1  0  0  0
  5  4  1  0  0  0  0
  5 14  1  0  0  0  0
  5 23  1  1  0  0  0
  5  6  1  0  0  0  0
  6  7  1  0  0  0  0
  6 12  1  0  0  0  0
  7  8  1  0  0  0  0
  7 24  1  0  0  0  0
  7 25  1  0  0  0  0
  8 26  1  0  0  0  0
  8 27  1  0  0  0  0
  9  8  1  0  0  0  0
  9 10  1  0  0  0  0
  9 11  1  0  0  0  0
  9 28  1  6  0  0  0
 10 29  1  0  0  0  0
 11 12  1  0  0  0  0
 11 30  1  0  0  0  0
 12 13  2  0  0  0  0
 14 15  1  0  0  0  0
 14 16  1  0  0  0  0
 17 14  1  0  0  0  0
 17 18  1  0  0  0  0
 17 31  1  6  0  0  0
 18 32  1  0  0  0  0
M  END
>  <DRUGBANK_ID>
DB15694

>  <COMMON_NAME>
Cedazuridine

>  <CAS_NUMBER>
1141397-80-9

>  <UNII>
39IS23Q1EW

>  <SYNONYMS>
(4R)-2'-Deoxy-2',2'-difluoro-3,4,5,6-tetrahydrouridine; Cedazuridine

$$$$
