
 OpenBabel10282417213D

 58 62  0  0  1  0  0  0  0  0999 V2000
   -1.8918    2.4464   -0.2907 C   0  0  0  0  0  0  0  0  0  0  0  0
   -0.6465    2.2807    1.5198 O   0  0  0  0  0  0  0  0  0  0  0  0
    0.0478    3.1599    2.3163 C   0  0  0  0  0  0  0  0  0  0  0  0
   -0.1937    4.5442    2.1221 C   0  0  0  0  0  0  0  0  0  0  0  0
    0.3914    5.3426    2.9931 C   0  0  0  0  0  0  0  0  0  0  0  0
    1.1689    4.7118    3.9659 C   0  0  0  0  0  0  0  0  0  0  0  0
    1.2480    3.2824    4.1412 C   0  0  0  0  0  0  0  0  0  0  0  0
    0.7716    2.4277    3.2035 C   0  0  0  0  0  0  0  0  0  0  0  0
    0.9345    1.0555    3.1647 O   0  0  0  0  0  0  0  0  0  0  0  0
    0.4391    0.1875    2.0283 C   0  0  0  0  0  0  0  0  0  0  0  0
   -1.0411    0.2434    1.8633 C   0  0  2  0  0  0  0  0  0  0  0  0
   -1.8576   -0.9155    1.6398 O   0  0  0  0  0  0  0  0  0  0  0  0
   -2.9680   -0.4794    2.8928 P   0  0  0  0  0  0  0  0  0  0  0  0
   -1.7573   -0.5396    4.0064 O   0  0  0  0  0  0  0  0  0  0  0  0
   -3.3332    0.9716    2.2971 O   0  0  0  0  0  0  0  0  0  0  0  0
   -3.9618   -0.0892    4.0141 O   0  0  0  0  0  0  0  0  0  0  0  0
   -1.4858    1.1648    0.7630 C   0  0  0  0  0  0  0  0  0  0  0  0
   -0.4122    3.0244    0.1630 C   0  0  0  0  0  0  0  0  0  0  0  0
   -2.1480    2.9948    1.4424 C   0  0  0  0  0  0  0  0  0  0  0  0
    0.2559    6.7142    2.8151 N   0  0  0  0  0  0  0  0  0  0  0  0
   -0.9915    7.3505    2.8196 C   0  0  0  0  0  0  0  0  0  0  0  0
   -1.2016    8.6351    2.7156 N   0  0  0  0  0  0  0  0  0  0  0  0
   -0.0132    9.3737    2.5466 C   0  0  0  0  0  0  0  0  0  0  0  0
    1.2059    8.7703    2.4599 C   0  0  0  0  0  0  0  0  0  0  0  0
    2.4996    9.7988    2.2347 S   0  0  0  0  0  0  0  0  0  0  0  0
    1.4531   11.1336    2.2532 C   0  0  0  0  0  0  0  0  0  0  0  0
    0.1180   10.7817    2.4341 C   0  0  0  0  0  0  0  0  0  0  0  0
    2.0791   12.4251    2.0766 C   0  0  0  0  0  0  0  0  0  0  0  0
    2.7973   12.7084    0.9067 C   0  0  0  0  0  0  0  0  0  0  0  0
    3.2824   13.9907    0.6751 C   0  0  0  0  0  0  0  0  0  0  0  0
    3.0572   14.9830    1.6201 C   0  0  0  0  0  0  0  0  0  0  0  0
    3.7369   16.5474    1.4092 Cl  0  0  0  0  0  0  0  0  0  0  0  0
    2.3308   14.7021    2.7745 C   0  0  0  0  0  0  0  0  0  0  0  0
    1.9359   13.3992    3.0556 C   0  0  0  0  0  0  0  0  0  0  0  0
    1.4293    7.3859    2.5667 C   0  0  0  0  0  0  0  0  0  0  0  0
    2.5291    6.8533    2.4362 O   0  0  0  0  0  0  0  0  0  0  0  0
   -2.5407    1.6551   -0.7582 H   0  0  0  0  0  0  0  0  0  0  0  0
   -1.0653    1.9792   -1.0754 H   0  0  0  0  0  0  0  0  0  0  0  0
   -2.2622    3.4981   -0.4231 H   0  0  0  0  0  0  0  0  0  0  0  0
   -0.7905    4.9349    1.2905 H   0  0  0  0  0  0  0  0  0  0  0  0
    1.7434    5.3355    4.6259 H   0  0  0  0  0  0  0  0  0  0  0  0
    1.6537    2.8708    5.0445 H   0  0  0  0  0  0  0  0  0  0  0  0
    0.8307    0.5009    1.0581 H   0  0  0  0  0  0  0  0  0  0  0  0
    0.6929   -0.8508    2.2269 H   0  0  0  0  0  0  0  0  0  0  0  0
   -1.2986    0.8097    2.7914 H   0  0  0  0  0  0  0  0  0  0  0  0
   -1.6642   -1.3930    4.4677 H   0  0  0  0  0  0  0  0  0  0  0  0
   -3.6341    1.0409    1.3787 H   0  0  0  0  0  0  0  0  0  0  0  0
   -2.2248    0.5245    0.2649 H   0  0  0  0  0  0  0  0  0  0  0  0
    0.6675    2.7437    0.2594 H   0  0  0  0  0  0  0  0  0  0  0  0
   -0.4431    3.6898   -0.7104 H   0  0  0  0  0  0  0  0  0  0  0  0
   -3.0383    3.6299    1.4631 H   0  0  0  0  0  0  0  0  0  0  0  0
   -2.0866    3.0682    2.6308 H   0  0  0  0  0  0  0  0  0  0  0  0
   -1.8527    6.6649    2.9617 H   0  0  0  0  0  0  0  0  0  0  0  0
   -0.6866   11.5077    2.4642 H   0  0  0  0  0  0  0  0  0  0  0  0
    2.9859   11.9250    0.1755 H   0  0  0  0  0  0  0  0  0  0  0  0
    3.7967   14.2095   -0.2538 H   0  0  0  0  0  0  0  0  0  0  0  0
    2.0419   15.5027    3.4438 H   0  0  0  0  0  0  0  0  0  0  0  0
    1.5177   13.1414    4.0256 H   0  0  0  0  0  0  0  0  0  0  0  0
  1  2  1  0  0  0  0
  1 37  1  0  0  0  0
  1 38  1  0  0  0  0
  1 39  1  0  0  0  0
  2  3  1  0  0  0  0
  3  4  2  0  0  0  0
  3  8  1  0  0  0  0
  4  5  1  0  0  0  0
  4 40  1  0  0  0  0
  5  6  2  0  0  0  0
  5 20  1  0  0  0  0
  6  7  1  0  0  0  0
  6 41  1  0  0  0  0
  7  8  2  0  0  0  0
  7 42  1  0  0  0  0
  8  9  1  0  0  0  0
  9 10  1  0  0  0  0
 10 43  1  0  0  0  0
 10 44  1  0  0  0  0
 11 17  1  0  0  0  0
 11 45  1  1  0  0  0
 11 12  1  0  0  0  0
 11 10  1  0  0  0  0
 12 13  1  0  0  0  0
 13 14  1  0  0  0  0
 13 15  1  0  0  0  0
 13 16  2  0  0  0  0
 14 46  1  0  0  0  0
 15 47  1  0  0  0  0
 17 18  1  0  0  0  0
 17 19  1  0  0  0  0
 17 48  1  0  0  0  0
 18 19  1  0  0  0  0
 18 49  1  0  0  0  0
 18 50  1  0  0  0  0
 19 51  1  0  0  0  0
 19 52  1  0  0  0  0
 20 21  1  0  0  0  0
 20 35  1  0  0  0  0
 21 22  2  0  0  0  0
 21 53  1  0  0  0  0
 22 23  1  0  0  0  0
 23 24  2  0  0  0  0
 23 27  1  0  0  0  0
 24 25  1  0  0  0  0
 24 35  1  0  0  0  0
 25 26  1  0  0  0  0
 26 27  2  0  0  0  0
 26 28  1  0  0  0  0
 27 54  1  0  0  0  0
 28 29  2  0  0  0  0
 28 34  1  0  0  0  0
 29 30  1  0  0  0  0
 29 55  1  0  0  0  0
 30 31  2  0  0  0  0
 30 56  1  0  0  0  0
 31 32  1  0  0  0  0
 31 33  1  0  0  0  0
 33 34  2  0  0  0  0
 33 57  1  0  0  0  0
 34 58  1  0  0  0  0
 35 36  2  0  0  0  0
M  END
>  <DRUGBANK_ID>
DB14787

>  <COMMON_NAME>
BMS-830216

>  <CAS_NUMBER>
1197420-06-6

>  <UNII>
ISL723GVQ8

$$$$
