
 OpenBabel10282417233D

 47 50  0  0  1  0  0  0  0  0999 V2000
    1.1158    0.2896    2.5853 C   0  0  0  0  0  0  0  0  0  0  0  0
    0.4964   -0.3281    1.3260 C   0  0  1  0  0  0  0  0  0  0  0  0
    0.9721   -1.7611    1.2008 C   0  0  0  0  0  0  0  0  0  0  0  0
   -0.0333   -2.8395    1.4321 C   0  0  0  0  0  0  0  0  0  0  0  0
   -1.4700   -2.4876    1.5855 C   0  0  0  0  0  0  0  0  0  0  0  0
   -2.3924   -3.5645    1.7641 C   0  0  0  0  0  0  0  0  0  0  0  0
   -1.9328   -4.8735    1.8633 N   0  0  0  0  0  0  0  0  0  0  0  0
   -2.3518   -5.9381    0.9561 C   0  0  0  0  0  0  0  0  0  0  0  0
   -1.0861   -6.5827    0.3667 C   0  0  0  0  0  0  0  0  0  0  0  0
   -0.1012   -7.0248    1.4583 C   0  0  3  0  0  0  0  0  0  0  0  0
   -0.5827   -8.1852    2.1305 O   0  0  0  0  0  0  0  0  0  0  0  0
    0.1805   -5.9240    2.4757 C   0  0  0  0  0  0  0  0  0  0  0  0
   -1.1155   -5.2923    3.0006 C   0  0  0  0  0  0  0  0  0  0  0  0
   -3.7514   -3.2348    1.8415 C   0  0  0  0  0  0  0  0  0  0  0  0
   -4.6704   -4.1980    2.0107 F   0  0  0  0  0  0  0  0  0  0  0  0
   -4.1852   -1.9134    1.7888 C   0  0  0  0  0  0  0  0  0  0  0  0
   -3.2527   -0.8833    1.6271 C   0  0  0  0  0  0  0  0  0  0  0  0
   -1.8741   -1.1453    1.5152 C   0  0  0  0  0  0  0  0  0  0  0  0
   -0.9679   -0.0849    1.3188 N   0  0  0  0  0  0  0  0  0  0  0  0
   -1.4660    1.2192    1.2680 C   0  0  0  0  0  0  0  0  0  0  0  0
   -2.7502    1.5951    1.3771 C   0  0  0  0  0  0  0  0  0  0  0  0
   -3.1163    3.0261    1.3144 C   0  0  0  0  0  0  0  0  0  0  0  0
   -4.4374    3.2830    1.4218 O   0  0  0  0  0  0  0  0  0  0  0  0
   -2.2917    3.9257    1.1742 O   0  0  0  0  0  0  0  0  0  0  0  0
   -3.7386    0.5157    1.5647 C   0  0  0  0  0  0  0  0  0  0  0  0
   -4.9331    0.7895    1.6650 O   0  0  0  0  0  0  0  0  0  0  0  0
    1.4152    1.3220    2.3835 H   0  0  0  0  0  0  0  0  0  0  0  0
    2.0180   -0.2346    2.9177 H   0  0  0  0  0  0  0  0  0  0  0  0
    0.4069    0.2829    3.4181 H   0  0  0  0  0  0  0  0  0  0  0  0
    0.9134    0.1865    0.4481 H   0  0  0  0  0  0  0  0  0  0  0  0
    1.4402   -1.9185    0.2225 H   0  0  0  0  0  0  0  0  0  0  0  0
    1.7985   -1.9643    1.8984 H   0  0  0  0  0  0  0  0  0  0  0  0
    0.0564   -3.5558    0.6070 H   0  0  0  0  0  0  0  0  0  0  0  0
    0.2771   -3.2994    2.3691 H   0  0  0  0  0  0  0  0  0  0  0  0
   -2.9956   -5.5776    0.1468 H   0  0  0  0  0  0  0  0  0  0  0  0
   -2.9180   -6.6938    1.5138 H   0  0  0  0  0  0  0  0  0  0  0  0
   -0.5880   -5.8574   -0.2908 H   0  0  0  0  0  0  0  0  0  0  0  0
   -1.3653   -7.4460   -0.2477 H   0  0  0  0  0  0  0  0  0  0  0  0
    0.8460   -7.3137    0.9869 H   0  0  0  0  0  0  0  0  0  0  0  0
   -1.4088   -7.9575    2.5884 H   0  0  0  0  0  0  0  0  0  0  0  0
    0.7643   -6.3025    3.3202 H   0  0  0  0  0  0  0  0  0  0  0  0
    0.8108   -5.1869    1.9722 H   0  0  0  0  0  0  0  0  0  0  0  0
   -0.9005   -4.4667    3.6889 H   0  0  0  0  0  0  0  0  0  0  0  0
   -1.6748   -6.0274    3.5909 H   0  0  0  0  0  0  0  0  0  0  0  0
   -5.2454   -1.6949    1.8783 H   0  0  0  0  0  0  0  0  0  0  0  0
   -0.6871    1.9717    1.1410 H   0  0  0  0  0  0  0  0  0  0  0  0
   -5.0003    2.4769    1.5337 H   0  0  0  0  0  0  0  0  0  0  0  0
  1 27  1  0  0  0  0
  1 28  1  0  0  0  0
  1 29  1  0  0  0  0
  2  3  1  0  0  0  0
  2 19  1  0  0  0  0
  2 30  1  6  0  0  0
  2  1  1  0  0  0  0
  3  4  1  0  0  0  0
  3 31  1  0  0  0  0
  3 32  1  0  0  0  0
  4  5  1  0  0  0  0
  4 33  1  0  0  0  0
  4 34  1  0  0  0  0
  5  6  2  0  0  0  0
  5 18  1  0  0  0  0
  6  7  1  0  0  0  0
  6 14  1  0  0  0  0
  7  8  1  0  0  0  0
  7 13  1  0  0  0  0
  8  9  1  0  0  0  0
  8 35  1  0  0  0  0
  8 36  1  0  0  0  0
  9 10  1  0  0  0  0
  9 37  1  0  0  0  0
  9 38  1  0  0  0  0
 10 11  1  0  0  0  0
 10 12  1  0  0  0  0
 10 39  1  0  0  0  0
 11 40  1  0  0  0  0
 12 13  1  0  0  0  0
 12 41  1  0  0  0  0
 12 42  1  0  0  0  0
 13 43  1  0  0  0  0
 13 44  1  0  0  0  0
 14 15  1  0  0  0  0
 14 16  2  0  0  0  0
 16 17  1  0  0  0  0
 16 45  1  0  0  0  0
 17 18  2  0  0  0  0
 17 25  1  0  0  0  0
 18 19  1  0  0  0  0
 19 20  1  0  0  0  0
 20 21  2  0  0  0  0
 20 46  1  0  0  0  0
 21 22  1  0  0  0  0
 21 25  1  0  0  0  0
 22 23  1  0  0  0  0
 22 24  2  0  0  0  0
 23 47  1  0  0  0  0
 25 26  2  0  0  0  0
M  END
>  <DRUGBANK_ID>
DB16219

>  <COMMON_NAME>
Levonadifloxacin

>  <CAS_NUMBER>
154357-42-3

>  <UNII>
8WHH66L098

>  <SYNONYMS>
(s)-(-)-nadifloxacin; Levonadifloxacin; Nadifloxacin, (s)-; Wck 771 free base; Wck-771 free base; Wck771 free base

$$$$
