
 OpenBabel10282417183D

 28 29  0  0  0  0  0  0  0  0999 V2000
    1.8134    1.6116    0.0130 C   0  0  0  0  0  0  0  0  0  0  0  0
    1.9559   -1.2477    0.1604 C   0  0  0  0  0  0  0  0  0  0  0  0
   -1.8691    0.6832    0.0222 C   0  0  0  0  0  0  0  0  0  0  0  0
   -0.6978    1.4377    0.0447 C   0  0  0  0  0  0  0  0  0  0  0  0
   -1.8111   -0.7149   -0.0154 C   0  0  0  0  0  0  0  0  0  0  0  0
   -0.5379   -2.9168   -0.0909 C   0  0  0  0  0  0  0  0  0  0  0  0
    1.4868   -3.6158   -1.6718 C   0  0  0  0  0  0  0  0  0  0  0  0
    0.4130   -4.3632   -3.3324 C   0  0  0  0  0  0  0  0  0  0  0  0
    0.5440    0.8044    0.0827 C   0  0  0  0  0  0  0  0  0  0  0  0
    0.6038   -0.6046    0.1265 C   0  0  0  0  0  0  0  0  0  0  0  0
   -0.5744   -1.3874    0.0052 C   0  0  0  0  0  0  0  0  0  0  0  0
    0.1544   -3.4718   -1.3119 C   0  0  0  0  0  0  0  0  0  0  0  0
    1.6319   -4.0527   -2.9534 N   0  0  0  0  0  0  0  0  0  0  0  0
   -0.4980   -4.0781   -2.3578 N   0  0  0  0  0  0  0  0  0  0  0  0
    2.4330    1.4207    0.8956 H   0  0  0  0  0  0  0  0  0  0  0  0
    2.3751    1.3345   -0.8887 H   0  0  0  0  0  0  0  0  0  0  0  0
    1.6225    2.6850   -0.0302 H   0  0  0  0  0  0  0  0  0  0  0  0
    1.9682   -2.1105    0.8325 H   0  0  0  0  0  0  0  0  0  0  0  0
    2.1832   -1.4809   -0.8749 H   0  0  0  0  0  0  0  0  0  0  0  0
    2.7843   -0.6119    0.4704 H   0  0  0  0  0  0  0  0  0  0  0  0
   -2.8299    1.1925    0.0090 H   0  0  0  0  0  0  0  0  0  0  0  0
   -0.7550    2.5230    0.0201 H   0  0  0  0  0  0  0  0  0  0  0  0
   -2.7473   -1.2674   -0.0684 H   0  0  0  0  0  0  0  0  0  0  0  0
   -0.0709   -3.3105    0.8203 H   0  0  0  0  0  0  0  0  0  0  0  0
   -1.5693   -3.2994   -0.0698 H   0  0  0  0  0  0  0  0  0  0  0  0
    2.3754   -3.3945   -1.0993 H   0  0  0  0  0  0  0  0  0  0  0  0
    0.1618   -4.8202   -4.2744 H   0  0  0  0  0  0  0  0  0  0  0  0
   -1.4846   -4.3144   -2.3975 H   0  0  0  0  0  0  0  0  0  0  0  0
  1 15  1  0  0  0  0
  1 16  1  0  0  0  0
  1 17  1  0  0  0  0
  2 18  1  0  0  0  0
  2 19  1  0  0  0  0
  2 20  1  0  0  0  0
  3 21  1  0  0  0  0
  4  3  2  0  0  0  0
  4 22  1  0  0  0  0
  5  3  1  0  0  0  0
  5 23  1  0  0  0  0
  6 24  1  0  0  0  0
  6 25  1  0  0  0  0
  7 26  1  0  0  0  0
  8 27  1  0  0  0  0
  9  1  1  0  0  0  0
  9  4  1  0  0  0  0
 10  2  1  0  0  0  0
 10  9  2  0  0  0  0
 11  5  2  0  0  0  0
 11  6  1  0  0  0  0
 11 10  1  0  0  0  0
 12  6  1  0  0  0  0
 12  7  2  0  0  0  0
 13  7  1  0  0  0  0
 13  8  2  0  0  0  0
 14  8  1  0  0  0  0
 14 12  1  0  0  0  0
 14 28  1  0  0  0  0
M  END
>  <DRUGBANK_ID>
DB11556

>  <COMMON_NAME>
Detomidine

>  <CAS_NUMBER>
76631-46-4

>  <UNII>
7N8K34P2XH

>  <SYNONYMS>
4-(2,3-dimethylbenzyl)imidazole; Detomidine

$$$$
