
 OpenBabel10282417183D

 30 30  0  0  0  0  0  0  0  0999 V2000
    0.9128   -0.0083   -0.0645 C   0  0  0  0  0  0  0  0  0  0  0  0
    9.5278    1.6273    3.2881 C   0  0  0  0  0  0  0  0  0  0  0  0
    0.5658    1.4696    0.0164 C   0  0  0  0  0  0  0  0  0  0  0  0
    5.4432   -0.0512    0.8199 C   0  0  0  0  0  0  0  0  0  0  0  0
    4.7279    1.9200   -0.5377 C   0  0  0  0  0  0  0  0  0  0  0  0
    6.2940   -0.6620    1.7443 C   0  0  0  0  0  0  0  0  0  0  0  0
    3.3993    1.8976   -0.3357 C   0  0  0  0  0  0  0  0  0  0  0  0
    6.7571    1.9664    0.9337 C   0  0  0  0  0  0  0  0  0  0  0  0
    5.6514    1.2758    0.4153 C   0  0  0  0  0  0  0  0  0  0  0  0
    7.3774    0.0406    2.2670 C   0  0  0  0  0  0  0  0  0  0  0  0
    7.6217    1.3635    1.8722 C   0  0  0  0  0  0  0  0  0  0  0  0
    2.4348    2.4305   -1.3212 C   0  0  0  0  0  0  0  0  0  0  0  0
    8.1874   -0.5942    3.1679 O   0  0  0  0  0  0  0  0  0  0  0  0
    2.8070    3.0328   -2.3265 O   0  0  0  0  0  0  0  0  0  0  0  0
    8.6373    2.1763    2.3177 O   0  0  0  0  0  0  0  0  0  0  0  0
    1.1149    2.2036   -1.0991 O   0  0  0  0  0  0  0  0  0  0  0  0
    5.1553    2.4045   -1.4126 H   0  0  0  0  0  0  0  0  0  0  0  0
    3.0231    1.4471    0.5690 H   0  0  0  0  0  0  0  0  0  0  0  0
    0.5184   -0.4409   -0.9876 H   0  0  0  0  0  0  0  0  0  0  0  0
    0.5158   -0.5464    0.7989 H   0  0  0  0  0  0  0  0  0  0  0  0
    1.9874   -0.1949   -0.0980 H   0  0  0  0  0  0  0  0  0  0  0  0
    8.9974    1.3626    4.2107 H   0  0  0  0  0  0  0  0  0  0  0  0
   10.0849    0.7785    2.8746 H   0  0  0  0  0  0  0  0  0  0  0  0
   10.2669    2.3858    3.5590 H   0  0  0  0  0  0  0  0  0  0  0  0
   -0.5250    1.5749   -0.0392 H   0  0  0  0  0  0  0  0  0  0  0  0
    0.8762    1.9400    0.9554 H   0  0  0  0  0  0  0  0  0  0  0  0
    4.6140   -0.6296    0.4184 H   0  0  0  0  0  0  0  0  0  0  0  0
    6.0961   -1.6846    2.0503 H   0  0  0  0  0  0  0  0  0  0  0  0
    6.9450    2.9935    0.6246 H   0  0  0  0  0  0  0  0  0  0  0  0
    7.9000   -1.5082    3.3098 H   0  0  0  0  0  0  0  0  0  0  0  0
  1 19  1  0  0  0  0
  1 20  1  0  0  0  0
  1 21  1  0  0  0  0
  2 22  1  0  0  0  0
  2 23  1  0  0  0  0
  2 24  1  0  0  0  0
  3  1  1  0  0  0  0
  3 25  1  0  0  0  0
  3 26  1  0  0  0  0
  4 27  1  0  0  0  0
  6  4  2  0  0  0  0
  6 28  1  0  0  0  0
  7  5  2  0  0  0  0
  8 29  1  0  0  0  0
  9  4  1  0  0  0  0
  9  5  1  0  0  0  0
  9  8  2  0  0  0  0
 10  6  1  0  0  0  0
 11  8  1  0  0  0  0
 11 10  2  0  0  0  0
 12  7  1  0  0  0  0
 13 10  1  0  0  0  0
 13 30  1  0  0  0  0
 14 12  2  0  0  0  0
 15  2  1  0  0  0  0
 15 11  1  0  0  0  0
 16  3  1  0  0  0  0
 16 12  1  0  0  0  0
 17  5  1  0  0  0  0
 18  7  1  0  0  0  0
M  END
>  <DRUGBANK_ID>
DB11285

>  <COMMON_NAME>
Ethyl ferulate

>  <CAS_NUMBER>
4046-02-0

>  <UNII>
5B8915UELW

>  <SYNONYMS>
Ethyl 4'-hydroxy-3'-methoxycinnamate

$$$$
