78P
 OpenBabel10282417163D

 34 36  0  0  0  0  0  0  0  0999 V2000
   -4.5365    3.5178    0.5770 C   0  0  0  0  0  0  0  0  0  0  0  0
   -4.5549    4.7816    1.1890 C   0  0  0  0  0  0  0  0  0  0  0  0
   -5.2455    5.7901    0.4917 C   0  0  0  0  0  0  0  0  0  0  0  0
   -4.2821    1.3838   -0.0454 C   0  0  0  0  0  0  0  0  0  0  0  0
   -3.8794    4.9989    2.4963 C   0  0  0  0  0  0  0  0  0  0  0  0
   -3.7844   -0.0512    0.0095 C   0  0  1  0  0  0  0  0  0  0  0  0
   -5.6824   -1.2618   -0.6839 C   0  0  0  0  0  0  0  0  0  0  0  0
   -4.3210   -0.7812    1.2545 C   0  0  0  0  0  0  0  0  0  0  0  0
   -5.8686    5.5425   -0.7354 C   0  0  0  0  0  0  0  0  0  0  0  0
   -5.8350    4.2719   -1.3104 C   0  0  0  0  0  0  0  0  0  0  0  0
   -5.1589    3.2512   -0.6350 C   0  0  0  0  0  0  0  0  0  0  0  0
   -5.0005    1.9452   -0.9996 N   0  0  0  0  0  0  0  0  0  0  0  0
   -3.9738    2.3141    0.9266 N   0  0  0  0  0  0  0  0  0  0  0  0
   -3.9354    6.2467    3.0555 N   0  0  0  0  0  0  0  0  0  0  0  0
   -3.2870    4.0841    3.0642 O   0  0  0  0  0  0  0  0  0  0  0  0
   -4.3389   -0.8588   -1.1068 N   0  0  0  0  0  0  0  0  0  0  0  0
   -5.5504   -1.5571    0.7957 C   0  0  0  0  0  0  0  0  0  0  0  0
   -2.2423   -0.0434   -0.0297 C   0  0  0  0  0  0  0  0  0  0  0  0
   -5.3161    6.7969    0.8869 H   0  0  0  0  0  0  0  0  0  0  0  0
   -6.0414   -2.1323   -1.2434 H   0  0  0  0  0  0  0  0  0  0  0  0
   -6.4012   -0.4519   -0.8522 H   0  0  0  0  0  0  0  0  0  0  0  0
   -3.5935   -1.4995    1.6517 H   0  0  0  0  0  0  0  0  0  0  0  0
   -4.5827   -0.1017    2.0725 H   0  0  0  0  0  0  0  0  0  0  0  0
   -6.3881    6.3455   -1.2513 H   0  0  0  0  0  0  0  0  0  0  0  0
   -6.3165    4.0621   -2.2589 H   0  0  0  0  0  0  0  0  0  0  0  0
   -3.4089    2.1605    1.7530 H   0  0  0  0  0  0  0  0  0  0  0  0
   -4.4017    7.0431    2.6499 H   0  0  0  0  0  0  0  0  0  0  0  0
   -3.4757    6.3881    3.9457 H   0  0  0  0  0  0  0  0  0  0  0  0
   -3.7699   -1.6880   -1.2541 H   0  0  0  0  0  0  0  0  0  0  0  0
   -5.3966   -2.6294    0.9672 H   0  0  0  0  0  0  0  0  0  0  0  0
   -6.4452   -1.2549    1.3487 H   0  0  0  0  0  0  0  0  0  0  0  0
   -1.8098   -0.5612    0.8329 H   0  0  0  0  0  0  0  0  0  0  0  0
   -1.8493   -0.5322   -0.9281 H   0  0  0  0  0  0  0  0  0  0  0  0
   -1.8269    0.9715   -0.0311 H   0  0  0  0  0  0  0  0  0  0  0  0
  1  2  2  0  0  0  0
  2  3  1  0  0  0  0
  2  5  1  0  0  0  0
  3 19  1  0  0  0  0
  4 13  1  0  0  0  0
  5 15  2  0  0  0  0
  6  8  1  0  0  0  0
  6 16  1  0  0  0  0
  6 18  1  6  0  0  0
  6  4  1  0  0  0  0
  7 17  1  0  0  0  0
  7 20  1  0  0  0  0
  7 21  1  0  0  0  0
  8 17  1  0  0  0  0
  8 22  1  0  0  0  0
  8 23  1  0  0  0  0
  9  3  2  0  0  0  0
  9 24  1  0  0  0  0
 10  9  1  0  0  0  0
 10 25  1  0  0  0  0
 11 10  2  0  0  0  0
 11  1  1  0  0  0  0
 12  4  2  0  0  0  0
 12 11  1  0  0  0  0
 13  1  1  0  0  0  0
 13 26  1  0  0  0  0
 14  5  1  0  0  0  0
 14 27  1  0  0  0  0
 14 28  1  0  0  0  0
 16  7  1  0  0  0  0
 16 29  1  0  0  0  0
 17 30  1  0  0  0  0
 17 31  1  0  0  0  0
 18 32  1  0  0  0  0
 18 33  1  0  0  0  0
 18 34  1  0  0  0  0
M  END
>  <DRUGBANK_ID>
DB07232

>  <COMMON_NAME>
Veliparib

>  <CAS_NUMBER>
912444-00-9

>  <UNII>
01O4K0631N

>  <SYNONYMS>
(2R)-2-(7-carbamoyl-1H-benzimidazol-2-yl)-2-methylpyrrolidinium; 2-((2R)-2-methylpyrrolidin-2-yl)-1H-benzimidazole-4-carboxamide; 2-[(R)-2-methylpyrrolidin-2-yl]-1H-benzimadazole-4-carboxamide; Veliparib

$$$$
