679
 OpenBabel10282417103D

 51 54  0  0  1  0  0  0  0  0999 V2000
    0.1678    1.6747   -0.3671 S   0  0  0  0  0  0  0  0  0  0  0  0
    4.9635   -2.3138   -0.8560 S   0  0  0  0  0  0  0  0  0  0  0  0
   -2.8849   -2.4204    2.6087 N   0  0  0  0  0  0  0  0  0  0  0  0
    0.1680   -1.3691    0.2805 N   0  0  0  0  0  0  0  0  0  0  0  0
   -2.1441   -1.3789    3.3618 C   0  0  3  0  0  0  0  0  0  0  0  0
   -2.5277    0.1024    3.0230 C   0  0  0  0  0  0  0  0  0  0  0  0
   -0.5918   -1.5625    3.1831 C   0  0  0  0  0  0  0  0  0  0  0  0
   -2.0136    0.2835    1.6804 C   0  0  0  0  0  0  0  0  0  0  0  0
   -2.6132   -2.2892    1.2187 C   0  0  0  0  0  0  0  0  0  0  0  0
   -2.8132   -0.7980    0.9855 C   0  0  0  0  0  0  0  0  0  0  0  0
    0.1438   -2.1017    1.8077 C   0  0  0  0  0  0  0  0  0  0  0  0
   -2.6448   -3.7914    3.0102 C   0  0  0  0  0  0  0  0  0  0  0  0
    1.4460   -0.7435    0.1993 C   0  0  0  0  0  0  0  0  0  0  0  0
   -0.7497   -1.0101   -0.8442 C   0  0  0  0  0  0  0  0  0  0  0  0
    1.5689    0.6279   -0.0910 C   0  0  0  0  0  0  0  0  0  0  0  0
   -0.9385    0.4281   -1.1074 C   0  0  0  0  0  0  0  0  0  0  0  0
    2.5569   -1.5810    0.0821 C   0  0  0  0  0  0  0  0  0  0  0  0
   -1.7979   -1.8382   -1.4317 C   0  0  0  0  0  0  0  0  0  0  0  0
    2.7814    1.1451   -0.4728 C   0  0  0  0  0  0  0  0  0  0  0  0
   -2.2297    0.9804   -1.4917 C   0  0  0  0  0  0  0  0  0  0  0  0
    3.7346   -1.0935   -0.4452 C   0  0  0  0  0  0  0  0  0  0  0  0
   -3.1247   -1.2542   -1.7724 C   0  0  0  0  0  0  0  0  0  0  0  0
    3.8393    0.2805   -0.7249 C   0  0  0  0  0  0  0  0  0  0  0  0
   -3.3452    0.1502   -1.7367 C   0  0  0  0  0  0  0  0  0  0  0  0
    6.2597   -1.2834   -1.5558 C   0  0  0  0  0  0  0  0  0  0  0  0
   -2.4928   -1.4619    4.3894 H   0  0  0  0  0  0  0  0  0  0  0  0
   -3.6083    0.2955    2.9376 H   0  0  0  0  0  0  0  0  0  0  0  0
   -2.0848    0.8676    3.6555 H   0  0  0  0  0  0  0  0  0  0  0  0
   -0.3623   -2.3005    3.9721 H   0  0  0  0  0  0  0  0  0  0  0  0
   -0.0883   -0.6513    3.5359 H   0  0  0  0  0  0  0  0  0  0  0  0
   -2.2128    1.2719    1.2506 H   0  0  0  0  0  0  0  0  0  0  0  0
   -0.9196    0.2079    1.6760 H   0  0  0  0  0  0  0  0  0  0  0  0
   -1.6554   -2.7102    0.9212 H   0  0  0  0  0  0  0  0  0  0  0  0
   -3.2503   -2.9137    0.5817 H   0  0  0  0  0  0  0  0  0  0  0  0
   -3.8865   -0.5944    0.9730 H   0  0  0  0  0  0  0  0  0  0  0  0
   -2.5266   -0.5689    0.0966 H   0  0  0  0  0  0  0  0  0  0  0  0
   -0.0228   -3.1843    1.6989 H   0  0  0  0  0  0  0  0  0  0  0  0
    1.1903   -2.1199    2.1714 H   0  0  0  0  0  0  0  0  0  0  0  0
   -3.0785   -4.4953    2.2847 H   0  0  0  0  0  0  0  0  0  0  0  0
   -1.5856   -4.0489    3.0949 H   0  0  0  0  0  0  0  0  0  0  0  0
   -3.1448   -3.9475    3.9616 H   0  0  0  0  0  0  0  0  0  0  0  0
    2.4189   -2.6553    0.2286 H   0  0  0  0  0  0  0  0  0  0  0  0
   -1.8071   -2.9208   -1.2846 H   0  0  0  0  0  0  0  0  0  0  0  0
    2.8599    2.1968   -0.7468 H   0  0  0  0  0  0  0  0  0  0  0  0
   -2.4437    2.0223   -1.2149 H   0  0  0  0  0  0  0  0  0  0  0  0
   -4.0261   -1.8699   -1.5650 H   0  0  0  0  0  0  0  0  0  0  0  0
    4.6917    0.7049   -1.2276 H   0  0  0  0  0  0  0  0  0  0  0  0
   -4.3516    0.5534   -1.5184 H   0  0  0  0  0  0  0  0  0  0  0  0
    5.9127   -0.7966   -2.4723 H   0  0  0  0  0  0  0  0  0  0  0  0
    6.5719   -0.5313   -0.8264 H   0  0  0  0  0  0  0  0  0  0  0  0
    7.1126   -1.9168   -1.7942 H   0  0  0  0  0  0  0  0  0  0  0  0
  1 15  1  0  0  0  0
  1 16  1  0  0  0  0
  2 21  1  0  0  0  0
  2 25  1  0  0  0  0
  3  5  1  0  0  0  0
  3  9  1  0  0  0  0
  3 12  1  0  0  0  0
  4 11  1  0  0  0  0
  4 13  1  0  0  0  0
  4 14  1  0  0  0  0
  5  6  1  0  0  0  0
  5  7  1  0  0  0  0
  5 26  1  0  0  0  0
  6  8  1  0  0  0  0
  6 27  1  0  0  0  0
  6 28  1  0  0  0  0
  7 11  1  0  0  0  0
  7 29  1  0  0  0  0
  7 30  1  0  0  0  0
  8 10  1  0  0  0  0
  8 31  1  0  0  0  0
  8 32  1  0  0  0  0
  9 10  1  0  0  0  0
  9 33  1  0  0  0  0
  9 34  1  0  0  0  0
 10 35  1  0  0  0  0
 10 36  1  0  0  0  0
 11 37  1  0  0  0  0
 11 38  1  0  0  0  0
 12 39  1  0  0  0  0
 12 40  1  0  0  0  0
 12 41  1  0  0  0  0
 13 15  2  0  0  0  0
 13 17  1  0  0  0  0
 14 16  1  0  0  0  0
 14 18  2  0  0  0  0
 15 19  1  0  0  0  0
 16 20  2  0  0  0  0
 17 21  2  0  0  0  0
 17 42  1  0  0  0  0
 18 22  1  0  0  0  0
 18 43  1  0  0  0  0
 19 23  2  0  0  0  0
 19 44  1  0  0  0  0
 20 24  1  0  0  0  0
 20 45  1  0  0  0  0
 21 23  1  0  0  0  0
 22 24  2  0  0  0  0
 22 46  1  0  0  0  0
 23 47  1  0  0  0  0
 24 48  1  0  0  0  0
 25 49  1  0  0  0  0
 25 50  1  0  0  0  0
 25 51  1  0  0  0  0
M  END
>  <DRUGBANK_ID>
DB00679

>  <SECONDARY_ACCESSION_NUMBERS>
APRD00596

>  <COMMON_NAME>
Thioridazine

>  <CAS_NUMBER>
50-52-2

>  <UNII>
N3D6TG58NI

>  <SYNONYMS>
10-[2-(1-methyl-2-piperidyl)ethyl]-2-methylsulfanyl-phenothiazine; 2-Methylmercapto-10-(2-(N-methyl-2-piperidyl)ethyl)phenothiazine; 3-Methylmercapto-N-(2'-(N-methyl-2-piperidyl)ethyl)phenothiazine; Thioridazin; Thioridazine; Thioridazinum; Tioridazina

$$$$
