
 OpenBabel10282417123D

 26 25  0  0  1  0  0  0  0  0999 V2000
    1.0290    1.7041   -2.0312 C   0  0  1  0  0  0  0  0  0  0  0  0
    0.8853    1.4282   -0.4899 C   0  0  2  0  0  0  0  0  0  0  0  0
    2.3497    1.1826   -2.2404 O   0  0  0  0  0  0  0  0  0  0  0  0
    1.5529    0.2450    0.0116 O   0  0  0  0  0  0  0  0  0  0  0  0
   -0.5616    1.5005   -0.1079 C   0  0  0  0  0  0  0  0  0  0  0  0
   -0.1865    1.1371   -2.9624 C   0  0  0  0  0  0  0  0  0  0  0  0
   -1.4717    1.7894   -2.7974 O   0  0  0  0  0  0  0  0  0  0  0  0
   -0.9704    1.3731    1.2297 O   0  0  0  0  0  0  0  0  0  0  0  0
   -1.1391    0.0256    1.6531 N   0  3  0  0  0  0  0  0  0  0  0  0
   -0.6662   -0.8595    0.9382 O   0  5  0  0  0  0  0  0  0  0  0  0
   -1.6748   -0.0628    2.7473 O   0  0  0  0  0  0  0  0  0  0  0  0
    1.5135   -0.9698   -0.7502 N   0  3  0  0  0  0  0  0  0  0  0  0
    0.7357   -1.0584   -1.6740 O   0  5  0  0  0  0  0  0  0  0  0  0
    2.3594   -1.7897   -0.3664 O   0  0  0  0  0  0  0  0  0  0  0  0
    2.9788    1.4087   -3.4602 N   0  3  0  0  0  0  0  0  0  0  0  0
    2.3497    2.0569   -4.2938 O   0  5  0  0  0  0  0  0  0  0  0  0
    4.0967    0.9098   -3.5056 O   0  0  0  0  0  0  0  0  0  0  0  0
   -2.5517    1.1318   -2.0757 N   0  3  0  0  0  0  0  0  0  0  0  0
   -2.4258   -0.0495   -1.7508 O   0  5  0  0  0  0  0  0  0  0  0  0
   -3.3918    1.9459   -1.6887 O   0  0  0  0  0  0  0  0  0  0  0  0
    1.0401    2.8015   -2.1514 H   0  0  0  0  0  0  0  0  0  0  0  0
    1.3785    2.2392    0.0662 H   0  0  0  0  0  0  0  0  0  0  0  0
   -0.9832    2.4416   -0.4967 H   0  0  0  0  0  0  0  0  0  0  0  0
   -0.9061    0.6558   -0.6509 H   0  0  0  0  0  0  0  0  0  0  0  0
    0.1073    1.3838   -3.9871 H   0  0  0  0  0  0  0  0  0  0  0  0
   -0.2869    0.0603   -3.0359 H   0  0  0  0  0  0  0  0  0  0  0  0
  1  3  1  0  0  0  0
  1 21  1  6  0  0  0
  2 22  1  1  0  0  0
  2  4  1  0  0  0  0
  2  1  1  0  0  0  0
  5  2  1  0  0  0  0
  5 23  1  0  0  0  0
  5 24  1  0  0  0  0
  6  1  1  0  0  0  0
  6 25  1  0  0  0  0
  6 26  1  0  0  0  0
  7  6  1  0  0  0  0
  8  5  1  0  0  0  0
  9  8  1  0  0  0  0
 10  9  1  0  0  0  0
 11  9  2  0  0  0  0
 12  4  1  0  0  0  0
 13 12  1  0  0  0  0
 14 12  2  0  0  0  0
 15  3  1  0  0  0  0
 16 15  1  0  0  0  0
 17 15  2  0  0  0  0
 18  7  1  0  0  0  0
 19 18  1  0  0  0  0
 20 18  2  0  0  0  0
M  CHG  8   9   1  10  -1  12   1  13  -1  15   1  16  -1  18   1  19  -1
M  END
>  <DRUGBANK_ID>
DB01613

>  <COMMON_NAME>
Erythrityl tetranitrate

>  <CAS_NUMBER>
7297-25-8

>  <UNII>
35X333P19D

>  <SYNONYMS>
(2R*,3S)-rel-1,2,3,4-butanetetroltetranitrate; 1,2,3,4-Butanetetralyl tetranitrate; Eritrityl tetranitrate; Eritrityli tetranitras; Erythritol tetranitrate; Erythrityl tetranitrate; Erythrol tetranitrate; ETN; Meso-erythritol tetranitrate; Tetranitrate d'eritrityle; Tetranitrato de eritritilo; Tetranitrin; Tetranitrol

$$$$
