
 OpenBabel10282417233D

 59 63  0  0  0  0  0  0  0  0999 V2000
   -2.4239   -0.7275   -0.0857 C   0  0  0  0  0  0  0  0  0  0  0  0
   -2.3814    0.6470   -0.2974 C   0  0  0  0  0  0  0  0  0  0  0  0
   -1.2286    1.3657   -0.0473 C   0  0  0  0  0  0  0  0  0  0  0  0
   -0.0294    0.6834    0.0836 C   0  0  0  0  0  0  0  0  0  0  0  0
   -0.0358   -0.7029    0.0903 C   0  0  0  0  0  0  0  0  0  0  0  0
   -1.2367   -1.4160    0.1053 C   0  0  0  0  0  0  0  0  0  0  0  0
    1.2294   -1.4094   -0.0003 C   0  0  0  0  0  0  0  0  0  0  0  0
    2.3807   -0.6410   -0.0139 N   0  0  0  0  0  0  0  0  0  0  0  0
    2.4002    0.7471   -0.0231 N   0  0  0  0  0  0  0  0  0  0  0  0
    1.2674    1.3816    0.0658 C   0  0  0  0  0  0  0  0  0  0  0  0
    1.2703    2.8699    0.1435 C   0  0  0  0  0  0  0  0  0  0  0  0
    1.7401    3.6351   -0.9291 C   0  0  0  0  0  0  0  0  0  0  0  0
    1.7326    5.0319   -0.8381 C   0  0  0  0  0  0  0  0  0  0  0  0
    1.3235    5.6525    0.3440 C   0  0  0  0  0  0  0  0  0  0  0  0
    0.8330    4.8800    1.3902 C   0  0  0  0  0  0  0  0  0  0  0  0
    0.7635    3.4975    1.2877 C   0  0  0  0  0  0  0  0  0  0  0  0
    0.4224    5.4761    2.5169 F   0  0  0  0  0  0  0  0  0  0  0  0
    3.6422   -1.3607   -0.1064 C   0  0  0  0  0  0  0  0  0  0  0  0
    3.8178   -2.2503    1.1670 C   0  0  0  0  0  0  0  0  0  0  0  0
    3.9973   -3.6357    0.9955 N   0  0  0  0  0  0  0  0  0  0  0  0
    4.2605   -4.5372    2.1201 C   0  0  0  0  0  0  0  0  0  0  0  0
    3.7979   -4.4050    3.4798 C   0  0  0  0  0  0  0  0  0  0  0  0
    4.1165   -5.4968    4.3656 C   0  0  0  0  0  0  0  0  0  0  0  0
    4.4685   -6.7213    3.8387 C   0  0  0  0  0  0  0  0  0  0  0  0
    5.1869   -6.7226    2.6626 C   0  0  0  0  0  0  0  0  0  0  0  0
    5.1000   -5.6201    1.8344 C   0  0  0  0  0  0  0  0  0  0  0  0
    4.4379   -7.6945    4.7495 N   0  0  0  0  0  0  0  0  0  0  0  0
    5.0072   -7.0745    5.7473 C   0  0  0  0  0  0  0  0  0  0  0  0
    4.7495   -5.6590    5.6992 O   0  0  0  0  0  0  0  0  0  0  0  0
    5.9505   -7.8906    6.5929 C   0  0  0  0  0  0  0  0  0  0  0  0
    4.0080   -4.2217   -0.3679 C   0  0  0  0  0  0  0  0  0  0  0  0
    3.8176   -1.7133    2.2794 O   0  0  0  0  0  0  0  0  0  0  0  0
    1.2191   -2.6460   -0.0927 O   0  0  0  0  0  0  0  0  0  0  0  0
   -3.5710   -1.4594   -0.0092 O   0  0  0  0  0  0  0  0  0  0  0  0
   -4.8033   -0.7385   -0.1032 C   0  0  0  0  0  0  0  0  0  0  0  0
   -5.0430    0.2637    1.0299 C   0  0  0  0  0  0  0  0  0  0  0  0
   -3.2491    1.2134   -0.6118 H   0  0  0  0  0  0  0  0  0  0  0  0
   -1.3086    2.4456   -0.0109 H   0  0  0  0  0  0  0  0  0  0  0  0
   -1.2360   -2.4982    0.2223 H   0  0  0  0  0  0  0  0  0  0  0  0
    2.1024    3.1532   -1.8339 H   0  0  0  0  0  0  0  0  0  0  0  0
    2.0607    5.6380   -1.6796 H   0  0  0  0  0  0  0  0  0  0  0  0
    1.3848    6.7307    0.4590 H   0  0  0  0  0  0  0  0  0  0  0  0
    0.3152    2.9300    2.0971 H   0  0  0  0  0  0  0  0  0  0  0  0
    3.6412   -1.9057   -1.0535 H   0  0  0  0  0  0  0  0  0  0  0  0
    4.4716   -0.6449   -0.1503 H   0  0  0  0  0  0  0  0  0  0  0  0
    3.0246   -3.6692    3.7181 H   0  0  0  0  0  0  0  0  0  0  0  0
    5.8776   -7.5348    2.5055 H   0  0  0  0  0  0  0  0  0  0  0  0
    5.7100   -5.6449    0.9407 H   0  0  0  0  0  0  0  0  0  0  0  0
    6.5848   -7.4411    7.3535 H   0  0  0  0  0  0  0  0  0  0  0  0
    5.3568   -8.6970    7.0467 H   0  0  0  0  0  0  0  0  0  0  0  0
    6.6290   -8.4649    5.9224 H   0  0  0  0  0  0  0  0  0  0  0  0
    3.0721   -3.9991   -0.8893 H   0  0  0  0  0  0  0  0  0  0  0  0
    4.8339   -3.7915   -0.9461 H   0  0  0  0  0  0  0  0  0  0  0  0
    4.0972   -5.3119   -0.3840 H   0  0  0  0  0  0  0  0  0  0  0  0
   -4.8814   -0.2763   -1.0948 H   0  0  0  0  0  0  0  0  0  0  0  0
   -5.5960   -1.4914   -0.0522 H   0  0  0  0  0  0  0  0  0  0  0  0
   -4.3080    1.0700    1.0876 H   0  0  0  0  0  0  0  0  0  0  0  0
   -6.0107    0.7524    0.8998 H   0  0  0  0  0  0  0  0  0  0  0  0
   -4.9932   -0.2303    2.0024 H   0  0  0  0  0  0  0  0  0  0  0  0
  1  2  1  0  0  0  0
  1 34  1  0  0  0  0
  2  3  2  0  0  0  0
  2 37  1  0  0  0  0
  3  4  1  0  0  0  0
  3 38  1  0  0  0  0
  4  5  2  0  0  0  0
  4 10  1  0  0  0  0
  5  6  1  0  0  0  0
  5  7  1  0  0  0  0
  6  1  2  0  0  0  0
  6 39  1  0  0  0  0
  7 33  2  0  0  0  0
  8  7  1  0  0  0  0
  8 18  1  0  0  0  0
  9  8  1  0  0  0  0
 10  9  2  0  0  0  0
 10 11  1  0  0  0  0
 11 16  1  0  0  0  0
 12 11  2  0  0  0  0
 12 40  1  0  0  0  0
 13 12  1  0  0  0  0
 13 41  1  0  0  0  0
 14 13  2  0  0  0  0
 14 42  1  0  0  0  0
 15 14  1  0  0  0  0
 15 17  1  0  0  0  0
 16 15  2  0  0  0  0
 16 43  1  0  0  0  0
 18 19  1  0  0  0  0
 18 44  1  0  0  0  0
 18 45  1  0  0  0  0
 19 20  1  0  0  0  0
 19 32  2  0  0  0  0
 20 21  1  0  0  0  0
 20 31  1  0  0  0  0
 21 26  1  0  0  0  0
 22 21  2  0  0  0  0
 22 46  1  0  0  0  0
 23 22  1  0  0  0  0
 23 29  1  0  0  0  0
 24 23  2  0  0  0  0
 24 27  1  0  0  0  0
 25 24  1  0  0  0  0
 25 47  1  0  0  0  0
 26 25  2  0  0  0  0
 26 48  1  0  0  0  0
 27 28  2  0  0  0  0
 28 29  1  0  0  0  0
 28 30  1  0  0  0  0
 30 49  1  0  0  0  0
 30 50  1  0  0  0  0
 30 51  1  0  0  0  0
 31 52  1  0  0  0  0
 31 53  1  0  0  0  0
 31 54  1  0  0  0  0
 34 35  1  0  0  0  0
 35 36  1  0  0  0  0
 35 55  1  0  0  0  0
 35 56  1  0  0  0  0
 36 57  1  0  0  0  0
 36 58  1  0  0  0  0
 36 59  1  0  0  0  0
M  END
>  <DRUGBANK_ID>
DB16878

>  <COMMON_NAME>
FDL169

>  <CAS_NUMBER>
1628416-28-3

>  <UNII>
49PN4S4FDH

>  <SYNONYMS>
2-(7-ethoxy-4-(3-fluorophenyl)-1-oxophthalazin-2(1H)-yl)-N-methyl-N-(2-methylbenzo(D)oxazol-6-yl)acetamide; 2-(7-ethoxy-4-(3-fluorophenyl)-1-oxophthalazin-2(1H)-yl)-N-methyl-N-(2-methylbenzo[D]oxazol-6-yl)acetamide

$$$$
