
 OpenBabel10282417213D

 15 14  0  0  0  0  0  0  0  0999 V2000
    1.1299    0.0219    0.4099 C   0  0  0  0  0  0  0  0  0  0  0  0
    0.4615    1.3040    0.4709 N   0  0  0  0  0  0  0  0  0  0  0  0
   -0.3060    2.0190   -0.3480 C   0  0  0  0  0  0  0  0  0  0  0  0
   -0.8628    3.4952    0.2164 S   0  0  0  0  0  0  0  0  0  0  0  0
   -0.6755    1.6564   -1.5817 N   0  0  0  0  0  0  0  0  0  0  0  0
   -0.3870    0.5535   -2.4403 C   0  0  0  0  0  0  0  0  0  0  0  0
   -1.6048   -0.1224   -2.6284 O   0  0  0  0  0  0  0  0  0  0  0  0
    0.9875   -0.5299   -0.5033 H   0  0  0  0  0  0  0  0  0  0  0  0
    0.7479   -0.5961    1.2241 H   0  0  0  0  0  0  0  0  0  0  0  0
    2.1995    0.1958    0.5432 H   0  0  0  0  0  0  0  0  0  0  0  0
    0.6017    1.7888    1.3538 H   0  0  0  0  0  0  0  0  0  0  0  0
   -1.2679    2.3479   -2.0211 H   0  0  0  0  0  0  0  0  0  0  0  0
   -0.0206    0.9410   -3.3933 H   0  0  0  0  0  0  0  0  0  0  0  0
    0.3481   -0.1455   -2.0809 H   0  0  0  0  0  0  0  0  0  0  0  0
   -1.8881   -0.3729   -1.7327 H   0  0  0  0  0  0  0  0  0  0  0  0
  1  2  1  0  0  0  0
  1  8  1  0  0  0  0
  1  9  1  0  0  0  0
  1 10  1  0  0  0  0
  2  3  1  0  0  0  0
  2 11  1  0  0  0  0
  3  4  2  0  0  0  0
  3  5  1  0  0  0  0
  5  6  1  0  0  0  0
  5 12  1  0  0  0  0
  6  7  1  0  0  0  0
  6 13  1  0  0  0  0
  6 14  1  0  0  0  0
  7 15  1  0  0  0  0
M  END
>  <DRUGBANK_ID>
DB13838

>  <COMMON_NAME>
Noxytiolin

>  <CAS_NUMBER>
15599-39-0

>  <UNII>
4DN3AF1FU6

>  <SYNONYMS>
Noxitiolina; Noxytiolin; Noxytioline; Noxytiolinum

$$$$
