
 OpenBabel10282417163D

 51 51  0  0  1  0  0  0  0  0999 V2000
    0.6133   -2.2946    0.8021 O   0  0  0  0  0  0  0  0  0  0  0  0
    1.7891    2.8054    3.8194 O   0  0  0  0  0  0  0  0  0  0  0  0
    1.5648    0.9241    4.9793 O   0  0  0  0  0  0  0  0  0  0  0  0
    0.2812    1.3216   -0.1428 N   0  0  0  0  0  0  0  0  0  0  0  0
    3.2354   -1.1122   -0.3880 C   0  0  0  0  0  0  0  0  0  0  0  0
    2.4523    0.2016   -0.2157 C   0  0  0  0  0  0  0  0  0  0  0  0
    3.5186   -1.8276    0.9518 C   0  0  0  0  0  0  0  0  0  0  0  0
    4.5826   -0.8537   -1.0701 C   0  0  0  0  0  0  0  0  0  0  0  0
    0.9198   -0.0033   -0.1914 C   0  0  1  0  0  0  0  0  0  0  0  0
    4.1964   -3.1618    0.7323 C   0  0  0  0  0  0  0  0  0  0  0  0
    5.3693   -2.1558   -1.2374 C   0  0  0  0  0  0  0  0  0  0  0  0
    5.5376   -2.9092    0.0807 C   0  0  0  0  0  0  0  0  0  0  0  0
    0.4212   -0.8886    0.9938 C   0  0  2  0  0  0  0  0  0  0  0  0
    0.9563   -0.4025    2.3757 C   0  0  0  0  0  0  0  0  0  0  0  0
    0.5016    1.0220    2.7531 C   0  0  1  0  0  0  0  0  0  0  0  0
   -1.0483    1.0701    2.7745 C   0  0  0  0  0  0  0  0  0  0  0  0
   -1.6995    0.0859    3.7602 C   0  0  0  0  0  0  0  0  0  0  0  0
    1.2887    1.5586    3.9620 C   0  0  0  0  0  0  0  0  0  0  0  0
   -1.3214    0.4398    5.1802 C   0  0  0  0  0  0  0  0  0  0  0  0
   -3.2133    0.0769    3.6479 C   0  0  0  0  0  0  0  0  0  0  0  0
    0.5316    1.9152   -0.9265 H   0  0  0  0  0  0  0  0  0  0  0  0
   -0.7337    1.2250   -0.1261 H   0  0  0  0  0  0  0  0  0  0  0  0
    1.2973   -2.4633    0.1373 H   0  0  0  0  0  0  0  0  0  0  0  0
    1.8092    3.1476    2.9076 H   0  0  0  0  0  0  0  0  0  0  0  0
    2.6664   -1.7601   -1.0688 H   0  0  0  0  0  0  0  0  0  0  0  0
    2.6878    0.8803   -1.0470 H   0  0  0  0  0  0  0  0  0  0  0  0
    2.8019    0.7240    0.6845 H   0  0  0  0  0  0  0  0  0  0  0  0
    4.1289   -1.1786    1.5915 H   0  0  0  0  0  0  0  0  0  0  0  0
    2.6485   -2.0638    1.5483 H   0  0  0  0  0  0  0  0  0  0  0  0
    4.4228   -0.3970   -2.0540 H   0  0  0  0  0  0  0  0  0  0  0  0
    5.1623   -0.1419   -0.4707 H   0  0  0  0  0  0  0  0  0  0  0  0
    0.6183   -0.4750   -1.1336 H   0  0  0  0  0  0  0  0  0  0  0  0
    4.3163   -3.6699    1.6954 H   0  0  0  0  0  0  0  0  0  0  0  0
    3.5655   -3.8067    0.1059 H   0  0  0  0  0  0  0  0  0  0  0  0
    6.3539   -1.9315   -1.6555 H   0  0  0  0  0  0  0  0  0  0  0  0
    4.8450   -2.8008   -1.9541 H   0  0  0  0  0  0  0  0  0  0  0  0
    6.1508   -2.3114    0.7662 H   0  0  0  0  0  0  0  0  0  0  0  0
    6.0499   -3.8604   -0.0809 H   0  0  0  0  0  0  0  0  0  0  0  0
   -0.6691   -0.8532    0.9965 H   0  0  0  0  0  0  0  0  0  0  0  0
    0.6826   -1.1329    3.1454 H   0  0  0  0  0  0  0  0  0  0  0  0
    2.0462   -0.3989    2.4209 H   0  0  0  0  0  0  0  0  0  0  0  0
    0.8388    1.7026    1.9716 H   0  0  0  0  0  0  0  0  0  0  0  0
   -1.4012    2.0951    2.9223 H   0  0  0  0  0  0  0  0  0  0  0  0
   -1.4455    0.8042    1.7858 H   0  0  0  0  0  0  0  0  0  0  0  0
   -1.3674   -0.9372    3.5458 H   0  0  0  0  0  0  0  0  0  0  0  0
   -1.4232    1.5174    5.3495 H   0  0  0  0  0  0  0  0  0  0  0  0
   -1.8933   -0.1085    5.9265 H   0  0  0  0  0  0  0  0  0  0  0  0
   -0.3038    0.1230    5.3520 H   0  0  0  0  0  0  0  0  0  0  0  0
   -3.5383   -0.2814    2.6670 H   0  0  0  0  0  0  0  0  0  0  0  0
   -3.6260   -0.5977    4.4062 H   0  0  0  0  0  0  0  0  0  0  0  0
   -3.6167    1.0781    3.8176 H   0  0  0  0  0  0  0  0  0  0  0  0
  1 23  1  0  0  0  0
  2 18  1  0  0  0  0
  2 24  1  0  0  0  0
  3 18  2  0  0  0  0
  4 21  1  0  0  0  0
  4 22  1  0  0  0  0
  5  6  1  0  0  0  0
  5  7  1  0  0  0  0
  5  8  1  0  0  0  0
  5 25  1  0  0  0  0
  6  9  1  0  0  0  0
  6 26  1  0  0  0  0
  6 27  1  0  0  0  0
  7 10  1  0  0  0  0
  7 28  1  0  0  0  0
  7 29  1  0  0  0  0
  8 11  1  0  0  0  0
  8 30  1  0  0  0  0
  8 31  1  0  0  0  0
  9  4  1  0  0  0  0
  9 32  1  6  0  0  0
 10 12  1  0  0  0  0
 10 33  1  0  0  0  0
 10 34  1  0  0  0  0
 11 12  1  0  0  0  0
 11 35  1  0  0  0  0
 11 36  1  0  0  0  0
 12 37  1  0  0  0  0
 12 38  1  0  0  0  0
 13 14  1  0  0  0  0
 13 39  1  1  0  0  0
 13  9  1  0  0  0  0
 13  1  1  0  0  0  0
 14 15  1  0  0  0  0
 14 40  1  0  0  0  0
 14 41  1  0  0  0  0
 15 16  1  0  0  0  0
 15 18  1  0  0  0  0
 15 42  1  6  0  0  0
 16 17  1  0  0  0  0
 16 43  1  0  0  0  0
 16 44  1  0  0  0  0
 17 19  1  0  0  0  0
 17 20  1  0  0  0  0
 17 45  1  0  0  0  0
 19 46  1  0  0  0  0
 19 47  1  0  0  0  0
 19 48  1  0  0  0  0
 20 49  1  0  0  0  0
 20 50  1  0  0  0  0
 20 51  1  0  0  0  0
M  END
>  <DRUGBANK_ID>
DB07542

>  <COMMON_NAME>
5-Amino-6-cyclohexyl-4-hydroxy-2-isobutyl-hexanoic acid

$$$$
