
 OpenBabel10282417133D

 15 15  0  0  0  0  0  0  0  0999 V2000
   -1.7728   -0.0525    0.0499 N   0  0  0  0  0  0  0  0  0  0  0  0
   -1.1308   -0.4498    1.3489 C   0  0  0  0  0  0  0  0  0  0  0  0
   -1.6484   -1.7878    1.8241 C   0  0  0  0  0  0  0  0  0  0  0  0
   -1.8832   -0.5970    2.6811 C   0  0  0  0  0  0  0  0  0  0  0  0
    0.5242    0.8053    1.9077 P   0  0  2  0  0  0  0  0  0  0  0  0
    0.4721    1.3017    0.2513 O   0  0  0  0  0  0  0  0  0  0  0  0
    1.5876   -0.1599    1.3447 O   0  5  0  0  0  0  0  0  0  0  0  0
    0.5709    0.3609    3.3902 O   0  0  0  0  0  0  0  0  0  0  0  0
   -1.2780   -0.5143   -0.6972 H   0  0  0  0  0  0  0  0  0  0  0  0
   -1.5656    0.9572   -0.0601 H   0  0  0  0  0  0  0  0  0  0  0  0
   -2.5219   -2.1537    1.2903 H   0  0  0  0  0  0  0  0  0  0  0  0
   -0.9625   -2.5618    2.1102 H   0  0  0  0  0  0  0  0  0  0  0  0
   -1.3555   -0.6915    3.6229 H   0  0  0  0  0  0  0  0  0  0  0  0
   -2.7538    0.0214    2.7194 H   0  0  0  0  0  0  0  0  0  0  0  0
    0.4920    0.4242   -0.1775 H   0  0  0  0  0  0  0  0  0  0  0  0
  1  2  1  0  0  0  0
  1  9  1  0  0  0  0
  1 10  1  0  0  0  0
  2  3  1  0  0  0  0
  2  4  1  0  0  0  0
  3  4  1  0  0  0  0
  3 11  1  0  0  0  0
  3 12  1  0  0  0  0
  4 13  1  0  0  0  0
  4 14  1  0  0  0  0
  5  7  1  6  0  0  0
  5  8  2  0  0  0  0
  5  6  1  0  0  0  0
  5  2  1  0  0  0  0
  6 15  1  0  0  0  0
M  CHG  1   7  -1
M  END
>  <DRUGBANK_ID>
DB03053

>  <SECONDARY_ACCESSION_NUMBERS>
EXPT02186

>  <COMMON_NAME>
1-Aminocyclopropylphosphonate

$$$$
