
 OpenBabel10282417123D

 36 37  0  0  1  0  0  0  0  0999 V2000
    1.7371   -0.2654    0.0000 C   0  0  0  0  0  0  0  0  0  0  0  0
    0.9707   -1.4646    0.0053 C   0  0  0  0  0  0  0  0  0  0  0  0
    1.1881    1.0634    0.0113 C   0  0  0  0  0  0  0  0  0  0  0  0
   -0.7854   -0.0351   -0.0519 C   0  0  0  0  0  0  0  0  0  0  0  0
   -3.5577    0.7769   -2.5652 C   0  0  0  0  0  0  0  0  0  0  0  0
   -0.3736   -1.3481   -0.0219 C   0  0  0  0  0  0  0  0  0  0  0  0
   -0.1700    1.2044    0.0723 C   0  0  0  0  0  0  0  0  0  0  0  0
   -3.1183    1.1994   -1.1594 C   0  0  2  0  0  0  0  0  0  0  0  0
   -3.6799    0.2342    0.0019 C   0  0  1  0  0  0  0  0  0  0  0  0
   -3.0002    0.4500    1.4976 C   0  0  1  0  0  0  0  0  0  0  0  0
   -2.9187    1.9483    1.7437 C   0  0  2  0  0  0  0  0  0  0  0  0
   -2.2991    2.6504    0.4740 C   0  0  1  0  0  0  0  0  0  0  0  0
   -1.2961   -2.5279    0.0912 N   0  0  0  0  0  0  0  0  0  0  0  0
   -2.9628    1.6248   -3.5501 O   0  0  0  0  0  0  0  0  0  0  0  0
   -5.0844    0.3320    0.1294 O   0  0  0  0  0  0  0  0  0  0  0  0
   -3.5002   -0.3657    2.5507 O   0  0  0  0  0  0  0  0  0  0  0  0
   -2.1584    2.2677    2.9151 O   0  0  0  0  0  0  0  0  0  0  0  0
   -2.5163   -2.3322    0.3086 O   0  0  0  0  0  0  0  0  0  0  0  0
   -0.8208   -3.6429   -0.0038 O   0  0  0  0  0  0  0  0  0  0  0  0
   -0.8253    2.4112    0.2287 O   0  0  0  0  0  0  0  0  0  0  0  0
   -3.1781    2.5331   -0.6988 O   0  0  0  0  0  0  0  0  0  0  0  0
   -2.0609    1.1642   -1.4275 H   0  0  0  0  0  0  0  0  0  0  0  0
   -3.5306   -0.7566   -0.4122 H   0  0  0  0  0  0  0  0  0  0  0  0
   -1.9617    0.1681    1.6613 H   0  0  0  0  0  0  0  0  0  0  0  0
   -3.9488    2.2668    1.9336 H   0  0  0  0  0  0  0  0  0  0  0  0
   -2.3610    3.7210    0.7116 H   0  0  0  0  0  0  0  0  0  0  0  0
    2.8117   -0.3867    0.0245 H   0  0  0  0  0  0  0  0  0  0  0  0
    1.3897   -2.4562    0.0356 H   0  0  0  0  0  0  0  0  0  0  0  0
    1.8360    1.9355   -0.0303 H   0  0  0  0  0  0  0  0  0  0  0  0
   -1.7956   -0.0116   -0.1622 H   0  0  0  0  0  0  0  0  0  0  0  0
   -3.1443   -0.2289   -2.7639 H   0  0  0  0  0  0  0  0  0  0  0  0
   -4.6328    0.7512   -2.6928 H   0  0  0  0  0  0  0  0  0  0  0  0
   -3.0178    2.5346   -3.2069 H   0  0  0  0  0  0  0  0  0  0  0  0
   -5.2789    1.2717    0.2514 H   0  0  0  0  0  0  0  0  0  0  0  0
   -4.4542   -0.4704    2.4634 H   0  0  0  0  0  0  0  0  0  0  0  0
   -1.2307    2.0132    2.7576 H   0  0  0  0  0  0  0  0  0  0  0  0
  1 27  1  0  0  0  0
  2  1  2  0  0  0  0
  2 28  1  0  0  0  0
  3  1  1  0  0  0  0
  3 29  1  0  0  0  0
  4 30  1  0  0  0  0
  5 31  1  0  0  0  0
  5 32  1  0  0  0  0
  6  2  1  0  0  0  0
  6  4  2  0  0  0  0
  7  3  2  0  0  0  0
  7  4  1  0  0  0  0
  8  5  1  0  0  0  0
  8 22  1  6  0  0  0
  9  8  1  0  0  0  0
  9 15  1  0  0  0  0
  9 23  1  6  0  0  0
 10  9  1  0  0  0  0
 10 16  1  0  0  0  0
 10 24  1  6  0  0  0
 11 10  1  0  0  0  0
 11 17  1  0  0  0  0
 11 25  1  1  0  0  0
 12 11  1  0  0  0  0
 12 20  1  0  0  0  0
 12 26  1  1  0  0  0
 13  6  1  0  0  0  0
 14  5  1  0  0  0  0
 14 33  1  0  0  0  0
 15 34  1  0  0  0  0
 16 35  1  0  0  0  0
 17 36  1  0  0  0  0
 18 13  2  0  0  0  0
 19 13  2  0  0  0  0
 20  7  1  0  0  0  0
 21  8  1  0  0  0  0
 21 12  1  0  0  0  0
M  END
>  <DRUGBANK_ID>
DB02213

>  <SECONDARY_ACCESSION_NUMBERS>
EXPT01541

>  <COMMON_NAME>
Metanitrophenyl-Alpha-D-Galactoside

$$$$
