
 OpenBabel10282417233D

 65 66  0  0  1  0  0  0  0  0999 V2000
   -7.7311    3.4528   -5.6095 C   0  0  0  0  0  0  0  0  0  0  0  0
   -6.9252    2.9744   -4.5639 O   0  0  0  0  0  0  0  0  0  0  0  0
   -5.5161    3.1546   -4.6205 C   0  0  0  0  0  0  0  0  0  0  0  0
   -4.7874    2.4843   -5.7790 C   0  0  0  0  0  0  0  0  0  0  0  0
   -3.4096    2.3678   -5.6769 C   0  0  0  0  0  0  0  0  0  0  0  0
   -2.6694    1.8315   -6.7322 C   0  0  0  0  0  0  0  0  0  0  0  0
   -3.2860    1.2809   -7.8583 C   0  0  0  0  0  0  0  0  0  0  0  0
   -4.6604    1.1908   -7.9041 C   0  0  0  0  0  0  0  0  0  0  0  0
   -5.3424    0.1943   -8.8472 C   0  0  0  0  0  0  0  0  0  0  0  0
   -5.7777   -1.1405   -8.1524 C   0  0  2  0  0  0  0  0  0  0  0  0
   -7.0725   -1.4825   -8.7034 O   0  0  0  0  0  0  0  0  0  0  0  0
   -6.0193   -0.8584   -6.7016 C   0  0  0  0  0  0  0  0  0  0  0  0
   -5.6015   -1.1681   -5.4574 C   0  0  0  0  0  0  0  0  0  0  0  0
   -6.2092   -0.8060   -3.8659 C   0  0  1  0  0  0  0  0  0  0  0  0
   -6.4426    0.6141   -3.4618 C   0  0  2  0  0  0  0  0  0  0  0  0
   -5.6891    0.9059   -2.2853 O   0  0  0  0  0  0  0  0  0  0  0  0
   -7.9417    0.9645   -3.2738 C   0  0  0  0  0  0  0  0  0  0  0  0
   -8.5648   -0.3691   -3.3023 C   0  0  0  0  0  0  0  0  0  0  0  0
   -9.7647   -0.6004   -3.3752 O   0  0  0  0  0  0  0  0  0  0  0  0
   -7.5160   -1.4137   -3.2095 C   0  0  2  0  0  0  0  0  0  0  0  0
   -7.6051   -1.7351   -1.7471 C   0  0  0  0  0  0  0  0  0  0  0  0
   -7.1692   -3.1600   -1.4991 C   0  0  0  0  0  0  0  0  0  0  0  0
   -5.5026   -3.7371   -2.0331 S   0  0  0  0  0  0  0  0  0  0  0  0
   -5.4633   -3.6884   -3.8782 C   0  0  0  0  0  0  0  0  0  0  0  0
   -6.3525   -4.3798   -4.9173 C   0  0  0  0  0  0  0  0  0  0  0  0
   -7.8858   -4.0851   -4.9095 C   0  0  0  0  0  0  0  0  0  0  0  0
   -8.7185   -2.8968   -5.6825 C   0  0  0  0  0  0  0  0  0  0  0  0
   -9.8343   -3.0616   -6.0869 O   0  0  0  0  0  0  0  0  0  0  0  0
   -8.1477   -1.6650   -5.6754 O   0  0  0  0  0  0  0  0  0  0  0  0
   -8.6811   -0.3172   -6.0081 C   0  0  0  0  0  0  0  0  0  0  0  0
   -5.3820    1.8680   -6.8973 C   0  0  0  0  0  0  0  0  0  0  0  0
   -8.7209    2.9865   -5.5280 H   0  0  0  0  0  0  0  0  0  0  0  0
   -7.3858    3.1967   -6.5999 H   0  0  0  0  0  0  0  0  0  0  0  0
   -7.7958    4.5271   -5.5400 H   0  0  0  0  0  0  0  0  0  0  0  0
   -5.2818    4.2039   -4.4838 H   0  0  0  0  0  0  0  0  0  0  0  0
   -5.1144    2.6997   -3.6955 H   0  0  0  0  0  0  0  0  0  0  0  0
   -2.9123    2.6899   -4.7648 H   0  0  0  0  0  0  0  0  0  0  0  0
   -1.5899    1.8227   -6.6593 H   0  0  0  0  0  0  0  0  0  0  0  0
   -2.6964    0.8648   -8.6652 H   0  0  0  0  0  0  0  0  0  0  0  0
   -6.2055    0.6891   -9.3224 H   0  0  0  0  0  0  0  0  0  0  0  0
   -4.6735   -0.0763   -9.6706 H   0  0  0  0  0  0  0  0  0  0  0  0
   -5.1044   -1.9830   -8.3150 H   0  0  0  0  0  0  0  0  0  0  0  0
   -7.0563   -2.3903   -9.0498 H   0  0  0  0  0  0  0  0  0  0  0  0
   -6.7543   -0.1098   -6.8044 H   0  0  0  0  0  0  0  0  0  0  0  0
   -4.7629   -1.8655   -5.5129 H   0  0  0  0  0  0  0  0  0  0  0  0
   -5.3334   -1.1118   -3.2730 H   0  0  0  0  0  0  0  0  0  0  0  0
   -5.9682    1.0615   -4.2969 H   0  0  0  0  0  0  0  0  0  0  0  0
   -6.1917    0.6297   -1.5037 H   0  0  0  0  0  0  0  0  0  0  0  0
   -8.1739    1.4979   -2.3541 H   0  0  0  0  0  0  0  0  0  0  0  0
   -8.4117    1.4896   -4.0955 H   0  0  0  0  0  0  0  0  0  0  0  0
   -7.8614   -2.2859   -3.6849 H   0  0  0  0  0  0  0  0  0  0  0  0
   -7.1303   -0.9812   -1.1229 H   0  0  0  0  0  0  0  0  0  0  0  0
   -8.6731   -1.6850   -1.4429 H   0  0  0  0  0  0  0  0  0  0  0  0
   -7.2347   -3.2825   -0.4166 H   0  0  0  0  0  0  0  0  0  0  0  0
   -7.9149   -3.8390   -1.9138 H   0  0  0  0  0  0  0  0  0  0  0  0
   -5.8011   -2.7302   -4.0512 H   0  0  0  0  0  0  0  0  0  0  0  0
   -4.4071   -3.6308   -4.1997 H   0  0  0  0  0  0  0  0  0  0  0  0
   -5.9809   -4.1242   -5.9195 H   0  0  0  0  0  0  0  0  0  0  0  0
   -6.1534   -5.4427   -4.7579 H   0  0  0  0  0  0  0  0  0  0  0  0
   -8.3430   -4.9904   -5.3133 H   0  0  0  0  0  0  0  0  0  0  0  0
   -8.2023   -4.1129   -3.8653 H   0  0  0  0  0  0  0  0  0  0  0  0
   -8.6956   -0.0778   -7.0682 H   0  0  0  0  0  0  0  0  0  0  0  0
   -9.5625    0.0440   -5.4925 H   0  0  0  0  0  0  0  0  0  0  0  0
   -7.9110    0.3680   -5.6068 H   0  0  0  0  0  0  0  0  0  0  0  0
   -6.4531    1.7348   -6.9361 H   0  0  0  0  0  0  0  0  0  0  0  0
  1  2  1  0  0  0  0
  1 32  1  0  0  0  0
  1 33  1  0  0  0  0
  1 34  1  0  0  0  0
  2  3  1  0  0  0  0
  3  4  1  0  0  0  0
  3 35  1  0  0  0  0
  3 36  1  0  0  0  0
  4  5  2  0  0  0  0
  4 31  1  0  0  0  0
  5  6  1  0  0  0  0
  5 37  1  0  0  0  0
  6  7  2  0  0  0  0
  6 38  1  0  0  0  0
  7  8  1  0  0  0  0
  7 39  1  0  0  0  0
  8  9  1  0  0  0  0
  8 31  2  0  0  0  0
  9 40  1  0  0  0  0
  9 41  1  0  0  0  0
 10 12  1  0  0  0  0
 10 42  1  6  0  0  0
 10 11  1  0  0  0  0
 10  9  1  0  0  0  0
 11 43  1  0  0  0  0
 12 13  2  0  0  0  0
 12 44  1  0  0  0  0
 13 45  1  0  0  0  0
 14 15  1  0  0  0  0
 14 20  1  0  0  0  0
 14 46  1  1  0  0  0
 14 13  1  0  0  0  0
 15 16  1  0  0  0  0
 15 17  1  0  0  0  0
 15 47  1  6  0  0  0
 16 48  1  0  0  0  0
 17 18  1  0  0  0  0
 17 49  1  0  0  0  0
 17 50  1  0  0  0  0
 18 19  2  0  0  0  0
 20 18  1  0  0  0  0
 20 51  1  6  0  0  0
 20 21  1  0  0  0  0
 21 22  1  0  0  0  0
 21 52  1  0  0  0  0
 21 53  1  0  0  0  0
 22 23  1  0  0  0  0
 22 54  1  0  0  0  0
 22 55  1  0  0  0  0
 23 24  1  0  0  0  0
 24 25  1  0  0  0  0
 24 56  1  0  0  0  0
 24 57  1  0  0  0  0
 25 26  1  0  0  0  0
 25 58  1  0  0  0  0
 25 59  1  0  0  0  0
 26 27  1  0  0  0  0
 26 60  1  0  0  0  0
 26 61  1  0  0  0  0
 27 28  2  0  0  0  0
 27 29  1  0  0  0  0
 29 30  1  0  0  0  0
 30 62  1  0  0  0  0
 30 63  1  0  0  0  0
 30 64  1  0  0  0  0
 31 65  1  0  0  0  0
M  END
>  <DRUGBANK_ID>
DB16315

>  <COMMON_NAME>
Rivenprost

>  <CAS_NUMBER>
256382-08-8

>  <UNII>
1WBO45T413

>  <SYNONYMS>
Rivenprost

$$$$
