
 OpenBabel10282417133D

 31 33  0  0  1  0  0  0  0  0999 V2000
    1.0024   -0.2083   -0.1046 N   0  0  0  0  0  0  0  0  0  0  0  0
    0.3579    0.4075   -1.1754 C   0  0  0  0  0  0  0  0  0  0  0  0
    0.7705    0.1059   -2.4267 N   0  0  0  0  0  0  0  0  0  0  0  0
    0.0779    0.6057   -3.4731 C   0  0  0  0  0  0  0  0  0  0  0  0
   -0.9750    1.4520   -3.4519 N   0  0  0  0  0  0  0  0  0  0  0  0
   -1.3022    1.7744   -2.1938 C   0  0  0  0  0  0  0  0  0  0  0  0
   -0.7095    1.3114   -1.0227 C   0  0  0  0  0  0  0  0  0  0  0  0
   -1.2997    1.8836    0.0846 N   0  0  0  0  0  0  0  0  0  0  0  0
   -2.2175    2.6976   -0.4029 C   0  0  0  0  0  0  0  0  0  0  0  0
   -2.2647    2.6518   -1.7714 N   0  0  0  0  0  0  0  0  0  0  0  0
   -3.0949    3.4970   -2.6054 C   0  0  2  0  0  0  0  0  0  0  0  0
   -4.0078    2.6886   -3.3653 O   0  0  0  0  0  0  0  0  0  0  0  0
   -3.9980    3.1399   -4.7398 C   0  0  2  0  0  0  0  0  0  0  0  0
   -3.3951    2.0542   -5.6315 C   0  0  0  0  0  0  0  0  0  0  0  0
   -3.2274    4.4657   -4.7735 C   0  0  1  0  0  0  0  0  0  0  0  0
   -4.0980    5.5960   -4.5997 O   0  0  0  0  0  0  0  0  0  0  0  0
   -2.2997    4.3716   -3.5718 C   0  0  1  0  0  0  0  0  0  0  0  0
   -1.9815    5.6364   -2.9901 O   0  0  0  0  0  0  0  0  0  0  0  0
   -4.1403    1.9688   -6.7710 F   0  0  0  0  0  0  0  0  0  0  0  0
    0.6174    0.0337    0.8000 H   0  0  0  0  0  0  0  0  0  0  0  0
    2.0104   -0.1536   -0.1900 H   0  0  0  0  0  0  0  0  0  0  0  0
    0.4054    0.2771   -4.4536 H   0  0  0  0  0  0  0  0  0  0  0  0
   -2.8575    3.3425    0.1835 H   0  0  0  0  0  0  0  0  0  0  0  0
   -3.7066    4.1163   -1.9372 H   0  0  0  0  0  0  0  0  0  0  0  0
   -5.0444    3.2947   -5.0275 H   0  0  0  0  0  0  0  0  0  0  0  0
   -2.3685    2.2758   -5.9340 H   0  0  0  0  0  0  0  0  0  0  0  0
   -3.4158    1.0703   -5.1533 H   0  0  0  0  0  0  0  0  0  0  0  0
   -2.6849    4.6219   -5.7114 H   0  0  0  0  0  0  0  0  0  0  0  0
   -4.7287    5.4181   -3.8820 H   0  0  0  0  0  0  0  0  0  0  0  0
   -1.3594    3.9077   -3.8780 H   0  0  0  0  0  0  0  0  0  0  0  0
   -2.7781    6.1984   -3.0406 H   0  0  0  0  0  0  0  0  0  0  0  0
  1  2  1  0  0  0  0
  1 20  1  0  0  0  0
  1 21  1  0  0  0  0
  2  3  1  0  0  0  0
  2  7  2  0  0  0  0
  3  4  2  0  0  0  0
  4  5  1  0  0  0  0
  4 22  1  0  0  0  0
  5  6  2  0  0  0  0
  6  7  1  0  0  0  0
  6 10  1  0  0  0  0
  7  8  1  0  0  0  0
  8  9  2  0  0  0  0
  9 10  1  0  0  0  0
  9 23  1  0  0  0  0
 11 10  1  0  0  0  0
 11 12  1  0  0  0  0
 11 17  1  0  0  0  0
 11 24  1  1  0  0  0
 12 13  1  0  0  0  0
 13 15  1  0  0  0  0
 13 25  1  6  0  0  0
 13 14  1  0  0  0  0
 14 19  1  0  0  0  0
 14 26  1  0  0  0  0
 14 27  1  0  0  0  0
 15 16  1  0  0  0  0
 15 17  1  0  0  0  0
 15 28  1  6  0  0  0
 16 29  1  0  0  0  0
 17 18  1  0  0  0  0
 17 30  1  6  0  0  0
 18 31  1  0  0  0  0
M  END
>  <DRUGBANK_ID>
DB03716

>  <SECONDARY_ACCESSION_NUMBERS>
EXPT00245

>  <COMMON_NAME>
5'-Fluoro-5'-Deoxyadenosine

>  <UNII>
8LJ6NC6D44

$$$$
