
 OpenBabel10282417123D

 49 52  0  0  1  0  0  0  0  0999 V2000
    1.1347    0.1767    0.2246 N   0  0  0  0  0  0  0  0  0  0  0  0
    0.6442   -0.9436    0.8269 C   0  0  0  0  0  0  0  0  0  0  0  0
   -0.4583   -1.4872    0.4664 N   0  0  0  0  0  0  0  0  0  0  0  0
    1.3766   -1.6402    1.8962 C   0  0  0  0  0  0  0  0  0  0  0  0
    2.3590   -1.0303    2.6541 C   0  0  0  0  0  0  0  0  0  0  0  0
    3.0809   -1.8189    3.5485 C   0  0  0  0  0  0  0  0  0  0  0  0
    2.7691   -3.1819    3.7102 C   0  0  0  0  0  0  0  0  0  0  0  0
    3.5139   -3.9607    4.5473 O   0  0  0  0  0  0  0  0  0  0  0  0
    1.7226   -3.7825    3.0149 C   0  0  0  0  0  0  0  0  0  0  0  0
    1.3439   -5.2388    3.1434 C   0  0  0  0  0  0  0  0  0  0  0  0
    0.0004   -5.4433    3.6738 N   0  0  0  0  0  0  0  0  0  0  0  0
   -0.2483   -6.1009    4.9338 C   0  0  0  0  0  0  0  0  0  0  0  0
   -1.7423   -6.4122    4.8912 C   0  0  0  0  0  0  0  0  0  0  0  0
   -2.2972   -5.2862    4.0358 C   0  0  2  0  0  0  0  0  0  0  0  0
   -3.5666   -5.6122    3.3723 N   0  0  0  0  0  0  0  0  0  0  0  0
   -4.6776   -4.3482    3.2607 S   0  0  0  0  0  0  0  0  0  0  0  0
   -5.7714   -4.8215    2.4488 O   0  0  0  0  0  0  0  0  0  0  0  0
   -4.9118   -3.9169    4.6283 O   0  0  0  0  0  0  0  0  0  0  0  0
   -3.9992   -2.9478    2.3944 C   0  0  0  0  0  0  0  0  0  0  0  0
   -4.0642   -2.5125    1.0796 C   0  0  0  0  0  0  0  0  0  0  0  0
   -3.4255   -1.2411    0.8823 C   0  0  0  0  0  0  0  0  0  0  0  0
   -2.8524   -0.7767    2.0663 C   0  0  0  0  0  0  0  0  0  0  0  0
   -3.0964   -1.8621    3.3584 S   0  0  0  0  0  0  0  0  0  0  0  0
   -2.1100    0.4130    2.0872 C   0  0  0  0  0  0  0  0  0  0  0  0
   -1.9721    1.1031    0.8890 C   0  0  0  0  0  0  0  0  0  0  0  0
   -2.5870    0.5925   -0.2436 C   0  0  0  0  0  0  0  0  0  0  0  0
   -3.3106   -0.5532   -0.2987 N   0  0  0  0  0  0  0  0  0  0  0  0
   -1.1863   -5.1299    3.0243 C   0  0  0  0  0  0  0  0  0  0  0  0
   -1.3421   -4.7927    1.8597 O   0  0  0  0  0  0  0  0  0  0  0  0
    1.0509   -2.9835    2.0972 C   0  0  0  0  0  0  0  0  0  0  0  0
    0.6267    0.4358   -0.6129 H   0  0  0  0  0  0  0  0  0  0  0  0
    2.1268    0.1035    0.0178 H   0  0  0  0  0  0  0  0  0  0  0  0
   -0.9721   -0.9649   -0.2307 H   0  0  0  0  0  0  0  0  0  0  0  0
    2.5572    0.0309    2.5431 H   0  0  0  0  0  0  0  0  0  0  0  0
    3.8947   -1.3578    4.0971 H   0  0  0  0  0  0  0  0  0  0  0  0
    4.2215   -3.4169    4.9272 H   0  0  0  0  0  0  0  0  0  0  0  0
    1.3992   -5.7114    2.1556 H   0  0  0  0  0  0  0  0  0  0  0  0
    2.0493   -5.7663    3.7929 H   0  0  0  0  0  0  0  0  0  0  0  0
    0.0192   -5.4238    5.7502 H   0  0  0  0  0  0  0  0  0  0  0  0
    0.3410   -7.0209    5.0043 H   0  0  0  0  0  0  0  0  0  0  0  0
   -2.1935   -6.4455    5.8867 H   0  0  0  0  0  0  0  0  0  0  0  0
   -1.9115   -7.3832    4.4088 H   0  0  0  0  0  0  0  0  0  0  0  0
   -2.3594   -4.3768    4.6407 H   0  0  0  0  0  0  0  0  0  0  0  0
   -4.0275   -6.4633    3.6849 H   0  0  0  0  0  0  0  0  0  0  0  0
   -4.5554   -3.0776    0.2969 H   0  0  0  0  0  0  0  0  0  0  0  0
   -1.5322    0.6816    2.9651 H   0  0  0  0  0  0  0  0  0  0  0  0
   -1.2678    1.9264    0.8223 H   0  0  0  0  0  0  0  0  0  0  0  0
   -2.3743    1.0395   -1.2143 H   0  0  0  0  0  0  0  0  0  0  0  0
    0.2640   -3.4059    1.4807 H   0  0  0  0  0  0  0  0  0  0  0  0
  1  2  1  0  0  0  0
  1 31  1  0  0  0  0
  1 32  1  0  0  0  0
  2  3  2  0  0  0  0
  2  4  1  0  0  0  0
  3 33  1  0  0  0  0
  4  5  2  0  0  0  0
  4 30  1  0  0  0  0
  5  6  1  0  0  0  0
  5 34  1  0  0  0  0
  6  7  2  0  0  0  0
  6 35  1  0  0  0  0
  7  8  1  0  0  0  0
  7  9  1  0  0  0  0
  8 36  1  0  0  0  0
  9 10  1  0  0  0  0
  9 30  2  0  0  0  0
 10 11  1  0  0  0  0
 10 37  1  0  0  0  0
 10 38  1  0  0  0  0
 11 12  1  0  0  0  0
 11 28  1  0  0  0  0
 12 13  1  0  0  0  0
 12 39  1  0  0  0  0
 12 40  1  0  0  0  0
 13 14  1  0  0  0  0
 13 41  1  0  0  0  0
 13 42  1  0  0  0  0
 14 28  1  0  0  0  0
 14 43  1  1  0  0  0
 14 15  1  0  0  0  0
 15 16  1  0  0  0  0
 15 44  1  0  0  0  0
 16 17  2  0  0  0  0
 16 18  2  0  0  0  0
 16 19  1  0  0  0  0
 19 20  2  0  0  0  0
 19 23  1  0  0  0  0
 20 21  1  0  0  0  0
 20 45  1  0  0  0  0
 21 22  2  0  0  0  0
 21 27  1  0  0  0  0
 22 23  1  0  0  0  0
 22 24  1  0  0  0  0
 24 25  2  0  0  0  0
 24 46  1  0  0  0  0
 25 26  1  0  0  0  0
 25 47  1  0  0  0  0
 26 27  2  0  0  0  0
 26 48  1  0  0  0  0
 28 29  2  0  0  0  0
 30 49  1  0  0  0  0
M  END
>  <DRUGBANK_ID>
DB02744

>  <SECONDARY_ACCESSION_NUMBERS>
EXPT02653

>  <COMMON_NAME>
RPR131247

$$$$
