
 OpenBabel10282417223D

227230  0  0  0  0  0  0  0  0999 V2000
   -6.9357    6.9940   -4.6423 N   0  0  0  0  0  0  0  0  0  0  0  0
   -7.7966    6.2691   -3.0358 C   0  0  2  0  0  0  0  0  0  0  0  0
   -7.6495    6.9106   -1.7699 C   0  0  0  0  0  0  0  0  0  0  0  0
   -8.1590    8.0918   -2.1399 N   0  0  0  0  0  0  0  0  0  0  0  0
   -7.5823    9.2639   -1.7296 C   0  0  2  0  0  0  0  0  0  0  0  0
   -6.9922    9.1136   -0.4056 C   0  0  0  0  0  0  0  0  0  0  0  0
   -7.7993    8.6571    0.5940 N   0  0  0  0  0  0  0  0  0  0  0  0
   -7.2128    8.4387    1.8889 C   0  0  2  0  0  0  0  0  0  0  0  0
   -8.2836    8.3502    2.9821 C   0  0  0  0  0  0  0  0  0  0  0  0
   -9.6016    8.0859    2.6658 N   0  0  0  0  0  0  0  0  0  0  0  0
  -10.6170    8.3915    3.6801 C   0  0  2  0  0  0  0  0  0  0  0  0
  -12.0100    8.4808    3.0307 C   0  0  0  0  0  0  0  0  0  0  0  0
  -12.6449    7.4196    2.4184 N   0  0  0  0  0  0  0  0  0  0  0  0
  -13.9845    7.6163    1.6935 C   0  0  2  0  0  0  0  0  0  0  0  0
  -13.7308    7.7413    0.1328 C   0  0  0  0  0  0  0  0  0  0  0  0
  -14.7117    7.3374   -0.7736 N   0  0  0  0  0  0  0  0  0  0  0  0
  -16.1374    7.4305   -0.6530 C   0  0  0  0  0  0  0  0  0  0  0  0
  -16.7887    6.2879   -1.3283 C   0  0  0  0  0  0  0  0  0  0  0  0
  -15.8715    6.1591   -2.5146 C   0  0  0  0  0  0  0  0  0  0  0  0
  -14.4595    6.7307   -2.0797 C   0  0  1  0  0  0  0  0  0  0  0  0
  -13.9654    7.6707   -3.2067 C   0  0  0  0  0  0  0  0  0  0  0  0
  -12.6817    8.1695   -3.1603 N   0  0  0  0  0  0  0  0  0  0  0  0
  -12.2246    8.9312   -4.3352 C   0  0  2  0  0  0  0  0  0  0  0  0
  -11.7626    7.9400   -5.4441 C   0  0  0  0  0  0  0  0  0  0  0  0
  -10.5465    7.2794   -5.2421 N   0  0  0  0  0  0  0  0  0  0  0  0
   -9.9377    6.3257   -6.2143 C   0  0  2  0  0  0  0  0  0  0  0  0
   -8.4451    5.7870   -5.9970 C   0  0  0  0  0  0  0  0  0  0  0  0
   -8.1528    5.2101   -4.7900 N   0  0  0  0  0  0  0  0  0  0  0  0
   -6.4649    5.1022   -3.9585 C   0  0  2  0  0  0  0  0  0  0  0  0
   -5.5563    6.6230   -3.1034 C   0  0  0  0  0  0  0  0  0  0  0  0
   -4.3680    6.5744   -2.6099 N   0  0  0  0  0  0  0  0  0  0  0  0
   -3.6781    7.8610   -2.4445 C   0  0  2  0  0  0  0  0  0  0  0  0
   -2.3856    7.6491   -3.1822 C   0  0  0  0  0  0  0  0  0  0  0  0
   -1.9631    6.3246   -3.2496 N   0  0  0  0  0  0  0  0  0  0  0  0
   -0.6404    5.9284   -3.6797 C   0  0  2  0  0  0  0  0  0  0  0  0
   -0.3971    4.3884   -3.3894 C   0  0  0  0  0  0  0  0  0  0  0  0
   -1.1831    3.4183   -3.9525 N   0  0  0  0  0  0  0  0  0  0  0  0
   -1.6953    3.3628   -5.3035 C   0  0  0  0  0  0  0  0  0  0  0  0
   -2.8966    2.5530   -5.0146 C   0  0  0  0  0  0  0  0  0  0  0  0
   -2.7979    1.5762   -3.9092 C   0  0  0  0  0  0  0  0  0  0  0  0
   -1.6458    2.2448   -3.1352 C   0  0  1  0  0  0  0  0  0  0  0  0
   -0.6151    1.1731   -2.9520 C   0  0  0  0  0  0  0  0  0  0  0  0
   -0.0764    0.6622   -4.1186 N   0  0  0  0  0  0  0  0  0  0  0  0
    0.8039   -0.4766   -4.0228 C   0  0  2  0  0  0  0  0  0  0  0  0
    2.1631   -0.0506   -3.4453 C   0  0  0  0  0  0  0  0  0  0  0  0
    3.1208    0.3415   -4.0949 O   0  0  0  0  0  0  0  0  0  0  0  0
    2.2251   -0.1481   -2.1035 O   0  0  0  0  0  0  0  0  0  0  0  0
    1.0151   -1.1379   -5.3941 C   0  0  0  0  0  0  0  0  0  0  0  0
    1.8831   -2.3940   -5.2817 C   0  0  0  0  0  0  0  0  0  0  0  0
    1.2654   -3.4460   -4.3663 C   0  0  0  0  0  0  0  0  0  0  0  0
    0.0394   -3.9665   -4.9349 N   0  0  0  0  0  0  0  0  0  0  0  0
   -0.2287   -5.2488   -5.2600 C   0  0  0  0  0  0  0  0  0  0  0  0
   -1.3428   -5.6480   -5.7638 N   0  0  0  0  0  0  0  0  0  0  0  0
    0.7320   -6.1542   -5.0465 N   0  0  0  0  0  0  0  0  0  0  0  0
   -0.4348    0.6789   -1.8440 O   0  0  0  0  0  0  0  0  0  0  0  0
    0.4675    3.9988   -2.6034 O   0  0  0  0  0  0  0  0  0  0  0  0
    0.3904    6.7607   -2.8960 C   0  0  0  0  0  0  0  0  0  0  0  0
    1.8213    6.4805   -3.3349 C   0  0  0  0  0  0  0  0  0  0  0  0
    1.9879    6.7655   -4.8214 C   0  0  0  0  0  0  0  0  0  0  0  0
    2.7867    7.3127   -2.5097 C   0  0  0  0  0  0  0  0  0  0  0  0
   -1.7454    8.6113   -3.5931 O   0  0  0  0  0  0  0  0  0  0  0  0
   -3.6312    8.0307   -0.9693 C   0  0  0  0  0  0  0  0  0  0  0  0
   -2.9537    9.3052   -0.6010 C   0  0  0  0  0  0  0  0  0  0  0  0
   -3.4045   10.3129   -0.0937 O   0  0  0  0  0  0  0  0  0  0  0  0
   -1.6446    9.2200   -0.9009 O   0  0  0  0  0  0  0  0  0  0  0  0
   -5.8945    7.8346   -3.1262 O   0  0  0  0  0  0  0  0  0  0  0  0
   -6.0535    4.3084   -5.0636 C   0  0  0  0  0  0  0  0  0  0  0  0
   -4.8103    4.0990   -4.4574 C   0  0  0  0  0  0  0  0  0  0  0  0
   -6.8711    3.0419   -5.2920 C   0  0  0  0  0  0  0  0  0  0  0  0
   -7.5611    5.7954   -6.8403 O   0  0  0  0  0  0  0  0  0  0  0  0
   -9.9191    6.8352   -7.6473 C   0  0  0  0  0  0  0  0  0  0  0  0
   -9.4161    5.7468   -8.6205 C   0  0  0  0  0  0  0  0  0  0  0  0
  -10.2350    4.4577   -8.5289 C   0  0  0  0  0  0  0  0  0  0  0  0
  -11.6737    4.7359   -8.9285 C   0  0  0  0  0  0  0  0  0  0  0  0
  -11.6899    5.2769  -10.2828 N   0  0  0  0  0  0  0  0  0  0  0  0
  -12.4308    7.7909   -6.4630 O   0  0  0  0  0  0  0  0  0  0  0  0
  -11.0953    9.8888   -4.0248 C   0  0  0  0  0  0  0  0  0  0  0  0
  -10.6214   10.6314   -5.1389 O   0  0  0  0  0  0  0  0  0  0  0  0
  -14.6734    7.9174   -4.1835 O   0  0  0  0  0  0  0  0  0  0  0  0
  -12.6318    8.1290   -0.2890 O   0  0  0  0  0  0  0  0  0  0  0  0
  -14.7694    8.8125    2.2934 C   0  0  0  0  0  0  0  0  0  0  0  0
  -16.1058    9.1205    1.7766 C   0  0  0  0  0  0  0  0  0  0  0  0
  -17.3551    8.8209    2.2504 C   0  0  0  0  0  0  0  0  0  0  0  0
  -18.2882    9.0298    1.2728 N   0  0  0  0  0  0  0  0  0  0  0  0
  -17.6432    9.5921    0.2756 C   0  0  0  0  0  0  0  0  0  0  0  0
  -16.3092    9.7777    0.5793 N   0  0  0  0  0  0  0  0  0  0  0  0
  -12.5745    9.5708    3.0877 O   0  0  0  0  0  0  0  0  0  0  0  0
  -10.3594    9.8196    4.3078 C   0  0  0  0  0  0  0  0  0  0  0  0
  -11.3391   10.2433    5.4135 C   0  0  0  0  0  0  0  0  0  0  0  0
  -11.3192    9.2374    6.5516 C   0  0  0  0  0  0  0  0  0  0  0  0
  -10.9871   11.6406    5.9029 C   0  0  0  0  0  0  0  0  0  0  0  0
   -7.9724    8.4857    4.1641 O   0  0  0  0  0  0  0  0  0  0  0  0
   -6.2884    9.6278    2.2342 C   0  0  0  0  0  0  0  0  0  0  0  0
   -5.5989    9.5380    3.5430 C   0  0  0  0  0  0  0  0  0  0  0  0
   -4.7970    8.4284    3.8235 C   0  0  0  0  0  0  0  0  0  0  0  0
   -4.1522    8.3502    5.0428 C   0  0  0  0  0  0  0  0  0  0  0  0
   -4.2848    9.3931    5.9571 C   0  0  0  0  0  0  0  0  0  0  0  0
   -5.0510   10.5180    5.6503 C   0  0  0  0  0  0  0  0  0  0  0  0
   -5.7664   10.5623    4.4688 C   0  0  0  0  0  0  0  0  0  0  0  0
   -5.8435    9.4964   -0.3083 O   0  0  0  0  0  0  0  0  0  0  0  0
   -8.7523   10.1250   -1.8567 C   0  0  0  0  0  0  0  0  0  0  0  0
   -8.4129   11.4071   -1.2194 C   0  0  0  0  0  0  0  0  0  0  0  0
   -7.3879   12.1540   -2.0417 C   0  0  0  0  0  0  0  0  0  0  0  0
   -7.6102   13.2112   -2.6013 O   0  0  0  0  0  0  0  0  0  0  0  0
   -6.1930   11.5461   -2.1532 O   0  0  0  0  0  0  0  0  0  0  0  0
   -7.1350    6.4240   -0.7284 O   0  0  0  0  0  0  0  0  0  0  0  0
   -8.0711    4.4367   -2.5282 C   0  0  0  0  0  0  0  0  0  0  0  0
   -9.3458    4.1254   -1.8857 C   0  0  0  0  0  0  0  0  0  0  0  0
  -10.4288    4.5274   -2.8630 C   0  0  0  0  0  0  0  0  0  0  0  0
  -10.4840    3.7341   -4.2006 C   0  0  0  0  0  0  0  0  0  0  0  0
  -10.5591    2.3042   -4.0188 N   0  0  0  0  0  0  0  0  0  0  0  0
   -5.9085    6.5242   -4.8862 H   0  0  0  0  0  0  0  0  0  0  0  0
   -6.3633    7.8568   -4.5796 H   0  0  0  0  0  0  0  0  0  0  0  0
   -8.7263    6.6836   -3.3739 H   0  0  0  0  0  0  0  0  0  0  0  0
   -8.0286    8.2089   -3.1547 H   0  0  0  0  0  0  0  0  0  0  0  0
   -6.8195    9.5491   -2.4537 H   0  0  0  0  0  0  0  0  0  0  0  0
   -8.7377    8.3578    0.3748 H   0  0  0  0  0  0  0  0  0  0  0  0
   -6.6560    7.4913    1.8667 H   0  0  0  0  0  0  0  0  0  0  0  0
   -9.8783    7.6112    1.8209 H   0  0  0  0  0  0  0  0  0  0  0  0
  -10.5875    7.6189    4.4549 H   0  0  0  0  0  0  0  0  0  0  0  0
  -12.1542    6.5411    2.3003 H   0  0  0  0  0  0  0  0  0  0  0  0
  -14.5336    6.6782    1.8633 H   0  0  0  0  0  0  0  0  0  0  0  0
  -16.4064    8.3061   -1.2646 H   0  0  0  0  0  0  0  0  0  0  0  0
  -16.4701    7.3877    0.3632 H   0  0  0  0  0  0  0  0  0  0  0  0
  -16.7794    5.4419   -0.6411 H   0  0  0  0  0  0  0  0  0  0  0  0
  -17.8326    6.5354   -1.5749 H   0  0  0  0  0  0  0  0  0  0  0  0
  -15.8309    5.1234   -2.8426 H   0  0  0  0  0  0  0  0  0  0  0  0
  -16.3330    6.7446   -3.3203 H   0  0  0  0  0  0  0  0  0  0  0  0
  -13.7539    5.9128   -1.9220 H   0  0  0  0  0  0  0  0  0  0  0  0
  -12.1567    8.1451   -2.2853 H   0  0  0  0  0  0  0  0  0  0  0  0
  -13.0526    9.5268   -4.7426 H   0  0  0  0  0  0  0  0  0  0  0  0
  -10.0814    7.4490   -4.3687 H   0  0  0  0  0  0  0  0  0  0  0  0
  -10.6101    5.4718   -6.1592 H   0  0  0  0  0  0  0  0  0  0  0  0
   -8.9934    5.5166   -4.3208 H   0  0  0  0  0  0  0  0  0  0  0  0
   -6.2544    4.5632   -3.0060 H   0  0  0  0  0  0  0  0  0  0  0  0
   -4.0312    5.6732   -2.4138 H   0  0  0  0  0  0  0  0  0  0  0  0
   -4.1560    8.7460   -2.9464 H   0  0  0  0  0  0  0  0  0  0  0  0
   -2.5634    5.5614   -3.0192 H   0  0  0  0  0  0  0  0  0  0  0  0
   -0.6130    6.1388   -4.7488 H   0  0  0  0  0  0  0  0  0  0  0  0
   -1.0707    2.7840   -5.9683 H   0  0  0  0  0  0  0  0  0  0  0  0
   -1.9129    4.3625   -5.7059 H   0  0  0  0  0  0  0  0  0  0  0  0
   -3.2267    3.2914   -4.3253 H   0  0  0  0  0  0  0  0  0  0  0  0
   -3.5695    2.3000   -5.8386 H   0  0  0  0  0  0  0  0  0  0  0  0
   -3.7303    1.5388   -3.3105 H   0  0  0  0  0  0  0  0  0  0  0  0
   -2.6494    0.5957   -4.3474 H   0  0  0  0  0  0  0  0  0  0  0  0
   -1.9967    2.6089   -2.1580 H   0  0  0  0  0  0  0  0  0  0  0  0
   -0.3184    1.0373   -5.0260 H   0  0  0  0  0  0  0  0  0  0  0  0
    0.3187   -1.1829   -3.3424 H   0  0  0  0  0  0  0  0  0  0  0  0
    3.0707    0.2521   -1.8167 H   0  0  0  0  0  0  0  0  0  0  0  0
    0.0512   -1.3985   -5.8496 H   0  0  0  0  0  0  0  0  0  0  0  0
    1.4887   -0.4328   -6.0893 H   0  0  0  0  0  0  0  0  0  0  0  0
    2.0647   -2.8138   -6.2780 H   0  0  0  0  0  0  0  0  0  0  0  0
    2.8706   -2.1273   -4.8849 H   0  0  0  0  0  0  0  0  0  0  0  0
    2.0184   -4.2156   -4.2069 H   0  0  0  0  0  0  0  0  0  0  0  0
    1.0685   -3.0482   -3.3673 H   0  0  0  0  0  0  0  0  0  0  0  0
   -0.7068   -3.2974   -5.0785 H   0  0  0  0  0  0  0  0  0  0  0  0
   -1.9928   -4.8731   -5.8841 H   0  0  0  0  0  0  0  0  0  0  0  0
    1.6322   -5.9578   -4.6517 H   0  0  0  0  0  0  0  0  0  0  0  0
    0.5316   -7.1134   -5.2839 H   0  0  0  0  0  0  0  0  0  0  0  0
    0.2255    7.8353   -3.0296 H   0  0  0  0  0  0  0  0  0  0  0  0
    0.2605    6.5883   -1.8167 H   0  0  0  0  0  0  0  0  0  0  0  0
    2.0800    5.4367   -3.1569 H   0  0  0  0  0  0  0  0  0  0  0  0
    1.7772    7.8175   -5.0385 H   0  0  0  0  0  0  0  0  0  0  0  0
    3.0036    6.5273   -5.1390 H   0  0  0  0  0  0  0  0  0  0  0  0
    1.3164    6.1524   -5.4297 H   0  0  0  0  0  0  0  0  0  0  0  0
    2.6679    7.0959   -1.4426 H   0  0  0  0  0  0  0  0  0  0  0  0
    3.8136    7.0713   -2.7953 H   0  0  0  0  0  0  0  0  0  0  0  0
    2.6185    8.3820   -2.6677 H   0  0  0  0  0  0  0  0  0  0  0  0
   -4.6427    7.9463   -0.5890 H   0  0  0  0  0  0  0  0  0  0  0  0
   -3.1601    7.1683   -0.5083 H   0  0  0  0  0  0  0  0  0  0  0  0
   -1.2796   10.1112   -0.7370 H   0  0  0  0  0  0  0  0  0  0  0  0
   -5.9136    4.8686   -5.9769 H   0  0  0  0  0  0  0  0  0  0  0  0
   -4.8668    3.4939   -3.5225 H   0  0  0  0  0  0  0  0  0  0  0  0
   -4.5136    3.6536   -5.3684 H   0  0  0  0  0  0  0  0  0  0  0  0
   -4.1776    4.9733   -4.3149 H   0  0  0  0  0  0  0  0  0  0  0  0
   -7.8693    3.2678   -5.6731 H   0  0  0  0  0  0  0  0  0  0  0  0
   -6.4087    2.4430   -6.0611 H   0  0  0  0  0  0  0  0  0  0  0  0
   -6.9850    2.4544   -4.3746 H   0  0  0  0  0  0  0  0  0  0  0  0
  -10.9168    7.1362   -7.9668 H   0  0  0  0  0  0  0  0  0  0  0  0
   -9.3019    7.7370   -7.6885 H   0  0  0  0  0  0  0  0  0  0  0  0
   -9.3730    6.1728   -9.6188 H   0  0  0  0  0  0  0  0  0  0  0  0
   -8.3814    5.4466   -8.5139 H   0  0  0  0  0  0  0  0  0  0  0  0
   -9.7794    3.7001   -9.1750 H   0  0  0  0  0  0  0  0  0  0  0  0
  -10.2007    4.0131   -7.5227 H   0  0  0  0  0  0  0  0  0  0  0  0
  -12.2584    3.8175   -8.8743 H   0  0  0  0  0  0  0  0  0  0  0  0
  -12.1379    5.4451   -8.2337 H   0  0  0  0  0  0  0  0  0  0  0  0
  -12.6368    5.5503  -10.5253 H   0  0  0  0  0  0  0  0  0  0  0  0
  -11.1593    6.1498  -10.3113 H   0  0  0  0  0  0  0  0  0  0  0  0
  -11.3690   10.6020   -3.2398 H   0  0  0  0  0  0  0  0  0  0  0  0
  -10.2798    9.2781   -3.6629 H   0  0  0  0  0  0  0  0  0  0  0  0
  -10.3423   10.0224   -5.8475 H   0  0  0  0  0  0  0  0  0  0  0  0
  -14.8403    8.6642    3.3824 H   0  0  0  0  0  0  0  0  0  0  0  0
  -14.2411    9.7409    2.0793 H   0  0  0  0  0  0  0  0  0  0  0  0
  -17.5935    8.3505    3.1930 H   0  0  0  0  0  0  0  0  0  0  0  0
  -18.0186    9.6908   -0.7389 H   0  0  0  0  0  0  0  0  0  0  0  0
  -15.5787    9.8883   -0.1192 H   0  0  0  0  0  0  0  0  0  0  0  0
   -9.3770    9.9016    4.7736 H   0  0  0  0  0  0  0  0  0  0  0  0
  -10.3422   10.5632    3.4949 H   0  0  0  0  0  0  0  0  0  0  0  0
  -12.3666   10.3138    5.0568 H   0  0  0  0  0  0  0  0  0  0  0  0
  -10.3223    9.1823    6.9989 H   0  0  0  0  0  0  0  0  0  0  0  0
  -12.0435    9.5226    7.3165 H   0  0  0  0  0  0  0  0  0  0  0  0
  -11.5970    8.2380    6.2049 H   0  0  0  0  0  0  0  0  0  0  0  0
  -11.0154   12.3576    5.0745 H   0  0  0  0  0  0  0  0  0  0  0  0
  -11.7153   11.9605    6.6531 H   0  0  0  0  0  0  0  0  0  0  0  0
   -9.9883   11.6620    6.3475 H   0  0  0  0  0  0  0  0  0  0  0  0
   -5.4297    9.7230    1.5718 H   0  0  0  0  0  0  0  0  0  0  0  0
   -6.8561   10.5613    2.1122 H   0  0  0  0  0  0  0  0  0  0  0  0
   -4.7084    7.6158    3.1071 H   0  0  0  0  0  0  0  0  0  0  0  0
   -3.5389    7.4859    5.2679 H   0  0  0  0  0  0  0  0  0  0  0  0
   -3.7978    9.3271    6.9225 H   0  0  0  0  0  0  0  0  0  0  0  0
   -5.0936   11.3594    6.3308 H   0  0  0  0  0  0  0  0  0  0  0  0
   -6.4810   11.3602    4.2800 H   0  0  0  0  0  0  0  0  0  0  0  0
   -8.9147   10.2478   -2.9292 H   0  0  0  0  0  0  0  0  0  0  0  0
   -9.6160    9.6026   -1.4064 H   0  0  0  0  0  0  0  0  0  0  0  0
   -9.3552   11.9383   -1.1886 H   0  0  0  0  0  0  0  0  0  0  0  0
   -8.0616   11.2400   -0.2012 H   0  0  0  0  0  0  0  0  0  0  0  0
   -5.5735   12.0717   -2.6988 H   0  0  0  0  0  0  0  0  0  0  0  0
   -8.1259    3.7566   -3.3880 H   0  0  0  0  0  0  0  0  0  0  0  0
   -7.2869    3.8633   -1.9541 H   0  0  0  0  0  0  0  0  0  0  0  0
   -9.3561    3.0410   -1.6955 H   0  0  0  0  0  0  0  0  0  0  0  0
   -9.2914    4.6675   -0.9490 H   0  0  0  0  0  0  0  0  0  0  0  0
  -11.3758    4.4193   -2.3615 H   0  0  0  0  0  0  0  0  0  0  0  0
  -10.3329    5.6032   -3.0402 H   0  0  0  0  0  0  0  0  0  0  0  0
  -11.2930    4.1246   -4.8149 H   0  0  0  0  0  0  0  0  0  0  0  0
   -9.6323    3.8145   -4.8602 H   0  0  0  0  0  0  0  0  0  0  0  0
  -10.5032    1.8766   -4.9473 H   0  0  0  0  0  0  0  0  0  0  0  0
   -9.7006    1.9951   -3.5593 H   0  0  0  0  0  0  0  0  0  0  0  0
  1112  1  0  0  0  0
  1113  1  0  0  0  0
  2107  1  0  0  0  0
  2114  1  6  0  0  0
  2  3  1  0  0  0  0
  2  1  1  0  0  0  0
  3  4  1  0  0  0  0
  3106  2  0  0  0  0
  4115  1  0  0  0  0
  5101  1  0  0  0  0
  5116  1  6  0  0  0
  5  6  1  0  0  0  0
  5  4  1  0  0  0  0
  6  7  1  0  0  0  0
  6100  2  0  0  0  0
  7117  1  0  0  0  0
  8 93  1  0  0  0  0
  8118  1  6  0  0  0
  8  9  1  0  0  0  0
  8  7  1  0  0  0  0
  9 10  1  0  0  0  0
  9 92  2  0  0  0  0
 10119  1  0  0  0  0
 11 88  1  0  0  0  0
 11120  1  1  0  0  0
 11 12  1  0  0  0  0
 11 10  1  0  0  0  0
 12 13  1  0  0  0  0
 12 87  2  0  0  0  0
 13121  1  0  0  0  0
 14 81  1  0  0  0  0
 14122  1  1  0  0  0
 14 15  1  0  0  0  0
 14 13  1  0  0  0  0
 15 16  1  0  0  0  0
 15 80  2  0  0  0  0
 16 17  1  0  0  0  0
 16 20  1  0  0  0  0
 17 18  1  0  0  0  0
 17123  1  0  0  0  0
 17124  1  0  0  0  0
 18 19  1  0  0  0  0
 18125  1  0  0  0  0
 18126  1  0  0  0  0
 19 20  1  0  0  0  0
 19127  1  0  0  0  0
 19128  1  0  0  0  0
 20129  1  1  0  0  0
 20 21  1  0  0  0  0
 21 22  1  0  0  0  0
 21 79  2  0  0  0  0
 22130  1  0  0  0  0
 23 77  1  0  0  0  0
 23131  1  6  0  0  0
 23 24  1  0  0  0  0
 23 22  1  0  0  0  0
 24 25  1  0  0  0  0
 24 76  2  0  0  0  0
 25132  1  0  0  0  0
 26 71  1  0  0  0  0
 26133  1  6  0  0  0
 26 27  1  0  0  0  0
 26 25  1  0  0  0  0
 27 28  1  0  0  0  0
 27 70  2  0  0  0  0
 28134  1  0  0  0  0
 29 67  1  0  0  0  0
 29135  1  1  0  0  0
 29 30  1  0  0  0  0
 29 28  1  0  0  0  0
 30 31  1  0  0  0  0
 30 66  2  0  0  0  0
 31136  1  0  0  0  0
 32 62  1  0  0  0  0
 32137  1  6  0  0  0
 32 33  1  0  0  0  0
 32 31  1  0  0  0  0
 33 34  1  0  0  0  0
 33 61  2  0  0  0  0
 34138  1  0  0  0  0
 35 57  1  0  0  0  0
 35139  1  6  0  0  0
 35 36  1  0  0  0  0
 35 34  1  0  0  0  0
 36 37  1  0  0  0  0
 36 56  2  0  0  0  0
 37 38  1  0  0  0  0
 37 41  1  0  0  0  0
 38 39  1  0  0  0  0
 38140  1  0  0  0  0
 38141  1  0  0  0  0
 39 40  1  0  0  0  0
 39142  1  0  0  0  0
 39143  1  0  0  0  0
 40 41  1  0  0  0  0
 40144  1  0  0  0  0
 40145  1  0  0  0  0
 41146  1  1  0  0  0
 41 42  1  0  0  0  0
 42 43  1  0  0  0  0
 42 55  2  0  0  0  0
 43147  1  0  0  0  0
 44 48  1  0  0  0  0
 44148  1  1  0  0  0
 44 45  1  0  0  0  0
 44 43  1  0  0  0  0
 45 46  2  0  0  0  0
 45 47  1  0  0  0  0
 47149  1  0  0  0  0
 48 49  1  0  0  0  0
 48150  1  0  0  0  0
 48151  1  0  0  0  0
 49 50  1  0  0  0  0
 49152  1  0  0  0  0
 49153  1  0  0  0  0
 50 51  1  0  0  0  0
 50154  1  0  0  0  0
 50155  1  0  0  0  0
 51 52  1  0  0  0  0
 51156  1  0  0  0  0
 52 53  2  0  0  0  0
 52 54  1  0  0  0  0
 53157  1  0  0  0  0
 54158  1  0  0  0  0
 54159  1  0  0  0  0
 57 58  1  0  0  0  0
 57160  1  0  0  0  0
 57161  1  0  0  0  0
 58 59  1  0  0  0  0
 58 60  1  0  0  0  0
 58162  1  0  0  0  0
 59163  1  0  0  0  0
 59164  1  0  0  0  0
 59165  1  0  0  0  0
 60166  1  0  0  0  0
 60167  1  0  0  0  0
 60168  1  0  0  0  0
 62 63  1  0  0  0  0
 62169  1  0  0  0  0
 62170  1  0  0  0  0
 63 64  2  0  0  0  0
 63 65  1  0  0  0  0
 65171  1  0  0  0  0
 67 68  1  0  0  0  0
 67 69  1  0  0  0  0
 67172  1  0  0  0  0
 68173  1  0  0  0  0
 68174  1  0  0  0  0
 68175  1  0  0  0  0
 69176  1  0  0  0  0
 69177  1  0  0  0  0
 69178  1  0  0  0  0
 71 72  1  0  0  0  0
 71179  1  0  0  0  0
 71180  1  0  0  0  0
 72 73  1  0  0  0  0
 72181  1  0  0  0  0
 72182  1  0  0  0  0
 73 74  1  0  0  0  0
 73183  1  0  0  0  0
 73184  1  0  0  0  0
 74 75  1  0  0  0  0
 74185  1  0  0  0  0
 74186  1  0  0  0  0
 75187  1  0  0  0  0
 75188  1  0  0  0  0
 77 78  1  0  0  0  0
 77189  1  0  0  0  0
 77190  1  0  0  0  0
 78191  1  0  0  0  0
 81 82  1  0  0  0  0
 81192  1  0  0  0  0
 81193  1  0  0  0  0
 82 83  2  0  0  0  0
 82 86  1  0  0  0  0
 83 84  1  0  0  0  0
 83194  1  0  0  0  0
 84 85  2  0  0  0  0
 85 86  1  0  0  0  0
 85195  1  0  0  0  0
 86196  1  0  0  0  0
 88 89  1  0  0  0  0
 88197  1  0  0  0  0
 88198  1  0  0  0  0
 89 90  1  0  0  0  0
 89 91  1  0  0  0  0
 89199  1  0  0  0  0
 90200  1  0  0  0  0
 90201  1  0  0  0  0
 90202  1  0  0  0  0
 91203  1  0  0  0  0
 91204  1  0  0  0  0
 91205  1  0  0  0  0
 93 94  1  0  0  0  0
 93206  1  0  0  0  0
 93207  1  0  0  0  0
 94 95  2  0  0  0  0
 94 99  1  0  0  0  0
 95 96  1  0  0  0  0
 95208  1  0  0  0  0
 96 97  2  0  0  0  0
 96209  1  0  0  0  0
 97 98  1  0  0  0  0
 97210  1  0  0  0  0
 98 99  2  0  0  0  0
 98211  1  0  0  0  0
 99212  1  0  0  0  0
101102  1  0  0  0  0
101213  1  0  0  0  0
101214  1  0  0  0  0
102103  1  0  0  0  0
102215  1  0  0  0  0
102216  1  0  0  0  0
103104  2  0  0  0  0
103105  1  0  0  0  0
105217  1  0  0  0  0
107108  1  0  0  0  0
107218  1  0  0  0  0
107219  1  0  0  0  0
108109  1  0  0  0  0
108220  1  0  0  0  0
108221  1  0  0  0  0
109110  1  0  0  0  0
109222  1  0  0  0  0
109223  1  0  0  0  0
110111  1  0  0  0  0
110224  1  0  0  0  0
110225  1  0  0  0  0
111226  1  0  0  0  0
111227  1  0  0  0  0
M  END
>  <DRUGBANK_ID>
DB15366

>  <COMMON_NAME>
SOR-C13

>  <CAS_NUMBER>
1187852-48-7

>  <UNII>
C79B5A73C4

>  <SYNONYMS>
H-Lys-Glu-Phe-Leu-His-Pro-Ser-Lys-Val-Asp-Leu-Pro-Arg-OH

$$$$
