
 OpenBabel10282417233D

 73 78  0  0  1  0  0  0  0  0999 V2000
    0.9740    0.1062   -0.0457 C   0  0  0  0  0  0  0  0  0  0  0  0
    0.5578   -0.7844    1.1072 C   0  0  0  0  0  0  0  0  0  0  0  0
    1.0690   -0.2544    2.3336 O   0  0  0  0  0  0  0  0  0  0  0  0
    2.3787   -0.4229    2.5689 C   0  0  0  0  0  0  0  0  0  0  0  0
    3.1804   -0.9368    1.7686 O   0  0  0  0  0  0  0  0  0  0  0  0
    2.7836    0.1672    3.8599 C   0  0  0  0  0  0  0  0  0  0  0  0
    3.9059    0.9090    3.8914 C   0  0  0  0  0  0  0  0  0  0  0  0
    4.4579    1.2655    5.0783 N   0  0  0  0  0  0  0  0  0  0  0  0
    3.8001    1.1551    6.2764 C   0  0  0  0  0  0  0  0  0  0  0  0
    4.6236    1.6567    7.3685 C   0  0  0  0  0  0  0  0  0  0  0  0
    2.5188    0.7382    6.3796 C   0  0  0  0  0  0  0  0  0  0  0  0
    2.0873   -0.1708    5.1821 C   0  0  1  0  0  0  0  0  0  0  0  0
    0.6013   -0.3044    5.0002 C   0  0  0  0  0  0  0  0  0  0  0  0
   -0.1398    0.8451    4.6634 C   0  0  0  0  0  0  0  0  0  0  0  0
   -1.4902    0.7406    4.3677 C   0  0  0  0  0  0  0  0  0  0  0  0
   -2.1128   -0.5050    4.4152 C   0  0  0  0  0  0  0  0  0  0  0  0
   -1.3902   -1.6499    4.7542 C   0  0  0  0  0  0  0  0  0  0  0  0
   -0.0358   -1.5560    5.0484 C   0  0  0  0  0  0  0  0  0  0  0  0
    0.8022   -3.0258    5.4156 Cl  0  0  0  0  0  0  0  0  0  0  0  0
    1.6055    0.8995    7.6084 C   0  0  0  0  0  0  0  0  0  0  0  0
    0.6946    0.0775    7.7709 O   0  0  0  0  0  0  0  0  0  0  0  0
    1.6955    1.8827    8.5890 N   0  0  0  0  0  0  0  0  0  0  0  0
    2.5540    2.9919    8.7779 C   0  0  0  0  0  0  0  0  0  0  0  0
    3.3411    2.9664    9.8918 N   0  0  0  0  0  0  0  0  0  0  0  0
    4.5341    3.6390    9.8418 C   0  0  0  0  0  0  0  0  0  0  0  0
    4.9282    4.4393    8.7801 C   0  0  0  0  0  0  0  0  0  0  0  0
    4.0179    4.6043    7.7345 C   0  0  0  0  0  0  0  0  0  0  0  0
    2.8175    3.8624    7.7281 C   0  0  0  0  0  0  0  0  0  0  0  0
    4.5870    1.3813    2.6963 C   0  0  0  0  0  0  0  0  0  0  0  0
    3.8005    2.0582    1.7694 C   0  0  0  0  0  0  0  0  0  0  0  0
    4.3341    2.3787    0.5544 C   0  0  0  0  0  0  0  0  0  0  0  0
    5.7229    2.2869    0.3640 C   0  0  0  0  0  0  0  0  0  0  0  0
    6.5547    1.6935    1.3272 C   0  0  0  0  0  0  0  0  0  0  0  0
    5.9568    1.1691    2.4750 C   0  0  0  0  0  0  0  0  0  0  0  0
    6.1607    3.3884   -0.4224 N   0  0  0  0  0  0  0  0  0  0  0  0
    5.9805    4.6583    0.2088 C   0  0  0  0  0  0  0  0  0  0  0  0
    5.9903    4.9591    1.6911 C   0  0  0  0  0  0  0  0  0  0  0  0
    5.3409    5.4809   -0.5889 N   0  0  0  0  0  0  0  0  0  0  0  0
    5.1669    4.8283   -1.7656 C   0  0  0  0  0  0  0  0  0  0  0  0
    5.7674    3.5696   -1.7784 C   0  0  0  0  0  0  0  0  0  0  0  0
    5.7102    2.7928   -2.9652 C   0  0  0  0  0  0  0  0  0  0  0  0
    5.0298    3.3853   -4.0448 C   0  0  0  0  0  0  0  0  0  0  0  0
    4.3886    4.5732   -4.0069 N   0  0  0  0  0  0  0  0  0  0  0  0
    4.4449    5.2830   -2.8638 C   0  0  0  0  0  0  0  0  0  0  0  0
    0.6248    1.1299    0.1240 H   0  0  0  0  0  0  0  0  0  0  0  0
    0.5738   -0.2657   -0.9902 H   0  0  0  0  0  0  0  0  0  0  0  0
    2.0625    0.1604   -0.1335 H   0  0  0  0  0  0  0  0  0  0  0  0
   -0.5346   -0.7935    1.1894 H   0  0  0  0  0  0  0  0  0  0  0  0
    0.8828   -1.8227    0.9758 H   0  0  0  0  0  0  0  0  0  0  0  0
    5.2155    1.9462    5.0421 H   0  0  0  0  0  0  0  0  0  0  0  0
    5.6509    1.3421    7.4937 H   0  0  0  0  0  0  0  0  0  0  0  0
    4.7345    2.6798    7.0534 H   0  0  0  0  0  0  0  0  0  0  0  0
    4.1388    1.4226    8.3017 H   0  0  0  0  0  0  0  0  0  0  0  0
    2.5193   -1.1479    5.4359 H   0  0  0  0  0  0  0  0  0  0  0  0
    0.3588    1.8082    4.5704 H   0  0  0  0  0  0  0  0  0  0  0  0
   -2.0469    1.6285    4.0851 H   0  0  0  0  0  0  0  0  0  0  0  0
   -3.1693   -0.5879    4.1850 H   0  0  0  0  0  0  0  0  0  0  0  0
   -1.8830   -2.6169    4.7827 H   0  0  0  0  0  0  0  0  0  0  0  0
    1.2314    1.5813    9.4395 H   0  0  0  0  0  0  0  0  0  0  0  0
    5.2464    3.4072   10.6353 H   0  0  0  0  0  0  0  0  0  0  0  0
    5.9578    4.7841    8.6867 H   0  0  0  0  0  0  0  0  0  0  0  0
    4.3698    5.0333    6.7950 H   0  0  0  0  0  0  0  0  0  0  0  0
    2.2579    3.7620    6.8046 H   0  0  0  0  0  0  0  0  0  0  0  0
    2.7688    2.3338    1.9719 H   0  0  0  0  0  0  0  0  0  0  0  0
    3.7094    2.9484   -0.1307 H   0  0  0  0  0  0  0  0  0  0  0  0
    7.6398    1.6889    1.2500 H   0  0  0  0  0  0  0  0  0  0  0  0
    6.5462    0.6366    3.2208 H   0  0  0  0  0  0  0  0  0  0  0  0
    6.4322    5.9488    1.8437 H   0  0  0  0  0  0  0  0  0  0  0  0
    4.9526    5.0410    2.0518 H   0  0  0  0  0  0  0  0  0  0  0  0
    6.5077    4.2557    2.3463 H   0  0  0  0  0  0  0  0  0  0  0  0
    6.1475    1.8072   -3.0936 H   0  0  0  0  0  0  0  0  0  0  0  0
    4.9556    2.9007   -5.0199 H   0  0  0  0  0  0  0  0  0  0  0  0
    3.9109    6.2199   -2.8065 H   0  0  0  0  0  0  0  0  0  0  0  0
  1  2  1  0  0  0  0
  1 45  1  0  0  0  0
  1 46  1  0  0  0  0
  1 47  1  0  0  0  0
  2  3  1  0  0  0  0
  2 48  1  0  0  0  0
  2 49  1  0  0  0  0
  3  4  1  0  0  0  0
  4  5  2  0  0  0  0
  4  6  1  0  0  0  0
  6  7  2  0  0  0  0
  7  8  1  0  0  0  0
  7 29  1  0  0  0  0
  8  9  1  0  0  0  0
  8 50  1  0  0  0  0
  9 10  1  0  0  0  0
  9 11  2  0  0  0  0
 10 51  1  0  0  0  0
 10 52  1  0  0  0  0
 10 53  1  0  0  0  0
 11 20  1  0  0  0  0
 12 11  1  0  0  0  0
 12  6  1  0  0  0  0
 12 54  1  1  0  0  0
 12 13  1  0  0  0  0
 13 14  2  0  0  0  0
 13 18  1  0  0  0  0
 14 15  1  0  0  0  0
 14 55  1  0  0  0  0
 15 16  2  0  0  0  0
 15 56  1  0  0  0  0
 16 17  1  0  0  0  0
 16 57  1  0  0  0  0
 17 18  2  0  0  0  0
 17 58  1  0  0  0  0
 18 19  1  0  0  0  0
 20 21  2  0  0  0  0
 20 22  1  0  0  0  0
 22 23  1  0  0  0  0
 22 59  1  0  0  0  0
 23 24  2  0  0  0  0
 23 28  1  0  0  0  0
 24 25  1  0  0  0  0
 25 26  2  0  0  0  0
 25 60  1  0  0  0  0
 26 27  1  0  0  0  0
 26 61  1  0  0  0  0
 27 28  2  0  0  0  0
 27 62  1  0  0  0  0
 28 63  1  0  0  0  0
 29 30  2  0  0  0  0
 29 34  1  0  0  0  0
 30 31  1  0  0  0  0
 30 64  1  0  0  0  0
 31 32  2  0  0  0  0
 31 65  1  0  0  0  0
 32 33  1  0  0  0  0
 32 35  1  0  0  0  0
 33 34  2  0  0  0  0
 33 66  1  0  0  0  0
 34 67  1  0  0  0  0
 35 36  1  0  0  0  0
 35 40  1  0  0  0  0
 36 37  1  0  0  0  0
 36 38  2  0  0  0  0
 37 68  1  0  0  0  0
 37 69  1  0  0  0  0
 37 70  1  0  0  0  0
 38 39  1  0  0  0  0
 39 40  2  0  0  0  0
 39 44  1  0  0  0  0
 40 41  1  0  0  0  0
 41 42  2  0  0  0  0
 41 71  1  0  0  0  0
 42 43  1  0  0  0  0
 42 72  1  0  0  0  0
 43 44  2  0  0  0  0
 44 73  1  0  0  0  0
M  END
>  <DRUGBANK_ID>
DB16237

>  <COMMON_NAME>
Modipafant

>  <CAS_NUMBER>
122957-06-6

>  <UNII>
1DMI0E5023

>  <SYNONYMS>
Modipafant

$$$$
