1274
 OpenBabel10282417113D

 49 50  0  0  1  0  0  0  0  0999 V2000
    1.0332    0.0534    0.0653 O   0  0  0  0  0  0  0  0  0  0  0  0
    3.9145    5.1753   -0.8400 O   0  0  0  0  0  0  0  0  0  0  0  0
    2.2225   -6.0885    1.3348 O   0  0  0  0  0  0  0  0  0  0  0  0
   -1.4317   -7.0089   -1.9987 O   0  0  0  0  0  0  0  0  0  0  0  0
    2.5441   -1.0320   -2.2595 N   0  0  0  0  0  0  0  0  0  0  0  0
    0.1128   -5.9555   -0.6899 N   0  0  0  0  0  0  0  0  0  0  0  0
    3.0836   -0.7189   -3.5941 C   0  0  1  0  0  0  0  0  0  0  0  0
    2.6595    0.6766   -4.1009 C   0  0  0  0  0  0  0  0  0  0  0  0
    1.0738   -0.9285   -2.1751 C   0  0  0  0  0  0  0  0  0  0  0  0
    0.5968   -1.0647   -0.7086 C   0  0  1  0  0  0  0  0  0  0  0  0
    4.6222   -0.8475   -3.6477 C   0  0  0  0  0  0  0  0  0  0  0  0
    3.0516    1.8451   -3.2147 C   0  0  0  0  0  0  0  0  0  0  0  0
    1.0433   -2.3839   -0.1234 C   0  0  0  0  0  0  0  0  0  0  0  0
    0.4357   -3.5427   -0.6306 C   0  0  0  0  0  0  0  0  0  0  0  0
    3.8249    1.7242   -2.0474 C   0  0  0  0  0  0  0  0  0  0  0  0
    2.6017    3.1180   -3.5562 C   0  0  0  0  0  0  0  0  0  0  0  0
    2.0542   -2.5092    0.8295 C   0  0  0  0  0  0  0  0  0  0  0  0
    0.7778   -4.8176   -0.1825 C   0  0  0  0  0  0  0  0  0  0  0  0
    2.4188   -3.7709    1.2870 C   0  0  0  0  0  0  0  0  0  0  0  0
    4.1165    2.7931   -1.2270 C   0  0  0  0  0  0  0  0  0  0  0  0
    2.9087    4.2096   -2.7374 C   0  0  0  0  0  0  0  0  0  0  0  0
    1.7837   -4.9133    0.7919 C   0  0  0  0  0  0  0  0  0  0  0  0
    3.6646    4.0502   -1.5717 C   0  0  0  0  0  0  0  0  0  0  0  0
   -0.8828   -5.9710   -1.6278 C   0  0  0  0  0  0  0  0  0  0  0  0
    4.7095    4.9719    0.3267 C   0  0  0  0  0  0  0  0  0  0  0  0
    2.0013    0.0381    0.0798 H   0  0  0  0  0  0  0  0  0  0  0  0
    1.7616   -6.8315    0.9262 H   0  0  0  0  0  0  0  0  0  0  0  0
    2.8919   -0.3660   -1.5851 H   0  0  0  0  0  0  0  0  0  0  0  0
    0.3336   -6.8749   -0.3427 H   0  0  0  0  0  0  0  0  0  0  0  0
    2.6925   -1.4826   -4.2763 H   0  0  0  0  0  0  0  0  0  0  0  0
    3.0574    0.8267   -5.1117 H   0  0  0  0  0  0  0  0  0  0  0  0
    1.5676    0.6944   -4.2275 H   0  0  0  0  0  0  0  0  0  0  0  0
    0.6341   -1.7008   -2.8145 H   0  0  0  0  0  0  0  0  0  0  0  0
    0.7145    0.0476   -2.5117 H   0  0  0  0  0  0  0  0  0  0  0  0
   -0.4988   -1.0265   -0.6937 H   0  0  0  0  0  0  0  0  0  0  0  0
    4.9631   -1.8039   -3.2461 H   0  0  0  0  0  0  0  0  0  0  0  0
    4.9654   -0.7455   -4.6818 H   0  0  0  0  0  0  0  0  0  0  0  0
    5.1755   -0.0791   -3.1045 H   0  0  0  0  0  0  0  0  0  0  0  0
   -0.3113   -3.3926   -1.4014 H   0  0  0  0  0  0  0  0  0  0  0  0
    4.2544    0.7987   -1.6901 H   0  0  0  0  0  0  0  0  0  0  0  0
    2.0059    3.2645   -4.4546 H   0  0  0  0  0  0  0  0  0  0  0  0
    2.5747   -1.6409    1.2213 H   0  0  0  0  0  0  0  0  0  0  0  0
    3.1995   -3.8609    2.0379 H   0  0  0  0  0  0  0  0  0  0  0  0
    4.7009    2.5818   -0.3382 H   0  0  0  0  0  0  0  0  0  0  0  0
    2.5471    5.1950   -3.0109 H   0  0  0  0  0  0  0  0  0  0  0  0
   -1.1792   -5.0026   -2.0449 H   0  0  0  0  0  0  0  0  0  0  0  0
    4.2047    4.3065    1.0382 H   0  0  0  0  0  0  0  0  0  0  0  0
    5.7022    4.5811    0.0688 H   0  0  0  0  0  0  0  0  0  0  0  0
    4.8460    5.9393    0.8109 H   0  0  0  0  0  0  0  0  0  0  0  0
  1 26  1  0  0  0  0
  2 23  1  0  0  0  0
  2 25  1  0  0  0  0
  3 22  1  0  0  0  0
  3 27  1  0  0  0  0
  4 24  2  0  0  0  0
  5  9  1  0  0  0  0
  5 28  1  0  0  0  0
  6 18  1  0  0  0  0
  6 24  1  0  0  0  0
  6 29  1  0  0  0  0
  7  5  1  0  0  0  0
  7  8  1  0  0  0  0
  7 11  1  0  0  0  0
  7 30  1  6  0  0  0
  8 12  1  0  0  0  0
  8 31  1  0  0  0  0
  8 32  1  0  0  0  0
  9 10  1  0  0  0  0
  9 33  1  0  0  0  0
  9 34  1  0  0  0  0
 10  1  1  0  0  0  0
 10 13  1  0  0  0  0
 10 35  1  6  0  0  0
 11 36  1  0  0  0  0
 11 37  1  0  0  0  0
 11 38  1  0  0  0  0
 12 15  2  0  0  0  0
 12 16  1  0  0  0  0
 13 14  2  0  0  0  0
 13 17  1  0  0  0  0
 14 18  1  0  0  0  0
 14 39  1  0  0  0  0
 15 20  1  0  0  0  0
 15 40  1  0  0  0  0
 16 21  2  0  0  0  0
 16 41  1  0  0  0  0
 17 19  2  0  0  0  0
 17 42  1  0  0  0  0
 18 22  2  0  0  0  0
 19 22  1  0  0  0  0
 19 43  1  0  0  0  0
 20 23  2  0  0  0  0
 20 44  1  0  0  0  0
 21 23  1  0  0  0  0
 21 45  1  0  0  0  0
 24 46  1  0  0  0  0
 25 47  1  0  0  0  0
 25 48  1  0  0  0  0
 25 49  1  0  0  0  0
M  END
>  <DRUGBANK_ID>
DB01274

>  <COMMON_NAME>
Arformoterol

>  <CAS_NUMBER>
67346-49-0

>  <UNII>
F91H02EBWT

>  <SYNONYMS>
(-)-formoterol; (R,R)-formoterol; Arformoterol

$$$$
