220
 OpenBabel10282417103D

 85 88  0  0  1  0  0  0  0  0999 V2000
    0.8362   -0.6246   -0.6668 S   0  0  0  0  0  0  0  0  0  0  0  0
    3.6323    2.2181   -1.8729 O   0  0  0  0  0  0  0  0  0  0  0  0
    3.6723    2.1463    1.5115 O   0  0  0  0  0  0  0  0  0  0  0  0
   -1.6474    5.2524    1.6102 O   0  0  0  0  0  0  0  0  0  0  0  0
   -2.5665   -0.3364    3.2180 O   0  0  0  0  0  0  0  0  0  0  0  0
    4.4177    4.5576    0.1754 N   0  0  0  0  0  0  0  0  0  0  0  0
    2.4894    1.3314    0.5508 N   0  0  0  0  0  0  0  0  0  0  0  0
   -0.3449    3.8855    0.3248 N   0  0  0  0  0  0  0  0  0  0  0  0
    6.4518    3.5001    2.4347 C   0  0  2  0  0  0  0  0  0  0  0  0
    5.7114    4.8569    2.4279 C   0  0  1  0  0  0  0  0  0  0  0  0
    5.8100    2.4440    1.5899 C   0  0  0  0  0  0  0  0  0  0  0  0
    5.2556    5.3563    1.0117 C   0  0  0  0  0  0  0  0  0  0  0  0
    6.6497    2.9966    3.9003 C   0  0  0  0  0  0  0  0  0  0  0  0
    4.6606    5.0808    3.5729 C   0  0  0  0  0  0  0  0  0  0  0  0
    5.0487    3.0649    0.1894 C   0  0  1  0  0  0  0  0  0  0  0  0
    5.3984    2.8047    4.7583 C   0  0  0  0  0  0  0  0  0  0  0  0
    4.5116    4.0561    4.7758 C   0  0  0  0  0  0  0  0  0  0  0  0
    2.9035    4.6818    0.5510 C   0  0  0  0  0  0  0  0  0  0  0  0
    3.6703    2.0499   -0.6174 C   0  0  0  0  0  0  0  0  0  0  0  0
    2.4188    3.2705    0.7571 C   0  0  2  0  0  0  0  0  0  0  0  0
    0.7030    2.6426    0.1715 C   0  0  2  0  0  0  0  0  0  0  0  0
    1.9260    1.9096    2.2999 C   0  0  0  0  0  0  0  0  0  0  0  0
    0.3139    1.5174   -0.8607 C   0  0  0  0  0  0  0  0  0  0  0  0
    0.8846    3.1689    2.4852 C   0  0  0  0  0  0  0  0  0  0  0  0
    1.8652    0.6970    3.1828 C   0  0  0  0  0  0  0  0  0  0  0  0
    2.8599    3.0284    3.0924 C   0  0  0  0  0  0  0  0  0  0  0  0
   -1.4088    4.1086    1.2228 C   0  0  0  0  0  0  0  0  0  0  0  0
   -2.2729    2.9840    1.6449 C   0  0  0  0  0  0  0  0  0  0  0  0
    2.7313   -1.0490   -0.6274 C   0  0  0  0  0  0  0  0  0  0  0  0
   -2.0525    1.9464    2.6169 C   0  0  0  0  0  0  0  0  0  0  0  0
   -3.3829    2.9725    0.8118 C   0  0  0  0  0  0  0  0  0  0  0  0
    3.6112   -0.1844   -1.1617 C   0  0  0  0  0  0  0  0  0  0  0  0
    3.4770   -2.0119    0.0063 C   0  0  0  0  0  0  0  0  0  0  0  0
   -2.8417    0.8128    2.5238 C   0  0  0  0  0  0  0  0  0  0  0  0
   -0.9882    1.8047    3.6610 C   0  0  0  0  0  0  0  0  0  0  0  0
   -4.2395    1.8971    0.8749 C   0  0  0  0  0  0  0  0  0  0  0  0
    4.9912    0.0830   -0.6297 C   0  0  0  0  0  0  0  0  0  0  0  0
    4.9376   -1.8892    0.3143 C   0  0  0  0  0  0  0  0  0  0  0  0
   -3.9468    0.8087    1.6979 C   0  0  0  0  0  0  0  0  0  0  0  0
    5.6946   -0.7677    0.1229 C   0  0  0  0  0  0  0  0  0  0  0  0
    7.4240    3.5967    1.9391 H   0  0  0  0  0  0  0  0  0  0  0  0
    6.5004    5.5722    2.6702 H   0  0  0  0  0  0  0  0  0  0  0  0
    3.5333    1.1646    1.3341 H   0  0  0  0  0  0  0  0  0  0  0  0
   -1.7149   -0.2943    3.6864 H   0  0  0  0  0  0  0  0  0  0  0  0
    1.7954    0.6017    0.1704 H   0  0  0  0  0  0  0  0  0  0  0  0
    0.1440    4.7717    0.4499 H   0  0  0  0  0  0  0  0  0  0  0  0
    5.2571    1.9045    2.3728 H   0  0  0  0  0  0  0  0  0  0  0  0
    6.3992    1.5398    1.4018 H   0  0  0  0  0  0  0  0  0  0  0  0
    6.1356    5.4538    0.3724 H   0  0  0  0  0  0  0  0  0  0  0  0
    4.7671    6.3298    1.0709 H   0  0  0  0  0  0  0  0  0  0  0  0
    7.1894    2.0419    3.8923 H   0  0  0  0  0  0  0  0  0  0  0  0
    7.2504    3.7425    4.4158 H   0  0  0  0  0  0  0  0  0  0  0  0
    3.7064    5.2977    3.1020 H   0  0  0  0  0  0  0  0  0  0  0  0
    4.7700    6.0797    3.9965 H   0  0  0  0  0  0  0  0  0  0  0  0
    5.8537    3.1438   -0.5503 H   0  0  0  0  0  0  0  0  0  0  0  0
    4.8592    1.8813    4.4436 H   0  0  0  0  0  0  0  0  0  0  0  0
    5.6105    2.5594    5.7984 H   0  0  0  0  0  0  0  0  0  0  0  0
    3.5175    3.6079    4.9400 H   0  0  0  0  0  0  0  0  0  0  0  0
    4.4668    4.6071    5.7064 H   0  0  0  0  0  0  0  0  0  0  0  0
    2.2486    5.1737   -0.1567 H   0  0  0  0  0  0  0  0  0  0  0  0
    2.7448    5.2109    1.4815 H   0  0  0  0  0  0  0  0  0  0  0  0
    3.2393    3.2183    0.3858 H   0  0  0  0  0  0  0  0  0  0  0  0
    0.3407    1.8776    0.9204 H   0  0  0  0  0  0  0  0  0  0  0  0
    0.6042    1.9210   -1.8123 H   0  0  0  0  0  0  0  0  0  0  0  0
   -0.7930    1.4592   -0.7204 H   0  0  0  0  0  0  0  0  0  0  0  0
   -0.0501    2.8408    2.1976 H   0  0  0  0  0  0  0  0  0  0  0  0
    0.7431    3.8519    3.3260 H   0  0  0  0  0  0  0  0  0  0  0  0
    1.0870    4.0364    1.8674 H   0  0  0  0  0  0  0  0  0  0  0  0
    2.8245    0.1801    3.2505 H   0  0  0  0  0  0  0  0  0  0  0  0
    1.5917    1.0412    4.1797 H   0  0  0  0  0  0  0  0  0  0  0  0
    1.1693   -0.0270    2.7561 H   0  0  0  0  0  0  0  0  0  0  0  0
    3.8431    2.7125    3.3030 H   0  0  0  0  0  0  0  0  0  0  0  0
    3.3117    3.7318    2.4087 H   0  0  0  0  0  0  0  0  0  0  0  0
    2.4120    3.8566    3.6398 H   0  0  0  0  0  0  0  0  0  0  0  0
   -3.5483    3.7941    0.1123 H   0  0  0  0  0  0  0  0  0  0  0  0
    2.9828    0.4867   -1.7401 H   0  0  0  0  0  0  0  0  0  0  0  0
    2.9955   -2.9635    0.1141 H   0  0  0  0  0  0  0  0  0  0  0  0
   -1.2548    1.5085    4.6652 H   0  0  0  0  0  0  0  0  0  0  0  0
   -0.3468    1.0254    3.2524 H   0  0  0  0  0  0  0  0  0  0  0  0
   -0.4660    2.7031    3.9268 H   0  0  0  0  0  0  0  0  0  0  0  0
   -5.1262    1.9023    0.2576 H   0  0  0  0  0  0  0  0  0  0  0  0
    5.5201    1.0407   -0.6329 H   0  0  0  0  0  0  0  0  0  0  0  0
    5.5010   -2.7354    0.6656 H   0  0  0  0  0  0  0  0  0  0  0  0
   -4.6001   -0.0511    1.7217 H   0  0  0  0  0  0  0  0  0  0  0  0
    6.7357   -0.5122    0.3633 H   0  0  0  0  0  0  0  0  0  0  0  0
  1 23  1  0  0  0  0
  1 29  1  0  0  0  0
  2 19  2  0  0  0  0
  3 43  1  0  0  0  0
  4 27  2  0  0  0  0
  5 34  1  0  0  0  0
  5 44  1  0  0  0  0
  6 12  1  0  0  0  0
  6 15  1  0  0  0  0
  6 18  1  0  0  0  0
  7 19  1  0  0  0  0
  7 22  1  0  0  0  0
  7 45  1  0  0  0  0
  8 27  1  0  0  0  0
  8 46  1  0  0  0  0
  9 10  1  0  0  0  0
  9 11  1  0  0  0  0
  9 13  1  0  0  0  0
  9 41  1  6  0  0  0
 10 12  1  0  0  0  0
 10 14  1  0  0  0  0
 10 42  1  1  0  0  0
 11 15  1  0  0  0  0
 11 47  1  0  0  0  0
 11 48  1  0  0  0  0
 12 49  1  0  0  0  0
 12 50  1  0  0  0  0
 13 16  1  0  0  0  0
 13 51  1  0  0  0  0
 13 52  1  0  0  0  0
 14 17  1  0  0  0  0
 14 53  1  0  0  0  0
 14 54  1  0  0  0  0
 15 19  1  0  0  0  0
 15 55  1  6  0  0  0
 16 17  1  0  0  0  0
 16 56  1  0  0  0  0
 16 57  1  0  0  0  0
 17 58  1  0  0  0  0
 17 59  1  0  0  0  0
 18 60  1  0  0  0  0
 18 61  1  0  0  0  0
 20 62  1  6  0  0  0
 20 18  1  0  0  0  0
 20  3  1  0  0  0  0
 21 23  1  0  0  0  0
 21 63  1  1  0  0  0
 21 20  1  0  0  0  0
 21  8  1  0  0  0  0
 22 24  1  0  0  0  0
 22 25  1  0  0  0  0
 22 26  1  0  0  0  0
 23 64  1  0  0  0  0
 23 65  1  0  0  0  0
 24 66  1  0  0  0  0
 24 67  1  0  0  0  0
 24 68  1  0  0  0  0
 25 69  1  0  0  0  0
 25 70  1  0  0  0  0
 25 71  1  0  0  0  0
 26 72  1  0  0  0  0
 26 73  1  0  0  0  0
 26 74  1  0  0  0  0
 27 28  1  0  0  0  0
 28 30  2  0  0  0  0
 28 31  1  0  0  0  0
 29 32  2  0  0  0  0
 29 33  1  0  0  0  0
 30 34  1  0  0  0  0
 30 35  1  0  0  0  0
 31 36  2  0  0  0  0
 31 75  1  0  0  0  0
 32 37  1  0  0  0  0
 32 76  1  0  0  0  0
 33 38  2  0  0  0  0
 33 77  1  0  0  0  0
 34 39  2  0  0  0  0
 35 78  1  0  0  0  0
 35 79  1  0  0  0  0
 35 80  1  0  0  0  0
 36 39  1  0  0  0  0
 36 81  1  0  0  0  0
 37 40  2  0  0  0  0
 37 82  1  0  0  0  0
 38 40  1  0  0  0  0
 38 83  1  0  0  0  0
 39 84  1  0  0  0  0
 40 85  1  0  0  0  0
M  END
>  <DRUGBANK_ID>
DB00220

>  <SECONDARY_ACCESSION_NUMBERS>
APRD00003

>  <COMMON_NAME>
Nelfinavir

>  <CAS_NUMBER>
159989-64-7

>  <UNII>
HO3OGH5D7I

>  <SYNONYMS>
Nelfinavir

$$$$
