
 OpenBabel10282417233D

 29 29  0  0  0  0  0  0  0  0999 V2000
    0.9097    0.0849    0.0008 C   0  0  0  0  0  0  0  0  0  0  0  0
    0.5002   -1.2242    0.6589 C   0  0  0  0  0  0  0  0  0  0  0  0
    4.7218   -1.1605   10.4805 C   0  0  0  0  0  0  0  0  0  0  0  0
    3.1505   -1.4055    1.2775 O   0  0  0  0  0  0  0  0  0  0  0  0
    0.9737   -1.3240    2.0182 O   0  0  0  0  0  0  0  0  0  0  0  0
    3.5752   -1.9052   10.0676 O   0  0  0  0  0  0  0  0  0  0  0  0
    2.3154   -1.4173    2.1766 C   0  0  0  0  0  0  0  0  0  0  0  0
    3.2280   -1.7820    8.7474 C   0  0  0  0  0  0  0  0  0  0  0  0
    2.7365   -1.5239    3.5880 C   0  0  0  0  0  0  0  0  0  0  0  0
    3.8399   -0.9166    7.8428 C   0  0  0  0  0  0  0  0  0  0  0  0
    2.1935   -2.6051    8.2954 C   0  0  0  0  0  0  0  0  0  0  0  0
    1.9260   -1.6320    4.6520 C   0  0  0  0  0  0  0  0  0  0  0  0
    3.4408   -0.8845    6.5027 C   0  0  0  0  0  0  0  0  0  0  0  0
    1.8220   -2.6049    6.9411 C   0  0  0  0  0  0  0  0  0  0  0  0
    2.4259   -1.7255    6.0344 C   0  0  0  0  0  0  0  0  0  0  0  0
    0.5576    0.9359    0.5913 H   0  0  0  0  0  0  0  0  0  0  0  0
    0.5047    0.1585   -1.0125 H   0  0  0  0  0  0  0  0  0  0  0  0
    1.9961    0.1798   -0.0722 H   0  0  0  0  0  0  0  0  0  0  0  0
   -0.5950   -1.2691    0.6971 H   0  0  0  0  0  0  0  0  0  0  0  0
    0.8336   -2.0920    0.0771 H   0  0  0  0  0  0  0  0  0  0  0  0
    5.6059   -1.4200    9.8853 H   0  0  0  0  0  0  0  0  0  0  0  0
    4.5203   -0.0849   10.4309 H   0  0  0  0  0  0  0  0  0  0  0  0
    4.9454   -1.4084   11.5222 H   0  0  0  0  0  0  0  0  0  0  0  0
    3.8158   -1.5274    3.7049 H   0  0  0  0  0  0  0  0  0  0  0  0
    4.6274   -0.2376    8.1493 H   0  0  0  0  0  0  0  0  0  0  0  0
    1.6688   -3.2538    8.9940 H   0  0  0  0  0  0  0  0  0  0  0  0
    0.8455   -1.6438    4.5344 H   0  0  0  0  0  0  0  0  0  0  0  0
    3.9366   -0.1816    5.8386 H   0  0  0  0  0  0  0  0  0  0  0  0
    1.0651   -3.3087    6.6011 H   0  0  0  0  0  0  0  0  0  0  0  0
  1 16  1  0  0  0  0
  1 17  1  0  0  0  0
  1 18  1  0  0  0  0
  2  1  1  0  0  0  0
  2 19  1  0  0  0  0
  2 20  1  0  0  0  0
  3 21  1  0  0  0  0
  3 22  1  0  0  0  0
  3 23  1  0  0  0  0
  5  2  1  0  0  0  0
  6  3  1  0  0  0  0
  7  4  2  0  0  0  0
  7  5  1  0  0  0  0
  8  6  1  0  0  0  0
  9  7  1  0  0  0  0
  9 24  1  0  0  0  0
 10  8  1  0  0  0  0
 10 25  1  0  0  0  0
 11  8  2  0  0  0  0
 11 26  1  0  0  0  0
 12  9  2  0  0  0  0
 12 27  1  0  0  0  0
 13 10  2  0  0  0  0
 13 28  1  0  0  0  0
 14 11  1  0  0  0  0
 14 29  1  0  0  0  0
 15 12  1  0  0  0  0
 15 13  1  0  0  0  0
 15 14  2  0  0  0  0
M  END
>  <DRUGBANK_ID>
DB16440

>  <COMMON_NAME>
Ethyl methoxycinnamate

>  <CAS_NUMBER>
24393-56-4

>  <UNII>
SD418S06XD

>  <SYNONYMS>
Ethyl (E)-4-methoxycinnamate; Ethyl (E)-p-methoxycinnamate; Ethyl methoxycinnamate; Ethyl trans-p-methoxycinnamate

$$$$
