
 OpenBabel10282417213D

 68 71  0  0  0  0  0  0  0  0999 V2000
   -2.2291   -0.6778   -1.0527 Cl  0  0  0  0  0  0  0  0  0  0  0  0
    5.6471    3.7190   -0.2336 O   0  5  0  0  0  0  0  0  0  0  0  0
    4.5725   -1.3433   -0.0948 O   0  0  0  0  0  0  0  0  0  0  0  0
    2.6171    1.5508    0.6813 O   0  0  0  0  0  0  0  0  0  0  0  0
    4.4119    3.0911   -0.0532 N   0  3  3  0  0  0  0  0  0  0  0  0
    1.7894    0.7761    2.6014 N   0  0  0  0  0  0  0  0  0  0  0  0
    4.0275   -0.0103   -0.1885 C   0  0  3  0  0  0  0  0  0  0  0  0
    4.5836    2.3469    1.2946 C   0  0  0  0  0  0  0  0  0  0  0  0
    4.2002    2.2290   -1.3438 C   0  0  0  0  0  0  0  0  0  0  0  0
    4.8678    0.8423    1.0749 C   0  0  0  0  0  0  0  0  0  0  0  0
    4.6380    0.7609   -1.3494 C   0  0  0  0  0  0  0  0  0  0  0  0
    3.3455    4.2133    0.0079 C   0  0  0  0  0  0  0  0  0  0  0  0
    1.8006    3.9122    0.0470 C   0  0  0  0  0  0  0  0  0  0  0  0
    1.2135    3.1762    1.3973 C   0  0  0  0  0  0  0  0  0  0  0  0
    2.3849   -0.3133   -0.6238 C   0  0  0  0  0  0  0  0  0  0  0  0
    1.5401    4.1174    2.5463 C   0  0  0  0  0  0  0  0  0  0  0  0
   -0.2867    2.8980    1.2577 C   0  0  0  0  0  0  0  0  0  0  0  0
    1.8566    1.7715    1.6437 C   0  0  0  0  0  0  0  0  0  0  0  0
    1.4818    0.6783   -1.1364 C   0  0  0  0  0  0  0  0  0  0  0  0
    1.6984   -1.4972   -0.3212 C   0  0  0  0  0  0  0  0  0  0  0  0
   -0.7557    1.5770    1.4110 C   0  0  0  0  0  0  0  0  0  0  0  0
    1.7347    5.4909    2.4251 C   0  0  0  0  0  0  0  0  0  0  0  0
   -1.2474    3.8661    1.0575 C   0  0  0  0  0  0  0  0  0  0  0  0
    1.5825    3.6076    3.8286 C   0  0  0  0  0  0  0  0  0  0  0  0
    0.0873    0.6287   -1.2148 C   0  0  0  0  0  0  0  0  0  0  0  0
    0.2696   -1.5844   -0.4027 C   0  0  0  0  0  0  0  0  0  0  0  0
   -0.5235   -0.5453   -0.8921 C   0  0  0  0  0  0  0  0  0  0  0  0
    1.7893    6.2754    3.5638 C   0  0  0  0  0  0  0  0  0  0  0  0
   -2.0637    1.1885    1.4925 C   0  0  0  0  0  0  0  0  0  0  0  0
    1.3209    4.3646    4.9305 C   0  0  0  0  0  0  0  0  0  0  0  0
   -2.5951    3.4845    1.0851 C   0  0  0  0  0  0  0  0  0  0  0  0
    0.7962    0.7406    3.6375 C   0  0  0  0  0  0  0  0  0  0  0  0
    2.5884   -0.4705    2.6398 C   0  0  0  0  0  0  0  0  0  0  0  0
    1.5016    5.7178    4.8062 C   0  0  0  0  0  0  0  0  0  0  0  0
   -2.9951    2.1489    1.2390 C   0  0  0  0  0  0  0  0  0  0  0  0
    5.5254   -1.2638    0.0692 H   0  0  0  0  0  0  0  0  0  0  0  0
    3.7736    2.4507    2.0200 H   0  0  0  0  0  0  0  0  0  0  0  0
    5.2418    2.9533    1.9407 H   0  0  0  0  0  0  0  0  0  0  0  0
    4.6904    2.7680   -2.1584 H   0  0  0  0  0  0  0  0  0  0  0  0
    3.1895    2.3457   -1.6842 H   0  0  0  0  0  0  0  0  0  0  0  0
    4.8823    0.3142    2.0257 H   0  0  0  0  0  0  0  0  0  0  0  0
    5.9436    0.8035    0.8453 H   0  0  0  0  0  0  0  0  0  0  0  0
    5.7298    0.7399   -1.2744 H   0  0  0  0  0  0  0  0  0  0  0  0
    4.3907    0.2374   -2.2770 H   0  0  0  0  0  0  0  0  0  0  0  0
    3.6601    4.8381    0.8466 H   0  0  0  0  0  0  0  0  0  0  0  0
    3.5487    4.8130   -0.8950 H   0  0  0  0  0  0  0  0  0  0  0  0
    1.2787    4.8788   -0.0833 H   0  0  0  0  0  0  0  0  0  0  0  0
    1.4946    3.4659   -0.9022 H   0  0  0  0  0  0  0  0  0  0  0  0
    1.7509    1.6979   -1.2346 H   0  0  0  0  0  0  0  0  0  0  0  0
    2.2397   -2.3556    0.0613 H   0  0  0  0  0  0  0  0  0  0  0  0
   -0.0887    0.7252    1.4210 H   0  0  0  0  0  0  0  0  0  0  0  0
    1.8839    5.9926    1.4734 H   0  0  0  0  0  0  0  0  0  0  0  0
   -0.9681    4.9008    0.8849 H   0  0  0  0  0  0  0  0  0  0  0  0
    1.8488    2.5945    4.0244 H   0  0  0  0  0  0  0  0  0  0  0  0
   -0.4618    1.5735   -1.3158 H   0  0  0  0  0  0  0  0  0  0  0  0
   -0.2350   -2.4684   -0.0289 H   0  0  0  0  0  0  0  0  0  0  0  0
    2.0078    7.3297    3.4608 H   0  0  0  0  0  0  0  0  0  0  0  0
   -2.2760    0.1334    1.6402 H   0  0  0  0  0  0  0  0  0  0  0  0
    1.0631    3.8589    5.8522 H   0  0  0  0  0  0  0  0  0  0  0  0
   -3.3604    4.2449    1.0118 H   0  0  0  0  0  0  0  0  0  0  0  0
    0.1818   -0.1456    3.4798 H   0  0  0  0  0  0  0  0  0  0  0  0
    1.3461    0.6815    4.5755 H   0  0  0  0  0  0  0  0  0  0  0  0
    0.1629    1.6164    3.6128 H   0  0  0  0  0  0  0  0  0  0  0  0
    2.6925   -0.9876    1.7023 H   0  0  0  0  0  0  0  0  0  0  0  0
    3.5694   -0.2904    3.0622 H   0  0  0  0  0  0  0  0  0  0  0  0
    2.1376   -1.1977    3.3185 H   0  0  0  0  0  0  0  0  0  0  0  0
    1.4774    6.3225    5.6981 H   0  0  0  0  0  0  0  0  0  0  0  0
   -4.0224    1.8352    1.1192 H   0  0  0  0  0  0  0  0  0  0  0  0
  1 27  1  0  0  0  0
  2  5  1  0  0  0  0
  3  7  1  0  0  0  0
  3 36  1  0  0  0  0
  4 18  2  0  0  0  0
  5  8  1  0  0  0  0
  5  9  1  0  0  0  0
  5 12  1  0  0  0  0
  6 18  1  0  0  0  0
  6 32  1  0  0  0  0
  6 33  1  0  0  0  0
  7 10  1  0  0  0  0
  7 11  1  0  0  0  0
  7 15  1  0  0  0  0
  8 10  1  0  0  0  0
  8 37  1  0  0  0  0
  8 38  1  0  0  0  0
  9 11  1  0  0  0  0
  9 39  1  0  0  0  0
  9 40  1  0  0  0  0
 10 41  1  0  0  0  0
 10 42  1  0  0  0  0
 11 43  1  0  0  0  0
 11 44  1  0  0  0  0
 12 13  1  0  0  0  0
 12 45  1  0  0  0  0
 12 46  1  0  0  0  0
 13 14  1  0  0  0  0
 13 47  1  0  0  0  0
 13 48  1  0  0  0  0
 14 16  1  0  0  0  0
 14 17  1  0  0  0  0
 14 18  1  0  0  0  0
 15 19  2  0  0  0  0
 15 20  1  0  0  0  0
 16 22  2  0  0  0  0
 16 24  1  0  0  0  0
 17 21  2  0  0  0  0
 17 23  1  0  0  0  0
 19 25  1  0  0  0  0
 19 49  1  0  0  0  0
 20 26  2  0  0  0  0
 20 50  1  0  0  0  0
 21 29  1  0  0  0  0
 21 51  1  0  0  0  0
 22 28  1  0  0  0  0
 22 52  1  0  0  0  0
 23 31  2  0  0  0  0
 23 53  1  0  0  0  0
 24 30  2  0  0  0  0
 24 54  1  0  0  0  0
 25 27  2  0  0  0  0
 25 55  1  0  0  0  0
 26 27  1  0  0  0  0
 26 56  1  0  0  0  0
 28 34  2  0  0  0  0
 28 57  1  0  0  0  0
 29 35  2  0  0  0  0
 29 58  1  0  0  0  0
 30 34  1  0  0  0  0
 30 59  1  0  0  0  0
 31 35  1  0  0  0  0
 31 60  1  0  0  0  0
 32 61  1  0  0  0  0
 32 62  1  0  0  0  0
 32 63  1  0  0  0  0
 33 64  1  0  0  0  0
 33 65  1  0  0  0  0
 33 66  1  0  0  0  0
 34 67  1  0  0  0  0
 35 68  1  0  0  0  0
M  CHG  2   2  -1   5   1
M  END
>  <DRUGBANK_ID>
DB14661

>  <SECONDARY_ACCESSION_NUMBERS>
DBSALT001714

>  <COMMON_NAME>
Loperamide oxide

>  <CAS_NUMBER>
106900-12-3

>  <UNII>
NG66S4H2RL

>  <SYNONYMS>
Loperamide oxide; Loperamide oxide anhydrous

$$$$
