
 OpenBabel10282417183D

 75 79  0  0  1  0  0  0  0  0999 V2000
   -2.6644   -9.4486  -10.0429 C   0  0  0  0  0  0  0  0  0  0  0  0
   -3.0857   -8.9632   -7.6136 C   0  0  0  0  0  0  0  0  0  0  0  0
   -1.9843  -11.1256   -8.2730 C   0  0  0  0  0  0  0  0  0  0  0  0
    4.2677   -8.5644   -8.9671 C   0  0  0  0  0  0  0  0  0  0  0  0
    4.2734   -4.9457   -7.6583 C   0  0  0  0  0  0  0  0  0  0  0  0
    7.4089  -10.6496   -4.3069 C   0  0  0  0  0  0  0  0  0  0  0  0
    4.9575   -4.9150   -6.4412 C   0  0  0  0  0  0  0  0  0  0  0  0
    3.2740   -5.8643   -7.7657 C   0  0  0  0  0  0  0  0  0  0  0  0
    6.3343  -10.9499   -3.4892 C   0  0  0  0  0  0  0  0  0  0  0  0
    7.3385   -9.5865   -5.2046 C   0  0  0  0  0  0  0  0  0  0  0  0
    4.7942   -5.8641   -5.3916 C   0  0  0  0  0  0  0  0  0  0  0  0
    3.1437   -6.7186   -6.6857 C   0  0  0  0  0  0  0  0  0  0  0  0
    5.2186  -10.1366   -3.5445 C   0  0  0  0  0  0  0  0  0  0  0  0
    6.2388   -8.7495   -5.2176 C   0  0  0  0  0  0  0  0  0  0  0  0
    0.1587   -9.0097   -9.6546 C   0  0  0  0  0  0  0  0  0  0  0  0
    1.5269   -8.9616   -9.4646 C   0  0  0  0  0  0  0  0  0  0  0  0
    0.4414   -9.3080   -2.6669 C   0  0  0  0  0  0  0  0  0  0  0  0
    1.2143   -7.6547   -1.0301 C   0  0  0  0  0  0  0  0  0  0  0  0
    1.8350   -9.9550   -2.6219 C   0  0  0  0  0  0  0  0  0  0  0  0
    2.5459   -8.4031   -0.9343 C   0  0  0  0  0  0  0  0  0  0  0  0
   -0.2982   -8.7607   -7.3148 C   0  0  0  0  0  0  0  0  0  0  0  0
    1.3004   -8.7224   -5.6122 C   0  0  0  0  0  0  0  0  0  0  0  0
    3.9350   -6.9328   -5.5449 C   0  0  0  0  0  0  0  0  0  0  0  0
    5.1856   -8.9641   -4.3413 C   0  0  0  0  0  0  0  0  0  0  0  0
    0.6196   -7.8033   -2.4456 C   0  0  3  0  0  0  0  0  0  0  0  0
    1.0324   -8.8694   -7.0877 C   0  0  0  0  0  0  0  0  0  0  0  0
   -0.7425   -9.0440   -8.5705 C   0  0  0  0  0  0  0  0  0  0  0  0
    1.9980   -9.0180   -8.1758 C   0  0  0  0  0  0  0  0  0  0  0  0
    3.8980   -8.1603   -4.5122 C   0  0  0  0  0  0  0  0  0  0  0  0
    1.6069   -7.2780   -3.5285 C   0  0  1  0  0  0  0  0  0  0  0  0
    3.0417   -7.8666   -3.2400 C   0  0  1  0  0  0  0  0  0  0  0  0
   -2.1319   -9.6261   -8.6330 C   0  0  0  0  0  0  0  0  0  0  0  0
    0.9437   -7.4669   -4.8640 N   0  0  0  0  0  0  0  0  0  0  0  0
    2.8930   -8.9833   -2.2366 N   0  0  3  0  0  0  0  0  0  0  0  0
    3.3656   -9.0922   -7.9534 O   0  0  0  0  0  0  0  0  0  0  0  0
    1.7037   -6.1924   -3.3452 H   0  0  0  0  0  0  0  0  0  0  0  0
    3.6482   -7.0945   -2.7410 H   0  0  0  0  0  0  0  0  0  0  0  0
   -3.6737   -9.8434  -10.1318 H   0  0  0  0  0  0  0  0  0  0  0  0
   -2.0416   -9.9806  -10.7712 H   0  0  0  0  0  0  0  0  0  0  0  0
   -2.6602   -8.3845  -10.3102 H   0  0  0  0  0  0  0  0  0  0  0  0
   -4.0996   -9.3505   -7.7142 H   0  0  0  0  0  0  0  0  0  0  0  0
   -2.8028   -9.1628   -6.5700 H   0  0  0  0  0  0  0  0  0  0  0  0
   -3.0963   -7.8741   -7.7407 H   0  0  0  0  0  0  0  0  0  0  0  0
   -1.2807  -11.6373   -8.9425 H   0  0  0  0  0  0  0  0  0  0  0  0
   -1.5966  -11.2715   -7.2528 H   0  0  0  0  0  0  0  0  0  0  0  0
   -2.9479  -11.6358   -8.3316 H   0  0  0  0  0  0  0  0  0  0  0  0
    4.5635   -9.3504   -9.6663 H   0  0  0  0  0  0  0  0  0  0  0  0
    3.8676   -7.7180   -9.5438 H   0  0  0  0  0  0  0  0  0  0  0  0
    5.1818   -8.1872   -8.4843 H   0  0  0  0  0  0  0  0  0  0  0  0
    4.4284   -4.2783   -8.4876 H   0  0  0  0  0  0  0  0  0  0  0  0
    8.2992  -11.2606   -4.2631 H   0  0  0  0  0  0  0  0  0  0  0  0
    5.6749   -4.1143   -6.3022 H   0  0  0  0  0  0  0  0  0  0  0  0
    2.6261   -5.9800   -8.6313 H   0  0  0  0  0  0  0  0  0  0  0  0
    6.3352  -11.8105   -2.8267 H   0  0  0  0  0  0  0  0  0  0  0  0
    8.1312   -9.3959   -5.9158 H   0  0  0  0  0  0  0  0  0  0  0  0
    5.3543   -5.7866   -4.4733 H   0  0  0  0  0  0  0  0  0  0  0  0
    2.2238   -7.2052   -6.8776 H   0  0  0  0  0  0  0  0  0  0  0  0
    4.3614  -10.4930   -2.9827 H   0  0  0  0  0  0  0  0  0  0  0  0
    6.1929   -7.9593   -5.9574 H   0  0  0  0  0  0  0  0  0  0  0  0
   -0.1770   -9.0824  -10.6798 H   0  0  0  0  0  0  0  0  0  0  0  0
    2.1849   -8.9313  -10.3240 H   0  0  0  0  0  0  0  0  0  0  0  0
   -0.0871   -9.4973   -3.6034 H   0  0  0  0  0  0  0  0  0  0  0  0
   -0.2108   -9.7465   -1.9089 H   0  0  0  0  0  0  0  0  0  0  0  0
    0.5144   -8.0848   -0.3028 H   0  0  0  0  0  0  0  0  0  0  0  0
    1.3551   -6.6006   -0.7746 H   0  0  0  0  0  0  0  0  0  0  0  0
    1.8195  -10.7810   -1.9007 H   0  0  0  0  0  0  0  0  0  0  0  0
    2.0980  -10.4428   -3.5666 H   0  0  0  0  0  0  0  0  0  0  0  0
    2.4978   -9.1977   -0.1790 H   0  0  0  0  0  0  0  0  0  0  0  0
    3.3446   -7.7312   -0.5968 H   0  0  0  0  0  0  0  0  0  0  0  0
   -0.9368   -8.6034   -6.4516 H   0  0  0  0  0  0  0  0  0  0  0  0
    1.0307   -9.6374   -5.1102 H   0  0  0  0  0  0  0  0  0  0  0  0
    2.3154   -8.7640   -5.7907 H   0  0  0  0  0  0  0  0  0  0  0  0
   -0.3374   -7.2754   -2.5093 H   0  0  0  0  0  0  0  0  0  0  0  0
    3.4786   -9.0813   -4.9028 H   0  0  0  0  0  0  0  0  0  0  0  0
    1.2031   -6.6349   -5.3999 H   0  0  0  0  0  0  0  0  0  0  0  0
  1 38  1  0  0  0  0
  1 39  1  0  0  0  0
  1 40  1  0  0  0  0
  2 41  1  0  0  0  0
  2 42  1  0  0  0  0
  2 43  1  0  0  0  0
  3 44  1  0  0  0  0
  3 45  1  0  0  0  0
  3 46  1  0  0  0  0
  4 47  1  0  0  0  0
  4 48  1  0  0  0  0
  4 49  1  0  0  0  0
  5 50  1  0  0  0  0
  6 51  1  0  0  0  0
  7  5  2  0  0  0  0
  7 52  1  0  0  0  0
  8  5  1  0  0  0  0
  8 53  1  0  0  0  0
  9  6  2  0  0  0  0
  9 54  1  0  0  0  0
 10  6  1  0  0  0  0
 10 55  1  0  0  0  0
 11  7  1  0  0  0  0
 11 56  1  0  0  0  0
 12  8  2  0  0  0  0
 12 57  1  0  0  0  0
 13  9  1  0  0  0  0
 13 58  1  0  0  0  0
 14 10  2  0  0  0  0
 14 59  1  0  0  0  0
 15 60  1  0  0  0  0
 16 15  1  0  0  0  0
 16 61  1  0  0  0  0
 17 62  1  0  0  0  0
 17 63  1  0  0  0  0
 18 64  1  0  0  0  0
 18 65  1  0  0  0  0
 19 17  1  0  0  0  0
 19 66  1  0  0  0  0
 19 67  1  0  0  0  0
 20 18  1  0  0  0  0
 20 68  1  0  0  0  0
 20 69  1  0  0  0  0
 21 70  1  0  0  0  0
 22 71  1  0  0  0  0
 22 72  1  0  0  0  0
 23 11  2  0  0  0  0
 23 12  1  0  0  0  0
 24 13  2  0  0  0  0
 24 14  1  0  0  0  0
 25 17  1  0  0  0  0
 25 18  1  0  0  0  0
 25 73  1  0  0  0  0
 26 21  2  0  0  0  0
 26 22  1  0  0  0  0
 27 15  2  0  0  0  0
 27 21  1  0  0  0  0
 28 16  2  0  0  0  0
 28 26  1  0  0  0  0
 29 23  1  0  0  0  0
 29 24  1  0  0  0  0
 29 74  1  0  0  0  0
 30 25  1  0  0  0  0
 30 36  1  1  0  0  0
 30 33  1  0  0  0  0
 31 30  1  0  0  0  0
 31 37  1  1  0  0  0
 31 29  1  0  0  0  0
 32  1  1  0  0  0  0
 32  2  1  0  0  0  0
 32  3  1  0  0  0  0
 32 27  1  0  0  0  0
 33 22  1  0  0  0  0
 33 75  1  0  0  0  0
 34 19  1  0  0  0  0
 34 20  1  0  0  0  0
 34 31  1  0  0  0  0
 35  4  1  0  0  0  0
 35 28  1  0  0  0  0
M  END
>  <DRUGBANK_ID>
DB11427

>  <COMMON_NAME>
Maropitant

>  <CAS_NUMBER>
147116-67-4

>  <UNII>
4XE2T9H4DH

>  <SYNONYMS>
Maropitant

$$$$
