
 OpenBabel10282417203D

 33 33  0  0  0  0  0  0  0  0999 V2000
    0.9261   -0.1014   -0.1770 C   0  0  0  0  0  0  0  0  0  0  0  0
    8.0149    1.7570    7.1643 C   0  0  0  0  0  0  0  0  0  0  0  0
    0.6130   -0.6264    1.2148 C   0  0  0  0  0  0  0  0  0  0  0  0
    4.7068    0.6899    1.7262 C   0  0  0  0  0  0  0  0  0  0  0  0
    4.2658    0.0404    3.9833 C   0  0  0  0  0  0  0  0  0  0  0  0
    3.3280    0.6649    1.4956 C   0  0  0  0  0  0  0  0  0  0  0  0
    2.8916   -0.0108    3.7401 C   0  0  0  0  0  0  0  0  0  0  0  0
    8.5309    1.0381    4.7332 C   0  0  0  0  0  0  0  0  0  0  0  0
    8.6166    2.1321    5.8079 C   0  0  3  0  0  0  0  0  0  0  0  0
    5.1886    0.4370    3.0027 C   0  0  0  0  0  0  0  0  0  0  0  0
    2.4168    0.2622    2.4723 C   0  0  0  0  0  0  0  0  0  0  0  0
    7.1146    0.5680    4.5365 C   0  0  0  0  0  0  0  0  0  0  0  0
    6.5588    0.6929    3.2821 N   0  0  0  0  0  0  0  0  0  0  0  0
    9.9980    2.4532    6.0089 O   0  0  0  0  0  0  0  0  0  0  0  0
    6.5401    0.0659    5.5078 O   0  0  0  0  0  0  0  0  0  0  0  0
    1.0657    0.2331    2.2750 O   0  0  0  0  0  0  0  0  0  0  0  0
    0.7283    0.9746   -0.2336 H   0  0  0  0  0  0  0  0  0  0  0  0
    0.3648   -0.6239   -0.9516 H   0  0  0  0  0  0  0  0  0  0  0  0
    1.9738   -0.2787   -0.4303 H   0  0  0  0  0  0  0  0  0  0  0  0
    8.4839    0.8504    7.5627 H   0  0  0  0  0  0  0  0  0  0  0  0
    8.1722    2.5526    7.8984 H   0  0  0  0  0  0  0  0  0  0  0  0
    6.9345    1.5999    7.1121 H   0  0  0  0  0  0  0  0  0  0  0  0
   -0.4791   -0.6690    1.3099 H   0  0  0  0  0  0  0  0  0  0  0  0
    0.9785   -1.6518    1.3516 H   0  0  0  0  0  0  0  0  0  0  0  0
    5.3571    0.9494    0.8962 H   0  0  0  0  0  0  0  0  0  0  0  0
    4.5648   -0.2287    4.9872 H   0  0  0  0  0  0  0  0  0  0  0  0
    2.9908    1.0431    0.5419 H   0  0  0  0  0  0  0  0  0  0  0  0
    2.2210   -0.2363    4.5648 H   0  0  0  0  0  0  0  0  0  0  0  0
    9.1021    0.1594    5.0601 H   0  0  0  0  0  0  0  0  0  0  0  0
    8.9981    1.3690    3.7995 H   0  0  0  0  0  0  0  0  0  0  0  0
    8.1259    3.0424    5.4461 H   0  0  0  0  0  0  0  0  0  0  0  0
    7.1197    1.0756    2.5273 H   0  0  0  0  0  0  0  0  0  0  0  0
   10.4198    1.6896    6.4426 H   0  0  0  0  0  0  0  0  0  0  0  0
  1 17  1  0  0  0  0
  1 18  1  0  0  0  0
  1 19  1  0  0  0  0
  2 20  1  0  0  0  0
  2 21  1  0  0  0  0
  2 22  1  0  0  0  0
  3  1  1  0  0  0  0
  3 23  1  0  0  0  0
  3 24  1  0  0  0  0
  4 25  1  0  0  0  0
  5 26  1  0  0  0  0
  6  4  1  0  0  0  0
  6 27  1  0  0  0  0
  7  5  2  0  0  0  0
  7 28  1  0  0  0  0
  8 29  1  0  0  0  0
  8 30  1  0  0  0  0
  9  2  1  0  0  0  0
  9  8  1  0  0  0  0
  9 31  1  0  0  0  0
 10  4  2  0  0  0  0
 10  5  1  0  0  0  0
 11  6  2  0  0  0  0
 11  7  1  0  0  0  0
 12  8  1  0  0  0  0
 13 10  1  0  0  0  0
 13 12  1  0  0  0  0
 13 32  1  0  0  0  0
 14  9  1  0  0  0  0
 14 33  1  0  0  0  0
 15 12  2  0  0  0  0
 16  3  1  0  0  0  0
 16 11  1  0  0  0  0
M  END
>  <DRUGBANK_ID>
DB13278

>  <COMMON_NAME>
Bucetin

>  <CAS_NUMBER>
1083-57-4

>  <UNII>
6M7CVQ8PF8

$$$$
