
 OpenBabel10282417143D

200207  0  0  0  0  0  0  0  0999 V2000
   -1.8196    2.7781    1.4957 N   0  0  0  0  0  0  0  0  0  0  0  0
    3.0525    9.2261   -2.9880 N   0  0  0  0  0  0  0  0  0  0  0  0
   -2.7109    1.9907    0.0273 C   0  0  0  0  0  0  0  0  0  0  0  0
    4.2842   10.2653   -4.1263 C   0  0  0  0  0  0  0  0  0  0  0  0
   -2.6451    5.6594    1.1668 C   0  0  0  0  0  0  0  0  0  0  0  0
    1.5956   11.2291   -1.2472 C   0  0  0  0  0  0  0  0  0  0  0  0
    4.5217   12.4730   -1.4075 C   0  0  0  0  0  0  0  0  0  0  0  0
   -4.7660    4.0586   -1.3714 C   0  0  0  0  0  0  0  0  0  0  0  0
   -1.9915    4.5714    2.1069 C   0  0  2  0  0  0  0  0  0  0  0  0
    2.2232    9.7059   -1.4943 C   0  0  2  0  0  0  0  0  0  0  0  0
    4.3168   12.6293    1.5027 C   0  0  0  0  0  0  0  0  0  0  0  0
   -7.0563    5.0848   -0.0454 C   0  0  0  0  0  0  0  0  0  0  0  0
   -3.2752    3.3499   -1.4173 C   0  0  2  0  0  0  0  0  0  0  0  0
    4.5714   12.1946   -3.2638 C   0  0  2  0  0  0  0  0  0  0  0  0
    3.5419   11.6525    1.0285 C   0  0  0  0  0  0  0  0  0  0  0  0
    5.1277   13.4954    0.5436 C   0  0  0  0  0  0  0  0  0  0  0  0
   -7.0021    3.8512   -0.7088 C   0  0  0  0  0  0  0  0  0  0  0  0
   -6.0396    5.9290   -0.3394 C   0  0  0  0  0  0  0  0  0  0  0  0
    2.2874   11.8940   -2.1101 O   0  0  0  0  0  0  0  0  0  0  0  0
   -3.6911    5.0309    0.7610 O   0  0  0  0  0  0  0  0  0  0  0  0
    3.8900   11.6961   -0.3273 C   0  0  0  0  0  0  0  0  0  0  0  0
   -4.9622    5.4471   -1.1045 C   0  0  0  0  0  0  0  0  0  0  0  0
    5.0639   13.5384   -0.8728 C   0  0  0  0  0  0  0  0  0  0  0  0
   -5.8418    3.2804   -1.2206 C   0  0  0  0  0  0  0  0  0  0  0  0
    3.0221   11.0806   -2.9496 C   0  0  1  0  0  0  0  0  0  0  0  0
   -3.1606    3.7939    0.5915 C   0  0  1  0  0  0  0  0  0  0  0  0
    4.3696   13.4636   -7.1131 C   0  0  0  0  0  0  0  0  0  0  0  0
   -7.9099    1.0950    0.6008 C   0  0  0  0  0  0  0  0  0  0  0  0
   -1.3622    3.4381   -0.3925 C   0  0  0  0  0  0  0  0  0  0  0  0
    4.8350   10.1629   -2.3015 C   0  0  0  0  0  0  0  0  0  0  0  0
   -2.7391    0.7732   -0.1867 O   0  0  0  0  0  0  0  0  0  0  0  0
    4.8594    9.8801   -5.1185 O   0  0  0  0  0  0  0  0  0  0  0  0
    0.6314    6.6047    0.5778 C   0  0  0  0  0  0  0  0  0  0  0  0
    2.9842    6.5250   -4.5498 C   0  0  0  0  0  0  0  0  0  0  0  0
   -2.5559    6.8309    0.9051 O   0  0  0  0  0  0  0  0  0  0  0  0
    1.0573   11.8723   -0.3665 O   0  0  0  0  0  0  0  0  0  0  0  0
   -7.2005    0.3392   -0.3840 C   0  0  0  0  0  0  0  0  0  0  0  0
    3.9302   14.7724   -7.3339 C   0  0  0  0  0  0  0  0  0  0  0  0
    3.4275   12.5337   -6.6526 C   0  0  0  0  0  0  0  0  0  0  0  0
   -7.2156    1.9305    1.4774 C   0  0  0  0  0  0  0  0  0  0  0  0
    5.1876    8.7043   -3.0233 C   0  0  0  0  0  0  0  0  0  0  0  0
   -0.3064    4.1687   -0.0780 C   0  0  0  0  0  0  0  0  0  0  0  0
   -0.2715    7.3387    0.9419 O   0  0  0  0  0  0  0  0  0  0  0  0
    2.5686    7.3891   -5.3277 O   0  0  0  0  0  0  0  0  0  0  0  0
    1.9434   10.6908   -4.4853 C   0  0  0  0  0  0  0  0  0  0  0  0
   -3.8012    2.8823    2.0937 C   0  0  0  0  0  0  0  0  0  0  0  0
   -5.8479    0.1423   -0.1987 C   0  0  0  0  0  0  0  0  0  0  0  0
    2.6963   15.1882   -6.7918 C   0  0  0  0  0  0  0  0  0  0  0  0
    0.8042    6.4361   -0.7714 N   0  0  0  0  0  0  0  0  0  0  0  0
    2.0835    5.9988   -3.5886 N   0  0  0  0  0  0  0  0  0  0  0  0
    1.8618    4.3309    1.0678 O   0  0  0  0  0  0  0  0  0  0  0  0
    5.6935    6.4774   -3.3727 O   0  0  0  0  0  0  0  0  0  0  0  0
    3.2458    7.9331   -2.3411 C   0  0  0  0  0  0  0  0  0  0  0  0
   -1.3261    1.9884    2.5574 C   0  0  0  0  0  0  0  0  0  0  0  0
   -5.8685    1.8892    1.5476 C   0  0  0  0  0  0  0  0  0  0  0  0
    2.0798   12.8668   -6.2775 C   0  0  0  0  0  0  0  0  0  0  0  0
    1.5620    5.6911    1.5023 C   0  0  0  0  0  0  0  0  0  0  0  0
    4.6406    6.1931   -4.3971 C   0  0  0  0  0  0  0  0  0  0  0  0
    0.9919    3.6498    0.1996 C   0  0  0  0  0  0  0  0  0  0  0  0
    6.1045    7.7539   -3.1040 C   0  0  0  0  0  0  0  0  0  0  0  0
    4.3555   12.8578    2.8438 O   0  0  0  0  0  0  0  0  0  0  0  0
   -8.1006    5.3761    0.7840 O   0  0  0  0  0  0  0  0  0  0  0  0
    2.7194   10.7942    1.8061 O   0  0  0  0  0  0  0  0  0  0  0  0
   -8.0872    3.1206   -1.0593 O   0  0  0  0  0  0  0  0  0  0  0  0
    6.2335   14.2102    0.9001 O   0  0  0  0  0  0  0  0  0  0  0  0
   -6.1533    7.1838    0.1514 O   0  0  0  0  0  0  0  0  0  0  0  0
    1.2135   11.9068   -5.3270 C   0  0  0  0  0  0  0  0  0  0  0  0
   -5.2229    3.0062    2.2923 C   0  0  0  0  0  0  0  0  0  0  0  0
    1.7661   14.2480   -6.3006 C   0  0  0  0  0  0  0  0  0  0  0  0
   -5.2573    0.8627    0.8273 C   0  0  0  0  0  0  0  0  0  0  0  0
    5.6906   13.1525   -7.3253 O   0  0  0  0  0  0  0  0  0  0  0  0
   -9.2761    1.1626    0.5724 O   0  0  0  0  0  0  0  0  0  0  0  0
   -7.6513   -0.1271   -1.5970 O   0  0  0  0  0  0  0  0  0  0  0  0
    4.5624   15.6982   -8.1317 O   0  0  0  0  0  0  0  0  0  0  0  0
   -0.7837    5.0595    2.6839 C   0  0  0  0  0  0  0  0  0  0  0  0
    3.3317    9.1822   -0.2885 C   0  0  0  0  0  0  0  0  0  0  0  0
    3.1086   13.1872   -3.6521 C   0  0  0  0  0  0  0  0  0  0  0  0
   -2.7451    3.2574   -2.7944 C   0  0  0  0  0  0  0  0  0  0  0  0
   -0.7582    2.0389   -0.9691 C   0  0  0  0  0  0  0  0  0  0  0  0
    6.1414   10.6795   -2.1965 C   0  0  0  0  0  0  0  0  0  0  0  0
    7.2466    9.8229   -2.3808 C   0  0  0  0  0  0  0  0  0  0  0  0
    0.4857    1.4712   -0.7102 C   0  0  0  0  0  0  0  0  0  0  0  0
    2.4621    5.2486   -2.3818 C   0  0  0  0  0  0  0  0  0  0  0  0
    2.0479    5.8400   -1.0703 C   0  0  0  0  0  0  0  0  0  0  0  0
    7.1649    8.3809   -2.5788 C   0  0  0  0  0  0  0  0  0  0  0  0
    1.3988    2.3465   -0.1925 C   0  0  0  0  0  0  0  0  0  0  0  0
   -8.3604    6.6907    1.2130 C   0  0  0  0  0  0  0  0  0  0  0  0
    3.5249   12.0443    3.6508 C   0  0  0  0  0  0  0  0  0  0  0  0
    1.5072    9.8646    1.6477 C   0  0  0  0  0  0  0  0  0  0  0  0
    6.4539   14.0870    2.2711 C   0  0  0  0  0  0  0  0  0  0  0  0
   -9.2548    3.5960   -0.4706 C   0  0  0  0  0  0  0  0  0  0  0  0
   -5.1234    8.0668   -0.1706 C   0  0  0  0  0  0  0  0  0  0  0  0
  -10.0427    1.9260    1.5159 C   0  0  0  0  0  0  0  0  0  0  0  0
    6.1807   11.8634   -6.9761 C   0  0  0  0  0  0  0  0  0  0  0  0
   -9.0065    0.1510   -1.9156 C   0  0  0  0  0  0  0  0  0  0  0  0
    5.6838   15.2087   -8.8729 C   0  0  0  0  0  0  0  0  0  0  0  0
    4.2074    7.4386   -0.9481 C   0  0  0  0  0  0  0  0  0  0  0  0
   -0.0224    2.5757    2.9546 C   0  0  0  0  0  0  0  0  0  0  0  0
    2.8074   14.5211   -3.2927 C   0  0  0  0  0  0  0  0  0  0  0  0
   -3.2394    4.4312   -3.6171 C   0  0  0  0  0  0  0  0  0  0  0  0
    3.4843    7.8625    0.2524 C   0  0  0  0  0  0  0  0  0  0  0  0
   -0.0501    4.0292    3.4708 C   0  0  0  0  0  0  0  0  0  0  0  0
   -2.6827    4.7292    2.9455 H   0  0  0  0  0  0  0  0  0  0  0  0
    1.2579    9.1961   -1.4731 H   0  0  0  0  0  0  0  0  0  0  0  0
   -2.7793    4.4026   -1.2613 H   0  0  0  0  0  0  0  0  0  0  0  0
    5.4345   12.7038   -3.6790 H   0  0  0  0  0  0  0  0  0  0  0  0
    3.5326   10.9140   -0.8243 H   0  0  0  0  0  0  0  0  0  0  0  0
   -4.0928    6.0921   -1.1482 H   0  0  0  0  0  0  0  0  0  0  0  0
    5.5243   14.1901   -1.5820 H   0  0  0  0  0  0  0  0  0  0  0  0
   -5.7047    2.2229   -1.3351 H   0  0  0  0  0  0  0  0  0  0  0  0
    3.2430   11.5225   -4.1033 H   0  0  0  0  0  0  0  0  0  0  0  0
   -4.0296    3.2094    0.2405 H   0  0  0  0  0  0  0  0  0  0  0  0
    3.8362   11.5857   -6.3450 H   0  0  0  0  0  0  0  0  0  0  0  0
   -7.6545    2.8107    1.9309 H   0  0  0  0  0  0  0  0  0  0  0  0
    4.5138    8.3610   -3.8575 H   0  0  0  0  0  0  0  0  0  0  0  0
   -0.7313    5.1057    0.1174 H   0  0  0  0  0  0  0  0  0  0  0  0
    2.5322   10.1957   -5.3001 H   0  0  0  0  0  0  0  0  0  0  0  0
    1.2373    9.9805   -4.0975 H   0  0  0  0  0  0  0  0  0  0  0  0
   -3.5236    1.8178    2.1634 H   0  0  0  0  0  0  0  0  0  0  0  0
   -3.4209    3.2940    3.0075 H   0  0  0  0  0  0  0  0  0  0  0  0
   -5.1997   -0.4315   -0.8687 H   0  0  0  0  0  0  0  0  0  0  0  0
    2.4505   16.2503   -6.7384 H   0  0  0  0  0  0  0  0  0  0  0  0
    0.4748    7.2754   -1.2441 H   0  0  0  0  0  0  0  0  0  0  0  0
    1.2490    6.5869   -3.4947 H   0  0  0  0  0  0  0  0  0  0  0  0
    3.6602    7.1966   -2.8991 H   0  0  0  0  0  0  0  0  0  0  0  0
    2.1717    7.7772   -2.3091 H   0  0  0  0  0  0  0  0  0  0  0  0
   -1.3759    0.9792    2.1900 H   0  0  0  0  0  0  0  0  0  0  0  0
   -1.9586    2.1587    3.4336 H   0  0  0  0  0  0  0  0  0  0  0  0
    1.1779    5.7520    2.5065 H   0  0  0  0  0  0  0  0  0  0  0  0
    2.4763    6.1757    1.8250 H   0  0  0  0  0  0  0  0  0  0  0  0
    4.6015    5.1060   -4.4218 H   0  0  0  0  0  0  0  0  0  0  0  0
    5.0615    6.5790   -5.3255 H   0  0  0  0  0  0  0  0  0  0  0  0
    0.4141   11.4757   -5.9247 H   0  0  0  0  0  0  0  0  0  0  0  0
    0.6515   12.5374   -4.6179 H   0  0  0  0  0  0  0  0  0  0  0  0
   -5.3365    2.8945    3.3678 H   0  0  0  0  0  0  0  0  0  0  0  0
   -5.4380    4.0355    1.9934 H   0  0  0  0  0  0  0  0  0  0  0  0
    0.8794   14.6192   -5.7796 H   0  0  0  0  0  0  0  0  0  0  0  0
   -4.2238    0.6799    0.9507 H   0  0  0  0  0  0  0  0  0  0  0  0
   -0.8233    6.1207    2.9897 H   0  0  0  0  0  0  0  0  0  0  0  0
   -0.3024    5.1166    1.7815 H   0  0  0  0  0  0  0  0  0  0  0  0
    2.8174    9.7369    0.3496 H   0  0  0  0  0  0  0  0  0  0  0  0
    4.3517    9.5635   -0.0618 H   0  0  0  0  0  0  0  0  0  0  0  0
    3.1714   13.1101   -4.6733 H   0  0  0  0  0  0  0  0  0  0  0  0
    2.0515   12.7872   -3.5530 H   0  0  0  0  0  0  0  0  0  0  0  0
   -1.6502    3.3334   -2.7878 H   0  0  0  0  0  0  0  0  0  0  0  0
   -3.0939    2.2767   -3.0559 H   0  0  0  0  0  0  0  0  0  0  0  0
   -1.3497    1.2720   -1.5174 H   0  0  0  0  0  0  0  0  0  0  0  0
    6.4648   11.7252   -2.1807 H   0  0  0  0  0  0  0  0  0  0  0  0
    8.2064   10.3248   -2.3817 H   0  0  0  0  0  0  0  0  0  0  0  0
    0.6627    0.3976   -0.8697 H   0  0  0  0  0  0  0  0  0  0  0  0
    3.5535    5.1290   -2.3546 H   0  0  0  0  0  0  0  0  0  0  0  0
    1.9576    4.3105   -2.3592 H   0  0  0  0  0  0  0  0  0  0  0  0
    2.3644    6.7977   -1.0954 H   0  0  0  0  0  0  0  0  0  0  0  0
    2.7421    5.5650   -0.2605 H   0  0  0  0  0  0  0  0  0  0  0  0
    7.9829    7.7872   -2.2594 H   0  0  0  0  0  0  0  0  0  0  0  0
    2.4229    2.0106   -0.1055 H   0  0  0  0  0  0  0  0  0  0  0  0
   -7.6186    6.9496    1.9706 H   0  0  0  0  0  0  0  0  0  0  0  0
   -8.3911    7.3632    0.3527 H   0  0  0  0  0  0  0  0  0  0  0  0
   -9.3490    6.7218    1.6785 H   0  0  0  0  0  0  0  0  0  0  0  0
    2.4654   12.1794    3.3795 H   0  0  0  0  0  0  0  0  0  0  0  0
    3.8536   10.9922    3.6137 H   0  0  0  0  0  0  0  0  0  0  0  0
    3.6507   12.3907    4.6612 H   0  0  0  0  0  0  0  0  0  0  0  0
    0.8252   10.0857    0.8201 H   0  0  0  0  0  0  0  0  0  0  0  0
    1.7948    8.9061    1.2469 H   0  0  0  0  0  0  0  0  0  0  0  0
    1.2464    9.2389    2.5115 H   0  0  0  0  0  0  0  0  0  0  0  0
    5.5965   14.5342    2.7792 H   0  0  0  0  0  0  0  0  0  0  0  0
    6.6523   13.0424    2.5659 H   0  0  0  0  0  0  0  0  0  0  0  0
    7.3134   14.6944    2.4785 H   0  0  0  0  0  0  0  0  0  0  0  0
   -9.0481    3.7280    0.5943 H   0  0  0  0  0  0  0  0  0  0  0  0
   -9.6279    4.5127   -0.8908 H   0  0  0  0  0  0  0  0  0  0  0  0
  -10.0244    2.8529   -0.6338 H   0  0  0  0  0  0  0  0  0  0  0  0
   -4.3238    7.8726    0.5216 H   0  0  0  0  0  0  0  0  0  0  0  0
   -4.8262    7.9860   -1.2190 H   0  0  0  0  0  0  0  0  0  0  0  0
   -5.4717    9.0718    0.0345 H   0  0  0  0  0  0  0  0  0  0  0  0
   -9.6127    1.9369    2.5106 H   0  0  0  0  0  0  0  0  0  0  0  0
  -10.2624    2.9915    1.3757 H   0  0  0  0  0  0  0  0  0  0  0  0
  -11.0715    1.6583    1.3038 H   0  0  0  0  0  0  0  0  0  0  0  0
    6.2290   11.7677   -5.8886 H   0  0  0  0  0  0  0  0  0  0  0  0
    5.5879   11.0669   -7.4341 H   0  0  0  0  0  0  0  0  0  0  0  0
    7.2029   11.7654   -7.3576 H   0  0  0  0  0  0  0  0  0  0  0  0
   -9.6551   -0.2100   -1.1196 H   0  0  0  0  0  0  0  0  0  0  0  0
   -9.1804    1.2086   -2.1402 H   0  0  0  0  0  0  0  0  0  0  0  0
   -9.2874   -0.4115   -2.8095 H   0  0  0  0  0  0  0  0  0  0  0  0
    6.5235   15.0602   -8.1881 H   0  0  0  0  0  0  0  0  0  0  0  0
    5.4648   14.2951   -9.4484 H   0  0  0  0  0  0  0  0  0  0  0  0
    5.9972   15.9690   -9.5894 H   0  0  0  0  0  0  0  0  0  0  0  0
    5.2313    7.7968   -0.8532 H   0  0  0  0  0  0  0  0  0  0  0  0
    4.3653    6.3609   -0.9653 H   0  0  0  0  0  0  0  0  0  0  0  0
    0.6244    2.4563    2.1020 H   0  0  0  0  0  0  0  0  0  0  0  0
    0.4011    1.9617    3.7305 H   0  0  0  0  0  0  0  0  0  0  0  0
    3.6779   14.8799   -3.8081 H   0  0  0  0  0  0  0  0  0  0  0  0
    1.8156   14.6515   -3.7646 H   0  0  0  0  0  0  0  0  0  0  0  0
    2.7055   14.4359   -2.2236 H   0  0  0  0  0  0  0  0  0  0  0  0
   -2.8355    5.3985   -3.2637 H   0  0  0  0  0  0  0  0  0  0  0  0
   -2.9459    4.2495   -4.6375 H   0  0  0  0  0  0  0  0  0  0  0  0
   -4.3269    4.5156   -3.5772 H   0  0  0  0  0  0  0  0  0  0  0  0
    3.9339    7.6804    1.2308 H   0  0  0  0  0  0  0  0  0  0  0  0
    2.4821    7.5824    0.4015 H   0  0  0  0  0  0  0  0  0  0  0  0
    1.0051    4.2810    3.5555 H   0  0  0  0  0  0  0  0  0  0  0  0
   -0.5056    4.1329    4.4423 H   0  0  0  0  0  0  0  0  0  0  0  0
  2 10  1  0  0  0  0
  3  1  1  0  0  0  0
  4  2  1  0  0  0  0
  6 19  1  0  0  0  0
  9  1  1  0  0  0  0
  9103  1  1  0  0  0
  9  5  1  0  0  0  0
 10  6  1  0  0  0  0
 10104  1  1  0  0  0
 11 16  2  0  0  0  0
 11 15  1  0  0  0  0
 12 17  1  0  0  0  0
 12 18  2  0  0  0  0
 13 78  1  0  0  0  0
 13105  1  1  0  0  0
 13  3  1  0  0  0  0
 13  8  1  0  0  0  0
 14 77  1  0  0  0  0
 14106  1  6  0  0  0
 14  4  1  0  0  0  0
 14  7  1  0  0  0  0
 15 21  2  0  0  0  0
 16 23  1  0  0  0  0
 17 24  2  0  0  0  0
 18 22  1  0  0  0  0
 20  5  1  0  0  0  0
 21  7  1  0  0  0  0
 21107  1  0  0  0  0
 22  8  2  0  0  0  0
 22108  1  0  0  0  0
 23  7  2  0  0  0  0
 23109  1  0  0  0  0
 24  8  1  0  0  0  0
 24110  1  0  0  0  0
 25111  1  6  0  0  0
 25 30  1  0  0  0  0
 25 19  1  0  0  0  0
 26 20  1  0  0  0  0
 26112  1  6  0  0  0
 27 39  2  0  0  0  0
 28 40  2  0  0  0  0
 29 26  1  0  0  0  0
 30 41  2  0  0  0  0
 30 80  1  0  0  0  0
 31  3  2  0  0  0  0
 32  4  2  0  0  0  0
 33 57  1  0  0  0  0
 34 50  1  0  0  0  0
 35  5  2  0  0  0  0
 36  6  2  0  0  0  0
 37 47  2  0  0  0  0
 37 28  1  0  0  0  0
 38 48  2  0  0  0  0
 38 27  1  0  0  0  0
 39 56  1  0  0  0  0
 39113  1  0  0  0  0
 40 55  1  0  0  0  0
 40114  1  0  0  0  0
 41 60  1  0  0  0  0
 41115  1  0  0  0  0
 42 29  2  0  0  0  0
 42116  1  0  0  0  0
 43 33  2  0  0  0  0
 44 34  2  0  0  0  0
 45 25  1  0  0  0  0
 45117  1  0  0  0  0
 45118  1  0  0  0  0
 46 26  1  0  0  0  0
 46119  1  0  0  0  0
 46120  1  0  0  0  0
 47 70  1  0  0  0  0
 47121  1  0  0  0  0
 48 69  1  0  0  0  0
 48122  1  0  0  0  0
 49 33  1  0  0  0  0
 49123  1  0  0  0  0
 50 83  1  0  0  0  0
 50124  1  0  0  0  0
 51 59  1  0  0  0  0
 52 58  1  0  0  0  0
 53  2  1  0  0  0  0
 53 97  1  0  0  0  0
 53125  1  0  0  0  0
 53126  1  0  0  0  0
 54  1  1  0  0  0  0
 54127  1  0  0  0  0
 54128  1  0  0  0  0
 55 68  1  0  0  0  0
 56 67  1  0  0  0  0
 57 51  1  0  0  0  0
 57129  1  0  0  0  0
 57130  1  0  0  0  0
 58 34  1  0  0  0  0
 58131  1  0  0  0  0
 58132  1  0  0  0  0
 59 42  1  0  0  0  0
 60 52  1  0  0  0  0
 61 11  1  0  0  0  0
 62 12  1  0  0  0  0
 63 15  1  0  0  0  0
 64 17  1  0  0  0  0
 65 16  1  0  0  0  0
 66 18  1  0  0  0  0
 67 45  1  0  0  0  0
 67133  1  0  0  0  0
 67134  1  0  0  0  0
 68 46  1  0  0  0  0
 68135  1  0  0  0  0
 68136  1  0  0  0  0
 69 56  2  0  0  0  0
 69137  1  0  0  0  0
 70 55  2  0  0  0  0
 70138  1  0  0  0  0
 71 27  1  0  0  0  0
 72 28  1  0  0  0  0
 73 37  1  0  0  0  0
 74 38  1  0  0  0  0
 75  9  1  0  0  0  0
 75139  1  0  0  0  0
 75140  1  0  0  0  0
 76 10  1  0  0  0  0
 76141  1  0  0  0  0
 76142  1  0  0  0  0
 77143  1  0  0  0  0
 77144  1  0  0  0  0
 78145  1  0  0  0  0
 78146  1  0  0  0  0
 79 29  1  0  0  0  0
 79147  1  0  0  0  0
 80 81  2  0  0  0  0
 80148  1  0  0  0  0
 81 85  1  0  0  0  0
 81149  1  0  0  0  0
 82 79  2  0  0  0  0
 82150  1  0  0  0  0
 83 84  1  0  0  0  0
 83151  1  0  0  0  0
 83152  1  0  0  0  0
 84 49  1  0  0  0  0
 84153  1  0  0  0  0
 84154  1  0  0  0  0
 85 60  2  0  0  0  0
 85155  1  0  0  0  0
 86 82  1  0  0  0  0
 86 59  2  0  0  0  0
 86156  1  0  0  0  0
 87 62  1  0  0  0  0
 87157  1  0  0  0  0
 87158  1  0  0  0  0
 87159  1  0  0  0  0
 88 61  1  0  0  0  0
 88160  1  0  0  0  0
 88161  1  0  0  0  0
 88162  1  0  0  0  0
 89 63  1  0  0  0  0
 89163  1  0  0  0  0
 89164  1  0  0  0  0
 89165  1  0  0  0  0
 90 65  1  0  0  0  0
 90166  1  0  0  0  0
 90167  1  0  0  0  0
 90168  1  0  0  0  0
 91 64  1  0  0  0  0
 91169  1  0  0  0  0
 91170  1  0  0  0  0
 91171  1  0  0  0  0
 92 66  1  0  0  0  0
 92172  1  0  0  0  0
 92173  1  0  0  0  0
 92174  1  0  0  0  0
 93 72  1  0  0  0  0
 93175  1  0  0  0  0
 93176  1  0  0  0  0
 93177  1  0  0  0  0
 94 71  1  0  0  0  0
 94178  1  0  0  0  0
 94179  1  0  0  0  0
 94180  1  0  0  0  0
 95 73  1  0  0  0  0
 95181  1  0  0  0  0
 95182  1  0  0  0  0
 95183  1  0  0  0  0
 96 74  1  0  0  0  0
 96184  1  0  0  0  0
 96185  1  0  0  0  0
 96186  1  0  0  0  0
 97101  1  0  0  0  0
 97187  1  0  0  0  0
 97188  1  0  0  0  0
 98 54  1  0  0  0  0
 98189  1  0  0  0  0
 98190  1  0  0  0  0
 99 77  1  0  0  0  0
 99191  1  0  0  0  0
 99192  1  0  0  0  0
 99193  1  0  0  0  0
100 78  1  0  0  0  0
100194  1  0  0  0  0
100195  1  0  0  0  0
100196  1  0  0  0  0
101 76  1  0  0  0  0
101197  1  0  0  0  0
101198  1  0  0  0  0
102 98  1  0  0  0  0
102 75  1  0  0  0  0
102199  1  0  0  0  0
102200  1  0  0  0  0
M  END
>  <DRUGBANK_ID>
DB04974

>  <COMMON_NAME>
Rimiducid

>  <CAS_NUMBER>
195514-63-7

>  <UNII>
H564L1W5J2

>  <SYNONYMS>
Rimiducid

$$$$
