
 OpenBabel10282417173D

 70 72  0  0  0  0  0  0  0  0999 V2000
    0.5791   -0.2412    0.3958 S   0  0  0  0  0  0  0  0  0  0  0  0
   -0.6814    5.6010    2.5706 S   0  0  0  0  0  0  0  0  0  0  0  0
    1.0443    2.6302    0.3118 C   0  0  0  0  0  0  0  0  0  0  0  0
    0.2788    1.5087    0.7439 C   0  0  0  0  0  0  0  0  0  0  0  0
    2.3194    2.6159   -0.5913 C   0  0  0  0  0  0  0  0  0  0  0  0
    2.9781    3.7118   -1.0782 C   0  0  0  0  0  0  0  0  0  0  0  0
   -0.4673    4.0051    1.7962 C   0  0  0  0  0  0  0  0  0  0  0  0
    0.5718    3.8637    0.8693 C   0  0  0  0  0  0  0  0  0  0  0  0
    5.6915    6.7766   -1.0427 N   0  3  0  0  0  0  0  0  0  0  0  0
    4.7673    5.8949   -1.2493 C   0  0  0  0  0  0  0  0  0  0  0  0
    4.1561    3.6187   -1.9414 C   0  0  0  0  0  0  0  0  0  0  0  0
    2.5376    5.0678   -0.8818 C   0  0  0  0  0  0  0  0  0  0  0  0
    3.3731    6.0955   -0.7942 C   0  0  0  0  0  0  0  0  0  0  0  0
    4.9986    4.6463   -2.0522 C   0  0  0  0  0  0  0  0  0  0  0  0
    0.0076   -0.5384   -1.0978 O   0  0  0  0  0  0  0  0  0  0  0  0
    0.8010    5.9130    3.1514 O   0  0  0  0  0  0  0  0  0  0  0  0
   -0.8000    1.6760    1.6571 C   0  0  0  0  0  0  0  0  0  0  0  0
   -0.2827   -1.0240    1.2659 O   0  0  0  0  0  0  0  0  0  0  0  0
    1.9877   -0.4665    0.5137 O   0  0  0  0  0  0  0  0  0  0  0  0
   -0.9497    6.5563    1.5292 O   0  0  0  0  0  0  0  0  0  0  0  0
   -1.5392    5.4173    3.7266 O   0  0  0  0  0  0  0  0  0  0  0  0
    2.9680    1.3623   -1.0845 C   0  0  0  0  0  0  0  0  0  0  0  0
    3.8934   -1.2191   -1.9180 C   0  0  0  0  0  0  0  0  0  0  0  0
   -1.1844    2.9066    2.1758 C   0  0  0  0  0  0  0  0  0  0  0  0
    4.2393   -2.5517   -2.1324 N   0  0  0  0  0  0  0  0  0  0  0  0
    2.3229    0.6612   -2.0914 C   0  0  0  0  0  0  0  0  0  0  0  0
    4.1981    0.8743   -0.6446 C   0  0  0  0  0  0  0  0  0  0  0  0
    4.6818   -0.3453   -1.1441 C   0  0  0  0  0  0  0  0  0  0  0  0
    2.7050   -0.6548   -2.4032 C   0  0  0  0  0  0  0  0  0  0  0  0
    5.4289    8.0743   -0.3210 C   0  0  0  0  0  0  0  0  0  0  0  0
    7.0832    6.5586   -1.5671 C   0  0  0  0  0  0  0  0  0  0  0  0
    5.5703   -3.0622   -1.7644 C   0  0  0  0  0  0  0  0  0  0  0  0
    3.3338   -3.5082   -2.8067 C   0  0  0  0  0  0  0  0  0  0  0  0
    7.7205    5.3547   -0.8815 C   0  0  0  0  0  0  0  0  0  0  0  0
    6.2734    8.1650    0.9262 C   0  0  0  0  0  0  0  0  0  0  0  0
    5.5027   -4.2336   -0.7992 C   0  0  0  0  0  0  0  0  0  0  0  0
    2.1082   -3.8599   -1.9645 C   0  0  0  0  0  0  0  0  0  0  0  0
    0.9699    4.8397    0.6673 H   0  0  0  0  0  0  0  0  0  0  0  0
    4.3710    2.7175   -2.5100 H   0  0  0  0  0  0  0  0  0  0  0  0
    1.4923    5.3205   -0.9240 H   0  0  0  0  0  0  0  0  0  0  0  0
    2.9441    7.0593   -0.5629 H   0  0  0  0  0  0  0  0  0  0  0  0
    5.8537    4.5181   -2.7042 H   0  0  0  0  0  0  0  0  0  0  0  0
   -0.0041    0.1935   -1.7369 H   0  0  0  0  0  0  0  0  0  0  0  0
    0.9551    5.3927    3.9683 H   0  0  0  0  0  0  0  0  0  0  0  0
   -1.3348    0.8001    2.0214 H   0  0  0  0  0  0  0  0  0  0  0  0
   -2.0084    2.9808    2.8768 H   0  0  0  0  0  0  0  0  0  0  0  0
    1.4165    1.0946   -2.4907 H   0  0  0  0  0  0  0  0  0  0  0  0
    4.7811    1.3957    0.1093 H   0  0  0  0  0  0  0  0  0  0  0  0
    5.6763   -0.6112   -0.8160 H   0  0  0  0  0  0  0  0  0  0  0  0
    1.9813   -1.2578   -2.9459 H   0  0  0  0  0  0  0  0  0  0  0  0
    5.6020    8.8874   -1.0308 H   0  0  0  0  0  0  0  0  0  0  0  0
    4.3890    8.1487   -0.0039 H   0  0  0  0  0  0  0  0  0  0  0  0
    7.0103    6.4391   -2.6542 H   0  0  0  0  0  0  0  0  0  0  0  0
    7.6680    7.4618   -1.3804 H   0  0  0  0  0  0  0  0  0  0  0  0
    6.1119   -3.3392   -2.6750 H   0  0  0  0  0  0  0  0  0  0  0  0
    6.2062   -2.3232   -1.2798 H   0  0  0  0  0  0  0  0  0  0  0  0
    3.0379   -3.1297   -3.7914 H   0  0  0  0  0  0  0  0  0  0  0  0
    3.8639   -4.4474   -3.0176 H   0  0  0  0  0  0  0  0  0  0  0  0
    7.1905    4.4121   -1.0457 H   0  0  0  0  0  0  0  0  0  0  0  0
    8.7295    5.1979   -1.2668 H   0  0  0  0  0  0  0  0  0  0  0  0
    7.7553    5.4873    0.2030 H   0  0  0  0  0  0  0  0  0  0  0  0
    7.3379    8.1985    0.6873 H   0  0  0  0  0  0  0  0  0  0  0  0
    6.0193    9.0783    1.4717 H   0  0  0  0  0  0  0  0  0  0  0  0
    6.0932    7.3102    1.5875 H   0  0  0  0  0  0  0  0  0  0  0  0
    5.0292   -5.1076   -1.2523 H   0  0  0  0  0  0  0  0  0  0  0  0
    6.5167   -4.5230   -0.5033 H   0  0  0  0  0  0  0  0  0  0  0  0
    4.9459   -3.9682    0.1051 H   0  0  0  0  0  0  0  0  0  0  0  0
    1.4810   -2.9927   -1.7476 H   0  0  0  0  0  0  0  0  0  0  0  0
    1.4773   -4.5817   -2.4955 H   0  0  0  0  0  0  0  0  0  0  0  0
    2.3948   -4.2952   -1.0026 H   0  0  0  0  0  0  0  0  0  0  0  0
  2  7  1  0  0  0  0
  3  4  1  0  0  0  0
  4  1  1  0  0  0  0
  5  3  1  0  0  0  0
  6  5  2  0  0  0  0
  7  8  1  0  0  0  0
  8  3  2  0  0  0  0
  8 38  1  0  0  0  0
  9 10  2  0  0  0  0
 10 13  1  0  0  0  0
 10 14  1  0  0  0  0
 11  6  1  0  0  0  0
 11 39  1  0  0  0  0
 12  6  1  0  0  0  0
 12 40  1  0  0  0  0
 13 12  2  0  0  0  0
 13 41  1  0  0  0  0
 14 11  2  0  0  0  0
 14 42  1  0  0  0  0
 15  1  1  0  0  0  0
 15 43  1  0  0  0  0
 16  2  1  0  0  0  0
 16 44  1  0  0  0  0
 17  4  2  0  0  0  0
 17 45  1  0  0  0  0
 18  1  2  0  0  0  0
 19  1  2  0  0  0  0
 20  2  2  0  0  0  0
 21  2  2  0  0  0  0
 22  5  1  0  0  0  0
 23 29  2  0  0  0  0
 23 28  1  0  0  0  0
 24 17  1  0  0  0  0
 24  7  2  0  0  0  0
 24 46  1  0  0  0  0
 25 23  1  0  0  0  0
 26 22  2  0  0  0  0
 26 47  1  0  0  0  0
 27 22  1  0  0  0  0
 27 48  1  0  0  0  0
 28 27  2  0  0  0  0
 28 49  1  0  0  0  0
 29 26  1  0  0  0  0
 29 50  1  0  0  0  0
 30  9  1  0  0  0  0
 30 51  1  0  0  0  0
 30 52  1  0  0  0  0
 31  9  1  0  0  0  0
 31 53  1  0  0  0  0
 31 54  1  0  0  0  0
 32 25  1  0  0  0  0
 32 55  1  0  0  0  0
 32 56  1  0  0  0  0
 33 25  1  0  0  0  0
 33 57  1  0  0  0  0
 33 58  1  0  0  0  0
 34 31  1  0  0  0  0
 34 59  1  0  0  0  0
 34 60  1  0  0  0  0
 34 61  1  0  0  0  0
 35 30  1  0  0  0  0
 35 62  1  0  0  0  0
 35 63  1  0  0  0  0
 35 64  1  0  0  0  0
 36 32  1  0  0  0  0
 36 65  1  0  0  0  0
 36 66  1  0  0  0  0
 36 67  1  0  0  0  0
 37 33  1  0  0  0  0
 37 68  1  0  0  0  0
 37 69  1  0  0  0  0
 37 70  1  0  0  0  0
M  CHG  1   9   1
M  END
>  <DRUGBANK_ID>
DB09136

>  <COMMON_NAME>
Isosulfan blue

>  <CAS_NUMBER>
748080-29-7

>  <UNII>
NS6Q291771

>  <SYNONYMS>
Isosulfan blue inner salt

$$$$
