OSB
 OpenBabel10282417123D

 26 26  0  0  0  0  0  0  0  0999 V2000
    0.7679   -0.0849   -0.0940 O   0  0  0  0  0  0  0  0  0  0  0  0
    1.0464    2.1197   -0.0160 O   0  0  0  0  0  0  0  0  0  0  0  0
    0.3002    1.1711   -0.1943 C   0  0  0  0  0  0  0  0  0  0  0  0
   -3.2265    1.2460   -1.7118 C   0  0  0  0  0  0  0  0  0  0  0  0
   -3.9324    0.6963   -0.6435 C   0  0  0  0  0  0  0  0  0  0  0  0
   -3.2721    0.4480    0.5497 C   0  0  0  0  0  0  0  0  0  0  0  0
   -1.9008    0.6786    0.6463 C   0  0  0  0  0  0  0  0  0  0  0  0
   -1.1617    1.1694   -0.4433 C   0  0  0  0  0  0  0  0  0  0  0  0
   -1.8464    1.5609   -1.6096 C   0  0  0  0  0  0  0  0  0  0  0  0
   -1.3374    2.4132   -2.7347 C   0  0  0  0  0  0  0  0  0  0  0  0
    0.0953    2.8757   -2.8162 C   0  0  0  0  0  0  0  0  0  0  0  0
   -2.1583    2.8320   -3.5568 O   0  0  0  0  0  0  0  0  0  0  0  0
    0.9097    2.2216   -3.9061 C   0  0  0  0  0  0  0  0  0  0  0  0
    0.5187    2.7417   -5.2515 C   0  0  0  0  0  0  0  0  0  0  0  0
    1.1654    3.5180   -5.9319 O   0  0  0  0  0  0  0  0  0  0  0  0
   -0.6855    2.2884   -5.6337 O   0  0  0  0  0  0  0  0  0  0  0  0
    1.7278    0.0381    0.0793 H   0  0  0  0  0  0  0  0  0  0  0  0
   -3.7810    1.4563   -2.6298 H   0  0  0  0  0  0  0  0  0  0  0  0
   -4.9988    0.5008   -0.7357 H   0  0  0  0  0  0  0  0  0  0  0  0
   -3.8168    0.0553    1.4033 H   0  0  0  0  0  0  0  0  0  0  0  0
   -1.3950    0.4847    1.5898 H   0  0  0  0  0  0  0  0  0  0  0  0
    0.1208    3.9709   -2.8353 H   0  0  0  0  0  0  0  0  0  0  0  0
    0.6059    2.6244   -1.9195 H   0  0  0  0  0  0  0  0  0  0  0  0
    1.9670    2.4677   -3.7415 H   0  0  0  0  0  0  0  0  0  0  0  0
    0.8330    1.1301   -3.8783 H   0  0  0  0  0  0  0  0  0  0  0  0
   -1.0309    2.9149   -6.3005 H   0  0  0  0  0  0  0  0  0  0  0  0
  1  3  1  0  0  0  0
  1 17  1  0  0  0  0
  2  3  2  0  0  0  0
  3  8  1  0  0  0  0
  4  5  2  0  0  0  0
  4  9  1  0  0  0  0
  4 18  1  0  0  0  0
  5  6  1  0  0  0  0
  5 19  1  0  0  0  0
  6  7  2  0  0  0  0
  6 20  1  0  0  0  0
  7  8  1  0  0  0  0
  7 21  1  0  0  0  0
  8  9  2  0  0  0  0
  9 10  1  0  0  0  0
 10 11  1  0  0  0  0
 10 12  2  0  0  0  0
 11 13  1  0  0  0  0
 11 22  1  0  0  0  0
 11 23  1  0  0  0  0
 13 14  1  0  0  0  0
 13 24  1  0  0  0  0
 13 25  1  0  0  0  0
 14 15  2  0  0  0  0
 14 16  1  0  0  0  0
 16 26  1  0  0  0  0
M  END
>  <DRUGBANK_ID>
DB02251

>  <SECONDARY_ACCESSION_NUMBERS>
EXPT02448

>  <COMMON_NAME>
O-Succinylbenzoate

>  <CAS_NUMBER>
27415-09-4

>  <UNII>
XX4Y7I0FTT

$$$$
