
 OpenBabel10282417153D

143150  0  0  1  0  0  0  0  0999 V2000
    3.6994    0.5434    0.4755 C   0  0  2  0  0  0  0  0  0  0  0  0
    5.1387    0.6990    0.8381 C   0  0  0  0  0  0  0  0  0  0  0  0
    3.2871   -0.6404   -0.2105 N   0  0  0  0  0  0  0  0  0  0  0  0
    3.4146    1.7279   -0.4041 C   0  0  0  0  0  0  0  0  0  0  0  0
    5.2904    1.8532    1.8213 C   0  0  0  0  0  0  0  0  0  0  0  0
    4.3241    1.7819    3.0429 C   0  0  0  0  0  0  0  0  0  0  0  0
    4.5362    0.6560    4.0446 C   0  0  0  0  0  0  0  0  0  0  0  0
    5.8279    0.7895    4.6828 N   0  0  0  0  0  0  0  0  0  0  0  0
    2.5272    2.5921    0.1849 N   0  0  0  0  0  0  0  0  0  0  0  0
    3.7363    1.7754   -1.5864 O   0  0  0  0  0  0  0  0  0  0  0  0
    2.4340   -1.5494    0.4170 C   0  0  0  0  0  0  0  0  0  0  0  0
    1.9306   -2.5788   -0.5912 C   0  0  2  0  0  0  0  0  0  0  0  0
    2.3647   -1.6427    1.6368 O   0  0  0  0  0  0  0  0  0  0  0  0
    1.0085   -3.6496   -0.1200 N   0  0  0  0  0  0  0  0  0  0  0  0
    3.1969   -3.0346   -1.6269 C   0  0  0  0  0  0  0  0  0  0  0  0
    1.3504    2.8163   -0.6173 C   0  0  1  0  0  0  0  0  0  0  0  0
    0.7587    1.4418   -0.9736 C   0  0  0  0  0  0  0  0  0  0  0  0
    0.3695    3.6582    0.1918 C   0  0  0  0  0  0  0  0  0  0  0  0
    0.7324    4.1749    1.2473 O   0  0  0  0  0  0  0  0  0  0  0  0
   -0.9414    3.6878   -0.2924 N   0  0  0  0  0  0  0  0  0  0  0  0
   -0.2222    1.4828   -2.0895 C   0  0  0  0  0  0  0  0  0  0  0  0
   -0.0459    2.1356   -3.2735 C   0  0  0  0  0  0  0  0  0  0  0  0
   -1.0873    2.1679   -4.2051 C   0  0  0  0  0  0  0  0  0  0  0  0
   -2.3792    1.7922   -3.8521 C   0  0  0  0  0  0  0  0  0  0  0  0
   -2.5176    0.9965   -2.7469 C   0  0  0  0  0  0  0  0  0  0  0  0
   -1.3981    0.8111   -1.9264 C   0  0  0  0  0  0  0  0  0  0  0  0
   -3.5352    2.2785   -4.3933 O   0  0  0  0  0  0  0  0  0  0  0  0
   -3.4128    3.2296   -5.4582 C   0  0  0  0  0  0  0  0  0  0  0  0
   -2.9761    4.6459   -5.0770 C   0  0  0  0  0  0  0  0  0  0  0  0
   -3.5227    5.7462   -5.7361 C   0  0  0  0  0  0  0  0  0  0  0  0
   -3.1407    7.0491   -5.3762 C   0  0  0  0  0  0  0  0  0  0  0  0
   -2.1957    7.2822   -4.3741 C   0  0  0  0  0  0  0  0  0  0  0  0
   -1.6345    6.2149   -3.7188 C   0  0  0  0  0  0  0  0  0  0  0  0
   -2.0151    4.9383   -4.0930 C   0  0  0  0  0  0  0  0  0  0  0  0
   -1.9877    2.9491    0.4831 C   0  0  2  0  0  0  0  0  0  0  0  0
   -3.4776    2.5127   -0.5364 C   0  0  0  0  0  0  0  0  0  0  0  0
   -2.1271    3.8482    1.8157 C   0  0  0  0  0  0  0  0  0  0  0  0
   -2.5972    3.3441    3.1907 C   0  0  0  0  0  0  0  0  0  0  0  0
   -2.1012    2.1146    3.7185 C   0  0  0  0  0  0  0  0  0  0  0  0
   -2.8604    1.3886    4.6212 C   0  0  0  0  0  0  0  0  0  0  0  0
   -4.0554    1.9305    5.0473 C   0  0  0  0  0  0  0  0  0  0  0  0
   -4.5391    3.1785    4.6257 C   0  0  0  0  0  0  0  0  0  0  0  0
   -3.8501    3.8445    3.6348 C   0  0  0  0  0  0  0  0  0  0  0  0
   -4.2712    1.0438   -0.2390 N   0  0  0  0  0  0  0  0  0  0  0  0
   -3.8943    3.2969   -1.3704 O   0  0  0  0  0  0  0  0  0  0  0  0
   -0.3667   -3.5793   -0.4537 C   0  0  0  0  0  0  0  0  0  0  0  0
   -0.8085   -4.3056   -1.3437 O   0  0  0  0  0  0  0  0  0  0  0  0
   -1.2859   -2.5163    0.3329 C   0  0  2  0  0  0  0  0  0  0  0  0
   -1.4101   -2.9288    1.7904 C   0  0  0  0  0  0  0  0  0  0  0  0
   -2.6122   -2.1073   -0.2296 N   0  0  0  0  0  0  0  0  0  0  0  0
   -0.2925   -2.8468    2.6121 C   0  0  0  0  0  0  0  0  0  0  0  0
   -0.3568   -3.0653    3.9753 C   0  0  0  0  0  0  0  0  0  0  0  0
   -1.5912   -3.2601    4.5666 C   0  0  0  0  0  0  0  0  0  0  0  0
   -2.7290   -3.3352    3.7769 C   0  0  0  0  0  0  0  0  0  0  0  0
   -2.6087   -3.3145    2.3933 C   0  0  0  0  0  0  0  0  0  0  0  0
   -3.5078   -1.2863    0.5106 C   0  0  0  0  0  0  0  0  0  0  0  0
   -4.5334   -1.8477    0.9060 O   0  0  0  0  0  0  0  0  0  0  0  0
   -3.3289    0.3844    0.5442 C   0  0  2  0  0  0  0  0  0  0  0  0
   -5.4969    0.7691    0.7500 C   0  0  0  0  0  0  0  0  0  0  0  0
   -3.7577    1.4133    1.7130 C   0  0  0  0  0  0  0  0  0  0  0  0
   -4.9267    0.7081    2.1909 C   0  0  1  0  0  0  0  0  0  0  0  0
   -5.8005    1.0051    3.2748 O   0  0  0  0  0  0  0  0  0  0  0  0
   -6.7920    1.8600    3.3177 C   0  0  0  0  0  0  0  0  0  0  0  0
   -7.1126    2.6430    2.3267 O   0  0  0  0  0  0  0  0  0  0  0  0
   -7.4707    1.9725    4.4805 N   0  0  0  0  0  0  0  0  0  0  0  0
   -7.1812    1.5042    5.8685 C   0  0  0  0  0  0  0  0  0  0  0  0
   -7.1711    2.6419    6.9189 C   0  0  0  0  0  0  0  0  0  0  0  0
   -8.4990    3.2333    7.0277 N   0  0  0  0  0  0  0  0  0  0  0  0
    4.9675   -3.5178   -1.1394 C   0  0  0  0  0  0  0  0  0  0  0  0
    6.2615   -3.0191    0.0022 C   0  0  0  0  0  0  0  0  0  0  0  0
    4.5485   -4.3310   -0.0731 C   0  0  0  0  0  0  0  0  0  0  0  0
    5.5209   -2.8129    1.1167 C   0  0  0  0  0  0  0  0  0  0  0  0
    4.3471   -3.1081    0.5902 N   0  0  0  0  0  0  0  0  0  0  0  0
    5.6774   -2.0998    2.2645 C   0  0  0  0  0  0  0  0  0  0  0  0
    6.8787   -1.6089    2.6366 C   0  0  0  0  0  0  0  0  0  0  0  0
    7.9000   -1.9821    1.8196 C   0  0  0  0  0  0  0  0  0  0  0  0
    7.6321   -2.6266    0.4670 C   0  0  0  0  0  0  0  0  0  0  0  0
    3.0470    0.5346    1.3395 H   0  0  0  0  0  0  0  0  0  0  0  0
    5.4630   -0.1601    1.3560 H   0  0  0  0  0  0  0  0  0  0  0  0
    5.7999    0.7593   -0.0386 H   0  0  0  0  0  0  0  0  0  0  0  0
    3.5378   -0.6859   -1.1954 H   0  0  0  0  0  0  0  0  0  0  0  0
    6.3347    1.8837    2.1371 H   0  0  0  0  0  0  0  0  0  0  0  0
    5.1085    2.7908    1.2830 H   0  0  0  0  0  0  0  0  0  0  0  0
    4.3761    2.7340    3.5684 H   0  0  0  0  0  0  0  0  0  0  0  0
    3.2797    1.7021    2.7373 H   0  0  0  0  0  0  0  0  0  0  0  0
    3.7521    0.6467    4.8066 H   0  0  0  0  0  0  0  0  0  0  0  0
    4.4176   -0.3005    3.5605 H   0  0  0  0  0  0  0  0  0  0  0  0
    6.0932   -0.1012    5.1009 H   0  0  0  0  0  0  0  0  0  0  0  0
    6.5389    1.0135    3.9884 H   0  0  0  0  0  0  0  0  0  0  0  0
    2.4124    2.6233    1.1973 H   0  0  0  0  0  0  0  0  0  0  0  0
    1.2314   -1.9267   -1.1394 H   0  0  0  0  0  0  0  0  0  0  0  0
    1.1932   -3.9970    0.8214 H   0  0  0  0  0  0  0  0  0  0  0  0
    2.7542   -3.9078   -2.1323 H   0  0  0  0  0  0  0  0  0  0  0  0
    3.2559   -2.2353   -2.3744 H   0  0  0  0  0  0  0  0  0  0  0  0
    1.6837    3.3887   -1.4780 H   0  0  0  0  0  0  0  0  0  0  0  0
    1.4917    0.7239   -1.3372 H   0  0  0  0  0  0  0  0  0  0  0  0
    0.3694    0.9673   -0.0508 H   0  0  0  0  0  0  0  0  0  0  0  0
   -1.0809    3.6824   -1.2955 H   0  0  0  0  0  0  0  0  0  0  0  0
    0.8541    2.7113   -3.4473 H   0  0  0  0  0  0  0  0  0  0  0  0
   -0.9068    2.7355   -5.1056 H   0  0  0  0  0  0  0  0  0  0  0  0
   -3.5264    0.6802   -2.4721 H   0  0  0  0  0  0  0  0  0  0  0  0
   -1.3547    0.2722   -1.0048 H   0  0  0  0  0  0  0  0  0  0  0  0
   -2.7824    2.7914   -6.2400 H   0  0  0  0  0  0  0  0  0  0  0  0
   -4.4163    3.2928   -5.9026 H   0  0  0  0  0  0  0  0  0  0  0  0
   -4.2681    5.6058   -6.5157 H   0  0  0  0  0  0  0  0  0  0  0  0
   -3.6040    7.8974   -5.8673 H   0  0  0  0  0  0  0  0  0  0  0  0
   -1.8984    8.2841   -4.0894 H   0  0  0  0  0  0  0  0  0  0  0  0
   -0.9260    6.3310   -2.9033 H   0  0  0  0  0  0  0  0  0  0  0  0
   -1.5037    4.1943   -3.5226 H   0  0  0  0  0  0  0  0  0  0  0  0
   -1.4746    2.0168    0.7609 H   0  0  0  0  0  0  0  0  0  0  0  0
   -1.1620    4.2366    2.1330 H   0  0  0  0  0  0  0  0  0  0  0  0
   -2.6991    4.7260    1.5059 H   0  0  0  0  0  0  0  0  0  0  0  0
   -1.3548    1.5382    3.1773 H   0  0  0  0  0  0  0  0  0  0  0  0
   -2.7291    0.3118    4.7653 H   0  0  0  0  0  0  0  0  0  0  0  0
   -4.7163    1.1477    5.3767 H   0  0  0  0  0  0  0  0  0  0  0  0
   -5.5792    3.4742    4.7542 H   0  0  0  0  0  0  0  0  0  0  0  0
   -4.4798    4.4312    2.9420 H   0  0  0  0  0  0  0  0  0  0  0  0
   -0.7317   -1.5776    0.2727 H   0  0  0  0  0  0  0  0  0  0  0  0
   -3.0919   -2.9611   -0.5226 H   0  0  0  0  0  0  0  0  0  0  0  0
    0.6687   -2.6140    2.2061 H   0  0  0  0  0  0  0  0  0  0  0  0
    0.5586   -3.0372    4.5569 H   0  0  0  0  0  0  0  0  0  0  0  0
   -1.6641   -3.3750    5.6404 H   0  0  0  0  0  0  0  0  0  0  0  0
   -3.7158   -3.4120    4.2239 H   0  0  0  0  0  0  0  0  0  0  0  0
   -3.5001   -3.5374    1.8135 H   0  0  0  0  0  0  0  0  0  0  0  0
   -2.6947    0.4119   -0.2672 H   0  0  0  0  0  0  0  0  0  0  0  0
   -6.2696    1.4952    0.5894 H   0  0  0  0  0  0  0  0  0  0  0  0
   -5.8560   -0.2447    0.6967 H   0  0  0  0  0  0  0  0  0  0  0  0
   -3.8533    2.4176    2.0633 H   0  0  0  0  0  0  0  0  0  0  0  0
   -4.2356    2.2749    1.1440 H   0  0  0  0  0  0  0  0  0  0  0  0
   -4.2861   -0.0690    2.6292 H   0  0  0  0  0  0  0  0  0  0  0  0
   -8.2583    2.5910    4.4048 H   0  0  0  0  0  0  0  0  0  0  0  0
   -7.9203    0.7446    6.1234 H   0  0  0  0  0  0  0  0  0  0  0  0
   -6.2542    0.9777    5.9923 H   0  0  0  0  0  0  0  0  0  0  0  0
   -6.8670    2.2364    7.8922 H   0  0  0  0  0  0  0  0  0  0  0  0
   -6.4452    3.4328    6.6921 H   0  0  0  0  0  0  0  0  0  0  0  0
   -8.4896    3.9530    7.7488 H   0  0  0  0  0  0  0  0  0  0  0  0
   -8.7224    3.7075    6.1560 H   0  0  0  0  0  0  0  0  0  0  0  0
    5.0505   -5.0733    0.5364 H   0  0  0  0  0  0  0  0  0  0  0  0
    4.1500   -2.2355    0.1124 H   0  0  0  0  0  0  0  0  0  0  0  0
    4.7387   -1.8045    2.6748 H   0  0  0  0  0  0  0  0  0  0  0  0
    6.9806   -0.9534    3.4849 H   0  0  0  0  0  0  0  0  0  0  0  0
    8.8847   -1.8024    2.2763 H   0  0  0  0  0  0  0  0  0  0  0  0
    8.5840   -2.9690    0.0859 H   0  0  0  0  0  0  0  0  0  0  0  0
  1  3  1  0  0  0  0
  1  4  1  0  0  0  0
  1 78  1  1  0  0  0
  1  2  1  0  0  0  0
  2  5  1  0  0  0  0
  2 79  1  0  0  0  0
  2 80  1  0  0  0  0
  3 11  1  0  0  0  0
  3 81  1  0  0  0  0
  4  9  1  0  0  0  0
  4 10  2  0  0  0  0
  5  6  1  0  0  0  0
  5 82  1  0  0  0  0
  5 83  1  0  0  0  0
  6  7  1  0  0  0  0
  6 84  1  0  0  0  0
  6 85  1  0  0  0  0
  7  8  1  0  0  0  0
  7 86  1  0  0  0  0
  7 87  1  0  0  0  0
  8 88  1  0  0  0  0
  8 89  1  0  0  0  0
  9 16  1  0  0  0  0
  9 90  1  0  0  0  0
 11 12  1  0  0  0  0
 11 13  2  0  0  0  0
 12 14  1  0  0  0  0
 12 91  1  6  0  0  0
 12 15  1  0  0  0  0
 14 46  1  0  0  0  0
 14 92  1  0  0  0  0
 15 69  1  0  0  0  0
 15 93  1  0  0  0  0
 15 94  1  0  0  0  0
 16 17  1  0  0  0  0
 16 18  1  0  0  0  0
 16 95  1  6  0  0  0
 17 21  1  0  0  0  0
 17 96  1  0  0  0  0
 17 97  1  0  0  0  0
 18 19  2  0  0  0  0
 18 20  1  0  0  0  0
 20 35  1  0  0  0  0
 20 98  1  0  0  0  0
 21 22  2  0  0  0  0
 21 26  1  0  0  0  0
 22 23  1  0  0  0  0
 22 99  1  0  0  0  0
 23 24  2  0  0  0  0
 23100  1  0  0  0  0
 24 25  1  0  0  0  0
 24 27  1  0  0  0  0
 25 26  2  0  0  0  0
 25101  1  0  0  0  0
 26102  1  0  0  0  0
 27 28  1  0  0  0  0
 28 29  1  0  0  0  0
 28103  1  0  0  0  0
 28104  1  0  0  0  0
 29 30  2  0  0  0  0
 29 34  1  0  0  0  0
 30 31  1  0  0  0  0
 30105  1  0  0  0  0
 31 32  2  0  0  0  0
 31106  1  0  0  0  0
 32 33  1  0  0  0  0
 32107  1  0  0  0  0
 33 34  2  0  0  0  0
 33108  1  0  0  0  0
 34109  1  0  0  0  0
 35 36  1  0  0  0  0
 35 37  1  0  0  0  0
 35110  1  1  0  0  0
 36 44  1  0  0  0  0
 36 45  2  0  0  0  0
 37 38  1  0  0  0  0
 37111  1  0  0  0  0
 37112  1  0  0  0  0
 38 39  2  0  0  0  0
 38 43  1  0  0  0  0
 39 40  1  0  0  0  0
 39113  1  0  0  0  0
 40 41  2  0  0  0  0
 40114  1  0  0  0  0
 41 42  1  0  0  0  0
 41115  1  0  0  0  0
 42 43  2  0  0  0  0
 42116  1  0  0  0  0
 43117  1  0  0  0  0
 44 58  1  0  0  0  0
 44 59  1  0  0  0  0
 46 47  2  0  0  0  0
 46 48  1  0  0  0  0
 48 49  1  0  0  0  0
 48 50  1  0  0  0  0
 48118  1  1  0  0  0
 49 51  2  0  0  0  0
 49 55  1  0  0  0  0
 50 56  1  0  0  0  0
 50119  1  0  0  0  0
 51 52  1  0  0  0  0
 51120  1  0  0  0  0
 52 53  2  0  0  0  0
 52121  1  0  0  0  0
 53 54  1  0  0  0  0
 53122  1  0  0  0  0
 54 55  2  0  0  0  0
 54123  1  0  0  0  0
 55124  1  0  0  0  0
 56 57  2  0  0  0  0
 56 58  1  0  0  0  0
 58 60  1  0  0  0  0
 58125  1  6  0  0  0
 59 61  1  0  0  0  0
 59126  1  0  0  0  0
 59127  1  0  0  0  0
 60 61  1  0  0  0  0
 60128  1  0  0  0  0
 60129  1  0  0  0  0
 61 62  1  0  0  0  0
 61130  1  1  0  0  0
 62 63  1  0  0  0  0
 63 64  2  0  0  0  0
 63 65  1  0  0  0  0
 65 66  1  0  0  0  0
 65131  1  0  0  0  0
 66 67  1  0  0  0  0
 66132  1  0  0  0  0
 66133  1  0  0  0  0
 67 68  1  0  0  0  0
 67134  1  0  0  0  0
 67135  1  0  0  0  0
 68136  1  0  0  0  0
 68137  1  0  0  0  0
 70 69  1  0  0  0  0
 70 72  2  0  0  0  0
 71 69  2  0  0  0  0
 71138  1  0  0  0  0
 72 74  1  0  0  0  0
 73 71  1  0  0  0  0
 73 72  1  0  0  0  0
 73139  1  0  0  0  0
 74140  1  0  0  0  0
 75 74  2  0  0  0  0
 75141  1  0  0  0  0
 76 75  1  0  0  0  0
 76142  1  0  0  0  0
 77 70  1  0  0  0  0
 77 76  2  0  0  0  0
 77143  1  0  0  0  0
M  END
>  <DRUGBANK_ID>
DB06663

>  <COMMON_NAME>
Pasireotide

>  <CAS_NUMBER>
396091-73-9

>  <UNII>
98H1T17066

>  <SYNONYMS>
cyclo((4R)-4-(2-aminoethylcarbamoyloxy)-L-prolyl-L-phenylglycyl-D-tryptophyl-L-lysyl-4-O-benzyl-L-tyrosyl-L- phenylalanyl-); Pasireotida; Pasireotide; Pasir√©otide; Pasireotidum

$$$$
