
 OpenBabel10282417193D

  7  6  0  0  0  0  0  0  0  0999 V2000
    1.0873    0.0018   -0.0928 C   0  0  0  0  0  0  0  0  0  0  0  0
    0.5871    0.0421   -1.4654 N   0  0  0  0  0  0  0  0  0  0  0  0
    0.9077    0.9819   -2.0906 C   0  0  0  0  0  0  0  0  0  0  0  0
    1.2162    1.9144   -2.7359 O   0  0  0  0  0  0  0  0  0  0  0  0
    0.7227   -0.9156    0.3822 H   0  0  0  0  0  0  0  0  0  0  0  0
    0.7218    0.8451    0.5052 H   0  0  0  0  0  0  0  0  0  0  0  0
    2.1827   -0.0244   -0.0528 H   0  0  0  0  0  0  0  0  0  0  0  0
  1  2  1  0  0  0  0
  1  5  1  0  0  0  0
  1  6  1  0  0  0  0
  1  7  1  0  0  0  0
  2  3  2  0  0  0  0
  3  4  2  0  0  0  0
M  END
>  <DRUGBANK_ID>
DB12765

>  <COMMON_NAME>
Methyl isocyanate

>  <CAS_NUMBER>
624-83-9

>  <UNII>
C588JJ4BV9

>  <SYNONYMS>
MIC

$$$$
