
 OpenBabel10282417133D

 55 54  0  0  0  0  0  0  0  0999 V2000
    1.5420    0.3219    0.1086 N   0  0  0  0  0  0  0  0  0  0  0  0
    1.0559    1.3575   -0.8503 C   0  0  1  0  0  0  0  0  0  0  0  0
    1.2534    0.8938   -2.2752 C   0  0  0  0  0  0  0  0  0  0  0  0
    0.7445   -0.5216   -2.6845 C   0  0  0  0  0  0  0  0  0  0  0  0
   -0.7173   -1.0622   -2.6061 C   0  0  0  0  0  0  0  0  0  0  0  0
   -1.2302   -1.4440   -3.6716 O   0  0  0  0  0  0  0  0  0  0  0  0
   -1.5022   -1.1463   -1.4427 N   0  0  0  0  0  0  0  0  0  0  0  0
   -1.1863   -0.8276    0.0481 C   0  0  1  0  0  0  0  0  0  0  0  0
   -1.4993    0.5660    1.0802 C   0  0  0  0  0  0  0  0  0  0  0  0
   -1.5012   -1.9590    0.9389 C   0  0  0  0  0  0  0  0  0  0  0  0
   -0.6020   -2.6807    1.3951 O   0  0  0  0  0  0  0  0  0  0  0  0
   -2.8170   -2.0965    1.2610 N   0  0  0  0  0  0  0  0  0  0  0  0
   -3.9010   -1.2484    0.8034 C   0  0  0  0  0  0  0  0  0  0  0  0
   -4.9546   -1.7268   -0.1609 C   0  0  0  0  0  0  0  0  0  0  0  0
   -6.1484   -1.5187   -0.0677 O   0  0  0  0  0  0  0  0  0  0  0  0
   -4.4055   -2.1889   -1.3084 O   0  0  0  0  0  0  0  0  0  0  0  0
   -0.3192    1.9845   -0.7658 C   0  0  0  0  0  0  0  0  0  0  0  0
   -0.6711    3.0069   -0.2764 O   0  0  0  0  0  0  0  0  0  0  0  0
   -1.1757    1.0759   -1.2209 O   0  0  0  0  0  0  0  0  0  0  0  0
   -3.1916    1.7090    0.9703 S   0  0  0  0  0  0  0  0  0  0  0  0
   -4.0908    1.5047   -0.7621 C   0  0  0  0  0  0  0  0  0  0  0  0
   -3.8389    2.6104   -1.8053 C   0  0  0  0  0  0  0  0  0  0  0  0
   -2.5503    2.6942   -2.6177 C   0  0  0  0  0  0  0  0  0  0  0  0
   -2.2064    1.3541   -3.2861 C   0  0  0  0  0  0  0  0  0  0  0  0
   -2.8558    1.0646   -4.5752 C   0  0  0  0  0  0  0  0  0  0  0  0
   -2.2901    2.1239   -5.4604 C   0  0  0  0  0  0  0  0  0  0  0  0
    1.4103   -0.6459   -0.2120 H   0  0  0  0  0  0  0  0  0  0  0  0
    2.5581    0.3144    0.0314 H   0  0  0  0  0  0  0  0  0  0  0  0
    1.6032    2.2463   -0.5728 H   0  0  0  0  0  0  0  0  0  0  0  0
    0.8684    1.6690   -2.9533 H   0  0  0  0  0  0  0  0  0  0  0  0
    2.3363    0.9064   -2.4124 H   0  0  0  0  0  0  0  0  0  0  0  0
    1.0059   -0.5614   -3.7616 H   0  0  0  0  0  0  0  0  0  0  0  0
    1.3590   -1.2954   -2.2252 H   0  0  0  0  0  0  0  0  0  0  0  0
   -2.4454   -1.4451   -1.6940 H   0  0  0  0  0  0  0  0  0  0  0  0
   -0.1490   -0.8660   -0.0853 H   0  0  0  0  0  0  0  0  0  0  0  0
   -1.2189    0.3567    2.1332 H   0  0  0  0  0  0  0  0  0  0  0  0
   -0.7264    1.3454    1.0816 H   0  0  0  0  0  0  0  0  0  0  0  0
   -3.0061   -2.7845    1.9672 H   0  0  0  0  0  0  0  0  0  0  0  0
   -4.3475   -0.6947    1.6329 H   0  0  0  0  0  0  0  0  0  0  0  0
   -3.4150   -0.5389    0.1658 H   0  0  0  0  0  0  0  0  0  0  0  0
   -5.1688   -2.4340   -1.8750 H   0  0  0  0  0  0  0  0  0  0  0  0
   -2.0933    1.0516   -0.9062 H   0  0  0  0  0  0  0  0  0  0  0  0
   -3.9836    0.5283   -1.2456 H   0  0  0  0  0  0  0  0  0  0  0  0
   -5.1644    1.5108   -0.5154 H   0  0  0  0  0  0  0  0  0  0  0  0
   -4.5972    2.4606   -2.5810 H   0  0  0  0  0  0  0  0  0  0  0  0
   -4.0186    3.5708   -1.3281 H   0  0  0  0  0  0  0  0  0  0  0  0
   -2.5911    3.5440   -3.2927 H   0  0  0  0  0  0  0  0  0  0  0  0
   -1.7078    3.0751   -2.0650 H   0  0  0  0  0  0  0  0  0  0  0  0
   -1.1200    1.2789   -3.4220 H   0  0  0  0  0  0  0  0  0  0  0  0
   -2.5694    0.5174   -2.7028 H   0  0  0  0  0  0  0  0  0  0  0  0
   -2.5832    0.0645   -4.9327 H   0  0  0  0  0  0  0  0  0  0  0  0
   -3.9296    1.0590   -4.3830 H   0  0  0  0  0  0  0  0  0  0  0  0
   -1.1925    2.0410   -5.4694 H   0  0  0  0  0  0  0  0  0  0  0  0
   -2.7132    2.0351   -6.4445 H   0  0  0  0  0  0  0  0  0  0  0  0
   -2.5195    3.1164   -5.0777 H   0  0  0  0  0  0  0  0  0  0  0  0
  1 27  1  0  0  0  0
  1 28  1  0  0  0  0
  2  1  1  0  0  0  0
  2  3  1  0  0  0  0
  2 17  1  0  0  0  0
  2 29  1  1  0  0  0
  3  4  1  0  0  0  0
  3 30  1  0  0  0  0
  3 31  1  0  0  0  0
  4  5  1  0  0  0  0
  4 32  1  0  0  0  0
  4 33  1  0  0  0  0
  5  6  2  0  0  0  0
  5  7  1  0  0  0  0
  7  8  1  0  0  0  0
  7 34  1  0  0  0  0
  8  9  1  0  0  0  0
  8 10  1  0  0  0  0
  8 35  1  6  0  0  0
  9 20  1  0  0  0  0
  9 36  1  0  0  0  0
  9 37  1  0  0  0  0
 10 11  2  0  0  0  0
 10 12  1  0  0  0  0
 12 13  1  0  0  0  0
 12 38  1  0  0  0  0
 13 14  1  0  0  0  0
 13 39  1  0  0  0  0
 13 40  1  0  0  0  0
 14 15  2  0  0  0  0
 14 16  1  0  0  0  0
 16 41  1  0  0  0  0
 17 18  2  0  0  0  0
 17 19  1  0  0  0  0
 19 42  1  0  0  0  0
 20 21  1  0  0  0  0
 21 22  1  0  0  0  0
 21 43  1  0  0  0  0
 21 44  1  0  0  0  0
 22 23  1  0  0  0  0
 22 45  1  0  0  0  0
 22 46  1  0  0  0  0
 23 24  1  0  0  0  0
 23 47  1  0  0  0  0
 23 48  1  0  0  0  0
 24 25  1  0  0  0  0
 24 49  1  0  0  0  0
 24 50  1  0  0  0  0
 25 26  1  0  0  0  0
 25 51  1  0  0  0  0
 25 52  1  0  0  0  0
 26 53  1  0  0  0  0
 26 54  1  0  0  0  0
 26 55  1  0  0  0  0
M  END
>  <DRUGBANK_ID>
DB04132

>  <SECONDARY_ACCESSION_NUMBERS>
EXPT01664

>  <COMMON_NAME>
S-Hexylglutathione

>  <CAS_NUMBER>
24425-56-7

>  <UNII>
M73SNN908F

>  <SYNONYMS>
Hexylglutathione; S-Hexyl-glutathione; S-Hexyl-L-glutathione

$$$$
