
 OpenBabel10282417213D

 73 76  0  0  0  0  0  0  0  0999 V2000
   -1.1393   -0.5045    2.0593 Cl  0  0  0  0  0  0  0  0  0  0  0  0
   -2.2545   -0.3857    0.6038 C   0  0  2  0  0  0  0  0  0  0  0  0
   -3.2567   -1.5491    1.1466 C   0  0  2  0  0  0  0  0  0  0  0  0
   -2.9785    0.9871    0.4472 C   0  0  1  0  0  0  0  0  0  0  0  0
   -1.3318   -0.5011   -0.9117 C   0  0  2  0  0  0  0  0  0  0  0  0
   -3.9102   -2.4684    0.1586 C   0  0  0  0  0  0  0  0  0  0  0  0
   -4.3274   -0.8438    2.1681 C   0  0  0  0  0  0  0  0  0  0  0  0
   -2.4976   -2.9173    1.7073 C   0  0  0  0  0  0  0  0  0  0  0  0
   -4.4914    0.8990    0.4850 O   0  0  0  0  0  0  0  0  0  0  0  0
   -2.1019    2.2850   -0.2937 C   0  0  0  0  0  0  0  0  0  0  0  0
   -0.2069    0.6974   -0.9581 C   0  0  1  0  0  0  0  0  0  0  0  0
   -1.1120   -1.9801   -0.8915 C   0  0  0  0  0  0  0  0  0  0  0  0
   -4.9130   -3.1793    0.8503 C   0  0  0  0  0  0  0  0  0  0  0  0
   -2.5802   -2.8622   -0.8837 C   0  0  2  0  0  0  0  0  0  0  0  0
   -5.5408   -1.3085    2.4706 C   0  0  0  0  0  0  0  0  0  0  0  0
   -0.8997    2.0450   -1.1476 C   0  0  1  0  0  0  0  0  0  0  0  0
    1.2521    1.0994   -1.4865 C   0  0  0  0  0  0  0  0  0  0  0  0
   -5.4357   -2.7417    2.2805 C   0  0  0  0  0  0  0  0  0  0  0  0
   -2.9508   -3.4302   -2.0586 F   0  0  0  0  0  0  0  0  0  0  0  0
    0.1841    3.0405   -0.6725 C   0  0  2  0  0  0  0  0  0  0  0  0
   -1.2930    2.3801   -2.6230 C   0  0  0  0  0  0  0  0  0  0  0  0
    1.4862    2.6630   -1.5404 C   0  0  2  0  0  0  0  0  0  0  0  0
   -5.4870   -3.4442    3.2605 O   0  0  0  0  0  0  0  0  0  0  0  0
    0.3523    3.2333    0.9676 C   0  0  0  0  0  0  0  0  0  0  0  0
    1.7432    2.7888   -3.1536 C   0  0  0  0  0  0  0  0  0  0  0  0
    1.0267    4.1688    1.4175 O   0  0  0  0  0  0  0  0  0  0  0  0
   -0.4315    2.3205    2.0081 C   0  0  0  0  0  0  0  0  0  0  0  0
   -1.9450    2.2489    2.1779 O   0  0  0  0  0  0  0  0  0  0  0  0
   -2.8134    3.3328    1.9664 C   0  0  0  0  0  0  0  0  0  0  0  0
   -2.5498    4.4202    2.5772 O   0  0  0  0  0  0  0  0  0  0  0  0
   -4.2391    3.1579    0.8924 C   0  0  0  0  0  0  0  0  0  0  0  0
   -4.5976    2.6874   -0.9387 C   0  0  0  0  0  0  0  0  0  0  0  0
   -4.2921    1.2239   -2.0167 C   0  0  0  0  0  0  0  0  0  0  0  0
   -4.7050   -0.2607   -1.7047 C   0  0  0  0  0  0  0  0  0  0  0  0
   -6.1420   -0.6266   -1.6807 C   0  0  0  0  0  0  0  0  0  0  0  0
   -3.0886    0.7057   -0.5271 H   0  0  0  0  0  0  0  0  0  0  0  0
   -1.9089   -0.3507   -1.8343 H   0  0  0  0  0  0  0  0  0  0  0  0
   -4.2157    0.2021    2.4738 H   0  0  0  0  0  0  0  0  0  0  0  0
   -2.7170   -3.1094    2.7374 H   0  0  0  0  0  0  0  0  0  0  0  0
   -2.8311   -3.8889    1.2423 H   0  0  0  0  0  0  0  0  0  0  0  0
   -1.4515   -3.0171    1.4244 H   0  0  0  0  0  0  0  0  0  0  0  0
   -5.2274    1.1333    1.0864 H   0  0  0  0  0  0  0  0  0  0  0  0
   -2.6049    3.1723   -0.6799 H   0  0  0  0  0  0  0  0  0  0  0  0
   -1.6720    2.9199    0.4210 H   0  0  0  0  0  0  0  0  0  0  0  0
    0.1401    0.5243    0.0439 H   0  0  0  0  0  0  0  0  0  0  0  0
   -0.2815   -2.4828   -1.4035 H   0  0  0  0  0  0  0  0  0  0  0  0
   -0.6477   -2.0141    0.0878 H   0  0  0  0  0  0  0  0  0  0  0  0
   -4.8994   -4.2653    0.9286 H   0  0  0  0  0  0  0  0  0  0  0  0
   -2.0889   -3.7088   -0.4385 H   0  0  0  0  0  0  0  0  0  0  0  0
   -6.3244   -0.8322    3.0580 H   0  0  0  0  0  0  0  0  0  0  0  0
    1.6869    0.5248   -2.3111 H   0  0  0  0  0  0  0  0  0  0  0  0
    1.9449    0.8275   -0.6712 H   0  0  0  0  0  0  0  0  0  0  0  0
   -0.1640    4.0619   -0.9258 H   0  0  0  0  0  0  0  0  0  0  0  0
   -0.9253    1.6293   -3.3240 H   0  0  0  0  0  0  0  0  0  0  0  0
   -2.3629    2.4528   -2.7959 H   0  0  0  0  0  0  0  0  0  0  0  0
   -1.0045    3.3893   -2.9332 H   0  0  0  0  0  0  0  0  0  0  0  0
    1.5083    3.7531   -1.7107 H   0  0  0  0  0  0  0  0  0  0  0  0
    2.6523    3.3973   -3.3181 H   0  0  0  0  0  0  0  0  0  0  0  0
    1.9701    1.8566   -3.6816 H   0  0  0  0  0  0  0  0  0  0  0  0
    0.9417    3.2837   -3.7137 H   0  0  0  0  0  0  0  0  0  0  0  0
   -0.0627    1.3723    1.6222 H   0  0  0  0  0  0  0  0  0  0  0  0
    0.0322    2.2643    2.9985 H   0  0  0  0  0  0  0  0  0  0  0  0
   -4.7599    2.5295    1.6165 H   0  0  0  0  0  0  0  0  0  0  0  0
   -4.9049    4.0161    1.0475 H   0  0  0  0  0  0  0  0  0  0  0  0
   -5.6732    2.8043   -1.0653 H   0  0  0  0  0  0  0  0  0  0  0  0
   -4.1525    3.4997   -1.5403 H   0  0  0  0  0  0  0  0  0  0  0  0
   -4.4466    1.4152   -3.0866 H   0  0  0  0  0  0  0  0  0  0  0  0
   -3.2173    1.0872   -2.1120 H   0  0  0  0  0  0  0  0  0  0  0  0
   -4.0673   -0.9979   -2.2181 H   0  0  0  0  0  0  0  0  0  0  0  0
   -4.4504   -0.5337   -0.7114 H   0  0  0  0  0  0  0  0  0  0  0  0
   -6.4564   -0.8142   -2.6982 H   0  0  0  0  0  0  0  0  0  0  0  0
   -6.2800   -1.5439   -1.0890 H   0  0  0  0  0  0  0  0  0  0  0  0
   -6.7029    0.1585   -1.1767 H   0  0  0  0  0  0  0  0  0  0  0  0
  2  3  1  0  0  0  0
  2  4  1  0  0  0  0
  2  5  1  0  0  0  0
  2  1  1  6  0  0  0
  3  6  1  0  0  0  0
  3  7  1  0  0  0  0
  3  8  1  1  0  0  0
  4 10  1  0  0  0  0
  4  9  1  0  0  0  0
  4 36  1  6  0  0  0
  5 11  1  0  0  0  0
  5 12  1  0  0  0  0
  5 37  1  1  0  0  0
  6 13  2  0  0  0  0
  6 14  1  0  0  0  0
  7 15  2  0  0  0  0
  7 38  1  0  0  0  0
  8 39  1  0  0  0  0
  8 40  1  0  0  0  0
  8 41  1  0  0  0  0
  9 42  1  0  0  0  0
 10 16  1  0  0  0  0
 10 43  1  0  0  0  0
 10 44  1  0  0  0  0
 11 17  1  0  0  0  0
 11 16  1  0  0  0  0
 11 45  1  6  0  0  0
 12 14  1  0  0  0  0
 12 46  1  0  0  0  0
 12 47  1  0  0  0  0
 13 18  1  0  0  0  0
 13 48  1  0  0  0  0
 14 19  1  0  0  0  0
 14 49  1  1  0  0  0
 15 18  1  0  0  0  0
 15 50  1  0  0  0  0
 16 20  1  0  0  0  0
 16 21  1  1  0  0  0
 17 22  1  0  0  0  0
 17 51  1  0  0  0  0
 17 52  1  0  0  0  0
 18 23  2  0  0  0  0
 20 22  1  0  0  0  0
 20 53  1  6  0  0  0
 20 24  1  0  0  0  0
 21 54  1  0  0  0  0
 21 55  1  0  0  0  0
 21 56  1  0  0  0  0
 22 57  1  1  0  0  0
 22 25  1  0  0  0  0
 24 26  2  0  0  0  0
 24 27  1  0  0  0  0
 25 58  1  0  0  0  0
 25 59  1  0  0  0  0
 25 60  1  0  0  0  0
 27 28  1  0  0  0  0
 27 61  1  0  0  0  0
 27 62  1  0  0  0  0
 28 29  1  0  0  0  0
 29 30  2  0  0  0  0
 29 31  1  0  0  0  0
 31 32  1  0  0  0  0
 31 63  1  0  0  0  0
 31 64  1  0  0  0  0
 32 33  1  0  0  0  0
 32 65  1  0  0  0  0
 32 66  1  0  0  0  0
 33 34  1  0  0  0  0
 33 67  1  0  0  0  0
 33 68  1  0  0  0  0
 34 35  1  0  0  0  0
 34 69  1  0  0  0  0
 34 70  1  0  0  0  0
 35 71  1  0  0  0  0
 35 72  1  0  0  0  0
 35 73  1  0  0  0  0
M  END
>  <DRUGBANK_ID>
DB14653

>  <SECONDARY_ACCESSION_NUMBERS>
DBSALT001838

>  <COMMON_NAME>
Clocortolone caproate

>  <CAS_NUMBER>
4891-71-8

>  <UNII>
871M9PSU7T

>  <SYNONYMS>
Clocortolone hexanoate

$$$$
