871
 OpenBabel10282417113D

 35 35  0  0  1  0  0  0  0  0999 V2000
    1.0504    0.0417    0.1073 O   0  0  0  0  0  0  0  0  0  0  0  0
    1.4814    2.2767    4.6455 O   0  0  0  0  0  0  0  0  0  0  0  0
    2.3421   -2.2935    5.4712 O   0  0  0  0  0  0  0  0  0  0  0  0
    2.5276   -2.4449    0.5036 N   0  0  0  0  0  0  0  0  0  0  0  0
    3.0349   -3.7782    0.1522 C   0  0  0  0  0  0  0  0  0  0  0  0
    1.0521   -2.3272    0.5093 C   0  0  0  0  0  0  0  0  0  0  0  0
    0.5926   -0.9517    1.0341 C   0  0  3  0  0  0  0  0  0  0  0  0
    2.5830   -4.1450   -1.2664 C   0  0  0  0  0  0  0  0  0  0  0  0
    4.5738   -3.7122    0.1865 C   0  0  0  0  0  0  0  0  0  0  0  0
    2.5796   -4.8342    1.1721 C   0  0  0  0  0  0  0  0  0  0  0  0
    1.0636   -0.6320    2.4413 C   0  0  0  0  0  0  0  0  0  0  0  0
    1.4773   -1.6369    3.3383 C   0  0  0  0  0  0  0  0  0  0  0  0
    1.0626    0.6969    2.8907 C   0  0  0  0  0  0  0  0  0  0  0  0
    1.4818    0.9923    4.1839 C   0  0  0  0  0  0  0  0  0  0  0  0
    1.9107   -1.3223    4.6167 C   0  0  0  0  0  0  0  0  0  0  0  0
    1.9128   -0.0057    5.0519 C   0  0  0  0  0  0  0  0  0  0  0  0
    2.0189    0.0497    0.1970 H   0  0  0  0  0  0  0  0  0  0  0  0
    1.1340    2.8524    3.9448 H   0  0  0  0  0  0  0  0  0  0  0  0
    2.3275   -3.1462    5.0026 H   0  0  0  0  0  0  0  0  0  0  0  0
    2.9128   -1.7602   -0.1463 H   0  0  0  0  0  0  0  0  0  0  0  0
    0.5915   -3.0949    1.1372 H   0  0  0  0  0  0  0  0  0  0  0  0
    0.6629   -2.4524   -0.5047 H   0  0  0  0  0  0  0  0  0  0  0  0
   -0.5035   -0.9265    1.0226 H   0  0  0  0  0  0  0  0  0  0  0  0
    2.9055   -3.3831   -1.9870 H   0  0  0  0  0  0  0  0  0  0  0  0
    2.9998   -5.1060   -1.5783 H   0  0  0  0  0  0  0  0  0  0  0  0
    1.4939   -4.2310   -1.3385 H   0  0  0  0  0  0  0  0  0  0  0  0
    4.9472   -3.4582    1.1864 H   0  0  0  0  0  0  0  0  0  0  0  0
    5.0082   -4.6803   -0.0895 H   0  0  0  0  0  0  0  0  0  0  0  0
    4.9656   -2.9652   -0.5138 H   0  0  0  0  0  0  0  0  0  0  0  0
    2.9120   -4.5764    2.1855 H   0  0  0  0  0  0  0  0  0  0  0  0
    1.4920   -4.9504    1.1989 H   0  0  0  0  0  0  0  0  0  0  0  0
    2.9916   -5.8179    0.9268 H   0  0  0  0  0  0  0  0  0  0  0  0
    1.4871   -2.6799    3.0356 H   0  0  0  0  0  0  0  0  0  0  0  0
    0.7379    1.4850    2.2149 H   0  0  0  0  0  0  0  0  0  0  0  0
    2.2433    0.2365    6.0530 H   0  0  0  0  0  0  0  0  0  0  0  0
  1  7  1  0  0  0  0
  1 17  1  0  0  0  0
  2 14  1  0  0  0  0
  2 18  1  0  0  0  0
  3 15  1  0  0  0  0
  3 19  1  0  0  0  0
  4  5  1  0  0  0  0
  4  6  1  0  0  0  0
  4 20  1  0  0  0  0
  5  8  1  0  0  0  0
  5  9  1  0  0  0  0
  5 10  1  0  0  0  0
  6  7  1  0  0  0  0
  6 21  1  0  0  0  0
  6 22  1  0  0  0  0
  7 11  1  0  0  0  0
  7 23  1  0  0  0  0
  8 24  1  0  0  0  0
  8 25  1  0  0  0  0
  8 26  1  0  0  0  0
  9 27  1  0  0  0  0
  9 28  1  0  0  0  0
  9 29  1  0  0  0  0
 10 30  1  0  0  0  0
 10 31  1  0  0  0  0
 10 32  1  0  0  0  0
 11 12  2  0  0  0  0
 11 13  1  0  0  0  0
 12 15  1  0  0  0  0
 12 33  1  0  0  0  0
 13 14  2  0  0  0  0
 13 34  1  0  0  0  0
 14 16  1  0  0  0  0
 15 16  2  0  0  0  0
 16 35  1  0  0  0  0
M  END
>  <DRUGBANK_ID>
DB00871

>  <SECONDARY_ACCESSION_NUMBERS>
APRD00589

>  <COMMON_NAME>
Terbutaline

>  <CAS_NUMBER>
23031-25-6

>  <UNII>
N8ONU3L3PG

>  <SYNONYMS>
Terbutalin; Terbutalina; Terbutaline; Terbutalinum

$$$$
