
 OpenBabel10282417133D

 18 18  0  0  0  0  0  0  0  0999 V2000
    0.9544   -0.1671   -0.0988 O   0  0  0  0  0  0  0  0  0  0  0  0
    0.6464   -1.0860    0.9157 N   0  0  0  0  0  0  0  0  0  0  0  0
    1.5482   -1.8597    1.5934 C   0  0  0  0  0  0  0  0  0  0  0  0
    1.1615   -2.7733    2.3286 O   0  0  0  0  0  0  0  0  0  0  0  0
    3.0084   -1.6328    1.4473 C   0  0  0  0  0  0  0  0  0  0  0  0
    3.8459   -2.7420    1.2652 C   0  0  0  0  0  0  0  0  0  0  0  0
    5.2242   -2.5613    1.1188 C   0  0  0  0  0  0  0  0  0  0  0  0
    5.7719   -1.2782    1.1738 C   0  0  0  0  0  0  0  0  0  0  0  0
    4.9491   -0.1709    1.3829 C   0  0  0  0  0  0  0  0  0  0  0  0
    3.5758   -0.3537    1.5285 C   0  0  0  0  0  0  0  0  0  0  0  0
    2.7628    0.7307    1.7105 O   0  0  0  0  0  0  0  0  0  0  0  0
    1.8794    0.0816    0.0722 H   0  0  0  0  0  0  0  0  0  0  0  0
   -0.3416   -1.2466    1.0773 H   0  0  0  0  0  0  0  0  0  0  0  0
    3.4272   -3.7463    1.2289 H   0  0  0  0  0  0  0  0  0  0  0  0
    5.8728   -3.4209    0.9627 H   0  0  0  0  0  0  0  0  0  0  0  0
    6.8451   -1.1425    1.0587 H   0  0  0  0  0  0  0  0  0  0  0  0
    5.3915    0.8197    1.4258 H   0  0  0  0  0  0  0  0  0  0  0  0
    3.2778    1.5543    1.7138 H   0  0  0  0  0  0  0  0  0  0  0  0
  1  2  1  0  0  0  0
  1 12  1  0  0  0  0
  2  3  1  0  0  0  0
  2 13  1  0  0  0  0
  3  4  2  0  0  0  0
  3  5  1  0  0  0  0
  5  6  2  0  0  0  0
  5 10  1  0  0  0  0
  6  7  1  0  0  0  0
  6 14  1  0  0  0  0
  7  8  2  0  0  0  0
  7 15  1  0  0  0  0
  8  9  1  0  0  0  0
  8 16  1  0  0  0  0
  9 10  2  0  0  0  0
  9 17  1  0  0  0  0
 10 11  1  0  0  0  0
 11 18  1  0  0  0  0
M  END
>  <DRUGBANK_ID>
DB03819

>  <SECONDARY_ACCESSION_NUMBERS>
EXPT02900

>  <COMMON_NAME>
Salicylhydroxamic Acid

>  <CAS_NUMBER>
89-73-6

>  <UNII>
8Q07182D0T

$$$$
