
 OpenBabel10282417233D

 28 29  0  0  0  0  0  0  0  0999 V2000
    1.0005   -0.0131   -0.0293 F   0  0  0  0  0  0  0  0  0  0  0  0
    2.3586   -0.0625   -0.0639 C   0  0  0  0  0  0  0  0  0  0  0  0
    2.7932    1.0535    0.5784 F   0  0  0  0  0  0  0  0  0  0  0  0
    2.8420   -0.0706   -1.5021 C   0  0  0  0  0  0  0  0  0  0  0  0
    2.4070    1.0378   -2.1572 F   0  0  0  0  0  0  0  0  0  0  0  0
    4.2001   -0.0211   -1.5373 F   0  0  0  0  0  0  0  0  0  0  0  0
    2.3539   -1.3295   -2.2111 C   0  0  0  0  0  0  0  0  0  0  0  0
    0.9999   -1.3278   -2.2687 F   0  0  0  0  0  0  0  0  0  0  0  0
    2.7891   -1.3338   -3.4954 F   0  0  0  0  0  0  0  0  0  0  0  0
    2.8361   -2.5831   -1.4943 C   0  0  3  0  0  0  0  0  0  0  0  0
    4.1988   -2.5829   -1.4954 F   0  0  0  0  0  0  0  0  0  0  0  0
    2.3544   -3.8451   -2.1968 C   0  0  0  0  0  0  0  0  0  0  0  0
    1.0004   -3.8480   -2.2542 F   0  0  0  0  0  0  0  0  0  0  0  0
    2.7895   -3.8551   -3.4811 F   0  0  0  0  0  0  0  0  0  0  0  0
    2.8431   -5.0956   -1.4736 C   0  0  0  0  0  0  0  0  0  0  0  0
    2.4086   -6.2116   -2.1160 F   0  0  0  0  0  0  0  0  0  0  0  0
    4.2012   -5.1448   -1.5082 F   0  0  0  0  0  0  0  0  0  0  0  0
    2.3598   -5.0876   -0.0353 C   0  0  0  0  0  0  0  0  0  0  0  0
    1.0017   -5.1373   -0.0001 F   0  0  0  0  0  0  0  0  0  0  0  0
    2.7950   -6.1959    0.6196 F   0  0  0  0  0  0  0  0  0  0  0  0
    2.8477   -3.8286    0.6736 C   0  0  0  0  0  0  0  0  0  0  0  0
    2.4124   -3.8244    1.9579 F   0  0  0  0  0  0  0  0  0  0  0  0
    4.2017   -3.8302    0.7313 F   0  0  0  0  0  0  0  0  0  0  0  0
    2.3655   -2.5750   -0.0431 C   0  0  3  0  0  0  0  0  0  0  0  0
    1.0027   -2.5753   -0.0420 F   0  0  0  0  0  0  0  0  0  0  0  0
    2.8472   -1.3130    0.6593 C   0  0  0  0  0  0  0  0  0  0  0  0
    4.2011   -1.3102    0.7169 F   0  0  0  0  0  0  0  0  0  0  0  0
    2.4120   -1.3029    1.9436 F   0  0  0  0  0  0  0  0  0  0  0  0
  1  2  1  0  0  0  0
  2  3  1  0  0  0  0
  2  4  1  0  0  0  0
  2 26  1  0  0  0  0
  4  5  1  0  0  0  0
  4  6  1  0  0  0  0
  4  7  1  0  0  0  0
  7  8  1  0  0  0  0
  7  9  1  0  0  0  0
  7 10  1  0  0  0  0
 10 11  1  0  0  0  0
 10 12  1  0  0  0  0
 10 24  1  0  0  0  0
 12 13  1  0  0  0  0
 12 14  1  0  0  0  0
 12 15  1  0  0  0  0
 15 16  1  0  0  0  0
 15 17  1  0  0  0  0
 15 18  1  0  0  0  0
 18 19  1  0  0  0  0
 18 20  1  0  0  0  0
 18 21  1  0  0  0  0
 21 22  1  0  0  0  0
 21 23  1  0  0  0  0
 21 24  1  0  0  0  0
 24 25  1  0  0  0  0
 24 26  1  0  0  0  0
 26 27  1  0  0  0  0
 26 28  1  0  0  0  0
M  END
>  <DRUGBANK_ID>
DB16292

>  <COMMON_NAME>
Perfluorodecalin

>  <CAS_NUMBER>
306-94-5

>  <UNII>
54A06VV62N

>  <SYNONYMS>
Acri-deca; Fluosol da perfluorodecalin; Octadecafluorodecahydronaphthalene; Perflunafene; Perfluorodecalin; Perftoran component perfluorodecalin

$$$$
