
 OpenBabel10282417213D

 84 87  0  0  0  0  0  0  0  0999 V2000
    0.9821   -0.1464    0.0128 C   0  0  0  0  0  0  0  0  0  0  0  0
    0.5248    1.1837    0.5897 C   0  0  0  0  0  0  0  0  0  0  0  0
    1.0213    2.3418   -0.2760 C   0  0  0  0  0  0  0  0  0  0  0  0
    0.4840    2.2436   -1.7101 C   0  0  0  0  0  0  0  0  0  0  0  0
   -1.0448    2.3468   -1.7612 C   0  0  0  0  0  0  0  0  0  0  0  0
   -1.5743    3.6403   -1.1473 C   0  0  0  0  0  0  0  0  0  0  0  0
   -1.1884    4.8609   -1.9587 C   0  0  0  0  0  0  0  0  0  0  0  0
   -1.9970    5.5650   -2.5136 O   0  0  0  0  0  0  0  0  0  0  0  0
    0.2054    5.0238   -1.9406 O   0  0  0  0  0  0  0  0  0  0  0  0
    0.7608    6.0568   -2.7049 C   0  0  0  0  0  0  0  0  0  0  0  0
    0.2353    7.3316   -2.5974 C   0  0  0  0  0  0  0  0  0  0  0  0
    0.7727    8.3479   -3.3461 C   0  0  0  0  0  0  0  0  0  0  0  0
    1.8549    8.1119   -4.1896 C   0  0  0  0  0  0  0  0  0  0  0  0
    2.4238    6.8166   -4.2820 C   0  0  0  0  0  0  0  0  0  0  0  0
    1.8746    5.7883   -3.5080 C   0  0  0  0  0  0  0  0  0  0  0  0
    3.6252    6.5238   -5.1571 C   0  0  0  0  0  0  0  0  0  0  0  0
    3.8603    7.6289   -6.1875 C   0  0  0  0  0  0  0  0  0  0  0  0
    3.7352    9.0012   -5.4643 C   0  0  2  0  0  0  0  0  0  0  0  0
    2.3065    9.2535   -5.0512 C   0  0  2  0  0  0  0  0  0  0  0  0
    2.1180   10.6813   -4.4325 C   0  0  0  0  0  0  0  0  0  0  0  0
    2.6069   11.8493   -5.2748 C   0  0  0  0  0  0  0  0  0  0  0  0
    4.0321   11.6350   -5.5885 C   0  0  1  0  0  0  0  0  0  0  0  0
    4.0213   10.2187   -6.2967 C   0  0  1  0  0  0  0  0  0  0  0  0
    5.3984   10.1783   -6.6675 C   0  0  0  0  0  0  0  0  0  0  0  0
    5.5570   11.7498   -6.9696 C   0  0  0  0  0  0  0  0  0  0  0  0
    4.4759   12.6437   -6.6785 C   0  0  2  0  0  0  0  0  0  0  0  0
    5.2699   13.9180   -6.4735 O   0  0  0  0  0  0  0  0  0  0  0  0
    6.5842   14.3278   -6.8290 C   0  0  0  0  0  0  0  0  0  0  0  0
    6.9835   15.3819   -6.3880 O   0  0  0  0  0  0  0  0  0  0  0  0
    7.5726   13.5320   -7.8516 C   0  0  0  0  0  0  0  0  0  0  0  0
    8.3845   12.2271   -7.5299 C   0  0  0  0  0  0  0  0  0  0  0  0
    7.6645   10.8940   -7.5521 C   0  0  0  0  0  0  0  0  0  0  0  0
    6.5538   10.6700   -8.9047 C   0  0  0  0  0  0  0  0  0  0  0  0
    7.2436    9.8375   -9.8726 C   0  0  0  0  0  0  0  0  0  0  0  0
    7.5128    8.5304   -9.1678 C   0  0  0  0  0  0  0  0  0  0  0  0
    5.0044   11.6551   -4.3461 C   0  0  0  0  0  0  0  0  0  0  0  0
    0.5891   -0.3129   -0.9949 H   0  0  0  0  0  0  0  0  0  0  0  0
    0.6320   -0.9772    0.6259 H   0  0  0  0  0  0  0  0  0  0  0  0
    2.0745   -0.1719   -0.0438 H   0  0  0  0  0  0  0  0  0  0  0  0
   -0.5684    1.1965    0.6708 H   0  0  0  0  0  0  0  0  0  0  0  0
    0.9019    1.2997    1.6107 H   0  0  0  0  0  0  0  0  0  0  0  0
    0.7349    3.2916    0.1914 H   0  0  0  0  0  0  0  0  0  0  0  0
    2.1164    2.3534   -0.2965 H   0  0  0  0  0  0  0  0  0  0  0  0
    0.9502    3.0056   -2.3348 H   0  0  0  0  0  0  0  0  0  0  0  0
    0.8071    1.3176   -2.1925 H   0  0  0  0  0  0  0  0  0  0  0  0
   -1.3824    2.2544   -2.7993 H   0  0  0  0  0  0  0  0  0  0  0  0
   -1.4920    1.4958   -1.2322 H   0  0  0  0  0  0  0  0  0  0  0  0
   -2.6685    3.5987   -1.1287 H   0  0  0  0  0  0  0  0  0  0  0  0
   -1.2735    3.7791   -0.1044 H   0  0  0  0  0  0  0  0  0  0  0  0
   -0.6134    7.5473   -1.9623 H   0  0  0  0  0  0  0  0  0  0  0  0
    0.3146    9.3260   -3.2730 H   0  0  0  0  0  0  0  0  0  0  0  0
    2.3040    4.7909   -3.5526 H   0  0  0  0  0  0  0  0  0  0  0  0
    4.5189    6.4373   -4.5216 H   0  0  0  0  0  0  0  0  0  0  0  0
    3.5081    5.5623   -5.6744 H   0  0  0  0  0  0  0  0  0  0  0  0
    3.1246    7.5476   -6.9985 H   0  0  0  0  0  0  0  0  0  0  0  0
    4.8429    7.4567   -6.6498 H   0  0  0  0  0  0  0  0  0  0  0  0
    4.4223    8.9524   -4.6051 H   0  0  0  0  0  0  0  0  0  0  0  0
    1.6937    9.2158   -5.9643 H   0  0  0  0  0  0  0  0  0  0  0  0
    1.0630   10.8882   -4.2868 H   0  0  0  0  0  0  0  0  0  0  0  0
    2.6207   10.7137   -3.4604 H   0  0  0  0  0  0  0  0  0  0  0  0
    2.5187   12.8167   -4.7837 H   0  0  0  0  0  0  0  0  0  0  0  0
    2.0487   11.8875   -6.2218 H   0  0  0  0  0  0  0  0  0  0  0  0
    3.4205   10.1969   -7.2223 H   0  0  0  0  0  0  0  0  0  0  0  0
    5.5220    9.3551   -7.3779 H   0  0  0  0  0  0  0  0  0  0  0  0
    6.0390    9.7875   -5.8565 H   0  0  0  0  0  0  0  0  0  0  0  0
    5.7719   12.1757   -7.9247 H   0  0  0  0  0  0  0  0  0  0  0  0
    6.2961   12.1439   -6.2708 H   0  0  0  0  0  0  0  0  0  0  0  0
    3.8092   12.7695   -7.5487 H   0  0  0  0  0  0  0  0  0  0  0  0
    7.1145   13.4803   -8.8433 H   0  0  0  0  0  0  0  0  0  0  0  0
    8.3953   14.2520   -8.0153 H   0  0  0  0  0  0  0  0  0  0  0  0
    9.1938   12.0483   -8.2386 H   0  0  0  0  0  0  0  0  0  0  0  0
    8.8375   12.3443   -6.5327 H   0  0  0  0  0  0  0  0  0  0  0  0
    8.2401   10.0161   -7.2643 H   0  0  0  0  0  0  0  0  0  0  0  0
    7.3478   10.8947   -6.4990 H   0  0  0  0  0  0  0  0  0  0  0  0
    5.5402   10.2017   -8.8114 H   0  0  0  0  0  0  0  0  0  0  0  0
    6.2127   11.5764   -9.4375 H   0  0  0  0  0  0  0  0  0  0  0  0
    6.5858    9.7290  -10.7409 H   0  0  0  0  0  0  0  0  0  0  0  0
    8.0995   10.4662  -10.1009 H   0  0  0  0  0  0  0  0  0  0  0  0
    6.5826    8.0124   -8.9028 H   0  0  0  0  0  0  0  0  0  0  0  0
    8.1714    7.9342   -9.7739 H   0  0  0  0  0  0  0  0  0  0  0  0
    8.0254    8.6225   -8.2157 H   0  0  0  0  0  0  0  0  0  0  0  0
    5.0589   12.6603   -3.9351 H   0  0  0  0  0  0  0  0  0  0  0  0
    4.7189   10.9304   -3.5877 H   0  0  0  0  0  0  0  0  0  0  0  0
    6.0535   11.3765   -4.5514 H   0  0  0  0  0  0  0  0  0  0  0  0
  1  2  1  0  0  0  0
  1 37  1  0  0  0  0
  1 38  1  0  0  0  0
  1 39  1  0  0  0  0
  2  3  1  0  0  0  0
  2 40  1  0  0  0  0
  2 41  1  0  0  0  0
  3  4  1  0  0  0  0
  3 42  1  0  0  0  0
  3 43  1  0  0  0  0
  4  5  1  0  0  0  0
  4 44  1  0  0  0  0
  4 45  1  0  0  0  0
  5  6  1  0  0  0  0
  5 46  1  0  0  0  0
  5 47  1  0  0  0  0
  6  7  1  0  0  0  0
  6 48  1  0  0  0  0
  6 49  1  0  0  0  0
  7  8  2  0  0  0  0
  7  9  1  0  0  0  0
  9 10  1  0  0  0  0
 10 11  2  0  0  0  0
 10 15  1  0  0  0  0
 11 12  1  0  0  0  0
 11 50  1  0  0  0  0
 12 13  2  0  0  0  0
 12 51  1  0  0  0  0
 13 14  1  0  0  0  0
 14 15  2  0  0  0  0
 14 16  1  0  0  0  0
 15 52  1  0  0  0  0
 16 17  1  0  0  0  0
 16 53  1  0  0  0  0
 16 54  1  0  0  0  0
 17 55  1  0  0  0  0
 17 56  1  0  0  0  0
 18 17  1  0  0  0  0
 18 19  1  0  0  0  0
 18 23  1  0  0  0  0
 18 57  1  1  0  0  0
 19 13  1  0  0  0  0
 19 20  1  0  0  0  0
 19 58  1  6  0  0  0
 20 21  1  0  0  0  0
 20 59  1  0  0  0  0
 20 60  1  0  0  0  0
 21 22  1  0  0  0  0
 21 61  1  0  0  0  0
 21 62  1  0  0  0  0
 22 23  1  0  0  0  0
 22 26  1  0  0  0  0
 22 36  1  1  0  0  0
 23 24  1  0  0  0  0
 23 63  1  6  0  0  0
 24 25  1  0  0  0  0
 24 64  1  0  0  0  0
 24 65  1  0  0  0  0
 25 26  1  0  0  0  0
 25 66  1  0  0  0  0
 25 67  1  0  0  0  0
 26 68  1  6  0  0  0
 26 27  1  0  0  0  0
 27 28  1  0  0  0  0
 28 29  2  0  0  0  0
 28 30  1  0  0  0  0
 30 31  1  0  0  0  0
 30 69  1  0  0  0  0
 30 70  1  0  0  0  0
 31 32  1  0  0  0  0
 31 71  1  0  0  0  0
 31 72  1  0  0  0  0
 32 33  1  0  0  0  0
 32 73  1  0  0  0  0
 32 74  1  0  0  0  0
 33 34  1  0  0  0  0
 33 75  1  0  0  0  0
 33 76  1  0  0  0  0
 34 35  1  0  0  0  0
 34 77  1  0  0  0  0
 34 78  1  0  0  0  0
 35 79  1  0  0  0  0
 35 80  1  0  0  0  0
 35 81  1  0  0  0  0
 36 82  1  0  0  0  0
 36 83  1  0  0  0  0
 36 84  1  0  0  0  0
M  END
>  <DRUGBANK_ID>
DB13955

>  <SECONDARY_ACCESSION_NUMBERS>
DBSALT002570

>  <COMMON_NAME>
Estradiol dienanthate

>  <CAS_NUMBER>
7732-97-0

>  <UNII>
65C72P1860

>  <SYNONYMS>
Estradiol dienantate

$$$$
