
 OpenBabel10282417133D

 58 57  0  0  0  0  0  0  0  0999 V2000
    3.5928   -9.9408  -13.7276 C   0  0  0  0  0  0  0  0  0  0  0  0
    2.1265   -9.5404  -13.7099 C   0  0  0  0  0  0  0  0  0  0  0  0
    1.2334  -10.7753  -13.8377 C   0  0  0  0  0  0  0  0  0  0  0  0
    1.4642  -11.7545  -12.6814 C   0  0  0  0  0  0  0  0  0  0  0  0
    1.1792  -11.0825  -11.3335 C   0  0  0  0  0  0  0  0  0  0  0  0
   -0.2819  -10.6279  -11.2674 C   0  0  0  0  0  0  0  0  0  0  0  0
   -1.2095  -11.8364  -11.4209 C   0  0  0  0  0  0  0  0  0  0  0  0
   -0.9375  -12.8428  -10.2978 C   0  0  0  0  0  0  0  0  0  0  0  0
   -1.1978  -12.1882   -8.9365 C   0  0  0  0  0  0  0  0  0  0  0  0
   -2.6574  -11.7429   -8.8505 C   0  0  0  0  0  0  0  0  0  0  0  0
   -3.5724  -12.9605   -9.0348 C   0  0  0  0  0  0  0  0  0  0  0  0
   -3.3028  -14.0522   -7.9622 C   0  0  0  0  0  0  0  0  0  0  0  0
   -3.4464  -13.5544   -6.5270 C   0  0  0  0  0  0  0  0  0  0  0  0
   -4.8118  -13.0492   -6.4011 C   0  0  0  0  0  0  0  0  0  0  0  0
   -5.7645  -13.2027   -5.4714 C   0  0  0  0  0  0  0  0  0  0  0  0
   -7.0353   -9.5247   -5.7869 C   0  0  0  0  0  0  0  0  0  0  0  0
   -6.5241  -10.8749   -6.2962 C   0  0  1  0  0  0  0  0  0  0  0  0
   -6.8196  -12.1199   -5.3541 C   0  0  2  0  0  0  0  0  0  0  0  0
   -6.9861  -11.1199   -7.6945 N   0  0  0  0  0  0  0  0  0  0  0  0
   -5.9605   -8.5744   -5.7137 O   0  0  0  0  0  0  0  0  0  0  0  0
   -6.8081  -11.7268   -3.9814 O   0  0  0  0  0  0  0  0  0  0  0  0
   -4.9702  -12.3233   -7.1736 H   0  0  0  0  0  0  0  0  0  0  0  0
   -5.6479  -13.9389   -4.6865 H   0  0  0  0  0  0  0  0  0  0  0  0
   -5.4357  -10.7181   -6.3280 H   0  0  0  0  0  0  0  0  0  0  0  0
   -7.8141  -12.5252   -5.5714 H   0  0  0  0  0  0  0  0  0  0  0  0
    3.8480  -10.6077  -12.8974 H   0  0  0  0  0  0  0  0  0  0  0  0
    4.2349   -9.0643  -13.6357 H   0  0  0  0  0  0  0  0  0  0  0  0
    3.8230  -10.4630  -14.6608 H   0  0  0  0  0  0  0  0  0  0  0  0
    1.9067   -8.9855  -12.7900 H   0  0  0  0  0  0  0  0  0  0  0  0
    1.9123   -8.8464  -14.5271 H   0  0  0  0  0  0  0  0  0  0  0  0
    0.1831  -10.4615  -13.8800 H   0  0  0  0  0  0  0  0  0  0  0  0
    1.4178  -11.2826  -14.7894 H   0  0  0  0  0  0  0  0  0  0  0  0
    0.8434  -12.6448  -12.8279 H   0  0  0  0  0  0  0  0  0  0  0  0
    2.4825  -12.1509  -12.6874 H   0  0  0  0  0  0  0  0  0  0  0  0
    1.4285  -11.7722  -10.5206 H   0  0  0  0  0  0  0  0  0  0  0  0
    1.8393  -10.2309  -11.1500 H   0  0  0  0  0  0  0  0  0  0  0  0
   -0.4596  -10.0927  -10.3293 H   0  0  0  0  0  0  0  0  0  0  0  0
   -0.5155   -9.8822  -12.0320 H   0  0  0  0  0  0  0  0  0  0  0  0
   -2.2512  -11.5028  -11.4363 H   0  0  0  0  0  0  0  0  0  0  0  0
   -1.0921  -12.3260  -12.3915 H   0  0  0  0  0  0  0  0  0  0  0  0
   -1.5462  -13.7378  -10.4521 H   0  0  0  0  0  0  0  0  0  0  0  0
    0.0822  -13.2352  -10.3284 H   0  0  0  0  0  0  0  0  0  0  0  0
   -0.9417  -12.8848   -8.1341 H   0  0  0  0  0  0  0  0  0  0  0  0
   -0.5366  -11.3357   -8.7548 H   0  0  0  0  0  0  0  0  0  0  0  0
   -2.8373  -11.2251   -7.9036 H   0  0  0  0  0  0  0  0  0  0  0  0
   -2.8948  -10.9823   -9.6039 H   0  0  0  0  0  0  0  0  0  0  0  0
   -4.6134  -12.6240   -9.0603 H   0  0  0  0  0  0  0  0  0  0  0  0
   -3.4553  -13.4066  -10.0269 H   0  0  0  0  0  0  0  0  0  0  0  0
   -3.9931  -14.8830   -8.1329 H   0  0  0  0  0  0  0  0  0  0  0  0
   -2.2952  -14.4599   -8.0769 H   0  0  0  0  0  0  0  0  0  0  0  0
   -3.1981  -14.2917   -5.7660 H   0  0  0  0  0  0  0  0  0  0  0  0
   -2.7962  -12.6846   -6.3473 H   0  0  0  0  0  0  0  0  0  0  0  0
   -7.7652   -9.1106   -6.4851 H   0  0  0  0  0  0  0  0  0  0  0  0
   -7.4934   -9.5910   -4.8018 H   0  0  0  0  0  0  0  0  0  0  0  0
   -6.6796  -12.0366   -8.0247 H   0  0  0  0  0  0  0  0  0  0  0  0
   -8.0020  -11.1790   -7.7012 H   0  0  0  0  0  0  0  0  0  0  0  0
   -5.3261   -8.8993   -5.0510 H   0  0  0  0  0  0  0  0  0  0  0  0
   -5.9310  -11.9351   -3.6147 H   0  0  0  0  0  0  0  0  0  0  0  0
  1 26  1  0  0  0  0
  1 27  1  0  0  0  0
  1 28  1  0  0  0  0
  2  1  1  0  0  0  0
  2 29  1  0  0  0  0
  2 30  1  0  0  0  0
  3  2  1  0  0  0  0
  3 31  1  0  0  0  0
  3 32  1  0  0  0  0
  4  3  1  0  0  0  0
  4 33  1  0  0  0  0
  4 34  1  0  0  0  0
  5  4  1  0  0  0  0
  5 35  1  0  0  0  0
  5 36  1  0  0  0  0
  6  5  1  0  0  0  0
  6 37  1  0  0  0  0
  6 38  1  0  0  0  0
  7  6  1  0  0  0  0
  7 39  1  0  0  0  0
  7 40  1  0  0  0  0
  8  7  1  0  0  0  0
  8 41  1  0  0  0  0
  8 42  1  0  0  0  0
  9  8  1  0  0  0  0
  9 43  1  0  0  0  0
  9 44  1  0  0  0  0
 10  9  1  0  0  0  0
 10 45  1  0  0  0  0
 10 46  1  0  0  0  0
 11 10  1  0  0  0  0
 11 47  1  0  0  0  0
 11 48  1  0  0  0  0
 12 11  1  0  0  0  0
 12 49  1  0  0  0  0
 12 50  1  0  0  0  0
 13 12  1  0  0  0  0
 13 51  1  0  0  0  0
 13 52  1  0  0  0  0
 14 13  1  0  0  0  0
 15 14  2  0  0  0  0
 16 53  1  0  0  0  0
 16 54  1  0  0  0  0
 17 19  1  0  0  0  0
 17 24  1  6  0  0  0
 17 18  1  0  0  0  0
 17 16  1  0  0  0  0
 18 25  1  6  0  0  0
 18 21  1  0  0  0  0
 18 15  1  0  0  0  0
 19 55  1  0  0  0  0
 19 56  1  0  0  0  0
 20 16  1  0  0  0  0
 20 57  1  0  0  0  0
 21 58  1  0  0  0  0
 22 14  1  0  0  0  0
 23 15  1  0  0  0  0
M  END
>  <DRUGBANK_ID>
DB03203

>  <SECONDARY_ACCESSION_NUMBERS>
EXPT02945

>  <COMMON_NAME>
Sphingosine

>  <CAS_NUMBER>
123-78-4

>  <UNII>
NGZ37HRE42

$$$$
