
 OpenBabel10282417203D

 41 43  0  0  0  0  0  0  0  0999 V2000
    1.3128   -0.0721    0.2361 C   0  0  0  0  0  0  0  0  0  0  0  0
    0.4291   -1.2350   -0.1531 C   0  0  0  0  0  0  0  0  0  0  0  0
    0.5394    1.1447   -0.2587 C   0  0  0  0  0  0  0  0  0  0  0  0
   -0.9753   -0.7156    0.0317 C   0  0  0  0  0  0  0  0  0  0  0  0
   -1.9400    1.5413   -0.7862 C   0  0  0  0  0  0  0  0  0  0  0  0
   -5.1504    1.9293    2.7778 C   0  0  0  0  0  0  0  0  0  0  0  0
   -6.8052   -0.1235    1.8797 C   0  0  0  0  0  0  0  0  0  0  0  0
   -0.9075    0.8189    0.1039 C   0  0  0  0  0  0  0  0  0  0  0  0
   -6.3015    1.5959    3.5078 C   0  0  0  0  0  0  0  0  0  0  0  0
   -4.8121    1.2695    1.5973 C   0  0  0  0  0  0  0  0  0  0  0  0
   -7.1182    0.5469    3.0753 C   0  0  0  0  0  0  0  0  0  0  0  0
   -5.6802    0.2717    1.1459 C   0  0  0  0  0  0  0  0  0  0  0  0
   -3.4117    1.2582   -0.4146 C   0  0  3  0  0  0  0  0  0  0  0  0
   -6.5720    2.5743    4.9008 Cl  0  0  0  0  0  0  0  0  0  0  0  0
   -9.8014    0.0976    3.0008 N   0  0  0  0  0  0  0  0  0  0  0  0
   -3.6269    1.5949    0.9663 N   0  0  0  0  0  0  0  0  0  0  0  0
   -3.6940   -0.1468   -0.5497 N   0  0  0  0  0  0  0  0  0  0  0  0
   -8.2717   -1.4808    4.2327 O   0  0  0  0  0  0  0  0  0  0  0  0
   -8.7947    0.8132    5.1316 O   0  0  0  0  0  0  0  0  0  0  0  0
   -6.0511    0.0038   -1.4204 O   0  0  0  0  0  0  0  0  0  0  0  0
   -5.2595   -1.9943   -0.0666 O   0  0  0  0  0  0  0  0  0  0  0  0
   -8.4770   -0.0652    4.0344 S   0  0  0  0  0  0  0  0  0  0  0  0
   -5.2839   -0.5713   -0.3496 S   0  0  0  0  0  0  0  0  0  0  0  0
    1.4258   -0.0413    1.3259 H   0  0  0  0  0  0  0  0  0  0  0  0
    2.3009   -0.1519   -0.2203 H   0  0  0  0  0  0  0  0  0  0  0  0
    0.5698   -1.4887   -1.2106 H   0  0  0  0  0  0  0  0  0  0  0  0
    0.5979   -2.1399    0.4361 H   0  0  0  0  0  0  0  0  0  0  0  0
    0.8829    2.0688    0.2167 H   0  0  0  0  0  0  0  0  0  0  0  0
    0.6524    1.2531   -1.3430 H   0  0  0  0  0  0  0  0  0  0  0  0
   -1.5520   -1.0814   -0.8219 H   0  0  0  0  0  0  0  0  0  0  0  0
   -1.4137   -1.1082    0.9581 H   0  0  0  0  0  0  0  0  0  0  0  0
   -1.7636    2.6253   -0.7194 H   0  0  0  0  0  0  0  0  0  0  0  0
   -1.7737    1.2681   -1.8365 H   0  0  0  0  0  0  0  0  0  0  0  0
   -4.5073    2.7302    3.1412 H   0  0  0  0  0  0  0  0  0  0  0  0
   -7.4082   -0.9603    1.5256 H   0  0  0  0  0  0  0  0  0  0  0  0
   -1.0653    1.1283    1.1468 H   0  0  0  0  0  0  0  0  0  0  0  0
   -4.0503    1.8539   -1.0778 H   0  0  0  0  0  0  0  0  0  0  0  0
  -10.6111   -0.2961    3.4933 H   0  0  0  0  0  0  0  0  0  0  0  0
   -9.9903    1.0792    2.7934 H   0  0  0  0  0  0  0  0  0  0  0  0
   -3.0365    2.3169    1.3677 H   0  0  0  0  0  0  0  0  0  0  0  0
   -3.1992   -0.7017    0.1390 H   0  0  0  0  0  0  0  0  0  0  0  0
  1 24  1  0  0  0  0
  1 25  1  0  0  0  0
  2  1  1  0  0  0  0
  2 26  1  0  0  0  0
  2 27  1  0  0  0  0
  3  1  1  0  0  0  0
  3 28  1  0  0  0  0
  3 29  1  0  0  0  0
  4  2  1  0  0  0  0
  4 30  1  0  0  0  0
  4 31  1  0  0  0  0
  5 32  1  0  0  0  0
  5 33  1  0  0  0  0
  6 34  1  0  0  0  0
  7 35  1  0  0  0  0
  8  3  1  0  0  0  0
  8  4  1  0  0  0  0
  8  5  1  0  0  0  0
  8 36  1  0  0  0  0
  9  6  2  0  0  0  0
 10  6  1  0  0  0  0
 11  7  2  0  0  0  0
 11  9  1  0  0  0  0
 12  7  1  0  0  0  0
 12 10  2  0  0  0  0
 13  5  1  0  0  0  0
 13 37  1  0  0  0  0
 14  9  1  0  0  0  0
 15 38  1  0  0  0  0
 15 39  1  0  0  0  0
 16 10  1  0  0  0  0
 16 13  1  0  0  0  0
 16 40  1  0  0  0  0
 17 13  1  0  0  0  0
 17 41  1  0  0  0  0
 22 11  1  0  0  0  0
 22 15  1  0  0  0  0
 22 18  2  0  0  0  0
 22 19  2  0  0  0  0
 23 12  1  0  0  0  0
 23 17  1  0  0  0  0
 23 20  2  0  0  0  0
 23 21  2  0  0  0  0
M  END
>  <DRUGBANK_ID>
DB13532

>  <COMMON_NAME>
Cyclopenthiazide

>  <CAS_NUMBER>
742-20-1

>  <UNII>
VX4S2N85F5

$$$$
