
 OpenBabel10282417193D

 70 73  0  0  1  0  0  0  0  0999 V2000
    0.4738   -6.4996   -0.8009 C   0  0  0  0  0  0  0  0  0  0  0  0
    1.2313   -6.0255    0.4555 C   0  0  0  0  0  0  0  0  0  0  0  0
    1.7457   -7.2701    1.2004 C   0  0  0  0  0  0  0  0  0  0  0  0
    2.2986   -5.1724   -0.2713 C   0  0  0  0  0  0  0  0  0  0  0  0
    2.2079   -3.9366   -0.5169 O   0  0  0  0  0  0  0  0  0  0  0  0
    3.4111   -5.8308   -0.6357 O   0  0  0  0  0  0  0  0  0  0  0  0
    0.2599   -5.4381    1.3592 O   0  0  0  0  0  0  0  0  0  0  0  0
    0.6418   -4.6848    2.4488 C   0  0  0  0  0  0  0  0  0  0  0  0
   -0.2303   -4.5729    3.5726 C   0  0  0  0  0  0  0  0  0  0  0  0
    0.0140   -3.6720    4.7471 C   0  0  0  0  0  0  0  0  0  0  0  0
    1.0393   -2.6510    4.6761 C   0  0  0  0  0  0  0  0  0  0  0  0
    1.7707   -2.7801    3.4505 C   0  0  0  0  0  0  0  0  0  0  0  0
    1.7427   -3.8625    2.5128 C   0  0  0  0  0  0  0  0  0  0  0  0
    3.4067   -4.3585    2.0561 Cl  0  0  0  0  0  0  0  0  0  0  0  0
    1.7643   -1.6220    5.9609 C   0  0  0  0  0  0  0  0  0  0  0  0
    1.3924   -1.6027    7.1085 O   0  0  0  0  0  0  0  0  0  0  0  0
    3.1921   -1.0211    5.7929 N   0  0  0  0  0  0  0  0  0  0  0  0
    4.4677   -1.1284    4.6994 C   0  0  0  0  0  0  0  0  0  0  0  0
   -0.7767   -4.0903    5.8246 O   0  0  0  0  0  0  0  0  0  0  0  0
   -0.3971   -3.6456    7.1329 C   0  0  0  0  0  0  0  0  0  0  0  0
    0.8060   -4.4250    7.7556 C   0  0  2  0  0  0  0  0  0  0  0  0
    1.4868   -5.4802    6.8411 C   0  0  0  0  0  0  0  0  0  0  0  0
    2.8655   -5.3636    6.4412 N   0  0  0  0  0  0  0  0  0  0  0  0
    3.7727   -5.0478    7.4992 C   0  0  0  0  0  0  0  0  0  0  0  0
    3.9771   -3.5562    7.9069 C   0  0  0  0  0  0  0  0  0  0  0  0
    4.9052   -3.2127    6.7808 C   0  0  3  0  0  0  0  0  0  0  0  0
    3.8709   -3.5231    5.4666 C   0  0  0  0  0  0  0  0  0  0  0  0
    3.2732   -4.8400    5.1910 C   0  0  0  0  0  0  0  0  0  0  0  0
    6.1829   -4.0467    7.3520 C   0  0  0  0  0  0  0  0  0  0  0  0
    7.2254   -3.0267    7.3336 C   0  0  0  0  0  0  0  0  0  0  0  0
    8.2836   -2.7273    8.1437 C   0  0  0  0  0  0  0  0  0  0  0  0
    9.0427   -1.6084    7.7882 C   0  0  0  0  0  0  0  0  0  0  0  0
    8.7483   -0.8565    6.6348 C   0  0  0  0  0  0  0  0  0  0  0  0
    7.5668   -1.0863    5.9660 C   0  0  0  0  0  0  0  0  0  0  0  0
    6.7641   -2.0390    6.5281 C   0  0  0  0  0  0  0  0  0  0  0  0
    5.4105   -1.8571    6.8317 O   0  0  0  0  0  0  0  0  0  0  0  0
   10.3386   -1.1161    8.7956 Cl  0  0  0  0  0  0  0  0  0  0  0  0
    0.4007   -5.1046    8.9701 O   0  0  0  0  0  0  0  0  0  0  0  0
    1.1346   -7.0842   -1.4586 H   0  0  0  0  0  0  0  0  0  0  0  0
    0.1353   -5.6309   -1.3822 H   0  0  0  0  0  0  0  0  0  0  0  0
   -0.4057   -7.0931   -0.5549 H   0  0  0  0  0  0  0  0  0  0  0  0
    2.4348   -7.8838    0.6164 H   0  0  0  0  0  0  0  0  0  0  0  0
    2.2404   -7.0058    2.1414 H   0  0  0  0  0  0  0  0  0  0  0  0
    0.8909   -7.8949    1.4966 H   0  0  0  0  0  0  0  0  0  0  0  0
    4.0661   -5.1386   -0.8750 H   0  0  0  0  0  0  0  0  0  0  0  0
   -1.0951   -5.2475    3.5929 H   0  0  0  0  0  0  0  0  0  0  0  0
    2.6426   -2.1955    3.2455 H   0  0  0  0  0  0  0  0  0  0  0  0
    3.5759   -0.9759    6.7751 H   0  0  0  0  0  0  0  0  0  0  0  0
    5.0130   -0.2010    4.6102 H   0  0  0  0  0  0  0  0  0  0  0  0
    5.2443   -1.9237    4.8785 H   0  0  0  0  0  0  0  0  0  0  0  0
    4.2553   -1.5033    3.7068 H   0  0  0  0  0  0  0  0  0  0  0  0
   -0.3439   -2.5692    7.0417 H   0  0  0  0  0  0  0  0  0  0  0  0
   -1.2389   -3.7218    7.8363 H   0  0  0  0  0  0  0  0  0  0  0  0
    1.5146   -3.7352    8.1837 H   0  0  0  0  0  0  0  0  0  0  0  0
    1.5462   -6.4118    7.4071 H   0  0  0  0  0  0  0  0  0  0  0  0
    0.8613   -5.7505    5.9932 H   0  0  0  0  0  0  0  0  0  0  0  0
    3.7439   -5.7298    8.3236 H   0  0  0  0  0  0  0  0  0  0  0  0
    4.6370   -5.4159    6.9312 H   0  0  0  0  0  0  0  0  0  0  0  0
    3.1154   -2.9101    8.0430 H   0  0  0  0  0  0  0  0  0  0  0  0
    4.5064   -3.3418    8.8449 H   0  0  0  0  0  0  0  0  0  0  0  0
    2.9851   -2.9922    5.5965 H   0  0  0  0  0  0  0  0  0  0  0  0
    4.0060   -3.1217    4.4810 H   0  0  0  0  0  0  0  0  0  0  0  0
    4.1204   -5.2102    4.6178 H   0  0  0  0  0  0  0  0  0  0  0  0
    2.4391   -4.9335    4.4993 H   0  0  0  0  0  0  0  0  0  0  0  0
    6.4422   -4.9417    6.7882 H   0  0  0  0  0  0  0  0  0  0  0  0
    6.0745   -4.3337    8.4134 H   0  0  0  0  0  0  0  0  0  0  0  0
    8.4343   -3.2625    9.0765 H   0  0  0  0  0  0  0  0  0  0  0  0
    9.3587   -0.0174    6.3255 H   0  0  0  0  0  0  0  0  0  0  0  0
    7.2494   -0.5075    5.1088 H   0  0  0  0  0  0  0  0  0  0  0  0
   -0.3367   -5.6882    8.7396 H   0  0  0  0  0  0  0  0  0  0  0  0
  1  2  1  0  0  0  0
  1 39  1  0  0  0  0
  1 40  1  0  0  0  0
  1 41  1  0  0  0  0
  2  3  1  0  0  0  0
  2  4  1  0  0  0  0
  2  7  1  0  0  0  0
  3 42  1  0  0  0  0
  3 43  1  0  0  0  0
  3 44  1  0  0  0  0
  4  5  2  0  0  0  0
  4  6  1  0  0  0  0
  6 45  1  0  0  0  0
  7  8  1  0  0  0  0
  8  9  2  0  0  0  0
  8 13  1  0  0  0  0
  9 10  1  0  0  0  0
  9 46  1  0  0  0  0
 10 11  2  0  0  0  0
 10 19  1  0  0  0  0
 11 12  1  0  0  0  0
 11 15  1  0  0  0  0
 12 13  2  0  0  0  0
 12 47  1  0  0  0  0
 13 14  1  0  0  0  0
 15 16  2  0  0  0  0
 15 17  1  0  0  0  0
 17 18  1  0  0  0  0
 17 48  1  0  0  0  0
 18 49  1  0  0  0  0
 18 50  1  0  0  0  0
 18 51  1  0  0  0  0
 19 20  1  0  0  0  0
 20 52  1  0  0  0  0
 20 53  1  0  0  0  0
 21 38  1  0  0  0  0
 21 54  1  1  0  0  0
 21 22  1  0  0  0  0
 21 20  1  0  0  0  0
 22 23  1  0  0  0  0
 22 55  1  0  0  0  0
 22 56  1  0  0  0  0
 23 24  1  0  0  0  0
 23 28  1  0  0  0  0
 24 25  1  0  0  0  0
 24 57  1  0  0  0  0
 24 58  1  0  0  0  0
 25 26  1  0  0  0  0
 25 59  1  0  0  0  0
 25 60  1  0  0  0  0
 26 27  1  0  0  0  0
 26 29  1  0  0  0  0
 26 36  1  0  0  0  0
 27 28  1  0  0  0  0
 27 61  1  0  0  0  0
 27 62  1  0  0  0  0
 28 63  1  0  0  0  0
 28 64  1  0  0  0  0
 29 30  1  0  0  0  0
 29 65  1  0  0  0  0
 29 66  1  0  0  0  0
 30 31  2  0  0  0  0
 30 35  1  0  0  0  0
 31 32  1  0  0  0  0
 31 67  1  0  0  0  0
 32 33  2  0  0  0  0
 32 37  1  0  0  0  0
 33 34  1  0  0  0  0
 33 68  1  0  0  0  0
 34 35  2  0  0  0  0
 34 69  1  0  0  0  0
 35 36  1  0  0  0  0
 38 70  1  0  0  0  0
M  END
>  <DRUGBANK_ID>
DB12002

>  <COMMON_NAME>
AZD-4818

>  <CAS_NUMBER>
1003566-93-5

>  <UNII>
S5UP6P540K

$$$$
