TDI
 OpenBabel10282417173D

 39 41  0  0  0  0  0  0  0  0999 V2000
    1.4524   -1.5456    0.0184 C   0  0  0  0  0  0  0  0  0  0  0  0
   -0.6614   -0.8236   -0.2063 C   0  0  0  0  0  0  0  0  0  0  0  0
   -0.1823    0.4753   -0.1931 C   0  0  0  0  0  0  0  0  0  0  0  0
    1.1635    0.7429   -0.0333 C   0  0  0  0  0  0  0  0  0  0  0  0
   -3.9735   -4.1693    4.2858 C   0  0  0  0  0  0  0  0  0  0  0  0
   -4.1141   -2.7282    5.3984 S   0  0  0  0  0  0  0  0  0  0  0  0
   -4.6174   -1.3515    4.2838 C   0  0  0  0  0  0  0  0  0  0  0  0
   -3.5327   -0.8286    3.3451 C   0  0  1  0  0  0  0  0  0  0  0  0
   -3.0236   -1.8339    2.3168 C   0  0  0  0  0  0  0  0  0  0  0  0
   -3.8466   -1.7179    1.1175 N   0  0  0  0  0  0  0  0  0  0  0  0
   -3.0683   -1.8773   -0.1232 C   0  0  0  0  0  0  0  0  0  0  0  0
   -2.0842   -0.7634   -0.3174 C   0  0  0  0  0  0  0  0  0  0  0  0
   -2.3849    0.5697   -0.5512 C   0  0  0  0  0  0  0  0  0  0  0  0
   -1.2588    1.3131   -0.3169 N   0  0  0  0  0  0  0  0  0  0  0  0
    1.6725    2.0106    0.0367 N   0  0  0  0  0  0  0  0  0  0  0  0
    1.9930   -0.3108    0.0421 N   0  0  0  0  0  0  0  0  0  0  0  0
    0.1562   -1.8922   -0.0584 N   0  0  0  0  0  0  0  0  0  0  0  0
   -4.6839   -0.5241    1.2580 C   0  0  0  0  0  0  0  0  0  0  0  0
   -4.0869    0.2710    2.4362 C   0  0  2  0  0  0  0  0  0  0  0  0
   -2.9971    1.1185    2.0775 O   0  0  0  0  0  0  0  0  0  0  0  0
   -2.6907   -0.4437    3.9367 H   0  0  0  0  0  0  0  0  0  0  0  0
   -4.8319    0.9219    2.8987 H   0  0  0  0  0  0  0  0  0  0  0  0
    2.1620   -2.3684    0.0624 H   0  0  0  0  0  0  0  0  0  0  0  0
   -4.7874   -4.2112    3.5546 H   0  0  0  0  0  0  0  0  0  0  0  0
   -2.9988   -4.2137    3.7904 H   0  0  0  0  0  0  0  0  0  0  0  0
   -3.9907   -5.0807    4.8848 H   0  0  0  0  0  0  0  0  0  0  0  0
   -4.8699   -0.5174    4.9557 H   0  0  0  0  0  0  0  0  0  0  0  0
   -5.5472   -1.5968    3.7620 H   0  0  0  0  0  0  0  0  0  0  0  0
   -3.1092   -2.8535    2.6178 H   0  0  0  0  0  0  0  0  0  0  0  0
   -1.9538   -1.6761    2.1505 H   0  0  0  0  0  0  0  0  0  0  0  0
   -3.7524   -1.9393   -0.9758 H   0  0  0  0  0  0  0  0  0  0  0  0
   -2.5507   -2.8463   -0.0821 H   0  0  0  0  0  0  0  0  0  0  0  0
   -3.3337    1.0806   -0.6422 H   0  0  0  0  0  0  0  0  0  0  0  0
   -1.2449    2.3079   -0.1662 H   0  0  0  0  0  0  0  0  0  0  0  0
    1.0942    2.8323   -0.0331 H   0  0  0  0  0  0  0  0  0  0  0  0
    2.6776    2.0975    0.0342 H   0  0  0  0  0  0  0  0  0  0  0  0
   -5.6865   -0.8651    1.5491 H   0  0  0  0  0  0  0  0  0  0  0  0
   -4.8275    0.0262    0.3280 H   0  0  0  0  0  0  0  0  0  0  0  0
   -2.2587    0.5213    1.8501 H   0  0  0  0  0  0  0  0  0  0  0  0
  1 16  2  0  0  0  0
  1 17  1  0  0  0  0
  1 23  1  0  0  0  0
  2  3  1  0  0  0  0
  2 12  1  0  0  0  0
  2 17  2  0  0  0  0
  3  4  2  0  0  0  0
  3 14  1  0  0  0  0
  4 15  1  0  0  0  0
  4 16  1  0  0  0  0
  5  6  1  0  0  0  0
  5 24  1  0  0  0  0
  5 25  1  0  0  0  0
  5 26  1  0  0  0  0
  6  7  1  0  0  0  0
  7 27  1  0  0  0  0
  7 28  1  0  0  0  0
  8  9  1  0  0  0  0
  8 19  1  0  0  0  0
  8 21  1  1  0  0  0
  8  7  1  0  0  0  0
  9 10  1  0  0  0  0
  9 29  1  0  0  0  0
  9 30  1  0  0  0  0
 10 11  1  0  0  0  0
 10 18  1  0  0  0  0
 11 12  1  0  0  0  0
 11 31  1  0  0  0  0
 11 32  1  0  0  0  0
 12 13  2  0  0  0  0
 13 14  1  0  0  0  0
 13 33  1  0  0  0  0
 14 34  1  0  0  0  0
 15 35  1  0  0  0  0
 15 36  1  0  0  0  0
 18 19  1  0  0  0  0
 18 37  1  0  0  0  0
 18 38  1  0  0  0  0
 19 20  1  0  0  0  0
 19 22  1  1  0  0  0
 20 39  1  0  0  0  0
M  END
>  <DRUGBANK_ID>
DB08606

>  <COMMON_NAME>
(3R,4S)-1-[(4-AMINO-5H-PYRROLO[3,2-D]PYRIMIDIN-7-YL)METHYL]-4-[(METHYLSULFANYL)METHYL]PYRROLIDIN-3-OL

$$$$
