
 OpenBabel10282417183D

 65 68  0  0  0  0  0  0  0  0999 V2000
    1.5147    0.0895    0.4386 C   0  0  0  0  0  0  0  0  0  0  0  0
    0.1985   -4.9404   -5.0005 C   0  0  0  0  0  0  0  0  0  0  0  0
    1.1595   -1.1719   -0.3035 C   0  0  0  0  0  0  0  0  0  0  0  0
    0.9677   -4.4874   -3.7942 C   0  0  0  0  0  0  0  0  0  0  0  0
   -3.4388   -6.3257    2.6556 C   0  0  0  0  0  0  0  0  0  0  0  0
   -2.7888   -6.6332    1.4730 C   0  0  0  0  0  0  0  0  0  0  0  0
   -3.5904   -5.0003    3.0236 C   0  0  0  0  0  0  0  0  0  0  0  0
    1.6380   -6.8021    2.6400 C   0  0  0  0  0  0  0  0  0  0  0  0
    2.1539   -5.5408    2.8919 C   0  0  0  0  0  0  0  0  0  0  0  0
   -2.3320   -5.5998    0.6536 C   0  0  0  0  0  0  0  0  0  0  0  0
   -3.0138   -3.9972    2.2619 C   0  0  0  0  0  0  0  0  0  0  0  0
    0.7233   -6.9660    1.6118 C   0  0  0  0  0  0  0  0  0  0  0  0
    1.6297   -4.4394    2.2263 C   0  0  0  0  0  0  0  0  0  0  0  0
   -2.1455   -3.1580   -1.0623 C   0  0  0  0  0  0  0  0  0  0  0  0
   -1.9332   -1.7685    0.9819 C   0  0  0  0  0  0  0  0  0  0  0  0
   -2.1076   -1.8307   -1.8077 C   0  0  0  0  0  0  0  0  0  0  0  0
   -1.8098   -0.4648    0.1949 C   0  0  0  0  0  0  0  0  0  0  0  0
   -1.5870    0.4551   -2.1318 C   0  0  0  0  0  0  0  0  0  0  0  0
   -0.0387    0.2811   -2.5913 C   0  0  0  0  0  0  0  0  0  0  0  0
   -2.2688   -4.2735    1.1129 C   0  0  0  0  0  0  0  0  0  0  0  0
    0.4229   -5.8768    0.7933 C   0  0  0  0  0  0  0  0  0  0  0  0
    0.6821   -4.5715    1.1992 C   0  0  0  0  0  0  0  0  0  0  0  0
    1.3288   -2.5201    0.2610 C   0  0  0  0  0  0  0  0  0  0  0  0
    0.5636   -2.3471   -2.8550 C   0  0  0  0  0  0  0  0  0  0  0  0
   -1.4713   -3.1391    0.3604 C   0  0  0  0  0  0  0  0  0  0  0  0
    0.0030   -6.1497   -0.4528 F   0  0  0  0  0  0  0  0  0  0  0  0
    1.7289   -2.1781   -4.6794 N   0  0  0  0  0  0  0  0  0  0  0  0
    1.4075   -0.9673   -4.3264 N   0  0  0  0  0  0  0  0  0  0  0  0
   -2.2927   -0.5228   -1.2013 N   0  0  0  0  0  0  0  0  0  0  0  0
    1.1573   -3.0470   -3.8193 N   0  0  0  0  0  0  0  0  0  0  0  0
    0.5150   -1.0105   -3.2591 N   0  0  0  0  0  0  0  0  0  0  0  0
    0.2004   -3.3502    0.5640 N   0  0  0  0  0  0  0  0  0  0  0  0
    2.5183   -2.8762    0.3044 O   0  0  0  0  0  0  0  0  0  0  0  0
    0.2240   -2.9763   -1.8983 O   0  0  0  0  0  0  0  0  0  0  0  0
    1.1659    0.0650    1.4654 H   0  0  0  0  0  0  0  0  0  0  0  0
    1.0728    0.9961   -0.0080 H   0  0  0  0  0  0  0  0  0  0  0  0
    2.5889    0.2336    0.3488 H   0  0  0  0  0  0  0  0  0  0  0  0
    0.7339   -4.6157   -5.8887 H   0  0  0  0  0  0  0  0  0  0  0  0
    0.0733   -6.0262   -4.9996 H   0  0  0  0  0  0  0  0  0  0  0  0
   -0.8026   -4.4872   -5.0045 H   0  0  0  0  0  0  0  0  0  0  0  0
    0.1503   -1.1880   -0.6178 H   0  0  0  0  0  0  0  0  0  0  0  0
    1.7745   -1.1587   -1.2074 H   0  0  0  0  0  0  0  0  0  0  0  0
    1.9102   -4.9966   -3.5922 H   0  0  0  0  0  0  0  0  0  0  0  0
    0.3178   -4.8041   -2.9486 H   0  0  0  0  0  0  0  0  0  0  0  0
   -3.8660   -7.1097    3.2672 H   0  0  0  0  0  0  0  0  0  0  0  0
   -2.6126   -7.6684    1.1915 H   0  0  0  0  0  0  0  0  0  0  0  0
   -4.1350   -4.7139    3.9144 H   0  0  0  0  0  0  0  0  0  0  0  0
    1.9979   -7.6606    3.1944 H   0  0  0  0  0  0  0  0  0  0  0  0
    2.9502   -5.3882    3.6106 H   0  0  0  0  0  0  0  0  0  0  0  0
   -1.9447   -5.8741   -0.3233 H   0  0  0  0  0  0  0  0  0  0  0  0
   -3.2122   -2.9879    2.5962 H   0  0  0  0  0  0  0  0  0  0  0  0
    0.2797   -7.9352    1.4090 H   0  0  0  0  0  0  0  0  0  0  0  0
    2.0379   -3.4605    2.4683 H   0  0  0  0  0  0  0  0  0  0  0  0
   -1.7337   -3.9761   -1.6737 H   0  0  0  0  0  0  0  0  0  0  0  0
   -3.2148   -3.3907   -0.9938 H   0  0  0  0  0  0  0  0  0  0  0  0
   -3.0210   -1.8008    1.1139 H   0  0  0  0  0  0  0  0  0  0  0  0
   -1.4608   -1.6666    1.9670 H   0  0  0  0  0  0  0  0  0  0  0  0
   -1.0963   -1.6826   -1.9254 H   0  0  0  0  0  0  0  0  0  0  0  0
   -2.4335   -1.9202   -2.8537 H   0  0  0  0  0  0  0  0  0  0  0  0
   -2.3326    0.3387    0.7246 H   0  0  0  0  0  0  0  0  0  0  0  0
   -0.8068   -0.1116    0.3478 H   0  0  0  0  0  0  0  0  0  0  0  0
   -2.1704    0.4993   -3.0569 H   0  0  0  0  0  0  0  0  0  0  0  0
   -1.7053    1.4419   -1.6563 H   0  0  0  0  0  0  0  0  0  0  0  0
    0.3100    1.1745   -3.1276 H   0  0  0  0  0  0  0  0  0  0  0  0
    0.4745    0.4237   -1.6675 H   0  0  0  0  0  0  0  0  0  0  0  0
  1 35  1  0  0  0  0
  1 36  1  0  0  0  0
  1 37  1  0  0  0  0
  2 38  1  0  0  0  0
  2 39  1  0  0  0  0
  2 40  1  0  0  0  0
  3  1  1  0  0  0  0
  3 41  1  0  0  0  0
  3 42  1  0  0  0  0
  4  2  1  0  0  0  0
  4 43  1  0  0  0  0
  4 44  1  0  0  0  0
  5 45  1  0  0  0  0
  6  5  2  0  0  0  0
  6 46  1  0  0  0  0
  7  5  1  0  0  0  0
  7 47  1  0  0  0  0
  8 48  1  0  0  0  0
  9  8  2  0  0  0  0
  9 49  1  0  0  0  0
 10  6  1  0  0  0  0
 10 50  1  0  0  0  0
 11  7  2  0  0  0  0
 11 51  1  0  0  0  0
 12  8  1  0  0  0  0
 12 52  1  0  0  0  0
 13  9  1  0  0  0  0
 13 53  1  0  0  0  0
 14 54  1  0  0  0  0
 14 55  1  0  0  0  0
 15 56  1  0  0  0  0
 15 57  1  0  0  0  0
 16 14  1  0  0  0  0
 16 58  1  0  0  0  0
 16 59  1  0  0  0  0
 17 15  1  0  0  0  0
 17 60  1  0  0  0  0
 17 61  1  0  0  0  0
 18 62  1  0  0  0  0
 18 63  1  0  0  0  0
 19 18  1  0  0  0  0
 19 64  1  0  0  0  0
 19 65  1  0  0  0  0
 20 10  2  0  0  0  0
 20 11  1  0  0  0  0
 21 12  2  0  0  0  0
 22 13  2  0  0  0  0
 22 21  1  0  0  0  0
 23  3  1  0  0  0  0
 25 14  1  0  0  0  0
 25 15  1  0  0  0  0
 25 20  1  0  0  0  0
 26 21  1  0  0  0  0
 28 27  2  0  0  0  0
 29 16  1  0  0  0  0
 29 17  1  0  0  0  0
 29 18  1  0  0  0  0
 30  4  1  0  0  0  0
 30 24  1  0  0  0  0
 30 27  1  0  0  0  0
 31 19  1  0  0  0  0
 31 24  1  0  0  0  0
 31 28  1  0  0  0  0
 32 22  1  0  0  0  0
 32 23  1  0  0  0  0
 32 25  1  0  0  0  0
 33 23  2  0  0  0  0
 34 24  2  0  0  0  0
M  END
>  <DRUGBANK_ID>
DB09181

>  <COMMON_NAME>
Trefentanil

>  <CAS_NUMBER>
120656-74-8

>  <UNII>
36QM58LVGU

>  <SYNONYMS>
Trefentanil

$$$$
