5BN
 OpenBabel10282417163D

 38 41  0  0  0  0  0  0  0  0999 V2000
    0.9214   -0.0839    0.0761 N   0  0  0  0  0  0  0  0  0  0  0  0
    0.4515    1.2814   -0.1852 C   0  0  0  0  0  0  0  0  0  0  0  0
    0.9411    1.8396   -1.5356 C   0  0  0  0  0  0  0  0  0  0  0  0
    0.4623    1.0221   -2.6429 N   0  0  0  0  0  0  0  0  0  0  0  0
   -0.3189    1.5393   -3.6629 C   0  0  0  0  0  0  0  0  0  0  0  0
   -0.0165    2.7967   -4.2190 C   0  0  0  0  0  0  0  0  0  0  0  0
   -0.7373    3.3866   -5.2830 C   0  0  0  0  0  0  0  0  0  0  0  0
   -0.2360    4.6112   -5.8768 C   0  0  0  0  0  0  0  0  0  0  0  0
    1.0173    4.8399   -6.4202 C   0  0  0  0  0  0  0  0  0  0  0  0
    1.1205    6.2112   -6.7363 C   0  0  0  0  0  0  0  0  0  0  0  0
   -0.0693    6.7982   -6.3741 C   0  0  0  0  0  0  0  0  0  0  0  0
   -0.8913    5.8217   -5.8642 N   0  0  0  0  0  0  0  0  0  0  0  0
   -1.8274    2.6708   -5.7765 C   0  0  0  0  0  0  0  0  0  0  0  0
   -2.7685    2.9191   -6.8534 C   0  0  0  0  0  0  0  0  0  0  0  0
   -2.9165    3.8418   -7.6481 O   0  0  0  0  0  0  0  0  0  0  0  0
   -3.6047    1.7903   -6.8080 N   0  0  0  0  0  0  0  0  0  0  0  0
   -3.2342    0.9078   -5.8104 C   0  0  0  0  0  0  0  0  0  0  0  0
   -3.7767   -0.3040   -5.4163 C   0  0  0  0  0  0  0  0  0  0  0  0
   -3.1245   -0.9420   -4.3426 C   0  0  0  0  0  0  0  0  0  0  0  0
   -1.9870   -0.3813   -3.7318 C   0  0  0  0  0  0  0  0  0  0  0  0
   -1.4166   -1.0493   -2.7160 F   0  0  0  0  0  0  0  0  0  0  0  0
   -1.4493    0.8506   -4.1587 C   0  0  0  0  0  0  0  0  0  0  0  0
   -2.1316    1.4479   -5.1855 C   0  0  0  0  0  0  0  0  0  0  0  0
    0.5801   -0.6878   -0.6706 H   0  0  0  0  0  0  0  0  0  0  0  0
    1.9383   -0.1053    0.0103 H   0  0  0  0  0  0  0  0  0  0  0  0
   -0.6443    1.2862   -0.1547 H   0  0  0  0  0  0  0  0  0  0  0  0
    0.8015    1.9326    0.6232 H   0  0  0  0  0  0  0  0  0  0  0  0
    0.6021    2.8788   -1.6114 H   0  0  0  0  0  0  0  0  0  0  0  0
    2.0363    1.8482   -1.5579 H   0  0  0  0  0  0  0  0  0  0  0  0
    0.5446    0.0141   -2.5785 H   0  0  0  0  0  0  0  0  0  0  0  0
    0.8631    3.3238   -3.8518 H   0  0  0  0  0  0  0  0  0  0  0  0
    1.7824    4.0854   -6.5526 H   0  0  0  0  0  0  0  0  0  0  0  0
    1.9756    6.7126   -7.1700 H   0  0  0  0  0  0  0  0  0  0  0  0
   -0.4005    7.8259   -6.4390 H   0  0  0  0  0  0  0  0  0  0  0  0
   -1.8234    5.9793   -5.5042 H   0  0  0  0  0  0  0  0  0  0  0  0
   -4.3764    1.6736   -7.4482 H   0  0  0  0  0  0  0  0  0  0  0  0
   -4.6471   -0.7384   -5.8941 H   0  0  0  0  0  0  0  0  0  0  0  0
   -3.4949   -1.8929   -3.9671 H   0  0  0  0  0  0  0  0  0  0  0  0
  1  2  1  0  0  0  0
  1 24  1  0  0  0  0
  1 25  1  0  0  0  0
  2  3  1  0  0  0  0
  2 26  1  0  0  0  0
  2 27  1  0  0  0  0
  3  4  1  0  0  0  0
  3 28  1  0  0  0  0
  3 29  1  0  0  0  0
  4  5  1  0  0  0  0
  4 30  1  0  0  0  0
  5  6  2  0  0  0  0
  5 22  1  0  0  0  0
  6  7  1  0  0  0  0
  6 31  1  0  0  0  0
  7  8  1  0  0  0  0
  7 13  2  0  0  0  0
  8  9  2  0  0  0  0
  8 12  1  0  0  0  0
  9 10  1  0  0  0  0
  9 32  1  0  0  0  0
 10 11  2  0  0  0  0
 10 33  1  0  0  0  0
 11 12  1  0  0  0  0
 11 34  1  0  0  0  0
 12 35  1  0  0  0  0
 13 14  1  0  0  0  0
 13 23  1  0  0  0  0
 14 15  2  0  0  0  0
 14 16  1  0  0  0  0
 16 17  1  0  0  0  0
 16 36  1  0  0  0  0
 17 18  2  0  0  0  0
 17 23  1  0  0  0  0
 18 19  1  0  0  0  0
 18 37  1  0  0  0  0
 19 20  2  0  0  0  0
 19 38  1  0  0  0  0
 20 21  1  0  0  0  0
 20 22  1  0  0  0  0
 22 23  2  0  0  0  0
M  END
>  <DRUGBANK_ID>
DB07163

>  <COMMON_NAME>
5-[(2-AMINOETHYL)AMINO]-6-FLUORO-3-(1H-PYRROL-2-YL)BENZO[CD]INDOL-2(1H)-ONE

$$$$
