
 OpenBabel10282417183D

 48 50  0  0  0  0  0  0  0  0999 V2000
    0.0158   -1.2795    0.6460 N   0  0  0  0  0  0  0  0  0  0  0  0
    1.2664   -0.7184    0.3144 C   0  0  0  0  0  0  0  0  0  0  0  0
    0.0115    1.7680    0.4398 S   0  0  0  0  0  0  0  0  0  0  0  0
    1.3749    0.6654    0.0932 C   0  0  0  0  0  0  0  0  0  0  0  0
   -1.1414   -0.7231    0.0612 C   0  0  0  0  0  0  0  0  0  0  0  0
   -1.3215    0.6696   -0.0124 C   0  0  0  0  0  0  0  0  0  0  0  0
    2.3468   -1.5746    0.0672 C   0  0  0  0  0  0  0  0  0  0  0  0
    3.5310   -1.0563   -0.4338 C   0  0  0  0  0  0  0  0  0  0  0  0
    4.6258   -2.0005   -0.7783 C   0  0  0  0  0  0  0  0  0  0  0  0
    2.5555    1.1803   -0.4055 C   0  0  0  0  0  0  0  0  0  0  0  0
    3.6306    0.3272   -0.6426 C   0  0  0  0  0  0  0  0  0  0  0  0
    4.4983   -3.2119   -0.5246 O   0  0  0  0  0  0  0  0  0  0  0  0
    0.1125   -2.0443    1.9418 C   0  0  0  0  0  0  0  0  0  0  0  0
   -0.7253   -1.5852    3.1513 C   0  0  0  0  0  0  0  0  0  0  0  0
   -3.0267   -2.6488    2.7059 N   0  0  0  0  0  0  0  0  0  0  0  0
   -2.1232   -1.4933   -0.5852 C   0  0  0  0  0  0  0  0  0  0  0  0
   -2.5278    1.2180   -0.4775 C   0  0  0  0  0  0  0  0  0  0  0  0
   -2.2335   -1.4120    2.9586 C   0  0  0  0  0  0  0  0  0  0  0  0
    5.8865   -1.4692   -1.4096 C   0  0  0  0  0  0  0  0  0  0  0  0
   -4.3509   -2.2383    2.2235 C   0  0  0  0  0  0  0  0  0  0  0  0
   -2.4289   -3.5086    1.6959 C   0  0  0  0  0  0  0  0  0  0  0  0
    5.6500   -0.8840   -2.7933 C   0  0  0  0  0  0  0  0  0  0  0  0
   -3.3857   -0.9748   -0.8837 C   0  0  0  0  0  0  0  0  0  0  0  0
   -3.5919    0.3912   -0.8267 C   0  0  0  0  0  0  0  0  0  0  0  0
    2.2329   -2.6492    0.2138 H   0  0  0  0  0  0  0  0  0  0  0  0
    2.6388    2.2374   -0.6362 H   0  0  0  0  0  0  0  0  0  0  0  0
    4.5372    0.7873   -1.0113 H   0  0  0  0  0  0  0  0  0  0  0  0
    0.0028   -3.1091    1.7287 H   0  0  0  0  0  0  0  0  0  0  0  0
    1.1474   -2.0339    2.3280 H   0  0  0  0  0  0  0  0  0  0  0  0
   -0.5819   -2.3034    3.9738 H   0  0  0  0  0  0  0  0  0  0  0  0
   -0.3040   -0.6415    3.5260 H   0  0  0  0  0  0  0  0  0  0  0  0
   -1.9659   -2.5519   -0.7828 H   0  0  0  0  0  0  0  0  0  0  0  0
   -2.6466    2.2939   -0.5546 H   0  0  0  0  0  0  0  0  0  0  0  0
   -2.6417   -0.9340    3.8597 H   0  0  0  0  0  0  0  0  0  0  0  0
   -2.3884   -0.6573    2.1845 H   0  0  0  0  0  0  0  0  0  0  0  0
    6.3359   -0.7433   -0.7227 H   0  0  0  0  0  0  0  0  0  0  0  0
    6.5977   -2.2991   -1.4950 H   0  0  0  0  0  0  0  0  0  0  0  0
   -4.2959   -1.5056    1.4164 H   0  0  0  0  0  0  0  0  0  0  0  0
   -4.9105   -3.0980    1.8399 H   0  0  0  0  0  0  0  0  0  0  0  0
   -4.9305   -1.7891    3.0305 H   0  0  0  0  0  0  0  0  0  0  0  0
   -1.9392   -2.8570    1.0253 H   0  0  0  0  0  0  0  0  0  0  0  0
   -1.6367   -4.1726    2.0438 H   0  0  0  0  0  0  0  0  0  0  0  0
   -3.1135   -4.0867    1.0686 H   0  0  0  0  0  0  0  0  0  0  0  0
    4.9505   -0.0460   -2.8035 H   0  0  0  0  0  0  0  0  0  0  0  0
    6.5887   -0.5099   -3.2081 H   0  0  0  0  0  0  0  0  0  0  0  0
    5.2264   -1.6352   -3.4649 H   0  0  0  0  0  0  0  0  0  0  0  0
   -4.2103   -1.6530   -1.0970 H   0  0  0  0  0  0  0  0  0  0  0  0
   -4.5621    0.8056   -1.0831 H   0  0  0  0  0  0  0  0  0  0  0  0
  2  1  1  0  0  0  0
  3  6  1  0  0  0  0
  4  2  1  0  0  0  0
  4  3  1  0  0  0  0
  5  1  1  0  0  0  0
  6  5  2  0  0  0  0
  7  2  2  0  0  0  0
  7 25  1  0  0  0  0
  8  7  1  0  0  0  0
  9  8  1  0  0  0  0
 10  4  2  0  0  0  0
 10 11  1  0  0  0  0
 10 26  1  0  0  0  0
 11  8  2  0  0  0  0
 11 27  1  0  0  0  0
 12  9  2  0  0  0  0
 13  1  1  0  0  0  0
 13 28  1  0  0  0  0
 13 29  1  0  0  0  0
 14 13  1  0  0  0  0
 14 30  1  0  0  0  0
 14 31  1  0  0  0  0
 15 18  1  0  0  0  0
 16  5  1  0  0  0  0
 16 32  1  0  0  0  0
 17  6  1  0  0  0  0
 17 24  2  0  0  0  0
 17 33  1  0  0  0  0
 18 14  1  0  0  0  0
 18 34  1  0  0  0  0
 18 35  1  0  0  0  0
 19  9  1  0  0  0  0
 19 36  1  0  0  0  0
 19 37  1  0  0  0  0
 20 15  1  0  0  0  0
 20 38  1  0  0  0  0
 20 39  1  0  0  0  0
 20 40  1  0  0  0  0
 21 15  1  0  0  0  0
 21 41  1  0  0  0  0
 21 42  1  0  0  0  0
 21 43  1  0  0  0  0
 22 19  1  0  0  0  0
 22 44  1  0  0  0  0
 22 45  1  0  0  0  0
 22 46  1  0  0  0  0
 23 16  2  0  0  0  0
 23 47  1  0  0  0  0
 24 23  1  0  0  0  0
 24 48  1  0  0  0  0
M  END
>  <DRUGBANK_ID>
DB11540

>  <COMMON_NAME>
Propiopromazine

>  <CAS_NUMBER>
3568-24-9

>  <UNII>
Y1BCT334I7

>  <SYNONYMS>
Propionpromazine; Propionylpromazine; Propionylpromazone; Propiopromazine

$$$$
