4HD
 OpenBabel10282417163D

 57 56  0  0  0  0  0  0  0  0999 V2000
    0.9949   -0.2971   -0.0211 O   0  0  0  0  0  0  0  0  0  0  0  0
    1.0893   -1.5059    1.8513 O   0  0  0  0  0  0  0  0  0  0  0  0
    0.4112   -0.9346    1.0088 C   0  0  0  0  0  0  0  0  0  0  0  0
   -1.0934   -0.8686    0.9891 C   0  0  0  0  0  0  0  0  0  0  0  0
   -1.6238    0.5548    1.1582 C   0  0  0  0  0  0  0  0  0  0  0  0
   -1.1934    1.4987    0.0350 C   0  0  1  0  0  0  0  0  0  0  0  0
   -1.6495    0.9671   -1.2967 C   0  0  0  0  0  0  0  0  0  0  0  0
   -2.4273    1.6534   -2.1239 C   0  0  0  0  0  0  0  0  0  0  0  0
   -2.9191    1.1858   -3.3857 C   0  0  0  0  0  0  0  0  0  0  0  0
   -3.6718    1.9735   -4.1597 C   0  0  0  0  0  0  0  0  0  0  0  0
   -4.0735    3.3566   -3.7757 C   0  0  0  0  0  0  0  0  0  0  0  0
   -3.6220    4.3594   -4.7776 C   0  0  0  0  0  0  0  0  0  0  0  0
   -4.4707    5.2036   -5.3660 C   0  0  0  0  0  0  0  0  0  0  0  0
   -5.9318    5.1574   -5.1014 C   0  0  0  0  0  0  0  0  0  0  0  0
   -6.4433    6.4659   -4.6164 C   0  0  0  0  0  0  0  0  0  0  0  0
   -7.4359    7.1045   -5.2371 C   0  0  0  0  0  0  0  0  0  0  0  0
   -8.0491    6.5746   -6.4830 C   0  0  0  0  0  0  0  0  0  0  0  0
   -9.5175    6.4002   -6.3403 C   0  0  0  0  0  0  0  0  0  0  0  0
  -10.3803    6.9883   -7.1713 C   0  0  0  0  0  0  0  0  0  0  0  0
   -9.9373    7.9034   -8.2604 C   0  0  0  0  0  0  0  0  0  0  0  0
  -10.4438    7.4619   -9.5866 C   0  0  0  0  0  0  0  0  0  0  0  0
  -11.1931    8.2403  -10.3752 C   0  0  0  0  0  0  0  0  0  0  0  0
  -11.6293    9.6278  -10.0059 C   0  0  0  0  0  0  0  0  0  0  0  0
  -11.0518   10.6495  -10.9591 C   0  0  0  0  0  0  0  0  0  0  0  0
   -1.7025    2.8038    0.3124 O   0  0  0  0  0  0  0  0  0  0  0  0
   -0.1134    1.6336    0.0105 H   0  0  0  0  0  0  0  0  0  0  0  0
    1.9583   -0.2902    0.1593 H   0  0  0  0  0  0  0  0  0  0  0  0
   -1.4595   -1.3412    0.0713 H   0  0  0  0  0  0  0  0  0  0  0  0
   -1.4749   -1.4875    1.8075 H   0  0  0  0  0  0  0  0  0  0  0  0
   -2.7231    0.5297    1.2089 H   0  0  0  0  0  0  0  0  0  0  0  0
   -1.3012    0.9710    2.1203 H   0  0  0  0  0  0  0  0  0  0  0  0
   -1.3244   -0.0222   -1.6030 H   0  0  0  0  0  0  0  0  0  0  0  0
   -2.6822    2.6487   -1.7950 H   0  0  0  0  0  0  0  0  0  0  0  0
   -2.6888    0.1756   -3.7104 H   0  0  0  0  0  0  0  0  0  0  0  0
   -4.0612    1.5912   -5.1015 H   0  0  0  0  0  0  0  0  0  0  0  0
   -5.1445    3.2883   -3.5990 H   0  0  0  0  0  0  0  0  0  0  0  0
   -3.7003    3.7348   -2.8264 H   0  0  0  0  0  0  0  0  0  0  0  0
   -2.5583    4.4250   -4.9926 H   0  0  0  0  0  0  0  0  0  0  0  0
   -4.1044    5.9233   -6.0945 H   0  0  0  0  0  0  0  0  0  0  0  0
   -6.3548    4.7690   -6.0240 H   0  0  0  0  0  0  0  0  0  0  0  0
   -6.2805    4.4435   -4.3599 H   0  0  0  0  0  0  0  0  0  0  0  0
   -6.0162    6.8800   -3.7064 H   0  0  0  0  0  0  0  0  0  0  0  0
   -7.7864    8.0617   -4.8589 H   0  0  0  0  0  0  0  0  0  0  0  0
   -7.7027    7.2513   -7.2594 H   0  0  0  0  0  0  0  0  0  0  0  0
   -7.7007    5.6074   -6.8361 H   0  0  0  0  0  0  0  0  0  0  0  0
   -9.8799    5.7370   -5.5577 H   0  0  0  0  0  0  0  0  0  0  0  0
  -11.4478    6.8348   -7.0355 H   0  0  0  0  0  0  0  0  0  0  0  0
  -10.2381    8.8962   -7.9363 H   0  0  0  0  0  0  0  0  0  0  0  0
   -8.8629    8.0039   -8.4000 H   0  0  0  0  0  0  0  0  0  0  0  0
  -10.1309    6.4755   -9.9307 H   0  0  0  0  0  0  0  0  0  0  0  0
  -11.4963    7.8554  -11.3457 H   0  0  0  0  0  0  0  0  0  0  0  0
  -12.7206    9.6620   -9.9826 H   0  0  0  0  0  0  0  0  0  0  0  0
  -11.3160    9.9330   -9.0070 H   0  0  0  0  0  0  0  0  0  0  0  0
  -11.4422   10.4995  -11.9679 H   0  0  0  0  0  0  0  0  0  0  0  0
  -11.3201   11.6541  -10.6203 H   0  0  0  0  0  0  0  0  0  0  0  0
   -9.9573   10.5877  -10.9920 H   0  0  0  0  0  0  0  0  0  0  0  0
   -2.6716    2.7538    0.3232 H   0  0  0  0  0  0  0  0  0  0  0  0
  1  3  1  0  0  0  0
  1 27  1  0  0  0  0
  2  3  2  0  0  0  0
  3  4  1  0  0  0  0
  4  5  1  0  0  0  0
  4 28  1  0  0  0  0
  4 29  1  0  0  0  0
  5  6  1  0  0  0  0
  5 30  1  0  0  0  0
  5 31  1  0  0  0  0
  6  7  1  0  0  0  0
  6 25  1  0  0  0  0
  6 26  1  6  0  0  0
  7  8  2  0  0  0  0
  7 32  1  0  0  0  0
  8  9  1  0  0  0  0
  8 33  1  0  0  0  0
  9 10  2  0  0  0  0
  9 34  1  0  0  0  0
 10 11  1  0  0  0  0
 10 35  1  0  0  0  0
 11 12  1  0  0  0  0
 11 36  1  0  0  0  0
 11 37  1  0  0  0  0
 12 13  2  0  0  0  0
 12 38  1  0  0  0  0
 13 14  1  0  0  0  0
 13 39  1  0  0  0  0
 14 15  1  0  0  0  0
 14 40  1  0  0  0  0
 14 41  1  0  0  0  0
 15 16  2  0  0  0  0
 15 42  1  0  0  0  0
 16 17  1  0  0  0  0
 16 43  1  0  0  0  0
 17 18  1  0  0  0  0
 17 44  1  0  0  0  0
 17 45  1  0  0  0  0
 18 19  2  0  0  0  0
 18 46  1  0  0  0  0
 19 20  1  0  0  0  0
 19 47  1  0  0  0  0
 20 21  1  0  0  0  0
 20 48  1  0  0  0  0
 20 49  1  0  0  0  0
 21 22  2  0  0  0  0
 21 50  1  0  0  0  0
 22 23  1  0  0  0  0
 22 51  1  0  0  0  0
 23 24  1  0  0  0  0
 23 52  1  0  0  0  0
 23 53  1  0  0  0  0
 24 54  1  0  0  0  0
 24 55  1  0  0  0  0
 24 56  1  0  0  0  0
 25 57  1  0  0  0  0
M  END
>  <DRUGBANK_ID>
DB07111

>  <COMMON_NAME>
(4S,5E,7Z,10Z,13Z,16Z,19Z)-4-hydroxydocosa-5,7,10,13,16,19-hexaenoic acid

$$$$
