
 OpenBabel10282417123D

 19 19  0  0  0  0  0  0  0  0999 V2000
    3.4385    2.6124   -0.0660 C   0  0  0  0  0  0  0  0  0  0  0  0
    5.5132    1.6490   -0.4266 C   0  0  0  0  0  0  0  0  0  0  0  0
    4.1110    3.8694   -0.0621 C   0  0  0  0  0  0  0  0  0  0  0  0
    6.1993    2.8386   -0.2322 C   0  0  0  0  0  0  0  0  0  0  0  0
    3.6466    0.0544   -0.1424 C   0  0  0  0  0  0  0  0  0  0  0  0
    4.1734    1.4397   -0.1774 C   0  0  0  0  0  0  0  0  0  0  0  0
    5.5162    4.0272   -0.0843 C   0  0  0  0  0  0  0  0  0  0  0  0
    4.2978   -1.1375   -0.1239 C   0  0  0  0  0  0  0  0  0  0  0  0
    5.7471   -1.5509   -0.1439 C   0  0  0  0  0  0  0  0  0  0  0  0
    3.4966   -2.2372   -0.1238 F   0  0  0  0  0  0  0  0  0  0  0  0
    6.1145    5.1502   -0.0521 O   0  5  0  0  0  0  0  0  0  0  0  0
    6.1330   -2.6943   -0.4040 O   0  0  0  0  0  0  0  0  0  0  0  0
    6.6300   -0.6010    0.1749 O   0  0  0  0  0  0  0  0  0  0  0  0
    2.5572   -0.0020   -0.0982 H   0  0  0  0  0  0  0  0  0  0  0  0
    2.3528    2.6121   -0.0442 H   0  0  0  0  0  0  0  0  0  0  0  0
    6.0785    0.9053   -0.9437 H   0  0  0  0  0  0  0  0  0  0  0  0
    3.5211    4.7838   -0.0569 H   0  0  0  0  0  0  0  0  0  0  0  0
    7.2832    2.8127   -0.3157 H   0  0  0  0  0  0  0  0  0  0  0  0
    7.5221   -0.6965   -0.2186 H   0  0  0  0  0  0  0  0  0  0  0  0
  1 15  1  0  0  0  0
  2 16  1  0  0  0  0
  3  1  1  0  0  0  0
  3 17  1  0  0  0  0
  4  2  2  0  0  0  0
  4 18  1  0  0  0  0
  6  1  2  0  0  0  0
  6  2  1  0  0  0  0
  6  5  1  0  0  0  0
  7  3  2  0  0  0  0
  7  4  1  0  0  0  0
  8  5  2  0  0  0  0
  9  8  1  0  0  0  0
 10  8  1  0  0  0  0
 11  7  1  0  0  0  0
 12  9  2  0  0  0  0
 13  9  1  0  0  0  0
 13 19  1  0  0  0  0
 14  5  1  0  0  0  0
M  CHG  1  11  -1
M  END
>  <DRUGBANK_ID>
DB02384

>  <SECONDARY_ACCESSION_NUMBERS>
EXPT01432

>  <COMMON_NAME>
(E)-2-Fluoro-P-Hydroxycinnamate

$$$$
