1442
 OpenBabel10282417113D

 30 31  0  0  1  0  0  0  0  0999 V2000
   -1.4773   -1.1955   -0.0675 O   0  0  0  0  0  0  0  0  0  0  0  0
   -1.5254    1.1994    0.0184 O   0  0  0  0  0  0  0  0  0  0  0  0
    1.0530    2.8176    0.0424 O   0  0  0  0  0  0  0  0  0  0  0  0
    2.5581   -3.4244    1.3151 N   0  0  0  0  0  0  0  0  0  0  0  0
    3.4466   -1.4678   -0.0325 C   0  0  0  0  0  0  0  0  0  0  0  0
    3.6014   -2.3937    1.2066 C   0  0  3  0  0  0  0  0  0  0  0  0
    2.1521   -0.6779   -0.0685 C   0  0  0  0  0  0  0  0  0  0  0  0
    0.9331   -1.3589   -0.1824 C   0  0  0  0  0  0  0  0  0  0  0  0
   -0.2370   -0.6424   -0.0933 C   0  0  0  0  0  0  0  0  0  0  0  0
    2.1414    0.7337    0.0040 C   0  0  0  0  0  0  0  0  0  0  0  0
   -0.2459    0.7268   -0.0159 C   0  0  0  0  0  0  0  0  0  0  0  0
    0.9314    1.4554    0.0064 C   0  0  0  0  0  0  0  0  0  0  0  0
    4.9441   -3.1204    1.1635 C   0  0  0  0  0  0  0  0  0  0  0  0
   -2.2854   -0.0176    0.0746 C   0  0  0  0  0  0  0  0  0  0  0  0
   -0.1699    3.5499    0.0150 C   0  0  0  0  0  0  0  0  0  0  0  0
    2.7311   -4.0141    2.1272 H   0  0  0  0  0  0  0  0  0  0  0  0
    1.6697   -2.9660    1.5183 H   0  0  0  0  0  0  0  0  0  0  0  0
    3.5234   -2.0498   -0.9602 H   0  0  0  0  0  0  0  0  0  0  0  0
    4.2945   -0.7683   -0.0484 H   0  0  0  0  0  0  0  0  0  0  0  0
    3.5608   -1.7790    2.1142 H   0  0  0  0  0  0  0  0  0  0  0  0
    0.8855   -2.4334   -0.3132 H   0  0  0  0  0  0  0  0  0  0  0  0
    3.0801    1.2837    0.0508 H   0  0  0  0  0  0  0  0  0  0  0  0
    5.7747   -2.4081    1.1648 H   0  0  0  0  0  0  0  0  0  0  0  0
    5.0644   -3.7715    2.0374 H   0  0  0  0  0  0  0  0  0  0  0  0
    5.0302   -3.7441    0.2662 H   0  0  0  0  0  0  0  0  0  0  0  0
   -3.0297   -0.0083   -0.7278 H   0  0  0  0  0  0  0  0  0  0  0  0
   -2.8033   -0.0512    1.0403 H   0  0  0  0  0  0  0  0  0  0  0  0
   -0.7350    3.3462   -0.9020 H   0  0  0  0  0  0  0  0  0  0  0  0
   -0.7656    3.3460    0.9117 H   0  0  0  0  0  0  0  0  0  0  0  0
    0.0654    4.6172    0.0190 H   0  0  0  0  0  0  0  0  0  0  0  0
  1  9  1  0  0  0  0
  1 14  1  0  0  0  0
  2 11  1  0  0  0  0
  2 14  1  0  0  0  0
  3 12  1  0  0  0  0
  3 15  1  0  0  0  0
  4  6  1  0  0  0  0
  4 16  1  0  0  0  0
  4 17  1  0  0  0  0
  5  6  1  0  0  0  0
  5  7  1  0  0  0  0
  5 18  1  0  0  0  0
  5 19  1  0  0  0  0
  6 13  1  0  0  0  0
  6 20  1  0  0  0  0
  7  8  2  0  0  0  0
  7 10  1  0  0  0  0
  8  9  1  0  0  0  0
  8 21  1  0  0  0  0
  9 11  2  0  0  0  0
 10 12  2  0  0  0  0
 10 22  1  0  0  0  0
 11 12  1  0  0  0  0
 13 23  1  0  0  0  0
 13 24  1  0  0  0  0
 13 25  1  0  0  0  0
 14 26  1  0  0  0  0
 14 27  1  0  0  0  0
 15 28  1  0  0  0  0
 15 29  1  0  0  0  0
 15 30  1  0  0  0  0
M  END
>  <DRUGBANK_ID>
DB01442

>  <COMMON_NAME>
MMDA

>  <CAS_NUMBER>
13674-05-0

>  <UNII>
RG7FY73ZAA

>  <SYNONYMS>
(+-)-MMDA; 3-Methoxy-4,5-methylenedioxyphenylisopropylamine; 3-Methoxy-alpha-methyl-4,5-methylenedioxyphenethylamine; 3-methoxy-methylenedioxyamphetamine; 5-Methoxy-3,4-methylenedioxyamphetamine

$$$$
