
 OpenBabel10282417223D

 24 24  0  0  1  0  0  0  0  0999 V2000
    0.6154    0.3777    2.4262 O   0  0  0  0  0  0  0  0  0  0  0  0
    0.5860    0.9230    1.1034 C   0  0  1  0  0  0  0  0  0  0  0  0
   -0.8749    1.0999    0.6338 C   0  0  2  0  0  0  0  0  0  0  0  0
   -1.5369   -0.1712    0.5811 O   0  0  0  0  0  0  0  0  0  0  0  0
   -0.9641    1.8041   -0.7376 C   0  0  1  0  0  0  0  0  0  0  0  0
   -2.3371    2.0934   -1.0304 O   0  0  0  0  0  0  0  0  0  0  0  0
   -0.1363    3.1011   -0.7805 C   0  0  2  0  0  0  0  0  0  0  0  0
   -0.1997    3.6533   -2.0997 O   0  0  0  0  0  0  0  0  0  0  0  0
    1.3188    2.8572   -0.3640 C   0  0  2  0  0  0  0  0  0  0  0  0
    1.9720    2.0270   -1.3356 O   0  0  0  0  0  0  0  0  0  0  0  0
    1.3708    2.2482    1.0449 C   0  0  1  0  0  0  0  0  0  0  0  0
    0.8844    3.1695    2.0298 O   0  0  0  0  0  0  0  0  0  0  0  0
    1.1925    0.9338    2.9811 H   0  0  0  0  0  0  0  0  0  0  0  0
    1.0762    0.1766    0.4678 H   0  0  0  0  0  0  0  0  0  0  0  0
   -1.4382    1.6768    1.3767 H   0  0  0  0  0  0  0  0  0  0  0  0
   -1.1079   -0.7332   -0.0876 H   0  0  0  0  0  0  0  0  0  0  0  0
   -0.6338    1.1215   -1.5305 H   0  0  0  0  0  0  0  0  0  0  0  0
   -2.4120    3.0420   -1.2451 H   0  0  0  0  0  0  0  0  0  0  0  0
   -0.5961    3.8486   -0.1240 H   0  0  0  0  0  0  0  0  0  0  0  0
    0.4206    3.1459   -2.6584 H   0  0  0  0  0  0  0  0  0  0  0  0
    1.8544    3.8133   -0.3770 H   0  0  0  0  0  0  0  0  0  0  0  0
    1.5803    1.1367   -1.3643 H   0  0  0  0  0  0  0  0  0  0  0  0
    2.4121    2.0484    1.3208 H   0  0  0  0  0  0  0  0  0  0  0  0
   -0.0797    3.2891    1.9548 H   0  0  0  0  0  0  0  0  0  0  0  0
  1 13  1  0  0  0  0
  2  3  1  0  0  0  0
  2 11  1  0  0  0  0
  2 14  1  6  0  0  0
  2  1  1  0  0  0  0
  3  4  1  0  0  0  0
  3  5  1  0  0  0  0
  3 15  1  1  0  0  0
  4 16  1  0  0  0  0
  5  7  1  0  0  0  0
  5 17  1  6  0  0  0
  5  6  1  0  0  0  0
  6 18  1  0  0  0  0
  7  8  1  0  0  0  0
  7 19  1  1  0  0  0
  8 20  1  0  0  0  0
  9  7  1  0  0  0  0
  9 10  1  0  0  0  0
  9 21  1  1  0  0  0
 10 22  1  0  0  0  0
 11  9  1  0  0  0  0
 11 12  1  0  0  0  0
 11 23  1  1  0  0  0
 12 24  1  0  0  0  0
M  END
>  <DRUGBANK_ID>
DB15350

>  <COMMON_NAME>
D-chiro-Inositol

>  <CAS_NUMBER>
643-12-9

>  <UNII>
6R79WV4R10

>  <SYNONYMS>
D-Inositol

$$$$
