
 OpenBabel10282417153D

 42 45  0  0  0  0  0  0  0  0999 V2000
    0.6569   -0.0062   -0.1988 N   0  0  0  0  0  0  0  0  0  0  0  0
    0.0677    0.1204   -1.4260 C   0  0  0  0  0  0  0  0  0  0  0  0
   -1.3639    0.0588   -1.5147 C   0  0  0  0  0  0  0  0  0  0  0  0
   -2.2620    0.7031   -0.6701 C   0  0  0  0  0  0  0  0  0  0  0  0
   -3.5431    0.3984   -1.0095 N   0  0  0  0  0  0  0  0  0  0  0  0
   -3.4482   -0.5766   -1.8953 C   0  0  0  0  0  0  0  0  0  0  0  0
   -2.1952   -0.5932   -2.4488 N   0  0  0  0  0  0  0  0  0  0  0  0
   -1.9028   -1.3210   -3.6853 C   0  0  0  0  0  0  0  0  0  0  0  0
   -2.7314   -2.6084   -4.1294 C   0  0  0  0  0  0  0  0  0  0  0  0
   -4.2369   -2.5671   -4.2884 C   0  0  0  0  0  0  0  0  0  0  0  0
   -5.0224   -2.0315   -3.2773 C   0  0  0  0  0  0  0  0  0  0  0  0
   -6.4162   -1.8327   -3.5568 C   0  0  0  0  0  0  0  0  0  0  0  0
   -7.0517   -2.4461   -4.6421 C   0  0  0  0  0  0  0  0  0  0  0  0
   -6.2855   -3.1969   -5.5121 C   0  0  0  0  0  0  0  0  0  0  0  0
   -4.8910   -3.2175   -5.3575 C   0  0  0  0  0  0  0  0  0  0  0  0
   -4.3414   -1.8162   -1.9018 C   0  0  0  0  0  0  0  0  0  0  0  0
   -3.2903   -3.1636   -1.2839 C   0  0  0  0  0  0  0  0  0  0  0  0
   -2.9012   -3.0466    0.2168 C   0  0  0  0  0  0  0  0  0  0  0  0
   -3.8218   -2.0852    0.7519 N   0  0  0  0  0  0  0  0  0  0  0  0
   -5.1502   -2.4943    0.2651 C   0  0  0  0  0  0  0  0  0  0  0  0
   -5.4866   -1.5606   -0.8457 C   0  0  0  0  0  0  0  0  0  0  0  0
    0.8077    0.2721   -2.4249 O   0  0  0  0  0  0  0  0  0  0  0  0
    0.1763   -0.2186    0.6703 H   0  0  0  0  0  0  0  0  0  0  0  0
    1.6706   -0.0091   -0.1676 H   0  0  0  0  0  0  0  0  0  0  0  0
   -2.0722    1.3265    0.1990 H   0  0  0  0  0  0  0  0  0  0  0  0
   -2.0080   -0.5772   -4.4842 H   0  0  0  0  0  0  0  0  0  0  0  0
   -0.8525   -1.6156   -3.6159 H   0  0  0  0  0  0  0  0  0  0  0  0
   -2.3051   -2.9765   -5.0642 H   0  0  0  0  0  0  0  0  0  0  0  0
   -2.5484   -3.4477   -3.4712 H   0  0  0  0  0  0  0  0  0  0  0  0
   -7.0760   -1.2409   -2.9198 H   0  0  0  0  0  0  0  0  0  0  0  0
   -8.1337   -2.3818   -4.7735 H   0  0  0  0  0  0  0  0  0  0  0  0
   -6.7657   -3.7536   -6.3145 H   0  0  0  0  0  0  0  0  0  0  0  0
   -4.3145   -3.8032   -6.0674 H   0  0  0  0  0  0  0  0  0  0  0  0
   -2.3123   -3.3428   -1.7442 H   0  0  0  0  0  0  0  0  0  0  0  0
   -3.8274   -4.1147   -1.4349 H   0  0  0  0  0  0  0  0  0  0  0  0
   -1.8548   -2.7315    0.3573 H   0  0  0  0  0  0  0  0  0  0  0  0
   -3.0226   -3.9569    0.8209 H   0  0  0  0  0  0  0  0  0  0  0  0
   -3.5448   -1.1979    0.2937 H   0  0  0  0  0  0  0  0  0  0  0  0
   -5.8477   -2.6090    1.0790 H   0  0  0  0  0  0  0  0  0  0  0  0
   -5.2196   -3.4772   -0.2337 H   0  0  0  0  0  0  0  0  0  0  0  0
   -5.5721   -0.5208   -0.4998 H   0  0  0  0  0  0  0  0  0  0  0  0
   -6.4911   -1.8256   -1.1727 H   0  0  0  0  0  0  0  0  0  0  0  0
  1  2  1  0  0  0  0
  1 23  1  0  0  0  0
  1 24  1  0  0  0  0
  2  3  1  0  0  0  0
  2 22  2  0  0  0  0
  3  4  2  0  0  0  0
  3  7  1  0  0  0  0
  4  5  1  0  0  0  0
  4 25  1  0  0  0  0
  5  6  2  0  0  0  0
  6  7  1  0  0  0  0
  6 16  1  0  0  0  0
  7  8  1  0  0  0  0
  8  9  1  0  0  0  0
  8 26  1  0  0  0  0
  8 27  1  0  0  0  0
  9 10  1  0  0  0  0
  9 28  1  0  0  0  0
  9 29  1  0  0  0  0
 10 11  2  0  0  0  0
 10 15  1  0  0  0  0
 11 12  1  0  0  0  0
 11 16  1  0  0  0  0
 12 13  2  0  0  0  0
 12 30  1  0  0  0  0
 13 14  1  0  0  0  0
 13 31  1  0  0  0  0
 14 15  2  0  0  0  0
 14 32  1  0  0  0  0
 15 33  1  0  0  0  0
 16 17  1  0  0  0  0
 16 21  1  0  0  0  0
 17 18  1  0  0  0  0
 17 34  1  0  0  0  0
 17 35  1  0  0  0  0
 18 19  1  0  0  0  0
 18 36  1  0  0  0  0
 18 37  1  0  0  0  0
 19 20  1  0  0  0  0
 19 38  1  0  0  0  0
 20 21  1  0  0  0  0
 20 39  1  0  0  0  0
 20 40  1  0  0  0  0
 21 41  1  0  0  0  0
 21 42  1  0  0  0  0
M  END
>  <DRUGBANK_ID>
DB05738

>  <COMMON_NAME>
Vapitadine

>  <CAS_NUMBER>
793655-64-8

>  <UNII>
Z5014VUX83

>  <SYNONYMS>
Vapitadina; Vapitadine; Vapitadinum

$$$$
