
 OpenBabel10282417143D

 44 46  0  0  1  0  0  0  0  0999 V2000
    1.0615    0.0852   -0.0882 C   0  0  0  0  0  0  0  0  0  0  0  0
    0.5516   -0.5065   -1.3050 N   0  0  0  0  0  0  0  0  0  0  0  0
   -0.3083   -1.6694   -1.2619 C   0  0  0  0  0  0  0  0  0  0  0  0
    0.8577    0.1017   -2.5118 C   0  0  0  0  0  0  0  0  0  0  0  0
    2.1332    0.5388   -2.7216 N   0  0  0  0  0  0  0  0  0  0  0  0
    2.4500    1.1218   -3.8980 C   0  0  0  0  0  0  0  0  0  0  0  0
    1.6422    1.4310   -4.9374 N   0  0  0  0  0  0  0  0  0  0  0  0
    0.3862    1.0293   -4.6816 C   0  0  0  0  0  0  0  0  0  0  0  0
   -0.0780    0.3632   -3.5470 C   0  0  0  0  0  0  0  0  0  0  0  0
   -1.4409    0.1515   -3.6447 N   0  0  0  0  0  0  0  0  0  0  0  0
   -1.7912    0.6788   -4.7984 C   0  0  0  0  0  0  0  0  0  0  0  0
   -0.7226    1.2254   -5.4629 N   0  0  0  0  0  0  0  0  0  0  0  0
   -0.8177    1.9697   -6.7060 C   0  0  2  0  0  0  0  0  0  0  0  0
   -0.0350    1.3370   -7.7442 O   0  0  0  0  0  0  0  0  0  0  0  0
    0.5471    2.3571   -8.6050 C   0  0  2  0  0  0  0  0  0  0  0  0
    2.0924    2.3049   -8.5697 C   0  0  0  0  0  0  0  0  0  0  0  0
    2.5931    1.0462   -9.0561 O   0  0  0  0  0  0  0  0  0  0  0  0
    1.9679   -0.2125   -8.0474 P   0  0  0  0  0  0  0  0  0  0  0  0
    1.9159   -1.0823   -9.4332 O   0  0  0  0  0  0  0  0  0  0  0  0
    3.5417   -0.4986   -7.6963 O   0  0  0  0  0  0  0  0  0  0  0  0
    1.4084   -1.3391   -7.1446 O   0  0  0  0  0  0  0  0  0  0  0  0
   -0.0084    3.7027   -8.1205 C   0  0  1  0  0  0  0  0  0  0  0  0
   -1.1881    4.0789   -8.9164 N   0  0  0  0  0  0  0  0  0  0  0  0
   -0.3419    3.4195   -6.6499 C   0  0  1  0  0  0  0  0  0  0  0  0
   -1.3012    4.3307   -6.1228 O   0  0  0  0  0  0  0  0  0  0  0  0
    0.7124   -0.4558    0.7991 H   0  0  0  0  0  0  0  0  0  0  0  0
    0.7035    1.1166    0.0117 H   0  0  0  0  0  0  0  0  0  0  0  0
    2.1554    0.0846   -0.0593 H   0  0  0  0  0  0  0  0  0  0  0  0
   -1.2959   -1.4783   -1.6881 H   0  0  0  0  0  0  0  0  0  0  0  0
    0.1569   -2.5062   -1.7955 H   0  0  0  0  0  0  0  0  0  0  0  0
   -0.4690   -2.0067   -0.2307 H   0  0  0  0  0  0  0  0  0  0  0  0
    3.4964    1.3862   -4.0164 H   0  0  0  0  0  0  0  0  0  0  0  0
   -2.8026    0.7014   -5.1808 H   0  0  0  0  0  0  0  0  0  0  0  0
   -1.8690    1.9218   -7.0193 H   0  0  0  0  0  0  0  0  0  0  0  0
    0.2327    2.1148   -9.6276 H   0  0  0  0  0  0  0  0  0  0  0  0
    2.5120    3.0882   -9.2080 H   0  0  0  0  0  0  0  0  0  0  0  0
    2.4718    2.4455   -7.5523 H   0  0  0  0  0  0  0  0  0  0  0  0
    1.0002   -1.1587   -9.7434 H   0  0  0  0  0  0  0  0  0  0  0  0
    4.0418    0.3320   -7.7016 H   0  0  0  0  0  0  0  0  0  0  0  0
    0.7214    4.5129   -8.2156 H   0  0  0  0  0  0  0  0  0  0  0  0
   -1.6343    4.9086   -8.5282 H   0  0  0  0  0  0  0  0  0  0  0  0
   -1.8732    3.3291   -8.9872 H   0  0  0  0  0  0  0  0  0  0  0  0
    0.5702    3.5212   -6.0537 H   0  0  0  0  0  0  0  0  0  0  0  0
   -2.1103    4.2836   -6.6584 H   0  0  0  0  0  0  0  0  0  0  0  0
  1  2  1  0  0  0  0
  1 26  1  0  0  0  0
  1 27  1  0  0  0  0
  1 28  1  0  0  0  0
  2  3  1  0  0  0  0
  2  4  1  0  0  0  0
  3 29  1  0  0  0  0
  3 30  1  0  0  0  0
  3 31  1  0  0  0  0
  4  5  2  0  0  0  0
  4  9  1  0  0  0  0
  5  6  1  0  0  0  0
  6  7  2  0  0  0  0
  6 32  1  0  0  0  0
  7  8  1  0  0  0  0
  8  9  2  0  0  0  0
  8 12  1  0  0  0  0
  9 10  1  0  0  0  0
 10 11  2  0  0  0  0
 11 12  1  0  0  0  0
 11 33  1  0  0  0  0
 13 12  1  0  0  0  0
 13 14  1  0  0  0  0
 13 24  1  0  0  0  0
 13 34  1  6  0  0  0
 14 15  1  0  0  0  0
 15 16  1  0  0  0  0
 15 22  1  0  0  0  0
 15 35  1  6  0  0  0
 16 17  1  0  0  0  0
 16 36  1  0  0  0  0
 16 37  1  0  0  0  0
 17 18  1  0  0  0  0
 18 19  1  0  0  0  0
 18 20  1  0  0  0  0
 18 21  2  0  0  0  0
 19 38  1  0  0  0  0
 20 39  1  0  0  0  0
 22 24  1  0  0  0  0
 22 40  1  6  0  0  0
 22 23  1  0  0  0  0
 23 41  1  0  0  0  0
 23 42  1  0  0  0  0
 24 25  1  0  0  0  0
 24 43  1  1  0  0  0
 25 44  1  0  0  0  0
M  END
>  <DRUGBANK_ID>
DB04602

>  <COMMON_NAME>
PUROMYCIN AMINONUCLEOSIDE-5'-MONOPHOSPHATE

$$$$
