
 OpenBabel10282417203D

 39 40  0  0  0  0  0  0  0  0999 V2000
   -2.3930   -1.4130   -0.0010 C   0  0  0  0  0  0  0  0  0  0  0  0
   -0.0070   -1.4040    0.0000 C   0  0  0  0  0  0  0  0  0  0  0  0
   -1.1570   -0.7350   -0.0010 C   0  0  0  0  0  0  0  0  0  0  0  0
    1.1360   -0.7350    0.0000 C   0  0  0  0  0  0  0  0  0  0  0  0
   -1.1560    0.7330   -0.0010 C   0  0  0  0  0  0  0  0  0  0  0  0
    1.1400    0.7320    0.0000 C   0  0  0  0  0  0  0  0  0  0  0  0
    2.4270   -1.4320    0.0010 C   0  0  0  0  0  0  0  0  0  0  0  0
   -0.0080    1.4010   -0.0010 O   0  0  0  0  0  0  0  0  0  0  0  0
    2.3790    1.4090    0.0000 C   0  0  0  0  0  0  0  0  0  0  0  0
   -2.3940    1.4100   -0.0020 C   0  0  0  0  0  0  0  0  0  0  0  0
    2.4179    3.4886    0.0000 Hg  0  0  0  0  0  0  0  0  0  0  0  0
   -3.5490   -0.6990   -0.0010 C   0  0  0  0  0  0  0  0  0  0  0  0
    3.5880   -0.6760    0.0000 C   0  0  0  0  0  0  0  0  0  0  0  0
   -3.5490    0.6960    0.0040 C   0  0  0  0  0  0  0  0  0  0  0  0
    3.5450    0.7140    0.0000 C   0  0  0  0  0  0  0  0  0  0  0  0
    4.7687    1.4344    0.0000 O   0  5  0  0  0  0  0  0  0  0  0  0
   -4.6590    1.3148    0.0144 O   0  0  0  0  0  0  0  0  0  0  0  0
    5.3253   -1.5834   -0.0014 Br  0  0  0  0  0  0  0  0  0  0  0  0
   -5.2608   -1.6537   -0.0082 Br  0  0  0  0  0  0  0  0  0  0  0  0
   -0.0050   -2.9240    0.0011 C   0  0  0  0  0  0  0  0  0  0  0  0
    0.6264   -3.5794    1.0947 C   0  0  0  0  0  0  0  0  0  0  0  0
    0.8224   -4.9693    1.0449 C   0  0  0  0  0  0  0  0  0  0  0  0
    0.1998   -5.6827    0.1533 C   0  0  0  0  0  0  0  0  0  0  0  0
   -0.6754   -5.0680   -0.7520 C   0  0  0  0  0  0  0  0  0  0  0  0
   -0.6465   -3.6607   -0.9074 C   0  0  0  0  0  0  0  0  0  0  0  0
   -1.3355   -3.0002   -2.0904 C   0  0  0  0  0  0  0  0  0  0  0  0
   -2.0151   -3.7953   -3.0508 O   0  5  0  0  0  0  0  0  0  0  0  0
   -1.3032   -1.7363   -2.2200 O   0  0  0  0  0  0  0  0  0  0  0  0
    2.4550    5.4683    0.0000 O   0  0  0  0  0  0  0  0  0  0  0  0
    0.9822   -0.0616   -0.0768 Na  0  3  0  0  0  0  0  0  0  0  0  0
    0.9286    0.0177   -0.0677 Na  0  3  0  0  0  0  0  0  0  0  0  0
   -2.4206   -2.4826   -0.0010 H   0  0  0  0  0  0  0  0  0  0  0  0
    2.4709   -2.5011    0.0025 H   0  0  0  0  0  0  0  0  0  0  0  0
   -2.4225    2.4796   -0.0075 H   0  0  0  0  0  0  0  0  0  0  0  0
    0.9488   -3.0188    1.9472 H   0  0  0  0  0  0  0  0  0  0  0  0
    1.4841   -5.4413    1.7408 H   0  0  0  0  0  0  0  0  0  0  0  0
    0.3562   -6.7404    0.1110 H   0  0  0  0  0  0  0  0  0  0  0  0
   -1.3614   -5.6585   -1.3226 H   0  0  0  0  0  0  0  0  0  0  0  0
    1.5259    5.8191   -0.1170 H   0  0  0  0  0  0  0  0  0  0  0  0
  1 12  2  0  0  0  0
  1 32  1  0  0  0  0
  2  3  2  0  0  0  0
  2  4  1  0  0  0  0
  2 20  1  0  0  0  0
  3  1  1  0  0  0  0
  3  5  1  0  0  0  0
  4  6  2  0  0  0  0
  4  7  1  0  0  0  0
  5 10  2  0  0  0  0
  5  8  1  0  0  0  0
  6  8  1  0  0  0  0
  6  9  1  0  0  0  0
  7 13  2  0  0  0  0
  7 33  1  0  0  0  0
  9 15  2  0  0  0  0
  9 11  1  0  0  0  0
 10 14  1  0  0  0  0
 10 34  1  0  0  0  0
 11 29  1  0  0  0  0
 12 14  1  0  0  0  0
 12 19  1  0  0  0  0
 13 15  1  0  0  0  0
 13 18  1  0  0  0  0
 14 17  2  0  0  0  0
 15 16  1  0  0  0  0
 20 21  2  0  0  0  0
 20 25  1  0  0  0  0
 21 22  1  0  0  0  0
 21 35  1  0  0  0  0
 22 23  2  0  0  0  0
 22 36  1  0  0  0  0
 23 24  1  0  0  0  0
 23 37  1  0  0  0  0
 24 25  2  0  0  0  0
 24 38  1  0  0  0  0
 25 26  1  0  0  0  0
 26 27  1  0  0  0  0
 26 28  2  0  0  0  0
 29 39  1  0  0  0  0
M  CHG  4  16  -1  27  -1  30   1  31   1
M  END
>  <DRUGBANK_ID>
DB13392

>  <COMMON_NAME>
Merbromin

>  <CAS_NUMBER>
129-16-8

>  <UNII>
M0T18YH28D

>  <SYNONYMS>
Merbromin; Merbromina; Merbromine; Merbrominum; Mercurochrome

$$$$
