
 OpenBabel10282417193D

 82 87  0  0  0  0  0  0  0  0999 V2000
    1.0063   -0.0677   -0.0018 N   0  0  0  0  0  0  0  0  0  0  0  0
    0.2817    0.5449   -1.0387 C   0  0  0  0  0  0  0  0  0  0  0  0
   -0.9501    0.6646   -0.9836 O   0  0  0  0  0  0  0  0  0  0  0  0
    1.0140    0.9694   -2.0613 N   0  0  0  0  0  0  0  0  0  0  0  0
    2.4250    1.1428   -2.0973 C   0  0  0  0  0  0  0  0  0  0  0  0
    3.0025    0.7412   -3.3833 C   0  0  0  0  0  0  0  0  0  0  0  0
    3.7659    1.6106   -4.1800 C   0  0  0  0  0  0  0  0  0  0  0  0
    4.1701    1.0431   -5.4177 C   0  0  0  0  0  0  0  0  0  0  0  0
    3.9402   -0.3193   -5.7511 C   0  0  0  0  0  0  0  0  0  0  0  0
    3.2858   -1.1653   -4.8714 C   0  0  0  0  0  0  0  0  0  0  0  0
    2.7644   -0.6170   -3.7233 C   0  0  0  0  0  0  0  0  0  0  0  0
    4.2966    3.3618   -3.8296 S   0  0  0  0  0  0  0  0  0  0  0  0
    2.5898    4.7199    0.2737 C   0  0  0  0  0  0  0  0  0  0  0  0
    3.5012    3.6171    0.1860 C   0  0  0  0  0  0  0  0  0  0  0  0
    4.1398    3.3019   -0.9629 C   0  0  0  0  0  0  0  0  0  0  0  0
    3.9306    4.0529   -2.1934 C   0  0  0  0  0  0  0  0  0  0  0  0
    3.2842    5.2574   -2.0565 C   0  0  0  0  0  0  0  0  0  0  0  0
    2.4325    5.5522   -0.8510 N   0  0  0  0  0  0  0  0  0  0  0  0
    0.8232    5.9331    0.7194 N   0  0  0  0  0  0  0  0  0  0  0  0
    1.7082    5.0025    1.2041 N   0  0  0  0  0  0  0  0  0  0  0  0
    1.0961    6.2156   -0.5559 C   0  0  0  0  0  0  0  0  0  0  0  0
    0.0238    6.9745   -1.4376 C   0  0  0  0  0  0  0  0  0  0  0  0
   -1.0553    6.4688   -2.2978 C   0  0  0  0  0  0  0  0  0  0  0  0
   -1.6785    7.3100   -3.2637 C   0  0  0  0  0  0  0  0  0  0  0  0
   -1.4723    8.6718   -3.2443 C   0  0  0  0  0  0  0  0  0  0  0  0
   -0.6295    9.1991   -2.2760 C   0  0  0  0  0  0  0  0  0  0  0  0
    0.1436    8.3695   -1.4363 C   0  0  0  0  0  0  0  0  0  0  0  0
   -1.6794    4.7891   -2.6469 S   0  0  0  0  0  0  0  0  0  0  0  0
   -0.4532    3.8665   -1.8092 C   0  0  0  0  0  0  0  0  0  0  0  0
    0.8148    4.0567   -2.5844 C   0  0  0  0  0  0  0  0  0  0  0  0
    1.1472    5.3525   -3.0405 O   0  0  0  0  0  0  0  0  0  0  0  0
   -0.6861   -1.7414    0.7121 N   0  0  0  0  0  0  0  0  0  0  0  0
   -1.1194   -2.2841    1.8692 N   0  0  0  0  0  0  0  0  0  0  0  0
   -0.3035   -1.7807    2.8123 C   0  0  0  0  0  0  0  0  0  0  0  0
    0.6207   -0.8568    2.2618 C   0  0  0  0  0  0  0  0  0  0  0  0
    0.3523   -0.8552    0.9223 C   0  0  0  0  0  0  0  0  0  0  0  0
   -1.2191   -2.1185   -0.5398 C   0  0  0  0  0  0  0  0  0  0  0  0
   -2.5803   -1.8902   -0.7626 C   0  0  0  0  0  0  0  0  0  0  0  0
   -3.0836   -2.0199   -2.0560 C   0  0  0  0  0  0  0  0  0  0  0  0
   -2.2369   -2.3889   -3.1072 C   0  0  0  0  0  0  0  0  0  0  0  0
   -0.8748   -2.5788   -2.8896 C   0  0  0  0  0  0  0  0  0  0  0  0
   -0.3629   -2.4749   -1.5963 C   0  0  0  0  0  0  0  0  0  0  0  0
   -2.6915   -2.6002   -4.3799 O   0  0  0  0  0  0  0  0  0  0  0  0
   -4.7393   -1.6516   -2.3550 Cl  0  0  0  0  0  0  0  0  0  0  0  0
   -0.4365   -2.2050    4.2665 C   0  0  0  0  0  0  0  0  0  0  0  0
   -1.8655   -1.9514    4.7751 C   0  0  0  0  0  0  0  0  0  0  0  0
    0.5393   -1.4160    5.1660 C   0  0  0  0  0  0  0  0  0  0  0  0
   -0.1108   -3.7030    4.4160 C   0  0  0  0  0  0  0  0  0  0  0  0
    1.9981    0.0405    0.1245 H   0  0  0  0  0  0  0  0  0  0  0  0
    0.4901    1.4272   -2.7992 H   0  0  0  0  0  0  0  0  0  0  0  0
    2.5128    2.1921   -2.0244 H   0  0  0  0  0  0  0  0  0  0  0  0
    2.9713    0.6820   -1.2787 H   0  0  0  0  0  0  0  0  0  0  0  0
    4.7001    1.6371   -6.1613 H   0  0  0  0  0  0  0  0  0  0  0  0
    4.2844   -0.7303   -6.6998 H   0  0  0  0  0  0  0  0  0  0  0  0
    3.1707   -2.2289   -5.0680 H   0  0  0  0  0  0  0  0  0  0  0  0
    2.1646   -1.2462   -3.0657 H   0  0  0  0  0  0  0  0  0  0  0  0
    3.5858    2.9728    1.0536 H   0  0  0  0  0  0  0  0  0  0  0  0
    4.7409    2.3992   -1.0324 H   0  0  0  0  0  0  0  0  0  0  0  0
    3.0914    5.7927   -2.9825 H   0  0  0  0  0  0  0  0  0  0  0  0
   -2.2973    6.9012   -4.0724 H   0  0  0  0  0  0  0  0  0  0  0  0
   -1.9668    9.3088   -3.9748 H   0  0  0  0  0  0  0  0  0  0  0  0
   -0.5345   10.2782   -2.2015 H   0  0  0  0  0  0  0  0  0  0  0  0
    0.8895    8.8358   -0.8005 H   0  0  0  0  0  0  0  0  0  0  0  0
   -0.4145    4.1518   -0.7509 H   0  0  0  0  0  0  0  0  0  0  0  0
   -0.6603    2.8095   -1.7992 H   0  0  0  0  0  0  0  0  0  0  0  0
    1.4991    3.7282   -1.8129 H   0  0  0  0  0  0  0  0  0  0  0  0
    1.0385    3.4296   -3.4322 H   0  0  0  0  0  0  0  0  0  0  0  0
    0.5132    5.8005   -3.6126 H   0  0  0  0  0  0  0  0  0  0  0  0
    1.3350   -0.2419    2.7923 H   0  0  0  0  0  0  0  0  0  0  0  0
   -3.2114   -1.5183    0.0415 H   0  0  0  0  0  0  0  0  0  0  0  0
   -0.2237   -2.8046   -3.7307 H   0  0  0  0  0  0  0  0  0  0  0  0
    0.6909   -2.6837   -1.4255 H   0  0  0  0  0  0  0  0  0  0  0  0
   -3.6672   -2.5720   -4.3562 H   0  0  0  0  0  0  0  0  0  0  0  0
   -2.6035   -2.5206    4.1985 H   0  0  0  0  0  0  0  0  0  0  0  0
   -1.9678   -2.2472    5.8253 H   0  0  0  0  0  0  0  0  0  0  0  0
   -2.1292   -0.8906    4.6962 H   0  0  0  0  0  0  0  0  0  0  0  0
    1.5806   -1.5799    4.8620 H   0  0  0  0  0  0  0  0  0  0  0  0
    0.3433   -0.3383    5.1119 H   0  0  0  0  0  0  0  0  0  0  0  0
    0.4526   -1.7166    6.2154 H   0  0  0  0  0  0  0  0  0  0  0  0
    0.9085   -3.9230    4.0776 H   0  0  0  0  0  0  0  0  0  0  0  0
   -0.1921   -4.0214    5.4618 H   0  0  0  0  0  0  0  0  0  0  0  0
   -0.7955   -4.3239    3.8272 H   0  0  0  0  0  0  0  0  0  0  0  0
  1  2  1  0  0  0  0
  1 36  1  0  0  0  0
  1 49  1  0  0  0  0
  2  3  2  0  0  0  0
  2  4  1  0  0  0  0
  4  5  1  0  0  0  0
  4 50  1  0  0  0  0
  5  6  1  0  0  0  0
  5 51  1  0  0  0  0
  5 52  1  0  0  0  0
  6  7  1  0  0  0  0
  6 11  2  0  0  0  0
  7  8  2  0  0  0  0
  7 12  1  0  0  0  0
  8  9  1  0  0  0  0
  8 53  1  0  0  0  0
  9 10  2  0  0  0  0
  9 54  1  0  0  0  0
 10 11  1  0  0  0  0
 10 55  1  0  0  0  0
 11 56  1  0  0  0  0
 12 16  1  0  0  0  0
 13 14  1  0  0  0  0
 13 18  1  0  0  0  0
 13 20  2  0  0  0  0
 14 15  2  0  0  0  0
 14 57  1  0  0  0  0
 15 16  1  0  0  0  0
 15 58  1  0  0  0  0
 16 17  2  0  0  0  0
 17 18  1  0  0  0  0
 17 59  1  0  0  0  0
 18 21  1  0  0  0  0
 19 20  1  0  0  0  0
 19 21  2  0  0  0  0
 21 22  1  0  0  0  0
 22 23  1  0  0  0  0
 22 27  2  0  0  0  0
 23 24  2  0  0  0  0
 23 28  1  0  0  0  0
 24 25  1  0  0  0  0
 24 60  1  0  0  0  0
 25 26  2  0  0  0  0
 25 61  1  0  0  0  0
 26 27  1  0  0  0  0
 26 62  1  0  0  0  0
 27 63  1  0  0  0  0
 28 29  1  0  0  0  0
 29 30  1  0  0  0  0
 29 64  1  0  0  0  0
 29 65  1  0  0  0  0
 30 31  1  0  0  0  0
 30 66  1  0  0  0  0
 30 67  1  0  0  0  0
 31 68  1  0  0  0  0
 32 33  1  0  0  0  0
 32 36  1  0  0  0  0
 32 37  1  0  0  0  0
 33 34  2  0  0  0  0
 34 35  1  0  0  0  0
 34 45  1  0  0  0  0
 35 36  2  0  0  0  0
 35 69  1  0  0  0  0
 37 38  1  0  0  0  0
 37 42  2  0  0  0  0
 38 39  2  0  0  0  0
 38 70  1  0  0  0  0
 39 40  1  0  0  0  0
 39 44  1  0  0  0  0
 40 41  2  0  0  0  0
 40 43  1  0  0  0  0
 41 42  1  0  0  0  0
 41 71  1  0  0  0  0
 42 72  1  0  0  0  0
 43 73  1  0  0  0  0
 45 46  1  0  0  0  0
 45 48  1  0  0  0  0
 45 47  1  0  0  0  0
 46 74  1  0  0  0  0
 46 75  1  0  0  0  0
 46 76  1  0  0  0  0
 47 77  1  0  0  0  0
 47 78  1  0  0  0  0
 47 79  1  0  0  0  0
 48 80  1  0  0  0  0
 48 81  1  0  0  0  0
 48 82  1  0  0  0  0
M  END
>  <DRUGBANK_ID>
DB12138

>  <COMMON_NAME>
PF-03715455

>  <CAS_NUMBER>
1056164-52-3

>  <UNII>
0TJ631J0KP

$$$$
