GAS
 OpenBabel10282417163D

 49 51  0  0  0  0  0  0  0  0999 V2000
    1.3278   -0.3378   -0.1006 C   0  0  0  0  0  0  0  0  0  0  0  0
    0.4611   -1.3869    0.0123 C   0  0  0  0  0  0  0  0  0  0  0  0
   -0.9186   -1.1520   -0.0130 C   0  0  0  0  0  0  0  0  0  0  0  0
   -1.4468    0.1331   -0.0334 C   0  0  0  0  0  0  0  0  0  0  0  0
   -0.5754    1.1774   -0.1081 C   0  0  0  0  0  0  0  0  0  0  0  0
    0.7705    0.8964   -0.4108 C   0  0  0  0  0  0  0  0  0  0  0  0
    1.6952    1.9675   -0.8156 C   0  0  0  0  0  0  0  0  0  0  0  0
    1.1761    2.9743   -1.8240 N   0  0  0  0  0  0  0  0  0  0  0  0
    1.7469    2.7352    0.3523 C   0  0  0  0  0  0  0  0  0  0  0  0
    1.5221    2.2217    1.8301 C   0  0  0  0  0  0  0  0  0  0  0  0
    1.6756    3.3481    2.8363 C   0  0  0  0  0  0  0  0  0  0  0  0
    2.3340    5.2568    2.5584 C   0  0  0  0  0  0  0  0  0  0  0  0
    2.5898    5.7985    0.8958 C   0  0  0  0  0  0  0  0  0  0  0  0
    2.2648    4.4002   -0.2632 C   0  0  0  0  0  0  0  0  0  0  0  0
    0.6565    4.5118   -1.7390 C   0  0  0  0  0  0  0  0  0  0  0  0
    0.5587    5.0590   -2.9157 N   0  0  0  0  0  0  0  0  0  0  0  0
    0.1634    6.4470   -2.7726 C   0  0  0  0  0  0  0  0  0  0  0  0
   -1.0595    6.6136   -1.8691 C   0  0  0  0  0  0  0  0  0  0  0  0
   -1.0551    7.3033   -0.8514 O   0  0  0  0  0  0  0  0  0  0  0  0
   -2.1150    5.8315   -2.1722 O   0  0  0  0  0  0  0  0  0  0  0  0
    0.3327    5.2606   -0.1701 N   0  0  0  0  0  0  0  0  0  0  0  0
    1.0234    4.5321    1.3617 C   0  0  0  0  0  0  0  0  0  0  0  0
    2.9925    3.8588    1.4626 C   0  0  0  0  0  0  0  0  0  0  0  0
    3.8450    3.6348    2.7880 C   0  0  0  0  0  0  0  0  0  0  0  0
    2.9887    4.1301    4.2532 C   0  0  0  0  0  0  0  0  0  0  0  0
    3.4084    3.2387    5.2631 C   0  0  0  0  0  0  0  0  0  0  0  0
    3.5579    2.3618    5.9984 N   0  0  0  0  0  0  0  0  0  0  0  0
    1.2171    4.7618    4.2809 C   0  0  0  0  0  0  0  0  0  0  0  0
    0.2080    4.9678    2.7860 C   0  0  0  0  0  0  0  0  0  0  0  0
    2.4053   -0.4618    0.0299 H   0  0  0  0  0  0  0  0  0  0  0  0
    0.8703   -2.3858    0.0410 H   0  0  0  0  0  0  0  0  0  0  0  0
   -1.5953   -1.9902    0.0122 H   0  0  0  0  0  0  0  0  0  0  0  0
   -2.5086    0.3429   -0.0522 H   0  0  0  0  0  0  0  0  0  0  0  0
   -0.9309    2.1943    0.0848 H   0  0  0  0  0  0  0  0  0  0  0  0
    2.7778    1.7307   -0.7467 H   0  0  0  0  0  0  0  0  0  0  0  0
    1.3592    2.5874   -2.7311 H   0  0  0  0  0  0  0  0  0  0  0  0
    1.9749    1.2728    2.1643 H   0  0  0  0  0  0  0  0  0  0  0  0
    1.4840    2.7991    3.8072 H   0  0  0  0  0  0  0  0  0  0  0  0
    2.3282    6.0757    3.2950 H   0  0  0  0  0  0  0  0  0  0  0  0
    1.9205    6.7054    1.0347 H   0  0  0  0  0  0  0  0  0  0  0  0
    0.9913    3.7818   -0.1995 H   0  0  0  0  0  0  0  0  0  0  0  0
    1.0205    6.9963   -2.3567 H   0  0  0  0  0  0  0  0  0  0  0  0
   -0.0517    6.8228   -3.7646 H   0  0  0  0  0  0  0  0  0  0  0  0
   -2.8032    5.9702   -1.4886 H   0  0  0  0  0  0  0  0  0  0  0  0
    0.2278    6.3124   -0.0744 H   0  0  0  0  0  0  0  0  0  0  0  0
    3.6370    3.4876    0.5950 H   0  0  0  0  0  0  0  0  0  0  0  0
    4.3840    2.6787    2.5483 H   0  0  0  0  0  0  0  0  0  0  0  0
    0.7870    5.1370    5.1787 H   0  0  0  0  0  0  0  0  0  0  0  0
   -0.7422    5.4327    2.5412 H   0  0  0  0  0  0  0  0  0  0  0  0
  1  2  1  0  0  0  0
  1  6  2  0  0  0  0
  1 30  1  0  0  0  0
  2  3  2  0  0  0  0
  2 31  1  0  0  0  0
  3  4  1  0  0  0  0
  3 32  1  0  0  0  0
  4  5  2  0  0  0  0
  4 33  1  0  0  0  0
  5  6  1  0  0  0  0
  5 34  1  0  0  0  0
  6  7  1  0  0  0  0
  7  8  1  0  0  0  0
  7  9  1  0  0  0  0
  7 35  1  0  0  0  0
  8 15  1  0  0  0  0
  8 36  1  0  0  0  0
  9 10  2  0  0  0  0
  9 14  1  0  0  0  0
 10 11  1  0  0  0  0
 10 37  1  0  0  0  0
 11 12  2  0  0  0  0
 11 38  1  0  0  0  0
 12 13  1  0  0  0  0
 12 39  1  0  0  0  0
 13 14  2  0  0  0  0
 13 40  1  0  0  0  0
 14 41  1  0  0  0  0
 15 16  2  0  0  0  0
 15 21  1  0  0  0  0
 16 17  1  0  0  0  0
 17 18  1  0  0  0  0
 17 42  1  0  0  0  0
 17 43  1  0  0  0  0
 18 19  2  0  0  0  0
 18 20  1  0  0  0  0
 20 44  1  0  0  0  0
 21 22  1  0  0  0  0
 21 45  1  0  0  0  0
 22 23  1  0  0  0  0
 22 29  2  0  0  0  0
 23 24  2  0  0  0  0
 23 46  1  0  0  0  0
 24 25  1  0  0  0  0
 24 47  1  0  0  0  0
 25 26  1  0  0  0  0
 25 28  2  0  0  0  0
 26 27  3  0  0  0  0
 28 29  1  0  0  0  0
 28 48  1  0  0  0  0
 29 49  1  0  0  0  0
M  END
>  <DRUGBANK_ID>
DB07816

>  <COMMON_NAME>
N-(P-CYANOPHENYL)-N'-DIPHENYLMETHYL-GUANIDINE-ACETIC ACID

>  <UNII>
MW7J9SU4JQ

$$$$
