
 OpenBabel10282417133D

 66 68  0  0  1  0  0  0  0  0999 V2000
    6.7120    5.3653    0.6274 C   0  0  0  0  0  0  0  0  0  0  0  0
    5.8794    5.0587   -0.9769 C   0  0  2  0  0  0  0  0  0  0  0  0
    5.5624    3.7604   -1.9314 N   0  0  0  0  0  0  0  0  0  0  0  0
    4.5175    2.7741   -1.8245 C   0  0  0  0  0  0  0  0  0  0  0  0
    4.7263    1.5627   -1.9950 O   0  0  0  0  0  0  0  0  0  0  0  0
    3.1689    3.1519   -1.3222 C   0  0  2  0  0  0  0  0  0  0  0  0
    2.2750    3.6491   -2.4613 C   0  0  0  0  0  0  0  0  0  0  0  0
    1.1791    4.4712   -1.8468 C   0  0  0  0  0  0  0  0  0  0  0  0
    1.7678    4.7606   -0.5332 C   0  0  0  0  0  0  0  0  0  0  0  0
    3.1539    4.2590   -0.3628 N   0  0  0  0  0  0  0  0  0  0  0  0
    4.0225    4.5207    0.9927 C   0  0  0  0  0  0  0  0  0  0  0  0
    3.9477    5.6424    1.5478 O   0  0  0  0  0  0  0  0  0  0  0  0
    5.2385    3.3074    1.5133 C   0  0  2  0  0  0  0  0  0  0  0  0
    6.2996    2.9401    0.4295 C   0  0  0  0  0  0  0  0  0  0  0  0
    7.0366    1.6896    0.4756 C   0  0  0  0  0  0  0  0  0  0  0  0
    5.9710    0.9522    1.2593 C   0  0  0  0  0  0  0  0  0  0  0  0
    4.8560    1.9158    1.7490 N   0  0  0  0  0  0  0  0  0  0  0  0
    3.7517    1.4721    2.5147 C   0  0  0  0  0  0  0  0  0  0  0  0
    3.5095    0.2642    2.5412 O   0  0  0  0  0  0  0  0  0  0  0  0
    2.6172    2.6329    3.1460 C   0  0  1  0  0  0  0  0  0  0  0  0
    3.3216    3.6061    3.8793 O   0  0  0  0  0  0  0  0  0  0  0  0
    1.6430    3.3931    2.1925 C   0  0  2  0  0  0  0  0  0  0  0  0
    2.2187    2.7477    1.0663 N   0  0  0  0  0  0  0  0  0  0  0  0
    1.3386    5.1755    2.3382 C   0  0  0  0  0  0  0  0  0  0  0  0
    0.8053    6.4389    1.2952 C   0  0  0  0  0  0  0  0  0  0  0  0
   -0.5363    6.4098    0.9002 C   0  0  0  0  0  0  0  0  0  0  0  0
   -0.9912    7.1534   -0.2228 C   0  0  0  0  0  0  0  0  0  0  0  0
   -0.1270    7.8265   -1.0977 C   0  0  0  0  0  0  0  0  0  0  0  0
    1.2138    7.8887   -0.7806 C   0  0  0  0  0  0  0  0  0  0  0  0
    1.6504    7.3572    0.4817 C   0  0  0  0  0  0  0  0  0  0  0  0
    5.5870    6.4149   -1.4447 C   0  0  0  0  0  0  0  0  0  0  0  0
    4.3557    6.8494   -1.6900 N   0  0  0  0  0  0  0  0  0  0  0  0
    6.5779    7.2476   -1.4616 O   0  0  0  0  0  0  0  0  0  0  0  0
    7.5854    5.9791    0.4841 H   0  0  0  0  0  0  0  0  0  0  0  0
    7.1618    4.5827    1.2764 H   0  0  0  0  0  0  0  0  0  0  0  0
    6.0725    5.8398    1.3966 H   0  0  0  0  0  0  0  0  0  0  0  0
    4.9832    4.8423   -0.5383 H   0  0  0  0  0  0  0  0  0  0  0  0
    6.3877    3.2435   -2.2054 H   0  0  0  0  0  0  0  0  0  0  0  0
    2.6374    2.2718   -0.9299 H   0  0  0  0  0  0  0  0  0  0  0  0
    2.8764    4.2994   -3.0881 H   0  0  0  0  0  0  0  0  0  0  0  0
    1.8559    2.8110   -3.0187 H   0  0  0  0  0  0  0  0  0  0  0  0
    0.8844    5.3746   -2.3792 H   0  0  0  0  0  0  0  0  0  0  0  0
    0.2541    3.8943   -1.6658 H   0  0  0  0  0  0  0  0  0  0  0  0
    2.0441    5.6629   -0.1761 H   0  0  0  0  0  0  0  0  0  0  0  0
    0.9934    4.3351    0.1228 H   0  0  0  0  0  0  0  0  0  0  0  0
    5.6634    3.6501    2.4727 H   0  0  0  0  0  0  0  0  0  0  0  0
    5.5816    2.6323   -0.2529 H   0  0  0  0  0  0  0  0  0  0  0  0
    7.0261    3.5365   -0.1266 H   0  0  0  0  0  0  0  0  0  0  0  0
    7.1935    1.3758   -0.5834 H   0  0  0  0  0  0  0  0  0  0  0  0
    8.0327    1.9043    0.8805 H   0  0  0  0  0  0  0  0  0  0  0  0
    5.5369    0.1959    0.6031 H   0  0  0  0  0  0  0  0  0  0  0  0
    6.5018    0.5483    2.1118 H   0  0  0  0  0  0  0  0  0  0  0  0
    1.9466    2.0407    3.7679 H   0  0  0  0  0  0  0  0  0  0  0  0
    3.7652    3.1139    4.5844 H   0  0  0  0  0  0  0  0  0  0  0  0
    0.6674    2.9745    1.9345 H   0  0  0  0  0  0  0  0  0  0  0  0
    3.2344    2.5600    1.0243 H   0  0  0  0  0  0  0  0  0  0  0  0
    2.4219    3.6184    0.6480 H   0  0  0  0  0  0  0  0  0  0  0  0
    0.4734    5.1102    3.0094 H   0  0  0  0  0  0  0  0  0  0  0  0
    2.1478    5.6203    2.9169 H   0  0  0  0  0  0  0  0  0  0  0  0
   -1.2261    5.7331    1.3933 H   0  0  0  0  0  0  0  0  0  0  0  0
   -2.0527    7.1616   -0.4516 H   0  0  0  0  0  0  0  0  0  0  0  0
   -0.4930    8.2724   -2.0237 H   0  0  0  0  0  0  0  0  0  0  0  0
    1.9159    8.2239   -1.5590 H   0  0  0  0  0  0  0  0  0  0  0  0
    2.7476    7.2989    0.5310 H   0  0  0  0  0  0  0  0  0  0  0  0
    4.2486    7.8528   -1.7435 H   0  0  0  0  0  0  0  0  0  0  0  0
    3.5033    6.2873   -1.6109 H   0  0  0  0  0  0  0  0  0  0  0  0
  1 34  1  0  0  0  0
  1 35  1  0  0  0  0
  1 36  1  0  0  0  0
  2 31  1  0  0  0  0
  2 37  1  1  0  0  0
  2  3  1  0  0  0  0
  2  1  1  0  0  0  0
  3  4  1  0  0  0  0
  3 38  1  0  0  0  0
  4  5  2  0  0  0  0
  6  4  1  0  0  0  0
  6  7  1  0  0  0  0
  6 10  1  0  0  0  0
  6 39  1  1  0  0  0
  7  8  1  0  0  0  0
  7 40  1  0  0  0  0
  7 41  1  0  0  0  0
  8  9  1  0  0  0  0
  8 42  1  0  0  0  0
  8 43  1  0  0  0  0
  9 10  1  0  0  0  0
  9 44  1  0  0  0  0
  9 45  1  0  0  0  0
 10 11  1  0  0  0  0
 11 12  2  0  0  0  0
 13 11  1  0  0  0  0
 13 14  1  0  0  0  0
 13 17  1  0  0  0  0
 13 46  1  1  0  0  0
 14 15  1  0  0  0  0
 14 47  1  0  0  0  0
 14 48  1  0  0  0  0
 15 16  1  0  0  0  0
 15 49  1  0  0  0  0
 15 50  1  0  0  0  0
 16 17  1  0  0  0  0
 16 51  1  0  0  0  0
 16 52  1  0  0  0  0
 17 18  1  0  0  0  0
 18 19  2  0  0  0  0
 18 20  1  0  0  0  0
 20 21  1  0  0  0  0
 20 53  1  1  0  0  0
 21 54  1  0  0  0  0
 22 24  1  0  0  0  0
 22 55  1  1  0  0  0
 22 23  1  0  0  0  0
 22 20  1  0  0  0  0
 23 56  1  0  0  0  0
 23 57  1  0  0  0  0
 24 25  1  0  0  0  0
 24 58  1  0  0  0  0
 24 59  1  0  0  0  0
 25 26  2  0  0  0  0
 25 30  1  0  0  0  0
 26 27  1  0  0  0  0
 26 60  1  0  0  0  0
 27 28  2  0  0  0  0
 27 61  1  0  0  0  0
 28 29  1  0  0  0  0
 28 62  1  0  0  0  0
 29 30  2  0  0  0  0
 29 63  1  0  0  0  0
 30 64  1  0  0  0  0
 31 32  1  0  0  0  0
 31 33  2  0  0  0  0
 32 65  1  0  0  0  0
 32 66  1  0  0  0  0
M  END
>  <DRUGBANK_ID>
DB04092

>  <SECONDARY_ACCESSION_NUMBERS>
EXPT00584

>  <COMMON_NAME>
Apstatin

>  <CAS_NUMBER>
160470-73-5

>  <UNII>
JZK8P9AG86

$$$$
