
 OpenBabel10282417203D

 65 64  0  0  0  0  0  0  0  0999 V2000
    1.0060   -0.1022   -0.0586 C   0  0  0  0  0  0  0  0  0  0  0  0
    0.5479    0.4874    1.2559 C   0  0  0  0  0  0  0  0  0  0  0  0
    0.9499    1.9288    1.3679 C   0  0  0  0  0  0  0  0  0  0  0  0
    0.0768    2.9378    1.4598 C   0  0  0  0  0  0  0  0  0  0  0  0
   -1.3951    2.7347    1.4353 C   0  0  0  0  0  0  0  0  0  0  0  0
   -2.0439    3.2849    2.6580 C   0  0  0  0  0  0  0  0  0  0  0  0
   -3.0332    4.1767    2.5952 C   0  0  0  0  0  0  0  0  0  0  0  0
   -3.5118    4.7129    1.2979 C   0  0  0  0  0  0  0  0  0  0  0  0
   -4.9662    4.4712    1.1162 C   0  0  0  0  0  0  0  0  0  0  0  0
   -5.8046    5.4746    0.8741 C   0  0  0  0  0  0  0  0  0  0  0  0
   -5.3096    6.8646    0.8196 C   0  0  0  0  0  0  0  0  0  0  0  0
   -5.6173    7.4796   -0.4943 C   0  0  0  0  0  0  0  0  0  0  0  0
   -6.3033    8.6099   -0.5384 C   0  0  0  0  0  0  0  0  0  0  0  0
   -6.7624    9.1951    0.7222 C   0  0  0  0  0  0  0  0  0  0  0  0
   -6.2191   10.5613    0.8415 C   0  0  0  0  0  0  0  0  0  0  0  0
   -7.1016   11.5388    0.9310 C   0  0  0  0  0  0  0  0  0  0  0  0
   -8.4929   11.1269    1.0956 C   0  0  0  0  0  0  0  0  0  0  0  0
   -8.9924   11.9934    2.1734 C   0  0  0  0  0  0  0  0  0  0  0  0
   -9.0648   13.5439    2.2571 C   0  0  0  0  0  0  0  0  0  0  0  0
   -9.9522   14.4086    1.3483 C   0  0  0  0  0  0  0  0  0  0  0  0
  -11.3303   14.0699    1.3155 O   0  0  0  0  0  0  0  0  0  0  0  0
  -11.6062   12.6929    1.1170 C   0  0  3  0  0  0  0  0  0  0  0  0
  -10.9529   12.2262   -0.3369 C   0  0  0  0  0  0  0  0  0  0  0  0
   -9.5429   12.6942   -0.9601 C   0  0  0  0  0  0  0  0  0  0  0  0
  -11.7648   11.7978    2.5878 C   0  0  0  0  0  0  0  0  0  0  0  0
  -12.2250   10.6964    2.7134 O   0  0  0  0  0  0  0  0  0  0  0  0
  -11.0534   12.3269    3.6569 O   0  0  0  0  0  0  0  0  0  0  0  0
    0.6155    0.4708   -0.9083 H   0  0  0  0  0  0  0  0  0  0  0  0
    0.6328   -1.1265   -0.1461 H   0  0  0  0  0  0  0  0  0  0  0  0
    2.0964   -0.1158   -0.1154 H   0  0  0  0  0  0  0  0  0  0  0  0
   -0.5300    0.3290    1.2994 H   0  0  0  0  0  0  0  0  0  0  0  0
    0.9484   -0.0601    2.1117 H   0  0  0  0  0  0  0  0  0  0  0  0
    2.0118    2.1614    1.3615 H   0  0  0  0  0  0  0  0  0  0  0  0
    0.4328    3.9678    1.5023 H   0  0  0  0  0  0  0  0  0  0  0  0
   -1.7106    3.1594    0.4844 H   0  0  0  0  0  0  0  0  0  0  0  0
   -1.7408    1.7066    1.3707 H   0  0  0  0  0  0  0  0  0  0  0  0
   -1.7197    2.9099    3.6247 H   0  0  0  0  0  0  0  0  0  0  0  0
   -3.4847    4.5615    3.5072 H   0  0  0  0  0  0  0  0  0  0  0  0
   -3.1627    5.7423    1.3019 H   0  0  0  0  0  0  0  0  0  0  0  0
   -3.0634    4.3204    0.3902 H   0  0  0  0  0  0  0  0  0  0  0  0
   -5.3372    3.4522    1.1367 H   0  0  0  0  0  0  0  0  0  0  0  0
   -6.8701    5.2968    0.7501 H   0  0  0  0  0  0  0  0  0  0  0  0
   -5.7231    7.2917    1.7293 H   0  0  0  0  0  0  0  0  0  0  0  0
   -4.2531    7.0694    0.9559 H   0  0  0  0  0  0  0  0  0  0  0  0
   -5.2554    7.0376   -1.4125 H   0  0  0  0  0  0  0  0  0  0  0  0
   -6.5864    9.0973   -1.4675 H   0  0  0  0  0  0  0  0  0  0  0  0
   -7.8296    8.9985    0.6068 H   0  0  0  0  0  0  0  0  0  0  0  0
   -6.5828    8.7676    1.7050 H   0  0  0  0  0  0  0  0  0  0  0  0
   -5.1638   10.7812    0.8765 H   0  0  0  0  0  0  0  0  0  0  0  0
   -6.8138   12.5780    0.9917 H   0  0  0  0  0  0  0  0  0  0  0  0
   -9.0127   10.9723    0.1559 H   0  0  0  0  0  0  0  0  0  0  0  0
   -8.7425   10.1344    1.5009 H   0  0  0  0  0  0  0  0  0  0  0  0
   -9.9298   11.5170    2.1135 H   0  0  0  0  0  0  0  0  0  0  0  0
   -8.5285   11.6249    3.0947 H   0  0  0  0  0  0  0  0  0  0  0  0
   -9.4434   13.7847    3.2568 H   0  0  0  0  0  0  0  0  0  0  0  0
   -8.0511   13.9445    2.2609 H   0  0  0  0  0  0  0  0  0  0  0  0
   -9.9086   15.4516    1.6810 H   0  0  0  0  0  0  0  0  0  0  0  0
   -9.5612   14.5172    0.3444 H   0  0  0  0  0  0  0  0  0  0  0  0
  -12.6757   12.6331    0.8769 H   0  0  0  0  0  0  0  0  0  0  0  0
  -11.0224   11.1326   -0.4041 H   0  0  0  0  0  0  0  0  0  0  0  0
  -11.6398   12.6051   -1.1055 H   0  0  0  0  0  0  0  0  0  0  0  0
   -8.7738   12.8167   -0.2116 H   0  0  0  0  0  0  0  0  0  0  0  0
   -9.1320   11.9500   -1.6653 H   0  0  0  0  0  0  0  0  0  0  0  0
   -9.4555   13.6705   -1.4450 H   0  0  0  0  0  0  0  0  0  0  0  0
  -10.5010   11.6033    4.0560 H   0  0  0  0  0  0  0  0  0  0  0  0
  1  2  1  0  0  0  0
  1 28  1  0  0  0  0
  1 29  1  0  0  0  0
  1 30  1  0  0  0  0
  2  3  1  0  0  0  0
  2 31  1  0  0  0  0
  2 32  1  0  0  0  0
  3  4  2  0  0  0  0
  3 33  1  0  0  0  0
  4  5  1  0  0  0  0
  4 34  1  0  0  0  0
  5  6  1  0  0  0  0
  5 35  1  0  0  0  0
  5 36  1  0  0  0  0
  6  7  2  0  0  0  0
  6 37  1  0  0  0  0
  7  8  1  0  0  0  0
  7 38  1  0  0  0  0
  8  9  1  0  0  0  0
  8 39  1  0  0  0  0
  8 40  1  0  0  0  0
  9 10  2  0  0  0  0
  9 41  1  0  0  0  0
 10 11  1  0  0  0  0
 10 42  1  0  0  0  0
 11 12  1  0  0  0  0
 11 43  1  0  0  0  0
 11 44  1  0  0  0  0
 12 13  2  0  0  0  0
 12 45  1  0  0  0  0
 13 14  1  0  0  0  0
 13 46  1  0  0  0  0
 14 15  1  0  0  0  0
 14 47  1  0  0  0  0
 14 48  1  0  0  0  0
 15 16  2  0  0  0  0
 15 49  1  0  0  0  0
 16 17  1  0  0  0  0
 16 50  1  0  0  0  0
 17 18  1  0  0  0  0
 17 51  1  0  0  0  0
 17 52  1  0  0  0  0
 18 19  1  0  0  0  0
 18 53  1  0  0  0  0
 18 54  1  0  0  0  0
 19 20  1  0  0  0  0
 19 55  1  0  0  0  0
 19 56  1  0  0  0  0
 20 21  1  0  0  0  0
 20 57  1  0  0  0  0
 20 58  1  0  0  0  0
 21 22  1  0  0  0  0
 22 23  1  0  0  0  0
 22 25  1  0  0  0  0
 22 59  1  0  0  0  0
 23 24  1  0  0  0  0
 23 60  1  0  0  0  0
 23 61  1  0  0  0  0
 24 62  1  0  0  0  0
 24 63  1  0  0  0  0
 24 64  1  0  0  0  0
 25 26  2  0  0  0  0
 25 27  1  0  0  0  0
 27 65  1  0  0  0  0
M  END
>  <DRUGBANK_ID>
DB12990

>  <COMMON_NAME>
Icosabutate

>  <CAS_NUMBER>
1253909-57-7

>  <UNII>
562599X5JL

>  <SYNONYMS>
Icosabutate

$$$$
