DF9
 OpenBabel10282417163D

 49 52  0  0  0  0  0  0  0  0999 V2000
    1.6790    2.0135    0.0446 N   0  0  0  0  0  0  0  0  0  0  0  0
    1.1721    0.7454   -0.0320 C   0  0  0  0  0  0  0  0  0  0  0  0
    2.0009   -0.3093    0.0448 N   0  0  0  0  0  0  0  0  0  0  0  0
    1.4590   -1.5435    0.0180 C   0  0  0  0  0  0  0  0  0  0  0  0
    0.1635   -1.8886   -0.0633 N   0  0  0  0  0  0  0  0  0  0  0  0
   -0.1714    0.4792   -0.1992 C   0  0  0  0  0  0  0  0  0  0  0  0
   -0.6514   -0.8184   -0.2172 C   0  0  0  0  0  0  0  0  0  0  0  0
   -1.2460    1.3200   -0.3245 N   0  0  0  0  0  0  0  0  0  0  0  0
   -2.3702    0.5784   -0.5685 C   0  0  0  0  0  0  0  0  0  0  0  0
   -2.0716   -0.7549   -0.3330 C   0  0  0  0  0  0  0  0  0  0  0  0
   -3.0584   -1.8611   -0.1212 C   0  0  0  0  0  0  0  0  0  0  0  0
   -3.8183   -1.6619    1.1236 N   0  0  0  0  0  0  0  0  0  0  0  0
   -4.6500   -0.4643    1.2464 C   0  0  0  0  0  0  0  0  0  0  0  0
   -4.0647    0.3232    2.4358 C   0  0  2  0  0  0  0  0  0  0  0  0
   -2.9747    1.1669    2.0698 O   0  0  0  0  0  0  0  0  0  0  0  0
   -2.9955   -1.7735    2.3238 C   0  0  0  0  0  0  0  0  0  0  0  0
   -3.4908   -0.7597    3.3544 C   0  0  2  0  0  0  0  0  0  0  0  0
   -4.5121   -1.2018    4.4028 C   0  0  0  0  0  0  0  0  0  0  0  0
   -4.1090   -2.7040    5.3901 S   0  0  0  0  0  0  0  0  0  0  0  0
   -4.0225   -4.1314    4.2180 C   0  0  0  0  0  0  0  0  0  0  0  0
   -5.2295   -4.4082    3.3488 C   0  0  0  0  0  0  0  0  0  0  0  0
   -5.5865   -5.7232    3.0598 C   0  0  0  0  0  0  0  0  0  0  0  0
   -6.7736   -6.0045    2.3701 C   0  0  0  0  0  0  0  0  0  0  0  0
   -7.6245   -4.9806    1.9536 C   0  0  0  0  0  0  0  0  0  0  0  0
   -7.2454   -3.6723    2.1498 C   0  0  0  0  0  0  0  0  0  0  0  0
   -6.0280   -3.4236    2.7677 C   0  0  0  0  0  0  0  0  0  0  0  0
   -4.8152    0.9689    2.8954 H   0  0  0  0  0  0  0  0  0  0  0  0
   -2.6206   -0.3725    3.9006 H   0  0  0  0  0  0  0  0  0  0  0  0
    1.0988    2.8333   -0.0362 H   0  0  0  0  0  0  0  0  0  0  0  0
    2.6835    2.1018    0.0330 H   0  0  0  0  0  0  0  0  0  0  0  0
    2.1672   -2.3676    0.0634 H   0  0  0  0  0  0  0  0  0  0  0  0
   -1.2342    2.3127   -0.1642 H   0  0  0  0  0  0  0  0  0  0  0  0
   -3.3172    1.0923   -0.6592 H   0  0  0  0  0  0  0  0  0  0  0  0
   -3.7490   -1.9317   -0.9684 H   0  0  0  0  0  0  0  0  0  0  0  0
   -2.5481   -2.8340   -0.0698 H   0  0  0  0  0  0  0  0  0  0  0  0
   -5.6680   -0.7754    1.5072 H   0  0  0  0  0  0  0  0  0  0  0  0
   -4.7773    0.0802    0.3118 H   0  0  0  0  0  0  0  0  0  0  0  0
   -2.2478    0.5594    1.8301 H   0  0  0  0  0  0  0  0  0  0  0  0
   -3.0587   -2.7900    2.6267 H   0  0  0  0  0  0  0  0  0  0  0  0
   -1.9265   -1.6191    2.1498 H   0  0  0  0  0  0  0  0  0  0  0  0
   -4.5693   -0.3856    5.1374 H   0  0  0  0  0  0  0  0  0  0  0  0
   -5.5463   -1.2031    4.0531 H   0  0  0  0  0  0  0  0  0  0  0  0
   -3.0730   -4.1898    3.6749 H   0  0  0  0  0  0  0  0  0  0  0  0
   -3.9099   -4.9862    4.8950 H   0  0  0  0  0  0  0  0  0  0  0  0
   -4.9458   -6.5413    3.3779 H   0  0  0  0  0  0  0  0  0  0  0  0
   -7.0469   -7.0354    2.1766 H   0  0  0  0  0  0  0  0  0  0  0  0
   -8.5605   -5.1945    1.4509 H   0  0  0  0  0  0  0  0  0  0  0  0
   -7.8627   -2.8379    1.8266 H   0  0  0  0  0  0  0  0  0  0  0  0
   -5.7154   -2.4071    2.7412 H   0  0  0  0  0  0  0  0  0  0  0  0
  1  2  1  0  0  0  0
  1 29  1  0  0  0  0
  1 30  1  0  0  0  0
  2  3  2  0  0  0  0
  2  6  1  0  0  0  0
  3  4  1  0  0  0  0
  4  5  2  0  0  0  0
  4 31  1  0  0  0  0
  5  7  1  0  0  0  0
  6  7  2  0  0  0  0
  6  8  1  0  0  0  0
  7 10  1  0  0  0  0
  8  9  1  0  0  0  0
  8 32  1  0  0  0  0
  9 10  2  0  0  0  0
  9 33  1  0  0  0  0
 10 11  1  0  0  0  0
 11 12  1  0  0  0  0
 11 34  1  0  0  0  0
 11 35  1  0  0  0  0
 12 13  1  0  0  0  0
 12 16  1  0  0  0  0
 13 14  1  0  0  0  0
 13 36  1  0  0  0  0
 13 37  1  0  0  0  0
 14 15  1  0  0  0  0
 14 17  1  0  0  0  0
 14 27  1  1  0  0  0
 15 38  1  0  0  0  0
 16 17  1  0  0  0  0
 16 39  1  0  0  0  0
 16 40  1  0  0  0  0
 17 28  1  1  0  0  0
 17 18  1  0  0  0  0
 18 19  1  0  0  0  0
 18 41  1  0  0  0  0
 18 42  1  0  0  0  0
 19 20  1  0  0  0  0
 20 21  1  0  0  0  0
 20 43  1  0  0  0  0
 20 44  1  0  0  0  0
 21 22  2  0  0  0  0
 21 26  1  0  0  0  0
 22 23  1  0  0  0  0
 22 45  1  0  0  0  0
 23 24  2  0  0  0  0
 23 46  1  0  0  0  0
 24 25  1  0  0  0  0
 24 47  1  0  0  0  0
 25 26  2  0  0  0  0
 25 48  1  0  0  0  0
 26 49  1  0  0  0  0
M  END
>  <DRUGBANK_ID>
DB07649

>  <COMMON_NAME>
(3R,4S)-1-[(4-amino-5H-pyrrolo[3,2-d]pyrimidin-7-yl)methyl]-4-[(benzylsulfanyl)methyl]pyrrolidin-3-ol

$$$$
