
 OpenBabel10282417143D

 48 47  0  0  0  0  0  0  0  0999 V2000
    1.0218    0.0445    0.0012 C   0  0  0  0  0  0  0  0  0  0  0  0
    0.5734    1.2037   -0.8728 C   0  0  0  0  0  0  0  0  0  0  0  0
    1.0838    1.0216   -2.3038 C   0  0  0  0  0  0  0  0  0  0  0  0
    0.5502   -0.2679   -2.9428 C   0  0  0  0  0  0  0  0  0  0  0  0
   -0.9768   -0.2772   -2.9806 C   0  0  0  0  0  0  0  0  0  0  0  0
   -1.5025    0.9310   -3.7380 C   0  0  0  0  0  0  0  0  0  0  0  0
   -1.0851    0.8277   -5.1699 C   0  0  0  0  0  0  0  0  0  0  0  0
   -1.9501    0.6626   -6.1669 C   0  0  0  0  0  0  0  0  0  0  0  0
   -3.4318    0.7153   -5.9756 C   0  0  0  0  0  0  0  0  0  0  0  0
   -3.9769    1.9285   -6.7120 C   0  0  0  0  0  0  0  0  0  0  0  0
   -3.7780    1.7696   -8.2171 C   0  0  0  0  0  0  0  0  0  0  0  0
   -4.4330    0.4737   -8.7082 C   0  0  0  0  0  0  0  0  0  0  0  0
   -5.9386    0.4828   -8.4180 C   0  0  0  0  0  0  0  0  0  0  0  0
   -6.6398    1.6102   -9.1828 C   0  0  0  0  0  0  0  0  0  0  0  0
   -6.4273    1.5014  -10.6933 C   0  0  0  0  0  0  0  0  0  0  0  0
   -6.9688    0.1954  -11.2345 C   0  0  0  0  0  0  0  0  0  0  0  0
   -7.9524    0.3354  -12.1413 O   0  0  0  0  0  0  0  0  0  0  0  0
   -6.5660   -0.9149  -10.9021 O   0  0  0  0  0  0  0  0  0  0  0  0
    0.6281   -0.9128   -0.3554 H   0  0  0  0  0  0  0  0  0  0  0  0
    0.6682    0.1706    1.0251 H   0  0  0  0  0  0  0  0  0  0  0  0
    2.1139   -0.0190    0.0006 H   0  0  0  0  0  0  0  0  0  0  0  0
   -0.5202    1.2849   -0.8465 H   0  0  0  0  0  0  0  0  0  0  0  0
    0.9479    2.1488   -0.4683 H   0  0  0  0  0  0  0  0  0  0  0  0
    0.8056    1.8993   -2.8998 H   0  0  0  0  0  0  0  0  0  0  0  0
    2.1772    1.0070   -2.3189 H   0  0  0  0  0  0  0  0  0  0  0  0
    0.9635   -0.3736   -3.9513 H   0  0  0  0  0  0  0  0  0  0  0  0
    0.9030   -1.1541   -2.4096 H   0  0  0  0  0  0  0  0  0  0  0  0
   -1.3389   -1.2086   -3.4355 H   0  0  0  0  0  0  0  0  0  0  0  0
   -1.4021   -0.2689   -1.9711 H   0  0  0  0  0  0  0  0  0  0  0  0
   -2.5770    0.9501   -3.5746 H   0  0  0  0  0  0  0  0  0  0  0  0
   -1.1702    1.8915   -3.3400 H   0  0  0  0  0  0  0  0  0  0  0  0
   -0.0242    0.8398   -5.4141 H   0  0  0  0  0  0  0  0  0  0  0  0
   -1.5508    0.5282   -7.1714 H   0  0  0  0  0  0  0  0  0  0  0  0
   -3.8629   -0.2383   -6.2868 H   0  0  0  0  0  0  0  0  0  0  0  0
   -3.7625    0.8079   -4.9451 H   0  0  0  0  0  0  0  0  0  0  0  0
   -5.0359    2.0460   -6.4576 H   0  0  0  0  0  0  0  0  0  0  0  0
   -3.4988    2.8506   -6.3596 H   0  0  0  0  0  0  0  0  0  0  0  0
   -4.1785    2.6478   -8.7305 H   0  0  0  0  0  0  0  0  0  0  0  0
   -2.7141    1.7639   -8.4743 H   0  0  0  0  0  0  0  0  0  0  0  0
   -4.2168    0.3375   -9.7702 H   0  0  0  0  0  0  0  0  0  0  0  0
   -3.9809   -0.4116   -8.2494 H   0  0  0  0  0  0  0  0  0  0  0  0
   -6.3680   -0.4912   -8.6609 H   0  0  0  0  0  0  0  0  0  0  0  0
   -6.1446    0.5821   -7.3466 H   0  0  0  0  0  0  0  0  0  0  0  0
   -7.7070    1.6061   -8.9419 H   0  0  0  0  0  0  0  0  0  0  0  0
   -6.2685    2.5838   -8.8356 H   0  0  0  0  0  0  0  0  0  0  0  0
   -6.8943    2.3579  -11.1876 H   0  0  0  0  0  0  0  0  0  0  0  0
   -5.3671    1.5650  -10.9643 H   0  0  0  0  0  0  0  0  0  0  0  0
   -8.1670    1.2571  -12.3690 H   0  0  0  0  0  0  0  0  0  0  0  0
  1  2  1  0  0  0  0
  1 19  1  0  0  0  0
  1 20  1  0  0  0  0
  1 21  1  0  0  0  0
  2  3  1  0  0  0  0
  2 22  1  0  0  0  0
  2 23  1  0  0  0  0
  3  4  1  0  0  0  0
  3 24  1  0  0  0  0
  3 25  1  0  0  0  0
  4  5  1  0  0  0  0
  4 26  1  0  0  0  0
  4 27  1  0  0  0  0
  5  6  1  0  0  0  0
  5 28  1  0  0  0  0
  5 29  1  0  0  0  0
  6  7  1  0  0  0  0
  6 30  1  0  0  0  0
  6 31  1  0  0  0  0
  7  8  2  0  0  0  0
  7 32  1  0  0  0  0
  8  9  1  0  0  0  0
  8 33  1  0  0  0  0
  9 10  1  0  0  0  0
  9 34  1  0  0  0  0
  9 35  1  0  0  0  0
 10 11  1  0  0  0  0
 10 36  1  0  0  0  0
 10 37  1  0  0  0  0
 11 12  1  0  0  0  0
 11 38  1  0  0  0  0
 11 39  1  0  0  0  0
 12 13  1  0  0  0  0
 12 40  1  0  0  0  0
 12 41  1  0  0  0  0
 13 14  1  0  0  0  0
 13 42  1  0  0  0  0
 13 43  1  0  0  0  0
 14 15  1  0  0  0  0
 14 44  1  0  0  0  0
 14 45  1  0  0  0  0
 15 16  1  0  0  0  0
 15 46  1  0  0  0  0
 15 47  1  0  0  0  0
 16 17  1  0  0  0  0
 16 18  2  0  0  0  0
 17 48  1  0  0  0  0
M  END
>  <DRUGBANK_ID>
DB04257

>  <SECONDARY_ACCESSION_NUMBERS>
EXPT02495

>  <COMMON_NAME>
Palmitoleic Acid

>  <CAS_NUMBER>
373-49-9

>  <UNII>
209B6YPZ4I

>  <SYNONYMS>
(9Z)-hexadecenoic acid; (Z)-9-hexadecenoic acid; (Z)-hexadec-9-enoic acid; 9-cis-hexadecenoic acid; cis-9-Hexadecenoic acid; palmitolinoleic acid; zoomaric acid

$$$$
