
 OpenBabel10282417113D

 46 48  0  0  1  0  0  0  0  0999 V2000
   -0.2825   10.7268   -0.0524 N   0  0  0  0  0  0  0  0  0  0  0  0
   -1.5173   10.0843   -0.4808 C   0  0  1  0  0  0  0  0  0  0  0  0
   -0.1192   12.0304    0.3730 C   0  0  0  0  0  0  0  0  0  0  0  0
    0.3112    9.5859    0.4137 C   0  0  0  0  0  0  0  0  0  0  0  0
   -0.7624    8.7279   -0.3079 C   0  0  1  0  0  0  0  0  0  0  0  0
   -2.8142   10.5579    0.6867 S   0  0  0  0  0  0  0  0  0  0  0  0
   -1.2053   12.8661    0.4278 C   0  0  0  0  0  0  0  0  0  0  0  0
    1.3537   12.3831    0.6017 C   0  0  0  0  0  0  0  0  0  0  0  0
    1.2099    9.3847    1.1766 O   0  0  0  0  0  0  0  0  0  0  0  0
   -1.3580    7.5801    0.4514 N   0  0  0  0  0  0  0  0  0  0  0  0
   -2.6385   12.3377    0.2756 C   0  0  0  0  0  0  0  0  0  0  0  0
   -1.2012   14.3162    0.7371 C   0  0  0  0  0  0  0  0  0  0  0  0
    2.2816   11.8833   -0.0190 O   0  0  0  0  0  0  0  0  0  0  0  0
    1.6034   13.3903    1.4592 O   0  0  0  0  0  0  0  0  0  0  0  0
   -1.4786    6.3308   -0.1586 C   0  0  0  0  0  0  0  0  0  0  0  0
   -0.1323   15.1061    0.5710 C   0  0  0  0  0  0  0  0  0  0  0  0
   -2.2203    5.1867    0.6356 C   0  0  2  0  0  0  0  0  0  0  0  0
   -1.0340    6.1593   -1.2970 O   0  0  0  0  0  0  0  0  0  0  0  0
   -2.0416    3.9223   -0.1232 N   0  0  0  0  0  0  0  0  0  0  0  0
   -0.3786    8.3787   -1.2745 H   0  0  0  0  0  0  0  0  0  0  0  0
   -1.7890   10.2706   -1.5271 H   0  0  0  0  0  0  0  0  0  0  0  0
   -3.7047    5.4744    0.8827 C   0  0  0  0  0  0  0  0  0  0  0  0
   -4.2030    6.7854    0.9729 C   0  0  0  0  0  0  0  0  0  0  0  0
   -4.6341    4.4344    1.0650 C   0  0  0  0  0  0  0  0  0  0  0  0
   -5.5448    7.0672    1.2049 C   0  0  0  0  0  0  0  0  0  0  0  0
   -5.9896    4.7082    1.2738 C   0  0  0  0  0  0  0  0  0  0  0  0
   -6.4337    6.0204    1.3386 C   0  0  0  0  0  0  0  0  0  0  0  0
   -7.7612    6.2462    1.5293 O   0  0  0  0  0  0  0  0  0  0  0  0
    0.1700   16.4551    1.1207 C   0  0  0  0  0  0  0  0  0  0  0  0
   -1.6653    7.7031    1.4119 H   0  0  0  0  0  0  0  0  0  0  0  0
   -2.9958   12.5138   -0.7466 H   0  0  0  0  0  0  0  0  0  0  0  0
   -3.3258   12.8572    0.9535 H   0  0  0  0  0  0  0  0  0  0  0  0
   -2.1145   14.7571    1.1427 H   0  0  0  0  0  0  0  0  0  0  0  0
    2.4233   13.8223    1.1285 H   0  0  0  0  0  0  0  0  0  0  0  0
    0.7062   14.7128    0.0176 H   0  0  0  0  0  0  0  0  0  0  0  0
   -1.7101    5.0583    1.5981 H   0  0  0  0  0  0  0  0  0  0  0  0
   -2.6585    3.9504   -0.9371 H   0  0  0  0  0  0  0  0  0  0  0  0
   -2.3048    3.1167    0.4337 H   0  0  0  0  0  0  0  0  0  0  0  0
   -3.5842    7.6570    0.8407 H   0  0  0  0  0  0  0  0  0  0  0  0
   -4.3331    3.3904    1.0254 H   0  0  0  0  0  0  0  0  0  0  0  0
   -5.8508    8.1071    1.2601 H   0  0  0  0  0  0  0  0  0  0  0  0
   -6.6988    3.8937    1.3801 H   0  0  0  0  0  0  0  0  0  0  0  0
   -7.9106    7.2061    1.5275 H   0  0  0  0  0  0  0  0  0  0  0  0
    0.7619   16.3760    2.0454 H   0  0  0  0  0  0  0  0  0  0  0  0
    0.8088   16.9632    0.3920 H   0  0  0  0  0  0  0  0  0  0  0  0
   -0.7199   17.0502    1.3134 H   0  0  0  0  0  0  0  0  0  0  0  0
  2  1  1  0  0  0  0
  2 21  1  6  0  0  0
  3  1  1  0  0  0  0
  4  1  1  0  0  0  0
  5  2  1  0  0  0  0
  5  4  1  0  0  0  0
  5 10  1  0  0  0  0
  5 20  1  6  0  0  0
  6  2  1  0  0  0  0
  7  3  2  0  0  0  0
  8  3  1  0  0  0  0
  9  4  2  0  0  0  0
 10 30  1  0  0  0  0
 11  6  1  0  0  0  0
 11  7  1  0  0  0  0
 11 31  1  0  0  0  0
 11 32  1  0  0  0  0
 12  7  1  0  0  0  0
 12 33  1  0  0  0  0
 13  8  2  0  0  0  0
 14  8  1  0  0  0  0
 14 34  1  0  0  0  0
 15 10  1  0  0  0  0
 16 12  2  3  0  0  0
 16 29  1  0  0  0  0
 16 35  1  0  0  0  0
 17 36  1  1  0  0  0
 17 19  1  0  0  0  0
 17 15  1  0  0  0  0
 18 15  2  0  0  0  0
 19 37  1  0  0  0  0
 19 38  1  0  0  0  0
 22 17  1  0  0  0  0
 23 22  1  0  0  0  0
 23 39  1  0  0  0  0
 24 22  2  0  0  0  0
 24 40  1  0  0  0  0
 25 23  2  0  0  0  0
 25 41  1  0  0  0  0
 26 24  1  0  0  0  0
 26 42  1  0  0  0  0
 27 25  1  0  0  0  0
 27 26  2  0  0  0  0
 28 27  1  0  0  0  0
 28 43  1  0  0  0  0
 29 44  1  0  0  0  0
 29 45  1  0  0  0  0
 29 46  1  0  0  0  0
M  END
>  <DRUGBANK_ID>
DB01150

>  <SECONDARY_ACCESSION_NUMBERS>
APRD00461

>  <COMMON_NAME>
Cefprozil

>  <CAS_NUMBER>
92665-29-7

>  <UNII>
1M698F4H4E

>  <SYNONYMS>
Cefprozil; Cefprozil anhydrous; Cefprozilo; Cefprozilum

$$$$
