123
 OpenBabel10282417123D

 36 38  0  0  0  0  0  0  0  0999 V2000
    2.1822    0.7651   -0.0171 C   0  0  0  0  0  0  0  0  0  0  0  0
    2.1837   -0.6502    0.0000 C   0  0  0  0  0  0  0  0  0  0  0  0
    1.0101   -1.4222    0.0153 C   0  0  0  0  0  0  0  0  0  0  0  0
   -0.1876   -0.7215    0.0106 C   0  0  0  0  0  0  0  0  0  0  0  0
   -0.2519    0.6610   -0.0124 C   0  0  0  0  0  0  0  0  0  0  0  0
    0.9313    1.4144   -0.0122 C   0  0  0  0  0  0  0  0  0  0  0  0
    3.4497    1.5459   -0.0556 C   0  0  0  0  0  0  0  0  0  0  0  0
    3.4406    2.8667   -0.0766 N   0  0  0  0  0  0  0  0  0  0  0  0
    4.6163    0.9360   -0.0781 N   0  3  0  0  0  0  0  0  0  0  0  0
   -1.4984   -1.1221    0.0164 N   0  0  0  0  0  0  0  0  0  0  0  0
   -1.5461    1.0925   -0.0558 N   0  0  0  0  0  0  0  0  0  0  0  0
   -2.2872    0.0032    0.0118 C   0  0  0  0  0  0  0  0  0  0  0  0
   -3.7401   -0.0386   -0.0110 C   0  0  0  0  0  0  0  0  0  0  0  0
   -4.4359   -0.6680    1.0326 C   0  0  0  0  0  0  0  0  0  0  0  0
   -5.8315   -0.6896    1.0377 C   0  0  0  0  0  0  0  0  0  0  0  0
   -6.6156   -1.2519    2.0068 O   0  0  0  0  0  0  0  0  0  0  0  0
   -5.9474   -1.8371    3.1184 C   0  0  0  0  0  0  0  0  0  0  0  0
   -6.5297   -0.0925   -0.0158 C   0  0  0  0  0  0  0  0  0  0  0  0
   -5.8467    0.5318   -1.0611 C   0  0  0  0  0  0  0  0  0  0  0  0
   -4.4581    0.5624   -1.0521 C   0  0  0  0  0  0  0  0  0  0  0  0
   -3.8437    1.1811   -2.1078 O   0  0  0  0  0  0  0  0  0  0  0  0
    3.1077   -1.2216    0.0003 H   0  0  0  0  0  0  0  0  0  0  0  0
    1.0429   -2.5077    0.0242 H   0  0  0  0  0  0  0  0  0  0  0  0
    0.8093    2.4898   -0.0165 H   0  0  0  0  0  0  0  0  0  0  0  0
    4.2901    3.4135   -0.1090 H   0  0  0  0  0  0  0  0  0  0  0  0
    2.5810    3.3996   -0.0652 H   0  0  0  0  0  0  0  0  0  0  0  0
    4.6915   -0.0726   -0.0693 H   0  0  0  0  0  0  0  0  0  0  0  0
    5.4928    1.4384   -0.1092 H   0  0  0  0  0  0  0  0  0  0  0  0
   -1.8392   -2.0733   -0.0105 H   0  0  0  0  0  0  0  0  0  0  0  0
   -3.8705   -1.1117    1.8452 H   0  0  0  0  0  0  0  0  0  0  0  0
   -5.3213   -2.6772    2.7995 H   0  0  0  0  0  0  0  0  0  0  0  0
   -5.3578   -1.0916    3.6632 H   0  0  0  0  0  0  0  0  0  0  0  0
   -6.7055   -2.2279    3.8033 H   0  0  0  0  0  0  0  0  0  0  0  0
   -7.6173   -0.1078   -0.0207 H   0  0  0  0  0  0  0  0  0  0  0  0
   -6.3966    0.9984   -1.8735 H   0  0  0  0  0  0  0  0  0  0  0  0
   -2.8943    1.2655   -1.8983 H   0  0  0  0  0  0  0  0  0  0  0  0
  1  2  1  0  0  0  0
  1  6  2  0  0  0  0
  1  7  1  0  0  0  0
  2  3  2  0  0  0  0
  2 22  1  0  0  0  0
  3  4  1  0  0  0  0
  3 23  1  0  0  0  0
  4  5  2  0  0  0  0
  4 10  1  0  0  0  0
  5  6  1  0  0  0  0
  5 11  1  0  0  0  0
  6 24  1  0  0  0  0
  7  8  1  0  0  0  0
  7  9  2  0  0  0  0
  8 25  1  0  0  0  0
  8 26  1  0  0  0  0
  9 27  1  0  0  0  0
  9 28  1  0  0  0  0
 10 12  1  0  0  0  0
 10 29  1  0  0  0  0
 11 12  2  0  0  0  0
 12 13  1  0  0  0  0
 13 14  2  0  0  0  0
 13 20  1  0  0  0  0
 14 15  1  0  0  0  0
 14 30  1  0  0  0  0
 15 16  1  0  0  0  0
 15 18  2  0  0  0  0
 16 17  1  0  0  0  0
 17 31  1  0  0  0  0
 17 32  1  0  0  0  0
 17 33  1  0  0  0  0
 18 19  1  0  0  0  0
 18 34  1  0  0  0  0
 19 20  2  0  0  0  0
 19 35  1  0  0  0  0
 20 21  1  0  0  0  0
 21 36  1  0  0  0  0
M  CHG  1   9   1
M  END
>  <DRUGBANK_ID>
DB01905

>  <SECONDARY_ACCESSION_NUMBERS>
EXPT00017

>  <COMMON_NAME>
2-(2-Hydroxy-5-Methoxy-Phenyl)-1h-Benzoimidazole-5-Carboxamidine

$$$$
