
 OpenBabel10282417133D

 47 46  0  0  0  0  0  0  0  0999 V2000
    1.2216    0.0736   -0.1135 C   0  0  0  0  0  0  0  0  0  0  0  0
   -1.6047   -2.5285    2.8760 C   0  0  0  0  0  0  0  0  0  0  0  0
    0.6751   -1.3285    0.1608 C   0  0  0  0  0  0  0  0  0  0  0  0
   -1.0100   -1.1444    2.6701 C   0  0  0  0  0  0  0  0  0  0  0  0
    1.1206   -1.9035    1.5045 C   0  0  0  0  0  0  0  0  0  0  0  0
    0.5171   -1.2291    2.7411 C   0  0  0  0  0  0  0  0  0  0  0  0
    1.1506    2.5494    0.6657 C   0  0  0  0  0  0  0  0  0  0  0  0
   -1.6144   -2.1718    5.3923 C   0  0  0  0  0  0  0  0  0  0  0  0
    0.9707    1.0927    0.9972 C   0  0  0  0  0  0  0  0  0  0  0  0
   -1.2017   -3.0948    4.2417 C   0  0  0  0  0  0  0  0  0  0  0  0
    0.4264    3.0136   -0.5818 C   0  0  0  0  0  0  0  0  0  0  0  0
   -1.1009    3.0367   -0.5589 N   0  3  0  0  0  0  0  0  0  0  0  0
   -3.1257   -2.0274    5.4318 C   0  0  0  0  0  0  0  0  0  0  0  0
   -1.5936    3.8768    0.5789 C   0  0  0  0  0  0  0  0  0  0  0  0
   -1.5044    3.6244   -1.7457 O   0  5  0  0  0  0  0  0  0  0  0  0
   -1.7475    1.6818   -0.5010 C   0  0  0  0  0  0  0  0  0  0  0  0
    0.8092    0.3913   -1.0701 H   0  0  0  0  0  0  0  0  0  0  0  0
    2.3070   -0.0011   -0.2544 H   0  0  0  0  0  0  0  0  0  0  0  0
   -2.6928   -2.4776    2.7714 H   0  0  0  0  0  0  0  0  0  0  0  0
   -1.2720   -3.2023    2.0790 H   0  0  0  0  0  0  0  0  0  0  0  0
   -0.4193   -1.3389    0.0593 H   0  0  0  0  0  0  0  0  0  0  0  0
    1.0211   -1.9958   -0.6376 H   0  0  0  0  0  0  0  0  0  0  0  0
   -1.3757   -0.4229    3.4098 H   0  0  0  0  0  0  0  0  0  0  0  0
   -1.3761   -0.7348    1.7257 H   0  0  0  0  0  0  0  0  0  0  0  0
    0.8575   -2.9675    1.5246 H   0  0  0  0  0  0  0  0  0  0  0  0
    2.2142   -1.8656    1.5671 H   0  0  0  0  0  0  0  0  0  0  0  0
    0.8759   -1.7588    3.6237 H   0  0  0  0  0  0  0  0  0  0  0  0
    0.9112   -0.2429    2.9566 H   0  0  0  0  0  0  0  0  0  0  0  0
    0.8542    3.1398    1.5397 H   0  0  0  0  0  0  0  0  0  0  0  0
    2.2296    2.7257    0.5499 H   0  0  0  0  0  0  0  0  0  0  0  0
   -1.2463   -2.5818    6.3368 H   0  0  0  0  0  0  0  0  0  0  0  0
   -1.1510   -1.1806    5.3084 H   0  0  0  0  0  0  0  0  0  0  0  0
   -0.0258    0.9757    1.4338 H   0  0  0  0  0  0  0  0  0  0  0  0
    1.6983    0.9157    1.7874 H   0  0  0  0  0  0  0  0  0  0  0  0
   -1.6419   -4.0867    4.3657 H   0  0  0  0  0  0  0  0  0  0  0  0
   -0.1207   -3.2666    4.2903 H   0  0  0  0  0  0  0  0  0  0  0  0
    0.7177    4.0539   -0.7668 H   0  0  0  0  0  0  0  0  0  0  0  0
    0.7197    2.4411   -1.4645 H   0  0  0  0  0  0  0  0  0  0  0  0
   -3.5869   -3.0145    5.5271 H   0  0  0  0  0  0  0  0  0  0  0  0
   -3.4346   -1.4040    6.2720 H   0  0  0  0  0  0  0  0  0  0  0  0
   -3.5143   -1.5589    4.5214 H   0  0  0  0  0  0  0  0  0  0  0  0
   -1.1663    4.8704    0.4654 H   0  0  0  0  0  0  0  0  0  0  0  0
   -2.6878    3.9051    0.5100 H   0  0  0  0  0  0  0  0  0  0  0  0
   -1.2896    3.4078    1.5190 H   0  0  0  0  0  0  0  0  0  0  0  0
   -1.2662    1.0215   -1.2125 H   0  0  0  0  0  0  0  0  0  0  0  0
   -1.7115    1.3035    0.5240 H   0  0  0  0  0  0  0  0  0  0  0  0
   -2.8028    1.8134   -0.7681 H   0  0  0  0  0  0  0  0  0  0  0  0
  1  9  1  0  0  0  0
  1 17  1  0  0  0  0
  1 18  1  0  0  0  0
  2 10  1  0  0  0  0
  2 19  1  0  0  0  0
  2 20  1  0  0  0  0
  3  1  1  0  0  0  0
  3 21  1  0  0  0  0
  3 22  1  0  0  0  0
  4  2  1  0  0  0  0
  4 23  1  0  0  0  0
  4 24  1  0  0  0  0
  5  3  1  0  0  0  0
  5 25  1  0  0  0  0
  5 26  1  0  0  0  0
  6  4  1  0  0  0  0
  6  5  1  0  0  0  0
  6 27  1  0  0  0  0
  6 28  1  0  0  0  0
  7 11  1  0  0  0  0
  7 29  1  0  0  0  0
  7 30  1  0  0  0  0
  8 13  1  0  0  0  0
  8 31  1  0  0  0  0
  8 32  1  0  0  0  0
  9  7  1  0  0  0  0
  9 33  1  0  0  0  0
  9 34  1  0  0  0  0
 10  8  1  0  0  0  0
 10 35  1  0  0  0  0
 10 36  1  0  0  0  0
 11 12  1  0  0  0  0
 11 37  1  0  0  0  0
 11 38  1  0  0  0  0
 12 14  1  0  0  0  0
 12 15  1  0  0  0  0
 12 16  1  0  0  0  0
 13 39  1  0  0  0  0
 13 40  1  0  0  0  0
 13 41  1  0  0  0  0
 14 42  1  0  0  0  0
 14 43  1  0  0  0  0
 14 44  1  0  0  0  0
 16 45  1  0  0  0  0
 16 46  1  0  0  0  0
 16 47  1  0  0  0  0
M  CHG  2  12   1  15  -1
M  END
>  <DRUGBANK_ID>
DB04147

>  <SECONDARY_ACCESSION_NUMBERS>
EXPT02013

>  <COMMON_NAME>
Dodecyldimethylamine N-oxide

>  <CAS_NUMBER>
1643-20-5

>  <UNII>
4F6FC4MI8W

>  <SYNONYMS>
Dimethylaurylamine oxide; Dimethyldodecylamine N-oxide; Dimethyldodecylamine oxide; Dodecyl(dimethyl)amine oxide; Dodecyldimethylamine oxide; Lauramine oxide; Lauryl dimethylamine-N-oxide; lauryldimethylamine N-oxide; Lauryldimethylamine oxide; n-Dodecyldimethylamine oxide; N,N-Dimethyldodecylamine oxide

$$$$
