
 OpenBabel10282417113D

 41 42  0  0  0  0  0  0  0  0999 V2000
    1.2153   -0.0171   -0.2377 C   0  0  0  0  0  0  0  0  0  0  0  0
    0.4313   -1.2178   -0.1099 C   0  0  0  0  0  0  0  0  0  0  0  0
   -0.9241   -1.0727   -0.0289 C   0  0  0  0  0  0  0  0  0  0  0  0
   -0.6092    1.3769    0.0820 C   0  0  0  0  0  0  0  0  0  0  0  0
    0.7475    1.2609   -0.0961 C   0  0  0  0  0  0  0  0  0  0  0  0
    1.7131    2.3979   -0.2992 C   0  0  0  0  0  0  0  0  0  0  0  0
    1.4455    3.0190   -1.5794 N   0  0  0  0  0  0  0  0  0  0  0  0
    1.2473   -2.5131   -0.0408 C   0  0  0  0  0  0  0  0  0  0  0  0
    0.2646    3.6128   -1.8253 N   0  0  0  0  0  0  0  0  0  0  0  0
    0.3376    3.8098   -3.1411 C   0  0  0  0  0  0  0  0  0  0  0  0
    1.5193    3.4373   -3.7189 N   0  0  0  0  0  0  0  0  0  0  0  0
    2.1971    2.9397   -2.7103 C   0  0  0  0  0  0  0  0  0  0  0  0
    0.9732   -3.8901    0.4117 C   0  0  0  0  0  0  0  0  0  0  0  0
    1.1742   -4.9750    0.7849 N   0  0  0  0  0  0  0  0  0  0  0  0
    1.7470   -2.6112   -1.4976 C   0  0  0  0  0  0  0  0  0  0  0  0
    2.1657   -2.0321    1.1060 C   0  0  0  0  0  0  0  0  0  0  0  0
   -1.4535    0.2399   -0.0344 C   0  0  0  0  0  0  0  0  0  0  0  0
   -2.9514    0.4625   -0.1969 C   0  0  0  0  0  0  0  0  0  0  0  0
   -3.2637    1.7298   -0.9358 C   0  0  0  0  0  0  0  0  0  0  0  0
   -3.5127    2.6960   -1.4988 N   0  0  0  0  0  0  0  0  0  0  0  0
   -3.5772   -0.6891   -1.0027 C   0  0  0  0  0  0  0  0  0  0  0  0
   -3.5338    0.5154    1.2118 C   0  0  0  0  0  0  0  0  0  0  0  0
    2.2966   -0.0539   -0.3532 H   0  0  0  0  0  0  0  0  0  0  0  0
   -1.5508   -1.9571    0.0253 H   0  0  0  0  0  0  0  0  0  0  0  0
   -1.0215    2.3778    0.2031 H   0  0  0  0  0  0  0  0  0  0  0  0
    1.6713    3.1394    0.5009 H   0  0  0  0  0  0  0  0  0  0  0  0
    2.7518    2.0322   -0.3423 H   0  0  0  0  0  0  0  0  0  0  0  0
   -0.4915    4.2407   -3.6857 H   0  0  0  0  0  0  0  0  0  0  0  0
    3.1854    2.5030   -2.7487 H   0  0  0  0  0  0  0  0  0  0  0  0
    0.9112   -2.4429   -2.2052 H   0  0  0  0  0  0  0  0  0  0  0  0
    2.4886   -1.8390   -1.7071 H   0  0  0  0  0  0  0  0  0  0  0  0
    2.1714   -3.5797   -1.7703 H   0  0  0  0  0  0  0  0  0  0  0  0
    2.9284   -1.4031    0.6710 H   0  0  0  0  0  0  0  0  0  0  0  0
    1.5431   -1.4839    1.8525 H   0  0  0  0  0  0  0  0  0  0  0  0
    2.7392   -2.7418    1.6888 H   0  0  0  0  0  0  0  0  0  0  0  0
   -3.0836   -0.7979   -1.9794 H   0  0  0  0  0  0  0  0  0  0  0  0
   -3.4931   -1.6483   -0.4820 H   0  0  0  0  0  0  0  0  0  0  0  0
   -4.6420   -0.5209   -1.1752 H   0  0  0  0  0  0  0  0  0  0  0  0
   -3.3526   -0.4269    1.7426 H   0  0  0  0  0  0  0  0  0  0  0  0
   -3.0736    1.3157    1.8064 H   0  0  0  0  0  0  0  0  0  0  0  0
   -4.6108    0.6947    1.1800 H   0  0  0  0  0  0  0  0  0  0  0  0
  1  2  2  0  0  0  0
  1  5  1  0  0  0  0
  1 23  1  0  0  0  0
  2  3  1  0  0  0  0
  2  8  1  0  0  0  0
  3 17  2  0  0  0  0
  3 24  1  0  0  0  0
  4  5  2  0  0  0  0
  4 25  1  0  0  0  0
  5  6  1  0  0  0  0
  6  7  1  0  0  0  0
  6 26  1  0  0  0  0
  6 27  1  0  0  0  0
  7  9  1  0  0  0  0
  7 12  1  0  0  0  0
  8 13  1  0  0  0  0
  8 15  1  0  0  0  0
  9 10  2  0  0  0  0
 10 11  1  0  0  0  0
 10 28  1  0  0  0  0
 11 12  2  0  0  0  0
 12 29  1  0  0  0  0
 13 14  3  0  0  0  0
 15 30  1  0  0  0  0
 15 31  1  0  0  0  0
 15 32  1  0  0  0  0
 16  8  1  0  0  0  0
 16 33  1  0  0  0  0
 16 34  1  0  0  0  0
 16 35  1  0  0  0  0
 17  4  1  0  0  0  0
 17 18  1  0  0  0  0
 18 19  1  0  0  0  0
 18 21  1  0  0  0  0
 19 20  3  0  0  0  0
 21 36  1  0  0  0  0
 21 37  1  0  0  0  0
 21 38  1  0  0  0  0
 22 18  1  0  0  0  0
 22 39  1  0  0  0  0
 22 40  1  0  0  0  0
 22 41  1  0  0  0  0
M  END
>  <DRUGBANK_ID>
DB01217

>  <SECONDARY_ACCESSION_NUMBERS>
APRD00016

>  <COMMON_NAME>
Anastrozole

>  <CAS_NUMBER>
120511-73-1

>  <UNII>
2Z07MYW1AZ

>  <SYNONYMS>
Anastrozol; Anastrozole; α,α,α',α'-Tetramethyl-5-(1H-1,2,4-triazol-1-ylmethyl)-m-benzenediacetonitrile

$$$$
