
 OpenBabel10282417223D

 46 47  0  0  0  0  0  0  0  0999 V2000
    0.8940    0.0543   -0.1988 C   0  0  3  0  0  0  0  0  0  0  0  0
    0.4858   -0.4998    1.1978 C   0  0  0  0  0  0  0  0  0  0  0  0
    1.0016    0.3025    2.4398 C   0  0  0  0  0  0  0  0  0  0  0  0
    2.5703    0.2190    2.4699 C   0  0  0  0  0  0  0  0  0  0  0  0
    3.2157    0.8890    3.4708 N   0  0  0  0  0  0  0  0  0  0  0  0
    3.2624   -0.4114    1.6604 O   0  0  0  0  0  0  0  0  0  0  0  0
    0.4625    1.7545    2.3769 C   0  0  0  0  0  0  0  0  0  0  0  0
    0.5076   -0.3451    3.7598 C   0  0  0  0  0  0  0  0  0  0  0  0
    0.3980   -0.8305   -1.2813 N   0  0  0  0  0  0  0  0  0  0  0  0
   -1.0638   -0.8980   -1.3214 C   0  0  0  0  0  0  0  0  0  0  0  0
    0.9264   -0.3706   -2.5712 C   0  0  0  0  0  0  0  0  0  0  0  0
    0.5325   -1.7345    3.9319 C   0  0  0  0  0  0  0  0  0  0  0  0
    0.2797   -2.2901    5.1812 C   0  0  0  0  0  0  0  0  0  0  0  0
    0.0092   -1.4689    6.2738 C   0  0  0  0  0  0  0  0  0  0  0  0
   -0.0450   -0.0914    6.1197 C   0  0  0  0  0  0  0  0  0  0  0  0
    0.1601    0.4604    4.8668 C   0  0  0  0  0  0  0  0  0  0  0  0
   -0.9331    1.9806    2.3269 C   0  0  0  0  0  0  0  0  0  0  0  0
   -1.4387    3.2736    2.2541 C   0  0  0  0  0  0  0  0  0  0  0  0
   -0.5658    4.3593    2.2450 C   0  0  0  0  0  0  0  0  0  0  0  0
    0.8097    4.1611    2.2974 C   0  0  0  0  0  0  0  0  0  0  0  0
    1.3188    2.8708    2.3295 C   0  0  0  0  0  0  0  0  0  0  0  0
    0.4656    1.5002   -0.4604 C   0  0  0  0  0  0  0  0  0  0  0  0
    1.9882    0.0224   -0.2455 H   0  0  0  0  0  0  0  0  0  0  0  0
   -0.6042   -0.5841    1.2784 H   0  0  0  0  0  0  0  0  0  0  0  0
    0.8518   -1.5368    1.2368 H   0  0  0  0  0  0  0  0  0  0  0  0
    2.7146    1.4602    4.1393 H   0  0  0  0  0  0  0  0  0  0  0  0
    4.2246    0.9264    3.4407 H   0  0  0  0  0  0  0  0  0  0  0  0
   -1.5265    0.0846   -1.4524 H   0  0  0  0  0  0  0  0  0  0  0  0
   -1.4009   -1.5376   -2.1399 H   0  0  0  0  0  0  0  0  0  0  0  0
   -1.4703   -1.3446   -0.4085 H   0  0  0  0  0  0  0  0  0  0  0  0
    0.5612    0.6224   -2.8499 H   0  0  0  0  0  0  0  0  0  0  0  0
    2.0223   -0.3321   -2.5443 H   0  0  0  0  0  0  0  0  0  0  0  0
    0.6322   -1.0375   -3.3818 H   0  0  0  0  0  0  0  0  0  0  0  0
    0.7862   -2.4052    3.1150 H   0  0  0  0  0  0  0  0  0  0  0  0
    0.3361   -3.3672    5.3028 H   0  0  0  0  0  0  0  0  0  0  0  0
   -0.1552   -1.9040    7.2525 H   0  0  0  0  0  0  0  0  0  0  0  0
   -0.2187    0.5652    6.9665 H   0  0  0  0  0  0  0  0  0  0  0  0
    0.0642    1.5418    4.7840 H   0  0  0  0  0  0  0  0  0  0  0  0
   -1.6307    1.1428    2.3140 H   0  0  0  0  0  0  0  0  0  0  0  0
   -2.5121    3.4288    2.1970 H   0  0  0  0  0  0  0  0  0  0  0  0
   -0.9567    5.3678    2.1664 H   0  0  0  0  0  0  0  0  0  0  0  0
    1.4971    5.0009    2.2716 H   0  0  0  0  0  0  0  0  0  0  0  0
    2.3915    2.7566    2.1920 H   0  0  0  0  0  0  0  0  0  0  0  0
    1.0069    2.1851    0.1669 H   0  0  0  0  0  0  0  0  0  0  0  0
    0.7468    1.8878   -1.4354 H   0  0  0  0  0  0  0  0  0  0  0  0
   -0.6114    1.6305   -0.3274 H   0  0  0  0  0  0  0  0  0  0  0  0
  1  9  1  0  0  0  0
  1  2  1  0  0  0  0
  1 22  1  0  0  0  0
  1 23  1  0  0  0  0
  2  3  1  0  0  0  0
  2 24  1  0  0  0  0
  2 25  1  0  0  0  0
  3  7  1  0  0  0  0
  3  8  1  0  0  0  0
  3  4  1  0  0  0  0
  4  6  2  0  0  0  0
  4  5  1  0  0  0  0
  5 26  1  0  0  0  0
  5 27  1  0  0  0  0
  7 17  2  0  0  0  0
  8 12  2  0  0  0  0
  9 10  1  0  0  0  0
  9 11  1  0  0  0  0
 10 28  1  0  0  0  0
 10 29  1  0  0  0  0
 10 30  1  0  0  0  0
 11 31  1  0  0  0  0
 11 32  1  0  0  0  0
 11 33  1  0  0  0  0
 12 13  1  0  0  0  0
 12 34  1  0  0  0  0
 13 14  2  0  0  0  0
 13 35  1  0  0  0  0
 14 15  1  0  0  0  0
 14 36  1  0  0  0  0
 15 16  2  0  0  0  0
 15 37  1  0  0  0  0
 16  8  1  0  0  0  0
 16 38  1  0  0  0  0
 17 18  1  0  0  0  0
 17 39  1  0  0  0  0
 18 19  2  0  0  0  0
 18 40  1  0  0  0  0
 19 20  1  0  0  0  0
 19 41  1  0  0  0  0
 20 21  2  0  0  0  0
 20 42  1  0  0  0  0
 21  7  1  0  0  0  0
 21 43  1  0  0  0  0
 22 44  1  0  0  0  0
 22 45  1  0  0  0  0
 22 46  1  0  0  0  0
M  END
>  <DRUGBANK_ID>
DB15597

>  <COMMON_NAME>
Aminopentamide

>  <CAS_NUMBER>
60-46-8

>  <UNII>
IP1B47L61M

>  <SYNONYMS>
Aminopentamide; Dimevamida; Dimevamide; Dimevamidum

$$$$
