449
 OpenBabel10282417103D

 54 54  0  0  1  0  0  0  0  0999 V2000
    0.9798   -0.2229    0.1433 O   0  0  0  0  0  0  0  0  0  0  0  0
    2.2857    2.4876   -0.1260 O   0  0  0  0  0  0  0  0  0  0  0  0
    6.1090   -2.7117   -0.8864 O   0  0  0  0  0  0  0  0  0  0  0  0
    0.7445   -2.5212   -0.1055 O   0  0  0  0  0  0  0  0  0  0  0  0
    0.2203    1.6239   -0.7345 O   0  0  0  0  0  0  0  0  0  0  0  0
    5.0342   -2.2422    2.6943 N   0  0  0  0  0  0  0  0  0  0  0  0
   -1.2545   -1.1753   -0.0303 C   0  0  0  0  0  0  0  0  0  0  0  0
    0.3363    3.9489   -0.6290 C   0  0  0  0  0  0  0  0  0  0  0  0
    4.5402   -1.1311   -0.0278 C   0  0  0  0  0  0  0  0  0  0  0  0
    5.2327   -2.4550    0.2001 C   0  0  3  0  0  0  0  0  0  0  0  0
   -1.7287   -0.4116    1.2077 C   0  0  0  0  0  0  0  0  0  0  0  0
   -1.7531   -0.4977   -1.3125 C   0  0  0  0  0  0  0  0  0  0  0  0
   -1.8420   -2.5987   -0.0036 C   0  0  0  0  0  0  0  0  0  0  0  0
    0.2558   -1.3991   -0.0113 C   0  0  0  0  0  0  0  0  0  0  0  0
    0.5670    4.8028    0.6051 C   0  0  0  0  0  0  0  0  0  0  0  0
    0.8716    4.5897   -1.9051 C   0  0  0  0  0  0  0  0  0  0  0  0
   -1.1969    3.7227   -0.7992 C   0  0  0  0  0  0  0  0  0  0  0  0
    0.9445    2.5774   -0.4767 C   0  0  0  0  0  0  0  0  0  0  0  0
    2.3750   -0.0456   -0.0260 C   0  0  0  0  0  0  0  0  0  0  0  0
    2.9744    1.2261   -0.0510 C   0  0  0  0  0  0  0  0  0  0  0  0
    3.1605   -1.1852   -0.0634 C   0  0  0  0  0  0  0  0  0  0  0  0
    5.9554   -2.4621    1.5607 C   0  0  0  0  0  0  0  0  0  0  0  0
    5.1602    0.1193   -0.0244 C   0  0  0  0  0  0  0  0  0  0  0  0
    4.3827    1.2954   -0.0072 C   0  0  0  0  0  0  0  0  0  0  0  0
    5.7725   -2.1873    3.9438 C   0  0  0  0  0  0  0  0  0  0  0  0
    5.5428   -2.6958   -1.6800 H   0  0  0  0  0  0  0  0  0  0  0  0
    4.5364   -1.3589    2.5604 H   0  0  0  0  0  0  0  0  0  0  0  0
    4.5022   -3.2791    0.2127 H   0  0  0  0  0  0  0  0  0  0  0  0
   -1.3743    0.6247    1.2162 H   0  0  0  0  0  0  0  0  0  0  0  0
   -2.8236   -0.3847    1.2464 H   0  0  0  0  0  0  0  0  0  0  0  0
   -1.3700   -0.8866    2.1273 H   0  0  0  0  0  0  0  0  0  0  0  0
   -1.3729   -0.9964   -2.2095 H   0  0  0  0  0  0  0  0  0  0  0  0
   -2.8479   -0.4996   -1.3501 H   0  0  0  0  0  0  0  0  0  0  0  0
   -1.4720    0.5486   -1.3914 H   0  0  0  0  0  0  0  0  0  0  0  0
   -1.5015   -3.1663   -0.8812 H   0  0  0  0  0  0  0  0  0  0  0  0
   -1.4955   -3.1411    0.8849 H   0  0  0  0  0  0  0  0  0  0  0  0
   -2.9323   -2.5946   -0.0066 H   0  0  0  0  0  0  0  0  0  0  0  0
    1.6313    4.9970    0.7631 H   0  0  0  0  0  0  0  0  0  0  0  0
    0.0493    5.7632    0.5089 H   0  0  0  0  0  0  0  0  0  0  0  0
    0.1832    4.3009    1.5011 H   0  0  0  0  0  0  0  0  0  0  0  0
    0.7030    3.9371   -2.7716 H   0  0  0  0  0  0  0  0  0  0  0  0
    0.3679    5.5415   -2.1021 H   0  0  0  0  0  0  0  0  0  0  0  0
    1.9482    4.7715   -1.8389 H   0  0  0  0  0  0  0  0  0  0  0  0
   -1.4118    3.0834   -1.6689 H   0  0  0  0  0  0  0  0  0  0  0  0
   -1.6170    3.2057    0.0752 H   0  0  0  0  0  0  0  0  0  0  0  0
   -1.7452    4.6557   -0.9410 H   0  0  0  0  0  0  0  0  0  0  0  0
    2.7272   -2.1724   -0.0394 H   0  0  0  0  0  0  0  0  0  0  0  0
    6.4612   -3.4264    1.6783 H   0  0  0  0  0  0  0  0  0  0  0  0
    6.7341   -1.6910    1.5528 H   0  0  0  0  0  0  0  0  0  0  0  0
    6.2475    0.1718    0.0031 H   0  0  0  0  0  0  0  0  0  0  0  0
    4.8958    2.2512    0.0772 H   0  0  0  0  0  0  0  0  0  0  0  0
    6.5046   -1.3738    3.9352 H   0  0  0  0  0  0  0  0  0  0  0  0
    5.0811   -2.0129    4.7736 H   0  0  0  0  0  0  0  0  0  0  0  0
    6.2847   -3.1358    4.1275 H   0  0  0  0  0  0  0  0  0  0  0  0
  1 14  1  0  0  0  0
  1 19  1  0  0  0  0
  2 18  1  0  0  0  0
  2 20  1  0  0  0  0
  3 10  1  0  0  0  0
  3 26  1  0  0  0  0
  4 14  2  0  0  0  0
  5 18  2  0  0  0  0
  6 22  1  0  0  0  0
  6 25  1  0  0  0  0
  6 27  1  0  0  0  0
  7 11  1  0  0  0  0
  7 12  1  0  0  0  0
  7 13  1  0  0  0  0
  7 14  1  0  0  0  0
  8 15  1  0  0  0  0
  8 16  1  0  0  0  0
  8 17  1  0  0  0  0
  8 18  1  0  0  0  0
  9 10  1  0  0  0  0
  9 21  2  0  0  0  0
  9 23  1  0  0  0  0
 10 22  1  0  0  0  0
 10 28  1  0  0  0  0
 11 29  1  0  0  0  0
 11 30  1  0  0  0  0
 11 31  1  0  0  0  0
 12 32  1  0  0  0  0
 12 33  1  0  0  0  0
 12 34  1  0  0  0  0
 13 35  1  0  0  0  0
 13 36  1  0  0  0  0
 13 37  1  0  0  0  0
 15 38  1  0  0  0  0
 15 39  1  0  0  0  0
 15 40  1  0  0  0  0
 16 41  1  0  0  0  0
 16 42  1  0  0  0  0
 16 43  1  0  0  0  0
 17 44  1  0  0  0  0
 17 45  1  0  0  0  0
 17 46  1  0  0  0  0
 19 20  2  0  0  0  0
 19 21  1  0  0  0  0
 20 24  1  0  0  0  0
 21 47  1  0  0  0  0
 22 48  1  0  0  0  0
 22 49  1  0  0  0  0
 23 24  2  0  0  0  0
 23 50  1  0  0  0  0
 24 51  1  0  0  0  0
 25 52  1  0  0  0  0
 25 53  1  0  0  0  0
 25 54  1  0  0  0  0
M  END
>  <DRUGBANK_ID>
DB00449

>  <SECONDARY_ACCESSION_NUMBERS>
APRD00930

>  <COMMON_NAME>
Dipivefrin

>  <CAS_NUMBER>
52365-63-6

>  <UNII>
8Q1PVL543G

>  <SYNONYMS>
(±)-4-[1-hydroxy-2-(methylamino)ethyl]-o-phenylene divavalate; 1-(3',4'-dipivaloyloxyphenyl)-2-methylamino-1-ethanol; 4-[1-hydroxy-2-(methylamino)ethyl]-o-phenylene divavalate; Dipivalyl epinephrine; Dipivefrin; Dipivefrina; Dipivefrine; Dipivéfrine; Dipivefrinum

$$$$
