
 OpenBabel10282417173D

 52 53  0  0  0  0  0  0  0  0999 V2000
   -0.8183   -3.5578    0.0659 C   0  0  0  0  0  0  0  0  0  0  0  0
   -1.4083   -2.3045    0.0001 N   0  0  0  0  0  0  0  0  0  0  0  0
    1.8401   -5.5299    1.7164 C   0  0  0  0  0  0  0  0  0  0  0  0
    0.5763   -3.6259    0.6610 C   0  0  1  0  0  0  0  0  0  0  0  0
    0.7667   -4.7164    1.6065 N   0  0  0  0  0  0  0  0  0  0  0  0
    0.5550   -0.6237    0.6762 C   0  0  0  0  0  0  0  0  0  0  0  0
   -0.9833   -1.0178    0.6314 C   0  0  2  0  0  0  0  0  0  0  0  0
   -1.3601   -4.5238   -0.4691 O   0  0  0  0  0  0  0  0  0  0  0  0
    1.6813   -3.4248   -0.4666 C   0  0  0  0  0  0  0  0  0  0  0  0
    1.9634   -6.2866    2.6780 O   0  0  0  0  0  0  0  0  0  0  0  0
    2.6977   -5.3927    0.6951 O   0  0  0  0  0  0  0  0  0  0  0  0
    1.4647   -1.3230    1.1391 O   0  0  0  0  0  0  0  0  0  0  0  0
    1.6130   -2.3970   -1.5881 C   0  0  0  0  0  0  0  0  0  0  0  0
    1.3980   -0.5757   -3.7105 C   0  0  0  0  0  0  0  0  0  0  0  0
    3.8790   -6.1851    0.6105 C   0  0  0  0  0  0  0  0  0  0  0  0
    0.4227   -2.2085   -2.2854 C   0  0  0  0  0  0  0  0  0  0  0  0
    2.7414   -1.6759   -2.0253 C   0  0  0  0  0  0  0  0  0  0  0  0
    0.2856   -1.2615   -3.2798 C   0  0  0  0  0  0  0  0  0  0  0  0
    2.6347   -0.7752   -3.1007 C   0  0  0  0  0  0  0  0  0  0  0  0
    0.6175    1.2431   -0.8019 F   0  0  0  0  0  0  0  0  0  0  0  0
    1.0345    0.7374    0.3754 C   0  0  0  0  0  0  0  0  0  0  0  0
    4.7759   -5.9745    1.7933 C   0  0  0  0  0  0  0  0  0  0  0  0
    1.2051    0.2605   -4.7657 O   0  0  0  0  0  0  0  0  0  0  0  0
   -1.5801   -0.9685    2.0393 C   0  0  0  0  0  0  0  0  0  0  0  0
    4.8070   -4.7431    2.4678 C   0  0  0  0  0  0  0  0  0  0  0  0
    5.4969   -7.0592    2.2954 C   0  0  0  0  0  0  0  0  0  0  0  0
    6.1134   -6.9563    3.5372 C   0  0  0  0  0  0  0  0  0  0  0  0
    5.4538   -4.6344    3.6923 C   0  0  0  0  0  0  0  0  0  0  0  0
    6.1017   -5.7442    4.2286 C   0  0  0  0  0  0  0  0  0  0  0  0
   -2.3327   -2.3423   -0.4254 H   0  0  0  0  0  0  0  0  0  0  0  0
    0.4967   -2.8798    1.4331 H   0  0  0  0  0  0  0  0  0  0  0  0
    0.2389   -4.6511    2.4684 H   0  0  0  0  0  0  0  0  0  0  0  0
   -1.4880   -0.2504    0.0276 H   0  0  0  0  0  0  0  0  0  0  0  0
    2.6460   -3.2520    0.0347 H   0  0  0  0  0  0  0  0  0  0  0  0
    1.7430   -4.3727   -1.0145 H   0  0  0  0  0  0  0  0  0  0  0  0
    3.5545   -7.2224    0.4959 H   0  0  0  0  0  0  0  0  0  0  0  0
    4.4119   -5.8907   -0.3021 H   0  0  0  0  0  0  0  0  0  0  0  0
   -0.4545   -2.7993   -2.0838 H   0  0  0  0  0  0  0  0  0  0  0  0
    3.7114   -1.8081   -1.5441 H   0  0  0  0  0  0  0  0  0  0  0  0
   -0.6900   -1.1031   -3.7239 H   0  0  0  0  0  0  0  0  0  0  0  0
    3.5146   -0.2375   -3.4408 H   0  0  0  0  0  0  0  0  0  0  0  0
    0.7544    1.3704    1.2160 H   0  0  0  0  0  0  0  0  0  0  0  0
    2.1337    0.6579    0.3474 H   0  0  0  0  0  0  0  0  0  0  0  0
    2.0638    0.5962   -5.0597 H   0  0  0  0  0  0  0  0  0  0  0  0
   -1.2704   -0.0664    2.5721 H   0  0  0  0  0  0  0  0  0  0  0  0
   -2.6780   -0.9868    2.0070 H   0  0  0  0  0  0  0  0  0  0  0  0
   -1.2717   -1.8385    2.6294 H   0  0  0  0  0  0  0  0  0  0  0  0
    4.2570   -3.8872    2.0808 H   0  0  0  0  0  0  0  0  0  0  0  0
    5.5237   -8.0005    1.7514 H   0  0  0  0  0  0  0  0  0  0  0  0
    6.5663   -7.8354    3.9851 H   0  0  0  0  0  0  0  0  0  0  0  0
    5.4063   -3.7008    4.2449 H   0  0  0  0  0  0  0  0  0  0  0  0
    6.5922   -5.6681    5.1934 H   0  0  0  0  0  0  0  0  0  0  0  0
  2  1  1  0  0  0  0
  2 30  1  0  0  0  0
  3  5  1  0  0  0  0
  4  1  1  0  0  0  0
  4  9  1  0  0  0  0
  4 31  1  1  0  0  0
  5  4  1  0  0  0  0
  5 32  1  0  0  0  0
  7 24  1  0  0  0  0
  7 33  1  6  0  0  0
  7  2  1  0  0  0  0
  7  6  1  0  0  0  0
  8  1  2  0  0  0  0
  9 34  1  0  0  0  0
  9 35  1  0  0  0  0
 10  3  2  0  0  0  0
 11  3  1  0  0  0  0
 12  6  2  0  0  0  0
 13  9  1  0  0  0  0
 14 19  2  0  0  0  0
 14 18  1  0  0  0  0
 15 11  1  0  0  0  0
 15 36  1  0  0  0  0
 15 37  1  0  0  0  0
 16 13  1  0  0  0  0
 16 38  1  0  0  0  0
 17 13  2  0  0  0  0
 17 39  1  0  0  0  0
 18 16  2  0  0  0  0
 18 40  1  0  0  0  0
 19 17  1  0  0  0  0
 19 41  1  0  0  0  0
 20 21  1  0  0  0  0
 21  6  1  0  0  0  0
 21 42  1  0  0  0  0
 21 43  1  0  0  0  0
 22 15  1  0  0  0  0
 23 14  1  0  0  0  0
 23 44  1  0  0  0  0
 24 45  1  0  0  0  0
 24 46  1  0  0  0  0
 24 47  1  0  0  0  0
 25 22  2  0  0  0  0
 25 48  1  0  0  0  0
 26 22  1  0  0  0  0
 26 49  1  0  0  0  0
 27 26  2  0  0  0  0
 27 50  1  0  0  0  0
 28 25  1  0  0  0  0
 28 51  1  0  0  0  0
 29 27  1  0  0  0  0
 29 28  2  0  0  0  0
 29 52  1  0  0  0  0
M  END
>  <DRUGBANK_ID>
DB08775

>  <COMMON_NAME>
Benzoyl-tyrosine-alanine-fluoro-methyl ketone

$$$$
