
 OpenBabel10282417193D

 68 71  0  0  0  0  0  0  0  0999 V2000
    1.0186   -0.0841    0.0802 C   0  0  0  0  0  0  0  0  0  0  0  0
    0.4772   -1.4940    0.1268 C   0  0  0  0  0  0  0  0  0  0  0  0
   -0.3820   -1.8128    0.9717 O   0  0  0  0  0  0  0  0  0  0  0  0
    0.8566   -2.3294   -0.8979 N   0  0  0  0  0  0  0  0  0  0  0  0
    2.2343   -2.4445   -1.3950 C   0  0  0  0  0  0  0  0  0  0  0  0
    2.2720   -2.3643   -2.9306 C   0  0  0  0  0  0  0  0  0  0  0  0
    1.3625   -3.3818   -3.4757 N   0  0  0  0  0  0  0  0  0  0  0  0
   -0.0413   -3.2434   -3.0224 C   0  0  0  0  0  0  0  0  0  0  0  0
   -0.0625   -3.3338   -1.4652 C   0  0  0  0  0  0  0  0  0  0  0  0
    1.7405   -4.1893   -4.5249 C   0  0  0  0  0  0  0  0  0  0  0  0
    2.6925   -5.2015   -4.3819 C   0  0  0  0  0  0  0  0  0  0  0  0
    3.0540   -6.0668   -5.4573 C   0  0  0  0  0  0  0  0  0  0  0  0
    2.4582   -5.9875   -6.7403 C   0  0  0  0  0  0  0  0  0  0  0  0
    1.3930   -5.0489   -6.8074 C   0  0  0  0  0  0  0  0  0  0  0  0
    1.1391   -4.1154   -5.7676 C   0  0  0  0  0  0  0  0  0  0  0  0
    0.3186   -4.9549   -7.6704 O   0  0  0  0  0  0  0  0  0  0  0  0
    0.1738   -6.0246   -8.5478 C   0  0  0  0  0  0  0  0  0  0  0  0
    3.0030   -6.8143   -7.7814 N   0  0  0  0  0  0  0  0  0  0  0  0
    2.8699   -6.8198   -9.1924 C   0  0  0  0  0  0  0  0  0  0  0  0
    2.2286   -7.8596   -9.7644 N   0  0  0  0  0  0  0  0  0  0  0  0
    1.5459   -7.6181  -10.9247 C   0  0  0  0  0  0  0  0  0  0  0  0
    1.5047   -6.3966  -11.5744 C   0  0  0  0  0  0  0  0  0  0  0  0
    2.2664   -5.4107  -10.9690 C   0  0  0  0  0  0  0  0  0  0  0  0
    3.0065   -5.6666   -9.8498 N   0  0  0  0  0  0  0  0  0  0  0  0
    2.0052   -4.0375  -11.1878 N   0  0  0  0  0  0  0  0  0  0  0  0
    2.7854   -3.0078  -10.5877 C   0  0  0  0  0  0  0  0  0  0  0  0
    4.1689   -3.0658  -10.5610 C   0  0  0  0  0  0  0  0  0  0  0  0
    4.9003   -1.9494  -10.1668 C   0  0  0  0  0  0  0  0  0  0  0  0
    4.2693   -0.7030  -10.0565 C   0  0  0  0  0  0  0  0  0  0  0  0
    2.8890   -0.6221  -10.2199 C   0  0  0  0  0  0  0  0  0  0  0  0
    2.1918   -1.8181  -10.1698 C   0  0  0  0  0  0  0  0  0  0  0  0
    2.2668    0.6164  -10.5259 N   0  0  0  0  0  0  0  0  0  0  0  0
    1.0346    0.9370  -11.0633 C   0  0  0  0  0  0  0  0  0  0  0  0
    0.7385    2.1264  -11.2137 O   0  0  0  0  0  0  0  0  0  0  0  0
   -0.0135   -0.0708  -11.4065 C   0  0  0  0  0  0  0  0  0  0  0  0
    0.1824   -1.2799  -11.9441 C   0  0  0  0  0  0  0  0  0  0  0  0
    0.6710   -6.1897  -12.7912 C   0  0  0  0  0  0  0  0  0  0  0  0
   -0.3065   -5.2476  -12.6638 F   0  0  0  0  0  0  0  0  0  0  0  0
    1.4270   -5.7818  -13.8494 F   0  0  0  0  0  0  0  0  0  0  0  0
    0.0299   -7.3168  -13.2173 F   0  0  0  0  0  0  0  0  0  0  0  0
    0.6360    0.4917    0.9302 H   0  0  0  0  0  0  0  0  0  0  0  0
    0.6572    0.4009   -0.8342 H   0  0  0  0  0  0  0  0  0  0  0  0
    2.1075   -0.0446    0.1131 H   0  0  0  0  0  0  0  0  0  0  0  0
    2.8899   -1.7065   -0.9329 H   0  0  0  0  0  0  0  0  0  0  0  0
    2.5897   -3.4352   -1.0785 H   0  0  0  0  0  0  0  0  0  0  0  0
    1.9174   -1.3690   -3.2331 H   0  0  0  0  0  0  0  0  0  0  0  0
    3.2960   -2.4809   -3.2955 H   0  0  0  0  0  0  0  0  0  0  0  0
   -0.4280   -2.2592   -3.3246 H   0  0  0  0  0  0  0  0  0  0  0  0
   -0.6969   -4.0069   -3.4547 H   0  0  0  0  0  0  0  0  0  0  0  0
    0.2909   -4.3239   -1.1524 H   0  0  0  0  0  0  0  0  0  0  0  0
   -1.0772   -3.1911   -1.0784 H   0  0  0  0  0  0  0  0  0  0  0  0
    3.1510   -5.3508   -3.4059 H   0  0  0  0  0  0  0  0  0  0  0  0
    3.7938   -6.8366   -5.2397 H   0  0  0  0  0  0  0  0  0  0  0  0
    0.4003   -3.3395   -5.9578 H   0  0  0  0  0  0  0  0  0  0  0  0
    0.9385   -5.7891   -9.2239 H   0  0  0  0  0  0  0  0  0  0  0  0
    0.2925   -7.0193   -8.1056 H   0  0  0  0  0  0  0  0  0  0  0  0
   -0.6859   -5.9756   -9.2153 H   0  0  0  0  0  0  0  0  0  0  0  0
    3.6061   -7.5684   -7.4876 H   0  0  0  0  0  0  0  0  0  0  0  0
    0.9043   -8.4408  -11.2472 H   0  0  0  0  0  0  0  0  0  0  0  0
    1.8084   -3.8126  -12.1612 H   0  0  0  0  0  0  0  0  0  0  0  0
    4.6692   -4.0045  -10.7762 H   0  0  0  0  0  0  0  0  0  0  0  0
    5.9664   -2.0606  -10.0040 H   0  0  0  0  0  0  0  0  0  0  0  0
    4.8730    0.1760   -9.8532 H   0  0  0  0  0  0  0  0  0  0  0  0
    1.1455   -1.8122   -9.8919 H   0  0  0  0  0  0  0  0  0  0  0  0
    2.8575    1.4405  -10.4784 H   0  0  0  0  0  0  0  0  0  0  0  0
   -1.0321    0.2447  -11.2048 H   0  0  0  0  0  0  0  0  0  0  0  0
   -0.5759   -2.0533  -11.8454 H   0  0  0  0  0  0  0  0  0  0  0  0
    1.1671   -1.5865  -12.2740 H   0  0  0  0  0  0  0  0  0  0  0  0
  1  2  1  0  0  0  0
  1 41  1  0  0  0  0
  1 42  1  0  0  0  0
  1 43  1  0  0  0  0
  2  3  2  0  0  0  0
  2  4  1  0  0  0  0
  4  5  1  0  0  0  0
  4  9  1  0  0  0  0
  5  6  1  0  0  0  0
  5 44  1  0  0  0  0
  5 45  1  0  0  0  0
  6  7  1  0  0  0  0
  6 46  1  0  0  0  0
  6 47  1  0  0  0  0
  7  8  1  0  0  0  0
  7 10  1  0  0  0  0
  8  9  1  0  0  0  0
  8 48  1  0  0  0  0
  8 49  1  0  0  0  0
  9 50  1  0  0  0  0
  9 51  1  0  0  0  0
 10 11  2  0  0  0  0
 10 15  1  0  0  0  0
 11 12  1  0  0  0  0
 11 52  1  0  0  0  0
 12 13  2  0  0  0  0
 12 53  1  0  0  0  0
 13 14  1  0  0  0  0
 13 18  1  0  0  0  0
 14 15  2  0  0  0  0
 14 16  1  0  0  0  0
 15 54  1  0  0  0  0
 16 17  1  0  0  0  0
 17 55  1  0  0  0  0
 17 56  1  0  0  0  0
 17 57  1  0  0  0  0
 18 19  1  0  0  0  0
 18 58  1  0  0  0  0
 19 20  2  0  0  0  0
 19 24  1  0  0  0  0
 20 21  1  0  0  0  0
 21 22  2  0  0  0  0
 21 59  1  0  0  0  0
 22 23  1  0  0  0  0
 22 37  1  0  0  0  0
 23 24  2  0  0  0  0
 23 25  1  0  0  0  0
 25 26  1  0  0  0  0
 25 60  1  0  0  0  0
 26 27  2  0  0  0  0
 26 31  1  0  0  0  0
 27 28  1  0  0  0  0
 27 61  1  0  0  0  0
 28 29  2  0  0  0  0
 28 62  1  0  0  0  0
 29 30  1  0  0  0  0
 29 63  1  0  0  0  0
 30 31  2  0  0  0  0
 30 32  1  0  0  0  0
 31 64  1  0  0  0  0
 32 33  1  0  0  0  0
 32 65  1  0  0  0  0
 33 34  2  0  0  0  0
 33 35  1  0  0  0  0
 35 36  2  0  0  0  0
 35 66  1  0  0  0  0
 36 67  1  0  0  0  0
 36 68  1  0  0  0  0
 37 38  1  0  0  0  0
 37 39  1  0  0  0  0
 37 40  1  0  0  0  0
M  END
>  <DRUGBANK_ID>
DB11907

>  <COMMON_NAME>
Rociletinib

>  <CAS_NUMBER>
1374640-70-6

>  <UNII>
72AH61702G

>  <SYNONYMS>
Rociletinib

$$$$
