
 OpenBabel10282417183D

 54 56  0  0  0  0  0  0  0  0999 V2000
    2.4635    0.2187    0.1445 C   0  0  0  0  0  0  0  0  0  0  0  0
    1.6929    1.3591    0.0644 C   0  0  0  0  0  0  0  0  0  0  0  0
    0.3059    1.2623    0.0227 C   0  0  0  0  0  0  0  0  0  0  0  0
   -0.3069    0.0116    0.0460 C   0  0  0  0  0  0  0  0  0  0  0  0
    0.4739   -1.1502    0.0812 C   0  0  0  0  0  0  0  0  0  0  0  0
    1.8898   -1.0393    0.1213 C   0  0  0  0  0  0  0  0  0  0  0  0
   -2.0301   -0.0708   -0.0197 Cl  0  0  0  0  0  0  0  0  0  0  0  0
    2.8464   -2.0184   -0.1642 N   0  0  0  0  0  0  0  0  0  0  0  0
    3.6217   -2.6735    0.9256 C   0  0  0  0  0  0  0  0  0  0  0  0
    4.6723   -3.6004    0.2318 C   0  0  0  0  0  0  0  0  0  0  0  0
    4.1543   -4.6049   -0.7365 N   0  0  0  0  0  0  0  0  0  0  0  0
    3.3437   -3.9016   -1.7470 C   0  0  0  0  0  0  0  0  0  0  0  0
    2.3219   -2.9684   -1.0962 C   0  0  0  0  0  0  0  0  0  0  0  0
    3.4822   -5.7799   -0.1361 C   0  0  0  0  0  0  0  0  0  0  0  0
    2.1259   -5.6732    0.6126 C   0  0  0  0  0  0  0  0  0  0  0  0
    0.8712   -5.3745   -0.2291 C   0  0  0  0  0  0  0  0  0  0  0  0
    0.4821   -6.2641   -1.2565 N   0  0  0  0  0  0  0  0  0  0  0  0
    0.0566   -5.7242   -2.4637 N   0  0  0  0  0  0  0  0  0  0  0  0
    0.1063   -6.7210   -3.2831 C   0  0  0  0  0  0  0  0  0  0  0  0
    0.5643   -7.8583   -2.7331 N   0  0  0  0  0  0  0  0  0  0  0  0
    0.8832   -7.5623   -1.4382 C   0  0  0  0  0  0  0  0  0  0  0  0
    1.4467   -8.2850   -0.6090 O   0  0  0  0  0  0  0  0  0  0  0  0
    0.5805   -9.1840   -3.2778 C   0  0  0  0  0  0  0  0  0  0  0  0
    1.9890   -9.7106   -3.4544 C   0  0  0  0  0  0  0  0  0  0  0  0
   -0.3870   -6.5984   -4.6903 C   0  0  0  0  0  0  0  0  0  0  0  0
    0.6345   -7.0019   -5.7344 C   0  0  0  0  0  0  0  0  0  0  0  0
    3.5470    0.2618    0.0861 H   0  0  0  0  0  0  0  0  0  0  0  0
    2.2030    2.3096   -0.0055 H   0  0  0  0  0  0  0  0  0  0  0  0
   -0.2827    2.1704   -0.0434 H   0  0  0  0  0  0  0  0  0  0  0  0
   -0.0450   -2.1077    0.0084 H   0  0  0  0  0  0  0  0  0  0  0  0
    4.1199   -1.9373    1.5603 H   0  0  0  0  0  0  0  0  0  0  0  0
    2.9974   -3.2519    1.6156 H   0  0  0  0  0  0  0  0  0  0  0  0
    5.3127   -2.9221   -0.3516 H   0  0  0  0  0  0  0  0  0  0  0  0
    5.3324   -4.0873    0.9542 H   0  0  0  0  0  0  0  0  0  0  0  0
    3.9904   -3.3097   -2.4081 H   0  0  0  0  0  0  0  0  0  0  0  0
    2.8538   -4.6334   -2.4042 H   0  0  0  0  0  0  0  0  0  0  0  0
    1.8154   -3.4698   -0.3096 H   0  0  0  0  0  0  0  0  0  0  0  0
    1.5763   -2.6205   -1.8211 H   0  0  0  0  0  0  0  0  0  0  0  0
    3.3736   -6.5292   -0.9286 H   0  0  0  0  0  0  0  0  0  0  0  0
    4.2042   -6.2353    0.5564 H   0  0  0  0  0  0  0  0  0  0  0  0
    1.9408   -6.5949    1.1725 H   0  0  0  0  0  0  0  0  0  0  0  0
    2.2261   -4.9432    1.4167 H   0  0  0  0  0  0  0  0  0  0  0  0
    0.0548   -4.9342    0.3566 H   0  0  0  0  0  0  0  0  0  0  0  0
    1.0137   -4.6085   -0.9521 H   0  0  0  0  0  0  0  0  0  0  0  0
    0.0098   -9.8217   -2.5979 H   0  0  0  0  0  0  0  0  0  0  0  0
    0.0480   -9.1842   -4.2283 H   0  0  0  0  0  0  0  0  0  0  0  0
    2.4938   -9.8159   -2.4895 H   0  0  0  0  0  0  0  0  0  0  0  0
    1.9549  -10.6906   -3.9351 H   0  0  0  0  0  0  0  0  0  0  0  0
    2.5946   -9.0395   -4.0732 H   0  0  0  0  0  0  0  0  0  0  0  0
   -1.2891   -7.2133   -4.7594 H   0  0  0  0  0  0  0  0  0  0  0  0
   -0.6874   -5.5583   -4.8699 H   0  0  0  0  0  0  0  0  0  0  0  0
    0.9788   -8.0297   -5.6190 H   0  0  0  0  0  0  0  0  0  0  0  0
    0.1945   -6.9278   -6.7321 H   0  0  0  0  0  0  0  0  0  0  0  0
    1.5219   -6.3650   -5.6825 H   0  0  0  0  0  0  0  0  0  0  0  0
  1  2  1  0  0  0  0
  1  6  2  0  0  0  0
  1 27  1  0  0  0  0
  2  3  2  0  0  0  0
  2 28  1  0  0  0  0
  3  4  1  0  0  0  0
  3 29  1  0  0  0  0
  4  5  2  0  0  0  0
  4  7  1  0  0  0  0
  5  6  1  0  0  0  0
  5 30  1  0  0  0  0
  6  8  1  0  0  0  0
  8  9  1  0  0  0  0
  9 10  1  0  0  0  0
  9 31  1  0  0  0  0
  9 32  1  0  0  0  0
 10 11  1  0  0  0  0
 10 33  1  0  0  0  0
 10 34  1  0  0  0  0
 11 12  1  0  0  0  0
 11 14  1  0  0  0  0
 12 13  1  0  0  0  0
 12 35  1  0  0  0  0
 12 36  1  0  0  0  0
 13  8  1  0  0  0  0
 13 37  1  0  0  0  0
 13 38  1  0  0  0  0
 14 15  1  0  0  0  0
 14 39  1  0  0  0  0
 14 40  1  0  0  0  0
 15 16  1  0  0  0  0
 15 41  1  0  0  0  0
 15 42  1  0  0  0  0
 16 17  1  0  0  0  0
 16 43  1  0  0  0  0
 16 44  1  0  0  0  0
 17 18  1  0  0  0  0
 17 21  1  0  0  0  0
 18 19  2  0  0  0  0
 19 20  1  0  0  0  0
 19 25  1  0  0  0  0
 20 21  1  0  0  0  0
 20 23  1  0  0  0  0
 21 22  2  0  0  0  0
 23 24  1  0  0  0  0
 23 45  1  0  0  0  0
 23 46  1  0  0  0  0
 24 47  1  0  0  0  0
 24 48  1  0  0  0  0
 24 49  1  0  0  0  0
 25 26  1  0  0  0  0
 25 50  1  0  0  0  0
 25 51  1  0  0  0  0
 26 52  1  0  0  0  0
 26 53  1  0  0  0  0
 26 54  1  0  0  0  0
M  END
>  <DRUGBANK_ID>
DB09194

>  <COMMON_NAME>
Etoperidone

>  <CAS_NUMBER>
52942-31-1

>  <UNII>
KAI6MVO39Z

>  <SYNONYMS>
Etoperidone

$$$$
