3TH
 OpenBabel10282417163D

 35 38  0  0  0  0  0  0  0  0999 V2000
   10.1249   -9.8821    2.7459 Cl  0  0  0  0  0  0  0  0  0  0  0  0
   10.2663   -8.7475    1.4373 C   0  0  0  0  0  0  0  0  0  0  0  0
   10.4441   -7.3786    1.5387 C   0  0  0  0  0  0  0  0  0  0  0  0
   10.6602   -6.8628    0.1824 C   0  0  0  0  0  0  0  0  0  0  0  0
   10.5877   -5.5008   -0.2675 C   0  0  0  0  0  0  0  0  0  0  0  0
    9.7343   -5.3712   -1.5080 C   0  0  0  0  0  0  0  0  0  0  0  0
    9.6638   -6.8608   -1.8779 N   0  0  0  0  0  0  0  0  0  0  0  0
   10.2588   -7.6601   -0.8229 C   0  0  0  0  0  0  0  0  0  0  0  0
   10.0778   -9.2581   -0.2221 S   0  0  0  0  0  0  0  0  0  0  0  0
    8.5418   -4.2636   -2.0672 C   0  0  0  0  0  0  0  0  0  0  0  0
    7.8575   -4.5526   -3.0638 O   0  0  0  0  0  0  0  0  0  0  0  0
    8.1133   -2.9729   -1.5132 N   0  0  0  0  0  0  0  0  0  0  0  0
    8.1895   -2.4434   -0.1187 C   0  0  2  0  0  0  0  0  0  0  0  0
    8.9667   -3.4851    0.5746 C   0  0  0  0  0  0  0  0  0  0  0  0
    7.9838   -4.7228    0.8268 C   0  0  0  0  0  0  0  0  0  0  0  0
    7.9968   -6.0458    0.4648 C   0  0  0  0  0  0  0  0  0  0  0  0
    7.3027   -7.2383    0.6252 C   0  0  0  0  0  0  0  0  0  0  0  0
    6.2067   -7.0991    1.3706 C   0  0  0  0  0  0  0  0  0  0  0  0
    5.8958   -5.7569    1.6536 C   0  0  0  0  0  0  0  0  0  0  0  0
    6.7423   -4.5881    1.3444 C   0  0  0  0  0  0  0  0  0  0  0  0
    6.3586   -3.2776    1.4783 N   0  0  0  0  0  0  0  0  0  0  0  0
    7.0169   -2.1881    0.9086 C   0  0  0  0  0  0  0  0  0  0  0  0
    6.7414   -1.0644    1.2864 O   0  0  0  0  0  0  0  0  0  0  0  0
    8.7503   -1.4887   -0.2035 H   0  0  0  0  0  0  0  0  0  0  0  0
   10.2669   -6.8455    2.4875 H   0  0  0  0  0  0  0  0  0  0  0  0
   10.6356   -4.8306    0.5820 H   0  0  0  0  0  0  0  0  0  0  0  0
    8.8004   -7.1648   -2.3286 H   0  0  0  0  0  0  0  0  0  0  0  0
    7.5592   -2.3731   -2.1298 H   0  0  0  0  0  0  0  0  0  0  0  0
    9.8100   -3.4747   -0.1527 H   0  0  0  0  0  0  0  0  0  0  0  0
    9.4941   -3.1207    1.4631 H   0  0  0  0  0  0  0  0  0  0  0  0
    8.6575   -6.3720   -0.2438 H   0  0  0  0  0  0  0  0  0  0  0  0
    7.6338   -8.1725    0.1840 H   0  0  0  0  0  0  0  0  0  0  0  0
    5.6872   -8.0256    1.5600 H   0  0  0  0  0  0  0  0  0  0  0  0
    4.9090   -5.6244    2.0662 H   0  0  0  0  0  0  0  0  0  0  0  0
    5.6131   -3.0963    2.1298 H   0  0  0  0  0  0  0  0  0  0  0  0
  1  2  1  0  0  0  0
  2  3  2  0  0  0  0
  2  9  1  0  0  0  0
  3  4  1  0  0  0  0
  3 25  1  0  0  0  0
  4  5  1  0  0  0  0
  4  8  2  0  0  0  0
  5  6  2  0  0  0  0
  5 26  1  0  0  0  0
  6  7  1  0  0  0  0
  6 10  1  0  0  0  0
  7  8  1  0  0  0  0
  7 27  1  0  0  0  0
  8  9  1  0  0  0  0
 10 11  2  0  0  0  0
 10 12  1  0  0  0  0
 12 28  1  0  0  0  0
 13 14  1  0  0  0  0
 13 22  1  0  0  0  0
 13 24  1  6  0  0  0
 13 12  1  0  0  0  0
 14 15  1  0  0  0  0
 14 29  1  0  0  0  0
 14 30  1  0  0  0  0
 15 16  1  0  0  0  0
 15 20  2  0  0  0  0
 16 17  2  0  0  0  0
 16 31  1  0  0  0  0
 17 18  1  0  0  0  0
 17 32  1  0  0  0  0
 18 19  2  0  0  0  0
 18 33  1  0  0  0  0
 19 20  1  0  0  0  0
 19 34  1  0  0  0  0
 20 21  1  0  0  0  0
 21 22  1  0  0  0  0
 21 35  1  0  0  0  0
 22 23  2  0  0  0  0
M  END
>  <DRUGBANK_ID>
DB07066

>  <COMMON_NAME>
2-CHLORO-N-[(3R)-2-OXO-1,2,3,4-TETRAHYDROQUINOLIN-3-YL]-6H-THIENO[2,3-B]PYRROLE-5-CARBOXAMIDE

$$$$
