
 OpenBabel10282417143D

 60 61  0  0  0  0  0  0  0  0999 V2000
   12.5575   -2.9772    4.4617 S   0  0  0  0  0  0  0  0  0  0  0  0
   12.7454    1.7824    4.4194 O   0  0  0  0  0  0  0  0  0  0  0  0
    7.8218   -0.7853    5.8012 O   0  0  0  0  0  0  0  0  0  0  0  0
    9.2373   -0.4734    0.9676 O   0  0  0  0  0  0  0  0  0  0  0  0
   11.0415   -1.6012    0.4773 O   0  0  0  0  0  0  0  0  0  0  0  0
    9.6870    1.5609    3.5183 O   0  5  0  0  0  0  0  0  0  0  0  0
    6.8009    1.0848    4.2276 O   0  0  0  0  0  0  0  0  0  0  0  0
    5.2420   -3.9232    9.4714 O   0  0  0  0  0  0  0  0  0  0  0  0
    5.7041   -1.6970    9.3701 O   0  0  0  0  0  0  0  0  0  0  0  0
    3.3564   -1.4365    5.5358 O   0  0  0  0  0  0  0  0  0  0  0  0
   12.2276   -0.5217    3.8527 N   0  0  0  0  0  0  0  0  0  0  0  0
   10.0409    0.6312    5.5974 N   0  0  0  0  0  0  0  0  0  0  0  0
    5.2921   -2.2873    6.5808 N   0  0  0  0  0  0  0  0  0  0  0  0
    3.0925   -3.8300    7.5090 N   0  0  0  0  0  0  0  0  0  0  0  0
   12.3205   -1.3017    5.1352 C   0  0  1  0  0  0  0  0  0  0  0  0
   10.9651   -1.1031    2.9426 C   0  0  1  0  0  0  0  0  0  0  0  0
   10.1011   -2.2784    3.8453 C   0  0  1  0  0  0  0  0  0  0  0  0
   11.5425   -0.0151    5.7919 C   0  0  1  0  0  0  0  0  0  0  0  0
   12.2658    0.6166    4.6077 C   0  0  0  0  0  0  0  0  0  0  0  0
   10.9134   -3.4829    4.1645 C   0  0  0  0  0  0  0  0  0  0  0  0
    9.4297   -1.6668    5.4311 C   0  0  0  0  0  0  0  0  0  0  0  0
   10.4203   -0.9975    1.3644 C   0  0  0  0  0  0  0  0  0  0  0  0
    9.5658    0.6170    4.3213 C   0  0  0  0  0  0  0  0  0  0  0  0
    8.4585   -0.8099    3.6384 C   0  0  0  0  0  0  0  0  0  0  0  0
    7.6564   -2.4639    4.3601 C   0  0  0  0  0  0  0  0  0  0  0  0
    8.0436   -3.3517    5.9140 C   0  0  0  0  0  0  0  0  0  0  0  0
    6.7199    0.2458    5.1529 C   0  0  0  0  0  0  0  0  0  0  0  0
    7.5626   -2.7951    7.3077 C   0  0  0  0  0  0  0  0  0  0  0  0
    6.0849   -3.1111    7.4480 C   0  0  1  0  0  0  0  0  0  0  0  0
    5.3467   -0.1888    5.1484 C   0  0  0  0  0  0  0  0  0  0  0  0
    5.7057   -2.8100    8.8634 C   0  0  0  0  0  0  0  0  0  0  0  0
    3.9385   -1.9818    6.4775 C   0  0  0  0  0  0  0  0  0  0  0  0
    3.0751   -2.3746    7.5987 C   0  0  0  0  0  0  0  0  0  0  0  0
   13.1629   -1.4161    5.8343 H   0  0  0  0  0  0  0  0  0  0  0  0
    8.7270    0.1727    1.4996 H   0  0  0  0  0  0  0  0  0  0  0  0
    5.0854   -4.6106    8.7871 H   0  0  0  0  0  0  0  0  0  0  0  0
    5.9299   -1.9684    5.8927 H   0  0  0  0  0  0  0  0  0  0  0  0
    2.4345   -4.1744    8.1886 H   0  0  0  0  0  0  0  0  0  0  0  0
    2.7351   -4.0381    6.5669 H   0  0  0  0  0  0  0  0  0  0  0  0
   11.6704   -1.7929    2.4840 H   0  0  0  0  0  0  0  0  0  0  0  0
    9.3778   -2.6228    3.1020 H   0  0  0  0  0  0  0  0  0  0  0  0
   11.8865    0.1373    6.8316 H   0  0  0  0  0  0  0  0  0  0  0  0
   10.7539   -4.2557    3.3987 H   0  0  0  0  0  0  0  0  0  0  0  0
   10.6562   -3.9321    5.1097 H   0  0  0  0  0  0  0  0  0  0  0  0
    9.9587   -1.9008    6.3724 H   0  0  0  0  0  0  0  0  0  0  0  0
   10.0900   -0.9996    5.1048 H   0  0  0  0  0  0  0  0  0  0  0  0
    8.1078   -0.0937    4.2400 H   0  0  0  0  0  0  0  0  0  0  0  0
    7.7511   -0.5678    2.8492 H   0  0  0  0  0  0  0  0  0  0  0  0
    6.5747   -2.4617    4.3058 H   0  0  0  0  0  0  0  0  0  0  0  0
    7.8310   -3.2514    3.6180 H   0  0  0  0  0  0  0  0  0  0  0  0
    7.7879   -4.4062    5.7939 H   0  0  0  0  0  0  0  0  0  0  0  0
    9.1125   -3.5302    6.0904 H   0  0  0  0  0  0  0  0  0  0  0  0
    8.1752   -3.2339    8.1139 H   0  0  0  0  0  0  0  0  0  0  0  0
    7.7406   -1.7319    7.5428 H   0  0  0  0  0  0  0  0  0  0  0  0
    5.9547   -4.1408    7.1117 H   0  0  0  0  0  0  0  0  0  0  0  0
    5.2616   -1.1395    4.5959 H   0  0  0  0  0  0  0  0  0  0  0  0
    5.0893   -0.0204    6.1858 H   0  0  0  0  0  0  0  0  0  0  0  0
    4.6892    0.4088    4.5066 H   0  0  0  0  0  0  0  0  0  0  0  0
    3.4483   -1.9079    8.5086 H   0  0  0  0  0  0  0  0  0  0  0  0
    2.0852   -1.9420    7.4048 H   0  0  0  0  0  0  0  0  0  0  0  0
  1 20  1  0  0  0  0
  2 19  2  0  0  0  0
  3 21  1  0  0  0  0
  3 27  1  0  0  0  0
  4 22  1  0  0  0  0
  4 35  1  0  0  0  0
  5 22  2  0  0  0  0
  6 23  1  0  0  0  0
  7 27  2  0  0  0  0
  8 31  1  0  0  0  0
  8 36  1  0  0  0  0
  9 31  2  0  0  0  0
 10 32  2  0  0  0  0
 11 16  1  0  0  0  0
 11 19  1  0  0  0  0
 11 15  1  0  0  0  0
 12 23  2  0  0  0  0
 13 32  1  0  0  0  0
 13 37  1  0  0  0  0
 14 33  1  0  0  0  0
 14 38  1  0  0  0  0
 14 39  1  0  0  0  0
 15  1  1  0  0  0  0
 15 18  1  0  0  0  0
 15 34  1  1  0  0  0
 16 17  1  0  0  0  0
 16 22  1  0  0  0  0
 16 40  1  6  0  0  0
 17 20  1  0  0  0  0
 17 41  1  6  0  0  0
 17 21  1  0  0  0  0
 18 19  1  0  0  0  0
 18 42  1  1  0  0  0
 18 12  1  0  0  0  0
 20 43  1  0  0  0  0
 20 44  1  0  0  0  0
 21 45  1  0  0  0  0
 21 46  1  0  0  0  0
 23 24  1  0  0  0  0
 24 25  1  0  0  0  0
 24 47  1  0  0  0  0
 24 48  1  0  0  0  0
 25 26  1  0  0  0  0
 25 49  1  0  0  0  0
 25 50  1  0  0  0  0
 26 28  1  0  0  0  0
 26 51  1  0  0  0  0
 26 52  1  0  0  0  0
 27 30  1  0  0  0  0
 28 53  1  0  0  0  0
 28 54  1  0  0  0  0
 29 31  1  0  0  0  0
 29 55  1  6  0  0  0
 29 28  1  0  0  0  0
 29 13  1  0  0  0  0
 30 56  1  0  0  0  0
 30 57  1  0  0  0  0
 30 58  1  0  0  0  0
 32 33  1  0  0  0  0
 33 59  1  0  0  0  0
 33 60  1  0  0  0  0
M  CHG  1   6  -1
M  END
>  <DRUGBANK_ID>
DB04488

>  <SECONDARY_ACCESSION_NUMBERS>
EXPT01675

>  <COMMON_NAME>
(6S)-N-[(2S,3R,6R,7R)-3-(Acetyloxymethyl)-2-carboxy-8-oxo-5-thia-1-azabicyclo[4.2.0]octan-7-yl]-6-[(2-aminoacetyl)amino]-7-hydroxy-7-oxoheptanimidate

$$$$
