738
 OpenBabel10282417113D

 49 50  0  0  0  0  0  0  0  0999 V2000
    1.0031   -0.1695   -0.1989 O   0  0  0  0  0  0  0  0  0  0  0  0
    1.9354    5.2508    1.5409 O   0  0  0  0  0  0  0  0  0  0  0  0
    7.4234   -1.1494    0.3410 N   0  0  0  0  0  0  0  0  0  0  0  0
    1.2796    3.8688    7.8413 N   0  0  0  0  0  0  0  0  0  0  0  0
    7.2254    1.1395    0.1883 N   0  0  0  0  0  0  0  0  0  0  0  0
    1.8255    1.8403    6.8789 N   0  0  0  0  0  0  0  0  0  0  0  0
    2.0183    2.4700    0.8259 C   0  0  0  0  0  0  0  0  0  0  0  0
    0.5911    2.0242    1.0777 C   0  0  0  0  0  0  0  0  0  0  0  0
    2.2514    3.5144   -0.2207 C   0  0  0  0  0  0  0  0  0  0  0  0
    0.2682    1.1024   -0.1164 C   0  0  0  0  0  0  0  0  0  0  0  0
    1.5348    4.7533    0.2441 C   0  0  0  0  0  0  0  0  0  0  0  0
    2.3734   -0.2486   -0.3236 C   0  0  0  0  0  0  0  0  0  0  0  0
    1.7177    4.6595    2.7660 C   0  0  0  0  0  0  0  0  0  0  0  0
    3.1985    0.7869   -0.7160 C   0  0  0  0  0  0  0  0  0  0  0  0
    2.0907    3.3879    3.2467 C   0  0  0  0  0  0  0  0  0  0  0  0
    3.0495   -1.3982    0.0237 C   0  0  0  0  0  0  0  0  0  0  0  0
    1.3173    5.5182    3.7636 C   0  0  0  0  0  0  0  0  0  0  0  0
    5.1757   -0.1554    0.1892 C   0  0  0  0  0  0  0  0  0  0  0  0
    1.6098    3.7443    5.4560 C   0  0  0  0  0  0  0  0  0  0  0  0
    4.4910    0.9609   -0.2026 C   0  0  0  0  0  0  0  0  0  0  0  0
    1.9585    2.8738    4.4930 C   0  0  0  0  0  0  0  0  0  0  0  0
    4.4539   -1.3616    0.2403 C   0  0  0  0  0  0  0  0  0  0  0  0
    1.3413    5.0812    5.1077 C   0  0  0  0  0  0  0  0  0  0  0  0
    6.6654   -0.0347    0.2675 C   0  0  0  0  0  0  0  0  0  0  0  0
    1.5867    3.0921    6.7733 C   0  0  0  0  0  0  0  0  0  0  0  0
    8.4224   -1.1127    0.2010 H   0  0  0  0  0  0  0  0  0  0  0  0
    6.9914   -2.0563    0.2252 H   0  0  0  0  0  0  0  0  0  0  0  0
    1.0858    3.4342    8.7215 H   0  0  0  0  0  0  0  0  0  0  0  0
    0.9646    4.8078    7.6787 H   0  0  0  0  0  0  0  0  0  0  0  0
    8.2413    1.0581    0.1874 H   0  0  0  0  0  0  0  0  0  0  0  0
    1.7510    1.4999    7.8372 H   0  0  0  0  0  0  0  0  0  0  0  0
    2.7849    2.9827    1.3784 H   0  0  0  0  0  0  0  0  0  0  0  0
    2.5278    1.5540    1.1137 H   0  0  0  0  0  0  0  0  0  0  0  0
   -0.1165    2.8598    1.1722 H   0  0  0  0  0  0  0  0  0  0  0  0
    0.4789    1.4563    2.0151 H   0  0  0  0  0  0  0  0  0  0  0  0
    3.3366    3.7235   -0.2650 H   0  0  0  0  0  0  0  0  0  0  0  0
    1.9326    3.2507   -1.2255 H   0  0  0  0  0  0  0  0  0  0  0  0
    0.3842    1.6626   -1.0487 H   0  0  0  0  0  0  0  0  0  0  0  0
   -0.8004    0.8596   -0.0459 H   0  0  0  0  0  0  0  0  0  0  0  0
    1.7988    5.5062   -0.5107 H   0  0  0  0  0  0  0  0  0  0  0  0
    0.4528    4.6131    0.1664 H   0  0  0  0  0  0  0  0  0  0  0  0
    2.7528    1.6011   -1.2347 H   0  0  0  0  0  0  0  0  0  0  0  0
    2.6044    2.5429    2.8301 H   0  0  0  0  0  0  0  0  0  0  0  0
    2.5076   -2.3361    0.0665 H   0  0  0  0  0  0  0  0  0  0  0  0
    1.0536    6.5400    3.5081 H   0  0  0  0  0  0  0  0  0  0  0  0
    4.9490    1.9516   -0.1360 H   0  0  0  0  0  0  0  0  0  0  0  0
    2.2536    1.8373    4.6565 H   0  0  0  0  0  0  0  0  0  0  0  0
    4.9580   -2.2922    0.4539 H   0  0  0  0  0  0  0  0  0  0  0  0
    1.1848    5.8265    5.8722 H   0  0  0  0  0  0  0  0  0  0  0  0
  1 10  1  0  0  0  0
  1 12  1  0  0  0  0
  2 11  1  0  0  0  0
  2 13  1  0  0  0  0
  3 24  1  0  0  0  0
  3 26  1  0  0  0  0
  3 27  1  0  0  0  0
  4 25  1  0  0  0  0
  4 28  1  0  0  0  0
  4 29  1  0  0  0  0
  5 24  2  0  0  0  0
  5 30  1  0  0  0  0
  6 25  2  0  0  0  0
  6 31  1  0  0  0  0
  7  8  1  0  0  0  0
  7  9  1  0  0  0  0
  7 32  1  0  0  0  0
  7 33  1  0  0  0  0
  8 10  1  0  0  0  0
  8 34  1  0  0  0  0
  8 35  1  0  0  0  0
  9 11  1  0  0  0  0
  9 36  1  0  0  0  0
  9 37  1  0  0  0  0
 10 38  1  0  0  0  0
 10 39  1  0  0  0  0
 11 40  1  0  0  0  0
 11 41  1  0  0  0  0
 12 14  2  0  0  0  0
 12 16  1  0  0  0  0
 13 15  2  0  0  0  0
 13 17  1  0  0  0  0
 14 20  1  0  0  0  0
 14 42  1  0  0  0  0
 15 21  1  0  0  0  0
 15 43  1  0  0  0  0
 16 22  2  0  0  0  0
 16 44  1  0  0  0  0
 17 23  2  0  0  0  0
 17 45  1  0  0  0  0
 18 20  2  0  0  0  0
 18 22  1  0  0  0  0
 18 24  1  0  0  0  0
 19 21  2  0  0  0  0
 19 23  1  0  0  0  0
 19 25  1  0  0  0  0
 20 46  1  0  0  0  0
 21 47  1  0  0  0  0
 22 48  1  0  0  0  0
 23 49  1  0  0  0  0
M  END
>  <DRUGBANK_ID>
DB00738

>  <SECONDARY_ACCESSION_NUMBERS>
APRD00303; EXPT02625

>  <COMMON_NAME>
Pentamidine

>  <CAS_NUMBER>
100-33-4

>  <UNII>
673LC5J4LQ

>  <SYNONYMS>
1,5-bis(4-amidinophenoxy)pentane; 4,4'-(1,5-pentanediylbis(oxy))bis-benzenecarboximidamide; 4,4'-(pentamethylenedioxy)dibenzamidine; 4,4'-Diamidinodiphenoxypentane; p,p'-(pentamethylenedioxy)dibenzamidine; Pentamidin; Pentamidina; Pentamidine; Pentamidinum

$$$$
