
 OpenBabel10282417143D

 43 44  0  0  0  0  0  0  0  0999 V2000
    2.0493   -0.0903    0.9790 S   0  0  0  0  0  0  0  0  0  0  0  0
    0.4567    3.5309    1.3329 P   0  0  0  0  0  0  0  0  0  0  0  0
    0.0298   -0.1417   -1.5868 O   0  0  0  0  0  0  0  0  0  0  0  0
   -0.2396    2.0638    1.3463 O   0  0  0  0  0  0  0  0  0  0  0  0
   -2.3720   -2.1442    0.1951 O   0  0  0  0  0  0  0  0  0  0  0  0
    2.1073   -2.5000    0.0552 O   0  0  0  0  0  0  0  0  0  0  0  0
    0.0059    2.0363   -3.2169 O   0  0  0  0  0  0  0  0  0  0  0  0
    0.1514    3.5049   -1.5491 O   0  0  0  0  0  0  0  0  0  0  0  0
    0.3033   -1.5632    2.8090 O   0  0  0  0  0  0  0  0  0  0  0  0
   -0.7625    4.3338    0.7183 O   0  0  0  0  0  0  0  0  0  0  0  0
    0.5226    3.6312    2.9101 O   0  0  0  0  0  0  0  0  0  0  0  0
    1.7709    3.7534    0.6579 O   0  0  0  0  0  0  0  0  0  0  0  0
   -3.8927   -3.5852   -0.5331 O   0  0  0  0  0  0  0  0  0  0  0  0
   -3.1518    0.3092    1.1284 N   0  0  0  0  0  0  0  0  0  0  0  0
   -0.3207   -3.2798    1.4746 N   0  0  0  0  0  0  0  0  0  0  0  0
    0.2135    1.1140   -0.9310 C   0  0  1  0  0  0  0  0  0  0  0  0
   -0.0778   -1.2483   -0.6525 C   0  0  2  0  0  0  0  0  0  0  0  0
   -0.9166    1.4682    0.2117 C   0  0  1  0  0  0  0  0  0  0  0  0
   -1.7352    0.2731    0.7835 C   0  0  2  0  0  0  0  0  0  0  0  0
   -1.4380   -1.0374    0.0684 C   0  0  1  0  0  0  0  0  0  0  0  0
    1.1279   -1.5455    0.4492 C   0  0  2  0  0  0  0  0  0  0  0  0
    1.6384    1.0611   -0.3291 C   0  0  0  0  0  0  0  0  0  0  0  0
    0.1509    2.3367   -1.9127 C   0  0  0  0  0  0  0  0  0  0  0  0
    0.4735   -2.1703    1.7505 C   0  0  0  0  0  0  0  0  0  0  0  0
   -3.1949   -2.6392   -0.7451 C   0  0  0  0  0  0  0  0  0  0  0  0
   -3.0893   -1.9098   -2.0400 C   0  0  0  0  0  0  0  0  0  0  0  0
   -0.1070   -2.1375   -1.2954 H   0  0  0  0  0  0  0  0  0  0  0  0
   -3.6807   -0.5452    0.9588 H   0  0  0  0  0  0  0  0  0  0  0  0
   -3.6757    1.1665    1.0762 H   0  0  0  0  0  0  0  0  0  0  0  0
   -0.4941   -3.4915    0.4993 H   0  0  0  0  0  0  0  0  0  0  0  0
   -1.2281   -3.1765    1.9408 H   0  0  0  0  0  0  0  0  0  0  0  0
    1.8397   -3.0216   -0.7062 H   0  0  0  0  0  0  0  0  0  0  0  0
    0.0425    1.0788   -3.3924 H   0  0  0  0  0  0  0  0  0  0  0  0
   -0.6810    4.2081   -0.2625 H   0  0  0  0  0  0  0  0  0  0  0  0
    0.7381    2.7149    3.1936 H   0  0  0  0  0  0  0  0  0  0  0  0
   -1.6724    2.1928   -0.1045 H   0  0  0  0  0  0  0  0  0  0  0  0
   -1.3321    0.1815    1.8117 H   0  0  0  0  0  0  0  0  0  0  0  0
   -1.0937   -1.3419    0.9968 H   0  0  0  0  0  0  0  0  0  0  0  0
    2.5520    1.6546   -0.4455 H   0  0  0  0  0  0  0  0  0  0  0  0
    1.3571    1.8894    0.2182 H   0  0  0  0  0  0  0  0  0  0  0  0
   -3.2843   -0.8501   -1.8675 H   0  0  0  0  0  0  0  0  0  0  0  0
   -2.0920   -2.0684   -2.4510 H   0  0  0  0  0  0  0  0  0  0  0  0
   -3.8338   -2.3153   -2.7209 H   0  0  0  0  0  0  0  0  0  0  0  0
  1 21  1  0  0  0  0
  1 22  1  0  0  0  0
  2  4  1  0  0  0  0
  2 10  1  0  0  0  0
  2 11  1  0  0  0  0
  2 12  2  0  0  0  0
  3 16  1  0  0  0  0
  3 17  1  0  0  0  0
  5 25  1  0  0  0  0
  6 32  1  0  0  0  0
  7 23  1  0  0  0  0
  7 33  1  0  0  0  0
  8 23  2  0  0  0  0
  9 24  2  0  0  0  0
 10 34  1  0  0  0  0
 11 35  1  0  0  0  0
 13 25  2  0  0  0  0
 14 28  1  0  0  0  0
 14 29  1  0  0  0  0
 15 24  1  0  0  0  0
 15 30  1  0  0  0  0
 15 31  1  0  0  0  0
 16 18  1  0  0  0  0
 16 22  1  0  0  0  0
 16 23  1  6  0  0  0
 17 20  1  0  0  0  0
 17 21  1  0  0  0  0
 17 27  1  6  0  0  0
 18 19  1  0  0  0  0
 18 36  1  6  0  0  0
 18  4  1  0  0  0  0
 19 20  1  0  0  0  0
 19 14  1  0  0  0  0
 19 37  1  1  0  0  0
 20  5  1  0  0  0  0
 20 38  1  1  0  0  0
 21  6  1  6  0  0  0
 21 24  1  0  0  0  0
 22 39  1  0  0  0  0
 22 40  1  0  0  0  0
 25 26  1  0  0  0  0
 26 41  1  0  0  0  0
 26 42  1  0  0  0  0
 26 43  1  0  0  0  0
M  END
>  <DRUGBANK_ID>
DB04788

>  <COMMON_NAME>
Tagetitoxin

>  <CAS_NUMBER>
87913-21-1

>  <SYNONYMS>
(1R,4R,5R,6R,7S,8R)-6-Acetoxy-7-amino-4-carbamoyl-4-hydroxy-8-(phosphonooxy)-9-oxa-3-thiabicyclo[3.3.1]nonane-1-carboxylic acid

$$$$
