1515
 OpenBabel10282417113D

 40 42  0  0  1  0  0  0  0  0999 V2000
   -0.5833    0.3028   -1.7742 O   0  0  0  0  0  0  0  0  0  0  0  0
   -2.9341    2.5601   -0.5002 O   0  0  0  0  0  0  0  0  0  0  0  0
   -1.5024    3.1778   -2.0698 O   0  0  0  0  0  0  0  0  0  0  0  0
   -1.4335   -1.5922   -2.6395 O   0  0  0  0  0  0  0  0  0  0  0  0
    1.2979    3.7775   -0.2221 N   0  0  0  0  0  0  0  0  0  0  0  0
    0.3582    3.0561    0.6446 C   0  0  1  0  0  0  0  0  0  0  0  0
    2.1804    2.7440   -0.7720 C   0  0  1  0  0  0  0  0  0  0  0  0
   -0.5765    2.0529   -0.0898 C   0  0  2  0  0  0  0  0  0  0  0  0
    1.4328    2.3203    1.5023 C   0  0  0  0  0  0  0  0  0  0  0  0
    2.6327    2.1129    0.5511 C   0  0  0  0  0  0  0  0  0  0  0  0
    1.4239    1.7428   -1.6760 C   0  0  0  0  0  0  0  0  0  0  0  0
    0.2762    1.0847   -0.9193 C   0  0  2  0  0  0  0  0  0  0  0  0
    0.7520    4.6706   -1.2226 C   0  0  0  0  0  0  0  0  0  0  0  0
   -1.6742    2.6653   -0.9688 C   0  0  0  0  0  0  0  0  0  0  0  0
   -0.6368   -1.0437   -1.8894 C   0  0  0  0  0  0  0  0  0  0  0  0
    0.2969   -1.8576   -1.0859 C   0  0  0  0  0  0  0  0  0  0  0  0
    0.3838   -1.6755    0.2991 C   0  0  0  0  0  0  0  0  0  0  0  0
    1.0446   -2.8620   -1.7031 C   0  0  0  0  0  0  0  0  0  0  0  0
    1.3355   -2.3611    1.0402 C   0  0  0  0  0  0  0  0  0  0  0  0
    1.8935   -3.6518   -0.9254 C   0  0  0  0  0  0  0  0  0  0  0  0
    2.0813   -3.3616    0.4288 C   0  0  0  0  0  0  0  0  0  0  0  0
   -0.2272    3.7261    1.2847 H   0  0  0  0  0  0  0  0  0  0  0  0
    3.0301    3.1702   -1.3138 H   0  0  0  0  0  0  0  0  0  0  0  0
   -3.0868    1.9410    0.2319 H   0  0  0  0  0  0  0  0  0  0  0  0
   -1.0967    1.4537    0.6734 H   0  0  0  0  0  0  0  0  0  0  0  0
    1.7593    2.9457    2.3450 H   0  0  0  0  0  0  0  0  0  0  0  0
    1.0873    1.3705    1.9260 H   0  0  0  0  0  0  0  0  0  0  0  0
    2.9078    1.0571    0.4529 H   0  0  0  0  0  0  0  0  0  0  0  0
    3.5112    2.6413    0.9447 H   0  0  0  0  0  0  0  0  0  0  0  0
    1.0550    2.2071   -2.5947 H   0  0  0  0  0  0  0  0  0  0  0  0
    2.1167    0.9579   -2.0058 H   0  0  0  0  0  0  0  0  0  0  0  0
    0.7944    0.4528   -0.2132 H   0  0  0  0  0  0  0  0  0  0  0  0
    0.3343    4.1522   -2.0766 H   0  0  0  0  0  0  0  0  0  0  0  0
   -0.0018    5.3363   -0.7914 H   0  0  0  0  0  0  0  0  0  0  0  0
    1.5433    5.2879   -1.6546 H   0  0  0  0  0  0  0  0  0  0  0  0
   -0.2484   -0.9500    0.8021 H   0  0  0  0  0  0  0  0  0  0  0  0
    0.9590   -3.0425   -2.7734 H   0  0  0  0  0  0  0  0  0  0  0  0
    1.4737   -2.1244    2.0913 H   0  0  0  0  0  0  0  0  0  0  0  0
    2.4099   -4.4984   -1.3705 H   0  0  0  0  0  0  0  0  0  0  0  0
    2.7967   -3.9313    1.0155 H   0  0  0  0  0  0  0  0  0  0  0  0
  1 15  1  0  0  0  0
  2 14  1  0  0  0  0
  2 24  1  0  0  0  0
  3 14  2  0  0  0  0
  4 15  2  0  0  0  0
  5  6  1  0  0  0  0
  5  7  1  0  0  0  0
  5 13  1  0  0  0  0
  6  8  1  0  0  0  0
  6  9  1  0  0  0  0
  6 22  1  1  0  0  0
  7 10  1  0  0  0  0
  7 11  1  0  0  0  0
  7 23  1  6  0  0  0
  8 12  1  0  0  0  0
  8 14  1  0  0  0  0
  8 25  1  1  0  0  0
  9 10  1  0  0  0  0
  9 26  1  0  0  0  0
  9 27  1  0  0  0  0
 10 28  1  0  0  0  0
 10 29  1  0  0  0  0
 11 12  1  0  0  0  0
 11 30  1  0  0  0  0
 11 31  1  0  0  0  0
 12 32  1  1  0  0  0
 12  1  1  0  0  0  0
 13 33  1  0  0  0  0
 13 34  1  0  0  0  0
 13 35  1  0  0  0  0
 15 16  1  0  0  0  0
 16 17  2  0  0  0  0
 16 18  1  0  0  0  0
 17 19  1  0  0  0  0
 17 36  1  0  0  0  0
 18 20  2  0  0  0  0
 18 37  1  0  0  0  0
 19 21  2  0  0  0  0
 19 38  1  0  0  0  0
 20 21  1  0  0  0  0
 20 39  1  0  0  0  0
 21 40  1  0  0  0  0
M  END
>  <DRUGBANK_ID>
DB01515

>  <COMMON_NAME>
Benzoylecgonine

>  <CAS_NUMBER>
519-09-5

>  <UNII>
5353I8I6YS

>  <SYNONYMS>
(-)-benzoylecgonine; (1R,2R,3S,5S)-8-methyl-3-[(phenylcarbonyl)oxy]-8-azabicyclo[3.2.1]octane-2-carboxylic acid; 3-(Benzoyloxy)-8-methyl-8-azabicyclo[3.2.1]octane-2-carboxylic acid; Ecgonine benzoate; O-benzoyl-(-)-ecgonine; O-benzoylecgonine

$$$$
