Structure #1
 OpenBabel10282417153D

 30 32  0  0  0  0  0  0  0  0999 V2000
    2.4551   -0.7329   -0.0227 C   0  0  0  0  0  0  0  0  0  0  0  0
    2.4750    0.6540   -0.0117 C   0  0  0  0  0  0  0  0  0  0  0  0
   -2.4099   -0.7338    0.0274 C   0  0  0  0  0  0  0  0  0  0  0  0
    1.2350   -1.4055    0.0010 C   0  0  0  0  0  0  0  0  0  0  0  0
   -1.1975   -1.4077    0.0122 C   0  0  0  0  0  0  0  0  0  0  0  0
   -2.4191    0.6556    0.0494 C   0  0  0  0  0  0  0  0  0  0  0  0
    1.2755    1.3624    0.0137 C   0  0  0  0  0  0  0  0  0  0  0  0
   -2.4451    4.5982   -3.1367 C   0  0  0  0  0  0  0  0  0  0  0  0
   -3.5811    3.5934   -2.9422 C   0  0  0  0  0  0  0  0  0  0  0  0
   -1.3302    2.9200   -0.0539 C   0  0  0  0  0  0  0  0  0  0  0  0
    0.0171   -0.7069    0.0095 C   0  0  0  0  0  0  0  0  0  0  0  0
   -1.2275    1.4035   -0.0034 C   0  0  0  0  0  0  0  0  0  0  0  0
    0.0183    0.7181    0.0054 C   0  0  0  0  0  0  0  0  0  0  0  0
   -2.0176    3.4591   -1.2896 C   0  0  0  0  0  0  0  0  0  0  0  0
   -1.3796    4.2115   -2.1577 N   0  0  0  0  0  0  0  0  0  0  0  0
   -3.3399    3.2380   -1.5743 N   0  0  0  0  0  0  0  0  0  0  0  0
    3.3884   -1.2864   -0.0502 H   0  0  0  0  0  0  0  0  0  0  0  0
    3.4170    1.1945   -0.0271 H   0  0  0  0  0  0  0  0  0  0  0  0
   -3.3483   -1.2813    0.0229 H   0  0  0  0  0  0  0  0  0  0  0  0
    1.2432   -2.4947    0.0051 H   0  0  0  0  0  0  0  0  0  0  0  0
   -1.2105   -2.4968    0.0081 H   0  0  0  0  0  0  0  0  0  0  0  0
   -3.3824    1.1466    0.1108 H   0  0  0  0  0  0  0  0  0  0  0  0
    1.3580    2.4454    0.0391 H   0  0  0  0  0  0  0  0  0  0  0  0
   -2.0630    4.5964   -4.1602 H   0  0  0  0  0  0  0  0  0  0  0  0
   -2.7875    5.6095   -2.8858 H   0  0  0  0  0  0  0  0  0  0  0  0
   -4.5731    4.0259   -3.0830 H   0  0  0  0  0  0  0  0  0  0  0  0
   -3.4561    2.7268   -3.6025 H   0  0  0  0  0  0  0  0  0  0  0  0
   -1.8686    3.2726    0.8323 H   0  0  0  0  0  0  0  0  0  0  0  0
   -0.3522    3.4043   -0.0111 H   0  0  0  0  0  0  0  0  0  0  0  0
   -3.9255    2.5771   -1.0939 H   0  0  0  0  0  0  0  0  0  0  0  0
  1  2  2  0  0  0  0
  1  4  1  0  0  0  0
  1 17  1  0  0  0  0
  2  7  1  0  0  0  0
  2 18  1  0  0  0  0
  3  5  2  0  0  0  0
  3  6  1  0  0  0  0
  3 19  1  0  0  0  0
  4 11  2  0  0  0  0
  4 20  1  0  0  0  0
  5 11  1  0  0  0  0
  5 21  1  0  0  0  0
  6 12  2  0  0  0  0
  6 22  1  0  0  0  0
  7 13  2  0  0  0  0
  7 23  1  0  0  0  0
  8  9  1  0  0  0  0
  8 15  1  0  0  0  0
  8 24  1  0  0  0  0
  8 25  1  0  0  0  0
  9 16  1  0  0  0  0
  9 26  1  0  0  0  0
  9 27  1  0  0  0  0
 10 12  1  0  0  0  0
 10 14  1  0  0  0  0
 10 28  1  0  0  0  0
 10 29  1  0  0  0  0
 11 13  1  0  0  0  0
 12 13  1  0  0  0  0
 14 15  2  0  0  0  0
 14 16  1  0  0  0  0
 16 30  1  0  0  0  0
M  END
>  <DRUGBANK_ID>
DB06711

>  <COMMON_NAME>
Naphazoline

>  <CAS_NUMBER>
835-31-4

>  <UNII>
H231GF11BV

>  <SYNONYMS>
Nafazolin; Nafazolina; Naphazoline

$$$$
