MXP
 OpenBabel10282417173D

 61 61  0  0  0  0  0  0  0  0999 V2000
   -0.8019    1.3059    0.0859 O   0  0  0  0  0  0  0  0  0  0  0  0
    1.2522    0.2712   -0.3223 C   0  0  0  0  0  0  0  0  0  0  0  0
    6.4725    1.5553   -1.0125 N   0  0  0  0  0  0  0  0  0  0  0  0
    0.6505   -0.9624   -0.1435 C   0  0  0  0  0  0  0  0  0  0  0  0
   -0.6581   -1.2085   -0.0436 C   0  0  0  0  0  0  0  0  0  0  0  0
    1.7004   -1.7754   -0.0407 O   0  0  0  0  0  0  0  0  0  0  0  0
   -1.4783    0.0772   -0.0076 C   0  0  0  0  0  0  0  0  0  0  0  0
    0.6005    1.3566   -0.0849 C   0  0  0  0  0  0  0  0  0  0  0  0
   -1.3108   -2.6021    0.0137 C   0  0  0  0  0  0  0  0  0  0  0  0
   -0.5444   -3.9697    0.0078 C   0  0  0  0  0  0  0  0  0  0  0  0
   -2.7056    0.0833   -0.0110 O   0  0  0  0  0  0  0  0  0  0  0  0
   -1.2942   -5.0808    0.0048 C   0  0  0  0  0  0  0  0  0  0  0  0
   -0.6753   -6.3881    0.0006 C   0  0  0  0  0  0  0  0  0  0  0  0
   -1.3056   -7.5530   -0.0444 C   0  0  0  0  0  0  0  0  0  0  0  0
   -0.4597   -8.8076    0.0279 C   0  0  0  0  0  0  0  0  0  0  0  0
   -0.7443   -9.6448    1.2750 C   0  0  0  0  0  0  0  0  0  0  0  0
   -2.1957  -10.1030    1.3616 C   0  0  0  0  0  0  0  0  0  0  0  0
   -2.6140  -10.8462    0.0938 C   0  0  0  0  0  0  0  0  0  0  0  0
    0.9385   -4.2368   -0.0015 C   0  0  0  0  0  0  0  0  0  0  0  0
   -2.7913   -7.5154   -0.1250 C   0  0  0  0  0  0  0  0  0  0  0  0
    1.4020    2.6085    0.0290 C   0  0  0  0  0  0  0  0  0  0  0  0
    2.3745    2.5810    1.2443 C   0  0  0  0  0  0  0  0  0  0  0  0
    3.4621    1.4742    1.2887 C   0  0  0  0  0  0  0  0  0  0  0  0
    4.3343    1.4576    0.0480 C   0  0  0  0  0  0  0  0  0  0  0  0
    5.6655    1.5196    0.1010 C   0  0  0  0  0  0  0  0  0  0  0  0
    7.8476    1.6582   -0.8911 C   0  0  0  0  0  0  0  0  0  0  0  0
    8.0168    1.6821   -3.3543 C   0  0  0  0  0  0  0  0  0  0  0  0
   -2.5452   -2.6571    0.0347 O   0  0  0  0  0  0  0  0  0  0  0  0
    8.5775    1.7173   -2.0387 O   0  0  0  0  0  0  0  0  0  0  0  0
    8.4201    1.7006    0.1946 O   0  0  0  0  0  0  0  0  0  0  0  0
    2.3191    0.1977   -0.4815 H   0  0  0  0  0  0  0  0  0  0  0  0
    6.0455    1.5340   -1.9262 H   0  0  0  0  0  0  0  0  0  0  0  0
    1.1994   -2.5054    0.2336 H   0  0  0  0  0  0  0  0  0  0  0  0
   -2.3800   -5.0113    0.0110 H   0  0  0  0  0  0  0  0  0  0  0  0
    0.3915   -6.5177    0.0521 H   0  0  0  0  0  0  0  0  0  0  0  0
   -0.5744   -9.3767   -0.8984 H   0  0  0  0  0  0  0  0  0  0  0  0
    0.6191   -8.5724    0.0475 H   0  0  0  0  0  0  0  0  0  0  0  0
   -0.0921  -10.5261    1.2697 H   0  0  0  0  0  0  0  0  0  0  0  0
   -0.4823   -9.0689    2.1733 H   0  0  0  0  0  0  0  0  0  0  0  0
   -2.3443  -10.7393    2.2359 H   0  0  0  0  0  0  0  0  0  0  0  0
   -2.8418   -9.2432    1.5608 H   0  0  0  0  0  0  0  0  0  0  0  0
   -2.0598  -11.7829    0.0144 H   0  0  0  0  0  0  0  0  0  0  0  0
   -3.6866  -11.0464    0.1003 H   0  0  0  0  0  0  0  0  0  0  0  0
   -2.4147  -10.2924   -0.8311 H   0  0  0  0  0  0  0  0  0  0  0  0
    1.3307   -3.8246   -0.9389 H   0  0  0  0  0  0  0  0  0  0  0  0
    1.3298   -3.8957    0.9712 H   0  0  0  0  0  0  0  0  0  0  0  0
    1.4263   -5.2010   -0.0172 H   0  0  0  0  0  0  0  0  0  0  0  0
   -3.1814   -7.0934    0.8110 H   0  0  0  0  0  0  0  0  0  0  0  0
   -3.1128   -6.8972   -0.9668 H   0  0  0  0  0  0  0  0  0  0  0  0
   -3.2510   -8.4754   -0.2946 H   0  0  0  0  0  0  0  0  0  0  0  0
    1.9926    2.7065   -0.8938 H   0  0  0  0  0  0  0  0  0  0  0  0
    0.7442    3.4744    0.0713 H   0  0  0  0  0  0  0  0  0  0  0  0
    2.8924    3.5453    1.2763 H   0  0  0  0  0  0  0  0  0  0  0  0
    1.7797    2.5033    2.1632 H   0  0  0  0  0  0  0  0  0  0  0  0
    4.0786    1.6108    2.1862 H   0  0  0  0  0  0  0  0  0  0  0  0
    3.0113    0.4872    1.4597 H   0  0  0  0  0  0  0  0  0  0  0  0
    3.8589    1.4002   -0.9274 H   0  0  0  0  0  0  0  0  0  0  0  0
    6.1686    1.5599    1.0645 H   0  0  0  0  0  0  0  0  0  0  0  0
    7.4914    0.7385   -3.5192 H   0  0  0  0  0  0  0  0  0  0  0  0
    7.3635    2.5434   -3.5136 H   0  0  0  0  0  0  0  0  0  0  0  0
    8.8461    1.7432   -4.0668 H   0  0  0  0  0  0  0  0  0  0  0  0
  1  7  1  0  0  0  0
  1  8  1  0  0  0  0
  2  4  1  0  0  0  0
  2  8  2  0  0  0  0
  2 31  1  0  0  0  0
  3 25  1  0  0  0  0
  3 26  1  0  0  0  0
  3 32  1  0  0  0  0
  4  5  2  0  0  0  0
  4  6  1  0  0  0  0
  5  7  1  0  0  0  0
  5  9  1  0  0  0  0
  6 33  1  0  0  0  0
  7 11  2  0  0  0  0
  8 21  1  0  0  0  0
  9 10  1  0  0  0  0
  9 28  2  0  0  0  0
 10 12  2  0  0  0  0
 10 19  1  0  0  0  0
 12 13  1  0  0  0  0
 12 34  1  0  0  0  0
 13 14  2  0  0  0  0
 13 35  1  0  0  0  0
 14 15  1  0  0  0  0
 14 20  1  0  0  0  0
 15 16  1  0  0  0  0
 15 36  1  0  0  0  0
 15 37  1  0  0  0  0
 16 17  1  0  0  0  0
 16 38  1  0  0  0  0
 16 39  1  0  0  0  0
 17 18  1  0  0  0  0
 17 40  1  0  0  0  0
 17 41  1  0  0  0  0
 18 42  1  0  0  0  0
 18 43  1  0  0  0  0
 18 44  1  0  0  0  0
 19 45  1  0  0  0  0
 19 46  1  0  0  0  0
 19 47  1  0  0  0  0
 20 48  1  0  0  0  0
 20 49  1  0  0  0  0
 20 50  1  0  0  0  0
 21 22  1  0  0  0  0
 21 51  1  0  0  0  0
 21 52  1  0  0  0  0
 22 23  1  0  0  0  0
 22 53  1  0  0  0  0
 22 54  1  0  0  0  0
 23 24  1  0  0  0  0
 23 55  1  0  0  0  0
 23 56  1  0  0  0  0
 24 25  2  0  0  0  0
 24 57  1  0  0  0  0
 25 58  1  0  0  0  0
 26 29  1  0  0  0  0
 26 30  2  0  0  0  0
 27 29  1  0  0  0  0
 27 59  1  0  0  0  0
 27 60  1  0  0  0  0
 27 61  1  0  0  0  0
M  END
>  <DRUGBANK_ID>
DB08226

>  <COMMON_NAME>
Myxopyronin B

$$$$
