F13
 OpenBabel10282417163D

 31 33  0  0  0  0  0  0  0  0999 V2000
    2.1278   -0.2027    0.1295 F   0  0  0  0  0  0  0  0  0  0  0  0
    0.7888   -0.1929    0.1538 C   0  0  0  0  0  0  0  0  0  0  0  0
    0.1335    1.0035    0.3669 C   0  0  0  0  0  0  0  0  0  0  0  0
    0.0672   -1.3497   -0.0139 C   0  0  0  0  0  0  0  0  0  0  0  0
   -1.3258   -1.2686   -0.0324 C   0  0  0  0  0  0  0  0  0  0  0  0
   -1.9743   -0.0175   -0.0106 C   0  0  0  0  0  0  0  0  0  0  0  0
   -1.2301    1.1597    0.1298 C   0  0  0  0  0  0  0  0  0  0  0  0
   -1.9037    2.5133    0.0513 C   0  0  0  0  0  0  0  0  0  0  0  0
   -3.1270    2.5695    0.0498 O   0  0  0  0  0  0  0  0  0  0  0  0
   -1.1794    3.7083    0.0460 N   0  0  0  0  0  0  0  0  0  0  0  0
    0.1929    3.9206   -0.1701 C   0  0  0  0  0  0  0  0  0  0  0  0
    0.8777    3.2154   -1.1699 C   0  0  0  0  0  0  0  0  0  0  0  0
    2.2694    3.1488   -1.1579 C   0  0  0  0  0  0  0  0  0  0  0  0
    2.9823    3.9568   -0.2858 C   0  0  0  0  0  0  0  0  0  0  0  0
    2.3017    4.8254    0.5762 C   0  0  0  0  0  0  0  0  0  0  0  0
    0.9053    4.7506    0.6987 C   0  0  0  0  0  0  0  0  0  0  0  0
    3.0605    5.8776    1.2111 C   0  0  0  0  0  0  0  0  0  0  0  0
    3.7277    6.8302    0.5899 N   0  0  0  0  0  0  0  0  0  0  0  0
    4.2863    7.6090    1.5681 N   0  0  0  0  0  0  0  0  0  0  0  0
    3.9919    7.1392    2.7723 N   0  0  0  0  0  0  0  0  0  0  0  0
    3.2313    6.0587    2.5497 N   0  0  0  0  0  0  0  0  0  0  0  0
    0.7640    1.8105    0.6938 H   0  0  0  0  0  0  0  0  0  0  0  0
    0.5973   -2.2928   -0.0772 H   0  0  0  0  0  0  0  0  0  0  0  0
   -1.9077   -2.1847   -0.0753 H   0  0  0  0  0  0  0  0  0  0  0  0
   -3.0611    0.0209   -0.0738 H   0  0  0  0  0  0  0  0  0  0  0  0
   -1.7519    4.5252    0.2368 H   0  0  0  0  0  0  0  0  0  0  0  0
    0.3319    2.5810   -1.8642 H   0  0  0  0  0  0  0  0  0  0  0  0
    2.7881    2.4466   -1.8050 H   0  0  0  0  0  0  0  0  0  0  0  0
    4.0713    3.9336   -0.3011 H   0  0  0  0  0  0  0  0  0  0  0  0
    0.3948    5.2943    1.4908 H   0  0  0  0  0  0  0  0  0  0  0  0
    2.8983    5.5056    3.3272 H   0  0  0  0  0  0  0  0  0  0  0  0
  1  2  1  0  0  0  0
  2  3  2  0  0  0  0
  2  4  1  0  0  0  0
  3  7  1  0  0  0  0
  3 22  1  0  0  0  0
  4  5  2  0  0  0  0
  4 23  1  0  0  0  0
  5  6  1  0  0  0  0
  5 24  1  0  0  0  0
  6  7  2  0  0  0  0
  6 25  1  0  0  0  0
  7  8  1  0  0  0  0
  8  9  2  0  0  0  0
  8 10  1  0  0  0  0
 10 11  1  0  0  0  0
 10 26  1  0  0  0  0
 11 12  2  0  0  0  0
 11 16  1  0  0  0  0
 12 13  1  0  0  0  0
 12 27  1  0  0  0  0
 13 14  2  0  0  0  0
 13 28  1  0  0  0  0
 14 15  1  0  0  0  0
 14 29  1  0  0  0  0
 15 16  2  0  0  0  0
 15 17  1  0  0  0  0
 16 30  1  0  0  0  0
 17 18  2  0  0  0  0
 17 21  1  0  0  0  0
 18 19  1  0  0  0  0
 19 20  2  0  0  0  0
 20 21  1  0  0  0  0
 21 31  1  0  0  0  0
M  END
>  <DRUGBANK_ID>
DB07729

>  <COMMON_NAME>
3-fluoro-N-[3-(1H-tetrazol-5-yl)phenyl]benzamide

$$$$
