
 OpenBabel10282417193D

 44 46  0  0  0  0  0  0  0  0999 V2000
    1.9659    1.4433    0.0138 C   0  0  0  0  0  0  0  0  0  0  0  0
   -1.7662   -0.7331    0.0943 C   0  0  0  0  0  0  0  0  0  0  0  0
   -4.9806    0.3378   -2.3009 C   0  0  0  0  0  0  0  0  0  0  0  0
   -1.7397    0.6561    0.1696 C   0  0  0  0  0  0  0  0  0  0  0  0
   -5.3972    0.9827   -3.5034 C   0  0  0  0  0  0  0  0  0  0  0  0
   -0.5670   -1.4126   -0.0083 C   0  0  0  0  0  0  0  0  0  0  0  0
   -3.2828    4.0559   -2.3495 C   0  0  0  0  0  0  0  0  0  0  0  0
   -5.6399    3.4105   -4.4611 C   0  0  0  0  0  0  0  0  0  0  0  0
   -2.5906    3.3255   -1.4825 C   0  0  0  0  0  0  0  0  0  0  0  0
   -5.0682    4.8546   -4.2974 C   0  0  0  0  0  0  0  0  0  0  0  0
   -4.9857    1.2180   -1.2472 C   0  0  0  0  0  0  0  0  0  0  0  0
   -1.3875    4.7378   -3.5298 C   0  0  0  0  0  0  0  0  0  0  0  0
   -0.6479    2.9253   -0.1632 C   0  0  0  0  0  0  0  0  0  0  0  0
    0.6505    0.7129   -0.0357 C   0  0  0  0  0  0  0  0  0  0  0  0
   -0.5644    1.4109   -0.0148 C   0  0  0  0  0  0  0  0  0  0  0  0
   -2.7296    4.6463   -3.4959 C   0  0  0  0  0  0  0  0  0  0  0  0
   -5.5380    2.3571   -3.3507 C   0  0  0  0  0  0  0  0  0  0  0  0
    0.6429   -0.7058   -0.0307 C   0  0  0  0  0  0  0  0  0  0  0  0
   -0.5571    4.2195   -2.3458 C   0  0  0  0  0  0  0  0  0  0  0  0
    1.8283   -1.4220    0.0486 N   0  0  0  0  0  0  0  0  0  0  0  0
   -1.2375    3.3818   -1.4426 N   0  0  0  0  0  0  0  0  0  0  0  0
    0.6028    4.5612   -2.2228 O   0  0  0  0  0  0  0  0  0  0  0  0
   -3.6193    5.0331   -4.4867 O   0  0  0  0  0  0  0  0  0  0  0  0
   -5.9712    2.5727   -1.6726 S   0  0  0  0  0  0  0  0  0  0  0  0
    2.4901    1.1736    0.9359 H   0  0  0  0  0  0  0  0  0  0  0  0
    2.5645    1.1966   -0.8647 H   0  0  0  0  0  0  0  0  0  0  0  0
    1.8900    2.5279    0.0369 H   0  0  0  0  0  0  0  0  0  0  0  0
   -2.7082   -1.2746    0.1402 H   0  0  0  0  0  0  0  0  0  0  0  0
   -4.6803   -0.6974   -2.2000 H   0  0  0  0  0  0  0  0  0  0  0  0
   -2.6633    1.1598    0.4098 H   0  0  0  0  0  0  0  0  0  0  0  0
   -5.5105    0.4865   -4.4549 H   0  0  0  0  0  0  0  0  0  0  0  0
   -0.5765   -2.4992   -0.0217 H   0  0  0  0  0  0  0  0  0  0  0  0
   -4.3119    4.2150   -2.1741 H   0  0  0  0  0  0  0  0  0  0  0  0
   -6.7121    3.4869   -4.6740 H   0  0  0  0  0  0  0  0  0  0  0  0
   -5.1589    2.9994   -5.3590 H   0  0  0  0  0  0  0  0  0  0  0  0
   -3.0884    2.7956   -0.6992 H   0  0  0  0  0  0  0  0  0  0  0  0
   -5.4374    5.3626   -3.3954 H   0  0  0  0  0  0  0  0  0  0  0  0
   -5.5106    5.4452   -5.1169 H   0  0  0  0  0  0  0  0  0  0  0  0
   -4.6036    1.0577   -0.2479 H   0  0  0  0  0  0  0  0  0  0  0  0
   -0.8364    5.1822   -4.3450 H   0  0  0  0  0  0  0  0  0  0  0  0
   -1.2728    3.3036    0.6620 H   0  0  0  0  0  0  0  0  0  0  0  0
    0.2939    3.4437   -0.0262 H   0  0  0  0  0  0  0  0  0  0  0  0
    1.8185   -2.4303    0.0185 H   0  0  0  0  0  0  0  0  0  0  0  0
    2.7114   -0.9434   -0.0474 H   0  0  0  0  0  0  0  0  0  0  0  0
  1 25  1  0  0  0  0
  1 26  1  0  0  0  0
  1 27  1  0  0  0  0
  2 28  1  0  0  0  0
  3 29  1  0  0  0  0
  4  2  2  0  0  0  0
  4 30  1  0  0  0  0
  5  3  1  0  0  0  0
  5 31  1  0  0  0  0
  6  2  1  0  0  0  0
  6 32  1  0  0  0  0
  7 33  1  0  0  0  0
  8 34  1  0  0  0  0
  8 35  1  0  0  0  0
  9  7  2  0  0  0  0
  9 36  1  0  0  0  0
 10  8  1  0  0  0  0
 10 37  1  0  0  0  0
 10 38  1  0  0  0  0
 11  3  2  0  0  0  0
 11 39  1  0  0  0  0
 12 40  1  0  0  0  0
 13 41  1  0  0  0  0
 13 42  1  0  0  0  0
 14  1  1  0  0  0  0
 15  4  1  0  0  0  0
 15 13  1  0  0  0  0
 15 14  2  0  0  0  0
 16  7  1  0  0  0  0
 16 12  2  0  0  0  0
 17  5  2  0  0  0  0
 17  8  1  0  0  0  0
 18  6  2  0  0  0  0
 18 14  1  0  0  0  0
 19 12  1  0  0  0  0
 20 18  1  0  0  0  0
 20 43  1  0  0  0  0
 20 44  1  0  0  0  0
 21  9  1  0  0  0  0
 21 13  1  0  0  0  0
 21 19  1  0  0  0  0
 22 19  2  0  0  0  0
 23 10  1  0  0  0  0
 23 16  1  0  0  0  0
 24 11  1  0  0  0  0
 24 17  1  0  0  0  0
M  END
>  <DRUGBANK_ID>
DB12347

>  <COMMON_NAME>
CG-400549

>  <CAS_NUMBER>
934628-27-0

>  <UNII>
4X6T64D64X

$$$$
