
 OpenBabel10282417193D

 30 32  0  0  0  0  0  0  0  0999 V2000
    0.9718   -0.0622    0.0033 C   0  0  0  0  0  0  0  0  0  0  0  0
    0.5953   -1.3489    0.6749 C   0  0  0  0  0  0  0  0  0  0  0  0
    1.1622   -2.5569    0.2653 C   0  0  0  0  0  0  0  0  0  0  0  0
    0.8101   -3.6862    0.9631 C   0  0  0  0  0  0  0  0  0  0  0  0
   -0.0687   -3.6219    2.0292 C   0  0  0  0  0  0  0  0  0  0  0  0
   -0.6236   -2.4080    2.3570 C   0  0  0  0  0  0  0  0  0  0  0  0
   -0.3052   -1.2668    1.6995 N   0  0  0  0  0  0  0  0  0  0  0  0
   -0.2193   -4.9728    2.6371 C   0  0  3  0  0  0  0  0  0  0  0  0
    0.3321   -5.8395    1.5997 O   0  0  0  0  0  0  0  0  0  0  0  0
    1.2717   -5.0800    0.7976 C   0  0  0  0  0  0  0  0  0  0  0  0
    0.5249   -5.1669    3.9518 C   0  0  0  0  0  0  0  0  0  0  0  0
    0.2118   -4.3788    5.0735 C   0  0  0  0  0  0  0  0  0  0  0  0
    0.9193   -4.5204    6.2711 C   0  0  0  0  0  0  0  0  0  0  0  0
    1.9339   -5.4679    6.3690 C   0  0  0  0  0  0  0  0  0  0  0  0
    2.2394   -6.2824    5.2845 C   0  0  0  0  0  0  0  0  0  0  0  0
    1.5346   -6.1366    4.0878 C   0  0  0  0  0  0  0  0  0  0  0  0
    2.8107   -5.6373    7.8386 Cl  0  0  0  0  0  0  0  0  0  0  0  0
    2.0443   -2.6882   -0.7623 O   0  0  0  0  0  0  0  0  0  0  0  0
    0.5573    0.8034    0.5276 H   0  0  0  0  0  0  0  0  0  0  0  0
    0.6036   -0.0569   -1.0273 H   0  0  0  0  0  0  0  0  0  0  0  0
    2.0620    0.0445   -0.0051 H   0  0  0  0  0  0  0  0  0  0  0  0
   -1.3376   -2.2970    3.1660 H   0  0  0  0  0  0  0  0  0  0  0  0
   -1.2711   -5.2543    2.7582 H   0  0  0  0  0  0  0  0  0  0  0  0
    2.2799   -5.2187    1.2012 H   0  0  0  0  0  0  0  0  0  0  0  0
    1.2193   -5.4309   -0.2353 H   0  0  0  0  0  0  0  0  0  0  0  0
   -0.5806   -3.6360    5.0289 H   0  0  0  0  0  0  0  0  0  0  0  0
    0.6757   -3.8856    7.1189 H   0  0  0  0  0  0  0  0  0  0  0  0
    3.0246   -7.0298    5.3565 H   0  0  0  0  0  0  0  0  0  0  0  0
    1.7906   -6.7892    3.2549 H   0  0  0  0  0  0  0  0  0  0  0  0
    2.1552   -1.8340   -1.2090 H   0  0  0  0  0  0  0  0  0  0  0  0
  1  2  1  0  0  0  0
  1 19  1  0  0  0  0
  1 20  1  0  0  0  0
  1 21  1  0  0  0  0
  2  3  2  0  0  0  0
  2  7  1  0  0  0  0
  3  4  1  0  0  0  0
  3 18  1  0  0  0  0
  4  5  2  0  0  0  0
  4 10  1  0  0  0  0
  5  6  1  0  0  0  0
  5  8  1  0  0  0  0
  6  7  2  0  0  0  0
  6 22  1  0  0  0  0
  8  9  1  0  0  0  0
  8 11  1  0  0  0  0
  8 23  1  0  0  0  0
  9 10  1  0  0  0  0
 10 24  1  0  0  0  0
 10 25  1  0  0  0  0
 11 12  2  0  0  0  0
 11 16  1  0  0  0  0
 12 13  1  0  0  0  0
 12 26  1  0  0  0  0
 13 14  2  0  0  0  0
 13 27  1  0  0  0  0
 14 15  1  0  0  0  0
 14 17  1  0  0  0  0
 15 16  2  0  0  0  0
 15 28  1  0  0  0  0
 16 29  1  0  0  0  0
 18 30  1  0  0  0  0
M  END
>  <DRUGBANK_ID>
DB12766

>  <COMMON_NAME>
Cicletanine

>  <CAS_NUMBER>
89943-82-8

>  <UNII>
CHG7QC509W

>  <SYNONYMS>
Cicletanine

$$$$
