CR3
 OpenBabel10282417133D

 46 49  0  0  0  0  0  0  0  0999 V2000
    2.2105   -0.7238   -0.0229 C   0  0  0  0  0  0  0  0  0  0  0  0
    2.1298    0.6851   -0.0294 C   0  0  0  0  0  0  0  0  0  0  0  0
    0.9041    1.3776    0.0154 C   0  0  0  0  0  0  0  0  0  0  0  0
   -0.2609    0.6090    0.0954 C   0  0  0  0  0  0  0  0  0  0  0  0
   -0.2261   -0.7801    0.0992 C   0  0  0  0  0  0  0  0  0  0  0  0
    1.0057   -1.4399    0.0251 C   0  0  0  0  0  0  0  0  0  0  0  0
    3.4989   -1.4566   -0.0629 C   0  0  0  0  0  0  0  0  0  0  0  0
    3.5347   -2.7770   -0.0478 N   0  0  0  0  0  0  0  0  0  0  0  0
    4.6428   -0.8063   -0.1064 N   0  3  0  0  0  0  0  0  0  0  0  0
   -1.5978    0.9556    0.1257 N   0  0  0  0  0  0  0  0  0  0  0  0
   -1.5502   -1.2593    0.1409 C   0  0  0  0  0  0  0  0  0  0  0  0
   -2.3881   -0.1778    0.2552 C   0  0  0  0  0  0  0  0  0  0  0  0
   -3.8547   -0.1640    0.0891 C   0  0  0  0  0  0  0  0  0  0  0  0
   -4.6647   -0.7907    1.0367 C   0  0  0  0  0  0  0  0  0  0  0  0
   -6.0443   -0.8032    0.8800 C   0  0  0  0  0  0  0  0  0  0  0  0
   -6.6205   -0.1638   -0.2136 C   0  0  0  0  0  0  0  0  0  0  0  0
   -5.8114    0.4240   -1.2074 C   0  0  0  0  0  0  0  0  0  0  0  0
   -6.5776    0.9840   -2.2162 O   0  0  0  0  0  0  0  0  0  0  0  0
   -4.3867    0.3725   -1.1039 C   0  0  0  0  0  0  0  0  0  0  0  0
   -3.5403    0.7126   -2.0015 O   0  5  0  0  0  0  0  0  0  0  0  0
   -5.1871    0.8824   -4.2819 C   0  0  0  0  0  0  0  0  0  0  0  0
   -5.9773    1.7241   -3.2786 C   0  0  0  0  0  0  0  0  0  0  0  0
   -5.1336    2.9428   -2.8585 C   0  0  0  0  0  0  0  0  0  0  0  0
   -3.8895    2.9166   -3.7531 C   0  0  0  0  0  0  0  0  0  0  0  0
   -4.1576    1.8633   -4.8367 C   0  0  0  0  0  0  0  0  0  0  0  0
    3.0166    1.3100   -0.0766 H   0  0  0  0  0  0  0  0  0  0  0  0
    0.8689    2.4640   -0.0089 H   0  0  0  0  0  0  0  0  0  0  0  0
    0.9427   -2.5182    0.0192 H   0  0  0  0  0  0  0  0  0  0  0  0
    4.3953   -3.3021   -0.0745 H   0  0  0  0  0  0  0  0  0  0  0  0
    2.6863   -3.3286   -0.0204 H   0  0  0  0  0  0  0  0  0  0  0  0
    4.6632    0.2037   -0.1214 H   0  0  0  0  0  0  0  0  0  0  0  0
    5.5325   -1.2803   -0.1342 H   0  0  0  0  0  0  0  0  0  0  0  0
   -1.9893    1.8690   -0.0718 H   0  0  0  0  0  0  0  0  0  0  0  0
   -1.8949   -2.2752    0.0230 H   0  0  0  0  0  0  0  0  0  0  0  0
   -4.1964   -1.2883    1.8747 H   0  0  0  0  0  0  0  0  0  0  0  0
   -6.6647   -1.3096    1.6097 H   0  0  0  0  0  0  0  0  0  0  0  0
   -7.7031   -0.1420   -0.3147 H   0  0  0  0  0  0  0  0  0  0  0  0
   -4.7373   -0.0147   -3.8464 H   0  0  0  0  0  0  0  0  0  0  0  0
   -5.8253    0.4625   -5.0660 H   0  0  0  0  0  0  0  0  0  0  0  0
   -6.8199    2.1373   -3.8533 H   0  0  0  0  0  0  0  0  0  0  0  0
   -5.6907    3.8729   -3.0087 H   0  0  0  0  0  0  0  0  0  0  0  0
   -4.8839    2.9485   -1.7908 H   0  0  0  0  0  0  0  0  0  0  0  0
   -3.6631    3.8988   -4.1724 H   0  0  0  0  0  0  0  0  0  0  0  0
   -2.9889    2.6673   -3.1779 H   0  0  0  0  0  0  0  0  0  0  0  0
   -3.2391    1.3481   -5.1397 H   0  0  0  0  0  0  0  0  0  0  0  0
   -4.5772    2.3603   -5.7137 H   0  0  0  0  0  0  0  0  0  0  0  0
  1  2  2  0  0  0  0
  1  6  1  0  0  0  0
  1  7  1  0  0  0  0
  2  3  1  0  0  0  0
  2 26  1  0  0  0  0
  3  4  2  0  0  0  0
  3 27  1  0  0  0  0
  4  5  1  0  0  0  0
  4 10  1  0  0  0  0
  5  6  2  0  0  0  0
  5 11  1  0  0  0  0
  6 28  1  0  0  0  0
  7  8  1  0  0  0  0
  7  9  2  0  0  0  0
  8 29  1  0  0  0  0
  8 30  1  0  0  0  0
  9 31  1  0  0  0  0
  9 32  1  0  0  0  0
 10 12  1  0  0  0  0
 10 33  1  0  0  0  0
 11 12  2  0  0  0  0
 11 34  1  0  0  0  0
 12 13  1  0  0  0  0
 13 14  2  0  0  0  0
 13 19  1  0  0  0  0
 14 15  1  0  0  0  0
 14 35  1  0  0  0  0
 15 16  2  0  0  0  0
 15 36  1  0  0  0  0
 16 17  1  0  0  0  0
 16 37  1  0  0  0  0
 17 18  1  0  0  0  0
 17 19  2  0  0  0  0
 18 22  1  0  0  0  0
 19 20  1  0  0  0  0
 21 22  1  0  0  0  0
 21 25  1  0  0  0  0
 21 38  1  0  0  0  0
 21 39  1  0  0  0  0
 22 23  1  0  0  0  0
 22 40  1  0  0  0  0
 23 24  1  0  0  0  0
 23 41  1  0  0  0  0
 23 42  1  0  0  0  0
 24 25  1  0  0  0  0
 24 43  1  0  0  0  0
 24 44  1  0  0  0  0
 25 45  1  0  0  0  0
 25 46  1  0  0  0  0
M  CHG  2   9   1  20  -1
M  END
>  <DRUGBANK_ID>
DB03173

>  <SECONDARY_ACCESSION_NUMBERS>
EXPT01012

>  <COMMON_NAME>
CRA_10433

$$$$
