
 OpenBabel10282417123D

 18 17  0  0  1  0  0  0  0  0999 V2000
   -1.0411    1.9290   -1.7846 O   0  0  0  0  0  0  0  0  0  0  0  0
    0.3882    1.8108   -1.8893 C   0  0  2  0  0  0  0  0  0  0  0  0
    0.7585    0.3587   -2.2312 C   0  0  0  0  0  0  0  0  0  0  0  0
   -0.1710   -0.2387   -3.6837 S   0  0  0  0  0  0  0  0  0  0  0  0
    0.9981    2.2482   -0.5354 C   0  0  2  0  0  0  0  0  0  0  0  0
    0.6195    1.3056    0.4813 O   0  0  0  0  0  0  0  0  0  0  0  0
    0.5132    3.6564   -0.1482 C   0  0  0  0  0  0  0  0  0  0  0  0
    1.1739    4.1936    1.4613 S   0  0  0  0  0  0  0  0  0  0  0  0
   -1.3775    1.9923   -2.7010 H   0  0  0  0  0  0  0  0  0  0  0  0
    0.7289    2.4931   -2.6781 H   0  0  0  0  0  0  0  0  0  0  0  0
    1.8301    0.2726   -2.4337 H   0  0  0  0  0  0  0  0  0  0  0  0
    0.5120   -0.3175   -1.4065 H   0  0  0  0  0  0  0  0  0  0  0  0
   -1.3919   -0.0550   -3.1523 H   0  0  0  0  0  0  0  0  0  0  0  0
    2.0920    2.2320   -0.6077 H   0  0  0  0  0  0  0  0  0  0  0  0
   -0.3106    1.0649    0.3059 H   0  0  0  0  0  0  0  0  0  0  0  0
    0.8149    4.3866   -0.9057 H   0  0  0  0  0  0  0  0  0  0  0  0
   -0.5772    3.6851   -0.0576 H   0  0  0  0  0  0  0  0  0  0  0  0
    0.6810    3.1511    2.1515 H   0  0  0  0  0  0  0  0  0  0  0  0
  1  9  1  0  0  0  0
  2 10  1  6  0  0  0
  2  3  1  0  0  0  0
  2  1  1  0  0  0  0
  3  4  1  0  0  0  0
  3 11  1  0  0  0  0
  3 12  1  0  0  0  0
  4 13  1  0  0  0  0
  5  7  1  0  0  0  0
  5 14  1  6  0  0  0
  5  6  1  0  0  0  0
  5  2  1  0  0  0  0
  6 15  1  0  0  0  0
  7  8  1  0  0  0  0
  7 16  1  0  0  0  0
  7 17  1  0  0  0  0
  8 18  1  0  0  0  0
M  END
>  <DRUGBANK_ID>
DB02184

>  <SECONDARY_ACCESSION_NUMBERS>
EXPT01293

>  <COMMON_NAME>
D-1,4-dithiothreitol

>  <SYNONYMS>
(2S,3S)-1,4-dimercaptobutane-2,3-diol; D-DTT; D-threo-1,4-dimercapto-2,3-butanediol

$$$$
