B98
 OpenBabel10282417163D

 34 36  0  0  0  0  0  0  0  0999 V2000
   -3.6729   -0.1142    0.3277 C   0  0  0  0  0  0  0  0  0  0  0  0
   -2.7839   -1.1839    0.2840 C   0  0  0  0  0  0  0  0  0  0  0  0
   -1.8886    1.4358   -0.1651 C   0  0  0  0  0  0  0  0  0  0  0  0
   -0.9619    0.3595   -0.2385 C   0  0  0  0  0  0  0  0  0  0  0  0
    0.4556    0.3196   -0.4389 C   0  0  0  0  0  0  0  0  0  0  0  0
   -3.2425    1.1895    0.1064 C   0  0  0  0  0  0  0  0  0  0  0  0
   -1.4383   -0.9330   -0.0056 C   0  0  0  0  0  0  0  0  0  0  0  0
    0.9855   -0.9459   -0.3864 C   0  0  0  0  0  0  0  0  0  0  0  0
    2.3668   -1.3506   -0.4766 C   0  0  0  0  0  0  0  0  0  0  0  0
    2.2324    1.6262    0.5046 C   0  0  0  0  0  0  0  0  0  0  0  0
    3.4673    0.7020    0.3526 C   0  0  1  0  0  0  0  0  0  0  0  0
   -5.4389    2.0289    0.3862 C   0  0  0  0  0  0  0  0  0  0  0  0
    4.5500    1.1095    1.3695 C   0  0  0  0  0  0  0  0  0  0  0  0
    1.2414    1.4105   -0.5395 N   0  0  0  0  0  0  0  0  0  0  0  0
    3.2041   -0.7337    0.4325 N   0  0  0  0  0  0  0  0  0  0  0  0
    4.8518    2.5364    1.2886 N   0  0  0  0  0  0  0  0  0  0  0  0
    2.8000   -2.2136   -1.2247 O   0  0  0  0  0  0  0  0  0  0  0  0
   -4.0590    2.2911    0.1360 O   0  0  0  0  0  0  0  0  0  0  0  0
   -0.2011   -2.1209   -0.1080 S   0  0  0  0  0  0  0  0  0  0  0  0
    3.8644    0.8376   -0.6614 H   0  0  0  0  0  0  0  0  0  0  0  0
   -4.7087   -0.3508    0.5414 H   0  0  0  0  0  0  0  0  0  0  0  0
   -3.1271   -2.1958    0.4714 H   0  0  0  0  0  0  0  0  0  0  0  0
   -1.5420    2.4568   -0.3133 H   0  0  0  0  0  0  0  0  0  0  0  0
    1.7660    1.4728    1.4867 H   0  0  0  0  0  0  0  0  0  0  0  0
    2.5236    2.6792    0.4528 H   0  0  0  0  0  0  0  0  0  0  0  0
   -5.8658    1.3874   -0.3938 H   0  0  0  0  0  0  0  0  0  0  0  0
   -5.5789    1.5842    1.3784 H   0  0  0  0  0  0  0  0  0  0  0  0
   -5.9816    2.9774    0.3684 H   0  0  0  0  0  0  0  0  0  0  0  0
    4.2173    0.8687    2.3870 H   0  0  0  0  0  0  0  0  0  0  0  0
    5.4630    0.5313    1.1871 H   0  0  0  0  0  0  0  0  0  0  0  0
    1.2074    2.0640   -1.3184 H   0  0  0  0  0  0  0  0  0  0  0  0
    3.3315   -1.2384    1.3021 H   0  0  0  0  0  0  0  0  0  0  0  0
    5.6110    2.7782    1.9210 H   0  0  0  0  0  0  0  0  0  0  0  0
    5.1602    2.7720    0.3448 H   0  0  0  0  0  0  0  0  0  0  0  0
  1  2  2  0  0  0  0
  1  6  1  0  0  0  0
  1 21  1  0  0  0  0
  2  7  1  0  0  0  0
  2 22  1  0  0  0  0
  3  4  1  0  0  0  0
  3  6  2  0  0  0  0
  3 23  1  0  0  0  0
  4  5  1  0  0  0  0
  4  7  2  0  0  0  0
  5  8  2  0  0  0  0
  5 14  1  0  0  0  0
  6 18  1  0  0  0  0
  7 19  1  0  0  0  0
  8  9  1  0  0  0  0
  8 19  1  0  0  0  0
  9 15  1  0  0  0  0
  9 17  2  0  0  0  0
 10 11  1  0  0  0  0
 10 14  1  0  0  0  0
 10 24  1  0  0  0  0
 10 25  1  0  0  0  0
 11 15  1  0  0  0  0
 11 20  1  6  0  0  0
 11 13  1  0  0  0  0
 12 18  1  0  0  0  0
 12 26  1  0  0  0  0
 12 27  1  0  0  0  0
 12 28  1  0  0  0  0
 13 16  1  0  0  0  0
 13 29  1  0  0  0  0
 13 30  1  0  0  0  0
 14 31  1  0  0  0  0
 15 32  1  0  0  0  0
 16 33  1  0  0  0  0
 16 34  1  0  0  0  0
M  END
>  <DRUGBANK_ID>
DB07431

>  <COMMON_NAME>
(3R)-3-(aminomethyl)-9-methoxy-1,2,3,4-tetrahydro-5H-[1]benzothieno[3,2-e][1,4]diazepin-5-one

$$$$
