
 OpenBabel10282417143D

 45 48  0  0  1  0  0  0  0  0999 V2000
   -1.0773   -1.4138    1.5248 O   0  0  0  0  0  0  0  0  0  0  0  0
    2.2064   -0.0705    2.1920 O   0  0  0  0  0  0  0  0  0  0  0  0
    4.6507   -3.6114   10.5565 O   0  0  0  0  0  0  0  0  0  0  0  0
    0.3497   -2.9871    3.1377 C   0  0  1  0  0  0  0  0  0  0  0  0
    1.2527   -2.0407    3.8688 C   0  0  2  0  0  0  0  0  0  0  0  0
    1.8791   -2.2617    5.1701 C   0  0  1  0  0  0  0  0  0  0  0  0
    2.6552   -3.5689    5.2258 C   0  0  2  0  0  0  0  0  0  0  0  0
    0.2631   -1.8053    1.8436 C   0  0  2  0  0  0  0  0  0  0  0  0
    1.1685   -4.3717    3.2138 C   0  0  0  0  0  0  0  0  0  0  0  0
    0.5193   -0.7047    3.8477 C   0  0  0  0  0  0  0  0  0  0  0  0
    0.8230   -0.3857    2.4256 C   0  0  1  0  0  0  0  0  0  0  0  0
    1.7402   -4.6951    4.6883 C   0  0  0  0  0  0  0  0  0  0  0  0
    2.8970   -1.1170    5.3356 C   0  0  0  0  0  0  0  0  0  0  0  0
   -0.9337   -3.2969    3.9604 C   0  0  0  0  0  0  0  0  0  0  0  0
    3.2156   -3.6025    6.6497 C   0  0  0  0  0  0  0  0  0  0  0  0
    3.1432   -1.0100    6.7961 C   0  0  0  0  0  0  0  0  0  0  0  0
    3.4402   -2.3684    7.3601 C   0  0  0  0  0  0  0  0  0  0  0  0
    3.5506   -4.7881    7.2754 C   0  0  0  0  0  0  0  0  0  0  0  0
    3.8958   -2.3820    8.6746 C   0  0  0  0  0  0  0  0  0  0  0  0
    4.0368   -4.7857    8.5888 C   0  0  0  0  0  0  0  0  0  0  0  0
    4.1910   -3.5701    9.2750 C   0  0  0  0  0  0  0  0  0  0  0  0
    2.1326   -2.1092    3.2083 H   0  0  0  0  0  0  0  0  0  0  0  0
    1.0900   -2.2432    5.9326 H   0  0  0  0  0  0  0  0  0  0  0  0
    3.5240   -3.5454    4.5484 H   0  0  0  0  0  0  0  0  0  0  0  0
   -1.5370   -2.1157    1.0542 H   0  0  0  0  0  0  0  0  0  0  0  0
    2.8280   -0.6195    2.6970 H   0  0  0  0  0  0  0  0  0  0  0  0
    4.7065   -2.6900   10.8744 H   0  0  0  0  0  0  0  0  0  0  0  0
    0.8470   -2.0457    0.9475 H   0  0  0  0  0  0  0  0  0  0  0  0
    0.5120   -5.2228    2.9686 H   0  0  0  0  0  0  0  0  0  0  0  0
    1.9979   -4.4190    2.5005 H   0  0  0  0  0  0  0  0  0  0  0  0
    0.7750    0.0203    4.6138 H   0  0  0  0  0  0  0  0  0  0  0  0
   -0.5669   -0.8137    3.9660 H   0  0  0  0  0  0  0  0  0  0  0  0
    0.2758    0.5175    2.1388 H   0  0  0  0  0  0  0  0  0  0  0  0
    0.9179   -4.8580    5.3986 H   0  0  0  0  0  0  0  0  0  0  0  0
    2.2898   -5.6467    4.6725 H   0  0  0  0  0  0  0  0  0  0  0  0
    3.8112   -1.3180    4.7597 H   0  0  0  0  0  0  0  0  0  0  0  0
    2.5773   -0.1353    4.9838 H   0  0  0  0  0  0  0  0  0  0  0  0
   -0.6707   -3.3957    5.0233 H   0  0  0  0  0  0  0  0  0  0  0  0
   -1.7291   -2.5555    3.9082 H   0  0  0  0  0  0  0  0  0  0  0  0
   -1.3700   -4.2690    3.6928 H   0  0  0  0  0  0  0  0  0  0  0  0
    3.9627   -0.3038    6.9560 H   0  0  0  0  0  0  0  0  0  0  0  0
    2.2384   -0.6049    7.2716 H   0  0  0  0  0  0  0  0  0  0  0  0
    3.4402   -5.7451    6.7626 H   0  0  0  0  0  0  0  0  0  0  0  0
    4.0009   -1.4254    9.1972 H   0  0  0  0  0  0  0  0  0  0  0  0
    4.2880   -5.7089    9.0799 H   0  0  0  0  0  0  0  0  0  0  0  0
  1 25  1  0  0  0  0
  2 26  1  0  0  0  0
  3 21  1  0  0  0  0
  3 27  1  0  0  0  0
  4  5  1  0  0  0  0
  4  8  1  0  0  0  0
  4  9  1  0  0  0  0
  4 14  1  1  0  0  0
  5  6  1  0  0  0  0
  5 10  1  0  0  0  0
  5 22  1  6  0  0  0
  6  7  1  0  0  0  0
  6 13  1  0  0  0  0
  6 23  1  1  0  0  0
  7 12  1  0  0  0  0
  7 15  1  0  0  0  0
  7 24  1  6  0  0  0
  8 11  1  0  0  0  0
  8 28  1  6  0  0  0
  8  1  1  0  0  0  0
  9 12  1  0  0  0  0
  9 29  1  0  0  0  0
  9 30  1  0  0  0  0
 10 11  1  0  0  0  0
 10 31  1  0  0  0  0
 10 32  1  0  0  0  0
 11 33  1  6  0  0  0
 11  2  1  0  0  0  0
 12 34  1  0  0  0  0
 12 35  1  0  0  0  0
 13 16  1  0  0  0  0
 13 36  1  0  0  0  0
 13 37  1  0  0  0  0
 14 38  1  0  0  0  0
 14 39  1  0  0  0  0
 14 40  1  0  0  0  0
 15 17  2  0  0  0  0
 15 18  1  0  0  0  0
 16 17  1  0  0  0  0
 16 41  1  0  0  0  0
 16 42  1  0  0  0  0
 17 19  1  0  0  0  0
 18 20  2  0  0  0  0
 18 43  1  0  0  0  0
 19 21  2  0  0  0  0
 19 44  1  0  0  0  0
 20 21  1  0  0  0  0
 20 45  1  0  0  0  0
M  END
>  <DRUGBANK_ID>
DB04573

>  <SECONDARY_ACCESSION_NUMBERS>
EXPT01361; DB05375

>  <COMMON_NAME>
Estriol

>  <CAS_NUMBER>
50-27-1

>  <UNII>
FB33469R8E

>  <SYNONYMS>
(16α,17β)-estra-1,3,5(10)-triene-3,16,17-triol; 1,3,5(10)-Estratriene-3,16-alpha,17beta-triol; 16-alpha-Hydroxyestradiol; 16alpha-hydroxyestradiol; 16α-hydroxyestradiol; 16α,17β-estriol; 3,16alpha,17beta-Trihydroxy-delta(1,3,5)-estratriene; Estriol; Oestriol; Östriol; Trihydroxyestrin

$$$$
