
 OpenBabel10282417123D

 33 35  0  0  1  0  0  0  0  0999 V2000
    0.8777   -0.1879   -0.1819 N   0  0  0  0  0  0  0  0  0  0  0  0
    0.3703   -1.2407    0.7316 C   0  0  1  0  0  0  0  0  0  0  0  0
    0.9192   -1.1685    2.1722 C   0  0  0  0  0  0  0  0  0  0  0  0
    0.5758    0.0957    2.9229 C   0  0  0  0  0  0  0  0  0  0  0  0
    1.0188    1.3275    2.4673 C   0  0  0  0  0  0  0  0  0  0  0  0
    0.6092    2.4765    3.1103 C   0  0  0  0  0  0  0  0  0  0  0  0
   -0.1442    2.3726    4.2706 C   0  0  0  0  0  0  0  0  0  0  0  0
   -0.4498    3.5364    4.9714 C   0  0  0  0  0  0  0  0  0  0  0  0
   -1.1450    3.4493    6.1630 C   0  0  0  0  0  0  0  0  0  0  0  0
   -1.5802    2.2028    6.6244 C   0  0  0  0  0  0  0  0  0  0  0  0
   -1.2920    1.0113    5.9102 C   0  0  0  0  0  0  0  0  0  0  0  0
   -1.7320   -0.1846    6.3765 N   0  0  0  0  0  0  0  0  0  0  0  0
   -2.4727   -0.2254    7.5008 C   0  0  0  0  0  0  0  0  0  0  0  0
   -2.7959    0.8895    8.2430 C   0  0  0  0  0  0  0  0  0  0  0  0
   -2.3241    2.1188    7.8067 C   0  0  0  0  0  0  0  0  0  0  0  0
   -0.5412    1.0917    4.7281 C   0  0  0  0  0  0  0  0  0  0  0  0
   -0.1813   -0.0234    4.0336 N   0  0  0  0  0  0  0  0  0  0  0  0
   -1.1703   -1.1983    0.7333 C   0  0  0  0  0  0  0  0  0  0  0  0
   -1.7638   -2.2683    0.1569 O   0  0  0  0  0  0  0  0  0  0  0  0
   -1.8293   -0.2495    1.1470 O   0  0  0  0  0  0  0  0  0  0  0  0
    0.4053    0.6862    0.0801 H   0  0  0  0  0  0  0  0  0  0  0  0
    1.8714   -0.0359   -0.0121 H   0  0  0  0  0  0  0  0  0  0  0  0
    0.7044   -2.1887    0.2950 H   0  0  0  0  0  0  0  0  0  0  0  0
    0.5466   -2.0374    2.7329 H   0  0  0  0  0  0  0  0  0  0  0  0
    2.0131   -1.2617    2.1615 H   0  0  0  0  0  0  0  0  0  0  0  0
    1.6679    1.4231    1.6095 H   0  0  0  0  0  0  0  0  0  0  0  0
    0.9070    3.4389    2.7048 H   0  0  0  0  0  0  0  0  0  0  0  0
   -0.1256    4.5087    4.6069 H   0  0  0  0  0  0  0  0  0  0  0  0
   -1.3492    4.3605    6.7196 H   0  0  0  0  0  0  0  0  0  0  0  0
   -2.8085   -1.2161    7.7914 H   0  0  0  0  0  0  0  0  0  0  0  0
   -3.4038    0.8045    9.1351 H   0  0  0  0  0  0  0  0  0  0  0  0
   -2.5527    3.0109    8.3840 H   0  0  0  0  0  0  0  0  0  0  0  0
   -1.1509   -2.9082   -0.2481 H   0  0  0  0  0  0  0  0  0  0  0  0
  1 21  1  0  0  0  0
  1 22  1  0  0  0  0
  2  1  1  0  0  0  0
  2  3  1  0  0  0  0
  2 18  1  0  0  0  0
  2 23  1  6  0  0  0
  3  4  1  0  0  0  0
  3 24  1  0  0  0  0
  3 25  1  0  0  0  0
  4  5  2  0  0  0  0
  4 17  1  0  0  0  0
  5  6  1  0  0  0  0
  5 26  1  0  0  0  0
  6  7  2  0  0  0  0
  6 27  1  0  0  0  0
  7  8  1  0  0  0  0
  7 16  1  0  0  0  0
  8  9  2  0  0  0  0
  8 28  1  0  0  0  0
  9 10  1  0  0  0  0
  9 29  1  0  0  0  0
 10 11  2  0  0  0  0
 10 15  1  0  0  0  0
 11 12  1  0  0  0  0
 11 16  1  0  0  0  0
 12 13  2  0  0  0  0
 13 14  1  0  0  0  0
 13 30  1  0  0  0  0
 14 15  2  0  0  0  0
 14 31  1  0  0  0  0
 15 32  1  0  0  0  0
 16 17  2  0  0  0  0
 18 19  1  0  0  0  0
 18 20  2  0  0  0  0
 19 33  1  0  0  0  0
M  END
>  <DRUGBANK_ID>
DB01659

>  <SECONDARY_ACCESSION_NUMBERS>
EXPT02716

>  <COMMON_NAME>
3-(1,10-Phenanthrol-2-Yl)-L-Alanine

$$$$
