
 OpenBabel10282417233D

 38 40  0  0  0  0  0  0  0  0999 V2000
    1.0304    0.0640    0.0292 C   0  0  0  0  0  0  0  0  0  0  0  0
    0.4926   -1.2450    0.1692 O   0  0  0  0  0  0  0  0  0  0  0  0
    0.8432   -2.1082   -0.8280 C   0  0  0  0  0  0  0  0  0  0  0  0
    2.1360   -2.2882   -1.2989 C   0  0  0  0  0  0  0  0  0  0  0  0
    2.3924   -3.2557   -2.2826 C   0  0  0  0  0  0  0  0  0  0  0  0
    1.3818   -4.0882   -2.8059 C   0  0  0  0  0  0  0  0  0  0  0  0
    0.1037   -3.9176   -2.2525 C   0  0  0  0  0  0  0  0  0  0  0  0
   -0.1701   -2.9262   -1.3045 C   0  0  0  0  0  0  0  0  0  0  0  0
    1.6567   -5.0025   -3.8421 N   0  0  0  0  0  0  0  0  0  0  0  0
    0.5924   -5.7921   -4.4696 C   0  0  0  0  0  0  0  0  0  0  0  0
    2.8980   -5.1158   -4.5095 C   0  0  0  0  0  0  0  0  0  0  0  0
    3.0662   -4.7618   -5.8556 C   0  0  0  0  0  0  0  0  0  0  0  0
    2.2276   -4.2581   -6.8755 C   0  0  0  0  0  0  0  0  0  0  0  0
    3.0065   -4.1204   -7.9999 C   0  0  0  0  0  0  0  0  0  0  0  0
    2.6197   -3.6745   -9.3534 C   0  0  0  0  0  0  0  0  0  0  0  0
    4.2999   -4.4634   -7.7172 O   0  0  0  0  0  0  0  0  0  0  0  0
    4.3407   -4.8450   -6.3898 C   0  0  0  0  0  0  0  0  0  0  0  0
    5.4586   -5.2258   -5.7445 N   0  0  0  0  0  0  0  0  0  0  0  0
    5.2142   -5.5332   -4.4537 C   0  0  0  0  0  0  0  0  0  0  0  0
    6.3745   -5.9641   -3.5964 C   0  0  0  0  0  0  0  0  0  0  0  0
    4.0143   -5.4917   -3.8311 N   0  0  0  0  0  0  0  0  0  0  0  0
    0.6574    0.6595    0.8681 H   0  0  0  0  0  0  0  0  0  0  0  0
    0.6789    0.5284   -0.8981 H   0  0  0  0  0  0  0  0  0  0  0  0
    2.1224    0.0726    0.0814 H   0  0  0  0  0  0  0  0  0  0  0  0
    2.9693   -1.7164   -0.9050 H   0  0  0  0  0  0  0  0  0  0  0  0
    3.4212   -3.3545   -2.6214 H   0  0  0  0  0  0  0  0  0  0  0  0
   -0.7354   -4.5452   -2.5232 H   0  0  0  0  0  0  0  0  0  0  0  0
   -1.1858   -2.7996   -0.9411 H   0  0  0  0  0  0  0  0  0  0  0  0
    0.4182   -5.5175   -5.5126 H   0  0  0  0  0  0  0  0  0  0  0  0
    0.8411   -6.8578   -4.4379 H   0  0  0  0  0  0  0  0  0  0  0  0
   -0.3887   -5.6978   -4.0046 H   0  0  0  0  0  0  0  0  0  0  0  0
    1.1788   -4.0240   -6.8207 H   0  0  0  0  0  0  0  0  0  0  0  0
    1.8501   -4.3473   -9.7519 H   0  0  0  0  0  0  0  0  0  0  0  0
    2.1664   -2.6775   -9.2958 H   0  0  0  0  0  0  0  0  0  0  0  0
    3.4512   -3.6409  -10.0589 H   0  0  0  0  0  0  0  0  0  0  0  0
    6.8302   -6.8747   -3.9958 H   0  0  0  0  0  0  0  0  0  0  0  0
    7.1327   -5.1769   -3.5430 H   0  0  0  0  0  0  0  0  0  0  0  0
    6.0434   -6.1773   -2.5726 H   0  0  0  0  0  0  0  0  0  0  0  0
  1  2  1  0  0  0  0
  1 22  1  0  0  0  0
  1 23  1  0  0  0  0
  1 24  1  0  0  0  0
  2  3  1  0  0  0  0
  3  4  2  0  0  0  0
  3  8  1  0  0  0  0
  4  5  1  0  0  0  0
  4 25  1  0  0  0  0
  5  6  2  0  0  0  0
  5 26  1  0  0  0  0
  6  7  1  0  0  0  0
  6  9  1  0  0  0  0
  7  8  2  0  0  0  0
  7 27  1  0  0  0  0
  8 28  1  0  0  0  0
  9 10  1  0  0  0  0
  9 11  1  0  0  0  0
 10 29  1  0  0  0  0
 10 30  1  0  0  0  0
 10 31  1  0  0  0  0
 11 12  2  0  0  0  0
 11 21  1  0  0  0  0
 12 13  1  0  0  0  0
 12 17  1  0  0  0  0
 13 14  2  0  0  0  0
 13 32  1  0  0  0  0
 14 15  1  0  0  0  0
 14 16  1  0  0  0  0
 15 33  1  0  0  0  0
 15 34  1  0  0  0  0
 15 35  1  0  0  0  0
 16 17  1  0  0  0  0
 17 18  2  0  0  0  0
 18 19  1  0  0  0  0
 19 20  1  0  0  0  0
 19 21  2  0  0  0  0
 20 36  1  0  0  0  0
 20 37  1  0  0  0  0
 20 38  1  0  0  0  0
M  END
>  <DRUGBANK_ID>
DB17199

>  <COMMON_NAME>
AAG-1

>  <CAS_NUMBER>
1204408-18-3

>  <UNII>
LB2951OCS5

>  <SYNONYMS>
Flag-003 free base; Furo(2,3-d)pyrimidin-4-amine, n-(4-methoxyphenyl)-n,2,6-trimethyl-; N-(4-methoxyphenyl)-n,2,6-trimethylfuro(2,3-d) pyrimidin-4-amine

$$$$
