1058
 OpenBabel10282417113D

 47 50  0  0  1  0  0  0  0  0999 V2000
    0.3659   -0.0813   -0.0444 O   0  0  0  0  0  0  0  0  0  0  0  0
    0.4929   -2.9285   -2.3806 O   0  0  0  0  0  0  0  0  0  0  0  0
    2.5495   -3.9811   -0.7059 N   0  0  0  0  0  0  0  0  0  0  0  0
    1.5150   -2.0511   -0.4171 N   0  0  0  0  0  0  0  0  0  0  0  0
    1.6140   -4.9341   -0.2499 C   0  0  3  0  0  0  0  0  0  0  0  0
    2.7811    0.3582    0.7769 C   0  0  0  0  0  0  0  0  0  0  0  0
    0.5913   -3.7925   -0.3141 C   0  0  0  0  0  0  0  0  0  0  0  0
    3.0074    1.9117    0.3206 C   0  0  0  0  0  0  0  0  0  0  0  0
    4.2389   -0.0965    1.0353 C   0  0  0  0  0  0  0  0  0  0  0  0
    1.4253   -0.6956    0.1475 C   0  0  0  0  0  0  0  0  0  0  0  0
    3.8467    2.0501   -0.9576 C   0  0  0  0  0  0  0  0  0  0  0  0
    5.0088   -0.0648   -0.2782 C   0  0  0  0  0  0  0  0  0  0  0  0
    1.3658   -5.5662    1.0987 C   0  0  0  0  0  0  0  0  0  0  0  0
    3.2591   -3.4934    0.5930 C   0  0  0  0  0  0  0  0  0  0  0  0
    2.2901   -1.7361   -1.7708 C   0  0  0  0  0  0  0  0  0  0  0  0
    5.2012    1.3569   -0.8039 C   0  0  0  0  0  0  0  0  0  0  0  0
    2.4762   -3.5811    2.0206 C   0  0  0  0  0  0  0  0  0  0  0  0
    1.7091   -2.9782   -1.9052 C   0  0  0  0  0  0  0  0  0  0  0  0
    1.7316   -4.8701    2.2366 C   0  0  0  0  0  0  0  0  0  0  0  0
    0.5991   -6.7544    1.2326 C   0  0  0  0  0  0  0  0  0  0  0  0
    1.3405   -5.3430    3.5016 C   0  0  0  0  0  0  0  0  0  0  0  0
    0.2353   -7.2411    2.4954 C   0  0  0  0  0  0  0  0  0  0  0  0
    0.6120   -6.5321    3.6317 C   0  0  0  0  0  0  0  0  0  0  0  0
    2.0425   -5.7555   -0.8673 H   0  0  0  0  0  0  0  0  0  0  0  0
    2.3885    0.5258    1.7953 H   0  0  0  0  0  0  0  0  0  0  0  0
    0.4515   -4.3985   -1.3381 H   0  0  0  0  0  0  0  0  0  0  0  0
   -0.4842   -3.8415   -0.2149 H   0  0  0  0  0  0  0  0  0  0  0  0
    2.0814    2.4856    0.2407 H   0  0  0  0  0  0  0  0  0  0  0  0
    3.5957    2.4640    1.0940 H   0  0  0  0  0  0  0  0  0  0  0  0
    4.7687    0.5796    1.7423 H   0  0  0  0  0  0  0  0  0  0  0  0
    4.2776   -1.0573    1.5362 H   0  0  0  0  0  0  0  0  0  0  0  0
    3.2762    1.5912   -1.7666 H   0  0  0  0  0  0  0  0  0  0  0  0
    4.0165    3.1022   -1.2406 H   0  0  0  0  0  0  0  0  0  0  0  0
    4.4242   -0.6141   -1.0138 H   0  0  0  0  0  0  0  0  0  0  0  0
    5.9771   -0.5602   -0.1753 H   0  0  0  0  0  0  0  0  0  0  0  0
    4.0896   -4.1889    0.6915 H   0  0  0  0  0  0  0  0  0  0  0  0
    3.6325   -2.4918    0.4819 H   0  0  0  0  0  0  0  0  0  0  0  0
    1.7195   -1.0306   -2.4304 H   0  0  0  0  0  0  0  0  0  0  0  0
    3.0734   -2.2221   -2.3964 H   0  0  0  0  0  0  0  0  0  0  0  0
    5.7124    1.3224   -1.7734 H   0  0  0  0  0  0  0  0  0  0  0  0
    5.8515    1.9299   -0.1260 H   0  0  0  0  0  0  0  0  0  0  0  0
    3.2151   -3.5084    2.8287 H   0  0  0  0  0  0  0  0  0  0  0  0
    1.7616   -2.7587    2.1766 H   0  0  0  0  0  0  0  0  0  0  0  0
    0.2635   -7.3132    0.3575 H   0  0  0  0  0  0  0  0  0  0  0  0
    1.6089   -4.7911    4.3989 H   0  0  0  0  0  0  0  0  0  0  0  0
   -0.3371   -8.1639    2.5965 H   0  0  0  0  0  0  0  0  0  0  0  0
    0.3458   -6.9044    4.6198 H   0  0  0  0  0  0  0  0  0  0  0  0
  1 10  2  0  0  0  0
  2 18  2  0  0  0  0
  3  5  1  0  0  0  0
  3 14  1  0  0  0  0
  3 18  1  0  0  0  0
  4  7  1  0  0  0  0
  4 10  1  0  0  0  0
  4 15  1  0  0  0  0
  5  7  1  0  0  0  0
  5 13  1  0  0  0  0
  5 24  1  0  0  0  0
  6  8  1  0  0  0  0
  6  9  1  0  0  0  0
  6 10  1  0  0  0  0
  6 25  1  0  0  0  0
  7 26  1  0  0  0  0
  7 27  1  0  0  0  0
  8 11  1  0  0  0  0
  8 28  1  0  0  0  0
  8 29  1  0  0  0  0
  9 12  1  0  0  0  0
  9 30  1  0  0  0  0
  9 31  1  0  0  0  0
 11 16  1  0  0  0  0
 11 32  1  0  0  0  0
 11 33  1  0  0  0  0
 12 16  1  0  0  0  0
 12 34  1  0  0  0  0
 12 35  1  0  0  0  0
 13 19  1  0  0  0  0
 13 20  2  0  0  0  0
 14 17  1  0  0  0  0
 14 36  1  0  0  0  0
 14 37  1  0  0  0  0
 15 18  1  0  0  0  0
 15 38  1  0  0  0  0
 15 39  1  0  0  0  0
 16 40  1  0  0  0  0
 16 41  1  0  0  0  0
 17 19  1  0  0  0  0
 17 42  1  0  0  0  0
 17 43  1  0  0  0  0
 19 21  2  0  0  0  0
 20 22  1  0  0  0  0
 20 44  1  0  0  0  0
 21 23  1  0  0  0  0
 21 45  1  0  0  0  0
 22 23  2  0  0  0  0
 22 46  1  0  0  0  0
 23 47  1  0  0  0  0
M  END
>  <DRUGBANK_ID>
DB01058

>  <SECONDARY_ACCESSION_NUMBERS>
APRD01196; EXPT02728

>  <COMMON_NAME>
Praziquantel

>  <CAS_NUMBER>
55268-74-1

>  <UNII>
6490C9U457

>  <SYNONYMS>
Praziquantel

$$$$
