
 OpenBabel10282417213D

 30 31  0  0  0  0  0  0  0  0999 V2000
    0.9306   -0.0512    0.0506 P   0  0  0  0  0  0  0  0  0  0  0  0
    3.1630    0.8956    1.0502 O   0  0  0  0  0  0  0  0  0  0  0  0
    1.0031    0.8613   -1.2821 O   0  0  0  0  0  0  0  0  0  0  0  0
    1.0147   -1.5571   -0.6141 O   0  0  0  0  0  0  0  0  0  0  0  0
   -0.6178   -0.0512    0.0506 O   0  0  0  0  0  0  0  0  0  0  0  0
    3.3119    1.9241   -2.0884 N   0  0  0  0  0  0  0  0  0  0  0  0
    3.2033    0.0317   -3.3071 N   0  0  0  0  0  0  0  0  0  0  0  0
    1.8217    3.3307   -3.4444 N   0  0  0  0  0  0  0  0  0  0  0  0
    0.9670    2.0693   -5.3743 N   0  0  0  0  0  0  0  0  0  0  0  0
    1.3495   -0.2639   -5.6464 N   0  0  0  0  0  0  0  0  0  0  0  0
    3.4610    2.6638   -0.8117 C   0  0  0  0  0  0  0  0  0  0  0  0
    2.8332    2.2167    0.5944 C   0  0  0  0  0  0  0  0  0  0  0  0
    2.7606   -0.0512    0.0506 C   0  0  0  0  0  0  0  0  0  0  0  0
    2.4555    2.1737   -3.1286 C   0  0  0  0  0  0  0  0  0  0  0  0
    2.3471    0.9780   -3.8243 C   0  0  0  0  0  0  0  0  0  0  0  0
    3.9324    0.7230   -2.4788 C   0  0  0  0  0  0  0  0  0  0  0  0
    1.5207    0.9113   -4.9363 C   0  0  0  0  0  0  0  0  0  0  0  0
    1.1683    3.1777   -4.6164 C   0  0  0  0  0  0  0  0  0  0  0  0
    0.2459    1.4724   -1.3464 H   0  0  0  0  0  0  0  0  0  0  0  0
    1.6786   -2.1700   -0.2449 H   0  0  0  0  0  0  0  0  0  0  0  0
    1.7620   -1.1028   -5.2408 H   0  0  0  0  0  0  0  0  0  0  0  0
    0.9407   -0.2583   -6.5540 H   0  0  0  0  0  0  0  0  0  0  0  0
    3.0553    3.6640   -0.9907 H   0  0  0  0  0  0  0  0  0  0  0  0
    4.5392    2.7312   -0.6536 H   0  0  0  0  0  0  0  0  0  0  0  0
    1.7432    2.3447    0.6509 H   0  0  0  0  0  0  0  0  0  0  0  0
    3.2115    2.8765    1.3915 H   0  0  0  0  0  0  0  0  0  0  0  0
    3.2332   -1.0090    0.2864 H   0  0  0  0  0  0  0  0  0  0  0  0
    3.2078    0.2845   -0.7847 H   0  0  0  0  0  0  0  0  0  0  0  0
    4.7244    0.2472   -1.8891 H   0  0  0  0  0  0  0  0  0  0  0  0
    0.7590    4.0982   -5.0350 H   0  0  0  0  0  0  0  0  0  0  0  0
  1  3  1  0  0  0  0
  1  4  1  0  0  0  0
  1  5  2  0  0  0  0
  1 13  1  0  0  0  0
  2 12  1  0  0  0  0
  2 13  1  0  0  0  0
  3 19  1  0  0  0  0
  4 20  1  0  0  0  0
  6 11  1  0  0  0  0
  6 14  1  0  0  0  0
  6 16  1  0  0  0  0
  7 15  1  0  0  0  0
  7 16  2  0  0  0  0
  8 14  2  0  0  0  0
  8 18  1  0  0  0  0
  9 17  1  0  0  0  0
  9 18  2  0  0  0  0
 10 17  1  0  0  0  0
 10 21  1  0  0  0  0
 10 22  1  0  0  0  0
 11 12  1  0  0  0  0
 11 23  1  0  0  0  0
 11 24  1  0  0  0  0
 12 25  1  0  0  0  0
 12 26  1  0  0  0  0
 13 27  1  0  0  0  0
 13 28  1  0  0  0  0
 14 15  1  0  0  0  0
 15 17  2  0  0  0  0
 16 29  1  0  0  0  0
 18 30  1  0  0  0  0
M  END
>  <DRUGBANK_ID>
DB13868

>  <COMMON_NAME>
Adefovir

>  <CAS_NUMBER>
106941-25-7

>  <UNII>
6GQP90I798

>  <SYNONYMS>
9-(2-(phosphonomethoxy)ethyl)adenine; 9-(2-phosphonylmethoxyethyl)adenine; Ad√©fovir; Adefovir; Adefovirum

$$$$
