TPR
 OpenBabel10282417123D

 33 34  0  0  0  0  0  0  0  0999 V2000
    0.2743    1.2098    0.0179 C   0  0  0  0  0  0  0  0  0  0  0  0
    0.9661   -0.0032    0.0027 C   0  0  0  0  0  0  0  0  0  0  0  0
    0.2342   -1.1984    0.0037 C   0  0  0  0  0  0  0  0  0  0  0  0
   -1.1701   -1.1759   -0.0036 C   0  0  0  0  0  0  0  0  0  0  0  0
   -1.8515    0.0502   -0.0024 C   0  0  0  0  0  0  0  0  0  0  0  0
   -1.1209    1.2345    0.0337 C   0  0  0  0  0  0  0  0  0  0  0  0
    2.4676   -0.0136   -0.0139 C   0  0  0  0  0  0  0  0  0  0  0  0
   -3.6407    0.0535   -0.0716 S   0  0  0  0  0  0  0  0  0  0  0  0
   -3.9966   -0.4741   -1.3712 O   0  0  0  0  0  0  0  0  0  0  0  0
   -4.0853   -0.5919    1.1450 O   0  0  0  0  0  0  0  0  0  0  0  0
   -4.1381    1.6488   -0.0249 N   0  0  0  0  0  0  0  0  0  0  0  0
   -3.9009    2.6626   -1.0497 C   0  0  0  0  0  0  0  0  0  0  0  0
   -3.8345    3.9348   -0.2049 C   0  0  0  0  0  0  0  0  0  0  0  0
   -4.9435    3.7283    0.8226 C   0  0  0  0  0  0  0  0  0  0  0  0
   -4.9900    2.2018    1.0524 C   0  0  2  0  0  0  0  0  0  0  0  0
   -4.5757    1.8443    2.4602 C   0  0  0  0  0  0  0  0  0  0  0  0
   -5.2923    1.3382    3.3149 O   0  0  0  0  0  0  0  0  0  0  0  0
   -3.2961    2.1665    2.7459 O   0  0  0  0  0  0  0  0  0  0  0  0
   -6.0242    1.8645    0.9084 H   0  0  0  0  0  0  0  0  0  0  0  0
    0.8153    2.1533    0.0187 H   0  0  0  0  0  0  0  0  0  0  0  0
    0.7570   -2.1539    0.0031 H   0  0  0  0  0  0  0  0  0  0  0  0
   -1.7180   -2.1168   -0.0112 H   0  0  0  0  0  0  0  0  0  0  0  0
   -1.6058    2.1964    0.0760 H   0  0  0  0  0  0  0  0  0  0  0  0
    2.8579   -0.5344    0.8658 H   0  0  0  0  0  0  0  0  0  0  0  0
    2.8356   -0.5030   -0.9210 H   0  0  0  0  0  0  0  0  0  0  0  0
    2.8721    1.0053   -0.0011 H   0  0  0  0  0  0  0  0  0  0  0  0
   -4.7430    2.7136   -1.7483 H   0  0  0  0  0  0  0  0  0  0  0  0
   -2.9844    2.5089   -1.6211 H   0  0  0  0  0  0  0  0  0  0  0  0
   -2.8708    4.0069    0.3145 H   0  0  0  0  0  0  0  0  0  0  0  0
   -3.9633    4.8479   -0.7923 H   0  0  0  0  0  0  0  0  0  0  0  0
   -4.7657    4.3077    1.7357 H   0  0  0  0  0  0  0  0  0  0  0  0
   -5.8938    4.0760    0.3991 H   0  0  0  0  0  0  0  0  0  0  0  0
   -3.1704    1.8247    3.6568 H   0  0  0  0  0  0  0  0  0  0  0  0
  1  2  2  0  0  0  0
  1  6  1  0  0  0  0
  1 20  1  0  0  0  0
  2  3  1  0  0  0  0
  2  7  1  0  0  0  0
  3  4  2  0  0  0  0
  3 21  1  0  0  0  0
  4  5  1  0  0  0  0
  4 22  1  0  0  0  0
  5  6  2  0  0  0  0
  5  8  1  0  0  0  0
  6 23  1  0  0  0  0
  7 24  1  0  0  0  0
  7 25  1  0  0  0  0
  7 26  1  0  0  0  0
  8  9  2  0  0  0  0
  8 10  2  0  0  0  0
  8 11  1  0  0  0  0
 11 12  1  0  0  0  0
 11 15  1  0  0  0  0
 12 13  1  0  0  0  0
 12 27  1  0  0  0  0
 12 28  1  0  0  0  0
 13 14  1  0  0  0  0
 13 29  1  0  0  0  0
 13 30  1  0  0  0  0
 14 15  1  0  0  0  0
 14 31  1  0  0  0  0
 14 32  1  0  0  0  0
 15 16  1  0  0  0  0
 15 19  1  6  0  0  0
 16 17  2  0  0  0  0
 16 18  1  0  0  0  0
 18 33  1  0  0  0  0
M  END
>  <DRUGBANK_ID>
DB02752

>  <SECONDARY_ACCESSION_NUMBERS>
EXPT03095

>  <COMMON_NAME>
Tosyl-D-Proline

$$$$
