PM2
 OpenBabel10282417143D

 59 62  0  0  0  0  0  0  0  0999 V2000
    1.2964   -0.1717    0.0298 C   0  0  0  0  0  0  0  0  0  0  0  0
    0.3237   -1.1790    0.0020 C   0  0  0  0  0  0  0  0  0  0  0  0
    0.8386    1.1386   -0.0095 C   0  0  0  0  0  0  0  0  0  0  0  0
   -1.0410   -0.9712   -0.0147 C   0  0  0  0  0  0  0  0  0  0  0  0
   -0.5425    1.3867    0.0033 C   0  0  0  0  0  0  0  0  0  0  0  0
   -1.4762    0.3398   -0.0242 C   0  0  0  0  0  0  0  0  0  0  0  0
   -1.9303   -2.1812    0.0550 C   0  0  0  0  0  0  0  0  0  0  0  0
   -2.7212   -2.1554    1.2749 N   0  0  0  0  0  0  0  0  0  0  0  0
    3.2659   -1.3584   -1.0344 C   0  0  0  0  0  0  0  0  0  0  0  0
    2.7052   -2.7751   -1.0409 C   0  0  0  0  0  0  0  0  0  0  0  0
    3.4882   -4.6501    0.2696 C   0  0  0  0  0  0  0  0  0  0  0  0
    3.8983   -5.2203   -0.7249 O   0  0  0  0  0  0  0  0  0  0  0  0
    2.7713   -0.5247    0.1610 C   0  0  0  0  0  0  0  0  0  0  0  0
    2.8589   -3.4172    0.2728 N   0  0  0  0  0  0  0  0  0  0  0  0
    2.4924   -2.6753    1.4989 C   0  0  0  0  0  0  0  0  0  0  0  0
    3.0557   -1.2640    1.4828 C   0  0  0  0  0  0  0  0  0  0  0  0
    3.7439   -5.2909    1.5471 C   0  0  0  0  0  0  0  0  0  0  0  0
    2.7253   -5.6456    2.4419 C   0  0  0  0  0  0  0  0  0  0  0  0
    5.0680   -5.5901    1.8047 C   0  0  0  0  0  0  0  0  0  0  0  0
    3.0627   -6.3562    3.5807 C   0  0  0  0  0  0  0  0  0  0  0  0
    5.4387   -6.2560    2.8895 N   0  0  0  0  0  0  0  0  0  0  0  0
    1.9892   -6.7702    4.5767 C   0  0  0  0  0  0  0  0  0  0  0  0
    4.4307   -6.6491    3.6968 C   0  0  0  0  0  0  0  0  0  0  0  0
    1.9093   -8.2866    4.8466 C   0  0  0  0  0  0  0  0  0  0  0  0
    3.1138   -8.8598    5.5653 C   0  0  0  0  0  0  0  0  0  0  0  0
    4.0008   -8.0335    6.2794 C   0  0  0  0  0  0  0  0  0  0  0  0
    3.4049  -10.2223    5.4944 C   0  0  0  0  0  0  0  0  0  0  0  0
    5.2662   -8.4817    6.6402 C   0  0  0  0  0  0  0  0  0  0  0  0
    4.5757  -10.7105    6.0830 C   0  0  0  0  0  0  0  0  0  0  0  0
    5.5437   -9.8330    6.5721 C   0  0  0  0  0  0  0  0  0  0  0  0
    0.5843   -2.2201    0.0266 H   0  0  0  0  0  0  0  0  0  0  0  0
    1.5358    1.9726   -0.0338 H   0  0  0  0  0  0  0  0  0  0  0  0
   -0.9026    2.4086    0.0664 H   0  0  0  0  0  0  0  0  0  0  0  0
   -2.5418    0.5421   -0.0243 H   0  0  0  0  0  0  0  0  0  0  0  0
   -2.5543   -2.2365   -0.8400 H   0  0  0  0  0  0  0  0  0  0  0  0
   -1.3304   -3.1057    0.0656 H   0  0  0  0  0  0  0  0  0  0  0  0
   -3.2696   -3.0083    1.3373 H   0  0  0  0  0  0  0  0  0  0  0  0
   -2.0848   -2.1544    2.0720 H   0  0  0  0  0  0  0  0  0  0  0  0
    3.0162   -0.8566   -1.9760 H   0  0  0  0  0  0  0  0  0  0  0  0
    4.3607   -1.4327   -0.9911 H   0  0  0  0  0  0  0  0  0  0  0  0
    1.6581   -2.8028   -1.3478 H   0  0  0  0  0  0  0  0  0  0  0  0
    3.1840   -3.3575   -1.8339 H   0  0  0  0  0  0  0  0  0  0  0  0
    3.3579    0.4047    0.1844 H   0  0  0  0  0  0  0  0  0  0  0  0
    2.8406   -3.1603    2.4114 H   0  0  0  0  0  0  0  0  0  0  0  0
    1.4076   -2.6955    1.6304 H   0  0  0  0  0  0  0  0  0  0  0  0
    4.1414   -1.3448    1.6291 H   0  0  0  0  0  0  0  0  0  0  0  0
    2.6632   -0.7028    2.3399 H   0  0  0  0  0  0  0  0  0  0  0  0
    1.6915   -5.3842    2.2347 H   0  0  0  0  0  0  0  0  0  0  0  0
    5.8753   -5.3213    1.1342 H   0  0  0  0  0  0  0  0  0  0  0  0
    2.1140   -6.2197    5.5190 H   0  0  0  0  0  0  0  0  0  0  0  0
    1.0025   -6.4401    4.2188 H   0  0  0  0  0  0  0  0  0  0  0  0
    4.8581   -7.2848    4.4410 H   0  0  0  0  0  0  0  0  0  0  0  0
    1.0302   -8.5028    5.4661 H   0  0  0  0  0  0  0  0  0  0  0  0
    1.7526   -8.7933    3.8823 H   0  0  0  0  0  0  0  0  0  0  0  0
    3.8308   -6.9626    6.3657 H   0  0  0  0  0  0  0  0  0  0  0  0
    2.7394  -10.9101    4.9768 H   0  0  0  0  0  0  0  0  0  0  0  0
    6.0296   -7.7585    6.9194 H   0  0  0  0  0  0  0  0  0  0  0  0
    4.7505  -11.7797    6.1376 H   0  0  0  0  0  0  0  0  0  0  0  0
    6.5109  -10.1961    6.9029 H   0  0  0  0  0  0  0  0  0  0  0  0
  1  2  2  0  0  0  0
  1  3  1  0  0  0  0
  1 13  1  0  0  0  0
  2  4  1  0  0  0  0
  2 31  1  0  0  0  0
  3  5  2  0  0  0  0
  3 32  1  0  0  0  0
  4  6  2  0  0  0  0
  4  7  1  0  0  0  0
  5  6  1  0  0  0  0
  5 33  1  0  0  0  0
  6 34  1  0  0  0  0
  7  8  1  0  0  0  0
  7 35  1  0  0  0  0
  7 36  1  0  0  0  0
  8 37  1  0  0  0  0
  8 38  1  0  0  0  0
  9 10  1  0  0  0  0
  9 13  1  0  0  0  0
  9 39  1  0  0  0  0
  9 40  1  0  0  0  0
 10 14  1  0  0  0  0
 10 41  1  0  0  0  0
 10 42  1  0  0  0  0
 11 12  2  0  0  0  0
 11 14  1  0  0  0  0
 11 17  1  0  0  0  0
 13 16  1  0  0  0  0
 13 43  1  0  0  0  0
 14 15  1  0  0  0  0
 15 16  1  0  0  0  0
 15 44  1  0  0  0  0
 15 45  1  0  0  0  0
 16 46  1  0  0  0  0
 16 47  1  0  0  0  0
 17 18  2  0  0  0  0
 17 19  1  0  0  0  0
 18 20  1  0  0  0  0
 18 48  1  0  0  0  0
 19 21  2  0  0  0  0
 19 49  1  0  0  0  0
 20 22  1  0  0  0  0
 20 23  2  0  0  0  0
 21 23  1  0  0  0  0
 22 24  1  0  0  0  0
 22 50  1  0  0  0  0
 22 51  1  0  0  0  0
 23 52  1  0  0  0  0
 24 25  1  0  0  0  0
 24 53  1  0  0  0  0
 24 54  1  0  0  0  0
 25 26  2  0  0  0  0
 25 27  1  0  0  0  0
 26 28  1  0  0  0  0
 26 55  1  0  0  0  0
 27 29  2  0  0  0  0
 27 56  1  0  0  0  0
 28 30  2  0  0  0  0
 28 57  1  0  0  0  0
 29 30  1  0  0  0  0
 29 58  1  0  0  0  0
 30 59  1  0  0  0  0
M  END
>  <DRUGBANK_ID>
DB04764

>  <COMMON_NAME>
[4-(3-AMINOMETHYL-PHENYL)-PIPERIDIN-1-YL]-(5-PHENETHYL- PYRIDIN-3-YL)-METHANONE

$$$$
