
 OpenBabel10282417143D

 24 24  0  0  0  0  0  0  0  0999 V2000
    0.9308   -0.0638    0.0419 C   0  0  0  0  0  0  0  0  0  0  0  0
    0.4310   -1.4052   -0.0765 O   0  0  0  0  0  0  0  0  0  0  0  0
    0.8603   -2.0540   -1.1898 C   0  0  0  0  0  0  0  0  0  0  0  0
    1.5989   -1.5752   -2.0442 O   0  0  0  0  0  0  0  0  0  0  0  0
    0.3635   -3.4545   -1.2362 C   0  0  0  0  0  0  0  0  0  0  0  0
    1.2272   -4.4020   -1.6276 C   0  0  0  0  0  0  0  0  0  0  0  0
    0.8298   -5.8285   -1.7698 C   0  0  0  0  0  0  0  0  0  0  0  0
   -0.6282   -6.1686   -1.4572 C   0  0  0  0  0  0  0  0  0  0  0  0
   -1.5434   -5.1344   -0.9650 N   0  0  0  0  0  0  0  0  0  0  0  0
   -2.0796   -5.5408    0.3311 C   0  0  0  0  0  0  0  0  0  0  0  0
   -1.0729   -3.7352   -0.9306 C   0  0  0  0  0  0  0  0  0  0  0  0
    0.5629    0.3671    0.9787 H   0  0  0  0  0  0  0  0  0  0  0  0
    0.5661    0.5558   -0.7842 H   0  0  0  0  0  0  0  0  0  0  0  0
    2.0265   -0.0515    0.0726 H   0  0  0  0  0  0  0  0  0  0  0  0
    2.2588   -4.1571   -1.8668 H   0  0  0  0  0  0  0  0  0  0  0  0
    1.4644   -6.4134   -1.0933 H   0  0  0  0  0  0  0  0  0  0  0  0
    1.0543   -6.1588   -2.7903 H   0  0  0  0  0  0  0  0  0  0  0  0
   -0.5813   -6.9996   -0.7377 H   0  0  0  0  0  0  0  0  0  0  0  0
   -1.0854   -6.6285   -2.3443 H   0  0  0  0  0  0  0  0  0  0  0  0
   -1.2973   -5.4948    1.0963 H   0  0  0  0  0  0  0  0  0  0  0  0
   -2.9176   -4.9039    0.6272 H   0  0  0  0  0  0  0  0  0  0  0  0
   -2.4647   -6.5672    0.2923 H   0  0  0  0  0  0  0  0  0  0  0  0
   -1.6824   -3.1799   -1.6556 H   0  0  0  0  0  0  0  0  0  0  0  0
   -1.3054   -3.2980    0.0484 H   0  0  0  0  0  0  0  0  0  0  0  0
  1  2  1  0  0  0  0
  1 12  1  0  0  0  0
  1 13  1  0  0  0  0
  1 14  1  0  0  0  0
  2  3  1  0  0  0  0
  3  4  2  0  0  0  0
  3  5  1  0  0  0  0
  5  6  2  0  0  0  0
  5 11  1  0  0  0  0
  6  7  1  0  0  0  0
  6 15  1  0  0  0  0
  7  8  1  0  0  0  0
  7 16  1  0  0  0  0
  7 17  1  0  0  0  0
  8  9  1  0  0  0  0
  8 18  1  0  0  0  0
  8 19  1  0  0  0  0
  9 10  1  0  0  0  0
  9 11  1  0  0  0  0
 10 20  1  0  0  0  0
 10 21  1  0  0  0  0
 10 22  1  0  0  0  0
 11 23  1  0  0  0  0
 11 24  1  0  0  0  0
M  END
>  <DRUGBANK_ID>
DB04365

>  <SECONDARY_ACCESSION_NUMBERS>
EXPT03296

>  <COMMON_NAME>
Arecoline

>  <CAS_NUMBER>
63-75-2

>  <UNII>
4ALN5933BH

$$$$
