
 OpenBabel10282417203D

 35 35  0  0  0  0  0  0  0  0999 V2000
    1.0855    0.0113   -0.0671 C   0  0  0  0  0  0  0  0  0  0  0  0
    2.4414   -4.4341   -0.7885 C   0  0  0  0  0  0  0  0  0  0  0  0
    2.3952   -4.0088   -3.2909 C   0  0  0  0  0  0  0  0  0  0  0  0
    5.6108   -3.0117   -4.1468 C   0  0  0  0  0  0  0  0  0  0  0  0
    4.6979   -1.1378   -2.9197 C   0  0  0  0  0  0  0  0  0  0  0  0
    5.9255   -2.1512   -5.2025 C   0  0  0  0  0  0  0  0  0  0  0  0
    4.9789   -0.2892   -3.9826 C   0  0  0  0  0  0  0  0  0  0  0  0
    4.4316   -3.4254   -1.9250 C   0  0  0  0  0  0  0  0  0  0  0  0
    0.5820   -0.4996   -1.4072 C   0  0  3  0  0  0  0  0  0  0  0  0
    4.9687   -2.5099   -3.0056 C   0  0  0  0  0  0  0  0  0  0  0  0
    5.5982   -0.7976   -5.1183 C   0  0  0  0  0  0  0  0  0  0  0  0
    0.9772   -1.9650   -1.6417 C   0  0  0  0  0  0  0  0  0  0  0  0
    2.8649   -3.4900   -1.9200 C   0  0  0  0  0  0  0  0  0  0  0  0
    5.9618    0.2607   -6.4234 Cl  0  0  0  0  0  0  0  0  0  0  0  0
   -0.9021   -0.3978   -1.4121 N   0  0  0  0  0  0  0  0  0  0  0  0
    0.1346   -2.8422   -1.8297 O   0  0  0  0  0  0  0  0  0  0  0  0
    2.3234   -2.1589   -1.6410 O   0  0  0  0  0  0  0  0  0  0  0  0
    0.7417   -0.6261    0.7555 H   0  0  0  0  0  0  0  0  0  0  0  0
    0.7329    1.0318    0.1231 H   0  0  0  0  0  0  0  0  0  0  0  0
    2.1795    0.0256   -0.0386 H   0  0  0  0  0  0  0  0  0  0  0  0
    1.3547   -4.5155   -0.7102 H   0  0  0  0  0  0  0  0  0  0  0  0
    2.8369   -5.4419   -0.9396 H   0  0  0  0  0  0  0  0  0  0  0  0
    2.7906   -4.0545    0.1788 H   0  0  0  0  0  0  0  0  0  0  0  0
    2.6971   -3.3341   -4.0995 H   0  0  0  0  0  0  0  0  0  0  0  0
    2.8066   -5.0025   -3.4931 H   0  0  0  0  0  0  0  0  0  0  0  0
    1.3099   -4.0820   -3.3658 H   0  0  0  0  0  0  0  0  0  0  0  0
    5.8337   -4.0729   -4.2436 H   0  0  0  0  0  0  0  0  0  0  0  0
    4.2094   -0.7322   -2.0373 H   0  0  0  0  0  0  0  0  0  0  0  0
    6.4012   -2.5434   -6.0974 H   0  0  0  0  0  0  0  0  0  0  0  0
    4.6925    0.7558   -3.9175 H   0  0  0  0  0  0  0  0  0  0  0  0
    4.8135   -3.0713   -0.9583 H   0  0  0  0  0  0  0  0  0  0  0  0
    4.8410   -4.4367   -2.0658 H   0  0  0  0  0  0  0  0  0  0  0  0
    0.9663    0.1120   -2.2307 H   0  0  0  0  0  0  0  0  0  0  0  0
   -1.2324   -0.8112   -2.2897 H   0  0  0  0  0  0  0  0  0  0  0  0
   -1.2532   -1.0588   -0.7114 H   0  0  0  0  0  0  0  0  0  0  0  0
  1 18  1  0  0  0  0
  1 19  1  0  0  0  0
  1 20  1  0  0  0  0
  2 21  1  0  0  0  0
  2 22  1  0  0  0  0
  2 23  1  0  0  0  0
  3 24  1  0  0  0  0
  3 25  1  0  0  0  0
  3 26  1  0  0  0  0
  4 27  1  0  0  0  0
  5 28  1  0  0  0  0
  6  4  1  0  0  0  0
  6 29  1  0  0  0  0
  7  5  2  0  0  0  0
  7 30  1  0  0  0  0
  8 31  1  0  0  0  0
  8 32  1  0  0  0  0
  9  1  1  0  0  0  0
  9 33  1  0  0  0  0
 10  4  2  0  0  0  0
 10  5  1  0  0  0  0
 10  8  1  0  0  0  0
 11  6  2  0  0  0  0
 11  7  1  0  0  0  0
 12  9  1  0  0  0  0
 13  2  1  0  0  0  0
 13  3  1  0  0  0  0
 13  8  1  0  0  0  0
 14 11  1  0  0  0  0
 15  9  1  0  0  0  0
 15 34  1  0  0  0  0
 15 35  1  0  0  0  0
 16 12  2  0  0  0  0
 17 12  1  0  0  0  0
 17 13  1  0  0  0  0
M  END
>  <DRUGBANK_ID>
DB13233

>  <COMMON_NAME>
Alaproclate

>  <CAS_NUMBER>
60719-82-6

>  <UNII>
C4R42570ZO

>  <SYNONYMS>
Alaproclate

$$$$
