
 OpenBabel10282417233D

 64 69  0  0  0  0  0  0  0  0999 V2000
    2.4266    1.4550   -0.0454 C   0  0  0  0  0  0  0  0  0  0  0  0
    1.5577    0.2970   -0.0074 N   0  0  0  0  0  0  0  0  0  0  0  0
    1.9593   -1.0078   -0.0073 C   0  0  0  0  0  0  0  0  0  0  0  0
    0.8397   -1.8379   -0.0003 C   0  0  0  0  0  0  0  0  0  0  0  0
    0.9675   -3.3062   -0.0184 C   0  0  0  0  0  0  0  0  0  0  0  0
   -0.1909   -4.0279   -0.0184 O   0  0  0  0  0  0  0  0  0  0  0  0
    2.0334   -3.8765   -0.0268 O   0  0  0  0  0  0  0  0  0  0  0  0
   -0.2946   -0.9571    0.0632 C   0  0  0  0  0  0  0  0  0  0  0  0
    0.1885    0.3549    0.0580 C   0  0  0  0  0  0  0  0  0  0  0  0
   -0.6601    1.4660    0.1146 C   0  0  0  0  0  0  0  0  0  0  0  0
   -2.0434    1.2898    0.2316 C   0  0  0  0  0  0  0  0  0  0  0  0
   -2.5424    0.0009    0.2341 C   0  0  0  0  0  0  0  0  0  0  0  0
   -1.6941   -1.1140    0.1303 C   0  0  0  0  0  0  0  0  0  0  0  0
   -2.8599    2.3884    0.2086 N   0  0  0  0  0  0  0  0  0  0  0  0
   -3.8649    2.7922    1.1817 C   0  0  0  0  0  0  0  0  0  0  0  0
   -5.2491    2.9379    0.5501 C   0  0  0  0  0  0  0  0  0  0  0  0
   -5.1850    3.8013   -0.6928 C   0  0  0  0  0  0  0  0  0  0  0  0
   -3.9726    3.3917   -1.5127 C   0  0  0  0  0  0  0  0  0  0  0  0
   -2.6439    3.2869   -0.8792 C   0  0  0  0  0  0  0  0  0  0  0  0
   -6.4416    3.7911   -1.3969 O   0  0  0  0  0  0  0  0  0  0  0  0
   -6.8736    2.5748   -2.0137 C   0  0  0  0  0  0  0  0  0  0  0  0
   -6.0052    2.0976   -3.1230 C   0  0  0  0  0  0  0  0  0  0  0  0
   -5.1295    2.7969   -3.9520 C   0  0  0  0  0  0  0  0  0  0  0  0
   -4.3319    1.8585   -4.5664 O   0  0  0  0  0  0  0  0  0  0  0  0
   -4.6805    0.5831   -4.2101 N   0  0  0  0  0  0  0  0  0  0  0  0
   -5.7032    0.6931   -3.3600 C   0  0  0  0  0  0  0  0  0  0  0  0
   -6.3443   -0.4946   -2.7691 C   0  0  0  0  0  0  0  0  0  0  0  0
   -7.7363   -0.6568   -2.8708 C   0  0  0  0  0  0  0  0  0  0  0  0
   -8.7345    0.3904   -3.8260 Cl  0  0  0  0  0  0  0  0  0  0  0  0
   -8.3899   -1.7334   -2.2592 C   0  0  0  0  0  0  0  0  0  0  0  0
   -7.6767   -2.6700   -1.5206 C   0  0  0  0  0  0  0  0  0  0  0  0
   -6.2963   -2.5549   -1.4314 C   0  0  0  0  0  0  0  0  0  0  0  0
   -5.6324   -1.5120   -2.1004 C   0  0  0  0  0  0  0  0  0  0  0  0
   -3.9195   -1.6612   -2.1744 Cl  0  0  0  0  0  0  0  0  0  0  0  0
   -4.7392    4.2948   -4.1505 C   0  0  0  0  0  0  0  0  0  0  0  0
   -4.6231    5.6674   -3.4461 C   0  0  0  0  0  0  0  0  0  0  0  0
   -5.9160    5.2782   -3.9671 C   0  0  0  0  0  0  0  0  0  0  0  0
    2.2164    2.0149   -0.9617 H   0  0  0  0  0  0  0  0  0  0  0  0
    2.2226    2.0786    0.8305 H   0  0  0  0  0  0  0  0  0  0  0  0
    3.4711    1.1371   -0.0363 H   0  0  0  0  0  0  0  0  0  0  0  0
    3.0109   -1.2659   -0.0151 H   0  0  0  0  0  0  0  0  0  0  0  0
   -0.9951   -3.4980   -0.0411 H   0  0  0  0  0  0  0  0  0  0  0  0
   -0.2570    2.4738    0.0733 H   0  0  0  0  0  0  0  0  0  0  0  0
   -3.6169   -0.1579    0.2163 H   0  0  0  0  0  0  0  0  0  0  0  0
   -2.1711   -2.0822    0.0736 H   0  0  0  0  0  0  0  0  0  0  0  0
   -3.5608    3.7817    1.5426 H   0  0  0  0  0  0  0  0  0  0  0  0
   -3.9158    2.1072    2.0249 H   0  0  0  0  0  0  0  0  0  0  0  0
   -5.9714    3.3840    1.2440 H   0  0  0  0  0  0  0  0  0  0  0  0
   -5.6325    1.9465    0.2989 H   0  0  0  0  0  0  0  0  0  0  0  0
   -5.0581    4.8526   -0.4025 H   0  0  0  0  0  0  0  0  0  0  0  0
   -4.1289    2.3960   -1.9087 H   0  0  0  0  0  0  0  0  0  0  0  0
   -3.7398    4.0917   -2.2738 H   0  0  0  0  0  0  0  0  0  0  0  0
   -1.9807    2.8973   -1.6726 H   0  0  0  0  0  0  0  0  0  0  0  0
   -2.2684    4.2611   -0.5660 H   0  0  0  0  0  0  0  0  0  0  0  0
   -6.9730    1.8097   -1.2351 H   0  0  0  0  0  0  0  0  0  0  0  0
   -7.8891    2.7293   -2.3926 H   0  0  0  0  0  0  0  0  0  0  0  0
   -9.4645   -1.8486   -2.3755 H   0  0  0  0  0  0  0  0  0  0  0  0
   -8.1899   -3.5114   -1.0617 H   0  0  0  0  0  0  0  0  0  0  0  0
   -5.7360   -3.3076   -0.8769 H   0  0  0  0  0  0  0  0  0  0  0  0
   -3.7431    4.2678   -4.5848 H   0  0  0  0  0  0  0  0  0  0  0  0
   -4.5014    5.8553   -2.3851 H   0  0  0  0  0  0  0  0  0  0  0  0
   -4.0001    6.3897   -3.9796 H   0  0  0  0  0  0  0  0  0  0  0  0
   -6.3232    5.7724   -4.8296 H   0  0  0  0  0  0  0  0  0  0  0  0
   -6.6541    5.1603   -3.1780 H   0  0  0  0  0  0  0  0  0  0  0  0
  1  2  1  0  0  0  0
  1 38  1  0  0  0  0
  1 39  1  0  0  0  0
  1 40  1  0  0  0  0
  2  3  1  0  0  0  0
  2  9  1  0  0  0  0
  3  4  2  0  0  0  0
  3 41  1  0  0  0  0
  4  5  1  0  0  0  0
  4  8  1  0  0  0  0
  5  6  1  0  0  0  0
  5  7  2  0  0  0  0
  6 42  1  0  0  0  0
  8  9  2  0  0  0  0
  8 13  1  0  0  0  0
  9 10  1  0  0  0  0
 10 11  2  0  0  0  0
 10 43  1  0  0  0  0
 11 12  1  0  0  0  0
 11 14  1  0  0  0  0
 12 13  2  0  0  0  0
 12 44  1  0  0  0  0
 13 45  1  0  0  0  0
 14 15  1  0  0  0  0
 14 19  1  0  0  0  0
 15 16  1  0  0  0  0
 15 46  1  0  0  0  0
 15 47  1  0  0  0  0
 16 17  1  0  0  0  0
 16 48  1  0  0  0  0
 16 49  1  0  0  0  0
 17 18  1  0  0  0  0
 17 20  1  0  0  0  0
 17 50  1  0  0  0  0
 18 19  1  0  0  0  0
 18 51  1  0  0  0  0
 18 52  1  0  0  0  0
 19 53  1  0  0  0  0
 19 54  1  0  0  0  0
 20 21  1  0  0  0  0
 21 22  1  0  0  0  0
 21 55  1  0  0  0  0
 21 56  1  0  0  0  0
 22 23  2  0  0  0  0
 22 26  1  0  0  0  0
 23 24  1  0  0  0  0
 23 35  1  0  0  0  0
 24 25  1  0  0  0  0
 25 26  2  0  0  0  0
 26 27  1  0  0  0  0
 27 28  2  0  0  0  0
 27 33  1  0  0  0  0
 28 29  1  0  0  0  0
 28 30  1  0  0  0  0
 30 31  2  0  0  0  0
 30 57  1  0  0  0  0
 31 32  1  0  0  0  0
 31 58  1  0  0  0  0
 32 33  2  0  0  0  0
 32 59  1  0  0  0  0
 33 34  1  0  0  0  0
 35 36  1  0  0  0  0
 35 37  1  0  0  0  0
 35 60  1  0  0  0  0
 36 37  1  0  0  0  0
 36 61  1  0  0  0  0
 36 62  1  0  0  0  0
 37 63  1  0  0  0  0
 37 64  1  0  0  0  0
M  END
>  <DRUGBANK_ID>
DB16045

>  <COMMON_NAME>
TERN-101

>  <CAS_NUMBER>
1103500-20-4

>  <UNII>
VVA2ZDV3LX

$$$$
