317
 OpenBabel10282417163D

 55 58  0  0  0  0  0  0  0  0999 V2000
    0.9385    0.0358   -0.1140 C   0  0  2  0  0  0  0  0  0  0  0  0
    0.4259   -0.4394    1.2771 C   0  0  1  0  0  0  0  0  0  0  0  0
    0.8016    0.5418    2.3931 C   0  0  0  0  0  0  0  0  0  0  0  0
   -0.0188    1.2365    3.2113 C   0  0  0  0  0  0  0  0  0  0  0  0
    2.1361    0.7394    2.5647 F   0  0  0  0  0  0  0  0  0  0  0  0
   -1.0096   -0.7170    1.1795 N   0  0  0  0  0  0  0  0  0  0  0  0
    0.4765    1.4924   -0.4147 C   0  0  0  0  0  0  0  0  0  0  0  0
    0.4541    2.2461    4.2334 C   0  0  0  0  0  0  0  0  0  0  0  0
   -0.7560    3.1618    4.4685 C   0  0  0  0  0  0  0  0  0  0  0  0
   -1.8332    2.7071    3.5060 C   0  0  0  0  0  0  0  0  0  0  0  0
   -1.5207    1.2546    3.2570 C   0  0  0  0  0  0  0  0  0  0  0  0
    0.9649    1.9819   -1.7475 C   0  0  0  0  0  0  0  0  0  0  0  0
    0.6894    3.3719   -2.2512 C   0  0  0  0  0  0  0  0  0  0  0  0
   -0.0671    2.2151   -2.8264 C   0  0  0  0  0  0  0  0  0  0  0  0
    0.4810   -0.8995   -1.2126 C   0  0  0  0  0  0  0  0  0  0  0  0
   -0.1718   -0.6170   -2.3181 N   0  0  0  0  0  0  0  0  0  0  0  0
   -0.2135   -1.8109   -2.9797 C   0  0  0  0  0  0  0  0  0  0  0  0
    0.2936   -2.8385   -2.2792 N   0  0  0  0  0  0  0  0  0  0  0  0
    0.7856   -2.2287   -1.1113 O   0  0  0  0  0  0  0  0  0  0  0  0
   -0.7657   -1.9130   -4.3237 C   0  0  0  0  0  0  0  0  0  0  0  0
   -1.8857   -2.7297   -4.5484 C   0  0  0  0  0  0  0  0  0  0  0  0
   -2.4469   -2.8516   -5.8279 C   0  0  0  0  0  0  0  0  0  0  0  0
   -1.8900   -2.1548   -6.9002 C   0  0  0  0  0  0  0  0  0  0  0  0
   -0.7793   -1.3286   -6.6954 C   0  0  0  0  0  0  0  0  0  0  0  0
   -0.2201   -1.2102   -5.4131 C   0  0  0  0  0  0  0  0  0  0  0  0
   -2.5396   -2.2931   -8.5554 S   0  0  0  0  0  0  0  0  0  0  0  0
   -3.0480   -0.9869   -8.9069 O   0  0  0  0  0  0  0  0  0  0  0  0
   -1.5009   -2.9360   -9.3464 O   0  0  0  0  0  0  0  0  0  0  0  0
   -3.9196   -3.4068   -8.4952 C   0  0  0  0  0  0  0  0  0  0  0  0
    1.1975   -0.2277   -5.2693 Cl  0  0  0  0  0  0  0  0  0  0  0  0
    2.0380    0.0206   -0.1063 H   0  0  0  0  0  0  0  0  0  0  0  0
    0.9033   -1.3973    1.5223 H   0  0  0  0  0  0  0  0  0  0  0  0
   -1.3734   -0.9352    2.1030 H   0  0  0  0  0  0  0  0  0  0  0  0
   -1.4685    0.1330    0.8522 H   0  0  0  0  0  0  0  0  0  0  0  0
   -0.6188    1.5586   -0.3803 H   0  0  0  0  0  0  0  0  0  0  0  0
    0.8482    2.1774    0.3556 H   0  0  0  0  0  0  0  0  0  0  0  0
    0.7084    1.7361    5.1699 H   0  0  0  0  0  0  0  0  0  0  0  0
    1.3231    2.8226    3.9020 H   0  0  0  0  0  0  0  0  0  0  0  0
   -1.1162    3.0627    5.4982 H   0  0  0  0  0  0  0  0  0  0  0  0
   -0.5127    4.2149    4.2990 H   0  0  0  0  0  0  0  0  0  0  0  0
   -2.8473    2.8263    3.8975 H   0  0  0  0  0  0  0  0  0  0  0  0
   -1.7707    3.2664    2.5628 H   0  0  0  0  0  0  0  0  0  0  0  0
   -2.0687    0.9908    2.3620 H   0  0  0  0  0  0  0  0  0  0  0  0
   -1.8567    0.6085    4.0749 H   0  0  0  0  0  0  0  0  0  0  0  0
    1.9269    1.5594   -2.0156 H   0  0  0  0  0  0  0  0  0  0  0  0
    0.1472    4.0705   -1.6298 H   0  0  0  0  0  0  0  0  0  0  0  0
    1.4569    3.8192   -2.8739 H   0  0  0  0  0  0  0  0  0  0  0  0
    0.1603    1.8881   -3.8303 H   0  0  0  0  0  0  0  0  0  0  0  0
   -1.1123    2.0745   -2.5677 H   0  0  0  0  0  0  0  0  0  0  0  0
   -2.3314   -3.2787   -3.7198 H   0  0  0  0  0  0  0  0  0  0  0  0
   -3.3086   -3.4989   -5.9487 H   0  0  0  0  0  0  0  0  0  0  0  0
   -0.3363   -0.7896   -7.5327 H   0  0  0  0  0  0  0  0  0  0  0  0
   -3.5843   -4.3867   -8.1503 H   0  0  0  0  0  0  0  0  0  0  0  0
   -4.6866   -2.9961   -7.8356 H   0  0  0  0  0  0  0  0  0  0  0  0
   -4.3295   -3.5035   -9.5039 H   0  0  0  0  0  0  0  0  0  0  0  0
  1  2  1  0  0  0  0
  1  7  1  0  0  0  0
  1 15  1  0  0  0  0
  1 31  1  1  0  0  0
  2  3  1  0  0  0  0
  2  6  1  0  0  0  0
  2 32  1  1  0  0  0
  3  4  2  0  0  0  0
  3  5  1  0  0  0  0
  4  8  1  0  0  0  0
  4 11  1  0  0  0  0
  6 33  1  0  0  0  0
  6 34  1  0  0  0  0
  7 12  1  0  0  0  0
  7 35  1  0  0  0  0
  7 36  1  0  0  0  0
  8  9  1  0  0  0  0
  8 37  1  0  0  0  0
  8 38  1  0  0  0  0
  9 10  1  0  0  0  0
  9 39  1  0  0  0  0
  9 40  1  0  0  0  0
 10 11  1  0  0  0  0
 10 41  1  0  0  0  0
 10 42  1  0  0  0  0
 11 43  1  0  0  0  0
 11 44  1  0  0  0  0
 12 13  1  0  0  0  0
 12 14  1  0  0  0  0
 12 45  1  0  0  0  0
 13 14  1  0  0  0  0
 13 46  1  0  0  0  0
 13 47  1  0  0  0  0
 14 48  1  0  0  0  0
 14 49  1  0  0  0  0
 15 16  2  0  0  0  0
 15 19  1  0  0  0  0
 16 17  1  0  0  0  0
 17 18  2  0  0  0  0
 17 20  1  0  0  0  0
 18 19  1  0  0  0  0
 20 21  2  0  0  0  0
 20 25  1  0  0  0  0
 21 22  1  0  0  0  0
 21 50  1  0  0  0  0
 22 23  2  0  0  0  0
 22 51  1  0  0  0  0
 23 24  1  0  0  0  0
 23 26  1  0  0  0  0
 24 25  2  0  0  0  0
 24 52  1  0  0  0  0
 25 30  1  0  0  0  0
 26 27  2  0  0  0  0
 26 28  2  0  0  0  0
 26 29  1  0  0  0  0
 29 53  1  0  0  0  0
 29 54  1  0  0  0  0
 29 55  1  0  0  0  0
M  END
>  <DRUGBANK_ID>
DB06994

>  <COMMON_NAME>
(2S,3S)-3-{3-[2-chloro-4-(methylsulfonyl)phenyl]-1,2,4-oxadiazol-5-yl}-1-cyclopentylidene-4-cyclopropyl-1-fluorobutan-2-amine

$$$$
