
 OpenBabel10282417163D

 59 62  0  0  0  0  0  0  0  0999 V2000
    0.9854    0.1101   -0.0297 C   0  0  0  0  0  0  0  0  0  0  0  0
    0.6305   11.6653    4.9944 C   0  0  0  0  0  0  0  0  0  0  0  0
    1.7571   10.6726    5.0327 C   0  0  0  0  0  0  0  0  0  0  0  0
    2.2755    2.6526    1.9956 C   0  0  0  0  0  0  0  0  0  0  0  0
    2.7204    3.9677    2.1333 C   0  0  0  0  0  0  0  0  0  0  0  0
    0.6861   12.1973   -2.6726 C   0  0  0  0  0  0  0  0  0  0  0  0
    1.2462   11.1421   -1.7374 C   0  0  0  0  0  0  0  0  0  0  0  0
   -0.2861    9.5131    3.7134 C   0  0  0  0  0  0  0  0  0  0  0  0
    0.0925    3.4715    1.3224 C   0  0  0  0  0  0  0  0  0  0  0  0
    0.5235   13.0239   -0.4538 C   0  0  0  0  0  0  0  0  0  0  0  0
    0.3257   10.1809    4.9298 C   0  0  0  0  0  0  0  0  0  0  0  0
    0.7800   13.4833   -1.8714 C   0  0  1  0  0  0  0  0  0  0  0  0
    0.9626    2.4121    1.5832 C   0  0  0  0  0  0  0  0  0  0  0  0
    1.8578    5.0492    1.8829 C   0  0  0  0  0  0  0  0  0  0  0  0
    0.5651    9.4909    2.4137 C   0  0  1  0  0  0  0  0  0  0  0  0
    0.5497    4.7775    1.4650 C   0  0  0  0  0  0  0  0  0  0  0  0
    0.8235   10.9436    1.9354 C   0  0  1  0  0  0  0  0  0  0  0  0
    2.3583    6.4482    2.0946 C   0  0  2  0  0  0  0  0  0  0  0  0
    1.8279    8.6094    2.5974 C   0  0  3  0  0  0  0  0  0  0  0  0
    1.6457   11.1368    0.6564 C   0  0  0  0  0  0  0  0  0  0  0  0
    2.0330   13.9948   -1.9628 F   0  0  0  0  0  0  0  0  0  0  0  0
   -0.3016    5.7798    1.1986 F   0  0  0  0  0  0  0  0  0  0  0  0
   -0.5085   11.6153    1.8557 N   0  0  0  0  0  0  0  0  0  0  0  0
    1.5039    7.2307    2.9646 N   0  0  0  0  0  0  0  0  0  0  0  0
    2.4764    7.2087    0.8722 N   0  0  0  0  0  0  0  0  0  0  0  0
    0.9294   11.6197   -0.4160 N   0  0  0  0  0  0  0  0  0  0  0  0
    2.8531   10.8995    0.6008 O   0  0  0  0  0  0  0  0  0  0  0  0
   -1.0834    0.8059    1.4009 O   0  0  0  0  0  0  0  0  0  0  0  0
    0.9966    0.0127    2.5857 O   0  0  0  0  0  0  0  0  0  0  0  0
    2.5952    8.5638    1.3967 O   0  0  0  0  0  0  0  0  0  0  0  0
    0.3614    0.7426    1.5042 S   0  0  0  0  0  0  0  0  0  0  0  0
    0.0699   14.2523   -2.1868 H   0  0  0  0  0  0  0  0  0  0  0  0
   -0.0396    9.0085    1.6259 H   0  0  0  0  0  0  0  0  0  0  0  0
    1.4316   11.4950    2.6416 H   0  0  0  0  0  0  0  0  0  0  0  0
    3.3597    6.4012    2.5442 H   0  0  0  0  0  0  0  0  0  0  0  0
    2.4890    8.9905    3.3698 H   0  0  0  0  0  0  0  0  0  0  0  0
    0.6060    0.7169   -0.8536 H   0  0  0  0  0  0  0  0  0  0  0  0
    0.6266   -0.9172   -0.1357 H   0  0  0  0  0  0  0  0  0  0  0  0
    2.0765    0.1149   -0.0093 H   0  0  0  0  0  0  0  0  0  0  0  0
    0.4925   12.2517    5.8912 H   0  0  0  0  0  0  0  0  0  0  0  0
    0.4428   12.2781    4.1228 H   0  0  0  0  0  0  0  0  0  0  0  0
    2.4638   10.7385    4.2159 H   0  0  0  0  0  0  0  0  0  0  0  0
    2.2690   10.4717    5.9662 H   0  0  0  0  0  0  0  0  0  0  0  0
    2.9507    1.8347    2.2378 H   0  0  0  0  0  0  0  0  0  0  0  0
    3.7434    4.1536    2.4580 H   0  0  0  0  0  0  0  0  0  0  0  0
   -0.3648   11.9666   -2.8805 H   0  0  0  0  0  0  0  0  0  0  0  0
    1.2435   12.2404   -3.6086 H   0  0  0  0  0  0  0  0  0  0  0  0
    2.3182   10.9631   -1.8686 H   0  0  0  0  0  0  0  0  0  0  0  0
    0.7225   10.1854   -1.8419 H   0  0  0  0  0  0  0  0  0  0  0  0
   -1.2652    9.9766    3.5226 H   0  0  0  0  0  0  0  0  0  0  0  0
   -0.5518    8.4816    3.9820 H   0  0  0  0  0  0  0  0  0  0  0  0
   -0.9412    3.3057    1.0340 H   0  0  0  0  0  0  0  0  0  0  0  0
    1.0383   13.6284    0.3031 H   0  0  0  0  0  0  0  0  0  0  0  0
   -0.5555   13.0370   -0.2751 H   0  0  0  0  0  0  0  0  0  0  0  0
   -0.1367    9.7806    5.8271 H   0  0  0  0  0  0  0  0  0  0  0  0
   -0.3737   12.6163    1.7652 H   0  0  0  0  0  0  0  0  0  0  0  0
   -0.9833   11.2782    1.0178 H   0  0  0  0  0  0  0  0  0  0  0  0
    1.8004    7.0636    3.9233 H   0  0  0  0  0  0  0  0  0  0  0  0
    1.5617    7.2722    0.4281 H   0  0  0  0  0  0  0  0  0  0  0  0
  1 37  1  0  0  0  0
  1 38  1  0  0  0  0
  1 39  1  0  0  0  0
  2 40  1  0  0  0  0
  2 41  1  0  0  0  0
  3  2  1  0  0  0  0
  3 42  1  0  0  0  0
  3 43  1  0  0  0  0
  4 44  1  0  0  0  0
  5  4  2  0  0  0  0
  5 45  1  0  0  0  0
  6 46  1  0  0  0  0
  6 47  1  0  0  0  0
  7  6  1  0  0  0  0
  7 48  1  0  0  0  0
  7 49  1  0  0  0  0
  8 50  1  0  0  0  0
  8 51  1  0  0  0  0
  9 52  1  0  0  0  0
 10 53  1  0  0  0  0
 10 54  1  0  0  0  0
 11  2  1  0  0  0  0
 11  3  1  0  0  0  0
 11  8  1  0  0  0  0
 11 55  1  0  0  0  0
 12  6  1  0  0  0  0
 12 10  1  0  0  0  0
 12 21  1  0  0  0  0
 12 32  1  6  0  0  0
 13  4  1  0  0  0  0
 13  9  2  0  0  0  0
 14  5  1  0  0  0  0
 15  8  1  0  0  0  0
 15 17  1  0  0  0  0
 15 19  1  0  0  0  0
 15 33  1  6  0  0  0
 16  9  1  0  0  0  0
 16 14  2  0  0  0  0
 17 20  1  0  0  0  0
 17 23  1  0  0  0  0
 17 34  1  1  0  0  0
 18 14  1  0  0  0  0
 18 24  1  0  0  0  0
 18 25  1  0  0  0  0
 18 35  1  1  0  0  0
 22 16  1  0  0  0  0
 23 56  1  0  0  0  0
 23 57  1  0  0  0  0
 24 19  1  0  0  0  0
 24 58  1  0  0  0  0
 25 59  1  0  0  0  0
 26  7  1  0  0  0  0
 26 10  1  0  0  0  0
 26 20  1  0  0  0  0
 27 20  2  0  0  0  0
 30 19  1  0  0  0  0
 30 25  1  0  0  0  0
 31  1  1  0  0  0  0
 31 13  1  0  0  0  0
 31 28  2  0  0  0  0
 31 29  2  0  0  0  0
 36 19  1  0  0  0  0
M  END
>  <DRUGBANK_ID>
DB06993

>  <COMMON_NAME>
(2S,3S)-4-cyclopropyl-3-{(3R,5R)-3-[2-fluoro-4-(methylsulfonyl)phenyl]-1,2,4-oxadiazolidin-5-yl}-1-[(3S)-3-fluoropyrrolidin-1-yl]-1-oxobutan-2-amine

$$$$
