
 OpenBabel10282417123D

 68 69  0  0  1  0  0  0  0  0999 V2000
   -3.2363    1.9843   -0.3467 C   0  0  0  0  0  0  0  0  0  0  0  0
   -1.6634    2.1460   -0.3145 C   0  0  0  0  0  0  0  0  0  0  0  0
   -0.8552    1.1992   -1.1918 C   0  0  0  0  0  0  0  0  0  0  0  0
   -0.5756    1.7794   -2.5265 C   0  0  0  0  0  0  0  0  0  0  0  0
    0.1309    3.2372   -2.6466 C   0  0  0  0  0  0  0  0  0  0  0  0
    1.4445    3.1293   -3.5188 C   0  0  0  0  0  0  0  0  0  0  0  0
    1.4580    2.1360   -4.9413 C   0  0  0  0  0  0  0  0  0  0  0  0
   -5.8064    4.0289   -5.8135 C   0  0  0  0  0  0  0  0  0  0  0  0
   -2.4196    6.6678   -5.2958 C   0  0  0  0  0  0  0  0  0  0  0  0
   -2.8922    3.7637   -2.5614 C   0  0  0  0  0  0  0  0  0  0  0  0
   -4.6965    2.9666   -5.9242 C   0  0  2  0  0  0  0  0  0  0  0  0
   -1.7864    5.3814   -4.7685 C   0  0  2  0  0  0  0  0  0  0  0  0
    0.7916    2.3699   -6.5538 C   0  0  0  0  0  0  0  0  0  0  0  0
   -3.5501    3.1993   -7.0340 C   0  0  2  0  0  0  0  0  0  0  0  0
   -0.9623    4.4248   -5.6207 C   0  0  2  0  0  0  0  0  0  0  0  0
   -2.7204    0.7181   -6.5117 C   0  0  2  0  0  0  0  0  0  0  0  0
   -2.2631    2.0956   -7.0060 C   0  0  1  0  0  0  0  0  0  0  0  0
   -1.2528    3.0445   -4.7429 C   0  0  1  0  0  0  0  0  0  0  0  0
   -3.7151    1.0483   -5.2170 C   0  0  2  0  0  0  0  0  0  0  0  0
   -2.5553    3.2659   -3.9791 C   0  0  2  0  0  0  0  0  0  0  0  0
   -5.7846    4.9220   -6.9085 O   0  0  0  0  0  0  0  0  0  0  0  0
   -1.6550    7.3111   -6.2772 O   0  0  0  0  0  0  0  0  0  0  0  0
   -4.2885    4.0511   -2.2948 O   0  0  0  0  0  0  0  0  0  0  0  0
    1.7077    2.7880   -7.3751 O   0  0  0  0  0  0  0  0  0  0  0  0
   -3.2450    4.5605   -6.8209 O   0  0  0  0  0  0  0  0  0  0  0  0
    0.3295    5.0203   -5.7509 O   0  0  0  0  0  0  0  0  0  0  0  0
   -1.7174   -0.2941   -6.2597 O   0  0  0  0  0  0  0  0  0  0  0  0
   -1.0124    1.5809   -5.0158 O   0  0  0  0  0  0  0  0  0  0  0  0
   -4.9507    1.5972   -5.7126 O   0  0  0  0  0  0  0  0  0  0  0  0
   -0.5294    2.3049   -7.1202 O   0  0  0  0  0  0  0  0  0  0  0  0
   -2.9457    4.5661   -4.4503 O   0  0  0  0  0  0  0  0  0  0  0  0
   -3.3091    1.9043   -4.0488 O   0  0  0  0  0  0  0  0  0  0  0  0
   -4.4161    3.2468   -4.9223 H   0  0  0  0  0  0  0  0  0  0  0  0
   -1.1301    5.7101   -3.9415 H   0  0  0  0  0  0  0  0  0  0  0  0
   -3.9782    3.1596   -8.0149 H   0  0  0  0  0  0  0  0  0  0  0  0
   -1.2730    4.3174   -6.6487 H   0  0  0  0  0  0  0  0  0  0  0  0
   -3.2852    0.3229   -7.3537 H   0  0  0  0  0  0  0  0  0  0  0  0
   -2.2800    2.4996   -6.0756 H   0  0  0  0  0  0  0  0  0  0  0  0
   -0.2916    2.9657   -4.4578 H   0  0  0  0  0  0  0  0  0  0  0  0
   -3.9459    0.0674   -4.7717 H   0  0  0  0  0  0  0  0  0  0  0  0
   -3.7653    1.8952   -1.3146 H   0  0  0  0  0  0  0  0  0  0  0  0
   -3.6846    2.8803    0.1099 H   0  0  0  0  0  0  0  0  0  0  0  0
   -3.5766    1.0529    0.0821 H   0  0  0  0  0  0  0  0  0  0  0  0
   -1.3742    3.1769   -0.5640 H   0  0  0  0  0  0  0  0  0  0  0  0
   -1.3079    2.0253    0.6999 H   0  0  0  0  0  0  0  0  0  0  0  0
    0.1580    0.9886   -0.8670 H   0  0  0  0  0  0  0  0  0  0  0  0
   -1.4152    0.2620   -1.3367 H   0  0  0  0  0  0  0  0  0  0  0  0
   -0.0441    1.0093   -3.0962 H   0  0  0  0  0  0  0  0  0  0  0  0
   -1.5762    1.6550   -2.9074 H   0  0  0  0  0  0  0  0  0  0  0  0
   -0.3123    4.0282   -3.2683 H   0  0  0  0  0  0  0  0  0  0  0  0
   -0.0986    3.9644   -1.8591 H   0  0  0  0  0  0  0  0  0  0  0  0
    1.7539    4.1463   -3.8073 H   0  0  0  0  0  0  0  0  0  0  0  0
    2.1442    2.7428   -2.7815 H   0  0  0  0  0  0  0  0  0  0  0  0
    2.5516    2.0994   -5.1116 H   0  0  0  0  0  0  0  0  0  0  0  0
    1.2354    1.1083   -4.6510 H   0  0  0  0  0  0  0  0  0  0  0  0
   -6.7631    3.5389   -5.6757 H   0  0  0  0  0  0  0  0  0  0  0  0
   -5.6596    4.6816   -4.9196 H   0  0  0  0  0  0  0  0  0  0  0  0
   -3.4387    6.5199   -5.6747 H   0  0  0  0  0  0  0  0  0  0  0  0
   -2.6168    7.3234   -4.4412 H   0  0  0  0  0  0  0  0  0  0  0  0
   -2.6468    2.9046   -2.0505 H   0  0  0  0  0  0  0  0  0  0  0  0
   -2.3439    4.5762   -2.0802 H   0  0  0  0  0  0  0  0  0  0  0  0
   -4.9053    5.3640   -6.9176 H   0  0  0  0  0  0  0  0  0  0  0  0
   -0.7540    6.9415   -6.2354 H   0  0  0  0  0  0  0  0  0  0  0  0
   -4.8642    3.5027   -2.8551 H   0  0  0  0  0  0  0  0  0  0  0  0
   -3.4324    4.6898   -5.8577 H   0  0  0  0  0  0  0  0  0  0  0  0
    1.0598    4.3956   -5.8791 H   0  0  0  0  0  0  0  0  0  0  0  0
   -0.8797    0.1031   -5.9379 H   0  0  0  0  0  0  0  0  0  0  0  0
   -1.5866    0.9730   -4.4972 H   0  0  0  0  0  0  0  0  0  0  0  0
  1 41  1  0  0  0  0
  1 42  1  0  0  0  0
  1 43  1  0  0  0  0
  2  1  1  0  0  0  0
  2 44  1  0  0  0  0
  2 45  1  0  0  0  0
  3  2  1  0  0  0  0
  3 46  1  0  0  0  0
  3 47  1  0  0  0  0
  4  3  1  0  0  0  0
  4 48  1  0  0  0  0
  4 49  1  0  0  0  0
  5  4  1  0  0  0  0
  5 50  1  0  0  0  0
  5 51  1  0  0  0  0
  6  5  1  0  0  0  0
  6 52  1  0  0  0  0
  6 53  1  0  0  0  0
  7  6  1  0  0  0  0
  7 54  1  0  0  0  0
  7 55  1  0  0  0  0
  8 56  1  0  0  0  0
  8 57  1  0  0  0  0
  9 58  1  0  0  0  0
  9 59  1  0  0  0  0
 10 60  1  0  0  0  0
 10 61  1  0  0  0  0
 11 33  1  1  0  0  0
 11  8  1  0  0  0  0
 12 34  1  1  0  0  0
 12  9  1  0  0  0  0
 13  7  1  0  0  0  0
 14 11  1  0  0  0  0
 14 25  1  0  0  0  0
 14 35  1  6  0  0  0
 15 12  1  0  0  0  0
 15 26  1  0  0  0  0
 15 36  1  6  0  0  0
 16 27  1  0  0  0  0
 16 37  1  6  0  0  0
 17 14  1  0  0  0  0
 17 16  1  0  0  0  0
 17 38  1  1  0  0  0
 17 30  1  0  0  0  0
 18 15  1  0  0  0  0
 18 28  1  0  0  0  0
 18 39  1  1  0  0  0
 19 16  1  0  0  0  0
 19 32  1  0  0  0  0
 19 40  1  1  0  0  0
 20 10  1  0  0  0  0
 20 18  1  0  0  0  0
 20 32  1  6  0  0  0
 21  8  1  0  0  0  0
 21 62  1  0  0  0  0
 22  9  1  0  0  0  0
 22 63  1  0  0  0  0
 23 10  1  0  0  0  0
 23 64  1  0  0  0  0
 24 13  2  0  0  0  0
 25 65  1  0  0  0  0
 26 66  1  0  0  0  0
 27 67  1  0  0  0  0
 28 68  1  0  0  0  0
 29 11  1  0  0  0  0
 29 19  1  0  0  0  0
 30 13  1  0  0  0  0
 31 12  1  0  0  0  0
 31 20  1  0  0  0  0
M  END
>  <DRUGBANK_ID>
DB02346

>  <SECONDARY_ACCESSION_NUMBERS>
EXPT00139

>  <COMMON_NAME>
3'-O-N-Octanoyl-a-D-Glucopyranosyl-B-D-Fructofuranoside

$$$$
