382
 OpenBabel10282417103D

 29 31  0  0  0  0  0  0  0  0999 V2000
    0.0160    1.3636    0.0368 N   0  0  0  0  0  0  0  0  0  0  0  0
    0.0252   -2.8384   -0.1406 N   0  0  0  0  0  0  0  0  0  0  0  0
   -3.6701   -0.6805    0.3827 C   0  0  0  0  0  0  0  0  0  0  0  0
   -2.4712   -1.5076   -0.0361 C   0  0  0  0  0  0  0  0  0  0  0  0
   -3.6554    0.6299   -0.3855 C   0  0  0  0  0  0  0  0  0  0  0  0
   -1.1735   -0.7443    0.0016 C   0  0  0  0  0  0  0  0  0  0  0  0
   -2.4352    1.4531    0.0389 C   0  0  0  0  0  0  0  0  0  0  0  0
   -1.1444    0.6568    0.0102 C   0  0  0  0  0  0  0  0  0  0  0  0
    0.0382   -1.4445   -0.0284 C   0  0  0  0  0  0  0  0  0  0  0  0
    1.2454   -0.7226   -0.0161 C   0  0  0  0  0  0  0  0  0  0  0  0
    1.1875    0.6927    0.0234 C   0  0  0  0  0  0  0  0  0  0  0  0
    2.4982   -1.3673   -0.0402 C   0  0  0  0  0  0  0  0  0  0  0  0
    2.4003    1.3825    0.0412 C   0  0  0  0  0  0  0  0  0  0  0  0
    3.6863   -0.6568   -0.0270 C   0  0  0  0  0  0  0  0  0  0  0  0
    3.6396    0.7271    0.0151 C   0  0  0  0  0  0  0  0  0  0  0  0
   -0.8396   -3.3556   -0.1297 H   0  0  0  0  0  0  0  0  0  0  0  0
    0.8705   -3.3803   -0.0845 H   0  0  0  0  0  0  0  0  0  0  0  0
   -3.6257   -0.4874    1.4623 H   0  0  0  0  0  0  0  0  0  0  0  0
   -4.5860   -1.2478    0.1893 H   0  0  0  0  0  0  0  0  0  0  0  0
   -2.4219   -2.3683    0.6396 H   0  0  0  0  0  0  0  0  0  0  0  0
   -2.6122   -1.8812   -1.0587 H   0  0  0  0  0  0  0  0  0  0  0  0
   -3.6114    0.4233   -1.4632 H   0  0  0  0  0  0  0  0  0  0  0  0
   -4.5807    1.1836   -0.1984 H   0  0  0  0  0  0  0  0  0  0  0  0
   -2.3528    2.3316   -0.6116 H   0  0  0  0  0  0  0  0  0  0  0  0
   -2.5907    1.8173    1.0626 H   0  0  0  0  0  0  0  0  0  0  0  0
    2.5673   -2.4498   -0.0678 H   0  0  0  0  0  0  0  0  0  0  0  0
    2.3878    2.4714    0.0736 H   0  0  0  0  0  0  0  0  0  0  0  0
    4.6302   -1.1922   -0.0495 H   0  0  0  0  0  0  0  0  0  0  0  0
    4.5664    1.2923    0.0261 H   0  0  0  0  0  0  0  0  0  0  0  0
  1  8  2  0  0  0  0
  1 11  1  0  0  0  0
  2  9  1  0  0  0  0
  2 16  1  0  0  0  0
  2 17  1  0  0  0  0
  3  4  1  0  0  0  0
  3  5  1  0  0  0  0
  3 18  1  0  0  0  0
  3 19  1  0  0  0  0
  4  6  1  0  0  0  0
  4 20  1  0  0  0  0
  4 21  1  0  0  0  0
  5  7  1  0  0  0  0
  5 22  1  0  0  0  0
  5 23  1  0  0  0  0
  6  8  1  0  0  0  0
  6  9  2  0  0  0  0
  7  8  1  0  0  0  0
  7 24  1  0  0  0  0
  7 25  1  0  0  0  0
  9 10  1  0  0  0  0
 10 11  1  0  0  0  0
 10 12  2  0  0  0  0
 11 13  2  0  0  0  0
 12 14  1  0  0  0  0
 12 26  1  0  0  0  0
 13 15  1  0  0  0  0
 13 27  1  0  0  0  0
 14 15  2  0  0  0  0
 14 28  1  0  0  0  0
 15 29  1  0  0  0  0
M  END
>  <DRUGBANK_ID>
DB00382

>  <SECONDARY_ACCESSION_NUMBERS>
APRD00690

>  <COMMON_NAME>
Tacrine

>  <CAS_NUMBER>
321-64-2

>  <UNII>
4VX7YNB537

>  <SYNONYMS>
1,2,3,4-tetrahydro-9-acridinamine; 1,2,3,4-tetrahydro-9-aminoacridine; 1,2,3,4-tetrahydroacridin-9-amine; 5-amino-6,7,8,9-tetrahydroacridine; 9-amino-1,2,3,4-tetrahydroacridine; Tacrin; Tacrine; Tacrinum; Tetrahydroaminacrine; Tetrahydroaminoacridine; THA

$$$$
