
 OpenBabel10282417153D

 70 74  0  0  0  0  0  0  0  0999 V2000
    0.9495   -0.0812   -0.9504 S   0  0  0  0  0  0  0  0  0  0  0  0
    2.3190   -1.7498    1.9700 O   0  0  0  0  0  0  0  0  0  0  0  0
    0.2683    0.7021    0.0151 O   0  0  0  0  0  0  0  0  0  0  0  0
    0.5886    0.1804   -2.3485 O   0  0  0  0  0  0  0  0  0  0  0  0
    4.3184   -3.7383    1.7413 O   0  0  0  0  0  0  0  0  0  0  0  0
   -0.4727   -2.1897    2.6759 O   0  0  0  0  0  0  0  0  0  0  0  0
    4.2981   -0.8098    1.6533 O   0  0  0  0  0  0  0  0  0  0  0  0
    0.4554   -1.6825   -0.5767 N   0  0  0  0  0  0  0  0  0  0  0  0
    3.3393    1.2451   -0.4488 N   0  0  0  0  0  0  0  0  0  0  0  0
    1.2155   -3.7763   -0.9188 N   0  0  0  0  0  0  0  0  0  0  0  0
    3.0368   -4.8152    0.1921 N   0  0  0  0  0  0  0  0  0  0  0  0
    1.1014   -8.1748   -3.2337 N   0  0  0  0  0  0  0  0  0  0  0  0
    1.8614  -10.7535   -1.6931 N   0  0  0  0  0  0  0  0  0  0  0  0
    0.1554  -10.0064   -0.4057 N   0  0  0  0  0  0  0  0  0  0  0  0
    1.3317  -11.6876   -0.8917 N   0  0  0  0  0  0  0  0  0  0  0  0
    0.3201  -11.2897   -0.1110 N   0  0  0  0  0  0  0  0  0  0  0  0
    7.0045    0.1058    0.0589 C   0  0  0  0  0  0  0  0  0  0  0  0
    5.5367    0.1234   -0.3434 C   0  0  0  0  0  0  0  0  0  0  0  0
    7.6641    0.7879   -1.1189 C   0  0  0  0  0  0  0  0  0  0  0  0
    7.4275    0.7780    1.3813 C   0  0  0  0  0  0  0  0  0  0  0  0
    2.7931    0.0645   -0.8635 C   0  0  0  0  0  0  0  0  0  0  0  0
    4.9452   -1.0387   -0.8503 C   0  0  0  0  0  0  0  0  0  0  0  0
    4.6988    1.2413   -0.2207 C   0  0  0  0  0  0  0  0  0  0  0  0
    3.5806   -1.0435   -1.1554 C   0  0  0  0  0  0  0  0  0  0  0  0
    1.3666   -2.6835   -0.1520 C   0  0  0  0  0  0  0  0  0  0  0  0
    2.2315   -2.6547    0.9385 C   0  0  0  0  0  0  0  0  0  0  0  0
    3.1499   -3.7222    0.9948 C   0  0  0  0  0  0  0  0  0  0  0  0
    2.0243   -4.8257   -0.6952 C   0  0  0  0  0  0  0  0  0  0  0  0
    1.7755   -6.0045   -1.5461 C   0  0  0  0  0  0  0  0  0  0  0  0
    1.4656   -0.7216    2.2616 C   0  0  0  0  0  0  0  0  0  0  0  0
    1.6068   -7.2995   -1.0311 C   0  0  0  0  0  0  0  0  0  0  0  0
    1.6028   -5.8390   -2.9301 C   0  0  0  0  0  0  0  0  0  0  0  0
    4.6510   -2.8292    2.8257 C   0  0  0  0  0  0  0  0  0  0  0  0
    0.1437   -0.9616    2.5851 C   0  0  0  0  0  0  0  0  0  0  0  0
    1.2663   -8.3450   -1.8961 C   0  0  0  0  0  0  0  0  0  0  0  0
    1.9796    0.6206    2.2539 C   0  0  0  0  0  0  0  0  0  0  0  0
    1.2754   -6.9301   -3.7186 C   0  0  0  0  0  0  0  0  0  0  0  0
    5.2302   -1.4994    2.3886 C   0  0  0  0  0  0  0  0  0  0  0  0
   -0.6829    0.1754    2.6960 C   0  0  0  0  0  0  0  0  0  0  0  0
    1.1489    1.7380    2.3484 C   0  0  0  0  0  0  0  0  0  0  0  0
   -0.2026    1.5042    2.5436 C   0  0  0  0  0  0  0  0  0  0  0  0
    1.0868   -9.6979   -1.3746 C   0  0  0  0  0  0  0  0  0  0  0  0
    0.2849   -3.4055    2.6791 C   0  0  0  0  0  0  0  0  0  0  0  0
    3.9583   -1.4864    1.0569 H   0  0  0  0  0  0  0  0  0  0  0  0
   -0.3634   -1.6588    0.0398 H   0  0  0  0  0  0  0  0  0  0  0  0
    1.6936  -12.6371   -0.8558 H   0  0  0  0  0  0  0  0  0  0  0  0
    7.3713   -0.9332    0.1144 H   0  0  0  0  0  0  0  0  0  0  0  0
    7.3101    1.8224   -1.1820 H   0  0  0  0  0  0  0  0  0  0  0  0
    8.7492    0.7836   -1.0352 H   0  0  0  0  0  0  0  0  0  0  0  0
    7.3744    0.2758   -2.0442 H   0  0  0  0  0  0  0  0  0  0  0  0
    7.0812    0.2505    2.2734 H   0  0  0  0  0  0  0  0  0  0  0  0
    8.5218    0.7943    1.4708 H   0  0  0  0  0  0  0  0  0  0  0  0
    7.0665    1.8051    1.4593 H   0  0  0  0  0  0  0  0  0  0  0  0
    5.4605   -1.9998   -0.7644 H   0  0  0  0  0  0  0  0  0  0  0  0
    5.1132    2.1804    0.1430 H   0  0  0  0  0  0  0  0  0  0  0  0
    3.1465   -1.9832   -1.4474 H   0  0  0  0  0  0  0  0  0  0  0  0
    1.7221   -7.4957    0.0308 H   0  0  0  0  0  0  0  0  0  0  0  0
    1.7079   -4.8599   -3.3905 H   0  0  0  0  0  0  0  0  0  0  0  0
    3.8024   -2.7105    3.4994 H   0  0  0  0  0  0  0  0  0  0  0  0
    5.4779   -3.2742    3.3853 H   0  0  0  0  0  0  0  0  0  0  0  0
    3.0065    0.8558    1.9855 H   0  0  0  0  0  0  0  0  0  0  0  0
    1.1360   -6.8203   -4.7916 H   0  0  0  0  0  0  0  0  0  0  0  0
    5.4516   -0.7824    3.1732 H   0  0  0  0  0  0  0  0  0  0  0  0
    6.0744   -1.6696    1.7286 H   0  0  0  0  0  0  0  0  0  0  0  0
   -1.7568    0.0334    2.7357 H   0  0  0  0  0  0  0  0  0  0  0  0
    1.5139    2.7238    2.0402 H   0  0  0  0  0  0  0  0  0  0  0  0
   -0.8996    2.3234    2.3658 H   0  0  0  0  0  0  0  0  0  0  0  0
    0.4334   -3.7346    1.6569 H   0  0  0  0  0  0  0  0  0  0  0  0
    1.2254   -3.3496    3.2445 H   0  0  0  0  0  0  0  0  0  0  0  0
   -0.2773   -4.2662    3.0332 H   0  0  0  0  0  0  0  0  0  0  0  0
  1  3  2  0  0  0  0
  1  4  2  0  0  0  0
  1  8  1  0  0  0  0
  1 21  1  0  0  0  0
  2 26  1  0  0  0  0
  2 30  1  0  0  0  0
  5 27  1  0  0  0  0
  5 33  1  0  0  0  0
  6 34  1  0  0  0  0
  6 43  1  0  0  0  0
  7 38  1  0  0  0  0
  7 44  1  0  0  0  0
  8 25  1  0  0  0  0
  8 45  1  0  0  0  0
  9 21  2  0  0  0  0
  9 23  1  0  0  0  0
 10 25  1  0  0  0  0
 10 28  2  0  0  0  0
 11 27  2  0  0  0  0
 11 28  1  0  0  0  0
 12 35  2  0  0  0  0
 12 37  1  0  0  0  0
 13 15  1  0  0  0  0
 13 42  2  0  0  0  0
 14 16  2  0  0  0  0
 14 42  1  0  0  0  0
 15 16  1  0  0  0  0
 15 46  1  0  0  0  0
 17 18  1  0  0  0  0
 17 19  1  0  0  0  0
 17 20  1  0  0  0  0
 17 47  1  0  0  0  0
 18 22  1  0  0  0  0
 18 23  2  0  0  0  0
 19 48  1  0  0  0  0
 19 49  1  0  0  0  0
 19 50  1  0  0  0  0
 20 51  1  0  0  0  0
 20 52  1  0  0  0  0
 20 53  1  0  0  0  0
 21 24  1  0  0  0  0
 22 24  2  0  0  0  0
 22 54  1  0  0  0  0
 23 55  1  0  0  0  0
 24 56  1  0  0  0  0
 25 26  2  0  0  0  0
 26 27  1  0  0  0  0
 28 29  1  0  0  0  0
 29 31  2  0  0  0  0
 29 32  1  0  0  0  0
 30 34  1  0  0  0  0
 30 36  2  0  0  0  0
 31 35  1  0  0  0  0
 31 57  1  0  0  0  0
 32 37  2  0  0  0  0
 32 58  1  0  0  0  0
 33 38  1  0  0  0  0
 33 59  1  0  0  0  0
 33 60  1  0  0  0  0
 34 39  2  0  0  0  0
 35 42  1  0  0  0  0
 36 40  1  0  0  0  0
 36 61  1  0  0  0  0
 37 62  1  0  0  0  0
 38 63  1  0  0  0  0
 38 64  1  0  0  0  0
 39 41  1  0  0  0  0
 39 65  1  0  0  0  0
 40 41  2  0  0  0  0
 40 66  1  0  0  0  0
 41 67  1  0  0  0  0
 43 68  1  0  0  0  0
 43 69  1  0  0  0  0
 43 70  1  0  0  0  0
M  END
>  <DRUGBANK_ID>
DB06558

>  <COMMON_NAME>
Tezosentan

>  <CAS_NUMBER>
180384-57-0

>  <UNII>
64J9J55263

>  <SYNONYMS>
Tezosentan

$$$$
