
 OpenBabel10282417143D

215216  0  0  1  0  0  0  0  0999 V2000
  -16.5155   -8.7565  -12.7048 C   0  0  0  0  0  0  0  0  0  0  0  0
  -16.8907  -10.0908  -13.2658 C   0  0  0  0  0  0  0  0  0  0  0  0
  -18.3868  -10.2968  -13.1123 C   0  0  0  0  0  0  0  0  0  0  0  0
  -19.0430  -10.7680  -15.9957 C   0  0  0  0  0  0  0  0  0  0  0  0
  -18.7547   -9.3759  -15.4310 C   0  0  0  0  0  0  0  0  0  0  0  0
  -19.1495   -9.2752  -13.9513 C   0  0  0  0  0  0  0  0  0  0  0  0
  -20.5256  -11.0804  -15.8858 C   0  0  0  0  0  0  0  0  0  0  0  0
   -2.5982   -6.0204   -5.3752 C   0  0  1  0  0  0  0  0  0  0  0  0
   -2.0570   -4.7809   -4.8542 C   0  0  1  0  0  0  0  0  0  0  0  0
   -7.6753  -10.0511   -4.4576 C   0  0  2  0  0  0  0  0  0  0  0  0
   -5.2626  -11.2899   -4.8382 C   0  0  1  0  0  0  0  0  0  0  0  0
   -0.6452   -7.0220   -3.5434 P   0  0  0  0  0  0  0  0  0  0  0  0
   -6.8131  -11.3439   -4.9418 C   0  0  2  0  0  0  0  0  0  0  0  0
   -4.7265  -13.0325   -3.4682 P   0  0  0  0  0  0  0  0  0  0  0  0
   -3.0914   -4.4066   -3.3780 C   0  0  2  0  0  0  0  0  0  0  0  0
   -1.8979   -7.0346   -4.6578 O   0  0  0  0  0  0  0  0  0  0  0  0
   -4.0204   -5.6487   -4.9865 O   0  0  0  0  0  0  0  0  0  0  0  0
   -7.2296   -8.9869   -3.4676 C   0  0  1  0  0  0  0  0  0  0  0  0
   -5.9033   -9.3171   -3.5587 O   0  0  0  0  0  0  0  0  0  0  0  0
   -4.6696   -4.6628   -3.0155 C   0  0  1  0  0  0  0  0  0  0  0  0
   -4.9312  -10.3459   -3.7521 C   0  0  2  0  0  0  0  0  0  0  0  0
   -5.0915   -5.6998   -3.9094 C   0  0  1  0  0  0  0  0  0  0  0  0
   -0.7310   -4.3821   -5.2657 N   0  0  0  0  0  0  0  0  0  0  0  0
   -4.1481  -12.0762   -4.7887 O   0  0  0  0  0  0  0  0  0  0  0  0
   -9.0466  -10.1861   -4.3334 N   0  0  0  0  0  0  0  0  0  0  0  0
   -0.3912   -4.1752   -6.6258 C   0  0  0  0  0  0  0  0  0  0  0  0
    1.0675   -4.1511   -6.8638 C   0  0  0  0  0  0  0  0  0  0  0  0
   -7.4423   -7.4614   -3.3610 O   0  0  0  0  0  0  0  0  0  0  0  0
   -9.6166  -10.0492   -5.5914 C   0  0  0  0  0  0  0  0  0  0  0  0
    0.2164   -6.2281   -4.5675 O   0  0  0  0  0  0  0  0  0  0  0  0
   -1.6974   -6.1325   -2.8078 O   0  0  0  0  0  0  0  0  0  0  0  0
   -5.9486  -12.2315   -2.9039 O   0  0  0  0  0  0  0  0  0  0  0  0
   -5.5527  -13.8964   -4.5920 O   0  0  0  0  0  0  0  0  0  0  0  0
    0.3512   -6.4221   -2.6233 O   0  0  0  0  0  0  0  0  0  0  0  0
   -5.2442  -13.8885   -2.2864 O   0  0  0  0  0  0  0  0  0  0  0  0
   -6.8603   -6.1831   -4.0164 C   0  0  0  0  0  0  0  0  0  0  0  0
    1.5083   -4.8081   -8.1769 C   0  0  0  0  0  0  0  0  0  0  0  0
   -9.1281  -10.2423   -6.6220 O   0  0  0  0  0  0  0  0  0  0  0  0
   -6.9610  -11.5989   -6.3843 O   0  0  0  0  0  0  0  0  0  0  0  0
    2.1318   -4.1340   -9.0042 O   0  0  0  0  0  0  0  0  0  0  0  0
  -15.7378   -8.6217  -11.6349 C   0  0  0  0  0  0  0  0  0  0  0  0
   -2.6764   -3.1518   -3.0537 O   0  0  0  0  0  0  0  0  0  0  0  0
   -4.8869   -5.2261   -1.6752 O   0  0  0  0  0  0  0  0  0  0  0  0
   -3.4259  -10.1666   -3.7417 C   0  0  0  0  0  0  0  0  0  0  0  0
   -6.3877  -10.6743   -7.3891 C   0  0  0  0  0  0  0  0  0  0  0  0
   -6.7299   -9.1803   -7.4457 C   0  0  0  0  0  0  0  0  0  0  0  0
   -2.8025   -9.5672   -4.8821 O   0  0  0  0  0  0  0  0  0  0  0  0
   -6.0511   -7.1536   -6.8763 O   0  0  0  0  0  0  0  0  0  0  0  0
  -11.0304   -9.6925   -5.4355 C   0  0  0  0  0  0  0  0  0  0  0  0
   -6.3617   -8.3376   -6.2793 C   0  0  2  0  0  0  0  0  0  0  0  0
  -15.0627   -9.7837  -10.9796 C   0  0  0  0  0  0  0  0  0  0  0  0
    1.2376   -6.2763   -8.5303 C   0  0  0  0  0  0  0  0  0  0  0  0
   -3.3988   -2.2746   -3.8862 C   0  0  0  0  0  0  0  0  0  0  0  0
   -5.0996   -6.8492   -5.9923 C   0  0  0  0  0  0  0  0  0  0  0  0
   -2.7893   -9.9999   -6.2228 C   0  0  0  0  0  0  0  0  0  0  0  0
   -5.0411   -8.8120   -5.3338 C   0  0  0  0  0  0  0  0  0  0  0  0
  -11.3217   -8.3951   -6.1559 C   0  0  0  0  0  0  0  0  0  0  0  0
  -13.5601   -9.6364  -11.1359 C   0  0  0  0  0  0  0  0  0  0  0  0
    2.0678   -7.2864   -7.7321 C   0  0  0  0  0  0  0  0  0  0  0  0
   -3.1777   -2.2417   -5.4263 C   0  0  0  0  0  0  0  0  0  0  0  0
   -7.9428   -3.9332   -9.2279 C   0  0  0  0  0  0  0  0  0  0  0  0
   -0.8655  -12.2110   -2.8655 C   0  0  0  0  0  0  0  0  0  0  0  0
   -3.8561  -10.5440    0.0801 C   0  0  0  0  0  0  0  0  0  0  0  0
   -1.1849  -11.2681   -3.9684 C   0  0  0  0  0  0  0  0  0  0  0  0
   -4.6067  -11.1785   -0.9811 C   0  0  0  0  0  0  0  0  0  0  0  0
   -4.4189   -8.2115   -3.5734 C   0  0  0  0  0  0  0  0  0  0  0  0
   -7.1332   -5.0255   -8.5411 C   0  0  0  0  0  0  0  0  0  0  0  0
   -6.0154   -2.8924   -6.8798 C   0  0  0  0  0  0  0  0  0  0  0  0
   -5.4224   -3.2121   -8.2748 C   0  0  0  0  0  0  0  0  0  0  0  0
   -5.6487   -4.6961   -8.7100 C   0  0  0  0  0  0  0  0  0  0  0  0
  -11.3596   -9.6287   -8.3675 C   0  0  0  0  0  0  0  0  0  0  0  0
  -12.8795   -9.7261   -8.2743 C   0  0  0  0  0  0  0  0  0  0  0  0
  -13.5027   -8.4863   -8.9158 C   0  0  0  0  0  0  0  0  0  0  0  0
    1.5872   -7.2286   -6.3534 C   0  0  0  0  0  0  0  0  0  0  0  0
    0.1411   -7.6536   -6.4991 C   0  0  0  0  0  0  0  0  0  0  0  0
   -0.0229   -9.1030   -6.5180 C   0  0  0  0  0  0  0  0  0  0  0  0
    0.7116   -9.7787   -5.3232 C   0  0  0  0  0  0  0  0  0  0  0  0
    0.5023   -9.5048   -3.8050 C   0  0  0  0  0  0  0  0  0  0  0  0
   -0.8940   -9.7759   -3.4638 C   0  0  0  0  0  0  0  0  0  0  0  0
  -13.0860   -8.3954  -10.3882 C   0  0  0  0  0  0  0  0  0  0  0  0
   -5.7694  -10.1659   -1.3496 C   0  0  0  0  0  0  0  0  0  0  0  0
   -5.1535   -8.5446   -1.8126 C   0  0  0  0  0  0  0  0  0  0  0  0
  -10.8816   -8.3697   -7.6304 C   0  0  0  0  0  0  0  0  0  0  0  0
   -3.9019   -3.3507   -6.2330 C   0  0  0  0  0  0  0  0  0  0  0  0
   -5.3074   -3.8204   -6.0667 C   0  0  0  0  0  0  0  0  0  0  0  0
   -1.3837  -11.8113   -1.4986 C   0  0  0  0  0  0  0  0  0  0  0  0
   -7.5541   -3.8756  -10.6941 C   0  0  0  0  0  0  0  0  0  0  0  0
   -4.9652  -10.7063    1.0750 C   0  0  0  0  0  0  0  0  0  0  0  0
   -1.1731   -3.9747   -7.5654 O   0  0  0  0  0  0  0  0  0  0  0  0
  -16.9213   -7.8529  -13.1572 H   0  0  0  0  0  0  0  0  0  0  0  0
  -16.5283  -10.1576  -14.2929 H   0  0  0  0  0  0  0  0  0  0  0  0
  -16.4201  -10.9426  -12.7842 H   0  0  0  0  0  0  0  0  0  0  0  0
  -18.6283  -11.3236  -13.4085 H   0  0  0  0  0  0  0  0  0  0  0  0
  -18.6861  -10.2275  -12.0587 H   0  0  0  0  0  0  0  0  0  0  0  0
  -18.7200  -10.8160  -17.0395 H   0  0  0  0  0  0  0  0  0  0  0  0
  -18.4634  -11.5391  -15.4735 H   0  0  0  0  0  0  0  0  0  0  0  0
  -19.2900   -8.6128  -16.0024 H   0  0  0  0  0  0  0  0  0  0  0  0
  -17.6929   -9.1409  -15.5740 H   0  0  0  0  0  0  0  0  0  0  0  0
  -20.2228   -9.4205  -13.8108 H   0  0  0  0  0  0  0  0  0  0  0  0
  -18.9636   -8.2590  -13.5897 H   0  0  0  0  0  0  0  0  0  0  0  0
  -21.1023  -10.3291  -16.4330 H   0  0  0  0  0  0  0  0  0  0  0  0
  -20.7444  -12.0703  -16.2860 H   0  0  0  0  0  0  0  0  0  0  0  0
  -20.8695  -11.0774  -14.8465 H   0  0  0  0  0  0  0  0  0  0  0  0
   -2.5690   -6.2171   -6.5153 H   0  0  0  0  0  0  0  0  0  0  0  0
   -2.2743   -4.1231   -5.6078 H   0  0  0  0  0  0  0  0  0  0  0  0
   -7.6080   -9.6121   -5.3859 H   0  0  0  0  0  0  0  0  0  0  0  0
   -5.0045  -11.1293   -5.8086 H   0  0  0  0  0  0  0  0  0  0  0  0
   -7.2662  -12.1698   -4.3938 H   0  0  0  0  0  0  0  0  0  0  0  0
   -2.9353   -5.0359   -2.5298 H   0  0  0  0  0  0  0  0  0  0  0  0
   -7.6482   -9.2520   -2.4949 H   0  0  0  0  0  0  0  0  0  0  0  0
   -5.3848   -3.8647   -3.0884 H   0  0  0  0  0  0  0  0  0  0  0  0
   -4.7635  -10.6572   -2.8627 H   0  0  0  0  0  0  0  0  0  0  0  0
   -4.8941   -6.4672   -3.2711 H   0  0  0  0  0  0  0  0  0  0  0  0
   -0.0333   -4.8909   -4.7424 H   0  0  0  0  0  0  0  0  0  0  0  0
   -9.4463   -9.6792   -3.5602 H   0  0  0  0  0  0  0  0  0  0  0  0
    1.3239   -3.0888   -6.8973 H   0  0  0  0  0  0  0  0  0  0  0  0
    1.5965   -4.4870   -5.9750 H   0  0  0  0  0  0  0  0  0  0  0  0
    1.0007   -6.7999   -4.4407 H   0  0  0  0  0  0  0  0  0  0  0  0
   -2.3909   -6.4004   -3.4032 H   0  0  0  0  0  0  0  0  0  0  0  0
   -5.7902  -12.6367   -2.0179 H   0  0  0  0  0  0  0  0  0  0  0  0
   -6.0305  -13.3964   -5.2881 H   0  0  0  0  0  0  0  0  0  0  0  0
   -7.2648   -6.2304   -5.0328 H   0  0  0  0  0  0  0  0  0  0  0  0
   -7.3971   -5.3111   -3.6240 H   0  0  0  0  0  0  0  0  0  0  0  0
  -15.5573   -7.6155  -11.2579 H   0  0  0  0  0  0  0  0  0  0  0  0
   -4.3615   -6.0485   -1.5677 H   0  0  0  0  0  0  0  0  0  0  0  0
   -3.0792   -9.7340   -2.7631 H   0  0  0  0  0  0  0  0  0  0  0  0
   -3.0093  -11.0177   -3.2272 H   0  0  0  0  0  0  0  0  0  0  0  0
   -5.2932  -10.7435   -7.4495 H   0  0  0  0  0  0  0  0  0  0  0  0
   -6.6609  -11.1037   -8.3430 H   0  0  0  0  0  0  0  0  0  0  0  0
   -6.2731   -8.7091   -8.3240 H   0  0  0  0  0  0  0  0  0  0  0  0
   -7.7789   -8.9513   -7.5439 H   0  0  0  0  0  0  0  0  0  0  0  0
  -11.2853   -9.6521   -4.3802 H   0  0  0  0  0  0  0  0  0  0  0  0
  -11.4553  -10.5889   -5.8789 H   0  0  0  0  0  0  0  0  0  0  0  0
   -7.2157   -8.0680   -5.6621 H   0  0  0  0  0  0  0  0  0  0  0  0
  -15.4092   -9.8565   -9.9470 H   0  0  0  0  0  0  0  0  0  0  0  0
  -15.3126  -10.7586  -11.3841 H   0  0  0  0  0  0  0  0  0  0  0  0
    0.1523   -6.4286   -8.5333 H   0  0  0  0  0  0  0  0  0  0  0  0
    1.4794   -6.4700   -9.5722 H   0  0  0  0  0  0  0  0  0  0  0  0
   -4.4566   -2.4175   -3.7073 H   0  0  0  0  0  0  0  0  0  0  0  0
   -3.0799   -1.3592   -3.4434 H   0  0  0  0  0  0  0  0  0  0  0  0
   -5.6091   -7.1603   -5.0330 H   0  0  0  0  0  0  0  0  0  0  0  0
   -4.2852   -7.2129   -6.5909 H   0  0  0  0  0  0  0  0  0  0  0  0
   -4.2773   -7.3106   -5.3910 H   0  0  0  0  0  0  0  0  0  0  0  0
   -2.0804  -10.7446   -6.5493 H   0  0  0  0  0  0  0  0  0  0  0  0
   -3.6727  -10.4923   -6.4343 H   0  0  0  0  0  0  0  0  0  0  0  0
   -2.7693   -9.0933   -6.8743 H   0  0  0  0  0  0  0  0  0  0  0  0
   -5.6914   -9.6793   -5.4144 H   0  0  0  0  0  0  0  0  0  0  0  0
   -4.4062   -8.9250   -6.1903 H   0  0  0  0  0  0  0  0  0  0  0  0
  -10.8930   -7.5265   -5.6439 H   0  0  0  0  0  0  0  0  0  0  0  0
  -12.4066   -8.2885   -6.0800 H   0  0  0  0  0  0  0  0  0  0  0  0
  -13.0802  -10.5475  -10.7599 H   0  0  0  0  0  0  0  0  0  0  0  0
  -13.2712   -9.5830  -12.1917 H   0  0  0  0  0  0  0  0  0  0  0  0
    1.8959   -8.3235   -8.0392 H   0  0  0  0  0  0  0  0  0  0  0  0
    3.1362   -7.0924   -7.7208 H   0  0  0  0  0  0  0  0  0  0  0  0
   -3.5349   -1.3200   -5.8336 H   0  0  0  0  0  0  0  0  0  0  0  0
   -2.0886   -2.2812   -5.5778 H   0  0  0  0  0  0  0  0  0  0  0  0
   -9.0066   -4.1115   -9.0891 H   0  0  0  0  0  0  0  0  0  0  0  0
   -7.7680   -2.9521   -8.7699 H   0  0  0  0  0  0  0  0  0  0  0  0
   -1.3510  -13.1570   -3.1282 H   0  0  0  0  0  0  0  0  0  0  0  0
    0.2089  -12.2484   -2.8746 H   0  0  0  0  0  0  0  0  0  0  0  0
   -2.9735  -11.1254    0.3135 H   0  0  0  0  0  0  0  0  0  0  0  0
   -3.5074   -9.5709   -0.2710 H   0  0  0  0  0  0  0  0  0  0  0  0
   -2.1368  -11.6569   -4.3238 H   0  0  0  0  0  0  0  0  0  0  0  0
   -0.8822  -11.5149   -4.9829 H   0  0  0  0  0  0  0  0  0  0  0  0
   -4.8841  -12.1872   -0.6612 H   0  0  0  0  0  0  0  0  0  0  0  0
   -3.9142  -11.4628   -1.7433 H   0  0  0  0  0  0  0  0  0  0  0  0
   -3.3869   -8.3228   -3.1107 H   0  0  0  0  0  0  0  0  0  0  0  0
   -3.7213   -7.3601   -3.7250 H   0  0  0  0  0  0  0  0  0  0  0  0
   -7.3602   -6.0154   -8.9464 H   0  0  0  0  0  0  0  0  0  0  0  0
   -7.4205   -5.0776   -7.4814 H   0  0  0  0  0  0  0  0  0  0  0  0
   -7.0528   -3.1433   -6.6592 H   0  0  0  0  0  0  0  0  0  0  0  0
   -5.7463   -1.9420   -6.4145 H   0  0  0  0  0  0  0  0  0  0  0  0
   -5.8267   -2.4613   -8.9337 H   0  0  0  0  0  0  0  0  0  0  0  0
   -4.3453   -3.0399   -8.3902 H   0  0  0  0  0  0  0  0  0  0  0  0
   -5.2969   -4.8267   -9.7352 H   0  0  0  0  0  0  0  0  0  0  0  0
   -5.0265   -5.4417   -8.1910 H   0  0  0  0  0  0  0  0  0  0  0  0
  -10.9286  -10.5503   -7.9726 H   0  0  0  0  0  0  0  0  0  0  0  0
  -11.0018   -9.6149   -9.4015 H   0  0  0  0  0  0  0  0  0  0  0  0
  -13.2213   -9.8196   -7.2396 H   0  0  0  0  0  0  0  0  0  0  0  0
  -13.2182  -10.6579   -8.7368 H   0  0  0  0  0  0  0  0  0  0  0  0
  -13.2229   -7.5648   -8.4008 H   0  0  0  0  0  0  0  0  0  0  0  0
  -14.5867   -8.5153   -8.7831 H   0  0  0  0  0  0  0  0  0  0  0  0
    2.1523   -7.8261   -5.6373 H   0  0  0  0  0  0  0  0  0  0  0  0
    1.8167   -6.2459   -5.9648 H   0  0  0  0  0  0  0  0  0  0  0  0
   -0.3646   -7.6433   -5.5987 H   0  0  0  0  0  0  0  0  0  0  0  0
   -0.5807   -7.0274   -7.0426 H   0  0  0  0  0  0  0  0  0  0  0  0
   -1.0621   -9.1166   -6.3610 H   0  0  0  0  0  0  0  0  0  0  0  0
    0.0843   -9.5274   -7.5152 H   0  0  0  0  0  0  0  0  0  0  0  0
    0.5364  -10.8189   -5.5018 H   0  0  0  0  0  0  0  0  0  0  0  0
    1.7642   -9.6513   -5.4506 H   0  0  0  0  0  0  0  0  0  0  0  0
    1.0055  -10.1563   -3.1014 H   0  0  0  0  0  0  0  0  0  0  0  0
    0.8639   -8.5455   -3.4595 H   0  0  0  0  0  0  0  0  0  0  0  0
   -1.1673   -9.4219   -2.4459 H   0  0  0  0  0  0  0  0  0  0  0  0
   -1.3886   -8.9792   -3.9641 H   0  0  0  0  0  0  0  0  0  0  0  0
  -12.0049   -8.2896  -10.5114 H   0  0  0  0  0  0  0  0  0  0  0  0
  -13.4918   -7.4820  -10.8292 H   0  0  0  0  0  0  0  0  0  0  0  0
   -6.7121  -10.3094   -0.7937 H   0  0  0  0  0  0  0  0  0  0  0  0
   -6.3609  -10.5721   -2.1574 H   0  0  0  0  0  0  0  0  0  0  0  0
   -4.4932   -8.1895   -1.0364 H   0  0  0  0  0  0  0  0  0  0  0  0
   -6.0328   -7.9111   -1.6864 H   0  0  0  0  0  0  0  0  0  0  0  0
   -9.8011   -8.2537   -7.7438 H   0  0  0  0  0  0  0  0  0  0  0  0
  -11.2669   -7.4580   -8.0993 H   0  0  0  0  0  0  0  0  0  0  0  0
   -3.3575   -3.8652   -7.0646 H   0  0  0  0  0  0  0  0  0  0  0  0
   -3.7864   -3.9768   -5.4500 H   0  0  0  0  0  0  0  0  0  0  0  0
   -5.5110   -4.8318   -6.4070 H   0  0  0  0  0  0  0  0  0  0  0  0
   -5.6565   -3.8077   -5.0508 H   0  0  0  0  0  0  0  0  0  0  0  0
   -2.3923  -12.1797   -1.4557 H   0  0  0  0  0  0  0  0  0  0  0  0
   -0.9199  -12.3321   -0.6719 H   0  0  0  0  0  0  0  0  0  0  0  0
   -1.3847  -10.7460   -1.2514 H   0  0  0  0  0  0  0  0  0  0  0  0
   -7.7616   -4.8427  -11.1564 H   0  0  0  0  0  0  0  0  0  0  0  0
   -8.0957   -3.0816  -11.2009 H   0  0  0  0  0  0  0  0  0  0  0  0
   -6.4891   -3.6612  -10.8467 H   0  0  0  0  0  0  0  0  0  0  0  0
   -5.2758  -11.7696    1.0995 H   0  0  0  0  0  0  0  0  0  0  0  0
   -4.6432  -10.3623    2.0219 H   0  0  0  0  0  0  0  0  0  0  0  0
   -5.8815  -10.1740    0.7999 H   0  0  0  0  0  0  0  0  0  0  0  0
  1 90  1  0  0  0  0
  2  1  1  0  0  0  0
  2 91  1  0  0  0  0
  2 92  1  0  0  0  0
  3  2  1  0  0  0  0
  3 93  1  0  0  0  0
  3 94  1  0  0  0  0
  4  5  1  0  0  0  0
  4 95  1  0  0  0  0
  4 96  1  0  0  0  0
  5  6  1  0  0  0  0
  5 97  1  0  0  0  0
  5 98  1  0  0  0  0
  6  3  1  0  0  0  0
  6 99  1  0  0  0  0
  6100  1  0  0  0  0
  7  4  1  0  0  0  0
  7101  1  0  0  0  0
  7102  1  0  0  0  0
  7103  1  0  0  0  0
  8104  1  6  0  0  0
  8 16  1  0  0  0  0
  9  8  1  0  0  0  0
  9105  1  6  0  0  0
  9 23  1  0  0  0  0
 10 25  1  0  0  0  0
 10 13  1  0  0  0  0
 10106  1  6  0  0  0
 11 24  1  0  0  0  0
 11 21  1  0  0  0  0
 11107  1  6  0  0  0
 12 16  1  0  0  0  0
 13 39  1  0  0  0  0
 13 11  1  0  0  0  0
 13108  1  1  0  0  0
 14 24  1  0  0  0  0
 15 42  1  0  0  0  0
 15 20  1  0  0  0  0
 15  9  1  0  0  0  0
 15109  1  1  0  0  0
 17  8  1  0  0  0  0
 18 10  1  0  0  0  0
 18 28  1  0  0  0  0
 18110  1  1  0  0  0
 19 18  1  0  0  0  0
 20 43  1  0  0  0  0
 20 22  1  0  0  0  0
 20111  1  6  0  0  0
 21 19  1  0  0  0  0
 21112  1  1  0  0  0
 21 44  1  0  0  0  0
 22 17  1  0  0  0  0
 22 36  1  0  0  0  0
 22113  1  1  0  0  0
 23114  1  0  0  0  0
 25115  1  0  0  0  0
 26 23  1  0  0  0  0
 26 89  2  0  0  0  0
 27 26  1  0  0  0  0
 27116  1  0  0  0  0
 27117  1  0  0  0  0
 28 36  1  0  0  0  0
 29 25  1  0  0  0  0
 30 12  1  0  0  0  0
 30118  1  0  0  0  0
 31 12  1  0  0  0  0
 31119  1  0  0  0  0
 32 14  1  0  0  0  0
 32120  1  0  0  0  0
 33 14  1  0  0  0  0
 33121  1  0  0  0  0
 34 12  2  0  0  0  0
 35 14  2  0  0  0  0
 36122  1  0  0  0  0
 36123  1  0  0  0  0
 37 27  1  0  0  0  0
 38 29  2  0  0  0  0
 40 37  2  0  0  0  0
 41 51  1  0  0  0  0
 41  1  2  0  0  0  0
 41124  1  0  0  0  0
 43125  1  0  0  0  0
 44126  1  0  0  0  0
 44127  1  0  0  0  0
 45 39  1  0  0  0  0
 45128  1  0  0  0  0
 45129  1  0  0  0  0
 46 45  1  0  0  0  0
 46130  1  0  0  0  0
 46131  1  0  0  0  0
 47 44  1  0  0  0  0
 49 29  1  0  0  0  0
 49132  1  0  0  0  0
 49133  1  0  0  0  0
 50134  1  1  0  0  0
 50 46  1  0  0  0  0
 50 48  1  0  0  0  0
 51 58  1  0  0  0  0
 51135  1  0  0  0  0
 51136  1  0  0  0  0
 52 37  1  0  0  0  0
 52137  1  0  0  0  0
 52138  1  0  0  0  0
 53 42  1  0  0  0  0
 53139  1  0  0  0  0
 53140  1  0  0  0  0
 54 48  1  0  0  0  0
 54141  1  0  0  0  0
 54142  1  0  0  0  0
 54143  1  0  0  0  0
 55 47  1  0  0  0  0
 55144  1  0  0  0  0
 55145  1  0  0  0  0
 55146  1  0  0  0  0
 56 50  1  0  0  0  0
 56147  1  0  0  0  0
 56148  1  0  0  0  0
 57 49  1  0  0  0  0
 57149  1  0  0  0  0
 57150  1  0  0  0  0
 58 80  1  0  0  0  0
 58151  1  0  0  0  0
 58152  1  0  0  0  0
 59 52  1  0  0  0  0
 59153  1  0  0  0  0
 59154  1  0  0  0  0
 60 53  1  0  0  0  0
 60155  1  0  0  0  0
 60156  1  0  0  0  0
 61 67  1  0  0  0  0
 61157  1  0  0  0  0
 61158  1  0  0  0  0
 62 64  1  0  0  0  0
 62159  1  0  0  0  0
 62160  1  0  0  0  0
 63 65  1  0  0  0  0
 63161  1  0  0  0  0
 63162  1  0  0  0  0
 64 79  1  0  0  0  0
 64163  1  0  0  0  0
 64164  1  0  0  0  0
 65 81  1  0  0  0  0
 65165  1  0  0  0  0
 65166  1  0  0  0  0
 66 56  1  0  0  0  0
 66167  1  0  0  0  0
 66168  1  0  0  0  0
 67 70  1  0  0  0  0
 67169  1  0  0  0  0
 67170  1  0  0  0  0
 68 85  1  0  0  0  0
 68171  1  0  0  0  0
 68172  1  0  0  0  0
 69 68  1  0  0  0  0
 69173  1  0  0  0  0
 69174  1  0  0  0  0
 70 69  1  0  0  0  0
 70175  1  0  0  0  0
 70176  1  0  0  0  0
 71 83  1  0  0  0  0
 71177  1  0  0  0  0
 71178  1  0  0  0  0
 72 71  1  0  0  0  0
 72179  1  0  0  0  0
 72180  1  0  0  0  0
 73 72  1  0  0  0  0
 73181  1  0  0  0  0
 73182  1  0  0  0  0
 74 59  1  0  0  0  0
 74183  1  0  0  0  0
 74184  1  0  0  0  0
 75 74  1  0  0  0  0
 75185  1  0  0  0  0
 75186  1  0  0  0  0
 76 75  1  0  0  0  0
 76187  1  0  0  0  0
 76188  1  0  0  0  0
 77 76  1  0  0  0  0
 77189  1  0  0  0  0
 77190  1  0  0  0  0
 78 77  1  0  0  0  0
 78191  1  0  0  0  0
 78192  1  0  0  0  0
 79 78  1  0  0  0  0
 79193  1  0  0  0  0
 79194  1  0  0  0  0
 80 73  1  0  0  0  0
 80195  1  0  0  0  0
 80196  1  0  0  0  0
 81 82  1  0  0  0  0
 81197  1  0  0  0  0
 81198  1  0  0  0  0
 82 66  1  0  0  0  0
 82199  1  0  0  0  0
 82200  1  0  0  0  0
 83 57  1  0  0  0  0
 83201  1  0  0  0  0
 83202  1  0  0  0  0
 84 60  1  0  0  0  0
 84203  1  0  0  0  0
 84204  1  0  0  0  0
 85 84  1  0  0  0  0
 85205  1  0  0  0  0
 85206  1  0  0  0  0
 86 62  1  0  0  0  0
 86207  1  0  0  0  0
 86208  1  0  0  0  0
 86209  1  0  0  0  0
 87 61  1  0  0  0  0
 87210  1  0  0  0  0
 87211  1  0  0  0  0
 87212  1  0  0  0  0
 88 63  1  0  0  0  0
 88213  1  0  0  0  0
 88214  1  0  0  0  0
 88215  1  0  0  0  0
M  END
>  <DRUGBANK_ID>
DB04933

>  <COMMON_NAME>
Eritoran

>  <CAS_NUMBER>
185955-34-4

>  <UNII>
551541VI0Y

>  <SYNONYMS>
Eritoran; Eritorán; Éritoran; Eritoranum

$$$$
