
 OpenBabel10282417233D

 56 55  0  0  0  0  0  0  0  0999 V2000
    1.0865    0.0729    0.1675 C   0  0  0  0  0  0  0  0  0  0  0  0
    0.6725    1.4606   -0.2944 C   0  0  0  0  0  0  0  0  0  0  0  0
    1.1671    1.7281   -1.7166 C   0  0  0  0  0  0  0  0  0  0  0  0
    0.5885    0.7221   -2.7168 C   0  0  0  0  0  0  0  0  0  0  0  0
   -0.9426    0.7686   -2.7161 C   0  0  0  0  0  0  0  0  0  0  0  0
   -1.4296    2.1612   -3.1298 C   0  0  0  0  0  0  0  0  0  0  0  0
   -0.9398    2.4831   -4.5450 C   0  0  0  0  0  0  0  0  0  0  0  0
   -1.4726    1.4268   -5.5168 C   0  0  0  0  0  0  0  0  0  0  0  0
   -3.0054    1.4177   -5.4554 C   0  0  0  0  0  0  0  0  0  0  0  0
   -3.5386    2.7861   -5.8856 C   0  0  0  0  0  0  0  0  0  0  0  0
   -3.0429    3.0900   -7.2956 C   0  0  0  0  0  0  0  0  0  0  0  0
   -3.5459    1.9923   -8.2356 C   0  0  0  0  0  0  0  0  0  0  0  0
   -5.0542    2.0878   -8.4082 C   0  0  0  0  0  0  0  0  0  0  0  0
   -5.5431    3.4733   -8.8433 C   0  0  0  0  0  0  0  0  0  0  0  0
   -5.0643    3.8966  -10.2489 N   0  3  0  0  0  0  0  0  0  0  0  0
   -5.5670    2.8799  -11.2571 C   0  0  0  0  0  0  0  0  0  0  0  0
   -5.6698    5.2691  -10.5389 C   0  0  0  0  0  0  0  0  0  0  0  0
   -3.5581    4.0962  -10.4225 C   0  0  0  0  0  0  0  0  0  0  0  0
    0.6630   -0.7141   -0.4650 H   0  0  0  0  0  0  0  0  0  0  0  0
    0.7386   -0.1152    1.1841 H   0  0  0  0  0  0  0  0  0  0  0  0
    2.1760   -0.0198    0.1370 H   0  0  0  0  0  0  0  0  0  0  0  0
   -0.4175    1.5609   -0.2286 H   0  0  0  0  0  0  0  0  0  0  0  0
    1.0777    2.2195    0.3807 H   0  0  0  0  0  0  0  0  0  0  0  0
    0.9059    2.7543   -2.0032 H   0  0  0  0  0  0  0  0  0  0  0  0
    2.2597    1.6902   -1.7535 H   0  0  0  0  0  0  0  0  0  0  0  0
    0.9954    0.9269   -3.7132 H   0  0  0  0  0  0  0  0  0  0  0  0
    0.9260   -0.2952   -2.5040 H   0  0  0  0  0  0  0  0  0  0  0  0
   -1.3305   -0.0140   -3.3770 H   0  0  0  0  0  0  0  0  0  0  0  0
   -1.3635    0.5041   -1.7430 H   0  0  0  0  0  0  0  0  0  0  0  0
   -2.5206    2.2059   -3.0539 H   0  0  0  0  0  0  0  0  0  0  0  0
   -1.1021    2.9392   -2.4367 H   0  0  0  0  0  0  0  0  0  0  0  0
   -1.2517    3.4944   -4.8239 H   0  0  0  0  0  0  0  0  0  0  0  0
    0.1503    2.5307   -4.6069 H   0  0  0  0  0  0  0  0  0  0  0  0
   -1.0856    1.6208   -6.5219 H   0  0  0  0  0  0  0  0  0  0  0  0
   -1.0865    0.4267   -5.3050 H   0  0  0  0  0  0  0  0  0  0  0  0
   -3.3960    0.5985   -6.0621 H   0  0  0  0  0  0  0  0  0  0  0  0
   -3.3945    1.1667   -4.4667 H   0  0  0  0  0  0  0  0  0  0  0  0
   -4.6297    2.8014   -5.8297 H   0  0  0  0  0  0  0  0  0  0  0  0
   -3.2300    3.5870   -5.2062 H   0  0  0  0  0  0  0  0  0  0  0  0
   -3.3687    4.0948   -7.5695 H   0  0  0  0  0  0  0  0  0  0  0  0
   -1.9538    3.1700   -7.3573 H   0  0  0  0  0  0  0  0  0  0  0  0
   -2.9985    1.9916   -9.1701 H   0  0  0  0  0  0  0  0  0  0  0  0
   -3.2977    0.9872   -7.8897 H   0  0  0  0  0  0  0  0  0  0  0  0
   -5.4032    1.2968   -9.0727 H   0  0  0  0  0  0  0  0  0  0  0  0
   -5.5382    1.8466   -7.4506 H   0  0  0  0  0  0  0  0  0  0  0  0
   -6.6414    3.4611   -8.8710 H   0  0  0  0  0  0  0  0  0  0  0  0
   -5.2721    4.2645   -8.1397 H   0  0  0  0  0  0  0  0  0  0  0  0
   -6.6537    2.8267  -11.1774 H   0  0  0  0  0  0  0  0  0  0  0  0
   -5.2510    3.1942  -12.2537 H   0  0  0  0  0  0  0  0  0  0  0  0
   -5.1193    1.9066  -11.0302 H   0  0  0  0  0  0  0  0  0  0  0  0
   -5.2846    5.9734   -9.7972 H   0  0  0  0  0  0  0  0  0  0  0  0
   -5.3576    5.5691  -11.5437 H   0  0  0  0  0  0  0  0  0  0  0  0
   -6.7589    5.1929  -10.4801 H   0  0  0  0  0  0  0  0  0  0  0  0
   -3.1666    4.6805   -9.5980 H   0  0  0  0  0  0  0  0  0  0  0  0
   -3.0657    3.1268  -10.5393 H   0  0  0  0  0  0  0  0  0  0  0  0
   -3.3795    4.6162  -11.3676 H   0  0  0  0  0  0  0  0  0  0  0  0
  1  2  1  0  0  0  0
  1 19  1  0  0  0  0
  1 20  1  0  0  0  0
  1 21  1  0  0  0  0
  2  3  1  0  0  0  0
  2 22  1  0  0  0  0
  2 23  1  0  0  0  0
  3  4  1  0  0  0  0
  3 24  1  0  0  0  0
  3 25  1  0  0  0  0
  4  5  1  0  0  0  0
  4 26  1  0  0  0  0
  4 27  1  0  0  0  0
  5  6  1  0  0  0  0
  5 28  1  0  0  0  0
  5 29  1  0  0  0  0
  6  7  1  0  0  0  0
  6 30  1  0  0  0  0
  6 31  1  0  0  0  0
  7  8  1  0  0  0  0
  7 32  1  0  0  0  0
  7 33  1  0  0  0  0
  8  9  1  0  0  0  0
  8 34  1  0  0  0  0
  8 35  1  0  0  0  0
  9 10  1  0  0  0  0
  9 36  1  0  0  0  0
  9 37  1  0  0  0  0
 10 11  1  0  0  0  0
 10 38  1  0  0  0  0
 10 39  1  0  0  0  0
 11 12  1  0  0  0  0
 11 40  1  0  0  0  0
 11 41  1  0  0  0  0
 12 13  1  0  0  0  0
 12 42  1  0  0  0  0
 12 43  1  0  0  0  0
 13 14  1  0  0  0  0
 13 44  1  0  0  0  0
 13 45  1  0  0  0  0
 14 15  1  0  0  0  0
 14 46  1  0  0  0  0
 14 47  1  0  0  0  0
 15 16  1  0  0  0  0
 15 17  1  0  0  0  0
 15 18  1  0  0  0  0
 16 48  1  0  0  0  0
 16 49  1  0  0  0  0
 16 50  1  0  0  0  0
 17 51  1  0  0  0  0
 17 52  1  0  0  0  0
 17 53  1  0  0  0  0
 18 54  1  0  0  0  0
 18 55  1  0  0  0  0
 18 56  1  0  0  0  0
M  CHG  1  15   1
M  END
>  <DRUGBANK_ID>
DB17342

>  <COMMON_NAME>
Trimethyltetradecylammonium

>  <CAS_NUMBER>
10182-92-0

>  <UNII>
Y3IR7RCT6J

>  <SYNONYMS>
1-tetradecanaminium, n,n,n-trimethyl-; Ammonium, trimethyltetradecyl-; Myristyltrimethylammonium; Tetradecyltrimethylammonium; Tetradonium; Tetradonium cation; Tetradonium ion

$$$$
