NDF
 OpenBabel10282417173D

 28 28  0  0  0  0  0  0  0  0999 V2000
   -1.0262    5.3986   -2.7713 C   0  0  0  0  0  0  0  0  0  0  0  0
   -1.0587    6.7557   -3.0906 C   0  0  0  0  0  0  0  0  0  0  0  0
   -0.3779    7.6751   -2.2946 C   0  0  0  0  0  0  0  0  0  0  0  0
    0.2879    7.2481   -1.1483 C   0  0  0  0  0  0  0  0  0  0  0  0
    0.2703    5.9024   -0.7946 C   0  0  0  0  0  0  0  0  0  0  0  0
   -0.3124    4.9580   -1.6480 C   0  0  0  0  0  0  0  0  0  0  0  0
   -0.0891    3.4881   -1.4065 C   0  0  0  0  0  0  0  0  0  0  0  0
    1.3838    3.0310   -1.4314 C   0  0  2  0  0  0  0  0  0  0  0  0
    1.7832    2.2992   -0.1632 C   0  0  0  0  0  0  0  0  0  0  0  0
    1.6613    1.0973   -0.0105 O   0  0  0  0  0  0  0  0  0  0  0  0
    2.2070    3.0888    0.8371 O   0  0  0  0  0  0  0  0  0  0  0  0
    2.3639    3.9909   -1.9014 N   0  0  0  0  0  0  0  0  0  0  0  0
    3.1048    4.0578   -3.0583 C   0  0  0  0  0  0  0  0  0  0  0  0
    3.8248    5.0491   -3.1908 O   0  0  0  0  0  0  0  0  0  0  0  0
    3.1187    2.9764   -4.2044 C   0  0  0  0  0  0  0  0  0  0  0  0
    2.3790    1.8707   -4.2063 O   0  0  0  0  0  0  0  0  0  0  0  0
    3.8611    3.1671   -5.1585 O   0  0  0  0  0  0  0  0  0  0  0  0
    1.3977    2.2270   -2.1301 H   0  0  0  0  0  0  0  0  0  0  0  0
   -1.5427    4.6944   -3.4208 H   0  0  0  0  0  0  0  0  0  0  0  0
   -1.5898    7.0943   -3.9766 H   0  0  0  0  0  0  0  0  0  0  0  0
   -0.3705    8.7277   -2.5638 H   0  0  0  0  0  0  0  0  0  0  0  0
    0.8422    7.9588   -0.5415 H   0  0  0  0  0  0  0  0  0  0  0  0
    0.7719    5.5862    0.1173 H   0  0  0  0  0  0  0  0  0  0  0  0
   -0.5821    3.1864   -0.4762 H   0  0  0  0  0  0  0  0  0  0  0  0
   -0.6011    2.9285   -2.2033 H   0  0  0  0  0  0  0  0  0  0  0  0
    2.3582    2.4668    1.5829 H   0  0  0  0  0  0  0  0  0  0  0  0
    2.5294    4.8083   -1.3167 H   0  0  0  0  0  0  0  0  0  0  0  0
    1.7801    1.5524   -3.5250 H   0  0  0  0  0  0  0  0  0  0  0  0
  1  2  2  0  0  0  0
  1  6  1  0  0  0  0
  1 19  1  0  0  0  0
  2  3  1  0  0  0  0
  2 20  1  0  0  0  0
  3  4  2  0  0  0  0
  3 21  1  0  0  0  0
  4  5  1  0  0  0  0
  4 22  1  0  0  0  0
  5  6  2  0  0  0  0
  5 23  1  0  0  0  0
  6  7  1  0  0  0  0
  7 24  1  0  0  0  0
  7 25  1  0  0  0  0
  8 12  1  0  0  0  0
  8 18  1  6  0  0  0
  8  9  1  0  0  0  0
  8  7  1  0  0  0  0
  9 10  2  0  0  0  0
  9 11  1  0  0  0  0
 11 26  1  0  0  0  0
 12 13  1  0  0  0  0
 12 27  1  0  0  0  0
 13 14  2  0  0  0  0
 13 15  1  0  0  0  0
 15 16  1  0  0  0  0
 15 17  2  0  0  0  0
 16 28  1  0  0  0  0
M  END
>  <DRUGBANK_ID>
DB08263

>  <COMMON_NAME>
N-(carboxycarbonyl)-D-phenylalanine

>  <CAS_NUMBER>
856680-67-6

$$$$
