
 OpenBabel10282417133D

 16 16  0  0  0  0  0  0  0  0999 V2000
    1.6818   -1.3353   -0.0009 O   0  0  0  0  0  0  0  0  0  0  0  0
    0.4773   -0.6889   -0.0011 C   0  0  0  0  0  0  0  0  0  0  0  0
   -0.7323   -1.3803   -0.0090 C   0  0  0  0  0  0  0  0  0  0  0  0
   -1.9353   -0.6601   -0.0107 C   0  0  0  0  0  0  0  0  0  0  0  0
   -1.9073    0.7460    0.0054 C   0  0  0  0  0  0  0  0  0  0  0  0
   -0.6906    1.4346    0.0159 C   0  0  0  0  0  0  0  0  0  0  0  0
    0.4902    0.7063    0.0061 C   0  0  0  0  0  0  0  0  0  0  0  0
    1.6696    1.3947   -0.0001 O   0  0  0  0  0  0  0  0  0  0  0  0
   -3.1635    1.5070    0.0093 N   0  3  0  0  0  0  0  0  0  0  0  0
   -3.0890    2.7450    0.0281 O   0  5  0  0  0  0  0  0  0  0  0  0
   -4.2243    0.8687   -0.0063 O   0  0  0  0  0  0  0  0  0  0  0  0
    1.5262   -2.2961    0.0037 H   0  0  0  0  0  0  0  0  0  0  0  0
   -0.7643   -2.4663   -0.0159 H   0  0  0  0  0  0  0  0  0  0  0  0
   -2.8800   -1.2018   -0.0241 H   0  0  0  0  0  0  0  0  0  0  0  0
   -0.6444    2.5198    0.0293 H   0  0  0  0  0  0  0  0  0  0  0  0
    2.3731    0.7172   -0.0215 H   0  0  0  0  0  0  0  0  0  0  0  0
  1  2  1  0  0  0  0
  1 12  1  0  0  0  0
  2  3  2  0  0  0  0
  2  7  1  0  0  0  0
  3  4  1  0  0  0  0
  3 13  1  0  0  0  0
  4  5  2  0  0  0  0
  4 14  1  0  0  0  0
  5  6  1  0  0  0  0
  5  9  1  0  0  0  0
  6  7  2  0  0  0  0
  6 15  1  0  0  0  0
  7  8  1  0  0  0  0
  8 16  1  0  0  0  0
  9 10  1  0  0  0  0
  9 11  2  0  0  0  0
M  CHG  2   9   1  10  -1
M  END
>  <DRUGBANK_ID>
DB03407

>  <SECONDARY_ACCESSION_NUMBERS>
EXPT00222

>  <COMMON_NAME>
4-Nitrocatechol

>  <CAS_NUMBER>
3316-09-4

>  <UNII>
SW60NG75EN

$$$$
