
 OpenBabel10282417133D

 31 33  0  0  1  0  0  0  0  0999 V2000
   -0.0236   -1.2074    0.5155 C   0  0  0  0  0  0  0  0  0  0  0  0
    0.6300    1.6772    1.8180 C   0  0  0  0  0  0  0  0  0  0  0  0
    2.2128   -3.0471   -0.1922 C   0  0  0  0  0  0  0  0  0  0  0  0
   -0.8351    0.0582    0.5196 C   0  0  1  0  0  0  0  0  0  0  0  0
    0.2331    1.1519    0.4338 C   0  0  2  0  0  0  0  0  0  0  0  0
    1.1808   -0.8394   -0.3455 C   0  0  2  0  0  0  0  0  0  0  0  0
    4.1382   -2.7082    0.6150 C   0  0  0  0  0  0  0  0  0  0  0  0
    5.4347   -2.8070    1.1424 C   0  0  0  0  0  0  0  0  0  0  0  0
    3.5940   -1.4359    0.4484 C   0  0  0  0  0  0  0  0  0  0  0  0
    5.4763   -0.4973    1.2101 C   0  0  0  0  0  0  0  0  0  0  0  0
    6.1989    0.5957    1.5048 F   0  0  0  0  0  0  0  0  0  0  0  0
    6.0259   -4.0312    1.3655 N   0  0  0  0  0  0  0  0  0  0  0  0
    3.2729   -3.6958    0.2219 N   0  0  0  0  0  0  0  0  0  0  0  0
    6.1008   -1.6776    1.4319 N   0  0  0  0  0  0  0  0  0  0  0  0
    4.2183   -0.2806    0.7357 N   0  0  0  0  0  0  0  0  0  0  0  0
    2.3331   -1.6797   -0.0430 N   0  0  0  0  0  0  0  0  0  0  0  0
    0.0158    2.9400    2.0564 O   0  0  0  0  0  0  0  0  0  0  0  0
   -1.7038    0.0477   -0.6146 O   0  0  0  0  0  0  0  0  0  0  0  0
    1.4106    0.5594   -0.1713 O   0  0  0  0  0  0  0  0  0  0  0  0
   -1.4757    0.1402    1.4032 H   0  0  0  0  0  0  0  0  0  0  0  0
   -0.1052    1.9698   -0.2136 H   0  0  0  0  0  0  0  0  0  0  0  0
    0.9601   -0.9961   -1.4096 H   0  0  0  0  0  0  0  0  0  0  0  0
    0.2963   -1.4530    1.5353 H   0  0  0  0  0  0  0  0  0  0  0  0
   -0.5644   -2.0671    0.1059 H   0  0  0  0  0  0  0  0  0  0  0  0
    0.3048    1.0004    2.6149 H   0  0  0  0  0  0  0  0  0  0  0  0
    1.7141    1.7956    1.9117 H   0  0  0  0  0  0  0  0  0  0  0  0
    1.3144   -3.5054   -0.5790 H   0  0  0  0  0  0  0  0  0  0  0  0
    5.5005   -4.8650    1.1366 H   0  0  0  0  0  0  0  0  0  0  0  0
    6.9597   -4.0741    1.7394 H   0  0  0  0  0  0  0  0  0  0  0  0
    0.3819    3.5629    1.4025 H   0  0  0  0  0  0  0  0  0  0  0  0
   -1.1862    0.1238   -1.4331 H   0  0  0  0  0  0  0  0  0  0  0  0
  1 23  1  0  0  0  0
  1 24  1  0  0  0  0
  2 25  1  0  0  0  0
  2 26  1  0  0  0  0
  3 27  1  0  0  0  0
  4  1  1  0  0  0  0
  4 18  1  0  0  0  0
  4 20  1  1  0  0  0
  5  4  1  0  0  0  0
  5 21  1  6  0  0  0
  5  2  1  0  0  0  0
  6  1  1  0  0  0  0
  6 22  1  6  0  0  0
  6 16  1  0  0  0  0
  8  7  2  0  0  0  0
  9  7  1  0  0  0  0
 11 10  1  0  0  0  0
 12  8  1  0  0  0  0
 12 28  1  0  0  0  0
 12 29  1  0  0  0  0
 13  3  2  0  0  0  0
 13  7  1  0  0  0  0
 14  8  1  0  0  0  0
 14 10  2  0  0  0  0
 15  9  2  0  0  0  0
 15 10  1  0  0  0  0
 16  3  1  0  0  0  0
 16  9  1  0  0  0  0
 17  2  1  0  0  0  0
 17 30  1  0  0  0  0
 18 31  1  0  0  0  0
 19  5  1  0  0  0  0
 19  6  1  0  0  0  0
M  END
>  <DRUGBANK_ID>
DB02947

>  <SECONDARY_ACCESSION_NUMBERS>
EXPT00115

>  <COMMON_NAME>
2-Fluoro-2'-Deoxyadenosine

>  <UNII>
2T63DT4KWU

$$$$
