
 OpenBabel10282417193D

 40 41  0  0  1  0  0  0  0  0999 V2000
    0.8674   -1.1479    2.2765 C   0  0  0  0  0  0  0  0  0  0  0  0
    0.4245   -1.1285    0.8070 C   0  0  2  0  0  0  0  0  0  0  0  0
    1.0570    0.0382    0.0352 C   0  0  0  0  0  0  0  0  0  0  0  0
    2.5507    0.1057    0.3488 C   0  0  0  0  0  0  0  0  0  0  0  0
    3.1966   -1.2822    0.1220 C   0  0  0  0  0  0  0  0  0  0  0  0
    3.2607   -1.5740   -1.3722 C   0  0  0  0  0  0  0  0  0  0  0  0
    3.9733   -0.5378   -2.1084 N   0  0  0  0  0  0  0  0  0  0  0  0
    5.1193    0.0197   -1.5335 C   0  0  0  0  0  0  0  0  0  0  0  0
    5.6230   -0.2969   -0.4548 O   0  0  0  0  0  0  0  0  0  0  0  0
    5.6859    1.0517   -2.2960 C   0  0  0  0  0  0  0  0  0  0  0  0
    5.2146    1.4312   -3.5120 C   0  0  0  0  0  0  0  0  0  0  0  0
    5.9927    2.4140   -4.0461 N   0  0  0  0  0  0  0  0  0  0  0  0
    6.9267    2.6370   -3.1350 C   0  0  0  0  0  0  0  0  0  0  0  0
    6.7623    1.8426   -2.0347 N   0  0  0  0  0  0  0  0  0  0  0  0
    7.5689    1.8186   -0.8366 C   0  0  0  0  0  0  0  0  0  0  0  0
    4.1033    0.8338   -4.0643 N   0  0  0  0  0  0  0  0  0  0  0  0
    3.4372   -0.1680   -3.3563 C   0  0  0  0  0  0  0  0  0  0  0  0
    2.4214   -0.7091   -3.8033 O   0  0  0  0  0  0  0  0  0  0  0  0
    3.6135    1.2102   -5.3734 C   0  0  0  0  0  0  0  0  0  0  0  0
   -0.9880   -1.0733    0.7208 O   0  0  0  0  0  0  0  0  0  0  0  0
    0.3884   -0.3368    2.8288 H   0  0  0  0  0  0  0  0  0  0  0  0
    1.9471   -1.0453    2.4307 H   0  0  0  0  0  0  0  0  0  0  0  0
    0.6170   -2.1028    2.7394 H   0  0  0  0  0  0  0  0  0  0  0  0
    0.7037   -2.0713    0.3226 H   0  0  0  0  0  0  0  0  0  0  0  0
    0.8981   -0.0967   -1.0449 H   0  0  0  0  0  0  0  0  0  0  0  0
    0.5680    0.9915    0.2640 H   0  0  0  0  0  0  0  0  0  0  0  0
    3.0198    0.8981   -0.2434 H   0  0  0  0  0  0  0  0  0  0  0  0
    2.7085    0.4428    1.3790 H   0  0  0  0  0  0  0  0  0  0  0  0
    4.1642   -1.3432    0.6184 H   0  0  0  0  0  0  0  0  0  0  0  0
    2.6705   -2.1093    0.6050 H   0  0  0  0  0  0  0  0  0  0  0  0
    3.7358   -2.5380   -1.5712 H   0  0  0  0  0  0  0  0  0  0  0  0
    2.2325   -1.6725   -1.7473 H   0  0  0  0  0  0  0  0  0  0  0  0
    7.7357    3.3502   -3.2180 H   0  0  0  0  0  0  0  0  0  0  0  0
    6.9381    2.0769    0.0203 H   0  0  0  0  0  0  0  0  0  0  0  0
    7.9838    0.8143   -0.7084 H   0  0  0  0  0  0  0  0  0  0  0  0
    8.3823    2.5412   -0.9238 H   0  0  0  0  0  0  0  0  0  0  0  0
    3.3537    2.2716   -5.3725 H   0  0  0  0  0  0  0  0  0  0  0  0
    4.3901    1.0037   -6.1143 H   0  0  0  0  0  0  0  0  0  0  0  0
    2.7210    0.6399   -5.6504 H   0  0  0  0  0  0  0  0  0  0  0  0
   -1.2740   -0.2554    1.1565 H   0  0  0  0  0  0  0  0  0  0  0  0
  1 21  1  0  0  0  0
  1 22  1  0  0  0  0
  1 23  1  0  0  0  0
  2 20  1  0  0  0  0
  2 24  1  6  0  0  0
  2  3  1  0  0  0  0
  2  1  1  0  0  0  0
  3  4  1  0  0  0  0
  3 25  1  0  0  0  0
  3 26  1  0  0  0  0
  4  5  1  0  0  0  0
  4 27  1  0  0  0  0
  4 28  1  0  0  0  0
  5  6  1  0  0  0  0
  5 29  1  0  0  0  0
  5 30  1  0  0  0  0
  6  7  1  0  0  0  0
  6 31  1  0  0  0  0
  6 32  1  0  0  0  0
  7  8  1  0  0  0  0
  7 17  1  0  0  0  0
  8  9  2  0  0  0  0
  8 10  1  0  0  0  0
 10 11  2  0  0  0  0
 10 14  1  0  0  0  0
 11 12  1  0  0  0  0
 11 16  1  0  0  0  0
 12 13  2  0  0  0  0
 13 14  1  0  0  0  0
 13 33  1  0  0  0  0
 14 15  1  0  0  0  0
 15 34  1  0  0  0  0
 15 35  1  0  0  0  0
 15 36  1  0  0  0  0
 16 17  1  0  0  0  0
 16 19  1  0  0  0  0
 17 18  2  0  0  0  0
 19 37  1  0  0  0  0
 19 38  1  0  0  0  0
 19 39  1  0  0  0  0
 20 40  1  0  0  0  0
M  END
>  <DRUGBANK_ID>
DB12406

>  <COMMON_NAME>
Lisofylline

>  <CAS_NUMBER>
100324-81-0

>  <UNII>
L1F2Q2X956

>  <SYNONYMS>
Lisofylline

$$$$
