U1K
 OpenBabel10282417143D

 32 32  0  0  0  0  0  0  0  0999 V2000
   -1.2090   -2.6011   -0.0560 O   0  0  0  0  0  0  0  0  0  0  0  0
   -1.9864   -1.5120   -0.2737 C   0  0  0  0  0  0  0  0  0  0  0  0
   -3.1377   -1.4028    0.0883 O   0  0  0  0  0  0  0  0  0  0  0  0
   -1.2889   -0.4569   -1.0954 C   0  0  2  0  0  0  0  0  0  0  0  0
    0.2141   -0.4900   -0.9304 C   0  0  0  0  0  0  0  0  0  0  0  0
    0.8164   -0.1304    0.4323 C   0  0  0  0  0  0  0  0  0  0  0  0
    1.9048    0.7309    0.6200 C   0  0  0  0  0  0  0  0  0  0  0  0
    2.3780    0.6959    2.2956 S   0  0  0  0  0  0  0  0  0  0  0  0
    1.1898   -0.2886    2.7945 N   0  0  0  0  0  0  0  0  0  0  0  0
    0.4519   -0.6191    1.7567 C   0  0  0  0  0  0  0  0  0  0  0  0
   -0.5864   -1.3737    2.0155 O   0  5  0  0  0  0  0  0  0  0  0  0
    2.7169    1.6196   -0.3049 C   0  0  0  0  0  0  0  0  0  0  0  0
    2.5821    3.0781    0.1687 C   0  0  0  0  0  0  0  0  0  0  0  0
    4.1827    1.1639   -0.2959 C   0  0  0  0  0  0  0  0  0  0  0  0
    2.2519    1.5944   -1.7631 C   0  0  0  0  0  0  0  0  0  0  0  0
   -1.7692    0.9680   -0.8639 N   0  3  0  0  0  0  0  0  0  0  0  0
   -1.5599   -0.6595   -2.1420 H   0  0  0  0  0  0  0  0  0  0  0  0
   -0.9491   -2.4810    0.9224 H   0  0  0  0  0  0  0  0  0  0  0  0
    0.6477   -1.4254   -1.3044 H   0  0  0  0  0  0  0  0  0  0  0  0
    0.4952    0.2199   -1.6945 H   0  0  0  0  0  0  0  0  0  0  0  0
    2.9757    3.2233    1.1795 H   0  0  0  0  0  0  0  0  0  0  0  0
    3.1265    3.7533   -0.4959 H   0  0  0  0  0  0  0  0  0  0  0  0
    1.5277    3.3863    0.1830 H   0  0  0  0  0  0  0  0  0  0  0  0
    4.2645    0.1155   -0.6110 H   0  0  0  0  0  0  0  0  0  0  0  0
    4.7810    1.7754   -0.9758 H   0  0  0  0  0  0  0  0  0  0  0  0
    4.6337    1.2431    0.6980 H   0  0  0  0  0  0  0  0  0  0  0  0
    2.3305    0.5813   -2.1779 H   0  0  0  0  0  0  0  0  0  0  0  0
    1.2254    1.9751   -1.8450 H   0  0  0  0  0  0  0  0  0  0  0  0
    2.8567    2.2316   -2.4111 H   0  0  0  0  0  0  0  0  0  0  0  0
   -1.4220    1.6220   -1.5747 H   0  0  0  0  0  0  0  0  0  0  0  0
   -2.7953    0.9938   -0.8360 H   0  0  0  0  0  0  0  0  0  0  0  0
   -1.4321    1.2750    0.0627 H   0  0  0  0  0  0  0  0  0  0  0  0
  1  2  1  0  0  0  0
  1 18  1  0  0  0  0
  2  3  2  0  0  0  0
  4 16  1  0  0  0  0
  4 17  1  6  0  0  0
  4  5  1  0  0  0  0
  4  2  1  0  0  0  0
  5  6  1  0  0  0  0
  5 19  1  0  0  0  0
  5 20  1  0  0  0  0
  6  7  2  0  0  0  0
  6 10  1  0  0  0  0
  7  8  1  0  0  0  0
  7 12  1  0  0  0  0
  8  9  1  0  0  0  0
  9 10  2  0  0  0  0
 10 11  1  0  0  0  0
 12 13  1  0  0  0  0
 12 14  1  0  0  0  0
 12 15  1  0  0  0  0
 13 21  1  0  0  0  0
 13 22  1  0  0  0  0
 13 23  1  0  0  0  0
 14 24  1  0  0  0  0
 14 25  1  0  0  0  0
 14 26  1  0  0  0  0
 15 27  1  0  0  0  0
 15 28  1  0  0  0  0
 15 29  1  0  0  0  0
 16 30  1  0  0  0  0
 16 31  1  0  0  0  0
 16 32  1  0  0  0  0
M  CHG  2  11  -1  16   1
M  END
>  <DRUGBANK_ID>
DB04798

>  <COMMON_NAME>
THIO-ATPA

$$$$
