HFP
 OpenBabel10282417163D

 53 52  0  0  0  0  0  0  0  0999 V2000
   -3.4747  -10.7557   -3.1962 P   0  0  0  0  0  0  0  0  0  0  0  0
   -4.5628  -10.0408   -3.9380 O   0  0  0  0  0  0  0  0  0  0  0  0
   -3.2009  -12.2504   -3.7116 O   0  0  0  0  0  0  0  0  0  0  0  0
   -3.7588  -11.0047   -1.6368 O   0  0  0  0  0  0  0  0  0  0  0  0
   -1.8537   -9.9645   -3.3137 C   0  0  2  0  0  0  0  0  0  0  0  0
   -1.2135  -10.0877   -2.0380 O   0  0  0  0  0  0  0  0  0  0  0  0
   -1.8516   -8.5167   -3.8055 C   0  0  0  0  0  0  0  0  0  0  0  0
   -0.4382   -7.9029   -3.9305 C   0  0  2  0  0  0  0  0  0  0  0  0
    0.5877   -8.8803   -4.5166 C   0  0  0  0  0  0  0  0  0  0  0  0
    0.0576   -7.3666   -2.5776 C   0  0  0  0  0  0  0  0  0  0  0  0
    1.4222   -6.6997   -2.6408 C   0  0  0  0  0  0  0  0  0  0  0  0
    1.5067   -5.5206   -3.6020 C   0  0  0  0  0  0  0  0  0  0  0  0
    0.8958   -4.2309   -3.0488 C   0  0  2  0  0  0  0  0  0  0  0  0
    1.4245   -3.9517   -1.6391 C   0  0  0  0  0  0  0  0  0  0  0  0
   -0.6457   -4.1866   -3.0549 C   0  0  0  0  0  0  0  0  0  0  0  0
   -1.1765   -2.8437   -2.5521 C   0  0  0  0  0  0  0  0  0  0  0  0
   -0.7315   -1.6897   -3.4441 C   0  0  0  0  0  0  0  0  0  0  0  0
   -1.2111   -1.8692   -4.8928 C   0  0  0  0  0  0  0  0  0  0  0  0
   -2.7374   -1.9170   -4.9481 C   0  0  0  0  0  0  0  0  0  0  0  0
   -0.6644   -0.7523   -5.7673 C   0  0  0  0  0  0  0  0  0  0  0  0
   -1.2909  -10.5674   -4.0336 H   0  0  0  0  0  0  0  0  0  0  0  0
   -0.5422   -7.0599   -4.6264 H   0  0  0  0  0  0  0  0  0  0  0  0
    1.2692   -3.4493   -3.7205 H   0  0  0  0  0  0  0  0  0  0  0  0
   -2.6589  -12.3131   -4.5216 H   0  0  0  0  0  0  0  0  0  0  0  0
   -2.9706  -11.1933   -1.0882 H   0  0  0  0  0  0  0  0  0  0  0  0
   -1.4031   -9.2613   -1.5565 H   0  0  0  0  0  0  0  0  0  0  0  0
   -2.3445   -8.4714   -4.7866 H   0  0  0  0  0  0  0  0  0  0  0  0
   -2.4662   -7.8957   -3.1402 H   0  0  0  0  0  0  0  0  0  0  0  0
    1.5828   -8.4388   -4.6076 H   0  0  0  0  0  0  0  0  0  0  0  0
    0.7059   -9.7589   -3.8744 H   0  0  0  0  0  0  0  0  0  0  0  0
    0.2922   -9.2046   -5.5163 H   0  0  0  0  0  0  0  0  0  0  0  0
   -0.6968   -6.7104   -2.1466 H   0  0  0  0  0  0  0  0  0  0  0  0
    0.1636   -8.1603   -1.8395 H   0  0  0  0  0  0  0  0  0  0  0  0
    1.7060   -6.4107   -1.6252 H   0  0  0  0  0  0  0  0  0  0  0  0
    2.1811   -7.4366   -2.9177 H   0  0  0  0  0  0  0  0  0  0  0  0
    2.5724   -5.3256   -3.7855 H   0  0  0  0  0  0  0  0  0  0  0  0
    1.0959   -5.7502   -4.5917 H   0  0  0  0  0  0  0  0  0  0  0  0
    0.8181   -4.4802   -0.8928 H   0  0  0  0  0  0  0  0  0  0  0  0
    2.4630   -4.2764   -1.5312 H   0  0  0  0  0  0  0  0  0  0  0  0
    1.3895   -2.8856   -1.4066 H   0  0  0  0  0  0  0  0  0  0  0  0
   -1.0336   -4.4331   -4.0510 H   0  0  0  0  0  0  0  0  0  0  0  0
   -1.0869   -4.9222   -2.3887 H   0  0  0  0  0  0  0  0  0  0  0  0
   -2.2679   -2.8881   -2.4779 H   0  0  0  0  0  0  0  0  0  0  0  0
   -0.8425   -2.6689   -1.5238 H   0  0  0  0  0  0  0  0  0  0  0  0
   -1.1085   -0.7508   -3.0250 H   0  0  0  0  0  0  0  0  0  0  0  0
    0.3612   -1.5978   -3.4220 H   0  0  0  0  0  0  0  0  0  0  0  0
   -0.8184   -2.8033   -5.3116 H   0  0  0  0  0  0  0  0  0  0  0  0
   -3.1640   -1.0030   -4.5228 H   0  0  0  0  0  0  0  0  0  0  0  0
   -3.0909   -2.0289   -5.9754 H   0  0  0  0  0  0  0  0  0  0  0  0
   -3.1383   -2.7666   -4.3853 H   0  0  0  0  0  0  0  0  0  0  0  0
    0.4312   -0.7676   -5.7660 H   0  0  0  0  0  0  0  0  0  0  0  0
   -1.0001   -0.8809   -6.8006 H   0  0  0  0  0  0  0  0  0  0  0  0
   -0.9976    0.2247   -5.4076 H   0  0  0  0  0  0  0  0  0  0  0  0
  1  2  2  0  0  0  0
  1  3  1  0  0  0  0
  1  4  1  0  0  0  0
  3 24  1  0  0  0  0
  4 25  1  0  0  0  0
  5  7  1  0  0  0  0
  5 21  1  6  0  0  0
  5  6  1  0  0  0  0
  5  1  1  0  0  0  0
  6 26  1  0  0  0  0
  7 27  1  0  0  0  0
  7 28  1  0  0  0  0
  8 10  1  0  0  0  0
  8 22  1  6  0  0  0
  8  9  1  0  0  0  0
  8  7  1  0  0  0  0
  9 29  1  0  0  0  0
  9 30  1  0  0  0  0
  9 31  1  0  0  0  0
 10 11  1  0  0  0  0
 10 32  1  0  0  0  0
 10 33  1  0  0  0  0
 11 12  1  0  0  0  0
 11 34  1  0  0  0  0
 11 35  1  0  0  0  0
 12 36  1  0  0  0  0
 12 37  1  0  0  0  0
 13 15  1  0  0  0  0
 13 23  1  6  0  0  0
 13 14  1  0  0  0  0
 13 12  1  0  0  0  0
 14 38  1  0  0  0  0
 14 39  1  0  0  0  0
 14 40  1  0  0  0  0
 15 16  1  0  0  0  0
 15 41  1  0  0  0  0
 15 42  1  0  0  0  0
 16 17  1  0  0  0  0
 16 43  1  0  0  0  0
 16 44  1  0  0  0  0
 17 18  1  0  0  0  0
 17 45  1  0  0  0  0
 17 46  1  0  0  0  0
 18 19  1  0  0  0  0
 18 20  1  0  0  0  0
 18 47  1  0  0  0  0
 19 48  1  0  0  0  0
 19 49  1  0  0  0  0
 19 50  1  0  0  0  0
 20 51  1  0  0  0  0
 20 52  1  0  0  0  0
 20 53  1  0  0  0  0
M  END
>  <DRUGBANK_ID>
DB07895

>  <COMMON_NAME>
ALPHA-HYDROXYFARNESYLPHOSPHONIC ACID

$$$$
