
 OpenBabel10282417123D

 44 45  0  0  0  0  0  0  0  0999 V2000
    1.0498    0.0855   -0.0146 P   0  0  1  0  0  0  0  0  0  0  0  0
    3.4231    1.2427   -1.2299 P   0  0  2  0  0  0  0  0  0  0  0  0
    0.8280    1.4148   -2.3330 P   0  0  0  0  0  0  0  0  0  0  0  0
   -1.5073   -1.5759   -0.9128 O   0  0  0  0  0  0  0  0  0  0  0  0
   -1.2881   -3.2264   -3.2881 O   0  0  0  0  0  0  0  0  0  0  0  0
    1.1388   -1.4149    0.8184 O   0  0  0  0  0  0  0  0  0  0  0  0
    1.5702    0.6569   -1.2408 O   0  0  0  0  0  0  0  0  0  0  0  0
    0.9821   -0.9813   -1.3256 O   0  0  0  0  0  0  0  0  0  0  0  0
   -0.4986    0.0855   -0.0146 O   0  0  0  0  0  0  0  0  0  0  0  0
    1.9135    2.0853   -1.1647 O   0  0  0  0  0  0  0  0  0  0  0  0
   -0.1837    5.1611    0.0589 O   0  0  0  0  0  0  0  0  0  0  0  0
    4.3171    1.8596    0.0049 O   0  0  0  0  0  0  0  0  0  0  0  0
    3.9392    2.2494   -2.2871 O   0  0  0  0  0  0  0  0  0  0  0  0
    2.1885    0.4023   -3.0236 O   0  0  0  0  0  0  0  0  0  0  0  0
    0.5027    2.9502   -2.6602 O   0  0  0  0  0  0  0  0  0  0  0  0
   -0.1436    0.8148   -3.3786 O   0  0  0  0  0  0  0  0  0  0  0  0
   -1.1564    1.3232   -1.3089 N   0  0  0  0  0  0  0  0  0  0  0  0
    0.4310    2.9955   -0.0064 N   0  0  0  0  0  0  0  0  0  0  0  0
    2.8298    0.0855   -0.0146 N   0  0  0  0  0  0  0  0  0  0  0  0
   -0.2022   -2.5958   -2.6440 C   0  0  2  0  0  0  0  0  0  0  0  0
   -0.4282   -2.6097   -1.1077 C   0  0  1  0  0  0  0  0  0  0  0  0
   -0.4449   -1.2056   -3.1163 C   0  0  0  0  0  0  0  0  0  0  0  0
   -1.4070   -0.4077   -1.9569 C   0  0  1  0  0  0  0  0  0  0  0  0
    0.9719   -2.5986   -0.1093 C   0  0  0  0  0  0  0  0  0  0  0  0
    0.3045    1.6961   -0.5681 C   0  0  0  0  0  0  0  0  0  0  0  0
   -2.1059    2.3180   -1.3285 C   0  0  0  0  0  0  0  0  0  0  0  0
   -1.8481    3.5327   -0.7572 C   0  0  0  0  0  0  0  0  0  0  0  0
   -0.5008    3.9898   -0.1300 C   0  0  0  0  0  0  0  0  0  0  0  0
    1.3987    3.3530   -0.1854 H   0  0  0  0  0  0  0  0  0  0  0  0
    3.0759    0.3583    0.9209 H   0  0  0  0  0  0  0  0  0  0  0  0
   -2.0364   -2.6698   -2.9826 H   0  0  0  0  0  0  0  0  0  0  0  0
    1.8073   -0.8281   -1.7927 H   0  0  0  0  0  0  0  0  0  0  0  0
    4.7178    1.1897    0.5931 H   0  0  0  0  0  0  0  0  0  0  0  0
    2.6950   -0.0234   -3.7368 H   0  0  0  0  0  0  0  0  0  0  0  0
   -0.2744    2.9652   -2.0514 H   0  0  0  0  0  0  0  0  0  0  0  0
    0.7918   -2.9463   -2.9912 H   0  0  0  0  0  0  0  0  0  0  0  0
   -0.8668   -3.5672   -0.8557 H   0  0  0  0  0  0  0  0  0  0  0  0
    0.5945   -0.9197   -3.3104 H   0  0  0  0  0  0  0  0  0  0  0  0
   -0.8291   -1.0470   -4.1350 H   0  0  0  0  0  0  0  0  0  0  0  0
   -2.4135   -0.3275   -2.3441 H   0  0  0  0  0  0  0  0  0  0  0  0
    1.9033   -2.6134   -0.7461 H   0  0  0  0  0  0  0  0  0  0  0  0
    1.0533   -3.5347    0.4257 H   0  0  0  0  0  0  0  0  0  0  0  0
   -2.9115    2.0575   -2.0157 H   0  0  0  0  0  0  0  0  0  0  0  0
   -2.5157    4.3720   -0.9175 H   0  0  0  0  0  0  0  0  0  0  0  0
  1  9  2  1  0  0  0
  1 19  1  0  0  0  0
  1  8  1  0  0  0  0
  1  6  1  0  0  0  0
  2 10  1  0  0  0  0
  2 12  1  0  0  0  0
  2 13  2  6  0  0  0
  2 19  1  0  0  0  0
  3 10  1  0  0  0  0
  3 14  1  0  0  0  0
  3 15  1  0  0  0  0
  3 16  2  0  0  0  0
  4 21  1  0  0  0  0
  4 23  1  0  0  0  0
  5 31  1  0  0  0  0
  6 24  1  0  0  0  0
  7 25  2  0  0  0  0
  8 32  1  0  0  0  0
 11 28  2  0  0  0  0
 12 33  1  0  0  0  0
 14 34  1  0  0  0  0
 15 35  1  0  0  0  0
 17 25  1  0  0  0  0
 17 26  1  0  0  0  0
 18 25  1  0  0  0  0
 18 28  1  0  0  0  0
 18 29  1  0  0  0  0
 19 30  1  0  0  0  0
 20  5  1  0  0  0  0
 20 21  1  0  0  0  0
 20 22  1  0  0  0  0
 20 36  1  6  0  0  0
 21 24  1  0  0  0  0
 21 37  1  1  0  0  0
 22 23  1  0  0  0  0
 22 38  1  0  0  0  0
 22 39  1  0  0  0  0
 23 40  1  6  0  0  0
 23 17  1  0  0  0  0
 24 41  1  0  0  0  0
 24 42  1  0  0  0  0
 26 27  2  0  0  0  0
 26 43  1  0  0  0  0
 27 28  1  0  0  0  0
 27 44  1  0  0  0  0
M  END
>  <DRUGBANK_ID>
DB01965

>  <SECONDARY_ACCESSION_NUMBERS>
EXPT01299

>  <COMMON_NAME>
2'-Deoxyuridine 5'-alpha,beta-imido-triphosphate

$$$$
