
 OpenBabel10282417243D

  4  3  0  0  0  0  0  0  0  0999 V2000
    0.9473    0.0642   -0.0556 O   0  5  0  0  0  0  0  0  0  0  0  0
    2.7973    0.0642   -0.0556 As  0  0  0  0  0  0  0  0  0  0  0  0
    3.4139    0.0529   -1.7998 O   0  5  0  0  0  0  0  0  0  0  0  0
    3.4139    1.5804    0.8067 O   0  5  0  0  0  0  0  0  0  0  0  0
  1  2  1  0  0  0  0
  2  3  1  0  0  0  0
  2  4  1  0  0  0  0
M  CHG  3   1  -1   3  -1   4  -1
M  END
>  <DRUGBANK_ID>
DB18509

>  <COMMON_NAME>
Arsenite ion

>  <CAS_NUMBER>
15502-74-6

>  <UNII>
N5509X556J

>  <SYNONYMS>
Arsenite; Arsenite anion; Ortho-arsenite

$$$$
