
 OpenBabel10282417213D

 81 82  0  0  0  0  0  0  0  0999 V2000
    1.0003   -0.0870    0.0130 C   0  0  0  0  0  0  0  0  0  0  0  0
    0.9159   -1.0018   -2.3179 C   0  0  0  0  0  0  0  0  0  0  0  0
   -3.2349    2.9704   -2.5002 C   0  0  0  0  0  0  0  0  0  0  0  0
    1.0621    4.7393   -5.8725 C   0  0  0  0  0  0  0  0  0  0  0  0
   -1.6273    5.5843  -11.4979 C   0  0  0  0  0  0  0  0  0  0  0  0
   -1.2368    5.0885   -8.6196 C   0  0  0  0  0  0  0  0  0  0  0  0
   -2.1721    0.6130  -12.2509 C   0  0  0  0  0  0  0  0  0  0  0  0
   -3.2364    1.0073   -7.0738 C   0  0  0  0  0  0  0  0  0  0  0  0
   -1.6820    1.2734   -0.4844 C   0  0  0  0  0  0  0  0  0  0  0  0
    0.4130    4.3222   -2.9294 C   0  0  0  0  0  0  0  0  0  0  0  0
    0.4344    0.9052   -5.7287 C   0  0  0  0  0  0  0  0  0  0  0  0
   -1.1170    0.1386   -1.3536 C   0  0  0  0  0  0  0  0  0  0  0  0
   -1.2483    2.6596   -0.9608 C   0  0  0  0  0  0  0  0  0  0  0  0
   -1.1247    4.3140   -2.8785 C   0  0  0  0  0  0  0  0  0  0  0  0
    0.9905    3.2527   -3.8554 C   0  0  0  0  0  0  0  0  0  0  0  0
    1.0665    2.2308   -6.1601 C   0  0  0  0  0  0  0  0  0  0  0  0
   -1.7003    0.1011   -9.4684 C   0  0  0  0  0  0  0  0  0  0  0  0
   -1.1033    0.8858   -5.7886 C   0  0  0  0  0  0  0  0  0  0  0  0
   -1.0961    0.0184   -8.0990 C   0  0  0  0  0  0  0  0  0  0  0  0
    0.4225    0.1003   -1.3864 C   0  0  0  0  0  0  0  0  0  0  0  0
   -1.7108    2.9784   -2.3915 C   0  0  3  0  0  0  0  0  0  0  0  0
    0.5612    3.4132   -5.3198 C   0  0  3  0  0  0  0  0  0  0  0  0
   -1.6448    4.1805  -10.9395 C   0  0  0  0  0  0  0  0  0  0  0  0
   -1.4664    3.9314   -9.5571 C   0  0  0  0  0  0  0  0  0  0  0  0
   -1.8960    1.7696  -11.3288 C   0  0  0  0  0  0  0  0  0  0  0  0
   -1.6821    1.5248   -9.9626 C   0  0  0  0  0  0  0  0  0  0  0  0
   -1.8735    3.0920  -11.8018 C   0  0  0  0  0  0  0  0  0  0  0  0
   -1.5122    2.5999   -9.0721 C   0  0  0  0  0  0  0  0  0  0  0  0
   -1.7051    1.0918   -7.2014 C   0  0  3  0  0  0  0  0  0  0  0  0
   -2.0956    3.2616  -13.1387 O   0  0  0  0  0  0  0  0  0  0  0  0
   -1.3982    2.4093   -7.7095 O   0  0  0  0  0  0  0  0  0  0  0  0
    0.6367   -1.0185    0.4569 H   0  0  0  0  0  0  0  0  0  0  0  0
    0.7229    0.7383    0.6757 H   0  0  0  0  0  0  0  0  0  0  0  0
    2.0929   -0.1130   -0.0169 H   0  0  0  0  0  0  0  0  0  0  0  0
    0.5975   -1.9880   -1.9716 H   0  0  0  0  0  0  0  0  0  0  0  0
    0.5226   -0.8672   -3.3278 H   0  0  0  0  0  0  0  0  0  0  0  0
    2.0093   -0.9880   -2.3812 H   0  0  0  0  0  0  0  0  0  0  0  0
   -3.6759    3.7246   -1.8434 H   0  0  0  0  0  0  0  0  0  0  0  0
   -3.5542    3.1623   -3.5288 H   0  0  0  0  0  0  0  0  0  0  0  0
   -3.6477    1.9940   -2.2265 H   0  0  0  0  0  0  0  0  0  0  0  0
    2.1471    4.8150   -5.7857 H   0  0  0  0  0  0  0  0  0  0  0  0
    0.8055    4.8484   -6.9236 H   0  0  0  0  0  0  0  0  0  0  0  0
    0.6024    5.5800   -5.3431 H   0  0  0  0  0  0  0  0  0  0  0  0
   -0.8476    5.6758  -12.2611 H   0  0  0  0  0  0  0  0  0  0  0  0
   -2.6017    5.8192  -11.9390 H   0  0  0  0  0  0  0  0  0  0  0  0
   -1.4246    6.3567  -10.7529 H   0  0  0  0  0  0  0  0  0  0  0  0
   -0.3003    5.5988   -8.8789 H   0  0  0  0  0  0  0  0  0  0  0  0
   -2.0644    5.8022   -8.6772 H   0  0  0  0  0  0  0  0  0  0  0  0
   -1.1791    4.7797   -7.5768 H   0  0  0  0  0  0  0  0  0  0  0  0
   -1.3158   -0.0696  -12.2624 H   0  0  0  0  0  0  0  0  0  0  0  0
   -3.0610    0.0744  -11.9025 H   0  0  0  0  0  0  0  0  0  0  0  0
   -2.3590    0.9157  -13.2818 H   0  0  0  0  0  0  0  0  0  0  0  0
   -3.5566    0.0238   -6.7199 H   0  0  0  0  0  0  0  0  0  0  0  0
   -3.6050    1.7731   -6.3810 H   0  0  0  0  0  0  0  0  0  0  0  0
   -3.7400    1.2139   -8.0237 H   0  0  0  0  0  0  0  0  0  0  0  0
   -2.7732    1.2065   -0.4561 H   0  0  0  0  0  0  0  0  0  0  0  0
   -1.3666    1.1466    0.5558 H   0  0  0  0  0  0  0  0  0  0  0  0
    0.7619    5.3123   -3.2332 H   0  0  0  0  0  0  0  0  0  0  0  0
    0.8322    4.1748   -1.9298 H   0  0  0  0  0  0  0  0  0  0  0  0
    0.8546    0.0854   -6.3204 H   0  0  0  0  0  0  0  0  0  0  0  0
    0.7495    0.6733   -4.7113 H   0  0  0  0  0  0  0  0  0  0  0  0
   -1.5037    0.2213   -2.3772 H   0  0  0  0  0  0  0  0  0  0  0  0
   -1.5029   -0.8151   -0.9765 H   0  0  0  0  0  0  0  0  0  0  0  0
   -1.6204    3.4274   -0.2734 H   0  0  0  0  0  0  0  0  0  0  0  0
   -0.1584    2.7127   -0.8860 H   0  0  0  0  0  0  0  0  0  0  0  0
   -1.5288    4.5413   -3.8725 H   0  0  0  0  0  0  0  0  0  0  0  0
   -1.4629    5.1266   -2.2274 H   0  0  0  0  0  0  0  0  0  0  0  0
    2.0849    3.2525   -3.7920 H   0  0  0  0  0  0  0  0  0  0  0  0
    0.6859    2.2768   -3.4802 H   0  0  0  0  0  0  0  0  0  0  0  0
    0.8706    2.4074   -7.2215 H   0  0  0  0  0  0  0  0  0  0  0  0
    2.1560    2.1529   -6.0817 H   0  0  0  0  0  0  0  0  0  0  0  0
   -1.1152   -0.5541  -10.1204 H   0  0  0  0  0  0  0  0  0  0  0  0
   -2.7308   -0.2670   -9.4507 H   0  0  0  0  0  0  0  0  0  0  0  0
   -1.4388   -0.0825   -5.3891 H   0  0  0  0  0  0  0  0  0  0  0  0
   -1.5176    1.6328   -5.1079 H   0  0  0  0  0  0  0  0  0  0  0  0
   -0.0169    0.1870   -8.2170 H   0  0  0  0  0  0  0  0  0  0  0  0
   -1.2270   -0.9845   -7.6773 H   0  0  0  0  0  0  0  0  0  0  0  0
    0.8118    1.0423   -1.7805 H   0  0  0  0  0  0  0  0  0  0  0  0
   -1.3578    2.1955   -3.0630 H   0  0  0  0  0  0  0  0  0  0  0  0
   -0.5304    3.4391   -5.3867 H   0  0  0  0  0  0  0  0  0  0  0  0
   -2.0650    4.2091  -13.3653 H   0  0  0  0  0  0  0  0  0  0  0  0
  1 32  1  0  0  0  0
  1 33  1  0  0  0  0
  1 34  1  0  0  0  0
  2 35  1  0  0  0  0
  2 36  1  0  0  0  0
  2 37  1  0  0  0  0
  3 38  1  0  0  0  0
  3 39  1  0  0  0  0
  3 40  1  0  0  0  0
  4 41  1  0  0  0  0
  4 42  1  0  0  0  0
  4 43  1  0  0  0  0
  5 44  1  0  0  0  0
  5 45  1  0  0  0  0
  5 46  1  0  0  0  0
  6 47  1  0  0  0  0
  6 48  1  0  0  0  0
  6 49  1  0  0  0  0
  7 50  1  0  0  0  0
  7 51  1  0  0  0  0
  7 52  1  0  0  0  0
  8 53  1  0  0  0  0
  8 54  1  0  0  0  0
  8 55  1  0  0  0  0
  9 56  1  0  0  0  0
  9 57  1  0  0  0  0
 10 58  1  0  0  0  0
 10 59  1  0  0  0  0
 11 60  1  0  0  0  0
 11 61  1  0  0  0  0
 12  9  1  0  0  0  0
 12 62  1  0  0  0  0
 12 63  1  0  0  0  0
 13  9  1  0  0  0  0
 13 64  1  0  0  0  0
 13 65  1  0  0  0  0
 14 10  1  0  0  0  0
 14 66  1  0  0  0  0
 14 67  1  0  0  0  0
 15 10  1  0  0  0  0
 15 68  1  0  0  0  0
 15 69  1  0  0  0  0
 16 11  1  0  0  0  0
 16 70  1  0  0  0  0
 16 71  1  0  0  0  0
 17 72  1  0  0  0  0
 17 73  1  0  0  0  0
 18 11  1  0  0  0  0
 18 74  1  0  0  0  0
 18 75  1  0  0  0  0
 19 17  1  0  0  0  0
 19 76  1  0  0  0  0
 19 77  1  0  0  0  0
 20  1  1  0  0  0  0
 20  2  1  0  0  0  0
 20 12  1  0  0  0  0
 20 78  1  0  0  0  0
 21  3  1  0  0  0  0
 21 13  1  0  0  0  0
 21 14  1  0  0  0  0
 21 79  1  0  0  0  0
 22  4  1  0  0  0  0
 22 15  1  0  0  0  0
 22 16  1  0  0  0  0
 22 80  1  0  0  0  0
 23  5  1  0  0  0  0
 24  6  1  0  0  0  0
 24 23  1  0  0  0  0
 25  7  1  0  0  0  0
 26 17  1  0  0  0  0
 26 25  2  0  0  0  0
 27 23  2  0  0  0  0
 27 25  1  0  0  0  0
 28 24  2  0  0  0  0
 28 26  1  0  0  0  0
 29  8  1  0  0  0  0
 29 18  1  0  0  0  0
 29 19  1  0  0  0  0
 30 27  1  0  0  0  0
 30 81  1  0  0  0  0
 31 28  1  0  0  0  0
 31 29  1  0  0  0  0
M  END
>  <DRUGBANK_ID>
DB14476

>  <COMMON_NAME>
DL-alpha-Tocopherol

>  <CAS_NUMBER>
10191-41-0

>  <UNII>
7QWA1RIO01

>  <SYNONYMS>
(+)-alpha-tocopherol; (±)-α-tocopherol; all-rac-alpha-tocopherol; DL-5,7,8-trimethyltocol; DL-alpha tocopherol; DL-α-tocopherol; Vitamin E DL-alpha

$$$$
