NPG
 OpenBabel10282417133D

 31 31  0  0  0  0  0  0  0  0999 V2000
    1.7253    0.7382   -1.0464 O   0  0  0  0  0  0  0  0  0  0  0  0
    3.1462    0.8364    0.6682 O   0  0  0  0  0  0  0  0  0  0  0  0
    2.7143    0.2975   -0.4740 C   0  0  0  0  0  0  0  0  0  0  0  0
    3.3548   -0.8806   -1.0639 C   0  0  0  0  0  0  0  0  0  0  0  0
    2.6308   -2.1876   -0.7476 C   0  0  0  0  0  0  0  0  0  0  0  0
    0.6859   -3.0470   -1.8602 O   0  0  0  0  0  0  0  0  0  0  0  0
    1.1043   -2.2914   -0.9737 C   0  0  0  0  0  0  0  0  0  0  0  0
    0.1695   -1.6797   -0.1836 N   0  0  0  0  0  0  0  0  0  0  0  0
   -0.6955    1.5659    1.5927 O   0  0  0  0  0  0  0  0  0  0  0  0
   -0.4174    1.2576   -0.5287 O   0  0  0  0  0  0  0  0  0  0  0  0
   -0.3712    0.7639    0.7246 C   0  0  0  0  0  0  0  0  0  0  0  0
    0.2786   -0.7215    0.9375 C   0  0  1  0  0  0  0  0  0  0  0  0
   -0.0455   -1.3404    2.3009 C   0  0  0  0  0  0  0  0  0  0  0  0
    0.0889   -2.7168    2.5431 C   0  0  0  0  0  0  0  0  0  0  0  0
   -0.2365   -0.5043    3.4149 C   0  0  0  0  0  0  0  0  0  0  0  0
   -0.0680   -3.2253    3.8355 C   0  0  0  0  0  0  0  0  0  0  0  0
   -0.3643   -1.0008    4.7004 C   0  0  0  0  0  0  0  0  0  0  0  0
   -0.3199   -2.3676    4.9056 C   0  0  0  0  0  0  0  0  0  0  0  0
    1.3494   -0.6186    1.0926 H   0  0  0  0  0  0  0  0  0  0  0  0
    4.0484    0.6263    0.9688 H   0  0  0  0  0  0  0  0  0  0  0  0
    3.2476   -0.6871   -2.1410 H   0  0  0  0  0  0  0  0  0  0  0  0
    4.4284   -0.8764   -0.8594 H   0  0  0  0  0  0  0  0  0  0  0  0
    3.0787   -2.9297   -1.4313 H   0  0  0  0  0  0  0  0  0  0  0  0
    2.8562   -2.5411    0.2622 H   0  0  0  0  0  0  0  0  0  0  0  0
   -0.7796   -1.9039   -0.4586 H   0  0  0  0  0  0  0  0  0  0  0  0
   -0.1720    2.2099   -0.4201 H   0  0  0  0  0  0  0  0  0  0  0  0
    0.3495   -3.4076    1.7432 H   0  0  0  0  0  0  0  0  0  0  0  0
   -0.2573    0.5757    3.3379 H   0  0  0  0  0  0  0  0  0  0  0  0
    0.0247   -4.2934    4.0113 H   0  0  0  0  0  0  0  0  0  0  0  0
   -0.4825   -0.2992    5.5208 H   0  0  0  0  0  0  0  0  0  0  0  0
   -0.4683   -2.7563    5.9063 H   0  0  0  0  0  0  0  0  0  0  0  0
  1  3  2  0  0  0  0
  2  3  1  0  0  0  0
  2 20  1  0  0  0  0
  3  4  1  0  0  0  0
  4  5  1  0  0  0  0
  4 21  1  0  0  0  0
  4 22  1  0  0  0  0
  5  7  1  0  0  0  0
  5 23  1  0  0  0  0
  5 24  1  0  0  0  0
  6  7  2  0  0  0  0
  7  8  1  0  0  0  0
  8 25  1  0  0  0  0
  9 11  2  0  0  0  0
 10 11  1  0  0  0  0
 10 26  1  0  0  0  0
 11 12  1  0  0  0  0
 12  8  1  0  0  0  0
 12 13  1  0  0  0  0
 12 19  1  1  0  0  0
 13 14  2  0  0  0  0
 13 15  1  0  0  0  0
 14 16  1  0  0  0  0
 14 27  1  0  0  0  0
 15 17  2  0  0  0  0
 15 28  1  0  0  0  0
 16 18  2  0  0  0  0
 16 29  1  0  0  0  0
 17 18  1  0  0  0  0
 17 30  1  0  0  0  0
 18 31  1  0  0  0  0
M  END
>  <DRUGBANK_ID>
DB03299

>  <SECONDARY_ACCESSION_NUMBERS>
EXPT02381

>  <COMMON_NAME>
N-Succinyl Phenylglycine

$$$$
