
 OpenBabel10282417233D

152153  0  0  1  0  0  0  0  0999 V2000
   10.0057   10.5611    0.8203 C   0  0  0  0  0  0  0  0  0  0  0  0
    9.9958    9.1794    2.1784 C   0  0  0  0  0  0  0  0  0  0  0  0
    9.7258    8.8897    4.2512 C   0  0  2  0  0  0  0  0  0  0  0  0
    9.4193    9.7481    5.5921 C   0  0  0  0  0  0  0  0  0  0  0  0
   10.5946    7.5191    5.0085 C   0  0  2  0  0  0  0  0  0  0  0  0
   10.8313    7.5355    6.2733 N   0  0  0  0  0  0  0  0  0  0  0  0
   12.1212    7.2409    6.5480 C   0  0  0  0  0  0  0  0  0  0  0  0
   12.0814    6.4773    7.5074 O   0  0  0  0  0  0  0  0  0  0  0  0
   13.7081    7.6553    5.5989 C   0  0  2  0  0  0  0  0  0  0  0  0
   14.8007    7.5768    6.5004 C   0  0  0  0  0  0  0  0  0  0  0  0
   14.6059    8.8645    7.2467 C   0  0  0  0  0  0  0  0  0  0  0  0
   13.3619    8.9171    8.1190 C   0  0  0  0  0  0  0  0  0  0  0  0
   13.4029    7.7243    8.9500 N   0  0  0  0  0  0  0  0  0  0  0  0
   13.2389    7.7841   10.2686 C   0  0  0  0  0  0  0  0  0  0  0  0
   13.1831    6.6107   10.9182 N   0  0  0  0  0  0  0  0  0  0  0  0
   13.2252    8.9364   10.8264 N   0  0  0  0  0  0  0  0  0  0  0  0
   14.3721    8.8452    4.4848 N   0  0  0  0  0  0  0  0  0  0  0  0
   14.8176    8.9090    2.9040 C   0  0  0  0  0  0  0  0  0  0  0  0
   15.2991    9.9329    2.3789 O   0  0  0  0  0  0  0  0  0  0  0  0
   14.5403    7.5995    1.7006 C   0  0  2  0  0  0  0  0  0  0  0  0
   15.7263    6.9204    2.1769 C   0  0  0  0  0  0  0  0  0  0  0  0
   15.5352    5.5472    1.7534 C   0  0  0  0  0  0  0  0  0  0  0  0
   15.9916    5.2960    0.5267 N   0  0  0  0  0  0  0  0  0  0  0  0
   14.8659    4.7360    2.3555 O   0  0  0  0  0  0  0  0  0  0  0  0
   14.2071    7.4130   -0.0664 N   0  0  0  0  0  0  0  0  0  0  0  0
   13.0912    6.5226   -0.9591 C   0  0  0  0  0  0  0  0  0  0  0  0
   12.5631    7.1149   -1.9324 O   0  0  0  0  0  0  0  0  0  0  0  0
   12.1950    5.0324   -0.1918 C   0  0  0  0  0  0  0  0  0  0  0  0
   12.6397    4.0709    1.2184 N   0  0  0  0  0  0  0  0  0  0  0  0
   12.5688    3.8059    2.8981 C   0  0  0  0  0  0  0  0  0  0  0  0
   13.3813    3.0198    3.4150 O   0  0  0  0  0  0  0  0  0  0  0  0
   11.5020    4.6970    4.2115 C   0  0  2  0  0  0  0  0  0  0  0  0
   10.8933    4.2853    5.4857 C   0  0  0  0  0  0  0  0  0  0  0  0
    9.6380    3.6796    5.0912 C   0  0  0  0  0  0  0  0  0  0  0  0
    9.7880    2.3854    4.8425 O   0  0  0  0  0  0  0  0  0  0  0  0
    8.6543    4.3660    4.8475 O   0  0  0  0  0  0  0  0  0  0  0  0
   10.6143    5.8689    3.7193 N   0  0  0  0  0  0  0  0  0  0  0  0
   10.6137    7.3498    3.0591 C   0  0  0  0  0  0  0  0  0  0  0  0
    9.4991    7.3843    2.7907 O   0  0  0  0  0  0  0  0  0  0  0  0
   11.6826    9.0752    3.6573 C   0  0  2  0  0  0  0  0  0  0  0  0
   11.5162   10.4294    4.7939 C   0  0  0  0  0  0  0  0  0  0  0  0
   12.5837   11.3682    4.5099 C   0  0  0  0  0  0  0  0  0  0  0  0
   13.1715   11.0013    3.1470 C   0  0  0  0  0  0  0  0  0  0  0  0
   12.6115    9.6163    2.6370 N   0  0  0  0  0  0  0  0  0  0  0  0
   12.6089    9.0317    1.2625 C   0  0  0  0  0  0  0  0  0  0  0  0
   13.0698    9.6507    0.2979 O   0  0  0  0  0  0  0  0  0  0  0  0
   11.8213    7.3488    0.9720 C   0  0  1  0  0  0  0  0  0  0  0  0
   11.6840    6.0113    1.7857 N   0  0  0  0  0  0  0  0  0  0  0  0
   10.3517    4.9627    1.8548 C   0  0  0  0  0  0  0  0  0  0  0  0
   10.4621    3.7898    2.3051 O   0  0  0  0  0  0  0  0  0  0  0  0
    8.7267    5.7031    1.9040 C   0  0  2  0  0  0  0  0  0  0  0  0
    7.8730    4.4976    2.1778 C   0  0  0  0  0  0  0  0  0  0  0  0
    7.2759    4.2207    0.8819 C   0  0  0  0  0  0  0  0  0  0  0  0
    6.6932    5.2639    0.1442 C   0  0  0  0  0  0  0  0  0  0  0  0
    6.8832    5.3240   -1.2223 C   0  0  0  0  0  0  0  0  0  0  0  0
    7.3449    4.1750   -1.8314 C   0  0  0  0  0  0  0  0  0  0  0  0
    7.7364    3.0550   -1.0738 C   0  0  0  0  0  0  0  0  0  0  0  0
    7.7249    3.0689    0.2988 C   0  0  0  0  0  0  0  0  0  0  0  0
    8.1559    7.0737    1.0545 N   0  0  0  0  0  0  0  0  0  0  0  0
    7.6300    8.3209    0.9726 C   0  0  0  0  0  0  0  0  0  0  0  0
    7.4918    8.7751   -0.1720 O   0  0  0  0  0  0  0  0  0  0  0  0
    7.3575    9.3126    2.1102 C   0  0  1  0  0  0  0  0  0  0  0  0
    6.4473    8.5012    2.8929 N   0  0  0  0  0  0  0  0  0  0  0  0
    8.3524   10.0944    3.0333 C   0  0  0  0  0  0  0  0  0  0  0  0
   10.0034   11.0660    2.8043 C   0  0  0  0  0  0  0  0  0  0  0  0
    9.8829   12.4403    2.3093 C   0  0  0  0  0  0  0  0  0  0  0  0
    9.4664   12.9709    3.5262 N   0  0  0  0  0  0  0  0  0  0  0  0
   10.4833   13.6540    4.0506 C   0  0  0  0  0  0  0  0  0  0  0  0
   10.3671   13.7439    5.3659 N   0  0  0  0  0  0  0  0  0  0  0  0
   11.4761   14.0367    3.3326 N   0  0  0  0  0  0  0  0  0  0  0  0
   10.6448    7.2881   -0.1084 C   0  0  0  0  0  0  0  0  0  0  0  0
   10.3348    8.4785   -0.9569 C   0  0  0  0  0  0  0  0  0  0  0  0
    9.7467    5.8984   -0.6531 C   0  0  0  0  0  0  0  0  0  0  0  0
   12.3552    7.0150    4.1736 C   0  0  0  0  0  0  0  0  0  0  0  0
   12.8936    5.9922    3.6161 O   0  0  0  0  0  0  0  0  0  0  0  0
   12.9997    7.6590    3.4925 O   0  0  0  0  0  0  0  0  0  0  0  0
    9.0082   10.9446    1.0420 H   0  0  0  0  0  0  0  0  0  0  0  0
   10.3952   10.9300   -0.1225 H   0  0  0  0  0  0  0  0  0  0  0  0
   10.9995   11.2079    0.9812 H   0  0  0  0  0  0  0  0  0  0  0  0
    9.3379    8.8302    1.4480 H   0  0  0  0  0  0  0  0  0  0  0  0
   10.8500    8.7260    1.8201 H   0  0  0  0  0  0  0  0  0  0  0  0
    8.7201    8.4314    4.5770 H   0  0  0  0  0  0  0  0  0  0  0  0
    8.3989    9.7556    5.9248 H   0  0  0  0  0  0  0  0  0  0  0  0
   10.1448    9.4048    6.3339 H   0  0  0  0  0  0  0  0  0  0  0  0
    9.4662   10.8195    5.6535 H   0  0  0  0  0  0  0  0  0  0  0  0
    9.6524    6.8711    4.9482 H   0  0  0  0  0  0  0  0  0  0  0  0
    9.9839    7.1995    6.7566 H   0  0  0  0  0  0  0  0  0  0  0  0
   13.9617    6.7062    5.1110 H   0  0  0  0  0  0  0  0  0  0  0  0
   14.6421    6.6075    6.9739 H   0  0  0  0  0  0  0  0  0  0  0  0
   15.6351    7.5388    5.7896 H   0  0  0  0  0  0  0  0  0  0  0  0
   15.5030    8.9256    7.8262 H   0  0  0  0  0  0  0  0  0  0  0  0
   14.5547    9.7484    6.5965 H   0  0  0  0  0  0  0  0  0  0  0  0
   13.3383    9.8480    8.6702 H   0  0  0  0  0  0  0  0  0  0  0  0
   12.4314    9.0481    7.5366 H   0  0  0  0  0  0  0  0  0  0  0  0
   13.0905    6.8546    8.5107 H   0  0  0  0  0  0  0  0  0  0  0  0
   13.1749    6.6022   11.9262 H   0  0  0  0  0  0  0  0  0  0  0  0
   13.1701    5.7048   10.4670 H   0  0  0  0  0  0  0  0  0  0  0  0
   13.1801    8.8415   11.8288 H   0  0  0  0  0  0  0  0  0  0  0  0
   13.8286    9.6470    4.7609 H   0  0  0  0  0  0  0  0  0  0  0  0
   13.8148    6.9458    2.0462 H   0  0  0  0  0  0  0  0  0  0  0  0
   16.4235    7.5588    1.6598 H   0  0  0  0  0  0  0  0  0  0  0  0
   15.6971    6.9574    3.2792 H   0  0  0  0  0  0  0  0  0  0  0  0
   15.9139    4.3528    0.1982 H   0  0  0  0  0  0  0  0  0  0  0  0
   16.3899    6.0559   -0.0078 H   0  0  0  0  0  0  0  0  0  0  0  0
   14.1780    8.3922   -0.4172 H   0  0  0  0  0  0  0  0  0  0  0  0
   11.3136    5.4574    0.1865 H   0  0  0  0  0  0  0  0  0  0  0  0
   11.5184    4.4598   -0.8674 H   0  0  0  0  0  0  0  0  0  0  0  0
   13.5193    3.8433    0.8259 H   0  0  0  0  0  0  0  0  0  0  0  0
   12.2262    5.1642    4.9356 H   0  0  0  0  0  0  0  0  0  0  0  0
   11.6954    3.7518    5.9681 H   0  0  0  0  0  0  0  0  0  0  0  0
   10.5834    5.1406    6.1147 H   0  0  0  0  0  0  0  0  0  0  0  0
   10.7316    2.1325    4.9386 H   0  0  0  0  0  0  0  0  0  0  0  0
    9.6771    5.4778    3.7637 H   0  0  0  0  0  0  0  0  0  0  0  0
   12.1012    8.8230    4.6187 H   0  0  0  0  0  0  0  0  0  0  0  0
   10.6411   11.0294    4.6271 H   0  0  0  0  0  0  0  0  0  0  0  0
   11.4345   10.4730    5.8903 H   0  0  0  0  0  0  0  0  0  0  0  0
   12.1463   12.3328    4.5214 H   0  0  0  0  0  0  0  0  0  0  0  0
   13.1232   11.2547    5.4506 H   0  0  0  0  0  0  0  0  0  0  0  0
   13.1163   11.6984    2.3185 H   0  0  0  0  0  0  0  0  0  0  0  0
   14.1863   11.0227    3.5362 H   0  0  0  0  0  0  0  0  0  0  0  0
   12.6989    6.8465    0.7661 H   0  0  0  0  0  0  0  0  0  0  0  0
   12.7069    5.5159    1.8265 H   0  0  0  0  0  0  0  0  0  0  0  0
    8.4139    6.0227    2.9053 H   0  0  0  0  0  0  0  0  0  0  0  0
    8.5103    3.6713    2.5290 H   0  0  0  0  0  0  0  0  0  0  0  0
    7.2087    4.6844    3.0137 H   0  0  0  0  0  0  0  0  0  0  0  0
    6.4618    6.1888    0.6586 H   0  0  0  0  0  0  0  0  0  0  0  0
    7.0510    6.3078   -1.7111 H   0  0  0  0  0  0  0  0  0  0  0  0
    7.4055    4.1715   -2.9072 H   0  0  0  0  0  0  0  0  0  0  0  0
    8.0824    2.1607   -1.5582 H   0  0  0  0  0  0  0  0  0  0  0  0
    8.1090    2.2738    0.9381 H   0  0  0  0  0  0  0  0  0  0  0  0
    8.5955    7.2308    0.1808 H   0  0  0  0  0  0  0  0  0  0  0  0
    7.0608   10.2013    1.6181 H   0  0  0  0  0  0  0  0  0  0  0  0
    6.5468    8.4770    3.8934 H   0  0  0  0  0  0  0  0  0  0  0  0
    5.9661    7.7799    2.3662 H   0  0  0  0  0  0  0  0  0  0  0  0
    7.9558   10.4960    3.9382 H   0  0  0  0  0  0  0  0  0  0  0  0
    8.3892    9.0091    3.2185 H   0  0  0  0  0  0  0  0  0  0  0  0
   10.9957   11.0073    3.1727 H   0  0  0  0  0  0  0  0  0  0  0  0
   10.9550   10.5461    2.2944 H   0  0  0  0  0  0  0  0  0  0  0  0
   10.8475   12.7820    1.8487 H   0  0  0  0  0  0  0  0  0  0  0  0
    9.1826   12.5953    1.5209 H   0  0  0  0  0  0  0  0  0  0  0  0
    9.0559   12.2220    4.0940 H   0  0  0  0  0  0  0  0  0  0  0  0
   10.7368   14.6227    5.6838 H   0  0  0  0  0  0  0  0  0  0  0  0
    9.4775   13.4455    5.7449 H   0  0  0  0  0  0  0  0  0  0  0  0
   12.2595   14.4403    3.8199 H   0  0  0  0  0  0  0  0  0  0  0  0
   10.1001    7.4824    0.7472 H   0  0  0  0  0  0  0  0  0  0  0  0
   10.6307    8.2818   -1.9548 H   0  0  0  0  0  0  0  0  0  0  0  0
    9.2852    8.6989   -1.0831 H   0  0  0  0  0  0  0  0  0  0  0  0
   10.8335    9.3535   -0.6030 H   0  0  0  0  0  0  0  0  0  0  0  0
    9.6446    5.0223    0.0192 H   0  0  0  0  0  0  0  0  0  0  0  0
    8.7242    6.0829   -0.7454 H   0  0  0  0  0  0  0  0  0  0  0  0
    9.9716    5.4754   -1.6099 H   0  0  0  0  0  0  0  0  0  0  0  0
   12.1119    5.9988    3.0197 H   0  0  0  0  0  0  0  0  0  0  0  0
  1  2  1  0  0  0  0
  1 77  1  0  0  0  0
  1 78  1  0  0  0  0
  1 79  1  0  0  0  0
  2 80  1  0  0  0  0
  2 81  1  0  0  0  0
  3 82  1  6  0  0  0
  3  4  1  0  0  0  0
  3  2  1  0  0  0  0
  4 83  1  0  0  0  0
  4 84  1  0  0  0  0
  4 85  1  0  0  0  0
  5 74  1  0  0  0  0
  5 86  1  6  0  0  0
  5  6  1  0  0  0  0
  5  3  1  0  0  0  0
  6  7  1  0  0  0  0
  6 87  1  0  0  0  0
  7  8  2  0  0  0  0
  9 17  1  0  0  0  0
  9 88  1  6  0  0  0
  9 10  1  0  0  0  0
  9  7  1  0  0  0  0
 10 11  1  0  0  0  0
 10 89  1  0  0  0  0
 10 90  1  0  0  0  0
 11 12  1  0  0  0  0
 11 91  1  0  0  0  0
 11 92  1  0  0  0  0
 12 13  1  0  0  0  0
 12 93  1  0  0  0  0
 12 94  1  0  0  0  0
 13 14  1  0  0  0  0
 13 95  1  0  0  0  0
 14 15  1  0  0  0  0
 14 16  2  0  0  0  0
 15 96  1  0  0  0  0
 15 97  1  0  0  0  0
 16 98  1  0  0  0  0
 17 18  1  0  0  0  0
 17 99  1  0  0  0  0
 18 19  2  0  0  0  0
 20 25  1  0  0  0  0
 20100  1  1  0  0  0
 20 21  1  0  0  0  0
 20 18  1  0  0  0  0
 21 22  1  0  0  0  0
 21101  1  0  0  0  0
 21102  1  0  0  0  0
 22 23  1  0  0  0  0
 22 24  2  0  0  0  0
 23103  1  0  0  0  0
 23104  1  0  0  0  0
 25 26  1  0  0  0  0
 25105  1  0  0  0  0
 26 27  2  0  0  0  0
 26 28  1  0  0  0  0
 28 29  1  0  0  0  0
 28106  1  0  0  0  0
 28107  1  0  0  0  0
 29 30  1  0  0  0  0
 29108  1  0  0  0  0
 30 31  2  0  0  0  0
 32 37  1  0  0  0  0
 32109  1  1  0  0  0
 32 33  1  0  0  0  0
 32 30  1  0  0  0  0
 33 34  1  0  0  0  0
 33110  1  0  0  0  0
 33111  1  0  0  0  0
 34 35  1  0  0  0  0
 34 36  2  0  0  0  0
 35112  1  0  0  0  0
 37 38  1  0  0  0  0
 37113  1  0  0  0  0
 38 39  2  0  0  0  0
 40 38  1  0  0  0  0
 40 41  1  0  0  0  0
 40 44  1  0  0  0  0
 40114  1  1  0  0  0
 41 42  1  0  0  0  0
 41115  1  0  0  0  0
 41116  1  0  0  0  0
 42 43  1  0  0  0  0
 42117  1  0  0  0  0
 42118  1  0  0  0  0
 43 44  1  0  0  0  0
 43119  1  0  0  0  0
 43120  1  0  0  0  0
 44 45  1  0  0  0  0
 45 46  2  0  0  0  0
 47 45  1  0  0  0  0
 47 48  1  0  0  0  0
 47 71  1  0  0  0  0
 47121  1  6  0  0  0
 48 49  1  0  0  0  0
 48122  1  0  0  0  0
 49 50  2  0  0  0  0
 51 59  1  0  0  0  0
 51123  1  1  0  0  0
 51 52  1  0  0  0  0
 51 49  1  0  0  0  0
 52 53  1  0  0  0  0
 52124  1  0  0  0  0
 52125  1  0  0  0  0
 53 54  2  0  0  0  0
 53 58  1  0  0  0  0
 54 55  1  0  0  0  0
 54126  1  0  0  0  0
 55 56  2  0  0  0  0
 55127  1  0  0  0  0
 56 57  1  0  0  0  0
 56128  1  0  0  0  0
 57 58  2  0  0  0  0
 57129  1  0  0  0  0
 58130  1  0  0  0  0
 59 60  1  0  0  0  0
 59131  1  0  0  0  0
 60 61  2  0  0  0  0
 62 60  1  0  0  0  0
 62 63  1  0  0  0  0
 62 64  1  0  0  0  0
 62132  1  6  0  0  0
 63133  1  0  0  0  0
 63134  1  0  0  0  0
 64 65  1  0  0  0  0
 64135  1  0  0  0  0
 64136  1  0  0  0  0
 65 66  1  0  0  0  0
 65137  1  0  0  0  0
 65138  1  0  0  0  0
 66 67  1  0  0  0  0
 66139  1  0  0  0  0
 66140  1  0  0  0  0
 67 68  1  0  0  0  0
 67141  1  0  0  0  0
 68 69  1  0  0  0  0
 68 70  2  0  0  0  0
 69142  1  0  0  0  0
 69143  1  0  0  0  0
 70144  1  0  0  0  0
 71 72  1  0  0  0  0
 71 73  1  0  0  0  0
 71145  1  0  0  0  0
 72146  1  0  0  0  0
 72147  1  0  0  0  0
 72148  1  0  0  0  0
 73149  1  0  0  0  0
 73150  1  0  0  0  0
 73151  1  0  0  0  0
 74 75  1  0  0  0  0
 74 76  2  0  0  0  0
 75152  1  0  0  0  0
M  END
>  <DRUGBANK_ID>
DB16152

>  <COMMON_NAME>
VEGFR2-169

>  <CAS_NUMBER>
673478-49-4

>  <UNII>
S68632MB2G

>  <SYNONYMS>
Elpamotide; Vegfr2-169 peptide vaccine

$$$$
