
 OpenBabel10282417233D

 14 14  0  0  0  0  0  0  0  0999 V2000
    0.5827   -1.1343    0.2277 C   0  0  0  0  0  0  0  0  0  0  0  0
    1.2874    0.1573   -0.1321 C   0  0  0  0  0  0  0  0  0  0  0  0
   -0.8319   -0.8780   -0.2441 C   0  0  0  0  0  0  0  0  0  0  0  0
    0.2046    1.2216   -0.0226 C   0  0  0  0  0  0  0  0  0  0  0  0
   -1.0799    0.5199    0.1234 N   0  0  0  0  0  0  0  0  0  0  0  0
    0.6047   -1.2872    1.3136 H   0  0  0  0  0  0  0  0  0  0  0  0
    1.0373   -2.0052   -0.2528 H   0  0  0  0  0  0  0  0  0  0  0  0
    2.1404    0.3557    0.5237 H   0  0  0  0  0  0  0  0  0  0  0  0
    1.6547    0.1052   -1.1641 H   0  0  0  0  0  0  0  0  0  0  0  0
   -0.9104   -0.9933   -1.3312 H   0  0  0  0  0  0  0  0  0  0  0  0
   -1.5548   -1.5523    0.2245 H   0  0  0  0  0  0  0  0  0  0  0  0
    0.3762    1.8672    0.8457 H   0  0  0  0  0  0  0  0  0  0  0  0
    0.1930    1.8593   -0.9125 H   0  0  0  0  0  0  0  0  0  0  0  0
   -1.3499    0.5503    1.1070 H   0  0  0  0  0  0  0  0  0  0  0  0
  1  2  1  0  0  0  0
  1  3  1  0  0  0  0
  1  6  1  0  0  0  0
  1  7  1  0  0  0  0
  2  4  1  0  0  0  0
  2  8  1  0  0  0  0
  2  9  1  0  0  0  0
  3  5  1  0  0  0  0
  3 10  1  0  0  0  0
  3 11  1  0  0  0  0
  4  5  1  0  0  0  0
  4 12  1  0  0  0  0
  4 13  1  0  0  0  0
  5 14  1  0  0  0  0
M  END
>  <DRUGBANK_ID>
DB16858

>  <COMMON_NAME>
Pyrrolidine

>  <CAS_NUMBER>
123-75-1

>  <UNII>
LJU5627FYV

>  <SYNONYMS>
1-Azacyclopentane; Azacyclopentane; Azolidine; Butylenimine

$$$$
