IYZ
 OpenBabel10282417143D

 41 44  0  0  0  0  0  0  0  0999 V2000
   -0.1043    0.8440   -0.0353 C   0  0  0  0  0  0  0  0  0  0  0  0
    0.6720   -0.4386    0.0841 C   0  0  0  0  0  0  0  0  0  0  0  0
   -0.8274   -0.4803   -0.1467 C   0  0  0  0  0  0  0  0  0  0  0  0
   -1.7683   -1.0466    0.8801 C   0  0  0  0  0  0  0  0  0  0  0  0
   -3.1259   -0.5552    0.6688 N   0  0  0  0  0  0  0  0  0  0  0  0
   -4.1584   -1.3216    0.1597 C   0  0  0  0  0  0  0  0  0  0  0  0
   -4.4119   -2.6729    0.7574 C   0  0  0  0  0  0  0  0  0  0  0  0
   -5.4460   -3.4005    0.3280 C   0  0  0  0  0  0  0  0  0  0  0  0
   -4.9162   -0.8130   -0.7812 N   0  0  0  0  0  0  0  0  0  0  0  0
   -5.9416   -1.6400   -1.2014 N   0  0  0  0  0  0  0  0  0  0  0  0
   -6.2599   -2.8938   -0.6980 C   0  0  0  0  0  0  0  0  0  0  0  0
   -7.3241   -3.4160   -1.2676 N   0  0  0  0  0  0  0  0  0  0  0  0
   -7.7179   -2.4831   -2.1815 C   0  0  0  0  0  0  0  0  0  0  0  0
   -6.8869   -1.3747   -2.1778 C   0  0  0  0  0  0  0  0  0  0  0  0
   -6.9924   -0.1759   -2.9923 C   0  0  0  0  0  0  0  0  0  0  0  0
   -5.9934    0.1751   -3.9079 C   0  0  0  0  0  0  0  0  0  0  0  0
   -8.1840    0.5591   -2.9551 C   0  0  0  0  0  0  0  0  0  0  0  0
   -8.3911    1.6097   -3.8397 C   0  0  0  0  0  0  0  0  0  0  0  0
   -7.3861    1.9724   -4.7327 C   0  0  0  0  0  0  0  0  0  0  0  0
   -6.1839    1.2547   -4.7867 C   0  0  0  0  0  0  0  0  0  0  0  0
   -5.1182    1.5647   -5.7860 C   0  0  0  0  0  0  0  0  0  0  0  0
   -5.2813    2.7008   -6.7640 C   0  0  0  0  0  0  0  0  0  0  0  0
   -4.0948    0.8678   -5.8203 O   0  0  0  0  0  0  0  0  0  0  0  0
   -0.1641    1.4604    0.8532 H   0  0  0  0  0  0  0  0  0  0  0  0
    0.0013    1.4166   -0.9533 H   0  0  0  0  0  0  0  0  0  0  0  0
    1.3218   -0.7193   -0.7403 H   0  0  0  0  0  0  0  0  0  0  0  0
    1.1005   -0.6614    1.0560 H   0  0  0  0  0  0  0  0  0  0  0  0
   -1.1500   -0.7685   -1.1425 H   0  0  0  0  0  0  0  0  0  0  0  0
   -1.7366   -2.1372    0.7736 H   0  0  0  0  0  0  0  0  0  0  0  0
   -1.4573   -0.8204    1.9060 H   0  0  0  0  0  0  0  0  0  0  0  0
   -3.1769    0.4266    0.4168 H   0  0  0  0  0  0  0  0  0  0  0  0
   -3.7846   -3.0012    1.5726 H   0  0  0  0  0  0  0  0  0  0  0  0
   -5.6929   -4.3622    0.7598 H   0  0  0  0  0  0  0  0  0  0  0  0
   -8.5857   -2.6478   -2.8102 H   0  0  0  0  0  0  0  0  0  0  0  0
   -5.0779   -0.4144   -3.9578 H   0  0  0  0  0  0  0  0  0  0  0  0
   -8.9648    0.3060   -2.2410 H   0  0  0  0  0  0  0  0  0  0  0  0
   -9.3408    2.1379   -3.8484 H   0  0  0  0  0  0  0  0  0  0  0  0
   -7.5915    2.8199   -5.3734 H   0  0  0  0  0  0  0  0  0  0  0  0
   -4.4679    3.4154   -6.6149 H   0  0  0  0  0  0  0  0  0  0  0  0
   -5.2496    2.3000   -7.7808 H   0  0  0  0  0  0  0  0  0  0  0  0
   -6.2140    3.2505   -6.6665 H   0  0  0  0  0  0  0  0  0  0  0  0
  1  2  1  0  0  0  0
  1  3  1  0  0  0  0
  1 24  1  0  0  0  0
  1 25  1  0  0  0  0
  2  3  1  0  0  0  0
  2 26  1  0  0  0  0
  2 27  1  0  0  0  0
  3  4  1  0  0  0  0
  3 28  1  0  0  0  0
  4  5  1  0  0  0  0
  4 29  1  0  0  0  0
  4 30  1  0  0  0  0
  5  6  1  0  0  0  0
  5 31  1  0  0  0  0
  6  7  1  0  0  0  0
  6  9  2  0  0  0  0
  7  8  2  0  0  0  0
  7 32  1  0  0  0  0
  8 11  1  0  0  0  0
  8 33  1  0  0  0  0
  9 10  1  0  0  0  0
 10 11  1  0  0  0  0
 10 14  1  0  0  0  0
 11 12  2  0  0  0  0
 12 13  1  0  0  0  0
 13 14  2  0  0  0  0
 13 34  1  0  0  0  0
 14 15  1  0  0  0  0
 15 16  2  0  0  0  0
 15 17  1  0  0  0  0
 16 20  1  0  0  0  0
 16 35  1  0  0  0  0
 17 18  2  0  0  0  0
 17 36  1  0  0  0  0
 18 19  1  0  0  0  0
 18 37  1  0  0  0  0
 19 20  2  0  0  0  0
 19 38  1  0  0  0  0
 20 21  1  0  0  0  0
 21 22  1  0  0  0  0
 21 23  2  0  0  0  0
 22 39  1  0  0  0  0
 22 40  1  0  0  0  0
 22 41  1  0  0  0  0
M  END
>  <DRUGBANK_ID>
DB04715

>  <COMMON_NAME>
IMIDAZOPYRIDAZIN 1

$$$$
