
 OpenBabel10282417163D

 47 47  0  0  0  0  0  0  0  0999 V2000
    0.9483   -0.0856    0.0021 P   0  0  2  0  0  0  0  0  0  0  0  0
    0.8850    1.3346    0.8028 O   0  0  0  0  0  0  0  0  0  0  0  0
    1.0701    0.4332   -1.5630 O   0  0  0  0  0  0  0  0  0  0  0  0
   -0.6001   -0.0856    0.0021 O   0  0  0  0  0  0  0  0  0  0  0  0
   -0.6236    0.3034    2.6965 C   0  0  1  0  0  0  0  0  0  0  0  0
    3.5422    1.2340    0.4043 C   0  0  0  0  0  0  0  0  0  0  0  0
    2.7783   -0.0856    0.0021 C   0  0  0  0  0  0  0  0  0  0  0  0
    3.4410    1.6207    1.8633 C   0  0  0  0  0  0  0  0  0  0  0  0
    0.4071    1.3186    2.1542 C   0  0  0  0  0  0  0  0  0  0  0  0
   -0.5401   -1.2410    2.3301 C   0  0  0  0  0  0  0  0  0  0  0  0
    3.7893    0.4362    2.7214 C   0  0  0  0  0  0  0  0  0  0  0  0
   -0.5786    0.3975    4.2440 C   0  0  0  0  0  0  0  0  0  0  0  0
    5.2603    0.1982    2.8731 C   0  0  0  0  0  0  0  0  0  0  0  0
    0.6687   -2.0742    2.6892 C   0  0  0  0  0  0  0  0  0  0  0  0
    5.7504    1.3668    3.6810 C   0  0  0  0  0  0  0  0  0  0  0  0
    1.7377   -1.5159    3.3777 C   0  0  0  0  0  0  0  0  0  0  0  0
    0.7982   -3.4055    2.3716 C   0  0  0  0  0  0  0  0  0  0  0  0
    2.8741   -2.2262    3.7657 C   0  0  0  0  0  0  0  0  0  0  0  0
    1.9224   -4.1508    2.7909 C   0  0  0  0  0  0  0  0  0  0  0  0
    2.9959   -3.5258    3.4402 C   0  0  0  0  0  0  0  0  0  0  0  0
    1.6215   -0.1229   -2.1475 H   0  0  0  0  0  0  0  0  0  0  0  0
   -1.5957    0.6941    2.3677 H   0  0  0  0  0  0  0  0  0  0  0  0
    4.6062    1.1440    0.1674 H   0  0  0  0  0  0  0  0  0  0  0  0
    3.1501    2.0728   -0.1797 H   0  0  0  0  0  0  0  0  0  0  0  0
    3.1301   -0.9968    0.4909 H   0  0  0  0  0  0  0  0  0  0  0  0
    3.1478   -0.2547   -1.0190 H   0  0  0  0  0  0  0  0  0  0  0  0
    3.9022    2.5435    2.2066 H   0  0  0  0  0  0  0  0  0  0  0  0
    2.4550    1.9914    1.9905 H   0  0  0  0  0  0  0  0  0  0  0  0
    1.2465    1.1267    2.7947 H   0  0  0  0  0  0  0  0  0  0  0  0
    0.1670    2.3632    2.4124 H   0  0  0  0  0  0  0  0  0  0  0  0
   -1.4446   -1.6922    2.7464 H   0  0  0  0  0  0  0  0  0  0  0  0
   -0.6707   -1.4981    1.2874 H   0  0  0  0  0  0  0  0  0  0  0  0
    3.3420    0.5452    3.7148 H   0  0  0  0  0  0  0  0  0  0  0  0
    3.4244   -0.4577    2.2427 H   0  0  0  0  0  0  0  0  0  0  0  0
   -0.5615    1.4265    4.6110 H   0  0  0  0  0  0  0  0  0  0  0  0
   -1.4131   -0.1555    4.6698 H   0  0  0  0  0  0  0  0  0  0  0  0
    0.3142   -0.0537    4.6807 H   0  0  0  0  0  0  0  0  0  0  0  0
    5.4499   -0.7454    3.3991 H   0  0  0  0  0  0  0  0  0  0  0  0
    5.7192    0.1024    1.8855 H   0  0  0  0  0  0  0  0  0  0  0  0
    5.2550    1.3587    4.6599 H   0  0  0  0  0  0  0  0  0  0  0  0
    6.8257    1.3387    3.7869 H   0  0  0  0  0  0  0  0  0  0  0  0
    5.4906    2.3124    3.2041 H   0  0  0  0  0  0  0  0  0  0  0  0
    1.7317   -0.4774    3.5516 H   0  0  0  0  0  0  0  0  0  0  0  0
    0.0159   -3.9046    1.7941 H   0  0  0  0  0  0  0  0  0  0  0  0
    3.6755   -1.6880    4.2820 H   0  0  0  0  0  0  0  0  0  0  0  0
    1.9503   -5.2161    2.6570 H   0  0  0  0  0  0  0  0  0  0  0  0
    3.9106   -4.0560    3.6988 H   0  0  0  0  0  0  0  0  0  0  0  0
  1  2  1  0  0  0  0
  1  3  1  0  0  0  0
  1  4  2  1  0  0  0
  1  7  1  0  0  0  0
  2  9  1  0  0  0  0
  3 21  1  0  0  0  0
  5  9  1  0  0  0  0
  5 10  1  0  0  0  0
  5 12  1  0  0  0  0
  5 22  1  6  0  0  0
  6  7  1  0  0  0  0
  6  8  1  0  0  0  0
  6 23  1  0  0  0  0
  6 24  1  0  0  0  0
  7 25  1  0  0  0  0
  7 26  1  0  0  0  0
  8 11  1  0  0  0  0
  8 27  1  0  0  0  0
  8 28  1  0  0  0  0
  9 29  1  0  0  0  0
  9 30  1  0  0  0  0
 10 14  1  0  0  0  0
 10 31  1  0  0  0  0
 10 32  1  0  0  0  0
 11 13  1  0  0  0  0
 11 33  1  0  0  0  0
 11 34  1  0  0  0  0
 12 35  1  0  0  0  0
 12 36  1  0  0  0  0
 12 37  1  0  0  0  0
 13 15  1  0  0  0  0
 13 38  1  0  0  0  0
 13 39  1  0  0  0  0
 14 16  2  0  0  0  0
 14 17  1  0  0  0  0
 15 40  1  0  0  0  0
 15 41  1  0  0  0  0
 15 42  1  0  0  0  0
 16 18  1  0  0  0  0
 16 43  1  0  0  0  0
 17 19  2  0  0  0  0
 17 44  1  0  0  0  0
 18 20  2  0  0  0  0
 18 45  1  0  0  0  0
 19 20  1  0  0  0  0
 19 46  1  0  0  0  0
 20 47  1  0  0  0  0
M  END
>  <DRUGBANK_ID>
DB06965

>  <COMMON_NAME>
Hexylphosphonic acid (R)-2-methyl-3-phenylpropyl ester

$$$$
