K10
 OpenBabel10282417173D

 46 48  0  0  0  0  0  0  0  0999 V2000
    1.4666   -0.4699   -0.3734 N   0  0  0  0  0  0  0  0  0  0  0  0
    0.5461   -1.4570   -0.0295 C   0  0  0  0  0  0  0  0  0  0  0  0
    0.8422   -2.2067    1.0495 N   0  0  0  0  0  0  0  0  0  0  0  0
   -0.0054   -3.1959    1.3825 C   0  0  0  0  0  0  0  0  0  0  0  0
   -1.1349   -3.5755    0.7698 N   0  0  0  0  0  0  0  0  0  0  0  0
   -1.4432   -2.7634   -0.2661 C   0  0  0  0  0  0  0  0  0  0  0  0
   -0.6937   -1.6830   -0.6635 C   0  0  0  0  0  0  0  0  0  0  0  0
   -1.5083   -1.0311   -1.6215 C   0  0  0  0  0  0  0  0  0  0  0  0
   -2.5856   -1.7640   -1.9552 N   0  0  0  0  0  0  0  0  0  0  0  0
   -2.5157   -2.8521   -1.1334 N   0  0  0  0  0  0  0  0  0  0  0  0
   -3.5120   -3.9357   -1.2788 C   0  0  0  0  0  0  0  0  0  0  0  0
   -4.9444   -3.3899   -1.1001 C   0  0  0  0  0  0  0  0  0  0  0  0
   -3.4183   -4.5822   -2.6808 C   0  0  0  0  0  0  0  0  0  0  0  0
   -3.3120   -5.0623   -0.2445 C   0  0  0  0  0  0  0  0  0  0  0  0
   -1.2412    0.2939   -2.2430 C   0  0  0  0  0  0  0  0  0  0  0  0
   -1.5307    1.4020   -1.2212 C   0  0  0  0  0  0  0  0  0  0  0  0
   -0.9117    1.4224    0.0497 C   0  0  0  0  0  0  0  0  0  0  0  0
   -0.8431    2.5193    0.9067 C   0  0  0  0  0  0  0  0  0  0  0  0
   -1.6607    3.5866    0.6157 C   0  0  0  0  0  0  0  0  0  0  0  0
   -2.4295    3.5582   -0.5563 C   0  0  0  0  0  0  0  0  0  0  0  0
   -2.3330    2.5087   -1.5068 C   0  0  0  0  0  0  0  0  0  0  0  0
   -3.1954    2.6049   -2.7326 C   0  0  0  0  0  0  0  0  0  0  0  0
    0.0645    2.4599    2.1039 C   0  0  0  0  0  0  0  0  0  0  0  0
    1.1029    0.4009   -0.7455 H   0  0  0  0  0  0  0  0  0  0  0  0
    2.1667   -0.3416    0.3474 H   0  0  0  0  0  0  0  0  0  0  0  0
    0.2735   -3.7774    2.2581 H   0  0  0  0  0  0  0  0  0  0  0  0
   -5.1992   -2.6492   -1.8667 H   0  0  0  0  0  0  0  0  0  0  0  0
   -5.6835   -4.1981   -1.1777 H   0  0  0  0  0  0  0  0  0  0  0  0
   -5.0709   -2.9168   -0.1208 H   0  0  0  0  0  0  0  0  0  0  0  0
   -2.4207   -4.9944   -2.8676 H   0  0  0  0  0  0  0  0  0  0  0  0
   -4.1386   -5.4056   -2.7804 H   0  0  0  0  0  0  0  0  0  0  0  0
   -3.6397   -3.8664   -3.4804 H   0  0  0  0  0  0  0  0  0  0  0  0
   -2.3254   -5.5279   -0.3536 H   0  0  0  0  0  0  0  0  0  0  0  0
   -3.4093   -4.6800    0.7778 H   0  0  0  0  0  0  0  0  0  0  0  0
   -4.0548   -5.8584   -0.3608 H   0  0  0  0  0  0  0  0  0  0  0  0
   -0.1944    0.3534   -2.5686 H   0  0  0  0  0  0  0  0  0  0  0  0
   -1.8229    0.3721   -3.1623 H   0  0  0  0  0  0  0  0  0  0  0  0
   -0.4845    0.5393    0.4815 H   0  0  0  0  0  0  0  0  0  0  0  0
   -1.7444    4.4162    1.3115 H   0  0  0  0  0  0  0  0  0  0  0  0
   -3.1275    4.3725   -0.7314 H   0  0  0  0  0  0  0  0  0  0  0  0
   -4.2444    2.5392   -2.4309 H   0  0  0  0  0  0  0  0  0  0  0  0
   -3.0100    3.5504   -3.2486 H   0  0  0  0  0  0  0  0  0  0  0  0
   -3.0295    1.8155   -3.4647 H   0  0  0  0  0  0  0  0  0  0  0  0
    0.6944    3.3546    2.1591 H   0  0  0  0  0  0  0  0  0  0  0  0
   -0.5112    2.3502    3.0248 H   0  0  0  0  0  0  0  0  0  0  0  0
    0.7578    1.6087    2.0384 H   0  0  0  0  0  0  0  0  0  0  0  0
  1  2  1  0  0  0  0
  1 24  1  0  0  0  0
  1 25  1  0  0  0  0
  2  3  2  0  0  0  0
  2  7  1  0  0  0  0
  3  4  1  0  0  0  0
  4  5  2  0  0  0  0
  4 26  1  0  0  0  0
  5  6  1  0  0  0  0
  6  7  2  0  0  0  0
  6 10  1  0  0  0  0
  7  8  1  0  0  0  0
  8  9  2  0  0  0  0
  8 15  1  0  0  0  0
  9 10  1  0  0  0  0
 10 11  1  0  0  0  0
 11 12  1  0  0  0  0
 11 13  1  0  0  0  0
 11 14  1  0  0  0  0
 12 27  1  0  0  0  0
 12 28  1  0  0  0  0
 12 29  1  0  0  0  0
 13 30  1  0  0  0  0
 13 31  1  0  0  0  0
 13 32  1  0  0  0  0
 14 33  1  0  0  0  0
 14 34  1  0  0  0  0
 14 35  1  0  0  0  0
 15 16  1  0  0  0  0
 15 36  1  0  0  0  0
 15 37  1  0  0  0  0
 16 17  2  0  0  0  0
 16 21  1  0  0  0  0
 17 18  1  0  0  0  0
 17 38  1  0  0  0  0
 18 19  2  0  0  0  0
 18 23  1  0  0  0  0
 19 20  1  0  0  0  0
 19 39  1  0  0  0  0
 20 21  2  0  0  0  0
 20 40  1  0  0  0  0
 21 22  1  0  0  0  0
 22 41  1  0  0  0  0
 22 42  1  0  0  0  0
 22 43  1  0  0  0  0
 23 44  1  0  0  0  0
 23 45  1  0  0  0  0
 23 46  1  0  0  0  0
M  END
>  <DRUGBANK_ID>
DB08035

>  <COMMON_NAME>
1-TERT-BUTYL-3-(2,5-DIMETHYLBENZYL)-1H-PYRAZOLO[3,4-D]PYRIMIDIN-4-AMINE

$$$$
