
 OpenBabel10282417193D

 88 92  0  0  1  0  0  0  0  0999 V2000
    7.8515  -11.9458   -7.2589 C   0  0  0  0  0  0  0  0  0  0  0  0
    6.9412  -11.4261   -8.3626 C   0  0  1  0  0  0  0  0  0  0  0  0
    7.1255   -9.9411   -8.6468 C   0  0  1  0  0  0  0  0  0  0  0  0
    6.2576   -9.5245   -9.8420 C   0  0  2  0  0  0  0  0  0  0  0  0
    6.2820  -10.4747  -11.0468 C   0  0  2  0  0  0  0  0  0  0  0  0
    6.0711  -11.9220  -10.5688 C   0  0  1  0  0  0  0  0  0  0  0  0
    7.0535  -12.2144   -9.5421 O   0  0  0  0  0  0  0  0  0  0  0  0
    4.6818  -12.2990  -10.3357 O   0  0  0  0  0  0  0  0  0  0  0  0
    4.0069  -11.7919   -9.2370 C   0  0  0  0  0  0  0  0  0  0  0  0
    3.4074  -10.4175   -9.2639 C   0  0  0  0  0  0  0  0  0  0  0  0
    3.2208   -9.8459  -10.3134 O   0  0  0  0  0  0  0  0  0  0  0  0
    3.2579   -9.7615   -7.9277 C   0  0  0  0  0  0  0  0  0  0  0  0
    3.2992   -8.3781   -7.7499 C   0  0  0  0  0  0  0  0  0  0  0  0
    3.1870   -7.8252   -6.4750 C   0  0  0  0  0  0  0  0  0  0  0  0
    2.8327   -8.6154   -5.3717 C   0  0  0  0  0  0  0  0  0  0  0  0
    2.8909  -10.0161   -5.5205 C   0  0  0  0  0  0  0  0  0  0  0  0
    3.1726  -10.5746   -6.8052 C   0  0  0  0  0  0  0  0  0  0  0  0
    3.3211  -11.9445   -6.9257 O   0  0  0  0  0  0  0  0  0  0  0  0
    3.8102  -12.4891   -8.1098 C   0  0  0  0  0  0  0  0  0  0  0  0
    4.1439  -13.9237   -8.0293 C   0  0  0  0  0  0  0  0  0  0  0  0
    5.4200  -14.4418   -8.2499 C   0  0  0  0  0  0  0  0  0  0  0  0
    5.7059  -15.7986   -8.2076 C   0  0  0  0  0  0  0  0  0  0  0  0
    4.6971  -16.6928   -7.9094 C   0  0  0  0  0  0  0  0  0  0  0  0
    3.4184  -16.1992   -7.6398 C   0  0  0  0  0  0  0  0  0  0  0  0
    3.1336  -14.8328   -7.7551 C   0  0  0  0  0  0  0  0  0  0  0  0
    4.8512  -18.0494   -7.8806 O   0  0  0  0  0  0  0  0  0  0  0  0
    6.1231  -18.5336   -8.3105 C   0  0  0  0  0  0  0  0  0  0  0  0
    2.6864  -10.9163   -4.3225 C   0  0  0  0  0  0  0  0  0  0  0  0
    1.6887  -12.0111   -4.5896 C   0  0  0  0  0  0  0  0  0  0  0  0
    1.9810  -13.3257   -4.5680 C   0  0  0  0  0  0  0  0  0  0  0  0
    0.9484  -14.3604   -4.9048 C   0  0  0  0  0  0  0  0  0  0  0  0
    3.3636  -13.8190   -4.2331 C   0  0  0  0  0  0  0  0  0  0  0  0
    2.3569   -8.0885   -4.1720 O   0  0  0  0  0  0  0  0  0  0  0  0
    2.0811   -6.6745   -4.1884 C   0  0  1  0  0  0  0  0  0  0  0  0
    0.8116   -6.2761   -5.0021 C   0  0  1  0  0  0  0  0  0  0  0  0
    0.9674   -4.7718   -5.2755 C   0  0  2  0  0  0  0  0  0  0  0  0
    1.0676   -3.9992   -3.9528 C   0  0  1  0  0  0  0  0  0  0  0  0
    2.1386   -4.6142   -3.0290 C   0  0  2  0  0  0  0  0  0  0  0  0
    1.9493   -6.0504   -2.8788 O   0  0  0  0  0  0  0  0  0  0  0  0
    2.1326   -3.8962   -1.6748 C   0  0  0  0  0  0  0  0  0  0  0  0
    3.1486   -4.4295   -0.8323 O   0  0  0  0  0  0  0  0  0  0  0  0
    1.3379   -2.6173   -4.1913 O   0  0  0  0  0  0  0  0  0  0  0  0
   -0.1027   -4.2882   -6.0859 O   0  0  0  0  0  0  0  0  0  0  0  0
    0.5939   -6.9721   -6.2304 O   0  0  0  0  0  0  0  0  0  0  0  0
    3.4720   -7.5367   -8.8088 O   0  0  0  0  0  0  0  0  0  0  0  0
    7.5589  -10.3189  -11.6991 O   0  0  0  0  0  0  0  0  0  0  0  0
    6.4240   -8.1585  -10.1941 O   0  0  0  0  0  0  0  0  0  0  0  0
    6.7394   -9.2072   -7.4731 O   0  0  0  0  0  0  0  0  0  0  0  0
    8.9001  -11.8036   -7.5173 H   0  0  0  0  0  0  0  0  0  0  0  0
    7.6264  -11.4346   -6.3162 H   0  0  0  0  0  0  0  0  0  0  0  0
    7.6985  -13.0167   -7.0857 H   0  0  0  0  0  0  0  0  0  0  0  0
    5.9650  -11.5710   -7.9232 H   0  0  0  0  0  0  0  0  0  0  0  0
    8.1708   -9.7053   -8.8487 H   0  0  0  0  0  0  0  0  0  0  0  0
    5.2831   -9.5255   -9.4325 H   0  0  0  0  0  0  0  0  0  0  0  0
    5.5146  -10.2259  -11.7875 H   0  0  0  0  0  0  0  0  0  0  0  0
    6.3754  -12.5902  -11.3879 H   0  0  0  0  0  0  0  0  0  0  0  0
    3.2808   -6.7489   -6.4027 H   0  0  0  0  0  0  0  0  0  0  0  0
    6.2568  -13.8251   -8.4949 H   0  0  0  0  0  0  0  0  0  0  0  0
    6.7269  -16.0985   -8.4193 H   0  0  0  0  0  0  0  0  0  0  0  0
    2.6257  -16.8803   -7.3493 H   0  0  0  0  0  0  0  0  0  0  0  0
    2.1142  -14.4746   -7.6458 H   0  0  0  0  0  0  0  0  0  0  0  0
    6.3635  -18.2019   -9.3290 H   0  0  0  0  0  0  0  0  0  0  0  0
    6.9091  -18.2318   -7.6090 H   0  0  0  0  0  0  0  0  0  0  0  0
    6.0830  -19.6249   -8.3205 H   0  0  0  0  0  0  0  0  0  0  0  0
    3.6731  -11.3039   -4.0456 H   0  0  0  0  0  0  0  0  0  0  0  0
    2.3351  -10.3636   -3.4449 H   0  0  0  0  0  0  0  0  0  0  0  0
    0.6863  -11.6813   -4.8606 H   0  0  0  0  0  0  0  0  0  0  0  0
    1.2648  -14.9706   -5.7516 H   0  0  0  0  0  0  0  0  0  0  0  0
    0.7893  -15.0277   -4.0551 H   0  0  0  0  0  0  0  0  0  0  0  0
   -0.0124  -13.9101   -5.1759 H   0  0  0  0  0  0  0  0  0  0  0  0
    4.1075  -13.4207   -4.9322 H   0  0  0  0  0  0  0  0  0  0  0  0
    3.6401  -13.4998   -3.2227 H   0  0  0  0  0  0  0  0  0  0  0  0
    3.4328  -14.9081   -4.2735 H   0  0  0  0  0  0  0  0  0  0  0  0
    2.9857   -6.2113   -4.5826 H   0  0  0  0  0  0  0  0  0  0  0  0
   -0.0968   -6.4569   -4.4153 H   0  0  0  0  0  0  0  0  0  0  0  0
    1.8713   -4.5979   -5.8752 H   0  0  0  0  0  0  0  0  0  0  0  0
    0.0887   -4.0480   -3.4622 H   0  0  0  0  0  0  0  0  0  0  0  0
    3.1428   -4.4625   -3.4491 H   0  0  0  0  0  0  0  0  0  0  0  0
    2.3431   -2.8284   -1.8079 H   0  0  0  0  0  0  0  0  0  0  0  0
    1.1707   -4.0007   -1.1657 H   0  0  0  0  0  0  0  0  0  0  0  0
    2.9588   -5.3824   -0.7514 H   0  0  0  0  0  0  0  0  0  0  0  0
    2.1516   -2.5286   -4.7178 H   0  0  0  0  0  0  0  0  0  0  0  0
   -0.9419   -4.5387   -5.6600 H   0  0  0  0  0  0  0  0  0  0  0  0
    1.1423   -6.5799   -6.9299 H   0  0  0  0  0  0  0  0  0  0  0  0
    3.3452   -6.6024   -8.5785 H   0  0  0  0  0  0  0  0  0  0  0  0
    8.2532  -10.5231  -11.0484 H   0  0  0  0  0  0  0  0  0  0  0  0
    7.2418   -8.0832  -10.7048 H   0  0  0  0  0  0  0  0  0  0  0  0
    5.7923   -9.3644   -7.3111 H   0  0  0  0  0  0  0  0  0  0  0  0
  1 49  1  0  0  0  0
  1 50  1  0  0  0  0
  1 51  1  0  0  0  0
  2  1  1  0  0  0  0
  2  3  1  0  0  0  0
  2  7  1  0  0  0  0
  2 52  1  1  0  0  0
  3  4  1  0  0  0  0
  3 48  1  0  0  0  0
  3 53  1  6  0  0  0
  4  5  1  0  0  0  0
  4 47  1  0  0  0  0
  4 54  1  1  0  0  0
  5  6  1  0  0  0  0
  5 46  1  0  0  0  0
  5 55  1  6  0  0  0
  6  7  1  0  0  0  0
  6  8  1  0  0  0  0
  6 56  1  6  0  0  0
  8  9  1  0  0  0  0
  9 10  1  0  0  0  0
  9 19  2  0  0  0  0
 10 11  2  0  0  0  0
 10 12  1  0  0  0  0
 12 13  2  0  0  0  0
 12 17  1  0  0  0  0
 13 14  1  0  0  0  0
 13 45  1  0  0  0  0
 14 15  2  0  0  0  0
 14 57  1  0  0  0  0
 15 16  1  0  0  0  0
 15 33  1  0  0  0  0
 16 17  2  0  0  0  0
 16 28  1  0  0  0  0
 17 18  1  0  0  0  0
 18 19  1  0  0  0  0
 19 20  1  0  0  0  0
 20 21  2  0  0  0  0
 20 25  1  0  0  0  0
 21 22  1  0  0  0  0
 21 58  1  0  0  0  0
 22 23  2  0  0  0  0
 22 59  1  0  0  0  0
 23 24  1  0  0  0  0
 23 26  1  0  0  0  0
 24 25  2  0  0  0  0
 24 60  1  0  0  0  0
 25 61  1  0  0  0  0
 26 27  1  0  0  0  0
 27 62  1  0  0  0  0
 27 63  1  0  0  0  0
 27 64  1  0  0  0  0
 28 29  1  0  0  0  0
 28 65  1  0  0  0  0
 28 66  1  0  0  0  0
 29 30  2  0  0  0  0
 29 67  1  0  0  0  0
 30 31  1  0  0  0  0
 30 32  1  0  0  0  0
 31 68  1  0  0  0  0
 31 69  1  0  0  0  0
 31 70  1  0  0  0  0
 32 71  1  0  0  0  0
 32 72  1  0  0  0  0
 32 73  1  0  0  0  0
 34 35  1  0  0  0  0
 34 39  1  0  0  0  0
 34 74  1  6  0  0  0
 34 33  1  0  0  0  0
 35 36  1  0  0  0  0
 35 44  1  0  0  0  0
 35 75  1  1  0  0  0
 36 37  1  0  0  0  0
 36 43  1  0  0  0  0
 36 76  1  6  0  0  0
 37 38  1  0  0  0  0
 37 42  1  0  0  0  0
 37 77  1  1  0  0  0
 38 39  1  0  0  0  0
 38 40  1  0  0  0  0
 38 78  1  6  0  0  0
 40 41  1  0  0  0  0
 40 79  1  0  0  0  0
 40 80  1  0  0  0  0
 41 81  1  0  0  0  0
 42 82  1  0  0  0  0
 43 83  1  0  0  0  0
 44 84  1  0  0  0  0
 45 85  1  0  0  0  0
 46 86  1  0  0  0  0
 47 87  1  0  0  0  0
 48 88  1  0  0  0  0
M  END
>  <DRUGBANK_ID>
DB12052

>  <COMMON_NAME>
Icariin

>  <CAS_NUMBER>
489-32-7

>  <UNII>
VNM47R2QSQ

$$$$
