
 OpenBabel10282417223D

 30 32  0  0  0  0  0  0  0  0999 V2000
    1.0942   -0.0122    0.0149 C   0  0  0  0  0  0  0  0  0  0  0  0
    0.7370   -1.4137    0.0620 N   0  0  0  0  0  0  0  0  0  0  0  0
   -0.2235   -1.8856    0.9495 C   0  0  0  0  0  0  0  0  0  0  0  0
   -1.2730   -1.1217    1.4805 C   0  0  0  0  0  0  0  0  0  0  0  0
   -1.4932    0.1292    1.0431 F   0  0  0  0  0  0  0  0  0  0  0  0
   -2.1388   -1.6301    2.4494 C   0  0  0  0  0  0  0  0  0  0  0  0
   -1.9617   -2.9280    2.9367 C   0  0  0  0  0  0  0  0  0  0  0  0
   -0.9319   -3.7129    2.4070 C   0  0  0  0  0  0  0  0  0  0  0  0
   -0.0876   -3.2014    1.4121 C   0  0  0  0  0  0  0  0  0  0  0  0
   -2.9009   -3.4631    3.9238 C   0  0  0  0  0  0  0  0  0  0  0  0
   -4.1929   -3.5603    3.7163 N   0  0  0  0  0  0  0  0  0  0  0  0
   -4.8098   -4.1232    4.8178 C   0  0  0  0  0  0  0  0  0  0  0  0
   -3.9684   -4.4149    5.8933 C   0  0  0  0  0  0  0  0  0  0  0  0
   -2.3548   -3.9775    5.4699 S   0  0  0  0  0  0  0  0  0  0  0  0
   -4.4614   -4.9791    7.0821 C   0  0  0  0  0  0  0  0  0  0  0  0
   -5.8270   -5.2560    7.1558 C   0  0  0  0  0  0  0  0  0  0  0  0
   -6.2869   -5.8150    8.3140 O   0  0  0  0  0  0  0  0  0  0  0  0
   -6.6880   -4.9827    6.1012 C   0  0  0  0  0  0  0  0  0  0  0  0
   -6.1845   -4.4139    4.9270 C   0  0  0  0  0  0  0  0  0  0  0  0
    0.8185    0.5275    0.9267 H   0  0  0  0  0  0  0  0  0  0  0  0
    0.6551    0.4902   -0.8514 H   0  0  0  0  0  0  0  0  0  0  0  0
    2.1839    0.0553   -0.0640 H   0  0  0  0  0  0  0  0  0  0  0  0
    0.8611   -1.9510   -0.7904 H   0  0  0  0  0  0  0  0  0  0  0  0
   -2.9460   -1.0024    2.8149 H   0  0  0  0  0  0  0  0  0  0  0  0
   -0.7793   -4.7332    2.7533 H   0  0  0  0  0  0  0  0  0  0  0  0
    0.7171   -3.8258    1.0305 H   0  0  0  0  0  0  0  0  0  0  0  0
   -3.8053   -5.1998    7.9177 H   0  0  0  0  0  0  0  0  0  0  0  0
   -7.2425   -5.9716    8.2337 H   0  0  0  0  0  0  0  0  0  0  0  0
   -7.7498   -5.1996    6.1647 H   0  0  0  0  0  0  0  0  0  0  0  0
   -6.8390   -4.1945    4.0890 H   0  0  0  0  0  0  0  0  0  0  0  0
  1  2  1  0  0  0  0
  1 20  1  0  0  0  0
  1 21  1  0  0  0  0
  1 22  1  0  0  0  0
  2  3  1  0  0  0  0
  2 23  1  0  0  0  0
  3  4  2  0  0  0  0
  3  9  1  0  0  0  0
  4  5  1  0  0  0  0
  4  6  1  0  0  0  0
  6  7  2  0  0  0  0
  6 24  1  0  0  0  0
  7  8  1  0  0  0  0
  7 10  1  0  0  0  0
  8  9  2  0  0  0  0
  8 25  1  0  0  0  0
  9 26  1  0  0  0  0
 10 11  2  0  0  0  0
 10 14  1  0  0  0  0
 11 12  1  0  0  0  0
 12 13  2  0  0  0  0
 12 19  1  0  0  0  0
 13 14  1  0  0  0  0
 13 15  1  0  0  0  0
 15 16  2  0  0  0  0
 15 27  1  0  0  0  0
 16 17  1  0  0  0  0
 16 18  1  0  0  0  0
 17 28  1  0  0  0  0
 18 19  2  0  0  0  0
 18 29  1  0  0  0  0
 19 30  1  0  0  0  0
M  END
>  <DRUGBANK_ID>
DB15058

>  <COMMON_NAME>
Flutemetamol

>  <CAS_NUMBER>
637003-10-2

>  <UNII>
0F3M7032P5

$$$$
