LI7
 OpenBabel10282417133D

 28 30  0  0  0  0  0  0  0  0999 V2000
    1.4413    1.4018   -0.0601 C   0  0  0  0  0  0  0  0  0  0  0  0
    0.3391    0.5673   -0.0477 C   0  0  0  0  0  0  0  0  0  0  0  0
    0.4834   -0.8198   -0.0175 C   0  0  0  0  0  0  0  0  0  0  0  0
   -1.7786   -0.5610   -0.0605 C   0  0  0  0  0  0  0  0  0  0  0  0
   -5.2301    1.6364    1.1468 C   0  0  0  0  0  0  0  0  0  0  0  0
   -5.1090    3.0430   -0.8074 C   0  0  0  0  0  0  0  0  0  0  0  0
   -2.9582   -0.8370   -0.0803 O   0  0  0  0  0  0  0  0  0  0  0  0
   -1.1091    0.8369   -0.0191 C   0  0  0  0  0  0  0  0  0  0  0  0
   -0.7439   -1.4627   -0.0413 N   0  0  0  0  0  0  0  0  0  0  0  0
    2.7070    0.7982    0.0001 C   0  0  0  0  0  0  0  0  0  0  0  0
    2.8421   -0.6034    0.0708 C   0  0  0  0  0  0  0  0  0  0  0  0
    1.7181   -1.4309    0.0474 C   0  0  0  0  0  0  0  0  0  0  0  0
   -1.6573    2.0101    0.0729 N   0  0  0  0  0  0  0  0  0  0  0  0
   -3.0609    2.1274    0.1310 C   0  0  0  0  0  0  0  0  0  0  0  0
   -3.8325    1.5310    1.1401 C   0  0  0  0  0  0  0  0  0  0  0  0
   -5.8569    2.4049    0.1744 C   0  0  0  0  0  0  0  0  0  0  0  0
   -7.2101    2.5719    0.1431 O   0  0  0  0  0  0  0  0  0  0  0  0
   -3.7164    2.9052   -0.8267 C   0  0  0  0  0  0  0  0  0  0  0  0
    1.3378    2.4807   -0.1054 H   0  0  0  0  0  0  0  0  0  0  0  0
   -5.7958    1.1006    1.9021 H   0  0  0  0  0  0  0  0  0  0  0  0
   -5.6096    3.6419   -1.5617 H   0  0  0  0  0  0  0  0  0  0  0  0
   -0.9014   -2.4581   -0.0403 H   0  0  0  0  0  0  0  0  0  0  0  0
    3.6042    1.4157    0.0054 H   0  0  0  0  0  0  0  0  0  0  0  0
    3.8334   -1.0470    0.1489 H   0  0  0  0  0  0  0  0  0  0  0  0
    1.8179   -2.5094    0.0980 H   0  0  0  0  0  0  0  0  0  0  0  0
   -3.3485    0.9220    1.8985 H   0  0  0  0  0  0  0  0  0  0  0  0
   -7.6068    2.0928    0.8885 H   0  0  0  0  0  0  0  0  0  0  0  0
   -3.1402    3.4058   -1.5990 H   0  0  0  0  0  0  0  0  0  0  0  0
  1  2  2  0  0  0  0
  1 10  1  0  0  0  0
  1 19  1  0  0  0  0
  2  3  1  0  0  0  0
  2  8  1  0  0  0  0
  3  9  1  0  0  0  0
  3 12  2  0  0  0  0
  4  7  2  0  0  0  0
  4  8  1  0  0  0  0
  4  9  1  0  0  0  0
  5 15  2  0  0  0  0
  5 16  1  0  0  0  0
  5 20  1  0  0  0  0
  6 16  2  0  0  0  0
  6 18  1  0  0  0  0
  6 21  1  0  0  0  0
  8 13  2  0  0  0  0
  9 22  1  0  0  0  0
 10 11  2  0  0  0  0
 10 23  1  0  0  0  0
 11 12  1  0  0  0  0
 11 24  1  0  0  0  0
 12 25  1  0  0  0  0
 13 14  1  0  0  0  0
 14 15  1  0  0  0  0
 14 18  2  0  0  0  0
 15 26  1  0  0  0  0
 16 17  1  0  0  0  0
 17 27  1  0  0  0  0
 18 28  1  0  0  0  0
M  END
>  <DRUGBANK_ID>
DB03650

>  <SECONDARY_ACCESSION_NUMBERS>
EXPT02029

>  <COMMON_NAME>
(3e)-3-[(4-Hydroxyphenyl)Imino]-1h-Indol-2(3h)-One

$$$$
