
 OpenBabel10282417153D

 48 50  0  0  1  0  0  0  0  0999 V2000
    1.3879   -0.2152    0.0379 C   0  0  0  0  0  0  0  0  0  0  0  0
    0.5105   -1.3007    0.0319 C   0  0  0  0  0  0  0  0  0  0  0  0
   -0.8786   -1.1050    0.0199 C   0  0  0  0  0  0  0  0  0  0  0  0
   -1.3721    0.2038    0.0251 C   0  0  0  0  0  0  0  0  0  0  0  0
   -0.4930    1.2869    0.0692 C   0  0  0  0  0  0  0  0  0  0  0  0
    0.8936    1.0913    0.0212 C   0  0  0  0  0  0  0  0  0  0  0  0
    1.7632    2.2328   -0.2471 C   0  0  0  0  0  0  0  0  0  0  0  0
    2.4244    2.2865   -1.4773 C   0  0  0  0  0  0  0  0  0  0  0  0
    3.0751    3.4452   -1.8776 C   0  0  0  0  0  0  0  0  0  0  0  0
    3.2338    4.5068   -0.9902 C   0  0  0  0  0  0  0  0  0  0  0  0
    2.5444    4.4866    0.2183 C   0  0  0  0  0  0  0  0  0  0  0  0
    1.8289    3.3471    0.5979 C   0  0  0  0  0  0  0  0  0  0  0  0
    4.1214    5.5362   -1.1511 O   0  0  0  0  0  0  0  0  0  0  0  0
    4.9978    5.4534   -2.2768 C   0  0  0  0  0  0  0  0  0  0  0  0
    6.1115    4.3669   -2.2082 C   0  0  2  0  0  0  0  0  0  0  0  0
    6.6969    4.1775   -3.6133 C   0  0  0  0  0  0  0  0  0  0  0  0
    7.2265    2.7346   -3.6362 C   0  0  2  0  0  0  0  0  0  0  0  0
    6.2280    2.0631   -2.7314 C   0  0  0  0  0  0  0  0  0  0  0  0
    5.8946    0.8856   -2.7423 O   0  0  0  0  0  0  0  0  0  0  0  0
    5.7630    3.0101   -1.8551 N   0  0  0  0  0  0  0  0  0  0  0  0
    8.6300    2.6564   -3.0487 C   0  0  0  0  0  0  0  0  0  0  0  0
    9.1592    1.2497   -3.0278 C   0  0  0  0  0  0  0  0  0  0  0  0
   10.0717    0.8248   -3.7176 O   0  0  0  0  0  0  0  0  0  0  0  0
    8.5332    0.4670   -2.1353 O   0  0  0  0  0  0  0  0  0  0  0  0
   -1.7992   -2.2877    0.0416 C   0  0  0  0  0  0  0  0  0  0  0  0
   -3.0930   -2.1957    0.0556 N   0  0  0  0  0  0  0  0  0  0  0  0
   -1.3105   -3.5537    0.0633 N   0  0  0  0  0  0  0  0  0  0  0  0
    2.4607   -0.4001    0.0260 H   0  0  0  0  0  0  0  0  0  0  0  0
    0.9498   -2.2905    0.0136 H   0  0  0  0  0  0  0  0  0  0  0  0
   -2.4314    0.4274   -0.0263 H   0  0  0  0  0  0  0  0  0  0  0  0
   -0.9000    2.2966    0.0880 H   0  0  0  0  0  0  0  0  0  0  0  0
    2.4379    1.4256   -2.1451 H   0  0  0  0  0  0  0  0  0  0  0  0
    3.5542    3.4224   -2.8508 H   0  0  0  0  0  0  0  0  0  0  0  0
    2.5682    5.3553    0.8703 H   0  0  0  0  0  0  0  0  0  0  0  0
    1.3272    3.3286    1.5619 H   0  0  0  0  0  0  0  0  0  0  0  0
    4.4071    5.4282   -3.2021 H   0  0  0  0  0  0  0  0  0  0  0  0
    5.5223    6.4185   -2.3186 H   0  0  0  0  0  0  0  0  0  0  0  0
    6.8541    4.6650   -1.4629 H   0  0  0  0  0  0  0  0  0  0  0  0
    7.4422    4.9395   -3.8538 H   0  0  0  0  0  0  0  0  0  0  0  0
    5.8996    4.2485   -4.3681 H   0  0  0  0  0  0  0  0  0  0  0  0
    7.1724    2.3117   -4.6443 H   0  0  0  0  0  0  0  0  0  0  0  0
    5.1755    2.7285   -1.0761 H   0  0  0  0  0  0  0  0  0  0  0  0
    9.3055    3.2553   -3.6708 H   0  0  0  0  0  0  0  0  0  0  0  0
    8.6911    3.0661   -2.0337 H   0  0  0  0  0  0  0  0  0  0  0  0
    8.8235   -0.4524   -2.3046 H   0  0  0  0  0  0  0  0  0  0  0  0
   -3.4203   -1.2312    0.0400 H   0  0  0  0  0  0  0  0  0  0  0  0
   -0.3347   -3.7917    0.1172 H   0  0  0  0  0  0  0  0  0  0  0  0
   -1.9843   -4.3030    0.1470 H   0  0  0  0  0  0  0  0  0  0  0  0
  1  2  2  0  0  0  0
  1  6  1  0  0  0  0
  1 28  1  0  0  0  0
  2  3  1  0  0  0  0
  2 29  1  0  0  0  0
  3  4  2  0  0  0  0
  3 25  1  0  0  0  0
  4  5  1  0  0  0  0
  4 30  1  0  0  0  0
  5  6  2  0  0  0  0
  5 31  1  0  0  0  0
  6  7  1  0  0  0  0
  7  8  2  0  0  0  0
  7 12  1  0  0  0  0
  8  9  1  0  0  0  0
  8 32  1  0  0  0  0
  9 10  2  0  0  0  0
  9 33  1  0  0  0  0
 10 11  1  0  0  0  0
 10 13  1  0  0  0  0
 11 12  2  0  0  0  0
 11 34  1  0  0  0  0
 12 35  1  0  0  0  0
 13 14  1  0  0  0  0
 14 36  1  0  0  0  0
 14 37  1  0  0  0  0
 15 14  1  0  0  0  0
 15 16  1  0  0  0  0
 15 20  1  0  0  0  0
 15 38  1  1  0  0  0
 16 17  1  0  0  0  0
 16 39  1  0  0  0  0
 16 40  1  0  0  0  0
 17 18  1  0  0  0  0
 17 21  1  0  0  0  0
 17 41  1  6  0  0  0
 18 19  2  0  0  0  0
 18 20  1  0  0  0  0
 20 42  1  0  0  0  0
 21 22  1  0  0  0  0
 21 43  1  0  0  0  0
 21 44  1  0  0  0  0
 22 23  2  0  0  0  0
 22 24  1  0  0  0  0
 24 45  1  0  0  0  0
 25 26  2  0  0  0  0
 25 27  1  0  0  0  0
 26 46  1  0  0  0  0
 27 47  1  0  0  0  0
 27 48  1  0  0  0  0
M  END
>  <DRUGBANK_ID>
DB06472

>  <COMMON_NAME>
Fradafiban

>  <CAS_NUMBER>
148396-36-5

>  <UNII>
DQ0H2B8YKN

>  <SYNONYMS>
Fradafiban

$$$$
