
 OpenBabel10282417233D

 64 64  0  0  1  0  0  0  0  0999 V2000
    0.0180   -1.3780    0.0460 C   0  0  0  0  0  0  0  0  0  0  0  0
   -1.1670   -0.6830   -0.1700 C   0  0  0  0  0  0  0  0  0  0  0  0
   -1.1660    0.6880    0.1710 C   0  0  0  0  0  0  0  0  0  0  0  0
    1.1470    0.6910   -0.0880 N   0  0  0  0  0  0  0  0  0  0  0  0
    2.4537   -1.4267    0.3338 C   0  0  0  0  0  0  0  0  0  0  0  0
    5.1388    3.5797    2.4378 N   0  0  0  0  0  0  0  0  0  0  0  0
    4.0555    2.6486    2.7850 C   0  0  2  0  0  0  0  0  0  0  0  0
    2.7133    3.2227    2.3197 C   0  0  2  0  0  0  0  0  0  0  0  0
    1.6046    2.2104    2.6242 C   0  0  0  0  0  0  0  0  0  0  0  0
    1.9362    0.8819    1.9405 C   0  0  0  0  0  0  0  0  0  0  0  0
    3.2096    0.4187    2.3935 C   0  0  0  0  0  0  0  0  0  0  0  0
    4.2919    1.3031    2.0950 C   0  0  0  0  0  0  0  0  0  0  0  0
    2.7614    3.4797    0.8732 N   0  0  0  0  0  0  0  0  0  0  0  0
    2.8156    4.9292    0.6345 C   0  0  0  0  0  0  0  0  0  0  0  0
    2.8654    5.1948   -0.8613 C   0  0  0  0  0  0  0  0  0  0  0  0
    1.6633    4.6380   -1.4982 N   0  0  0  0  0  0  0  0  0  0  0  0
    0.4671    5.2737   -0.9271 C   0  0  2  0  0  0  0  0  0  0  0  0
   -0.7890    4.6949   -1.5865 C   0  0  2  0  0  0  0  0  0  0  0  0
   -2.0275    5.3145   -0.9317 C   0  0  0  0  0  0  0  0  0  0  0  0
   -1.9862    5.0464    0.5746 C   0  0  0  0  0  0  0  0  0  0  0  0
   -0.7795    5.5825    1.1203 C   0  0  0  0  0  0  0  0  0  0  0  0
    0.4114    5.0071    0.5789 C   0  0  0  0  0  0  0  0  0  0  0  0
   -0.7920    3.2362   -1.4047 N   0  0  0  0  0  0  0  0  0  0  0  0
    0.0281    2.8863   -0.2360 C   0  0  0  0  0  0  0  0  0  0  0  0
    0.0250    1.3780   -0.0480 C   0  0  0  0  0  0  0  0  0  0  0  0
    1.1430   -0.6970    0.0890 C   0  0  0  0  0  0  0  0  0  0  0  0
    0.9391    0.0691    0.0389 Cl  0  5  0  0  0  0  0  0  0  0  0  0
    1.0492    0.0534   -0.0688 Mn  0  2  0  0  0  0  0  0  0  0  0  0
    1.0222    0.0813    0.0538 Cl  0  5  0  0  0  0  0  0  0  0  0  0
    0.0150   -2.4403    0.1741 H   0  0  0  0  0  0  0  0  0  0  0  0
   -2.0346   -1.1618   -0.5736 H   0  0  0  0  0  0  0  0  0  0  0  0
   -2.0317    1.1700    0.5750 H   0  0  0  0  0  0  0  0  0  0  0  0
    2.9106   -1.0499    1.2250 H   0  0  0  0  0  0  0  0  0  0  0  0
    2.2636   -2.4737    0.4457 H   0  0  0  0  0  0  0  0  0  0  0  0
    5.1596    3.7154    1.4271 H   0  0  0  0  0  0  0  0  0  0  0  0
    4.0369    2.5088    3.8456 H   0  0  0  0  0  0  0  0  0  0  0  0
    2.5160    4.1405    2.8333 H   0  0  0  0  0  0  0  0  0  0  0  0
    1.5322    2.0629    3.6815 H   0  0  0  0  0  0  0  0  0  0  0  0
    0.6709    2.5800    2.2547 H   0  0  0  0  0  0  0  0  0  0  0  0
    1.1862    0.1585    2.1834 H   0  0  0  0  0  0  0  0  0  0  0  0
    1.9647    1.0236    0.8803 H   0  0  0  0  0  0  0  0  0  0  0  0
    3.1518    0.3504    3.4597 H   0  0  0  0  0  0  0  0  0  0  0  0
    3.4087   -0.5246    1.9294 H   0  0  0  0  0  0  0  0  0  0  0  0
    4.3512    1.4502    1.0368 H   0  0  0  0  0  0  0  0  0  0  0  0
    5.2081    0.8775    2.4475 H   0  0  0  0  0  0  0  0  0  0  0  0
    1.9273    3.0933    0.4313 H   0  0  0  0  0  0  0  0  0  0  0  0
    3.6907    5.3345    1.0980 H   0  0  0  0  0  0  0  0  0  0  0  0
    1.9450    5.3919    1.0501 H   0  0  0  0  0  0  0  0  0  0  0  0
    3.7361    4.7321   -1.2769 H   0  0  0  0  0  0  0  0  0  0  0  0
    2.9049    6.2499   -1.0350 H   0  0  0  0  0  0  0  0  0  0  0  0
    1.6256    3.6322   -1.3325 H   0  0  0  0  0  0  0  0  0  0  0  0
    0.5102    6.3283   -1.1028 H   0  0  0  0  0  0  0  0  0  0  0  0
   -0.7989    4.9188   -2.6328 H   0  0  0  0  0  0  0  0  0  0  0  0
   -2.0388    6.3696   -1.1093 H   0  0  0  0  0  0  0  0  0  0  0  0
   -2.9101    4.8769   -1.3492 H   0  0  0  0  0  0  0  0  0  0  0  0
   -2.8278    5.5122    1.0433 H   0  0  0  0  0  0  0  0  0  0  0  0
   -2.0193    3.9914    0.7502 H   0  0  0  0  0  0  0  0  0  0  0  0
   -0.7621    6.6223    0.8684 H   0  0  0  0  0  0  0  0  0  0  0  0
   -0.7843    5.4134    2.1768 H   0  0  0  0  0  0  0  0  0  0  0  0
    0.4097    3.9517    0.7547 H   0  0  0  0  0  0  0  0  0  0  0  0
    1.2659    5.4456    1.0507 H   0  0  0  0  0  0  0  0  0  0  0  0
   -0.4066    2.7891   -2.2366 H   0  0  0  0  0  0  0  0  0  0  0  0
   -0.3761    3.3553    0.6367 H   0  0  0  0  0  0  0  0  0  0  0  0
    1.0315    3.2245   -0.3902 H   0  0  0  0  0  0  0  0  0  0  0  0
  1 26  1  0  0  0  0
  1 30  1  0  0  0  0
  2  1  2  0  0  0  0
  2 31  1  0  0  0  0
  3  2  1  0  0  0  0
  3 25  2  0  0  0  0
  3 32  1  0  0  0  0
  4 25  1  0  0  0  0
  5  6  1  0  0  0  0
  5 26  1  0  0  0  0
  5 33  1  0  0  0  0
  5 34  1  0  0  0  0
  6 35  1  0  0  0  0
  7  6  1  0  0  0  0
  7 12  1  0  0  0  0
  7 36  1  6  0  0  0
  8  7  1  0  0  0  0
  8 13  1  0  0  0  0
  8 37  1  1  0  0  0
  9  8  1  0  0  0  0
  9 38  1  0  0  0  0
  9 39  1  0  0  0  0
 10  9  1  0  0  0  0
 10 40  1  0  0  0  0
 10 41  1  0  0  0  0
 11 10  1  0  0  0  0
 11 42  1  0  0  0  0
 11 43  1  0  0  0  0
 12 11  1  0  0  0  0
 12 44  1  0  0  0  0
 12 45  1  0  0  0  0
 13 14  1  0  0  0  0
 13 46  1  0  0  0  0
 14 15  1  0  0  0  0
 14 47  1  0  0  0  0
 14 48  1  0  0  0  0
 15 16  1  0  0  0  0
 15 49  1  0  0  0  0
 15 50  1  0  0  0  0
 16 51  1  0  0  0  0
 17 16  1  0  0  0  0
 17 22  1  0  0  0  0
 17 52  1  1  0  0  0
 18 17  1  0  0  0  0
 18 23  1  0  0  0  0
 18 53  1  6  0  0  0
 19 18  1  0  0  0  0
 19 54  1  0  0  0  0
 19 55  1  0  0  0  0
 20 19  1  0  0  0  0
 20 56  1  0  0  0  0
 20 57  1  0  0  0  0
 21 20  1  0  0  0  0
 21 58  1  0  0  0  0
 21 59  1  0  0  0  0
 22 21  1  0  0  0  0
 22 60  1  0  0  0  0
 22 61  1  0  0  0  0
 23 24  1  0  0  0  0
 23 62  1  0  0  0  0
 24 25  1  0  0  0  0
 24 63  1  0  0  0  0
 24 64  1  0  0  0  0
 26  4  2  0  0  0  0
M  CHG  3  27  -1  28   2  29  -1
M  END
>  <DRUGBANK_ID>
DB16354

>  <COMMON_NAME>
Avasopasem manganese

>  <CAS_NUMBER>
435327-40-5

>  <UNII>
EY1WA413UL

>  <SYNONYMS>
Avasopasem manganese

$$$$
