
 OpenBabel10282417123D

 16 15  0  0  0  0  0  0  0  0999 V2000
    1.0791   -0.0635    0.0903 C   0  0  2  0  0  0  0  0  0  0  0  0
    0.6457    1.1146    0.7756 O   0  0  0  0  0  0  0  0  0  0  0  0
    0.5749    0.0373   -1.3539 C   0  0  0  0  0  0  0  0  0  0  0  0
    0.5670   -1.2748    0.8592 C   0  0  0  0  0  0  0  0  0  0  0  0
    1.0657   -1.0636   -2.2846 C   0  0  0  0  0  0  0  0  0  0  0  0
    0.4798   -2.3171   -1.9729 O   0  0  0  0  0  0  0  0  0  0  0  0
    2.1747   -0.0563    0.0991 H   0  0  0  0  0  0  0  0  0  0  0  0
    0.9169    1.0333    1.7063 H   0  0  0  0  0  0  0  0  0  0  0  0
   -0.5223    0.0649   -1.3524 H   0  0  0  0  0  0  0  0  0  0  0  0
    0.8971    1.0045   -1.7629 H   0  0  0  0  0  0  0  0  0  0  0  0
    1.0249   -2.2035    0.5155 H   0  0  0  0  0  0  0  0  0  0  0  0
    0.7953   -1.1829    1.9262 H   0  0  0  0  0  0  0  0  0  0  0  0
   -0.5214   -1.3616    0.7735 H   0  0  0  0  0  0  0  0  0  0  0  0
    0.7723   -0.8260   -3.3124 H   0  0  0  0  0  0  0  0  0  0  0  0
    2.1568   -1.1532   -2.2635 H   0  0  0  0  0  0  0  0  0  0  0  0
    1.0913   -2.7940   -1.3861 H   0  0  0  0  0  0  0  0  0  0  0  0
  1  2  1  0  0  0  0
  1  3  1  0  0  0  0
  1  4  1  0  0  0  0
  1  7  1  6  0  0  0
  2  8  1  0  0  0  0
  3  5  1  0  0  0  0
  3  9  1  0  0  0  0
  3 10  1  0  0  0  0
  4 11  1  0  0  0  0
  4 12  1  0  0  0  0
  4 13  1  0  0  0  0
  5  6  1  0  0  0  0
  5 14  1  0  0  0  0
  5 15  1  0  0  0  0
  6 16  1  0  0  0  0
M  END
>  <DRUGBANK_ID>
DB02202

>  <SECONDARY_ACCESSION_NUMBERS>
EXPT00772

>  <COMMON_NAME>
(S)-butane-1,3-diol

>  <CAS_NUMBER>
24621-61-2

>  <SYNONYMS>
(S)-(+)-Butane-1,3-diol

$$$$
