783
 OpenBabel10282417113D

 44 47  0  0  1  0  0  0  0  0999 V2000
   -5.0454    1.1221   -0.3082 O   0  0  0  0  0  0  0  0  0  0  0  0
    5.7891    0.2134   -0.5658 O   0  0  0  0  0  0  0  0  0  0  0  0
   -2.6465    0.5430   -0.1143 C   0  0  1  0  0  0  0  0  0  0  0  0
   -1.9919   -0.7766    0.3440 C   0  0  2  0  0  0  0  0  0  0  0  0
   -0.5034   -0.8409   -0.0100 C   0  0  1  0  0  0  0  0  0  0  0  0
    0.2335    0.3505    0.6765 C   0  0  2  0  0  0  0  0  0  0  0  0
   -4.0998    0.2764    0.3184 C   0  0  2  0  0  0  0  0  0  0  0  0
   -1.9690    1.6936    0.6346 C   0  0  0  0  0  0  0  0  0  0  0  0
   -2.9430   -1.8404   -0.2003 C   0  0  0  0  0  0  0  0  0  0  0  0
   -0.4552    1.7077    0.3863 C   0  0  0  0  0  0  0  0  0  0  0  0
   -4.3371   -1.1973   -0.0585 C   0  0  0  0  0  0  0  0  0  0  0  0
    0.1524   -2.1423    0.4634 C   0  0  0  0  0  0  0  0  0  0  0  0
   -2.5721    0.7967   -1.6418 C   0  0  0  0  0  0  0  0  0  0  0  0
    1.7217    0.3243    0.3474 C   0  0  0  0  0  0  0  0  0  0  0  0
    1.6149   -2.2127    0.0193 C   0  0  0  0  0  0  0  0  0  0  0  0
    2.3621   -0.9001    0.0625 C   0  0  0  0  0  0  0  0  0  0  0  0
    2.4968    1.4982    0.3711 C   0  0  0  0  0  0  0  0  0  0  0  0
    3.7345   -0.9070   -0.2455 C   0  0  0  0  0  0  0  0  0  0  0  0
    3.8577    1.4799    0.0658 C   0  0  0  0  0  0  0  0  0  0  0  0
    4.4649    0.2737   -0.2480 C   0  0  0  0  0  0  0  0  0  0  0  0
   -2.0603   -0.8418    1.4426 H   0  0  0  0  0  0  0  0  0  0  0  0
   -0.3824   -0.7786   -1.0999 H   0  0  0  0  0  0  0  0  0  0  0  0
    0.1700    0.1996    1.7652 H   0  0  0  0  0  0  0  0  0  0  0  0
   -4.8439    2.0354   -0.0408 H   0  0  0  0  0  0  0  0  0  0  0  0
    6.1534    1.1128   -0.5313 H   0  0  0  0  0  0  0  0  0  0  0  0
   -4.2148    0.3934    1.4034 H   0  0  0  0  0  0  0  0  0  0  0  0
   -2.1387    1.5905    1.7147 H   0  0  0  0  0  0  0  0  0  0  0  0
   -2.4001    2.6581    0.3435 H   0  0  0  0  0  0  0  0  0  0  0  0
   -2.7339   -2.0699   -1.2512 H   0  0  0  0  0  0  0  0  0  0  0  0
   -2.8798   -2.7789    0.3590 H   0  0  0  0  0  0  0  0  0  0  0  0
   -0.0326    2.4881    1.0296 H   0  0  0  0  0  0  0  0  0  0  0  0
   -0.2455    2.0178   -0.6443 H   0  0  0  0  0  0  0  0  0  0  0  0
   -4.9149   -1.3005   -0.9837 H   0  0  0  0  0  0  0  0  0  0  0  0
   -4.9097   -1.6925    0.7339 H   0  0  0  0  0  0  0  0  0  0  0  0
   -0.3797   -3.0194    0.0774 H   0  0  0  0  0  0  0  0  0  0  0  0
    0.1000   -2.2035    1.5586 H   0  0  0  0  0  0  0  0  0  0  0  0
   -2.9817   -0.0340   -2.2240 H   0  0  0  0  0  0  0  0  0  0  0  0
   -3.1392    1.6936   -1.9149 H   0  0  0  0  0  0  0  0  0  0  0  0
   -1.5495    0.9505   -1.9962 H   0  0  0  0  0  0  0  0  0  0  0  0
    1.6478   -2.5834   -1.0129 H   0  0  0  0  0  0  0  0  0  0  0  0
    2.1344   -2.9469    0.6479 H   0  0  0  0  0  0  0  0  0  0  0  0
    2.0557    2.4589    0.6218 H   0  0  0  0  0  0  0  0  0  0  0  0
    4.2372   -1.8394   -0.4941 H   0  0  0  0  0  0  0  0  0  0  0  0
    4.4147    2.4101    0.0771 H   0  0  0  0  0  0  0  0  0  0  0  0
  1 24  1  0  0  0  0
  2 20  1  0  0  0  0
  2 25  1  0  0  0  0
  3  4  1  0  0  0  0
  3  7  1  0  0  0  0
  3  8  1  0  0  0  0
  3 13  1  6  0  0  0
  4  5  1  0  0  0  0
  4  9  1  0  0  0  0
  4 21  1  1  0  0  0
  5  6  1  0  0  0  0
  5 12  1  0  0  0  0
  5 22  1  6  0  0  0
  6 10  1  0  0  0  0
  6 14  1  0  0  0  0
  6 23  1  1  0  0  0
  7  1  1  0  0  0  0
  7 11  1  0  0  0  0
  7 26  1  1  0  0  0
  8 10  1  0  0  0  0
  8 27  1  0  0  0  0
  8 28  1  0  0  0  0
  9 11  1  0  0  0  0
  9 29  1  0  0  0  0
  9 30  1  0  0  0  0
 10 31  1  0  0  0  0
 10 32  1  0  0  0  0
 11 33  1  0  0  0  0
 11 34  1  0  0  0  0
 12 15  1  0  0  0  0
 12 35  1  0  0  0  0
 12 36  1  0  0  0  0
 13 37  1  0  0  0  0
 13 38  1  0  0  0  0
 13 39  1  0  0  0  0
 14 16  2  0  0  0  0
 14 17  1  0  0  0  0
 15 16  1  0  0  0  0
 15 40  1  0  0  0  0
 15 41  1  0  0  0  0
 16 18  1  0  0  0  0
 17 19  2  0  0  0  0
 17 42  1  0  0  0  0
 18 20  2  0  0  0  0
 18 43  1  0  0  0  0
 19 20  1  0  0  0  0
 19 44  1  0  0  0  0
M  END
>  <DRUGBANK_ID>
DB00783

>  <SECONDARY_ACCESSION_NUMBERS>
APRD00311

>  <COMMON_NAME>
Estradiol

>  <CAS_NUMBER>
50-28-2

>  <UNII>
4TI98Z838E

>  <SYNONYMS>
(17β)-estra-1,3,5(10)-triene-3,17-diol; 17beta oestradiol; 17β-estra-1,3,5(10)-triene-3,17-diol; 17β-estradiol; 17β-oestradiol; beta-Estradiol; cis-Estradiol; Estradiol; Estradiol-17beta; Estradiolum

$$$$
