
 OpenBabel10282417153D

 45 46  0  0  0  0  0  0  0  0999 V2000
    1.0737    0.0022    0.0676 C   0  0  0  0  0  0  0  0  0  0  0  0
    0.5670    1.4216    0.2653 C   0  0  0  0  0  0  0  0  0  0  0  0
   -0.6890    1.7850    0.7604 C   0  0  0  0  0  0  0  0  0  0  0  0
   -0.7716    3.1618    0.8046 C   0  0  0  0  0  0  0  0  0  0  0  0
   -1.7639    4.0510    1.2012 C   0  0  0  0  0  0  0  0  0  0  0  0
   -1.5398    5.4076    1.1313 N   0  0  0  0  0  0  0  0  0  0  0  0
   -0.3255    5.9015    0.6541 C   0  0  0  0  0  0  0  0  0  0  0  0
    0.6720    5.0333    0.2568 N   0  0  0  0  0  0  0  0  0  0  0  0
    0.4565    3.6537    0.3284 C   0  0  0  0  0  0  0  0  0  0  0  0
    1.2694    2.4839   -0.0004 S   0  0  0  0  0  0  0  0  0  0  0  0
   -0.1068    7.3529    0.5739 N   0  0  0  0  0  0  0  0  0  0  0  0
   -0.2292    7.9418    1.9128 C   0  0  0  0  0  0  0  0  0  0  0  0
   -0.9363    9.2810    1.8338 C   0  0  0  0  0  0  0  0  0  0  0  0
   -0.2118   10.2209    0.9697 N   0  0  0  0  0  0  0  0  0  0  0  0
   -0.0895    9.6321   -0.3692 C   0  0  0  0  0  0  0  0  0  0  0  0
    0.6177    8.2928   -0.2903 C   0  0  0  0  0  0  0  0  0  0  0  0
   -3.0957    3.5257    1.7117 C   0  0  0  0  0  0  0  0  0  0  0  0
   -4.2840    3.8486    1.0724 C   0  0  0  0  0  0  0  0  0  0  0  0
   -5.4720    3.3586    1.5950 C   0  0  0  0  0  0  0  0  0  0  0  0
   -5.4334    2.5647    2.7249 C   0  0  0  0  0  0  0  0  0  0  0  0
   -4.2825    2.2711    3.3066 C   0  0  0  0  0  0  0  0  0  0  0  0
   -3.1318    2.7271    2.8372 C   0  0  0  0  0  0  0  0  0  0  0  0
   -1.9979    2.4123    3.4569 F   0  0  0  0  0  0  0  0  0  0  0  0
    0.9493   -0.0797    0.0328 O   0  0  0  0  0  0  0  0  0  0  0  0
    1.0682    0.0497   -0.0537 Cl  0  0  0  0  0  0  0  0  0  0  0  0
    0.7170   -0.3768   -0.8673 H   0  0  0  0  0  0  0  0  0  0  0  0
    0.7170   -0.6179    0.8633 H   0  0  0  0  0  0  0  0  0  0  0  0
    2.1437    0.0022    0.0676 H   0  0  0  0  0  0  0  0  0  0  0  0
   -1.4608    1.1059    1.0569 H   0  0  0  0  0  0  0  0  0  0  0  0
   -0.7992    7.2822    2.5333 H   0  0  0  0  0  0  0  0  0  0  0  0
    0.7471    8.0816    2.3279 H   0  0  0  0  0  0  0  0  0  0  0  0
   -1.9093    9.1233    1.4175 H   0  0  0  0  0  0  0  0  0  0  0  0
   -1.0062    9.6961    2.8176 H   0  0  0  0  0  0  0  0  0  0  0  0
    0.7168   10.3945    1.3543 H   0  0  0  0  0  0  0  0  0  0  0  0
   -1.0679    9.4865   -0.7772 H   0  0  0  0  0  0  0  0  0  0  0  0
    0.4732   10.2924   -0.9956 H   0  0  0  0  0  0  0  0  0  0  0  0
    1.5907    8.4505    0.1261 H   0  0  0  0  0  0  0  0  0  0  0  0
    0.6876    7.8778   -1.2740 H   0  0  0  0  0  0  0  0  0  0  0  0
   -4.2841    4.4621    0.1958 H   0  0  0  0  0  0  0  0  0  0  0  0
   -6.4062    3.5925    1.1288 H   0  0  0  0  0  0  0  0  0  0  0  0
   -6.3453    2.1830    3.1343 H   0  0  0  0  0  0  0  0  0  0  0  0
   -4.2815    1.6499    4.1778 H   0  0  0  0  0  0  0  0  0  0  0  0
    0.6159    0.4599   -0.7403 H   0  0  0  0  0  0  0  0  0  0  0  0
    1.9493   -0.0797    0.0328 H   0  0  0  0  0  0  0  0  0  0  0  0
    2.3982    0.0497   -0.0537 H   0  0  0  0  0  0  0  0  0  0  0  0
  1  2  1  0  0  0  0
  1 26  1  0  0  0  0
  1 27  1  0  0  0  0
  1 28  1  0  0  0  0
  2  3  2  0  0  0  0
  2 10  1  0  0  0  0
  3  4  1  0  0  0  0
  3 29  1  0  0  0  0
  4  5  2  0  0  0  0
  4  9  1  0  0  0  0
  5  6  1  0  0  0  0
  5 17  1  0  0  0  0
  6  7  2  0  0  0  0
  7  8  1  0  0  0  0
  7 11  1  0  0  0  0
  8  9  2  0  0  0  0
  9 10  1  0  0  0  0
 11 12  1  0  0  0  0
 11 16  1  0  0  0  0
 12 13  1  0  0  0  0
 12 30  1  0  0  0  0
 12 31  1  0  0  0  0
 13 14  1  0  0  0  0
 13 32  1  0  0  0  0
 13 33  1  0  0  0  0
 14 15  1  0  0  0  0
 14 34  1  0  0  0  0
 15 16  1  0  0  0  0
 15 35  1  0  0  0  0
 15 36  1  0  0  0  0
 16 37  1  0  0  0  0
 16 38  1  0  0  0  0
 17 18  2  0  0  0  0
 17 22  1  0  0  0  0
 18 19  1  0  0  0  0
 18 39  1  0  0  0  0
 19 20  2  0  0  0  0
 19 40  1  0  0  0  0
 20 21  1  0  0  0  0
 20 41  1  0  0  0  0
 21 22  2  0  0  0  0
 21 42  1  0  0  0  0
 22 23  1  0  0  0  0
 24 43  1  0  0  0  0
 24 44  1  0  0  0  0
 25 45  1  0  0  0  0
M  END
>  <DRUGBANK_ID>
DB05642

>  <COMMON_NAME>
DDP-225

>  <CAS_NUMBER>
476148-82-0

>  <UNII>
SZU399KT7Q

$$$$
