
 OpenBabel10282417233D

 28 27  0  0  0  0  0  0  0  0999 V2000
    1.0952    0.1140    0.0605 C   0  0  0  0  0  0  0  0  0  0  0  0
    0.5862    0.7658    1.3350 C   0  0  0  0  0  0  0  0  0  0  0  0
    0.6369    0.8739   -1.1863 C   0  0  0  0  0  0  0  0  0  0  0  0
    1.1180    2.1726    1.4556 C   0  0  0  0  0  0  0  0  0  0  0  0
    1.1300    0.1940   -2.4615 C   0  0  0  0  0  0  0  0  0  0  0  0
    0.1554    3.1432    1.5136 N   0  0  0  0  0  0  0  0  0  0  0  0
    2.3218    2.4397    1.4638 O   0  0  0  0  0  0  0  0  0  0  0  0
    0.5730   -1.2244   -2.6247 C   0  0  0  0  0  0  0  0  0  0  0  0
    0.6001    4.4818    1.5547 O   0  0  0  0  0  0  0  0  0  0  0  0
   -0.9579   -1.2601   -2.6314 C   0  0  0  0  0  0  0  0  0  0  0  0
   -1.5206   -0.4508   -3.7895 C   0  0  0  0  0  0  0  0  0  0  0  0
    0.7220   -0.9158    0.0488 H   0  0  0  0  0  0  0  0  0  0  0  0
    2.1903    0.0559    0.0636 H   0  0  0  0  0  0  0  0  0  0  0  0
   -0.5100    0.7535    1.3444 H   0  0  0  0  0  0  0  0  0  0  0  0
    0.9258    0.1920    2.2035 H   0  0  0  0  0  0  0  0  0  0  0  0
   -0.4556    0.9663   -1.1852 H   0  0  0  0  0  0  0  0  0  0  0  0
    1.0167    1.9011   -1.1740 H   0  0  0  0  0  0  0  0  0  0  0  0
    0.8541    0.8118   -3.3236 H   0  0  0  0  0  0  0  0  0  0  0  0
    2.2255    0.1627   -2.4620 H   0  0  0  0  0  0  0  0  0  0  0  0
   -0.8436    2.9877    1.4406 H   0  0  0  0  0  0  0  0  0  0  0  0
    0.9576   -1.6579   -3.5545 H   0  0  0  0  0  0  0  0  0  0  0  0
    0.9473   -1.8712   -1.8229 H   0  0  0  0  0  0  0  0  0  0  0  0
    1.5774    4.3794    1.5390 H   0  0  0  0  0  0  0  0  0  0  0  0
   -1.2975   -2.2983   -2.7047 H   0  0  0  0  0  0  0  0  0  0  0  0
   -1.3641   -0.8820   -1.6860 H   0  0  0  0  0  0  0  0  0  0  0  0
   -1.1544   -0.8511   -4.7396 H   0  0  0  0  0  0  0  0  0  0  0  0
   -2.6119   -0.4810   -3.7883 H   0  0  0  0  0  0  0  0  0  0  0  0
   -1.2293    0.6027   -3.7313 H   0  0  0  0  0  0  0  0  0  0  0  0
  1  2  1  0  0  0  0
  1  3  1  0  0  0  0
  1 12  1  0  0  0  0
  1 13  1  0  0  0  0
  2  4  1  0  0  0  0
  2 14  1  0  0  0  0
  2 15  1  0  0  0  0
  3  5  1  0  0  0  0
  3 16  1  0  0  0  0
  3 17  1  0  0  0  0
  4  6  1  0  0  0  0
  4  7  2  0  0  0  0
  5  8  1  0  0  0  0
  5 18  1  0  0  0  0
  5 19  1  0  0  0  0
  6  9  1  0  0  0  0
  6 20  1  0  0  0  0
  8 10  1  0  0  0  0
  8 21  1  0  0  0  0
  8 22  1  0  0  0  0
  9 23  1  0  0  0  0
 10 11  1  0  0  0  0
 10 24  1  0  0  0  0
 10 25  1  0  0  0  0
 11 26  1  0  0  0  0
 11 27  1  0  0  0  0
 11 28  1  0  0  0  0
M  END
>  <DRUGBANK_ID>
DB16634

>  <COMMON_NAME>
Caprylhydroxamic acid

>  <CAS_NUMBER>
7377-03-9

>  <UNII>
UPY805K99W

>  <SYNONYMS>
Caprylohydroxamic acid; N-Hydroxyoctanamide; Octanohydroxamic acid; Octanoylhydroxamic acid; Taselin

$$$$
