
 OpenBabel10282417233D

 73 73  0  0  0  0  0  0  0  0999 V2000
    0.9549    0.0113   -0.0947 C   0  0  0  0  0  0  0  0  0  0  0  0
    0.5107   -0.7851    1.1217 C   0  0  0  0  0  0  0  0  0  0  0  0
    1.0049   -0.1198    2.4073 C   0  0  0  0  0  0  0  0  0  0  0  0
    0.4455    1.2991    2.5519 C   0  0  0  0  0  0  0  0  0  0  0  0
   -1.0881    1.2804    2.5538 C   0  0  0  0  0  0  0  0  0  0  0  0
   -1.6187    0.4588    3.7351 C   0  0  0  0  0  0  0  0  0  0  0  0
   -1.1413    1.0605    5.0530 C   0  0  0  0  0  0  0  0  0  0  0  0
   -1.5585    2.5175    5.1390 C   0  0  0  0  0  0  0  0  0  0  0  0
   -3.0506    2.5756    5.1921 C   0  0  0  0  0  0  0  0  0  0  0  0
   -3.7047    3.0043    6.2649 C   0  0  0  0  0  0  0  0  0  0  0  0
   -2.9971    3.6394    7.4155 C   0  0  0  0  0  0  0  0  0  0  0  0
   -3.3249    5.1303    7.4052 C   0  0  0  0  0  0  0  0  0  0  0  0
   -4.8030    5.3508    7.6145 C   0  0  0  0  0  0  0  0  0  0  0  0
   -5.1550    4.6713    8.8908 C   0  0  0  0  0  0  0  0  0  0  0  0
   -4.3687    5.3196   10.0699 C   0  0  0  0  0  0  0  0  0  0  0  0
   -4.8989    6.6586   10.4764 C   0  0  0  0  0  0  0  0  0  0  0  0
   -6.3845    6.5374   10.8605 C   0  0  0  0  0  0  0  0  0  0  0  0
   -6.7570    5.7357   12.1516 C   0  0  0  0  0  0  0  0  0  0  0  0
   -7.2654    6.3258   13.0876 O   0  0  0  0  0  0  0  0  0  0  0  0
   -6.5838    4.3675   12.2866 N   0  0  0  0  0  0  0  0  0  0  0  0
   -6.1522    3.4011   11.3069 C   0  0  0  0  0  0  0  0  0  0  0  0
   -4.7332    2.7809   11.4994 C   0  0  0  0  0  0  0  0  0  0  0  0
   -4.8335    1.7650   12.5621 C   0  0  0  0  0  0  0  0  0  0  0  0
   -5.8598    0.8261   12.4669 C   0  0  0  0  0  0  0  0  0  0  0  0
   -6.1134   -0.0024   13.5289 C   0  0  0  0  0  0  0  0  0  0  0  0
   -5.2735    0.0631   14.6346 C   0  0  0  0  0  0  0  0  0  0  0  0
   -5.4716   -0.7740   15.6920 O   0  0  0  0  0  0  0  0  0  0  0  0
   -4.2117    0.9666   14.6984 C   0  0  0  0  0  0  0  0  0  0  0  0
   -3.3816    1.0209   15.7752 O   0  0  0  0  0  0  0  0  0  0  0  0
   -3.9872    1.8405   13.6673 C   0  0  0  0  0  0  0  0  0  0  0  0
    0.5574    1.0315   -0.0877 H   0  0  0  0  0  0  0  0  0  0  0  0
    0.6022   -0.4571   -1.0140 H   0  0  0  0  0  0  0  0  0  0  0  0
    2.0466    0.0765   -0.1161 H   0  0  0  0  0  0  0  0  0  0  0  0
   -0.5816   -0.8819    1.1198 H   0  0  0  0  0  0  0  0  0  0  0  0
    0.8929   -1.8079    1.0670 H   0  0  0  0  0  0  0  0  0  0  0  0
    0.7227   -0.7371    3.2690 H   0  0  0  0  0  0  0  0  0  0  0  0
    2.0985   -0.0870    2.4232 H   0  0  0  0  0  0  0  0  0  0  0  0
    0.8471    1.7601    3.4613 H   0  0  0  0  0  0  0  0  0  0  0  0
    0.8036    1.9532    1.7523 H   0  0  0  0  0  0  0  0  0  0  0  0
   -1.4634    2.3087    2.5663 H   0  0  0  0  0  0  0  0  0  0  0  0
   -1.4970    0.8832    1.6221 H   0  0  0  0  0  0  0  0  0  0  0  0
   -2.7116    0.4177    3.6927 H   0  0  0  0  0  0  0  0  0  0  0  0
   -1.3070   -0.5873    3.6819 H   0  0  0  0  0  0  0  0  0  0  0  0
   -1.5349    0.4862    5.9010 H   0  0  0  0  0  0  0  0  0  0  0  0
   -0.0522    1.0023    5.1535 H   0  0  0  0  0  0  0  0  0  0  0  0
   -1.0391    2.9285    5.9990 H   0  0  0  0  0  0  0  0  0  0  0  0
   -1.2083    3.1510    4.3229 H   0  0  0  0  0  0  0  0  0  0  0  0
   -3.6346    2.2132    4.3484 H   0  0  0  0  0  0  0  0  0  0  0  0
   -4.7930    2.9541    6.2586 H   0  0  0  0  0  0  0  0  0  0  0  0
   -3.2467    3.0824    8.3235 H   0  0  0  0  0  0  0  0  0  0  0  0
   -1.9151    3.5749    7.4145 H   0  0  0  0  0  0  0  0  0  0  0  0
   -2.7360    5.6124    8.1897 H   0  0  0  0  0  0  0  0  0  0  0  0
   -3.0201    5.6214    6.4817 H   0  0  0  0  0  0  0  0  0  0  0  0
   -5.0705    6.4048    7.6920 H   0  0  0  0  0  0  0  0  0  0  0  0
   -5.4221    4.9375    6.8112 H   0  0  0  0  0  0  0  0  0  0  0  0
   -6.2474    4.7472    8.9060 H   0  0  0  0  0  0  0  0  0  0  0  0
   -4.9988    3.5823    8.8568 H   0  0  0  0  0  0  0  0  0  0  0  0
   -4.4763    4.8607   11.0217 H   0  0  0  0  0  0  0  0  0  0  0  0
   -3.2836    5.2229    9.9760 H   0  0  0  0  0  0  0  0  0  0  0  0
   -4.3243    7.0062   11.3430 H   0  0  0  0  0  0  0  0  0  0  0  0
   -4.7208    7.3657    9.6630 H   0  0  0  0  0  0  0  0  0  0  0  0
   -6.7249    7.5658   11.0246 H   0  0  0  0  0  0  0  0  0  0  0  0
   -6.9980    6.1862   10.0253 H   0  0  0  0  0  0  0  0  0  0  0  0
   -6.8889    3.9959   13.1782 H   0  0  0  0  0  0  0  0  0  0  0  0
   -6.9185    2.6725   11.0346 H   0  0  0  0  0  0  0  0  0  0  0  0
   -6.2351    3.9897   10.4498 H   0  0  0  0  0  0  0  0  0  0  0  0
   -4.3346    2.3269   10.5817 H   0  0  0  0  0  0  0  0  0  0  0  0
   -3.9445    3.4622   11.8473 H   0  0  0  0  0  0  0  0  0  0  0  0
   -6.5008    0.7904   11.5894 H   0  0  0  0  0  0  0  0  0  0  0  0
   -6.9651   -0.6655   13.4579 H   0  0  0  0  0  0  0  0  0  0  0  0
   -6.2371   -1.3290   15.4638 H   0  0  0  0  0  0  0  0  0  0  0  0
   -3.6963    0.3090   16.3612 H   0  0  0  0  0  0  0  0  0  0  0  0
   -3.1945    2.5834   13.7383 H   0  0  0  0  0  0  0  0  0  0  0  0
  1  2  1  0  0  0  0
  1 31  1  0  0  0  0
  1 32  1  0  0  0  0
  1 33  1  0  0  0  0
  2  3  1  0  0  0  0
  2 34  1  0  0  0  0
  2 35  1  0  0  0  0
  3  4  1  0  0  0  0
  3 36  1  0  0  0  0
  3 37  1  0  0  0  0
  4  5  1  0  0  0  0
  4 38  1  0  0  0  0
  4 39  1  0  0  0  0
  5  6  1  0  0  0  0
  5 40  1  0  0  0  0
  5 41  1  0  0  0  0
  6  7  1  0  0  0  0
  6 42  1  0  0  0  0
  6 43  1  0  0  0  0
  7  8  1  0  0  0  0
  7 44  1  0  0  0  0
  7 45  1  0  0  0  0
  8  9  1  0  0  0  0
  8 46  1  0  0  0  0
  8 47  1  0  0  0  0
  9 10  2  0  0  0  0
  9 48  1  0  0  0  0
 10 11  1  0  0  0  0
 10 49  1  0  0  0  0
 11 12  1  0  0  0  0
 11 50  1  0  0  0  0
 11 51  1  0  0  0  0
 12 13  1  0  0  0  0
 12 52  1  0  0  0  0
 12 53  1  0  0  0  0
 13 14  1  0  0  0  0
 13 54  1  0  0  0  0
 13 55  1  0  0  0  0
 14 15  1  0  0  0  0
 14 56  1  0  0  0  0
 14 57  1  0  0  0  0
 15 16  1  0  0  0  0
 15 58  1  0  0  0  0
 15 59  1  0  0  0  0
 16 17  1  0  0  0  0
 16 60  1  0  0  0  0
 16 61  1  0  0  0  0
 17 18  1  0  0  0  0
 17 62  1  0  0  0  0
 17 63  1  0  0  0  0
 18 19  2  0  0  0  0
 18 20  1  0  0  0  0
 20 21  1  0  0  0  0
 20 64  1  0  0  0  0
 21 22  1  0  0  0  0
 21 65  1  0  0  0  0
 21 66  1  0  0  0  0
 22 23  1  0  0  0  0
 22 67  1  0  0  0  0
 22 68  1  0  0  0  0
 23 24  2  0  0  0  0
 23 30  1  0  0  0  0
 24 25  1  0  0  0  0
 24 69  1  0  0  0  0
 25 26  2  0  0  0  0
 25 70  1  0  0  0  0
 26 27  1  0  0  0  0
 26 28  1  0  0  0  0
 27 71  1  0  0  0  0
 28 29  1  0  0  0  0
 28 30  2  0  0  0  0
 29 72  1  0  0  0  0
 30 73  1  0  0  0  0
M  END
>  <DRUGBANK_ID>
DB17036

>  <COMMON_NAME>
N-oleoyldopamine

>  <CAS_NUMBER>
105955-11-1

>  <UNII>
T87P7X9XSZ

>  <SYNONYMS>
(9z)- n-(2-(3,4-dihydroxyphenyl)ethyl)-9-octadecenamide

$$$$
