
 OpenBabel10282417143D

 25 25  0  0  1  0  0  0  0  0999 V2000
   -0.8679   -0.4120    3.4447 C   0  0  0  0  0  0  0  0  0  0  0  0
    0.3411   -3.5417   -0.2368 C   0  0  0  0  0  0  0  0  0  0  0  0
    0.9232   -2.2171    0.2150 C   0  0  2  0  0  0  0  0  0  0  0  0
    2.4425   -2.1759    0.0260 C   0  0  1  0  0  0  0  0  0  0  0  0
    2.9514   -0.8084    0.5147 C   0  0  1  0  0  0  0  0  0  0  0  0
    2.5225   -0.5395    1.9742 C   0  0  2  0  0  0  0  0  0  0  0  0
    0.9928   -0.7590    2.0719 C   0  0  2  0  0  0  0  0  0  0  0  0
    3.0883   -3.2105    0.7891 O   0  0  0  0  0  0  0  0  0  0  0  0
    4.3688   -0.7221    0.3649 O   0  0  0  0  0  0  0  0  0  0  0  0
    2.8955    0.7868    2.3704 O   0  0  0  0  0  0  0  0  0  0  0  0
    0.5422   -0.6112    3.4145 O   0  0  0  0  0  0  0  0  0  0  0  0
    0.6370   -2.0660    1.6053 O   0  0  0  0  0  0  0  0  0  0  0  0
   -0.8397   -3.6197   -1.4258 S   0  0  0  0  0  0  0  0  0  0  0  0
    0.4435   -1.3987   -0.3375 H   0  0  0  0  0  0  0  0  0  0  0  0
    2.7176   -2.3375   -1.0215 H   0  0  0  0  0  0  0  0  0  0  0  0
    2.5349   -0.0201   -0.1250 H   0  0  0  0  0  0  0  0  0  0  0  0
    3.0529   -1.2145    2.6574 H   0  0  0  0  0  0  0  0  0  0  0  0
    0.4977    0.0060    1.4584 H   0  0  0  0  0  0  0  0  0  0  0  0
   -1.3900   -1.2301    2.9378 H   0  0  0  0  0  0  0  0  0  0  0  0
   -1.1184    0.5391    2.9631 H   0  0  0  0  0  0  0  0  0  0  0  0
   -1.1993   -0.3743    4.4844 H   0  0  0  0  0  0  0  0  0  0  0  0
    0.7263   -4.4473    0.2610 H   0  0  0  0  0  0  0  0  0  0  0  0
    2.7017   -3.2224    1.6866 H   0  0  0  0  0  0  0  0  0  0  0  0
    4.7589   -1.4493    0.8860 H   0  0  0  0  0  0  0  0  0  0  0  0
    2.5529    1.4207    1.7147 H   0  0  0  0  0  0  0  0  0  0  0  0
  1 19  1  0  0  0  0
  1 20  1  0  0  0  0
  1 21  1  0  0  0  0
  2 22  1  0  0  0  0
  3  2  1  0  0  0  0
  3 14  1  6  0  0  0
  4  3  1  0  0  0  0
  4  8  1  0  0  0  0
  4 15  1  6  0  0  0
  5  4  1  0  0  0  0
  5  9  1  0  0  0  0
  5 16  1  6  0  0  0
  6  5  1  0  0  0  0
  6 10  1  0  0  0  0
  6 17  1  1  0  0  0
  7  6  1  0  0  0  0
  7 18  1  6  0  0  0
  7 11  1  0  0  0  0
  8 23  1  0  0  0  0
  9 24  1  0  0  0  0
 10 25  1  0  0  0  0
 11  1  1  0  0  0  0
 12  3  1  0  0  0  0
 12  7  1  0  0  0  0
 13  2  2  0  0  0  0
M  END
>  <DRUGBANK_ID>
DB04508

>  <SECONDARY_ACCESSION_NUMBERS>
EXPT03243

>  <COMMON_NAME>
Methyl(6s)-1-Thio-L-Manno-Hexodialdo-6,2-Pyranoside

$$$$
