
 OpenBabel10282417223D

 19 19  0  0  0  0  0  0  0  0999 V2000
   -1.4027   -0.0898   -0.0142 C   0  0  0  0  0  0  0  0  0  0  0  0
   -0.6391   -1.2524   -0.0127 C   0  0  0  0  0  0  0  0  0  0  0  0
   -0.7778    1.1582    0.0192 C   0  0  0  0  0  0  0  0  0  0  0  0
    0.7512   -1.1841    0.0232 C   0  0  0  0  0  0  0  0  0  0  0  0
    1.3933    0.0638   -0.0401 C   0  0  0  0  0  0  0  0  0  0  0  0
    0.6242    1.2445   -0.0389 C   0  0  0  0  0  0  0  0  0  0  0  0
   -3.1233   -0.1717   -0.1114 Cl  0  0  0  0  0  0  0  0  0  0  0  0
   -1.2016   -2.4984   -0.0865 O   0  0  0  0  0  0  0  0  0  0  0  0
    2.8908    0.1176   -0.1813 C   0  0  0  0  0  0  0  0  0  0  0  0
    1.2817    2.5926   -0.1673 C   0  0  0  0  0  0  0  0  0  0  0  0
   -1.3800    2.0607    0.0523 H   0  0  0  0  0  0  0  0  0  0  0  0
    1.3255   -2.1043    0.0558 H   0  0  0  0  0  0  0  0  0  0  0  0
   -2.1568   -2.3707   -0.2398 H   0  0  0  0  0  0  0  0  0  0  0  0
    3.1510    0.5741   -1.1428 H   0  0  0  0  0  0  0  0  0  0  0  0
    3.3343    0.7027    0.6297 H   0  0  0  0  0  0  0  0  0  0  0  0
    3.3380   -0.8806   -0.1609 H   0  0  0  0  0  0  0  0  0  0  0  0
    1.9928    2.7539    0.6486 H   0  0  0  0  0  0  0  0  0  0  0  0
    1.8094    2.6538   -1.1255 H   0  0  0  0  0  0  0  0  0  0  0  0
    0.5513    3.4068   -0.1424 H   0  0  0  0  0  0  0  0  0  0  0  0
  2  1  2  0  0  0  0
  3  1  1  0  0  0  0
  3 11  1  0  0  0  0
  4  2  1  0  0  0  0
  4  5  2  0  0  0  0
  4 12  1  0  0  0  0
  5  6  1  0  0  0  0
  6  3  2  0  0  0  0
  7  1  1  0  0  0  0
  8  2  1  0  0  0  0
  8 13  1  0  0  0  0
  9  5  1  0  0  0  0
  9 14  1  0  0  0  0
  9 15  1  0  0  0  0
  9 16  1  0  0  0  0
 10  6  1  0  0  0  0
 10 17  1  0  0  0  0
 10 18  1  0  0  0  0
 10 19  1  0  0  0  0
M  END
>  <DRUGBANK_ID>
DB15658

>  <COMMON_NAME>
2-chloro-4,5-dimethylphenol

>  <CAS_NUMBER>
1124-04-5

>  <UNII>
601F79M480

>  <SYNONYMS>
2-Chloro-4,5-dimethylphenol; 2-Chloro-4,5-xylenol; 3,4-Dimethyl-6-chlorophenol; 6-Chloro-3,4-xylenol; Banol phenol

$$$$
