1338
 OpenBabel10282417113D

105110  0  0  1  0  0  0  0  0999 V2000
    1.2062    0.0689   -0.0707 O   0  0  0  0  0  0  0  0  0  0  0  0
    0.0642    9.4518   -3.2017 O   0  0  0  0  0  0  0  0  0  0  0  0
    3.0653   -0.7907    0.8097 O   0  0  0  0  0  0  0  0  0  0  0  0
    1.0007    9.9573   -5.1563 O   0  0  0  0  0  0  0  0  0  0  0  0
   -1.6183   -0.2232    0.1918 N   0  0  0  0  0  0  0  0  0  0  0  0
    1.2526    9.8083    0.3548 N   0  0  0  0  0  0  0  0  0  0  0  0
   -3.2075   -0.8383    2.6372 N   0  3  0  0  0  0  0  0  0  0  0  0
    1.0740    9.1388    3.3634 N   0  3  0  0  0  0  0  0  0  0  0  0
   -1.0082    4.4516   -0.6715 C   0  0  2  0  0  0  0  0  0  0  0  0
    0.2276    5.3090   -1.0560 C   0  0  1  0  0  0  0  0  0  0  0  0
   -0.7181    3.0407   -1.0892 C   0  0  1  0  0  0  0  0  0  0  0  0
    0.4991    2.4784   -0.3206 C   0  0  2  0  0  0  0  0  0  0  0  0
   -0.0136    6.7673   -0.6146 C   0  0  2  0  0  0  0  0  0  0  0  0
   -1.2336    7.3008   -1.4109 C   0  0  1  0  0  0  0  0  0  0  0  0
    1.5497    4.7639   -0.4976 C   0  0  0  0  0  0  0  0  0  0  0  0
    1.7110    3.2927   -0.7378 C   0  0  0  0  0  0  0  0  0  0  0  0
    0.4560    1.0203   -0.8493 C   0  0  2  0  0  0  0  0  0  0  0  0
   -1.8303    2.0507   -0.8611 C   0  0  0  0  0  0  0  0  0  0  0  0
   -2.3029    5.0440   -1.2382 C   0  0  0  0  0  0  0  0  0  0  0  0
   -1.1080    0.6803   -0.8611 C   0  0  2  0  0  0  0  0  0  0  0  0
   -2.4823    6.5438   -0.9706 C   0  0  0  0  0  0  0  0  0  0  0  0
    1.2290    7.6064   -1.0815 C   0  0  0  0  0  0  0  0  0  0  0  0
   -1.4469    8.8284   -1.4629 C   0  0  0  0  0  0  0  0  0  0  0  0
    1.1346    9.1541   -0.9998 C   0  0  1  0  0  0  0  0  0  0  0  0
    0.4687    2.5959    1.2308 C   0  0  0  0  0  0  0  0  0  0  0  0
   -0.2630    6.5548    0.9286 C   0  0  0  0  0  0  0  0  0  0  0  0
   -0.1429    9.6316   -1.7808 C   0  0  1  0  0  0  0  0  0  0  0  0
   -3.0716   -0.4355    0.0924 C   0  0  0  0  0  0  0  0  0  0  0  0
   -1.2965    0.2670    1.5287 C   0  0  0  0  0  0  0  0  0  0  0  0
    2.4371    9.3107    1.1207 C   0  0  0  0  0  0  0  0  0  0  0  0
    0.1114    9.3678    1.1103 C   0  0  0  0  0  0  0  0  0  0  0  0
   -3.5738   -1.3651    1.2180 C   0  0  0  0  0  0  0  0  0  0  0  0
   -1.7120   -0.5728    2.7024 C   0  0  0  0  0  0  0  0  0  0  0  0
    2.3441    9.7035    2.6311 C   0  0  0  0  0  0  0  0  0  0  0  0
   -0.1558    9.5304    2.5690 C   0  0  0  0  0  0  0  0  0  0  0  0
    2.5537   -0.0688   -0.0290 C   0  0  0  0  0  0  0  0  0  0  0  0
   -4.0245    0.3985    2.9956 C   0  0  0  0  0  0  0  0  0  0  0  0
   -3.4677   -1.9226    3.6563 C   0  0  0  0  0  0  0  0  0  0  0  0
    0.8972   10.1950   -3.9747 C   0  0  0  0  0  0  0  0  0  0  0  0
    1.2194    7.6468    3.6654 C   0  0  0  0  0  0  0  0  0  0  0  0
    0.8630    9.8203    4.6901 C   0  0  0  0  0  0  0  0  0  0  0  0
    3.3893    0.7133   -0.9960 C   0  0  0  0  0  0  0  0  0  0  0  0
    1.6991   11.2873   -3.3115 C   0  0  0  0  0  0  0  0  0  0  0  0
   -1.1581    4.3609    0.4041 H   0  0  0  0  0  0  0  0  0  0  0  0
    0.3291    5.2733   -2.1487 H   0  0  0  0  0  0  0  0  0  0  0  0
   -0.5100    3.0492   -2.1661 H   0  0  0  0  0  0  0  0  0  0  0  0
   -1.0561    7.0424   -2.4646 H   0  0  0  0  0  0  0  0  0  0  0  0
    2.4230    5.2635   -0.9242 H   0  0  0  0  0  0  0  0  0  0  0  0
    1.6617    4.9178    0.5779 H   0  0  0  0  0  0  0  0  0  0  0  0
    1.9626    3.1208   -1.7877 H   0  0  0  0  0  0  0  0  0  0  0  0
    2.5416    3.0664   -0.0731 H   0  0  0  0  0  0  0  0  0  0  0  0
    0.7985    0.9538   -1.8902 H   0  0  0  0  0  0  0  0  0  0  0  0
   -2.3454    2.2872    0.0771 H   0  0  0  0  0  0  0  0  0  0  0  0
   -2.5983    2.1096   -1.6394 H   0  0  0  0  0  0  0  0  0  0  0  0
   -3.1658    4.5157   -0.8219 H   0  0  0  0  0  0  0  0  0  0  0  0
   -2.2974    4.8843   -2.3197 H   0  0  0  0  0  0  0  0  0  0  0  0
   -1.3121    0.1995   -1.8283 H   0  0  0  0  0  0  0  0  0  0  0  0
   -2.6901    6.7260    0.0921 H   0  0  0  0  0  0  0  0  0  0  0  0
   -3.3543    6.9083   -1.5189 H   0  0  0  0  0  0  0  0  0  0  0  0
    2.1569    7.2779   -0.6077 H   0  0  0  0  0  0  0  0  0  0  0  0
    1.4077    7.3696   -2.1473 H   0  0  0  0  0  0  0  0  0  0  0  0
   -1.9919    9.1729   -0.5813 H   0  0  0  0  0  0  0  0  0  0  0  0
   -2.1842    9.0442   -2.2477 H   0  0  0  0  0  0  0  0  0  0  0  0
    2.0317    9.4740   -1.5254 H   0  0  0  0  0  0  0  0  0  0  0  0
   -0.5116    2.4475    1.6506 H   0  0  0  0  0  0  0  0  0  0  0  0
    1.1949    1.9197    1.6981 H   0  0  0  0  0  0  0  0  0  0  0  0
    0.6914    3.5845    1.6295 H   0  0  0  0  0  0  0  0  0  0  0  0
   -0.9650    5.8059    1.2582 H   0  0  0  0  0  0  0  0  0  0  0  0
    0.6855    6.2925    1.3821 H   0  0  0  0  0  0  0  0  0  0  0  0
   -0.7677    7.3251    1.4929 H   0  0  0  0  0  0  0  0  0  0  0  0
   -0.3374   10.6956   -1.5948 H   0  0  0  0  0  0  0  0  0  0  0  0
   -3.3140   -0.8781   -0.8804 H   0  0  0  0  0  0  0  0  0  0  0  0
   -3.6228    0.5109    0.1487 H   0  0  0  0  0  0  0  0  0  0  0  0
   -0.2260    0.3610    1.6573 H   0  0  0  0  0  0  0  0  0  0  0  0
   -1.8056    1.2164    1.6826 H   0  0  0  0  0  0  0  0  0  0  0  0
    3.3519    9.7015    0.6666 H   0  0  0  0  0  0  0  0  0  0  0  0
    2.5265    8.2168    1.0879 H   0  0  0  0  0  0  0  0  0  0  0  0
   -0.8435    9.4913    0.6542 H   0  0  0  0  0  0  0  0  0  0  0  0
    0.4278    8.3720    1.0753 H   0  0  0  0  0  0  0  0  0  0  0  0
   -3.1015   -2.3472    1.1140 H   0  0  0  0  0  0  0  0  0  0  0  0
   -4.6617   -1.4602    1.1814 H   0  0  0  0  0  0  0  0  0  0  0  0
   -1.4975   -0.0321    3.6344 H   0  0  0  0  0  0  0  0  0  0  0  0
   -1.1654   -1.5205    2.6915 H   0  0  0  0  0  0  0  0  0  0  0  0
    2.2636   10.7895    2.6975 H   0  0  0  0  0  0  0  0  0  0  0  0
    3.2082    9.3262    3.1787 H   0  0  0  0  0  0  0  0  0  0  0  0
   -0.9883    8.8843    2.8883 H   0  0  0  0  0  0  0  0  0  0  0  0
   -0.4273   10.5714    2.7461 H   0  0  0  0  0  0  0  0  0  0  0  0
   -3.7430    0.7231    4.0024 H   0  0  0  0  0  0  0  0  0  0  0  0
   -3.8267    1.2067    2.2859 H   0  0  0  0  0  0  0  0  0  0  0  0
   -5.0826    0.1307    2.9579 H   0  0  0  0  0  0  0  0  0  0  0  0
   -2.8586   -2.7915    3.3890 H   0  0  0  0  0  0  0  0  0  0  0  0
   -3.1640   -1.5391    4.6357 H   0  0  0  0  0  0  0  0  0  0  0  0
   -4.5295   -2.1620    3.6317 H   0  0  0  0  0  0  0  0  0  0  0  0
    0.2873    7.2619    4.0982 H   0  0  0  0  0  0  0  0  0  0  0  0
    1.4845    7.1083    2.7685 H   0  0  0  0  0  0  0  0  0  0  0  0
    2.0512    7.5102    4.3602 H   0  0  0  0  0  0  0  0  0  0  0  0
    0.7318   10.8871    4.4992 H   0  0  0  0  0  0  0  0  0  0  0  0
   -0.0516    9.4002    5.1285 H   0  0  0  0  0  0  0  0  0  0  0  0
    1.7325    9.6213    5.3095 H   0  0  0  0  0  0  0  0  0  0  0  0
    3.0722    0.5833   -2.0285 H   0  0  0  0  0  0  0  0  0  0  0  0
    3.4047    1.7506   -0.7402 H   0  0  0  0  0  0  0  0  0  0  0  0
    4.4423    0.4527   -0.8812 H   0  0  0  0  0  0  0  0  0  0  0  0
    1.0554   12.0096   -2.8095 H   0  0  0  0  0  0  0  0  0  0  0  0
    2.4546   10.8995   -2.6324 H   0  0  0  0  0  0  0  0  0  0  0  0
    2.2674   11.8084   -4.0857 H   0  0  0  0  0  0  0  0  0  0  0  0
  1 36  1  0  0  0  0
  2 39  1  0  0  0  0
  3 36  2  0  0  0  0
  4 39  2  0  0  0  0
  5 28  1  0  0  0  0
  5 29  1  0  0  0  0
  6 30  1  0  0  0  0
  6 31  1  0  0  0  0
  7 32  1  0  0  0  0
  7 33  1  0  0  0  0
  7 37  1  0  0  0  0
  7 38  1  0  0  0  0
  8 34  1  0  0  0  0
  8 35  1  0  0  0  0
  8 40  1  0  0  0  0
  8 41  1  0  0  0  0
  9 10  1  0  0  0  0
  9 11  1  0  0  0  0
  9 19  1  0  0  0  0
  9 44  1  1  0  0  0
 10 13  1  0  0  0  0
 10 15  1  0  0  0  0
 10 45  1  6  0  0  0
 11 12  1  0  0  0  0
 11 18  1  0  0  0  0
 11 46  1  6  0  0  0
 12 16  1  0  0  0  0
 12 17  1  0  0  0  0
 12 25  1  1  0  0  0
 13 14  1  0  0  0  0
 13 22  1  0  0  0  0
 13 26  1  1  0  0  0
 14 21  1  0  0  0  0
 14 23  1  0  0  0  0
 14 47  1  6  0  0  0
 15 16  1  0  0  0  0
 15 48  1  0  0  0  0
 15 49  1  0  0  0  0
 16 50  1  0  0  0  0
 16 51  1  0  0  0  0
 17  1  1  0  0  0  0
 17 20  1  0  0  0  0
 17 52  1  6  0  0  0
 18 20  1  0  0  0  0
 18 53  1  0  0  0  0
 18 54  1  0  0  0  0
 19 21  1  0  0  0  0
 19 55  1  0  0  0  0
 19 56  1  0  0  0  0
 20  5  1  0  0  0  0
 20 57  1  6  0  0  0
 21 58  1  0  0  0  0
 21 59  1  0  0  0  0
 22 24  1  0  0  0  0
 22 60  1  0  0  0  0
 22 61  1  0  0  0  0
 23 27  1  0  0  0  0
 23 62  1  0  0  0  0
 23 63  1  0  0  0  0
 24  6  1  0  0  0  0
 24 27  1  0  0  0  0
 24 64  1  6  0  0  0
 25 65  1  0  0  0  0
 25 66  1  0  0  0  0
 25 67  1  0  0  0  0
 26 68  1  0  0  0  0
 26 69  1  0  0  0  0
 26 70  1  0  0  0  0
 27 71  1  1  0  0  0
 27  2  1  0  0  0  0
 28 32  1  0  0  0  0
 28 72  1  0  0  0  0
 28 73  1  0  0  0  0
 29 33  1  0  0  0  0
 29 74  1  0  0  0  0
 29 75  1  0  0  0  0
 30 34  1  0  0  0  0
 30 76  1  0  0  0  0
 30 77  1  0  0  0  0
 31 35  1  0  0  0  0
 31 78  1  0  0  0  0
 31 79  1  0  0  0  0
 32 80  1  0  0  0  0
 32 81  1  0  0  0  0
 33 82  1  0  0  0  0
 33 83  1  0  0  0  0
 34 84  1  0  0  0  0
 34 85  1  0  0  0  0
 35 86  1  0  0  0  0
 35 87  1  0  0  0  0
 36 42  1  0  0  0  0
 37 88  1  0  0  0  0
 37 89  1  0  0  0  0
 37 90  1  0  0  0  0
 38 91  1  0  0  0  0
 38 92  1  0  0  0  0
 38 93  1  0  0  0  0
 39 43  1  0  0  0  0
 40 94  1  0  0  0  0
 40 95  1  0  0  0  0
 40 96  1  0  0  0  0
 41 97  1  0  0  0  0
 41 98  1  0  0  0  0
 41 99  1  0  0  0  0
 42100  1  0  0  0  0
 42101  1  0  0  0  0
 42102  1  0  0  0  0
 43103  1  0  0  0  0
 43104  1  0  0  0  0
 43105  1  0  0  0  0
M  CHG  2   7   1   8   1
M  END
>  <DRUGBANK_ID>
DB01338

>  <COMMON_NAME>
Pipecuronium

>  <CAS_NUMBER>
68399-58-6

>  <UNII>
1N3O74HM92

>  <SYNONYMS>
Pipecurium; Pipecuronium

$$$$
