
 OpenBabel10282417113D

 54 57  0  0  0  0  0  0  0  0999 V2000
   -0.4886   -0.5995   -0.1986 C   0  0  0  0  0  0  0  0  0  0  0  0
   -1.7531   -1.0869   -0.4549 C   0  0  0  0  0  0  0  0  0  0  0  0
   -2.5103   -0.6560    0.9181 C   0  0  0  0  0  0  0  0  0  0  0  0
   -2.6296    0.7938    0.9387 C   0  0  0  0  0  0  0  0  0  0  0  0
   -1.3569    1.1861    0.7907 C   0  0  0  0  0  0  0  0  0  0  0  0
   -0.1652    0.2059    1.0760 C   0  0  1  0  0  0  0  0  0  0  0  0
    0.8049    1.1213    2.0080 C   0  0  2  0  0  0  0  0  0  0  0  0
   -1.0990    2.3508   -0.1278 C   0  0  0  0  0  0  0  0  0  0  0  0
   -0.4326    3.2497    0.7921 C   0  0  0  0  0  0  0  0  0  0  0  0
    0.9421    2.5886    1.6391 C   0  0  1  0  0  0  0  0  0  0  0  0
    2.7647    1.6474    3.9926 C   0  0  0  0  0  0  0  0  0  0  0  0
    2.1631    0.6755    2.7242 C   0  0  2  0  0  0  0  0  0  0  0  0
    1.6393    3.3468    3.0781 C   0  0  1  0  0  0  0  0  0  0  0  0
    3.0473    3.2287    3.6876 C   0  0  1  0  0  0  0  0  0  0  0  0
    2.7007    4.8247    4.6054 C   0  0  2  0  0  0  0  0  0  0  0  0
    0.8087    3.8052    4.5594 C   0  0  0  0  0  0  0  0  0  0  0  0
    1.6769    4.3620    5.5650 C   0  0  0  0  0  0  0  0  0  0  0  0
   -2.8257   -1.3986    1.8336 O   0  0  0  0  0  0  0  0  0  0  0  0
   -0.1094   -1.0858    1.9676 C   0  0  0  0  0  0  0  0  0  0  0  0
    4.0812    3.2338    2.5124 C   0  0  0  0  0  0  0  0  0  0  0  0
    3.1474    0.4051    1.7324 O   0  0  0  0  0  0  0  0  0  0  0  0
    2.5420    5.8601    3.4650 C   0  0  0  0  0  0  0  0  0  0  0  0
    1.7067    2.6649    0.8378 H   0  0  0  0  0  0  0  0  0  0  0  0
    0.1686    1.1296    2.8968 H   0  0  0  0  0  0  0  0  0  0  0  0
    2.0413    4.1240    2.4534 H   0  0  0  0  0  0  0  0  0  0  0  0
    3.0404    5.9650    5.4749 O   0  0  0  0  0  0  0  0  0  0  0  0
    1.2715    6.0048    2.9740 O   0  0  0  0  0  0  0  0  0  0  0  0
    3.4638    6.6310    3.1684 O   0  0  0  0  0  0  0  0  0  0  0  0
    0.1550    5.1260    2.3723 C   0  0  0  0  0  0  0  0  0  0  0  0
   -1.1868    3.6634    3.3048 Cl  0  0  0  0  0  0  0  0  0  0  0  0
    0.3314   -0.7531   -0.8832 H   0  0  0  0  0  0  0  0  0  0  0  0
   -2.7787   -1.4533   -0.5373 H   0  0  0  0  0  0  0  0  0  0  0  0
   -3.4329    1.2788    0.4004 H   0  0  0  0  0  0  0  0  0  0  0  0
   -2.0265    2.8753   -0.4392 H   0  0  0  0  0  0  0  0  0  0  0  0
   -0.4307    2.2765   -0.9808 H   0  0  0  0  0  0  0  0  0  0  0  0
   -1.3464    3.5000    1.3217 H   0  0  0  0  0  0  0  0  0  0  0  0
   -0.3293    4.2087    0.2631 H   0  0  0  0  0  0  0  0  0  0  0  0
    3.7085    1.1656    4.2750 H   0  0  0  0  0  0  0  0  0  0  0  0
    2.0748    1.5095    4.8389 H   0  0  0  0  0  0  0  0  0  0  0  0
    2.0059   -0.2778    3.2380 H   0  0  0  0  0  0  0  0  0  0  0  0
    0.1398    4.7072    4.5006 H   0  0  0  0  0  0  0  0  0  0  0  0
    0.3003    3.0109    5.1059 H   0  0  0  0  0  0  0  0  0  0  0  0
    1.0660    5.0113    6.2417 H   0  0  0  0  0  0  0  0  0  0  0  0
    2.1097    3.5954    6.1941 H   0  0  0  0  0  0  0  0  0  0  0  0
   -0.4232   -2.0240    1.4890 H   0  0  0  0  0  0  0  0  0  0  0  0
    0.9166   -1.3670    2.1946 H   0  0  0  0  0  0  0  0  0  0  0  0
   -0.6722   -0.9319    2.8865 H   0  0  0  0  0  0  0  0  0  0  0  0
    3.6145    2.7633    1.6440 H   0  0  0  0  0  0  0  0  0  0  0  0
    4.3699    4.2042    2.1056 H   0  0  0  0  0  0  0  0  0  0  0  0
    4.9537    2.5951    2.6927 H   0  0  0  0  0  0  0  0  0  0  0  0
    3.0458    1.0431    1.0086 H   0  0  0  0  0  0  0  0  0  0  0  0
    2.2690    6.6314    5.4142 H   0  0  0  0  0  0  0  0  0  0  0  0
   -0.6614    5.7807    2.2866 H   0  0  0  0  0  0  0  0  0  0  0  0
    0.6661    4.7935    1.4629 H   0  0  0  0  0  0  0  0  0  0  0  0
  1  2  2  0  0  0  0
  1  6  1  0  0  0  0
  1 31  1  0  0  0  0
  2  3  1  0  0  0  0
  2 32  1  0  0  0  0
  3  4  1  0  0  0  0
  3 18  2  0  0  0  0
  4  5  2  0  0  0  0
  4 33  1  0  0  0  0
  5  8  1  0  0  0  0
  6  5  1  0  0  0  0
  6 19  1  6  0  0  0
  7  6  1  0  0  0  0
  7 10  1  0  0  0  0
  7 24  1  1  0  0  0
  8  9  1  0  0  0  0
  8 34  1  0  0  0  0
  8 35  1  0  0  0  0
  9 10  1  0  0  0  0
  9 36  1  0  0  0  0
  9 37  1  0  0  0  0
 10 13  1  0  0  0  0
 10 23  1  6  0  0  0
 11 12  1  0  0  0  0
 11 14  1  0  0  0  0
 11 38  1  0  0  0  0
 11 39  1  0  0  0  0
 12  7  1  0  0  0  0
 12 21  1  0  0  0  0
 12 40  1  1  0  0  0
 13 16  1  0  0  0  0
 13 25  1  1  0  0  0
 14 13  1  0  0  0  0
 14 20  1  6  0  0  0
 15 14  1  0  0  0  0
 15 17  1  0  0  0  0
 15 26  1  1  0  0  0
 15 22  1  0  0  0  0
 16 17  1  0  0  0  0
 16 41  1  0  0  0  0
 16 42  1  0  0  0  0
 17 43  1  0  0  0  0
 17 44  1  0  0  0  0
 19 45  1  0  0  0  0
 19 46  1  0  0  0  0
 19 47  1  0  0  0  0
 20 48  1  0  0  0  0
 20 49  1  0  0  0  0
 20 50  1  0  0  0  0
 21 51  1  0  0  0  0
 22 27  1  0  0  0  0
 22 28  2  0  0  0  0
 26 52  1  0  0  0  0
 27 29  1  0  0  0  0
 29 30  1  0  0  0  0
 29 53  1  0  0  0  0
 29 54  1  0  0  0  0
M  END
>  <DRUGBANK_ID>
DB00873

>  <SECONDARY_ACCESSION_NUMBERS>
APRD01078

>  <COMMON_NAME>
Loteprednol

>  <CAS_NUMBER>
129260-79-3

>  <UNII>
Z8CBU6KR16

>  <SYNONYMS>
Loteprednol

$$$$
