
 OpenBabel10282417203D

 59 59  0  0  1  0  0  0  0  0999 V2000
    1.0888    0.0837   -0.0555 C   0  0  0  0  0  0  0  0  0  0  0  0
    0.6307   -1.3643    0.0184 C   0  0  0  0  0  0  0  0  0  0  0  0
    1.1193   -2.0224    1.3096 C   0  0  0  0  0  0  0  0  0  0  0  0
    3.3181   -4.2534    7.0252 C   0  0  0  0  0  0  0  0  0  0  0  0
    3.0637   -2.8468    7.4668 C   0  0  0  0  0  0  0  0  0  0  0  0
    0.5706   -1.3132    2.5542 C   0  0  0  0  0  0  0  0  0  0  0  0
    2.3703   -5.1855    6.9379 C   0  0  0  0  0  0  0  0  0  0  0  0
    3.8248   -2.5537    8.7486 C   0  0  0  0  0  0  0  0  0  0  0  0
   -0.9684   -1.3155    2.5895 C   0  0  0  0  0  0  0  0  0  0  0  0
    0.9129   -4.9285    7.1780 C   0  0  0  0  0  0  0  0  0  0  0  0
    5.3347   -2.6731    8.5772 C   0  0  0  0  0  0  0  0  0  0  0  0
   -1.1185   -3.4621    3.7825 C   0  0  0  0  0  0  0  0  0  0  0  0
   -1.8617   -3.9799    4.7679 C   0  0  0  0  0  0  0  0  0  0  0  0
   -1.3570   -6.9822    5.3067 C   0  0  0  0  0  0  0  0  0  0  0  0
   -1.5721   -2.7254    2.5698 C   0  0  1  0  0  0  0  0  0  0  0  0
    0.1604   -5.1350    5.8767 C   0  0  2  0  0  0  0  0  0  0  0  0
   -1.3137   -4.6757    5.9907 C   0  0  2  0  0  0  0  0  0  0  0  0
    0.1121   -6.5828    5.3569 C   0  0  1  0  0  0  0  0  0  0  0  0
   -2.0547   -5.9952    6.2331 C   0  0  2  0  0  0  0  0  0  0  0  0
    5.8765   -1.7045    7.5586 C   0  0  0  0  0  0  0  0  0  0  0  0
   -2.9854   -2.6471    2.5269 O   0  0  0  0  0  0  0  0  0  0  0  0
    0.7966   -7.5119    6.1868 O   0  0  0  0  0  0  0  0  0  0  0  0
   -1.8823   -6.3909    7.5929 O   0  0  0  0  0  0  0  0  0  0  0  0
    6.6200   -0.7605    7.7980 O   0  0  0  0  0  0  0  0  0  0  0  0
    5.4657   -1.9424    6.3002 O   0  0  0  0  0  0  0  0  0  0  0  0
    4.3354   -4.5500    6.7691 H   0  0  0  0  0  0  0  0  0  0  0  0
    2.6749   -6.1776    6.6057 H   0  0  0  0  0  0  0  0  0  0  0  0
   -0.0392   -3.5263    3.8260 H   0  0  0  0  0  0  0  0  0  0  0  0
   -2.9442   -3.9004    4.7066 H   0  0  0  0  0  0  0  0  0  0  0  0
   -1.2554   -3.2877    1.6864 H   0  0  0  0  0  0  0  0  0  0  0  0
    0.7193   -4.5413    5.1506 H   0  0  0  0  0  0  0  0  0  0  0  0
   -1.4572   -3.9937    6.8402 H   0  0  0  0  0  0  0  0  0  0  0  0
    0.5673   -6.6372    4.3610 H   0  0  0  0  0  0  0  0  0  0  0  0
   -3.1281   -5.9265    6.0312 H   0  0  0  0  0  0  0  0  0  0  0  0
    0.6984    0.6800    0.7752 H   0  0  0  0  0  0  0  0  0  0  0  0
    0.7374    0.5548   -0.9746 H   0  0  0  0  0  0  0  0  0  0  0  0
    2.1813    0.1323   -0.0206 H   0  0  0  0  0  0  0  0  0  0  0  0
   -0.4621   -1.4101   -0.0545 H   0  0  0  0  0  0  0  0  0  0  0  0
    1.0097   -1.9215   -0.8440 H   0  0  0  0  0  0  0  0  0  0  0  0
    0.8325   -3.0809    1.3108 H   0  0  0  0  0  0  0  0  0  0  0  0
    2.2147   -2.0194    1.3392 H   0  0  0  0  0  0  0  0  0  0  0  0
    3.2984   -2.1624    6.6518 H   0  0  0  0  0  0  0  0  0  0  0  0
    2.0185   -2.6253    7.6697 H   0  0  0  0  0  0  0  0  0  0  0  0
    0.9926   -1.7774    3.4524 H   0  0  0  0  0  0  0  0  0  0  0  0
    0.9314   -0.2810    2.6041 H   0  0  0  0  0  0  0  0  0  0  0  0
    3.5552   -1.5482    9.0897 H   0  0  0  0  0  0  0  0  0  0  0  0
    3.4870   -3.2482    9.5330 H   0  0  0  0  0  0  0  0  0  0  0  0
   -1.3098   -0.7693    3.4783 H   0  0  0  0  0  0  0  0  0  0  0  0
   -1.3783   -0.7454    1.7483 H   0  0  0  0  0  0  0  0  0  0  0  0
    0.7127   -3.9013    7.4828 H   0  0  0  0  0  0  0  0  0  0  0  0
    0.5471   -5.5418    8.0008 H   0  0  0  0  0  0  0  0  0  0  0  0
    5.8102   -2.4659    9.5409 H   0  0  0  0  0  0  0  0  0  0  0  0
    5.6397   -3.6893    8.3059 H   0  0  0  0  0  0  0  0  0  0  0  0
   -1.7299   -6.8629    4.2841 H   0  0  0  0  0  0  0  0  0  0  0  0
   -1.4960   -8.0178    5.6274 H   0  0  0  0  0  0  0  0  0  0  0  0
   -3.2600   -2.1916    3.3385 H   0  0  0  0  0  0  0  0  0  0  0  0
    0.4599   -7.3827    7.0932 H   0  0  0  0  0  0  0  0  0  0  0  0
   -2.6294   -6.9735    7.8171 H   0  0  0  0  0  0  0  0  0  0  0  0
    5.7472   -1.1769    5.7591 H   0  0  0  0  0  0  0  0  0  0  0  0
  1 35  1  0  0  0  0
  1 36  1  0  0  0  0
  1 37  1  0  0  0  0
  2  1  1  0  0  0  0
  2 38  1  0  0  0  0
  2 39  1  0  0  0  0
  3  2  1  0  0  0  0
  3 40  1  0  0  0  0
  3 41  1  0  0  0  0
  5  4  1  0  0  0  0
  5 42  1  0  0  0  0
  5 43  1  0  0  0  0
  6  3  1  0  0  0  0
  6 44  1  0  0  0  0
  6 45  1  0  0  0  0
  7  4  2  0  0  0  0
  8  5  1  0  0  0  0
  8 46  1  0  0  0  0
  8 47  1  0  0  0  0
  9  6  1  0  0  0  0
  9 48  1  0  0  0  0
  9 49  1  0  0  0  0
 10  7  1  0  0  0  0
 10 50  1  0  0  0  0
 10 51  1  0  0  0  0
 11  8  1  0  0  0  0
 11 52  1  0  0  0  0
 11 53  1  0  0  0  0
 13 12  2  0  0  0  0
 14 54  1  0  0  0  0
 14 55  1  0  0  0  0
 15  9  1  0  0  0  0
 15 12  1  0  0  0  0
 15 21  1  0  0  0  0
 15 30  1  6  0  0  0
 16 10  1  0  0  0  0
 16 31  1  6  0  0  0
 17 13  1  0  0  0  0
 17 16  1  0  0  0  0
 17 32  1  1  0  0  0
 18 14  1  0  0  0  0
 18 16  1  0  0  0  0
 18 22  1  0  0  0  0
 18 33  1  6  0  0  0
 19 14  1  0  0  0  0
 19 17  1  0  0  0  0
 19 34  1  6  0  0  0
 19 23  1  0  0  0  0
 20 11  1  0  0  0  0
 21 56  1  0  0  0  0
 22 57  1  0  0  0  0
 23 58  1  0  0  0  0
 24 20  2  0  0  0  0
 25 20  1  0  0  0  0
 25 59  1  0  0  0  0
 26  4  1  0  0  0  0
 27  7  1  0  0  0  0
 28 12  1  0  0  0  0
 29 13  1  0  0  0  0
M  END
>  <DRUGBANK_ID>
DB12789

>  <COMMON_NAME>
Dinoprost

>  <CAS_NUMBER>
551-11-1

>  <UNII>
B7IN85G1HY

>  <SYNONYMS>
Dinoprost; dinoprosta

$$$$
