FR9
 OpenBabel10282417123D

 59 62  0  0  0  0  0  0  0  0999 V2000
   -1.0774    0.0551   -0.3400 C   0  0  0  0  0  0  0  0  0  0  0  0
   -0.2501   -1.0322   -0.2056 N   0  0  0  0  0  0  0  0  0  0  0  0
    0.9954   -0.5302    0.0099 C   0  0  0  0  0  0  0  0  0  0  0  0
    1.0003    0.7767    0.0446 N   0  0  0  0  0  0  0  0  0  0  0  0
   -0.3115    1.1779   -0.1122 C   0  0  0  0  0  0  0  0  0  0  0  0
   -0.7396    2.5818   -0.0510 C   0  0  0  0  0  0  0  0  0  0  0  0
    0.0482    3.5148    0.0338 O   0  0  0  0  0  0  0  0  0  0  0  0
   -2.0861    2.8502   -0.0937 N   0  0  0  0  0  0  0  0  0  0  0  0
   -0.5720   -2.4652   -0.1578 C   0  0  1  0  0  0  0  0  0  0  0  0
   -0.1355   -3.2199   -1.3564 C   0  0  0  0  0  0  0  0  0  0  0  0
    1.2741   -3.2340   -1.3756 O   0  0  0  0  0  0  0  0  0  0  0  0
    0.0009   -3.1797    1.1283 C   0  0  0  0  0  0  0  0  0  0  0  0
   -0.5470   -2.4385    2.3031 C   0  0  0  0  0  0  0  0  0  0  0  0
   -1.9467   -2.2067    1.7922 N   0  0  0  0  0  0  0  0  0  0  0  0
   -2.8949   -3.2784    1.4380 C   0  0  0  0  0  0  0  0  0  0  0  0
   -4.1662   -2.4893    1.1273 C   0  0  0  0  0  0  0  0  0  0  0  0
   -3.8394   -0.7340    1.0988 C   0  0  0  0  0  0  0  0  0  0  0  0
   -2.5305   -0.8259    1.6345 C   0  0  0  0  0  0  0  0  0  0  0  0
   -4.1834    1.0353    1.2907 C   0  0  0  0  0  0  0  0  0  0  0  0
   -3.5639    1.8408    2.3178 C   0  0  0  0  0  0  0  0  0  0  0  0
   -3.5841    0.9455    3.1016 C   0  0  0  0  0  0  0  0  0  0  0  0
   -2.3621    0.2573    2.5510 C   0  0  0  0  0  0  0  0  0  0  0  0
   -5.2555    0.4545    3.2483 N   0  0  0  0  0  0  0  0  0  0  0  0
   -5.8200   -0.7700    3.1094 C   0  0  0  0  0  0  0  0  0  0  0  0
   -6.9112   -1.0284    2.5993 O   0  0  0  0  0  0  0  0  0  0  0  0
   -5.1139   -1.7705    3.6425 N   0  0  0  0  0  0  0  0  0  0  0  0
   -3.7147   -1.7389    3.7834 C   0  0  0  0  0  0  0  0  0  0  0  0
   -1.7759   -1.3861    5.1767 C   0  0  0  0  0  0  0  0  0  0  0  0
   -2.7662   -2.2956    4.6692 C   0  0  0  0  0  0  0  0  0  0  0  0
   -2.6551   -3.6496    4.6261 C   0  0  0  0  0  0  0  0  0  0  0  0
   -1.8049   -4.1428    5.5283 C   0  0  0  0  0  0  0  0  0  0  0  0
   -0.8974   -3.2851    6.1723 C   0  0  0  0  0  0  0  0  0  0  0  0
   -0.8030   -1.9154    5.9331 C   0  0  0  0  0  0  0  0  0  0  0  0
   -1.6655   -2.5286   -0.2616 H   0  0  0  0  0  0  0  0  0  0  0  0
   -2.1490   -0.0118   -0.4302 H   0  0  0  0  0  0  0  0  0  0  0  0
    1.8553   -1.1708    0.1288 H   0  0  0  0  0  0  0  0  0  0  0  0
   -2.7985    2.1388   -0.0698 H   0  0  0  0  0  0  0  0  0  0  0  0
   -2.3899    3.8107   -0.0089 H   0  0  0  0  0  0  0  0  0  0  0  0
   -0.5084   -4.2476   -1.2837 H   0  0  0  0  0  0  0  0  0  0  0  0
   -0.5525   -2.7301   -2.2358 H   0  0  0  0  0  0  0  0  0  0  0  0
    1.5499   -2.3051   -1.4654 H   0  0  0  0  0  0  0  0  0  0  0  0
   -0.3642   -4.2227    1.1969 H   0  0  0  0  0  0  0  0  0  0  0  0
    1.0927   -3.2148    1.1681 H   0  0  0  0  0  0  0  0  0  0  0  0
   -0.3905   -3.0124    3.2380 H   0  0  0  0  0  0  0  0  0  0  0  0
   -0.0963   -1.4514    2.4838 H   0  0  0  0  0  0  0  0  0  0  0  0
   -2.7035   -4.3211    1.9139 H   0  0  0  0  0  0  0  0  0  0  0  0
   -4.9327   -3.1710    1.7286 H   0  0  0  0  0  0  0  0  0  0  0  0
   -5.1042    1.7553    1.5649 H   0  0  0  0  0  0  0  0  0  0  0  0
   -2.5627    2.4368    2.3459 H   0  0  0  0  0  0  0  0  0  0  0  0
   -1.3356    0.6500    2.6690 H   0  0  0  0  0  0  0  0  0  0  0  0
   -5.9732    1.0585    2.7869 H   0  0  0  0  0  0  0  0  0  0  0  0
   -5.6024   -2.5283    3.1790 H   0  0  0  0  0  0  0  0  0  0  0  0
   -3.5624   -2.1619    2.8706 H   0  0  0  0  0  0  0  0  0  0  0  0
   -2.8869   -1.1652    3.5030 H   0  0  0  0  0  0  0  0  0  0  0  0
   -1.7266   -0.3222    4.8785 H   0  0  0  0  0  0  0  0  0  0  0  0
   -3.2476   -4.2668    3.9631 H   0  0  0  0  0  0  0  0  0  0  0  0
   -1.9602   -5.1854    5.7330 H   0  0  0  0  0  0  0  0  0  0  0  0
   -0.2585   -3.7123    6.9160 H   0  0  0  0  0  0  0  0  0  0  0  0
   -0.0687   -1.2595    6.3746 H   0  0  0  0  0  0  0  0  0  0  0  0
  1  2  1  0  0  0  0
  1  5  2  0  0  0  0
  1 35  1  0  0  0  0
  2  3  1  0  0  0  0
  3  4  2  0  0  0  0
  3 36  1  0  0  0  0
  4  5  1  0  0  0  0
  5  6  1  0  0  0  0
  6  7  2  0  0  0  0
  6  8  1  0  0  0  0
  8 37  1  0  0  0  0
  8 38  1  0  0  0  0
  9  2  1  0  0  0  0
  9 10  1  0  0  0  0
  9 12  1  0  0  0  0
  9 34  1  1  0  0  0
 10 11  1  0  0  0  0
 10 39  1  0  0  0  0
 10 40  1  0  0  0  0
 11 41  1  0  0  0  0
 12 13  1  0  0  0  0
 12 42  1  0  0  0  0
 12 43  1  0  0  0  0
 13 14  1  0  0  0  0
 13 44  1  0  0  0  0
 13 45  1  0  0  0  0
 14 15  1  0  0  0  0
 14 18  1  0  0  0  0
 15 16  2  0  0  0  0
 15 46  1  0  0  0  0
 16 17  1  0  0  0  0
 16 47  1  0  0  0  0
 17 18  2  0  0  0  0
 17 19  1  0  0  0  0
 18 22  1  0  0  0  0
 19 20  2  0  0  0  0
 19 48  1  0  0  0  0
 20 21  1  0  0  0  0
 20 49  1  0  0  0  0
 21 22  2  0  0  0  0
 21 23  1  0  0  0  0
 22 50  1  0  0  0  0
 23 24  1  0  0  0  0
 23 51  1  0  0  0  0
 24 25  2  0  0  0  0
 24 26  1  0  0  0  0
 26 27  1  0  0  0  0
 26 52  1  0  0  0  0
 27 29  1  0  0  0  0
 27 53  1  0  0  0  0
 27 54  1  0  0  0  0
 28 29  2  0  0  0  0
 28 33  1  0  0  0  0
 28 55  1  0  0  0  0
 29 30  1  0  0  0  0
 30 31  2  0  0  0  0
 30 56  1  0  0  0  0
 31 32  1  0  0  0  0
 31 57  1  0  0  0  0
 32 33  2  0  0  0  0
 32 58  1  0  0  0  0
 33 59  1  0  0  0  0
M  END
>  <DRUGBANK_ID>
DB02830

>  <SECONDARY_ACCESSION_NUMBERS>
EXPT01487

>  <COMMON_NAME>
FR236913

$$$$
