
 OpenBabel10282417163D

 50 51  0  0  0  0  0  0  0  0999 V2000
    1.0861    0.0010    0.0803 C   0  0  0  0  0  0  0  0  0  0  0  0
    0.6903    1.3257    0.7151 C   0  0  0  0  0  0  0  0  0  0  0  0
    1.2765    2.5035   -0.0747 C   0  0  0  0  0  0  0  0  0  0  0  0
    0.7992    2.4998   -1.5073 C   0  0  0  0  0  0  0  0  0  0  0  0
   -0.7015    2.5607   -1.5044 C   0  0  0  0  0  0  0  0  0  0  0  0
   -1.2822    3.8436   -0.8837 C   0  0  0  0  0  0  0  0  0  0  0  0
   -0.9753    5.0453   -1.7747 C   0  0  0  0  0  0  0  0  0  0  0  0
   -1.6030    4.8969   -3.1702 C   0  0  0  0  0  0  0  0  0  0  0  0
   -4.5023    1.4484   -2.0247 C   0  0  0  0  0  0  0  0  0  0  0  0
   -5.5159    2.5742   -1.8214 C   0  0  2  0  0  0  0  0  0  0  0  0
   -6.8060    2.0296   -2.3780 C   0  0  2  0  0  0  0  0  0  0  0  0
   -7.8740    3.0991   -2.3775 C   0  0  1  0  0  0  0  0  0  0  0  0
   -7.4548    4.3778   -3.1098 C   0  0  2  0  0  0  0  0  0  0  0  0
   -5.9504    4.7068   -3.1525 C   0  0  1  0  0  0  0  0  0  0  0  0
   -3.7369    3.8099   -2.8336 C   0  0  0  0  0  0  0  0  0  0  0  0
   -3.0514    4.8913   -3.0102 N   0  0  0  0  0  0  0  0  0  0  0  0
   -5.0635    3.7578   -2.5455 N   0  0  0  0  0  0  0  0  0  0  0  0
   -7.2101    0.8725   -1.6355 O   0  0  0  0  0  0  0  0  0  0  0  0
   -9.0225    2.5392   -3.0448 O   0  0  0  0  0  0  0  0  0  0  0  0
   -8.1721    5.4871   -2.5419 O   0  0  0  0  0  0  0  0  0  0  0  0
   -5.6372    4.7589   -4.5461 O   0  0  0  0  0  0  0  0  0  0  0  0
   -3.1910    2.1660   -2.9832 S   0  0  0  0  0  0  0  0  0  0  0  0
   -5.6111    2.8054   -0.7480 H   0  0  0  0  0  0  0  0  0  0  0  0
    0.6710   -0.1202   -0.9272 H   0  0  0  0  0  0  0  0  0  0  0  0
    0.7191   -0.8380    0.6729 H   0  0  0  0  0  0  0  0  0  0  0  0
    2.1751   -0.0556    0.0040 H   0  0  0  0  0  0  0  0  0  0  0  0
   -0.4048    1.3764    0.7891 H   0  0  0  0  0  0  0  0  0  0  0  0
    1.0436    1.3828    1.7459 H   0  0  0  0  0  0  0  0  0  0  0  0
    0.9899    3.4436    0.4070 H   0  0  0  0  0  0  0  0  0  0  0  0
    2.3660    2.4823   -0.0711 H   0  0  0  0  0  0  0  0  0  0  0  0
    1.2060    3.3309   -2.0914 H   0  0  0  0  0  0  0  0  0  0  0  0
    1.1097    1.6006   -2.0535 H   0  0  0  0  0  0  0  0  0  0  0  0
   -0.8927    2.4594   -2.5654 H   0  0  0  0  0  0  0  0  0  0  0  0
   -1.1613    1.6811   -1.0388 H   0  0  0  0  0  0  0  0  0  0  0  0
   -2.3635    3.7694   -0.7203 H   0  0  0  0  0  0  0  0  0  0  0  0
   -0.9138    4.0089    0.1323 H   0  0  0  0  0  0  0  0  0  0  0  0
   -1.3576    5.9527   -1.2938 H   0  0  0  0  0  0  0  0  0  0  0  0
    0.1090    5.1757   -1.8556 H   0  0  0  0  0  0  0  0  0  0  0  0
   -1.2973    5.7607   -3.7722 H   0  0  0  0  0  0  0  0  0  0  0  0
   -1.2184    4.0374   -3.7289 H   0  0  0  0  0  0  0  0  0  0  0  0
   -4.8478    0.6802   -2.7188 H   0  0  0  0  0  0  0  0  0  0  0  0
   -4.2535    0.9300   -1.0886 H   0  0  0  0  0  0  0  0  0  0  0  0
   -6.6375    1.6868   -3.4077 H   0  0  0  0  0  0  0  0  0  0  0  0
   -8.1919    3.3196   -1.3530 H   0  0  0  0  0  0  0  0  0  0  0  0
   -7.8191    4.2998   -4.1424 H   0  0  0  0  0  0  0  0  0  0  0  0
   -5.7580    5.7061   -2.7429 H   0  0  0  0  0  0  0  0  0  0  0  0
   -7.4959    1.1514   -0.7466 H   0  0  0  0  0  0  0  0  0  0  0  0
   -8.7008    2.0433   -3.8214 H   0  0  0  0  0  0  0  0  0  0  0  0
   -7.8902    6.2817   -3.0329 H   0  0  0  0  0  0  0  0  0  0  0  0
   -5.5252    3.8335   -4.8195 H   0  0  0  0  0  0  0  0  0  0  0  0
  1 24  1  0  0  0  0
  1 25  1  0  0  0  0
  1 26  1  0  0  0  0
  2  1  1  0  0  0  0
  2 27  1  0  0  0  0
  2 28  1  0  0  0  0
  3  2  1  0  0  0  0
  3 29  1  0  0  0  0
  3 30  1  0  0  0  0
  4  3  1  0  0  0  0
  4 31  1  0  0  0  0
  4 32  1  0  0  0  0
  5  4  1  0  0  0  0
  5 33  1  0  0  0  0
  5 34  1  0  0  0  0
  6  5  1  0  0  0  0
  6 35  1  0  0  0  0
  6 36  1  0  0  0  0
  7  6  1  0  0  0  0
  7 37  1  0  0  0  0
  7 38  1  0  0  0  0
  8  7  1  0  0  0  0
  8 39  1  0  0  0  0
  8 40  1  0  0  0  0
  9 41  1  0  0  0  0
  9 42  1  0  0  0  0
 10  9  1  0  0  0  0
 10 23  1  1  0  0  0
 11 10  1  0  0  0  0
 11 18  1  0  0  0  0
 11 43  1  6  0  0  0
 12 11  1  0  0  0  0
 12 44  1  1  0  0  0
 12 19  1  0  0  0  0
 13 12  1  0  0  0  0
 13 45  1  6  0  0  0
 13 20  1  0  0  0  0
 14 13  1  0  0  0  0
 14 21  1  0  0  0  0
 14 46  1  1  0  0  0
 16  8  1  0  0  0  0
 16 15  2  0  0  0  0
 17 10  1  0  0  0  0
 17 14  1  0  0  0  0
 17 15  1  0  0  0  0
 18 47  1  0  0  0  0
 19 48  1  0  0  0  0
 20 49  1  0  0  0  0
 21 50  1  0  0  0  0
 22  9  1  0  0  0  0
 22 15  1  0  0  0  0
M  END
>  <DRUGBANK_ID>
DB07370

>  <COMMON_NAME>
(3Z,5S,6R,7S,8R,8aS)-3-(octylimino)hexahydro[1,3]thiazolo[3,4-a]pyridine-5,6,7,8-tetrol

$$$$
