4824
 OpenBabel10282417143D

 38 41  0  0  0  0  0  0  0  0999 V2000
    1.8896   -0.9016    0.0025 O   0  0  0  0  0  0  0  0  0  0  0  0
    2.2128    1.3837    0.0081 O   0  0  0  0  0  0  0  0  0  0  0  0
    0.7262   -5.3374   -4.5051 O   0  0  0  0  0  0  0  0  0  0  0  0
    0.8794   -5.2210    4.5690 O   0  0  0  0  0  0  0  0  0  0  0  0
    0.7681   -1.8289   -0.0231 C   0  0  0  0  0  0  0  0  0  0  0  0
   -0.4067   -0.8953    0.0352 C   0  0  0  0  0  0  0  0  0  0  0  0
    0.8598   -2.6290   -1.3414 C   0  0  0  0  0  0  0  0  0  0  0  0
    0.8199   -2.7212    1.2338 C   0  0  0  0  0  0  0  0  0  0  0  0
    0.0330    0.4089   -0.0096 C   0  0  0  0  0  0  0  0  0  0  0  0
    1.4885    0.4034   -0.0134 C   0  0  0  0  0  0  0  0  0  0  0  0
   -1.7671   -1.1835    0.1006 C   0  0  0  0  0  0  0  0  0  0  0  0
    1.9698   -3.4668   -1.5987 C   0  0  0  0  0  0  0  0  0  0  0  0
    0.7787   -2.1629    2.5252 C   0  0  0  0  0  0  0  0  0  0  0  0
   -0.2191   -2.6863   -2.2401 C   0  0  0  0  0  0  0  0  0  0  0  0
    0.8692   -4.1266    1.1396 C   0  0  0  0  0  0  0  0  0  0  0  0
   -0.8471    1.4786   -0.0211 C   0  0  0  0  0  0  0  0  0  0  0  0
   -2.6754   -0.1286    0.0608 C   0  0  0  0  0  0  0  0  0  0  0  0
   -2.2176    1.1967    0.0033 C   0  0  0  0  0  0  0  0  0  0  0  0
    1.9361   -4.4040   -2.6380 C   0  0  0  0  0  0  0  0  0  0  0  0
    0.7874   -2.9842    3.6593 C   0  0  0  0  0  0  0  0  0  0  0  0
   -0.2361   -3.5874   -3.2953 C   0  0  0  0  0  0  0  0  0  0  0  0
    0.9303   -4.9399    2.2589 C   0  0  0  0  0  0  0  0  0  0  0  0
    0.8288   -4.4508   -3.4774 C   0  0  0  0  0  0  0  0  0  0  0  0
    0.8701   -4.3659    3.5110 C   0  0  0  0  0  0  0  0  0  0  0  0
    1.5352   -5.8704   -4.5419 H   0  0  0  0  0  0  0  0  0  0  0  0
    0.7899   -4.7072    5.3853 H   0  0  0  0  0  0  0  0  0  0  0  0
   -2.1156   -2.2136    0.1258 H   0  0  0  0  0  0  0  0  0  0  0  0
    2.8113   -3.4831   -0.9029 H   0  0  0  0  0  0  0  0  0  0  0  0
    0.7158   -1.0835    2.6595 H   0  0  0  0  0  0  0  0  0  0  0  0
   -1.0980   -2.0621   -2.1291 H   0  0  0  0  0  0  0  0  0  0  0  0
    0.8609   -4.6474    0.1887 H   0  0  0  0  0  0  0  0  0  0  0  0
   -0.4867    2.5021   -0.0545 H   0  0  0  0  0  0  0  0  0  0  0  0
   -3.7428   -0.3395    0.0637 H   0  0  0  0  0  0  0  0  0  0  0  0
   -2.9417    2.0081   -0.0203 H   0  0  0  0  0  0  0  0  0  0  0  0
    2.7585   -5.1046   -2.7456 H   0  0  0  0  0  0  0  0  0  0  0  0
    0.7303   -2.5257    4.6408 H   0  0  0  0  0  0  0  0  0  0  0  0
   -1.0983   -3.6236   -3.9532 H   0  0  0  0  0  0  0  0  0  0  0  0
    1.0090   -6.0151    2.1353 H   0  0  0  0  0  0  0  0  0  0  0  0
  1  5  1  0  0  0  0
  1 10  1  0  0  0  0
  2 10  2  0  0  0  0
  3 23  1  0  0  0  0
  3 25  1  0  0  0  0
  4 24  1  0  0  0  0
  4 26  1  0  0  0  0
  5  6  1  0  0  0  0
  5  7  1  0  0  0  0
  5  8  1  0  0  0  0
  6  9  1  0  0  0  0
  6 11  2  0  0  0  0
  7 12  2  0  0  0  0
  7 14  1  0  0  0  0
  8 13  2  0  0  0  0
  8 15  1  0  0  0  0
  9 10  1  0  0  0  0
  9 16  2  0  0  0  0
 11 17  1  0  0  0  0
 11 27  1  0  0  0  0
 12 19  1  0  0  0  0
 12 28  1  0  0  0  0
 13 20  1  0  0  0  0
 13 29  1  0  0  0  0
 14 21  2  0  0  0  0
 14 30  1  0  0  0  0
 15 22  2  0  0  0  0
 15 31  1  0  0  0  0
 16 18  1  0  0  0  0
 16 32  1  0  0  0  0
 17 18  2  0  0  0  0
 17 33  1  0  0  0  0
 18 34  1  0  0  0  0
 19 23  2  0  0  0  0
 19 35  1  0  0  0  0
 20 24  2  0  0  0  0
 20 36  1  0  0  0  0
 21 23  1  0  0  0  0
 21 37  1  0  0  0  0
 22 24  1  0  0  0  0
 22 38  1  0  0  0  0
M  END
>  <DRUGBANK_ID>
DB04824

>  <COMMON_NAME>
Phenolphthalein

>  <CAS_NUMBER>
77-09-8

>  <UNII>
6QK969R2IF

>  <SYNONYMS>
3,3-Bis(4-hydroxyphenyl)phthalide; Fenolftalein; Fenolftaleina; Phenolphtaleine; Phenolphthalein; Phenolphthaleinum; Phthalimetten; Phthalin; Yellow phenolphthalein

$$$$
