
 OpenBabel10282417133D

 63 65  0  0  1  0  0  0  0  0999 V2000
    1.1402   -0.0958    0.4074 C   0  0  0  0  0  0  0  0  0  0  0  0
    0.4895   -1.4848    0.0618 C   0  0  0  0  0  0  0  0  0  0  0  0
    1.2254   -2.4625    0.9738 C   0  0  0  0  0  0  0  0  0  0  0  0
   -1.2321   -1.5758    0.0944 C   0  0  1  0  0  0  0  0  0  0  0  0
   -2.1403   -0.7503   -0.9572 N   0  0  0  0  0  0  0  0  0  0  0  0
   -2.6247   -0.9554   -2.2643 C   0  0  0  0  0  0  0  0  0  0  0  0
   -3.0888    0.0138   -2.8815 O   0  0  0  0  0  0  0  0  0  0  0  0
   -2.6180   -2.3119   -2.9724 C   0  0  0  0  0  0  0  0  0  0  0  0
   -1.3586   -3.0404   -3.0813 N   0  0  0  0  0  0  0  0  0  0  0  0
   -1.5235   -4.4560   -2.9838 C   0  0  0  0  0  0  0  0  0  0  0  0
   -2.5728   -5.0336   -2.8400 O   0  0  0  0  0  0  0  0  0  0  0  0
   -0.2454   -5.2562   -2.9350 C   0  0  0  0  0  0  0  0  0  0  0  0
   -0.3302   -6.6246   -2.7496 N   0  0  0  0  0  0  0  0  0  0  0  0
    0.8671   -4.5305   -3.0240 C   0  0  0  0  0  0  0  0  0  0  0  0
    0.9829   -3.1606   -3.1532 N   0  0  0  0  0  0  0  0  0  0  0  0
   -0.0934   -2.4295   -3.1988 C   0  0  0  0  0  0  0  0  0  0  0  0
    0.0714   -0.8850   -3.3284 C   0  0  0  0  0  0  0  0  0  0  0  0
   -0.1874    0.0346   -2.3227 C   0  0  0  0  0  0  0  0  0  0  0  0
   -0.3456    1.4156   -2.3268 C   0  0  0  0  0  0  0  0  0  0  0  0
    0.1402    2.0207   -3.4189 C   0  0  0  0  0  0  0  0  0  0  0  0
    0.7373    1.1876   -4.3817 C   0  0  0  0  0  0  0  0  0  0  0  0
    0.6539   -0.2456   -4.3761 C   0  0  0  0  0  0  0  0  0  0  0  0
   -1.7367   -3.0129    0.0230 C   0  0  1  0  0  0  0  0  0  0  0  0
   -1.1380   -3.9371    0.9044 O   0  0  0  0  0  0  0  0  0  0  0  0
   -3.2383   -3.1313    0.0559 C   0  0  0  0  0  0  0  0  0  0  0  0
   -3.9705   -4.1536   -0.3335 N   0  0  0  0  0  0  0  0  0  0  0  0
   -5.2076   -3.6501   -0.6882 N   0  0  0  0  0  0  0  0  0  0  0  0
   -5.1672   -2.3492   -0.4912 C   0  0  0  0  0  0  0  0  0  0  0  0
   -3.9873   -1.9635    0.0796 O   0  0  0  0  0  0  0  0  0  0  0  0
   -6.2742   -1.3439   -0.6541 C   0  0  0  0  0  0  0  0  0  0  0  0
   -7.0664   -1.6226   -1.9468 C   0  0  0  0  0  0  0  0  0  0  0  0
   -7.1765   -1.5591    0.5647 C   0  0  0  0  0  0  0  0  0  0  0  0
   -5.8236    0.1292   -0.6918 C   0  0  0  0  0  0  0  0  0  0  0  0
    0.8352    0.2317    1.3993 H   0  0  0  0  0  0  0  0  0  0  0  0
    0.9381    0.7407   -0.2595 H   0  0  0  0  0  0  0  0  0  0  0  0
    2.2394   -0.1628    0.3665 H   0  0  0  0  0  0  0  0  0  0  0  0
    0.8578   -1.7833   -0.9263 H   0  0  0  0  0  0  0  0  0  0  0  0
    0.8547   -2.3588    1.9920 H   0  0  0  0  0  0  0  0  0  0  0  0
    1.1493   -3.4889    0.6202 H   0  0  0  0  0  0  0  0  0  0  0  0
    2.3069   -2.2665    0.9675 H   0  0  0  0  0  0  0  0  0  0  0  0
   -1.4909   -1.1249    1.0571 H   0  0  0  0  0  0  0  0  0  0  0  0
   -2.2691    0.2315   -0.7213 H   0  0  0  0  0  0  0  0  0  0  0  0
   -3.3166   -2.9103   -2.3939 H   0  0  0  0  0  0  0  0  0  0  0  0
   -3.1215   -2.2806   -3.9474 H   0  0  0  0  0  0  0  0  0  0  0  0
    0.4789   -7.2182   -2.8968 H   0  0  0  0  0  0  0  0  0  0  0  0
   -1.2570   -7.0512   -2.7524 H   0  0  0  0  0  0  0  0  0  0  0  0
    1.8149   -5.0652   -2.9837 H   0  0  0  0  0  0  0  0  0  0  0  0
   -0.3118   -0.2902   -1.3472 H   0  0  0  0  0  0  0  0  0  0  0  0
   -0.7597    1.9285   -1.4551 H   0  0  0  0  0  0  0  0  0  0  0  0
    0.1229    3.1023   -3.4392 H   0  0  0  0  0  0  0  0  0  0  0  0
    1.3224    1.6713   -5.1468 H   0  0  0  0  0  0  0  0  0  0  0  0
    1.0871   -0.8460   -5.1604 H   0  0  0  0  0  0  0  0  0  0  0  0
   -1.3902   -3.3363   -0.9385 H   0  0  0  0  0  0  0  0  0  0  0  0
   -0.5040   -4.4321    0.3439 H   0  0  0  0  0  0  0  0  0  0  0  0
   -7.4030   -2.6635   -1.9977 H   0  0  0  0  0  0  0  0  0  0  0  0
   -7.9574   -0.9853   -2.0093 H   0  0  0  0  0  0  0  0  0  0  0  0
   -6.4619   -1.4299   -2.8426 H   0  0  0  0  0  0  0  0  0  0  0  0
   -6.6209   -1.3511    1.4878 H   0  0  0  0  0  0  0  0  0  0  0  0
   -8.0606   -0.9188    0.5382 H   0  0  0  0  0  0  0  0  0  0  0  0
   -7.5072   -2.6037    0.6140 H   0  0  0  0  0  0  0  0  0  0  0  0
   -5.2418    0.4100    0.1918 H   0  0  0  0  0  0  0  0  0  0  0  0
   -5.2204    0.3584   -1.5759 H   0  0  0  0  0  0  0  0  0  0  0  0
   -6.6951    0.7985   -0.7305 H   0  0  0  0  0  0  0  0  0  0  0  0
  1  2  1  0  0  0  0
  1 34  1  0  0  0  0
  1 35  1  0  0  0  0
  1 36  1  0  0  0  0
  2  3  1  0  0  0  0
  2  4  1  0  0  0  0
  2 37  1  0  0  0  0
  3 38  1  0  0  0  0
  3 39  1  0  0  0  0
  3 40  1  0  0  0  0
  4  5  1  0  0  0  0
  4 23  1  0  0  0  0
  4 41  1  1  0  0  0
  5  6  1  0  0  0  0
  5 42  1  0  0  0  0
  6  7  2  0  0  0  0
  6  8  1  0  0  0  0
  8  9  1  0  0  0  0
  8 43  1  0  0  0  0
  8 44  1  0  0  0  0
  9 10  1  0  0  0  0
  9 16  1  0  0  0  0
 10 11  2  0  0  0  0
 10 12  1  0  0  0  0
 12 13  1  0  0  0  0
 12 14  2  0  0  0  0
 13 45  1  0  0  0  0
 13 46  1  0  0  0  0
 14 15  1  0  0  0  0
 14 47  1  0  0  0  0
 15 16  2  0  0  0  0
 16 17  1  0  0  0  0
 17 18  2  0  0  0  0
 17 22  1  0  0  0  0
 18 19  1  0  0  0  0
 18 48  1  0  0  0  0
 19 20  2  0  0  0  0
 19 49  1  0  0  0  0
 20 21  1  0  0  0  0
 20 50  1  0  0  0  0
 21 22  2  0  0  0  0
 21 51  1  0  0  0  0
 22 52  1  0  0  0  0
 23 24  1  0  0  0  0
 23 25  1  0  0  0  0
 23 53  1  6  0  0  0
 24 54  1  0  0  0  0
 25 26  2  0  0  0  0
 25 29  1  0  0  0  0
 26 27  1  0  0  0  0
 27 28  2  0  0  0  0
 28 29  1  0  0  0  0
 28 30  1  0  0  0  0
 30 31  1  0  0  0  0
 30 32  1  0  0  0  0
 30 33  1  0  0  0  0
 31 55  1  0  0  0  0
 31 56  1  0  0  0  0
 31 57  1  0  0  0  0
 32 58  1  0  0  0  0
 32 59  1  0  0  0  0
 32 60  1  0  0  0  0
 33 61  1  0  0  0  0
 33 62  1  0  0  0  0
 33 63  1  0  0  0  0
M  END
>  <DRUGBANK_ID>
DB03925

>  <SECONDARY_ACCESSION_NUMBERS>
EXPT00279

>  <COMMON_NAME>
Freselestat

>  <CAS_NUMBER>
208848-19-5

>  <UNII>
1CW4RL23VP

>  <SYNONYMS>
Freselestat

$$$$
