557
 OpenBabel10282417103D

 53 55  0  0  1  0  0  0  0  0999 V2000
   -2.2286    0.0428    0.1626 Cl  0  0  0  0  0  0  0  0  0  0  0  0
    4.5644   -1.3738    4.9417 O   0  0  0  0  0  0  0  0  0  0  0  0
    5.1867   -3.0894    2.2766 O   0  0  0  0  0  0  0  0  0  0  0  0
    3.7618   -0.2674    0.7497 N   0  0  0  0  0  0  0  0  0  0  0  0
    1.9564   -1.3677    2.8575 N   0  0  0  0  0  0  0  0  0  0  0  0
    3.3584   -1.6831    0.7705 C   0  0  0  0  0  0  0  0  0  0  0  0
    3.3893    0.6551    1.8192 C   0  0  0  0  0  0  0  0  0  0  0  0
    2.1871   -2.0739    1.6265 C   0  0  0  0  0  0  0  0  0  0  0  0
    2.1428    0.1224    2.6659 C   0  0  0  0  0  0  0  0  0  0  0  0
    3.6969    0.2679   -0.5638 C   0  0  3  0  0  0  0  0  0  0  0  0
    2.3054   -2.1491    4.0702 C   0  0  0  0  0  0  0  0  0  0  0  0
    2.1646    0.2968   -0.8491 C   0  0  0  0  0  0  0  0  0  0  0  0
    4.5559   -0.5458   -1.5133 C   0  0  0  0  0  0  0  0  0  0  0  0
    3.7384   -2.4766    4.6294 C   0  0  0  0  0  0  0  0  0  0  0  0
    1.4794    1.4392   -0.4427 C   0  0  0  0  0  0  0  0  0  0  0  0
    1.4138   -0.9003   -1.0442 C   0  0  0  0  0  0  0  0  0  0  0  0
    4.2861   -0.1955   -2.8512 C   0  0  0  0  0  0  0  0  0  0  0  0
    5.4520   -1.6249   -1.2850 C   0  0  0  0  0  0  0  0  0  0  0  0
    0.1083    1.3673   -0.1959 C   0  0  0  0  0  0  0  0  0  0  0  0
    0.0998   -1.0082   -0.5874 C   0  0  0  0  0  0  0  0  0  0  0  0
    4.7635   -0.9784   -3.8439 C   0  0  0  0  0  0  0  0  0  0  0  0
    5.8923   -2.4471   -2.2888 C   0  0  0  0  0  0  0  0  0  0  0  0
   -0.5633    0.1416   -0.2255 C   0  0  0  0  0  0  0  0  0  0  0  0
    5.5194   -2.1209   -3.6136 C   0  0  0  0  0  0  0  0  0  0  0  0
    4.8910   -0.8055    3.6909 C   0  0  0  0  0  0  0  0  0  0  0  0
    5.5585   -1.6730    2.5169 C   0  0  0  0  0  0  0  0  0  0  0  0
    4.2187   -3.2948    2.3251 H   0  0  0  0  0  0  0  0  0  0  0  0
    3.2105   -2.1520   -0.1967 H   0  0  0  0  0  0  0  0  0  0  0  0
    4.2148   -2.3148    0.8209 H   0  0  0  0  0  0  0  0  0  0  0  0
    4.3840    0.7315    2.2492 H   0  0  0  0  0  0  0  0  0  0  0  0
    3.3784    1.7641    1.7411 H   0  0  0  0  0  0  0  0  0  0  0  0
    1.3558   -1.7001    1.0883 H   0  0  0  0  0  0  0  0  0  0  0  0
    1.9858   -3.1513    1.5869 H   0  0  0  0  0  0  0  0  0  0  0  0
    1.2938    0.4638    2.0610 H   0  0  0  0  0  0  0  0  0  0  0  0
    2.0052    0.6615    3.6077 H   0  0  0  0  0  0  0  0  0  0  0  0
    4.1345    1.2803   -0.5442 H   0  0  0  0  0  0  0  0  0  0  0  0
    1.7558   -1.6911    4.8892 H   0  0  0  0  0  0  0  0  0  0  0  0
    1.8561   -3.1424    3.9042 H   0  0  0  0  0  0  0  0  0  0  0  0
    3.7624   -3.2248    5.4143 H   0  0  0  0  0  0  0  0  0  0  0  0
    4.3382   -3.0292    3.9631 H   0  0  0  0  0  0  0  0  0  0  0  0
    2.0354    2.3354   -0.1683 H   0  0  0  0  0  0  0  0  0  0  0  0
    1.8855   -1.8581   -1.2504 H   0  0  0  0  0  0  0  0  0  0  0  0
    3.6298    0.6513   -3.0161 H   0  0  0  0  0  0  0  0  0  0  0  0
    5.7815   -1.9722   -0.2891 H   0  0  0  0  0  0  0  0  0  0  0  0
   -0.4130    2.2645    0.1047 H   0  0  0  0  0  0  0  0  0  0  0  0
   -0.3108   -1.9982   -0.3560 H   0  0  0  0  0  0  0  0  0  0  0  0
    4.4983   -0.6806   -4.8690 H   0  0  0  0  0  0  0  0  0  0  0  0
    6.4871   -3.3287   -2.0803 H   0  0  0  0  0  0  0  0  0  0  0  0
    5.8394   -2.7541   -4.4126 H   0  0  0  0  0  0  0  0  0  0  0  0
    3.9099   -0.6903    3.3397 H   0  0  0  0  0  0  0  0  0  0  0  0
    5.1331    0.2638    3.8299 H   0  0  0  0  0  0  0  0  0  0  0  0
    5.4222   -1.1354    1.5877 H   0  0  0  0  0  0  0  0  0  0  0  0
    6.6301   -1.6214    2.4349 H   0  0  0  0  0  0  0  0  0  0  0  0
  1 23  1  0  0  0  0
  2 14  1  0  0  0  0
  2 25  1  0  0  0  0
  3 26  1  0  0  0  0
  3 27  1  0  0  0  0
  4  6  1  0  0  0  0
  4  7  1  0  0  0  0
  4 10  1  0  0  0  0
  5  8  1  0  0  0  0
  5  9  1  0  0  0  0
  5 11  1  0  0  0  0
  6  8  1  0  0  0  0
  6 28  1  0  0  0  0
  6 29  1  0  0  0  0
  7  9  1  0  0  0  0
  7 30  1  0  0  0  0
  7 31  1  0  0  0  0
  8 32  1  0  0  0  0
  8 33  1  0  0  0  0
  9 34  1  0  0  0  0
  9 35  1  0  0  0  0
 10 12  1  0  0  0  0
 10 13  1  0  0  0  0
 10 36  1  0  0  0  0
 11 14  1  0  0  0  0
 11 37  1  0  0  0  0
 11 38  1  0  0  0  0
 12 15  2  0  0  0  0
 12 16  1  0  0  0  0
 13 17  2  0  0  0  0
 13 18  1  0  0  0  0
 14 39  1  0  0  0  0
 14 40  1  0  0  0  0
 15 19  1  0  0  0  0
 15 41  1  0  0  0  0
 16 20  2  0  0  0  0
 16 42  1  0  0  0  0
 17 21  1  0  0  0  0
 17 43  1  0  0  0  0
 18 22  2  0  0  0  0
 18 44  1  0  0  0  0
 19 23  2  0  0  0  0
 19 45  1  0  0  0  0
 20 23  1  0  0  0  0
 20 46  1  0  0  0  0
 21 24  2  0  0  0  0
 21 47  1  0  0  0  0
 22 24  1  0  0  0  0
 22 48  1  0  0  0  0
 24 49  1  0  0  0  0
 25 26  1  0  0  0  0
 25 50  1  0  0  0  0
 25 51  1  0  0  0  0
 26 52  1  0  0  0  0
 26 53  1  0  0  0  0
M  END
>  <DRUGBANK_ID>
DB00557

>  <SECONDARY_ACCESSION_NUMBERS>
APRD00688

>  <COMMON_NAME>
Hydroxyzine

>  <CAS_NUMBER>
68-88-2

>  <UNII>
30S50YM8OG

>  <SYNONYMS>
Hidroxizina; Hychotine; Hydroksyzyny; Hydroxine; Hydroxizine; Hydroxizinum; Hydroxycine; Hydroxyzin; Hydroxyzine; Hydroxyzinum; Idrossizina

$$$$
