505
 OpenBabel10282417163D

 30 30  0  0  0  0  0  0  0  0999 V2000
    0.6137   -0.0873   -1.0561 C   0  0  0  0  0  0  0  0  0  0  0  0
    0.2628    1.3660   -0.6853 C   0  0  1  0  0  0  0  0  0  0  0  0
    0.7315    2.1692   -1.8227 N   0  0  0  0  0  0  0  0  0  0  0  0
   -1.1972    1.3963   -0.1905 C   0  0  0  0  0  0  0  0  0  0  0  0
   -1.3032    1.1450    1.2540 O   0  0  0  0  0  0  0  0  0  0  0  0
   -1.0373   -0.1245    1.7312 C   0  0  0  0  0  0  0  0  0  0  0  0
    0.2783   -0.6245    1.9153 C   0  0  0  0  0  0  0  0  0  0  0  0
    1.5888    0.1374    1.8097 C   0  0  0  0  0  0  0  0  0  0  0  0
    0.4459   -1.9857    2.2461 C   0  0  0  0  0  0  0  0  0  0  0  0
   -0.6431   -2.7770    2.6218 C   0  0  0  0  0  0  0  0  0  0  0  0
   -1.9015   -2.2283    2.6403 C   0  0  0  0  0  0  0  0  0  0  0  0
   -2.1404   -0.9166    2.1779 C   0  0  0  0  0  0  0  0  0  0  0  0
   -3.5637   -0.4307    2.2098 C   0  0  0  0  0  0  0  0  0  0  0  0
    0.8122    1.8052    0.1507 H   0  0  0  0  0  0  0  0  0  0  0  0
    0.2212   -0.3743   -2.0319 H   0  0  0  0  0  0  0  0  0  0  0  0
    0.1488   -0.8081   -0.3893 H   0  0  0  0  0  0  0  0  0  0  0  0
    1.6924   -0.2785   -1.0437 H   0  0  0  0  0  0  0  0  0  0  0  0
    0.5200    3.1545   -1.6817 H   0  0  0  0  0  0  0  0  0  0  0  0
    1.7585    2.1234   -1.8033 H   0  0  0  0  0  0  0  0  0  0  0  0
   -1.5861    2.4145   -0.3305 H   0  0  0  0  0  0  0  0  0  0  0  0
   -1.8458    0.7326   -0.7758 H   0  0  0  0  0  0  0  0  0  0  0  0
    1.8794    0.5009    0.8350 H   0  0  0  0  0  0  0  0  0  0  0  0
    1.6169    0.9822    2.4973 H   0  0  0  0  0  0  0  0  0  0  0  0
    2.4366   -0.5247    2.0159 H   0  0  0  0  0  0  0  0  0  0  0  0
    1.4265   -2.4392    2.2261 H   0  0  0  0  0  0  0  0  0  0  0  0
   -0.4702   -3.8061    2.9269 H   0  0  0  0  0  0  0  0  0  0  0  0
   -2.7288   -2.8422    3.0164 H   0  0  0  0  0  0  0  0  0  0  0  0
   -3.6445    0.5101    2.7604 H   0  0  0  0  0  0  0  0  0  0  0  0
   -3.9644   -0.3175    1.1993 H   0  0  0  0  0  0  0  0  0  0  0  0
   -4.2151   -1.1490    2.7326 H   0  0  0  0  0  0  0  0  0  0  0  0
  1  2  1  0  0  0  0
  1 15  1  0  0  0  0
  1 16  1  0  0  0  0
  1 17  1  0  0  0  0
  2  3  1  0  0  0  0
  2  4  1  0  0  0  0
  2 14  1  1  0  0  0
  3 18  1  0  0  0  0
  3 19  1  0  0  0  0
  4  5  1  0  0  0  0
  4 20  1  0  0  0  0
  4 21  1  0  0  0  0
  5  6  1  0  0  0  0
  6  7  1  0  0  0  0
  6 12  2  0  0  0  0
  7  8  1  0  0  0  0
  7  9  2  0  0  0  0
  8 22  1  0  0  0  0
  8 23  1  0  0  0  0
  8 24  1  0  0  0  0
  9 10  1  0  0  0  0
  9 25  1  0  0  0  0
 10 11  2  0  0  0  0
 10 26  1  0  0  0  0
 11 12  1  0  0  0  0
 11 27  1  0  0  0  0
 12 13  1  0  0  0  0
 13 28  1  0  0  0  0
 13 29  1  0  0  0  0
 13 30  1  0  0  0  0
M  END
>  <DRUGBANK_ID>
DB07129

>  <COMMON_NAME>
(2R)-1-(2,6-dimethylphenoxy)propan-2-amine

>  <UNII>
4KQ8G4M9DE

$$$$
