C8E
 OpenBabel10282417143D

 55 54  0  0  0  0  0  0  0  0999 V2000
    1.0557   -0.0155   -0.1723 C   0  0  0  0  0  0  0  0  0  0  0  0
    0.6841   -1.4256   -0.6084 C   0  0  0  0  0  0  0  0  0  0  0  0
    1.2770   -2.4526    0.3787 C   0  0  0  0  0  0  0  0  0  0  0  0
    0.7261   -2.2006    1.7258 C   0  0  0  0  0  0  0  0  0  0  0  0
   -0.7457   -2.2711    1.5076 C   0  0  0  0  0  0  0  0  0  0  0  0
   -1.3115   -3.6999    1.1742 C   0  0  0  0  0  0  0  0  0  0  0  0
   -1.0817   -4.8379    2.2018 C   0  0  0  0  0  0  0  0  0  0  0  0
   -1.9017   -4.7404    3.4657 C   0  0  0  0  0  0  0  0  0  0  0  0
   -3.2587   -4.4370    3.6678 O   0  0  0  0  0  0  0  0  0  0  0  0
   -3.6727   -3.2546    2.9721 C   0  0  0  0  0  0  0  0  0  0  0  0
   -2.8403   -1.8968    3.0761 C   0  0  0  0  0  0  0  0  0  0  0  0
   -1.6595   -1.7008    3.9446 O   0  0  0  0  0  0  0  0  0  0  0  0
   -0.8956   -2.5813    4.7639 C   0  0  0  0  0  0  0  0  0  0  0  0
   -1.6127   -2.8972    6.0661 C   0  0  0  0  0  0  0  0  0  0  0  0
   -2.9798   -2.4395    6.3246 O   0  0  0  0  0  0  0  0  0  0  0  0
   -3.6524   -1.4031    5.5605 C   0  0  0  0  0  0  0  0  0  0  0  0
   -3.0734    0.1807    5.2967 C   0  0  0  0  0  0  0  0  0  0  0  0
   -1.6856    0.6045    5.4482 O   0  0  0  0  0  0  0  0  0  0  0  0
   -1.0284   -0.1503    6.4319 C   0  0  0  0  0  0  0  0  0  0  0  0
   -1.4530   -0.2507    7.8925 C   0  0  0  0  0  0  0  0  0  0  0  0
   -2.8311   -0.5276    8.1266 O   0  0  0  0  0  0  0  0  0  0  0  0
    0.6377    0.2705    0.8029 H   0  0  0  0  0  0  0  0  0  0  0  0
    0.6775    0.7158   -0.8857 H   0  0  0  0  0  0  0  0  0  0  0  0
    2.1420    0.0481   -0.0982 H   0  0  0  0  0  0  0  0  0  0  0  0
   -0.4104   -1.4695   -0.7085 H   0  0  0  0  0  0  0  0  0  0  0  0
    1.0218   -1.6688   -1.6073 H   0  0  0  0  0  0  0  0  0  0  0  0
    0.9791   -3.4697    0.0895 H   0  0  0  0  0  0  0  0  0  0  0  0
    2.3553   -2.4367    0.4291 H   0  0  0  0  0  0  0  0  0  0  0  0
    1.0389   -2.8943    2.5125 H   0  0  0  0  0  0  0  0  0  0  0  0
    0.9845   -1.2065    2.1535 H   0  0  0  0  0  0  0  0  0  0  0  0
   -0.9273   -1.7868    2.3310 H   0  0  0  0  0  0  0  0  0  0  0  0
   -1.2564   -1.5296    0.8672 H   0  0  0  0  0  0  0  0  0  0  0  0
   -2.3559   -3.5651    0.9420 H   0  0  0  0  0  0  0  0  0  0  0  0
   -0.9347   -4.0358    0.2265 H   0  0  0  0  0  0  0  0  0  0  0  0
   -1.2767   -5.8218    1.7903 H   0  0  0  0  0  0  0  0  0  0  0  0
   -0.0196   -4.7976    2.5043 H   0  0  0  0  0  0  0  0  0  0  0  0
   -1.4585   -5.2482    4.3386 H   0  0  0  0  0  0  0  0  0  0  0  0
   -1.6200   -3.7471    3.4667 H   0  0  0  0  0  0  0  0  0  0  0  0
   -3.7708   -3.5902    1.9509 H   0  0  0  0  0  0  0  0  0  0  0  0
   -4.7169   -3.0556    3.2211 H   0  0  0  0  0  0  0  0  0  0  0  0
   -2.8863   -1.3212    2.1272 H   0  0  0  0  0  0  0  0  0  0  0  0
   -3.4401   -1.0717    3.4240 H   0  0  0  0  0  0  0  0  0  0  0  0
   -0.4467   -3.5534    4.5215 H   0  0  0  0  0  0  0  0  0  0  0  0
    0.1410   -2.1842    4.7443 H   0  0  0  0  0  0  0  0  0  0  0  0
   -1.4357   -3.8595    6.5457 H   0  0  0  0  0  0  0  0  0  0  0  0
   -0.8958   -2.4110    6.7169 H   0  0  0  0  0  0  0  0  0  0  0  0
   -3.8846   -2.0162    4.7286 H   0  0  0  0  0  0  0  0  0  0  0  0
   -4.7477   -1.2949    5.6917 H   0  0  0  0  0  0  0  0  0  0  0  0
   -3.4013    0.6003    4.3340 H   0  0  0  0  0  0  0  0  0  0  0  0
   -3.5814    0.8236    6.0040 H   0  0  0  0  0  0  0  0  0  0  0  0
   -1.5400   -0.9842    6.1364 H   0  0  0  0  0  0  0  0  0  0  0  0
    0.0210   -0.4186    6.2193 H   0  0  0  0  0  0  0  0  0  0  0  0
   -0.9464   -1.1201    8.3382 H   0  0  0  0  0  0  0  0  0  0  0  0
   -1.1965    0.6667    8.3900 H   0  0  0  0  0  0  0  0  0  0  0  0
   -3.3665    0.0713    7.5910 H   0  0  0  0  0  0  0  0  0  0  0  0
  1  2  1  0  0  0  0
  1 22  1  0  0  0  0
  1 23  1  0  0  0  0
  1 24  1  0  0  0  0
  2  3  1  0  0  0  0
  2 25  1  0  0  0  0
  2 26  1  0  0  0  0
  3  4  1  0  0  0  0
  3 27  1  0  0  0  0
  3 28  1  0  0  0  0
  4  5  1  0  0  0  0
  4 29  1  0  0  0  0
  4 30  1  0  0  0  0
  5  6  1  0  0  0  0
  5 31  1  0  0  0  0
  5 32  1  0  0  0  0
  6  7  1  0  0  0  0
  6 33  1  0  0  0  0
  6 34  1  0  0  0  0
  7  8  1  0  0  0  0
  7 35  1  0  0  0  0
  7 36  1  0  0  0  0
  8  9  1  0  0  0  0
  8 37  1  0  0  0  0
  8 38  1  0  0  0  0
  9 10  1  0  0  0  0
 10 11  1  0  0  0  0
 10 39  1  0  0  0  0
 10 40  1  0  0  0  0
 11 12  1  0  0  0  0
 11 41  1  0  0  0  0
 11 42  1  0  0  0  0
 12 13  1  0  0  0  0
 13 14  1  0  0  0  0
 13 43  1  0  0  0  0
 13 44  1  0  0  0  0
 14 15  1  0  0  0  0
 14 45  1  0  0  0  0
 14 46  1  0  0  0  0
 15 16  1  0  0  0  0
 16 17  1  0  0  0  0
 16 47  1  0  0  0  0
 16 48  1  0  0  0  0
 17 18  1  0  0  0  0
 17 49  1  0  0  0  0
 17 50  1  0  0  0  0
 18 19  1  0  0  0  0
 19 20  1  0  0  0  0
 19 51  1  0  0  0  0
 19 52  1  0  0  0  0
 20 21  1  0  0  0  0
 20 53  1  0  0  0  0
 20 54  1  0  0  0  0
 21 55  1  0  0  0  0
M  END
>  <DRUGBANK_ID>
DB04233

>  <SECONDARY_ACCESSION_NUMBERS>
EXPT00817

>  <COMMON_NAME>
(Hydroxyethyloxy)Tri(Ethyloxy)Octane

$$$$
