A04
 OpenBabel10282417163D

 26 27  0  0  0  0  0  0  0  0999 V2000
    0.7036   -0.0305    0.0934 O   0  0  0  0  0  0  0  0  0  0  0  0
    0.1566    0.8598    0.9623 C   0  0  0  0  0  0  0  0  0  0  0  0
    0.8820    1.6328    1.5805 O   0  0  0  0  0  0  0  0  0  0  0  0
   -1.2776    0.7106    1.0284 C   0  0  0  0  0  0  0  0  0  0  0  0
   -2.1017    1.8059    1.2233 O   0  0  0  0  0  0  0  0  0  0  0  0
   -2.0677   -0.4157    0.8791 C   0  0  0  0  0  0  0  0  0  0  0  0
   -3.4137    0.0052    0.9274 C   0  0  0  0  0  0  0  0  0  0  0  0
   -3.3926    1.3786    1.0346 C   0  0  0  0  0  0  0  0  0  0  0  0
   -4.4643    2.3699    0.9530 C   0  0  0  0  0  0  0  0  0  0  0  0
   -5.4440    2.2938    1.9660 C   0  0  0  0  0  0  0  0  0  0  0  0
   -6.5278    3.1721    2.0212 C   0  0  0  0  0  0  0  0  0  0  0  0
   -6.6491    4.1679    1.0651 C   0  0  0  0  0  0  0  0  0  0  0  0
   -5.7061    4.2492    0.0367 C   0  0  0  0  0  0  0  0  0  0  0  0
   -4.6524    3.3107   -0.0818 C   0  0  0  0  0  0  0  0  0  0  0  0
   -3.9922    3.4366   -1.2797 O   0  0  0  0  0  0  0  0  0  0  0  0
   -3.0558    2.4513   -1.6858 C   0  0  0  0  0  0  0  0  0  0  0  0
   -1.9154    2.5727   -0.9875 F   0  0  0  0  0  0  0  0  0  0  0  0
   -3.5643    1.2038   -1.6072 F   0  0  0  0  0  0  0  0  0  0  0  0
   -2.7236    2.6531   -2.9832 F   0  0  0  0  0  0  0  0  0  0  0  0
    1.6681    0.1410    0.1274 H   0  0  0  0  0  0  0  0  0  0  0  0
   -1.6980   -1.4191    0.7298 H   0  0  0  0  0  0  0  0  0  0  0  0
   -4.3031   -0.5930    0.7969 H   0  0  0  0  0  0  0  0  0  0  0  0
   -5.3700    1.5183    2.7263 H   0  0  0  0  0  0  0  0  0  0  0  0
   -7.2589    3.0839    2.8213 H   0  0  0  0  0  0  0  0  0  0  0  0
   -7.4842    4.8647    1.1086 H   0  0  0  0  0  0  0  0  0  0  0  0
   -5.8106    5.0531   -0.6924 H   0  0  0  0  0  0  0  0  0  0  0  0
  1  2  1  0  0  0  0
  1 20  1  0  0  0  0
  2  3  2  0  0  0  0
  2  4  1  0  0  0  0
  4  5  1  0  0  0  0
  4  6  2  0  0  0  0
  5  8  1  0  0  0  0
  6  7  1  0  0  0  0
  6 21  1  0  0  0  0
  7  8  2  0  0  0  0
  7 22  1  0  0  0  0
  8  9  1  0  0  0  0
  9 10  1  0  0  0  0
  9 14  2  0  0  0  0
 10 11  2  0  0  0  0
 10 23  1  0  0  0  0
 11 12  1  0  0  0  0
 11 24  1  0  0  0  0
 12 13  2  0  0  0  0
 12 25  1  0  0  0  0
 13 14  1  0  0  0  0
 13 26  1  0  0  0  0
 14 15  1  0  0  0  0
 15 16  1  0  0  0  0
 16 17  1  0  0  0  0
 16 18  1  0  0  0  0
 16 19  1  0  0  0  0
M  END
>  <DRUGBANK_ID>
DB07304

>  <COMMON_NAME>
5-[2-(TRIFLUOROMETHOXY)PHENYL]-2-FUROIC ACID

$$$$
