3BE
 OpenBabel10282417163D

 31 32  0  0  0  0  0  0  0  0999 V2000
    0.9681   -0.7449    0.4377 C   0  0  0  0  0  0  0  0  0  0  0  0
    0.4139    0.5416    0.3104 C   0  0  0  0  0  0  0  0  0  0  0  0
   -1.4359    0.8276    0.6006 Br  0  0  0  0  0  0  0  0  0  0  0  0
    1.2205    1.6227    0.0381 C   0  0  0  0  0  0  0  0  0  0  0  0
    2.5902    1.4027   -0.0429 C   0  0  0  0  0  0  0  0  0  0  0  0
    3.1269    0.0940    0.0071 C   0  0  0  0  0  0  0  0  0  0  0  0
    2.3140   -1.0406    0.1813 C   0  0  0  0  0  0  0  0  0  0  0  0
    2.9876   -2.4281    0.0966 C   0  0  0  0  0  0  0  0  0  0  0  0
    4.2140   -2.4517    0.0054 O   0  0  0  0  0  0  0  0  0  0  0  0
    2.3419   -3.6851    0.0638 N   0  0  0  0  0  0  0  0  0  0  0  0
    1.0130   -4.0030    0.2566 N   0  0  0  0  0  0  0  0  0  0  0  0
    0.2216   -3.2925   -0.4871 C   0  0  0  0  0  0  0  0  0  0  0  0
   -1.2360   -3.1060   -0.3290 C   0  0  0  0  0  0  0  0  0  0  0  0
   -1.9408   -3.7323    0.7020 C   0  0  0  0  0  0  0  0  0  0  0  0
   -3.3267   -3.5601    0.7811 C   0  0  0  0  0  0  0  0  0  0  0  0
   -4.2981   -4.5726    2.0571 Br  0  0  0  0  0  0  0  0  0  0  0  0
   -3.9966   -2.6961   -0.0951 C   0  0  0  0  0  0  0  0  0  0  0  0
   -5.3606   -2.5676   -0.0569 O   0  0  0  0  0  0  0  0  0  0  0  0
   -3.2720   -1.9650   -1.0377 C   0  0  0  0  0  0  0  0  0  0  0  0
   -4.1551   -0.6834   -2.1403 Br  0  0  0  0  0  0  0  0  0  0  0  0
   -1.8905   -2.1711   -1.1596 C   0  0  0  0  0  0  0  0  0  0  0  0
   -1.2238   -1.4220   -2.1007 O   0  0  0  0  0  0  0  0  0  0  0  0
    0.2888   -1.4956    0.7930 H   0  0  0  0  0  0  0  0  0  0  0  0
    0.7984    2.6231   -0.0322 H   0  0  0  0  0  0  0  0  0  0  0  0
    3.2505    2.2625   -0.1230 H   0  0  0  0  0  0  0  0  0  0  0  0
    4.2090   -0.0156   -0.0585 H   0  0  0  0  0  0  0  0  0  0  0  0
    2.9900   -4.4787    0.0925 H   0  0  0  0  0  0  0  0  0  0  0  0
    0.6952   -2.6497   -1.2355 H   0  0  0  0  0  0  0  0  0  0  0  0
   -1.4215   -4.3462    1.4357 H   0  0  0  0  0  0  0  0  0  0  0  0
   -5.7152   -3.2287    0.5634 H   0  0  0  0  0  0  0  0  0  0  0  0
   -0.3627   -1.1026   -1.7844 H   0  0  0  0  0  0  0  0  0  0  0  0
  1  2  2  0  0  0  0
  1  7  1  0  0  0  0
  1 23  1  0  0  0  0
  2  3  1  0  0  0  0
  2  4  1  0  0  0  0
  4  5  2  0  0  0  0
  4 24  1  0  0  0  0
  5  6  1  0  0  0  0
  5 25  1  0  0  0  0
  6  7  2  0  0  0  0
  6 26  1  0  0  0  0
  7  8  1  0  0  0  0
  8  9  2  0  0  0  0
  8 10  1  0  0  0  0
 10 11  1  0  0  0  0
 10 27  1  0  0  0  0
 11 12  2  0  0  0  0
 12 13  1  0  0  0  0
 12 28  1  0  0  0  0
 13 14  2  0  0  0  0
 13 21  1  0  0  0  0
 14 15  1  0  0  0  0
 14 29  1  0  0  0  0
 15 16  1  0  0  0  0
 15 17  2  0  0  0  0
 17 18  1  0  0  0  0
 17 19  1  0  0  0  0
 18 30  1  0  0  0  0
 19 20  1  0  0  0  0
 19 21  2  0  0  0  0
 21 22  1  0  0  0  0
 22 31  1  0  0  0  0
M  END
>  <DRUGBANK_ID>
DB07044

>  <COMMON_NAME>
3-bromo-N'-[(1E)-(3,5-dibromo-2,4-dihydroxyphenyl)methylidene]benzohydrazide

$$$$
