G6A
 OpenBabel10282417163D

 47 50  0  0  0  0  0  0  0  0999 V2000
   -2.1581   -0.0414    0.0012 C   0  0  0  0  0  0  0  0  0  0  0  0
    4.7122    4.9991   -4.0505 C   0  0  0  0  0  0  0  0  0  0  0  0
    4.1198    6.1705   -4.7452 C   0  0  0  0  0  0  0  0  0  0  0  0
    4.8948    6.3974   -3.4841 C   0  0  0  0  0  0  0  0  0  0  0  0
   -0.6853   -0.0885    0.0120 C   0  0  0  0  0  0  0  0  0  0  0  0
    0.0053    1.0986    0.0470 O   0  0  0  0  0  0  0  0  0  0  0  0
    0.1026   -1.1411   -0.0233 N   0  0  0  0  0  0  0  0  0  0  0  0
    1.3917   -0.6603   -0.0447 N   0  0  0  0  0  0  0  0  0  0  0  0
    1.3038    0.6524    0.0071 C   0  0  0  0  0  0  0  0  0  0  0  0
    2.3655    1.6414   -0.0259 C   0  0  0  0  0  0  0  0  0  0  0  0
    2.5145    2.5828    0.9937 C   0  0  0  0  0  0  0  0  0  0  0  0
    3.5955    3.4683    0.9798 C   0  0  0  0  0  0  0  0  0  0  0  0
    3.3211    1.5947   -1.0517 C   0  0  0  0  0  0  0  0  0  0  0  0
    4.4348    2.4537   -1.0587 C   0  0  0  0  0  0  0  0  0  0  0  0
    5.4691    2.2845   -2.1429 C   0  0  0  0  0  0  0  0  0  0  0  0
    4.5844    3.4034   -0.0199 C   0  0  0  0  0  0  0  0  0  0  0  0
    5.7368    4.3274    0.0437 C   0  0  0  0  0  0  0  0  0  0  0  0
    5.8891    5.2408   -0.9996 C   0  0  0  0  0  0  0  0  0  0  0  0
    6.9221    6.1625   -1.1266 C   0  0  0  0  0  0  0  0  0  0  0  0
    7.0554    7.0659   -2.3225 C   0  0  0  0  0  0  0  0  0  0  0  0
    7.9742    7.8943   -2.3499 O   0  0  0  0  0  0  0  0  0  0  0  0
    6.1893    7.0037   -3.4145 N   0  0  0  0  0  0  0  0  0  0  0  0
    7.8510    6.1943   -0.0852 C   0  0  0  0  0  0  0  0  0  0  0  0
    7.7316    5.2986    0.9970 C   0  0  0  0  0  0  0  0  0  0  0  0
    6.6867    4.3520    1.0616 C   0  0  0  0  0  0  0  0  0  0  0  0
    6.6230    3.3742    2.1985 C   0  0  0  0  0  0  0  0  0  0  0  0
   -2.5416    0.4757    0.8846 H   0  0  0  0  0  0  0  0  0  0  0  0
   -2.5267    0.4672   -0.8945 H   0  0  0  0  0  0  0  0  0  0  0  0
   -2.5670   -1.0577    0.0006 H   0  0  0  0  0  0  0  0  0  0  0  0
    4.0129    4.3213   -3.5673 H   0  0  0  0  0  0  0  0  0  0  0  0
    5.5711    4.5020   -4.4900 H   0  0  0  0  0  0  0  0  0  0  0  0
    4.5404    6.4161   -5.7061 H   0  0  0  0  0  0  0  0  0  0  0  0
    3.0412    6.2638   -4.6663 H   0  0  0  0  0  0  0  0  0  0  0  0
    4.2698    6.7083   -2.6474 H   0  0  0  0  0  0  0  0  0  0  0  0
    1.8242    2.6059    1.8336 H   0  0  0  0  0  0  0  0  0  0  0  0
    3.6996    4.1877    1.7913 H   0  0  0  0  0  0  0  0  0  0  0  0
    3.2105    0.8537   -1.8435 H   0  0  0  0  0  0  0  0  0  0  0  0
    5.6454    3.2164   -2.6682 H   0  0  0  0  0  0  0  0  0  0  0  0
    6.4272    1.9672   -1.7263 H   0  0  0  0  0  0  0  0  0  0  0  0
    5.1514    1.5673   -2.9060 H   0  0  0  0  0  0  0  0  0  0  0  0
    5.1224    5.1530   -1.7331 H   0  0  0  0  0  0  0  0  0  0  0  0
    6.3817    7.7397   -4.0873 H   0  0  0  0  0  0  0  0  0  0  0  0
    8.6796    6.9015   -0.1054 H   0  0  0  0  0  0  0  0  0  0  0  0
    8.4746    5.3305    1.7920 H   0  0  0  0  0  0  0  0  0  0  0  0
    7.5330    2.7716    2.2241 H   0  0  0  0  0  0  0  0  0  0  0  0
    6.4788    3.9077    3.1407 H   0  0  0  0  0  0  0  0  0  0  0  0
    5.7970    2.6641    2.1012 H   0  0  0  0  0  0  0  0  0  0  0  0
  1  5  1  0  0  0  0
  1 27  1  0  0  0  0
  1 28  1  0  0  0  0
  1 29  1  0  0  0  0
  2  3  1  0  0  0  0
  2  4  1  0  0  0  0
  2 30  1  0  0  0  0
  2 31  1  0  0  0  0
  3  4  1  0  0  0  0
  3 32  1  0  0  0  0
  3 33  1  0  0  0  0
  4 22  1  0  0  0  0
  4 34  1  0  0  0  0
  5  6  1  0  0  0  0
  5  7  2  0  0  0  0
  6  9  1  0  0  0  0
  7  8  1  0  0  0  0
  8  9  2  0  0  0  0
  9 10  1  0  0  0  0
 10 11  2  0  0  0  0
 10 13  1  0  0  0  0
 11 12  1  0  0  0  0
 11 35  1  0  0  0  0
 12 16  2  0  0  0  0
 12 36  1  0  0  0  0
 13 14  2  0  0  0  0
 13 37  1  0  0  0  0
 14 15  1  0  0  0  0
 14 16  1  0  0  0  0
 15 38  1  0  0  0  0
 15 39  1  0  0  0  0
 15 40  1  0  0  0  0
 16 17  1  0  0  0  0
 17 18  2  0  0  0  0
 17 25  1  0  0  0  0
 18 19  1  0  0  0  0
 18 41  1  0  0  0  0
 19 20  1  0  0  0  0
 19 23  2  0  0  0  0
 20 21  2  0  0  0  0
 20 22  1  0  0  0  0
 22 42  1  0  0  0  0
 23 24  1  0  0  0  0
 23 43  1  0  0  0  0
 24 25  2  0  0  0  0
 24 44  1  0  0  0  0
 25 26  1  0  0  0  0
 26 45  1  0  0  0  0
 26 46  1  0  0  0  0
 26 47  1  0  0  0  0
M  END
>  <DRUGBANK_ID>
DB07811

>  <COMMON_NAME>
N-cyclopropyl-2',6-dimethyl-4'-(5-methyl-1,3,4-oxadiazol-2-yl)biphenyl-3-carboxamide

$$$$
