
 OpenBabel10282417183D

 42 44  0  0  1  0  0  0  0  0999 V2000
   -1.7275   -7.0577    9.4109 C   0  0  0  0  0  0  0  0  0  0  0  0
   -2.0941   -7.4111    8.1092 C   0  0  0  0  0  0  0  0  0  0  0  0
   -1.1143   -7.7384    7.1733 C   0  0  0  0  0  0  0  0  0  0  0  0
    0.2270   -7.7125    7.5444 C   0  0  0  0  0  0  0  0  0  0  0  0
    0.6177   -7.3322    8.8383 C   0  0  0  0  0  0  0  0  0  0  0  0
   -0.3781   -7.0207    9.7804 C   0  0  0  0  0  0  0  0  0  0  0  0
    2.0775   -7.0473    9.1115 C   0  0  0  0  0  0  0  0  0  0  0  0
    2.4202   -5.7075    9.5178 O   0  0  0  0  0  0  0  0  0  0  0  0
    2.1273   -4.6675    8.6788 C   0  0  0  0  0  0  0  0  0  0  0  0
    0.9534   -4.5577    7.9472 C   0  0  0  0  0  0  0  0  0  0  0  0
    0.6169   -3.4242    7.2373 C   0  0  0  0  0  0  0  0  0  0  0  0
    1.4413   -2.3115    7.2636 C   0  0  0  0  0  0  0  0  0  0  0  0
    2.6413   -2.4056    7.9854 C   0  0  0  0  0  0  0  0  0  0  0  0
    2.9912   -3.5789    8.6752 C   0  0  0  0  0  0  0  0  0  0  0  0
    0.9651   -1.1149    6.4767 C   0  0  1  0  0  0  0  0  0  0  0  0
   -0.4059   -0.6054    6.9285 C   0  0  0  0  0  0  0  0  0  0  0  0
   -0.0605    0.2997    8.0904 C   0  0  0  0  0  0  0  0  0  0  0  0
    1.3233    0.8513    7.7515 C   0  0  2  0  0  0  0  0  0  0  0  0
    1.8253    0.0773    6.5778 N   0  0  0  0  0  0  0  0  0  0  0  0
    2.3042    0.7344    8.9338 C   0  0  0  0  0  0  0  0  0  0  0  0
    2.1133    0.0535    9.9445 O   0  0  0  0  0  0  0  0  0  0  0  0
    3.4578    1.4541    8.8351 N   0  0  0  0  0  0  0  0  0  0  0  0
    1.1556   -7.9004    6.5952 F   0  0  0  0  0  0  0  0  0  0  0  0
   -2.4929   -6.7663   10.1274 H   0  0  0  0  0  0  0  0  0  0  0  0
   -3.1416   -7.4066    7.8180 H   0  0  0  0  0  0  0  0  0  0  0  0
   -1.3784   -7.9611    6.1441 H   0  0  0  0  0  0  0  0  0  0  0  0
   -0.1025   -6.6496   10.7666 H   0  0  0  0  0  0  0  0  0  0  0  0
    2.3787   -7.7037    9.9368 H   0  0  0  0  0  0  0  0  0  0  0  0
    2.7131   -7.3181    8.2608 H   0  0  0  0  0  0  0  0  0  0  0  0
    0.1878   -5.3014    7.9180 H   0  0  0  0  0  0  0  0  0  0  0  0
   -0.3296   -3.4241    6.7030 H   0  0  0  0  0  0  0  0  0  0  0  0
    3.3096   -1.5535    8.0589 H   0  0  0  0  0  0  0  0  0  0  0  0
    3.9308   -3.6175    9.2202 H   0  0  0  0  0  0  0  0  0  0  0  0
    0.9081   -1.4419    5.4298 H   0  0  0  0  0  0  0  0  0  0  0  0
   -0.8803   -0.0273    6.1259 H   0  0  0  0  0  0  0  0  0  0  0  0
   -1.1200   -1.3786    7.2331 H   0  0  0  0  0  0  0  0  0  0  0  0
   -0.8033    1.0929    8.2122 H   0  0  0  0  0  0  0  0  0  0  0  0
   -0.0596   -0.2937    9.0117 H   0  0  0  0  0  0  0  0  0  0  0  0
    1.2546    1.9069    7.4652 H   0  0  0  0  0  0  0  0  0  0  0  0
    1.6451    0.6247    5.7362 H   0  0  0  0  0  0  0  0  0  0  0  0
    3.7062    1.9919    8.0180 H   0  0  0  0  0  0  0  0  0  0  0  0
    4.1318    1.3372    9.5802 H   0  0  0  0  0  0  0  0  0  0  0  0
  1  2  2  0  0  0  0
  1  6  1  0  0  0  0
  1 24  1  0  0  0  0
  2  3  1  0  0  0  0
  2 25  1  0  0  0  0
  3  4  2  0  0  0  0
  3 26  1  0  0  0  0
  4  5  1  0  0  0  0
  4 23  1  0  0  0  0
  5  6  2  0  0  0  0
  5  7  1  0  0  0  0
  6 27  1  0  0  0  0
  7  8  1  0  0  0  0
  7 28  1  0  0  0  0
  7 29  1  0  0  0  0
  8  9  1  0  0  0  0
  9 10  2  0  0  0  0
  9 14  1  0  0  0  0
 10 11  1  0  0  0  0
 10 30  1  0  0  0  0
 11 12  2  0  0  0  0
 11 31  1  0  0  0  0
 12 13  1  0  0  0  0
 13 14  2  0  0  0  0
 13 32  1  0  0  0  0
 14 33  1  0  0  0  0
 15 16  1  0  0  0  0
 15 19  1  0  0  0  0
 15 34  1  6  0  0  0
 15 12  1  0  0  0  0
 16 17  1  0  0  0  0
 16 35  1  0  0  0  0
 16 36  1  0  0  0  0
 17 18  1  0  0  0  0
 17 37  1  0  0  0  0
 17 38  1  0  0  0  0
 18 19  1  0  0  0  0
 18 39  1  6  0  0  0
 18 20  1  0  0  0  0
 19 40  1  0  0  0  0
 20 21  2  0  0  0  0
 20 22  1  0  0  0  0
 22 41  1  0  0  0  0
 22 42  1  0  0  0  0
M  END
>  <DRUGBANK_ID>
DB11706

>  <COMMON_NAME>
Vixotrigine

>  <CAS_NUMBER>
934240-30-9

>  <UNII>
QQS4J85K6Y

>  <SYNONYMS>
Raxatrigine; Vixotrigine

$$$$
