
 OpenBabel10282417193D

 61 64  0  0  0  0  0  0  0  0999 V2000
    2.2064    0.0809    0.0268 C   0  0  0  0  0  0  0  0  0  0  0  0
    0.7342    0.1262    0.1459 C   0  0  0  0  0  0  0  0  0  0  0  0
   -0.1878    1.1565    0.1610 C   0  0  0  0  0  0  0  0  0  0  0  0
   -1.4654    0.6325    0.1293 N   0  0  0  0  0  0  0  0  0  0  0  0
   -1.2837   -0.6722    0.1059 C   0  0  0  0  0  0  0  0  0  0  0  0
    0.0387   -1.0560    0.1133 O   0  0  0  0  0  0  0  0  0  0  0  0
   -2.2727   -1.7353    0.0018 C   0  0  0  0  0  0  0  0  0  0  0  0
   -3.1748   -1.7737   -1.0729 C   0  0  0  0  0  0  0  0  0  0  0  0
   -4.1194   -2.8014   -1.1729 C   0  0  0  0  0  0  0  0  0  0  0  0
   -4.1649   -3.8018   -0.2034 C   0  0  0  0  0  0  0  0  0  0  0  0
   -3.2673   -3.7771    0.8628 C   0  0  0  0  0  0  0  0  0  0  0  0
   -2.3522   -2.7280    0.9852 C   0  0  0  0  0  0  0  0  0  0  0  0
    0.0702    2.6175    0.0146 C   0  0  0  0  0  0  0  0  0  0  0  0
   -0.4765    3.2538   -1.1615 O   0  0  0  0  0  0  0  0  0  0  0  0
   -0.0077    2.8335   -2.3771 C   0  0  0  0  0  0  0  0  0  0  0  0
    0.0626    1.4970   -2.7623 C   0  0  0  0  0  0  0  0  0  0  0  0
    0.4883    1.1165   -4.0261 C   0  0  0  0  0  0  0  0  0  0  0  0
    0.7783    2.0879   -4.9753 C   0  0  0  0  0  0  0  0  0  0  0  0
    0.6091    3.4373   -4.6365 C   0  0  0  0  0  0  0  0  0  0  0  0
    0.2633    3.8102   -3.3311 C   0  0  0  0  0  0  0  0  0  0  0  0
    1.2831    1.6706   -6.3318 C   0  0  0  0  0  0  0  0  0  0  0  0
    0.4575    2.1351   -7.4047 O   0  0  0  0  0  0  0  0  0  0  0  0
   -0.8049    1.5349   -7.2982 N   0  0  0  0  0  0  0  0  0  0  0  0
   -1.6394    1.9123   -8.2200 C   0  0  0  0  0  0  0  0  0  0  0  0
   -1.3072    2.9019   -9.3799 C   0  0  0  0  0  0  0  0  0  0  0  0
   -1.3825    2.3662  -10.8171 C   0  0  0  0  0  0  0  0  0  0  0  0
   -2.6512    2.5359  -11.6439 C   0  0  0  0  0  0  0  0  0  0  0  0
   -2.6823    3.0967  -12.7403 O   0  0  0  0  0  0  0  0  0  0  0  0
   -3.7630    1.9563  -11.2149 O   0  0  0  0  0  0  0  0  0  0  0  0
   -3.0350    1.3837   -8.0890 C   0  0  0  0  0  0  0  0  0  0  0  0
   -3.8171    1.5787   -6.9560 C   0  0  0  0  0  0  0  0  0  0  0  0
   -5.1835    1.2397   -6.9773 C   0  0  0  0  0  0  0  0  0  0  0  0
   -5.7875    0.8190   -8.1558 C   0  0  0  0  0  0  0  0  0  0  0  0
   -4.9781    0.5477   -9.2380 C   0  0  0  0  0  0  0  0  0  0  0  0
   -3.5830    0.6427   -9.1132 C   0  0  0  0  0  0  0  0  0  0  0  0
    2.6459   -0.4453    0.8766 H   0  0  0  0  0  0  0  0  0  0  0  0
    2.5192   -0.4136   -0.8991 H   0  0  0  0  0  0  0  0  0  0  0  0
    2.6292    1.0919    0.0063 H   0  0  0  0  0  0  0  0  0  0  0  0
   -3.1474   -1.0003   -1.8385 H   0  0  0  0  0  0  0  0  0  0  0  0
   -4.8136   -2.8255   -2.0097 H   0  0  0  0  0  0  0  0  0  0  0  0
   -4.9046   -4.5960   -0.2723 H   0  0  0  0  0  0  0  0  0  0  0  0
   -3.2788   -4.5752    1.6002 H   0  0  0  0  0  0  0  0  0  0  0  0
   -1.7132   -2.6743    1.8634 H   0  0  0  0  0  0  0  0  0  0  0  0
   -0.3856    3.1161    0.8785 H   0  0  0  0  0  0  0  0  0  0  0  0
    1.1419    2.8418    0.0631 H   0  0  0  0  0  0  0  0  0  0  0  0
   -0.2546    0.6885   -2.1286 H   0  0  0  0  0  0  0  0  0  0  0  0
    0.5435    0.0557   -4.2591 H   0  0  0  0  0  0  0  0  0  0  0  0
    0.7332    4.2003   -5.4003 H   0  0  0  0  0  0  0  0  0  0  0  0
    0.1959    4.8634   -3.0730 H   0  0  0  0  0  0  0  0  0  0  0  0
    2.2860    2.0930   -6.4574 H   0  0  0  0  0  0  0  0  0  0  0  0
    1.3912    0.5799   -6.4015 H   0  0  0  0  0  0  0  0  0  0  0  0
   -1.8835    3.8261   -9.2669 H   0  0  0  0  0  0  0  0  0  0  0  0
   -0.2587    3.2211   -9.2510 H   0  0  0  0  0  0  0  0  0  0  0  0
   -0.6862    2.9957  -11.3918 H   0  0  0  0  0  0  0  0  0  0  0  0
   -0.9663    1.3550  -10.8874 H   0  0  0  0  0  0  0  0  0  0  0  0
   -3.8265    1.0254  -11.5179 H   0  0  0  0  0  0  0  0  0  0  0  0
   -3.3659    1.9698   -6.0502 H   0  0  0  0  0  0  0  0  0  0  0  0
   -5.7903    1.3423   -6.0847 H   0  0  0  0  0  0  0  0  0  0  0  0
   -6.8617    0.6725   -8.2442 H   0  0  0  0  0  0  0  0  0  0  0  0
   -5.4551    0.3526  -10.1973 H   0  0  0  0  0  0  0  0  0  0  0  0
   -2.9154    0.2697   -9.8802 H   0  0  0  0  0  0  0  0  0  0  0  0
  1  2  1  0  0  0  0
  1 36  1  0  0  0  0
  1 37  1  0  0  0  0
  1 38  1  0  0  0  0
  2  3  2  0  0  0  0
  2  6  1  0  0  0  0
  3  4  1  0  0  0  0
  3 13  1  0  0  0  0
  4  5  2  0  0  0  0
  5  6  1  0  0  0  0
  5  7  1  0  0  0  0
  7  8  2  0  0  0  0
  7 12  1  0  0  0  0
  8  9  1  0  0  0  0
  8 39  1  0  0  0  0
  9 10  2  0  0  0  0
  9 40  1  0  0  0  0
 10 11  1  0  0  0  0
 10 41  1  0  0  0  0
 11 12  2  0  0  0  0
 11 42  1  0  0  0  0
 12 43  1  0  0  0  0
 13 14  1  0  0  0  0
 13 44  1  0  0  0  0
 13 45  1  0  0  0  0
 14 15  1  0  0  0  0
 15 16  2  0  0  0  0
 15 20  1  0  0  0  0
 16 17  1  0  0  0  0
 16 46  1  0  0  0  0
 17 18  2  0  0  0  0
 17 47  1  0  0  0  0
 18 19  1  0  0  0  0
 18 21  1  0  0  0  0
 19 20  2  0  0  0  0
 19 48  1  0  0  0  0
 20 49  1  0  0  0  0
 21 22  1  0  0  0  0
 21 50  1  0  0  0  0
 21 51  1  0  0  0  0
 22 23  1  0  0  0  0
 23 24  2  0  0  0  0
 24 25  1  0  0  0  0
 24 30  1  0  0  0  0
 25 26  1  0  0  0  0
 25 52  1  0  0  0  0
 25 53  1  0  0  0  0
 26 27  1  0  0  0  0
 26 54  1  0  0  0  0
 26 55  1  0  0  0  0
 27 28  2  0  0  0  0
 27 29  1  0  0  0  0
 29 56  1  0  0  0  0
 30 31  2  0  0  0  0
 30 35  1  0  0  0  0
 31 32  1  0  0  0  0
 31 57  1  0  0  0  0
 32 33  2  0  0  0  0
 32 58  1  0  0  0  0
 33 34  1  0  0  0  0
 33 59  1  0  0  0  0
 34 35  2  0  0  0  0
 34 60  1  0  0  0  0
 35 61  1  0  0  0  0
M  END
>  <DRUGBANK_ID>
DB12511

>  <COMMON_NAME>
Imiglitazar

>  <CAS_NUMBER>
250601-04-8

>  <UNII>
7244710F59

>  <SYNONYMS>
Imiglitazar

$$$$
