
 OpenBabel10282417143D

 37 39  0  0  0  0  0  0  0  0999 V2000
    2.1351    0.7160   -0.0276 C   0  0  0  0  0  0  0  0  0  0  0  0
    0.9141    1.4111    0.0010 C   0  0  0  0  0  0  0  0  0  0  0  0
   -4.6060   -0.7109    0.8299 C   0  0  0  0  0  0  0  0  0  0  0  0
   -6.6502   -0.1678   -0.3295 C   0  0  0  0  0  0  0  0  0  0  0  0
   -6.8105   -1.4378    1.8466 C   0  0  0  0  0  0  0  0  0  0  0  0
    1.0016   -1.4167    0.0206 C   0  0  0  0  0  0  0  0  0  0  0  0
   -1.5714   -1.1914    0.0020 C   0  0  0  0  0  0  0  0  0  0  0  0
   -6.0046   -0.7636    0.7610 C   0  0  0  0  0  0  0  0  0  0  0  0
    2.1959   -0.6866   -0.0165 C   0  0  0  0  0  0  0  0  0  0  0  0
   -0.2321   -0.7421    0.0190 C   0  0  0  0  0  0  0  0  0  0  0  0
   -3.8521   -0.0526   -0.1573 C   0  0  0  0  0  0  0  0  0  0  0  0
   -5.9139    0.4876   -1.3188 C   0  0  0  0  0  0  0  0  0  0  0  0
   -0.2578    0.6498    0.0132 C   0  0  0  0  0  0  0  0  0  0  0  0
   -2.3955   -0.0876   -0.0536 C   0  0  0  0  0  0  0  0  0  0  0  0
   -7.7623   -0.4634    2.5485 C   0  0  0  0  0  0  0  0  0  0  0  0
   -4.5178    0.5452   -1.2411 C   0  0  0  0  0  0  0  0  0  0  0  0
    3.5181   -1.3976   -0.0597 C   0  0  0  0  0  0  0  0  0  0  0  0
   -6.8571    1.2830   -2.7619 Br  0  0  0  0  0  0  0  0  0  0  0  0
    3.6517   -2.6895   -0.0520 N   0  0  0  0  0  0  0  0  0  0  0  0
    4.6884   -0.7151   -0.1183 N   0  0  0  0  0  0  0  0  0  0  0  0
   -1.5864    1.0256    0.0248 N   0  0  0  0  0  0  0  0  0  0  0  0
   -8.9885   -0.7509    2.4472 O   0  0  0  0  0  0  0  0  0  0  0  0
   -7.2127    0.4974    3.1642 O   0  5  0  0  0  0  0  0  0  0  0  0
   -3.8271    1.1698   -2.2533 O   0  0  0  0  0  0  0  0  0  0  0  0
    3.0396    1.3135   -0.0610 H   0  0  0  0  0  0  0  0  0  0  0  0
    0.8939    2.4966    0.0004 H   0  0  0  0  0  0  0  0  0  0  0  0
   -4.1032   -1.1751    1.6772 H   0  0  0  0  0  0  0  0  0  0  0  0
   -7.7375   -0.2002   -0.3799 H   0  0  0  0  0  0  0  0  0  0  0  0
   -7.3729   -2.2711    1.4061 H   0  0  0  0  0  0  0  0  0  0  0  0
   -6.1551   -1.8775    2.6087 H   0  0  0  0  0  0  0  0  0  0  0  0
    0.9724   -2.4977    0.0323 H   0  0  0  0  0  0  0  0  0  0  0  0
   -1.9067   -2.2203   -0.0145 H   0  0  0  0  0  0  0  0  0  0  0  0
    2.7586   -3.1783   -0.0109 H   0  0  0  0  0  0  0  0  0  0  0  0
    4.7733    0.2863   -0.1103 H   0  0  0  0  0  0  0  0  0  0  0  0
    5.5330   -1.2714   -0.1260 H   0  0  0  0  0  0  0  0  0  0  0  0
   -1.9229    1.9799    0.0543 H   0  0  0  0  0  0  0  0  0  0  0  0
   -2.8837    0.9680   -2.1530 H   0  0  0  0  0  0  0  0  0  0  0  0
  1 25  1  0  0  0  0
  2  1  2  0  0  0  0
  2 26  1  0  0  0  0
  3 27  1  0  0  0  0
  4 28  1  0  0  0  0
  5 29  1  0  0  0  0
  5 30  1  0  0  0  0
  6 31  1  0  0  0  0
  7 32  1  0  0  0  0
  8  3  2  0  0  0  0
  8  4  1  0  0  0  0
  8  5  1  0  0  0  0
  9  1  1  0  0  0  0
  9  6  2  0  0  0  0
 10  6  1  0  0  0  0
 10  7  1  0  0  0  0
 11  3  1  0  0  0  0
 12  4  2  0  0  0  0
 13  2  1  0  0  0  0
 13 10  2  0  0  0  0
 14  7  2  0  0  0  0
 14 11  1  0  0  0  0
 15  5  1  0  0  0  0
 16 11  2  0  0  0  0
 16 12  1  0  0  0  0
 17  9  1  0  0  0  0
 18 12  1  0  0  0  0
 19 17  2  0  0  0  0
 19 33  1  0  0  0  0
 20 17  1  0  0  0  0
 20 34  1  0  0  0  0
 20 35  1  0  0  0  0
 21 13  1  0  0  0  0
 21 14  1  0  0  0  0
 21 36  1  0  0  0  0
 22 15  2  0  0  0  0
 23 15  1  0  0  0  0
 24 16  1  0  0  0  0
 24 37  1  0  0  0  0
M  CHG  1  23  -1
M  END
>  <DRUGBANK_ID>
DB04563

>  <SECONDARY_ACCESSION_NUMBERS>
EXPT00276

>  <COMMON_NAME>
CRA_9678

$$$$
