
 OpenBabel10282417203D

 47 48  0  0  0  0  0  0  0  0999 V2000
    0.8906   -0.0543    0.0577 C   0  0  0  0  0  0  0  0  0  0  0  0
    4.8601   -2.8447    1.6044 C   0  0  0  0  0  0  0  0  0  0  0  0
   -1.9713   -4.5941    3.2332 C   0  0  0  0  0  0  0  0  0  0  0  0
    1.5453  -10.9820    2.9606 C   0  0  0  0  0  0  0  0  0  0  0  0
    2.9147  -11.6213    2.8257 C   0  0  0  0  0  0  0  0  0  0  0  0
    3.8430   -7.1647    3.1308 C   0  0  0  0  0  0  0  0  0  0  0  0
    3.2878   -6.4643    1.8955 C   0  0  0  0  0  0  0  0  0  0  0  0
    1.6597   -9.7935    2.0382 C   0  0  0  0  0  0  0  0  0  0  0  0
    3.8637  -10.4672    2.5295 C   0  0  0  0  0  0  0  0  0  0  0  0
    3.0299   -8.4056    3.4852 C   0  0  0  0  0  0  0  0  0  0  0  0
    2.1188   -2.2215    1.4554 C   0  0  0  0  0  0  0  0  0  0  0  0
   -0.1570   -2.7625    2.0501 C   0  0  0  0  0  0  0  0  0  0  0  0
    0.7770   -1.8677    1.5355 C   0  0  0  0  0  0  0  0  0  0  0  0
    1.8985   -5.9183    2.1739 C   0  0  0  0  0  0  0  0  0  0  0  0
    2.5414   -3.4877    1.8359 C   0  0  0  0  0  0  0  0  0  0  0  0
    0.2287   -4.0593    2.3847 C   0  0  0  0  0  0  0  0  0  0  0  0
    1.5782   -4.4570    2.1750 C   0  0  0  0  0  0  0  0  0  0  0  0
    3.0162   -9.2907    2.3093 N   0  0  0  0  0  0  0  0  0  0  0  0
    0.9680   -6.7227    2.3153 O   0  0  0  0  0  0  0  0  0  0  0  0
    0.3290   -0.6092    1.2450 O   0  0  0  0  0  0  0  0  0  0  0  0
    3.8648   -3.7887    1.9713 O   0  0  0  0  0  0  0  0  0  0  0  0
   -0.6327   -4.9668    2.9482 O   0  0  0  0  0  0  0  0  0  0  0  0
    0.5134    0.9662   -0.0376 H   0  0  0  0  0  0  0  0  0  0  0  0
    0.5699   -0.6325   -0.8144 H   0  0  0  0  0  0  0  0  0  0  0  0
    1.9821    0.0179    0.0858 H   0  0  0  0  0  0  0  0  0  0  0  0
    4.7750   -2.5687    0.5488 H   0  0  0  0  0  0  0  0  0  0  0  0
    4.8219   -1.9676    2.2566 H   0  0  0  0  0  0  0  0  0  0  0  0
    5.8351   -3.3227    1.7427 H   0  0  0  0  0  0  0  0  0  0  0  0
   -2.0070   -3.7619    3.9429 H   0  0  0  0  0  0  0  0  0  0  0  0
   -2.5154   -4.3615    2.3134 H   0  0  0  0  0  0  0  0  0  0  0  0
   -2.4689   -5.4493    3.7046 H   0  0  0  0  0  0  0  0  0  0  0  0
    1.3774  -10.6446    3.9914 H   0  0  0  0  0  0  0  0  0  0  0  0
    0.7304  -11.6532    2.6817 H   0  0  0  0  0  0  0  0  0  0  0  0
    3.1976  -12.1668    3.7288 H   0  0  0  0  0  0  0  0  0  0  0  0
    2.9132  -12.3161    1.9788 H   0  0  0  0  0  0  0  0  0  0  0  0
    4.8878   -7.4432    2.9442 H   0  0  0  0  0  0  0  0  0  0  0  0
    3.8443   -6.4763    3.9848 H   0  0  0  0  0  0  0  0  0  0  0  0
    3.2046   -7.1298    1.0286 H   0  0  0  0  0  0  0  0  0  0  0  0
    4.0211   -5.7485    1.5556 H   0  0  0  0  0  0  0  0  0  0  0  0
    1.5857  -10.1018    0.9873 H   0  0  0  0  0  0  0  0  0  0  0  0
    0.8586   -9.0687    2.2021 H   0  0  0  0  0  0  0  0  0  0  0  0
    4.5868  -10.3223    3.3408 H   0  0  0  0  0  0  0  0  0  0  0  0
    4.4555  -10.6726    1.6304 H   0  0  0  0  0  0  0  0  0  0  0  0
    3.4451   -8.8838    4.3788 H   0  0  0  0  0  0  0  0  0  0  0  0
    2.0232   -8.1063    3.7935 H   0  0  0  0  0  0  0  0  0  0  0  0
    2.8458   -1.4941    1.1266 H   0  0  0  0  0  0  0  0  0  0  0  0
   -1.1840   -2.4323    2.1562 H   0  0  0  0  0  0  0  0  0  0  0  0
  1 23  1  0  0  0  0
  1 24  1  0  0  0  0
  1 25  1  0  0  0  0
  2 26  1  0  0  0  0
  2 27  1  0  0  0  0
  2 28  1  0  0  0  0
  3 29  1  0  0  0  0
  3 30  1  0  0  0  0
  3 31  1  0  0  0  0
  4 32  1  0  0  0  0
  4 33  1  0  0  0  0
  5  4  1  0  0  0  0
  5 34  1  0  0  0  0
  5 35  1  0  0  0  0
  6 36  1  0  0  0  0
  6 37  1  0  0  0  0
  7  6  1  0  0  0  0
  7 38  1  0  0  0  0
  7 39  1  0  0  0  0
  8  4  1  0  0  0  0
  8 40  1  0  0  0  0
  8 41  1  0  0  0  0
  9  5  1  0  0  0  0
  9 42  1  0  0  0  0
  9 43  1  0  0  0  0
 10  6  1  0  0  0  0
 10 44  1  0  0  0  0
 10 45  1  0  0  0  0
 11 46  1  0  0  0  0
 12 47  1  0  0  0  0
 13 11  2  0  0  0  0
 13 12  1  0  0  0  0
 14  7  1  0  0  0  0
 15 11  1  0  0  0  0
 16 12  2  0  0  0  0
 17 14  1  0  0  0  0
 17 15  2  0  0  0  0
 17 16  1  0  0  0  0
 18  8  1  0  0  0  0
 18  9  1  0  0  0  0
 18 10  1  0  0  0  0
 19 14  2  0  0  0  0
 20  1  1  0  0  0  0
 20 13  1  0  0  0  0
 21  2  1  0  0  0  0
 21 15  1  0  0  0  0
 22  3  1  0  0  0  0
 22 16  1  0  0  0  0
M  END
>  <DRUGBANK_ID>
DB13510

>  <COMMON_NAME>
Buflomedil

>  <CAS_NUMBER>
55837-25-7

>  <UNII>
V7I71DQ432

>  <SYNONYMS>
Buflomedil

$$$$
