
 OpenBabel10282417123D

 77 78  0  0  0  0  0  0  0  0999 V2000
    0.4562   -1.3188    0.0925 C   0  0  1  0  0  0  0  0  0  0  0  0
   -2.0840    1.1434    1.4660 C   0  0  2  0  0  0  0  0  0  0  0  0
   -0.8936   -0.8083   -0.3520 C   0  0  2  0  0  0  0  0  0  0  0  0
   -1.5379   -0.6678    2.2096 C   0  0  2  0  0  0  0  0  0  0  0  0
   -0.8257    2.2211    0.9922 C   0  0  1  0  0  0  0  0  0  0  0  0
   -0.6683    0.5610   -0.5260 C   0  0  1  0  0  0  0  0  0  0  0  0
   -0.0912   -0.9043    2.5069 C   0  0  1  0  0  0  0  0  0  0  0  0
   -5.1863    0.5463    2.8744 S   0  0  0  0  0  0  0  0  0  0  0  0
   -2.4305    1.9624   -2.6309 S   0  0  0  0  0  0  0  0  0  0  0  0
   -3.0230   -2.7372   -0.2286 S   0  0  0  0  0  0  0  0  0  0  0  0
   -3.7917   -0.3899    0.7753 S   0  0  0  0  0  0  0  0  0  0  0  0
    0.5017    1.4536   -2.5452 S   0  0  0  0  0  0  0  0  0  0  0  0
   -0.9394   -1.9755   -3.3545 S   0  0  0  0  0  0  0  0  0  0  0  0
    3.0542    3.5654   -1.4594 S   0  0  0  0  0  0  0  0  0  0  0  0
    3.7327    0.1774    1.0649 S   0  0  0  0  0  0  0  0  0  0  0  0
    1.3815   -0.2049   -0.1617 O   0  0  0  0  0  0  0  0  0  0  0  0
    0.5195   -1.6970    1.4805 O   0  0  0  0  0  0  0  0  0  0  0  0
    0.7483    1.0343   -0.1937 C   0  0  2  0  0  0  0  0  0  0  0  0
    0.5730    1.5192    2.2256 C   0  0  2  0  0  0  0  0  0  0  0  0
    0.3923    0.3825    3.1011 O   0  0  0  0  0  0  0  0  0  0  0  0
   -3.8268    1.6868    1.7551 O   0  0  0  0  0  0  0  0  0  0  0  0
    0.7957   -2.4744   -0.9754 C   0  0  0  0  0  0  0  0  0  0  0  0
   -2.1044   -0.9330    0.3268 O   0  0  0  0  0  0  0  0  0  0  0  0
   -2.4513   -2.2099    1.6877 O   0  0  0  0  0  0  0  0  0  0  0  0
   -0.3636    2.5921   -0.8921 O   0  0  0  0  0  0  0  0  0  0  0  0
   -1.9479    1.3610   -1.1262 O   0  0  0  0  0  0  0  0  0  0  0  0
    0.5149   -2.2582   -2.4486 O   0  0  0  0  0  0  0  0  0  0  0  0
    2.1971    2.3282    2.4357 C   0  0  0  0  0  0  0  0  0  0  0  0
    1.2674    2.5874    0.2663 C   0  0  0  0  0  0  0  0  0  0  0  0
    1.8733    3.6306   -0.3914 O   0  0  0  0  0  0  0  0  0  0  0  0
    3.3883    1.7820    1.4595 O   0  0  0  0  0  0  0  0  0  0  0  0
   -1.3355    3.0855   -3.0096 O   0  0  0  0  0  0  0  0  0  0  0  0
   -3.2321    0.0529    2.5689 O   0  0  0  0  0  0  0  0  0  0  0  0
   -4.7575   -1.3011    2.9671 O   0  0  0  0  0  0  0  0  0  0  0  0
   -3.3506   -1.2649   -1.2906 O   0  0  0  0  0  0  0  0  0  0  0  0
    1.9115    0.5671   -2.2648 O   0  0  0  0  0  0  0  0  0  0  0  0
   -1.8355   -3.2908   -3.4249 O   0  0  0  0  0  0  0  0  0  0  0  0
    4.2746    2.8761   -0.6982 O   0  0  0  0  0  0  0  0  0  0  0  0
    4.6004   -0.0362    2.3393 O   0  0  0  0  0  0  0  0  0  0  0  0
   -2.3733    0.9352   -3.6250 O   0  0  0  0  0  0  0  0  0  0  0  0
   -3.6264    2.7494   -2.4856 O   0  0  0  0  0  0  0  0  0  0  0  0
   -4.6225    0.8800    4.2438 O   0  0  0  0  0  0  0  0  0  0  0  0
   -6.4739    0.6955    2.4000 O   0  0  0  0  0  0  0  0  0  0  0  0
   -1.8795   -3.4387   -0.7841 O   0  0  0  0  0  0  0  0  0  0  0  0
   -4.3204   -3.3438   -0.2697 O   0  0  0  0  0  0  0  0  0  0  0  0
   -0.2534    0.2524   -2.5967 O   0  0  0  0  0  0  0  0  0  0  0  0
    0.6848    2.1376   -3.7735 O   0  0  0  0  0  0  0  0  0  0  0  0
   -4.2566    0.6024   -0.1784 O   0  0  0  0  0  0  0  0  0  0  0  0
   -4.7867   -1.4190    0.8911 O   0  0  0  0  0  0  0  0  0  0  0  0
    2.6985    2.5999   -2.4359 O   0  0  0  0  0  0  0  0  0  0  0  0
    3.3378    4.9112   -1.8346 O   0  0  0  0  0  0  0  0  0  0  0  0
   -1.8695   -1.1448   -2.6766 O   0  0  0  0  0  0  0  0  0  0  0  0
    2.7475   -0.8233    1.3084 O   0  0  0  0  0  0  0  0  0  0  0  0
    4.5542    0.1458   -0.1228 O   0  0  0  0  0  0  0  0  0  0  0  0
   -0.6142   -1.5372   -4.6921 O   0  0  0  0  0  0  0  0  0  0  0  0
   -2.3460    0.9059    0.4823 H   0  0  0  0  0  0  0  0  0  0  0  0
   -0.9561   -1.4194   -1.1490 H   0  0  0  0  0  0  0  0  0  0  0  0
   -1.7858   -0.5994    3.3098 H   0  0  0  0  0  0  0  0  0  0  0  0
   -1.2312    3.1501    1.4301 H   0  0  0  0  0  0  0  0  0  0  0  0
   -0.6290    0.4830    0.5520 H   0  0  0  0  0  0  0  0  0  0  0  0
   -0.0169   -1.5471    3.3988 H   0  0  0  0  0  0  0  0  0  0  0  0
    1.3538    1.5079   -0.8626 H   0  0  0  0  0  0  0  0  0  0  0  0
    1.0547    0.7824    1.6524 H   0  0  0  0  0  0  0  0  0  0  0  0
    1.8753   -2.6702   -0.8614 H   0  0  0  0  0  0  0  0  0  0  0  0
    0.3043   -3.3997   -0.6937 H   0  0  0  0  0  0  0  0  0  0  0  0
    2.1211    3.4398    2.1775 H   0  0  0  0  0  0  0  0  0  0  0  0
    2.6552    2.2082    3.3884 H   0  0  0  0  0  0  0  0  0  0  0  0
    0.7379    3.1769    1.0317 H   0  0  0  0  0  0  0  0  0  0  0  0
    1.9829    1.9703    0.6060 H   0  0  0  0  0  0  0  0  0  0  0  0
   -0.7906    3.3661   -2.2474 H   0  0  0  0  0  0  0  0  0  0  0  0
   -2.7440    0.8586    3.0840 H   0  0  0  0  0  0  0  0  0  0  0  0
   -4.8123   -1.9247    2.1413 H   0  0  0  0  0  0  0  0  0  0  0  0
   -3.4642   -0.2164   -1.2176 H   0  0  0  0  0  0  0  0  0  0  0  0
    2.6073    0.9467   -1.6844 H   0  0  0  0  0  0  0  0  0  0  0  0
   -1.3919   -4.0328   -3.0156 H   0  0  0  0  0  0  0  0  0  0  0  0
    4.2102    2.9018    0.2682 H   0  0  0  0  0  0  0  0  0  0  0  0
    5.0030    0.8322    2.4362 H   0  0  0  0  0  0  0  0  0  0  0  0
  1 17  1  1  0  0  0
  1 22  1  0  0  0  0
  2  4  1  0  0  0  0
  2 56  1  6  0  0  0
  2 21  1  0  0  0  0
  3  1  1  0  0  0  0
  3 57  1  6  0  0  0
  3 23  1  0  0  0  0
  4  7  1  0  0  0  0
  4 58  1  1  0  0  0
  4 24  1  0  0  0  0
  5 19  1  0  0  0  0
  5 25  1  0  0  0  0
  5  2  1  0  0  0  0
  5 59  1  1  0  0  0
  6  3  1  0  0  0  0
  6 26  1  0  0  0  0
  6 60  1  1  0  0  0
  7 17  1  0  0  0  0
  7 61  1  1  0  0  0
  8 21  1  0  0  0  0
  9 26  1  0  0  0  0
 10 24  1  0  0  0  0
 11 23  1  0  0  0  0
 12 25  1  0  0  0  0
 13 27  1  0  0  0  0
 14 30  1  0  0  0  0
 15 31  1  0  0  0  0
 16  1  1  0  0  0  0
 18 16  1  0  0  0  0
 18  6  1  0  0  0  0
 18 62  1  6  0  0  0
 18 29  1  0  0  0  0
 19 20  1  0  0  0  0
 19 63  1  6  0  0  0
 19 28  1  0  0  0  0
 20  7  1  0  0  0  0
 22 64  1  0  0  0  0
 22 65  1  0  0  0  0
 27 22  1  0  0  0  0
 28 66  1  0  0  0  0
 28 67  1  0  0  0  0
 29 68  1  0  0  0  0
 29 69  1  0  0  0  0
 30 29  1  0  0  0  0
 31 28  1  0  0  0  0
 32  9  1  0  0  0  0
 32 70  1  0  0  0  0
 33 11  1  0  0  0  0
 33 71  1  0  0  0  0
 34  8  1  0  0  0  0
 34 72  1  0  0  0  0
 35 10  1  0  0  0  0
 35 73  1  0  0  0  0
 36 12  1  0  0  0  0
 36 74  1  0  0  0  0
 37 13  1  0  0  0  0
 37 75  1  0  0  0  0
 38 14  1  0  0  0  0
 38 76  1  0  0  0  0
 39 15  1  0  0  0  0
 39 77  1  0  0  0  0
 40  9  2  0  0  0  0
 41  9  2  0  0  0  0
 42  8  2  0  0  0  0
 43  8  2  0  0  0  0
 44 10  2  0  0  0  0
 45 10  2  0  0  0  0
 46 12  2  0  0  0  0
 47 12  2  0  0  0  0
 48 11  2  0  0  0  0
 49 11  2  0  0  0  0
 50 14  2  0  0  0  0
 51 14  2  0  0  0  0
 52 13  2  0  0  0  0
 53 15  2  0  0  0  0
 54 15  2  0  0  0  0
 55 13  2  0  0  0  0
M  END
>  <DRUGBANK_ID>
DB01901

>  <SECONDARY_ACCESSION_NUMBERS>
EXPT02871

>  <COMMON_NAME>
Sucrosofate

>  <CAS_NUMBER>
57680-56-5

>  <UNII>
P7V86EYZ5L

>  <SYNONYMS>
Sucrose octasulfate; Sucrosofate

$$$$
