
 OpenBabel10282417123D

 70 78  0  0  0  0  0  0  0  0999 V2000
    0.7558    1.5787   14.8401 N   0  0  0  0  0  0  0  0  0  0  0  0
   -0.5586    1.3040   14.4568 C   0  0  0  0  0  0  0  0  0  0  0  0
   -1.3471    2.3257   13.9321 N   0  0  0  0  0  0  0  0  0  0  0  0
   -0.8385    3.6079   13.7999 C   0  0  0  0  0  0  0  0  0  0  0  0
    0.4587    3.8742   14.1835 C   0  0  0  0  0  0  0  0  0  0  0  0
    1.2512    2.8555   14.7022 C   0  0  0  0  0  0  0  0  0  0  0  0
   -1.7457    4.6640   13.2234 N   0  0  0  0  0  0  0  0  0  0  0  0
   -1.2108    6.0600   13.5343 C   0  0  3  0  0  0  0  0  0  0  0  0
    0.2617    6.1186   13.1125 C   0  0  3  0  0  0  0  0  0  0  0  0
    1.0711    5.2458   14.0700 N   0  0  0  0  0  0  0  0  0  0  0  0
    4.0469    2.1741    8.3340 O   0  0  0  0  0  0  0  0  0  0  0  0
    4.0934    3.5818    8.5148 C   0  0  3  0  0  0  0  0  0  0  0  0
    4.6439    4.2402    7.2482 C   0  0  0  0  0  0  0  0  0  0  0  0
    4.4753    3.3550    6.1395 O   0  0  0  0  0  0  0  0  0  0  0  0
   -1.1059   -0.0522   14.6058 N   0  0  0  0  0  0  0  0  0  0  0  0
    2.4467    3.1065   15.0528 O   0  0  0  0  0  0  0  0  0  0  0  0
    4.9281    3.8907    4.8942 P   0  0  3  0  0  0  0  0  0  0  0  0
    5.0279    2.2913    4.2424 O   0  5  0  0  0  0  0  0  0  0  0  0
    3.6140    4.6991    4.7641 O   0  0  0  0  0  0  0  0  0  0  0  0
    2.6836    4.1064    8.7919 C   0  0  0  0  0  0  0  0  0  0  0  0
    1.7289    3.0827    8.5010 S   0  0  0  0  0  0  0  0  0  0  0  0
    0.4179    5.6149   11.6869 C   0  0  0  0  0  0  0  0  0  0  0  0
    0.3702    3.4906    8.6684 W   0  0  3  0  0  0  0  0  0  0  0  0
   -0.0851    3.9288   11.2625 S   0  0  0  0  0  0  0  0  0  0  0  0
   -2.5224    3.8416    4.8239 S   0  0  0  0  0  0  0  0  0  0  0  0
   -0.5607    2.3726    8.1934 S   0  0  0  0  0  0  0  0  0  0  0  0
   -7.0206    1.1900    6.4254 N   0  0  0  0  0  0  0  0  0  0  0  0
   -6.4480    1.5724    7.6403 C   0  0  0  0  0  0  0  0  0  0  0  0
   -5.0609    1.5863    7.7699 N   0  0  0  0  0  0  0  0  0  0  0  0
   -4.2526    1.2141    6.7077 C   0  0  0  0  0  0  0  0  0  0  0  0
   -4.8234    0.8339    5.5118 C   0  0  0  0  0  0  0  0  0  0  0  0
   -6.2078    0.8245    5.3763 C   0  0  0  0  0  0  0  0  0  0  0  0
   -2.7608    1.2540    6.9168 N   0  0  0  0  0  0  0  0  0  0  0  0
   -2.0459    0.4334    5.8458 C   0  0  3  0  0  0  0  0  0  0  0  0
   -2.5564    0.8821    4.4719 C   0  0  3  0  0  0  0  0  0  0  0  0
   -4.0027    0.4144    4.3202 N   0  0  0  0  0  0  0  0  0  0  0  0
   -0.6451    0.6500    5.9316 O   0  0  0  0  0  0  0  0  0  0  0  0
   -0.3682    2.0316    5.7554 C   0  0  3  0  0  0  0  0  0  0  0  0
   -0.9894    2.6451    6.7752 C   0  0  0  0  0  0  0  0  0  0  0  0
   -2.0068    3.5136    6.5276 C   0  0  0  0  0  0  0  0  0  0  0  0
   -0.8364    2.3431    4.4161 C   0  0  0  0  0  0  0  0  0  0  0  0
   -7.3019    1.9572    8.7733 N   0  0  0  0  0  0  0  0  0  0  0  0
   -6.7283    0.4743    4.2711 O   0  0  0  0  0  0  0  0  0  0  0  0
    1.0725    2.5108    2.8126 P   0  0  3  0  0  0  0  0  0  0  0  0
    2.3460    2.2483    3.4574 O   0  0  0  0  0  0  0  0  0  0  0  0
    1.7649    3.8714    1.9988 O   0  5  0  0  0  0  0  0  0  0  0  0
    0.0059    1.5792    3.3915 O   0  0  0  0  0  0  0  0  0  0  0  0
    4.7156    2.8569    3.7864 O   0  0  0  0  0  0  0  0  0  0  0  0
    1.1169    1.1101    2.1544 O   0  0  0  0  0  0  0  0  0  0  0  0
    3.3642    3.0695    3.1544 Mg  0  0  0  0  0  0  0  0  0  0  0  0
    1.3451    0.8378   15.2199 H   0  0  0  0  0  0  0  0  0  0  0  0
   -2.5990    4.4728   12.6983 H   0  0  0  0  0  0  0  0  0  0  0  0
   -1.7718    6.7913   12.9907 H   0  0  0  0  0  0  0  0  0  0  0  0
    0.6117    7.1286   13.1604 H   0  0  0  0  0  0  0  0  0  0  0  0
    1.9101    5.5497   14.5640 H   0  0  0  0  0  0  0  0  0  0  0  0
    4.7296    3.8147    9.3430 H   0  0  0  0  0  0  0  0  0  0  0  0
    4.1149    5.1512    7.0610 H   0  0  0  0  0  0  0  0  0  0  0  0
    5.6843    4.4526    7.3800 H   0  0  0  0  0  0  0  0  0  0  0  0
   -2.0665   -0.2482   14.3245 H   0  0  0  0  0  0  0  0  0  0  0  0
   -0.5250   -0.7971   14.9904 H   0  0  0  0  0  0  0  0  0  0  0  0
   -8.0346    1.1816    6.3160 H   0  0  0  0  0  0  0  0  0  0  0  0
   -2.2934    1.7592    7.6695 H   0  0  0  0  0  0  0  0  0  0  0  0
   -2.2423   -0.6087    5.9886 H   0  0  0  0  0  0  0  0  0  0  0  0
   -1.9532    0.4474    3.7024 H   0  0  0  0  0  0  0  0  0  0  0  0
   -4.3629   -0.1093    3.5225 H   0  0  0  0  0  0  0  0  0  0  0  0
    0.6682    2.2930    5.8043 H   0  0  0  0  0  0  0  0  0  0  0  0
   -0.7441    3.3947    4.2413 H   0  0  0  0  0  0  0  0  0  0  0  0
   -1.8624    2.0548    4.3207 H   0  0  0  0  0  0  0  0  0  0  0  0
   -6.8794    2.2358    9.6588 H   0  0  0  0  0  0  0  0  0  0  0  0
   -8.3170    1.9455    8.6739 H   0  0  0  0  0  0  0  0  0  0  0  0
  1  6  1  0  0  0  0
  1 51  1  0  0  0  0
  2  1  1  0  0  0  0
  3  2  2  0  0  0  0
  4  3  1  0  0  0  0
  5  4  2  0  0  0  0
  5  6  1  0  0  0  0
  5 10  1  0  0  0  0
  7  4  1  0  0  0  0
  7 52  1  0  0  0  0
  8  7  1  0  0  0  0
  8  9  1  0  0  0  0
  8 53  1  0  0  0  0
  9 54  1  0  0  0  0
 10  9  1  0  0  0  0
 10 55  1  0  0  0  0
 11  8  1  0  0  0  0
 12 11  1  0  0  0  0
 12 13  1  0  0  0  0
 12 20  1  0  0  0  0
 12 56  1  0  0  0  0
 13 57  1  0  0  0  0
 13 58  1  0  0  0  0
 14 13  1  0  0  0  0
 15  2  1  0  0  0  0
 15 59  1  0  0  0  0
 15 60  1  0  0  0  0
 16  6  2  0  0  0  0
 17 14  1  0  0  0  0
 18 17  1  0  0  0  0
 19 17  2  0  0  0  0
 21 20  1  0  0  0  0
 22  9  1  0  0  0  0
 22 20  2  0  0  0  0
 22 24  1  0  0  0  0
 23 21  1  0  0  0  0
 23 25  1  0  0  0  0
 23 26  1  0  0  0  0
 24 23  1  0  0  0  0
 26 39  1  0  0  0  0
 27 28  1  0  0  0  0
 27 61  1  0  0  0  0
 28 29  2  0  0  0  0
 28 42  1  0  0  0  0
 29 30  1  0  0  0  0
 30 31  2  0  0  0  0
 30 33  1  0  0  0  0
 31 32  1  0  0  0  0
 32 27  1  0  0  0  0
 32 43  2  0  0  0  0
 33 34  1  0  0  0  0
 33 62  1  0  0  0  0
 34 35  1  0  0  0  0
 34 37  1  0  0  0  0
 34 63  1  0  0  0  0
 35 36  1  0  0  0  0
 35 64  1  0  0  0  0
 36 31  1  0  0  0  0
 36 65  1  0  0  0  0
 37 38  1  0  0  0  0
 38 39  1  0  0  0  0
 38 41  1  0  0  0  0
 38 66  1  0  0  0  0
 39 40  2  0  0  0  0
 40 35  1  0  0  0  0
 40 25  1  0  0  0  0
 41 47  1  0  0  0  0
 41 67  1  0  0  0  0
 41 68  1  0  0  0  0
 42 69  1  0  0  0  0
 42 70  1  0  0  0  0
 44 47  1  0  0  0  0
 44 45  1  0  0  0  0
 44 46  1  0  0  0  0
 45 50  1  0  0  0  0
 48 17  1  0  0  0  0
 48 50  1  0  0  0  0
 49 44  2  0  0  0  0
M  CHG  2  18  -1  46  -1
M  END
>  <DRUGBANK_ID>
DB01794

>  <SECONDARY_ACCESSION_NUMBERS>
EXPT02688

>  <COMMON_NAME>
bis(molybdopterin)tungsten cofactor

>  <SYNONYMS>
Tungstopterin; W-molybdopterin cofactor

$$$$
