357
 OpenBabel10282417163D

 52 53  0  0  0  0  0  0  0  0999 V2000
    1.0760    0.3628   -0.2479 C   0  0  0  0  0  0  0  0  0  0  0  0
    1.0926   -1.1695   -0.4560 C   0  0  0  0  0  0  0  0  0  0  0  0
   -0.1638   -1.7399   -0.4394 C   0  0  0  0  0  0  0  0  0  0  0  0
   -1.4324   -0.9524   -0.2199 C   0  0  0  0  0  0  0  0  0  0  0  0
    2.0905    1.0761   -0.0904 O   0  0  0  0  0  0  0  0  0  0  0  0
   -2.7789   -1.6686    0.0664 C   0  0  0  0  0  0  0  0  0  0  0  0
   -3.3335   -2.5003   -1.0638 C   0  0  0  0  0  0  0  0  0  0  0  0
   -0.7177   -3.8677   -1.7247 C   0  0  0  0  0  0  0  0  0  0  0  0
   -0.3991   -3.2391   -0.4173 C   0  0  0  0  0  0  0  0  0  0  0  0
   -1.3517    0.3855   -0.1377 C   0  0  0  0  0  0  0  0  0  0  0  0
   -2.5178    1.3217   -0.0280 C   0  0  0  0  0  0  0  0  0  0  0  0
   -0.1236    0.9917   -0.1388 N   0  0  0  0  0  0  0  0  0  0  0  0
    2.3424   -1.8956   -0.2888 N   0  0  0  0  0  0  0  0  0  0  0  0
    3.6714   -1.2762   -0.1631 C   0  0  0  0  0  0  0  0  0  0  0  0
    2.4345   -3.3552    0.0000 C   0  0  0  0  0  0  0  0  0  0  0  0
    1.9219   -3.8718    1.4418 C   0  0  0  0  0  0  0  0  0  0  0  0
    0.6701   -3.4921    2.0665 O   0  0  0  0  0  0  0  0  0  0  0  0
    0.5047   -2.1072    2.2944 C   0  0  0  0  0  0  0  0  0  0  0  0
   -1.0292   -3.0385   -2.7991 C   0  0  0  0  0  0  0  0  0  0  0  0
   -1.8939   -3.5080   -3.7528 C   0  0  0  0  0  0  0  0  0  0  0  0
   -2.2364   -4.8537   -3.7538 C   0  0  0  0  0  0  0  0  0  0  0  0
   -1.7392   -5.7381   -2.7834 C   0  0  0  0  0  0  0  0  0  0  0  0
   -2.0246   -7.1979   -2.8479 C   0  0  0  0  0  0  0  0  0  0  0  0
   -1.0037   -5.2362   -1.7263 C   0  0  0  0  0  0  0  0  0  0  0  0
   -2.6872   -2.2778    0.9735 H   0  0  0  0  0  0  0  0  0  0  0  0
   -3.5854   -0.9818    0.3116 H   0  0  0  0  0  0  0  0  0  0  0  0
   -2.8498   -3.4658   -1.0371 H   0  0  0  0  0  0  0  0  0  0  0  0
   -4.3792   -2.7870   -0.9804 H   0  0  0  0  0  0  0  0  0  0  0  0
   -3.1972   -1.9714   -2.0092 H   0  0  0  0  0  0  0  0  0  0  0  0
   -1.1354   -3.5069    0.3500 H   0  0  0  0  0  0  0  0  0  0  0  0
    0.3970   -3.8626   -0.1077 H   0  0  0  0  0  0  0  0  0  0  0  0
   -2.4775    1.9139    0.8896 H   0  0  0  0  0  0  0  0  0  0  0  0
   -2.5109    1.9812   -0.8997 H   0  0  0  0  0  0  0  0  0  0  0  0
   -3.4893    0.8315   -0.0520 H   0  0  0  0  0  0  0  0  0  0  0  0
   -0.0509    1.9829    0.0585 H   0  0  0  0  0  0  0  0  0  0  0  0
    4.1607   -1.6384    0.7510 H   0  0  0  0  0  0  0  0  0  0  0  0
    4.2926   -1.5670   -1.0170 H   0  0  0  0  0  0  0  0  0  0  0  0
    3.7104   -0.1963   -0.1052 H   0  0  0  0  0  0  0  0  0  0  0  0
    2.0234   -3.8873   -0.8717 H   0  0  0  0  0  0  0  0  0  0  0  0
    3.4776   -3.6947   -0.0615 H   0  0  0  0  0  0  0  0  0  0  0  0
    1.8082   -4.9610    1.3223 H   0  0  0  0  0  0  0  0  0  0  0  0
    2.6912   -3.6975    2.1881 H   0  0  0  0  0  0  0  0  0  0  0  0
    0.9282   -1.7047    3.2047 H   0  0  0  0  0  0  0  0  0  0  0  0
    1.0899   -1.5914    1.5804 H   0  0  0  0  0  0  0  0  0  0  0  0
   -0.5487   -1.8195    2.1770 H   0  0  0  0  0  0  0  0  0  0  0  0
   -0.8627   -1.9661   -2.7362 H   0  0  0  0  0  0  0  0  0  0  0  0
   -2.3854   -2.7810   -4.3892 H   0  0  0  0  0  0  0  0  0  0  0  0
   -2.9243   -5.1998   -4.5133 H   0  0  0  0  0  0  0  0  0  0  0  0
   -1.0718   -7.7360   -2.8718 H   0  0  0  0  0  0  0  0  0  0  0  0
   -2.6114   -7.5307   -1.9864 H   0  0  0  0  0  0  0  0  0  0  0  0
   -2.5724   -7.4278   -3.7637 H   0  0  0  0  0  0  0  0  0  0  0  0
   -0.7622   -5.8613   -0.8623 H   0  0  0  0  0  0  0  0  0  0  0  0
  1  2  1  0  0  0  0
  1  5  2  0  0  0  0
  1 12  1  0  0  0  0
  2  3  2  0  0  0  0
  2 13  1  0  0  0  0
  3  4  1  0  0  0  0
  3  9  1  0  0  0  0
  4  6  1  0  0  0  0
  4 10  2  0  0  0  0
  6  7  1  0  0  0  0
  6 25  1  0  0  0  0
  6 26  1  0  0  0  0
  7 27  1  0  0  0  0
  7 28  1  0  0  0  0
  7 29  1  0  0  0  0
  8  9  1  0  0  0  0
  8 19  2  0  0  0  0
  8 24  1  0  0  0  0
  9 30  1  0  0  0  0
  9 31  1  0  0  0  0
 10 11  1  0  0  0  0
 10 12  1  0  0  0  0
 11 32  1  0  0  0  0
 11 33  1  0  0  0  0
 11 34  1  0  0  0  0
 12 35  1  0  0  0  0
 13 14  1  0  0  0  0
 13 15  1  0  0  0  0
 14 36  1  0  0  0  0
 14 37  1  0  0  0  0
 14 38  1  0  0  0  0
 15 16  1  0  0  0  0
 15 39  1  0  0  0  0
 15 40  1  0  0  0  0
 16 17  1  0  0  0  0
 16 41  1  0  0  0  0
 16 42  1  0  0  0  0
 17 18  1  0  0  0  0
 18 43  1  0  0  0  0
 18 44  1  0  0  0  0
 18 45  1  0  0  0  0
 19 20  1  0  0  0  0
 19 46  1  0  0  0  0
 20 21  2  0  0  0  0
 20 47  1  0  0  0  0
 21 22  1  0  0  0  0
 21 48  1  0  0  0  0
 22 23  1  0  0  0  0
 22 24  2  0  0  0  0
 23 49  1  0  0  0  0
 23 50  1  0  0  0  0
 23 51  1  0  0  0  0
 24 52  1  0  0  0  0
M  END
>  <DRUGBANK_ID>
DB07018

>  <COMMON_NAME>
5-ETHYL-3-[(2-METHOXYETHYL)METHYLAMINO]-6-METHYL-4-(3-METHYLBENZYL)PYRIDIN-2(1H)-ONE

$$$$
