
 OpenBabel10282417153D

 67 68  0  0  0  0  0  0  0  0999 V2000
   -8.0119   10.4653    5.2858 C   0  0  0  0  0  0  0  0  0  0  0  0
   -8.3711    9.1358    5.2421 C   0  0  0  0  0  0  0  0  0  0  0  0
   -7.8924    8.2830    4.2120 C   0  0  0  0  0  0  0  0  0  0  0  0
   -7.2814    8.8122    3.0160 C   0  0  0  0  0  0  0  0  0  0  0  0
   -6.8385   10.1490    3.1517 C   0  0  0  0  0  0  0  0  0  0  0  0
   -7.2022   10.9568    4.2688 C   0  0  0  0  0  0  0  0  0  0  0  0
   -7.9613    6.7903    4.5896 C   0  0  0  0  0  0  0  0  0  0  0  0
   -9.4338    6.3591    4.3964 C   0  0  0  0  0  0  0  0  0  0  0  0
   -7.0352    6.0595    3.6783 C   0  0  0  0  0  0  0  0  0  0  0  0
   -7.3260    6.3264    5.8866 C   0  0  0  0  0  0  0  0  0  0  0  0
   -6.9984    8.0857    1.7251 N   0  0  0  0  0  0  0  0  0  0  0  0
   -7.6061    6.9105    1.1355 C   0  0  0  0  0  0  0  0  0  0  0  0
   -6.6905    6.0002    0.3027 C   0  0  0  0  0  0  0  0  0  0  0  0
   -7.0684    4.6325    0.3492 N   0  0  0  0  0  0  0  0  0  0  0  0
   -6.6918    3.7448   -0.7353 C   0  0  2  0  0  0  0  0  0  0  0  0
   -5.2124    3.4661   -0.4827 C   0  0  0  0  0  0  0  0  0  0  0  0
   -4.4703    3.2697   -1.6028 N   0  0  0  0  0  0  0  0  0  0  0  0
   -3.0464    3.0676   -1.5565 C   0  0  2  0  0  0  0  0  0  0  0  0
   -2.4245    4.3023   -2.2700 C   0  0  0  0  0  0  0  0  0  0  0  0
   -1.2929    5.0662   -1.5255 C   0  0  0  0  0  0  0  0  0  0  0  0
    0.0862    5.0562   -1.9294 O   0  0  0  0  0  0  0  0  0  0  0  0
    0.7338    3.8577   -2.0422 C   0  0  0  0  0  0  0  0  0  0  0  0
    0.1516    2.7456   -2.5966 C   0  0  0  0  0  0  0  0  0  0  0  0
    0.7392    1.4948   -2.7166 C   0  0  0  0  0  0  0  0  0  0  0  0
    2.0740    1.3606   -2.4983 C   0  0  0  0  0  0  0  0  0  0  0  0
    2.7564    2.5098   -2.1172 C   0  0  0  0  0  0  0  0  0  0  0  0
    2.0923    3.7220   -1.8138 C   0  0  0  0  0  0  0  0  0  0  0  0
    0.0069    0.4776   -3.1924 F   0  0  0  0  0  0  0  0  0  0  0  0
   -0.9717    2.8973   -3.2670 F   0  0  0  0  0  0  0  0  0  0  0  0
    4.0924    2.4631   -2.1140 F   0  0  0  0  0  0  0  0  0  0  0  0
    2.7989    4.7539   -1.3363 F   0  0  0  0  0  0  0  0  0  0  0  0
   -2.7629    4.6271   -3.4131 O   0  0  0  0  0  0  0  0  0  0  0  0
   -2.7808    1.6748   -2.1475 C   0  0  0  0  0  0  0  0  0  0  0  0
   -3.1727    1.6019   -3.6185 C   0  0  0  0  0  0  0  0  0  0  0  0
   -4.7194    3.3818    0.6434 O   0  0  0  0  0  0  0  0  0  0  0  0
   -7.0433    4.4153   -2.0623 C   0  0  0  0  0  0  0  0  0  0  0  0
   -5.8204    6.4884   -0.3568 O   0  0  0  0  0  0  0  0  0  0  0  0
   -8.7116    6.3971    1.3377 O   0  0  0  0  0  0  0  0  0  0  0  0
   -2.2062    1.3392   -4.5193 O   0  0  0  0  0  0  0  0  0  0  0  0
   -4.3319    1.7692   -3.9802 O   0  0  0  0  0  0  0  0  0  0  0  0
   -8.3231   11.0785    6.1303 H   0  0  0  0  0  0  0  0  0  0  0  0
   -9.0031    8.7312    6.0337 H   0  0  0  0  0  0  0  0  0  0  0  0
   -6.2060   10.6208    2.4023 H   0  0  0  0  0  0  0  0  0  0  0  0
   -6.8848   11.9969    4.3366 H   0  0  0  0  0  0  0  0  0  0  0  0
   -9.8547    6.7530    3.4577 H   0  0  0  0  0  0  0  0  0  0  0  0
   -9.5258    5.2718    4.3516 H   0  0  0  0  0  0  0  0  0  0  0  0
  -10.0821    6.7457    5.1882 H   0  0  0  0  0  0  0  0  0  0  0  0
   -7.6373    6.3421    2.9051 H   0  0  0  0  0  0  0  0  0  0  0  0
   -6.0356    6.4888    3.5229 H   0  0  0  0  0  0  0  0  0  0  0  0
   -7.0816    4.9855    3.5522 H   0  0  0  0  0  0  0  0  0  0  0  0
   -7.8077    6.7161    6.7742 H   0  0  0  0  0  0  0  0  0  0  0  0
   -7.3582    5.2254    5.9038 H   0  0  0  0  0  0  0  0  0  0  0  0
   -6.2605    6.6062    5.8941 H   0  0  0  0  0  0  0  0  0  0  0  0
   -6.2496    8.4709    1.1564 H   0  0  0  0  0  0  0  0  0  0  0  0
   -7.7133    4.2947    1.0544 H   0  0  0  0  0  0  0  0  0  0  0  0
   -7.2356    2.7888   -0.6477 H   0  0  0  0  0  0  0  0  0  0  0  0
   -4.8916    3.2768   -2.5307 H   0  0  0  0  0  0  0  0  0  0  0  0
   -2.7083    3.0854   -0.5144 H   0  0  0  0  0  0  0  0  0  0  0  0
   -1.6109    6.1204   -1.5819 H   0  0  0  0  0  0  0  0  0  0  0  0
   -1.3404    4.8282   -0.4576 H   0  0  0  0  0  0  0  0  0  0  0  0
    2.5597    0.4173   -2.7098 H   0  0  0  0  0  0  0  0  0  0  0  0
   -1.7690    1.3386   -1.9407 H   0  0  0  0  0  0  0  0  0  0  0  0
   -3.3835    0.9174   -1.6276 H   0  0  0  0  0  0  0  0  0  0  0  0
   -6.7817    3.8173   -2.9350 H   0  0  0  0  0  0  0  0  0  0  0  0
   -8.1127    4.6498   -2.0964 H   0  0  0  0  0  0  0  0  0  0  0  0
   -6.5087    5.3604   -2.1833 H   0  0  0  0  0  0  0  0  0  0  0  0
   -1.2869    1.3459   -4.1939 H   0  0  0  0  0  0  0  0  0  0  0  0
  1  2  2  0  0  0  0
  1 41  1  0  0  0  0
  2  3  1  0  0  0  0
  2 42  1  0  0  0  0
  3  7  1  0  0  0  0
  3  4  2  0  0  0  0
  4 11  1  0  0  0  0
  4  5  1  0  0  0  0
  5  6  2  0  0  0  0
  5 43  1  0  0  0  0
  6  1  1  0  0  0  0
  6 44  1  0  0  0  0
  7 10  1  0  0  0  0
  7  8  1  0  0  0  0
  7  9  1  0  0  0  0
  8 45  1  0  0  0  0
  8 46  1  0  0  0  0
  8 47  1  0  0  0  0
  9 48  1  0  0  0  0
  9 49  1  0  0  0  0
  9 50  1  0  0  0  0
 10 51  1  0  0  0  0
 10 52  1  0  0  0  0
 10 53  1  0  0  0  0
 11 12  1  0  0  0  0
 11 54  1  0  0  0  0
 12 13  1  0  0  0  0
 12 38  2  0  0  0  0
 13 14  1  0  0  0  0
 13 37  2  0  0  0  0
 14 55  1  0  0  0  0
 15 36  1  0  0  0  0
 15 56  1  1  0  0  0
 15 16  1  0  0  0  0
 15 14  1  0  0  0  0
 16 17  1  0  0  0  0
 16 35  2  0  0  0  0
 17 18  1  0  0  0  0
 17 57  1  0  0  0  0
 18 33  1  0  0  0  0
 18 19  1  0  0  0  0
 18 58  1  1  0  0  0
 19 20  1  0  0  0  0
 19 32  2  0  0  0  0
 20 21  1  0  0  0  0
 20 59  1  0  0  0  0
 20 60  1  0  0  0  0
 21 22  1  0  0  0  0
 22 23  2  0  0  0  0
 23 24  1  0  0  0  0
 23 29  1  0  0  0  0
 24 25  2  0  0  0  0
 24 28  1  0  0  0  0
 25 26  1  0  0  0  0
 25 61  1  0  0  0  0
 26 27  2  0  0  0  0
 26 30  1  0  0  0  0
 27 22  1  0  0  0  0
 27 31  1  0  0  0  0
 33 34  1  0  0  0  0
 33 62  1  0  0  0  0
 33 63  1  0  0  0  0
 34 39  1  0  0  0  0
 34 40  2  0  0  0  0
 36 64  1  0  0  0  0
 36 65  1  0  0  0  0
 36 66  1  0  0  0  0
 39 67  1  0  0  0  0
M  END
>  <DRUGBANK_ID>
DB05408

>  <COMMON_NAME>
Emricasan

>  <CAS_NUMBER>
254750-02-2

>  <UNII>
P0GMS9N47Q

>  <SYNONYMS>
Emricasan; EmricasÃ¡n; Emricasanum

$$$$
