
 OpenBabel10282417123D

 16 16  0  0  0  0  0  0  0  0999 V2000
    2.9777    0.0313    0.0647 C   0  0  0  0  0  0  0  0  0  0  0  0
    1.4793    0.0056   -0.0047 C   0  0  0  0  0  0  0  0  0  0  0  0
    0.7786   -1.2073   -0.0232 C   0  0  0  0  0  0  0  0  0  0  0  0
   -0.6190   -1.2205   -0.0331 C   0  0  0  0  0  0  0  0  0  0  0  0
   -1.3140   -0.0149   -0.0251 C   0  0  0  0  0  0  0  0  0  0  0  0
   -2.6769    0.0229    0.0031 O   0  0  0  0  0  0  0  0  0  0  0  0
   -0.6349    1.1962   -0.0376 C   0  0  0  0  0  0  0  0  0  0  0  0
    0.7606    1.2086   -0.0288 C   0  0  0  0  0  0  0  0  0  0  0  0
    3.3920    0.5575   -0.8007 H   0  0  0  0  0  0  0  0  0  0  0  0
    3.2997    0.5361    0.9818 H   0  0  0  0  0  0  0  0  0  0  0  0
    3.3963   -0.9805    0.0776 H   0  0  0  0  0  0  0  0  0  0  0  0
    1.3182   -2.1520   -0.0212 H   0  0  0  0  0  0  0  0  0  0  0  0
   -1.1402   -2.1719   -0.0419 H   0  0  0  0  0  0  0  0  0  0  0  0
   -3.0104   -0.8855    0.0784 H   0  0  0  0  0  0  0  0  0  0  0  0
   -1.1904    2.1298   -0.0438 H   0  0  0  0  0  0  0  0  0  0  0  0
    1.2836    2.1617   -0.0300 H   0  0  0  0  0  0  0  0  0  0  0  0
  1  2  1  0  0  0  0
  1  9  1  0  0  0  0
  1 10  1  0  0  0  0
  1 11  1  0  0  0  0
  2  3  2  0  0  0  0
  2  8  1  0  0  0  0
  3  4  1  0  0  0  0
  3 12  1  0  0  0  0
  4  5  2  0  0  0  0
  4 13  1  0  0  0  0
  5  6  1  0  0  0  0
  5  7  1  0  0  0  0
  6 14  1  0  0  0  0
  7  8  2  0  0  0  0
  7 15  1  0  0  0  0
  8 16  1  0  0  0  0
M  END
>  <DRUGBANK_ID>
DB01688

>  <SECONDARY_ACCESSION_NUMBERS>
EXPT02525

>  <COMMON_NAME>
P-Cresol

>  <CAS_NUMBER>
106-44-5

>  <UNII>
1MXY2UM8NV

$$$$
