
 OpenBabel10282417173D

 39 40  0  0  0  0  0  0  0  0999 V2000
    0.2565   -1.2438    0.0010 C   0  0  0  0  0  0  0  0  0  0  0  0
    0.9761   -0.0491    0.0036 C   0  0  0  0  0  0  0  0  0  0  0  0
    0.3368    1.1778   -0.0555 C   0  0  0  0  0  0  0  0  0  0  0  0
   -1.0395    1.2123   -0.1732 C   0  0  0  0  0  0  0  0  0  0  0  0
   -1.7858    0.0283   -0.1268 C   0  0  0  0  0  0  0  0  0  0  0  0
   -1.1349   -1.2052   -0.0434 C   0  0  0  0  0  0  0  0  0  0  0  0
   -3.2788    0.1108   -0.0520 C   0  0  0  0  0  0  0  0  0  0  0  0
   -3.6621    0.7503    1.2810 C   0  0  0  0  0  0  0  0  0  0  0  0
   -3.5074    2.1977    1.3346 N   0  0  0  0  0  0  0  0  0  0  0  0
   -4.3545    3.2512    1.2039 C   0  0  0  0  0  0  0  0  0  0  0  0
   -3.8902    4.3812    1.1857 O   0  0  0  0  0  0  0  0  0  0  0  0
   -5.8282    3.0869    1.1482 C   0  0  0  0  0  0  0  0  0  0  0  0
   -6.5241    1.9515    1.1281 C   0  0  0  0  0  0  0  0  0  0  0  0
   -7.9518    1.7669    1.1437 C   0  0  0  0  0  0  0  0  0  0  0  0
   -8.7447    2.4374    0.2308 C   0  0  0  0  0  0  0  0  0  0  0  0
  -10.0930    2.1425    0.1832 C   0  0  0  0  0  0  0  0  0  0  0  0
  -10.6279    1.1615    1.0272 C   0  0  0  0  0  0  0  0  0  0  0  0
   -9.8136    0.4538    1.9083 C   0  0  0  0  0  0  0  0  0  0  0  0
   -8.4642    0.7490    1.9609 C   0  0  0  0  0  0  0  0  0  0  0  0
  -11.9449    0.8157    1.0555 O   0  0  0  0  0  0  0  0  0  0  0  0
  -10.7956    2.8659   -0.7313 O   0  0  0  0  0  0  0  0  0  0  0  0
    2.3367   -0.0262    0.0437 O   0  0  0  0  0  0  0  0  0  0  0  0
    0.7538   -2.2063    0.0453 H   0  0  0  0  0  0  0  0  0  0  0  0
    0.8984    2.1052   -0.0217 H   0  0  0  0  0  0  0  0  0  0  0  0
   -1.5288    2.1776   -0.2702 H   0  0  0  0  0  0  0  0  0  0  0  0
   -1.7071   -2.1305   -0.0040 H   0  0  0  0  0  0  0  0  0  0  0  0
   -3.6784    0.6517   -0.9188 H   0  0  0  0  0  0  0  0  0  0  0  0
   -3.7150   -0.8970   -0.0896 H   0  0  0  0  0  0  0  0  0  0  0  0
   -4.6604    0.4384    1.4681 H   0  0  0  0  0  0  0  0  0  0  0  0
   -3.1318    0.3297    2.1383 H   0  0  0  0  0  0  0  0  0  0  0  0
   -2.5589    2.5319    1.4624 H   0  0  0  0  0  0  0  0  0  0  0  0
   -6.3459    4.0435    1.1591 H   0  0  0  0  0  0  0  0  0  0  0  0
   -6.1328    0.9653    1.0724 H   0  0  0  0  0  0  0  0  0  0  0  0
   -8.3054    3.1544   -0.4576 H   0  0  0  0  0  0  0  0  0  0  0  0
  -10.2221   -0.3241    2.5466 H   0  0  0  0  0  0  0  0  0  0  0  0
   -7.8124    0.1744    2.6195 H   0  0  0  0  0  0  0  0  0  0  0  0
  -12.4343    1.3281    0.4030 H   0  0  0  0  0  0  0  0  0  0  0  0
  -11.7407    2.7072   -0.6449 H   0  0  0  0  0  0  0  0  0  0  0  0
    2.6597   -0.9377   -0.0193 H   0  0  0  0  0  0  0  0  0  0  0  0
  1  2  2  0  0  0  0
  1  6  1  0  0  0  0
  1 23  1  0  0  0  0
  2  3  1  0  0  0  0
  2 22  1  0  0  0  0
  3  4  2  0  0  0  0
  3 24  1  0  0  0  0
  4  5  1  0  0  0  0
  4 25  1  0  0  0  0
  5  6  2  0  0  0  0
  5  7  1  0  0  0  0
  6 26  1  0  0  0  0
  7 27  1  0  0  0  0
  7 28  1  0  0  0  0
  8  7  1  0  0  0  0
  8  9  1  0  0  0  0
  8 29  1  0  0  0  0
  8 30  1  0  0  0  0
  9 31  1  0  0  0  0
 10  9  1  0  0  0  0
 10 12  1  0  0  0  0
 11 10  2  0  0  0  0
 12 32  1  0  0  0  0
 13 12  2  0  0  0  0
 13 33  1  0  0  0  0
 14 13  1  0  0  0  0
 14 19  1  0  0  0  0
 15 14  2  0  0  0  0
 15 16  1  0  0  0  0
 15 34  1  0  0  0  0
 16 17  2  0  0  0  0
 16 21  1  0  0  0  0
 17 18  1  0  0  0  0
 17 20  1  0  0  0  0
 18 19  2  0  0  0  0
 18 35  1  0  0  0  0
 19 36  1  0  0  0  0
 20 37  1  0  0  0  0
 21 38  1  0  0  0  0
 22 39  1  0  0  0  0
M  END
>  <DRUGBANK_ID>
DB08754

>  <COMMON_NAME>
N-Caffeoyltyramine

>  <CAS_NUMBER>
103188-48-3

>  <UNII>
3LZ974DQ9J

>  <SYNONYMS>
N-Caffeoyltyramine; N-trans-Caffeoyltyramine; trans-N-Caffeoyltyramine; Typheramide

$$$$
