
 OpenBabel10282417183D

 17 17  0  0  0  0  0  0  0  0999 V2000
   -0.0290    0.8830    0.0000 O   0  0  0  0  0  0  0  0  0  0  0  0
    0.7790   -0.4170    0.0000 C   0  0  0  0  0  0  0  0  0  0  0  0
   -0.7510   -0.4660    0.0000 C   0  0  0  0  0  0  0  0  0  0  0  0
   -0.0290    0.8830    0.0000 O   0  0  0  0  0  0  0  0  0  0  0  0
    0.7790   -0.4170    0.0000 C   0  0  3  0  0  0  0  0  0  0  0  0
    2.2373   -1.1994   -1.1090 C   0  0  0  0  0  0  0  0  0  0  0  0
   -0.7510   -0.4660    0.0000 C   0  0  0  0  0  0  0  0  0  0  0  0
    0.9313   -0.0974   -1.5028 H   0  0  0  0  0  0  0  0  0  0  0  0
    1.3237   -0.7085    0.8737 H   0  0  0  0  0  0  0  0  0  0  0  0
   -1.4932   -0.9269    0.6178 H   0  0  0  0  0  0  0  0  0  0  0  0
   -1.2758   -0.7919   -0.8737 H   0  0  0  0  0  0  0  0  0  0  0  0
    1.3237   -0.7085    0.8737 H   0  0  0  0  0  0  0  0  0  0  0  0
    3.1201   -0.6187   -0.8103 H   0  0  0  0  0  0  0  0  0  0  0  0
    2.2991   -2.2296   -0.7579 H   0  0  0  0  0  0  0  0  0  0  0  0
    2.0627   -1.1660   -2.1921 H   0  0  0  0  0  0  0  0  0  0  0  0
   -1.4932   -0.9269    0.6178 H   0  0  0  0  0  0  0  0  0  0  0  0
   -1.2758   -0.7919   -0.8737 H   0  0  0  0  0  0  0  0  0  0  0  0
  1  2  1  0  0  0  0
  1  3  1  0  0  0  0
  2  3  1  0  0  0  0
  2  8  1  0  0  0  0
  2  9  1  0  0  0  0
  3 10  1  0  0  0  0
  3 11  1  0  0  0  0
  4  5  1  0  0  0  0
  4  7  1  0  0  0  0
  5  6  1  0  0  0  0
  5  7  1  0  0  0  0
  5 12  1  0  0  0  0
  6 13  1  0  0  0  0
  6 14  1  0  0  0  0
  6 15  1  0  0  0  0
  7 16  1  0  0  0  0
  7 17  1  0  0  0  0
M  END
>  <DRUGBANK_ID>
DB11451

>  <COMMON_NAME>
Poloxalene

>  <CAS_NUMBER>
691397-13-4

>  <UNII>
V8B3K56SW0

>  <SYNONYMS>
Peg/ppg-24/34 triblock copolymer; Poloxalene

$$$$
