
 OpenBabel10282417153D

 46 49  0  0  1  0  0  0  0  0999 V2000
    8.4120    7.2633   -0.7540 C   0  0  0  0  0  0  0  0  0  0  0  0
    7.3549    7.1635    0.1712 O   0  0  0  0  0  0  0  0  0  0  0  0
    6.1658    7.3677   -0.4552 C   0  0  0  0  0  0  0  0  0  0  0  0
    5.7284    6.7491   -1.6412 C   0  0  0  0  0  0  0  0  0  0  0  0
    4.3861    6.7829   -2.0805 C   0  0  0  0  0  0  0  0  0  0  0  0
    3.4533    7.1489   -1.1181 C   0  0  0  0  0  0  0  0  0  0  0  0
    3.9868    7.8042   -0.0040 C   0  0  0  0  0  0  0  0  0  0  0  0
    5.2787    8.0725    0.3124 C   0  0  0  0  0  0  0  0  0  0  0  0
    2.2593    6.2181   -0.7502 C   0  0  1  0  0  0  0  0  0  0  0  0
    3.0441    5.0146   -0.0516 C   0  0  0  0  0  0  0  0  0  0  0  0
    3.9916    4.2491   -0.8139 C   0  0  0  0  0  0  0  0  0  0  0  0
    5.1944    3.8095   -0.2474 C   0  0  0  0  0  0  0  0  0  0  0  0
    5.4113    4.0265    1.1008 C   0  0  0  0  0  0  0  0  0  0  0  0
    4.4908    4.7425    1.8698 C   0  0  0  0  0  0  0  0  0  0  0  0
    3.2706    5.1690    1.3199 C   0  0  0  0  0  0  0  0  0  0  0  0
    2.4600    5.9590    2.1020 O   0  0  0  0  0  0  0  0  0  0  0  0
    1.1571    6.2192    1.5445 C   0  0  0  0  0  0  0  0  0  0  0  0
    1.1654    6.9782    0.1964 C   0  0  1  0  0  0  0  0  0  0  0  0
    1.1916    8.5643    0.3641 C   0  0  0  0  0  0  0  0  0  0  0  0
    0.4686    9.4384   -0.4686 C   0  0  0  0  0  0  0  0  0  0  0  0
    0.6813   10.8445   -0.4191 C   0  0  0  0  0  0  0  0  0  0  0  0
    1.6913   11.3797    0.3761 C   0  0  0  0  0  0  0  0  0  0  0  0
    2.3802   10.5561    1.2300 C   0  0  0  0  0  0  0  0  0  0  0  0
    2.0174    9.2104    1.3198 C   0  0  0  0  0  0  0  0  0  0  0  0
    2.0346   12.6969    0.4021 O   0  0  0  0  0  0  0  0  0  0  0  0
    6.5364    3.5234    1.6860 O   0  0  0  0  0  0  0  0  0  0  0  0
    9.3372    7.3988   -0.1929 H   0  0  0  0  0  0  0  0  0  0  0  0
    8.2637    8.1330   -1.4007 H   0  0  0  0  0  0  0  0  0  0  0  0
    8.4768    6.3380   -1.3284 H   0  0  0  0  0  0  0  0  0  0  0  0
    6.3872    6.0138   -2.1051 H   0  0  0  0  0  0  0  0  0  0  0  0
    4.0670    6.1457   -2.9003 H   0  0  0  0  0  0  0  0  0  0  0  0
    3.4547    7.6448    0.9176 H   0  0  0  0  0  0  0  0  0  0  0  0
    5.5157    8.4438    1.2993 H   0  0  0  0  0  0  0  0  0  0  0  0
    1.7284    5.7700   -1.6035 H   0  0  0  0  0  0  0  0  0  0  0  0
    3.9624    4.2180   -1.9031 H   0  0  0  0  0  0  0  0  0  0  0  0
    6.0061    3.4504   -0.8833 H   0  0  0  0  0  0  0  0  0  0  0  0
    4.7745    5.0566    2.8699 H   0  0  0  0  0  0  0  0  0  0  0  0
    0.5890    6.7862    2.2898 H   0  0  0  0  0  0  0  0  0  0  0  0
    0.6470    5.2546    1.4274 H   0  0  0  0  0  0  0  0  0  0  0  0
    0.1745    6.7912   -0.2506 H   0  0  0  0  0  0  0  0  0  0  0  0
   -0.2804    9.0601   -1.1606 H   0  0  0  0  0  0  0  0  0  0  0  0
    0.0634   11.5042   -1.0212 H   0  0  0  0  0  0  0  0  0  0  0  0
    3.2090   10.9367    1.8228 H   0  0  0  0  0  0  0  0  0  0  0  0
    2.5628    8.6613    2.0844 H   0  0  0  0  0  0  0  0  0  0  0  0
    1.4721   13.1945   -0.2087 H   0  0  0  0  0  0  0  0  0  0  0  0
    6.8501    2.8027    1.1111 H   0  0  0  0  0  0  0  0  0  0  0  0
  1  2  1  0  0  0  0
  1 27  1  0  0  0  0
  1 28  1  0  0  0  0
  1 29  1  0  0  0  0
  2  3  1  0  0  0  0
  3  4  2  0  0  0  0
  3  8  1  0  0  0  0
  4  5  1  0  0  0  0
  4 30  1  0  0  0  0
  5  6  2  0  0  0  0
  5 31  1  0  0  0  0
  6  7  1  0  0  0  0
  7  8  2  0  0  0  0
  7 32  1  0  0  0  0
  8 33  1  0  0  0  0
  9 10  1  0  0  0  0
  9 18  1  0  0  0  0
  9 34  1  6  0  0  0
  9  6  1  0  0  0  0
 10 11  2  0  0  0  0
 10 15  1  0  0  0  0
 11 12  1  0  0  0  0
 11 35  1  0  0  0  0
 12 13  2  0  0  0  0
 12 36  1  0  0  0  0
 13 14  1  0  0  0  0
 13 26  1  0  0  0  0
 14 15  2  0  0  0  0
 14 37  1  0  0  0  0
 15 16  1  0  0  0  0
 16 17  1  0  0  0  0
 17 38  1  0  0  0  0
 17 39  1  0  0  0  0
 18 17  1  0  0  0  0
 18 19  1  0  0  0  0
 18 40  1  6  0  0  0
 19 20  2  0  0  0  0
 19 24  1  0  0  0  0
 20 21  1  0  0  0  0
 20 41  1  0  0  0  0
 21 22  2  0  0  0  0
 21 42  1  0  0  0  0
 22 23  1  0  0  0  0
 22 25  1  0  0  0  0
 23 24  2  0  0  0  0
 23 43  1  0  0  0  0
 24 44  1  0  0  0  0
 25 45  1  0  0  0  0
 26 46  1  0  0  0  0
M  END
>  <DRUGBANK_ID>
DB06588

>  <COMMON_NAME>
Triphendiol

>  <CAS_NUMBER>
1213777-80-0

>  <UNII>
6I62LZU21D

$$$$
