
 OpenBabel10282417223D

 23 23  0  0  0  0  0  0  0  0999 V2000
    1.3777   -0.1955    0.0355 C   0  0  0  0  0  0  0  0  0  0  0  0
    0.5101   -1.2954    0.0151 C   0  0  0  0  0  0  0  0  0  0  0  0
    0.8168    1.0868   -0.0038 C   0  0  0  0  0  0  0  0  0  0  0  0
    2.8256   -0.4338    0.1531 C   0  0  0  0  0  0  0  0  0  0  0  0
   -0.8782   -1.1157   -0.0247 C   0  0  0  0  0  0  0  0  0  0  0  0
   -0.5676    1.2663   -0.0002 C   0  0  0  0  0  0  0  0  0  0  0  0
    3.7613    0.5305    0.2264 C   0  0  0  0  0  0  0  0  0  0  0  0
   -1.4223    0.1678   -0.0377 C   0  0  0  0  0  0  0  0  0  0  0  0
    5.2175    0.2712    0.4043 C   0  0  0  0  0  0  0  0  0  0  0  0
   -2.7533    0.4743   -0.0948 O   0  0  0  0  0  0  0  0  0  0  0  0
   -3.6393   -0.6200   -0.2935 C   0  0  0  0  0  0  0  0  0  0  0  0
    0.9006   -2.3105    0.0360 H   0  0  0  0  0  0  0  0  0  0  0  0
    1.4382    1.9758   -0.0295 H   0  0  0  0  0  0  0  0  0  0  0  0
    3.1341   -1.4743    0.2243 H   0  0  0  0  0  0  0  0  0  0  0  0
   -1.5047   -2.0009   -0.0306 H   0  0  0  0  0  0  0  0  0  0  0  0
   -0.9735    2.2740    0.0328 H   0  0  0  0  0  0  0  0  0  0  0  0
    3.4946    1.5796    0.1742 H   0  0  0  0  0  0  0  0  0  0  0  0
    5.7688    0.6853   -0.4448 H   0  0  0  0  0  0  0  0  0  0  0  0
    5.5670    0.7647    1.3168 H   0  0  0  0  0  0  0  0  0  0  0  0
    5.4441   -0.7957    0.4814 H   0  0  0  0  0  0  0  0  0  0  0  0
   -3.3859   -1.1822   -1.1995 H   0  0  0  0  0  0  0  0  0  0  0  0
   -3.6471   -1.2712    0.5861 H   0  0  0  0  0  0  0  0  0  0  0  0
   -4.6480   -0.2187   -0.4249 H   0  0  0  0  0  0  0  0  0  0  0  0
  1  2  1  0  0  0  0
  1  3  2  0  0  0  0
  1  4  1  0  0  0  0
  2  5  2  0  0  0  0
  2 12  1  0  0  0  0
  3  6  1  0  0  0  0
  3 13  1  0  0  0  0
  4  7  2  0  0  0  0
  4 14  1  0  0  0  0
  5  8  1  0  0  0  0
  5 15  1  0  0  0  0
  6  8  2  0  0  0  0
  6 16  1  0  0  0  0
  7  9  1  0  0  0  0
  7 17  1  0  0  0  0
  8 10  1  0  0  0  0
  9 18  1  0  0  0  0
  9 19  1  0  0  0  0
  9 20  1  0  0  0  0
 10 11  1  0  0  0  0
 11 21  1  0  0  0  0
 11 22  1  0  0  0  0
 11 23  1  0  0  0  0
M  END
>  <DRUGBANK_ID>
DB15916

>  <COMMON_NAME>
Anethole

>  <CAS_NUMBER>
4180-23-8

>  <UNII>
Q3JEK5DO4K

>  <SYNONYMS>
(E)-Anethole; Anise camphor; Isoestragole; trans-Anethole

$$$$
