
 OpenBabel10282417133D

 25 24  0  0  1  0  0  0  0  0999 V2000
    1.5208    6.1205   -4.2330 C   0  0  0  0  0  0  0  0  0  0  0  0
    1.1223    5.4616   -2.9225 C   0  0  0  0  0  0  0  0  0  0  0  0
   -0.3678    5.6587   -2.6378 C   0  0  0  0  0  0  0  0  0  0  0  0
   -1.2677    5.0346   -3.7147 C   0  0  0  0  0  0  0  0  0  0  0  0
   -1.0560    3.5207   -3.8518 C   0  0  0  0  0  0  0  0  0  0  0  0
   -1.5091    2.7859   -2.5880 C   0  0  2  0  0  0  0  0  0  0  0  0
   -1.0540    1.4433   -2.6160 O   0  0  0  0  0  0  0  0  0  0  0  0
   -3.0026    2.7830   -2.5118 C   0  0  0  0  0  0  0  0  0  0  0  0
   -3.6995    3.4328   -1.5634 C   0  0  0  0  0  0  0  0  0  0  0  0
    0.9797    5.6952   -5.0837 H   0  0  0  0  0  0  0  0  0  0  0  0
    2.5858    5.9805   -4.4279 H   0  0  0  0  0  0  0  0  0  0  0  0
    1.3045    7.1925   -4.1952 H   0  0  0  0  0  0  0  0  0  0  0  0
    1.3792    4.3965   -2.9490 H   0  0  0  0  0  0  0  0  0  0  0  0
    1.7082    5.8881   -2.1015 H   0  0  0  0  0  0  0  0  0  0  0  0
   -0.6002    5.2434   -1.6509 H   0  0  0  0  0  0  0  0  0  0  0  0
   -0.5903    6.7288   -2.5597 H   0  0  0  0  0  0  0  0  0  0  0  0
   -2.3147    5.2530   -3.4764 H   0  0  0  0  0  0  0  0  0  0  0  0
   -1.0942    5.5154   -4.6829 H   0  0  0  0  0  0  0  0  0  0  0  0
   -1.6087    3.1527   -4.7268 H   0  0  0  0  0  0  0  0  0  0  0  0
   -0.0106    3.2813   -4.0788 H   0  0  0  0  0  0  0  0  0  0  0  0
   -1.0836    3.2424   -1.6895 H   0  0  0  0  0  0  0  0  0  0  0  0
   -0.2798    1.4120   -2.0261 H   0  0  0  0  0  0  0  0  0  0  0  0
   -3.5312    2.2801   -3.3160 H   0  0  0  0  0  0  0  0  0  0  0  0
   -4.7817    3.4516   -1.5884 H   0  0  0  0  0  0  0  0  0  0  0  0
   -3.1984    3.9732   -0.7682 H   0  0  0  0  0  0  0  0  0  0  0  0
  1  2  1  0  0  0  0
  1 10  1  0  0  0  0
  1 11  1  0  0  0  0
  1 12  1  0  0  0  0
  2  3  1  0  0  0  0
  2 13  1  0  0  0  0
  2 14  1  0  0  0  0
  3  4  1  0  0  0  0
  3 15  1  0  0  0  0
  3 16  1  0  0  0  0
  4  5  1  0  0  0  0
  4 17  1  0  0  0  0
  4 18  1  0  0  0  0
  5 19  1  0  0  0  0
  5 20  1  0  0  0  0
  6  8  1  0  0  0  0
  6 21  1  1  0  0  0
  6  7  1  0  0  0  0
  6  5  1  0  0  0  0
  7 22  1  0  0  0  0
  8  9  2  0  0  0  0
  8 23  1  0  0  0  0
  9 24  1  0  0  0  0
  9 25  1  0  0  0  0
M  END
>  <DRUGBANK_ID>
DB03025

>  <SECONDARY_ACCESSION_NUMBERS>
EXPT00184

>  <COMMON_NAME>
(S)-oct-1-en-3-ol

>  <CAS_NUMBER>
24587-53-9

>  <UNII>
07D31239FH

>  <SYNONYMS>
(S)-(+)-1-Octen-3-ol

$$$$
