MDC
 OpenBabel10282417123D

 49 51  0  0  0  0  0  0  0  0999 V2000
    0.6532   -1.4814   -0.0374 C   0  0  0  0  0  0  0  0  0  0  0  0
   -0.8426   -1.3721    0.0206 C   0  0  0  0  0  0  0  0  0  0  0  0
   -1.1233    0.1041   -0.0175 C   0  0  0  0  0  0  0  0  0  0  0  0
   -2.2548    0.5704   -0.0052 O   0  0  0  0  0  0  0  0  0  0  0  0
    0.0700    0.7900   -0.0601 N   0  0  0  0  0  0  0  0  0  0  0  0
    1.1200   -0.0835    0.0310 C   0  0  0  0  0  0  0  0  0  0  0  0
    2.3233    0.1316    0.1455 O   0  0  0  0  0  0  0  0  0  0  0  0
    0.1226    2.1727   -0.1657 C   0  0  0  0  0  0  0  0  0  0  0  0
    1.2029    2.9639   -0.2626 C   0  0  0  0  0  0  0  0  0  0  0  0
    2.4987    2.5196   -0.2214 N   0  0  0  0  0  0  0  0  0  0  0  0
    3.7118    3.1302   -0.1965 C   0  0  0  0  0  0  0  0  0  0  0  0
    4.7480    2.4667   -0.2070 O   0  0  0  0  0  0  0  0  0  0  0  0
    2.7711    6.7221    0.3285 O   0  0  0  0  0  0  0  0  0  0  0  0
    2.9051    5.3936    0.6615 C   0  0  0  0  0  0  0  0  0  0  0  0
    2.2933    4.9268    1.6152 O   0  0  0  0  0  0  0  0  0  0  0  0
    3.7507    4.5871   -0.2331 C   0  0  0  0  0  0  0  0  0  0  0  0
    4.5809    5.1166   -1.1417 C   0  0  0  0  0  0  0  0  0  0  0  0
    4.5687    6.5481   -1.3133 C   0  0  0  0  0  0  0  0  0  0  0  0
    3.6554    7.2910   -0.5911 C   0  0  0  0  0  0  0  0  0  0  0  0
    5.4156    7.2106   -2.1832 C   0  0  0  0  0  0  0  0  0  0  0  0
    5.3073    8.6011   -2.3279 C   0  0  0  0  0  0  0  0  0  0  0  0
    4.3656    9.3722   -1.6208 C   0  0  0  0  0  0  0  0  0  0  0  0
    4.1918   10.7371   -1.8090 N   0  0  0  0  0  0  0  0  0  0  0  0
    3.5739    8.6648   -0.7128 C   0  0  0  0  0  0  0  0  0  0  0  0
    5.0742   11.5254   -2.6768 C   0  0  0  0  0  0  0  0  0  0  0  0
    4.2860   12.1888   -3.7942 C   0  0  0  0  0  0  0  0  0  0  0  0
    3.1571   11.4759   -1.0572 C   0  0  0  0  0  0  0  0  0  0  0  0
    1.7407   11.0715   -1.4747 C   0  0  0  0  0  0  0  0  0  0  0  0
    1.0752   -2.0254    0.8115 H   0  0  0  0  0  0  0  0  0  0  0  0
    1.0132   -1.9097   -0.9776 H   0  0  0  0  0  0  0  0  0  0  0  0
   -1.2235   -1.8085    0.9467 H   0  0  0  0  0  0  0  0  0  0  0  0
   -1.2940   -1.8672   -0.8421 H   0  0  0  0  0  0  0  0  0  0  0  0
   -0.8536    2.6651   -0.1857 H   0  0  0  0  0  0  0  0  0  0  0  0
    1.0373    4.0329   -0.3622 H   0  0  0  0  0  0  0  0  0  0  0  0
    2.6558    1.5199   -0.1287 H   0  0  0  0  0  0  0  0  0  0  0  0
    5.2251    4.5099   -1.7728 H   0  0  0  0  0  0  0  0  0  0  0  0
    6.1627    6.6751   -2.7630 H   0  0  0  0  0  0  0  0  0  0  0  0
    6.0009    9.0462   -3.0298 H   0  0  0  0  0  0  0  0  0  0  0  0
    2.8542    9.1484   -0.0636 H   0  0  0  0  0  0  0  0  0  0  0  0
    5.6039   12.2746   -2.0777 H   0  0  0  0  0  0  0  0  0  0  0  0
    5.8603   10.9401   -3.1554 H   0  0  0  0  0  0  0  0  0  0  0  0
    3.5780   12.9253   -3.4044 H   0  0  0  0  0  0  0  0  0  0  0  0
    4.9663   12.7085   -4.4747 H   0  0  0  0  0  0  0  0  0  0  0  0
    3.7219   11.4459   -4.3675 H   0  0  0  0  0  0  0  0  0  0  0  0
    3.3060   11.3544    0.0233 H   0  0  0  0  0  0  0  0  0  0  0  0
    3.2583   12.5535   -1.2337 H   0  0  0  0  0  0  0  0  0  0  0  0
    1.5063   10.0211   -1.2863 H   0  0  0  0  0  0  0  0  0  0  0  0
    1.0012   11.6516   -0.9161 H   0  0  0  0  0  0  0  0  0  0  0  0
    1.5878   11.2258   -2.5456 H   0  0  0  0  0  0  0  0  0  0  0  0
  1  2  1  0  0  0  0
  1  6  1  0  0  0  0
  1 29  1  0  0  0  0
  1 30  1  0  0  0  0
  2  3  1  0  0  0  0
  2 31  1  0  0  0  0
  2 32  1  0  0  0  0
  3  4  2  0  0  0  0
  3  5  1  0  0  0  0
  5  6  1  0  0  0  0
  5  8  1  0  0  0  0
  6  7  2  0  0  0  0
  8  9  2  0  0  0  0
  8 33  1  0  0  0  0
  9 10  1  0  0  0  0
  9 34  1  0  0  0  0
 10 11  1  0  0  0  0
 10 35  1  0  0  0  0
 11 12  2  0  0  0  0
 11 16  1  0  0  0  0
 13 14  1  0  0  0  0
 13 19  1  0  0  0  0
 14 15  2  0  0  0  0
 14 16  1  0  0  0  0
 16 17  2  0  0  0  0
 17 18  1  0  0  0  0
 17 36  1  0  0  0  0
 18 19  2  0  0  0  0
 18 20  1  0  0  0  0
 19 24  1  0  0  0  0
 20 21  2  0  0  0  0
 20 37  1  0  0  0  0
 21 22  1  0  0  0  0
 21 38  1  0  0  0  0
 22 23  1  0  0  0  0
 22 24  2  0  0  0  0
 23 25  1  0  0  0  0
 23 27  1  0  0  0  0
 24 39  1  0  0  0  0
 25 26  1  0  0  0  0
 25 40  1  0  0  0  0
 25 41  1  0  0  0  0
 26 42  1  0  0  0  0
 26 43  1  0  0  0  0
 26 44  1  0  0  0  0
 27 28  1  0  0  0  0
 27 45  1  0  0  0  0
 27 46  1  0  0  0  0
 28 47  1  0  0  0  0
 28 48  1  0  0  0  0
 28 49  1  0  0  0  0
M  END
>  <DRUGBANK_ID>
DB02799

>  <SECONDARY_ACCESSION_NUMBERS>
EXPT02140

>  <COMMON_NAME>
N-[2-(1-maleimidyl)ethyl]-7-diethylaminocoumarin-3-carboxamide

$$$$
