IPP
 OpenBabel10282417133D

 26 26  0  0  0  0  0  0  0  0999 V2000
    0.9664    0.0779    0.0530 P   0  0  1  0  0  0  0  0  0  0  0  0
    1.0436    0.8503    1.5101 O   0  0  0  0  0  0  0  0  0  0  0  0
    1.0582   -1.3944    0.4593 O   0  0  0  0  0  0  0  0  0  0  0  0
   -0.8636    0.0779    0.0530 C   0  0  0  0  0  0  0  0  0  0  0  0
   -1.4364    0.7456   -1.1103 N   0  0  0  0  0  0  0  0  0  0  0  0
   -2.2068    0.1621   -2.0820 C   0  0  0  0  0  0  0  0  0  0  0  0
   -2.6000    0.8569   -3.0260 O   0  0  0  0  0  0  0  0  0  0  0  0
   -2.5130   -1.3294   -1.9904 C   0  0  0  0  0  0  0  0  0  0  0  0
   -1.2904   -2.2255   -2.1085 C   0  0  0  0  0  0  0  0  0  0  0  0
   -1.3995   -3.6093   -1.9305 C   0  0  0  0  0  0  0  0  0  0  0  0
   -0.2497   -4.4133   -1.9034 C   0  0  0  0  0  0  0  0  0  0  0  0
    1.0156   -3.8373   -2.0102 C   0  0  0  0  0  0  0  0  0  0  0  0
    2.7352   -4.9872   -1.8701 I   0  0  0  0  0  0  0  0  0  0  0  0
    1.1380   -2.4733   -2.2100 C   0  0  0  0  0  0  0  0  0  0  0  0
   -0.0093   -1.6931   -2.3208 C   0  0  0  0  0  0  0  0  0  0  0  0
    2.3464    0.0779    0.0530 H   0  0  0  0  0  0  0  0  0  0  0  0
    1.6754    0.4092    2.1201 H   0  0  0  0  0  0  0  0  0  0  0  0
   -1.2616   -0.9304    0.1774 H   0  0  0  0  0  0  0  0  0  0  0  0
   -1.2337    0.6392    0.9185 H   0  0  0  0  0  0  0  0  0  0  0  0
   -1.2587    1.7345   -1.2490 H   0  0  0  0  0  0  0  0  0  0  0  0
   -3.0372   -1.4995   -1.0381 H   0  0  0  0  0  0  0  0  0  0  0  0
   -3.2183   -1.5855   -2.7883 H   0  0  0  0  0  0  0  0  0  0  0  0
   -2.3735   -4.0748   -1.7955 H   0  0  0  0  0  0  0  0  0  0  0  0
   -0.3521   -5.4858   -1.7701 H   0  0  0  0  0  0  0  0  0  0  0  0
    2.1076   -1.9825   -2.1945 H   0  0  0  0  0  0  0  0  0  0  0  0
    0.1383   -0.6276   -2.4612 H   0  0  0  0  0  0  0  0  0  0  0  0
  1  4  1  0  0  0  0
  1 16  1  6  0  0  0
  1  3  2  0  0  0  0
  1  2  1  0  0  0  0
  2 17  1  0  0  0  0
  4  5  1  0  0  0  0
  4 18  1  0  0  0  0
  4 19  1  0  0  0  0
  5  6  1  0  0  0  0
  5 20  1  0  0  0  0
  6  7  2  0  0  0  0
  6  8  1  0  0  0  0
  8  9  1  0  0  0  0
  8 21  1  0  0  0  0
  8 22  1  0  0  0  0
  9 10  2  0  0  0  0
  9 15  1  0  0  0  0
 10 11  1  0  0  0  0
 10 23  1  0  0  0  0
 11 12  2  0  0  0  0
 11 24  1  0  0  0  0
 12 13  1  0  0  0  0
 12 14  1  0  0  0  0
 14 15  2  0  0  0  0
 14 25  1  0  0  0  0
 15 26  1  0  0  0  0
M  END
>  <DRUGBANK_ID>
DB04123

>  <SECONDARY_ACCESSION_NUMBERS>
EXPT01921

>  <COMMON_NAME>
(P-Iodophenylacetylamino)Methylphosphinic Acid

$$$$
