
 OpenBabel10282417193D

199199  0  0  1  0  0  0  0  0999 V2000
   -2.3432   -8.2915    4.3511 C   0  0  0  0  0  0  0  0  0  0  0  0
   -4.5589   -7.7276    7.1883 C   0  0  0  0  0  0  0  0  0  0  0  0
   -7.4770   -6.9184   10.6853 C   0  0  1  0  0  0  0  0  0  0  0  0
  -10.6739   -6.6085   14.6182 C   0  0  0  0  0  0  0  0  0  0  0  0
  -11.9480   -6.3069   16.5551 O   0  0  0  0  0  0  0  0  0  0  0  0
  -13.7444   -6.3340   18.3852 N   0  0  0  0  0  0  0  0  0  0  0  0
  -16.3239   -5.5027   21.5064 C   0  0  1  0  0  0  0  0  0  0  0  0
  -17.6838   -4.8995   24.5547 C   0  0  0  0  0  0  0  0  0  0  0  0
  -17.3876   -4.7040   26.3793 O   0  0  0  0  0  0  0  0  0  0  0  0
  -17.1517   -4.6966   24.0002 N   0  0  0  0  0  0  0  0  0  0  0  0
  -15.7842   -4.7332   24.0354 C   0  0  2  0  0  0  0  0  0  0  0  0
  -15.2720   -5.9992   23.3562 C   0  0  0  0  0  0  0  0  0  0  0  0
  -15.6243   -7.1187   23.8160 O   0  0  0  0  0  0  0  0  0  0  0  0
  -14.4346   -5.8940   22.1626 N   0  0  0  0  0  0  0  0  0  0  0  0
  -13.9466   -7.1166   21.4978 C   0  0  2  0  0  0  0  0  0  0  0  0
  -14.4360   -7.2580   20.1015 C   0  0  0  0  0  0  0  0  0  0  0  0
  -15.7162   -7.2037   19.8325 O   0  0  0  0  0  0  0  0  0  0  0  0
  -13.3777   -7.4356   19.0187 N   0  0  0  0  0  0  0  0  0  0  0  0
  -14.0127   -7.3061   17.4954 C   0  0  2  0  0  0  0  0  0  0  0  0
  -13.6653   -5.9603   16.6457 C   0  0  0  0  0  0  0  0  0  0  0  0
  -13.8002   -4.8328   17.1998 O   0  0  0  0  0  0  0  0  0  0  0  0
  -12.7735   -6.1571   15.4844 N   0  0  0  0  0  0  0  0  0  0  0  0
  -12.1566   -4.9853   14.8862 C   0  0  2  0  0  0  0  0  0  0  0  0
  -10.6101   -4.9406   14.8916 C   0  0  0  0  0  0  0  0  0  0  0  0
   -9.9903   -4.9637   15.9857 O   0  0  0  0  0  0  0  0  0  0  0  0
   -9.8945   -5.0320   13.6200 N   0  0  0  0  0  0  0  0  0  0  0  0
   -8.4246   -5.0337   13.6154 C   0  0  1  0  0  0  0  0  0  0  0  0
   -7.9143   -6.3019   12.9381 C   0  0  0  0  0  0  0  0  0  0  0  0
   -8.2251   -7.4280   13.4065 O   0  0  0  0  0  0  0  0  0  0  0  0
   -7.0655   -6.1691   11.7975 N   0  0  0  0  0  0  0  0  0  0  0  0
   -6.4460   -7.5626   11.2895 C   0  0  2  0  0  0  0  0  0  0  0  0
   -7.2865   -7.9616    9.4701 C   0  0  0  0  0  0  0  0  0  0  0  0
   -8.3840   -7.4754    9.3993 O   0  0  0  0  0  0  0  0  0  0  0  0
   -6.2730   -7.6672    8.5980 N   0  0  0  0  0  0  0  0  0  0  0  0
   -6.6364   -7.5341    7.1396 C   0  0  2  0  0  0  0  0  0  0  0  0
   -6.1266   -6.3013    6.3841 C   0  0  0  0  0  0  0  0  0  0  0  0
   -6.4070   -5.1600    6.8285 O   0  0  0  0  0  0  0  0  0  0  0  0
   -5.2862   -6.4789    5.1914 N   0  0  0  0  0  0  0  0  0  0  0  0
   -4.7824   -5.2984    4.4767 C   0  0  2  0  0  0  0  0  0  0  0  0
   -3.2824   -5.2456    4.4659 C   0  0  0  0  0  0  0  0  0  0  0  0
   -2.6317   -5.2384    5.5794 O   0  0  0  0  0  0  0  0  0  0  0  0
   -2.5343   -5.3265    3.2015 N   0  0  0  0  0  0  0  0  0  0  0  0
   -1.0994   -5.2827    3.2885 C   0  0  2  0  0  0  0  0  0  0  0  0
   -2.6747   -6.6620    4.9676 C   0  0  0  0  0  0  0  0  0  0  0  0
   -1.2890   -7.3032    3.1528 O   0  0  0  0  0  0  0  0  0  0  0  0
   -4.8100   -6.6818    7.4701 N   0  0  0  0  0  0  0  0  0  0  0  0
   -0.5378   -5.2859    4.6368 C   0  0  1  0  0  0  0  0  0  0  0  0
    0.9730   -5.2958    4.6360 C   0  0  2  0  0  0  0  0  0  0  0  0
    1.4799   -6.2111    3.5380 C   0  0  0  0  0  0  0  0  0  0  0  0
    1.4818   -5.7861    5.9793 C   0  0  0  0  0  0  0  0  0  0  0  0
    2.9976   -5.7844    5.9852 C   0  0  0  0  0  0  0  0  0  0  0  0
    3.6804   -5.0344    6.8819 C   0  0  0  0  0  0  0  0  0  0  0  0
    5.1947   -5.0315    6.8855 C   0  0  0  0  0  0  0  0  0  0  0  0
   -1.0113   -4.1071    5.2698 O   0  0  0  0  0  0  0  0  0  0  0  0
   -3.2578   -5.3718    1.9317 C   0  0  0  0  0  0  0  0  0  0  0  0
   -5.2852   -4.0349    5.1509 C   0  0  0  0  0  0  0  0  0  0  0  0
   -4.7806   -2.8191    4.4053 C   0  0  0  0  0  0  0  0  0  0  0  0
   -6.8063   -4.0310    5.1484 C   0  0  0  0  0  0  0  0  0  0  0  0
   -4.9261   -7.8253    4.7300 C   0  0  0  0  0  0  0  0  0  0  0  0
   -8.1405   -7.5290    7.1373 C   0  0  0  0  0  0  0  0  0  0  0  0
   -8.6498   -7.5726    5.7137 C   0  0  0  0  0  0  0  0  0  0  0  0
   -8.1432   -8.8301    5.0327 C   0  0  0  0  0  0  0  0  0  0  0  0
  -10.1660   -7.5704    5.7129 C   0  0  0  0  0  0  0  0  0  0  0  0
   -4.6544   -7.5090    8.8528 C   0  0  0  0  0  0  0  0  0  0  0  0
   -7.0838   -8.6478   11.8364 C   0  0  0  0  0  0  0  0  0  0  0  0
   -6.5793   -9.8989   11.1547 C   0  0  0  0  0  0  0  0  0  0  0  0
   -5.0621   -9.8986   11.1516 C   0  0  0  0  0  0  0  0  0  0  0  0
   -7.0862  -11.1154   11.9023 C   0  0  0  0  0  0  0  0  0  0  0  0
   -6.6958   -4.8999   11.1723 C   0  0  0  0  0  0  0  0  0  0  0  0
   -7.9504   -3.8010   12.9036 C   0  0  0  0  0  0  0  0  0  0  0  0
  -12.6507   -3.7361   15.5656 C   0  0  0  0  0  0  0  0  0  0  0  0
  -15.5124   -7.2332   17.5504 C   0  0  0  0  0  0  0  0  0  0  0  0
  -16.0175   -7.2728   16.1281 C   0  0  0  0  0  0  0  0  0  0  0  0
  -15.5100   -8.5301   15.4471 C   0  0  0  0  0  0  0  0  0  0  0  0
  -17.5331   -7.2704   16.1274 C   0  0  0  0  0  0  0  0  0  0  0  0
  -12.0485   -7.1851   19.2158 C   0  0  0  0  0  0  0  0  0  0  0  0
  -14.4490   -8.3394   22.2443 C   0  0  0  0  0  0  0  0  0  0  0  0
  -13.9482   -9.5960   21.5674 C   0  0  0  0  0  0  0  0  0  0  0  0
  -13.9403   -8.3018   23.6767 C   0  0  0  0  0  0  0  0  0  0  0  0
  -15.2767   -4.6925   25.4622 C   0  0  0  0  0  0  0  0  0  0  0  0
  -13.7643   -4.6943   25.4649 C   0  0  0  0  0  0  0  0  0  0  0  0
  -15.7800   -3.4290   26.1438 C   0  0  0  0  0  0  0  0  0  0  0  0
  -18.0578   -4.5857   22.5707 C   0  0  0  0  0  0  0  0  0  0  0  0
  -17.6257   -3.5370   21.9168 C   0  0  0  0  0  0  0  0  0  0  0  0
  -19.1503   -4.9659   23.5077 C   0  0  0  0  0  0  0  0  0  0  0  0
  -16.4056   -6.8309   21.6169 C   0  0  0  0  0  0  0  0  0  0  0  0
   -0.1924   -7.9270    3.2421 H   0  0  0  0  0  0  0  0  0  0  0  0
   -1.1806   -9.5093    3.0489 H   0  0  0  0  0  0  0  0  0  0  0  0
   -1.6780   -8.1015    1.9763 H   0  0  0  0  0  0  0  0  0  0  0  0
   -2.4724   -8.3070    5.1552 H   0  0  0  0  0  0  0  0  0  0  0  0
   -2.8665   -8.3129    4.8162 H   0  0  0  0  0  0  0  0  0  0  0  0
   -5.7473   -6.8680    8.3986 H   0  0  0  0  0  0  0  0  0  0  0  0
  -18.1717   -4.7315   23.7609 H   0  0  0  0  0  0  0  0  0  0  0  0
  -15.4314   -3.8747   23.5015 H   0  0  0  0  0  0  0  0  0  0  0  0
  -14.1906   -4.9814   21.7770 H   0  0  0  0  0  0  0  0  0  0  0  0
  -12.8778   -7.1148   21.4989 H   0  0  0  0  0  0  0  0  0  0  0  0
  -13.6296   -8.1218   17.0796 H   0  0  0  0  0  0  0  0  0  0  0  0
  -12.4055   -7.1197   15.2958 H   0  0  0  0  0  0  0  0  0  0  0  0
  -12.5045   -5.0275   13.8788 H   0  0  0  0  0  0  0  0  0  0  0  0
  -10.4017   -5.0607   12.7348 H   0  0  0  0  0  0  0  0  0  0  0  0
   -8.0641   -5.0070   14.6275 H   0  0  0  0  0  0  0  0  0  0  0  0
   -5.5026   -7.4155   11.0861 H   0  0  0  0  0  0  0  0  0  0  0  0
   -6.2675   -8.4196    6.6706 H   0  0  0  0  0  0  0  0  0  0  0  0
   -5.1401   -5.3288    3.4690 H   0  0  0  0  0  0  0  0  0  0  0  0
   -0.7008   -4.4722    2.6708 H   0  0  0  0  0  0  0  0  0  0  0  0
   -3.1063   -6.4356    5.4144 H   0  0  0  0  0  0  0  0  0  0  0  0
   -0.8946   -6.1524    5.1723 H   0  0  0  0  0  0  0  0  0  0  0  0
    1.3296   -4.2983    4.4618 H   0  0  0  0  0  0  0  0  0  0  0  0
    2.0732   -5.7095    2.7996 H   0  0  0  0  0  0  0  0  0  0  0  0
    2.0175   -7.0602    3.9118 H   0  0  0  0  0  0  0  0  0  0  0  0
    0.5828   -6.5400    3.0917 H   0  0  0  0  0  0  0  0  0  0  0  0
    1.1207   -5.1394    6.7569 H   0  0  0  0  0  0  0  0  0  0  0  0
    1.1214   -6.7831    6.1552 H   0  0  0  0  0  0  0  0  0  0  0  0
    3.5341   -6.3823    5.2694 H   0  0  0  0  0  0  0  0  0  0  0  0
    3.1437   -4.4367    7.5973 H   0  0  0  0  0  0  0  0  0  0  0  0
    5.5561   -4.0361    6.7116 H   0  0  0  0  0  0  0  0  0  0  0  0
    5.5561   -5.3794    7.8341 H   0  0  0  0  0  0  0  0  0  0  0  0
    5.5568   -5.6797    6.1097 H   0  0  0  0  0  0  0  0  0  0  0  0
   -0.6891   -3.3158    4.7781 H   0  0  0  0  0  0  0  0  0  0  0  0
   -3.0007   -4.5134    1.3436 H   0  0  0  0  0  0  0  0  0  0  0  0
   -3.0009   -6.2633    1.3938 H   0  0  0  0  0  0  0  0  0  0  0  0
   -4.3115   -5.3668    2.1218 H   0  0  0  0  0  0  0  0  0  0  0  0
   -4.9272   -4.0063    6.1657 H   0  0  0  0  0  0  0  0  0  0  0  0
   -5.1369   -2.8463    3.3935 H   0  0  0  0  0  0  0  0  0  0  0  0
   -5.1369   -1.9280    4.8837 H   0  0  0  0  0  0  0  0  0  0  0  0
   -3.7078   -2.8168    4.4038 H   0  0  0  0  0  0  0  0  0  0  0  0
   -7.1845   -4.8880    5.6589 H   0  0  0  0  0  0  0  0  0  0  0  0
   -7.1645   -3.1479    5.6358 H   0  0  0  0  0  0  0  0  0  0  0  0
   -7.1646   -4.0667    4.1454 H   0  0  0  0  0  0  0  0  0  0  0  0
   -5.2787   -7.9694    3.7400 H   0  0  0  0  0  0  0  0  0  0  0  0
   -3.8870   -7.9403    4.7182 H   0  0  0  0  0  0  0  0  0  0  0  0
   -5.3557   -8.5585    5.3823 H   0  0  0  0  0  0  0  0  0  0  0  0
   -8.5001   -8.3911    7.6730 H   0  0  0  0  0  0  0  0  0  0  0  0
   -8.4998   -6.6387    7.6231 H   0  0  0  0  0  0  0  0  0  0  0  0
   -8.2917   -6.7105    5.1821 H   0  0  0  0  0  0  0  0  0  0  0  0
   -8.4987   -9.6928    5.5625 H   0  0  0  0  0  0  0  0  0  0  0  0
   -8.4987   -8.8614    4.0221 H   0  0  0  0  0  0  0  0  0  0  0  0
   -7.0727   -8.8336    5.0306 H   0  0  0  0  0  0  0  0  0  0  0  0
  -10.5261   -6.6812    6.1929 H   0  0  0  0  0  0  0  0  0  0  0  0
  -10.5261   -7.5997    4.7029 H   0  0  0  0  0  0  0  0  0  0  0  0
  -10.5263   -8.4310    6.2434 H   0  0  0  0  0  0  0  0  0  0  0  0
   -4.2409   -8.3747    8.4021 H   0  0  0  0  0  0  0  0  0  0  0  0
   -4.2164   -6.6128    8.4005 H   0  0  0  0  0  0  0  0  0  0  0  0
   -4.5156   -7.4500    9.8559 H   0  0  0  0  0  0  0  0  0  0  0  0
   -6.7283   -8.6095   12.8427 H   0  0  0  0  0  0  0  0  0  0  0  0
   -8.1592   -8.6382   11.8309 H   0  0  0  0  0  0  0  0  0  0  0  0
   -6.9372   -9.9284   10.1417 H   0  0  0  0  0  0  0  0  0  0  0  0
   -4.7021   -9.8681   12.1619 H   0  0  0  0  0  0  0  0  0  0  0  0
   -4.7023  -10.7866   10.6717 H   0  0  0  0  0  0  0  0  0  0  0  0
   -4.7014   -9.0407   10.6225 H   0  0  0  0  0  0  0  0  0  0  0  0
   -8.1589  -11.1176   11.9039 H   0  0  0  0  0  0  0  0  0  0  0  0
   -6.7298  -12.0070   11.4240 H   0  0  0  0  0  0  0  0  0  0  0  0
   -6.7298  -11.0886   12.9142 H   0  0  0  0  0  0  0  0  0  0  0  0
   -5.6476   -4.7639   11.2028 H   0  0  0  0  0  0  0  0  0  0  0  0
   -7.0777   -4.7928   10.1907 H   0  0  0  0  0  0  0  0  0  0  0  0
   -7.0665   -4.0820   11.4365 H   0  0  0  0  0  0  0  0  0  0  0  0
   -7.4126   -3.1579   13.5485 H   0  0  0  0  0  0  0  0  0  0  0  0
   -7.3082   -4.1420   12.4581 H   0  0  0  0  0  0  0  0  0  0  0  0
   -8.7434   -3.3000   12.4189 H   0  0  0  0  0  0  0  0  0  0  0  0
  -12.2963   -2.8767   15.0403 H   0  0  0  0  0  0  0  0  0  0  0  0
  -13.7256   -3.7352   15.5683 H   0  0  0  0  0  0  0  0  0  0  0  0
  -12.2944   -3.7060   16.5801 H   0  0  0  0  0  0  0  0  0  0  0  0
  -15.8670   -8.0911   18.0882 H   0  0  0  0  0  0  0  0  0  0  0  0
  -15.8693   -6.3391   18.0364 H   0  0  0  0  0  0  0  0  0  0  0  0
  -15.6590   -6.4103   15.5965 H   0  0  0  0  0  0  0  0  0  0  0  0
  -15.8658   -9.3928   15.9770 H   0  0  0  0  0  0  0  0  0  0  0  0
  -15.8658   -8.5613   14.4366 H   0  0  0  0  0  0  0  0  0  0  0  0
  -14.4373   -8.5330   15.4452 H   0  0  0  0  0  0  0  0  0  0  0  0
  -17.8932   -6.3812   16.6074 H   0  0  0  0  0  0  0  0  0  0  0  0
  -17.8932   -7.2997   15.1174 H   0  0  0  0  0  0  0  0  0  0  0  0
  -17.8934   -8.1309   16.6579 H   0  0  0  0  0  0  0  0  0  0  0  0
  -11.6091   -8.0691   18.8078 H   0  0  0  0  0  0  0  0  0  0  0  0
  -11.6085   -6.3193   18.7592 H   0  0  0  0  0  0  0  0  0  0  0  0
  -11.8829   -7.1514   20.2689 H   0  0  0  0  0  0  0  0  0  0  0  0
  -15.5247   -8.3401   22.2451 H   0  0  0  0  0  0  0  0  0  0  0  0
  -12.8751   -9.5978   21.5658 H   0  0  0  0  0  0  0  0  0  0  0  0
  -14.3045  -10.4579   22.0962 H   0  0  0  0  0  0  0  0  0  0  0  0
  -14.3044   -9.6275   20.5559 H   0  0  0  0  0  0  0  0  0  0  0  0
  -14.2719   -7.4158   24.1699 H   0  0  0  0  0  0  0  0  0  0  0  0
  -14.3042   -9.1554   24.2101 H   0  0  0  0  0  0  0  0  0  0  0  0
  -12.8747   -8.2949   23.6798 H   0  0  0  0  0  0  0  0  0  0  0  0
  -15.6370   -5.5559   25.9948 H   0  0  0  0  0  0  0  0  0  0  0  0
  -13.4043   -3.8340   24.9341 H   0  0  0  0  0  0  0  0  0  0  0  0
  -13.4045   -4.6652   26.4746 H   0  0  0  0  0  0  0  0  0  0  0  0
  -13.4040   -5.5833   24.9850 H   0  0  0  0  0  0  0  0  0  0  0  0
  -16.8474   -3.4011   26.1415 H   0  0  0  0  0  0  0  0  0  0  0  0
  -15.4315   -3.4033   27.1556 H   0  0  0  0  0  0  0  0  0  0  0  0
  -15.4317   -2.5718   25.6148 H   0  0  0  0  0  0  0  0  0  0  0  0
  -17.8851   -5.6837   22.1117 H   0  0  0  0  0  0  0  0  0  0  0  0
  -18.8933   -4.6286   22.6976 H   0  0  0  0  0  0  0  0  0  0  0  0
  -16.5730   -3.5568   21.7300 H   0  0  0  0  0  0  0  0  0  0  0  0
  -18.1624   -3.5796   20.9979 H   0  0  0  0  0  0  0  0  0  0  0  0
  -17.8853   -2.6622   22.4630 H   0  0  0  0  0  0  0  0  0  0  0  0
  -19.4760   -5.5479   23.3422 H   0  0  0  0  0  0  0  0  0  0  0  0
  -20.9999   -5.1282   23.9196 H   0  0  0  0  0  0  0  0  0  0  0  0
  -20.0324   -3.7811   23.3890 H   0  0  0  0  0  0  0  0  0  0  0  0
  -18.6849   -7.1474   23.5541 H   0  0  0  0  0  0  0  0  0  0  0  0
  -17.8787   -7.1417   24.2147 H   0  0  0  0  0  0  0  0  0  0  0  0
  -18.2905   -7.3075   23.9628 H   0  0  0  0  0  0  0  0  0  0  0  0
  1  2  1  0  0  0  0
  1 87  1  0  0  0  0
  1 88  1  0  0  0  0
  1 89  1  0  0  0  0
  2 90  1  0  0  0  0
  2 91  1  0  0  0  0
  3  4  1  0  0  0  0
  3 46  1  0  0  0  0
  3 92  1  6  0  0  0
  3  2  1  0  0  0  0
  4  5  2  0  0  0  0
  4  6  1  0  0  0  0
  6  7  1  0  0  0  0
  6 86  1  0  0  0  0
  7  8  1  0  0  0  0
  7 93  1  1  0  0  0
  7 85  1  0  0  0  0
  8  9  2  0  0  0  0
  8 10  1  0  0  0  0
 10 11  1  0  0  0  0
 10 83  1  0  0  0  0
 11 12  1  0  0  0  0
 11 80  1  0  0  0  0
 11 94  1  6  0  0  0
 12 13  2  0  0  0  0
 12 14  1  0  0  0  0
 14 15  1  0  0  0  0
 14 95  1  0  0  0  0
 15 16  1  0  0  0  0
 15 77  1  0  0  0  0
 15 96  1  1  0  0  0
 16 17  2  0  0  0  0
 16 18  1  0  0  0  0
 18 19  1  0  0  0  0
 18 76  1  0  0  0  0
 19 20  1  0  0  0  0
 19 72  1  0  0  0  0
 19 97  1  6  0  0  0
 20 21  2  0  0  0  0
 20 22  1  0  0  0  0
 22 23  1  0  0  0  0
 22 98  1  0  0  0  0
 23 24  1  0  0  0  0
 23 71  1  0  0  0  0
 23 99  1  6  0  0  0
 24 25  2  0  0  0  0
 24 26  1  0  0  0  0
 26 27  1  0  0  0  0
 26100  1  0  0  0  0
 27 28  1  0  0  0  0
 27101  1  1  0  0  0
 27 70  1  0  0  0  0
 28 29  2  0  0  0  0
 28 30  1  0  0  0  0
 30 31  1  0  0  0  0
 30 69  1  0  0  0  0
 31 32  1  0  0  0  0
 31 65  1  0  0  0  0
 31102  1  1  0  0  0
 32 33  2  0  0  0  0
 32 34  1  0  0  0  0
 34 35  1  0  0  0  0
 34 64  1  0  0  0  0
 35 36  1  0  0  0  0
 35 60  1  0  0  0  0
 35103  1  6  0  0  0
 36 37  2  0  0  0  0
 36 38  1  0  0  0  0
 38 39  1  0  0  0  0
 38 59  1  0  0  0  0
 39 40  1  0  0  0  0
 39 56  1  0  0  0  0
 39104  1  6  0  0  0
 40 41  2  0  0  0  0
 40 42  1  0  0  0  0
 42 43  1  0  0  0  0
 42 55  1  0  0  0  0
 43 44  1  0  0  0  0
 43 47  1  0  0  0  0
 43105  1  6  0  0  0
 44 45  2  0  0  0  0
 44 46  1  0  0  0  0
 46106  1  0  0  0  0
 47 54  1  0  0  0  0
 47107  1  1  0  0  0
 48 50  1  0  0  0  0
 48108  1  6  0  0  0
 48 49  1  0  0  0  0
 48 47  1  0  0  0  0
 49109  1  0  0  0  0
 49110  1  0  0  0  0
 49111  1  0  0  0  0
 50 51  1  0  0  0  0
 50112  1  0  0  0  0
 50113  1  0  0  0  0
 51 52  2  0  0  0  0
 51114  1  0  0  0  0
 52 53  1  0  0  0  0
 52115  1  0  0  0  0
 53116  1  0  0  0  0
 53117  1  0  0  0  0
 53118  1  0  0  0  0
 54119  1  0  0  0  0
 55120  1  0  0  0  0
 55121  1  0  0  0  0
 55122  1  0  0  0  0
 56 57  1  0  0  0  0
 56 58  1  0  0  0  0
 56123  1  0  0  0  0
 57124  1  0  0  0  0
 57125  1  0  0  0  0
 57126  1  0  0  0  0
 58127  1  0  0  0  0
 58128  1  0  0  0  0
 58129  1  0  0  0  0
 59130  1  0  0  0  0
 59131  1  0  0  0  0
 59132  1  0  0  0  0
 60 61  1  0  0  0  0
 60133  1  0  0  0  0
 60134  1  0  0  0  0
 61 62  1  0  0  0  0
 61 63  1  0  0  0  0
 61135  1  0  0  0  0
 62136  1  0  0  0  0
 62137  1  0  0  0  0
 62138  1  0  0  0  0
 63139  1  0  0  0  0
 63140  1  0  0  0  0
 63141  1  0  0  0  0
 64142  1  0  0  0  0
 64143  1  0  0  0  0
 64144  1  0  0  0  0
 65 66  1  0  0  0  0
 65145  1  0  0  0  0
 65146  1  0  0  0  0
 66 67  1  0  0  0  0
 66 68  1  0  0  0  0
 66147  1  0  0  0  0
 67148  1  0  0  0  0
 67149  1  0  0  0  0
 67150  1  0  0  0  0
 68151  1  0  0  0  0
 68152  1  0  0  0  0
 68153  1  0  0  0  0
 69154  1  0  0  0  0
 69155  1  0  0  0  0
 69156  1  0  0  0  0
 70157  1  0  0  0  0
 70158  1  0  0  0  0
 70159  1  0  0  0  0
 71160  1  0  0  0  0
 71161  1  0  0  0  0
 71162  1  0  0  0  0
 72 73  1  0  0  0  0
 72163  1  0  0  0  0
 72164  1  0  0  0  0
 73 74  1  0  0  0  0
 73 75  1  0  0  0  0
 73165  1  0  0  0  0
 74166  1  0  0  0  0
 74167  1  0  0  0  0
 74168  1  0  0  0  0
 75169  1  0  0  0  0
 75170  1  0  0  0  0
 75171  1  0  0  0  0
 76172  1  0  0  0  0
 76173  1  0  0  0  0
 76174  1  0  0  0  0
 77 78  1  0  0  0  0
 77 79  1  0  0  0  0
 77175  1  0  0  0  0
 78176  1  0  0  0  0
 78177  1  0  0  0  0
 78178  1  0  0  0  0
 79179  1  0  0  0  0
 79180  1  0  0  0  0
 79181  1  0  0  0  0
 80 81  1  0  0  0  0
 80 82  1  0  0  0  0
 80182  1  0  0  0  0
 81183  1  0  0  0  0
 81184  1  0  0  0  0
 81185  1  0  0  0  0
 82186  1  0  0  0  0
 82187  1  0  0  0  0
 82188  1  0  0  0  0
 83 84  1  0  0  0  0
 83189  1  0  0  0  0
 83190  1  0  0  0  0
 84191  1  0  0  0  0
 84192  1  0  0  0  0
 84193  1  0  0  0  0
 85194  1  0  0  0  0
 85195  1  0  0  0  0
 85196  1  0  0  0  0
 86197  1  0  0  0  0
 86198  1  0  0  0  0
 86199  1  0  0  0  0
M  END
>  <DRUGBANK_ID>
DB12139

>  <COMMON_NAME>
Alisporivir

>  <CAS_NUMBER>
254435-95-5

>  <UNII>
VBP9099AA6

>  <SYNONYMS>
Alisporivir

$$$$
