1594
 OpenBabel10282417123D

 38 40  0  0  1  0  0  0  0  0999 V2000
    1.0192   -0.0786    0.0575 Cl  0  0  0  0  0  0  0  0  0  0  0  0
    5.0773    1.7459    2.9858 F   0  0  0  0  0  0  0  0  0  0  0  0
    6.3522    1.5006   -2.4076 O   0  0  0  0  0  0  0  0  0  0  0  0
    8.9788    0.9559   -0.1304 O   0  0  0  0  0  0  0  0  0  0  0  0
    6.9755   -0.1564    0.0511 N   0  0  0  0  0  0  0  0  0  0  0  0
    6.4644    2.8897   -0.4007 N   0  0  0  0  0  0  0  0  0  0  0  0
   10.5258   -1.0925   -1.4223 N   0  0  0  0  0  0  0  0  0  0  0  0
    5.5524   -0.0889    0.0846 C   0  0  0  0  0  0  0  0  0  0  0  0
    4.8358    1.1217    0.2007 C   0  0  0  0  0  0  0  0  0  0  0  0
    7.6586   -1.2643    0.7364 C   0  0  0  0  0  0  0  0  0  0  0  0
    5.4781    2.4689    0.3130 C   0  0  0  0  0  0  0  0  0  0  0  0
    7.7835    0.8829   -0.4204 C   0  0  0  0  0  0  0  0  0  0  0  0
    7.1202    1.9597   -1.3118 C   0  0  3  0  0  0  0  0  0  0  0  0
    4.8206   -1.2843   -0.0368 C   0  0  0  0  0  0  0  0  0  0  0  0
    3.4294    1.1119    0.1870 C   0  0  0  0  0  0  0  0  0  0  0  0
    4.9096    3.4148    1.3029 C   0  0  0  0  0  0  0  0  0  0  0  0
    8.4608   -2.1746   -0.2005 C   0  0  0  0  0  0  0  0  0  0  0  0
    3.4250   -1.2841   -0.0485 C   0  0  0  0  0  0  0  0  0  0  0  0
    2.7361   -0.0859    0.0696 C   0  0  0  0  0  0  0  0  0  0  0  0
    4.7094    2.9801    2.6111 C   0  0  0  0  0  0  0  0  0  0  0  0
    4.5510    4.7139    0.9302 C   0  0  0  0  0  0  0  0  0  0  0  0
    4.1175    3.8166    3.5453 C   0  0  0  0  0  0  0  0  0  0  0  0
    4.0802    5.5958    1.9054 C   0  0  0  0  0  0  0  0  0  0  0  0
    3.8617    5.1455    3.2102 C   0  0  0  0  0  0  0  0  0  0  0  0
    9.6157   -1.5499   -0.8571 C   0  0  0  0  0  0  0  0  0  0  0  0
    5.5710    1.0610   -2.0521 H   0  0  0  0  0  0  0  0  0  0  0  0
    8.2938   -0.8395    1.5235 H   0  0  0  0  0  0  0  0  0  0  0  0
    6.9243   -1.8823    1.2713 H   0  0  0  0  0  0  0  0  0  0  0  0
    7.9664    2.4826   -1.7736 H   0  0  0  0  0  0  0  0  0  0  0  0
    5.3208   -2.2396   -0.1770 H   0  0  0  0  0  0  0  0  0  0  0  0
    2.8679    2.0411    0.2585 H   0  0  0  0  0  0  0  0  0  0  0  0
    8.8272   -3.0268    0.3818 H   0  0  0  0  0  0  0  0  0  0  0  0
    7.7899   -2.5694   -0.9714 H   0  0  0  0  0  0  0  0  0  0  0  0
    2.8884   -2.2226   -0.1641 H   0  0  0  0  0  0  0  0  0  0  0  0
    4.6289    5.0375   -0.1056 H   0  0  0  0  0  0  0  0  0  0  0  0
    3.8701    3.4289    4.5273 H   0  0  0  0  0  0  0  0  0  0  0  0
    3.8730    6.6331    1.6506 H   0  0  0  0  0  0  0  0  0  0  0  0
    3.4909    5.8317    3.9676 H   0  0  0  0  0  0  0  0  0  0  0  0
  1 19  1  0  0  0  0
  2 20  1  0  0  0  0
  3 13  1  0  0  0  0
  3 26  1  0  0  0  0
  4 12  2  0  0  0  0
  5  8  1  0  0  0  0
  5 10  1  0  0  0  0
  5 12  1  0  0  0  0
  6 11  2  0  0  0  0
  6 13  1  0  0  0  0
  7 25  3  0  0  0  0
  8  9  2  0  0  0  0
  8 14  1  0  0  0  0
  9 11  1  0  0  0  0
  9 15  1  0  0  0  0
 10 17  1  0  0  0  0
 10 27  1  0  0  0  0
 10 28  1  0  0  0  0
 11 16  1  0  0  0  0
 12 13  1  0  0  0  0
 13 29  1  0  0  0  0
 14 18  2  0  0  0  0
 14 30  1  0  0  0  0
 15 19  2  0  0  0  0
 15 31  1  0  0  0  0
 16 20  1  0  0  0  0
 16 21  2  0  0  0  0
 17 25  1  0  0  0  0
 17 32  1  0  0  0  0
 17 33  1  0  0  0  0
 18 19  1  0  0  0  0
 18 34  1  0  0  0  0
 20 22  2  0  0  0  0
 21 23  1  0  0  0  0
 21 35  1  0  0  0  0
 22 24  1  0  0  0  0
 22 36  1  0  0  0  0
 23 24  2  0  0  0  0
 23 37  1  0  0  0  0
 24 38  1  0  0  0  0
M  END
>  <DRUGBANK_ID>
DB01594

>  <COMMON_NAME>
Cinolazepam

>  <CAS_NUMBER>
75696-02-5

>  <UNII>
68P0556B0U

>  <SYNONYMS>
1-(2-cyanoethyl)-7-chloro-3-hydroxy-5-(2'-fluorophenyl)-1,3-dihydro-2H-1,4-benzodiazepin-2-one; 7-chloro-5-(2-fluorophenyl)-2,3-dihydro-3-hydroxy-2-oxo-1H-1,4-benzodiazepine-1-propanenitrile; 7-chloro-5-(o-fluorophenyl)-2,3-dihydro-3-hydroxy-2-oxo-1H-1,4-benzodiazepine-1-propionitrile; Cinolazepam; Cinolazepamum

$$$$
