
 OpenBabel10282417133D

 31 31  0  0  1  0  0  0  0  0999 V2000
   -0.8650   -0.0036   -2.3905 C   0  0  0  0  0  0  0  0  0  0  0  0
    3.5190    0.6944   -4.3199 C   0  0  0  0  0  0  0  0  0  0  0  0
    1.2283    4.0676   -1.7232 C   0  0  0  0  0  0  0  0  0  0  0  0
   -0.1727    1.3018   -2.7952 C   0  0  1  0  0  0  0  0  0  0  0  0
    3.2678    1.2004   -2.8936 C   0  0  1  0  0  0  0  0  0  0  0  0
    2.1886    4.7543   -0.7565 C   0  0  0  0  0  0  0  0  0  0  0  0
    1.1090    1.5276   -1.9058 C   0  0  1  0  0  0  0  0  0  0  0  0
    2.9185    2.6690   -2.8729 C   0  0  0  0  0  0  0  0  0  0  0  0
    4.3150   -0.5379   -4.3340 N   0  0  0  0  0  0  0  0  0  0  0  0
    0.0880    1.2318   -4.2463 N   0  0  0  0  0  0  0  0  0  0  0  0
    2.1395    0.5189   -2.2071 N   0  0  0  0  0  0  0  0  0  0  0  0
    1.7646    2.7806   -2.1342 N   0  0  0  0  0  0  0  0  0  0  0  0
    2.6168    5.8940   -0.8482 O   0  0  0  0  0  0  0  0  0  0  0  0
    2.4808    4.0054    0.3322 O   0  0  0  0  0  0  0  0  0  0  0  0
    3.5739    3.5834   -3.3348 O   0  0  0  0  0  0  0  0  0  0  0  0
   -0.8697    2.1325   -2.6394 H   0  0  0  0  0  0  0  0  0  0  0  0
    4.1750    1.0903   -2.2843 H   0  0  0  0  0  0  0  0  0  0  0  0
    0.8252    1.4720   -0.8488 H   0  0  0  0  0  0  0  0  0  0  0  0
   -0.2127   -0.8733   -2.5347 H   0  0  0  0  0  0  0  0  0  0  0  0
   -1.7749   -0.1721   -2.9768 H   0  0  0  0  0  0  0  0  0  0  0  0
   -1.1488    0.0300   -1.3340 H   0  0  0  0  0  0  0  0  0  0  0  0
    2.5789    0.4729   -4.8255 H   0  0  0  0  0  0  0  0  0  0  0  0
    4.0117    1.4577   -4.9314 H   0  0  0  0  0  0  0  0  0  0  0  0
    1.0905    4.7006   -2.6036 H   0  0  0  0  0  0  0  0  0  0  0  0
    0.2675    3.9318   -1.2154 H   0  0  0  0  0  0  0  0  0  0  0  0
    4.4097   -0.8585   -5.2966 H   0  0  0  0  0  0  0  0  0  0  0  0
    5.2574   -0.3308   -4.0067 H   0  0  0  0  0  0  0  0  0  0  0  0
    0.6399    2.0417   -4.5257 H   0  0  0  0  0  0  0  0  0  0  0  0
    0.6932    0.4207   -4.3922 H   0  0  0  0  0  0  0  0  0  0  0  0
    2.4963    0.1688   -1.3195 H   0  0  0  0  0  0  0  0  0  0  0  0
    3.0920    4.5717    0.8515 H   0  0  0  0  0  0  0  0  0  0  0  0
  1 19  1  0  0  0  0
  1 20  1  0  0  0  0
  1 21  1  0  0  0  0
  2 22  1  0  0  0  0
  2 23  1  0  0  0  0
  3 24  1  0  0  0  0
  3 25  1  0  0  0  0
  4  1  1  0  0  0  0
  4 10  1  0  0  0  0
  4 16  1  1  0  0  0
  5 17  1  1  0  0  0
  5  2  1  0  0  0  0
  6  3  1  0  0  0  0
  7 18  1  1  0  0  0
  7  4  1  0  0  0  0
  8  5  1  0  0  0  0
  9  2  1  0  0  0  0
  9 26  1  0  0  0  0
  9 27  1  0  0  0  0
 10 28  1  0  0  0  0
 10 29  1  0  0  0  0
 11  5  1  0  0  0  0
 11  7  1  0  0  0  0
 11 30  1  0  0  0  0
 12  3  1  0  0  0  0
 12  7  1  0  0  0  0
 12  8  1  0  0  0  0
 13  6  2  0  0  0  0
 14  6  1  0  0  0  0
 14 31  1  0  0  0  0
 15  8  2  0  0  0  0
M  END
>  <DRUGBANK_ID>
DB03094

>  <SECONDARY_ACCESSION_NUMBERS>
EXPT00055

>  <COMMON_NAME>
3,5-Dihydro-5-Methylidene-4h-Imidazol-4-On

$$$$
