
 OpenBabel10282417123D

 20 20  0  0  0  0  0  0  0  0999 V2000
    1.0564   -0.0240   -0.0075 C   0  0  0  0  0  0  0  0  0  0  0  0
    0.5875   -0.7872    1.1957 C   0  0  0  0  0  0  0  0  0  0  0  0
    0.9003   -2.1406    1.3102 C   0  0  0  0  0  0  0  0  0  0  0  0
    0.4703   -2.8703    2.4171 C   0  0  0  0  0  0  0  0  0  0  0  0
   -0.3547   -2.2760    3.3859 C   0  0  0  0  0  0  0  0  0  0  0  0
   -0.9065   -3.1285    4.4944 C   0  0  0  0  0  0  0  0  0  0  0  0
   -0.6958   -0.9183    3.2727 C   0  0  0  0  0  0  0  0  0  0  0  0
   -1.3813   -0.2544    4.3053 N   0  0  0  0  0  0  0  0  0  0  0  0
   -0.1536   -0.1693    2.2159 C   0  0  0  0  0  0  0  0  0  0  0  0
    0.6916    1.0075   -0.0034 H   0  0  0  0  0  0  0  0  0  0  0  0
    0.6830   -0.5037   -0.9196 H   0  0  0  0  0  0  0  0  0  0  0  0
    2.1501   -0.0037   -0.0395 H   0  0  0  0  0  0  0  0  0  0  0  0
    1.4864   -2.6369    0.5391 H   0  0  0  0  0  0  0  0  0  0  0  0
    0.7758   -3.9081    2.5141 H   0  0  0  0  0  0  0  0  0  0  0  0
   -0.6222   -2.7269    5.4712 H   0  0  0  0  0  0  0  0  0  0  0  0
   -1.9992   -3.1620    4.4162 H   0  0  0  0  0  0  0  0  0  0  0  0
   -0.5440   -4.1593    4.4335 H   0  0  0  0  0  0  0  0  0  0  0  0
   -2.0015   -0.8566    4.8381 H   0  0  0  0  0  0  0  0  0  0  0  0
   -1.8396    0.6020    4.0174 H   0  0  0  0  0  0  0  0  0  0  0  0
   -0.3284    0.9017    2.1762 H   0  0  0  0  0  0  0  0  0  0  0  0
  1  2  1  0  0  0  0
  1 10  1  0  0  0  0
  1 11  1  0  0  0  0
  1 12  1  0  0  0  0
  2  3  2  0  0  0  0
  2  9  1  0  0  0  0
  3  4  1  0  0  0  0
  3 13  1  0  0  0  0
  4  5  2  0  0  0  0
  4 14  1  0  0  0  0
  5  6  1  0  0  0  0
  5  7  1  0  0  0  0
  6 15  1  0  0  0  0
  6 16  1  0  0  0  0
  6 17  1  0  0  0  0
  7  8  1  0  0  0  0
  7  9  2  0  0  0  0
  8 18  1  0  0  0  0
  8 19  1  0  0  0  0
  9 20  1  0  0  0  0
M  END
>  <DRUGBANK_ID>
DB02163

>  <SECONDARY_ACCESSION_NUMBERS>
EXPT03265

>  <COMMON_NAME>
2,5-Xylidine

>  <CAS_NUMBER>
95-78-3

>  <UNII>
XWK0W8DA04

$$$$
