CQW
 OpenBabel10282417163D

 30 33  0  0  0  0  0  0  0  0999 V2000
   -0.9474    0.7840   -0.0540 C   0  0  0  0  0  0  0  0  0  0  0  0
   -2.8008   -0.4178   -0.0547 C   0  0  0  0  0  0  0  0  0  0  0  0
   -0.1279   -0.3397   -0.1071 C   0  0  0  0  0  0  0  0  0  0  0  0
    0.2727   -5.3510    1.1308 C   0  0  0  0  0  0  0  0  0  0  0  0
   -0.1657    1.9054   -0.0249 N   0  0  0  0  0  0  0  0  0  0  0  0
    0.2464   -4.2121    2.0793 C   0  0  0  0  0  0  0  0  0  0  0  0
    2.6633   -0.7092   -0.0943 Cl  0  0  0  0  0  0  0  0  0  0  0  0
    1.2079    0.1695   -0.0667 C   0  0  0  0  0  0  0  0  0  0  0  0
    1.1514    1.5461   -0.0195 C   0  0  0  0  0  0  0  0  0  0  0  0
   -2.2846    0.8192   -0.0140 N   0  0  0  0  0  0  0  0  0  0  0  0
   -0.7757   -1.6034   -0.1451 C   0  0  0  0  0  0  0  0  0  0  0  0
   -2.1407   -1.5939   -0.1348 N   0  0  0  0  0  0  0  0  0  0  0  0
   -0.1425   -2.8029    0.0774 N   0  0  0  0  0  0  0  0  0  0  0  0
    0.0900   -3.8776   -0.9248 C   0  0  0  0  0  0  0  0  0  0  0  0
    0.2008   -5.2362   -0.2451 C   0  0  0  0  0  0  0  0  0  0  0  0
    0.2706   -6.4802   -0.8209 N   0  0  0  0  0  0  0  0  0  0  0  0
    0.3306   -7.3260    0.1952 C   0  0  0  0  0  0  0  0  0  0  0  0
    0.3279   -6.6776    1.4018 N   0  0  0  0  0  0  0  0  0  0  0  0
    0.6331   -2.9259    1.3173 C   0  0  0  0  0  0  0  0  0  0  0  0
   -3.8848   -0.4718    0.0060 H   0  0  0  0  0  0  0  0  0  0  0  0
   -0.5327    2.8466   -0.0040 H   0  0  0  0  0  0  0  0  0  0  0  0
    0.9497   -4.3658    2.9027 H   0  0  0  0  0  0  0  0  0  0  0  0
   -0.7634   -4.1081    2.4905 H   0  0  0  0  0  0  0  0  0  0  0  0
    1.9371    2.2885    0.0086 H   0  0  0  0  0  0  0  0  0  0  0  0
   -0.6767   -3.9082   -1.7065 H   0  0  0  0  0  0  0  0  0  0  0  0
    1.0554   -3.6798   -1.4127 H   0  0  0  0  0  0  0  0  0  0  0  0
    0.3711   -8.4045    0.1309 H   0  0  0  0  0  0  0  0  0  0  0  0
    0.3494   -7.1131    2.3195 H   0  0  0  0  0  0  0  0  0  0  0  0
    1.6938   -2.9863    1.0512 H   0  0  0  0  0  0  0  0  0  0  0  0
    0.4957   -2.0657    1.9805 H   0  0  0  0  0  0  0  0  0  0  0  0
  1  3  2  0  0  0  0
  1  5  1  0  0  0  0
  1 10  1  0  0  0  0
  2 10  2  0  0  0  0
  2 12  1  0  0  0  0
  2 20  1  0  0  0  0
  3  8  1  0  0  0  0
  3 11  1  0  0  0  0
  4  6  1  0  0  0  0
  4 15  2  0  0  0  0
  4 18  1  0  0  0  0
  5  9  1  0  0  0  0
  5 21  1  0  0  0  0
  6 19  1  0  0  0  0
  6 22  1  0  0  0  0
  6 23  1  0  0  0  0
  7  8  1  0  0  0  0
  8  9  2  0  0  0  0
  9 24  1  0  0  0  0
 11 12  2  0  0  0  0
 11 13  1  0  0  0  0
 13 14  1  0  0  0  0
 13 19  1  0  0  0  0
 14 15  1  0  0  0  0
 14 25  1  0  0  0  0
 14 26  1  0  0  0  0
 15 16  1  0  0  0  0
 16 17  2  0  0  0  0
 17 18  1  0  0  0  0
 17 27  1  0  0  0  0
 18 28  1  0  0  0  0
 19 29  1  0  0  0  0
 19 30  1  0  0  0  0
M  END
>  <DRUGBANK_ID>
DB07585

>  <COMMON_NAME>
5-(5-chloro-7H-pyrrolo[2,3-d]pyrimidin-4-yl)-4,5,6,7-tetrahydro-1H-imidazo[4,5-c]pyridine

$$$$
