1433
 OpenBabel10282417113D

 57 58  0  0  1  0  0  0  0  0999 V2000
    1.1680    0.0164    0.0338 O   0  0  0  0  0  0  0  0  0  0  0  0
    2.8136   -1.4899   -0.1934 O   0  0  0  0  0  0  0  0  0  0  0  0
    1.7480    4.5843    0.4703 N   0  0  0  0  0  0  0  0  0  0  0  0
    0.5465    1.9369    1.8717 C   0  0  0  0  0  0  0  0  0  0  0  0
    2.0307    2.3628    1.9700 C   0  0  0  0  0  0  0  0  0  0  0  0
    0.3155    1.2320    0.2884 C   0  0  3  0  0  0  0  0  0  0  0  0
    2.5500    3.3681    0.8053 C   0  0  3  0  0  0  0  0  0  0  0  0
   -0.2426    3.2325    2.4840 C   0  0  0  0  0  0  0  0  0  0  0  0
    0.2969    0.7563    2.8931 C   0  0  0  0  0  0  0  0  0  0  0  0
    0.3665    1.9798   -1.0546 C   0  0  0  0  0  0  0  0  0  0  0  0
    4.0832    3.6191    0.9150 C   0  0  0  0  0  0  0  0  0  0  0  0
   -1.5949    3.1481    2.7793 C   0  0  0  0  0  0  0  0  0  0  0  0
    0.1723   -0.6041    2.5435 C   0  0  0  0  0  0  0  0  0  0  0  0
    0.3496    4.5275    2.7316 C   0  0  0  0  0  0  0  0  0  0  0  0
    0.2557    1.0613    4.2626 C   0  0  0  0  0  0  0  0  0  0  0  0
    0.1128    1.3750   -2.4028 C   0  0  0  0  0  0  0  0  0  0  0  0
    2.3053    5.5783   -0.4065 C   0  0  0  0  0  0  0  0  0  0  0  0
    0.3530    4.4762    0.0155 C   0  0  0  0  0  0  0  0  0  0  0  0
   -2.3199    4.3084    3.0911 C   0  0  0  0  0  0  0  0  0  0  0  0
    0.1517   -1.6070    3.5068 C   0  0  0  0  0  0  0  0  0  0  0  0
   -0.4089    5.7004    2.7901 C   0  0  0  0  0  0  0  0  0  0  0  0
    0.2156    0.0671    5.2272 C   0  0  0  0  0  0  0  0  0  0  0  0
    2.4648   -0.2893   -0.1083 C   0  0  0  0  0  0  0  0  0  0  0  0
   -1.7645    5.5836    2.9572 C   0  0  0  0  0  0  0  0  0  0  0  0
    0.1719   -1.2674    4.8494 C   0  0  0  0  0  0  0  0  0  0  0  0
    3.5203    0.7349   -0.1650 C   0  0  0  0  0  0  0  0  0  0  0  0
    2.2899    2.7645    2.9594 H   0  0  0  0  0  0  0  0  0  0  0  0
    2.5384    1.3985    2.0517 H   0  0  0  0  0  0  0  0  0  0  0  0
   -0.7186    0.8515    0.3278 H   0  0  0  0  0  0  0  0  0  0  0  0
    2.5190    2.8399   -0.1098 H   0  0  0  0  0  0  0  0  0  0  0  0
   -0.4360    2.7011   -1.0719 H   0  0  0  0  0  0  0  0  0  0  0  0
    1.3457    2.3910   -1.2318 H   0  0  0  0  0  0  0  0  0  0  0  0
    4.7023    2.7270    0.7668 H   0  0  0  0  0  0  0  0  0  0  0  0
    4.4296    4.2385    0.0847 H   0  0  0  0  0  0  0  0  0  0  0  0
    4.3778    4.0495    1.8693 H   0  0  0  0  0  0  0  0  0  0  0  0
   -2.0862    2.1812    2.7821 H   0  0  0  0  0  0  0  0  0  0  0  0
    0.1087   -0.9764    1.5279 H   0  0  0  0  0  0  0  0  0  0  0  0
    1.4054    4.7549    2.5883 H   0  0  0  0  0  0  0  0  0  0  0  0
    0.2519    2.0930    4.6057 H   0  0  0  0  0  0  0  0  0  0  0  0
   -0.9546    1.1878   -2.5136 H   0  0  0  0  0  0  0  0  0  0  0  0
    0.3828    2.1628   -3.1281 H   0  0  0  0  0  0  0  0  0  0  0  0
    0.7245    0.5016   -2.6027 H   0  0  0  0  0  0  0  0  0  0  0  0
    2.1865    5.2660   -1.4494 H   0  0  0  0  0  0  0  0  0  0  0  0
    1.7267    6.4907   -0.2285 H   0  0  0  0  0  0  0  0  0  0  0  0
    3.3380    5.8272   -0.2029 H   0  0  0  0  0  0  0  0  0  0  0  0
    0.2235    4.5027   -1.0682 H   0  0  0  0  0  0  0  0  0  0  0  0
   -0.1174    3.5924    0.3885 H   0  0  0  0  0  0  0  0  0  0  0  0
   -0.3222    5.2465    0.3859 H   0  0  0  0  0  0  0  0  0  0  0  0
   -3.3560    4.2140    3.3860 H   0  0  0  0  0  0  0  0  0  0  0  0
    0.1470   -2.6472    3.1892 H   0  0  0  0  0  0  0  0  0  0  0  0
    0.0576    6.6584    2.5428 H   0  0  0  0  0  0  0  0  0  0  0  0
    0.2521    0.3573    6.2705 H   0  0  0  0  0  0  0  0  0  0  0  0
   -2.3769    6.4782    2.9549 H   0  0  0  0  0  0  0  0  0  0  0  0
    0.1489   -2.0433    5.6036 H   0  0  0  0  0  0  0  0  0  0  0  0
    3.3502    1.4495   -0.9661 H   0  0  0  0  0  0  0  0  0  0  0  0
    3.6634    1.1435    0.8159 H   0  0  0  0  0  0  0  0  0  0  0  0
    4.5195    0.3342   -0.3204 H   0  0  0  0  0  0  0  0  0  0  0  0
  1  6  1  0  0  0  0
  1 23  1  0  0  0  0
  2 23  2  0  0  0  0
  3  7  1  0  0  0  0
  3 17  1  0  0  0  0
  3 18  1  0  0  0  0
  4  5  1  0  0  0  0
  4  6  1  0  0  0  0
  4  8  1  0  0  0  0
  4  9  1  0  0  0  0
  5  7  1  0  0  0  0
  5 27  1  0  0  0  0
  5 28  1  0  0  0  0
  6 10  1  0  0  0  0
  6 29  1  0  0  0  0
  7 11  1  0  0  0  0
  7 30  1  0  0  0  0
  8 12  2  0  0  0  0
  8 14  1  0  0  0  0
  9 13  2  0  0  0  0
  9 15  1  0  0  0  0
 10 16  1  0  0  0  0
 10 31  1  0  0  0  0
 10 32  1  0  0  0  0
 11 33  1  0  0  0  0
 11 34  1  0  0  0  0
 11 35  1  0  0  0  0
 12 19  1  0  0  0  0
 12 36  1  0  0  0  0
 13 20  1  0  0  0  0
 13 37  1  0  0  0  0
 14 21  2  0  0  0  0
 14 38  1  0  0  0  0
 15 22  2  0  0  0  0
 15 39  1  0  0  0  0
 16 40  1  0  0  0  0
 16 41  1  0  0  0  0
 16 42  1  0  0  0  0
 17 43  1  0  0  0  0
 17 44  1  0  0  0  0
 17 45  1  0  0  0  0
 18 46  1  0  0  0  0
 18 47  1  0  0  0  0
 18 48  1  0  0  0  0
 19 24  2  0  0  0  0
 19 49  1  0  0  0  0
 20 25  2  0  0  0  0
 20 50  1  0  0  0  0
 21 24  1  0  0  0  0
 21 51  1  0  0  0  0
 22 25  1  0  0  0  0
 22 52  1  0  0  0  0
 23 26  1  0  0  0  0
 24 53  1  0  0  0  0
 25 54  1  0  0  0  0
 26 55  1  0  0  0  0
 26 56  1  0  0  0  0
 26 57  1  0  0  0  0
M  END
>  <DRUGBANK_ID>
DB01433

>  <COMMON_NAME>
Methadyl acetate

>  <CAS_NUMBER>
509-74-0

>  <UNII>
L59OC40KWJ

>  <SYNONYMS>
Acetilmetadol; Acetylmethadol; Acetylmethadolum; Methadyl acetate

$$$$
