367
 OpenBabel10282417163D

 51 53  0  0  0  0  0  0  0  0999 V2000
    0.0440   -0.3984    0.3113 C   0  0  0  0  0  0  0  0  0  0  0  0
    1.2047   -1.3236    0.1469 C   0  0  0  0  0  0  0  0  0  0  0  0
    2.4433   -0.7015   -0.0242 C   0  0  0  0  0  0  0  0  0  0  0  0
    2.5102    0.7058   -0.0394 C   0  0  0  0  0  0  0  0  0  0  0  0
    1.3566    1.5068   -0.0119 C   0  0  0  0  0  0  0  0  0  0  0  0
    0.0927    0.9658    0.0756 C   0  0  0  0  0  0  0  0  0  0  0  0
   -1.2489   -0.6564    0.7716 C   0  0  0  0  0  0  0  0  0  0  0  0
   -2.5944   -0.0243    0.2565 C   0  0  0  0  0  0  0  0  0  0  0  0
   -1.1144    1.7688    0.0100 C   0  0  0  0  0  0  0  0  0  0  0  0
   -2.4282    1.3026    0.0312 C   0  0  0  0  0  0  0  0  0  0  0  0
   -4.0649   -0.7779   -0.6378 C   0  0  0  0  0  0  0  0  0  0  0  0
   -5.1941   -0.0381   -0.5237 N   0  0  0  0  0  0  0  0  0  0  0  0
   -4.2835   -2.3575   -1.1884 N   0  0  0  0  0  0  0  0  0  0  0  0
    1.2154   -2.8068    0.1344 N   0  0  0  0  0  0  0  0  0  0  0  0
    0.2606   -3.8220    0.1396 C   0  0  0  0  0  0  0  0  0  0  0  0
    0.4530   -5.0243    0.2176 O   0  0  0  0  0  0  0  0  0  0  0  0
   -1.1211   -3.5342   -0.0518 C   0  0  0  0  0  0  0  0  0  0  0  0
   -1.1677   -2.7332   -1.1734 C   0  0  0  0  0  0  0  0  0  0  0  0
   -2.2708   -2.0370   -0.7430 C   0  0  0  0  0  0  0  0  0  0  0  0
   -3.1982   -2.2677    0.6790 C   0  0  0  0  0  0  0  0  0  0  0  0
   -3.2259   -3.2513    1.6144 C   0  0  0  0  0  0  0  0  0  0  0  0
   -2.0984   -3.8838    1.1906 C   0  0  0  0  0  0  0  0  0  0  0  0
   -4.8989   -3.7790    2.1066 S   0  0  0  0  0  0  0  0  0  0  0  0
   -5.2109   -5.0613    1.0939 O   0  0  0  0  0  0  0  0  0  0  0  0
   -4.7347   -4.2285    3.4898 O   0  0  0  0  0  0  0  0  0  0  0  0
   -5.8854   -2.7459    1.9189 O   0  0  0  0  0  0  0  0  0  0  0  0
   -5.3394   -5.1581   -0.3609 C   0  0  0  0  0  0  0  0  0  0  0  0
   -6.6365   -4.5848   -1.0398 C   0  0  0  0  0  0  0  0  0  0  0  0
   -6.8505   -3.0981   -0.9155 C   0  0  0  0  0  0  0  0  0  0  0  0
   -6.2921   -2.4626   -2.0445 O   0  0  0  0  0  0  0  0  0  0  0  0
    3.3758   -1.2630   -0.0952 H   0  0  0  0  0  0  0  0  0  0  0  0
    3.4709    1.2123   -0.0663 H   0  0  0  0  0  0  0  0  0  0  0  0
    1.4281    2.5911    0.0034 H   0  0  0  0  0  0  0  0  0  0  0  0
   -1.1631   -1.6462    1.2164 H   0  0  0  0  0  0  0  0  0  0  0  0
   -1.0231    2.8378   -0.1414 H   0  0  0  0  0  0  0  0  0  0  0  0
   -3.3054    1.8767   -0.1585 H   0  0  0  0  0  0  0  0  0  0  0  0
   -4.9590    0.7724    0.0065 H   0  0  0  0  0  0  0  0  0  0  0  0
   -3.5444   -3.1292   -1.1876 H   0  0  0  0  0  0  0  0  0  0  0  0
   -4.7724   -2.9285   -0.4719 H   0  0  0  0  0  0  0  0  0  0  0  0
    2.1261   -3.2525    0.0701 H   0  0  0  0  0  0  0  0  0  0  0  0
   -0.5391   -2.2070   -1.8528 H   0  0  0  0  0  0  0  0  0  0  0  0
   -2.4505   -1.2630   -1.5922 H   0  0  0  0  0  0  0  0  0  0  0  0
   -4.2195   -1.7948    0.8802 H   0  0  0  0  0  0  0  0  0  0  0  0
   -1.6983   -4.4758    2.0021 H   0  0  0  0  0  0  0  0  0  0  0  0
   -4.4155   -4.9134   -0.9068 H   0  0  0  0  0  0  0  0  0  0  0  0
   -5.3803   -6.2438   -0.5726 H   0  0  0  0  0  0  0  0  0  0  0  0
   -6.6279   -4.8094   -2.1178 H   0  0  0  0  0  0  0  0  0  0  0  0
   -7.4843   -5.0569   -0.5521 H   0  0  0  0  0  0  0  0  0  0  0  0
   -7.8299   -2.6515   -0.8616 H   0  0  0  0  0  0  0  0  0  0  0  0
   -6.4374   -2.8652    0.0410 H   0  0  0  0  0  0  0  0  0  0  0  0
   -5.3137   -2.5760   -2.0231 H   0  0  0  0  0  0  0  0  0  0  0  0
  1  2  2  0  0  0  0
  1  6  1  0  0  0  0
  1  7  1  0  0  0  0
  2  3  1  0  0  0  0
  2 14  1  0  0  0  0
  3  4  2  0  0  0  0
  3 31  1  0  0  0  0
  4  5  1  0  0  0  0
  4 32  1  0  0  0  0
  5  6  2  0  0  0  0
  5 33  1  0  0  0  0
  6  9  1  0  0  0  0
  7  8  2  0  0  0  0
  7 34  1  0  0  0  0
  8 10  1  0  0  0  0
  8 11  1  0  0  0  0
  9 10  2  0  0  0  0
  9 35  1  0  0  0  0
 10 36  1  0  0  0  0
 11 12  2  0  0  0  0
 11 13  1  0  0  0  0
 12 37  1  0  0  0  0
 13 38  1  0  0  0  0
 13 39  1  0  0  0  0
 14 15  1  0  0  0  0
 14 40  1  0  0  0  0
 15 16  2  0  0  0  0
 15 17  1  0  0  0  0
 17 18  2  0  0  0  0
 17 22  1  0  0  0  0
 18 19  1  0  0  0  0
 18 41  1  0  0  0  0
 19 20  2  0  0  0  0
 19 42  1  0  0  0  0
 20 21  1  0  0  0  0
 20 43  1  0  0  0  0
 21 22  2  0  0  0  0
 21 23  1  0  0  0  0
 22 44  1  0  0  0  0
 23 24  1  0  0  0  0
 23 25  2  0  0  0  0
 23 26  2  0  0  0  0
 24 27  1  0  0  0  0
 27 28  1  0  0  0  0
 27 45  1  0  0  0  0
 27 46  1  0  0  0  0
 28 29  1  0  0  0  0
 28 47  1  0  0  0  0
 28 48  1  0  0  0  0
 29 30  1  0  0  0  0
 29 49  1  0  0  0  0
 29 50  1  0  0  0  0
 30 51  1  0  0  0  0
M  END
>  <DRUGBANK_ID>
DB07022

>  <COMMON_NAME>
3-Hydroxypropyl 3-[(7-carbamimidoyl-1-naphthyl)carbamoyl]benzenesulfonate

$$$$
