
 OpenBabel10282417173D

 32 33  0  0  0  0  0  0  0  0999 V2000
    0.1175    1.7207    0.7505 C   0  0  0  0  0  0  0  0  0  0  0  0
   -0.0571    1.7128   -0.7361 C   0  0  3  0  0  0  0  0  0  0  0  0
    0.0282    0.4064    0.0237 C   0  0  0  0  0  0  0  0  0  0  0  0
    3.5645    2.7024   -6.0847 C   0  0  0  0  0  0  0  0  0  0  0  0
    4.2028    1.3193   -5.7408 C   0  0  0  0  0  0  0  0  0  0  0  0
    0.9789    2.1428   -1.7271 C   0  0  0  0  0  0  0  0  0  0  0  0
    3.3385    3.5376   -4.9287 O   0  0  0  0  0  0  0  0  0  0  0  0
    3.5259    0.2206   -6.1514 O   0  0  0  0  0  0  0  0  0  0  0  0
    1.0795    1.4081   -2.9028 C   0  0  0  0  0  0  0  0  0  0  0  0
    1.7162    3.3356   -1.6500 C   0  0  0  0  0  0  0  0  0  0  0  0
    2.5589    3.0468   -3.9119 C   0  0  0  0  0  0  0  0  0  0  0  0
    5.2591    1.1924   -5.1214 O   0  0  0  0  0  0  0  0  0  0  0  0
    2.4575    3.8104   -2.7503 C   0  0  0  0  0  0  0  0  0  0  0  0
    1.8591    1.8471   -3.9570 C   0  0  0  0  0  0  0  0  0  0  0  0
   -1.4658   -0.5290    0.0978 Cl  0  0  0  0  0  0  0  0  0  0  0  0
    1.4707   -0.5945    0.0097 Cl  0  0  0  0  0  0  0  0  0  0  0  0
    2.2885    2.6740   -6.9489 C   0  0  0  0  0  0  0  0  0  0  0  0
    4.6276    3.4107   -6.9562 C   0  0  0  0  0  0  0  0  0  0  0  0
   -0.7330    2.0596    1.3301 H   0  0  0  0  0  0  0  0  0  0  0  0
    1.0732    1.9946    1.1788 H   0  0  0  0  0  0  0  0  0  0  0  0
   -1.0581    1.9534   -1.0928 H   0  0  0  0  0  0  0  0  0  0  0  0
    2.6618    0.3576   -6.5786 H   0  0  0  0  0  0  0  0  0  0  0  0
    0.5148    0.4871   -3.0331 H   0  0  0  0  0  0  0  0  0  0  0  0
    1.6859    3.9294   -0.7394 H   0  0  0  0  0  0  0  0  0  0  0  0
    2.9349    4.7869   -2.6935 H   0  0  0  0  0  0  0  0  0  0  0  0
    1.8394    1.1934   -4.8075 H   0  0  0  0  0  0  0  0  0  0  0  0
    1.9743    3.6921   -7.2037 H   0  0  0  0  0  0  0  0  0  0  0  0
    2.4392    2.1000   -7.8670 H   0  0  0  0  0  0  0  0  0  0  0  0
    1.4239    2.2386   -6.4455 H   0  0  0  0  0  0  0  0  0  0  0  0
    4.3060    4.4202   -7.2361 H   0  0  0  0  0  0  0  0  0  0  0  0
    5.5832    3.5203   -6.4313 H   0  0  0  0  0  0  0  0  0  0  0  0
    4.8179    2.8440   -7.8769 H   0  0  0  0  0  0  0  0  0  0  0  0
  1 19  1  0  0  0  0
  1 20  1  0  0  0  0
  2  1  1  0  0  0  0
  2 21  1  0  0  0  0
  3  1  1  0  0  0  0
  3  2  1  0  0  0  0
  3 15  1  0  0  0  0
  3 16  1  0  0  0  0
  4 17  1  0  0  0  0
  4 18  1  0  0  0  0
  5  4  1  0  0  0  0
  6  2  1  0  0  0  0
  7  4  1  0  0  0  0
  8  5  1  0  0  0  0
  8 22  1  0  0  0  0
  9  6  2  0  0  0  0
  9 23  1  0  0  0  0
 10  6  1  0  0  0  0
 10 24  1  0  0  0  0
 11  7  1  0  0  0  0
 12  5  2  0  0  0  0
 13 10  2  0  0  0  0
 13 11  1  0  0  0  0
 13 25  1  0  0  0  0
 14  9  1  0  0  0  0
 14 11  2  0  0  0  0
 14 26  1  0  0  0  0
 17 27  1  0  0  0  0
 17 28  1  0  0  0  0
 17 29  1  0  0  0  0
 18 30  1  0  0  0  0
 18 31  1  0  0  0  0
 18 32  1  0  0  0  0
M  END
>  <DRUGBANK_ID>
DB09064

>  <COMMON_NAME>
Ciprofibrate

>  <CAS_NUMBER>
52214-84-3

>  <UNII>
F8252JGO9S

>  <SYNONYMS>
Ciprofibrate; ciprofibrato

$$$$
