
 OpenBabel10282417203D

 69 73  0  0  1  0  0  0  0  0999 V2000
   -3.2101    0.9331   -0.5782 C   0  0  0  0  0  0  0  0  0  0  0  0
   -2.1230    0.3739    1.4452 C   0  0  0  0  0  0  0  0  0  0  0  0
    3.5354    3.4048    0.0229 C   0  0  0  0  0  0  0  0  0  0  0  0
   -1.6045   -0.8133   -5.0196 C   0  0  0  0  0  0  0  0  0  0  0  0
   -1.3972   -2.0486   -4.4047 C   0  0  0  0  0  0  0  0  0  0  0  0
   -1.7008    0.3226   -4.2465 C   0  0  0  0  0  0  0  0  0  0  0  0
   -2.5383   -2.4174    3.5433 C   0  0  0  0  0  0  0  0  0  0  0  0
   -3.5395   -1.4675    3.1006 C   0  0  0  0  0  0  0  0  0  0  0  0
   -1.3870   -2.1678   -3.0069 C   0  0  0  0  0  0  0  0  0  0  0  0
   -1.5220    0.2091   -2.8776 C   0  0  0  0  0  0  0  0  0  0  0  0
   -0.7955   -3.8850    1.3024 C   0  0  0  0  0  0  0  0  0  0  0  0
    0.5352   -2.2629    2.4110 C   0  0  0  0  0  0  0  0  0  0  0  0
   -0.8072   -4.6845    2.5017 C   0  0  0  0  0  0  0  0  0  0  0  0
    0.3536   -2.9584    3.6546 C   0  0  0  0  0  0  0  0  0  0  0  0
    3.1659   -0.1842   -0.0027 C   0  0  0  0  0  0  0  0  0  0  0  0
    2.1507   -1.1409   -0.0725 C   0  0  0  0  0  0  0  0  0  0  0  0
   -3.2287   -3.6768    2.9762 C   0  0  0  0  0  0  0  0  0  0  0  0
   -4.8170   -2.1750    3.4189 C   0  0  0  0  0  0  0  0  0  0  0  0
   -4.0279   -4.0096    5.0569 C   0  0  0  0  0  0  0  0  0  0  0  0
   -2.5140   -4.8011    5.3037 C   0  0  0  0  0  0  0  0  0  0  0  0
    1.5054    1.5717   -0.0586 C   0  0  0  0  0  0  0  0  0  0  0  0
   -0.1703   -2.6350    1.2362 C   0  0  0  0  0  0  0  0  0  0  0  0
   -1.4894   -1.0295   -2.2028 C   0  0  0  0  0  0  0  0  0  0  0  0
   -0.4643   -4.1105    3.7391 C   0  0  0  0  0  0  0  0  0  0  0  0
    2.8350    1.1594   -0.0006 C   0  0  0  0  0  0  0  0  0  0  0  0
    0.8125   -0.7211   -0.1085 C   0  0  0  0  0  0  0  0  0  0  0  0
    0.4828    0.6228   -0.1179 C   0  0  0  0  0  0  0  0  0  0  0  0
   -0.2458   -1.7941   -0.0766 C   0  0  2  0  0  0  0  0  0  0  0  0
   -1.5779   -1.1341   -0.6388 C   0  0  1  0  0  0  0  0  0  0  0  0
   -1.8727    0.2977   -0.0370 C   0  0  0  0  0  0  0  0  0  0  0  0
   -4.4708   -3.5965    3.6802 N   0  0  0  0  0  0  0  0  0  0  0  0
    3.8960    2.0300    0.0594 O   0  0  0  0  0  0  0  0  0  0  0  0
   -1.1453   -4.2559    4.9734 O   0  0  0  0  0  0  0  0  0  0  0  0
   -0.7615    1.1831   -0.2176 O   0  0  0  0  0  0  0  0  0  0  0  0
    0.0609   -2.5372   -0.8259 H   0  0  0  0  0  0  0  0  0  0  0  0
   -2.4331   -1.7915   -0.4235 H   0  0  0  0  0  0  0  0  0  0  0  0
   -3.4090    1.8828   -0.0643 H   0  0  0  0  0  0  0  0  0  0  0  0
   -3.2547    1.2009   -1.6301 H   0  0  0  0  0  0  0  0  0  0  0  0
   -4.0609    0.2611   -0.4031 H   0  0  0  0  0  0  0  0  0  0  0  0
   -1.4239   -0.2286    2.0162 H   0  0  0  0  0  0  0  0  0  0  0  0
   -2.0799    1.3848    1.8594 H   0  0  0  0  0  0  0  0  0  0  0  0
   -3.1653    0.1151    1.5721 H   0  0  0  0  0  0  0  0  0  0  0  0
    2.9997    3.6485   -0.9032 H   0  0  0  0  0  0  0  0  0  0  0  0
    2.9380    3.6734    0.9026 H   0  0  0  0  0  0  0  0  0  0  0  0
    4.4520    3.9947    0.0447 H   0  0  0  0  0  0  0  0  0  0  0  0
   -1.6608   -0.7233   -6.0986 H   0  0  0  0  0  0  0  0  0  0  0  0
   -1.2596   -2.9300   -5.0231 H   0  0  0  0  0  0  0  0  0  0  0  0
   -1.8947    1.3016   -4.6756 H   0  0  0  0  0  0  0  0  0  0  0  0
   -2.3715   -2.3023    4.6261 H   0  0  0  0  0  0  0  0  0  0  0  0
   -1.6496   -2.0849    3.0631 H   0  0  0  0  0  0  0  0  0  0  0  0
   -3.3510   -0.4855    3.5353 H   0  0  0  0  0  0  0  0  0  0  0  0
   -3.3794   -1.5278    2.0166 H   0  0  0  0  0  0  0  0  0  0  0  0
   -1.2705   -3.1549   -2.5686 H   0  0  0  0  0  0  0  0  0  0  0  0
   -1.4432    1.1598   -2.3610 H   0  0  0  0  0  0  0  0  0  0  0  0
   -1.4544   -4.1695    0.4773 H   0  0  0  0  0  0  0  0  0  0  0  0
    1.0735   -1.3144    2.4502 H   0  0  0  0  0  0  0  0  0  0  0  0
   -1.3957   -5.5985    2.4453 H   0  0  0  0  0  0  0  0  0  0  0  0
    0.6004   -2.4019    4.5609 H   0  0  0  0  0  0  0  0  0  0  0  0
    4.1943   -0.5190    0.0634 H   0  0  0  0  0  0  0  0  0  0  0  0
    2.3994   -2.1951   -0.0390 H   0  0  0  0  0  0  0  0  0  0  0  0
   -3.3503   -3.6638    1.8897 H   0  0  0  0  0  0  0  0  0  0  0  0
   -2.8844   -4.6777    3.1755 H   0  0  0  0  0  0  0  0  0  0  0  0
   -5.3472   -1.6624    4.2122 H   0  0  0  0  0  0  0  0  0  0  0  0
   -5.3864   -2.1063    2.4798 H   0  0  0  0  0  0  0  0  0  0  0  0
   -4.7794   -4.7649    5.3300 H   0  0  0  0  0  0  0  0  0  0  0  0
   -4.1571   -3.1789    5.7594 H   0  0  0  0  0  0  0  0  0  0  0  0
   -2.5766   -5.8244    4.9217 H   0  0  0  0  0  0  0  0  0  0  0  0
   -2.5032   -4.8930    6.4015 H   0  0  0  0  0  0  0  0  0  0  0  0
    1.2011    2.6030   -0.0526 H   0  0  0  0  0  0  0  0  0  0  0  0
  1 37  1  0  0  0  0
  1 38  1  0  0  0  0
  1 39  1  0  0  0  0
  2 40  1  0  0  0  0
  2 41  1  0  0  0  0
  2 42  1  0  0  0  0
  3 43  1  0  0  0  0
  3 44  1  0  0  0  0
  3 45  1  0  0  0  0
  4 46  1  0  0  0  0
  5  4  2  0  0  0  0
  5 47  1  0  0  0  0
  6  4  1  0  0  0  0
  6 48  1  0  0  0  0
  7 49  1  0  0  0  0
  7 50  1  0  0  0  0
  8  7  1  0  0  0  0
  8 51  1  0  0  0  0
  8 52  1  0  0  0  0
  9  5  1  0  0  0  0
  9 53  1  0  0  0  0
 10  6  2  0  0  0  0
 10 54  1  0  0  0  0
 11 55  1  0  0  0  0
 12 56  1  0  0  0  0
 13 11  1  0  0  0  0
 13 57  1  0  0  0  0
 14 12  2  0  0  0  0
 14 58  1  0  0  0  0
 15 59  1  0  0  0  0
 16 15  2  0  0  0  0
 16 60  1  0  0  0  0
 17  7  1  0  0  0  0
 17 61  1  0  0  0  0
 17 62  1  0  0  0  0
 18  8  1  0  0  0  0
 18 63  1  0  0  0  0
 18 64  1  0  0  0  0
 19 65  1  0  0  0  0
 19 66  1  0  0  0  0
 20 19  1  0  0  0  0
 20 67  1  0  0  0  0
 20 68  1  0  0  0  0
 21 69  1  0  0  0  0
 22 11  2  0  0  0  0
 22 12  1  0  0  0  0
 23  9  2  0  0  0  0
 23 10  1  0  0  0  0
 24 13  2  0  0  0  0
 24 14  1  0  0  0  0
 25 15  1  0  0  0  0
 25 21  2  0  0  0  0
 26 16  1  0  0  0  0
 27 21  1  0  0  0  0
 27 26  2  0  0  0  0
 28 22  1  0  0  0  0
 28 26  1  0  0  0  0
 28 35  1  6  0  0  0
 29 28  1  0  0  0  0
 29 36  1  1  0  0  0
 29 23  1  0  0  0  0
 30  1  1  0  0  0  0
 30  2  1  0  0  0  0
 30 29  1  0  0  0  0
 31 17  1  0  0  0  0
 31 18  1  0  0  0  0
 31 19  1  0  0  0  0
 32  3  1  0  0  0  0
 32 25  1  0  0  0  0
 33 20  1  0  0  0  0
 33 24  1  0  0  0  0
 34 27  1  0  0  0  0
 34 30  1  0  0  0  0
M  END
>  <DRUGBANK_ID>
DB13310

>  <COMMON_NAME>
Ormeloxifene

>  <CAS_NUMBER>
31477-60-8

>  <UNII>
44AXY5VE90

>  <SYNONYMS>
Centchroman; Ormeloxifene

$$$$
