
 OpenBabel10282417173D

 86 91  0  0  0  0  0  0  0  0999 V2000
    1.2715   -1.3515    0.0048 C   0  0  0  0  0  0  0  0  0  0  0  0
    2.5250   -0.6748   -0.0160 C   0  0  0  0  0  0  0  0  0  0  0  0
    2.5433    0.7293   -0.0658 C   0  0  0  0  0  0  0  0  0  0  0  0
    1.2801    1.3902   -0.0219 C   0  0  0  0  0  0  0  0  0  0  0  0
    0.0252   -0.6787    0.0024 C   0  0  0  0  0  0  0  0  0  0  0  0
    0.0093    0.7339   -0.0004 C   0  0  0  0  0  0  0  0  0  0  0  0
   -1.2617    1.4047    0.0051 C   0  0  0  0  0  0  0  0  0  0  0  0
   -2.4582    0.6799    0.0042 C   0  0  0  0  0  0  0  0  0  0  0  0
   -2.4249   -0.7091    0.0031 C   0  0  0  0  0  0  0  0  0  0  0  0
   -1.1990   -1.3884    0.0041 C   0  0  0  0  0  0  0  0  0  0  0  0
    1.2780    2.7846    0.0045 O   0  0  0  0  0  0  0  0  0  0  0  0
    3.6443    1.6235   -0.1269 N   0  0  0  0  0  0  0  0  0  0  0  0
    4.7000    1.0477   -0.3711 N   0  0  0  0  0  0  0  0  0  0  0  0
    5.9028    1.7424   -0.1798 C   0  0  0  0  0  0  0  0  0  0  0  0
    6.9484    1.3526   -1.0293 C   0  0  0  0  0  0  0  0  0  0  0  0
    8.0980    2.1211   -1.1507 C   0  0  0  0  0  0  0  0  0  0  0  0
    8.3689    3.1000   -0.1995 C   0  0  0  0  0  0  0  0  0  0  0  0
    7.4188    3.3331    0.8117 C   0  0  0  0  0  0  0  0  0  0  0  0
    6.1628    2.7006    0.8054 C   0  0  0  0  0  0  0  0  0  0  0  0
    9.6333    3.8329   -0.1971 C   0  0  0  0  0  0  0  0  0  0  0  0
   10.5296    3.6570    0.8601 C   0  0  0  0  0  0  0  0  0  0  0  0
   11.7742    4.3037    0.8781 C   0  0  0  0  0  0  0  0  0  0  0  0
   12.0817    5.2749   -0.1010 C   0  0  0  0  0  0  0  0  0  0  0  0
   11.0918    5.5669   -1.0521 C   0  0  0  0  0  0  0  0  0  0  0  0
    9.9611    4.7531   -1.1926 C   0  0  0  0  0  0  0  0  0  0  0  0
   13.3453    5.9230   -0.2599 N   0  0  0  0  0  0  0  0  0  0  0  0
   14.0985    5.7612    0.7206 N   0  0  0  0  0  0  0  0  0  0  0  0
   15.2821    6.5055    0.6881 C   0  0  0  0  0  0  0  0  0  0  0  0
   16.5098    5.8125    0.8479 C   0  0  0  0  0  0  0  0  0  0  0  0
   15.3263    7.8922    0.6461 C   0  0  0  0  0  0  0  0  0  0  0  0
   16.5651    8.5643    0.6848 C   0  0  0  0  0  0  0  0  0  0  0  0
   13.8477    8.8820    0.5877 S   0  0  0  0  0  0  0  0  0  0  0  0
   14.0375    9.8640    1.8535 O   0  0  0  0  0  0  0  0  0  0  0  0
   13.9295    9.6799   -0.6256 O   0  0  0  0  0  0  0  0  0  0  0  0
   12.6664    8.1427    0.9358 O   0  0  0  0  0  0  0  0  0  0  0  0
   -1.3396    2.7941   -0.0021 N   0  0  0  0  0  0  0  0  0  0  0  0
   -3.9385   -1.6359    0.0025 S   0  0  0  0  0  0  0  0  0  0  0  0
   -4.0317   -2.3378   -1.2583 O   0  0  0  0  0  0  0  0  0  0  0  0
   -4.0315   -2.3366    1.2640 O   0  0  0  0  0  0  0  0  0  0  0  0
   -5.1373   -0.5521    0.0022 O   0  0  0  0  0  0  0  0  0  0  0  0
    3.9359   -1.7970    0.0413 S   0  0  0  0  0  0  0  0  0  0  0  0
    3.8063   -2.5641    1.2625 O   0  0  0  0  0  0  0  0  0  0  0  0
    3.9891   -2.4618   -1.2445 O   0  0  0  0  0  0  0  0  0  0  0  0
    5.3429   -1.0511    0.2127 O   0  0  0  0  0  0  0  0  0  0  0  0
    5.1500    3.1096    1.8318 C   0  0  0  0  0  0  0  0  0  0  0  0
   12.7497    3.8916    1.9394 C   0  0  0  0  0  0  0  0  0  0  0  0
   16.4837    4.4307    0.9786 O   0  0  0  0  0  0  0  0  0  0  0  0
   17.7907    7.8671    0.7844 C   0  0  0  0  0  0  0  0  0  0  0  0
   17.7876    6.4527    0.8812 C   0  0  0  0  0  0  0  0  0  0  0  0
   19.0500    5.7677    0.9759 C   0  0  0  0  0  0  0  0  0  0  0  0
   20.2523    6.4859    0.9895 C   0  0  0  0  0  0  0  0  0  0  0  0
   20.2315    7.8733    0.8768 C   0  0  0  0  0  0  0  0  0  0  0  0
   19.0171    8.5623    0.7859 C   0  0  0  0  0  0  0  0  0  0  0  0
   19.1041    4.3916    1.2316 N   0  0  0  0  0  0  0  0  0  0  0  0
   21.7761    8.7574    0.8436 S   0  0  0  0  0  0  0  0  0  0  0  0
   22.4793    8.3576    2.2430 O   0  0  0  0  0  0  0  0  0  0  0  0
   22.5686    8.2137   -0.2339 O   0  0  0  0  0  0  0  0  0  0  0  0
   21.4737   10.1707    0.9406 O   0  0  0  0  0  0  0  0  0  0  0  0
    1.2717   -2.4450    0.0168 H   0  0  0  0  0  0  0  0  0  0  0  0
   -3.4055    1.2127    0.0010 H   0  0  0  0  0  0  0  0  0  0  0  0
   -1.2034   -2.4786    0.0029 H   0  0  0  0  0  0  0  0  0  0  0  0
    2.2058    3.0847   -0.0081 H   0  0  0  0  0  0  0  0  0  0  0  0
    6.8547    0.4428   -1.6190 H   0  0  0  0  0  0  0  0  0  0  0  0
    8.7693    1.9362   -1.9850 H   0  0  0  0  0  0  0  0  0  0  0  0
    7.6493    4.0562    1.5939 H   0  0  0  0  0  0  0  0  0  0  0  0
   10.2757    2.9617    1.6592 H   0  0  0  0  0  0  0  0  0  0  0  0
   11.2009    6.4302   -1.7059 H   0  0  0  0  0  0  0  0  0  0  0  0
    9.3351    4.8575   -2.0764 H   0  0  0  0  0  0  0  0  0  0  0  0
   16.5703    9.6542    0.6178 H   0  0  0  0  0  0  0  0  0  0  0  0
   13.6449    9.3990    2.6264 H   0  0  0  0  0  0  0  0  0  0  0  0
   -2.2050    3.3091   -0.0014 H   0  0  0  0  0  0  0  0  0  0  0  0
   -0.4550    3.3009   -0.0015 H   0  0  0  0  0  0  0  0  0  0  0  0
   -5.9894   -1.0375    0.0023 H   0  0  0  0  0  0  0  0  0  0  0  0
    6.1073   -1.6158   -0.0035 H   0  0  0  0  0  0  0  0  0  0  0  0
    5.5685    3.0637    2.8402 H   0  0  0  0  0  0  0  0  0  0  0  0
    4.8104    4.1229    1.6006 H   0  0  0  0  0  0  0  0  0  0  0  0
    4.2737    2.4625    1.8603 H   0  0  0  0  0  0  0  0  0  0  0  0
   13.6494    3.5074    1.4508 H   0  0  0  0  0  0  0  0  0  0  0  0
   12.9842    4.7386    2.5925 H   0  0  0  0  0  0  0  0  0  0  0  0
   12.3739    3.0830    2.5679 H   0  0  0  0  0  0  0  0  0  0  0  0
   15.5592    4.1344    0.9141 H   0  0  0  0  0  0  0  0  0  0  0  0
   21.2008    5.9568    1.0647 H   0  0  0  0  0  0  0  0  0  0  0  0
   19.0277    9.6488    0.6988 H   0  0  0  0  0  0  0  0  0  0  0  0
   18.2281    3.8939    1.0562 H   0  0  0  0  0  0  0  0  0  0  0  0
   19.9564    3.8667    1.0892 H   0  0  0  0  0  0  0  0  0  0  0  0
   22.0596    8.8513    2.9762 H   0  0  0  0  0  0  0  0  0  0  0  0
  1  2  1  0  0  0  0
  1 59  1  0  0  0  0
  2 41  1  0  0  0  0
  2  3  2  0  0  0  0
  3  4  1  0  0  0  0
  3 12  1  0  0  0  0
  4  6  2  0  0  0  0
  4 11  1  0  0  0  0
  5  1  2  0  0  0  0
  5  6  1  0  0  0  0
  6  7  1  0  0  0  0
  7  8  2  0  0  0  0
  7 36  1  0  0  0  0
  8  9  1  0  0  0  0
  8 60  1  0  0  0  0
  9 10  2  0  0  0  0
  9 37  1  0  0  0  0
 10  5  1  0  0  0  0
 10 61  1  0  0  0  0
 11 62  1  0  0  0  0
 12 13  2  0  0  0  0
 13 14  1  0  0  0  0
 14 15  2  0  0  0  0
 15 16  1  0  0  0  0
 15 63  1  0  0  0  0
 16 17  2  0  0  0  0
 16 64  1  0  0  0  0
 17 18  1  0  0  0  0
 17 20  1  0  0  0  0
 18 19  2  0  0  0  0
 18 65  1  0  0  0  0
 19 14  1  0  0  0  0
 19 45  1  0  0  0  0
 20 21  2  0  0  0  0
 21 22  1  0  0  0  0
 21 66  1  0  0  0  0
 22 23  2  0  0  0  0
 22 46  1  0  0  0  0
 23 24  1  0  0  0  0
 23 26  1  0  0  0  0
 24 25  2  0  0  0  0
 24 67  1  0  0  0  0
 25 20  1  0  0  0  0
 25 68  1  0  0  0  0
 26 27  2  0  0  0  0
 27 28  1  0  0  0  0
 28 29  2  0  0  0  0
 29 49  1  0  0  0  0
 29 47  1  0  0  0  0
 30 28  1  0  0  0  0
 30 32  1  0  0  0  0
 31 30  2  0  0  0  0
 31 48  1  0  0  0  0
 31 69  1  0  0  0  0
 32 33  1  0  0  0  0
 32 34  2  0  0  0  0
 32 35  2  0  0  0  0
 33 70  1  0  0  0  0
 36 71  1  0  0  0  0
 36 72  1  0  0  0  0
 37 38  2  0  0  0  0
 37 39  2  0  0  0  0
 37 40  1  0  0  0  0
 40 73  1  0  0  0  0
 41 42  2  0  0  0  0
 41 43  2  0  0  0  0
 41 44  1  0  0  0  0
 44 74  1  0  0  0  0
 45 75  1  0  0  0  0
 45 76  1  0  0  0  0
 45 77  1  0  0  0  0
 46 78  1  0  0  0  0
 46 79  1  0  0  0  0
 46 80  1  0  0  0  0
 47 81  1  0  0  0  0
 48 49  1  0  0  0  0
 49 50  2  0  0  0  0
 50 51  1  0  0  0  0
 50 54  1  0  0  0  0
 51 52  2  0  0  0  0
 51 82  1  0  0  0  0
 52 53  1  0  0  0  0
 52 55  1  0  0  0  0
 53 48  2  0  0  0  0
 53 83  1  0  0  0  0
 54 84  1  0  0  0  0
 54 85  1  0  0  0  0
 55 56  1  0  0  0  0
 55 57  2  0  0  0  0
 55 58  2  0  0  0  0
 56 86  1  0  0  0  0
M  END
>  <DRUGBANK_ID>
DB09158

>  <COMMON_NAME>
Trypan blue free acid

>  <CAS_NUMBER>
2538-83-2

>  <UNII>
768N7QO4KH

$$$$
