
 OpenBabel10282417233D

 39 41  0  0  0  0  0  0  0  0999 V2000
    0.8430   -5.7181   -0.0145 C   0  0  0  0  0  0  0  0  0  0  0  0
    0.7696   -7.1498   -0.0081 N   0  3  0  0  0  0  0  0  0  0  0  0
   -0.3417   -7.6898   -0.0092 O   0  5  0  0  0  0  0  0  0  0  0  0
    1.8611   -7.7409    0.0045 O   0  0  0  0  0  0  0  0  0  0  0  0
   -0.3146   -4.9861   -0.0354 O   0  0  0  0  0  0  0  0  0  0  0  0
    0.0850   -3.6627   -0.0551 C   0  0  0  0  0  0  0  0  0  0  0  0
   -0.8366   -2.5619   -0.1485 C   0  0  0  0  0  0  0  0  0  0  0  0
   -2.1041   -2.7208   -0.3119 N   0  0  0  0  0  0  0  0  0  0  0  0
   -2.8402   -1.5785   -0.4213 N   0  0  0  0  0  0  0  0  0  0  0  0
   -2.7050   -0.4301   -1.1727 C   0  0  0  0  0  0  0  0  0  0  0  0
   -3.8129    0.3975   -0.9443 O   0  0  0  0  0  0  0  0  0  0  0  0
   -4.4305   -0.0243    0.2867 C   0  0  3  0  0  0  0  0  0  0  0  0
   -3.9465   -1.4626    0.3840 C   0  0  0  0  0  0  0  0  0  0  0  0
   -5.9960    0.2118    0.4522 C   0  0  0  0  0  0  0  0  0  0  0  0
   -6.7785   -0.1592    1.7031 N   0  0  0  0  0  0  0  0  0  0  0  0
   -6.3343    0.5660    2.9314 C   0  0  0  0  0  0  0  0  0  0  0  0
   -4.9452    0.1863    3.4790 C   0  0  0  0  0  0  0  0  0  0  0  0
   -4.9126   -1.2340    3.7664 O   0  0  0  0  0  0  0  0  0  0  0  0
   -5.4742   -1.9889    2.6924 C   0  0  0  0  0  0  0  0  0  0  0  0
   -6.7960   -1.6181    2.0337 C   0  0  0  0  0  0  0  0  0  0  0  0
   -1.8016   -0.1661   -1.9255 O   0  0  0  0  0  0  0  0  0  0  0  0
    1.4636   -3.5894   -0.0132 C   0  0  0  0  0  0  0  0  0  0  0  0
    1.9527   -4.9085   -0.0107 C   0  0  0  0  0  0  0  0  0  0  0  0
   -0.4021   -1.5513   -0.0593 H   0  0  0  0  0  0  0  0  0  0  0  0
   -3.9548    0.6255    1.0181 H   0  0  0  0  0  0  0  0  0  0  0  0
   -4.6952   -2.2054    0.0864 H   0  0  0  0  0  0  0  0  0  0  0  0
   -3.4737   -1.6819    1.3554 H   0  0  0  0  0  0  0  0  0  0  0  0
   -6.1763    1.2895    0.3076 H   0  0  0  0  0  0  0  0  0  0  0  0
   -6.5037   -0.2405   -0.4109 H   0  0  0  0  0  0  0  0  0  0  0  0
   -7.0336    0.2942    3.7338 H   0  0  0  0  0  0  0  0  0  0  0  0
   -6.4248    1.6436    2.7815 H   0  0  0  0  0  0  0  0  0  0  0  0
   -4.1297    0.4971    2.8191 H   0  0  0  0  0  0  0  0  0  0  0  0
   -4.7075    0.7119    4.4044 H   0  0  0  0  0  0  0  0  0  0  0  0
   -5.0765   -3.0021    2.5411 H   0  0  0  0  0  0  0  0  0  0  0  0
   -4.9649   -1.4774    1.9661 H   0  0  0  0  0  0  0  0  0  0  0  0
   -7.6060   -1.9093    2.7061 H   0  0  0  0  0  0  0  0  0  0  0  0
   -6.9372   -2.1811    1.0971 H   0  0  0  0  0  0  0  0  0  0  0  0
    2.0336   -2.6715   -0.0231 H   0  0  0  0  0  0  0  0  0  0  0  0
    2.9813   -5.2374   -0.0122 H   0  0  0  0  0  0  0  0  0  0  0  0
  2  1  1  0  0  0  0
  3  2  1  0  0  0  0
  4  2  2  0  0  0  0
  5  1  1  0  0  0  0
  6  5  1  0  0  0  0
  6 22  2  0  0  0  0
  7  6  1  0  0  0  0
  7 24  1  0  0  0  0
  8  7  2  0  0  0  0
  9  8  1  0  0  0  0
 10  9  1  0  0  0  0
 11 10  1  0  0  0  0
 11 12  1  0  0  0  0
 12 13  1  0  0  0  0
 12 14  1  0  0  0  0
 12 25  1  0  0  0  0
 13  9  1  0  0  0  0
 13 26  1  0  0  0  0
 13 27  1  0  0  0  0
 14 28  1  0  0  0  0
 14 29  1  0  0  0  0
 15 14  1  0  0  0  0
 16 15  1  0  0  0  0
 16 30  1  0  0  0  0
 16 31  1  0  0  0  0
 17 16  1  0  0  0  0
 17 32  1  0  0  0  0
 17 33  1  0  0  0  0
 18 17  1  0  0  0  0
 18 19  1  0  0  0  0
 19 20  1  0  0  0  0
 19 34  1  0  0  0  0
 19 35  1  0  0  0  0
 20 15  1  0  0  0  0
 20 36  1  0  0  0  0
 20 37  1  0  0  0  0
 21 10  2  0  0  0  0
 22 23  1  0  0  0  0
 22 38  1  0  0  0  0
 23  1  2  0  0  0  0
 23 39  1  0  0  0  0
M  CHG  2   2   1   3  -1
M  END
>  <DRUGBANK_ID>
DB16567

>  <COMMON_NAME>
Furaltadone

>  <CAS_NUMBER>
139-91-3

>  <UNII>
5X4V82ZN30

>  <SYNONYMS>
Furaltadona; Furaltadone

$$$$
