
 OpenBabel10282417193D

 51 54  0  0  0  0  0  0  0  0999 V2000
    1.4668   -0.2465    0.2296 C   0  0  0  0  0  0  0  0  0  0  0  0
    0.5918   -1.3328    0.1558 C   0  0  0  0  0  0  0  0  0  0  0  0
   -0.7955   -1.1664    0.2775 C   0  0  0  0  0  0  0  0  0  0  0  0
   -1.2807    0.1042    0.5313 C   0  0  0  0  0  0  0  0  0  0  0  0
   -0.3881    1.1634    0.7786 C   0  0  0  0  0  0  0  0  0  0  0  0
    0.9501    1.0437    0.3713 C   0  0  0  0  0  0  0  0  0  0  0  0
    1.7451    2.2427   -0.1732 C   0  0  0  0  0  0  0  0  0  0  0  0
    1.4149    2.8419   -1.5102 N   0  0  0  0  0  0  0  0  0  0  0  0
    0.0830    3.4716   -1.6406 C   0  0  0  0  0  0  0  0  0  0  0  0
   -1.0234    2.4416   -1.8926 C   0  0  0  0  0  0  0  0  0  0  0  0
   -0.7727    1.5141   -2.9511 O   0  0  0  0  0  0  0  0  0  0  0  0
    0.5138    0.8888   -2.7982 C   0  0  0  0  0  0  0  0  0  0  0  0
    1.6057    1.9519   -2.6776 C   0  0  0  0  0  0  0  0  0  0  0  0
   -1.7928   -2.2628    0.0790 C   0  0  0  0  0  0  0  0  0  0  0  0
   -2.9734   -2.0277   -0.0607 O   0  0  0  0  0  0  0  0  0  0  0  0
   -1.2647   -3.5357   -0.0261 N   0  0  0  0  0  0  0  0  0  0  0  0
   -0.3260   -4.0782    0.9671 C   0  0  0  0  0  0  0  0  0  0  0  0
    0.5903   -5.1194    0.3089 C   0  0  0  0  0  0  0  0  0  0  0  0
   -0.1905   -6.1694   -0.3716 N   0  0  0  0  0  0  0  0  0  0  0  0
   -1.0483   -5.5456   -1.4079 C   0  0  0  0  0  0  0  0  0  0  0  0
   -2.0131   -4.5104   -0.8206 C   0  0  0  0  0  0  0  0  0  0  0  0
   -0.9287   -7.0943    0.5306 C   0  0  0  0  0  0  0  0  0  0  0  0
   -2.0614   -6.7072    1.4570 C   0  0  0  0  0  0  0  0  0  0  0  0
   -0.7227   -7.0559    2.0315 C   0  0  0  0  0  0  0  0  0  0  0  0
    2.5211   -0.4132    0.0276 H   0  0  0  0  0  0  0  0  0  0  0  0
    1.0215   -2.2895   -0.1176 H   0  0  0  0  0  0  0  0  0  0  0  0
   -2.3410    0.3138    0.3568 H   0  0  0  0  0  0  0  0  0  0  0  0
   -0.8211    2.1464    0.9596 H   0  0  0  0  0  0  0  0  0  0  0  0
    1.7302    3.0366    0.5808 H   0  0  0  0  0  0  0  0  0  0  0  0
    2.7977    1.9348   -0.2396 H   0  0  0  0  0  0  0  0  0  0  0  0
    0.0853    4.1689   -2.4914 H   0  0  0  0  0  0  0  0  0  0  0  0
   -0.1281    4.0817   -0.7544 H   0  0  0  0  0  0  0  0  0  0  0  0
   -1.0766    1.8426   -1.0327 H   0  0  0  0  0  0  0  0  0  0  0  0
   -2.0362    2.8526   -1.9182 H   0  0  0  0  0  0  0  0  0  0  0  0
    0.6836    0.2232   -3.6474 H   0  0  0  0  0  0  0  0  0  0  0  0
    0.5228    0.2248   -1.9447 H   0  0  0  0  0  0  0  0  0  0  0  0
    1.5412    2.5625   -3.5918 H   0  0  0  0  0  0  0  0  0  0  0  0
    2.6086    1.5158   -2.6741 H   0  0  0  0  0  0  0  0  0  0  0  0
    0.2546   -3.3239    1.5014 H   0  0  0  0  0  0  0  0  0  0  0  0
   -0.9279   -4.4739    1.7817 H   0  0  0  0  0  0  0  0  0  0  0  0
    1.2335   -4.6161   -0.4272 H   0  0  0  0  0  0  0  0  0  0  0  0
    1.2931   -5.5643    1.0224 H   0  0  0  0  0  0  0  0  0  0  0  0
   -0.4020   -5.0301   -2.1363 H   0  0  0  0  0  0  0  0  0  0  0  0
   -1.5918   -6.3061   -1.9776 H   0  0  0  0  0  0  0  0  0  0  0  0
   -2.7835   -4.9810   -0.2090 H   0  0  0  0  0  0  0  0  0  0  0  0
   -2.5609   -3.9982   -1.6181 H   0  0  0  0  0  0  0  0  0  0  0  0
   -1.0555   -8.0744    0.0736 H   0  0  0  0  0  0  0  0  0  0  0  0
   -2.4220   -5.6974    1.5969 H   0  0  0  0  0  0  0  0  0  0  0  0
   -2.8849   -7.4021    1.5683 H   0  0  0  0  0  0  0  0  0  0  0  0
   -0.6461   -7.9649    2.6069 H   0  0  0  0  0  0  0  0  0  0  0  0
   -0.1196   -6.2721    2.4755 H   0  0  0  0  0  0  0  0  0  0  0  0
  1  2  2  0  0  0  0
  1  6  1  0  0  0  0
  1 25  1  0  0  0  0
  2  3  1  0  0  0  0
  2 26  1  0  0  0  0
  3  4  2  0  0  0  0
  3 14  1  0  0  0  0
  4  5  1  0  0  0  0
  4 27  1  0  0  0  0
  5  6  2  0  0  0  0
  5 28  1  0  0  0  0
  6  7  1  0  0  0  0
  7  8  1  0  0  0  0
  7 29  1  0  0  0  0
  7 30  1  0  0  0  0
  8  9  1  0  0  0  0
  8 13  1  0  0  0  0
  9 10  1  0  0  0  0
  9 31  1  0  0  0  0
  9 32  1  0  0  0  0
 10 11  1  0  0  0  0
 10 33  1  0  0  0  0
 10 34  1  0  0  0  0
 11 12  1  0  0  0  0
 12 13  1  0  0  0  0
 12 35  1  0  0  0  0
 12 36  1  0  0  0  0
 13 37  1  0  0  0  0
 13 38  1  0  0  0  0
 14 15  2  0  0  0  0
 14 16  1  0  0  0  0
 16 17  1  0  0  0  0
 16 21  1  0  0  0  0
 17 18  1  0  0  0  0
 17 39  1  0  0  0  0
 17 40  1  0  0  0  0
 18 19  1  0  0  0  0
 18 41  1  0  0  0  0
 18 42  1  0  0  0  0
 19 20  1  0  0  0  0
 19 22  1  0  0  0  0
 20 21  1  0  0  0  0
 20 43  1  0  0  0  0
 20 44  1  0  0  0  0
 21 45  1  0  0  0  0
 21 46  1  0  0  0  0
 22 23  1  0  0  0  0
 22 24  1  0  0  0  0
 22 47  1  0  0  0  0
 23 24  1  0  0  0  0
 23 48  1  0  0  0  0
 23 49  1  0  0  0  0
 24 50  1  0  0  0  0
 24 51  1  0  0  0  0
M  END
>  <DRUGBANK_ID>
DB12299

>  <COMMON_NAME>
Bavisant

>  <CAS_NUMBER>
929622-08-2

>  <UNII>
9827P7LFVH

>  <SYNONYMS>
Bavisant

$$$$
