
 OpenBabel10282417203D

  1  0  0  0  0  0  0  0  0  0999 V2000
    0.9055   -0.0274    0.0181 Au  0  0  0  0  0  0  0  0  0  0  0  0
M  ISO  1   1 198
M  END
>  <DRUGBANK_ID>
DB13427

>  <COMMON_NAME>
Gold Au-198

>  <CAS_NUMBER>
10043-49-9

>  <UNII>
027828ZV5Q

>  <SYNONYMS>
Aureotope; Gold (198 Au); Gold (198 Au) colloidal; Gold (198Au) colloidal; Gold Au 198; Gold-198; Gold, Au-198; Gold, radioactive, colloidal

$$$$
