
 OpenBabel10282417173D

 39 41  0  0  0  0  0  0  0  0999 V2000
   -1.0169   -0.2990   -1.3628 O   0  0  0  0  0  0  0  0  0  0  0  0
   -2.9773   -1.4747   -1.4674 O   0  0  0  0  0  0  0  0  0  0  0  0
    2.5172    0.0119   -0.0029 N   0  0  0  0  0  0  0  0  0  0  0  0
   -2.7303    0.3844   -0.1297 N   0  0  0  0  0  0  0  0  0  0  0  0
   -0.4329    0.2185   -0.1732 C   0  0  0  0  0  0  0  0  0  0  0  0
   -1.6242    0.6156    0.7135 C   0  0  0  0  0  0  0  0  0  0  0  0
    0.4738    1.4399   -0.3433 C   0  0  0  0  0  0  0  0  0  0  0  0
    0.3153   -0.9701    0.3681 C   0  0  0  0  0  0  0  0  0  0  0  0
   -2.3237   -0.5603   -1.0437 C   0  0  0  0  0  0  0  0  0  0  0  0
    1.8662    1.0478   -0.8164 C   0  0  0  0  0  0  0  0  0  0  0  0
    1.7247   -1.2198   -0.1257 C   0  0  0  0  0  0  0  0  0  0  0  0
    2.9615    0.4439    1.3636 C   0  0  0  0  0  0  0  0  0  0  0  0
    1.9846    0.7582    2.5761 C   0  0  0  0  0  0  0  0  0  0  0  0
    1.2076   -0.4301    3.1858 C   0  0  0  0  0  0  0  0  0  0  0  0
    1.6771   -1.7411    2.9517 C   0  0  0  0  0  0  0  0  0  0  0  0
   -0.1604   -0.2806    3.5260 C   0  0  0  0  0  0  0  0  0  0  0  0
    0.7915   -2.8275    2.8664 C   0  0  0  0  0  0  0  0  0  0  0  0
   -1.0191   -1.4032    3.5570 C   0  0  0  0  0  0  0  0  0  0  0  0
   -0.5526   -2.6643    3.1814 C   0  0  0  0  0  0  0  0  0  0  0  0
   -3.6769    0.3669    0.2160 H   0  0  0  0  0  0  0  0  0  0  0  0
   -1.7788   -0.0495    1.5621 H   0  0  0  0  0  0  0  0  0  0  0  0
   -1.6116    1.6395    1.1003 H   0  0  0  0  0  0  0  0  0  0  0  0
    0.5747    1.9948    0.5933 H   0  0  0  0  0  0  0  0  0  0  0  0
    0.0135    2.1598   -1.0221 H   0  0  0  0  0  0  0  0  0  0  0  0
    0.4308   -0.6045    1.3333 H   0  0  0  0  0  0  0  0  0  0  0  0
   -0.2743   -1.8873    0.4537 H   0  0  0  0  0  0  0  0  0  0  0  0
    2.5139    1.9250   -0.8866 H   0  0  0  0  0  0  0  0  0  0  0  0
    1.7565    0.6654   -1.8391 H   0  0  0  0  0  0  0  0  0  0  0  0
    1.6669   -1.5677   -1.1650 H   0  0  0  0  0  0  0  0  0  0  0  0
    2.2220   -2.0503    0.3903 H   0  0  0  0  0  0  0  0  0  0  0  0
    3.7029   -0.2815    1.7253 H   0  0  0  0  0  0  0  0  0  0  0  0
    3.5722    1.3462    1.2094 H   0  0  0  0  0  0  0  0  0  0  0  0
    2.5324    1.2568    3.3822 H   0  0  0  0  0  0  0  0  0  0  0  0
    1.2794    1.5261    2.2507 H   0  0  0  0  0  0  0  0  0  0  0  0
    2.6608   -1.8916    2.5147 H   0  0  0  0  0  0  0  0  0  0  0  0
   -0.6301    0.7064    3.4906 H   0  0  0  0  0  0  0  0  0  0  0  0
    1.1286   -3.7498    2.3919 H   0  0  0  0  0  0  0  0  0  0  0  0
   -2.0900   -1.2720    3.7097 H   0  0  0  0  0  0  0  0  0  0  0  0
   -1.2455   -3.4915    3.0345 H   0  0  0  0  0  0  0  0  0  0  0  0
  1  5  1  0  0  0  0
  1  9  1  0  0  0  0
  2  9  2  0  0  0  0
  3 10  1  0  0  0  0
  3 11  1  0  0  0  0
  3 12  1  0  0  0  0
  4  6  1  0  0  0  0
  4  9  1  0  0  0  0
  4 20  1  0  0  0  0
  5  6  1  0  0  0  0
  5  7  1  0  0  0  0
  5  8  1  0  0  0  0
  6 21  1  0  0  0  0
  6 22  1  0  0  0  0
  7 10  1  0  0  0  0
  7 23  1  0  0  0  0
  7 24  1  0  0  0  0
  8 11  1  0  0  0  0
  8 25  1  0  0  0  0
  8 26  1  0  0  0  0
 10 27  1  0  0  0  0
 10 28  1  0  0  0  0
 11 29  1  0  0  0  0
 11 30  1  0  0  0  0
 12 13  1  0  0  0  0
 12 31  1  0  0  0  0
 12 32  1  0  0  0  0
 13 14  1  0  0  0  0
 13 33  1  0  0  0  0
 13 34  1  0  0  0  0
 14 15  2  0  0  0  0
 14 16  1  0  0  0  0
 15 17  1  0  0  0  0
 15 35  1  0  0  0  0
 16 18  2  0  0  0  0
 16 36  1  0  0  0  0
 17 19  2  0  0  0  0
 17 37  1  0  0  0  0
 18 19  1  0  0  0  0
 18 38  1  0  0  0  0
 19 39  1  0  0  0  0
M  END
>  <DRUGBANK_ID>
DB08979

>  <COMMON_NAME>
Fenspiride

>  <CAS_NUMBER>
5053-06-5

>  <UNII>
S983QC7HKM

>  <SYNONYMS>
Fenspirida; Fenspiride; Fenspiridum

$$$$
