848
 OpenBabel10282417113D

 26 28  0  0  1  0  0  0  0  0999 V2000
    1.7057   -1.0957   -0.0091 S   0  0  0  0  0  0  0  0  0  0  0  0
   -0.1646    0.6488   -0.0458 N   0  0  0  0  0  0  0  0  0  0  0  0
   -0.9938   -1.4657    0.0228 N   0  0  0  0  0  0  0  0  0  0  0  0
   -1.5570    0.9494    0.0020 C   0  0  0  0  0  0  0  0  0  0  0  0
   -2.1656   -0.4909    0.0249 C   0  0  2  0  0  0  0  0  0  0  0  0
    0.9462    1.5407    0.0149 C   0  0  0  0  0  0  0  0  0  0  0  0
    0.0324   -0.6804   -0.0095 C   0  0  0  0  0  0  0  0  0  0  0  0
    2.2184    0.6733    0.0153 C   0  0  0  0  0  0  0  0  0  0  0  0
   -3.1483   -0.6966    1.1647 C   0  0  0  0  0  0  0  0  0  0  0  0
   -4.2558    0.1601    1.3064 C   0  0  0  0  0  0  0  0  0  0  0  0
   -3.0274   -1.7769    2.0485 C   0  0  0  0  0  0  0  0  0  0  0  0
   -5.2107   -0.0607    2.3015 C   0  0  0  0  0  0  0  0  0  0  0  0
   -4.0082   -2.0247    3.0109 C   0  0  0  0  0  0  0  0  0  0  0  0
   -5.0897   -1.1581    3.1492 C   0  0  0  0  0  0  0  0  0  0  0  0
   -1.8126    1.5421    0.8854 H   0  0  0  0  0  0  0  0  0  0  0  0
   -1.8688    1.4842   -0.9007 H   0  0  0  0  0  0  0  0  0  0  0  0
   -2.7197   -0.6629   -0.9084 H   0  0  0  0  0  0  0  0  0  0  0  0
    0.9068    2.1568    0.9195 H   0  0  0  0  0  0  0  0  0  0  0  0
    0.9393    2.2087   -0.8523 H   0  0  0  0  0  0  0  0  0  0  0  0
    2.8382    0.8945   -0.8596 H   0  0  0  0  0  0  0  0  0  0  0  0
    2.8180    0.8701    0.9098 H   0  0  0  0  0  0  0  0  0  0  0  0
   -4.3933    1.0037    0.6337 H   0  0  0  0  0  0  0  0  0  0  0  0
   -2.1730   -2.4480    1.9804 H   0  0  0  0  0  0  0  0  0  0  0  0
   -6.0609    0.6095    2.4004 H   0  0  0  0  0  0  0  0  0  0  0  0
   -3.9318   -2.9067    3.6409 H   0  0  0  0  0  0  0  0  0  0  0  0
   -5.8397   -1.3438    3.9131 H   0  0  0  0  0  0  0  0  0  0  0  0
  1  7  1  0  0  0  0
  1  8  1  0  0  0  0
  2  4  1  0  0  0  0
  2  6  1  0  0  0  0
  2  7  1  0  0  0  0
  3  5  1  0  0  0  0
  3  7  2  0  0  0  0
  4  5  1  0  0  0  0
  4 15  1  0  0  0  0
  4 16  1  0  0  0  0
  5  9  1  0  0  0  0
  5 17  1  6  0  0  0
  6  8  1  0  0  0  0
  6 18  1  0  0  0  0
  6 19  1  0  0  0  0
  8 20  1  0  0  0  0
  8 21  1  0  0  0  0
  9 10  2  0  0  0  0
  9 11  1  0  0  0  0
 10 12  1  0  0  0  0
 10 22  1  0  0  0  0
 11 13  2  0  0  0  0
 11 23  1  0  0  0  0
 12 14  2  0  0  0  0
 12 24  1  0  0  0  0
 13 14  1  0  0  0  0
 13 25  1  0  0  0  0
 14 26  1  0  0  0  0
M  END
>  <DRUGBANK_ID>
DB00848

>  <SECONDARY_ACCESSION_NUMBERS>
APRD01067

>  <COMMON_NAME>
Levamisole

>  <CAS_NUMBER>
14769-73-4

>  <UNII>
2880D3468G

>  <SYNONYMS>
Levamisol; Levamisole; Levamisolum

$$$$
