TI1
 OpenBabel10282417123D

 54 54  0  0  0  0  0  0  0  0999 V2000
    0.7236   -0.0859   -0.2617 S   0  0  0  0  0  0  0  0  0  0  0  0
    0.3745    0.7591    1.3201 C   0  0  1  0  0  0  0  0  0  0  0  0
    0.7017   -0.1281    2.6059 C   0  0  0  0  0  0  0  0  0  0  0  0
    2.1610   -0.1943    3.0048 C   0  0  0  0  0  0  0  0  0  0  0  0
    2.3742    1.2450    3.4095 C   0  0  0  0  0  0  0  0  0  0  0  0
    2.0877    2.0349    4.5980 C   0  0  0  0  0  0  0  0  0  0  0  0
    2.8129    1.2694    5.6313 C   0  0  0  0  0  0  0  0  0  0  0  0
    0.9123    2.2565    1.1902 C   0  0  0  0  0  0  0  0  0  0  0  0
    0.1754    3.2006    1.5262 O   0  0  0  0  0  0  0  0  0  0  0  0
    2.3039    2.5382    1.0122 N   0  0  0  0  0  0  0  0  0  0  0  0
    3.6611    1.6010    1.0972 C   0  0  1  0  0  0  0  0  0  0  0  0
    4.4249    1.5704   -0.2104 C   0  0  0  0  0  0  0  0  0  0  0  0
    5.2819    2.8395   -0.4438 C   0  0  0  0  0  0  0  0  0  0  0  0
    4.5450    4.1281   -0.5722 C   0  0  0  0  0  0  0  0  0  0  0  0
    6.7364    2.8346   -0.1611 C   0  0  0  0  0  0  0  0  0  0  0  0
    5.1920    5.4263   -0.3674 C   0  0  0  0  0  0  0  0  0  0  0  0
    7.4720    4.1450   -0.0447 C   0  0  0  0  0  0  0  0  0  0  0  0
    6.6689    5.4793   -0.1283 C   0  0  0  0  0  0  0  0  0  0  0  0
    4.8319    1.3192    2.4458 C   0  0  0  0  0  0  0  0  0  0  0  0
    5.1021    0.1966    2.8909 O   0  0  0  0  0  0  0  0  0  0  0  0
    5.1039    2.4010    3.3144 N   0  0  0  0  0  0  0  0  0  0  0  0
    4.7470    3.6814    2.9092 C   0  0  1  0  0  0  0  0  0  0  0  0
    4.3484    5.0206    3.4138 C   0  0  0  0  0  0  0  0  0  0  0  0
    6.0894    4.0094    2.5982 C   0  0  0  0  0  0  0  0  0  0  0  0
    6.0018    4.3006    1.5098 O   0  0  0  0  0  0  0  0  0  0  0  0
    7.1965    4.1439    3.3038 O   0  0  0  0  0  0  0  0  0  0  0  0
   -0.7203    0.8537    1.3631 H   0  0  0  0  0  0  0  0  0  0  0  0
    3.1604    0.6527    1.0688 H   0  0  0  0  0  0  0  0  0  0  0  0
    4.1461    3.5768    2.0066 H   0  0  0  0  0  0  0  0  0  0  0  0
    2.0581   -0.0448   -0.2070 H   0  0  0  0  0  0  0  0  0  0  0  0
    0.2021    0.3130    3.4828 H   0  0  0  0  0  0  0  0  0  0  0  0
    0.3157   -1.1403    2.5078 H   0  0  0  0  0  0  0  0  0  0  0  0
    2.4739   -0.8885    3.7838 H   0  0  0  0  0  0  0  0  0  0  0  0
    2.6890   -0.6288    2.1394 H   0  0  0  0  0  0  0  0  0  0  0  0
    3.2399    1.7304    3.1815 H   0  0  0  0  0  0  0  0  0  0  0  0
    1.7652    1.7866    2.7901 H   0  0  0  0  0  0  0  0  0  0  0  0
    2.5365    3.0372    4.4438 H   0  0  0  0  0  0  0  0  0  0  0  0
    1.0119    2.1863    4.6139 H   0  0  0  0  0  0  0  0  0  0  0  0
    3.8983    1.3086    5.4502 H   0  0  0  0  0  0  0  0  0  0  0  0
    2.5603    1.6934    6.5845 H   0  0  0  0  0  0  0  0  0  0  0  0
    2.5247    0.2193    5.5614 H   0  0  0  0  0  0  0  0  0  0  0  0
    2.4152    3.4880    1.3644 H   0  0  0  0  0  0  0  0  0  0  0  0
    5.0019    0.6295   -0.1651 H   0  0  0  0  0  0  0  0  0  0  0  0
    3.6651    1.4479   -0.9945 H   0  0  0  0  0  0  0  0  0  0  0  0
    3.4334    4.1012   -0.5488 H   0  0  0  0  0  0  0  0  0  0  0  0
    7.1466    1.9411    0.3936 H   0  0  0  0  0  0  0  0  0  0  0  0
    4.5213    6.2618   -0.0266 H   0  0  0  0  0  0  0  0  0  0  0  0
    8.3553    4.1055    0.6653 H   0  0  0  0  0  0  0  0  0  0  0  0
    6.9950    6.3394    0.5418 H   0  0  0  0  0  0  0  0  0  0  0  0
    5.7299    2.2985    4.1037 H   0  0  0  0  0  0  0  0  0  0  0  0
    5.0486    5.3419    4.1771 H   0  0  0  0  0  0  0  0  0  0  0  0
    4.4257    5.7732    2.5868 H   0  0  0  0  0  0  0  0  0  0  0  0
    3.3085    4.9854    3.6839 H   0  0  0  0  0  0  0  0  0  0  0  0
    7.8939    4.4579    2.6775 H   0  0  0  0  0  0  0  0  0  0  0  0
  1 30  1  0  0  0  0
  2  1  1  0  0  0  0
  2  3  1  0  0  0  0
  2  8  1  0  0  0  0
  2 27  1  1  0  0  0
  3  4  1  0  0  0  0
  3 31  1  0  0  0  0
  3 32  1  0  0  0  0
  4  5  1  0  0  0  0
  4 33  1  0  0  0  0
  4 34  1  0  0  0  0
  5  6  1  0  0  0  0
  5 35  1  0  0  0  0
  5 36  1  0  0  0  0
  6  7  1  0  0  0  0
  6 37  1  0  0  0  0
  6 38  1  0  0  0  0
  7 39  1  0  0  0  0
  7 40  1  0  0  0  0
  7 41  1  0  0  0  0
  8  9  2  0  0  0  0
  8 10  1  0  0  0  0
 10 42  1  0  0  0  0
 11 10  1  0  0  0  0
 11 12  1  0  0  0  0
 11 19  1  0  0  0  0
 11 28  1  6  0  0  0
 12 13  1  0  0  0  0
 12 43  1  0  0  0  0
 12 44  1  0  0  0  0
 13 14  2  0  0  0  0
 13 15  1  0  0  0  0
 14 16  1  0  0  0  0
 14 45  1  0  0  0  0
 15 17  2  0  0  0  0
 15 46  1  0  0  0  0
 16 18  2  0  0  0  0
 16 47  1  0  0  0  0
 17 18  1  0  0  0  0
 17 48  1  0  0  0  0
 18 49  1  0  0  0  0
 19 20  2  0  0  0  0
 19 21  1  0  0  0  0
 21 22  1  0  0  0  0
 21 50  1  0  0  0  0
 22 23  1  0  0  0  0
 22 24  1  0  0  0  0
 22 29  1  6  0  0  0
 23 51  1  0  0  0  0
 23 52  1  0  0  0  0
 23 53  1  0  0  0  0
 24 25  2  0  0  0  0
 24 26  1  0  0  0  0
 26 54  1  0  0  0  0
M  END
>  <DRUGBANK_ID>
DB02597

>  <SECONDARY_ACCESSION_NUMBERS>
EXPT03060

>  <COMMON_NAME>
[2(R,S)-2-Sulfanylheptanoyl]-Phe-Ala

$$$$
