3B8
 OpenBabel10282417163D

 28 30  0  0  0  0  0  0  0  0999 V2000
   -3.5731   -0.7348    0.0003 C   0  0  0  0  0  0  0  0  0  0  0  0
   -2.3404   -1.4144   -0.0013 C   0  0  0  0  0  0  0  0  0  0  0  0
   -2.4410    1.3874   -0.0007 C   0  0  0  0  0  0  0  0  0  0  0  0
   -1.2260    0.7007   -0.0017 C   0  0  0  0  0  0  0  0  0  0  0  0
   -1.1425   -0.6928   -0.0013 C   0  0  0  0  0  0  0  0  0  0  0  0
    6.0098    0.9578   -0.0001 O   0  0  0  0  0  0  0  0  0  0  0  0
   -3.6099    0.6573    0.0021 C   0  0  0  0  0  0  0  0  0  0  0  0
    0.0581   -1.3859   -0.0008 O   0  0  0  0  0  0  0  0  0  0  0  0
    0.0007    1.4698   -0.0016 C   0  0  0  0  0  0  0  0  0  0  0  0
   -4.7837    1.3007    0.0076 F   0  0  0  0  0  0  0  0  0  0  0  0
   -0.0044    2.6969   -0.0022 O   0  0  0  0  0  0  0  0  0  0  0  0
    4.8646    2.8872    0.0000 N   0  0  0  0  0  0  0  0  0  0  0  0
    3.5918   -0.6563   -0.0001 C   0  0  0  0  0  0  0  0  0  0  0  0
    3.6350    0.7519    0.0001 C   0  0  0  0  0  0  0  0  0  0  0  0
    2.4303    1.4346   -0.0000 C   0  0  0  0  0  0  0  0  0  0  0  0
    1.2425    0.7249   -0.0005 C   0  0  0  0  0  0  0  0  0  0  0  0
    1.2454   -0.6543   -0.0003 C   0  0  0  0  0  0  0  0  0  0  0  0
    2.4125   -1.3569   -0.0000 N   0  0  0  0  0  0  0  0  0  0  0  0
    4.7596   -1.3928   -0.0005 N   0  0  0  0  0  0  0  0  0  0  0  0
    4.9179    1.5156    0.0000 C   0  0  0  0  0  0  0  0  0  0  0  0
   -4.5133   -1.2792    0.0004 H   0  0  0  0  0  0  0  0  0  0  0  0
   -2.3356   -2.5017   -0.0019 H   0  0  0  0  0  0  0  0  0  0  0  0
   -2.4719    2.4736   -0.0014 H   0  0  0  0  0  0  0  0  0  0  0  0
    4.0321    3.4568    0.0000 H   0  0  0  0  0  0  0  0  0  0  0  0
    5.7467    3.3821   -0.0000 H   0  0  0  0  0  0  0  0  0  0  0  0
    2.3695    2.5141   -0.0001 H   0  0  0  0  0  0  0  0  0  0  0  0
    4.7469   -2.3983   -0.0010 H   0  0  0  0  0  0  0  0  0  0  0  0
    5.6458   -0.8844   -0.0014 H   0  0  0  0  0  0  0  0  0  0  0  0
  1  2  2  0  0  0  0
  1  7  1  0  0  0  0
  1 21  1  0  0  0  0
  2  5  1  0  0  0  0
  2 22  1  0  0  0  0
  3  4  1  0  0  0  0
  3  7  2  0  0  0  0
  3 23  1  0  0  0  0
  4  5  2  0  0  0  0
  4  9  1  0  0  0  0
  5  8  1  0  0  0  0
  6 20  2  0  0  0  0
  7 10  1  0  0  0  0
  8 17  1  0  0  0  0
  9 11  2  0  0  0  0
  9 16  1  0  0  0  0
 12 20  1  0  0  0  0
 12 24  1  0  0  0  0
 12 25  1  0  0  0  0
 13 14  2  0  0  0  0
 13 18  1  0  0  0  0
 13 19  1  0  0  0  0
 14 15  1  0  0  0  0
 14 20  1  0  0  0  0
 15 16  2  0  0  0  0
 15 26  1  0  0  0  0
 16 17  1  0  0  0  0
 17 18  2  0  0  0  0
 19 27  1  0  0  0  0
 19 28  1  0  0  0  0
M  END
>  <DRUGBANK_ID>
DB07040

>  <COMMON_NAME>
2-amino-7-fluoro-5-oxo-5H-chromeno[2,3-b]pyridine-3-carboxamide

$$$$
