
 OpenBabel10282417193D

 39 41  0  0  0  0  0  0  0  0999 V2000
   -1.6000   -0.0804    0.1366 C   0  0  0  0  0  0  0  0  0  0  0  0
   -0.9513    1.1518    0.5788 C   0  0  0  0  0  0  0  0  0  0  0  0
    0.4195    1.1172    0.9009 C   0  0  0  0  0  0  0  0  0  0  0  0
    0.9865   -0.3661    0.7311 C   0  0  0  0  0  0  0  0  0  0  0  0
    0.3358   -1.4810    0.2621 C   0  0  0  0  0  0  0  0  0  0  0  0
   -0.9824   -1.3530    0.0125 C   0  0  0  0  0  0  0  0  0  0  0  0
   -1.9341   -3.1487   -0.3741 I   0  0  0  0  0  0  0  0  0  0  0  0
    2.2702   -0.8035    0.8265 F   0  0  0  0  0  0  0  0  0  0  0  0
    1.3476    2.6592    0.7929 N   0  0  0  0  0  0  0  0  0  0  0  0
    2.6672    3.2541   -0.2451 C   0  0  0  0  0  0  0  0  0  0  0  0
    3.2660    2.7315   -1.5922 C   0  0  0  0  0  0  0  0  0  0  0  0
    4.7808    2.6622   -1.5769 C   0  0  0  0  0  0  0  0  0  0  0  0
    5.5333    3.3882   -0.7269 C   0  0  0  0  0  0  0  0  0  0  0  0
    4.9503    3.9171    0.4847 C   0  0  0  0  0  0  0  0  0  0  0  0
    3.5839    3.7989    0.6421 N   0  0  0  0  0  0  0  0  0  0  0  0
    3.2740    4.0105    1.9585 C   0  0  0  0  0  0  0  0  0  0  0  0
    4.2688    4.5057    2.6175 N   0  0  0  0  0  0  0  0  0  0  0  0
    5.3095    4.4719    1.7108 C   0  0  0  0  0  0  0  0  0  0  0  0
    2.6404    1.5733   -2.8581 C   0  0  0  0  0  0  0  0  0  0  0  0
    3.4654    0.9222   -3.6125 O   0  0  0  0  0  0  0  0  0  0  0  0
    1.3397    1.0988   -3.0334 N   0  0  0  0  0  0  0  0  0  0  0  0
    0.3431    1.3009   -2.1151 O   0  0  0  0  0  0  0  0  0  0  0  0
    1.0369    1.9990   -1.2020 C   0  0  0  0  0  0  0  0  0  0  0  0
    2.5317    1.0553   -0.2549 C   0  0  0  0  0  0  0  0  0  0  0  0
    3.3475    0.1646   -0.9616 O   0  0  0  0  0  0  0  0  0  0  0  0
   -2.6414   -0.0361   -0.1683 H   0  0  0  0  0  0  0  0  0  0  0  0
   -1.5190    2.0728    0.4856 H   0  0  0  0  0  0  0  0  0  0  0  0
    0.9382   -2.3879    0.1463 H   0  0  0  0  0  0  0  0  0  0  0  0
    0.6772    3.4480    0.7278 H   0  0  0  0  0  0  0  0  0  0  0  0
    5.2548    1.8775   -2.2090 H   0  0  0  0  0  0  0  0  0  0  0  0
    6.5930    3.4861   -0.9647 H   0  0  0  0  0  0  0  0  0  0  0  0
    2.3051    3.7539    2.3729 H   0  0  0  0  0  0  0  0  0  0  0  0
    6.2467    4.8252    2.1011 H   0  0  0  0  0  0  0  0  0  0  0  0
    1.0803    0.2600   -3.5320 H   0  0  0  0  0  0  0  0  0  0  0  0
    1.2609    2.9897   -1.7014 H   0  0  0  0  0  0  0  0  0  0  0  0
    0.1948    2.5372   -0.7189 H   0  0  0  0  0  0  0  0  0  0  0  0
    3.3753    1.5660    0.2954 H   0  0  0  0  0  0  0  0  0  0  0  0
    2.4581    0.9178    0.8675 H   0  0  0  0  0  0  0  0  0  0  0  0
    2.7234   -0.3284   -1.4939 H   0  0  0  0  0  0  0  0  0  0  0  0
  1  2  2  0  0  0  0
  1  6  1  0  0  0  0
  1 26  1  0  0  0  0
  2  3  1  0  0  0  0
  2 27  1  0  0  0  0
  3  4  2  0  0  0  0
  3  9  1  0  0  0  0
  4  5  1  0  0  0  0
  4  8  1  0  0  0  0
  5  6  2  0  0  0  0
  5 28  1  0  0  0  0
  6  7  1  0  0  0  0
  9 10  1  0  0  0  0
  9 29  1  0  0  0  0
 10 11  2  0  0  0  0
 10 15  1  0  0  0  0
 11 12  1  0  0  0  0
 11 19  1  0  0  0  0
 12 13  2  0  0  0  0
 12 30  1  0  0  0  0
 13 14  1  0  0  0  0
 13 31  1  0  0  0  0
 14 15  1  0  0  0  0
 14 18  2  0  0  0  0
 15 16  1  0  0  0  0
 16 17  2  0  0  0  0
 16 32  1  0  0  0  0
 17 18  1  0  0  0  0
 18 33  1  0  0  0  0
 19 20  2  0  0  0  0
 19 21  1  0  0  0  0
 21 22  1  0  0  0  0
 21 34  1  0  0  0  0
 22 23  1  0  0  0  0
 23 24  1  0  0  0  0
 23 35  1  0  0  0  0
 23 36  1  0  0  0  0
 24 25  1  0  0  0  0
 24 37  1  0  0  0  0
 24 38  1  0  0  0  0
 25 39  1  0  0  0  0
M  END
>  <DRUGBANK_ID>
DB11982

>  <COMMON_NAME>
GDC-0623

>  <CAS_NUMBER>
1168091-68-6

>  <UNII>
HW67545I4Q

$$$$
