
 OpenBabel10282417233D

 66 71  0  0  1  0  0  0  0  0999 V2000
    1.4296   -0.3206   -0.4242 C   0  0  0  0  0  0  0  0  0  0  0  0
    0.3227   -1.3803   -0.1396 C   0  0  2  0  0  0  0  0  0  0  0  0
   -0.2884   -1.1708    1.3080 C   0  0  1  0  0  0  0  0  0  0  0  0
    0.4197   -2.1462    2.2799 C   0  0  0  0  0  0  0  0  0  0  0  0
    0.2257   -3.5613    1.8311 C   0  0  2  0  0  0  0  0  0  0  0  0
    0.7155   -4.5340    2.8012 N   0  0  0  0  0  0  0  0  0  0  0  0
    0.0077   -5.5145    3.4549 C   0  0  0  0  0  0  0  0  0  0  0  0
    0.5597   -6.2584    4.2553 O   0  0  0  0  0  0  0  0  0  0  0  0
   -1.4531   -5.6137    3.2577 C   0  0  0  0  0  0  0  0  0  0  0  0
   -2.0414   -5.6332    1.9898 C   0  0  0  0  0  0  0  0  0  0  0  0
   -3.3773   -5.5965    1.7562 N   0  0  0  0  0  0  0  0  0  0  0  0
   -4.1405   -5.6494    2.8577 C   0  0  0  0  0  0  0  0  0  0  0  0
   -5.6379   -5.7020    2.8191 C   0  0  0  0  0  0  0  0  0  0  0  0
   -6.0015   -5.7528    4.3140 C   0  0  2  0  0  0  0  0  0  0  0  0
   -4.7228   -5.8080    5.1714 C   0  0  0  0  0  0  0  0  0  0  0  0
   -3.6450   -5.7007    4.1526 C   0  0  0  0  0  0  0  0  0  0  0  0
   -2.2811   -5.6743    4.3737 C   0  0  0  0  0  0  0  0  0  0  0  0
   -6.8784   -6.9887    4.6081 C   0  0  0  0  0  0  0  0  0  0  0  0
   -6.5802   -8.1434    4.4400 O   0  0  0  0  0  0  0  0  0  0  0  0
   -8.0819   -6.5156    5.1179 N   0  0  0  0  0  0  0  0  0  0  0  0
   -8.1069   -5.1366    5.1867 C   0  0  0  0  0  0  0  0  0  0  0  0
   -6.9042   -4.6252    4.7246 C   0  0  0  0  0  0  0  0  0  0  0  0
   -6.6951   -3.2597    4.7043 C   0  0  0  0  0  0  0  0  0  0  0  0
   -7.7331   -2.4532    5.1532 C   0  0  0  0  0  0  0  0  0  0  0  0
   -8.9102   -3.0605    5.5981 C   0  0  0  0  0  0  0  0  0  0  0  0
   -9.1255   -4.4015    5.6289 N   0  0  0  0  0  0  0  0  0  0  0  0
    0.8824   -3.7535    0.4637 C   0  0  0  0  0  0  0  0  0  0  0  0
    1.5680   -4.7311    0.1995 O   0  0  0  0  0  0  0  0  0  0  0  0
    0.4779   -2.8182   -0.4948 N   0  0  0  0  0  0  0  0  0  0  0  0
   -0.3680   -3.3934   -1.6127 C   0  0  0  0  0  0  0  0  0  0  0  0
    0.3955   -4.3073   -2.5737 C   0  0  0  0  0  0  0  0  0  0  0  0
    0.7500   -5.4748   -2.0100 F   0  0  0  0  0  0  0  0  0  0  0  0
   -0.3625   -4.6117   -3.6545 F   0  0  0  0  0  0  0  0  0  0  0  0
    1.5015   -3.6739   -3.0227 F   0  0  0  0  0  0  0  0  0  0  0  0
   -0.1964    0.2747    1.8326 C   0  0  0  0  0  0  0  0  0  0  0  0
   -0.6643    1.3096    1.0081 C   0  0  0  0  0  0  0  0  0  0  0  0
   -1.4459    1.0105   -0.0407 F   0  0  0  0  0  0  0  0  0  0  0  0
   -0.0806    2.5766    1.0795 C   0  0  0  0  0  0  0  0  0  0  0  0
   -0.3142    3.4729    0.1124 F   0  0  0  0  0  0  0  0  0  0  0  0
    0.8512    2.8797    2.0660 C   0  0  0  0  0  0  0  0  0  0  0  0
    1.0983    1.9523    3.0660 C   0  0  0  0  0  0  0  0  0  0  0  0
    0.6368    0.6501    2.9103 C   0  0  0  0  0  0  0  0  0  0  0  0
    1.1897   -0.2524    3.7313 F   0  0  0  0  0  0  0  0  0  0  0  0
    1.5296    0.4082    0.3785 H   0  0  0  0  0  0  0  0  0  0  0  0
    1.0542    0.3287   -1.2343 H   0  0  0  0  0  0  0  0  0  0  0  0
    2.4570   -0.6202   -0.5945 H   0  0  0  0  0  0  0  0  0  0  0  0
   -0.3381   -1.0879   -0.9538 H   0  0  0  0  0  0  0  0  0  0  0  0
   -1.3522   -1.4397    1.2385 H   0  0  0  0  0  0  0  0  0  0  0  0
    1.4990   -1.9476    2.3233 H   0  0  0  0  0  0  0  0  0  0  0  0
    0.0014   -2.0444    3.2886 H   0  0  0  0  0  0  0  0  0  0  0  0
   -0.8477   -3.6728    1.7141 H   0  0  0  0  0  0  0  0  0  0  0  0
    1.7222   -4.6197    2.9158 H   0  0  0  0  0  0  0  0  0  0  0  0
   -1.4353   -5.6394    1.0879 H   0  0  0  0  0  0  0  0  0  0  0  0
   -6.0298   -4.8110    2.3148 H   0  0  0  0  0  0  0  0  0  0  0  0
   -5.9657   -6.5895    2.2683 H   0  0  0  0  0  0  0  0  0  0  0  0
   -4.6482   -4.9733    5.8772 H   0  0  0  0  0  0  0  0  0  0  0  0
   -4.6208   -6.7491    5.7213 H   0  0  0  0  0  0  0  0  0  0  0  0
   -1.8692   -5.7062    5.3776 H   0  0  0  0  0  0  0  0  0  0  0  0
   -8.8430   -7.1107    5.4016 H   0  0  0  0  0  0  0  0  0  0  0  0
   -5.7619   -2.8310    4.3534 H   0  0  0  0  0  0  0  0  0  0  0  0
   -7.6324   -1.3725    5.1575 H   0  0  0  0  0  0  0  0  0  0  0  0
   -9.7375   -2.4511    5.9531 H   0  0  0  0  0  0  0  0  0  0  0  0
   -1.2379   -3.9366   -1.2020 H   0  0  0  0  0  0  0  0  0  0  0  0
   -0.7965   -2.5733   -2.2036 H   0  0  0  0  0  0  0  0  0  0  0  0
    1.4123    3.8081    2.0289 H   0  0  0  0  0  0  0  0  0  0  0  0
    1.7341    2.1897    3.9137 H   0  0  0  0  0  0  0  0  0  0  0  0
  1 44  1  0  0  0  0
  1 45  1  0  0  0  0
  1 46  1  0  0  0  0
  2  1  1  0  0  0  0
  2  3  1  0  0  0  0
  2 29  1  0  0  0  0
  2 47  1  6  0  0  0
  3  4  1  0  0  0  0
  3 35  1  0  0  0  0
  3 48  1  6  0  0  0
  4 49  1  0  0  0  0
  4 50  1  0  0  0  0
  5  4  1  0  0  0  0
  5  6  1  0  0  0  0
  5 27  1  0  0  0  0
  5 51  1  6  0  0  0
  6  7  1  0  0  0  0
  6 52  1  0  0  0  0
  7  8  2  0  0  0  0
  7  9  1  0  0  0  0
  9 10  2  0  0  0  0
  9 17  1  0  0  0  0
 10 11  1  0  0  0  0
 10 53  1  0  0  0  0
 11 12  2  0  0  0  0
 12 13  1  0  0  0  0
 12 16  1  0  0  0  0
 13 54  1  0  0  0  0
 13 55  1  0  0  0  0
 14 13  1  0  0  0  0
 14 15  1  0  0  0  0
 14 18  1  1  0  0  0
 14 22  1  0  0  0  0
 15 16  1  0  0  0  0
 15 56  1  0  0  0  0
 15 57  1  0  0  0  0
 16 17  2  0  0  0  0
 17 58  1  0  0  0  0
 18 19  2  0  0  0  0
 18 20  1  0  0  0  0
 20 21  1  0  0  0  0
 20 59  1  0  0  0  0
 21 22  2  0  0  0  0
 21 26  1  0  0  0  0
 22 23  1  0  0  0  0
 23 24  2  0  0  0  0
 23 60  1  0  0  0  0
 24 25  1  0  0  0  0
 24 61  1  0  0  0  0
 25 26  2  0  0  0  0
 25 62  1  0  0  0  0
 27 28  2  0  0  0  0
 27 29  1  0  0  0  0
 29 30  1  0  0  0  0
 30 31  1  0  0  0  0
 30 63  1  0  0  0  0
 30 64  1  0  0  0  0
 31 32  1  0  0  0  0
 31 33  1  0  0  0  0
 31 34  1  0  0  0  0
 35 36  2  0  0  0  0
 35 42  1  0  0  0  0
 36 37  1  0  0  0  0
 36 38  1  0  0  0  0
 38 39  1  0  0  0  0
 38 40  2  0  0  0  0
 40 41  1  0  0  0  0
 40 65  1  0  0  0  0
 41 42  2  0  0  0  0
 41 66  1  0  0  0  0
 42 43  1  0  0  0  0
M  END
>  <DRUGBANK_ID>
DB16098

>  <COMMON_NAME>
Atogepant

>  <CAS_NUMBER>
1374248-81-3

>  <UNII>
7CRV8RR151

>  <SYNONYMS>
Atogepant

$$$$
