
 OpenBabel10282417193D

 46 49  0  0  1  0  0  0  0  0999 V2000
    0.6671   -0.3641   -0.1693 C   0  0  0  0  0  0  0  0  0  0  0  0
    1.3297    0.8469    0.0531 C   0  0  0  0  0  0  0  0  0  0  0  0
    1.4631   -1.5361   -0.2337 C   0  0  0  0  0  0  0  0  0  0  0  0
    2.7422    0.8443    0.2890 C   0  0  0  0  0  0  0  0  0  0  0  0
    2.8355   -1.5394    0.0174 C   0  0  0  0  0  0  0  0  0  0  0  0
    3.4737   -0.3484    0.2861 C   0  0  0  0  0  0  0  0  0  0  0  0
   -0.8703   -0.4228   -0.3568 C   0  0  2  0  0  0  0  0  0  0  0  0
   -1.7572    0.7331    0.4552 C   0  0  1  0  0  0  0  0  0  0  0  0
    0.5367    2.1392    0.0919 C   0  0  0  0  0  0  0  0  0  0  0  0
   -1.0398    2.0379   -0.2647 C   0  0  0  0  0  0  0  0  0  0  0  0
   -1.3371   -1.7991    0.0137 C   0  0  0  0  0  0  0  0  0  0  0  0
   -2.7862   -1.8203   -0.2559 C   0  0  0  0  0  0  0  0  0  0  0  0
   -3.5565    0.4891    1.1310 C   0  0  1  0  0  0  0  0  0  0  0  0
   -3.4661   -0.8323    0.5770 C   0  0  1  0  0  0  0  0  0  0  0  0
   -5.1264   -0.7056    1.7918 C   0  0  2  0  0  0  0  0  0  0  0  0
   -5.6654   -1.4461    0.5060 C   0  0  2  0  0  0  0  0  0  0  0  0
   -4.9363   -0.4043   -0.1417 C   0  0  2  0  0  0  0  0  0  0  0  0
    4.8137   -0.4158    0.5372 O   0  0  0  0  0  0  0  0  0  0  0  0
   -7.0793   -1.5178    0.4578 O   0  0  0  0  0  0  0  0  0  0  0  0
   -5.6750   -1.8802    2.6389 O   0  0  0  0  0  0  0  0  0  0  0  0
   -4.9183   -0.3067   -1.5278 O   0  0  0  0  0  0  0  0  0  0  0  0
   -2.7034   -0.8969    2.2757 C   0  0  0  0  0  0  0  0  0  0  0  0
   -4.0231    1.4058    0.7954 H   0  0  0  0  0  0  0  0  0  0  0  0
   -1.0226   -0.2919   -1.4469 H   0  0  0  0  0  0  0  0  0  0  0  0
   -1.2449    0.8700    1.4076 H   0  0  0  0  0  0  0  0  0  0  0  0
    1.0344   -2.5070   -0.4570 H   0  0  0  0  0  0  0  0  0  0  0  0
    3.2655    1.7761    0.4914 H   0  0  0  0  0  0  0  0  0  0  0  0
    3.3857   -2.4772    0.0102 H   0  0  0  0  0  0  0  0  0  0  0  0
    1.0488    2.8469   -0.5844 H   0  0  0  0  0  0  0  0  0  0  0  0
    0.6433    2.5505    1.1023 H   0  0  0  0  0  0  0  0  0  0  0  0
   -1.0462    1.9526   -1.3691 H   0  0  0  0  0  0  0  0  0  0  0  0
   -1.4933    2.9969   -0.0144 H   0  0  0  0  0  0  0  0  0  0  0  0
   -1.0831   -1.9924    1.0574 H   0  0  0  0  0  0  0  0  0  0  0  0
   -0.8980   -2.6115   -0.5587 H   0  0  0  0  0  0  0  0  0  0  0  0
   -3.1616   -2.8163    0.0033 H   0  0  0  0  0  0  0  0  0  0  0  0
   -2.9852   -1.6677   -1.3233 H   0  0  0  0  0  0  0  0  0  0  0  0
   -4.4406   -1.2361    2.3925 H   0  0  0  0  0  0  0  0  0  0  0  0
   -5.2883   -2.4496    0.2583 H   0  0  0  0  0  0  0  0  0  0  0  0
   -5.4912    0.5263    0.1659 H   0  0  0  0  0  0  0  0  0  0  0  0
    5.1645    0.4714    0.7089 H   0  0  0  0  0  0  0  0  0  0  0  0
   -7.4596   -0.7384    0.8891 H   0  0  0  0  0  0  0  0  0  0  0  0
   -6.4592   -2.3176    2.2149 H   0  0  0  0  0  0  0  0  0  0  0  0
   -4.3151    0.4432   -1.6797 H   0  0  0  0  0  0  0  0  0  0  0  0
   -1.6703   -0.5787    2.3595 H   0  0  0  0  0  0  0  0  0  0  0  0
   -3.1808   -0.1565    3.0096 H   0  0  0  0  0  0  0  0  0  0  0  0
   -2.7859   -1.8798    2.7362 H   0  0  0  0  0  0  0  0  0  0  0  0
  2  1  1  0  0  0  0
  3  1  2  0  0  0  0
  3 26  1  0  0  0  0
  4  2  2  0  0  0  0
  4 27  1  0  0  0  0
  5  3  1  0  0  0  0
  5 28  1  0  0  0  0
  6  4  1  0  0  0  0
  6  5  2  0  0  0  0
  6 18  1  0  0  0  0
  7  1  1  0  0  0  0
  7 24  1  6  0  0  0
  8  7  1  0  0  0  0
  8 25  1  1  0  0  0
  9  2  1  0  0  0  0
  9 29  1  0  0  0  0
  9 30  1  0  0  0  0
 10  8  1  0  0  0  0
 10  9  1  0  0  0  0
 10 31  1  0  0  0  0
 10 32  1  0  0  0  0
 11  7  1  0  0  0  0
 11 33  1  0  0  0  0
 11 34  1  0  0  0  0
 12 11  1  0  0  0  0
 12 35  1  0  0  0  0
 12 36  1  0  0  0  0
 13  8  1  0  0  0  0
 13 23  1  6  0  0  0
 14 12  1  0  0  0  0
 14 13  1  0  0  0  0
 14 22  1  1  0  0  0
 15 13  1  0  0  0  0
 15 20  1  0  0  0  0
 15 37  1  6  0  0  0
 16 15  1  0  0  0  0
 16 19  1  0  0  0  0
 16 38  1  6  0  0  0
 17 14  1  0  0  0  0
 17 16  1  0  0  0  0
 17 39  1  1  0  0  0
 17 21  1  0  0  0  0
 18 40  1  0  0  0  0
 19 41  1  0  0  0  0
 20 42  1  0  0  0  0
 21 43  1  0  0  0  0
 22 44  1  0  0  0  0
 22 45  1  0  0  0  0
 22 46  1  0  0  0  0
M  END
>  <DRUGBANK_ID>
DB12235

>  <COMMON_NAME>
Estetrol

>  <CAS_NUMBER>
15183-37-6

>  <UNII>
ENB39R14VF

>  <SYNONYMS>
15α-hydroxyestriol; Estétrol; Estetrol; Estetrolum; Oestetrol

$$$$
