3CA
 OpenBabel10282417163D

 26 27  0  0  0  0  0  0  0  0999 V2000
    0.9896    0.1480    0.0016 O   0  0  0  0  0  0  0  0  0  0  0  0
    2.2094    0.0609    0.0466 C   0  0  0  0  0  0  0  0  0  0  0  0
    2.9293    0.3928    1.1358 O   0  0  0  0  0  0  0  0  0  0  0  0
    2.9941   -0.3211   -1.1477 C   0  0  0  0  0  0  0  0  0  0  0  0
    2.5621    0.0768   -2.4194 C   0  0  0  0  0  0  0  0  0  0  0  0
    1.4710    0.8748   -2.6333 O   0  0  0  0  0  0  0  0  0  0  0  0
    3.2583   -0.3192   -3.5588 C   0  0  0  0  0  0  0  0  0  0  0  0
    4.3937   -1.1197   -3.4393 C   0  0  0  0  0  0  0  0  0  0  0  0
    4.8416   -1.5449   -2.1781 C   0  0  0  0  0  0  0  0  0  0  0  0
    4.1288   -1.1354   -1.0330 C   0  0  0  0  0  0  0  0  0  0  0  0
    6.0251   -2.4130   -2.0674 C   0  0  0  0  0  0  0  0  0  0  0  0
    7.2704   -1.9391   -2.5269 C   0  0  0  0  0  0  0  0  0  0  0  0
    5.9729   -3.7141   -1.5254 C   0  0  0  0  0  0  0  0  0  0  0  0
    4.4884   -4.4239   -0.9820 Cl  0  0  0  0  0  0  0  0  0  0  0  0
    7.1241   -4.4997   -1.4269 C   0  0  0  0  0  0  0  0  0  0  0  0
    8.3408   -4.0009   -1.8805 C   0  0  0  0  0  0  0  0  0  0  0  0
    9.7583   -4.9662   -1.7583 Cl  0  0  0  0  0  0  0  0  0  0  0  0
    8.4201   -2.7270   -2.4345 C   0  0  0  0  0  0  0  0  0  0  0  0
    3.8969    0.4375    1.0244 H   0  0  0  0  0  0  0  0  0  0  0  0
    0.9781    0.9814   -1.7925 H   0  0  0  0  0  0  0  0  0  0  0  0
    2.9108   -0.0137   -4.5428 H   0  0  0  0  0  0  0  0  0  0  0  0
    4.9166   -1.4283   -4.3441 H   0  0  0  0  0  0  0  0  0  0  0  0
    4.4412   -1.4994   -0.0561 H   0  0  0  0  0  0  0  0  0  0  0  0
    7.3536   -0.9424   -2.9599 H   0  0  0  0  0  0  0  0  0  0  0  0
    7.0663   -5.4984   -1.0025 H   0  0  0  0  0  0  0  0  0  0  0  0
    9.3705   -2.3401   -2.7946 H   0  0  0  0  0  0  0  0  0  0  0  0
  1  2  2  0  0  0  0
  2  3  1  0  0  0  0
  2  4  1  0  0  0  0
  3 19  1  0  0  0  0
  4  5  1  0  0  0  0
  4 10  2  0  0  0  0
  5  6  1  0  0  0  0
  5  7  2  0  0  0  0
  6 20  1  0  0  0  0
  7  8  1  0  0  0  0
  7 21  1  0  0  0  0
  8  9  2  0  0  0  0
  8 22  1  0  0  0  0
  9 10  1  0  0  0  0
  9 11  1  0  0  0  0
 10 23  1  0  0  0  0
 11 12  1  0  0  0  0
 11 13  2  0  0  0  0
 12 18  2  0  0  0  0
 12 24  1  0  0  0  0
 13 14  1  0  0  0  0
 13 15  1  0  0  0  0
 15 16  2  0  0  0  0
 15 25  1  0  0  0  0
 16 17  1  0  0  0  0
 16 18  1  0  0  0  0
 18 26  1  0  0  0  0
M  END
>  <DRUGBANK_ID>
DB07047

>  <COMMON_NAME>
2',4'-DICHLORO-4-HYDROXY-1,1'-BIPHENYL-3-CARBOXYLIC ACID

$$$$
