
 OpenBabel10282417173D

 22 23  0  0  0  0  0  0  0  0999 V2000
   -0.0096   -0.6857    0.1062 C   0  0  0  0  0  0  0  0  0  0  0  0
   -1.1902   -1.4302    0.1217 C   0  0  0  0  0  0  0  0  0  0  0  0
   -2.4190   -0.7790    0.0054 C   0  0  0  0  0  0  0  0  0  0  0  0
   -2.4272    0.6083   -0.1376 C   0  0  0  0  0  0  0  0  0  0  0  0
   -1.2631    1.3481    0.0663 C   0  0  0  0  0  0  0  0  0  0  0  0
   -0.0253    0.7064    0.1062 C   0  0  0  0  0  0  0  0  0  0  0  0
    1.2412    1.4371    0.0645 C   0  0  0  0  0  0  0  0  0  0  0  0
    2.3767    0.7327   -0.0337 C   0  0  0  0  0  0  0  0  0  0  0  0
    2.4116   -0.7360   -0.0636 C   0  0  0  0  0  0  0  0  0  0  0  0
    1.2029   -1.4015    0.0529 O   0  0  0  0  0  0  0  0  0  0  0  0
    1.2300    2.9341    0.0642 C   0  0  0  0  0  0  0  0  0  0  0  0
   -3.5946   -1.5087   -0.1896 N   0  0  0  0  0  0  0  0  0  0  0  0
    3.4850   -1.3296   -0.1721 O   0  0  0  0  0  0  0  0  0  0  0  0
   -1.1425   -2.5122    0.1918 H   0  0  0  0  0  0  0  0  0  0  0  0
   -3.3391    1.1359   -0.4042 H   0  0  0  0  0  0  0  0  0  0  0  0
   -1.3455    2.4277    0.1465 H   0  0  0  0  0  0  0  0  0  0  0  0
    3.3426    1.2182   -0.1089 H   0  0  0  0  0  0  0  0  0  0  0  0
    0.6646    3.3159   -0.7937 H   0  0  0  0  0  0  0  0  0  0  0  0
    0.7753    3.3138    0.9854 H   0  0  0  0  0  0  0  0  0  0  0  0
    2.2407    3.3468   -0.0022 H   0  0  0  0  0  0  0  0  0  0  0  0
   -3.5927   -2.4224    0.2540 H   0  0  0  0  0  0  0  0  0  0  0  0
   -4.4474   -0.9885   -0.0058 H   0  0  0  0  0  0  0  0  0  0  0  0
  1  2  1  0  0  0  0
  1  6  2  0  0  0  0
  1 10  1  0  0  0  0
  2  3  2  0  0  0  0
  2 14  1  0  0  0  0
  3  4  1  0  0  0  0
  3 12  1  0  0  0  0
  4  5  2  0  0  0  0
  4 15  1  0  0  0  0
  5  6  1  0  0  0  0
  5 16  1  0  0  0  0
  6  7  1  0  0  0  0
  7  8  2  0  0  0  0
  7 11  1  0  0  0  0
  8  9  1  0  0  0  0
  8 17  1  0  0  0  0
  9 10  1  0  0  0  0
  9 13  2  0  0  0  0
 11 18  1  0  0  0  0
 11 19  1  0  0  0  0
 11 20  1  0  0  0  0
 12 21  1  0  0  0  0
 12 22  1  0  0  0  0
M  END
>  <DRUGBANK_ID>
DB08168

>  <COMMON_NAME>
Coumarin 120

>  <CAS_NUMBER>
26093-31-2

>  <UNII>
OCY3JCT44X

>  <SYNONYMS>
7-Amino-4-methylcoumarin

$$$$
