P83
 OpenBabel10282417173D

 36 38  0  0  0  0  0  0  0  0999 V2000
    2.4842   -1.2309    0.0027 C   0  0  0  0  0  0  0  0  0  0  0  0
    3.4387   -0.2124   -0.0004 C   0  0  0  0  0  0  0  0  0  0  0  0
    3.0623    1.1321   -0.0035 C   0  0  0  0  0  0  0  0  0  0  0  0
    1.6961    1.4704    0.0046 C   0  0  0  0  0  0  0  0  0  0  0  0
    0.7117    0.4585   -0.0005 C   0  0  0  0  0  0  0  0  0  0  0  0
   -0.7191    0.4717   -0.0077 C   0  0  0  0  0  0  0  0  0  0  0  0
   -1.6923    1.4949   -0.0032 C   0  0  0  0  0  0  0  0  0  0  0  0
   -3.0525    1.1645   -0.0033 C   0  0  0  0  0  0  0  0  0  0  0  0
   -3.4553   -0.1657   -0.0247 C   0  0  0  0  0  0  0  0  0  0  0  0
   -2.5130   -1.1931   -0.0560 C   0  0  0  0  0  0  0  0  0  0  0  0
   -1.1499   -0.8575   -0.0292 C   0  0  0  0  0  0  0  0  0  0  0  0
   -0.0173   -1.6500   -0.0014 N   0  0  0  0  0  0  0  0  0  0  0  0
    1.1259   -0.8754   -0.0006 C   0  0  0  0  0  0  0  0  0  0  0  0
   -0.0361   -3.1050    0.0211 C   0  0  0  0  0  0  0  0  0  0  0  0
   -0.6734   -3.6705    1.2802 C   0  0  0  0  0  0  0  0  0  0  0  0
    4.1132    2.2137   -0.0105 C   0  0  0  0  0  0  0  0  0  0  0  0
    3.9889    3.0540   -1.2003 N   0  0  0  0  0  0  0  0  0  0  0  0
    5.0213    4.0762   -1.2152 C   0  0  0  0  0  0  0  0  0  0  0  0
    2.8066   -2.2667    0.0026 H   0  0  0  0  0  0  0  0  0  0  0  0
    4.4914   -0.4870   -0.0028 H   0  0  0  0  0  0  0  0  0  0  0  0
    1.3986    2.5165   -0.0023 H   0  0  0  0  0  0  0  0  0  0  0  0
   -1.3892    2.5385    0.0062 H   0  0  0  0  0  0  0  0  0  0  0  0
   -3.8006    1.9522    0.0099 H   0  0  0  0  0  0  0  0  0  0  0  0
   -4.5133   -0.4139   -0.0182 H   0  0  0  0  0  0  0  0  0  0  0  0
   -2.8457   -2.2256   -0.0866 H   0  0  0  0  0  0  0  0  0  0  0  0
   -0.5572   -3.4369   -0.8832 H   0  0  0  0  0  0  0  0  0  0  0  0
    0.9914   -3.4733   -0.0474 H   0  0  0  0  0  0  0  0  0  0  0  0
   -1.7258   -3.3916    1.3715 H   0  0  0  0  0  0  0  0  0  0  0  0
   -0.6284   -4.7627    1.2697 H   0  0  0  0  0  0  0  0  0  0  0  0
   -0.1624   -3.3043    2.1760 H   0  0  0  0  0  0  0  0  0  0  0  0
    4.0003    2.8101    0.9028 H   0  0  0  0  0  0  0  0  0  0  0  0
    5.1110    1.7574    0.0194 H   0  0  0  0  0  0  0  0  0  0  0  0
    4.0703    2.4627   -2.0271 H   0  0  0  0  0  0  0  0  0  0  0  0
    6.0227    3.6345   -1.2320 H   0  0  0  0  0  0  0  0  0  0  0  0
    4.9089    4.6976   -2.1082 H   0  0  0  0  0  0  0  0  0  0  0  0
    4.9331    4.7312   -0.3424 H   0  0  0  0  0  0  0  0  0  0  0  0
  1  2  1  0  0  0  0
  1 13  2  0  0  0  0
  1 19  1  0  0  0  0
  2  3  2  0  0  0  0
  2 20  1  0  0  0  0
  3  4  1  0  0  0  0
  3 16  1  0  0  0  0
  4  5  2  0  0  0  0
  4 21  1  0  0  0  0
  5  6  1  0  0  0  0
  5 13  1  0  0  0  0
  6  7  1  0  0  0  0
  6 11  2  0  0  0  0
  7  8  2  0  0  0  0
  7 22  1  0  0  0  0
  8  9  1  0  0  0  0
  8 23  1  0  0  0  0
  9 10  2  0  0  0  0
  9 24  1  0  0  0  0
 10 11  1  0  0  0  0
 10 25  1  0  0  0  0
 11 12  1  0  0  0  0
 12 13  1  0  0  0  0
 12 14  1  0  0  0  0
 14 15  1  0  0  0  0
 14 26  1  0  0  0  0
 14 27  1  0  0  0  0
 15 28  1  0  0  0  0
 15 29  1  0  0  0  0
 15 30  1  0  0  0  0
 16 17  1  0  0  0  0
 16 31  1  0  0  0  0
 16 32  1  0  0  0  0
 17 18  1  0  0  0  0
 17 33  1  0  0  0  0
 18 34  1  0  0  0  0
 18 35  1  0  0  0  0
 18 36  1  0  0  0  0
M  END
>  <DRUGBANK_ID>
DB08363

>  <COMMON_NAME>
1-(9-ethyl-9H-carbazol-3-yl)-N-methylmethanamine

$$$$
