
 OpenBabel10282417213D

 33 35  0  0  1  0  0  0  0  0999 V2000
    0.9641    0.0930   -0.0773 N   0  0  0  0  0  0  0  0  0  0  0  0
    0.3345    1.2685   -0.3457 C   0  0  0  0  0  0  0  0  0  0  0  0
   -0.8998    1.2974   -0.2936 O   0  0  0  0  0  0  0  0  0  0  0  0
    1.1314    2.3905   -0.6012 N   0  0  0  0  0  0  0  0  0  0  0  0
    1.0654    3.4489    0.3758 C   0  0  0  0  0  0  0  0  0  0  0  0
    1.0986    3.1150    1.7428 C   0  0  0  0  0  0  0  0  0  0  0  0
    1.1111    4.1033    2.7326 C   0  0  0  0  0  0  0  0  0  0  0  0
    1.0597    5.4450    2.3786 C   0  0  0  0  0  0  0  0  0  0  0  0
    0.9991    5.7938    1.0346 C   0  0  0  0  0  0  0  0  0  0  0  0
    0.9890    4.8047    0.0312 C   0  0  0  0  0  0  0  0  0  0  0  0
    0.8998    5.1726   -1.4162 C   0  0  2  0  0  0  0  0  0  0  0  0
    2.2797    5.0165   -2.0161 C   0  0  0  0  0  0  0  0  0  0  0  0
    2.7698    3.5930   -2.1632 C   0  0  0  0  0  0  0  0  0  0  0  0
    2.2128    2.4239   -1.5803 C   0  0  0  0  0  0  0  0  0  0  0  0
    2.7695    1.2052   -2.0214 C   0  0  0  0  0  0  0  0  0  0  0  0
    3.8890    1.1197   -2.8487 C   0  0  0  0  0  0  0  0  0  0  0  0
    4.4407    2.2655   -3.3742 C   0  0  0  0  0  0  0  0  0  0  0  0
    3.8710    3.4868   -3.0532 C   0  0  0  0  0  0  0  0  0  0  0  0
    0.4743    6.5256   -1.5854 O   0  0  0  0  0  0  0  0  0  0  0  0
    0.3856   -0.7072    0.1396 H   0  0  0  0  0  0  0  0  0  0  0  0
    1.9303    0.0810    0.2160 H   0  0  0  0  0  0  0  0  0  0  0  0
    1.1649    2.0768    2.0571 H   0  0  0  0  0  0  0  0  0  0  0  0
    1.1717    3.8226    3.7803 H   0  0  0  0  0  0  0  0  0  0  0  0
    1.0614    6.2200    3.1406 H   0  0  0  0  0  0  0  0  0  0  0  0
    0.9593    6.8482    0.7646 H   0  0  0  0  0  0  0  0  0  0  0  0
    0.1681    4.5350   -1.9255 H   0  0  0  0  0  0  0  0  0  0  0  0
    2.2477    5.4813   -3.0129 H   0  0  0  0  0  0  0  0  0  0  0  0
    3.0280    5.5915   -1.4499 H   0  0  0  0  0  0  0  0  0  0  0  0
    2.3846    0.2420   -1.7246 H   0  0  0  0  0  0  0  0  0  0  0  0
    4.3102    0.1442   -3.0718 H   0  0  0  0  0  0  0  0  0  0  0  0
    5.2899    2.2087   -4.0463 H   0  0  0  0  0  0  0  0  0  0  0  0
    4.2818    4.3844   -3.5155 H   0  0  0  0  0  0  0  0  0  0  0  0
   -0.3977    6.4777   -2.0122 H   0  0  0  0  0  0  0  0  0  0  0  0
  1  2  1  0  0  0  0
  1 20  1  0  0  0  0
  1 21  1  0  0  0  0
  2  3  2  0  0  0  0
  2  4  1  0  0  0  0
  4  5  1  0  0  0  0
  4 14  1  0  0  0  0
  5  6  2  0  0  0  0
  5 10  1  0  0  0  0
  6  7  1  0  0  0  0
  6 22  1  0  0  0  0
  7  8  2  0  0  0  0
  7 23  1  0  0  0  0
  8  9  1  0  0  0  0
  8 24  1  0  0  0  0
  9 10  2  0  0  0  0
  9 25  1  0  0  0  0
 10 11  1  0  0  0  0
 11 12  1  0  0  0  0
 11 26  1  6  0  0  0
 11 19  1  0  0  0  0
 12 13  1  0  0  0  0
 12 27  1  0  0  0  0
 12 28  1  0  0  0  0
 13 14  2  0  0  0  0
 13 18  1  0  0  0  0
 14 15  1  0  0  0  0
 15 16  2  0  0  0  0
 15 29  1  0  0  0  0
 16 17  1  0  0  0  0
 16 30  1  0  0  0  0
 17 18  2  0  0  0  0
 17 31  1  0  0  0  0
 18 32  1  0  0  0  0
 19 33  1  0  0  0  0
M  END
>  <DRUGBANK_ID>
DB14575

>  <COMMON_NAME>
Eslicarbazepine

>  <CAS_NUMBER>
104746-04-5

>  <UNII>
S5VXA428R4

>  <SYNONYMS>
Eslicarbazepina; Eslicarbazepine; S(+)-Liscarbazepine

$$$$
