
 OpenBabel10282417123D

 21 22  0  0  0  0  0  0  0  0999 V2000
    1.0934   -0.1452   -0.0375 Cl  0  0  0  0  0  0  0  0  0  0  0  0
    5.7970   -2.5730   -0.0351 Cl  0  0  0  0  0  0  0  0  0  0  0  0
    1.4693    2.6440   -0.0251 O   0  0  0  0  0  0  0  0  0  0  0  0
    6.9730    5.0412   -0.0344 O   0  0  0  0  0  0  0  0  0  0  0  0
    4.9937    6.0707   -0.0353 O   0  0  0  0  0  0  0  0  0  0  0  0
    5.5984    2.5025   -0.0365 N   0  0  0  0  0  0  0  0  0  0  0  0
    3.4769    1.3182   -0.0344 C   0  0  0  0  0  0  0  0  0  0  0  0
    4.8926    1.3471   -0.0358 C   0  0  0  0  0  0  0  0  0  0  0  0
    2.8364    2.5810   -0.0325 C   0  0  0  0  0  0  0  0  0  0  0  0
    2.8184    0.0513   -0.0351 C   0  0  0  0  0  0  0  0  0  0  0  0
    4.9301    3.6912   -0.0371 C   0  0  0  0  0  0  0  0  0  0  0  0
    3.5503    3.7698   -0.0362 C   0  0  0  0  0  0  0  0  0  0  0  0
    5.5830    0.1332   -0.0360 C   0  0  0  0  0  0  0  0  0  0  0  0
    4.9168   -1.0941   -0.0356 C   0  0  0  0  0  0  0  0  0  0  0  0
    3.5362   -1.1399   -0.0356 C   0  0  0  0  0  0  0  0  0  0  0  0
    5.7564    4.9506   -0.0358 C   0  0  0  0  0  0  0  0  0  0  0  0
    1.1448    3.5574   -0.0179 H   0  0  0  0  0  0  0  0  0  0  0  0
    5.6361    6.8140   -0.0335 H   0  0  0  0  0  0  0  0  0  0  0  0
    3.0437    4.7270   -0.0377 H   0  0  0  0  0  0  0  0  0  0  0  0
    6.6723    0.1399   -0.0362 H   0  0  0  0  0  0  0  0  0  0  0  0
    3.0108   -2.0917   -0.0360 H   0  0  0  0  0  0  0  0  0  0  0  0
  1 10  1  0  0  0  0
  2 14  1  0  0  0  0
  3  9  1  0  0  0  0
  3 17  1  0  0  0  0
  4 16  2  0  0  0  0
  5 16  1  0  0  0  0
  5 18  1  0  0  0  0
  6  8  2  0  0  0  0
  6 11  1  0  0  0  0
  7  8  1  0  0  0  0
  7  9  2  0  0  0  0
  7 10  1  0  0  0  0
  8 13  1  0  0  0  0
  9 12  1  0  0  0  0
 10 15  2  0  0  0  0
 11 12  2  0  0  0  0
 11 16  1  0  0  0  0
 12 19  1  0  0  0  0
 13 14  2  0  0  0  0
 13 20  1  0  0  0  0
 14 15  1  0  0  0  0
 15 21  1  0  0  0  0
M  END
>  <DRUGBANK_ID>
DB01931

>  <SECONDARY_ACCESSION_NUMBERS>
EXPT01212

>  <COMMON_NAME>
5,7-Dichlorokynurenic acid

>  <CAS_NUMBER>
131123-76-7

>  <UNII>
T61ORK73PY

>  <SYNONYMS>
5,7-Dcka; 5,7-Dichloroquinurenic acid; 5,7-Dichorokynurenic acid

$$$$
