
 OpenBabel10282417213D

 42 45  0  0  0  0  0  0  0  0999 V2000
    1.2629    1.3977   -0.1591 N   0  0  0  0  0  0  0  0  0  0  0  0
    2.4720   -0.7484   -0.0321 C   0  0  0  0  0  0  0  0  0  0  0  0
   -0.0405    0.7707   -0.1013 C   0  0  0  0  0  0  0  0  0  0  0  0
   -0.0731   -0.6456   -0.0430 C   0  0  0  0  0  0  0  0  0  0  0  0
   -1.3074    1.4501   -0.0976 C   0  0  0  0  0  0  0  0  0  0  0  0
    2.3961    0.5892   -0.0750 C   0  0  0  0  0  0  0  0  0  0  0  0
    1.1781   -1.4565   -0.0294 C   0  0  0  0  0  0  0  0  0  0  0  0
   -2.5528    0.7575   -0.0175 C   0  0  0  0  0  0  0  0  0  0  0  0
   -3.7795    1.3964   -0.0090 N   0  0  0  0  0  0  0  0  0  0  0  0
   -2.4857   -0.6482    0.0337 C   0  0  0  0  0  0  0  0  0  0  0  0
    1.4383    2.8462    0.1330 C   0  0  0  0  0  0  0  0  0  0  0  0
   -1.2822   -1.3437    0.0134 C   0  0  0  0  0  0  0  0  0  0  0  0
    3.7694   -1.4611    0.0072 C   0  0  0  0  0  0  0  0  0  0  0  0
    1.7672    3.9360   -0.8649 C   0  0  0  0  0  0  0  0  0  0  0  0
    2.7711    3.5373    0.1729 C   0  0  0  0  0  0  0  0  0  0  0  0
   -4.2540    2.3406   -1.0243 C   0  0  0  0  0  0  0  0  0  0  0  0
   -4.7588    1.2685    1.0543 C   0  0  0  0  0  0  0  0  0  0  0  0
    1.1089   -2.6803    0.0003 O   0  0  0  0  0  0  0  0  0  0  0  0
   -1.4217    3.1933   -0.1442 Cl  0  0  0  0  0  0  0  0  0  0  0  0
    3.9481   -2.6699    0.0201 O   0  0  0  0  0  0  0  0  0  0  0  0
   -6.0739    1.3750    0.2902 C   0  0  0  0  0  0  0  0  0  0  0  0
   -3.6162   -1.3741    0.0466 F   0  0  0  0  0  0  0  0  0  0  0  0
   -5.7952    2.3826   -0.8342 C   0  0  3  0  0  0  0  0  0  0  0  0
    4.8446   -0.6455    0.0092 O   0  0  0  0  0  0  0  0  0  0  0  0
   -6.2959    3.7258   -0.5054 N   0  0  0  0  0  0  0  0  0  0  0  0
    3.3277    1.1362   -0.0439 H   0  0  0  0  0  0  0  0  0  0  0  0
    0.7916    3.1498    0.9524 H   0  0  0  0  0  0  0  0  0  0  0  0
   -1.2959   -2.4325    0.0296 H   0  0  0  0  0  0  0  0  0  0  0  0
    1.9811    3.7003   -1.9011 H   0  0  0  0  0  0  0  0  0  0  0  0
    1.3067    4.9133   -0.7414 H   0  0  0  0  0  0  0  0  0  0  0  0
    2.9262    4.1270    1.0676 H   0  0  0  0  0  0  0  0  0  0  0  0
    3.6673    3.0560   -0.1874 H   0  0  0  0  0  0  0  0  0  0  0  0
   -3.8615    3.3481   -0.8597 H   0  0  0  0  0  0  0  0  0  0  0  0
   -3.9845    2.0262   -2.0374 H   0  0  0  0  0  0  0  0  0  0  0  0
   -4.6894    0.3437    1.6337 H   0  0  0  0  0  0  0  0  0  0  0  0
   -4.6522    2.1164    1.7443 H   0  0  0  0  0  0  0  0  0  0  0  0
   -6.9130    1.6555    0.9349 H   0  0  0  0  0  0  0  0  0  0  0  0
   -6.3112    0.4018   -0.1565 H   0  0  0  0  0  0  0  0  0  0  0  0
   -6.2864    2.0677   -1.7609 H   0  0  0  0  0  0  0  0  0  0  0  0
    5.6041   -1.2697    0.0085 H   0  0  0  0  0  0  0  0  0  0  0  0
   -7.3023    3.6867   -0.3488 H   0  0  0  0  0  0  0  0  0  0  0  0
   -5.8803    4.0507    0.3674 H   0  0  0  0  0  0  0  0  0  0  0  0
  1  3  1  0  0  0  0
  1  6  1  0  0  0  0
  1 11  1  0  0  0  0
  2  6  2  0  0  0  0
  2  7  1  0  0  0  0
  2 13  1  0  0  0  0
  3  4  1  0  0  0  0
  3  5  2  0  0  0  0
  4  7  1  0  0  0  0
  4 12  2  0  0  0  0
  5  8  1  0  0  0  0
  5 19  1  0  0  0  0
  6 26  1  0  0  0  0
  7 18  2  0  0  0  0
  8  9  1  0  0  0  0
  8 10  2  0  0  0  0
  9 16  1  0  0  0  0
  9 17  1  0  0  0  0
 10 12  1  0  0  0  0
 10 22  1  0  0  0  0
 11 14  1  0  0  0  0
 11 15  1  0  0  0  0
 11 27  1  0  0  0  0
 12 28  1  0  0  0  0
 13 20  2  0  0  0  0
 13 24  1  0  0  0  0
 14 15  1  0  0  0  0
 14 29  1  0  0  0  0
 14 30  1  0  0  0  0
 15 31  1  0  0  0  0
 15 32  1  0  0  0  0
 16 23  1  0  0  0  0
 16 33  1  0  0  0  0
 16 34  1  0  0  0  0
 17 21  1  0  0  0  0
 17 35  1  0  0  0  0
 17 36  1  0  0  0  0
 21 23  1  0  0  0  0
 21 37  1  0  0  0  0
 21 38  1  0  0  0  0
 23 25  1  0  0  0  0
 23 39  1  0  0  0  0
 24 40  1  0  0  0  0
 25 41  1  0  0  0  0
 25 42  1  0  0  0  0
M  END
>  <DRUGBANK_ID>
DB14025

>  <COMMON_NAME>
Clinafloxacin

>  <CAS_NUMBER>
105956-97-6

>  <UNII>
8N86XTF9QD

>  <SYNONYMS>
Clinafloxacin

$$$$
