
 OpenBabel10282417213D

 58 61  0  0  0  0  0  0  0  0999 V2000
   -2.2976    0.5547   -0.3108 C   0  0  1  0  0  0  0  0  0  0  0  0
   -0.8438    0.6893    0.0649 C   0  0  1  0  0  0  0  0  0  0  0  0
   -2.9362   -0.7407    0.2237 C   0  0  1  0  0  0  0  0  0  0  0  0
   -3.2194    1.6613    0.1522 C   0  0  0  0  0  0  0  0  0  0  0  0
   -0.0716   -0.4962   -0.5674 C   0  0  1  0  0  0  0  0  0  0  0  0
   -0.2661    2.0107   -0.4380 C   0  0  0  0  0  0  0  0  0  0  0  0
   -4.3611   -0.4976   -0.2804 C   0  0  2  0  0  0  0  0  0  0  0  0
   -2.2071   -1.9327   -0.4073 C   0  0  0  0  0  0  0  0  0  0  0  0
   -2.9339   -0.8859    1.7637 C   0  0  0  0  0  0  0  0  0  0  0  0
   -4.5739    1.0191    0.0221 C   0  0  0  0  0  0  0  0  0  0  0  0
    1.4173   -0.3587   -0.2972 C   0  0  0  0  0  0  0  0  0  0  0  0
   -0.6933   -1.8523   -0.1416 C   0  0  0  0  0  0  0  0  0  0  0  0
    1.1528    2.1641    0.0794 C   0  0  0  0  0  0  0  0  0  0  0  0
   -5.3215   -1.3289    0.3755 O   0  0  0  0  0  0  0  0  0  0  0  0
    1.9815    0.9087   -0.0352 C   0  0  0  0  0  0  0  0  0  0  0  0
    2.2702   -1.4730   -0.3667 C   0  0  0  0  0  0  0  0  0  0  0  0
   -6.6446   -1.0948    0.2063 C   0  0  0  0  0  0  0  0  0  0  0  0
    3.3581    1.0188    0.2024 C   0  0  0  0  0  0  0  0  0  0  0  0
    3.6384   -1.3525   -0.1199 C   0  0  0  0  0  0  0  0  0  0  0  0
   -7.0259   -0.0066   -0.7821 C   0  0  0  0  0  0  0  0  0  0  0  0
   -7.4735   -1.7085    0.8803 O   0  0  0  0  0  0  0  0  0  0  0  0
    4.1703   -0.1045    0.1665 C   0  0  0  0  0  0  0  0  0  0  0  0
   -7.9251   -0.4088   -1.9123 C   0  0  0  0  0  0  0  0  0  0  0  0
    5.4969    0.0716    0.4225 O   0  0  0  0  0  0  0  0  0  0  0  0
   -9.2630   -0.8871   -1.4193 C   0  0  0  0  0  0  0  0  0  0  0  0
   -9.9538    0.1899   -0.5977 C   0  0  0  0  0  0  0  0  0  0  0  0
   -2.3552    0.5408   -1.4142 H   0  0  0  0  0  0  0  0  0  0  0  0
   -0.7490    0.6682    1.1587 H   0  0  0  0  0  0  0  0  0  0  0  0
   -0.1835   -0.4294   -1.6609 H   0  0  0  0  0  0  0  0  0  0  0  0
   -3.0520    1.9808    1.1831 H   0  0  0  0  0  0  0  0  0  0  0  0
   -3.1651    2.5425   -0.4959 H   0  0  0  0  0  0  0  0  0  0  0  0
   -0.8601    2.8665   -0.0956 H   0  0  0  0  0  0  0  0  0  0  0  0
   -0.2813    2.0360   -1.5355 H   0  0  0  0  0  0  0  0  0  0  0  0
   -4.4043   -0.7255   -1.3560 H   0  0  0  0  0  0  0  0  0  0  0  0
   -2.3658   -1.9454   -1.4942 H   0  0  0  0  0  0  0  0  0  0  0  0
   -2.6006   -2.8835   -0.0279 H   0  0  0  0  0  0  0  0  0  0  0  0
   -3.3959   -0.0283    2.2613 H   0  0  0  0  0  0  0  0  0  0  0  0
   -3.4946   -1.7762    2.0719 H   0  0  0  0  0  0  0  0  0  0  0  0
   -1.9268   -0.9857    2.1734 H   0  0  0  0  0  0  0  0  0  0  0  0
   -5.1967    1.1748    0.9088 H   0  0  0  0  0  0  0  0  0  0  0  0
   -5.0393    1.5522   -0.8119 H   0  0  0  0  0  0  0  0  0  0  0  0
   -0.2256   -2.6779   -0.6875 H   0  0  0  0  0  0  0  0  0  0  0  0
   -0.4881   -2.0315    0.9204 H   0  0  0  0  0  0  0  0  0  0  0  0
    1.1093    2.4412    1.1406 H   0  0  0  0  0  0  0  0  0  0  0  0
    1.6347    2.9864   -0.4610 H   0  0  0  0  0  0  0  0  0  0  0  0
    1.8833   -2.4584   -0.6106 H   0  0  0  0  0  0  0  0  0  0  0  0
    3.7990    1.9864    0.4266 H   0  0  0  0  0  0  0  0  0  0  0  0
    4.2596   -2.2409   -0.1566 H   0  0  0  0  0  0  0  0  0  0  0  0
   -7.3585    0.8746   -0.2195 H   0  0  0  0  0  0  0  0  0  0  0  0
   -6.1878    0.3003   -1.3839 H   0  0  0  0  0  0  0  0  0  0  0  0
   -8.0447    0.4647   -2.5699 H   0  0  0  0  0  0  0  0  0  0  0  0
   -7.4154   -1.1778   -2.5051 H   0  0  0  0  0  0  0  0  0  0  0  0
    5.9395   -0.7906    0.3756 H   0  0  0  0  0  0  0  0  0  0  0  0
   -9.8686   -1.1660   -2.2834 H   0  0  0  0  0  0  0  0  0  0  0  0
   -9.1295   -1.7925   -0.8215 H   0  0  0  0  0  0  0  0  0  0  0  0
  -10.1129    1.0872   -1.2043 H   0  0  0  0  0  0  0  0  0  0  0  0
  -10.9117   -0.1778   -0.2322 H   0  0  0  0  0  0  0  0  0  0  0  0
   -9.3709    0.4876    0.2814 H   0  0  0  0  0  0  0  0  0  0  0  0
  1  2  1  0  0  0  0
  1  3  1  0  0  0  0
  1  4  1  0  0  0  0
  1 27  1  6  0  0  0
  2  5  1  0  0  0  0
  2  6  1  0  0  0  0
  2 28  1  1  0  0  0
  3  7  1  0  0  0  0
  3  8  1  0  0  0  0
  3  9  1  1  0  0  0
  4 10  1  0  0  0  0
  4 30  1  0  0  0  0
  4 31  1  0  0  0  0
  5 11  1  0  0  0  0
  5 12  1  0  0  0  0
  5 29  1  6  0  0  0
  6 13  1  0  0  0  0
  6 32  1  0  0  0  0
  6 33  1  0  0  0  0
  7 10  1  0  0  0  0
  7 34  1  6  0  0  0
  7 14  1  0  0  0  0
  8 12  1  0  0  0  0
  8 35  1  0  0  0  0
  8 36  1  0  0  0  0
  9 37  1  0  0  0  0
  9 38  1  0  0  0  0
  9 39  1  0  0  0  0
 10 40  1  0  0  0  0
 10 41  1  0  0  0  0
 11 15  2  0  0  0  0
 11 16  1  0  0  0  0
 12 42  1  0  0  0  0
 12 43  1  0  0  0  0
 13 15  1  0  0  0  0
 13 44  1  0  0  0  0
 13 45  1  0  0  0  0
 14 17  1  0  0  0  0
 15 18  1  0  0  0  0
 16 19  2  0  0  0  0
 16 46  1  0  0  0  0
 17 20  1  0  0  0  0
 17 21  2  0  0  0  0
 18 22  2  0  0  0  0
 18 47  1  0  0  0  0
 19 22  1  0  0  0  0
 19 48  1  0  0  0  0
 20 23  1  0  0  0  0
 20 49  1  0  0  0  0
 20 50  1  0  0  0  0
 22 24  1  0  0  0  0
 23 25  1  0  0  0  0
 23 51  1  0  0  0  0
 23 52  1  0  0  0  0
 24 53  1  0  0  0  0
 25 26  1  0  0  0  0
 25 54  1  0  0  0  0
 25 55  1  0  0  0  0
 26 56  1  0  0  0  0
 26 57  1  0  0  0  0
 26 58  1  0  0  0  0
M  END
>  <DRUGBANK_ID>
DB13956

>  <SECONDARY_ACCESSION_NUMBERS>
DBSALT000068

>  <COMMON_NAME>
Estradiol valerate

>  <CAS_NUMBER>
979-32-8

>  <UNII>
OKG364O896

>  <SYNONYMS>
Estradiol valerate

$$$$
