
 OpenBabel10282417193D

 60 65  0  0  0  0  0  0  0  0999 V2000
    1.6425    1.2267    0.2893 C   0  0  0  0  0  0  0  0  0  0  0  0
    0.9562    1.3766   -1.4894 C   0  0  0  0  0  0  0  0  0  0  0  0
    0.9527    0.1722   -2.6267 N   0  0  0  0  0  0  0  0  0  0  0  0
    0.4494   -1.3076   -2.7399 C   0  0  0  0  0  0  0  0  0  0  0  0
    1.0974   -1.7777   -3.9145 C   0  0  0  0  0  0  0  0  0  0  0  0
    1.6599   -0.6548   -4.5547 C   0  0  0  0  0  0  0  0  0  0  0  0
    1.5640    0.4717   -3.8019 C   0  0  0  0  0  0  0  0  0  0  0  0
    2.0253    1.6800   -4.1196 N   0  0  0  0  0  0  0  0  0  0  0  0
    2.5641    1.8559   -5.3548 C   0  0  0  0  0  0  0  0  0  0  0  0
    2.6752    0.7060   -6.2269 C   0  0  0  0  0  0  0  0  0  0  0  0
    2.2469   -0.5321   -5.7667 C   0  0  0  0  0  0  0  0  0  0  0  0
    2.4322   -1.4581   -6.7175 N   0  0  0  0  0  0  0  0  0  0  0  0
    2.9575   -0.7672   -7.7827 C   0  0  0  0  0  0  0  0  0  0  0  0
    3.1170    0.5243   -7.5255 N   0  0  0  0  0  0  0  0  0  0  0  0
    2.1358   -2.8715   -6.6766 C   0  0  0  0  0  0  0  0  0  0  0  0
    2.9312    3.1816   -5.6973 N   0  0  0  0  0  0  0  0  0  0  0  0
    2.7843    4.2994   -4.9263 C   0  0  0  0  0  0  0  0  0  0  0  0
    3.3636    4.4280   -3.6352 C   0  0  0  0  0  0  0  0  0  0  0  0
    3.1037    5.7125   -3.2071 C   0  0  0  0  0  0  0  0  0  0  0  0
    2.3553    6.2718   -4.2104 N   0  0  0  0  0  0  0  0  0  0  0  0
    2.2133    5.4602   -5.2893 N   0  0  0  0  0  0  0  0  0  0  0  0
    1.8063    7.6131   -4.2071 C   0  0  0  0  0  0  0  0  0  0  0  0
    3.5120    6.4233   -1.9714 C   0  0  0  0  0  0  0  0  0  0  0  0
   -0.2134   -2.4683   -1.7254 C   0  0  0  0  0  0  0  0  0  0  0  0
   -0.0126   -3.6206   -1.9807 O   0  0  0  0  0  0  0  0  0  0  0  0
   -0.7919   -2.1236   -0.3359 N   0  0  0  0  0  0  0  0  0  0  0  0
   -0.6087   -0.9086    0.3196 C   0  0  0  0  0  0  0  0  0  0  0  0
   -0.9327    0.3988   -0.1940 C   0  0  0  0  0  0  0  0  0  0  0  0
    0.4574   -0.4739   -0.4690 C   0  0  0  0  0  0  0  0  0  0  0  0
   -0.9199   -3.0408    0.7353 C   0  0  0  0  0  0  0  0  0  0  0  0
   -0.9654   -4.4924    0.7628 C   0  0  0  0  0  0  0  0  0  0  0  0
   -2.2441   -3.6909    0.6379 C   0  0  0  0  0  0  0  0  0  0  0  0
    1.6165    0.2228    0.8746 H   0  0  0  0  0  0  0  0  0  0  0  0
    1.0176    1.6335    1.1095 H   0  0  0  0  0  0  0  0  0  0  0  0
    2.7264    1.1325    0.2984 H   0  0  0  0  0  0  0  0  0  0  0  0
   -0.1284    1.5498   -1.6218 H   0  0  0  0  0  0  0  0  0  0  0  0
    1.3051    2.3147   -1.9176 H   0  0  0  0  0  0  0  0  0  0  0  0
    1.1476   -2.8246   -4.2075 H   0  0  0  0  0  0  0  0  0  0  0  0
    3.2013   -1.2556   -8.7163 H   0  0  0  0  0  0  0  0  0  0  0  0
    2.7130   -3.3308   -5.8670 H   0  0  0  0  0  0  0  0  0  0  0  0
    1.0634   -3.0102   -6.5031 H   0  0  0  0  0  0  0  0  0  0  0  0
    2.4058   -3.3465   -7.6213 H   0  0  0  0  0  0  0  0  0  0  0  0
    3.0690    3.2819   -6.6926 H   0  0  0  0  0  0  0  0  0  0  0  0
    3.9491    3.6882   -3.1110 H   0  0  0  0  0  0  0  0  0  0  0  0
    1.1606    7.7273   -3.3297 H   0  0  0  0  0  0  0  0  0  0  0  0
    2.6332    8.3276   -4.1473 H   0  0  0  0  0  0  0  0  0  0  0  0
    1.2263    7.7897   -5.1151 H   0  0  0  0  0  0  0  0  0  0  0  0
    4.1043    7.3148   -2.2053 H   0  0  0  0  0  0  0  0  0  0  0  0
    2.6399    6.7287   -1.3849 H   0  0  0  0  0  0  0  0  0  0  0  0
    4.1283    5.7721   -1.3429 H   0  0  0  0  0  0  0  0  0  0  0  0
   -0.3871   -0.8354    1.3810 H   0  0  0  0  0  0  0  0  0  0  0  0
   -1.7637    0.5790   -0.8714 H   0  0  0  0  0  0  0  0  0  0  0  0
   -0.8222    1.3277    0.3896 H   0  0  0  0  0  0  0  0  0  0  0  0
    1.5650   -0.4208   -0.6466 H   0  0  0  0  0  0  0  0  0  0  0  0
    1.0770   -1.3810   -0.7198 H   0  0  0  0  0  0  0  0  0  0  0  0
   -0.5882   -2.6483    1.7110 H   0  0  0  0  0  0  0  0  0  0  0  0
   -0.4518   -4.9437   -0.0684 H   0  0  0  0  0  0  0  0  0  0  0  0
   -0.7151   -4.9137    1.7299 H   0  0  0  0  0  0  0  0  0  0  0  0
   -2.9075   -3.4840    1.4625 H   0  0  0  0  0  0  0  0  0  0  0  0
   -2.6906   -3.4793   -0.3353 H   0  0  0  0  0  0  0  0  0  0  0  0
  1  2  1  0  0  0  0
  1 33  1  0  0  0  0
  1 34  1  0  0  0  0
  1 35  1  0  0  0  0
  2  3  1  0  0  0  0
  2 36  1  0  0  0  0
  2 37  1  0  0  0  0
  3  4  1  0  0  0  0
  3  7  1  0  0  0  0
  4  5  2  0  0  0  0
  4 24  1  0  0  0  0
  5  6  1  0  0  0  0
  5 38  1  0  0  0  0
  6  7  1  0  0  0  0
  6 11  2  0  0  0  0
  7  8  2  0  0  0  0
  8  9  1  0  0  0  0
  9 10  2  0  0  0  0
  9 16  1  0  0  0  0
 10 11  1  0  0  0  0
 10 14  1  0  0  0  0
 11 12  1  0  0  0  0
 12 13  1  0  0  0  0
 12 15  1  0  0  0  0
 13 14  2  0  0  0  0
 13 39  1  0  0  0  0
 15 40  1  0  0  0  0
 15 41  1  0  0  0  0
 15 42  1  0  0  0  0
 16 17  1  0  0  0  0
 16 43  1  0  0  0  0
 17 18  1  0  0  0  0
 17 21  2  0  0  0  0
 18 19  2  0  0  0  0
 18 44  1  0  0  0  0
 19 20  1  0  0  0  0
 19 23  1  0  0  0  0
 20 21  1  0  0  0  0
 20 22  1  0  0  0  0
 22 45  1  0  0  0  0
 22 46  1  0  0  0  0
 22 47  1  0  0  0  0
 23 48  1  0  0  0  0
 23 49  1  0  0  0  0
 23 50  1  0  0  0  0
 24 25  2  0  0  0  0
 24 26  1  0  0  0  0
 26 27  1  0  0  0  0
 26 30  1  0  0  0  0
 27 28  1  0  0  0  0
 27 29  1  0  0  0  0
 27 51  1  0  0  0  0
 28 29  1  0  0  0  0
 28 52  1  0  0  0  0
 28 53  1  0  0  0  0
 29 54  1  0  0  0  0
 29 55  1  0  0  0  0
 30 31  1  0  0  0  0
 30 32  1  0  0  0  0
 30 56  1  0  0  0  0
 31 32  1  0  0  0  0
 31 57  1  0  0  0  0
 31 58  1  0  0  0  0
 32 59  1  0  0  0  0
 32 60  1  0  0  0  0
M  END
>  <DRUGBANK_ID>
DB12591

>  <COMMON_NAME>
BMS-911543

>  <CAS_NUMBER>
1271022-90-2

>  <UNII>
7N03P021J8

$$$$
