
 OpenBabel10282417203D

 29 28  0  0  0  0  0  0  0  0999 V2000
    1.0804   -0.0116   -0.1630 C   0  0  0  0  0  0  0  0  0  0  0  0
    0.6216   -0.1770    1.2743 C   0  0  0  0  0  0  0  0  0  0  0  0
    0.9000    0.9846    2.2382 C   0  0  0  0  0  0  0  0  0  0  0  0
    0.3066    2.3095    1.6301 C   0  0  0  0  0  0  0  0  0  0  0  0
   -1.1187    2.4310    1.7517 O   0  0  0  0  0  0  0  0  0  0  0  0
   -1.9517    1.6864    0.8686 N   0  3  0  0  0  0  0  0  0  0  0  0
   -1.4315    1.1791   -0.1298 O   0  0  0  0  0  0  0  0  0  0  0  0
   -3.1172    1.6624    1.2251 O   0  5  0  0  0  0  0  0  0  0  0  0
    0.1808    0.7275    3.6176 C   0  0  0  0  0  0  0  0  0  0  0  0
    0.4879   -0.4566    4.3548 O   0  0  0  0  0  0  0  0  0  0  0  0
    0.1130   -1.7119    3.8222 N   0  3  0  0  0  0  0  0  0  0  0  0
   -0.8050   -1.7428    3.0166 O   0  0  0  0  0  0  0  0  0  0  0  0
    0.8057   -2.6315    4.2632 O   0  5  0  0  0  0  0  0  0  0  0  0
    2.4578    1.0739    2.3985 C   0  0  0  0  0  0  0  0  0  0  0  0
    3.0378   -0.1718    2.8099 O   0  0  0  0  0  0  0  0  0  0  0  0
    3.1495   -0.3498    4.2124 N   0  3  0  0  0  0  0  0  0  0  0  0
    2.8486    0.6085    4.9236 O   0  0  0  0  0  0  0  0  0  0  0  0
    3.4675   -1.4956    4.5215 O   0  5  0  0  0  0  0  0  0  0  0  0
    0.7767    0.9256   -0.6304 H   0  0  0  0  0  0  0  0  0  0  0  0
    0.6476   -0.8259   -0.7489 H   0  0  0  0  0  0  0  0  0  0  0  0
    2.1659   -0.0627   -0.2285 H   0  0  0  0  0  0  0  0  0  0  0  0
   -0.4506   -0.3682    1.2904 H   0  0  0  0  0  0  0  0  0  0  0  0
    1.1126   -1.0854    1.6256 H   0  0  0  0  0  0  0  0  0  0  0  0
    0.6944    3.1452    2.2308 H   0  0  0  0  0  0  0  0  0  0  0  0
    0.6597    2.5415    0.6186 H   0  0  0  0  0  0  0  0  0  0  0  0
    0.5373    1.5432    4.2696 H   0  0  0  0  0  0  0  0  0  0  0  0
   -0.9011    0.8820    3.5821 H   0  0  0  0  0  0  0  0  0  0  0  0
    2.8930    1.2632    1.4075 H   0  0  0  0  0  0  0  0  0  0  0  0
    2.8019    1.9228    3.0003 H   0  0  0  0  0  0  0  0  0  0  0  0
  1  2  1  0  0  0  0
  1 19  1  0  0  0  0
  1 20  1  0  0  0  0
  1 21  1  0  0  0  0
  2  3  1  0  0  0  0
  2 22  1  0  0  0  0
  2 23  1  0  0  0  0
  3  4  1  0  0  0  0
  3  9  1  0  0  0  0
  3 14  1  0  0  0  0
  4  5  1  0  0  0  0
  4 24  1  0  0  0  0
  4 25  1  0  0  0  0
  5  6  1  0  0  0  0
  6  7  2  0  0  0  0
  6  8  1  0  0  0  0
  9 10  1  0  0  0  0
  9 26  1  0  0  0  0
  9 27  1  0  0  0  0
 10 11  1  0  0  0  0
 11 12  2  0  0  0  0
 11 13  1  0  0  0  0
 14 15  1  0  0  0  0
 14 28  1  0  0  0  0
 14 29  1  0  0  0  0
 15 16  1  0  0  0  0
 16 17  2  0  0  0  0
 16 18  1  0  0  0  0
M  CHG  6   6   1   8  -1  11   1  13  -1  16   1  18  -1
M  END
>  <DRUGBANK_ID>
DB13255

>  <COMMON_NAME>
Propatyl nitrate

>  <CAS_NUMBER>
2921-92-8

>  <UNII>
AJT2YN495R

>  <SYNONYMS>
Propatyl nitrate; Propatylnitrate

$$$$
