OAL
 OpenBabel10282417133D

 32 34  0  0  0  0  0  0  0  0999 V2000
    3.7022    1.0901    0.0236 C   0  0  0  0  0  0  0  0  0  0  0  0
    2.4837    1.7641    0.0274 C   0  0  0  0  0  0  0  0  0  0  0  0
    1.2814    1.0422    0.0086 C   0  0  0  0  0  0  0  0  0  0  0  0
    1.2914   -0.3556   -0.0061 C   0  0  0  0  0  0  0  0  0  0  0  0
    2.5265   -1.0215   -0.0115 C   0  0  0  0  0  0  0  0  0  0  0  0
    3.7244   -0.3028    0.0037 C   0  0  0  0  0  0  0  0  0  0  0  0
    0.0029   -1.0913   -0.0014 C   0  0  0  0  0  0  0  0  0  0  0  0
   -1.2679   -0.3409    0.0082 C   0  0  0  0  0  0  0  0  0  0  0  0
   -1.2617    1.0511   -0.0102 C   0  0  0  0  0  0  0  0  0  0  0  0
    0.0103    1.7911    0.0069 C   0  0  0  0  0  0  0  0  0  0  0  0
   -2.4956   -1.0174    0.0237 C   0  0  0  0  0  0  0  0  0  0  0  0
   -3.7066   -0.3132   -0.0257 C   0  0  0  0  0  0  0  0  0  0  0  0
   -3.6823    1.0864   -0.0450 C   0  0  0  0  0  0  0  0  0  0  0  0
   -2.4659    1.7666   -0.0324 C   0  0  0  0  0  0  0  0  0  0  0  0
   -5.0191   -1.0567   -0.0756 C   0  0  0  0  0  0  0  0  0  0  0  0
   -5.1301   -1.9648   -1.2759 C   0  0  0  0  0  0  0  0  0  0  0  0
    2.5849   -2.3853   -0.0299 O   0  0  0  0  0  0  0  0  0  0  0  0
   -0.0637   -2.3168   -0.0065 O   0  0  0  0  0  0  0  0  0  0  0  0
   -2.5849   -2.3846    0.0896 O   0  0  0  0  0  0  0  0  0  0  0  0
   -5.3414   -3.1690   -1.2620 O   0  0  0  0  0  0  0  0  0  0  0  0
   -5.0243   -1.3061   -2.4511 O   0  0  0  0  0  0  0  0  0  0  0  0
    0.0111    3.0166    0.0247 O   0  0  0  0  0  0  0  0  0  0  0  0
    4.6335    1.6515    0.0369 H   0  0  0  0  0  0  0  0  0  0  0  0
    2.4728    2.8533    0.0485 H   0  0  0  0  0  0  0  0  0  0  0  0
    4.6829   -0.8143    0.0043 H   0  0  0  0  0  0  0  0  0  0  0  0
   -4.6093    1.6556   -0.0760 H   0  0  0  0  0  0  0  0  0  0  0  0
   -2.4614    2.8556   -0.0472 H   0  0  0  0  0  0  0  0  0  0  0  0
   -5.1239   -1.6523    0.8386 H   0  0  0  0  0  0  0  0  0  0  0  0
   -5.8674   -0.3631   -0.0975 H   0  0  0  0  0  0  0  0  0  0  0  0
    3.5047   -2.6927   -0.0221 H   0  0  0  0  0  0  0  0  0  0  0  0
   -1.6764   -2.7662    0.0883 H   0  0  0  0  0  0  0  0  0  0  0  0
   -5.0753   -2.0145   -3.1261 H   0  0  0  0  0  0  0  0  0  0  0  0
  1  2  2  0  0  0  0
  1  6  1  0  0  0  0
  1 23  1  0  0  0  0
  2  3  1  0  0  0  0
  2 24  1  0  0  0  0
  3  4  2  0  0  0  0
  3 10  1  0  0  0  0
  4  5  1  0  0  0  0
  4  7  1  0  0  0  0
  5  6  2  0  0  0  0
  5 17  1  0  0  0  0
  6 25  1  0  0  0  0
  7  8  1  0  0  0  0
  7 18  2  0  0  0  0
  8  9  2  0  0  0  0
  8 11  1  0  0  0  0
  9 10  1  0  0  0  0
  9 14  1  0  0  0  0
 10 22  2  0  0  0  0
 11 12  2  0  0  0  0
 11 19  1  0  0  0  0
 12 13  1  0  0  0  0
 12 15  1  0  0  0  0
 13 14  2  0  0  0  0
 13 26  1  0  0  0  0
 14 27  1  0  0  0  0
 15 16  1  0  0  0  0
 15 28  1  0  0  0  0
 15 29  1  0  0  0  0
 16 20  2  0  0  0  0
 16 21  1  0  0  0  0
 17 30  1  0  0  0  0
 19 31  1  0  0  0  0
 21 32  1  0  0  0  0
M  END
>  <DRUGBANK_ID>
DB03037

>  <SECONDARY_ACCESSION_NUMBERS>
EXPT02410

>  <COMMON_NAME>
Oxidized Acetyl Dithranol

$$$$
