MQU
 OpenBabel10282417173D

 41 43  0  0  0  0  0  0  0  0999 V2000
    0.9330   -0.0438   -0.0049 C   0  0  0  0  0  0  0  0  0  0  0  0
    0.4825   -0.2186   -1.4578 C   0  0  0  0  0  0  0  0  0  0  0  0
    1.0037   -1.4240   -2.0348 O   0  0  0  0  0  0  0  0  0  0  0  0
    2.4278   -1.4547   -2.0924 C   0  0  0  0  0  0  0  0  0  0  0  0
    0.5411   -1.2943    0.8216 C   0  0  0  0  0  0  0  0  0  0  0  0
    1.0409   -1.2672    2.1652 O   0  0  0  0  0  0  0  0  0  0  0  0
    2.4589   -1.2502    2.2380 C   0  0  0  0  0  0  0  0  0  0  0  0
    1.9220    6.4779   -0.2950 N   0  0  0  0  0  0  0  0  0  0  0  0
    0.5489    7.1381    1.5134 N   0  0  0  0  0  0  0  0  0  0  0  0
    0.4909    1.2212    0.5737 N   0  0  0  0  0  0  0  0  0  0  0  0
    1.7250    8.6995    0.2910 N   0  0  0  0  0  0  0  0  0  0  0  0
   -0.6696    5.6690    2.7609 N   0  0  0  0  0  0  0  0  0  0  0  0
    1.5895    5.1974   -0.0813 C   0  0  0  0  0  0  0  0  0  0  0  0
    1.3852    7.3923    0.5115 C   0  0  0  0  0  0  0  0  0  0  0  0
    0.2153    5.8541    1.7258 C   0  0  0  0  0  0  0  0  0  0  0  0
    0.7118    4.8033    0.9374 C   0  0  0  0  0  0  0  0  0  0  0  0
    0.3892    3.4063    1.0941 C   0  0  0  0  0  0  0  0  0  0  0  0
   -0.4288    2.6516    1.9821 C   0  0  0  0  0  0  0  0  0  0  0  0
   -0.3600    1.3337    1.6319 C   0  0  0  0  0  0  0  0  0  0  0  0
    0.9746    2.4751    0.2242 C   0  0  0  0  0  0  0  0  0  0  0  0
    1.8741    2.8704   -0.7742 C   0  0  0  0  0  0  0  0  0  0  0  0
    2.1475    4.2365   -0.9088 C   0  0  0  0  0  0  0  0  0  0  0  0
    2.0214    0.0463    0.0011 H   0  0  0  0  0  0  0  0  0  0  0  0
   -0.6116   -0.2666   -1.5099 H   0  0  0  0  0  0  0  0  0  0  0  0
    0.7843    0.6235   -2.0886 H   0  0  0  0  0  0  0  0  0  0  0  0
    2.8089   -0.5927   -2.6463 H   0  0  0  0  0  0  0  0  0  0  0  0
    2.8655   -1.4767   -1.0896 H   0  0  0  0  0  0  0  0  0  0  0  0
    2.7345   -2.3764   -2.5898 H   0  0  0  0  0  0  0  0  0  0  0  0
   -0.5526   -1.3748    0.8817 H   0  0  0  0  0  0  0  0  0  0  0  0
    0.8845   -2.2228    0.3537 H   0  0  0  0  0  0  0  0  0  0  0  0
    2.8673   -2.1464    1.7649 H   0  0  0  0  0  0  0  0  0  0  0  0
    2.8754   -0.3549    1.7700 H   0  0  0  0  0  0  0  0  0  0  0  0
    2.7517   -1.2224    3.2888 H   0  0  0  0  0  0  0  0  0  0  0  0
    2.3544    8.9027   -0.4628 H   0  0  0  0  0  0  0  0  0  0  0  0
    1.3248    9.3977    0.8910 H   0  0  0  0  0  0  0  0  0  0  0  0
   -0.9691    4.7634    3.0547 H   0  0  0  0  0  0  0  0  0  0  0  0
   -0.9607    6.4768    3.2855 H   0  0  0  0  0  0  0  0  0  0  0  0
   -1.0272    2.9671    2.8188 H   0  0  0  0  0  0  0  0  0  0  0  0
   -0.8274    0.4825    2.1086 H   0  0  0  0  0  0  0  0  0  0  0  0
    2.3472    2.1610   -1.4458 H   0  0  0  0  0  0  0  0  0  0  0  0
    2.8263    4.5555   -1.6986 H   0  0  0  0  0  0  0  0  0  0  0  0
  1  2  1  0  0  0  0
  1  5  1  0  0  0  0
  1 10  1  0  0  0  0
  1 23  1  0  0  0  0
  2  3  1  0  0  0  0
  2 24  1  0  0  0  0
  2 25  1  0  0  0  0
  3  4  1  0  0  0  0
  4 26  1  0  0  0  0
  4 27  1  0  0  0  0
  4 28  1  0  0  0  0
  5  6  1  0  0  0  0
  5 29  1  0  0  0  0
  5 30  1  0  0  0  0
  6  7  1  0  0  0  0
  7 31  1  0  0  0  0
  7 32  1  0  0  0  0
  7 33  1  0  0  0  0
  8 13  2  0  0  0  0
  8 14  1  0  0  0  0
  9 14  2  0  0  0  0
  9 15  1  0  0  0  0
 10 19  1  0  0  0  0
 10 20  1  0  0  0  0
 11 14  1  0  0  0  0
 11 34  1  0  0  0  0
 11 35  1  0  0  0  0
 12 15  1  0  0  0  0
 12 36  1  0  0  0  0
 12 37  1  0  0  0  0
 13 16  1  0  0  0  0
 13 22  1  0  0  0  0
 15 16  2  0  0  0  0
 16 17  1  0  0  0  0
 17 18  1  0  0  0  0
 17 20  2  0  0  0  0
 18 19  2  0  0  0  0
 18 38  1  0  0  0  0
 19 39  1  0  0  0  0
 20 21  1  0  0  0  0
 21 22  2  0  0  0  0
 21 40  1  0  0  0  0
 22 41  1  0  0  0  0
M  END
>  <DRUGBANK_ID>
DB08203

>  <COMMON_NAME>
7-[2-METHOXY-1-(METHOXYMETHYL)ETHYL]-7H-PYRROLO[3,2-F] QUINAZOLINE-1,3-DIAMINE

$$$$
