
 OpenBabel10282417153D

 53 55  0  0  0  0  0  0  0  0999 V2000
   -1.2740    1.3537   -0.2139 C   0  0  2  0  0  0  0  0  0  0  0  0
   -1.2921   -0.1081    0.2377 C   0  0  2  0  0  0  0  0  0  0  0  0
   -0.0036   -0.8095   -0.2022 C   0  0  1  0  0  0  0  0  0  0  0  0
    1.2444   -0.0245    0.2368 C   0  0  2  0  0  0  0  0  0  0  0  0
    1.1224    1.4705   -0.1759 C   0  0  1  0  0  0  0  0  0  0  0  0
   -0.1156    2.0216    0.2908 O   0  0  0  0  0  0  0  0  0  0  0  0
    2.2534    2.3128    0.4012 C   0  0  0  0  0  0  0  0  0  0  0  0
   -2.5052    2.0883    0.3280 C   0  0  0  0  0  0  0  0  0  0  0  0
    2.3987   -0.6609   -0.3334 O   0  0  0  0  0  0  0  0  0  0  0  0
   -2.4441   -0.7755   -0.2787 O   0  0  0  0  0  0  0  0  0  0  0  0
    0.0375   -2.1472    0.3136 O   0  0  0  0  0  0  0  0  0  0  0  0
   -2.4722    3.4582   -0.0699 O   0  0  0  0  0  0  0  0  0  0  0  0
    3.5755    2.0613    0.0117 C   0  0  0  0  0  0  0  0  0  0  0  0
    4.6920    2.6469    0.6430 C   0  0  0  0  0  0  0  0  0  0  0  0
    4.4372    3.6465    1.5870 C   0  0  0  0  0  0  0  0  0  0  0  0
    3.1219    3.9997    1.9058 C   0  0  0  0  0  0  0  0  0  0  0  0
    2.0414    3.3226    1.3390 C   0  0  0  0  0  0  0  0  0  0  0  0
    5.6990    4.5157    2.3823 Cl  0  0  0  0  0  0  0  0  0  0  0  0
    6.0935    2.1963    0.2677 C   0  0  0  0  0  0  0  0  0  0  0  0
    6.4357    0.7496    0.5677 C   0  0  0  0  0  0  0  0  0  0  0  0
    5.7704   -0.2749   -0.0978 C   0  0  0  0  0  0  0  0  0  0  0  0
    6.1066   -1.6042    0.0702 C   0  0  0  0  0  0  0  0  0  0  0  0
    7.1182   -1.9657    0.9505 C   0  0  0  0  0  0  0  0  0  0  0  0
    7.8502   -0.9584    1.5752 C   0  0  0  0  0  0  0  0  0  0  0  0
    7.4973    0.3925    1.4155 C   0  0  0  0  0  0  0  0  0  0  0  0
    7.4142   -3.2593    1.2747 O   0  0  0  0  0  0  0  0  0  0  0  0
    6.5425   -4.2772    0.7593 C   0  0  0  0  0  0  0  0  0  0  0  0
    5.1193   -4.2305    1.3222 C   0  0  0  0  0  0  0  0  0  0  0  0
   -1.2720    1.4366   -1.3088 H   0  0  0  0  0  0  0  0  0  0  0  0
   -1.3570   -0.1626    1.3315 H   0  0  0  0  0  0  0  0  0  0  0  0
    0.0013   -0.9300   -1.2923 H   0  0  0  0  0  0  0  0  0  0  0  0
    1.3506   -0.1045    1.3265 H   0  0  0  0  0  0  0  0  0  0  0  0
    1.1610    1.5643   -1.2700 H   0  0  0  0  0  0  0  0  0  0  0  0
   -3.4300    1.6464   -0.0526 H   0  0  0  0  0  0  0  0  0  0  0  0
   -2.5250    2.0638    1.4229 H   0  0  0  0  0  0  0  0  0  0  0  0
    2.3015   -0.6769   -1.2999 H   0  0  0  0  0  0  0  0  0  0  0  0
   -2.3622   -0.8450   -1.2458 H   0  0  0  0  0  0  0  0  0  0  0  0
    0.1228   -2.0995    1.2827 H   0  0  0  0  0  0  0  0  0  0  0  0
   -1.6317    3.8141    0.2751 H   0  0  0  0  0  0  0  0  0  0  0  0
    3.7240    1.3599   -0.7993 H   0  0  0  0  0  0  0  0  0  0  0  0
    2.9274    4.7969    2.6178 H   0  0  0  0  0  0  0  0  0  0  0  0
    1.0345    3.5965    1.6424 H   0  0  0  0  0  0  0  0  0  0  0  0
    6.2266    2.3490   -0.8116 H   0  0  0  0  0  0  0  0  0  0  0  0
    6.8529    2.8323    0.7306 H   0  0  0  0  0  0  0  0  0  0  0  0
    4.9582   -0.0901   -0.7863 H   0  0  0  0  0  0  0  0  0  0  0  0
    5.5285   -2.3222   -0.4927 H   0  0  0  0  0  0  0  0  0  0  0  0
    8.7070   -1.2199    2.1958 H   0  0  0  0  0  0  0  0  0  0  0  0
    8.0612    1.1545    1.9461 H   0  0  0  0  0  0  0  0  0  0  0  0
    6.5552   -4.2704   -0.3384 H   0  0  0  0  0  0  0  0  0  0  0  0
    6.9836   -5.2342    1.0566 H   0  0  0  0  0  0  0  0  0  0  0  0
    4.5775   -3.3104    1.0863 H   0  0  0  0  0  0  0  0  0  0  0  0
    4.5241   -5.0524    0.9152 H   0  0  0  0  0  0  0  0  0  0  0  0
    5.1333   -4.2893    2.4130 H   0  0  0  0  0  0  0  0  0  0  0  0
  1  2  1  0  0  0  0
  1  8  1  0  0  0  0
  1  6  1  0  0  0  0
  1 29  1  6  0  0  0
  2  3  1  0  0  0  0
  2 10  1  0  0  0  0
  2 30  1  1  0  0  0
  3  4  1  0  0  0  0
  3 11  1  0  0  0  0
  3 31  1  6  0  0  0
  4  9  1  0  0  0  0
  4  5  1  0  0  0  0
  4 32  1  1  0  0  0
  5  7  1  0  0  0  0
  5  6  1  0  0  0  0
  5 33  1  6  0  0  0
  7 13  2  0  0  0  0
  8 12  1  0  0  0  0
  8 34  1  0  0  0  0
  8 35  1  0  0  0  0
  9 36  1  0  0  0  0
 10 37  1  0  0  0  0
 11 38  1  0  0  0  0
 12 39  1  0  0  0  0
 13 14  1  0  0  0  0
 13 40  1  0  0  0  0
 14 15  2  0  0  0  0
 14 19  1  0  0  0  0
 15 16  1  0  0  0  0
 15 18  1  0  0  0  0
 16 17  2  0  0  0  0
 16 41  1  0  0  0  0
 17  7  1  0  0  0  0
 17 42  1  0  0  0  0
 19 20  1  0  0  0  0
 19 43  1  0  0  0  0
 19 44  1  0  0  0  0
 20 21  2  0  0  0  0
 21 22  1  0  0  0  0
 21 45  1  0  0  0  0
 22 23  2  0  0  0  0
 22 46  1  0  0  0  0
 23 24  1  0  0  0  0
 23 26  1  0  0  0  0
 24 25  2  0  0  0  0
 24 47  1  0  0  0  0
 25 20  1  0  0  0  0
 25 48  1  0  0  0  0
 26 27  1  0  0  0  0
 27 28  1  0  0  0  0
 27 49  1  0  0  0  0
 27 50  1  0  0  0  0
 28 51  1  0  0  0  0
 28 52  1  0  0  0  0
 28 53  1  0  0  0  0
M  END
>  <DRUGBANK_ID>
DB06292

>  <COMMON_NAME>
Dapagliflozin

>  <CAS_NUMBER>
461432-26-8

>  <UNII>
1ULL0QJ8UC

>  <SYNONYMS>
(2S,3R,4R,5S,6R)-2-(4-Chloro-3-(4-ethoxybenzyl)phenyl)-6- (hydroxymethyl)tetrahydro-2H-pyran-3,4,5-triol; Dapagliflozin; Dapagliflozina

$$$$
