
 OpenBabel10282417193D

131138  0  0  1  0  0  0  0  0999 V2000
    1.1651    1.7843   -1.3597 C   0  0  0  0  0  0  0  0  0  0  0  0
    0.2105    0.9994    0.1511 C   0  0  2  0  0  0  0  0  0  0  0  0
    1.0800   -0.1994    0.1838 C   0  0  0  0  0  0  0  0  0  0  0  0
    2.4231    0.4749   -0.1803 C   0  0  0  0  0  0  0  0  0  0  0  0
    2.7005    2.0611    0.6087 C   0  0  0  0  0  0  0  0  0  0  0  0
    3.7904    2.3155    1.1082 O   0  0  0  0  0  0  0  0  0  0  0  0
    1.8019    3.0835    0.7811 N   0  0  0  0  0  0  0  0  0  0  0  0
    0.4682    3.0548    0.5256 C   0  0  1  0  0  0  0  0  0  0  0  0
   -0.3996    2.6547    2.2110 C   0  0  0  0  0  0  0  0  0  0  0  0
   -0.9587    4.3714    2.8648 C   0  0  0  0  0  0  0  0  0  0  0  0
   -1.5554    5.7912    1.8366 C   0  0  0  0  0  0  0  0  0  0  0  0
   -2.9649    5.7082    1.2391 C   0  0  0  0  0  0  0  0  0  0  0  0
   -4.1424    5.5791    1.8651 N   0  0  0  0  0  0  0  0  0  0  0  0
   -5.2197    6.2151    1.3087 C   0  0  0  0  0  0  0  0  0  0  0  0
   -6.6075    5.7628    2.1006 S   0  0  0  0  0  0  0  0  0  0  0  0
   -5.1792    7.2923    0.3600 N   0  0  0  0  0  0  0  0  0  0  0  0
   -4.1868    8.0228   -0.4256 C   0  0  0  0  0  0  0  0  0  0  0  0
   -3.7235    7.5450   -1.4913 C   0  0  0  0  0  0  0  0  0  0  0  0
   -3.4259    7.9930   -3.2106 C   0  0  0  0  0  0  0  0  0  0  0  0
   -2.1865    8.3791   -3.3795 C   0  0  0  0  0  0  0  0  0  0  0  0
   -2.3997    9.1212   -2.2630 C   0  0  0  0  0  0  0  0  0  0  0  0
   -3.5541    9.0391   -0.9680 C   0  0  0  0  0  0  0  0  0  0  0  0
   -2.0943   10.3596   -2.7712 C   0  0  0  0  0  0  0  0  0  0  0  0
   -2.6505   11.2852   -2.2503 O   0  0  0  0  0  0  0  0  0  0  0  0
   -1.3786   10.2340   -3.9007 O   0  0  0  0  0  0  0  0  0  0  0  0
   -0.6791    7.5543   -3.5721 C   0  0  0  0  0  0  0  0  0  0  0  0
   -0.9194    5.5889   -3.3754 C   0  0  0  0  0  0  0  0  0  0  0  0
   -2.5987    4.9447   -4.1354 C   0  0  0  0  0  0  0  0  0  0  0  0
   -4.0006    4.5510   -3.5084 C   0  0  0  0  0  0  0  0  0  0  0  0
   -3.7982    4.9363   -1.9302 C   0  0  0  0  0  0  0  0  0  0  0  0
   -2.1794    5.7017   -1.1728 C   0  0  0  0  0  0  0  0  0  0  0  0
   -0.6628    5.8806   -1.9915 C   0  0  0  0  0  0  0  0  0  0  0  0
    0.3747    6.5044   -1.4409 O   0  0  0  0  0  0  0  0  0  0  0  0
    1.0737    7.4855   -1.9504 C   0  0  0  0  0  0  0  0  0  0  0  0
    0.5121    8.1586   -2.9586 C   0  0  0  0  0  0  0  0  0  0  0  0
    1.1196    9.2695   -3.4467 C   0  0  0  0  0  0  0  0  0  0  0  0
    2.1973    9.7392   -2.7488 C   0  0  0  0  0  0  0  0  0  0  0  0
    2.6514    9.0812   -1.6010 C   0  0  0  0  0  0  0  0  0  0  0  0
    2.1703    7.8637   -1.2507 C   0  0  0  0  0  0  0  0  0  0  0  0
    3.5545    9.6319   -0.7666 O   0  0  0  0  0  0  0  0  0  0  0  0
   -5.3177    5.0844   -1.4554 O   0  0  0  0  0  0  0  0  0  0  0  0
    0.5087    4.0929   -0.5939 C   0  0  0  0  0  0  0  0  0  0  0  0
    0.5467    3.9252   -1.8078 O   0  0  0  0  0  0  0  0  0  0  0  0
    0.6816    5.2032    0.0700 O   0  0  0  0  0  0  0  0  0  0  0  0
   -1.7291    1.2960    0.3953 C   0  0  1  0  0  0  0  0  0  0  0  0
   -3.5546    2.1569    0.7635 C   0  0  0  0  0  0  0  0  0  0  0  0
   -3.8036    3.3441   -0.4142 C   0  0  0  0  0  0  0  0  0  0  0  0
   -2.4280    3.5891   -0.9349 C   0  0  2  0  0  0  0  0  0  0  0  0
   -1.8386    2.4611   -0.4011 C   0  0  2  0  0  0  0  0  0  0  0  0
   -2.7022    1.3801   -1.2399 C   0  0  2  0  0  0  0  0  0  0  0  0
   -1.9566    1.6243   -2.4785 C   0  0  0  0  0  0  0  0  0  0  0  0
   -2.1881    2.9243   -3.1450 C   0  0  1  0  0  0  0  0  0  0  0  0
   -2.0772    4.1394   -2.3571 C   0  0  1  0  0  0  0  0  0  0  0  0
   -2.5636    6.1464   -2.9927 C   0  0  1  0  0  0  0  0  0  0  0  0
   -1.6207    6.3323   -4.8886 C   0  0  0  0  0  0  0  0  0  0  0  0
   -1.1268    4.6705   -5.5629 C   0  0  1  0  0  0  0  0  0  0  0  0
   -1.5092    3.2155   -4.4701 C   0  0  2  0  0  0  0  0  0  0  0  0
    0.2208    3.5337   -4.4355 C   0  0  0  0  0  0  0  0  0  0  0  0
    0.6002    2.2494   -4.1849 C   0  0  0  0  0  0  0  0  0  0  0  0
   -0.4038    1.7722   -5.2203 C   0  0  2  0  0  0  0  0  0  0  0  0
   -1.7256    3.3739   -5.7641 C   0  0  0  0  0  0  0  0  0  0  0  0
   -0.0494    0.3004   -4.5366 O   0  0  0  0  0  0  0  0  0  0  0  0
   -2.6000    1.7523   -5.4098 C   0  0  0  0  0  0  0  0  0  0  0  0
   -4.5168    6.4030   -2.9275 O   0  0  0  0  0  0  0  0  0  0  0  0
   -4.0746    1.2699   -1.3492 O   0  0  0  0  0  0  0  0  0  0  0  0
   -1.6796    3.3847    0.9001 C   0  0  0  0  0  0  0  0  0  0  0  0
    0.7655    1.1750   -2.0963 H   0  0  0  0  0  0  0  0  0  0  0  0
    2.2989    1.8723   -1.6177 H   0  0  0  0  0  0  0  0  0  0  0  0
    1.6693    2.7717   -1.4023 H   0  0  0  0  0  0  0  0  0  0  0  0
    0.6262    1.2658    1.1371 H   0  0  0  0  0  0  0  0  0  0  0  0
    1.1857   -0.5397    1.2006 H   0  0  0  0  0  0  0  0  0  0  0  0
    0.7402   -0.9186   -0.5582 H   0  0  0  0  0  0  0  0  0  0  0  0
    3.3723   -0.0016   -0.2414 H   0  0  0  0  0  0  0  0  0  0  0  0
    2.3720    0.3499   -1.3156 H   0  0  0  0  0  0  0  0  0  0  0  0
    1.8680    3.9898    1.2310 H   0  0  0  0  0  0  0  0  0  0  0  0
   -0.0551    2.6215   -0.3355 H   0  0  0  0  0  0  0  0  0  0  0  0
   -1.5235    2.0341    2.1482 H   0  0  0  0  0  0  0  0  0  0  0  0
   -0.5559    1.5243    2.4179 H   0  0  0  0  0  0  0  0  0  0  0  0
   -1.9515    4.3525    3.3514 H   0  0  0  0  0  0  0  0  0  0  0  0
    0.0656    4.6492    3.0009 H   0  0  0  0  0  0  0  0  0  0  0  0
   -1.6257    6.8257    2.1254 H   0  0  0  0  0  0  0  0  0  0  0  0
   -0.7880    5.9012    1.1006 H   0  0  0  0  0  0  0  0  0  0  0  0
   -3.2273    6.3801    0.5277 H   0  0  0  0  0  0  0  0  0  0  0  0
   -3.0947    4.9565    0.5331 H   0  0  0  0  0  0  0  0  0  0  0  0
   -4.2621    4.6101    2.1691 H   0  0  0  0  0  0  0  0  0  0  0  0
   -6.1133    7.5971    0.1283 H   0  0  0  0  0  0  0  0  0  0  0  0
   -3.7476    6.5510   -1.0557 H   0  0  0  0  0  0  0  0  0  0  0  0
   -3.6406    7.0772   -4.1121 H   0  0  0  0  0  0  0  0  0  0  0  0
   -3.6694    9.8578   -0.3402 H   0  0  0  0  0  0  0  0  0  0  0  0
   -1.0729   11.0565   -4.2420 H   0  0  0  0  0  0  0  0  0  0  0  0
   -0.2354    7.7395   -4.5700 H   0  0  0  0  0  0  0  0  0  0  0  0
   -3.0728    5.4876   -5.1929 H   0  0  0  0  0  0  0  0  0  0  0  0
   -4.9586    4.8186   -4.0086 H   0  0  0  0  0  0  0  0  0  0  0  0
   -1.9556    6.4035   -0.3835 H   0  0  0  0  0  0  0  0  0  0  0  0
    0.7107    9.7323   -4.3336 H   0  0  0  0  0  0  0  0  0  0  0  0
    2.6783   10.6094   -3.1444 H   0  0  0  0  0  0  0  0  0  0  0  0
    2.5185    7.2219   -0.4487 H   0  0  0  0  0  0  0  0  0  0  0  0
    3.7291   10.5201   -1.1048 H   0  0  0  0  0  0  0  0  0  0  0  0
   -5.9509    5.4666   -2.1409 H   0  0  0  0  0  0  0  0  0  0  0  0
    0.0768    5.8906   -0.2710 H   0  0  0  0  0  0  0  0  0  0  0  0
   -1.2979    0.6131   -0.4758 H   0  0  0  0  0  0  0  0  0  0  0  0
   -4.5056    2.9220    0.8908 H   0  0  0  0  0  0  0  0  0  0  0  0
   -3.5744    2.5778    1.8001 H   0  0  0  0  0  0  0  0  0  0  0  0
   -4.3612    4.2538   -0.0924 H   0  0  0  0  0  0  0  0  0  0  0  0
   -4.5308    3.1275   -1.2106 H   0  0  0  0  0  0  0  0  0  0  0  0
   -1.6846    4.2489   -0.5031 H   0  0  0  0  0  0  0  0  0  0  0  0
   -2.6776    0.3063   -0.9231 H   0  0  0  0  0  0  0  0  0  0  0  0
   -0.9488    1.6181   -2.1873 H   0  0  0  0  0  0  0  0  0  0  0  0
   -2.2098    0.8039   -3.0746 H   0  0  0  0  0  0  0  0  0  0  0  0
   -3.2430    2.8077   -3.1887 H   0  0  0  0  0  0  0  0  0  0  0  0
   -1.0791    4.0542   -2.1622 H   0  0  0  0  0  0  0  0  0  0  0  0
   -1.9303    7.0935   -2.1396 H   0  0  0  0  0  0  0  0  0  0  0  0
   -0.2682    6.2471   -5.0063 H   0  0  0  0  0  0  0  0  0  0  0  0
   -2.0554    7.1385   -5.4482 H   0  0  0  0  0  0  0  0  0  0  0  0
   -1.4060    4.8786   -6.5749 H   0  0  0  0  0  0  0  0  0  0  0  0
    0.6482    3.7142   -5.4252 H   0  0  0  0  0  0  0  0  0  0  0  0
    0.7032    4.2440   -3.7833 H   0  0  0  0  0  0  0  0  0  0  0  0
    1.6540    2.0521   -4.0230 H   0  0  0  0  0  0  0  0  0  0  0  0
    0.1855    2.0769   -3.2477 H   0  0  0  0  0  0  0  0  0  0  0  0
   -1.1288    1.2292   -4.5964 H   0  0  0  0  0  0  0  0  0  0  0  0
   -3.0039    3.8909   -5.5444 H   0  0  0  0  0  0  0  0  0  0  0  0
   -3.0185    3.3303   -6.1079 H   0  0  0  0  0  0  0  0  0  0  0  0
    0.8929    0.1962   -4.2256 H   0  0  0  0  0  0  0  0  0  0  0  0
   -3.6446    2.0390   -5.3091 H   0  0  0  0  0  0  0  0  0  0  0  0
   -2.0876    1.8151   -6.5106 H   0  0  0  0  0  0  0  0  0  0  0  0
   -2.6497    0.8649   -4.8449 H   0  0  0  0  0  0  0  0  0  0  0  0
   -4.8840    6.3559   -1.9608 H   0  0  0  0  0  0  0  0  0  0  0  0
   -4.2185    1.8295   -2.1060 H   0  0  0  0  0  0  0  0  0  0  0  0
   -2.1860    3.2600    1.8478 H   0  0  0  0  0  0  0  0  0  0  0  0
   -0.8131    4.1178    0.9935 H   0  0  0  0  0  0  0  0  0  0  0  0
   -2.3141    4.0508    1.2654 H   0  0  0  0  0  0  0  0  0  0  0  0
  1 67  1  0  0  0  0
  1 68  1  0  0  0  0
  1 69  1  0  0  0  0
  2 70  1  1  0  0  0
  2  3  1  0  0  0  0
  2  1  1  0  0  0  0
  3  4  1  0  0  0  0
  3 71  1  0  0  0  0
  3 72  1  0  0  0  0
  4  5  1  0  0  0  0
  4 73  1  0  0  0  0
  4 74  1  0  0  0  0
  5  6  2  0  0  0  0
  5  7  1  0  0  0  0
  7 75  1  0  0  0  0
  8  7  1  0  0  0  0
  8  9  1  0  0  0  0
  8 42  1  0  0  0  0
  8 76  1  6  0  0  0
  9 10  1  0  0  0  0
  9 77  1  0  0  0  0
  9 78  1  0  0  0  0
 10 11  1  0  0  0  0
 10 79  1  0  0  0  0
 10 80  1  0  0  0  0
 11 12  1  0  0  0  0
 11 81  1  0  0  0  0
 11 82  1  0  0  0  0
 12 13  1  0  0  0  0
 12 83  1  0  0  0  0
 12 84  1  0  0  0  0
 13 14  1  0  0  0  0
 13 85  1  0  0  0  0
 14 15  2  0  0  0  0
 14 16  1  0  0  0  0
 16 17  1  0  0  0  0
 16 86  1  0  0  0  0
 17 18  2  0  0  0  0
 17 22  1  0  0  0  0
 18 19  1  0  0  0  0
 18 87  1  0  0  0  0
 19 20  2  0  0  0  0
 19 88  1  0  0  0  0
 20 21  1  0  0  0  0
 20 26  1  0  0  0  0
 21 22  2  0  0  0  0
 21 23  1  0  0  0  0
 22 89  1  0  0  0  0
 23 24  2  0  0  0  0
 23 25  1  0  0  0  0
 25 90  1  0  0  0  0
 26 27  1  0  0  0  0
 26 35  1  0  0  0  0
 26 91  1  0  0  0  0
 27 28  2  0  0  0  0
 27 32  1  0  0  0  0
 28 29  1  0  0  0  0
 28 92  1  0  0  0  0
 29 30  2  0  0  0  0
 29 93  1  0  0  0  0
 30 31  1  0  0  0  0
 30 41  1  0  0  0  0
 31 32  2  0  0  0  0
 31 94  1  0  0  0  0
 32 33  1  0  0  0  0
 33 34  1  0  0  0  0
 34 35  2  0  0  0  0
 34 39  1  0  0  0  0
 35 36  1  0  0  0  0
 36 37  2  0  0  0  0
 36 95  1  0  0  0  0
 37 38  1  0  0  0  0
 37 96  1  0  0  0  0
 38 39  2  0  0  0  0
 38 40  1  0  0  0  0
 39 97  1  0  0  0  0
 40 98  1  0  0  0  0
 41 99  1  0  0  0  0
 42 43  2  0  0  0  0
 42 44  1  0  0  0  0
 44100  1  0  0  0  0
 45  2  1  0  0  0  0
 45 46  1  0  0  0  0
 45 49  1  0  0  0  0
 45101  1  6  0  0  0
 46 47  1  0  0  0  0
 46102  1  0  0  0  0
 46103  1  0  0  0  0
 47104  1  0  0  0  0
 47105  1  0  0  0  0
 48 47  1  0  0  0  0
 48 49  1  0  0  0  0
 48106  1  6  0  0  0
 49 50  1  0  0  0  0
 49 66  1  6  0  0  0
 50 51  1  0  0  0  0
 50107  1  1  0  0  0
 50 65  1  0  0  0  0
 51108  1  0  0  0  0
 51109  1  0  0  0  0
 52 51  1  0  0  0  0
 52 53  1  0  0  0  0
 52 57  1  0  0  0  0
 52110  1  6  0  0  0
 53 48  1  0  0  0  0
 53 54  1  0  0  0  0
 53111  1  1  0  0  0
 54 55  1  0  0  0  0
 54112  1  1  0  0  0
 54 64  1  0  0  0  0
 55113  1  0  0  0  0
 55114  1  0  0  0  0
 56 55  1  0  0  0  0
 56 57  1  0  0  0  0
 56 61  1  0  0  0  0
 56115  1  6  0  0  0
 57 58  1  0  0  0  0
 57 63  1  1  0  0  0
 58 59  1  0  0  0  0
 58116  1  0  0  0  0
 58117  1  0  0  0  0
 59 60  1  0  0  0  0
 59118  1  0  0  0  0
 59119  1  0  0  0  0
 60 61  1  0  0  0  0
 60 62  1  0  0  0  0
 60120  1  6  0  0  0
 61121  1  0  0  0  0
 61122  1  0  0  0  0
 62123  1  0  0  0  0
 63124  1  0  0  0  0
 63125  1  0  0  0  0
 63126  1  0  0  0  0
 64127  1  0  0  0  0
 65128  1  0  0  0  0
 66129  1  0  0  0  0
 66130  1  0  0  0  0
 66131  1  0  0  0  0
M  END
>  <DRUGBANK_ID>
DB12030

>  <COMMON_NAME>
Fluorescein lisicol

>  <CAS_NUMBER>
140616-46-2

>  <UNII>
U7GBB0934J

>  <SYNONYMS>
Fluorescein lisicol

$$$$
