I24
 OpenBabel10282417173D

 60 63  0  0  0  0  0  0  0  0999 V2000
   -0.8358    1.4567    0.3158 N   0  0  0  0  0  0  0  0  0  0  0  0
   -1.9204    0.6877    0.3515 C   0  0  0  0  0  0  0  0  0  0  0  0
   -1.8490   -0.6372    0.4704 N   0  0  0  0  0  0  0  0  0  0  0  0
   -0.6612   -1.2662    0.2773 C   0  0  0  0  0  0  0  0  0  0  0  0
    0.3242    0.8042    0.1636 C   0  0  0  0  0  0  0  0  0  0  0  0
    0.4774   -0.5607    0.0863 C   0  0  0  0  0  0  0  0  0  0  0  0
    1.7810   -0.9415   -0.0972 N   0  0  0  0  0  0  0  0  0  0  0  0
    2.4494    0.1704   -0.0487 C   0  0  0  0  0  0  0  0  0  0  0  0
    1.6064    1.2479    0.0153 N   0  0  0  0  0  0  0  0  0  0  0  0
   -0.6373   -2.6266    0.2811 N   0  0  0  0  0  0  0  0  0  0  0  0
   -3.1288    1.3268    0.0627 O   0  0  0  0  0  0  0  0  0  0  0  0
    0.5256   -3.4930    0.1945 C   0  0  0  0  0  0  0  0  0  0  0  0
    0.2929   -4.6262    1.2263 C   0  0  0  0  0  0  0  0  0  0  0  0
   -1.0289   -5.2878    1.0671 N   0  0  0  0  0  0  0  0  0  0  0  0
   -1.1323   -6.7277    1.4070 C   0  0  0  0  0  0  0  0  0  0  0  0
   -0.7167   -7.7119    0.2740 C   0  0  0  0  0  0  0  0  0  0  0  0
   -1.2735   -7.3852   -1.0107 O   0  0  0  0  0  0  0  0  0  0  0  0
   -0.9487   -6.0424   -1.3086 C   0  0  0  0  0  0  0  0  0  0  0  0
   -1.6161   -5.1588   -0.2818 C   0  0  0  0  0  0  0  0  0  0  0  0
   -4.3839    0.6153    0.0244 C   0  0  0  0  0  0  0  0  0  0  0  0
   -4.6638   -0.2237   -1.2452 C   0  0  0  0  0  0  0  0  0  0  0  0
   -3.7038   -1.3832   -1.3852 C   0  0  0  0  0  0  0  0  0  0  0  0
   -3.8555   -2.2830   -0.1576 C   0  0  0  0  0  0  0  0  0  0  0  0
    2.0467    2.6207    0.0008 C   0  0  0  0  0  0  0  0  0  0  0  0
    1.5731    3.3481   -1.2192 C   0  0  0  0  0  0  0  0  0  0  0  0
    0.2232    3.6148   -1.4674 C   0  0  0  0  0  0  0  0  0  0  0  0
   -0.2345    4.2347   -2.6139 C   0  0  0  0  0  0  0  0  0  0  0  0
    0.6865    4.7992   -3.4709 C   0  0  0  0  0  0  0  0  0  0  0  0
    2.0488    4.6390   -3.2129 C   0  0  0  0  0  0  0  0  0  0  0  0
    2.4801    3.8768   -2.1261 C   0  0  0  0  0  0  0  0  0  0  0  0
   -0.6975    3.4690   -0.5205 F   0  0  0  0  0  0  0  0  0  0  0  0
    3.7963    3.7303   -1.9168 F   0  0  0  0  0  0  0  0  0  0  0  0
    3.5293    0.2216   -0.0553 H   0  0  0  0  0  0  0  0  0  0  0  0
   -1.4628   -3.0075    0.7110 H   0  0  0  0  0  0  0  0  0  0  0  0
    0.6093   -3.8927   -0.8257 H   0  0  0  0  0  0  0  0  0  0  0  0
    1.4932   -3.0335    0.3818 H   0  0  0  0  0  0  0  0  0  0  0  0
    1.1524   -5.3044    1.2205 H   0  0  0  0  0  0  0  0  0  0  0  0
    0.3003   -4.1196    2.2066 H   0  0  0  0  0  0  0  0  0  0  0  0
   -2.2061   -6.8945    1.5768 H   0  0  0  0  0  0  0  0  0  0  0  0
   -0.6496   -6.9994    2.3537 H   0  0  0  0  0  0  0  0  0  0  0  0
    0.3725   -7.7409    0.1740 H   0  0  0  0  0  0  0  0  0  0  0  0
   -1.0768   -8.7192    0.4957 H   0  0  0  0  0  0  0  0  0  0  0  0
   -1.3070   -5.7419   -2.2969 H   0  0  0  0  0  0  0  0  0  0  0  0
    0.1427   -5.9221   -1.3147 H   0  0  0  0  0  0  0  0  0  0  0  0
   -2.6925   -5.3192   -0.1691 H   0  0  0  0  0  0  0  0  0  0  0  0
   -1.5589   -4.1901   -0.7525 H   0  0  0  0  0  0  0  0  0  0  0  0
   -4.5471    0.0591    0.9529 H   0  0  0  0  0  0  0  0  0  0  0  0
   -5.1819    1.3749    0.0398 H   0  0  0  0  0  0  0  0  0  0  0  0
   -5.6775   -0.6485   -1.2077 H   0  0  0  0  0  0  0  0  0  0  0  0
   -4.6147    0.4037   -2.1419 H   0  0  0  0  0  0  0  0  0  0  0  0
   -3.8728   -1.9817   -2.2830 H   0  0  0  0  0  0  0  0  0  0  0  0
   -2.7063   -0.9666   -1.5621 H   0  0  0  0  0  0  0  0  0  0  0  0
   -4.8350   -2.7524   -0.1153 H   0  0  0  0  0  0  0  0  0  0  0  0
   -3.1235   -3.0678   -0.1993 H   0  0  0  0  0  0  0  0  0  0  0  0
   -3.7313   -1.7832    0.8107 H   0  0  0  0  0  0  0  0  0  0  0  0
    1.7014    3.0837    0.9261 H   0  0  0  0  0  0  0  0  0  0  0  0
    3.1436    2.5746    0.0379 H   0  0  0  0  0  0  0  0  0  0  0  0
   -1.3072    4.3443   -2.7414 H   0  0  0  0  0  0  0  0  0  0  0  0
    0.3339    5.4095   -4.2945 H   0  0  0  0  0  0  0  0  0  0  0  0
    2.7820    5.1295   -3.8421 H   0  0  0  0  0  0  0  0  0  0  0  0
  1  2  1  0  0  0  0
  1  5  2  0  0  0  0
  2  3  2  0  0  0  0
  2 11  1  0  0  0  0
  3  4  1  0  0  0  0
  4  6  2  0  0  0  0
  4 10  1  0  0  0  0
  5  6  1  0  0  0  0
  5  9  1  0  0  0  0
  6  7  1  0  0  0  0
  7  8  2  0  0  0  0
  8  9  1  0  0  0  0
  8 33  1  0  0  0  0
  9 24  1  0  0  0  0
 10 12  1  0  0  0  0
 10 34  1  0  0  0  0
 11 20  1  0  0  0  0
 12 13  1  0  0  0  0
 12 35  1  0  0  0  0
 12 36  1  0  0  0  0
 13 14  1  0  0  0  0
 13 37  1  0  0  0  0
 13 38  1  0  0  0  0
 14 15  1  0  0  0  0
 14 19  1  0  0  0  0
 15 16  1  0  0  0  0
 15 39  1  0  0  0  0
 15 40  1  0  0  0  0
 16 17  1  0  0  0  0
 16 41  1  0  0  0  0
 16 42  1  0  0  0  0
 17 18  1  0  0  0  0
 18 19  1  0  0  0  0
 18 43  1  0  0  0  0
 18 44  1  0  0  0  0
 19 45  1  0  0  0  0
 19 46  1  0  0  0  0
 20 21  1  0  0  0  0
 20 47  1  0  0  0  0
 20 48  1  0  0  0  0
 21 22  1  0  0  0  0
 21 49  1  0  0  0  0
 21 50  1  0  0  0  0
 22 23  1  0  0  0  0
 22 51  1  0  0  0  0
 22 52  1  0  0  0  0
 23 53  1  0  0  0  0
 23 54  1  0  0  0  0
 23 55  1  0  0  0  0
 24 25  1  0  0  0  0
 24 56  1  0  0  0  0
 24 57  1  0  0  0  0
 25 26  1  0  0  0  0
 25 30  2  0  0  0  0
 26 27  2  0  0  0  0
 26 31  1  0  0  0  0
 27 28  1  0  0  0  0
 27 58  1  0  0  0  0
 28 29  2  0  0  0  0
 28 59  1  0  0  0  0
 29 30  1  0  0  0  0
 29 60  1  0  0  0  0
 30 32  1  0  0  0  0
M  END
>  <DRUGBANK_ID>
DB07937

>  <COMMON_NAME>
2-butoxy-9-(2,6-difluorobenzyl)-N-(2-morpholin-4-ylethyl)-9H-purin-6-amine

$$$$
