
 OpenBabel10282417203D

 25 26  0  0  1  0  0  0  0  0999 V2000
    4.0901    2.6800   -3.9823 C   0  0  0  0  0  0  0  0  0  0  0  0
    4.7299    4.1269    1.1658 C   0  0  0  0  0  0  0  0  0  0  0  0
    5.7960    3.7863   -0.9012 C   0  0  0  0  0  0  0  0  0  0  0  0
    2.6524    4.2126   -2.6968 C   0  0  0  0  0  0  0  0  0  0  0  0
    2.6260    2.2339   -0.5016 C   0  0  0  0  0  0  0  0  0  0  0  0
    3.5185    3.1772   -2.6981 C   0  0  0  0  0  0  0  0  0  0  0  0
    3.8926    2.4901   -1.3331 C   0  0  1  0  0  0  0  0  0  0  0  0
    2.6936    3.7752   -0.2456 C   0  0  2  0  0  0  0  0  0  0  0  0
    1.9988    4.5126   -1.4072 C   0  0  0  0  0  0  0  0  0  0  0  0
    4.3856    3.6427   -0.2476 C   0  0  0  0  0  0  0  0  0  0  0  0
    0.9427    5.1115   -1.3641 O   0  0  0  0  0  0  0  0  0  0  0  0
    4.5229    1.6055   -1.4768 H   0  0  0  0  0  0  0  0  0  0  0  0
    2.2273    4.0343    0.7124 H   0  0  0  0  0  0  0  0  0  0  0  0
    5.0919    2.2698   -3.8479 H   0  0  0  0  0  0  0  0  0  0  0  0
    4.1545    3.4898   -4.7202 H   0  0  0  0  0  0  0  0  0  0  0  0
    3.4360    1.9058   -4.3962 H   0  0  0  0  0  0  0  0  0  0  0  0
    5.4721    3.4803    1.6426 H   0  0  0  0  0  0  0  0  0  0  0  0
    5.1989    5.1248    1.0582 H   0  0  0  0  0  0  0  0  0  0  0  0
    3.9117    4.3212    1.8584 H   0  0  0  0  0  0  0  0  0  0  0  0
    6.2806    2.7998   -0.9822 H   0  0  0  0  0  0  0  0  0  0  0  0
    5.8052    4.3223   -1.8475 H   0  0  0  0  0  0  0  0  0  0  0  0
    6.5188    4.3206   -0.2623 H   0  0  0  0  0  0  0  0  0  0  0  0
    2.3067    4.7561   -3.5647 H   0  0  0  0  0  0  0  0  0  0  0  0
    2.5834    1.6451    0.4182 H   0  0  0  0  0  0  0  0  0  0  0  0
    1.8493    1.8038   -1.1573 H   0  0  0  0  0  0  0  0  0  0  0  0
  1 14  1  0  0  0  0
  1 15  1  0  0  0  0
  1 16  1  0  0  0  0
  2 17  1  0  0  0  0
  2 18  1  0  0  0  0
  2 19  1  0  0  0  0
  3 20  1  0  0  0  0
  3 21  1  0  0  0  0
  3 22  1  0  0  0  0
  4 23  1  0  0  0  0
  5 24  1  0  0  0  0
  5 25  1  0  0  0  0
  6  4  2  0  0  0  0
  6  1  1  0  0  0  0
  7  5  1  0  0  0  0
  7  6  1  0  0  0  0
  7 12  1  6  0  0  0
  8  5  1  0  0  0  0
  8 13  1  1  0  0  0
  9  4  1  0  0  0  0
  9  8  1  0  0  0  0
 10  7  1  0  0  0  0
 10  8  1  0  0  0  0
 10  2  1  0  0  0  0
 10  3  1  0  0  0  0
 11  9  2  0  0  0  0
M  END
>  <DRUGBANK_ID>
DB13391

>  <COMMON_NAME>
Levoverbenone

>  <CAS_NUMBER>
1196-01-6

>  <UNII>
2XP0J7754U

$$$$
