
 OpenBabel10282417143D

222234  0  0  0  0  0  0  0  0999 V2000
   -1.8094   10.4935   -3.5310 C   0  0  0  0  0  0  0  0  0  0  0  0
   -3.2671   11.2523   -4.3510 C   0  0  0  0  0  0  0  0  0  0  0  0
   -1.1098   12.0641   -4.4182 C   0  0  0  0  0  0  0  0  0  0  0  0
   -0.5570    9.5141   -5.5599 C   0  0  0  0  0  0  0  0  0  0  0  0
   -0.5433   10.6691   -4.8253 C   0  0  0  0  0  0  0  0  0  0  0  0
   -2.2434    9.8399   -5.2949 C   0  0  0  0  0  0  0  0  0  0  0  0
   -4.0437   13.0998   -4.4656 O   0  0  0  0  0  0  0  0  0  0  0  0
   -1.4346   13.5654   -5.8130 O   0  0  0  0  0  0  0  0  0  0  0  0
    2.0615   16.0599   -9.5762 C   0  0  2  0  0  0  0  0  0  0  0  0
   -4.0935   15.8847   -6.5910 C   0  0  1  0  0  0  0  0  0  0  0  0
    0.6550   16.6719   -8.6573 C   0  0  0  0  0  0  0  0  0  0  0  0
   -4.7614   16.7012   -5.5148 C   0  0  0  0  0  0  0  0  0  0  0  0
   -1.3132   15.4376   -6.7096 C   0  0  0  0  0  0  0  0  0  0  0  0
   -5.4925   14.7414   -4.4971 C   0  0  0  0  0  0  0  0  0  0  0  0
   -0.6890   16.2979   -6.0519 C   0  0  0  0  0  0  0  0  0  0  0  0
   -5.8413   15.5299   -3.4839 C   0  0  0  0  0  0  0  0  0  0  0  0
   -4.7648   16.2377   -3.7861 C   0  0  0  0  0  0  0  0  0  0  0  0
   -5.5570   17.4924   -6.0891 C   0  0  0  0  0  0  0  0  0  0  0  0
   -0.2650   17.3941   -9.0010 C   0  0  0  0  0  0  0  0  0  0  0  0
   -1.3969   16.8873   -8.0075 C   0  0  0  0  0  0  0  0  0  0  0  0
   -6.0505   16.4818   -5.2547 C   0  0  0  0  0  0  0  0  0  0  0  0
   -6.9901   15.8331   -2.1827 Cl  0  0  0  0  0  0  0  0  0  0  0  0
   -0.8587   15.3385   -4.8263 Cl  0  0  0  0  0  0  0  0  0  0  0  0
   -3.3343   15.5123   -5.5409 O   0  0  0  0  0  0  0  0  0  0  0  0
   -1.1338    4.6512   -3.4407 C   0  0  1  0  0  0  0  0  0  0  0  0
   -0.6366    6.4947   -2.6295 C   0  0  1  0  0  0  0  0  0  0  0  0
   -0.5575    2.9979   -3.1900 C   0  0  2  0  0  0  0  0  0  0  0  0
    0.9119    5.5552   -2.2916 O   0  0  0  0  0  0  0  0  0  0  0  0
   -3.4111    6.0748   -1.5554 C   0  0  2  0  0  0  0  0  0  0  0  0
    0.9052    2.9053   -2.9165 C   0  0  1  0  0  0  0  0  0  0  0  0
   -3.2568    3.7469   -2.4640 C   0  0  1  0  0  0  0  0  0  0  0  0
    1.2273    3.9885   -1.8765 C   0  0  1  0  0  0  0  0  0  0  0  0
   -2.9825    4.6383   -1.2851 C   0  0  0  0  0  0  0  0  0  0  0  0
   -4.6843    3.7278   -2.5860 O   0  0  0  0  0  0  0  0  0  0  0  0
   -4.9189    6.0217   -1.6929 C   0  0  2  0  0  0  0  0  0  0  0  0
   -2.5597    4.2574   -3.6306 O   0  0  0  0  0  0  0  0  0  0  0  0
   -5.2249    5.0313   -2.7901 C   0  0  2  0  0  0  0  0  0  0  0  0
   -0.8720    2.1204   -4.3358 O   0  0  0  0  0  0  0  0  0  0  0  0
    1.2499    1.5660   -2.4595 O   0  0  0  0  0  0  0  0  0  0  0  0
   -5.3226    7.3346   -2.0549 O   0  0  0  0  0  0  0  0  0  0  0  0
   -2.9942    6.6549   -2.8936 C   0  0  0  0  0  0  0  0  0  0  0  0
   -6.7149    5.0174   -2.9085 C   0  0  0  0  0  0  0  0  0  0  0  0
   -1.0941    8.5501   -3.1493 O   0  0  0  0  0  0  0  0  0  0  0  0
    2.7846    3.9939   -1.7754 C   0  0  0  0  0  0  0  0  0  0  0  0
    3.2894    5.1987   -2.3504 O   0  0  0  0  0  0  0  0  0  0  0  0
    0.2428   16.5107   -6.9420 C   0  0  0  0  0  0  0  0  0  0  0  0
   -4.8314   14.6656   -7.0688 C   0  0  2  0  0  0  0  0  0  0  0  0
   -0.8526   10.1550   -7.6767 N   0  0  0  0  0  0  0  0  0  0  0  0
   -3.8417   13.9452   -7.9212 C   0  0  0  0  0  0  0  0  0  0  0  0
    1.1745   11.2840   -6.2219 C   0  0  0  0  0  0  0  0  0  0  0  0
   -3.4790   12.6321   -7.6090 N   0  0  0  0  0  0  0  0  0  0  0  0
    0.3406    9.8915   -6.8374 C   0  0  1  0  0  0  0  0  0  0  0  0
   -1.3006   11.4591   -7.7156 C   0  0  0  0  0  0  0  0  0  0  0  0
   -2.5453   11.8495   -8.4570 C   0  0  2  0  0  0  0  0  0  0  0  0
   -3.4504   14.5793   -8.9025 O   0  0  0  0  0  0  0  0  0  0  0  0
    0.7186   11.9961   -5.3508 O   0  0  0  0  0  0  0  0  0  0  0  0
   -0.5755   12.3798   -7.3678 O   0  0  0  0  0  0  0  0  0  0  0  0
   -2.0671   12.6861   -9.6405 C   0  0  0  0  0  0  0  0  0  0  0  0
   -1.1320   11.9622  -10.5611 C   0  0  0  0  0  0  0  0  0  0  0  0
    0.0618   11.5245  -10.0494 N   0  0  0  0  0  0  0  0  0  0  0  0
   -1.4480   11.7605  -11.7290 O   0  0  0  0  0  0  0  0  0  0  0  0
   -6.0497   15.0362   -7.7737 N   0  0  0  0  0  0  0  0  0  0  0  0
   -7.2706   14.6196   -7.2948 C   0  0  0  0  0  0  0  0  0  0  0  0
   -8.5241   15.0202   -8.1070 C   0  0  1  0  0  0  0  0  0  0  0  0
   -7.3538   13.9238   -6.2805 O   0  0  0  0  0  0  0  0  0  0  0  0
   -9.2206   13.7418   -8.5871 C   0  0  0  0  0  0  0  0  0  0  0  0
   -9.3901   15.9023   -7.3127 N   0  0  0  0  0  0  0  0  0  0  0  0
   -9.6536   12.8322   -7.4343 C   0  0  0  0  0  0  0  0  0  0  0  0
  -10.6654   16.1507   -7.9620 C   0  0  0  0  0  0  0  0  0  0  0  0
  -10.6467   13.4787   -6.4996 C   0  0  0  0  0  0  0  0  0  0  0  0
  -10.3129   11.5899   -7.9574 C   0  0  0  0  0  0  0  0  0  0  0  0
    3.5185   15.5494   -8.6503 C   0  0  2  0  0  0  0  0  0  0  0  0
    2.0572   12.2359   -6.2950 N   0  0  0  0  0  0  0  0  0  0  0  0
    2.0547   13.9666   -5.2796 C   0  0  1  0  0  0  0  0  0  0  0  0
    5.2478   17.1075   -8.2865 O   0  0  0  0  0  0  0  0  0  0  0  0
    3.5476   14.7764   -7.3304 N   0  0  0  0  0  0  0  0  0  0  0  0
    3.2905   13.6174   -6.8389 C   0  0  0  0  0  0  0  0  0  0  0  0
    3.8371   12.8222   -7.6294 O   0  0  0  0  0  0  0  0  0  0  0  0
    1.7555   15.5938   -7.4098 C   0  0  0  0  0  0  0  0  0  0  0  0
    1.4639   14.8022   -8.2756 O   0  0  0  0  0  0  0  0  0  0  0  0
    0.8140   14.5470   -6.7311 O   0  0  0  0  0  0  0  0  0  0  0  0
    2.0899   17.4252   -6.7291 C   0  0  1  0  0  0  0  0  0  0  0  0
    3.4194   17.6275   -7.0741 N   0  0  0  0  0  0  0  0  0  0  0  0
    4.1217   16.7772   -7.9258 C   0  0  0  0  0  0  0  0  0  0  0  0
   -0.3131   18.3912   -4.7591 C   0  0  0  0  0  0  0  0  0  0  0  0
   -1.6460   18.0278   -4.4687 C   0  0  0  0  0  0  0  0  0  0  0  0
    1.3886   15.6278   -4.0289 C   0  0  0  0  0  0  0  0  0  0  0  0
    1.0279   17.3775   -4.2819 C   0  0  0  0  0  0  0  0  0  0  0  0
   -1.5685   17.1626   -3.3749 C   0  0  0  0  0  0  0  0  0  0  0  0
   -0.0541   16.2661   -3.0097 C   0  0  0  0  0  0  0  0  0  0  0  0
   -2.5834   17.9710   -5.4977 O   0  0  0  0  0  0  0  0  0  0  0  0
    1.1087   18.7551   -6.8088 C   0  0  0  0  0  0  0  0  0  0  0  0
    1.4590   19.4951   -7.8580 C   0  0  0  0  0  0  0  0  0  0  0  0
   -0.6130   20.8286   -7.6178 C   0  0  0  0  0  0  0  0  0  0  0  0
   -0.0260   19.1559   -6.0244 C   0  0  0  0  0  0  0  0  0  0  0  0
    0.7649   20.5960   -8.2171 C   0  0  0  0  0  0  0  0  0  0  0  0
    1.3513   21.4487   -9.4671 O   0  0  0  0  0  0  0  0  0  0  0  0
   -0.9381   20.1283   -6.4968 C   0  0  0  0  0  0  0  0  0  0  0  0
   -2.0836   20.3603   -5.8155 O   0  0  0  0  0  0  0  0  0  0  0  0
   -2.9674    6.9424   -0.4518 N   0  0  0  0  0  0  0  0  0  0  0  0
   -3.4687    8.3100   -0.6494 C   0  0  0  0  0  0  0  0  0  0  0  0
   -3.1736    9.2432    0.4567 C   0  0  0  0  0  0  0  0  0  0  0  0
   -3.7532   10.5133    0.4314 C   0  0  0  0  0  0  0  0  0  0  0  0
   -2.3973    8.8738    1.5362 C   0  0  0  0  0  0  0  0  0  0  0  0
   -3.3750   11.4710    1.3578 C   0  0  0  0  0  0  0  0  0  0  0  0
   -2.2486    9.7641    2.5874 C   0  0  0  0  0  0  0  0  0  0  0  0
   -2.6153   11.1089    2.4574 C   0  0  0  0  0  0  0  0  0  0  0  0
   -2.1376   12.1234    3.3955 C   0  0  0  0  0  0  0  0  0  0  0  0
   -0.7581   12.2655    3.5831 C   0  0  0  0  0  0  0  0  0  0  0  0
   -2.9738   13.0206    4.0585 C   0  0  0  0  0  0  0  0  0  0  0  0
   -0.2405   13.0810    4.5848 C   0  0  0  0  0  0  0  0  0  0  0  0
   -2.4164   14.0193    4.8713 C   0  0  0  0  0  0  0  0  0  0  0  0
   -1.0753   13.9653    5.2342 C   0  0  0  0  0  0  0  0  0  0  0  0
   -0.4365   14.9599    6.4852 Cl  0  0  0  0  0  0  0  0  0  0  0  0
    2.5779   16.7757  -10.6019 O   0  0  0  0  0  0  0  0  0  0  0  0
    3.0268   18.0116  -10.1954 C   0  0  2  0  0  0  0  0  0  0  0  0
    2.0436   18.9748   -9.9441 O   0  0  0  0  0  0  0  0  0  0  0  0
    0.9128   19.3214  -10.7561 C   0  0  2  0  0  0  0  0  0  0  0  0
    1.7202   20.0164  -11.7842 C   0  0  1  0  0  0  0  0  0  0  0  0
    2.7376   19.0391  -12.2497 C   0  0  1  0  0  0  0  0  0  0  0  0
    3.7807   18.6854  -11.2207 C   0  0  0  0  0  0  0  0  0  0  0  0
   -0.4550   20.3020  -10.0953 C   0  0  0  0  0  0  0  0  0  0  0  0
    0.7386   20.4216  -12.6818 O   0  0  0  0  0  0  0  0  0  0  0  0
    1.9485   17.8158  -12.6582 C   0  0  0  0  0  0  0  0  0  0  0  0
    3.3955   19.7678  -13.2788 N   0  0  0  0  0  0  0  0  0  0  0  0
   -1.2538   11.1951   -5.4975 H   0  0  0  0  0  0  0  0  0  0  0  0
   -1.2742    8.6541   -5.1747 H   0  0  0  0  0  0  0  0  0  0  0  0
    1.5959   15.1136  -10.0120 H   0  0  0  0  0  0  0  0  0  0  0  0
   -3.7701   16.5958   -7.3568 H   0  0  0  0  0  0  0  0  0  0  0  0
   -4.0433   15.5004   -3.4283 H   0  0  0  0  0  0  0  0  0  0  0  0
   -5.4504   18.3656   -6.7695 H   0  0  0  0  0  0  0  0  0  0  0  0
    0.4215   17.9883   -9.5576 H   0  0  0  0  0  0  0  0  0  0  0  0
   -1.1725   18.3724   -7.9350 H   0  0  0  0  0  0  0  0  0  0  0  0
   -6.5081   17.9453   -4.8905 H   0  0  0  0  0  0  0  0  0  0  0  0
   -2.4197   15.4076   -5.5261 H   0  0  0  0  0  0  0  0  0  0  0  0
   -0.6921    4.7402   -4.4199 H   0  0  0  0  0  0  0  0  0  0  0  0
   -0.7287    5.5005   -1.5305 H   0  0  0  0  0  0  0  0  0  0  0  0
   -1.0571    2.4732   -2.3555 H   0  0  0  0  0  0  0  0  0  0  0  0
    1.4667    3.0954   -3.8323 H   0  0  0  0  0  0  0  0  0  0  0  0
   -2.9509    2.7020   -2.3507 H   0  0  0  0  0  0  0  0  0  0  0  0
    0.8686    3.5893   -0.8923 H   0  0  0  0  0  0  0  0  0  0  0  0
   -1.9604    4.6211   -1.0957 H   0  0  0  0  0  0  0  0  0  0  0  0
   -3.2764    4.2517   -0.3164 H   0  0  0  0  0  0  0  0  0  0  0  0
   -5.3131    5.6622   -0.7407 H   0  0  0  0  0  0  0  0  0  0  0  0
   -4.8124    5.3948   -3.7207 H   0  0  0  0  0  0  0  0  0  0  0  0
   -0.4408    2.4736   -5.1347 H   0  0  0  0  0  0  0  0  0  0  0  0
    0.7206    1.3326   -1.6715 H   0  0  0  0  0  0  0  0  0  0  0  0
   -6.1200    7.7380   -2.4067 H   0  0  0  0  0  0  0  0  0  0  0  0
   -3.3338    6.1957   -3.7879 H   0  0  0  0  0  0  0  0  0  0  0  0
   -3.0379    7.7075   -2.9925 H   0  0  0  0  0  0  0  0  0  0  0  0
   -2.0975    6.4225   -3.3136 H   0  0  0  0  0  0  0  0  0  0  0  0
   -6.9939    5.3534   -3.9070 H   0  0  0  0  0  0  0  0  0  0  0  0
   -7.0921    4.0219   -2.7192 H   0  0  0  0  0  0  0  0  0  0  0  0
   -7.1770    5.7091   -2.1919 H   0  0  0  0  0  0  0  0  0  0  0  0
    3.1239    3.9377   -0.7349 H   0  0  0  0  0  0  0  0  0  0  0  0
    3.2518    3.1570   -2.3096 H   0  0  0  0  0  0  0  0  0  0  0  0
    2.9196    5.2633   -3.2502 H   0  0  0  0  0  0  0  0  0  0  0  0
    1.0611   16.0282   -6.0036 H   0  0  0  0  0  0  0  0  0  0  0  0
   -5.0599   14.0072   -6.2570 H   0  0  0  0  0  0  0  0  0  0  0  0
   -1.4671    9.3776   -7.9357 H   0  0  0  0  0  0  0  0  0  0  0  0
   -3.8016   12.1909   -6.7471 H   0  0  0  0  0  0  0  0  0  0  0  0
    0.9858    9.1475   -7.3980 H   0  0  0  0  0  0  0  0  0  0  0  0
   -3.0342   10.9487   -8.8077 H   0  0  0  0  0  0  0  0  0  0  0  0
   -2.9626   12.9767  -10.2178 H   0  0  0  0  0  0  0  0  0  0  0  0
   -1.5774   13.6108   -9.2933 H   0  0  0  0  0  0  0  0  0  0  0  0
    0.3759   11.7119   -9.0968 H   0  0  0  0  0  0  0  0  0  0  0  0
    0.7206   11.0280  -10.6336 H   0  0  0  0  0  0  0  0  0  0  0  0
   -5.9438   15.6731   -8.5515 H   0  0  0  0  0  0  0  0  0  0  0  0
   -8.2373   15.6291   -8.9560 H   0  0  0  0  0  0  0  0  0  0  0  0
  -10.0986   13.9890   -9.1934 H   0  0  0  0  0  0  0  0  0  0  0  0
   -8.5489   13.1983   -9.2579 H   0  0  0  0  0  0  0  0  0  0  0  0
   -9.5334   15.4707   -6.4175 H   0  0  0  0  0  0  0  0  0  0  0  0
   -8.7751   12.5236   -6.8736 H   0  0  0  0  0  0  0  0  0  0  0  0
  -11.2003   15.2694   -8.3262 H   0  0  0  0  0  0  0  0  0  0  0  0
  -11.3581   16.6625   -7.2921 H   0  0  0  0  0  0  0  0  0  0  0  0
  -10.4365   16.7721   -8.8160 H   0  0  0  0  0  0  0  0  0  0  0  0
  -11.5172   13.8530   -7.0371 H   0  0  0  0  0  0  0  0  0  0  0  0
  -10.9188   12.8709   -5.6583 H   0  0  0  0  0  0  0  0  0  0  0  0
  -10.2354   14.2591   -5.9083 H   0  0  0  0  0  0  0  0  0  0  0  0
   -9.6317   11.0467   -8.6085 H   0  0  0  0  0  0  0  0  0  0  0  0
  -10.5949   10.9516   -7.1165 H   0  0  0  0  0  0  0  0  0  0  0  0
  -11.2128   11.8604   -8.5130 H   0  0  0  0  0  0  0  0  0  0  0  0
    4.0974   14.9710   -9.3328 H   0  0  0  0  0  0  0  0  0  0  0  0
    2.7535   11.4728   -6.8662 H   0  0  0  0  0  0  0  0  0  0  0  0
    2.4013   13.1801   -4.6559 H   0  0  0  0  0  0  0  0  0  0  0  0
    2.8104   14.8158   -6.6646 H   0  0  0  0  0  0  0  0  0  0  0  0
   -0.0420   14.3973   -7.2805 H   0  0  0  0  0  0  0  0  0  0  0  0
    2.0942   17.2954   -5.7002 H   0  0  0  0  0  0  0  0  0  0  0  0
    3.7697   18.5386   -6.8031 H   0  0  0  0  0  0  0  0  0  0  0  0
    1.7253   18.3577   -4.2670 H   0  0  0  0  0  0  0  0  0  0  0  0
   -2.4248   16.4076   -3.3220 H   0  0  0  0  0  0  0  0  0  0  0  0
   -0.5301   16.6832   -1.8140 H   0  0  0  0  0  0  0  0  0  0  0  0
   -3.1361   17.1977   -5.3552 H   0  0  0  0  0  0  0  0  0  0  0  0
    2.3465   19.0423   -8.1807 H   0  0  0  0  0  0  0  0  0  0  0  0
   -1.4359   21.4251   -8.0963 H   0  0  0  0  0  0  0  0  0  0  0  0
    1.2154   21.0174  -10.3405 H   0  0  0  0  0  0  0  0  0  0  0  0
   -2.6147   21.0645   -6.1957 H   0  0  0  0  0  0  0  0  0  0  0  0
   -1.9560    7.0056   -0.3825 H   0  0  0  0  0  0  0  0  0  0  0  0
   -3.0830    8.7494   -1.5675 H   0  0  0  0  0  0  0  0  0  0  0  0
   -4.5471    8.3285   -0.6883 H   0  0  0  0  0  0  0  0  0  0  0  0
   -4.5034   10.7581   -0.3122 H   0  0  0  0  0  0  0  0  0  0  0  0
   -1.9482    7.8868    1.5745 H   0  0  0  0  0  0  0  0  0  0  0  0
   -3.6675   12.5062    1.2390 H   0  0  0  0  0  0  0  0  0  0  0  0
   -1.8305    9.4132    3.5209 H   0  0  0  0  0  0  0  0  0  0  0  0
   -0.0798   11.7230    2.9333 H   0  0  0  0  0  0  0  0  0  0  0  0
   -4.0530   12.9531    3.9356 H   0  0  0  0  0  0  0  0  0  0  0  0
    0.8087   13.0390    4.8452 H   0  0  0  0  0  0  0  0  0  0  0  0
   -3.0293   14.8373    5.2247 H   0  0  0  0  0  0  0  0  0  0  0  0
    3.7045   17.9139   -9.3950 H   0  0  0  0  0  0  0  0  0  0  0  0
    0.2933   18.4825  -11.0945 H   0  0  0  0  0  0  0  0  0  0  0  0
    2.3500   20.8518  -11.3915 H   0  0  0  0  0  0  0  0  0  0  0  0
    4.2405   19.5674  -10.7557 H   0  0  0  0  0  0  0  0  0  0  0  0
    4.4891   17.9935  -11.6332 H   0  0  0  0  0  0  0  0  0  0  0  0
   -0.3737   21.4384   -9.4325 H   0  0  0  0  0  0  0  0  0  0  0  0
   -0.8328   20.9180  -10.8481 H   0  0  0  0  0  0  0  0  0  0  0  0
   -1.1431   19.6634   -9.5382 H   0  0  0  0  0  0  0  0  0  0  0  0
    0.2665   19.6002  -12.9086 H   0  0  0  0  0  0  0  0  0  0  0  0
    1.1504   18.0577  -13.3243 H   0  0  0  0  0  0  0  0  0  0  0  0
    2.6352   17.0681  -12.9924 H   0  0  0  0  0  0  0  0  0  0  0  0
    1.3611   17.3654  -11.8490 H   0  0  0  0  0  0  0  0  0  0  0  0
    4.0216   19.1147  -13.7075 H   0  0  0  0  0  0  0  0  0  0  0  0
    2.6599   20.0773  -13.9087 H   0  0  0  0  0  0  0  0  0  0  0  0
  2  1  2  0  0  0  0
  3  1  1  0  0  0  0
  4 52  1  0  0  0  0
  5  4  1  0  0  0  0
  5  3  2  0  0  0  0
  5126  1  0  0  0  0
  6  2  1  0  0  0  0
  6  4  2  0  0  0  0
  6127  1  0  0  0  0
  7  2  1  0  0  0  0
  8  3  1  0  0  0  0
  9115  1  0  0  0  0
  9 72  1  0  0  0  0
  9128  1  6  0  0  0
 10 47  1  0  0  0  0
 10129  1  6  0  0  0
 10 24  1  0  0  0  0
 11  9  1  0  0  0  0
 12 10  1  0  0  0  0
 13  8  1  0  0  0  0
 14  7  1  0  0  0  0
 15 13  2  0  0  0  0
 16 14  1  0  0  0  0
 17 12  1  0  0  0  0
 17 16  2  0  0  0  0
 17130  1  0  0  0  0
 18 12  2  0  0  0  0
 18131  1  0  0  0  0
 19 11  1  0  0  0  0
 19132  1  0  0  0  0
 20 13  1  0  0  0  0
 20 19  2  0  0  0  0
 20133  1  0  0  0  0
 21 14  2  0  0  0  0
 21 18  1  0  0  0  0
 21134  1  0  0  0  0
 22 16  1  0  0  0  0
 23 15  1  0  0  0  0
 24135  1  0  0  0  0
 25 36  1  0  0  0  0
 25136  1  6  0  0  0
 26 25  1  0  0  0  0
 26 43  1  0  0  0  0
 26137  1  1  0  0  0
 27 25  1  0  0  0  0
 27 38  1  0  0  0  0
 27138  1  1  0  0  0
 28 26  1  0  0  0  0
 29100  1  1  0  0  0
 29 41  1  0  0  0  0
 30 27  1  0  0  0  0
 30 39  1  0  0  0  0
 30139  1  6  0  0  0
 31140  1  1  0  0  0
 31 36  1  0  0  0  0
 32 28  1  0  0  0  0
 32 30  1  0  0  0  0
 32141  1  1  0  0  0
 32 44  1  0  0  0  0
 33 29  1  0  0  0  0
 33 31  1  0  0  0  0
 33142  1  0  0  0  0
 33143  1  0  0  0  0
 34 31  1  0  0  0  0
 35 29  1  0  0  0  0
 35144  1  1  0  0  0
 35 40  1  0  0  0  0
 37 34  1  0  0  0  0
 37 35  1  0  0  0  0
 37145  1  6  0  0  0
 37 42  1  0  0  0  0
 38146  1  0  0  0  0
 39147  1  0  0  0  0
 40148  1  0  0  0  0
 41149  1  0  0  0  0
 41150  1  0  0  0  0
 41151  1  0  0  0  0
 42152  1  0  0  0  0
 42153  1  0  0  0  0
 42154  1  0  0  0  0
 43  1  1  0  0  0  0
 44 45  1  0  0  0  0
 44155  1  0  0  0  0
 44156  1  0  0  0  0
 45157  1  0  0  0  0
 46 11  2  0  0  0  0
 46 15  1  0  0  0  0
 46158  1  0  0  0  0
 47 62  1  0  0  0  0
 47159  1  1  0  0  0
 48160  1  0  0  0  0
 49 47  1  0  0  0  0
 50 73  1  0  0  0  0
 51 49  1  0  0  0  0
 51161  1  0  0  0  0
 52 48  1  0  0  0  0
 52 50  1  0  0  0  0
 52162  1  6  0  0  0
 53 48  1  0  0  0  0
 54 51  1  0  0  0  0
 54 53  1  0  0  0  0
 54 58  1  0  0  0  0
 54163  1  6  0  0  0
 55 49  2  0  0  0  0
 56 50  2  0  0  0  0
 57 53  2  0  0  0  0
 58 59  1  0  0  0  0
 58164  1  0  0  0  0
 58165  1  0  0  0  0
 59 61  2  0  0  0  0
 59 60  1  0  0  0  0
 60166  1  0  0  0  0
 60167  1  0  0  0  0
 62168  1  0  0  0  0
 63 62  1  0  0  0  0
 64 63  1  0  0  0  0
 64 67  1  0  0  0  0
 64169  1  6  0  0  0
 65 63  2  0  0  0  0
 66 64  1  0  0  0  0
 66170  1  0  0  0  0
 66171  1  0  0  0  0
 67172  1  0  0  0  0
 68 66  1  0  0  0  0
 68173  1  0  0  0  0
 69 67  1  0  0  0  0
 69174  1  0  0  0  0
 69175  1  0  0  0  0
 69176  1  0  0  0  0
 70 68  1  0  0  0  0
 70177  1  0  0  0  0
 70178  1  0  0  0  0
 70179  1  0  0  0  0
 71 68  1  0  0  0  0
 71180  1  0  0  0  0
 71181  1  0  0  0  0
 71182  1  0  0  0  0
 72 76  1  0  0  0  0
 72183  1  6  0  0  0
 73184  1  0  0  0  0
 74 87  1  0  0  0  0
 74 73  1  0  0  0  0
 74 77  1  0  0  0  0
 74185  1  1  0  0  0
 75 84  2  0  0  0  0
 76186  1  0  0  0  0
 77 76  1  0  0  0  0
 77 78  2  0  0  0  0
 79 80  2  0  0  0  0
 79 81  1  0  0  0  0
 81187  1  0  0  0  0
 82 92  1  0  0  0  0
 82 83  1  0  0  0  0
 82188  1  1  0  0  0
 82 79  1  0  0  0  0
 83189  1  0  0  0  0
 84 72  1  0  0  0  0
 84 83  1  0  0  0  0
 86 85  2  0  0  0  0
 87 88  2  0  0  0  0
 88 85  1  0  0  0  0
 88190  1  0  0  0  0
 89 90  2  0  0  0  0
 89 86  1  0  0  0  0
 89191  1  0  0  0  0
 90 87  1  0  0  0  0
 90192  1  0  0  0  0
 91 86  1  0  0  0  0
 91193  1  0  0  0  0
 92 93  2  0  0  0  0
 92 95  1  0  0  0  0
 93 96  1  0  0  0  0
 93194  1  0  0  0  0
 94 98  1  0  0  0  0
 94195  1  0  0  0  0
 95 85  1  0  0  0  0
 96 94  2  0  0  0  0
 96 97  1  0  0  0  0
 97196  1  0  0  0  0
 98 95  2  0  0  0  0
 98 99  1  0  0  0  0
 99197  1  0  0  0  0
100101  1  0  0  0  0
100198  1  0  0  0  0
101102  1  0  0  0  0
101199  1  0  0  0  0
101200  1  0  0  0  0
103102  1  0  0  0  0
103201  1  0  0  0  0
104102  2  0  0  0  0
104202  1  0  0  0  0
105103  2  0  0  0  0
105203  1  0  0  0  0
106104  1  0  0  0  0
106204  1  0  0  0  0
107105  1  0  0  0  0
107106  2  0  0  0  0
107108  1  0  0  0  0
109108  1  0  0  0  0
109205  1  0  0  0  0
110108  2  0  0  0  0
110206  1  0  0  0  0
111109  2  0  0  0  0
111207  1  0  0  0  0
112110  1  0  0  0  0
112208  1  0  0  0  0
113111  1  0  0  0  0
113112  2  0  0  0  0
113114  1  0  0  0  0
116115  1  0  0  0  0
116117  1  0  0  0  0
116209  1  1  0  0  0
117118  1  0  0  0  0
118119  1  0  0  0  0
118210  1  6  0  0  0
118122  1  0  0  0  0
119120  1  0  0  0  0
119123  1  0  0  0  0
119211  1  1  0  0  0
120121  1  0  0  0  0
120124  1  6  0  0  0
120125  1  0  0  0  0
121116  1  0  0  0  0
121212  1  0  0  0  0
121213  1  0  0  0  0
122214  1  0  0  0  0
122215  1  0  0  0  0
122216  1  0  0  0  0
123217  1  0  0  0  0
124218  1  0  0  0  0
124219  1  0  0  0  0
124220  1  0  0  0  0
125221  1  0  0  0  0
125222  1  0  0  0  0
M  END
>  <DRUGBANK_ID>
DB04911

>  <COMMON_NAME>
Oritavancin

>  <CAS_NUMBER>
171099-57-3

>  <UNII>
PUG62FRZ2E

>  <SYNONYMS>
Chlorobiphenyl-chloroeremomycin; Oritavancin

$$$$
