
 OpenBabel10282417183D

 51 55  0  0  0  0  0  0  0  0999 V2000
   -1.9333   -0.0218   -0.0037 C   0  0  0  0  0  0  0  0  0  0  0  0
   -1.2295    1.1843    0.0086 C   0  0  0  0  0  0  0  0  0  0  0  0
    0.1662    1.1737    0.0141 C   0  0  0  0  0  0  0  0  0  0  0  0
    0.8541   -0.0405    0.0208 C   0  0  0  0  0  0  0  0  0  0  0  0
    0.1580   -1.2459    0.0049 C   0  0  0  0  0  0  0  0  0  0  0  0
   -1.2423   -1.2391   -0.0175 C   0  0  0  0  0  0  0  0  0  0  0  0
    0.8880   -2.5189   -0.0342 C   0  0  0  0  0  0  0  0  0  0  0  0
    1.7723   -2.8427    0.9966 N   0  0  0  0  0  0  0  0  0  0  0  0
    2.2087   -4.0167    0.6516 C   0  0  0  0  0  0  0  0  0  0  0  0
    3.1616   -4.9321    1.2972 C   0  0  0  0  0  0  0  0  0  0  0  0
    3.4048   -6.0891    0.6525 C   0  0  0  0  0  0  0  0  0  0  0  0
    2.8288   -6.4652   -0.5682 N   0  0  0  0  0  0  0  0  0  0  0  0
    1.9337   -5.5684   -1.1684 C   0  0  0  0  0  0  0  0  0  0  0  0
    1.5843   -4.3988   -0.6125 C   0  0  0  0  0  0  0  0  0  0  0  0
    0.7336   -3.4065   -0.9874 N   0  0  0  0  0  0  0  0  0  0  0  0
    3.1594   -7.7582   -1.2226 C   0  0  0  0  0  0  0  0  0  0  0  0
    1.9574   -8.6721   -1.3583 C   0  0  0  0  0  0  0  0  0  0  0  0
    1.8686   -9.8363   -0.6132 C   0  0  0  0  0  0  0  0  0  0  0  0
    0.6662  -10.5266   -0.6013 C   0  0  0  0  0  0  0  0  0  0  0  0
   -0.3491  -10.1269   -1.4557 C   0  0  0  0  0  0  0  0  0  0  0  0
   -0.2003   -9.0493   -2.2534 N   0  0  0  0  0  0  0  0  0  0  0  0
    0.9469   -8.3021   -2.1806 N   0  0  0  0  0  0  0  0  0  0  0  0
   -1.6090  -10.8635   -1.5768 C   0  0  0  0  0  0  0  0  0  0  0  0
   -1.9261  -11.4571   -2.8171 C   0  0  0  0  0  0  0  0  0  0  0  0
   -3.1549  -12.0844   -3.0320 C   0  0  0  0  0  0  0  0  0  0  0  0
   -4.0637  -12.2285   -1.9811 C   0  0  0  0  0  0  0  0  0  0  0  0
   -3.7000  -11.7596   -0.7107 C   0  0  0  0  0  0  0  0  0  0  0  0
   -2.5188  -11.0100   -0.5103 C   0  0  0  0  0  0  0  0  0  0  0  0
   -2.3381  -10.3490    0.8414 C   0  0  0  0  0  0  0  0  0  0  0  0
   -3.4148   -9.5861    1.1797 F   0  0  0  0  0  0  0  0  0  0  0  0
   -2.2073  -11.2717    1.8356 F   0  0  0  0  0  0  0  0  0  0  0  0
   -1.2650   -9.5272    0.9687 F   0  0  0  0  0  0  0  0  0  0  0  0
   -5.4361  -12.8038   -2.2401 C   0  0  0  0  0  0  0  0  0  0  0  0
   -6.1484  -12.0475   -3.1212 F   0  0  0  0  0  0  0  0  0  0  0  0
   -5.3931  -14.0564   -2.7675 F   0  0  0  0  0  0  0  0  0  0  0  0
   -6.2054  -12.8910   -1.1198 F   0  0  0  0  0  0  0  0  0  0  0  0
    2.1943   -0.0153   -0.0011 F   0  0  0  0  0  0  0  0  0  0  0  0
   -3.0214   -0.0125   -0.0089 H   0  0  0  0  0  0  0  0  0  0  0  0
   -1.7672    2.1304    0.0074 H   0  0  0  0  0  0  0  0  0  0  0  0
    0.7241    2.1052    0.0037 H   0  0  0  0  0  0  0  0  0  0  0  0
   -1.7952   -2.1752   -0.0373 H   0  0  0  0  0  0  0  0  0  0  0  0
    3.6149   -4.6508    2.2349 H   0  0  0  0  0  0  0  0  0  0  0  0
    4.0963   -6.8131    1.0740 H   0  0  0  0  0  0  0  0  0  0  0  0
    1.5100   -5.8720   -2.1164 H   0  0  0  0  0  0  0  0  0  0  0  0
    3.5990   -7.5797   -2.2103 H   0  0  0  0  0  0  0  0  0  0  0  0
    3.9299   -8.2812   -0.6389 H   0  0  0  0  0  0  0  0  0  0  0  0
    2.7022  -10.1972   -0.0226 H   0  0  0  0  0  0  0  0  0  0  0  0
    0.5165  -11.3381    0.1022 H   0  0  0  0  0  0  0  0  0  0  0  0
   -1.2139  -11.4045   -3.6421 H   0  0  0  0  0  0  0  0  0  0  0  0
   -3.4077  -12.4418   -4.0300 H   0  0  0  0  0  0  0  0  0  0  0  0
   -4.3695  -11.9317    0.1349 H   0  0  0  0  0  0  0  0  0  0  0  0
  1  2  2  0  0  0  0
  1  6  1  0  0  0  0
  1 38  1  0  0  0  0
  2  3  1  0  0  0  0
  2 39  1  0  0  0  0
  3  4  2  0  0  0  0
  3 40  1  0  0  0  0
  4  5  1  0  0  0  0
  4 37  1  0  0  0  0
  5  6  2  0  0  0  0
  5  7  1  0  0  0  0
  6 41  1  0  0  0  0
  7  8  1  0  0  0  0
  7 15  2  0  0  0  0
  8  9  2  0  0  0  0
  9 10  1  0  0  0  0
  9 14  1  0  0  0  0
 10 11  2  0  0  0  0
 10 42  1  0  0  0  0
 11 12  1  0  0  0  0
 11 43  1  0  0  0  0
 12 13  1  0  0  0  0
 12 16  1  0  0  0  0
 13 14  2  0  0  0  0
 13 44  1  0  0  0  0
 14 15  1  0  0  0  0
 16 17  1  0  0  0  0
 16 45  1  0  0  0  0
 16 46  1  0  0  0  0
 17 18  2  0  0  0  0
 17 22  1  0  0  0  0
 18 19  1  0  0  0  0
 18 47  1  0  0  0  0
 19 20  2  0  0  0  0
 19 48  1  0  0  0  0
 20 21  1  0  0  0  0
 20 23  1  0  0  0  0
 21 22  2  0  0  0  0
 23 24  2  0  0  0  0
 23 28  1  0  0  0  0
 24 25  1  0  0  0  0
 24 49  1  0  0  0  0
 25 26  2  0  0  0  0
 25 50  1  0  0  0  0
 26 27  1  0  0  0  0
 26 33  1  0  0  0  0
 27 28  2  0  0  0  0
 27 51  1  0  0  0  0
 28 29  1  0  0  0  0
 29 30  1  0  0  0  0
 29 31  1  0  0  0  0
 29 32  1  0  0  0  0
 33 34  1  0  0  0  0
 33 35  1  0  0  0  0
 33 36  1  0  0  0  0
M  END
>  <DRUGBANK_ID>
DB11852

>  <COMMON_NAME>
Tegobuvir

>  <CAS_NUMBER>
1000787-75-6

>  <UNII>
5NOK5X389M

>  <SYNONYMS>
Tegobuvir

$$$$
