
 OpenBabel10282417123D

 29 28  0  0  1  0  0  0  0  0999 V2000
    1.0813   -1.9376   -1.1103 C   0  0  0  0  0  0  0  0  0  0  0  0
    0.9462    0.0801    0.0520 C   0  0  0  0  0  0  0  0  0  0  0  0
    0.9396   -0.8164    1.3813 C   0  0  0  0  0  0  0  0  0  0  0  0
   -1.1550   -0.8926   -1.0600 C   0  0  0  0  0  0  0  0  0  0  0  0
    0.3687   -0.6576   -1.1864 C   0  0  2  0  0  0  0  0  0  0  0  0
   -2.1361    0.6870   -1.5898 Br  0  0  0  0  0  0  0  0  0  0  0  0
    0.7568   -0.2641   -2.4866 O   0  0  0  0  0  0  0  0  0  0  0  0
   -0.4383   -4.7780   -2.1512 O   0  0  0  0  0  0  0  0  0  0  0  0
   -0.4158   -5.8888    0.0092 O   0  0  0  0  0  0  0  0  0  0  0  0
   -2.2238   -4.5229   -0.6330 O   0  0  0  0  0  0  0  0  0  0  0  0
    3.0893   -3.9632    0.9690 O   0  0  0  0  0  0  0  0  0  0  0  0
    0.7953   -4.2624    2.1730 O   0  0  0  0  0  0  0  0  0  0  0  0
    1.7767   -1.9988    1.2847 O   0  0  0  0  0  0  0  0  0  0  0  0
    1.0394   -4.2289   -0.5208 O   0  0  0  0  0  0  0  0  0  0  0  0
   -0.6826   -4.3841   -0.5800 P   0  0  0  0  0  0  0  0  0  0  0  0
    1.5071   -3.6240    1.0670 P   0  0  3  0  0  0  0  0  0  0  0  0
    2.0924   -1.8083   -0.7098 H   0  0  0  0  0  0  0  0  0  0  0  0
    1.2751   -2.5529   -1.9829 H   0  0  0  0  0  0  0  0  0  0  0  0
    0.3872   -2.3963   -0.4235 H   0  0  0  0  0  0  0  0  0  0  0  0
    1.9876    0.3591   -0.1683 H   0  0  0  0  0  0  0  0  0  0  0  0
    0.4093    1.0205    0.2118 H   0  0  0  0  0  0  0  0  0  0  0  0
    1.3599   -0.1647    2.1699 H   0  0  0  0  0  0  0  0  0  0  0  0
   -0.0658   -1.0835    1.7122 H   0  0  0  0  0  0  0  0  0  0  0  0
   -1.4979   -1.7108   -1.7042 H   0  0  0  0  0  0  0  0  0  0  0  0
   -1.4686   -1.1361   -0.0351 H   0  0  0  0  0  0  0  0  0  0  0  0
    0.6669   -1.0571   -3.0630 H   0  0  0  0  0  0  0  0  0  0  0  0
   -0.7758   -4.1228   -2.7792 H   0  0  0  0  0  0  0  0  0  0  0  0
    0.0452   -5.8948    0.8726 H   0  0  0  0  0  0  0  0  0  0  0  0
    3.5166   -3.3636    0.3326 H   0  0  0  0  0  0  0  0  0  0  0  0
  1 17  1  0  0  0  0
  1 18  1  0  0  0  0
  1 19  1  0  0  0  0
  2 20  1  0  0  0  0
  2 21  1  0  0  0  0
  3  2  1  0  0  0  0
  3 22  1  0  0  0  0
  3 23  1  0  0  0  0
  4 24  1  0  0  0  0
  4 25  1  0  0  0  0
  5  4  1  0  0  0  0
  5  7  1  6  0  0  0
  5  2  1  0  0  0  0
  5  1  1  0  0  0  0
  6  4  1  0  0  0  0
  7 26  1  0  0  0  0
  8 27  1  0  0  0  0
  9 28  1  0  0  0  0
 11 29  1  0  0  0  0
 13  3  1  0  0  0  0
 15  8  1  0  0  0  0
 15  9  1  0  0  0  0
 15 10  2  0  0  0  0
 15 14  1  0  0  0  0
 16 11  1  0  0  0  0
 16 12  2  0  0  0  0
 16 13  1  0  0  0  0
 16 14  1  0  0  0  0
M  END
>  <DRUGBANK_ID>
DB02480

>  <SECONDARY_ACCESSION_NUMBERS>
EXPT02854

>  <COMMON_NAME>
(S)-4-bromo-3-hydroxy-3-methylbutyl diphosphate

$$$$
