
 OpenBabel10282417203D

 42 45  0  0  0  0  0  0  0  0999 V2000
    1.5127   -0.2579    0.0181 C   0  0  0  0  0  0  0  0  0  0  0  0
    0.6353   -1.3312    0.0098 C   0  0  0  0  0  0  0  0  0  0  0  0
   -0.7431   -1.1114   -0.0418 C   0  0  0  0  0  0  0  0  0  0  0  0
   -1.2968    0.1861   -0.0610 C   0  0  0  0  0  0  0  0  0  0  0  0
   -0.3665    1.2472   -0.0818 C   0  0  0  0  0  0  0  0  0  0  0  0
    1.0122    1.0334   -0.0372 C   0  0  0  0  0  0  0  0  0  0  0  0
   -2.8526    0.4720   -0.1645 C   0  0  3  0  0  0  0  0  0  0  0  0
   -3.4003    1.2174    1.1268 C   0  0  0  0  0  0  0  0  0  0  0  0
   -2.8532    2.4554    1.5477 C   0  0  0  0  0  0  0  0  0  0  0  0
   -3.5322    3.3078    2.4211 C   0  0  0  0  0  0  0  0  0  0  0  0
   -4.7474    2.9141    2.9462 C   0  0  0  0  0  0  0  0  0  0  0  0
   -5.2856    1.6803    2.6277 C   0  0  0  0  0  0  0  0  0  0  0  0
   -4.6141    0.8360    1.7428 C   0  0  0  0  0  0  0  0  0  0  0  0
   -5.4291    3.7521    3.7346 F   0  0  0  0  0  0  0  0  0  0  0  0
   -3.1046    1.3389   -1.4656 C   0  0  0  0  0  0  0  0  0  0  0  0
   -2.6614    0.8692   -2.7234 C   0  0  0  0  0  0  0  0  0  0  0  0
   -2.9121    1.5828   -3.9040 C   0  0  0  0  0  0  0  0  0  0  0  0
   -3.5655    2.8109   -3.8602 C   0  0  0  0  0  0  0  0  0  0  0  0
   -3.9887    3.3088   -2.6455 C   0  0  0  0  0  0  0  0  0  0  0  0
   -3.7650    2.5867   -1.4768 C   0  0  0  0  0  0  0  0  0  0  0  0
   -4.2247    3.1835   -0.3799 F   0  0  0  0  0  0  0  0  0  0  0  0
   -3.5877   -0.8474   -0.2950 N   0  0  0  0  0  0  0  0  0  0  0  0
   -3.6227   -1.8617    0.6559 C   0  0  0  0  0  0  0  0  0  0  0  0
   -4.4020   -2.8607    0.1215 C   0  0  0  0  0  0  0  0  0  0  0  0
   -4.8622   -2.4977   -1.1075 N   0  0  0  0  0  0  0  0  0  0  0  0
   -4.3885   -1.2879   -1.3220 C   0  0  0  0  0  0  0  0  0  0  0  0
    2.5837   -0.4285    0.0456 H   0  0  0  0  0  0  0  0  0  0  0  0
    1.0123   -2.3506    0.0250 H   0  0  0  0  0  0  0  0  0  0  0  0
   -1.3496   -2.0097   -0.0946 H   0  0  0  0  0  0  0  0  0  0  0  0
   -0.6805    2.2802   -0.1754 H   0  0  0  0  0  0  0  0  0  0  0  0
    1.6867    1.8847   -0.0686 H   0  0  0  0  0  0  0  0  0  0  0  0
   -1.9959    2.9023    1.0642 H   0  0  0  0  0  0  0  0  0  0  0  0
   -3.1606    4.3122    2.5967 H   0  0  0  0  0  0  0  0  0  0  0  0
   -6.2593    1.3961    3.0112 H   0  0  0  0  0  0  0  0  0  0  0  0
   -5.1234   -0.0938    1.5059 H   0  0  0  0  0  0  0  0  0  0  0  0
   -2.1511   -0.0919   -2.8083 H   0  0  0  0  0  0  0  0  0  0  0  0
   -2.6072    1.1717   -4.8618 H   0  0  0  0  0  0  0  0  0  0  0  0
   -3.7491    3.3794   -4.7673 H   0  0  0  0  0  0  0  0  0  0  0  0
   -4.5130    4.2584   -2.5691 H   0  0  0  0  0  0  0  0  0  0  0  0
   -3.1020   -1.7818    1.5989 H   0  0  0  0  0  0  0  0  0  0  0  0
   -4.6570   -3.8125    0.5649 H   0  0  0  0  0  0  0  0  0  0  0  0
   -4.6080   -0.7165   -2.2114 H   0  0  0  0  0  0  0  0  0  0  0  0
  1  2  2  0  0  0  0
  1  6  1  0  0  0  0
  1 27  1  0  0  0  0
  2  3  1  0  0  0  0
  2 28  1  0  0  0  0
  3  4  2  0  0  0  0
  3 29  1  0  0  0  0
  4  5  1  0  0  0  0
  4  7  1  0  0  0  0
  5  6  2  0  0  0  0
  5 30  1  0  0  0  0
  6 31  1  0  0  0  0
  7  8  1  0  0  0  0
  7 15  1  0  0  0  0
  7 22  1  0  0  0  0
  8  9  2  0  0  0  0
  8 13  1  0  0  0  0
  9 10  1  0  0  0  0
  9 32  1  0  0  0  0
 10 11  2  0  0  0  0
 10 33  1  0  0  0  0
 11 12  1  0  0  0  0
 11 14  1  0  0  0  0
 12 13  2  0  0  0  0
 12 34  1  0  0  0  0
 13 35  1  0  0  0  0
 15 16  2  0  0  0  0
 15 20  1  0  0  0  0
 16 17  1  0  0  0  0
 16 36  1  0  0  0  0
 17 18  2  0  0  0  0
 17 37  1  0  0  0  0
 18 19  1  0  0  0  0
 18 38  1  0  0  0  0
 19 20  2  0  0  0  0
 19 39  1  0  0  0  0
 20 21  1  0  0  0  0
 22 23  1  0  0  0  0
 22 26  1  0  0  0  0
 23 24  2  0  0  0  0
 23 40  1  0  0  0  0
 24 25  1  0  0  0  0
 24 41  1  0  0  0  0
 25 26  2  0  0  0  0
 26 42  1  0  0  0  0
M  END
>  <DRUGBANK_ID>
DB13425

>  <COMMON_NAME>
Flutrimazole

>  <CAS_NUMBER>
119006-77-8

>  <UNII>
776S0UP252

>  <SYNONYMS>
flutrimazol; Flutrimazole

$$$$
