AZL
 OpenBabel10282417163D

 63 64  0  0  0  0  0  0  0  0999 V2000
   -5.6014   -3.8256    0.2342 N   0  0  0  0  0  0  0  0  0  0  0  0
   -5.7258   -2.4068   -0.0064 C   0  0  0  0  0  0  0  0  0  0  0  0
   -6.4158   -1.4917    1.0107 C   0  0  0  0  0  0  0  0  0  0  0  0
   -5.6847   -1.3887    2.3612 C   0  0  0  0  0  0  0  0  0  0  0  0
   -4.4070   -0.5247    2.3145 C   0  0  0  0  0  0  0  0  0  0  0  0
   -4.3510    0.8558    1.8357 N   0  0  0  0  0  0  0  0  0  0  0  0
   -2.9715    1.2930    1.6641 N   0  0  0  0  0  0  0  0  0  0  0  0
   -2.3723    1.6531    0.4576 C   0  0  0  0  0  0  0  0  0  0  0  0
   -1.1997    2.0299    0.4158 O   0  0  0  0  0  0  0  0  0  0  0  0
   -3.1925    1.5460   -0.8157 C   0  0  1  0  0  0  0  0  0  0  0  0
   -3.9645    0.3082   -0.9537 N   0  0  0  0  0  0  0  0  0  0  0  0
   -4.2546    2.6435   -0.8289 C   0  0  0  0  0  0  0  0  0  0  0  0
   -5.2689    2.1475   -1.8415 C   0  0  0  0  0  0  0  0  0  0  0  0
   -5.1524    0.6160   -1.7902 C   0  0  0  0  0  0  0  0  0  0  0  0
   -3.3125   -0.9475   -1.0007 C   0  0  0  0  0  0  0  0  0  0  0  0
   -3.6273   -1.7665   -1.8737 O   0  0  0  0  0  0  0  0  0  0  0  0
   -2.2047   -1.3680    0.1277 C   0  0  2  0  0  0  0  0  0  0  0  0
   -1.1360   -1.8246   -0.7131 N   0  0  0  0  0  0  0  0  0  0  0  0
   -2.4126   -2.4622    1.2672 C   0  0  0  0  0  0  0  0  0  0  0  0
   -1.3234   -2.5139    2.3212 C   0  0  0  0  0  0  0  0  0  0  0  0
   -0.7966   -1.3671    2.9490 C   0  0  0  0  0  0  0  0  0  0  0  0
    0.2545   -1.4667    3.8539 C   0  0  0  0  0  0  0  0  0  0  0  0
    0.7073   -2.7276    4.2185 C   0  0  0  0  0  0  0  0  0  0  0  0
    0.0886   -3.8731    3.7106 C   0  0  0  0  0  0  0  0  0  0  0  0
   -0.9018   -3.7673    2.7435 C   0  0  0  0  0  0  0  0  0  0  0  0
    0.1975   -1.6882   -0.4691 C   0  0  0  0  0  0  0  0  0  0  0  0
    1.0089   -2.2374   -1.1728 O   0  0  0  0  0  0  0  0  0  0  0  0
    0.4676   -0.9055    0.6082 O   0  0  0  0  0  0  0  0  0  0  0  0
    1.8323   -0.8008    1.0499 C   0  0  0  0  0  0  0  0  0  0  0  0
    2.4970   -2.1366    1.3529 C   0  0  0  0  0  0  0  0  0  0  0  0
   -2.5473    1.6166   -1.7027 H   0  0  0  0  0  0  0  0  0  0  0  0
   -1.8538   -0.4810    0.6163 H   0  0  0  0  0  0  0  0  0  0  0  0
   -5.0235   -4.0064    1.0493 H   0  0  0  0  0  0  0  0  0  0  0  0
   -6.4983   -4.2767    0.3429 H   0  0  0  0  0  0  0  0  0  0  0  0
   -4.7021   -2.1286    0.0488 H   0  0  0  0  0  0  0  0  0  0  0  0
   -6.0723   -2.2065   -1.0270 H   0  0  0  0  0  0  0  0  0  0  0  0
   -6.4558   -0.4793    0.5984 H   0  0  0  0  0  0  0  0  0  0  0  0
   -7.4475   -1.8196    1.1385 H   0  0  0  0  0  0  0  0  0  0  0  0
   -6.3399   -1.0054    3.1401 H   0  0  0  0  0  0  0  0  0  0  0  0
   -5.4037   -2.4149    2.6483 H   0  0  0  0  0  0  0  0  0  0  0  0
   -3.7788   -0.6971    3.1968 H   0  0  0  0  0  0  0  0  0  0  0  0
   -3.9448   -0.9514    1.4645 H   0  0  0  0  0  0  0  0  0  0  0  0
   -4.7383    0.7908    0.8857 H   0  0  0  0  0  0  0  0  0  0  0  0
   -2.3261    1.2355    2.4488 H   0  0  0  0  0  0  0  0  0  0  0  0
   -4.7425    2.7492    0.1469 H   0  0  0  0  0  0  0  0  0  0  0  0
   -3.8401    3.6256   -1.0706 H   0  0  0  0  0  0  0  0  0  0  0  0
   -6.2790    2.5090   -1.6088 H   0  0  0  0  0  0  0  0  0  0  0  0
   -5.0147    2.5183   -2.8398 H   0  0  0  0  0  0  0  0  0  0  0  0
   -6.0533    0.1952   -1.3365 H   0  0  0  0  0  0  0  0  0  0  0  0
   -5.0663    0.1976   -2.7977 H   0  0  0  0  0  0  0  0  0  0  0  0
   -1.3969   -2.4571   -1.4578 H   0  0  0  0  0  0  0  0  0  0  0  0
   -3.2393   -2.4015    1.9709 H   0  0  0  0  0  0  0  0  0  0  0  0
   -2.6479   -3.4329    0.8213 H   0  0  0  0  0  0  0  0  0  0  0  0
   -1.0793   -0.3688    2.6388 H   0  0  0  0  0  0  0  0  0  0  0  0
    0.7803   -0.5679    4.1735 H   0  0  0  0  0  0  0  0  0  0  0  0
    1.6079   -2.8224    4.8161 H   0  0  0  0  0  0  0  0  0  0  0  0
    0.4175   -4.8577    4.0200 H   0  0  0  0  0  0  0  0  0  0  0  0
   -1.3344   -4.6559    2.2921 H   0  0  0  0  0  0  0  0  0  0  0  0
    2.3862   -0.2308    0.3052 H   0  0  0  0  0  0  0  0  0  0  0  0
    1.8342   -0.1932    1.9669 H   0  0  0  0  0  0  0  0  0  0  0  0
    2.4654   -2.8179    0.5048 H   0  0  0  0  0  0  0  0  0  0  0  0
    3.5364   -1.9946    1.6533 H   0  0  0  0  0  0  0  0  0  0  0  0
    2.0022   -2.6776    2.1518 H   0  0  0  0  0  0  0  0  0  0  0  0
  1  2  1  0  0  0  0
  1 33  1  0  0  0  0
  1 34  1  0  0  0  0
  2  3  1  0  0  0  0
  2 35  1  0  0  0  0
  2 36  1  0  0  0  0
  3  4  1  0  0  0  0
  3 37  1  0  0  0  0
  3 38  1  0  0  0  0
  4  5  1  0  0  0  0
  4 39  1  0  0  0  0
  4 40  1  0  0  0  0
  5  6  1  0  0  0  0
  5 41  1  0  0  0  0
  5 42  1  0  0  0  0
  6  7  1  0  0  0  0
  6 43  1  0  0  0  0
  7  8  1  0  0  0  0
  7 44  1  0  0  0  0
  8  9  2  0  0  0  0
 10  8  1  0  0  0  0
 10 11  1  0  0  0  0
 10 12  1  0  0  0  0
 10 31  1  6  0  0  0
 11 14  1  0  0  0  0
 11 15  1  0  0  0  0
 12 13  1  0  0  0  0
 12 45  1  0  0  0  0
 12 46  1  0  0  0  0
 13 14  1  0  0  0  0
 13 47  1  0  0  0  0
 13 48  1  0  0  0  0
 14 49  1  0  0  0  0
 14 50  1  0  0  0  0
 15 16  2  0  0  0  0
 17 19  1  0  0  0  0
 17 32  1  1  0  0  0
 17 18  1  0  0  0  0
 17 15  1  0  0  0  0
 18 26  1  0  0  0  0
 18 51  1  0  0  0  0
 19 20  1  0  0  0  0
 19 52  1  0  0  0  0
 19 53  1  0  0  0  0
 20 21  2  0  0  0  0
 20 25  1  0  0  0  0
 21 22  1  0  0  0  0
 21 54  1  0  0  0  0
 22 23  2  0  0  0  0
 22 55  1  0  0  0  0
 23 24  1  0  0  0  0
 23 56  1  0  0  0  0
 24 25  2  0  0  0  0
 24 57  1  0  0  0  0
 25 58  1  0  0  0  0
 26 27  2  0  0  0  0
 26 28  1  0  0  0  0
 28 29  1  0  0  0  0
 29 30  1  0  0  0  0
 29 59  1  0  0  0  0
 29 60  1  0  0  0  0
 30 61  1  0  0  0  0
 30 62  1  0  0  0  0
 30 63  1  0  0  0  0
M  END
>  <DRUGBANK_ID>
DB07400

>  <COMMON_NAME>
1-ETHOXYCARBONYL-D-PHE-PRO-2(4-AMINOBUTYL)HYDRAZINE

$$$$
