
 OpenBabel10282417103D

 45 48  0  0  0  0  0  0  0  0999 V2000
   -0.9666    0.5071   -0.0867 C   0  0  2  0  0  0  0  0  0  0  0  0
    0.6953    0.4576    0.5420 C   0  0  0  0  0  0  0  0  0  0  0  0
   -1.3680   -0.9411   -0.0602 C   0  0  1  0  0  0  0  0  0  0  0  0
   -1.7052    0.6196   -1.6700 C   0  0  0  0  0  0  0  0  0  0  0  0
   -1.5840    1.6308    0.7011 C   0  0  0  0  0  0  0  0  0  0  0  0
    1.4763   -0.7533    0.3944 C   0  0  0  0  0  0  0  0  0  0  0  0
    1.4968    1.5955    0.8037 C   0  0  0  0  0  0  0  0  0  0  0  0
   -0.1247   -1.1228   -1.2821 C   0  0  2  0  0  0  0  0  0  0  0  0
   -2.9152   -0.8841    0.3636 C   0  0  0  0  0  0  0  0  0  0  0  0
   -0.7946    1.1761   -2.5628 C   0  0  0  0  0  0  0  0  0  0  0  0
   -3.0766    1.7339    0.5067 C   0  0  0  0  0  0  0  0  0  0  0  0
    0.8244   -1.8679   -0.3034 C   0  0  0  0  0  0  0  0  0  0  0  0
    2.8963   -0.8271    0.4516 C   0  0  0  0  0  0  0  0  0  0  0  0
    2.9389    1.5546    0.6226 C   0  0  0  0  0  0  0  0  0  0  0  0
    0.3011    0.2003   -2.3479 N   0  0  0  0  0  0  0  0  0  0  0  0
   -3.7731    0.3963    0.2431 C   0  0  0  0  0  0  0  0  0  0  0  0
    3.6208    0.3288    0.4693 C   0  0  0  0  0  0  0  0  0  0  0  0
    3.5235    2.7614    0.2890 O   0  0  0  0  0  0  0  0  0  0  0  0
    1.3713    1.1522   -2.0110 C   0  0  0  0  0  0  0  0  0  0  0  0
    4.9302    2.7481    0.0123 C   0  0  0  0  0  0  0  0  0  0  0  0
   -1.8126   -1.6244   -0.8071 H   0  0  0  0  0  0  0  0  0  0  0  0
   -1.9942   -0.3468   -2.1593 H   0  0  0  0  0  0  0  0  0  0  0  0
   -2.6900    1.1031   -1.7317 H   0  0  0  0  0  0  0  0  0  0  0  0
   -1.1337    2.5583    0.3133 H   0  0  0  0  0  0  0  0  0  0  0  0
   -1.3264    1.5898    1.7622 H   0  0  0  0  0  0  0  0  0  0  0  0
    1.0511    2.5883    0.8367 H   0  0  0  0  0  0  0  0  0  0  0  0
   -0.4154   -1.8978   -2.0065 H   0  0  0  0  0  0  0  0  0  0  0  0
   -2.9544   -1.2045    1.4113 H   0  0  0  0  0  0  0  0  0  0  0  0
   -3.4953   -1.6758   -0.1521 H   0  0  0  0  0  0  0  0  0  0  0  0
   -1.1607    1.2506   -3.6053 H   0  0  0  0  0  0  0  0  0  0  0  0
   -0.7240    2.2280   -2.2015 H   0  0  0  0  0  0  0  0  0  0  0  0
   -3.2569    2.4123   -0.3427 H   0  0  0  0  0  0  0  0  0  0  0  0
   -3.5110    2.2468    1.3634 H   0  0  0  0  0  0  0  0  0  0  0  0
    0.2987   -2.4390    0.4886 H   0  0  0  0  0  0  0  0  0  0  0  0
    1.4880   -2.5889   -0.7873 H   0  0  0  0  0  0  0  0  0  0  0  0
    3.4029   -1.7645    0.1744 H   0  0  0  0  0  0  0  0  0  0  0  0
   -4.6409    0.3223    0.9036 H   0  0  0  0  0  0  0  0  0  0  0  0
   -4.2393    0.4136   -0.7553 H   0  0  0  0  0  0  0  0  0  0  0  0
    4.6672    0.2713    0.1557 H   0  0  0  0  0  0  0  0  0  0  0  0
    1.0191    2.1002   -1.5362 H   0  0  0  0  0  0  0  0  0  0  0  0
    2.0666    0.6679   -1.3902 H   0  0  0  0  0  0  0  0  0  0  0  0
    1.9904    1.5037   -2.8368 H   0  0  0  0  0  0  0  0  0  0  0  0
    5.4734    2.3574    0.8772 H   0  0  0  0  0  0  0  0  0  0  0  0
    5.1904    2.1849   -0.8966 H   0  0  0  0  0  0  0  0  0  0  0  0
    5.2576    3.7790   -0.1522 H   0  0  0  0  0  0  0  0  0  0  0  0
  1  2  1  6  0  0  0
  1  3  1  0  0  0  0
  1  4  1  0  0  0  0
  1  5  1  0  0  0  0
  2  6  2  0  0  0  0
  2  7  1  0  0  0  0
  3  8  1  0  0  0  0
  3  9  1  0  0  0  0
  3 21  1  6  0  0  0
  4 10  1  0  0  0  0
  4 22  1  0  0  0  0
  4 23  1  0  0  0  0
  5 11  1  0  0  0  0
  5 24  1  0  0  0  0
  5 25  1  0  0  0  0
  6 12  1  0  0  0  0
  6 13  1  0  0  0  0
  7 14  2  0  0  0  0
  7 26  1  0  0  0  0
  8 15  1  0  0  0  0
  8 12  1  0  0  0  0
  8 27  1  6  0  0  0
  9 16  1  0  0  0  0
  9 28  1  0  0  0  0
  9 29  1  0  0  0  0
 10 15  1  0  0  0  0
 10 30  1  0  0  0  0
 10 31  1  0  0  0  0
 11 16  1  0  0  0  0
 11 32  1  0  0  0  0
 11 33  1  0  0  0  0
 12 34  1  0  0  0  0
 12 35  1  0  0  0  0
 13 17  2  0  0  0  0
 13 36  1  0  0  0  0
 14 18  1  0  0  0  0
 14 17  1  0  0  0  0
 15 19  1  0  0  0  0
 16 37  1  0  0  0  0
 16 38  1  0  0  0  0
 17 39  1  0  0  0  0
 18 20  1  0  0  0  0
 19 40  1  0  0  0  0
 19 41  1  0  0  0  0
 19 42  1  0  0  0  0
 20 43  1  0  0  0  0
 20 44  1  0  0  0  0
 20 45  1  0  0  0  0
M  END
>  <DRUGBANK_ID>
DB00514

>  <SECONDARY_ACCESSION_NUMBERS>
APRD00655

>  <COMMON_NAME>
Dextromethorphan

>  <CAS_NUMBER>
125-71-3

>  <UNII>
7355X3ROTS

>  <SYNONYMS>
(+)-dextromethorphan; D-methorphan; delta-Methorphan; Dex; Dextromethorfan; Dextromethorphan; Dextrom√©thorphane; Dextromethorphanum; Dextrometorfano; DM

$$$$
