
 OpenBabel10282417213D

 74 77  0  0  1  0  0  0  0  0999 V2000
    0.4205   -0.7772    1.8356 C   0  0  0  0  0  0  0  0  0  0  0  0
    0.0846   -1.3857    0.5385 C   0  0  2  0  0  0  0  0  0  0  0  0
    0.7223   -0.0511   -0.2630 C   0  0  0  0  0  0  0  0  0  0  0  0
    2.2190    0.5679    0.2916 C   0  0  0  0  0  0  0  0  0  0  0  0
    3.2925   -0.5306    0.4335 C   0  0  0  0  0  0  0  0  0  0  0  0
    3.6706   -1.3306   -0.7703 C   0  0  0  0  0  0  0  0  0  0  0  0
    4.4003   -0.3425   -1.6246 C   0  0  0  0  0  0  0  0  0  0  0  0
    4.4933   -2.5790   -0.4084 C   0  0  0  0  0  0  0  0  0  0  0  0
   -1.5461   -2.1930    0.8081 C   0  0  1  0  0  0  0  0  0  0  0  0
   -2.4135   -3.8211    1.4171 C   0  0  0  0  0  0  0  0  0  0  0  0
   -1.6012   -4.7285    2.3735 C   0  0  0  0  0  0  0  0  0  0  0  0
   -0.7117   -3.7211    1.8784 C   0  0  2  0  0  0  0  0  0  0  0  0
   -1.7337   -2.2680    2.2087 C   0  0  2  0  0  0  0  0  0  0  0  0
   -1.5578   -1.8514    3.6679 C   0  0  0  0  0  0  0  0  0  0  0  0
   -0.1932   -2.0522    4.2664 C   0  0  0  0  0  0  0  0  0  0  0  0
    0.6603   -3.3004    3.7740 C   0  0  1  0  0  0  0  0  0  0  0  0
    0.6472   -3.8334    2.3682 C   0  0  1  0  0  0  0  0  0  0  0  0
    1.3792   -5.1797    2.2434 C   0  0  0  0  0  0  0  0  0  0  0  0
    2.8248   -5.0613    2.8888 C   0  0  0  0  0  0  0  0  0  0  0  0
    3.1740   -4.0075    3.7098 C   0  0  0  0  0  0  0  0  0  0  0  0
    2.1090   -3.0989    4.0882 C   0  0  2  0  0  0  0  0  0  0  0  0
    2.7560   -2.0910    2.9552 C   0  0  0  0  0  0  0  0  0  0  0  0
    2.8740   -0.7383    3.4540 C   0  0  0  0  0  0  0  0  0  0  0  0
    3.7922   -1.1302    4.5547 C   0  0  1  0  0  0  0  0  0  0  0  0
    4.4445   -2.9306    4.3226 C   0  0  0  0  0  0  0  0  0  0  0  0
    3.8128    0.0880    5.3304 O   0  0  0  0  0  0  0  0  0  0  0  0
    2.1418   -3.1058    5.6885 C   0  0  0  0  0  0  0  0  0  0  0  0
    1.5850   -4.9155    6.7040 I   0  0  0  0  0  0  0  0  0  0  0  0
   -3.4679   -1.8308    1.8375 C   0  0  0  0  0  0  0  0  0  0  0  0
   -0.1225    0.0714    2.2481 H   0  0  0  0  0  0  0  0  0  0  0  0
    1.4202   -0.4662    1.8740 H   0  0  0  0  0  0  0  0  0  0  0  0
    0.5534   -1.5909    2.4519 H   0  0  0  0  0  0  0  0  0  0  0  0
    0.7267   -2.1827    0.1547 H   0  0  0  0  0  0  0  0  0  0  0  0
    0.9162   -0.3120   -1.2995 H   0  0  0  0  0  0  0  0  0  0  0  0
    0.0453    0.8061   -0.1801 H   0  0  0  0  0  0  0  0  0  0  0  0
    2.5999    1.4077   -0.2918 H   0  0  0  0  0  0  0  0  0  0  0  0
    2.0895    1.0672    1.2781 H   0  0  0  0  0  0  0  0  0  0  0  0
    4.1669   -0.2694    1.0547 H   0  0  0  0  0  0  0  0  0  0  0  0
    2.7710   -1.2943    0.9146 H   0  0  0  0  0  0  0  0  0  0  0  0
    2.7478   -1.6901   -1.2350 H   0  0  0  0  0  0  0  0  0  0  0  0
    5.3023   -0.0039   -1.1025 H   0  0  0  0  0  0  0  0  0  0  0  0
    4.6375   -0.7783   -2.5861 H   0  0  0  0  0  0  0  0  0  0  0  0
    3.7672    0.5351   -1.7872 H   0  0  0  0  0  0  0  0  0  0  0  0
    3.9296   -3.2795    0.2258 H   0  0  0  0  0  0  0  0  0  0  0  0
    4.7496   -3.1211   -1.3221 H   0  0  0  0  0  0  0  0  0  0  0  0
    5.4158   -2.3350    0.1294 H   0  0  0  0  0  0  0  0  0  0  0  0
   -2.0673   -1.2246    0.5705 H   0  0  0  0  0  0  0  0  0  0  0  0
   -3.0922   -4.4248    0.7788 H   0  0  0  0  0  0  0  0  0  0  0  0
   -3.1541   -3.7343    2.2931 H   0  0  0  0  0  0  0  0  0  0  0  0
   -1.3947   -5.7520    2.1158 H   0  0  0  0  0  0  0  0  0  0  0  0
   -1.6885   -4.6068    3.4723 H   0  0  0  0  0  0  0  0  0  0  0  0
   -0.5562   -3.9750    0.7784 H   0  0  0  0  0  0  0  0  0  0  0  0
   -1.8889   -0.8185    3.7707 H   0  0  0  0  0  0  0  0  0  0  0  0
   -2.2305   -2.4579    4.2822 H   0  0  0  0  0  0  0  0  0  0  0  0
    0.2891   -1.0810    4.1489 H   0  0  0  0  0  0  0  0  0  0  0  0
   -0.2653   -2.0473    5.3549 H   0  0  0  0  0  0  0  0  0  0  0  0
    0.2567   -4.1297    4.3452 H   0  0  0  0  0  0  0  0  0  0  0  0
    1.1692   -3.2986    1.5879 H   0  0  0  0  0  0  0  0  0  0  0  0
    1.4349   -5.4173    1.1571 H   0  0  0  0  0  0  0  0  0  0  0  0
    0.7754   -5.9859    2.6694 H   0  0  0  0  0  0  0  0  0  0  0  0
    3.4766   -5.8152    2.4588 H   0  0  0  0  0  0  0  0  0  0  0  0
    3.8023   -2.1700    2.5629 H   0  0  0  0  0  0  0  0  0  0  0  0
    2.4590   -2.4275    1.9885 H   0  0  0  0  0  0  0  0  0  0  0  0
    3.3074    0.0641    2.8519 H   0  0  0  0  0  0  0  0  0  0  0  0
    1.9249   -0.3298    3.7942 H   0  0  0  0  0  0  0  0  0  0  0  0
    3.0982   -1.4341    5.2781 H   0  0  0  0  0  0  0  0  0  0  0  0
    5.1856   -2.9853    3.5159 H   0  0  0  0  0  0  0  0  0  0  0  0
    4.8357   -3.3635    5.2369 H   0  0  0  0  0  0  0  0  0  0  0  0
    3.0417    0.6591    5.0171 H   0  0  0  0  0  0  0  0  0  0  0  0
    3.1322   -2.9731    6.1300 H   0  0  0  0  0  0  0  0  0  0  0  0
    1.5638   -2.2658    6.0762 H   0  0  0  0  0  0  0  0  0  0  0  0
   -3.5815   -0.7450    1.8289 H   0  0  0  0  0  0  0  0  0  0  0  0
   -3.7129   -2.1362    0.7728 H   0  0  0  0  0  0  0  0  0  0  0  0
   -4.2556   -2.3101    2.4193 H   0  0  0  0  0  0  0  0  0  0  0  0
  1 30  1  0  0  0  0
  1 31  1  0  0  0  0
  1 32  1  0  0  0  0
  2 33  1  6  0  0  0
  2  3  1  0  0  0  0
  2  1  1  0  0  0  0
  3  4  1  0  0  0  0
  3 34  1  0  0  0  0
  3 35  1  0  0  0  0
  4  5  1  0  0  0  0
  4 36  1  0  0  0  0
  4 37  1  0  0  0  0
  5  6  1  0  0  0  0
  5 38  1  0  0  0  0
  5 39  1  0  0  0  0
  6  7  1  0  0  0  0
  6  8  1  0  0  0  0
  6 40  1  0  0  0  0
  7 41  1  0  0  0  0
  7 42  1  0  0  0  0
  7 43  1  0  0  0  0
  8 44  1  0  0  0  0
  8 45  1  0  0  0  0
  8 46  1  0  0  0  0
  9  2  1  0  0  0  0
  9 10  1  0  0  0  0
  9 13  1  0  0  0  0
  9 47  1  6  0  0  0
 10 11  1  0  0  0  0
 10 48  1  0  0  0  0
 10 49  1  0  0  0  0
 11 50  1  0  0  0  0
 11 51  1  0  0  0  0
 12 11  1  0  0  0  0
 12 13  1  0  0  0  0
 12 17  1  0  0  0  0
 12 52  1  1  0  0  0
 13 14  1  0  0  0  0
 13 29  1  6  0  0  0
 14 15  1  0  0  0  0
 14 53  1  0  0  0  0
 14 54  1  0  0  0  0
 15 55  1  0  0  0  0
 15 56  1  0  0  0  0
 16 15  1  0  0  0  0
 16 17  1  0  0  0  0
 16 21  1  0  0  0  0
 16 57  1  1  0  0  0
 17 18  1  0  0  0  0
 17 58  1  6  0  0  0
 18 19  1  0  0  0  0
 18 59  1  0  0  0  0
 18 60  1  0  0  0  0
 19 20  2  0  0  0  0
 19 61  1  0  0  0  0
 20 21  1  0  0  0  0
 20 25  1  0  0  0  0
 21 22  1  0  0  0  0
 21 27  1  6  0  0  0
 22 23  1  0  0  0  0
 22 62  1  0  0  0  0
 22 63  1  0  0  0  0
 23 24  1  0  0  0  0
 23 64  1  0  0  0  0
 23 65  1  0  0  0  0
 24 25  1  0  0  0  0
 24 26  1  0  0  0  0
 24 66  1  1  0  0  0
 25 67  1  0  0  0  0
 25 68  1  0  0  0  0
 26 69  1  0  0  0  0
 27 28  1  0  0  0  0
 27 70  1  0  0  0  0
 27 71  1  0  0  0  0
 29 72  1  0  0  0  0
 29 73  1  0  0  0  0
 29 74  1  0  0  0  0
M  ISO  1  28 131
M  END
>  <DRUGBANK_ID>
DB13797

>  <COMMON_NAME>
Iodocholesterol (131I)

>  <CAS_NUMBER>
42220-21-3

>  <UNII>
C5F4248GPJ

>  <SYNONYMS>
Iodocholesterol (131I); Iodocholesterol i-131

$$$$
