17M
 OpenBabel10282417163D

 43 46  0  0  0  0  0  0  0  0999 V2000
    1.0413    0.1693    0.5844 C   0  0  0  0  0  0  0  0  0  0  0  0
    0.3234   -1.2534   -0.6974 C   0  0  2  0  0  0  0  0  0  0  0  0
    1.2835   -0.3917   -0.3527 C   0  0  0  0  0  0  0  0  0  0  0  0
    2.6835   -1.2544    0.7884 C   0  0  0  0  0  0  0  0  0  0  0  0
    2.9045   -3.0115    1.1014 C   0  0  0  0  0  0  0  0  0  0  0  0
    4.1697   -4.1983    1.8392 C   0  0  0  0  0  0  0  0  0  0  0  0
    5.3408   -5.4935    2.4962 C   0  0  0  0  0  0  0  0  0  0  0  0
    6.6788   -5.7391    2.0307 C   0  0  0  0  0  0  0  0  0  0  0  0
    6.2184   -5.5439    0.7797 C   0  0  0  0  0  0  0  0  0  0  0  0
    5.0575   -6.7325    0.4477 O   0  0  0  0  0  0  0  0  0  0  0  0
    5.6368   -4.2550    0.6770 C   0  0  0  0  0  0  0  0  0  0  0  0
    4.2869   -4.3963    0.5260 C   0  0  0  0  0  0  0  0  0  0  0  0
    3.1321   -5.2241    0.1296 C   0  0  0  0  0  0  0  0  0  0  0  0
    1.9586   -4.6563   -0.2331 C   0  0  0  0  0  0  0  0  0  0  0  0
    1.8757   -3.3574    0.0728 C   0  0  0  0  0  0  0  0  0  0  0  0
    0.6094   -2.7123   -0.5533 C   0  0  2  0  0  0  0  0  0  0  0  0
    0.2197   -3.2732   -2.0181 C   0  0  0  0  0  0  0  0  0  0  0  0
   -0.5408   -2.1995   -2.8151 C   0  0  0  0  0  0  0  0  0  0  0  0
   -0.1118   -0.8840   -2.1715 C   0  0  2  0  0  0  0  0  0  0  0  0
    0.9459   -0.2232   -3.0729 C   0  0  0  0  0  0  0  0  0  0  0  0
   -1.2311   -0.0125   -2.0234 O   0  0  0  0  0  0  0  0  0  0  0  0
   -0.2491   -3.0018    0.0758 H   0  0  0  0  0  0  0  0  0  0  0  0
    0.7310   -0.3517    1.5621 H   0  0  0  0  0  0  0  0  0  0  0  0
    0.3469    1.1991    0.0547 H   0  0  0  0  0  0  0  0  0  0  0  0
    2.3080    0.7108    0.4294 H   0  0  0  0  0  0  0  0  0  0  0  0
    1.5686    0.6201   -1.0780 H   0  0  0  0  0  0  0  0  0  0  0  0
   -0.2864   -0.2267    0.1115 H   0  0  0  0  0  0  0  0  0  0  0  0
    3.5594   -0.8133    0.2802 H   0  0  0  0  0  0  0  0  0  0  0  0
    2.6217   -0.7872    1.8155 H   0  0  0  0  0  0  0  0  0  0  0  0
    5.7135   -6.8436    2.1532 H   0  0  0  0  0  0  0  0  0  0  0  0
    7.5977   -5.3498    2.5248 H   0  0  0  0  0  0  0  0  0  0  0  0
    5.1412   -7.6787    0.7351 H   0  0  0  0  0  0  0  0  0  0  0  0
    6.0133   -3.5007    1.6497 H   0  0  0  0  0  0  0  0  0  0  0  0
    3.1691   -6.2930    0.0694 H   0  0  0  0  0  0  0  0  0  0  0  0
    1.1872   -5.2129   -0.7290 H   0  0  0  0  0  0  0  0  0  0  0  0
   -0.3877   -4.1922   -1.9801 H   0  0  0  0  0  0  0  0  0  0  0  0
    1.1338   -3.5295   -2.5670 H   0  0  0  0  0  0  0  0  0  0  0  0
   -1.6302   -2.3308   -2.7919 H   0  0  0  0  0  0  0  0  0  0  0  0
   -0.2606   -2.2377   -3.8843 H   0  0  0  0  0  0  0  0  0  0  0  0
    0.5477    0.0328   -4.0551 H   0  0  0  0  0  0  0  0  0  0  0  0
    1.2669    0.7525   -2.7154 H   0  0  0  0  0  0  0  0  0  0  0  0
    1.8293   -0.8629   -3.1631 H   0  0  0  0  0  0  0  0  0  0  0  0
   -1.6147    0.1897   -2.8895 H   0  0  0  0  0  0  0  0  0  0  0  0
  1 23  1  0  0  0  0
  1 24  1  0  0  0  0
  1 25  1  0  0  0  0
  2  1  1  6  0  0  0
  2  3  1  0  0  0  0
  2 16  1  0  0  0  0
  2 19  1  0  0  0  0
  3  4  1  0  0  0  0
  3 26  1  0  0  0  0
  3 27  1  0  0  0  0
  4  5  1  0  0  0  0
  4 28  1  0  0  0  0
  4 29  1  0  0  0  0
  5  6  1  0  0  0  0
  5 15  2  0  0  0  0
  6  7  2  0  0  0  0
  6 12  1  0  0  0  0
  7  8  1  0  0  0  0
  7 30  1  0  0  0  0
  8  9  2  0  0  0  0
  8 31  1  0  0  0  0
  9 10  1  0  0  0  0
  9 11  1  0  0  0  0
 10 32  1  0  0  0  0
 11 12  2  0  0  0  0
 11 33  1  0  0  0  0
 12 13  1  0  0  0  0
 13 14  2  0  0  0  0
 13 34  1  0  0  0  0
 14 15  1  0  0  0  0
 14 35  1  0  0  0  0
 15 16  1  0  0  0  0
 16 17  1  0  0  0  0
 16 22  1  1  0  0  0
 17 18  1  0  0  0  0
 17 36  1  0  0  0  0
 17 37  1  0  0  0  0
 18 19  1  0  0  0  0
 18 38  1  0  0  0  0
 18 39  1  0  0  0  0
 19 20  1  0  0  0  0
 19 21  1  1  0  0  0
 20 40  1  0  0  0  0
 20 41  1  0  0  0  0
 20 42  1  0  0  0  0
 21 43  1  0  0  0  0
M  END
>  <DRUGBANK_ID>
DB06871

>  <COMMON_NAME>
17-METHYL-17-ALPHA-DIHYDROEQUILENIN

>  <UNII>
ZP488KVU9Q

$$$$
