ESI
 OpenBabel10282417133D

 21 22  0  0  0  0  0  0  0  0999 V2000
    1.0479    0.0193   -0.1769 C   0  0  0  0  0  0  0  0  0  0  0  0
    0.3510   -0.9329    0.6554 C   0  0  0  0  0  0  0  0  0  0  0  0
    0.3641    0.8488   -0.9258 N   0  0  0  0  0  0  0  0  0  0  0  0
    2.3622    0.0145   -0.1267 N   0  3  0  0  0  0  0  0  0  0  0  0
    0.7594   -1.1665    2.2865 S   0  0  0  0  0  0  0  0  0  0  0  0
   -0.3834   -2.4331    2.4711 C   0  0  0  0  0  0  0  0  0  0  0  0
   -1.0962   -2.6742    1.2904 C   0  0  0  0  0  0  0  0  0  0  0  0
   -0.6630   -1.7698    0.2459 C   0  0  0  0  0  0  0  0  0  0  0  0
   -0.6037   -3.1730    3.6467 C   0  0  0  0  0  0  0  0  0  0  0  0
   -1.5566   -4.1881    3.6376 C   0  0  0  0  0  0  0  0  0  0  0  0
   -2.2794   -4.4638    2.4854 C   0  0  0  0  0  0  0  0  0  0  0  0
   -2.0610   -3.7185    1.3186 C   0  0  0  0  0  0  0  0  0  0  0  0
   -3.1912   -4.1979   -0.3788 I   0  0  0  0  0  0  0  0  0  0  0  0
    0.8149    1.5460   -1.5034 H   0  0  0  0  0  0  0  0  0  0  0  0
   -0.6511    0.8488   -0.8978 H   0  0  0  0  0  0  0  0  0  0  0  0
    2.8299   -0.6478    0.4861 H   0  0  0  0  0  0  0  0  0  0  0  0
    2.9371    0.6465   -0.6634 H   0  0  0  0  0  0  0  0  0  0  0  0
   -1.0629   -1.7897   -0.7624 H   0  0  0  0  0  0  0  0  0  0  0  0
   -0.0357   -2.9620    4.5498 H   0  0  0  0  0  0  0  0  0  0  0  0
   -1.7304   -4.7668    4.5428 H   0  0  0  0  0  0  0  0  0  0  0  0
   -3.0143   -5.2664    2.5077 H   0  0  0  0  0  0  0  0  0  0  0  0
  1  2  1  0  0  0  0
  1  3  1  0  0  0  0
  1  4  2  0  0  0  0
  2  5  1  0  0  0  0
  2  8  2  0  0  0  0
  3 14  1  0  0  0  0
  3 15  1  0  0  0  0
  4 16  1  0  0  0  0
  4 17  1  0  0  0  0
  5  6  1  0  0  0  0
  6  7  2  0  0  0  0
  6  9  1  0  0  0  0
  7  8  1  0  0  0  0
  7 12  1  0  0  0  0
  8 18  1  0  0  0  0
  9 10  2  0  0  0  0
  9 19  1  0  0  0  0
 10 11  1  0  0  0  0
 10 20  1  0  0  0  0
 11 12  2  0  0  0  0
 11 21  1  0  0  0  0
 12 13  1  0  0  0  0
M  CHG  1   4   1
M  END
>  <DRUGBANK_ID>
DB03136

>  <SECONDARY_ACCESSION_NUMBERS>
EXPT01360

>  <COMMON_NAME>
4-Iodobenzo[B]Thiophene-2-Carboxamidine

$$$$
