TRR
 OpenBabel10282417133D

 40 41  0  0  0  0  0  0  0  0999 V2000
   -1.1820    0.9583    0.0157 N   0  3  0  0  0  0  0  0  0  0  0  0
   -1.1168   -0.3688   -0.0234 C   0  0  0  0  0  0  0  0  0  0  0  0
   -2.2960   -1.0479   -0.0332 N   0  0  0  0  0  0  0  0  0  0  0  0
    0.0520   -1.0283   -0.0266 N   0  0  0  0  0  0  0  0  0  0  0  0
    1.1942   -0.3057   -0.0041 C   0  0  0  0  0  0  0  0  0  0  0  0
    2.3544   -1.0307    0.1379 N   0  0  0  0  0  0  0  0  0  0  0  0
    1.1894    1.0849    0.0494 C   0  0  0  0  0  0  0  0  0  0  0  0
   -0.0725    1.6779    0.0889 C   0  0  0  0  0  0  0  0  0  0  0  0
    2.4564    1.9272    0.0683 C   0  0  0  0  0  0  0  0  0  0  0  0
    2.5853    2.8772   -1.1054 C   0  0  0  0  0  0  0  0  0  0  0  0
    1.6559    3.9111   -1.2119 C   0  0  0  0  0  0  0  0  0  0  0  0
    1.6116    4.7923   -2.2803 C   0  0  0  0  0  0  0  0  0  0  0  0
    2.6268    4.7427   -3.2386 C   0  0  0  0  0  0  0  0  0  0  0  0
    3.6881    3.8211   -3.0619 C   0  0  0  0  0  0  0  0  0  0  0  0
    3.6167    2.8403   -2.0464 C   0  0  0  0  0  0  0  0  0  0  0  0
    0.6241    5.7272   -2.3900 O   0  0  0  0  0  0  0  0  0  0  0  0
    2.6705    5.5308   -4.3553 O   0  0  0  0  0  0  0  0  0  0  0  0
    4.8625    3.7846   -3.7854 O   0  0  0  0  0  0  0  0  0  0  0  0
   -0.4146    5.7685   -1.4282 C   0  0  0  0  0  0  0  0  0  0  0  0
    1.6270    6.4470   -4.6312 C   0  0  0  0  0  0  0  0  0  0  0  0
    5.1281    4.9009   -4.6391 C   0  0  0  0  0  0  0  0  0  0  0  0
   -2.0963    1.3902   -0.0056 H   0  0  0  0  0  0  0  0  0  0  0  0
   -2.2166   -2.0577    0.0404 H   0  0  0  0  0  0  0  0  0  0  0  0
   -3.2154   -0.6439    0.0584 H   0  0  0  0  0  0  0  0  0  0  0  0
    2.2532   -2.0298   -0.0182 H   0  0  0  0  0  0  0  0  0  0  0  0
    3.2561   -0.6550   -0.1211 H   0  0  0  0  0  0  0  0  0  0  0  0
   -0.2696    2.7327    0.1864 H   0  0  0  0  0  0  0  0  0  0  0  0
    2.4570    2.5230    0.9915 H   0  0  0  0  0  0  0  0  0  0  0  0
    3.3612    1.3164    0.1337 H   0  0  0  0  0  0  0  0  0  0  0  0
    0.9555    4.0538   -0.4103 H   0  0  0  0  0  0  0  0  0  0  0  0
    4.4033    2.0879   -1.9857 H   0  0  0  0  0  0  0  0  0  0  0  0
   -1.0057    4.8468   -1.4610 H   0  0  0  0  0  0  0  0  0  0  0  0
   -0.0184    5.9514   -0.4243 H   0  0  0  0  0  0  0  0  0  0  0  0
   -1.0700    6.6032   -1.6841 H   0  0  0  0  0  0  0  0  0  0  0  0
    0.6751    5.9227   -4.7652 H   0  0  0  0  0  0  0  0  0  0  0  0
    1.5780    7.2249   -3.8627 H   0  0  0  0  0  0  0  0  0  0  0  0
    1.8609    6.9458   -5.5737 H   0  0  0  0  0  0  0  0  0  0  0  0
    4.4884    4.8465   -5.5259 H   0  0  0  0  0  0  0  0  0  0  0  0
    5.0237    5.8598   -4.1129 H   0  0  0  0  0  0  0  0  0  0  0  0
    6.1589    4.8480   -4.9973 H   0  0  0  0  0  0  0  0  0  0  0  0
  1  2  2  0  0  0  0
  1  8  1  0  0  0  0
  1 22  1  0  0  0  0
  2  3  1  0  0  0  0
  2  4  1  0  0  0  0
  3 23  1  0  0  0  0
  3 24  1  0  0  0  0
  4  5  2  0  0  0  0
  5  6  1  0  0  0  0
  5  7  1  0  0  0  0
  6 25  1  0  0  0  0
  6 26  1  0  0  0  0
  7  8  2  0  0  0  0
  7  9  1  0  0  0  0
  8 27  1  0  0  0  0
  9 10  1  0  0  0  0
  9 28  1  0  0  0  0
  9 29  1  0  0  0  0
 10 11  2  0  0  0  0
 10 15  1  0  0  0  0
 11 12  1  0  0  0  0
 11 30  1  0  0  0  0
 12 13  2  0  0  0  0
 12 16  1  0  0  0  0
 13 14  1  0  0  0  0
 13 17  1  0  0  0  0
 14 15  2  0  0  0  0
 14 18  1  0  0  0  0
 15 31  1  0  0  0  0
 16 19  1  0  0  0  0
 17 20  1  0  0  0  0
 18 21  1  0  0  0  0
 19 32  1  0  0  0  0
 19 33  1  0  0  0  0
 19 34  1  0  0  0  0
 20 35  1  0  0  0  0
 20 36  1  0  0  0  0
 20 37  1  0  0  0  0
 21 38  1  0  0  0  0
 21 39  1  0  0  0  0
 21 40  1  0  0  0  0
M  CHG  1   1   1
M  END
>  <DRUGBANK_ID>
DB03125

>  <SECONDARY_ACCESSION_NUMBERS>
EXPT03114

>  <COMMON_NAME>
2,4-Diamino-5-(3,4,5-Trimethoxy-Benzyl)-Pyrimidin-1-Ium

$$$$
