
 OpenBabel10282417143D

 44 43  0  0  0  0  0  0  0  0999 V2000
    1.1168    0.1086   -0.1200 N   0  0  0  0  0  0  0  0  0  0  0  0
    0.6811   -0.8092   -1.1669 C   0  0  0  0  0  0  0  0  0  0  0  0
    1.1517   -2.2333   -0.8817 C   0  0  0  0  0  0  0  0  0  0  0  0
    0.5831   -2.8007    0.4201 C   0  0  0  0  0  0  0  0  0  0  0  0
   -0.9516   -2.8517    0.4460 C   0  0  0  0  0  0  0  0  0  0  0  0
   -1.5567   -3.7427   -0.6502 C   0  0  0  0  0  0  0  0  0  0  0  0
   -1.0942   -5.1937   -0.5677 C   0  0  0  0  0  0  0  0  0  0  0  0
   -1.5329   -5.8021    0.6871 N   0  0  0  0  0  0  0  0  0  0  0  0
   -0.9366   -7.1196    0.8879 C   0  0  0  0  0  0  0  0  0  0  0  0
    0.5927   -7.0742    1.0112 C   0  0  0  0  0  0  0  0  0  0  0  0
    1.0736   -6.1876    2.1676 C   0  0  0  0  0  0  0  0  0  0  0  0
    0.6133   -6.7000    3.5312 C   0  0  0  0  0  0  0  0  0  0  0  0
    1.1478   -8.1027    3.8299 C   0  0  0  0  0  0  0  0  0  0  0  0
    2.6775   -8.1743    3.8156 C   0  0  0  0  0  0  0  0  0  0  0  0
    3.2395   -7.3019    4.8404 N   0  0  0  0  0  0  0  0  0  0  0  0
    0.7201   -0.1797    0.7748 H   0  0  0  0  0  0  0  0  0  0  0  0
    2.1267    0.0267   -0.0062 H   0  0  0  0  0  0  0  0  0  0  0  0
   -0.4092   -0.7677   -1.2578 H   0  0  0  0  0  0  0  0  0  0  0  0
    1.0821   -0.4766   -2.1281 H   0  0  0  0  0  0  0  0  0  0  0  0
    0.8769   -2.8819   -1.7221 H   0  0  0  0  0  0  0  0  0  0  0  0
    2.2475   -2.2639   -0.8348 H   0  0  0  0  0  0  0  0  0  0  0  0
    1.0124   -3.7943    0.5576 H   0  0  0  0  0  0  0  0  0  0  0  0
    0.9368   -2.2233    1.2820 H   0  0  0  0  0  0  0  0  0  0  0  0
   -1.2781   -3.1866    1.4367 H   0  0  0  0  0  0  0  0  0  0  0  0
   -1.3668   -1.8436    0.3465 H   0  0  0  0  0  0  0  0  0  0  0  0
   -2.6498   -3.7001   -0.5978 H   0  0  0  0  0  0  0  0  0  0  0  0
   -1.2858   -3.3525   -1.6384 H   0  0  0  0  0  0  0  0  0  0  0  0
   -1.4921   -5.7663   -1.4097 H   0  0  0  0  0  0  0  0  0  0  0  0
   -0.0073   -5.1999   -0.6773 H   0  0  0  0  0  0  0  0  0  0  0  0
   -1.2926   -5.2084    1.4756 H   0  0  0  0  0  0  0  0  0  0  0  0
   -1.3711   -7.5449    1.8003 H   0  0  0  0  0  0  0  0  0  0  0  0
   -1.2379   -7.7909    0.0795 H   0  0  0  0  0  0  0  0  0  0  0  0
    0.9665   -8.0967    1.1227 H   0  0  0  0  0  0  0  0  0  0  0  0
    1.0531   -6.7283    0.0800 H   0  0  0  0  0  0  0  0  0  0  0  0
    2.1649   -6.1009    2.1243 H   0  0  0  0  0  0  0  0  0  0  0  0
    0.7126   -5.1636    2.0623 H   0  0  0  0  0  0  0  0  0  0  0  0
    0.9274   -5.9914    4.3055 H   0  0  0  0  0  0  0  0  0  0  0  0
   -0.4809   -6.7042    3.5866 H   0  0  0  0  0  0  0  0  0  0  0  0
    0.7619   -8.4358    4.7989 H   0  0  0  0  0  0  0  0  0  0  0  0
    0.7510   -8.8174    3.0980 H   0  0  0  0  0  0  0  0  0  0  0  0
    2.9965   -9.2040    3.9890 H   0  0  0  0  0  0  0  0  0  0  0  0
    3.0748   -7.8896    2.8348 H   0  0  0  0  0  0  0  0  0  0  0  0
    4.2599   -7.2924    4.7553 H   0  0  0  0  0  0  0  0  0  0  0  0
    2.9432   -6.3454    4.6881 H   0  0  0  0  0  0  0  0  0  0  0  0
  1  2  1  0  0  0  0
  1 16  1  0  0  0  0
  1 17  1  0  0  0  0
  2  3  1  0  0  0  0
  2 18  1  0  0  0  0
  2 19  1  0  0  0  0
  3  4  1  0  0  0  0
  3 20  1  0  0  0  0
  3 21  1  0  0  0  0
  4  5  1  0  0  0  0
  4 22  1  0  0  0  0
  4 23  1  0  0  0  0
  5  6  1  0  0  0  0
  5 24  1  0  0  0  0
  5 25  1  0  0  0  0
  6  7  1  0  0  0  0
  6 26  1  0  0  0  0
  6 27  1  0  0  0  0
  7  8  1  0  0  0  0
  7 28  1  0  0  0  0
  7 29  1  0  0  0  0
  8  9  1  0  0  0  0
  8 30  1  0  0  0  0
  9 10  1  0  0  0  0
  9 31  1  0  0  0  0
  9 32  1  0  0  0  0
 10 11  1  0  0  0  0
 10 33  1  0  0  0  0
 10 34  1  0  0  0  0
 11 12  1  0  0  0  0
 11 35  1  0  0  0  0
 11 36  1  0  0  0  0
 12 13  1  0  0  0  0
 12 37  1  0  0  0  0
 12 38  1  0  0  0  0
 13 14  1  0  0  0  0
 13 39  1  0  0  0  0
 13 40  1  0  0  0  0
 14 15  1  0  0  0  0
 14 41  1  0  0  0  0
 14 42  1  0  0  0  0
 15 43  1  0  0  0  0
 15 44  1  0  0  0  0
M  END
>  <DRUGBANK_ID>
DB04684

>  <COMMON_NAME>
Bis(6-aminohexyl)amine

>  <CAS_NUMBER>
143-23-7

>  <UNII>
BID902UF5V

>  <SYNONYMS>
Dihexylenetriamine; N-(6-Aminohexyl)-1,6-hexanediamine

$$$$
