
 OpenBabel10282417123D

 88 93  0  0  0  0  0  0  0  0999 V2000
   -4.7093    2.3023    0.8500 N   0  0  0  0  0  0  0  0  0  0  0  0
   -3.5038    1.9454    0.6237 C   0  0  0  0  0  0  0  0  0  0  0  0
   -2.5317    3.0138    0.7493 C   0  0  1  0  0  0  0  0  0  0  0  0
   -2.3894    3.2290    2.1803 C   0  0  1  0  0  0  0  0  0  0  0  0
   -1.9930    1.4183    3.0779 C   0  0  2  0  0  0  0  0  0  0  0  0
   -2.0109    0.1795    2.3815 C   0  0  2  0  0  0  0  0  0  0  0  0
   -3.3520   -0.1970    2.7918 C   0  0  0  0  0  0  0  0  0  0  0  0
   -4.3318    0.8577    3.0738 N   0  0  0  0  0  0  0  0  0  0  0  0
   -5.7062    0.5024    3.2769 C   0  0  2  0  0  0  0  0  0  0  0  0
   -3.4421    0.7369    0.4468 O   0  0  0  0  0  0  0  0  0  0  0  0
   -1.4470    2.6895   -0.0782 O   0  0  0  0  0  0  0  0  0  0  0  0
   -0.6269    1.6440    0.3973 C   0  0  0  0  0  0  0  0  0  0  0  0
   -0.0751    2.2377    1.7041 C   0  0  0  0  0  0  0  0  0  0  0  0
   -1.2442    4.6356    2.0446 O   0  0  0  0  0  0  0  0  0  0  0  0
   -2.3782    1.0936    4.4321 O   0  0  0  0  0  0  0  0  0  0  0  0
   -0.8226   -0.6180    2.4131 O   0  0  0  0  0  0  0  0  0  0  0  0
   -0.2422   -0.7401    3.7446 C   0  0  0  0  0  0  0  0  0  0  0  0
    0.7933    0.3383    4.2022 C   0  0  0  0  0  0  0  0  0  0  0  0
   -3.4419   -1.4136    2.8099 O   0  0  0  0  0  0  0  0  0  0  0  0
    1.0125    1.7250    2.2733 C   0  0  0  0  0  0  0  0  0  0  0  0
    1.9740    1.7327    3.9582 C   0  0  0  0  0  0  0  0  0  0  0  0
    1.8014    2.2465    4.9829 C   0  0  0  0  0  0  0  0  0  0  0  0
   -0.4665    2.9047    2.8520 C   0  0  0  0  0  0  0  0  0  0  0  0
    0.2983    2.7910    3.8955 C   0  0  0  0  0  0  0  0  0  0  0  0
    0.8451    3.6676    5.3791 C   0  0  0  0  0  0  0  0  0  0  0  0
    0.1180    1.7599    5.4745 C   0  0  0  0  0  0  0  0  0  0  0  0
    2.1224    3.8159    3.8275 C   0  0  0  0  0  0  0  0  0  0  0  0
    2.9125    2.3773    2.6641 C   0  0  0  0  0  0  0  0  0  0  0  0
    2.3161    0.4643    2.8936 C   0  0  0  0  0  0  0  0  0  0  0  0
   -5.3421    3.5904    0.6572 C   0  0  2  0  0  0  0  0  0  0  0  0
   -5.9131   -0.9604    2.9926 C   0  0  1  0  0  0  0  0  0  0  0  0
   -6.7238    0.8068    2.2372 C   0  0  0  0  0  0  0  0  0  0  0  0
   -7.3734   -1.1984    2.6945 C   0  0  0  0  0  0  0  0  0  0  0  0
   -7.6855   -0.0344    1.8757 C   0  0  0  0  0  0  0  0  0  0  0  0
   -7.3026    5.1105    0.9315 C   0  0  0  0  0  0  0  0  0  0  0  0
   -6.4675    4.2769    1.8933 C   0  0  1  0  0  0  0  0  0  0  0  0
   -7.1382    4.5061   -0.5470 C   0  0  0  0  0  0  0  0  0  0  0  0
   -6.0645    3.5929   -0.6673 C   0  0  0  0  0  0  0  0  0  0  0  0
   -8.1325    3.4137   -2.4942 C   0  0  0  0  0  0  0  0  0  0  0  0
   -7.0442    2.5307   -2.6066 C   0  0  0  0  0  0  0  0  0  0  0  0
   -8.2009    4.3704   -1.4556 C   0  0  0  0  0  0  0  0  0  0  0  0
   -6.0188    2.5694   -1.6624 C   0  0  0  0  0  0  0  0  0  0  0  0
   -7.9384    2.2325    0.7009 C   0  0  0  0  0  0  0  0  0  0  0  0
   -8.8094    1.3788    0.2233 C   0  0  0  0  0  0  0  0  0  0  0  0
   -6.8798    1.8767    1.5487 C   0  0  0  0  0  0  0  0  0  0  0  0
   -8.6752    0.2058    0.8810 C   0  0  0  0  0  0  0  0  0  0  0  0
   -7.4934    3.5780    2.9396 O   0  0  0  0  0  0  0  0  0  0  0  0
   -5.3521   -1.3949    1.7005 O   0  0  0  0  0  0  0  0  0  0  0  0
   -1.8303    3.0355    3.7928 F   0  0  0  0  0  0  0  0  0  0  0  0
   -1.1220    1.6953    6.0202 F   0  0  0  0  0  0  0  0  0  0  0  0
   -5.1187    1.3582    0.8407 H   0  0  0  0  0  0  0  0  0  0  0  0
   -2.9000    4.0021    0.5564 H   0  0  0  0  0  0  0  0  0  0  0  0
   -2.8810    4.0139    2.9405 H   0  0  0  0  0  0  0  0  0  0  0  0
   -0.9698    1.2035    3.3299 H   0  0  0  0  0  0  0  0  0  0  0  0
   -1.9850    0.7797    1.5684 H   0  0  0  0  0  0  0  0  0  0  0  0
   -4.1152    1.8662    3.1122 H   0  0  0  0  0  0  0  0  0  0  0  0
   -5.9958    0.9741    4.2317 H   0  0  0  0  0  0  0  0  0  0  0  0
   -1.1097    0.6199    0.3040 H   0  0  0  0  0  0  0  0  0  0  0  0
    0.1262    1.3467   -0.3449 H   0  0  0  0  0  0  0  0  0  0  0  0
   -0.3532    4.4153    1.6343 H   0  0  0  0  0  0  0  0  0  0  0  0
   -3.0749    1.7056    4.6121 H   0  0  0  0  0  0  0  0  0  0  0  0
   -1.0336   -0.7209    4.4831 H   0  0  0  0  0  0  0  0  0  0  0  0
    0.3922   -1.6116    3.7263 H   0  0  0  0  0  0  0  0  0  0  0  0
    1.3272    0.9979    1.4134 H   0  0  0  0  0  0  0  0  0  0  0  0
    2.9951    1.1823    4.3254 H   0  0  0  0  0  0  0  0  0  0  0  0
    2.0427    2.2429    5.9919 H   0  0  0  0  0  0  0  0  0  0  0  0
   -0.6585    3.3165    4.6122 H   0  0  0  0  0  0  0  0  0  0  0  0
    0.1466    4.5670    5.4647 H   0  0  0  0  0  0  0  0  0  0  0  0
    2.5555    4.8042    3.8075 H   0  0  0  0  0  0  0  0  0  0  0  0
    3.9232    2.6363    2.3713 H   0  0  0  0  0  0  0  0  0  0  0  0
    2.5880   -0.3914    2.2280 H   0  0  0  0  0  0  0  0  0  0  0  0
   -4.5746    4.3302    0.5803 H   0  0  0  0  0  0  0  0  0  0  0  0
   -5.5008   -1.5102    3.8363 H   0  0  0  0  0  0  0  0  0  0  0  0
   -7.4651   -2.0407    2.0323 H   0  0  0  0  0  0  0  0  0  0  0  0
   -7.9650   -1.1364    3.5889 H   0  0  0  0  0  0  0  0  0  0  0  0
   -8.3334    5.0513    1.3245 H   0  0  0  0  0  0  0  0  0  0  0  0
   -6.8812    6.0957    0.9237 H   0  0  0  0  0  0  0  0  0  0  0  0
   -5.8441    4.6773    2.6920 H   0  0  0  0  0  0  0  0  0  0  0  0
   -8.9576    3.3291   -3.2004 H   0  0  0  0  0  0  0  0  0  0  0  0
   -7.0067    1.8125   -3.4245 H   0  0  0  0  0  0  0  0  0  0  0  0
   -9.1605    4.8361   -1.2396 H   0  0  0  0  0  0  0  0  0  0  0  0
   -5.2948    1.7412   -1.6436 H   0  0  0  0  0  0  0  0  0  0  0  0
   -8.3007    3.2251    0.5735 H   0  0  0  0  0  0  0  0  0  0  0  0
   -9.5419    1.7701   -0.4687 H   0  0  0  0  0  0  0  0  0  0  0  0
   -6.1498    2.4451    2.1094 H   0  0  0  0  0  0  0  0  0  0  0  0
   -9.3961   -0.5264    0.6366 H   0  0  0  0  0  0  0  0  0  0  0  0
   -8.0791    2.8210    2.6446 H   0  0  0  0  0  0  0  0  0  0  0  0
   -5.0784   -0.6330    1.1537 H   0  0  0  0  0  0  0  0  0  0  0  0
  1  2  1  0  0  0  0
  1 51  1  0  0  0  0
  2  3  1  0  0  0  0
  2 10  2  0  0  0  0
  3  4  1  0  0  0  0
  3 11  1  0  0  0  0
  3 52  1  6  0  0  0
  4 14  1  0  0  0  0
  4 53  1  1  0  0  0
  5 15  1  0  0  0  0
  5 54  1  1  0  0  0
  5  6  1  0  0  0  0
  5  4  1  0  0  0  0
  6 55  1  6  0  0  0
  6 16  1  0  0  0  0
  6  7  1  0  0  0  0
  7  8  1  0  0  0  0
  7 19  2  0  0  0  0
  8 56  1  0  0  0  0
  9  8  1  0  0  0  0
  9 31  1  0  0  0  0
  9 32  1  0  0  0  0
  9 57  1  1  0  0  0
 11 12  1  0  0  0  0
 12 13  1  0  0  0  0
 12 58  1  0  0  0  0
 12 59  1  0  0  0  0
 13 20  2  0  0  0  0
 13 23  1  0  0  0  0
 14 60  1  0  0  0  0
 15 61  1  0  0  0  0
 16 17  1  0  0  0  0
 17 18  1  0  0  0  0
 17 62  1  0  0  0  0
 17 63  1  0  0  0  0
 18 26  2  0  0  0  0
 18 29  1  0  0  0  0
 20 21  1  0  0  0  0
 20 64  1  0  0  0  0
 21 22  2  0  0  0  0
 21 65  1  0  0  0  0
 22 24  1  0  0  0  0
 22 66  1  0  0  0  0
 23 24  2  0  0  0  0
 23 49  1  0  0  0  0
 24 67  1  0  0  0  0
 25 26  1  0  0  0  0
 25 27  2  0  0  0  0
 25 68  1  0  0  0  0
 26 50  1  0  0  0  0
 27 28  1  0  0  0  0
 27 69  1  0  0  0  0
 28 29  2  0  0  0  0
 28 70  1  0  0  0  0
 29 71  1  0  0  0  0
 30  1  1  0  0  0  0
 30 36  1  0  0  0  0
 30 38  1  0  0  0  0
 30 72  1  6  0  0  0
 31 33  1  0  0  0  0
 31 48  1  0  0  0  0
 31 73  1  1  0  0  0
 32 34  1  0  0  0  0
 32 45  2  0  0  0  0
 33 34  1  0  0  0  0
 33 74  1  0  0  0  0
 33 75  1  0  0  0  0
 34 46  2  0  0  0  0
 35 36  1  0  0  0  0
 35 37  1  0  0  0  0
 35 76  1  0  0  0  0
 35 77  1  0  0  0  0
 36 47  1  0  0  0  0
 36 78  1  1  0  0  0
 37 41  1  0  0  0  0
 37 38  2  0  0  0  0
 38 42  1  0  0  0  0
 39 40  1  0  0  0  0
 39 41  2  0  0  0  0
 39 79  1  0  0  0  0
 40 42  2  0  0  0  0
 40 80  1  0  0  0  0
 41 81  1  0  0  0  0
 42 82  1  0  0  0  0
 43 45  1  0  0  0  0
 43 44  2  0  0  0  0
 43 83  1  0  0  0  0
 44 46  1  0  0  0  0
 44 84  1  0  0  0  0
 45 85  1  0  0  0  0
 46 86  1  0  0  0  0
 47 87  1  0  0  0  0
 48 88  1  0  0  0  0
M  END
>  <DRUGBANK_ID>
DB02629

>  <SECONDARY_ACCESSION_NUMBERS>
EXPT00661; EXPT00657

>  <COMMON_NAME>
N,N-[2,5-O-di-2-fluoro-benzyl-glucaryl]-di-[1-amino-indan-2-ol]

>  <SYNONYMS>
Inhibitor BEA403

$$$$
