
 OpenBabel10282417133D

 16 16  0  0  0  0  0  0  0  0999 V2000
    1.0261   -0.0524    0.2732 N   0  0  0  0  0  0  0  0  0  0  0  0
    0.4027    1.0259    0.8702 C   0  0  0  0  0  0  0  0  0  0  0  0
    0.8701    2.2924    0.7778 C   0  0  0  0  0  0  0  0  0  0  0  0
    1.9561    2.6943    0.0104 N   0  0  0  0  0  0  0  0  0  0  0  0
    0.1876    3.3448    1.6270 C   0  0  0  0  0  0  0  0  0  0  0  0
    0.5410    4.5218    1.5900 O   0  0  0  0  0  0  0  0  0  0  0  0
   -0.8168    2.9180    2.4461 N   0  0  0  0  0  0  0  0  0  0  0  0
   -1.2721    1.6408    2.5032 C   0  0  0  0  0  0  0  0  0  0  0  0
   -2.1678    1.3018    3.2778 O   0  0  0  0  0  0  0  0  0  0  0  0
   -0.6720    0.7532    1.6648 N   0  0  0  0  0  0  0  0  0  0  0  0
    0.4447   -0.5137   -0.4215 H   0  0  0  0  0  0  0  0  0  0  0  0
    1.9377    0.1898   -0.1061 H   0  0  0  0  0  0  0  0  0  0  0  0
    2.0126    3.7061   -0.1213 H   0  0  0  0  0  0  0  0  0  0  0  0
    2.1758    2.1273   -0.7984 H   0  0  0  0  0  0  0  0  0  0  0  0
   -1.2410    3.5916    3.0640 H   0  0  0  0  0  0  0  0  0  0  0  0
   -0.9619   -0.2102    1.7583 H   0  0  0  0  0  0  0  0  0  0  0  0
  1  2  1  0  0  0  0
  1 11  1  0  0  0  0
  1 12  1  0  0  0  0
  2  3  2  0  0  0  0
  2 10  1  0  0  0  0
  3  4  1  0  0  0  0
  3  5  1  0  0  0  0
  4 13  1  0  0  0  0
  4 14  1  0  0  0  0
  5  6  2  0  0  0  0
  5  7  1  0  0  0  0
  7  8  1  0  0  0  0
  7 15  1  0  0  0  0
  8  9  2  0  0  0  0
  8 10  1  0  0  0  0
 10 16  1  0  0  0  0
M  END
>  <DRUGBANK_ID>
DB03826

>  <SECONDARY_ACCESSION_NUMBERS>
EXPT03206

>  <COMMON_NAME>
5,6-Diaminouracil

>  <UNII>
VEU0FRO9FL

$$$$
