
 OpenBabel10282417133D

 75 78  0  0  1  0  0  0  0  0999 V2000
   -7.8172    0.9786   -8.0410 C   0  0  0  0  0  0  0  0  0  0  0  0
   -6.4238    3.9974   -7.5348 C   0  0  0  0  0  0  0  0  0  0  0  0
   -3.9786    7.8993   -5.9724 C   0  0  0  0  0  0  0  0  0  0  0  0
   -1.0912    8.0426   -1.0779 C   0  0  0  0  0  0  0  0  0  0  0  0
   -5.6434    6.9515   -5.9108 C   0  0  0  0  0  0  0  0  0  0  0  0
   -8.5617    1.9581   -8.5410 C   0  0  0  0  0  0  0  0  0  0  0  0
   -3.3944    8.1809   -4.0084 C   0  0  0  0  0  0  0  0  0  0  0  0
   -2.2705   10.4747   -0.3573 C   0  0  0  0  0  0  0  0  0  0  0  0
   -1.1560    8.3961   -4.3964 C   0  0  0  0  0  0  0  0  0  0  0  0
   -2.1502   12.2132   -0.4002 C   0  0  0  0  0  0  0  0  0  0  0  0
   -5.6290   10.0489   -6.7963 C   0  0  0  0  0  0  0  0  0  0  0  0
   -4.8627    5.3206   -7.1109 C   0  0  0  0  0  0  0  0  0  0  0  0
   -8.2018    6.9794   -9.7226 C   0  0  0  0  0  0  0  0  0  0  0  0
   -2.8294   10.6031   -3.0868 C   0  0  0  0  0  0  0  0  0  0  0  0
   -6.8948    6.1709   -7.2208 C   0  0  0  0  0  0  0  0  0  0  0  0
   -8.2051    4.0366   -8.6921 C   0  0  0  0  0  0  0  0  0  0  0  0
   -3.9876    9.1128   -5.5403 C   0  0  0  0  0  0  0  0  0  0  0  0
   -2.3226    7.1860   -3.0157 C   0  0  0  0  0  0  0  0  0  0  0  0
   -6.1824    7.6677   -7.0501 C   0  0  0  0  0  0  0  0  0  0  0  0
   -7.5317    3.1386   -9.4082 C   0  0  2  0  0  0  0  0  0  0  0  0
   -3.4418    9.2970   -4.5024 C   0  0  0  0  0  0  0  0  0  0  0  0
   -1.9758    8.8470   -1.6993 C   0  0  0  0  0  0  0  0  0  0  0  0
   -6.5041    7.0231   -8.0891 C   0  0  0  0  0  0  0  0  0  0  0  0
   -4.7615   10.1347   -5.7889 C   0  0  0  0  0  0  0  0  0  0  0  0
   -6.2083    8.8876   -7.4918 C   0  0  0  0  0  0  0  0  0  0  0  0
   -8.6563    5.2969   -9.6737 C   0  0  0  0  0  0  0  0  0  0  0  0
   -3.3302    6.2543   -4.9863 C   0  0  0  0  0  0  0  0  0  0  0  0
   -6.0909    4.7489   -8.8025 C   0  0  0  0  0  0  0  0  0  0  0  0
   -3.4405   10.4750   -4.1589 C   0  0  0  0  0  0  0  0  0  0  0  0
   -2.1705    9.0570   -2.8951 C   0  0  0  0  0  0  0  0  0  0  0  0
   -7.3503    7.6510   -8.9174 C   0  0  0  0  0  0  0  0  0  0  0  0
   -0.3170    9.6388   -3.6646 C   0  0  0  0  0  0  0  0  0  0  0  0
   -2.5538   12.6871   -1.7162 C   0  0  0  0  0  0  0  0  0  0  0  0
   -7.5375    4.7402  -10.1736 N   0  5  0  0  0  0  0  0  0  0  0  0
   -4.1901   11.0515   -5.0108 N   0  5  0  0  0  0  0  0  0  0  0  0
   -2.1272    7.2044   -3.7365 N   0  5  0  0  0  0  0  0  0  0  0  0
   -7.0010    8.8999   -8.5826 N   0  5  0  0  0  0  0  0  0  0  0  0
   -7.7630    5.6657   -7.9782 O   0  0  0  0  0  0  0  0  0  0  0  0
    0.2784    9.6478   -2.5623 O   0  0  0  0  0  0  0  0  0  0  0  0
   -0.9310   10.7545   -4.1346 O   0  0  0  0  0  0  0  0  0  0  0  0
   -3.5478   13.3416   -1.9960 O   0  0  0  0  0  0  0  0  0  0  0  0
   -1.5387   12.3240   -2.7091 O   0  0  0  0  0  0  0  0  0  0  0  0
    0.9164   -0.0287    0.0393 Fe  0  0  0  0  0  0  0  0  0  0  0  0
   -5.8822   11.0091   -7.1538 H   0  0  0  0  0  0  0  0  0  0  0  0
   -6.1118    5.1720   -8.3650 H   0  0  0  0  0  0  0  0  0  0  0  0
   -8.5810    7.5585  -10.4557 H   0  0  0  0  0  0  0  0  0  0  0  0
   -3.0751   11.6917   -3.1003 H   0  0  0  0  0  0  0  0  0  0  0  0
   -6.1311    5.3868   -6.1654 H   0  0  0  0  0  0  0  0  0  0  0  0
   -7.0788    2.3127   -9.9472 H   0  0  0  0  0  0  0  0  0  0  0  0
   -6.8015    0.9055   -8.4017 H   0  0  0  0  0  0  0  0  0  0  0  0
   -8.1835    0.3157   -7.2939 H   0  0  0  0  0  0  0  0  0  0  0  0
   -5.0071    5.0314   -8.3634 H   0  0  0  0  0  0  0  0  0  0  0  0
   -7.2846    4.6587   -6.6811 H   0  0  0  0  0  0  0  0  0  0  0  0
   -6.0645    3.5759   -6.7987 H   0  0  0  0  0  0  0  0  0  0  0  0
   -3.3726    7.2981   -6.5860 H   0  0  0  0  0  0  0  0  0  0  0  0
   -4.6489    7.1322   -4.7245 H   0  0  0  0  0  0  0  0  0  0  0  0
   -4.7039    8.1065   -6.5941 H   0  0  0  0  0  0  0  0  0  0  0  0
   -0.3931    9.1831    0.0649 H   0  0  0  0  0  0  0  0  0  0  0  0
   -1.0702    8.3624    0.5956 H   0  0  0  0  0  0  0  0  0  0  0  0
    0.1876    8.1563    0.0429 H   0  0  0  0  0  0  0  0  0  0  0  0
   -5.9457    6.3520   -5.1122 H   0  0  0  0  0  0  0  0  0  0  0  0
   -4.4301    6.4145   -6.3150 H   0  0  0  0  0  0  0  0  0  0  0  0
   -5.5050    8.0308   -5.1378 H   0  0  0  0  0  0  0  0  0  0  0  0
   -9.6245    2.0706   -8.1995 H   0  0  0  0  0  0  0  0  0  0  0  0
   -3.5852    8.1198   -2.5094 H   0  0  0  0  0  0  0  0  0  0  0  0
   -3.5609    6.6617   -3.6437 H   0  0  0  0  0  0  0  0  0  0  0  0
   -3.3523   10.4659   -0.2061 H   0  0  0  0  0  0  0  0  0  0  0  0
   -1.9842   10.5282    0.8804 H   0  0  0  0  0  0  0  0  0  0  0  0
   -0.4088    7.3917   -3.4735 H   0  0  0  0  0  0  0  0  0  0  0  0
   -0.8284    8.1031   -5.3263 H   0  0  0  0  0  0  0  0  0  0  0  0
   -2.7826   12.8119    0.3245 H   0  0  0  0  0  0  0  0  0  0  0  0
   -1.1330   12.5664   -0.2341 H   0  0  0  0  0  0  0  0  0  0  0  0
   -7.2216    5.8460   -9.1828 H   0  0  0  0  0  0  0  0  0  0  0  0
   -0.9007   11.4890   -3.4701 H   0  0  0  0  0  0  0  0  0  0  0  0
   -2.0226   12.2788   -3.8592 H   0  0  0  0  0  0  0  0  0  0  0  0
  1 50  1  0  0  0  0
  1 51  1  0  0  0  0
  2 52  1  0  0  0  0
  2 53  1  0  0  0  0
  2 54  1  0  0  0  0
  3 55  1  0  0  0  0
  3 56  1  0  0  0  0
  3 57  1  0  0  0  0
  4 58  1  0  0  0  0
  4 59  1  0  0  0  0
  4 60  1  0  0  0  0
  5 61  1  0  0  0  0
  5 62  1  0  0  0  0
  5 63  1  0  0  0  0
  6  1  2  0  0  0  0
  6 64  1  0  0  0  0
  7 65  1  0  0  0  0
  7 66  1  0  0  0  0
  8 67  1  0  0  0  0
  8 68  1  0  0  0  0
  9  7  1  0  0  0  0
  9 69  1  0  0  0  0
  9 70  1  0  0  0  0
 10  8  1  0  0  0  0
 10 71  1  0  0  0  0
 10 72  1  0  0  0  0
 16  2  1  0  0  0  0
 17  3  1  0  0  0  0
 18  4  1  0  0  0  0
 19  5  1  0  0  0  0
 20 16  1  0  0  0  0
 20 49  1  1  0  0  0
 20  6  1  0  0  0  0
 21  7  1  0  0  0  0
 21 17  2  0  0  0  0
 22  8  1  0  0  0  0
 22 18  1  0  0  0  0
 23 15  2  0  0  0  0
 23 19  1  0  0  0  0
 24 11  2  0  0  0  0
 24 17  1  0  0  0  0
 25 11  1  0  0  0  0
 25 19  2  0  0  0  0
 26 13  1  0  0  0  0
 26 16  2  0  0  0  0
 27 12  1  0  0  0  0
 27 18  2  0  0  0  0
 28 12  2  0  0  0  0
 28 20  1  0  0  0  0
 29 14  2  0  0  0  0
 29 21  1  0  0  0  0
 30 14  1  0  0  0  0
 30 22  2  0  0  0  0
 31 13  2  0  0  0  0
 31 23  1  0  0  0  0
 32  9  1  0  0  0  0
 33 10  1  0  0  0  0
 34 26  1  0  0  0  0
 34 28  1  0  0  0  0
 35 24  1  0  0  0  0
 35 29  1  0  0  0  0
 36 27  1  0  0  0  0
 36 30  1  0  0  0  0
 37 25  1  0  0  0  0
 37 31  1  0  0  0  0
 38 15  1  0  0  0  0
 38 73  1  0  0  0  0
 39 32  2  0  0  0  0
 40 32  1  0  0  0  0
 40 74  1  0  0  0  0
 41 33  2  0  0  0  0
 42 33  1  0  0  0  0
 42 75  1  0  0  0  0
 44 11  1  0  0  0  0
 45 12  1  0  0  0  0
 46 13  1  0  0  0  0
 47 14  1  0  0  0  0
 48 15  1  0  0  0  0
M  CHG  5  34  -1  35  -1  36  -1  37  -1  43   4
M  END
>  <DRUGBANK_ID>
DB03224

>  <SECONDARY_ACCESSION_NUMBERS>
EXPT01735

>  <COMMON_NAME>
2-Formyl-Protoporphryn Ix

$$$$
