
 OpenBabel10282417103D

 26 26  0  0  0  0  0  0  0  0999 V2000
   -1.4206    0.3503   -0.1744 C   0  0  0  0  0  0  0  0  0  0  0  0
   -0.9939   -1.0719    0.2078 C   0  0  0  0  0  0  0  0  0  0  0  0
    1.4221   -0.3287    0.2269 C   0  0  0  0  0  0  0  0  0  0  0  0
    0.9981    1.0911   -0.1623 C   0  0  0  0  0  0  0  0  0  0  0  0
   -0.4210    1.4111    0.3250 C   0  0  2  0  0  0  0  0  0  0  0  0
    0.4263   -1.3893   -0.2773 C   0  0  2  0  0  0  0  0  0  0  0  0
    0.2005    2.5728    2.3553 O   0  0  0  0  0  0  0  0  0  0  0  0
   -0.4729    1.5198    1.8479 C   0  0  0  0  0  0  0  0  0  0  0  0
   -1.0648    0.7427    2.5859 O   0  0  0  0  0  0  0  0  0  0  0  0
    0.4443   -1.4878   -1.8156 C   0  0  0  0  0  0  0  0  0  0  0  0
    1.0528   -2.7349   -2.2491 N   0  0  0  0  0  0  0  0  0  0  0  0
   -1.5067    0.4203   -1.2672 H   0  0  0  0  0  0  0  0  0  0  0  0
   -2.4231    0.5499    0.2208 H   0  0  0  0  0  0  0  0  0  0  0  0
   -1.0326   -1.2073    1.2937 H   0  0  0  0  0  0  0  0  0  0  0  0
   -1.7075   -1.7995   -0.1969 H   0  0  0  0  0  0  0  0  0  0  0  0
    1.4971   -0.3887    1.3206 H   0  0  0  0  0  0  0  0  0  0  0  0
    2.4255   -0.5391   -0.1616 H   0  0  0  0  0  0  0  0  0  0  0  0
    1.7237    1.8103    0.2322 H   0  0  0  0  0  0  0  0  0  0  0  0
    1.0358    1.2033   -1.2536 H   0  0  0  0  0  0  0  0  0  0  0  0
   -0.7341    2.3805   -0.0849 H   0  0  0  0  0  0  0  0  0  0  0  0
    0.7128   -2.3530    0.1666 H   0  0  0  0  0  0  0  0  0  0  0  0
    0.6202    3.1573    1.6999 H   0  0  0  0  0  0  0  0  0  0  0  0
   -0.5678   -1.4389   -2.2298 H   0  0  0  0  0  0  0  0  0  0  0  0
    1.0096   -0.6661   -2.2643 H   0  0  0  0  0  0  0  0  0  0  0  0
    1.0908   -2.7453   -3.2667 H   0  0  0  0  0  0  0  0  0  0  0  0
    2.0139   -2.7792   -1.9165 H   0  0  0  0  0  0  0  0  0  0  0  0
  1  2  1  0  0  0  0
  1 12  1  0  0  0  0
  1 13  1  0  0  0  0
  2  6  1  0  0  0  0
  2 14  1  0  0  0  0
  2 15  1  0  0  0  0
  3  4  1  0  0  0  0
  3 16  1  0  0  0  0
  3 17  1  0  0  0  0
  4 18  1  0  0  0  0
  4 19  1  0  0  0  0
  5  1  1  0  0  0  0
  5  4  1  0  0  0  0
  5 20  1  6  0  0  0
  5  8  1  0  0  0  0
  6  3  1  0  0  0  0
  6 21  1  1  0  0  0
  6 10  1  0  0  0  0
  7 22  1  0  0  0  0
  8  7  1  0  0  0  0
  8  9  2  0  0  0  0
 10 11  1  0  0  0  0
 10 23  1  0  0  0  0
 10 24  1  0  0  0  0
 11 25  1  0  0  0  0
 11 26  1  0  0  0  0
M  END
>  <DRUGBANK_ID>
DB00302

>  <SECONDARY_ACCESSION_NUMBERS>
APRD01270; EXPT00508

>  <COMMON_NAME>
Tranexamic acid

>  <CAS_NUMBER>
1197-18-8

>  <UNII>
6T84R30KC1

>  <SYNONYMS>
Acide tranéxamique; ácido tranexámico; Acidum tranexamicum; Tranexamic acid; Tranexamsaeure; Tranexmic acid; Tranhexamic acid; Trans AMCHA; trans-4-(Aminomethyl)cyclohexanecarboxylic acid; trans-4-aminomethylcyclohexane-1-carboxylic acid; trans-Amcha; trans-Tranexamic acid

$$$$
