MUP
 OpenBabel10282417173D

 43 42  0  0  0  0  0  0  0  0999 V2000
    1.0335    0.0092   -0.0938 C   0  0  0  0  0  0  0  0  0  0  0  0
    0.6307    1.4304    0.3276 C   0  0  0  0  0  0  0  0  0  0  0  0
    1.1355    2.5135   -0.6279 C   0  0  0  0  0  0  0  0  0  0  0  0
    0.5478    2.4730   -2.0443 C   0  0  0  0  0  0  0  0  0  0  0  0
   -0.9893    2.5002   -2.0084 C   0  0  0  0  0  0  0  0  0  0  0  0
   -1.5087    3.8616   -1.7373 C   0  0  0  0  0  0  0  0  0  0  0  0
   -1.0432    4.7957   -2.8324 C   0  0  0  0  0  0  0  0  0  0  0  0
   -1.5183    4.2783   -4.2060 C   0  0  0  0  0  0  0  0  0  0  0  0
   -3.0500    4.2099   -4.2604 C   0  0  0  0  0  0  0  0  0  0  0  0
   -3.6781    5.5464   -3.8686 C   0  0  0  0  0  0  0  0  0  0  0  0
   -3.1708    6.6573   -4.7759 C   0  0  0  0  0  0  0  0  0  0  0  0
    3.0574   -0.5889   -1.7532 C   0  0  0  0  0  0  0  0  0  0  0  0
   -0.9748    0.0338   -1.5230 O   0  0  0  0  0  0  0  0  0  0  0  0
    1.8776   -0.1041   -2.4264 O   0  0  0  0  0  0  0  0  0  0  0  0
   -0.1532   -0.8330   -3.3428 O   0  0  0  0  0  0  0  0  0  0  0  0
    0.4235   -0.4237   -1.7639 P   0  0  1  0  0  0  0  0  0  0  0  0
    0.4893   -0.6824    0.5656 H   0  0  0  0  0  0  0  0  0  0  0  0
    2.0642   -0.1243    0.2275 H   0  0  0  0  0  0  0  0  0  0  0  0
   -0.4586    1.4823    0.4462 H   0  0  0  0  0  0  0  0  0  0  0  0
    1.0161    1.6348    1.3335 H   0  0  0  0  0  0  0  0  0  0  0  0
    0.9104    3.4867   -0.2005 H   0  0  0  0  0  0  0  0  0  0  0  0
    2.2312    2.4506   -0.7018 H   0  0  0  0  0  0  0  0  0  0  0  0
    0.9873    3.2808   -2.6279 H   0  0  0  0  0  0  0  0  0  0  0  0
    0.8825    1.6656   -2.6421 H   0  0  0  0  0  0  0  0  0  0  0  0
   -1.3791    2.0458   -2.9452 H   0  0  0  0  0  0  0  0  0  0  0  0
   -1.4459    1.9221   -1.2244 H   0  0  0  0  0  0  0  0  0  0  0  0
   -2.6012    3.8095   -1.6551 H   0  0  0  0  0  0  0  0  0  0  0  0
   -1.1644    4.1893   -0.7429 H   0  0  0  0  0  0  0  0  0  0  0  0
   -1.3797    5.7961   -2.6069 H   0  0  0  0  0  0  0  0  0  0  0  0
    0.0488    4.8885   -2.8416 H   0  0  0  0  0  0  0  0  0  0  0  0
   -1.1192    4.9323   -4.9875 H   0  0  0  0  0  0  0  0  0  0  0  0
   -1.1029    3.3011   -4.4600 H   0  0  0  0  0  0  0  0  0  0  0  0
   -3.3660    3.9195   -5.2692 H   0  0  0  0  0  0  0  0  0  0  0  0
   -3.4297    3.4183   -3.5996 H   0  0  0  0  0  0  0  0  0  0  0  0
   -4.7665    5.4756   -3.9184 H   0  0  0  0  0  0  0  0  0  0  0  0
   -3.4508    5.7937   -2.8228 H   0  0  0  0  0  0  0  0  0  0  0  0
   -3.4328    6.4337   -5.8143 H   0  0  0  0  0  0  0  0  0  0  0  0
   -3.5982    7.6174   -4.4893 H   0  0  0  0  0  0  0  0  0  0  0  0
   -2.0827    6.7710   -4.7252 H   0  0  0  0  0  0  0  0  0  0  0  0
    3.4733    0.2652   -1.2055 H   0  0  0  0  0  0  0  0  0  0  0  0
    2.8460   -1.4078   -1.0434 H   0  0  0  0  0  0  0  0  0  0  0  0
    3.8342   -0.9597   -2.4225 H   0  0  0  0  0  0  0  0  0  0  0  0
   -0.9063   -1.4403   -3.2292 H   0  0  0  0  0  0  0  0  0  0  0  0
  1  2  1  0  0  0  0
  1 16  1  0  0  0  0
  1 17  1  0  0  0  0
  1 18  1  0  0  0  0
  2  3  1  0  0  0  0
  2 19  1  0  0  0  0
  2 20  1  0  0  0  0
  3  4  1  0  0  0  0
  3 21  1  0  0  0  0
  3 22  1  0  0  0  0
  4  5  1  0  0  0  0
  4 23  1  0  0  0  0
  4 24  1  0  0  0  0
  5  6  1  0  0  0  0
  5 25  1  0  0  0  0
  5 26  1  0  0  0  0
  6  7  1  0  0  0  0
  6 27  1  0  0  0  0
  6 28  1  0  0  0  0
  7  8  1  0  0  0  0
  7 29  1  0  0  0  0
  7 30  1  0  0  0  0
  8  9  1  0  0  0  0
  8 31  1  0  0  0  0
  8 32  1  0  0  0  0
  9 10  1  0  0  0  0
  9 33  1  0  0  0  0
  9 34  1  0  0  0  0
 10 11  1  0  0  0  0
 10 35  1  0  0  0  0
 10 36  1  0  0  0  0
 11 37  1  0  0  0  0
 11 38  1  0  0  0  0
 11 39  1  0  0  0  0
 12 14  1  0  0  0  0
 12 40  1  0  0  0  0
 12 41  1  0  0  0  0
 12 42  1  0  0  0  0
 15 43  1  0  0  0  0
 16 13  2  6  0  0  0
 16 14  1  0  0  0  0
 16 15  1  0  0  0  0
M  END
>  <DRUGBANK_ID>
DB08222

>  <COMMON_NAME>
METHOXYUNDECYLPHOSPHINIC ACID

$$$$
