
 OpenBabel10282417133D

 41 43  0  0  1  0  0  0  0  0999 V2000
   -2.7868   10.0732   -5.2161 C   0  0  0  0  0  0  0  0  0  0  0  0
   -0.7744    8.0463   -4.8940 C   0  0  0  0  0  0  0  0  0  0  0  0
    0.2657    7.3212   -4.3013 C   0  0  0  0  0  0  0  0  0  0  0  0
    0.6825    9.9322   -5.3525 C   0  0  0  0  0  0  0  0  0  0  0  0
    5.9644    4.2420   -2.9769 C   0  0  0  0  0  0  0  0  0  0  0  0
    3.6578    8.4808   -4.2564 C   0  0  0  0  0  0  0  0  0  0  0  0
   -0.5813    9.3409   -5.3830 C   0  0  0  0  0  0  0  0  0  0  0  0
    1.7410    9.2085   -4.7919 C   0  0  0  0  0  0  0  0  0  0  0  0
    1.5252    7.9305   -4.2766 C   0  0  0  0  0  0  0  0  0  0  0  0
    5.3392    5.6266   -3.2561 C   0  0  2  0  0  0  0  0  0  0  0  0
    5.1847    6.4624   -1.9689 C   0  0  2  0  0  0  0  0  0  0  0  0
    3.6779    6.4504   -1.7331 C   0  0  2  0  0  0  0  0  0  0  0  0
    3.0773    6.2963   -3.1334 C   0  0  1  0  0  0  0  0  0  0  0  0
    3.0607    9.5573   -4.6901 N   0  0  0  0  0  0  0  0  0  0  0  0
    2.7721    7.5203   -3.8526 N   0  0  0  0  0  0  0  0  0  0  0  0
    5.7438    7.7584   -2.1649 O   0  0  0  0  0  0  0  0  0  0  0  0
    3.1953    7.5060   -0.9258 O   0  0  0  0  0  0  0  0  0  0  0  0
    3.4594    1.8445   -4.0450 O   0  0  0  0  0  0  0  0  0  0  0  0
    4.4370    1.9011   -1.7856 O   0  0  0  0  0  0  0  0  0  0  0  0
    2.2936    2.7186   -2.2037 O   0  0  0  0  0  0  0  0  0  0  0  0
   -1.5809   10.0656   -5.9778 O   0  0  0  0  0  0  0  0  0  0  0  0
    5.2600    3.1304   -3.5373 O   0  0  0  0  0  0  0  0  0  0  0  0
    4.0349    5.5110   -3.8765 O   0  0  0  0  0  0  0  0  0  0  0  0
    3.6946    2.9131   -2.8336 P   0  0  0  0  0  0  0  0  0  0  0  0
    5.9820    6.1552   -3.9721 H   0  0  0  0  0  0  0  0  0  0  0  0
    5.7234    6.0403   -1.1157 H   0  0  0  0  0  0  0  0  0  0  0  0
    3.4589    5.5187   -1.1912 H   0  0  0  0  0  0  0  0  0  0  0  0
    2.1558    5.7075   -3.0814 H   0  0  0  0  0  0  0  0  0  0  0  0
   -3.5208   10.6809   -5.7521 H   0  0  0  0  0  0  0  0  0  0  0  0
   -2.6161   10.5246   -4.2327 H   0  0  0  0  0  0  0  0  0  0  0  0
   -3.2160    9.0730   -5.1089 H   0  0  0  0  0  0  0  0  0  0  0  0
   -1.7403    7.5593   -4.9946 H   0  0  0  0  0  0  0  0  0  0  0  0
    0.0895    6.3172   -3.9321 H   0  0  0  0  0  0  0  0  0  0  0  0
    0.8598   10.9159   -5.7727 H   0  0  0  0  0  0  0  0  0  0  0  0
    6.9802    4.2260   -3.3869 H   0  0  0  0  0  0  0  0  0  0  0  0
    6.0771    4.0693   -1.9025 H   0  0  0  0  0  0  0  0  0  0  0  0
    4.7332    8.3642   -4.2177 H   0  0  0  0  0  0  0  0  0  0  0  0
    5.0581    8.4453   -2.1334 H   0  0  0  0  0  0  0  0  0  0  0  0
    3.1943    8.3497   -1.4097 H   0  0  0  0  0  0  0  0  0  0  0  0
    2.9441    2.2484   -4.7637 H   0  0  0  0  0  0  0  0  0  0  0  0
    5.4011    1.9959   -1.7822 H   0  0  0  0  0  0  0  0  0  0  0  0
  1 29  1  0  0  0  0
  1 30  1  0  0  0  0
  1 31  1  0  0  0  0
  2 32  1  0  0  0  0
  3  2  2  0  0  0  0
  3 33  1  0  0  0  0
  4 34  1  0  0  0  0
  5 35  1  0  0  0  0
  5 36  1  0  0  0  0
  6 37  1  0  0  0  0
  7  2  1  0  0  0  0
  7  4  2  0  0  0  0
  8  4  1  0  0  0  0
  9  3  1  0  0  0  0
  9  8  2  0  0  0  0
 10 25  1  6  0  0  0
 10  5  1  0  0  0  0
 11 10  1  0  0  0  0
 11 16  1  0  0  0  0
 11 26  1  1  0  0  0
 12 11  1  0  0  0  0
 12 17  1  0  0  0  0
 12 27  1  1  0  0  0
 13 12  1  0  0  0  0
 13 28  1  1  0  0  0
 13 15  1  0  0  0  0
 14  6  2  0  0  0  0
 14  8  1  0  0  0  0
 15  6  1  0  0  0  0
 15  9  1  0  0  0  0
 16 38  1  0  0  0  0
 17 39  1  0  0  0  0
 18 40  1  0  0  0  0
 19 41  1  0  0  0  0
 21  1  1  0  0  0  0
 21  7  1  0  0  0  0
 22  5  1  0  0  0  0
 23 10  1  0  0  0  0
 23 13  1  0  0  0  0
 24 18  1  0  0  0  0
 24 19  1  0  0  0  0
 24 20  2  0  0  0  0
 24 22  1  0  0  0  0
M  END
>  <DRUGBANK_ID>
DB04176

>  <SECONDARY_ACCESSION_NUMBERS>
EXPT02620

>  <COMMON_NAME>
Phosporic Acid Mono-[3,4-Dihydroxy-5-(5-Methoxy-Benzoimidazol-1-Yl)-Tetrahydro-Furan-2-Ylmethyl] Ester

$$$$
