
 OpenBabel10282417143D

 57 59  0  0  0  0  0  0  0  0999 V2000
    1.2459   -0.2284    0.3097 O   0  0  0  0  0  0  0  0  0  0  0  0
    1.2380    1.2328    2.0249 O   0  0  0  0  0  0  0  0  0  0  0  0
   -2.2818    2.3406   -5.1623 O   0  0  0  0  0  0  0  0  0  0  0  0
   -2.9863    6.5741   -1.8291 O   0  0  0  0  0  0  0  0  0  0  0  0
   -3.8830    2.3695   -2.5770 O   0  0  0  0  0  0  0  0  0  0  0  0
   -3.5344    6.7220   -3.9822 O   0  0  0  0  0  0  0  0  0  0  0  0
   -0.2825    9.1884   -4.7168 O   0  0  0  0  0  0  0  0  0  0  0  0
   -1.9785    7.9530   -5.4591 O   0  0  0  0  0  0  0  0  0  0  0  0
   -1.7539    4.3773   -4.3899 N   0  0  0  0  0  0  0  0  0  0  0  0
   -6.4382    2.9046    0.3630 N   0  0  0  0  0  0  0  0  0  0  0  0
   -5.5185    3.5637   -1.7543 N   0  0  0  0  0  0  0  0  0  0  0  0
   -7.4623    4.3005   -1.1855 N   0  0  0  0  0  0  0  0  0  0  0  0
   -0.8442    0.6189    0.9662 C   0  0  2  0  0  0  0  0  0  0  0  0
   -1.8651   -0.5154    1.1640 C   0  0  0  0  0  0  0  0  0  0  0  0
   -0.8208    1.1345   -0.4870 C   0  0  0  0  0  0  0  0  0  0  0  0
   -3.2501    0.1494    0.9844 C   0  0  0  0  0  0  0  0  0  0  0  0
   -1.4947    5.4502   -3.4317 C   0  0  1  0  0  0  0  0  0  0  0  0
   -3.4863    1.0540   -0.0519 C   0  0  0  0  0  0  0  0  0  0  0  0
   -1.3083    0.3504   -1.6163 C   0  0  0  0  0  0  0  0  0  0  0  0
   -0.7611    2.5218   -0.5640 C   0  0  0  0  0  0  0  0  0  0  0  0
    0.6223    0.4987    1.2649 C   0  0  0  0  0  0  0  0  0  0  0  0
   -4.2846    0.1220    1.8745 C   0  0  0  0  0  0  0  0  0  0  0  0
   -4.5380    1.8440   -0.3432 C   0  0  0  0  0  0  0  0  0  0  0  0
   -0.1044    6.0347   -3.6201 C   0  0  0  0  0  0  0  0  0  0  0  0
   -1.4381    2.3519   -2.9437 C   0  0  0  0  0  0  0  0  0  0  0  0
   -5.4624    1.9523    0.6221 C   0  0  0  0  0  0  0  0  0  0  0  0
   -1.6147    0.9708   -2.8318 C   0  0  0  0  0  0  0  0  0  0  0  0
   -1.2339    3.0562   -1.7357 C   0  0  0  0  0  0  0  0  0  0  0  0
   -5.2847    1.1449    1.7744 C   0  0  0  0  0  0  0  0  0  0  0  0
   -1.8811    3.0184   -4.2156 C   0  0  0  0  0  0  0  0  0  0  0  0
    0.0585    6.8041   -4.9077 C   0  0  0  0  0  0  0  0  0  0  0  0
   -4.5942    2.6267   -1.6013 C   0  0  0  0  0  0  0  0  0  0  0  0
   -2.7510    6.3151   -3.1422 C   0  0  0  0  0  0  0  0  0  0  0  0
   -6.4223    3.5590   -0.8385 C   0  0  0  0  0  0  0  0  0  0  0  0
   -0.8370    8.0096   -5.0420 C   0  0  0  0  0  0  0  0  0  0  0  0
   -2.0497    4.6682   -5.3181 H   0  0  0  0  0  0  0  0  0  0  0  0
   -7.2735    2.8461    0.9089 H   0  0  0  0  0  0  0  0  0  0  0  0
   -8.3356    4.2740   -0.7064 H   0  0  0  0  0  0  0  0  0  0  0  0
   -7.3993    4.6216   -2.1538 H   0  0  0  0  0  0  0  0  0  0  0  0
    2.1296    0.1708    0.1845 H   0  0  0  0  0  0  0  0  0  0  0  0
   -2.9854    5.7829   -1.2602 H   0  0  0  0  0  0  0  0  0  0  0  0
    0.6748    9.2239   -4.8780 H   0  0  0  0  0  0  0  0  0  0  0  0
   -1.2051    1.4021    1.6690 H   0  0  0  0  0  0  0  0  0  0  0  0
   -1.6957   -1.3307    0.4478 H   0  0  0  0  0  0  0  0  0  0  0  0
   -1.7622   -0.9873    2.1507 H   0  0  0  0  0  0  0  0  0  0  0  0
   -1.2883    5.0480   -2.4773 H   0  0  0  0  0  0  0  0  0  0  0  0
   -2.7892    1.4311   -0.7245 H   0  0  0  0  0  0  0  0  0  0  0  0
   -1.9213   -0.5526   -1.4326 H   0  0  0  0  0  0  0  0  0  0  0  0
   -0.7743    3.1502    0.3355 H   0  0  0  0  0  0  0  0  0  0  0  0
   -4.2855   -0.6195    2.6673 H   0  0  0  0  0  0  0  0  0  0  0  0
    0.1781    6.6207   -2.7364 H   0  0  0  0  0  0  0  0  0  0  0  0
    0.6091    5.1851   -3.6330 H   0  0  0  0  0  0  0  0  0  0  0  0
   -2.3313    0.4839   -3.5141 H   0  0  0  0  0  0  0  0  0  0  0  0
   -1.8903    3.8964   -1.5070 H   0  0  0  0  0  0  0  0  0  0  0  0
   -5.9054    1.3158    2.6424 H   0  0  0  0  0  0  0  0  0  0  0  0
    1.1045    7.0936   -5.0227 H   0  0  0  0  0  0  0  0  0  0  0  0
   -0.1754    6.1350   -5.7421 H   0  0  0  0  0  0  0  0  0  0  0  0
  1 21  1  0  0  0  0
  1 40  1  0  0  0  0
  2 21  2  0  0  0  0
  3 30  2  0  0  0  0
  4 33  1  0  0  0  0
  4 41  1  0  0  0  0
  5 32  2  0  0  0  0
  6 33  2  0  0  0  0
  7 35  1  0  0  0  0
  7 42  1  0  0  0  0
  8 35  2  0  0  0  0
  9 30  1  0  0  0  0
  9 36  1  0  0  0  0
 10 26  1  0  0  0  0
 10 34  1  0  0  0  0
 10 37  1  0  0  0  0
 11 32  1  0  0  0  0
 11 34  2  0  0  0  0
 12 34  1  0  0  0  0
 12 38  1  0  0  0  0
 12 39  1  0  0  0  0
 13 21  1  0  0  0  0
 13 43  1  1  0  0  0
 13 15  1  0  0  0  0
 13 14  1  0  0  0  0
 14 16  1  0  0  0  0
 14 44  1  0  0  0  0
 14 45  1  0  0  0  0
 15 19  2  0  0  0  0
 15 20  1  0  0  0  0
 16 18  2  0  0  0  0
 16 22  1  0  0  0  0
 17  9  1  0  0  0  0
 17 24  1  0  0  0  0
 17 33  1  0  0  0  0
 17 46  1  1  0  0  0
 18 23  1  0  0  0  0
 18 47  1  0  0  0  0
 19 27  1  0  0  0  0
 19 48  1  0  0  0  0
 20 28  2  0  0  0  0
 20 49  1  0  0  0  0
 22 29  2  0  0  0  0
 22 50  1  0  0  0  0
 23 26  2  0  0  0  0
 23 32  1  0  0  0  0
 24 31  1  0  0  0  0
 24 51  1  0  0  0  0
 24 52  1  0  0  0  0
 25 27  2  0  0  0  0
 25 28  1  0  0  0  0
 25 30  1  0  0  0  0
 26 29  1  0  0  0  0
 27 53  1  0  0  0  0
 28 54  1  0  0  0  0
 29 55  1  0  0  0  0
 31 35  1  0  0  0  0
 31 56  1  0  0  0  0
 31 57  1  0  0  0  0
M  END
>  <DRUGBANK_ID>
DB04264

>  <SECONDARY_ACCESSION_NUMBERS>
EXPT02347

>  <COMMON_NAME>
(10R)-10-formyl-5,8,10-trideazafolic acid

$$$$
