
 OpenBabel10282417143D

 18 17  0  0  0  0  0  0  0  0999 V2000
    0.9108   -0.0104   -0.0352 O   0  0  0  0  0  0  0  0  0  0  0  0
    3.7721    1.8621   -0.2815 N   0  0  0  0  0  0  0  0  0  0  0  0
    2.9794   -0.0702    2.9133 N   0  0  0  0  0  0  0  0  0  0  0  0
    4.8295    1.4097    2.4295 C   0  0  0  0  0  0  0  0  0  0  0  0
    3.8195    0.4298    1.8215 C   0  0  2  0  0  0  0  0  0  0  0  0
    2.9696    1.0916    0.6960 C   0  0  2  0  0  0  0  0  0  0  0  0
    2.1362    0.0335   -0.0520 C   0  0  0  0  0  0  0  0  0  0  0  0
    2.8598   -0.8904   -0.7331 O   0  0  0  0  0  0  0  0  0  0  0  0
    4.4909    1.2985   -0.7201 H   0  0  0  0  0  0  0  0  0  0  0  0
    4.2545    2.6149    0.2129 H   0  0  0  0  0  0  0  0  0  0  0  0
    3.5382   -0.5687    3.6046 H   0  0  0  0  0  0  0  0  0  0  0  0
    2.2792   -0.7312    2.5701 H   0  0  0  0  0  0  0  0  0  0  0  0
    4.3275    2.2877    2.8517 H   0  0  0  0  0  0  0  0  0  0  0  0
    5.4169    0.9336    3.2215 H   0  0  0  0  0  0  0  0  0  0  0  0
    5.5481    1.7584    1.6800 H   0  0  0  0  0  0  0  0  0  0  0  0
    4.3793   -0.4177    1.4084 H   0  0  0  0  0  0  0  0  0  0  0  0
    2.2566    1.7909    1.1538 H   0  0  0  0  0  0  0  0  0  0  0  0
    3.8223   -0.7565   -0.6993 H   0  0  0  0  0  0  0  0  0  0  0  0
  2  9  1  0  0  0  0
  2 10  1  0  0  0  0
  3 11  1  0  0  0  0
  3 12  1  0  0  0  0
  4 13  1  0  0  0  0
  4 14  1  0  0  0  0
  4 15  1  0  0  0  0
  5 16  1  6  0  0  0
  5  4  1  0  0  0  0
  5  3  1  0  0  0  0
  6  7  1  0  0  0  0
  6 17  1  1  0  0  0
  6  5  1  0  0  0  0
  6  2  1  0  0  0  0
  7  1  2  0  0  0  0
  7  8  1  0  0  0  0
  8 18  1  0  0  0  0
M  END
>  <DRUGBANK_ID>
DB04802

>  <COMMON_NAME>
D-Erythro-2,3-diaminobutyric acid

>  <CAS_NUMBER>
25023-78-3

>  <UNII>
60CFB2VK6V

>  <SYNONYMS>
(2R,3R)-2,3-Diaminobutanoic acid

$$$$
