
 OpenBabel10282417193D

 39 41  0  0  0  0  0  0  0  0999 V2000
    3.2460    0.6010   -0.0270 C   0  0  0  0  0  0  0  0  0  0  0  0
    1.8200    0.1580    0.0110 C   0  0  0  0  0  0  0  0  0  0  0  0
    1.5240   -1.2230    0.0050 C   0  0  0  0  0  0  0  0  0  0  0  0
    0.2440   -1.6750   -0.0040 C   0  0  0  0  0  0  0  0  0  0  0  0
   -0.7130   -0.6880    0.0080 N   0  0  0  0  0  0  0  0  0  0  0  0
   -0.3920    0.6460    0.0120 C   0  0  0  0  0  0  0  0  0  0  0  0
    0.8800    1.0880    0.0170 N   0  0  0  0  0  0  0  0  0  0  0  0
   -1.5140    1.3680   -0.0030 N   0  0  0  0  0  0  0  0  0  0  0  0
   -2.4560    0.4220   -0.0180 C   0  0  0  0  0  0  0  0  0  0  0  0
   -2.0720   -0.8500   -0.0030 N   0  0  0  0  0  0  0  0  0  0  0  0
   -3.9302    0.7907   -0.0514 C   0  0  0  0  0  0  0  0  0  0  0  0
   -4.5690    0.2118   -1.3033 C   0  0  0  0  0  0  0  0  0  0  0  0
   -4.5355    0.2958    1.0246 F   0  0  0  0  0  0  0  0  0  0  0  0
   -4.0560    2.1147   -0.0612 F   0  0  0  0  0  0  0  0  0  0  0  0
   -0.0921   -3.1059   -0.0249 N   0  0  0  0  0  0  0  0  0  0  0  0
   -1.4995   -3.5303   -0.0338 C   0  0  0  0  0  0  0  0  0  0  0  0
   -2.2899   -3.1515   -1.0312 C   0  0  0  0  0  0  0  0  0  0  0  0
   -3.5621   -3.6577   -1.1465 C   0  0  0  0  0  0  0  0  0  0  0  0
   -4.0769   -4.4898   -0.1915 C   0  0  0  0  0  0  0  0  0  0  0  0
   -3.2389   -4.9018    0.7423 C   0  0  0  0  0  0  0  0  0  0  0  0
   -1.9756   -4.3191    1.0005 C   0  0  0  0  0  0  0  0  0  0  0  0
   -5.8136   -4.9994   -0.2064 S   0  0  0  0  0  0  0  0  0  0  0  0
   -5.8910   -5.0024    1.3778 F   0  0  0  0  0  0  0  0  0  0  0  0
   -5.3447   -6.5009   -0.1179 F   0  0  0  0  0  0  0  0  0  0  0  0
   -7.3056   -5.4370   -0.2190 F   0  0  0  0  0  0  0  0  0  0  0  0
   -6.2660   -3.4871   -0.1531 F   0  0  0  0  0  0  0  0  0  0  0  0
   -4.3070   -4.5380   -0.0801 F   0  0  0  0  0  0  0  0  0  0  0  0
    3.4177    1.1748   -0.9137 H   0  0  0  0  0  0  0  0  0  0  0  0
    3.4558    1.2020    0.8330 H   0  0  0  0  0  0  0  0  0  0  0  0
    3.8860   -0.2565   -0.0276 H   0  0  0  0  0  0  0  0  0  0  0  0
    2.3275   -1.9295    0.0076 H   0  0  0  0  0  0  0  0  0  0  0  0
   -4.4679   -0.8534   -1.2954 H   0  0  0  0  0  0  0  0  0  0  0  0
   -5.6068    0.4713   -1.3268 H   0  0  0  0  0  0  0  0  0  0  0  0
   -4.0821    0.6099   -2.1689 H   0  0  0  0  0  0  0  0  0  0  0  0
    0.6512   -3.8043   -0.0333 H   0  0  0  0  0  0  0  0  0  0  0  0
   -1.9329   -2.4456   -1.7518 H   0  0  0  0  0  0  0  0  0  0  0  0
   -4.1584   -3.3969   -1.9957 H   0  0  0  0  0  0  0  0  0  0  0  0
   -3.5358   -5.7341    1.3456 H   0  0  0  0  0  0  0  0  0  0  0  0
   -1.4369   -4.4737    1.9120 H   0  0  0  0  0  0  0  0  0  0  0  0
  1  2  1  0  0  0  0
  1 28  1  0  0  0  0
  1 29  1  0  0  0  0
  1 30  1  0  0  0  0
  2  3  1  0  0  0  0
  2  7  2  0  0  0  0
  3  4  2  0  0  0  0
  3 31  1  0  0  0  0
  4  5  1  0  0  0  0
  4 15  1  0  0  0  0
  5  6  1  0  0  0  0
  5 10  1  0  0  0  0
  6  7  1  0  0  0  0
  6  8  2  0  0  0  0
  8  9  1  0  0  0  0
  9 10  2  0  0  0  0
  9 11  1  0  0  0  0
 11 12  1  0  0  0  0
 11 13  1  0  0  0  0
 11 14  1  0  0  0  0
 12 32  1  0  0  0  0
 12 33  1  0  0  0  0
 12 34  1  0  0  0  0
 15 16  1  0  0  0  0
 15 35  1  0  0  0  0
 16 17  2  0  0  0  0
 16 21  1  0  0  0  0
 17 18  1  0  0  0  0
 17 36  1  0  0  0  0
 18 19  2  0  0  0  0
 18 37  1  0  0  0  0
 19 20  1  0  0  0  0
 19 22  1  0  0  0  0
 20 21  2  0  0  0  0
 20 38  1  0  0  0  0
 21 39  1  0  0  0  0
 22 23  1  0  0  0  0
 22 24  1  0  0  0  0
 22 25  1  0  0  0  0
 22 26  1  0  0  0  0
 22 27  1  0  0  0  0
M  END
>  <DRUGBANK_ID>
DB12397

>  <COMMON_NAME>
DSM-265

>  <CAS_NUMBER>
1282041-94-4

>  <UNII>
0Q42P4YI6B

>  <SYNONYMS>
2-(1,1-difluoroethyl)-5-methyl-N-[4-(pentafluoro-lambda6-sulfanyl)phenyl]-[1,2,4]triazolo[1,5-a]pyrimidin-7-amine; 2-(1,1-Difluoroethyl)-5-methyl-N-[4-(pentafluoro-Î»6-sulfanyl)phenyl][1,2,4]triazolo[1,5-a]pyrimidin-7-amine; Sulfur, (4-((2-(1,1-difluoroethyl)-5-methyl(1,2,4)triazolo(1,5-a)pyrimidin-7-yl)amino)phenyl)pentafluoro-, (oc-6-21)-

$$$$
