
 OpenBabel10282417213D

 27 27  0  0  0  0  0  0  0  0999 V2000
    0.8900   -0.0729   -0.0294 C   0  0  0  0  0  0  0  0  0  0  0  0
    0.3129   -0.2410    1.3528 C   0  0  0  0  0  0  0  0  0  0  0  0
   -0.2621    0.6611    1.9519 O   0  0  0  0  0  0  0  0  0  0  0  0
    0.5292   -1.5391    1.8332 O   0  0  0  0  0  0  0  0  0  0  0  0
    0.2169   -1.8037    3.1866 C   0  0  0  0  0  0  0  0  0  0  0  0
   -1.1165   -1.5984    3.5535 C   0  0  0  0  0  0  0  0  0  0  0  0
   -1.5787   -2.0032    4.7942 C   0  0  0  0  0  0  0  0  0  0  0  0
   -0.7228   -2.6818    5.6564 C   0  0  0  0  0  0  0  0  0  0  0  0
    0.6204   -2.9458    5.2956 C   0  0  0  0  0  0  0  0  0  0  0  0
    1.3948   -3.8842    6.1678 C   0  0  0  0  0  0  0  0  0  0  0  0
    2.5289   -4.2937    5.9850 O   0  0  0  0  0  0  0  0  0  0  0  0
    0.6600   -4.3592    7.2011 O   0  0  0  0  0  0  0  0  0  0  0  0
    1.1277   -2.4241    4.0716 C   0  0  0  0  0  0  0  0  0  0  0  0
    2.5452   -2.5219    3.8114 O   0  0  0  0  0  0  0  0  0  0  0  0
    3.2503   -1.8212    2.8261 C   0  0  0  0  0  0  0  0  0  0  0  0
    2.7903   -1.0534    1.9895 O   0  0  0  0  0  0  0  0  0  0  0  0
    4.7263   -2.0038    2.8487 C   0  0  0  0  0  0  0  0  0  0  0  0
    0.5667    0.8977   -0.4190 H   0  0  0  0  0  0  0  0  0  0  0  0
    0.5280   -0.8492   -0.7061 H   0  0  0  0  0  0  0  0  0  0  0  0
    1.9821   -0.0631   -0.0107 H   0  0  0  0  0  0  0  0  0  0  0  0
   -1.7996   -1.1147    2.8614 H   0  0  0  0  0  0  0  0  0  0  0  0
   -2.6188   -1.8324    5.0582 H   0  0  0  0  0  0  0  0  0  0  0  0
   -1.1342   -3.0264    6.6050 H   0  0  0  0  0  0  0  0  0  0  0  0
    1.2204   -5.0269    7.6512 H   0  0  0  0  0  0  0  0  0  0  0  0
    5.1667   -1.4521    3.6796 H   0  0  0  0  0  0  0  0  0  0  0  0
    5.0134   -3.0521    2.8182 H   0  0  0  0  0  0  0  0  0  0  0  0
    5.0994   -1.5409    1.9210 H   0  0  0  0  0  0  0  0  0  0  0  0
  1  2  1  0  0  0  0
  1 18  1  0  0  0  0
  1 19  1  0  0  0  0
  1 20  1  0  0  0  0
  2  3  2  0  0  0  0
  2  4  1  0  0  0  0
  4  5  1  0  0  0  0
  5  6  2  0  0  0  0
  5 13  1  0  0  0  0
  6  7  1  0  0  0  0
  6 21  1  0  0  0  0
  7  8  2  0  0  0  0
  7 22  1  0  0  0  0
  8  9  1  0  0  0  0
  8 23  1  0  0  0  0
  9 10  1  0  0  0  0
  9 13  2  0  0  0  0
 10 11  2  0  0  0  0
 10 12  1  0  0  0  0
 12 24  1  0  0  0  0
 13 14  1  0  0  0  0
 14 15  1  0  0  0  0
 15 16  2  0  0  0  0
 15 17  1  0  0  0  0
 17 25  1  0  0  0  0
 17 26  1  0  0  0  0
 17 27  1  0  0  0  0
M  END
>  <DRUGBANK_ID>
DB13839

>  <COMMON_NAME>
Dipyrocetyl

>  <CAS_NUMBER>
486-79-3

>  <UNII>
EF5UVE254C

>  <SYNONYMS>
Dipyrocetyl

$$$$
