
 OpenBabel10282417203D

 36 36  0  0  0  0  0  0  0  0999 V2000
   -2.0283   -0.7712    0.0112 C   0  0  0  0  0  0  0  0  0  0  0  0
   -1.1574   -1.8469   -0.0014 C   0  0  0  0  0  0  0  0  0  0  0  0
    0.1970   -1.6080   -0.0141 C   0  0  0  0  0  0  0  0  0  0  0  0
    0.7165   -0.3095   -0.0087 C   0  0  0  0  0  0  0  0  0  0  0  0
   -0.1439    0.8276    0.0178 C   0  0  0  0  0  0  0  0  0  0  0  0
   -1.5558    0.5645    0.0133 C   0  0  0  0  0  0  0  0  0  0  0  0
    0.2702    2.2066    0.0504 N   0  0  0  0  0  0  0  0  0  0  0  0
    1.5635    2.6972    0.0405 C   0  0  0  0  0  0  0  0  0  0  0  0
    1.7423    4.1946    0.1183 C   0  0  0  0  0  0  0  0  0  0  0  0
    2.6239    4.4699    1.2632 N   0  0  0  0  0  0  0  0  0  0  0  0
    3.0280    5.8579    1.3407 C   0  0  0  0  0  0  0  0  0  0  0  0
    1.8134    6.7736    1.4849 C   0  0  0  0  0  0  0  0  0  0  0  0
    0.9561    6.4210    2.7064 C   0  0  0  0  0  0  0  0  0  0  0  0
    1.7364    6.6200    3.9949 C   0  0  0  0  0  0  0  0  0  0  0  0
   -2.6334    1.6285   -0.0248 C   0  0  0  0  0  0  0  0  0  0  0  0
    2.4414   -0.4328   -0.0603 Cl  0  0  0  0  0  0  0  0  0  0  0  0
    2.6089    2.0574   -0.0070 O   0  0  0  0  0  0  0  0  0  0  0  0
   -3.0947   -0.9913    0.0106 H   0  0  0  0  0  0  0  0  0  0  0  0
   -1.5093   -2.8723   -0.0134 H   0  0  0  0  0  0  0  0  0  0  0  0
    0.8837   -2.4521   -0.0350 H   0  0  0  0  0  0  0  0  0  0  0  0
   -0.4725    2.8962    0.0943 H   0  0  0  0  0  0  0  0  0  0  0  0
    2.2586    4.4856   -0.8048 H   0  0  0  0  0  0  0  0  0  0  0  0
    0.7778    4.7028    0.1653 H   0  0  0  0  0  0  0  0  0  0  0  0
    2.2184    4.1267    2.1321 H   0  0  0  0  0  0  0  0  0  0  0  0
    3.7128    5.9800    2.1882 H   0  0  0  0  0  0  0  0  0  0  0  0
    3.6175    6.1209    0.4557 H   0  0  0  0  0  0  0  0  0  0  0  0
    2.1503    7.8126    1.5432 H   0  0  0  0  0  0  0  0  0  0  0  0
    1.1944    6.7188    0.5814 H   0  0  0  0  0  0  0  0  0  0  0  0
    0.0604    7.0494    2.7091 H   0  0  0  0  0  0  0  0  0  0  0  0
    0.5933    5.3862    2.6575 H   0  0  0  0  0  0  0  0  0  0  0  0
    2.0812    7.6556    4.0661 H   0  0  0  0  0  0  0  0  0  0  0  0
    1.1132    6.3924    4.8621 H   0  0  0  0  0  0  0  0  0  0  0  0
    2.6128    5.9660    4.0461 H   0  0  0  0  0  0  0  0  0  0  0  0
   -2.5864    2.2763    0.8547 H   0  0  0  0  0  0  0  0  0  0  0  0
   -2.5561    2.2239   -0.9395 H   0  0  0  0  0  0  0  0  0  0  0  0
   -3.6396    1.1830   -0.0309 H   0  0  0  0  0  0  0  0  0  0  0  0
  1  2  2  0  0  0  0
  1  6  1  0  0  0  0
  1 18  1  0  0  0  0
  2  3  1  0  0  0  0
  2 19  1  0  0  0  0
  3  4  2  0  0  0  0
  3 20  1  0  0  0  0
  4  5  1  0  0  0  0
  4 16  1  0  0  0  0
  5  6  2  0  0  0  0
  5  7  1  0  0  0  0
  6 15  1  0  0  0  0
  7  8  1  0  0  0  0
  7 21  1  0  0  0  0
  8  9  1  0  0  0  0
  8 17  2  0  0  0  0
  9 10  1  0  0  0  0
  9 22  1  0  0  0  0
  9 23  1  0  0  0  0
 10 11  1  0  0  0  0
 10 24  1  0  0  0  0
 11 12  1  0  0  0  0
 11 25  1  0  0  0  0
 11 26  1  0  0  0  0
 12 13  1  0  0  0  0
 12 27  1  0  0  0  0
 12 28  1  0  0  0  0
 13 14  1  0  0  0  0
 13 29  1  0  0  0  0
 13 30  1  0  0  0  0
 14 31  1  0  0  0  0
 14 32  1  0  0  0  0
 14 33  1  0  0  0  0
 15 34  1  0  0  0  0
 15 35  1  0  0  0  0
 15 36  1  0  0  0  0
M  END
>  <DRUGBANK_ID>
DB13328

>  <COMMON_NAME>
Butanilicaine

>  <CAS_NUMBER>
3785-21-5

>  <UNII>
7X3WV51F4N

>  <SYNONYMS>
2-(Butylamino)-6'-chloro-o-acetoluidide; 2-(Butylamino)-N-(2-chloro-6-methylphenyl)acetamide; 2-Butylamino-6'-chloro-o-acetotoluidide; Butacetoluide; Butanilicaina; Butanilicaine; Butanilicainum

$$$$
