
 OpenBabel10282417203D

 48 50  0  0  0  0  0  0  0  0999 V2000
   -0.8328    0.4191    0.7227 N   0  0  0  0  0  0  0  0  0  0  0  0
   -0.4996   -1.0142    0.5911 C   0  0  1  0  0  0  0  0  0  0  0  0
   -2.0133    0.2734    0.0204 C   0  0  0  0  0  0  0  0  0  0  0  0
   -1.9213   -1.2746    0.0449 C   0  0  1  0  0  0  0  0  0  0  0  0
    0.2030    1.3797    0.2569 C   0  0  2  0  0  0  0  0  0  0  0  0
    0.8730   -0.9684   -0.5994 S   0  0  0  0  0  0  0  0  0  0  0  0
    1.5243    0.6008    0.0385 C   0  0  0  0  0  0  0  0  0  0  0  0
   -2.0424   -2.0171   -1.2575 N   0  0  0  0  0  0  0  0  0  0  0  0
   -2.2777   -3.3848   -1.2582 C   0  0  0  0  0  0  0  0  0  0  0  0
    0.3129    2.6203    1.1468 C   0  0  0  0  0  0  0  0  0  0  0  0
   -2.7208    1.0823   -0.5236 O   0  0  0  0  0  0  0  0  0  0  0  0
   -2.1710   -4.0910   -2.6338 C   0  0  3  0  0  0  0  0  0  0  0  0
   -1.1821   -5.1223   -2.7873 O   0  0  0  0  0  0  0  0  0  0  0  0
   -2.4942   -3.9988   -0.2133 O   0  0  0  0  0  0  0  0  0  0  0  0
   -0.3716    3.6271    1.0613 O   0  0  0  0  0  0  0  0  0  0  0  0
    1.2266    2.5248    2.1312 O   0  0  0  0  0  0  0  0  0  0  0  0
    2.4190    1.1361   -1.0809 C   0  0  0  0  0  0  0  0  0  0  0  0
    2.3707    0.3173    1.2911 C   0  0  0  0  0  0  0  0  0  0  0  0
    0.1267   -4.8122   -2.5303 C   0  0  0  0  0  0  0  0  0  0  0  0
   -3.5525   -4.7449   -2.8737 C   0  0  0  0  0  0  0  0  0  0  0  0
    0.5564   -4.0706   -1.4416 C   0  0  0  0  0  0  0  0  0  0  0  0
    1.1106   -5.4062   -3.3189 C   0  0  0  0  0  0  0  0  0  0  0  0
   -4.6792   -3.7163   -2.8666 C   0  0  0  0  0  0  0  0  0  0  0  0
    1.9094   -3.8432   -1.1831 C   0  0  0  0  0  0  0  0  0  0  0  0
    2.4756   -5.2092   -3.0372 C   0  0  0  0  0  0  0  0  0  0  0  0
    2.8756   -4.3743   -2.0032 C   0  0  0  0  0  0  0  0  0  0  0  0
   -0.2790   -1.5021    1.5458 H   0  0  0  0  0  0  0  0  0  0  0  0
   -2.5999   -1.7083    0.7901 H   0  0  0  0  0  0  0  0  0  0  0  0
   -0.1236    1.7585   -0.7252 H   0  0  0  0  0  0  0  0  0  0  0  0
   -1.7874   -1.5572   -2.1264 H   0  0  0  0  0  0  0  0  0  0  0  0
   -2.0007   -3.3526   -3.4271 H   0  0  0  0  0  0  0  0  0  0  0  0
    1.2694    3.3825    2.5993 H   0  0  0  0  0  0  0  0  0  0  0  0
    2.7998    2.1315   -0.8407 H   0  0  0  0  0  0  0  0  0  0  0  0
    3.2894    0.4813   -1.2362 H   0  0  0  0  0  0  0  0  0  0  0  0
    1.8912    1.2005   -2.0404 H   0  0  0  0  0  0  0  0  0  0  0  0
    3.1476   -0.4366    1.1297 H   0  0  0  0  0  0  0  0  0  0  0  0
    2.9238    1.2146    1.5933 H   0  0  0  0  0  0  0  0  0  0  0  0
    1.7541   -0.0035    2.1393 H   0  0  0  0  0  0  0  0  0  0  0  0
   -3.5559   -5.2879   -3.8269 H   0  0  0  0  0  0  0  0  0  0  0  0
   -3.7497   -5.5031   -2.1028 H   0  0  0  0  0  0  0  0  0  0  0  0
   -0.1207   -3.6587   -0.7162 H   0  0  0  0  0  0  0  0  0  0  0  0
    0.8293   -6.0419   -4.1526 H   0  0  0  0  0  0  0  0  0  0  0  0
   -4.5183   -2.9683   -3.6486 H   0  0  0  0  0  0  0  0  0  0  0  0
   -5.6472   -4.1958   -3.0348 H   0  0  0  0  0  0  0  0  0  0  0  0
   -4.7419   -3.1937   -1.9062 H   0  0  0  0  0  0  0  0  0  0  0  0
    2.2017   -3.2452   -0.3253 H   0  0  0  0  0  0  0  0  0  0  0  0
    3.2368   -5.7305   -3.6073 H   0  0  0  0  0  0  0  0  0  0  0  0
    3.9187   -4.1572   -1.7998 H   0  0  0  0  0  0  0  0  0  0  0  0
  2  1  1  0  0  0  0
  2  4  1  0  0  0  0
  2 27  1  1  0  0  0
  3  1  1  0  0  0  0
  4  3  1  0  0  0  0
  4 28  1  1  0  0  0
  4  8  1  0  0  0  0
  5  1  1  0  0  0  0
  5 29  1  6  0  0  0
  5 10  1  0  0  0  0
  6  2  1  0  0  0  0
  6  7  1  0  0  0  0
  7  5  1  0  0  0  0
  8 30  1  0  0  0  0
  9  8  1  0  0  0  0
 11  3  2  0  0  0  0
 12  9  1  0  0  0  0
 12 31  1  0  0  0  0
 13 12  1  0  0  0  0
 14  9  2  0  0  0  0
 15 10  2  0  0  0  0
 16 10  1  0  0  0  0
 16 32  1  0  0  0  0
 17  7  1  0  0  0  0
 17 33  1  0  0  0  0
 17 34  1  0  0  0  0
 17 35  1  0  0  0  0
 18  7  1  0  0  0  0
 18 36  1  0  0  0  0
 18 37  1  0  0  0  0
 18 38  1  0  0  0  0
 19 13  1  0  0  0  0
 20 12  1  0  0  0  0
 20 39  1  0  0  0  0
 20 40  1  0  0  0  0
 21 19  1  0  0  0  0
 21 41  1  0  0  0  0
 22 19  2  0  0  0  0
 22 42  1  0  0  0  0
 23 20  1  0  0  0  0
 23 43  1  0  0  0  0
 23 44  1  0  0  0  0
 23 45  1  0  0  0  0
 24 21  2  0  0  0  0
 24 26  1  0  0  0  0
 24 46  1  0  0  0  0
 25 22  1  0  0  0  0
 25 47  1  0  0  0  0
 26 25  2  0  0  0  0
 26 48  1  0  0  0  0
M  END
>  <DRUGBANK_ID>
DB13660

>  <COMMON_NAME>
Propicillin

>  <CAS_NUMBER>
551-27-9

>  <UNII>
8X1R260V33

>  <SYNONYMS>
propicilina; Propicillin; propicilline; propicillinum

$$$$
