
 OpenBabel10282417203D

 32 31  0  0  0  0  0  0  0  0999 V2000
    2.0505    0.7640   -0.0954 C   0  0  0  0  0  0  0  0  0  0  0  0
    1.1352    1.8392   -0.6656 C   0  0  0  0  0  0  0  0  0  0  0  0
    1.2543    1.9562   -2.1591 C   0  0  0  0  0  0  0  0  0  0  0  0
    0.5509    0.8606   -2.9716 C   0  0  0  0  0  0  0  0  0  0  0  0
   -1.2876    0.7340   -2.9237 S   0  0  3  0  0  0  0  0  0  0  0  0
   -1.8106    2.1731   -3.1629 N   0  0  0  0  0  0  0  0  0  0  0  0
   -1.6124   -0.3615   -3.8185 O   0  0  0  0  0  0  0  0  0  0  0  0
   -1.9942    0.2341   -1.3081 C   0  0  0  0  0  0  0  0  0  0  0  0
   -1.6823   -1.2029   -0.8119 C   0  0  0  0  0  0  0  0  0  0  0  0
   -0.2298   -1.3621   -0.4395 C   0  0  3  0  0  0  0  0  0  0  0  0
    0.0255   -0.7323    0.9672 C   0  0  0  0  0  0  0  0  0  0  0  0
    0.8280   -1.1552    1.7602 O   0  0  0  0  0  0  0  0  0  0  0  0
   -0.5887    0.4644    1.1460 O   0  0  0  0  0  0  0  0  0  0  0  0
    0.3973   -2.6963   -0.4011 N   0  0  0  0  0  0  0  0  0  0  0  0
    1.8453   -0.1976   -0.5514 H   0  0  0  0  0  0  0  0  0  0  0  0
    1.9286    0.7288    0.9887 H   0  0  0  0  0  0  0  0  0  0  0  0
    3.1189    0.8645   -0.2538 H   0  0  0  0  0  0  0  0  0  0  0  0
    0.0766    1.6881   -0.4925 H   0  0  0  0  0  0  0  0  0  0  0  0
    1.3524    2.7771   -0.1500 H   0  0  0  0  0  0  0  0  0  0  0  0
    0.8685    2.9362   -2.4464 H   0  0  0  0  0  0  0  0  0  0  0  0
    2.3286    1.9433   -2.3790 H   0  0  0  0  0  0  0  0  0  0  0  0
    0.7719    1.0754   -4.0272 H   0  0  0  0  0  0  0  0  0  0  0  0
    0.9979   -0.1235   -2.8221 H   0  0  0  0  0  0  0  0  0  0  0  0
   -1.4252    2.8899   -2.5485 H   0  0  0  0  0  0  0  0  0  0  0  0
   -1.7930    1.0244   -0.5874 H   0  0  0  0  0  0  0  0  0  0  0  0
   -3.0832    0.2848   -1.4370 H   0  0  0  0  0  0  0  0  0  0  0  0
   -2.2649   -1.4081    0.0947 H   0  0  0  0  0  0  0  0  0  0  0  0
   -1.9773   -1.9306   -1.5712 H   0  0  0  0  0  0  0  0  0  0  0  0
    0.2959   -0.9101   -1.2634 H   0  0  0  0  0  0  0  0  0  0  0  0
    0.0021    1.0745    1.6393 H   0  0  0  0  0  0  0  0  0  0  0  0
    1.4149   -2.5355   -0.4670 H   0  0  0  0  0  0  0  0  0  0  0  0
    0.3330   -3.0160    0.5719 H   0  0  0  0  0  0  0  0  0  0  0  0
  1  2  1  0  0  0  0
  1 15  1  0  0  0  0
  1 16  1  0  0  0  0
  1 17  1  0  0  0  0
  2  3  1  0  0  0  0
  2 18  1  0  0  0  0
  2 19  1  0  0  0  0
  3  4  1  0  0  0  0
  3 20  1  0  0  0  0
  3 21  1  0  0  0  0
  4  5  1  0  0  0  0
  4 22  1  0  0  0  0
  4 23  1  0  0  0  0
  5  6  2  0  0  0  0
  5  7  2  0  0  0  0
  5  8  1  0  0  0  0
  6 24  1  0  0  0  0
  8  9  1  0  0  0  0
  8 25  1  0  0  0  0
  8 26  1  0  0  0  0
  9 10  1  0  0  0  0
  9 27  1  0  0  0  0
  9 28  1  0  0  0  0
 10 11  1  0  0  0  0
 10 14  1  0  0  0  0
 10 29  1  0  0  0  0
 11 12  2  0  0  0  0
 11 13  1  0  0  0  0
 13 30  1  0  0  0  0
 14 31  1  0  0  0  0
 14 32  1  0  0  0  0
M  END
>  <DRUGBANK_ID>
DB12870

>  <COMMON_NAME>
Buthionine sulfoximine

>  <CAS_NUMBER>
5072-26-4

>  <UNII>
LW4108Q0BV

>  <SYNONYMS>
Butanoic acid, 2-amino-4-(S-butylsulfonimidoyl)-; Buthionine sulfoxamine; DL-buthionine-(S,R)-sulfoximine

$$$$
