
 OpenBabel10282417213D

110113  0  0  0  0  0  0  0  0999 V2000
   -0.4230   -0.9272    0.5353 C   0  0  0  0  0  0  0  0  0  0  0  0
    0.8477   -0.6142   -0.0797 C   0  0  1  0  0  0  0  0  0  0  0  0
    0.7781    0.9627   -0.0147 C   0  0  1  0  0  0  0  0  0  0  0  0
   -0.6204    1.3670    0.2618 C   0  0  3  0  0  0  0  0  0  0  0  0
   -1.2625    0.2029   -0.2794 N   0  0  0  0  0  0  0  0  0  0  0  0
   -2.9657    0.3982   -0.6483 C   0  0  0  0  0  0  0  0  0  0  0  0
   -3.2533    1.5557   -0.2705 O   0  0  0  0  0  0  0  0  0  0  0  0
   -4.0774   -1.4767   -0.5873 C   0  0  3  0  0  0  0  0  0  0  0  0
   -3.0067   -3.0192   -1.8533 C   0  0  0  0  0  0  0  0  0  0  0  0
   -0.8318   -3.3373   -1.8396 C   0  0  0  0  0  0  0  0  0  0  0  0
   -3.3322   -4.2869   -2.4628 C   0  0  0  0  0  0  0  0  0  0  0  0
   -2.9452   -2.3167   -3.6261 C   0  0  0  0  0  0  0  0  0  0  0  0
   -4.1362   -2.3551    0.7940 N   0  0  0  0  0  0  0  0  0  0  0  0
   -5.2399   -2.5344    1.5351 C   0  0  0  0  0  0  0  0  0  0  0  0
   -5.1074   -3.1039    2.6047 O   0  0  0  0  0  0  0  0  0  0  0  0
   -6.4139   -2.1199    0.8931 N   0  0  0  0  0  0  0  0  0  0  0  0
   -6.6263   -1.3576   -0.3855 C   0  0  0  0  0  0  0  0  0  0  0  0
   -5.8580   -0.0688   -0.2044 C   0  0  0  0  0  0  0  0  0  0  0  0
   -5.8168    0.9555    0.8296 C   0  0  0  0  0  0  0  0  0  0  0  0
   -7.1169    1.4917    0.4948 C   0  0  0  0  0  0  0  0  0  0  0  0
   -8.0950    0.3143    0.4376 C   0  0  0  0  0  0  0  0  0  0  0  0
   -7.8858   -0.6760   -0.6940 C   0  0  0  0  0  0  0  0  0  0  0  0
   -6.3325   -2.2341   -1.5801 C   0  0  0  0  0  0  0  0  0  0  0  0
   -4.8492   -3.1032   -1.2728 S   0  0  0  0  0  0  0  0  0  0  0  0
   -4.9160   -4.0697   -0.1451 O   0  0  0  0  0  0  0  0  0  0  0  0
   -5.4251   -4.1202   -2.2437 O   0  0  0  0  0  0  0  0  0  0  0  0
   -2.7940   -1.4564   -1.2793 C   0  0  0  0  0  0  0  0  0  0  0  0
   -3.0784   -0.5691   -2.5242 C   0  0  0  0  0  0  0  0  0  0  0  0
   -2.8820   -0.7751    0.7446 C   0  0  0  0  0  0  0  0  0  0  0  0
   -1.7199   -2.1414   -0.8918 C   0  0  0  0  0  0  0  0  0  0  0  0
   -1.1682    2.6231   -0.4239 C   0  0  0  0  0  0  0  0  0  0  0  0
   -1.4520    3.6040    0.2655 O   0  0  0  0  0  0  0  0  0  0  0  0
   -1.3877    2.6616   -1.7889 N   0  0  0  0  0  0  0  0  0  0  0  0
   -1.2018    1.6372   -2.7469 C   0  0  3  0  0  0  0  0  0  0  0  0
   -2.4070    1.4472   -3.6771 C   0  0  0  0  0  0  0  0  0  0  0  0
   -2.0229    0.7779   -4.6596 O   0  0  0  0  0  0  0  0  0  0  0  0
   -4.0798    1.4524   -3.1356 C   0  0  0  0  0  0  0  0  0  0  0  0
   -4.4057    1.6621   -1.9887 O   0  0  0  0  0  0  0  0  0  0  0  0
   -5.1049    0.6163   -3.6459 N   0  0  0  0  0  0  0  0  0  0  0  0
   -5.1866    0.0663   -4.9050 C   0  0  0  0  0  0  0  0  0  0  0  0
   -4.2807   -0.8487   -5.7214 C   0  0  0  0  0  0  0  0  0  0  0  0
   -4.1688    0.6262   -5.8204 C   0  0  0  0  0  0  0  0  0  0  0  0
   -0.1294    1.8659   -3.7854 C   0  0  0  0  0  0  0  0  0  0  0  0
    1.1609    2.2358   -3.1658 C   0  0  0  0  0  0  0  0  0  0  0  0
    1.7677    1.0446   -2.4950 C   0  0  0  0  0  0  0  0  0  0  0  0
    2.0097   -0.2023   -3.2491 C   0  0  0  0  0  0  0  0  0  0  0  0
    1.8580    0.1002    0.6237 C   0  0  0  0  0  0  0  0  0  0  0  0
    1.9475    0.0133    2.0644 C   0  0  0  0  0  0  0  0  0  0  0  0
    3.2168    0.0150    0.0615 C   0  0  0  0  0  0  0  0  0  0  0  0
   -0.5739   -1.1191    1.5815 H   0  0  0  0  0  0  0  0  0  0  0  0
   -0.5810   -1.9964    0.4795 H   0  0  0  0  0  0  0  0  0  0  0  0
    1.1654   -1.3100   -0.8836 H   0  0  0  0  0  0  0  0  0  0  0  0
    1.0186    1.7448   -0.6862 H   0  0  0  0  0  0  0  0  0  0  0  0
   -0.6933    1.4225    1.3575 H   0  0  0  0  0  0  0  0  0  0  0  0
   -4.8286   -1.1410   -1.3016 H   0  0  0  0  0  0  0  0  0  0  0  0
   -0.6752   -3.7216   -0.7932 H   0  0  0  0  0  0  0  0  0  0  0  0
   -0.1899   -3.2845   -2.7054 H   0  0  0  0  0  0  0  0  0  0  0  0
   -0.7913   -1.7839   -2.2732 H   0  0  0  0  0  0  0  0  0  0  0  0
   -4.0986   -3.6377   -3.1363 H   0  0  0  0  0  0  0  0  0  0  0  0
   -2.6163   -4.5799   -3.1589 H   0  0  0  0  0  0  0  0  0  0  0  0
   -3.2123   -4.6305   -1.4027 H   0  0  0  0  0  0  0  0  0  0  0  0
   -4.0177   -1.9549   -3.7719 H   0  0  0  0  0  0  0  0  0  0  0  0
   -2.0147   -1.5859   -3.6352 H   0  0  0  0  0  0  0  0  0  0  0  0
   -2.2860   -2.7786   -4.3100 H   0  0  0  0  0  0  0  0  0  0  0  0
   -3.2389   -2.6521    1.2450 H   0  0  0  0  0  0  0  0  0  0  0  0
   -7.2364   -2.4320    1.3341 H   0  0  0  0  0  0  0  0  0  0  0  0
   -5.2556   -0.5534    0.4667 H   0  0  0  0  0  0  0  0  0  0  0  0
   -5.6283    0.3533   -1.1580 H   0  0  0  0  0  0  0  0  0  0  0  0
   -5.6365    0.4402    1.7905 H   0  0  0  0  0  0  0  0  0  0  0  0
   -4.9988    1.6680    0.7434 H   0  0  0  0  0  0  0  0  0  0  0  0
   -7.3095    2.1511    1.3121 H   0  0  0  0  0  0  0  0  0  0  0  0
   -7.0291    1.9898   -0.4837 H   0  0  0  0  0  0  0  0  0  0  0  0
   -7.9494   -0.2562    1.3640 H   0  0  0  0  0  0  0  0  0  0  0  0
   -9.0630    0.7246    0.2989 H   0  0  0  0  0  0  0  0  0  0  0  0
   -7.7870   -0.1492   -1.6692 H   0  0  0  0  0  0  0  0  0  0  0  0
   -8.6174   -1.4599   -0.7391 H   0  0  0  0  0  0  0  0  0  0  0  0
   -7.0479   -3.0406   -1.7523 H   0  0  0  0  0  0  0  0  0  0  0  0
   -6.1543   -1.7659   -2.5774 H   0  0  0  0  0  0  0  0  0  0  0  0
   -4.1079   -0.5382   -2.4994 H   0  0  0  0  0  0  0  0  0  0  0  0
   -2.2362   -0.0149   -2.3948 H   0  0  0  0  0  0  0  0  0  0  0  0
   -3.1124   -0.4957   -3.6611 H   0  0  0  0  0  0  0  0  0  0  0  0
   -3.3811   -0.9910    1.6678 H   0  0  0  0  0  0  0  0  0  0  0  0
   -2.2211   -0.0758    1.2222 H   0  0  0  0  0  0  0  0  0  0  0  0
   -3.8036   -0.0608    0.7063 H   0  0  0  0  0  0  0  0  0  0  0  0
   -2.0945   -2.8844   -0.0732 H   0  0  0  0  0  0  0  0  0  0  0  0
   -1.7986   -2.5364   -2.4496 H   0  0  0  0  0  0  0  0  0  0  0  0
   -0.5402   -1.7865   -0.9626 H   0  0  0  0  0  0  0  0  0  0  0  0
   -1.8900    3.4538   -2.1435 H   0  0  0  0  0  0  0  0  0  0  0  0
   -0.8255    0.7223   -2.2716 H   0  0  0  0  0  0  0  0  0  0  0  0
   -5.6763    0.1222   -2.9391 H   0  0  0  0  0  0  0  0  0  0  0  0
   -6.2423    0.0590   -5.0586 H   0  0  0  0  0  0  0  0  0  0  0  0
   -3.5034   -1.5465   -5.4430 H   0  0  0  0  0  0  0  0  0  0  0  0
   -4.6515   -1.3960   -6.5661 H   0  0  0  0  0  0  0  0  0  0  0  0
   -4.1491    1.3136   -6.6251 H   0  0  0  0  0  0  0  0  0  0  0  0
   -3.5363    1.3639   -5.3769 H   0  0  0  0  0  0  0  0  0  0  0  0
    0.0212    0.9603   -4.4055 H   0  0  0  0  0  0  0  0  0  0  0  0
   -0.5177    2.6340   -4.4405 H   0  0  0  0  0  0  0  0  0  0  0  0
    1.8535    2.5472   -3.9239 H   0  0  0  0  0  0  0  0  0  0  0  0
    0.9571    3.0573   -2.4689 H   0  0  0  0  0  0  0  0  0  0  0  0
    2.5813    1.3745   -1.8440 H   0  0  0  0  0  0  0  0  0  0  0  0
    0.9693    0.5873   -1.9635 H   0  0  0  0  0  0  0  0  0  0  0  0
    2.7334    0.0441   -3.9962 H   0  0  0  0  0  0  0  0  0  0  0  0
    2.3471   -0.9948   -2.5771 H   0  0  0  0  0  0  0  0  0  0  0  0
    1.0552   -0.5598   -3.6494 H   0  0  0  0  0  0  0  0  0  0  0  0
    2.5085   -0.8941    2.2960 H   0  0  0  0  0  0  0  0  0  0  0  0
    2.5388    0.8915    2.3008 H   0  0  0  0  0  0  0  0  0  0  0  0
    1.0012    0.0128    2.5862 H   0  0  0  0  0  0  0  0  0  0  0  0
    3.3159   -0.4433   -0.9166 H   0  0  0  0  0  0  0  0  0  0  0  0
    3.5866    1.0336    0.0865 H   0  0  0  0  0  0  0  0  0  0  0  0
    3.8015   -0.6047    0.7381 H   0  0  0  0  0  0  0  0  0  0  0  0
  1  5  1  0  0  0  0
  1 50  1  0  0  0  0
  1 51  1  0  0  0  0
  2  1  1  0  0  0  0
  2  3  1  0  0  0  0
  2 47  1  0  0  0  0
  2 52  1  6  0  0  0
  3  4  1  0  0  0  0
  3 47  1  0  0  0  0
  3 53  1  6  0  0  0
  4  5  1  0  0  0  0
  4 31  1  0  0  0  0
  4 54  1  0  0  0  0
  5  6  1  0  0  0  0
  6  7  2  0  0  0  0
  6  8  1  0  0  0  0
  8  9  1  0  0  0  0
  8 13  1  0  0  0  0
  8 55  1  0  0  0  0
  9 10  1  0  0  0  0
  9 11  1  0  0  0  0
  9 12  1  0  0  0  0
 10 56  1  0  0  0  0
 10 57  1  0  0  0  0
 10 58  1  0  0  0  0
 11 59  1  0  0  0  0
 11 60  1  0  0  0  0
 11 61  1  0  0  0  0
 12 62  1  0  0  0  0
 12 63  1  0  0  0  0
 12 64  1  0  0  0  0
 13 14  1  0  0  0  0
 13 65  1  0  0  0  0
 14 15  2  0  0  0  0
 14 16  1  0  0  0  0
 16 17  1  0  0  0  0
 16 66  1  0  0  0  0
 17 18  1  0  0  0  0
 17 22  1  0  0  0  0
 17 23  1  0  0  0  0
 18 19  1  0  0  0  0
 18 67  1  0  0  0  0
 18 68  1  0  0  0  0
 19 20  1  0  0  0  0
 19 69  1  0  0  0  0
 19 70  1  0  0  0  0
 20 21  1  0  0  0  0
 20 71  1  0  0  0  0
 20 72  1  0  0  0  0
 21 22  1  0  0  0  0
 21 73  1  0  0  0  0
 21 74  1  0  0  0  0
 22 75  1  0  0  0  0
 22 76  1  0  0  0  0
 23 24  1  0  0  0  0
 23 77  1  0  0  0  0
 23 78  1  0  0  0  0
 24 25  2  0  0  0  0
 24 26  2  0  0  0  0
 24 27  1  0  0  0  0
 27 28  1  0  0  0  0
 27 29  1  0  0  0  0
 27 30  1  0  0  0  0
 28 79  1  0  0  0  0
 28 80  1  0  0  0  0
 28 81  1  0  0  0  0
 29 82  1  0  0  0  0
 29 83  1  0  0  0  0
 29 84  1  0  0  0  0
 30 85  1  0  0  0  0
 30 86  1  0  0  0  0
 30 87  1  0  0  0  0
 31 32  2  0  0  0  0
 31 33  1  0  0  0  0
 33 34  1  0  0  0  0
 33 88  1  0  0  0  0
 34 35  1  0  0  0  0
 34 43  1  0  0  0  0
 34 89  1  0  0  0  0
 35 36  2  0  0  0  0
 35 37  1  0  0  0  0
 37 38  2  0  0  0  0
 37 39  1  0  0  0  0
 39 40  1  0  0  0  0
 39 90  1  0  0  0  0
 40 41  1  0  0  0  0
 40 42  1  0  0  0  0
 40 91  1  0  0  0  0
 41 42  1  0  0  0  0
 41 92  1  0  0  0  0
 41 93  1  0  0  0  0
 42 94  1  0  0  0  0
 42 95  1  0  0  0  0
 43 44  1  0  0  0  0
 43 96  1  0  0  0  0
 43 97  1  0  0  0  0
 44 45  1  0  0  0  0
 44 98  1  0  0  0  0
 44 99  1  0  0  0  0
 45 46  1  0  0  0  0
 45100  1  0  0  0  0
 45101  1  0  0  0  0
 46102  1  0  0  0  0
 46103  1  0  0  0  0
 46104  1  0  0  0  0
 47 48  1  0  0  0  0
 47 49  1  0  0  0  0
 48105  1  0  0  0  0
 48106  1  0  0  0  0
 48107  1  0  0  0  0
 49108  1  0  0  0  0
 49109  1  0  0  0  0
 49110  1  0  0  0  0
M  END
>  <DRUGBANK_ID>
DB14760

>  <COMMON_NAME>
Narlaprevir

>  <CAS_NUMBER>
865466-24-6

>  <UNII>
2857LA2O07

>  <SYNONYMS>
Narlaprevir

$$$$
