
 OpenBabel10282417113D

 54 57  0  0  1  0  0  0  0  0999 V2000
   -0.7114    0.0523    0.3521 C   0  0  0  0  0  0  0  0  0  0  0  0
    2.9502   -0.5813    0.7523 C   0  0  0  0  0  0  0  0  0  0  0  0
   -1.2027   -2.0724    1.3684 C   0  0  1  0  0  0  0  0  0  0  0  0
   -0.0709   -1.8490    3.7159 C   0  0  0  0  0  0  0  0  0  0  0  0
   -0.9319   -1.3854   -0.0203 C   0  0  0  0  0  0  0  0  0  0  0  0
    3.1228   -3.2023    1.9889 C   0  0  2  0  0  0  0  0  0  0  0  0
    0.9731   -2.7649    3.1684 C   0  0  0  0  0  0  0  0  0  0  0  0
    3.8736   -1.8878    0.0312 C   0  0  0  0  0  0  0  0  0  0  0  0
    4.2952   -3.3403    0.9062 C   0  0  1  0  0  0  0  0  0  0  0  0
    3.8790   -3.7336    3.3662 C   0  0  0  0  0  0  0  0  0  0  0  0
    4.6497   -5.2519    0.6417 C   0  0  0  0  0  0  0  0  0  0  0  0
    4.8327   -4.7967    2.9816 C   0  0  2  0  0  0  0  0  0  0  0  0
    1.6960   -1.0699    1.4755 C   0  0  2  0  0  0  0  0  0  0  0  0
    1.3192   -1.7159    0.7401 H   0  0  0  0  0  0  0  0  0  0  0  0
    2.1867   -2.0402    2.5472 C   0  0  1  0  0  0  0  0  0  0  0  0
    2.6918   -1.4673    3.3340 H   0  0  0  0  0  0  0  0  0  0  0  0
   -0.6905   -1.1075    2.5036 C   0  0  2  0  0  0  0  0  0  0  0  0
   -1.7693   -0.1780    3.1197 C   0  0  0  0  0  0  0  0  0  0  0  0
    0.3053   -0.1991    1.6940 C   0  0  1  0  0  0  0  0  0  0  0  0
    0.5373    0.7290    2.2268 H   0  0  0  0  0  0  0  0  0  0  0  0
    2.8768   -5.9696    2.0221 O   0  0  0  0  0  0  0  0  0  0  0  0
    3.9622   -5.4901    1.9490 C   0  0  0  0  0  0  0  0  0  0  0  0
    2.1292   -3.9030    0.8499 C   0  0  0  0  0  0  0  0  0  0  0  0
   -2.3654   -2.6546    1.9217 O   0  0  0  0  0  0  0  0  0  0  0  0
    6.2940   -5.2483    3.1867 C   0  0  0  0  0  0  0  0  0  0  0  0
    5.2933   -2.9738    1.2063 H   0  0  0  0  0  0  0  0  0  0  0  0
   -1.7437    0.4096    0.5101 H   0  0  0  0  0  0  0  0  0  0  0  0
   -0.3327    0.7013   -0.4526 H   0  0  0  0  0  0  0  0  0  0  0  0
    3.5671    0.1087    1.3557 H   0  0  0  0  0  0  0  0  0  0  0  0
    2.5245    0.0649   -0.0254 H   0  0  0  0  0  0  0  0  0  0  0  0
   -0.6580   -2.9695    1.1114 H   0  0  0  0  0  0  0  0  0  0  0  0
   -0.6194   -2.5117    4.4092 H   0  0  0  0  0  0  0  0  0  0  0  0
    0.1724   -1.0662    4.4359 H   0  0  0  0  0  0  0  0  0  0  0  0
   -0.9208   -2.0988   -0.8630 H   0  0  0  0  0  0  0  0  0  0  0  0
    0.1173   -1.3293   -0.3456 H   0  0  0  0  0  0  0  0  0  0  0  0
    1.1788   -3.5952    3.8459 H   0  0  0  0  0  0  0  0  0  0  0  0
    0.4781   -3.3430    2.3985 H   0  0  0  0  0  0  0  0  0  0  0  0
    4.8257   -1.4348   -0.2713 H   0  0  0  0  0  0  0  0  0  0  0  0
    3.2950   -2.0861   -0.8722 H   0  0  0  0  0  0  0  0  0  0  0  0
    4.0467   -3.8800    4.4421 H   0  0  0  0  0  0  0  0  0  0  0  0
    2.9225   -3.8276    3.8425 H   0  0  0  0  0  0  0  0  0  0  0  0
    5.6551   -5.7175    0.8828 H   0  0  0  0  0  0  0  0  0  0  0  0
    4.3199   -6.3734    0.7603 H   0  0  0  0  0  0  0  0  0  0  0  0
    5.3767   -3.9703    2.5447 H   0  0  0  0  0  0  0  0  0  0  0  0
   -2.5535   -0.7504    3.6197 H   0  0  0  0  0  0  0  0  0  0  0  0
   -1.3148    0.4841    3.8711 H   0  0  0  0  0  0  0  0  0  0  0  0
   -2.2407    0.4885    2.3977 H   0  0  0  0  0  0  0  0  0  0  0  0
    1.6233   -3.2188    0.1641 H   0  0  0  0  0  0  0  0  0  0  0  0
    2.6470   -4.4190    0.0293 H   0  0  0  0  0  0  0  0  0  0  0  0
    1.3609   -4.5366    1.2573 H   0  0  0  0  0  0  0  0  0  0  0  0
   -3.0208   -2.9364    1.2809 H   0  0  0  0  0  0  0  0  0  0  0  0
    7.0425   -4.4375    3.0053 H   0  0  0  0  0  0  0  0  0  0  0  0
    6.4401   -5.6260    4.1821 H   0  0  0  0  0  0  0  0  0  0  0  0
    6.6588   -5.9934    2.4629 H   0  0  0  0  0  0  0  0  0  0  0  0
  1 27  1  0  0  0  0
  1 28  1  0  0  0  0
  2  8  1  0  0  0  0
  2 29  1  0  0  0  0
  2 30  1  0  0  0  0
  3  5  1  0  0  0  0
  3 24  1  0  0  0  0
  3 31  1  1  0  0  0
  4  7  1  0  0  0  0
  4 32  1  0  0  0  0
  4 33  1  0  0  0  0
  5  1  1  0  0  0  0
  5 34  1  0  0  0  0
  5 35  1  0  0  0  0
  6  9  1  0  0  0  0
  6 10  1  0  0  0  0
  6 23  1  1  0  0  0
  7 36  1  0  0  0  0
  7 37  1  0  0  0  0
  8  9  1  0  0  0  0
  8 38  1  0  0  0  0
  8 39  1  0  0  0  0
  9 11  1  0  0  0  0
  9 26  1  6  0  0  0
 10 12  1  0  0  0  0
 10 40  1  0  0  0  0
 10 41  1  0  0  0  0
 11 22  1  0  0  0  0
 11 42  1  0  0  0  0
 11 43  1  0  0  0  0
 12 22  1  0  0  0  0
 12 25  1  0  0  0  0
 12 44  1  6  0  0  0
 13 15  1  0  0  0  0
 13  2  1  0  0  0  0
 13 14  1  1  0  0  0
 15  6  1  0  0  0  0
 15  7  1  0  0  0  0
 15 16  1  6  0  0  0
 17  3  1  0  0  0  0
 17  4  1  0  0  0  0
 17 18  1  1  0  0  0
 18 45  1  0  0  0  0
 18 46  1  0  0  0  0
 18 47  1  0  0  0  0
 19 13  1  0  0  0  0
 19 17  1  0  0  0  0
 19  1  1  0  0  0  0
 19 20  1  6  0  0  0
 22 21  2  0  0  0  0
 23 48  1  0  0  0  0
 23 49  1  0  0  0  0
 23 50  1  0  0  0  0
 24 51  1  0  0  0  0
 25 52  1  0  0  0  0
 25 53  1  0  0  0  0
 25 54  1  0  0  0  0
M  END
>  <DRUGBANK_ID>
DB00858

>  <SECONDARY_ACCESSION_NUMBERS>
APRD00938

>  <COMMON_NAME>
Drostanolone

>  <CAS_NUMBER>
58-19-5

>  <UNII>
7DR7H00HDT

>  <SYNONYMS>
17beta-Hydroxy-2alpha-methyl-5alpha-androstan-3-one; 2α-Methyldihydrotestosterone; Dihydro-2α-methyltestosterone; Dromostanolone; Drostanolona; Drostanolone; Drostanolonum; Medrosteron; Medrotestron; Metholone

$$$$
