
 OpenBabel10282417233D

 40 42  0  0  1  0  0  0  0  0999 V2000
    0.9231    0.9718    2.5160 C   0  0  0  0  0  0  0  0  0  0  0  0
    0.1331    0.1964    1.4998 C   0  0  2  0  0  0  0  0  0  0  0  0
    0.8060    0.2272    0.1012 N   0  0  0  0  0  0  0  0  0  0  0  0
    1.7309    1.1641   -0.4207 C   0  0  0  0  0  0  0  0  0  0  0  0
    1.4993    1.8984   -1.5282 C   0  0  0  0  0  0  0  0  0  0  0  0
    1.9674    3.2740   -1.5819 C   0  0  0  0  0  0  0  0  0  0  0  0
    2.9569    3.6976   -0.7897 C   0  0  0  0  0  0  0  0  0  0  0  0
    3.5213    5.0129   -0.9884 C   0  0  0  0  0  0  0  0  0  0  0  0
    4.0395    6.0136   -1.1861 N   0  0  0  0  0  0  0  0  0  0  0  0
    3.4857    2.8255    0.1483 N   0  0  0  0  0  0  0  0  0  0  0  0
    4.6386    3.2142    0.9338 C   0  0  0  0  0  0  0  0  0  0  0  0
    3.0030    1.5313    0.3199 C   0  0  0  0  0  0  0  0  0  0  0  0
    3.5463    0.6988    1.0469 O   0  0  0  0  0  0  0  0  0  0  0  0
   -1.4546    0.8823    1.6455 C   0  0  0  0  0  0  0  0  0  0  0  0
   -2.0758    2.1387    1.9935 C   0  0  0  0  0  0  0  0  0  0  0  0
   -2.4817    3.3374    0.8629 C   0  0  0  0  0  0  0  0  0  0  0  0
   -1.6362    3.1466   -0.2186 C   0  0  0  0  0  0  0  0  0  0  0  0
   -1.0734    1.8997   -0.3268 N   0  0  0  0  0  0  0  0  0  0  0  0
   -1.8638    0.9152    0.2535 C   0  0  0  0  0  0  0  0  0  0  0  0
   -2.9442    0.4722   -0.0993 O   0  0  0  0  0  0  0  0  0  0  0  0
   -1.4349    3.9367   -1.3290 C   0  0  0  0  0  0  0  0  0  0  0  0
   -2.3928    4.8349   -1.6573 C   0  0  0  0  0  0  0  0  0  0  0  0
   -3.3046    5.1618   -0.6653 C   0  0  0  0  0  0  0  0  0  0  0  0
   -4.2918    6.5331   -1.0561 Cl  0  0  0  0  0  0  0  0  0  0  0  0
   -3.3385    4.4610    0.6214 C   0  0  0  0  0  0  0  0  0  0  0  0
    1.8978    1.2787    2.2090 H   0  0  0  0  0  0  0  0  0  0  0  0
    1.0655    0.3974    3.4298 H   0  0  0  0  0  0  0  0  0  0  0  0
    0.4240    1.9144    2.7120 H   0  0  0  0  0  0  0  0  0  0  0  0
    0.1694   -0.8792    1.7724 H   0  0  0  0  0  0  0  0  0  0  0  0
    0.7438   -0.6208   -0.4784 H   0  0  0  0  0  0  0  0  0  0  0  0
    0.7216    1.6273   -2.2385 H   0  0  0  0  0  0  0  0  0  0  0  0
    1.4427    3.9862   -2.2168 H   0  0  0  0  0  0  0  0  0  0  0  0
    5.4803    3.3395    0.2494 H   0  0  0  0  0  0  0  0  0  0  0  0
    4.4237    4.1413    1.4739 H   0  0  0  0  0  0  0  0  0  0  0  0
    4.8962    2.4492    1.6688 H   0  0  0  0  0  0  0  0  0  0  0  0
   -2.8232    2.1193    2.7983 H   0  0  0  0  0  0  0  0  0  0  0  0
   -0.2084    2.0004    0.2090 H   0  0  0  0  0  0  0  0  0  0  0  0
   -0.6247    3.7182   -1.9961 H   0  0  0  0  0  0  0  0  0  0  0  0
   -2.3952    5.2255   -2.6715 H   0  0  0  0  0  0  0  0  0  0  0  0
   -4.0796    4.8616    1.3113 H   0  0  0  0  0  0  0  0  0  0  0  0
  1 26  1  0  0  0  0
  1 27  1  0  0  0  0
  1 28  1  0  0  0  0
  2 14  1  0  0  0  0
  2 29  1  1  0  0  0
  2  3  1  0  0  0  0
  2  1  1  0  0  0  0
  3  4  1  0  0  0  0
  3 30  1  0  0  0  0
  4  5  2  0  0  0  0
  4 12  1  0  0  0  0
  5  6  1  0  0  0  0
  5 31  1  0  0  0  0
  6  7  2  0  0  0  0
  6 32  1  0  0  0  0
  7  8  1  0  0  0  0
  7 10  1  0  0  0  0
  8  9  3  0  0  0  0
 10 11  1  0  0  0  0
 10 12  1  0  0  0  0
 11 33  1  0  0  0  0
 11 34  1  0  0  0  0
 11 35  1  0  0  0  0
 12 13  2  0  0  0  0
 14 15  2  0  0  0  0
 14 19  1  0  0  0  0
 15 16  1  0  0  0  0
 15 36  1  0  0  0  0
 16 17  2  0  0  0  0
 16 25  1  0  0  0  0
 17 18  1  0  0  0  0
 17 21  1  0  0  0  0
 18 19  1  0  0  0  0
 18 37  1  0  0  0  0
 19 20  2  0  0  0  0
 21 22  2  0  0  0  0
 21 38  1  0  0  0  0
 22 23  1  0  0  0  0
 22 39  1  0  0  0  0
 23 24  1  0  0  0  0
 23 25  2  0  0  0  0
 25 40  1  0  0  0  0
M  END
>  <DRUGBANK_ID>
DB16267

>  <COMMON_NAME>
Olutasidenib

>  <CAS_NUMBER>
1887014-12-1

>  <UNII>
0T4IMT8S5Z

>  <SYNONYMS>
(s)-5-((1-(6-chloro-2-oxo-1,2-dihydroquinolin-3-yl)ethyl)amino)-1-methyl-6-oxo-1,6-dihydropyridine-2-carbonitrile; 2-pyridinecarbonitrile, 5-(((1s)-1-(6-chloro-1,2-dihydro-2-oxo-3-quinolinyl)ethyl)amino)-1,6-dihydro-1-methyl-6-oxo-; 5-(((1s)-1-(6-chloro-2-oxo-1,2-dihydroquinolin-3-yl)ethyl)amino)-1-methyl-6-oxo-1,6-dihydropyridine-2-carbonitrile; Olutasidenib

$$$$
