
 OpenBabel10282417213D

 12 12  0  0  0  0  0  0  0  0999 V2000
   -2.5311   -0.7106    0.0301 C   0  0  0  0  0  0  0  0  0  0  0  0
   -1.3162   -1.3989    0.0392 C   0  0  0  0  0  0  0  0  0  0  0  0
   -0.1195    0.7046   -0.0196 C   0  0  0  0  0  0  0  0  0  0  0  0
   -0.1081   -0.6942    0.0104 C   0  0  0  0  0  0  0  0  0  0  0  0
   -1.3390    1.3898   -0.0405 C   0  0  0  0  0  0  0  0  0  0  0  0
   -2.5425    0.6821   -0.0175 C   0  0  0  0  0  0  0  0  0  0  0  0
    1.3308    1.6441   -0.0225 Cl  0  0  0  0  0  0  0  0  0  0  0  0
    1.3569   -1.6104    0.0093 Cl  0  0  0  0  0  0  0  0  0  0  0  0
   -3.4681   -1.2624    0.0589 H   0  0  0  0  0  0  0  0  0  0  0  0
   -1.3173   -2.4857    0.0697 H   0  0  0  0  0  0  0  0  0  0  0  0
   -1.3579    2.4765   -0.0727 H   0  0  0  0  0  0  0  0  0  0  0  0
   -3.4887    1.2188   -0.0339 H   0  0  0  0  0  0  0  0  0  0  0  0
  1  2  2  0  0  0  0
  1  9  1  0  0  0  0
  2  4  1  0  0  0  0
  2 10  1  0  0  0  0
  3  5  1  0  0  0  0
  4  3  2  0  0  0  0
  5 11  1  0  0  0  0
  6  5  2  0  0  0  0
  6  1  1  0  0  0  0
  6 12  1  0  0  0  0
  7  3  1  0  0  0  0
  8  4  1  0  0  0  0
M  END
>  <DRUGBANK_ID>
DB13963

>  <COMMON_NAME>
1,2-dichlorobenzene

>  <CAS_NUMBER>
95-50-1

>  <UNII>
6PJ93I88XL

>  <SYNONYMS>
2-Dichlorobenzene; o-dichlorbenzene; o-Dichlorbenzol; o-Dichlorobenzene; ODB; ODCB; ortho-Dichlorobenzene; Orthodichlorobenzene; orthodichlorobenzol

$$$$
