
 OpenBabel10282417223D

 54 55  0  0  0  0  0  0  0  0999 V2000
   -1.8857    0.0398   -0.0101 C   0  0  0  0  0  0  0  0  0  0  0  0
   -1.1700   -1.1599    0.0113 C   0  0  0  0  0  0  0  0  0  0  0  0
    0.2339   -1.1998    0.0372 C   0  0  0  0  0  0  0  0  0  0  0  0
    0.9416    0.0004    0.0284 C   0  0  0  0  0  0  0  0  0  0  0  0
    0.2597    1.2253    0.0203 C   0  0  0  0  0  0  0  0  0  0  0  0
   -1.1436    1.2284    0.0014 C   0  0  0  0  0  0  0  0  0  0  0  0
    0.9861    2.4900    0.0433 C   0  0  0  0  0  0  0  0  0  0  0  0
    0.8506    3.3823    1.1003 C   0  0  0  0  0  0  0  0  0  0  0  0
    1.5336    4.5432    1.2056 N   0  0  0  0  0  0  0  0  0  0  0  0
    2.4237    4.8395    0.2034 C   0  0  0  0  0  0  0  0  0  0  0  0
    2.6070    4.0029   -0.8847 C   0  0  0  0  0  0  0  0  0  0  0  0
    1.8848    2.8266   -0.9742 C   0  0  0  0  0  0  0  0  0  0  0  0
   -3.4153    0.0778   -0.0429 C   0  0  0  0  0  0  0  0  0  0  0  0
   -3.9337    0.8174    1.2061 C   0  0  0  0  0  0  0  0  0  0  0  0
   -3.8835    0.8168   -1.3125 C   0  0  0  0  0  0  0  0  0  0  0  0
   -4.0465   -1.3314   -0.0560 C   0  0  0  0  0  0  0  0  0  0  0  0
    0.8749   -2.5531    0.0263 C   0  0  0  0  0  0  0  0  0  0  0  0
    0.5407   -3.3350    1.2170 N   0  0  0  0  0  0  0  0  0  0  0  0
    1.2345   -4.6339    1.2701 C   0  0  0  0  0  0  0  0  0  0  0  0
    2.7609   -4.4439    1.3305 C   0  0  0  0  0  0  0  0  0  0  0  0
    0.7885   -5.3608    2.5506 C   0  0  0  0  0  0  0  0  0  0  0  0
    0.8431   -5.4983    0.0600 C   0  0  0  0  0  0  0  0  0  0  0  0
    2.3117    0.0635    0.0359 O   0  0  0  0  0  0  0  0  0  0  0  0
    3.4773    4.2935   -1.8628 F   0  0  0  0  0  0  0  0  0  0  0  0
    3.2255    6.1147    0.3074 C   0  0  0  0  0  0  0  0  0  0  0  0
    4.0869    6.3344   -0.7277 F   0  0  0  0  0  0  0  0  0  0  0  0
    2.4349    7.2264    0.3569 F   0  0  0  0  0  0  0  0  0  0  0  0
    3.9991    6.1582    1.4314 F   0  0  0  0  0  0  0  0  0  0  0  0
   -1.6849   -2.1193    0.0089 H   0  0  0  0  0  0  0  0  0  0  0  0
   -1.6606    2.1862   -0.0137 H   0  0  0  0  0  0  0  0  0  0  0  0
    0.1767    3.1686    1.9295 H   0  0  0  0  0  0  0  0  0  0  0  0
    2.0446    2.1602   -1.8161 H   0  0  0  0  0  0  0  0  0  0  0  0
   -3.5763    1.8523    1.2522 H   0  0  0  0  0  0  0  0  0  0  0  0
   -5.0283    0.8537    1.2162 H   0  0  0  0  0  0  0  0  0  0  0  0
   -3.6035    0.3178    2.1248 H   0  0  0  0  0  0  0  0  0  0  0  0
   -3.5176    0.3167   -2.2174 H   0  0  0  0  0  0  0  0  0  0  0  0
   -4.9769    0.8532   -1.3663 H   0  0  0  0  0  0  0  0  0  0  0  0
   -3.5249    1.8517   -1.3455 H   0  0  0  0  0  0  0  0  0  0  0  0
   -3.7269   -1.9026   -0.9368 H   0  0  0  0  0  0  0  0  0  0  0  0
   -3.7642   -1.9024    0.8374 H   0  0  0  0  0  0  0  0  0  0  0  0
   -5.1396   -1.2840   -0.0787 H   0  0  0  0  0  0  0  0  0  0  0  0
    0.5375   -3.0502   -0.8884 H   0  0  0  0  0  0  0  0  0  0  0  0
    1.9511   -2.4463   -0.0606 H   0  0  0  0  0  0  0  0  0  0  0  0
    0.7547   -2.7872    2.0517 H   0  0  0  0  0  0  0  0  0  0  0  0
    3.0463   -3.8218    2.1875 H   0  0  0  0  0  0  0  0  0  0  0  0
    3.2730   -5.4060    1.4227 H   0  0  0  0  0  0  0  0  0  0  0  0
    3.1619   -3.9713    0.4284 H   0  0  0  0  0  0  0  0  0  0  0  0
   -0.2936   -5.5350    2.5629 H   0  0  0  0  0  0  0  0  0  0  0  0
    1.2795   -6.3385    2.6274 H   0  0  0  0  0  0  0  0  0  0  0  0
    1.0481   -4.7926    3.4515 H   0  0  0  0  0  0  0  0  0  0  0  0
   -0.2435   -5.6427    0.0141 H   0  0  0  0  0  0  0  0  0  0  0  0
    1.1602   -5.0536   -0.8890 H   0  0  0  0  0  0  0  0  0  0  0  0
    1.3132   -6.4846    0.1132 H   0  0  0  0  0  0  0  0  0  0  0  0
    2.7211   -0.8094   -0.0014 H   0  0  0  0  0  0  0  0  0  0  0  0
  1  2  2  0  0  0  0
  1 13  1  0  0  0  0
  2  3  1  0  0  0  0
  2 29  1  0  0  0  0
  3  4  2  0  0  0  0
  3 17  1  0  0  0  0
  4  5  1  0  0  0  0
  4 23  1  0  0  0  0
  5  6  2  0  0  0  0
  5  7  1  0  0  0  0
  6  1  1  0  0  0  0
  6 30  1  0  0  0  0
  7  8  2  0  0  0  0
  8  9  1  0  0  0  0
  8 31  1  0  0  0  0
  9 10  2  0  0  0  0
 10 11  1  0  0  0  0
 10 25  1  0  0  0  0
 11 12  2  0  0  0  0
 11 24  1  0  0  0  0
 12  7  1  0  0  0  0
 12 32  1  0  0  0  0
 13 14  1  0  0  0  0
 13 15  1  0  0  0  0
 13 16  1  0  0  0  0
 14 33  1  0  0  0  0
 14 34  1  0  0  0  0
 14 35  1  0  0  0  0
 15 36  1  0  0  0  0
 15 37  1  0  0  0  0
 15 38  1  0  0  0  0
 16 39  1  0  0  0  0
 16 40  1  0  0  0  0
 16 41  1  0  0  0  0
 17 18  1  0  0  0  0
 17 42  1  0  0  0  0
 17 43  1  0  0  0  0
 18 19  1  0  0  0  0
 18 44  1  0  0  0  0
 19 20  1  0  0  0  0
 19 21  1  0  0  0  0
 19 22  1  0  0  0  0
 20 45  1  0  0  0  0
 20 46  1  0  0  0  0
 20 47  1  0  0  0  0
 21 48  1  0  0  0  0
 21 49  1  0  0  0  0
 21 50  1  0  0  0  0
 22 51  1  0  0  0  0
 22 52  1  0  0  0  0
 22 53  1  0  0  0  0
 23 54  1  0  0  0  0
 25 27  1  0  0  0  0
 25 28  1  0  0  0  0
 25 26  1  0  0  0  0
M  END
>  <DRUGBANK_ID>
DB15609

>  <COMMON_NAME>
JPC-3210

>  <CAS_NUMBER>
1609655-35-7

$$$$
