
 OpenBabel10282417153D

349352  0  0  1  0  0  0  0  0999 V2000
    5.4882    7.6005   -5.8830 N   0  0  0  0  0  0  0  0  0  0  0  0
    4.8284   10.6180   -4.5030 C   0  0  2  0  0  0  0  0  0  0  0  0
    2.7350   11.9738   -5.6728 N   0  0  0  0  0  0  0  0  0  0  0  0
    5.6343   23.5098   -1.8348 N   0  0  0  0  0  0  0  0  0  0  0  0
    0.2555   18.5221   -1.3249 N   0  0  0  0  0  0  0  0  0  0  0  0
    4.8054    5.3750   -6.8611 C   0  0  0  0  0  0  0  0  0  0  0  0
    5.6443   23.9902   -6.8163 N   0  0  0  0  0  0  0  0  0  0  0  0
   -2.0566   14.2519   -5.0755 N   0  0  0  0  0  0  0  0  0  0  0  0
    3.3195   20.7047    1.8682 N   0  0  0  0  0  0  0  0  0  0  0  0
    8.7323   27.1219    1.7398 N   0  0  0  0  0  0  0  0  0  0  0  0
    1.7148   15.0403   -4.7135 C   0  0  0  0  0  0  0  0  0  0  0  0
    0.8415   17.7130   -5.6886 C   0  0  0  0  0  0  0  0  0  0  0  0
   -2.9991   17.1362   -0.7699 N   0  0  0  0  0  0  0  0  0  0  0  0
    7.3113   25.1623   -2.5070 C   0  0  0  0  0  0  0  0  0  0  0  0
   -6.0178   16.2426   -2.4804 N   0  0  0  0  0  0  0  0  0  0  0  0
   -9.2383   10.5119   -4.1504 N   0  0  0  0  0  0  0  0  0  0  0  0
    5.6786   22.0605   -1.8238 C   0  0  0  0  0  0  0  0  0  0  0  0
   -7.7708    8.7156   -3.7024 C   0  0  0  0  0  0  0  0  0  0  0  0
    7.6637   25.2087   -1.0948 N   0  0  0  0  0  0  0  0  0  0  0  0
  -10.2698    7.5824   -3.9393 N   0  0  0  0  0  0  0  0  0  0  0  0
   -7.5116   13.6363   -4.4357 N   0  0  0  0  0  0  0  0  0  0  0  0
    8.3854    6.9917   -7.3266 N   0  0  0  0  0  0  0  0  0  0  0  0
    6.8080   22.9773   -8.2412 N   0  0  0  0  0  0  0  0  0  0  0  0
   -0.8212   17.6656   -1.7558 C   0  0  0  0  0  0  0  0  0  0  0  0
    3.6990    8.4580   -6.5113 C   0  0  2  0  0  0  0  0  0  0  0  0
    3.5934   21.3197   -6.0842 C   0  0  2  0  0  0  0  0  0  0  0  0
    1.1904   17.9237   -3.2196 C   0  0  2  0  0  0  0  0  0  0  0  0
    6.1904   24.2482   -2.9805 C   0  0  2  0  0  0  0  0  0  0  0  0
    8.2575    5.5512   -7.2405 C   0  0  0  0  0  0  0  0  0  0  0  0
   -3.9842   16.1155   -1.1166 C   0  0  0  0  0  0  0  0  0  0  0  0
   -8.6897   12.8290   -4.7383 C   0  0  0  0  0  0  0  0  0  0  0  0
    7.4139   24.5248   -7.2805 C   0  0  0  0  0  0  0  0  0  0  0  0
    8.1802   27.0752    0.3820 C   0  0  0  0  0  0  0  0  0  0  0  0
   -7.1087   15.2927   -2.6693 C   0  0  0  0  0  0  0  0  0  0  0  0
    4.3861   21.5810    2.3330 C   0  0  0  0  0  0  0  0  0  0  0  0
  -10.3153    9.6366   -4.6120 C   0  0  0  0  0  0  0  0  0  0  0  0
    6.9338   21.4902   -8.2480 C   0  0  0  0  0  0  0  0  0  0  0  0
   -4.9765   10.9914   -4.3672 C   0  0  2  0  0  0  0  0  0  0  0  0
    2.5943   19.8551    2.8245 C   0  0  2  0  0  0  0  0  0  0  0  0
    4.0613   13.4689   -3.1475 C   0  0  0  0  0  0  0  0  0  0  0  0
    5.0856   21.2828   -0.6761 C   0  0  1  0  0  0  0  0  0  0  0  0
    8.1964   28.0861    2.7180 C   0  0  2  0  0  0  0  0  0  0  0  0
    4.0235   20.3998   -1.0796 N   0  0  0  0  0  0  0  0  0  0  0  0
   -1.5644   16.7926   -0.7523 C   0  0  2  0  0  0  0  0  0  0  0  0
    7.6219   27.3312    3.9171 C   0  0  0  0  0  0  0  0  0  0  0  0
    8.5392   19.6830   -8.6299 N   0  0  0  0  0  0  0  0  0  0  0  0
    4.9791   23.8753    1.6836 N   0  0  0  0  0  0  0  0  0  0  0  0
    7.3222   13.5575   -5.9764 N   0  0  0  0  0  0  0  0  0  0  0  0
   -5.4687   16.4765   -1.1353 C   0  0  2  0  0  0  0  0  0  0  0  0
   -8.5181   11.3579   -5.1141 C   0  0  2  0  0  0  0  0  0  0  0  0
    6.7787    8.8062   -6.9384 C   0  0  0  0  0  0  0  0  0  0  0  0
    8.9811   15.2152   -6.7160 C   0  0  0  0  0  0  0  0  0  0  0  0
    3.7036   16.0220   -2.5494 N   0  0  0  0  0  0  0  0  0  0  0  0
    6.5301   26.3843    3.7105 N   0  0  0  0  0  0  0  0  0  0  0  0
    6.8530   10.2320   -7.2126 N   0  0  0  0  0  0  0  0  0  0  0  0
    8.9376   16.6656   -6.7371 N   0  0  0  0  0  0  0  0  0  0  0  0
   -1.3814   15.3344   -1.1278 C   0  0  0  0  0  0  0  0  0  0  0  0
    9.3388    4.7132   -6.5816 C   0  0  2  0  0  0  0  0  0  0  0  0
    2.7706   18.3806    2.4552 C   0  0  0  0  0  0  0  0  0  0  0  0
   -7.6764   15.0506   -4.0663 C   0  0  2  0  0  0  0  0  0  0  0  0
   -8.9557    5.1866   -0.9132 C   0  0  0  0  0  0  0  0  0  0  0  0
   11.8891   29.9146   -0.3634 C   0  0  0  0  0  0  0  0  0  0  0  0
  -11.0520    8.7655   -3.6054 C   0  0  2  0  0  0  0  0  0  0  0  0
    5.2427   23.7187   -6.7296 C   0  0  2  0  0  0  0  0  0  0  0  0
    8.7462   26.0955   -0.6328 C   0  0  2  0  0  0  0  0  0  0  0  0
    4.1276   18.9575   -0.8657 C   0  0  0  0  0  0  0  0  0  0  0  0
    7.4068   12.1171   -5.7571 C   0  0  0  0  0  0  0  0  0  0  0  0
    6.1537   24.6840    1.9897 C   0  0  0  0  0  0  0  0  0  0  0  0
    8.3950   18.2327   -8.5454 C   0  0  0  0  0  0  0  0  0  0  0  0
    7.4803   20.4927   -9.2597 C   0  0  1  0  0  0  0  0  0  0  0  0
    5.1488   22.4727    1.3734 C   0  0  1  0  0  0  0  0  0  0  0  0
    7.3266    7.7985   -7.9543 C   0  0  2  0  0  0  0  0  0  0  0  0
    8.4038   14.4505   -5.5198 C   0  0  2  0  0  0  0  0  0  0  0  0
    0.0922   14.9649   -1.1046 C   0  0  0  0  0  0  0  0  0  0  0  0
    1.4738   21.1350   -0.2266 S   0  0  0  0  0  0  0  0  0  0  0  0
    5.7549   25.9941   -5.0318 S   0  0  0  0  0  0  0  0  0  0  0  0
    6.2433    4.1965   -6.3362 S   0  0  0  0  0  0  0  0  0  0  0  0
    7.2393   27.1638   -4.5072 S   0  0  0  0  0  0  0  0  0  0  0  0
    0.4423   19.9376    1.1504 S   0  0  0  0  0  0  0  0  0  0  0  0
    7.4452    2.8541   -5.9486 S   0  0  0  0  0  0  0  0  0  0  0  0
   -7.6914    4.9760   -0.9162 N   0  0  0  0  0  0  0  0  0  0  0  0
   13.1948   29.7860   -0.3938 N   0  0  0  0  0  0  0  0  0  0  0  0
    5.3662    3.0430   -7.0170 O   0  0  0  0  0  0  0  0  0  0  0  0
    2.4289   18.8436   -6.6172 O   0  0  0  0  0  0  0  0  0  0  0  0
    7.9092   25.8200   -3.3387 O   0  0  0  0  0  0  0  0  0  0  0  0
    0.6260   17.0883   -4.3550 O   0  0  0  0  0  0  0  0  0  0  0  0
    6.1931   21.4162   -2.7730 O   0  0  0  0  0  0  0  0  0  0  0  0
   -9.3724    7.5672   -2.4896 O   0  0  0  0  0  0  0  0  0  0  0  0
    7.3239    5.0102   -7.7822 O   0  0  0  0  0  0  0  0  0  0  0  0
   -9.8431   13.3217   -4.6961 O   0  0  0  0  0  0  0  0  0  0  0  0
   -3.6320   14.9434   -1.4005 O   0  0  0  0  0  0  0  0  0  0  0  0
   -1.1384   17.6177   -2.9671 O   0  0  0  0  0  0  0  0  0  0  0  0
    7.2655   27.8736    0.0354 O   0  0  0  0  0  0  0  0  0  0  0  0
    4.6991   21.6237    3.5459 O   0  0  0  0  0  0  0  0  0  0  0  0
    6.4685   21.0189   -7.1859 O   0  0  0  0  0  0  0  0  0  0  0  0
  -10.6284    9.5835   -5.8267 O   0  0  0  0  0  0  0  0  0  0  0  0
   -7.5935   14.6643   -1.6967 O   0  0  0  0  0  0  0  0  0  0  0  0
    8.5998   24.3040   -6.5097 O   0  0  0  0  0  0  0  0  0  0  0  0
   -6.2066   15.6109   -0.1272 C   0  0  0  0  0  0  0  0  0  0  0  0
    3.1038   14.8499   -1.7957 O   0  0  0  0  0  0  0  0  0  0  0  0
    8.0898   27.5307    5.0660 O   0  0  0  0  0  0  0  0  0  0  0  0
    5.8559   24.7467   -6.0269 C   0  0  0  0  0  0  0  0  0  0  0  0
    0.8421   20.5644   -2.0269 C   0  0  0  0  0  0  0  0  0  0  0  0
    4.1405    5.3116   -6.9793 C   0  0  0  0  0  0  0  0  0  0  0  0
    5.1027   25.0774   -3.6362 C   0  0  0  0  0  0  0  0  0  0  0  0
    6.3324    8.5383   -5.8465 O   0  0  0  0  0  0  0  0  0  0  0  0
    9.4920   14.6296   -7.6860 O   0  0  0  0  0  0  0  0  0  0  0  0
    1.1221   20.2128    2.8095 C   0  0  0  0  0  0  0  0  0  0  0  0
   -9.0708   11.1287   -6.5094 C   0  0  0  0  0  0  0  0  0  0  0  0
    3.3086   17.5900    3.2656 O   0  0  0  0  0  0  0  0  0  0  0  0
    5.9761   26.1333    2.3788 C   0  0  0  0  0  0  0  0  0  0  0  0
    6.3212   11.2010   -6.2540 C   0  0  0  0  0  0  0  0  0  0  0  0
    3.0495   17.9684   -1.3570 C   0  0  0  0  0  0  0  0  0  0  0  0
    9.4913   17.4033   -7.8866 C   0  0  0  0  0  0  0  0  0  0  0  0
    3.9014   12.8014   -2.8383 C   0  0  2  0  0  0  0  0  0  0  0  0
    5.0826   18.4324   -0.2713 O   0  0  0  0  0  0  0  0  0  0  0  0
    8.2264   11.5488   -4.9506 O   0  0  0  0  0  0  0  0  0  0  0  0
    7.3135   24.2162    1.9420 O   0  0  0  0  0  0  0  0  0  0  0  0
    7.3918   17.6411   -9.0015 O   0  0  0  0  0  0  0  0  0  0  0  0
    8.7621    3.9558   -5.3985 C   0  0  0  0  0  0  0  0  0  0  0  0
    0.5055   14.0687   -0.3339 O   0  0  0  0  0  0  0  0  0  0  0  0
   -9.2718    6.1150   -1.5723 N   0  0  0  0  0  0  0  0  0  0  0  0
   11.0296   28.7428   -0.4449 N   0  0  0  0  0  0  0  0  0  0  0  0
   11.2939   31.2417   -0.2448 N   0  0  0  0  0  0  0  0  0  0  0  0
   -9.8995    4.3887   -0.1721 N   0  0  0  0  0  0  0  0  0  0  0  0
   10.4187    5.5961   -6.1270 N   0  0  0  0  0  0  0  0  0  0  0  0
    2.3006   17.9130    1.1662 N   0  0  0  0  0  0  0  0  0  0  0  0
   -5.6536   15.8442    1.2562 C   0  0  0  0  0  0  0  0  0  0  0  0
   -9.1459   15.4249   -4.0862 C   0  0  0  0  0  0  0  0  0  0  0  0
   -4.5373   16.4423    3.7155 C   0  0  0  0  0  0  0  0  0  0  0  0
    0.9752   15.6550   -1.9630 O   0  0  0  0  0  0  0  0  0  0  0  0
   -7.7134    7.7489   -3.4825 C   0  0  0  0  0  0  0  0  0  0  0  0
    5.9965   20.7678    0.1226 C   0  0  0  0  0  0  0  0  0  0  0  0
    7.1050   28.9198    2.0730 C   0  0  0  0  0  0  0  0  0  0  0  0
   -8.4367   17.9218   -4.9083 S   0  0  0  0  0  0  0  0  0  0  0  0
   -4.8775   14.9129    1.9105 C   0  0  0  0  0  0  0  0  0  0  0  0
   -5.8585   17.0876    1.8216 C   0  0  0  0  0  0  0  0  0  0  0  0
   12.4015   12.8530   -6.6363 N   0  0  0  0  0  0  0  0  0  0  0  0
    8.0631   19.3740   -0.3598 N   0  0  0  0  0  0  0  0  0  0  0  0
    4.1355    7.9579  -11.0140 N   0  0  0  0  0  0  0  0  0  0  0  0
    3.2772   20.3007   -6.1774 N   0  0  0  0  0  0  0  0  0  0  0  0
   -5.2994   17.4174    3.0562 C   0  0  0  0  0  0  0  0  0  0  0  0
   -4.3116   15.2125    3.1343 C   0  0  0  0  0  0  0  0  0  0  0  0
    3.8720   14.3300   -0.8165 O   0  0  0  0  0  0  0  0  0  0  0  0
   -3.9762   16.6673    4.9305 O   0  0  0  0  0  0  0  0  0  0  0  0
    7.3795   21.1397    0.4000 O   0  0  0  0  0  0  0  0  0  0  0  0
  -10.1955    5.7919   -2.9236 O   0  0  0  0  0  0  0  0  0  0  0  0
    5.9933   28.1193    1.7163 O   0  0  0  0  0  0  0  0  0  0  0  0
    5.8910   22.5964   -5.6513 C   0  0  0  0  0  0  0  0  0  0  0  0
  -10.5103    9.0084   -2.2121 C   0  0  0  0  0  0  0  0  0  0  0  0
    9.3244   26.8557   -1.8125 C   0  0  0  0  0  0  0  0  0  0  0  0
   -8.3320   11.9894   -7.5102 C   0  0  0  0  0  0  0  0  0  0  0  0
    6.5704   22.1556    1.4089 C   0  0  0  0  0  0  0  0  0  0  0  0
    6.2073    6.8950   -8.4420 C   0  0  0  0  0  0  0  0  0  0  0  0
    9.5014   13.6256   -4.8705 C   0  0  0  0  0  0  0  0  0  0  0  0
    6.3620   19.5837   -9.7371 C   0  0  0  0  0  0  0  0  0  0  0  0
   -9.3171   16.8776   -3.7159 C   0  0  0  0  0  0  0  0  0  0  0  0
    9.5735   28.8841   -0.4185 C   0  0  0  0  0  0  0  0  0  0  0  0
  -11.0923    6.5541   -1.7718 C   0  0  0  0  0  0  0  0  0  0  0  0
    5.1984    8.7658  -10.4090 C   0  0  0  0  0  0  0  0  0  0  0  0
    3.7019   21.2210   -7.8844 C   0  0  0  0  0  0  0  0  0  0  0  0
   11.2756   13.6033   -7.1809 C   0  0  0  0  0  0  0  0  0  0  0  0
    6.8034   19.3945   -0.0256 C   0  0  0  0  0  0  0  0  0  0  0  0
    3.6279   12.4906   -1.6762 C   0  0  0  0  0  0  0  0  0  0  0  0
   -6.6789   17.4973   -4.8855 C   0  0  0  0  0  0  0  0  0  0  0  0
    8.9724   28.3241   -1.6953 C   0  0  0  0  0  0  0  0  0  0  0  0
  -11.2403    8.0041   -1.3187 C   0  0  0  0  0  0  0  0  0  0  0  0
    6.7743   20.6706    1.9640 C   0  0  0  0  0  0  0  0  0  0  0  0
    4.8965    7.5946   -8.2913 C   0  0  0  0  0  0  0  0  0  0  0  0
    4.2912   23.3602   -6.2757 C   0  0  0  0  0  0  0  0  0  0  0  0
    9.7600   12.3911   -5.7067 C   0  0  0  0  0  0  0  0  0  0  0  0
   10.0233   12.7412   -7.1321 C   0  0  0  0  0  0  0  0  0  0  0  0
    6.2954   19.4013    1.2589 C   0  0  0  0  0  0  0  0  0  0  0  0
    3.7549   22.7432   -7.6321 C   0  0  0  0  0  0  0  0  0  0  0  0
    4.9194    8.9460   -8.9333 C   0  0  0  0  0  0  0  0  0  0  0  0
   -6.8575   11.6348   -7.4915 C   0  0  0  0  0  0  0  0  0  0  0  0
   -8.8930   11.7572   -8.8986 C   0  0  0  0  0  0  0  0  0  0  0  0
    6.5842   23.5473   -3.6946 H   0  0  0  0  0  0  0  0  0  0  0  0
    1.9648   19.2551   -2.3874 H   0  0  0  0  0  0  0  0  0  0  0  0
    5.9270   23.1950   -6.3467 H   0  0  0  0  0  0  0  0  0  0  0  0
    4.3688    6.2909   -7.5760 H   0  0  0  0  0  0  0  0  0  0  0  0
    4.7259   12.7870   -4.2659 H   0  0  0  0  0  0  0  0  0  0  0  0
    6.3440    5.6010   -6.9131 H   0  0  0  0  0  0  0  0  0  0  0  0
    2.5871   14.1650   -5.4094 H   0  0  0  0  0  0  0  0  0  0  0  0
    5.2207   24.0329   -1.0617 H   0  0  0  0  0  0  0  0  0  0  0  0
    0.5081   18.5799   -0.3104 H   0  0  0  0  0  0  0  0  0  0  0  0
    6.5040   26.1169   -7.5557 H   0  0  0  0  0  0  0  0  0  0  0  0
   -2.9638   12.4061   -5.1002 H   0  0  0  0  0  0  0  0  0  0  0  0
    3.0660   20.6634    0.8757 H   0  0  0  0  0  0  0  0  0  0  0  0
    9.4804   26.4888    2.0148 H   0  0  0  0  0  0  0  0  0  0  0  0
   -3.2893   18.0866   -0.5410 H   0  0  0  0  0  0  0  0  0  0  0  0
   -5.6167   16.7426   -3.2680 H   0  0  0  0  0  0  0  0  0  0  0  0
   -8.9872   10.5508   -3.1608 H   0  0  0  0  0  0  0  0  0  0  0  0
    7.1697   24.6278   -0.4191 H   0  0  0  0  0  0  0  0  0  0  0  0
  -11.2071    7.0151   -4.8705 H   0  0  0  0  0  0  0  0  0  0  0  0
   -6.5760   13.2334   -4.4704 H   0  0  0  0  0  0  0  0  0  0  0  0
    9.2096    7.4555   -6.9488 H   0  0  0  0  0  0  0  0  0  0  0  0
    7.4202   23.2666   -9.3704 H   0  0  0  0  0  0  0  0  0  0  0  0
   -6.7108    8.8587   -4.4023 H   0  0  0  0  0  0  0  0  0  0  0  0
    2.9916   20.0200    3.8119 H   0  0  0  0  0  0  0  0  0  0  0  0
    4.6541   21.7489   -0.1281 H   0  0  0  0  0  0  0  0  0  0  0  0
    8.9873   28.7352    3.0531 H   0  0  0  0  0  0  0  0  0  0  0  0
    3.2072   20.8012   -1.5394 H   0  0  0  0  0  0  0  0  0  0  0  0
   -1.1678   16.9598    0.2312 H   0  0  0  0  0  0  0  0  0  0  0  0
    9.3664   20.1481   -8.2538 H   0  0  0  0  0  0  0  0  0  0  0  0
    4.0422   24.2778    1.7204 H   0  0  0  0  0  0  0  0  0  0  0  0
    6.5082   13.9553   -6.4423 H   0  0  0  0  0  0  0  0  0  0  0  0
   -5.5892   17.5104   -0.8712 H   0  0  0  0  0  0  0  0  0  0  0  0
   -7.4748   11.1043   -5.1005 H   0  0  0  0  0  0  0  0  0  0  0  0
    3.9736   17.3929   -3.1735 H   0  0  0  0  0  0  0  0  0  0  0  0
    6.1406   25.8758    4.5083 H   0  0  0  0  0  0  0  0  0  0  0  0
    7.2750   10.5705   -8.0788 H   0  0  0  0  0  0  0  0  0  0  0  0
    8.5221   17.1867   -5.9641 H   0  0  0  0  0  0  0  0  0  0  0  0
   -1.9143   14.7153   -0.4195 H   0  0  0  0  0  0  0  0  0  0  0  0
   -1.7849   15.1626   -2.1105 H   0  0  0  0  0  0  0  0  0  0  0  0
    9.7283    4.0092   -7.2970 H   0  0  0  0  0  0  0  0  0  0  0  0
   -7.1796   15.6207   -4.7574 H   0  0  0  0  0  0  0  0  0  0  0  0
  -12.1015    9.0116   -3.6197 H   0  0  0  0  0  0  0  0  0  0  0  0
    5.6354   24.4486   -8.0149 H   0  0  0  0  0  0  0  0  0  0  0  0
    9.5187   25.5120   -0.1713 H   0  0  0  0  0  0  0  0  0  0  0  0
    7.8853   21.0242  -10.0994 H   0  0  0  0  0  0  0  0  0  0  0  0
    4.7550   22.5701    0.5531 H   0  0  0  0  0  0  0  0  0  0  0  0
    7.7296    8.3315   -8.7945 H   0  0  0  0  0  0  0  0  0  0  0  0
    8.0147   15.1520   -4.8090 H   0  0  0  0  0  0  0  0  0  0  0  0
   -7.0555    5.5625   -1.4608 H   0  0  0  0  0  0  0  0  0  0  0  0
   13.6101   28.8534   -0.4770 H   0  0  0  0  0  0  0  0  0  0  0  0
   -7.2551   15.8622   -0.1431 H   0  0  0  0  0  0  0  0  0  0  0  0
   -6.0907   14.5749   -0.3952 H   0  0  0  0  0  0  0  0  0  0  0  0
    7.5625   26.9863   -5.8145 H   0  0  0  0  0  0  0  0  0  0  0  0
    6.8669   27.3211   -6.2192 H   0  0  0  0  0  0  0  0  0  0  0  0
   -0.2321   21.1017   -1.9022 H   0  0  0  0  0  0  0  0  0  0  0  0
    1.3346   21.4631   -2.5945 H   0  0  0  0  0  0  0  0  0  0  0  0
    3.8115    3.5587   -7.8747 H   0  0  0  0  0  0  0  0  0  0  0  0
    4.1691    2.9138   -6.6741 H   0  0  0  0  0  0  0  0  0  0  0  0
    4.7063   25.7771   -2.9274 H   0  0  0  0  0  0  0  0  0  0  0  0
    4.3097   24.4302   -3.9717 H   0  0  0  0  0  0  0  0  0  0  0  0
    0.5926   19.5995    3.5168 H   0  0  0  0  0  0  0  0  0  0  0  0
    0.9970   21.2453    3.0757 H   0  0  0  0  0  0  0  0  0  0  0  0
   -8.9539   10.0906   -6.7745 H   0  0  0  0  0  0  0  0  0  0  0  0
  -10.1185   11.3780   -6.5229 H   0  0  0  0  0  0  0  0  0  0  0  0
    4.9384   26.4035    2.3528 H   0  0  0  0  0  0  0  0  0  0  0  0
    6.5357   26.6673    1.7230 H   0  0  0  0  0  0  0  0  0  0  0  0
    5.5406   11.7805   -6.7019 H   0  0  0  0  0  0  0  0  0  0  0  0
    5.9634   10.6672   -5.4499 H   0  0  0  0  0  0  0  0  0  0  0  0
    2.6105   17.5066   -0.5149 H   0  0  0  0  0  0  0  0  0  0  0  0
    2.3009   18.4930   -1.6815 H   0  0  0  0  0  0  0  0  0  0  0  0
   10.2811   18.0485   -7.5548 H   0  0  0  0  0  0  0  0  0  0  0  0
    9.8844   16.7020   -8.6017 H   0  0  0  0  0  0  0  0  0  0  0  0
    2.3345   13.9633   -2.1609 H   0  0  0  0  0  0  0  0  0  0  0  0
    8.3719    4.6561   -4.6825 H   0  0  0  0  0  0  0  0  0  0  0  0
    9.5344    3.3711   -4.9350 H   0  0  0  0  0  0  0  0  0  0  0  0
   -8.8441    6.8800   -2.2379 H   0  0  0  0  0  0  0  0  0  0  0  0
   11.4421   27.8046   -0.5294 H   0  0  0  0  0  0  0  0  0  0  0  0
   10.2804   31.3599   -0.2199 H   0  0  0  0  0  0  0  0  0  0  0  0
   11.8903   32.0751   -0.1860 H   0  0  0  0  0  0  0  0  0  0  0  0
  -10.9122    4.5628   -0.2153 H   0  0  0  0  0  0  0  0  0  0  0  0
   -9.5516    3.6159    0.3819 H   0  0  0  0  0  0  0  0  0  0  0  0
   10.8025    6.1014   -6.9242 H   0  0  0  0  0  0  0  0  0  0  0  0
   10.0455    6.2625   -5.4498 H   0  0  0  0  0  0  0  0  0  0  0  0
    1.8622   18.5548    0.4983 H   0  0  0  0  0  0  0  0  0  0  0  0
    2.4140   16.9250    0.9024 H   0  0  0  0  0  0  0  0  0  0  0  0
   -9.5463   15.2537   -5.0719 H   0  0  0  0  0  0  0  0  0  0  0  0
   -9.6757   14.8062   -3.3808 H   0  0  0  0  0  0  0  0  0  0  0  0
    1.9548   15.4249   -1.9482 H   0  0  0  0  0  0  0  0  0  0  0  0
   -9.2579    5.4054   -3.0960 H   0  0  0  0  0  0  0  0  0  0  0  0
   -9.3339    5.6263   -2.5314 H   0  0  0  0  0  0  0  0  0  0  0  0
    5.6501   20.3103    0.6414 H   0  0  0  0  0  0  0  0  0  0  0  0
    6.6074   19.8630   -1.2027 H   0  0  0  0  0  0  0  0  0  0  0  0
    6.7716   29.6800    2.7448 H   0  0  0  0  0  0  0  0  0  0  0  0
    7.5017   29.3795    1.1857 H   0  0  0  0  0  0  0  0  0  0  0  0
   -4.7120   13.9516    1.4664 H   0  0  0  0  0  0  0  0  0  0  0  0
   -6.4576   17.8061    1.2967 H   0  0  0  0  0  0  0  0  0  0  0  0
   13.2412   13.4285   -6.6652 H   0  0  0  0  0  0  0  0  0  0  0  0
   12.2031   12.5939   -5.6691 H   0  0  0  0  0  0  0  0  0  0  0  0
    8.4009   19.4324   -1.3068 H   0  0  0  0  0  0  0  0  0  0  0  0
    8.5223   20.0552    0.2320 H   0  0  0  0  0  0  0  0  0  0  0  0
    4.3238    7.8337  -12.0086 H   0  0  0  0  0  0  0  0  0  0  0  0
    4.1018    7.0434  -10.5623 H   0  0  0  0  0  0  0  0  0  0  0  0
    3.9156   19.4983   -6.5990 H   0  0  0  0  0  0  0  0  0  0  0  0
    4.0430   20.6989   -5.5357 H   0  0  0  0  0  0  0  0  0  0  0  0
   -5.4497   18.3908    3.4870 H   0  0  0  0  0  0  0  0  0  0  0  0
   -3.6965   14.4884    3.6310 H   0  0  0  0  0  0  0  0  0  0  0  0
    3.1863   15.6072   -0.4836 H   0  0  0  0  0  0  0  0  0  0  0  0
   -4.1179   17.5402    5.3794 H   0  0  0  0  0  0  0  0  0  0  0  0
    7.6595   21.7924   -0.3385 H   0  0  0  0  0  0  0  0  0  0  0  0
  -12.1738    5.3900   -2.2348 H   0  0  0  0  0  0  0  0  0  0  0  0
    6.2947   27.4566    1.0181 H   0  0  0  0  0  0  0  0  0  0  0  0
    6.1791   22.0955   -6.4087 H   0  0  0  0  0  0  0  0  0  0  0  0
    6.3406   23.5142   -5.3493 H   0  0  0  0  0  0  0  0  0  0  0  0
   -9.4427    8.8273   -2.1749 H   0  0  0  0  0  0  0  0  0  0  0  0
  -10.6899    9.9914   -1.8598 H   0  0  0  0  0  0  0  0  0  0  0  0
   10.3886   26.7399   -1.8467 H   0  0  0  0  0  0  0  0  0  0  0  0
    8.9445   26.4830   -2.7013 H   0  0  0  0  0  0  0  0  0  0  0  0
   -8.4529   13.0247   -7.2450 H   0  0  0  0  0  0  0  0  0  0  0  0
    6.9289   22.3528    0.3672 H   0  0  0  0  0  0  0  0  0  0  0  0
    7.1448   22.7558    1.9696 H   0  0  0  0  0  0  0  0  0  0  0  0
    6.4046    6.7512   -9.4757 H   0  0  0  0  0  0  0  0  0  0  0  0
    6.1516    5.9540   -7.9827 H   0  0  0  0  0  0  0  0  0  0  0  0
   10.3853   14.2281   -4.8972 H   0  0  0  0  0  0  0  0  0  0  0  0
    9.2909   13.3508   -3.8522 H   0  0  0  0  0  0  0  0  0  0  0  0
    5.4206   20.0713   -9.6092 H   0  0  0  0  0  0  0  0  0  0  0  0
    6.5593   19.4458  -10.7810 H   0  0  0  0  0  0  0  0  0  0  0  0
    6.3052   18.6346   -9.2617 H   0  0  0  0  0  0  0  0  0  0  0  0
  -10.3627   17.1331   -3.7265 H   0  0  0  0  0  0  0  0  0  0  0  0
   -8.9252   17.0473   -2.7312 H   0  0  0  0  0  0  0  0  0  0  0  0
    9.3123   29.9178   -0.3230 H   0  0  0  0  0  0  0  0  0  0  0  0
    9.1882   28.3660    0.4248 H   0  0  0  0  0  0  0  0  0  0  0  0
  -11.4698    5.8777   -1.1878 H   0  0  0  0  0  0  0  0  0  0  0  0
  -11.3476    6.5037   -2.8224 H   0  0  0  0  0  0  0  0  0  0  0  0
    5.2373    9.7258  -10.8861 H   0  0  0  0  0  0  0  0  0  0  0  0
    6.1438    8.2707  -10.5378 H   0  0  0  0  0  0  0  0  0  0  0  0
    3.7126   20.8442   -8.6807 H   0  0  0  0  0  0  0  0  0  0  0  0
    5.2432   20.9325   -7.8144 H   0  0  0  0  0  0  0  0  0  0  0  0
   11.4774   13.8835   -8.1984 H   0  0  0  0  0  0  0  0  0  0  0  0
   11.1206   14.4976   -6.5982 H   0  0  0  0  0  0  0  0  0  0  0  0
    6.0425   18.9749   -1.0408 H   0  0  0  0  0  0  0  0  0  0  0  0
    6.5950   20.8474   -0.9494 H   0  0  0  0  0  0  0  0  0  0  0  0
    3.0868   12.1412   -0.9220 H   0  0  0  0  0  0  0  0  0  0  0  0
    3.3577   12.0305   -2.6387 H   0  0  0  0  0  0  0  0  0  0  0  0
    4.6841   12.4755   -1.5646 H   0  0  0  0  0  0  0  0  0  0  0  0
   -6.2870   17.6688   -3.9109 H   0  0  0  0  0  0  0  0  0  0  0  0
   -6.5191   16.5018   -5.1720 H   0  0  0  0  0  0  0  0  0  0  0  0
   -6.1500   18.1025   -5.5894 H   0  0  0  0  0  0  0  0  0  0  0  0
    9.3617   28.8599   -2.5355 H   0  0  0  0  0  0  0  0  0  0  0  0
    7.9020   28.4357   -1.6733 H   0  0  0  0  0  0  0  0  0  0  0  0
  -10.8756    8.0904   -0.3185 H   0  0  0  0  0  0  0  0  0  0  0  0
  -12.2804    8.1898   -1.3617 H   0  0  0  0  0  0  0  0  0  0  0  0
    7.8118   20.4237    1.9348 H   0  0  0  0  0  0  0  0  0  0  0  0
    6.3668   20.6490    2.8927 H   0  0  0  0  0  0  0  0  0  0  0  0
    4.0915    6.9997   -8.6956 H   0  0  0  0  0  0  0  0  0  0  0  0
    4.9234    7.7792   -7.2814 H   0  0  0  0  0  0  0  0  0  0  0  0
    3.9677   22.7823   -5.4522 H   0  0  0  0  0  0  0  0  0  0  0  0
    4.0847   24.3627   -6.2216 H   0  0  0  0  0  0  0  0  0  0  0  0
   10.5441   11.8113   -5.2957 H   0  0  0  0  0  0  0  0  0  0  0  0
    9.0308   11.8111   -5.8984 H   0  0  0  0  0  0  0  0  0  0  0  0
   10.1650   11.8652   -7.7208 H   0  0  0  0  0  0  0  0  0  0  0  0
    9.1757   13.2573   -7.5335 H   0  0  0  0  0  0  0  0  0  0  0  0
    6.1193   18.6432    1.4306 H   0  0  0  0  0  0  0  0  0  0  0  0
    4.7971   19.8825    1.0737 H   0  0  0  0  0  0  0  0  0  0  0  0
    2.7153   22.8493   -7.5778 H   0  0  0  0  0  0  0  0  0  0  0  0
    4.1775   23.2700   -8.4467 H   0  0  0  0  0  0  0  0  0  0  0  0
    3.9793    9.4455   -8.7986 H   0  0  0  0  0  0  0  0  0  0  0  0
    5.6917    9.5383   -8.4927 H   0  0  0  0  0  0  0  0  0  0  0  0
   -6.7337   10.6010   -7.7549 H   0  0  0  0  0  0  0  0  0  0  0  0
   -6.3294   12.2469   -8.1962 H   0  0  0  0  0  0  0  0  0  0  0  0
   -6.4571   11.8002   -6.5098 H   0  0  0  0  0  0  0  0  0  0  0  0
   -9.9363   12.0093   -8.9144 H   0  0  0  0  0  0  0  0  0  0  0  0
   -8.3690   12.3698   -9.6074 H   0  0  0  0  0  0  0  0  0  0  0  0
   -8.7737   10.7240   -9.1663 H   0  0  0  0  0  0  0  0  0  0  0  0
  1183  1  0  0  0  0
  2  1  1  0  0  0  0
  2182  1  6  0  0  0
  3184  1  0  0  0  0
  4 17  1  0  0  0  0
  4185  1  0  0  0  0
  5186  1  0  0  0  0
  6  1  1  0  0  0  0
  7187  1  0  0  0  0
  8 12  1  0  0  0  0
  8188  1  0  0  0  0
  9189  1  0  0  0  0
 10 33  1  0  0  0  0
 10190  1  0  0  0  0
 11  3  1  0  0  0  0
 12 26  1  0  0  0  0
 13191  1  0  0  0  0
 14 28  1  0  0  0  0
 15192  1  0  0  0  0
 16193  1  0  0  0  0
 17 41  1  0  0  0  0
 18 38  1  0  0  0  0
 19 14  1  0  0  0  0
 19194  1  0  0  0  0
 20 18  1  0  0  0  0
 20195  1  0  0  0  0
 21196  1  0  0  0  0
 22 29  1  0  0  0  0
 22197  1  0  0  0  0
 23198  1  0  0  0  0
 24  5  1  0  0  0  0
 25  3  1  0  0  0  0
 25  6  1  0  0  0  0
 25181  1  1  0  0  0
 26  7  1  0  0  0  0
 26102  1  0  0  0  0
 26180  1  1  0  0  0
 27  5  1  0  0  0  0
 27 11  1  0  0  0  0
 27179  1  6  0  0  0
 28  4  1  0  0  0  0
 28178  1  6  0  0  0
 29 58  1  0  0  0  0
 30 13  1  0  0  0  0
 31 21  1  0  0  0  0
 32  7  1  0  0  0  0
 33 65  1  0  0  0  0
 34 15  1  0  0  0  0
 35  9  1  0  0  0  0
 36 16  1  0  0  0  0
 37 23  1  0  0  0  0
 38  8  1  0  0  0  0
 38132  1  0  0  0  0
 38199  1  6  0  0  0
 39  9  1  0  0  0  0
 39108  1  0  0  0  0
 39 59  1  0  0  0  0
 39200  1  1  0  0  0
 40  2  1  0  0  0  0
 41 43  1  0  0  0  0
 41133  1  0  0  0  0
 41201  1  1  0  0  0
 42 10  1  0  0  0  0
 42202  1  1  0  0  0
 42134  1  0  0  0  0
 43 66  1  0  0  0  0
 43203  1  0  0  0  0
 44 13  1  0  0  0  0
 44 24  1  0  0  0  0
 44 57  1  0  0  0  0
 44204  1  1  0  0  0
 45 42  1  0  0  0  0
 46 69  1  0  0  0  0
 46205  1  0  0  0  0
 47206  1  0  0  0  0
 48 67  1  0  0  0  0
 48207  1  0  0  0  0
 49 15  1  0  0  0  0
 49 30  1  0  0  0  0
 49 99  1  0  0  0  0
 49208  1  1  0  0  0
 50 16  1  0  0  0  0
 50 31  1  0  0  0  0
 50109  1  0  0  0  0
 50209  1  1  0  0  0
 51 72  1  0  0  0  0
 52 73  1  0  0  0  0
 53 40  1  0  0  0  0
 53210  1  0  0  0  0
 54111  1  0  0  0  0
 54 45  1  0  0  0  0
 54211  1  0  0  0  0
 55 51  1  0  0  0  0
 55212  1  0  0  0  0
 56 52  1  0  0  0  0
 56213  1  0  0  0  0
 57214  1  0  0  0  0
 57215  1  0  0  0  0
 58120  1  0  0  0  0
 58126  1  0  0  0  0
 58216  1  6  0  0  0
 60 21  1  0  0  0  0
 60 34  1  0  0  0  0
 60129  1  0  0  0  0
 60217  1  6  0  0  0
 61122  1  0  0  0  0
 62123  1  0  0  0  0
 63 36  1  0  0  0  0
 63 20  1  0  0  0  0
 63218  1  6  0  0  0
 63150  1  0  0  0  0
 64 23  1  0  0  0  0
 64 32  1  0  0  0  0
 64219  1  6  0  0  0
 64149  1  0  0  0  0
 65 19  1  0  0  0  0
 65220  1  1  0  0  0
 65151  1  0  0  0  0
 66113  1  0  0  0  0
 67112  1  0  0  0  0
 68 47  1  0  0  0  0
 69114  1  0  0  0  0
 70 37  1  0  0  0  0
 70 46  1  0  0  0  0
 70221  1  6  0  0  0
 70156  1  0  0  0  0
 71 47  1  0  0  0  0
 71 35  1  0  0  0  0
 71222  1  6  0  0  0
 71153  1  0  0  0  0
 72 22  1  0  0  0  0
 72223  1  6  0  0  0
 72154  1  0  0  0  0
 73 48  1  0  0  0  0
 73224  1  1  0  0  0
 73155  1  0  0  0  0
 74 57  1  0  0  0  0
 75103  1  0  0  0  0
 76105  1  0  0  0  0
 77104  1  0  0  0  0
 78 76  1  0  0  0  0
 79 75  1  0  0  0  0
 80 77  1  0  0  0  0
 81 61  2  0  0  0  0
 81225  1  0  0  0  0
 82 62  2  0  0  0  0
 82226  1  0  0  0  0
 83  6  2  0  0  0  0
 84 12  2  0  0  0  0
 85 14  2  0  0  0  0
 86 11  2  0  0  0  0
 87 17  2  0  0  0  0
 88 18  2  0  0  0  0
 89 29  2  0  0  0  0
 90 31  2  0  0  0  0
 91 30  2  0  0  0  0
 92 24  2  0  0  0  0
 93 33  2  0  0  0  0
 94 35  2  0  0  0  0
 95 37  2  0  0  0  0
 96 36  2  0  0  0  0
 97 34  2  0  0  0  0
 98 32  2  0  0  0  0
 99227  1  0  0  0  0
 99228  1  0  0  0  0
100 40  2  0  0  0  0
101 45  2  0  0  0  0
102 78  1  0  0  0  0
102229  1  0  0  0  0
102230  1  0  0  0  0
103 27  1  0  0  0  0
103231  1  0  0  0  0
103232  1  0  0  0  0
104 25  1  0  0  0  0
104233  1  0  0  0  0
104234  1  0  0  0  0
105 28  1  0  0  0  0
105235  1  0  0  0  0
105236  1  0  0  0  0
106 51  2  0  0  0  0
107 52  2  0  0  0  0
108 79  1  0  0  0  0
108237  1  0  0  0  0
108238  1  0  0  0  0
109239  1  0  0  0  0
109240  1  0  0  0  0
110 59  2  0  0  0  0
111 68  1  0  0  0  0
111241  1  0  0  0  0
111242  1  0  0  0  0
112 55  1  0  0  0  0
112243  1  0  0  0  0
112244  1  0  0  0  0
113 53  1  0  0  0  0
113245  1  0  0  0  0
113246  1  0  0  0  0
114 56  1  0  0  0  0
114247  1  0  0  0  0
114248  1  0  0  0  0
115249  1  6  0  0  0
115144  1  0  0  0  0
115  2  1  0  0  0  0
116 66  2  0  0  0  0
117 67  2  0  0  0  0
118 68  2  0  0  0  0
119 69  2  0  0  0  0
120 80  1  0  0  0  0
120250  1  0  0  0  0
120251  1  0  0  0  0
121 74  2  0  0  0  0
122159  1  0  0  0  0
122252  1  0  0  0  0
123158  1  0  0  0  0
123253  1  0  0  0  0
124 62  1  0  0  0  0
124254  1  0  0  0  0
124255  1  0  0  0  0
125 61  1  0  0  0  0
125256  1  0  0  0  0
125257  1  0  0  0  0
126258  1  0  0  0  0
126259  1  0  0  0  0
127 59  1  0  0  0  0
127260  1  0  0  0  0
127261  1  0  0  0  0
128 99  1  0  0  0  0
129262  1  0  0  0  0
129263  1  0  0  0  0
130142  2  0  0  0  0
131 74  1  0  0  0  0
131264  1  0  0  0  0
132265  1  0  0  0  0
132266  1  0  0  0  0
133267  1  0  0  0  0
133268  1  0  0  0  0
134269  1  0  0  0  0
134270  1  0  0  0  0
135157  1  0  0  0  0
136128  1  0  0  0  0
136271  1  0  0  0  0
137128  2  0  0  0  0
137272  1  0  0  0  0
138162  1  0  0  0  0
138273  1  0  0  0  0
138274  1  0  0  0  0
139163  1  0  0  0  0
139275  1  0  0  0  0
139276  1  0  0  0  0
140160  1  0  0  0  0
140277  1  0  0  0  0
140278  1  0  0  0  0
141161  1  0  0  0  0
141279  1  0  0  0  0
141280  1  0  0  0  0
142137  1  0  0  0  0
142281  1  0  0  0  0
143136  2  0  0  0  0
143130  1  0  0  0  0
143282  1  0  0  0  0
144283  1  0  0  0  0
145130  1  0  0  0  0
145284  1  0  0  0  0
146133  1  0  0  0  0
146285  1  0  0  0  0
147132  1  0  0  0  0
147286  1  0  0  0  0
148134  1  0  0  0  0
148287  1  0  0  0  0
149288  1  0  0  0  0
149289  1  0  0  0  0
150290  1  0  0  0  0
150291  1  0  0  0  0
151292  1  0  0  0  0
151293  1  0  0  0  0
152109  1  0  0  0  0
152294  1  0  0  0  0
153295  1  0  0  0  0
153296  1  0  0  0  0
154297  1  0  0  0  0
154298  1  0  0  0  0
155299  1  0  0  0  0
155300  1  0  0  0  0
156301  1  0  0  0  0
156302  1  0  0  0  0
156303  1  0  0  0  0
157129  1  0  0  0  0
157304  1  0  0  0  0
157305  1  0  0  0  0
158166  1  0  0  0  0
158306  1  0  0  0  0
158307  1  0  0  0  0
159167  1  0  0  0  0
159308  1  0  0  0  0
159309  1  0  0  0  0
160175  1  0  0  0  0
160310  1  0  0  0  0
160311  1  0  0  0  0
161174  1  0  0  0  0
161312  1  0  0  0  0
161313  1  0  0  0  0
162172  1  0  0  0  0
162314  1  0  0  0  0
162315  1  0  0  0  0
163173  1  0  0  0  0
163316  1  0  0  0  0
163317  1  0  0  0  0
164115  1  0  0  0  0
164318  1  0  0  0  0
164319  1  0  0  0  0
164320  1  0  0  0  0
165135  1  0  0  0  0
165321  1  0  0  0  0
165322  1  0  0  0  0
165323  1  0  0  0  0
166151  1  0  0  0  0
166324  1  0  0  0  0
166325  1  0  0  0  0
167150  1  0  0  0  0
167326  1  0  0  0  0
167327  1  0  0  0  0
168153  1  0  0  0  0
168328  1  0  0  0  0
168329  1  0  0  0  0
169154  1  0  0  0  0
169330  1  0  0  0  0
169331  1  0  0  0  0
170149  1  0  0  0  0
170332  1  0  0  0  0
170333  1  0  0  0  0
171155  1  0  0  0  0
171334  1  0  0  0  0
171335  1  0  0  0  0
172171  1  0  0  0  0
172336  1  0  0  0  0
172337  1  0  0  0  0
173168  1  0  0  0  0
173338  1  0  0  0  0
173339  1  0  0  0  0
174170  1  0  0  0  0
174340  1  0  0  0  0
174341  1  0  0  0  0
175169  1  0  0  0  0
175342  1  0  0  0  0
175343  1  0  0  0  0
176152  1  0  0  0  0
176344  1  0  0  0  0
176345  1  0  0  0  0
176346  1  0  0  0  0
177152  1  0  0  0  0
177347  1  0  0  0  0
177348  1  0  0  0  0
177349  1  0  0  0  0
M  END
>  <DRUGBANK_ID>
DB06283

>  <COMMON_NAME>
Ziconotide

>  <CAS_NUMBER>
107452-89-1

>  <UNII>
7I64C51O16

>  <SYNONYMS>
Ziconotida; Ziconotide

$$$$
