
 OpenBabel10282417233D

 81 86  0  0  1  0  0  0  0  0999 V2000
    4.3711    2.7046    2.4140 H   0  0  0  0  0  0  0  0  0  0  0  0
    4.0707    1.8631    3.0394 C   0  0  1  0  0  0  0  0  0  0  0  0
    2.5337    1.8001    3.0629 C   0  0  0  0  0  0  0  0  0  0  0  0
    2.0875    0.8167    4.1417 C   0  0  1  0  0  0  0  0  0  0  0  0
    2.7618   -0.4376    4.0663 O   0  0  0  0  0  0  0  0  0  0  0  0
    2.4275    1.4319    5.4922 C   0  0  0  0  0  0  0  0  0  0  0  0
    3.8763    1.8677    5.5770 C   0  0  0  0  0  0  0  0  0  0  0  0
    4.4778    2.0915    6.8146 C   0  0  0  0  0  0  0  0  0  0  0  0
    3.7540    1.9557    7.9658 O   0  0  0  0  0  0  0  0  0  0  0  0
    5.8285    2.4725    6.8953 C   0  0  0  0  0  0  0  0  0  0  0  0
    6.5846    2.6365    5.7300 C   0  0  0  0  0  0  0  0  0  0  0  0
    7.9946    3.0435    5.7896 C   0  0  0  0  0  0  0  0  0  0  0  0
    8.5982    3.1735    4.7175 O   0  0  0  0  0  0  0  0  0  0  0  0
    8.6368    3.2924    7.0912 C   0  0  0  0  0  0  0  0  0  0  0  0
    7.8761    3.1313    8.2522 C   0  0  0  0  0  0  0  0  0  0  0  0
    8.4431    3.3614    9.5097 C   0  0  0  0  0  0  0  0  0  0  0  0
    9.7689    3.7503    9.6096 C   0  0  0  0  0  0  0  0  0  0  0  0
   10.5338    3.9127    8.4564 C   0  0  0  0  0  0  0  0  0  0  0  0
    9.9834    3.6889    7.1902 C   0  0  0  0  0  0  0  0  0  0  0  0
   10.6914    3.8372    6.0295 O   0  0  0  0  0  0  0  0  0  0  0  0
   12.0512    4.2321    6.1152 C   0  0  0  0  0  0  0  0  0  0  0  0
    6.4696    2.7227    8.1950 C   0  0  0  0  0  0  0  0  0  0  0  0
    5.8590    2.6098    9.2704 O   0  0  0  0  0  0  0  0  0  0  0  0
    5.9867    2.4420    4.4891 C   0  0  0  0  0  0  0  0  0  0  0  0
    6.6607    2.6058    3.3003 O   0  0  0  0  0  0  0  0  0  0  0  0
    4.6395    2.0790    4.4085 C   0  0  0  0  0  0  0  0  0  0  0  0
    0.5901    0.5048    4.0816 C   0  0  0  0  0  0  0  0  0  0  0  0
   -0.2256    1.2685    3.5614 O   0  0  0  0  0  0  0  0  0  0  0  0
    0.1452   -0.8000    4.7549 C   0  0  0  0  0  0  0  0  0  0  0  0
    0.6079   -1.9833    4.1312 O   0  0  0  0  0  0  0  0  0  0  0  0
    4.7286    0.6758    2.5807 O   0  0  0  0  0  0  0  0  0  0  0  0
    4.4160    0.3821    1.2490 C   0  0  1  0  0  0  0  0  0  0  0  0
    4.7006    1.4201    0.1861 C   0  0  0  0  0  0  0  0  0  0  0  0
    4.1167    1.0671   -1.1999 C   0  0  2  0  0  0  0  0  0  0  0  0
    2.7028    1.5040   -1.2014 N   0  0  0  0  0  0  0  0  0  0  0  0
    4.4764   -0.4140   -1.5598 C   0  0  2  0  0  0  0  0  0  0  0  0
    3.9164   -0.9540   -2.7951 O   0  0  0  0  0  0  0  0  0  0  0  0
    2.4916   -1.1288   -3.0556 C   0  0  0  0  0  0  0  0  0  0  0  0
    1.7530   -2.2662   -2.2898 C   0  0  0  0  0  0  0  0  0  0  0  0
    2.4355   -3.4832   -2.1649 C   0  0  0  0  0  0  0  0  0  0  0  0
    2.0888   -4.4028   -1.1653 C   0  0  0  0  0  0  0  0  0  0  0  0
    1.1284   -4.0885   -0.1974 C   0  0  0  0  0  0  0  0  0  0  0  0
    0.4662   -2.8603   -0.2587 C   0  0  0  0  0  0  0  0  0  0  0  0
    0.6821   -1.9952   -1.3612 C   0  0  0  0  0  0  0  0  0  0  0  0
    4.3104   -1.3242   -0.3114 C   0  0  2  0  0  0  0  0  0  0  0  0
    2.8787   -1.3659    0.0769 C   0  0  0  0  0  0  0  0  0  0  0  0
    4.9727   -0.8661    0.8562 O   0  0  0  0  0  0  0  0  0  0  0  0
    2.0929    1.5370    2.0960 H   0  0  0  0  0  0  0  0  0  0  0  0
    2.1415    2.8061    3.2759 H   0  0  0  0  0  0  0  0  0  0  0  0
    3.2307   -0.5442    3.2221 H   0  0  0  0  0  0  0  0  0  0  0  0
    1.7944    2.3053    5.6957 H   0  0  0  0  0  0  0  0  0  0  0  0
    2.2350    0.6758    6.2602 H   0  0  0  0  0  0  0  0  0  0  0  0
    2.8456    1.6630    7.8187 H   0  0  0  0  0  0  0  0  0  0  0  0
    7.8478    3.2359   10.4136 H   0  0  0  0  0  0  0  0  0  0  0  0
   10.2093    3.9271   10.5866 H   0  0  0  0  0  0  0  0  0  0  0  0
   11.5668    4.2173    8.5807 H   0  0  0  0  0  0  0  0  0  0  0  0
   12.1408    5.2227    6.5719 H   0  0  0  0  0  0  0  0  0  0  0  0
   12.6399    3.4866    6.6590 H   0  0  0  0  0  0  0  0  0  0  0  0
   12.4493    4.2956    5.0984 H   0  0  0  0  0  0  0  0  0  0  0  0
    7.6060    2.8035    3.4927 H   0  0  0  0  0  0  0  0  0  0  0  0
    0.5017   -0.7845    5.7900 H   0  0  0  0  0  0  0  0  0  0  0  0
   -0.9447   -0.8431    4.7769 H   0  0  0  0  0  0  0  0  0  0  0  0
    0.5191   -1.8662    3.1719 H   0  0  0  0  0  0  0  0  0  0  0  0
    3.3569    0.3122    1.3461 H   0  0  0  0  0  0  0  0  0  0  0  0
    4.2985    2.3890    0.4796 H   0  0  0  0  0  0  0  0  0  0  0  0
    5.7853    1.5026    0.1302 H   0  0  0  0  0  0  0  0  0  0  0  0
    4.5983    1.7138   -1.9386 H   0  0  0  0  0  0  0  0  0  0  0  0
    2.3177    1.4640   -2.1414 H   0  0  0  0  0  0  0  0  0  0  0  0
    2.0947    0.9487   -0.6075 H   0  0  0  0  0  0  0  0  0  0  0  0
    5.5659   -0.3980   -1.7442 H   0  0  0  0  0  0  0  0  0  0  0  0
    1.9783   -0.1787   -2.9381 H   0  0  0  0  0  0  0  0  0  0  0  0
    2.4095   -1.3564   -4.1250 H   0  0  0  0  0  0  0  0  0  0  0  0
    3.3739   -3.6195   -2.7027 H   0  0  0  0  0  0  0  0  0  0  0  0
    2.6825   -5.3057   -1.0539 H   0  0  0  0  0  0  0  0  0  0  0  0
    1.0267   -4.7243    0.6819 H   0  0  0  0  0  0  0  0  0  0  0  0
    0.0292   -2.4713    0.6703 H   0  0  0  0  0  0  0  0  0  0  0  0
    0.3248   -0.9644   -1.2316 H   0  0  0  0  0  0  0  0  0  0  0  0
    4.6532   -2.3342   -0.5807 H   0  0  0  0  0  0  0  0  0  0  0  0
    2.4392   -0.9908   -0.8057 H   0  0  0  0  0  0  0  0  0  0  0  0
    2.6779   -2.3271    0.5073 H   0  0  0  0  0  0  0  0  0  0  0  0
    2.2844   -0.7029    0.6987 H   0  0  0  0  0  0  0  0  0  0  0  0
  2  1  1  6  0  0  0
  2  3  1  0  0  0  0
  2 26  1  0  0  0  0
  2 31  1  0  0  0  0
  3 48  1  0  0  0  0
  3 49  1  0  0  0  0
  4  3  1  0  0  0  0
  4  6  1  0  0  0  0
  4 27  1  6  0  0  0
  4  5  1  0  0  0  0
  5 50  1  0  0  0  0
  6  7  1  0  0  0  0
  6 51  1  0  0  0  0
  6 52  1  0  0  0  0
  7  8  2  0  0  0  0
  7 26  1  0  0  0  0
  8  9  1  0  0  0  0
  8 10  1  0  0  0  0
  9 53  1  0  0  0  0
 10 11  2  0  0  0  0
 10 22  1  0  0  0  0
 11 12  1  0  0  0  0
 11 24  1  0  0  0  0
 12 13  2  0  0  0  0
 12 14  1  0  0  0  0
 14 15  2  0  0  0  0
 14 19  1  0  0  0  0
 15 16  1  0  0  0  0
 15 22  1  0  0  0  0
 16 17  2  0  0  0  0
 16 54  1  0  0  0  0
 17 18  1  0  0  0  0
 17 55  1  0  0  0  0
 18 19  2  0  0  0  0
 18 56  1  0  0  0  0
 19 20  1  0  0  0  0
 20 21  1  0  0  0  0
 21 57  1  0  0  0  0
 21 58  1  0  0  0  0
 21 59  1  0  0  0  0
 22 23  2  0  0  0  0
 24 25  1  0  0  0  0
 24 26  2  0  0  0  0
 25 60  1  0  0  0  0
 27 28  2  0  0  0  0
 27 29  1  0  0  0  0
 29 30  1  0  0  0  0
 29 61  1  0  0  0  0
 29 62  1  0  0  0  0
 30 63  1  0  0  0  0
 32 33  1  0  0  0  0
 32 47  1  0  0  0  0
 32 64  1  6  0  0  0
 32 31  1  0  0  0  0
 33 65  1  0  0  0  0
 33 66  1  0  0  0  0
 34 33  1  0  0  0  0
 34 35  1  0  0  0  0
 34 67  1  6  0  0  0
 35 68  1  0  0  0  0
 35 69  1  0  0  0  0
 36 34  1  0  0  0  0
 36 37  1  0  0  0  0
 36 45  1  0  0  0  0
 36 70  1  6  0  0  0
 37 38  1  0  0  0  0
 38 39  1  0  0  0  0
 38 71  1  0  0  0  0
 38 72  1  0  0  0  0
 39 40  2  0  0  0  0
 39 44  1  0  0  0  0
 40 41  1  0  0  0  0
 40 73  1  0  0  0  0
 41 42  2  0  0  0  0
 41 74  1  0  0  0  0
 42 43  1  0  0  0  0
 42 75  1  0  0  0  0
 43 44  2  0  0  0  0
 43 76  1  0  0  0  0
 44 77  1  0  0  0  0
 45 46  1  0  0  0  0
 45 47  1  0  0  0  0
 45 78  1  6  0  0  0
 46 79  1  0  0  0  0
 46 80  1  0  0  0  0
 46 81  1  0  0  0  0
M  END
>  <DRUGBANK_ID>
DB17149

>  <COMMON_NAME>
Berubicin

>  <CAS_NUMBER>
677017-23-1

>  <UNII>
6QPN83HK2M

>  <SYNONYMS>
(8s,10s)-10-((3-amino-4-o-benzyl-2,3,6-trideoxy-a-l-lyxo-hexopyranosyl)oxy)-6,8,11-trihydroxy-8-(hydroxyacetyl)-1-methoxy-7,8,9,10-tetrahydrotetracene-5,12-dione; 5,12-naphthacenedione, 10-((3-amino-2,3,6-trideoxy-4-o-(phenylmethyl)-.alpha.-l-lyxo-hexopyranosyl)oxy)-7,8,9,10-tetrahydro-6,8,11-trihydroxy-8-(hydroxyacetyl)-1-methoxy-, (8s,10s)-

$$$$
