
 OpenBabel10282417133D

 63 62  0  0  0  0  0  0  0  0999 V2000
   -4.8966   -4.5540   -2.9933 O   0  0  0  0  0  0  0  0  0  0  0  0
   -4.3555   -3.5040   -2.3544 C   0  0  0  0  0  0  0  0  0  0  0  0
   -2.8302   -3.2175   -2.5061 C   0  0  2  0  0  0  0  0  0  0  0  0
   -2.0156   -4.1618   -3.4274 C   0  0  0  0  0  0  0  0  0  0  0  0
   -1.2153   -3.5591   -4.5961 C   0  0  0  0  0  0  0  0  0  0  0  0
   -0.1978   -2.5142   -4.2540 C   0  0  0  0  0  0  0  0  0  0  0  0
    1.0677   -2.8774   -3.8859 N   0  0  0  0  0  0  0  0  0  0  0  0
    2.0579   -1.9075   -3.2949 C   0  0  2  0  0  0  0  0  0  0  0  0
    1.5246   -0.8861   -2.1903 C   0  0  0  0  0  0  0  0  0  0  0  0
    0.1881   -0.9077   -1.8786 N   0  0  0  0  0  0  0  0  0  0  0  0
   -0.5511    0.1798   -1.2599 C   0  0  0  0  0  0  0  0  0  0  0  0
   -1.3608    1.0653   -2.2582 C   0  0  0  0  0  0  0  0  0  0  0  0
   -2.7315    1.1137   -2.0360 N   0  0  0  0  0  0  0  0  0  0  0  0
   -3.6215    1.9985   -2.7914 C   0  0  0  0  0  0  0  0  0  0  0  0
   -4.7585    1.2586   -3.5045 C   0  0  0  0  0  0  0  0  0  0  0  0
   -5.6883    0.5225   -2.5509 C   0  0  0  0  0  0  0  0  0  0  0  0
   -6.3758    1.4384   -1.6379 N   0  0  0  0  0  0  0  0  0  0  0  0
   -7.1567    0.6986   -0.6458 C   0  0  0  0  0  0  0  0  0  0  0  0
   -6.2889   -0.2053    0.2400 C   0  0  0  0  0  0  0  0  0  0  0  0
   -5.2106    0.5654    1.0136 C   0  0  0  0  0  0  0  0  0  0  0  0
   -5.8091    1.5933    1.9695 C   0  0  0  0  0  0  0  0  0  0  0  0
   -6.6558    0.9310    2.9527 N   0  0  0  0  0  0  0  0  0  0  0  0
   -5.0633   -2.8184   -1.6227 O   0  0  0  0  0  0  0  0  0  0  0  0
   -2.2264   -3.2511   -1.1456 N   0  0  0  0  0  0  0  0  0  0  0  0
   -0.6029   -1.3520   -4.1697 O   0  0  0  0  0  0  0  0  0  0  0  0
    2.9221   -1.1897   -4.3687 C   0  0  0  0  0  0  0  0  0  0  0  0
    4.3337   -0.1928   -3.7520 S   0  0  0  0  0  0  0  0  0  0  0  0
    2.2852   -0.1108   -1.6095 O   0  0  0  0  0  0  0  0  0  0  0  0
   -0.8330    1.6829   -3.1803 O   0  0  0  0  0  0  0  0  0  0  0  0
   -4.3411   -5.1510   -3.5169 H   0  0  0  0  0  0  0  0  0  0  0  0
   -2.7700   -2.1806   -2.8598 H   0  0  0  0  0  0  0  0  0  0  0  0
   -1.3601   -4.7966   -2.8204 H   0  0  0  0  0  0  0  0  0  0  0  0
   -2.6835   -4.8502   -3.9361 H   0  0  0  0  0  0  0  0  0  0  0  0
   -0.7463   -4.3605   -5.1742 H   0  0  0  0  0  0  0  0  0  0  0  0
   -1.9230   -3.0549   -5.2658 H   0  0  0  0  0  0  0  0  0  0  0  0
    1.4744   -3.6482   -4.4110 H   0  0  0  0  0  0  0  0  0  0  0  0
    2.7410   -2.5778   -2.7494 H   0  0  0  0  0  0  0  0  0  0  0  0
   -0.4015   -1.4383   -2.4940 H   0  0  0  0  0  0  0  0  0  0  0  0
   -1.2439   -0.3070   -0.5693 H   0  0  0  0  0  0  0  0  0  0  0  0
    0.1275    0.8300   -0.7058 H   0  0  0  0  0  0  0  0  0  0  0  0
   -3.1270    0.5663   -1.2827 H   0  0  0  0  0  0  0  0  0  0  0  0
   -4.0216    2.7343   -2.0842 H   0  0  0  0  0  0  0  0  0  0  0  0
   -3.0515    2.5640   -3.5331 H   0  0  0  0  0  0  0  0  0  0  0  0
   -5.3478    1.9646   -4.1025 H   0  0  0  0  0  0  0  0  0  0  0  0
   -4.3320    0.5254   -4.1994 H   0  0  0  0  0  0  0  0  0  0  0  0
   -6.4342   -0.0479   -3.1149 H   0  0  0  0  0  0  0  0  0  0  0  0
   -5.0682   -0.1992   -2.0171 H   0  0  0  0  0  0  0  0  0  0  0  0
   -5.7048    2.0291   -1.1516 H   0  0  0  0  0  0  0  0  0  0  0  0
   -7.6936    1.4267   -0.0270 H   0  0  0  0  0  0  0  0  0  0  0  0
   -7.9351    0.1151   -1.1470 H   0  0  0  0  0  0  0  0  0  0  0  0
   -6.9332   -0.7703    0.9196 H   0  0  0  0  0  0  0  0  0  0  0  0
   -5.8042   -0.9787   -0.3539 H   0  0  0  0  0  0  0  0  0  0  0  0
   -4.5799   -0.1451    1.5614 H   0  0  0  0  0  0  0  0  0  0  0  0
   -4.5326    1.0802    0.3230 H   0  0  0  0  0  0  0  0  0  0  0  0
   -5.0066    2.1361    2.4765 H   0  0  0  0  0  0  0  0  0  0  0  0
   -6.3912    2.3411    1.4202 H   0  0  0  0  0  0  0  0  0  0  0  0
   -7.1179    1.6278    3.5316 H   0  0  0  0  0  0  0  0  0  0  0  0
   -7.4080    0.4270    2.4835 H   0  0  0  0  0  0  0  0  0  0  0  0
   -2.7843   -2.6572   -0.5198 H   0  0  0  0  0  0  0  0  0  0  0  0
   -2.3355   -4.1859   -0.7448 H   0  0  0  0  0  0  0  0  0  0  0  0
    3.3886   -1.9322   -5.0295 H   0  0  0  0  0  0  0  0  0  0  0  0
    2.3055   -0.5429   -4.9968 H   0  0  0  0  0  0  0  0  0  0  0  0
    3.6192    0.5518   -2.8776 H   0  0  0  0  0  0  0  0  0  0  0  0
  1 30  1  0  0  0  0
  2  1  1  0  0  0  0
  3 24  1  0  0  0  0
  3 31  1  6  0  0  0
  3  4  1  0  0  0  0
  3  2  1  0  0  0  0
  4 32  1  0  0  0  0
  4 33  1  0  0  0  0
  5  4  1  0  0  0  0
  5 34  1  0  0  0  0
  5 35  1  0  0  0  0
  6  5  1  0  0  0  0
  7  6  1  0  0  0  0
  7 36  1  0  0  0  0
  8 26  1  0  0  0  0
  8 37  1  1  0  0  0
  8  9  1  0  0  0  0
  8  7  1  0  0  0  0
 10  9  1  0  0  0  0
 10 38  1  0  0  0  0
 11 10  1  0  0  0  0
 11 39  1  0  0  0  0
 11 40  1  0  0  0  0
 12 11  1  0  0  0  0
 13 12  1  0  0  0  0
 13 41  1  0  0  0  0
 14 13  1  0  0  0  0
 14 42  1  0  0  0  0
 14 43  1  0  0  0  0
 15 14  1  0  0  0  0
 15 44  1  0  0  0  0
 15 45  1  0  0  0  0
 16 15  1  0  0  0  0
 16 46  1  0  0  0  0
 16 47  1  0  0  0  0
 17 16  1  0  0  0  0
 17 48  1  0  0  0  0
 18 17  1  0  0  0  0
 18 49  1  0  0  0  0
 18 50  1  0  0  0  0
 19 18  1  0  0  0  0
 19 51  1  0  0  0  0
 19 52  1  0  0  0  0
 20 19  1  0  0  0  0
 20 53  1  0  0  0  0
 20 54  1  0  0  0  0
 21 20  1  0  0  0  0
 21 55  1  0  0  0  0
 21 56  1  0  0  0  0
 22 21  1  0  0  0  0
 22 57  1  0  0  0  0
 22 58  1  0  0  0  0
 23  2  2  0  0  0  0
 24 59  1  0  0  0  0
 24 60  1  0  0  0  0
 25  6  2  0  0  0  0
 26 61  1  0  0  0  0
 26 62  1  0  0  0  0
 27 26  1  0  0  0  0
 27 63  1  0  0  0  0
 28  9  2  0  0  0  0
 29 12  2  0  0  0  0
M  END
>  <DRUGBANK_ID>
DB03295

>  <SECONDARY_ACCESSION_NUMBERS>
EXPT03120

>  <COMMON_NAME>
Glutathionylspermidine

>  <CAS_NUMBER>
33932-35-3

>  <SYNONYMS>
N'-Glutathionylspermidine disulfide; N1-(gamma-L-Glutamyl-L-cysteinyl-glycyl)-spermidine

$$$$
