SX4
 OpenBabel10282417173D

 41 43  0  0  0  0  0  0  0  0999 V2000
   -3.1294   -5.8706    0.5187 Cl  0  0  0  0  0  0  0  0  0  0  0  0
   -1.4733   -5.7572    0.9897 C   0  0  0  0  0  0  0  0  0  0  0  0
   -1.1220   -6.2670    2.2592 C   0  0  0  0  0  0  0  0  0  0  0  0
    0.1922   -6.2328    2.7359 C   0  0  0  0  0  0  0  0  0  0  0  0
    1.1656   -5.6997    1.9442 C   0  0  0  0  0  0  0  0  0  0  0  0
    0.7977   -5.2078    0.7104 C   0  0  0  0  0  0  0  0  0  0  0  0
   -0.5003   -5.1788    0.1765 C   0  0  0  0  0  0  0  0  0  0  0  0
   -0.7574   -4.5595   -1.1946 C   0  0  0  0  0  0  0  0  0  0  0  0
    0.0209   -3.2263   -1.4248 C   0  0  1  0  0  0  0  0  0  0  0  0
    1.5461   -3.3735   -1.5877 C   0  0  0  0  0  0  0  0  0  0  0  0
    1.7122   -3.8814   -2.9898 C   0  0  0  0  0  0  0  0  0  0  0  0
    0.6763   -3.0986   -3.7448 C   0  0  0  0  0  0  0  0  0  0  0  0
   -0.2842   -2.6318   -2.7414 N   0  0  0  0  0  0  0  0  0  0  0  0
   -1.1019   -1.5039   -2.8853 C   0  0  0  0  0  0  0  0  0  0  0  0
   -1.7386   -1.0115   -1.9753 O   0  0  0  0  0  0  0  0  0  0  0  0
   -1.1716   -0.8628   -4.2378 C   0  0  0  0  0  0  0  0  0  0  0  0
   -1.5966   -1.5845   -5.3717 C   0  0  0  0  0  0  0  0  0  0  0  0
   -1.8818   -2.9487   -5.3389 N   0  0  0  0  0  0  0  0  0  0  0  0
   -0.8305    0.4986   -4.3455 C   0  0  0  0  0  0  0  0  0  0  0  0
   -0.8450    1.1156   -5.5983 C   0  0  0  0  0  0  0  0  0  0  0  0
   -0.3395    2.9297   -5.7790 Br  0  0  0  0  0  0  0  0  0  0  0  0
   -1.2094    0.3995   -6.7348 C   0  0  0  0  0  0  0  0  0  0  0  0
   -1.5689   -0.9441   -6.6177 C   0  0  0  0  0  0  0  0  0  0  0  0
   -0.2446   -2.5354   -0.6130 H   0  0  0  0  0  0  0  0  0  0  0  0
   -1.8830   -6.6933    2.9026 H   0  0  0  0  0  0  0  0  0  0  0  0
    0.4719   -6.6102    3.7106 H   0  0  0  0  0  0  0  0  0  0  0  0
    2.2116   -5.6262    2.2323 H   0  0  0  0  0  0  0  0  0  0  0  0
    1.6635   -4.8302    0.2403 H   0  0  0  0  0  0  0  0  0  0  0  0
   -0.5079   -5.2891   -1.9770 H   0  0  0  0  0  0  0  0  0  0  0  0
   -1.8300   -4.3598   -1.3448 H   0  0  0  0  0  0  0  0  0  0  0  0
    2.0270   -2.4136   -1.3811 H   0  0  0  0  0  0  0  0  0  0  0  0
    2.1485   -4.0859   -1.0647 H   0  0  0  0  0  0  0  0  0  0  0  0
    2.7391   -3.7573   -3.3345 H   0  0  0  0  0  0  0  0  0  0  0  0
    1.4863   -4.9577   -3.0165 H   0  0  0  0  0  0  0  0  0  0  0  0
    1.1369   -2.2657   -4.2774 H   0  0  0  0  0  0  0  0  0  0  0  0
    0.1753   -3.7817   -4.4284 H   0  0  0  0  0  0  0  0  0  0  0  0
   -2.3226   -3.3842   -6.1374 H   0  0  0  0  0  0  0  0  0  0  0  0
   -2.0784   -3.3625   -4.4300 H   0  0  0  0  0  0  0  0  0  0  0  0
   -0.5462    1.0645   -3.4613 H   0  0  0  0  0  0  0  0  0  0  0  0
   -1.2209    0.8706   -7.7152 H   0  0  0  0  0  0  0  0  0  0  0  0
   -1.8400   -1.4941   -7.5153 H   0  0  0  0  0  0  0  0  0  0  0  0
  1  2  1  0  0  0  0
  2  3  1  0  0  0  0
  3  4  2  0  0  0  0
  3 25  1  0  0  0  0
  4 26  1  0  0  0  0
  5  4  1  0  0  0  0
  5 27  1  0  0  0  0
  6  5  2  0  0  0  0
  6 28  1  0  0  0  0
  7  2  2  0  0  0  0
  7  6  1  0  0  0  0
  8  7  1  0  0  0  0
  8 29  1  0  0  0  0
  8 30  1  0  0  0  0
  9 24  1  1  0  0  0
  9  8  1  0  0  0  0
 10  9  1  0  0  0  0
 10 31  1  0  0  0  0
 10 32  1  0  0  0  0
 11 10  1  0  0  0  0
 11 12  1  0  0  0  0
 11 33  1  0  0  0  0
 11 34  1  0  0  0  0
 12 13  1  0  0  0  0
 12 35  1  0  0  0  0
 12 36  1  0  0  0  0
 13  9  1  0  0  0  0
 14 13  1  0  0  0  0
 14 16  1  0  0  0  0
 15 14  2  0  0  0  0
 16 17  1  0  0  0  0
 17 23  2  0  0  0  0
 17 18  1  0  0  0  0
 18 37  1  0  0  0  0
 18 38  1  0  0  0  0
 19 16  2  0  0  0  0
 19 20  1  0  0  0  0
 19 39  1  0  0  0  0
 20 22  2  0  0  0  0
 21 20  1  0  0  0  0
 22 23  1  0  0  0  0
 22 40  1  0  0  0  0
 23 41  1  0  0  0  0
M  END
>  <DRUGBANK_ID>
DB08580

>  <COMMON_NAME>
4-bromo-2-{[(2R)-2-(2-chlorobenzyl)pyrrolidin-1-yl]carbonyl}aniline

$$$$
