
 OpenBabel10282417133D

 26 26  0  0  0  0  0  0  0  0999 V2000
    0.7881    1.1279    0.0527 O   0  0  0  0  0  0  0  0  0  0  0  0
   -1.3260   -0.0496   -1.7962 O   0  0  0  0  0  0  0  0  0  0  0  0
   -0.9961   -1.3614    1.6816 O   0  0  0  0  0  0  0  0  0  0  0  0
    1.3633   -2.5763    0.6171 O   0  0  0  0  0  0  0  0  0  0  0  0
   -0.9042    1.3270    1.6716 O   0  0  0  0  0  0  0  0  0  0  0  0
   -0.7360   -1.3406    0.2612 C   0  0  2  0  0  0  0  0  0  0  0  0
    0.7817   -1.4032    0.0491 C   0  0  1  0  0  0  0  0  0  0  0  0
   -1.3141   -0.0469   -0.3525 C   0  0  1  0  0  0  0  0  0  0  0  0
    1.4655   -0.0692    0.4636 C   0  0  2  0  0  0  0  0  0  0  0  0
   -0.6193    1.1721    0.2868 C   0  0  2  0  0  0  0  0  0  0  0  0
    1.7811    0.0398    1.9522 C   0  0  0  0  0  0  0  0  0  0  0  0
   -0.1333    0.2780   -2.5043 C   0  0  0  0  0  0  0  0  0  0  0  0
   -1.8459   -1.8243    1.8139 H   0  0  0  0  0  0  0  0  0  0  0  0
    1.6501   -2.3847    1.5346 H   0  0  0  0  0  0  0  0  0  0  0  0
   -0.8360    0.4380    2.0735 H   0  0  0  0  0  0  0  0  0  0  0  0
   -1.2100   -2.2279   -0.1731 H   0  0  0  0  0  0  0  0  0  0  0  0
    0.9454   -1.5814   -1.0104 H   0  0  0  0  0  0  0  0  0  0  0  0
   -2.3710   -0.0040   -0.0546 H   0  0  0  0  0  0  0  0  0  0  0  0
    2.4247   -0.0333   -0.0685 H   0  0  0  0  0  0  0  0  0  0  0  0
   -0.9912    2.0828   -0.1959 H   0  0  0  0  0  0  0  0  0  0  0  0
    1.5016    1.0148    2.3603 H   0  0  0  0  0  0  0  0  0  0  0  0
    1.2655   -0.7198    2.5432 H   0  0  0  0  0  0  0  0  0  0  0  0
    2.8534   -0.0949    2.1131 H   0  0  0  0  0  0  0  0  0  0  0  0
    0.2904    1.2415   -2.2145 H   0  0  0  0  0  0  0  0  0  0  0  0
    0.6216   -0.4990   -2.4270 H   0  0  0  0  0  0  0  0  0  0  0  0
   -0.3649    0.3314   -3.5695 H   0  0  0  0  0  0  0  0  0  0  0  0
  1  9  1  0  0  0  0
  1 10  1  0  0  0  0
  2 12  1  0  0  0  0
  3 13  1  0  0  0  0
  4 14  1  0  0  0  0
  5 15  1  0  0  0  0
  6  7  1  0  0  0  0
  6  8  1  0  0  0  0
  6 16  1  6  0  0  0
  6  3  1  0  0  0  0
  7  9  1  0  0  0  0
  7 17  1  6  0  0  0
  7  4  1  0  0  0  0
  8  2  1  0  0  0  0
  8 10  1  0  0  0  0
  8 18  1  1  0  0  0
  9 19  1  6  0  0  0
  9 11  1  0  0  0  0
 10  5  1  0  0  0  0
 10 20  1  6  0  0  0
 11 21  1  0  0  0  0
 11 22  1  0  0  0  0
 11 23  1  0  0  0  0
 12 24  1  0  0  0  0
 12 25  1  0  0  0  0
 12 26  1  0  0  0  0
M  END
>  <DRUGBANK_ID>
DB03863

>  <SECONDARY_ACCESSION_NUMBERS>
EXPT02262

>  <COMMON_NAME>
2-O-Methyl-beta-L-fucopyranose

>  <CAS_NUMBER>
108266-96-2

>  <UNII>
4PLV4YP7CJ

>  <SYNONYMS>
6-Deoxy-2-O-methyl-beta-L-galactopyranose; 6-Deoxy-2-O-methyl-Î²-L-galactopyranose

$$$$
