
 OpenBabel10282417123D

 67 70  0  0  1  0  0  0  0  0999 V2000
   -3.1524   12.0771    2.1909 C   0  0  0  0  0  0  0  0  0  0  0  0
   -3.1869   10.7075    2.7406 O   0  0  0  0  0  0  0  0  0  0  0  0
   -4.3079    9.9455    3.1325 C   0  0  0  0  0  0  0  0  0  0  0  0
   -5.3928   10.3874    3.2273 O   0  0  0  0  0  0  0  0  0  0  0  0
   -3.7974    8.3152    2.8535 C   0  0  3  0  0  0  0  0  0  0  0  0
   -2.3072    8.1704    3.0974 C   0  0  0  0  0  0  0  0  0  0  0  0
   -1.3061    8.6661    1.8988 C   0  0  0  0  0  0  0  0  0  0  0  0
   -1.4148    8.0322    0.5594 N   0  0  0  0  0  0  0  0  0  0  0  0
   -2.6889    8.1338    0.0336 C   0  0  0  0  0  0  0  0  0  0  0  0
   -3.7028    7.4494    1.5480 C   0  0  0  0  0  0  0  0  0  0  0  0
   -0.5522    7.0779    0.0376 C   0  0  0  0  0  0  0  0  0  0  0  0
    0.4992    6.8241    0.6215 O   0  0  0  0  0  0  0  0  0  0  0  0
   -0.9448    6.2856   -1.2992 C   0  0  2  0  0  0  0  0  0  0  0  0
   -1.6332    4.8432   -1.0673 C   0  0  0  0  0  0  0  0  0  0  0  0
   -3.1996    4.9695   -1.0570 C   0  0  0  0  0  0  0  0  0  0  0  0
   -4.2813    4.2115   -1.2977 C   0  0  0  0  0  0  0  0  0  0  0  0
   -5.6206    4.7360   -0.9525 C   0  0  0  0  0  0  0  0  0  0  0  0
   -5.9683    6.0945   -0.5470 C   0  0  0  0  0  0  0  0  0  0  0  0
   -4.9917    7.0278   -0.5366 C   0  0  0  0  0  0  0  0  0  0  0  0
   -3.7111    6.1653   -0.6074 C   0  0  0  0  0  0  0  0  0  0  0  0
   -5.2875    8.6358    0.3288 C   0  0  0  0  0  0  0  0  0  0  0  0
   -4.3017    9.6588    0.5648 N   0  0  0  0  0  0  0  0  0  0  0  0
   -6.3291    8.6332    1.1126 N   0  0  0  0  0  0  0  0  0  0  0  0
    0.2037    6.3060   -2.2463 N   0  0  0  0  0  0  0  0  0  0  0  0
    0.7024    7.8981   -2.7949 S   0  0  0  0  0  0  0  0  0  0  0  0
    0.9256    8.7072   -1.5746 O   0  0  0  0  0  0  0  0  0  0  0  0
    1.7412    7.6837   -3.7242 O   0  0  0  0  0  0  0  0  0  0  0  0
   -0.7145    8.6900   -3.6363 C   0  0  0  0  0  0  0  0  0  0  0  0
   -1.7396    7.8861   -4.1023 C   0  0  0  0  0  0  0  0  0  0  0  0
   -2.8257    8.4784   -4.7446 C   0  0  0  0  0  0  0  0  0  0  0  0
   -2.8874    9.8621   -5.0121 C   0  0  0  0  0  0  0  0  0  0  0  0
   -3.7427   10.3725   -5.9972 C   0  0  0  0  0  0  0  0  0  0  0  0
   -3.6534   11.7119   -6.3930 C   0  0  0  0  0  0  0  0  0  0  0  0
   -3.9285   12.4968   -5.3512 C   0  0  0  0  0  0  0  0  0  0  0  0
   -2.9450   12.1368   -4.3638 C   0  0  0  0  0  0  0  0  0  0  0  0
   -2.1476   10.7790   -4.3100 C   0  0  0  0  0  0  0  0  0  0  0  0
   -0.9001   10.1177   -3.7191 C   0  0  0  0  0  0  0  0  0  0  0  0
   -2.2222   12.1559    1.5983 H   0  0  0  0  0  0  0  0  0  0  0  0
   -3.0876   12.7739    3.0184 H   0  0  0  0  0  0  0  0  0  0  0  0
   -3.9669   12.3234    1.4927 H   0  0  0  0  0  0  0  0  0  0  0  0
   -4.5233    7.7467    3.4844 H   0  0  0  0  0  0  0  0  0  0  0  0
   -2.1336    8.7136    4.0184 H   0  0  0  0  0  0  0  0  0  0  0  0
   -2.1339    7.0995    3.2727 H   0  0  0  0  0  0  0  0  0  0  0  0
   -1.4367    9.7364    1.6995 H   0  0  0  0  0  0  0  0  0  0  0  0
   -0.2901    8.5333    2.2404 H   0  0  0  0  0  0  0  0  0  0  0  0
   -2.8354    7.8087   -1.0297 H   0  0  0  0  0  0  0  0  0  0  0  0
   -2.8141    9.1265   -0.4743 H   0  0  0  0  0  0  0  0  0  0  0  0
   -3.3587    6.4114    1.7919 H   0  0  0  0  0  0  0  0  0  0  0  0
   -4.7442    7.0694    1.4895 H   0  0  0  0  0  0  0  0  0  0  0  0
   -1.6741    6.8122   -1.8916 H   0  0  0  0  0  0  0  0  0  0  0  0
   -1.3532    4.1515   -1.8669 H   0  0  0  0  0  0  0  0  0  0  0  0
   -1.2201    4.4344   -0.1246 H   0  0  0  0  0  0  0  0  0  0  0  0
   -4.1431    3.2201   -1.6994 H   0  0  0  0  0  0  0  0  0  0  0  0
   -6.4360    4.0269   -0.9618 H   0  0  0  0  0  0  0  0  0  0  0  0
   -6.9127    6.3403   -0.0684 H   0  0  0  0  0  0  0  0  0  0  0  0
   -2.8913    6.2772    0.1008 H   0  0  0  0  0  0  0  0  0  0  0  0
   -4.1397   10.3483    1.2864 H   0  0  0  0  0  0  0  0  0  0  0  0
   -3.4575    9.2993    0.9923 H   0  0  0  0  0  0  0  0  0  0  0  0
   -6.2473    9.3370    1.8764 H   0  0  0  0  0  0  0  0  0  0  0  0
    1.0226    5.8505   -1.8226 H   0  0  0  0  0  0  0  0  0  0  0  0
   -1.7144    6.8030   -4.0222 H   0  0  0  0  0  0  0  0  0  0  0  0
   -3.6293    7.8414   -5.1039 H   0  0  0  0  0  0  0  0  0  0  0  0
   -4.6663    9.8261   -6.1727 H   0  0  0  0  0  0  0  0  0  0  0  0
   -2.6872   12.1168   -6.7410 H   0  0  0  0  0  0  0  0  0  0  0  0
   -5.0365   12.4956   -5.4968 H   0  0  0  0  0  0  0  0  0  0  0  0
   -2.5988   12.9541   -3.7357 H   0  0  0  0  0  0  0  0  0  0  0  0
   -0.0589   10.7359   -3.3868 H   0  0  0  0  0  0  0  0  0  0  0  0
  1  2  1  0  0  0  0
  1 38  1  0  0  0  0
  1 39  1  0  0  0  0
  1 40  1  0  0  0  0
  2  3  1  0  0  0  0
  3  4  2  0  0  0  0
  3  5  1  0  0  0  0
  5  6  1  0  0  0  0
  5 10  1  0  0  0  0
  5 41  1  0  0  0  0
  6  7  1  0  0  0  0
  6 42  1  0  0  0  0
  6 43  1  0  0  0  0
  7  8  1  0  0  0  0
  7 44  1  0  0  0  0
  7 45  1  0  0  0  0
  8  9  1  0  0  0  0
  8 11  1  0  0  0  0
  9 10  1  0  0  0  0
  9 46  1  0  0  0  0
  9 47  1  0  0  0  0
 10 48  1  0  0  0  0
 10 49  1  0  0  0  0
 11 12  2  0  0  0  0
 13 24  1  0  0  0  0
 13 50  1  6  0  0  0
 13 14  1  0  0  0  0
 13 11  1  0  0  0  0
 14 15  1  0  0  0  0
 14 51  1  0  0  0  0
 14 52  1  0  0  0  0
 15 16  2  0  0  0  0
 15 20  1  0  0  0  0
 16 17  1  0  0  0  0
 16 53  1  0  0  0  0
 17 18  2  0  0  0  0
 17 54  1  0  0  0  0
 18 19  1  0  0  0  0
 18 55  1  0  0  0  0
 19 20  2  0  0  0  0
 19 21  1  0  0  0  0
 20 56  1  0  0  0  0
 21 22  1  0  0  0  0
 21 23  2  0  0  0  0
 22 57  1  0  0  0  0
 22 58  1  0  0  0  0
 23 59  1  0  0  0  0
 24 25  1  0  0  0  0
 24 60  1  0  0  0  0
 25 26  2  0  0  0  0
 25 27  2  0  0  0  0
 25 28  1  0  0  0  0
 28 29  2  0  0  0  0
 28 37  1  0  0  0  0
 29 30  1  0  0  0  0
 29 61  1  0  0  0  0
 30 31  2  0  0  0  0
 30 62  1  0  0  0  0
 31 32  1  0  0  0  0
 31 36  1  0  0  0  0
 32 33  2  0  0  0  0
 32 63  1  0  0  0  0
 33 34  1  0  0  0  0
 33 64  1  0  0  0  0
 34 35  2  0  0  0  0
 34 65  1  0  0  0  0
 35 36  1  0  0  0  0
 35 66  1  0  0  0  0
 36 37  2  0  0  0  0
 37 67  1  0  0  0  0
M  END
>  <DRUGBANK_ID>
DB01745

>  <SECONDARY_ACCESSION_NUMBERS>
EXPT01410

>  <COMMON_NAME>
N-Alpha-(2-Naphthylsulfonyl)-N(3-Amidino-L-Phenylalaninyl)Isopipecolinic Acid Methyl Ester

$$$$
