5CB
 OpenBabel10282417163D

 55 58  0  0  0  0  0  0  0  0999 V2000
    0.9764    0.0201   -0.0506 O   0  0  0  0  0  0  0  0  0  0  0  0
    5.7488   -4.3550   -0.5550 Cl  0  0  0  0  0  0  0  0  0  0  0  0
    1.6368    4.8954   -1.3358 Cl  0  0  0  0  0  0  0  0  0  0  0  0
    5.2371   -4.0226    2.0681 C   0  0  0  0  0  0  0  0  0  0  0  0
    4.9424   -3.2671    3.2034 C   0  0  0  0  0  0  0  0  0  0  0  0
    5.3875   -3.4074    0.8349 C   0  0  0  0  0  0  0  0  0  0  0  0
    4.7944   -1.8764    3.0731 C   0  0  0  0  0  0  0  0  0  0  0  0
    5.2585   -2.0245    0.7069 C   0  0  0  0  0  0  0  0  0  0  0  0
    4.9569   -1.2319    1.8445 C   0  0  0  0  0  0  0  0  0  0  0  0
    4.4158   -0.7722    4.3332 S   0  0  0  0  0  0  0  0  0  0  0  0
    4.4738    0.5544    3.2751 C   0  0  0  0  0  0  0  0  0  0  0  0
    4.8078    0.1955    1.9826 C   0  0  0  0  0  0  0  0  0  0  0  0
    5.0377    1.1810    0.8931 C   0  0  0  0  0  0  0  0  0  0  0  0
    3.9930    1.0629   -0.0919 N   0  0  0  0  0  0  0  0  0  0  0  0
    3.2045    2.1619   -0.3252 C   0  0  0  0  0  0  0  0  0  0  0  0
    2.1667    1.9943   -1.4337 C   0  0  0  0  0  0  0  0  0  0  0  0
    0.5373    3.6758   -0.5642 C   0  0  1  0  0  0  0  0  0  0  0  0
    0.8399    2.2761   -0.9093 N   0  0  0  0  0  0  0  0  0  0  0  0
    0.3429    4.0699    0.9075 C   0  0  0  0  0  0  0  0  0  0  0  0
    0.3236    1.2859    0.0439 C   0  0  2  0  0  0  0  0  0  0  0  0
    0.1597    3.0033    1.8790 N   0  0  0  0  0  0  0  0  0  0  0  0
    0.2275    1.7660    1.5311 C   0  0  0  0  0  0  0  0  0  0  0  0
    0.1324    0.8126    2.5227 N   0  0  0  0  0  0  0  0  0  0  0  0
   -0.0892    1.1264    3.9321 C   0  0  0  0  0  0  0  0  0  0  0  0
   -1.4139    0.5456    4.4157 C   0  0  0  0  0  0  0  0  0  0  0  0
   -2.4850   -1.6266    3.7489 C   0  0  0  0  0  0  0  0  0  0  0  0
   -1.4261   -0.9598    4.3550 C   0  0  0  0  0  0  0  0  0  0  0  0
   -2.5526   -3.0112    3.8577 C   0  0  0  0  0  0  0  0  0  0  0  0
   -0.3953   -1.6173    4.9402 N   0  0  0  0  0  0  0  0  0  0  0  0
   -1.5196   -3.6977    4.4823 C   0  0  0  0  0  0  0  0  0  0  0  0
   -0.4451   -2.9665    4.9544 C   0  0  0  0  0  0  0  0  0  0  0  0
    3.2889    3.1591    0.3728 O   0  0  0  0  0  0  0  0  0  0  0  0
   -0.3957    3.9050   -1.0832 H   0  0  0  0  0  0  0  0  0  0  0  0
   -0.7124    1.0812   -0.2454 H   0  0  0  0  0  0  0  0  0  0  0  0
    1.8551    0.1269    0.3524 H   0  0  0  0  0  0  0  0  0  0  0  0
    5.3490   -5.0984    2.1643 H   0  0  0  0  0  0  0  0  0  0  0  0
    4.8318   -3.7399    4.1745 H   0  0  0  0  0  0  0  0  0  0  0  0
    5.3953   -1.5610   -0.2667 H   0  0  0  0  0  0  0  0  0  0  0  0
    4.2919    1.5505    3.6590 H   0  0  0  0  0  0  0  0  0  0  0  0
    5.9917    1.0058    0.3901 H   0  0  0  0  0  0  0  0  0  0  0  0
    5.0782    2.1902    1.3164 H   0  0  0  0  0  0  0  0  0  0  0  0
    3.9228    0.2362   -0.6702 H   0  0  0  0  0  0  0  0  0  0  0  0
    2.1942    0.9883   -1.8713 H   0  0  0  0  0  0  0  0  0  0  0  0
    2.4138    2.6374   -2.2841 H   0  0  0  0  0  0  0  0  0  0  0  0
    1.1918    4.6563    1.2750 H   0  0  0  0  0  0  0  0  0  0  0  0
   -0.5373    4.7202    0.9681 H   0  0  0  0  0  0  0  0  0  0  0  0
    0.2041   -0.1742    2.2872 H   0  0  0  0  0  0  0  0  0  0  0  0
    0.7494    0.7514    4.5289 H   0  0  0  0  0  0  0  0  0  0  0  0
   -0.1216    2.2088    4.1059 H   0  0  0  0  0  0  0  0  0  0  0  0
   -1.5956    0.8503    5.4551 H   0  0  0  0  0  0  0  0  0  0  0  0
   -2.2382    0.9602    3.8215 H   0  0  0  0  0  0  0  0  0  0  0  0
   -3.2498   -1.0812    3.2058 H   0  0  0  0  0  0  0  0  0  0  0  0
   -3.4045   -3.5494    3.4534 H   0  0  0  0  0  0  0  0  0  0  0  0
   -1.5433   -4.7766    4.5805 H   0  0  0  0  0  0  0  0  0  0  0  0
    0.4328   -3.4592    5.3619 H   0  0  0  0  0  0  0  0  0  0  0  0
  1 35  1  0  0  0  0
  2  6  1  0  0  0  0
  4  5  1  0  0  0  0
  4  6  2  0  0  0  0
  4 36  1  0  0  0  0
  5  7  2  0  0  0  0
  5 37  1  0  0  0  0
  6  8  1  0  0  0  0
  7  9  1  0  0  0  0
  7 10  1  0  0  0  0
  8  9  2  0  0  0  0
  8 38  1  0  0  0  0
  9 12  1  0  0  0  0
 10 11  1  0  0  0  0
 11 12  2  0  0  0  0
 11 39  1  0  0  0  0
 12 13  1  0  0  0  0
 13 14  1  0  0  0  0
 13 40  1  0  0  0  0
 13 41  1  0  0  0  0
 14 15  1  0  0  0  0
 14 42  1  0  0  0  0
 15 16  1  0  0  0  0
 15 32  2  0  0  0  0
 16 18  1  0  0  0  0
 16 43  1  0  0  0  0
 16 44  1  0  0  0  0
 17  3  1  0  0  0  0
 17 18  1  0  0  0  0
 17 19  1  0  0  0  0
 17 33  1  6  0  0  0
 18 20  1  0  0  0  0
 19 21  1  0  0  0  0
 19 45  1  0  0  0  0
 19 46  1  0  0  0  0
 20  1  1  0  0  0  0
 20 22  1  0  0  0  0
 20 34  1  6  0  0  0
 21 22  2  0  0  0  0
 22 23  1  0  0  0  0
 23 24  1  0  0  0  0
 23 47  1  0  0  0  0
 24 25  1  0  0  0  0
 24 48  1  0  0  0  0
 24 49  1  0  0  0  0
 25 27  1  0  0  0  0
 25 50  1  0  0  0  0
 25 51  1  0  0  0  0
 26 27  1  0  0  0  0
 26 28  2  0  0  0  0
 26 52  1  0  0  0  0
 27 29  2  0  0  0  0
 28 30  1  0  0  0  0
 28 53  1  0  0  0  0
 29 31  1  0  0  0  0
 30 31  2  0  0  0  0
 30 54  1  0  0  0  0
 31 55  1  0  0  0  0
M  END
>  <DRUGBANK_ID>
DB07165

>  <COMMON_NAME>
N-(5-CHLORO-BENZO[B]THIOPHEN-3-YLMETHYL)-2-[6-CHLORO-OXO-3-(2-PYRIDIN-2-YL-ETHYLAMINO)-2H-PYRAZIN-1-YL]-ACETAMIDE

$$$$
