
 OpenBabel10282417203D

 55 57  0  0  1  0  0  0  0  0999 V2000
    0.2606   -0.0716    0.0723 C   0  0  0  0  0  0  0  0  0  0  0  0
    0.1923    1.0480    1.0717 C   0  0  0  0  0  0  0  0  0  0  0  0
    1.0139    2.2916    1.0613 N   0  0  0  0  0  0  0  0  0  0  0  0
    0.4447    3.1688    2.0895 C   0  0  0  0  0  0  0  0  0  0  0  0
    0.7503    2.7233    3.5169 C   0  0  0  0  0  0  0  0  0  0  0  0
    2.5017    2.4076    1.1412 C   0  0  0  0  0  0  0  0  0  0  0  0
    3.3054    1.6144    2.1792 C   0  0  0  0  0  0  0  0  0  0  0  0
    2.9114    0.1638    2.3067 C   0  0  0  0  0  0  0  0  0  0  0  0
    3.2335   -0.6386    1.1396 O   0  0  0  0  0  0  0  0  0  0  0  0
    3.0341   -0.2797   -0.1706 C   0  0  0  0  0  0  0  0  0  0  0  0
    2.6662    0.7602   -0.6559 O   0  0  0  0  0  0  0  0  0  0  0  0
    3.3251   -1.3321   -1.1709 C   0  0  3  0  0  0  0  0  0  0  0  0
    3.8888   -2.6292   -0.6071 C   0  0  0  0  0  0  0  0  0  0  0  0
    5.2939   -2.6280   -1.2308 C   0  0  2  0  0  0  0  0  0  0  0  0
    6.1853   -1.6697   -0.4193 C   0  0  0  0  0  0  0  0  0  0  0  0
    5.6549   -0.2871   -0.7975 C   0  0  0  0  0  0  0  0  0  0  0  0
    4.5597   -0.6412   -1.8432 C   0  0  1  0  0  0  0  0  0  0  0  0
    5.1428   -1.8436   -2.5402 C   0  0  0  0  0  0  0  0  0  0  0  0
    2.1187   -1.5692   -2.1265 C   0  0  0  0  0  0  0  0  0  0  0  0
    0.9840   -2.2836   -1.6912 C   0  0  0  0  0  0  0  0  0  0  0  0
   -0.1942   -2.3180   -2.4496 C   0  0  0  0  0  0  0  0  0  0  0  0
   -0.2369   -1.7150   -3.7010 C   0  0  0  0  0  0  0  0  0  0  0  0
    0.8834   -1.0450   -4.1753 C   0  0  0  0  0  0  0  0  0  0  0  0
    2.0466   -0.9821   -3.4031 C   0  0  0  0  0  0  0  0  0  0  0  0
    0.2417    0.2657   -0.9673 H   0  0  0  0  0  0  0  0  0  0  0  0
   -0.4898   -0.8503    0.2368 H   0  0  0  0  0  0  0  0  0  0  0  0
    1.1144   -0.6696    0.3049 H   0  0  0  0  0  0  0  0  0  0  0  0
   -0.8632    1.3330    1.0077 H   0  0  0  0  0  0  0  0  0  0  0  0
    0.2558    0.5473    2.0323 H   0  0  0  0  0  0  0  0  0  0  0  0
    0.8143    4.1846    1.9233 H   0  0  0  0  0  0  0  0  0  0  0  0
   -0.6383    3.2195    1.9478 H   0  0  0  0  0  0  0  0  0  0  0  0
    1.7823    2.9298    3.7842 H   0  0  0  0  0  0  0  0  0  0  0  0
    0.1619    3.2892    4.2323 H   0  0  0  0  0  0  0  0  0  0  0  0
    0.5619    1.6582    3.6876 H   0  0  0  0  0  0  0  0  0  0  0  0
    3.0618    2.3450    0.2078 H   0  0  0  0  0  0  0  0  0  0  0  0
    2.7406    3.4760    1.2470 H   0  0  0  0  0  0  0  0  0  0  0  0
    4.3661    1.6332    1.9063 H   0  0  0  0  0  0  0  0  0  0  0  0
    3.2973    2.1168    3.1463 H   0  0  0  0  0  0  0  0  0  0  0  0
    3.4548   -0.2607    3.1622 H   0  0  0  0  0  0  0  0  0  0  0  0
    1.8856   -0.0229    2.6175 H   0  0  0  0  0  0  0  0  0  0  0  0
    3.9302   -2.6679    0.4888 H   0  0  0  0  0  0  0  0  0  0  0  0
    3.2956   -3.4945   -0.9140 H   0  0  0  0  0  0  0  0  0  0  0  0
    5.6864   -3.6352   -1.3360 H   0  0  0  0  0  0  0  0  0  0  0  0
    6.1322   -1.8470    0.6592 H   0  0  0  0  0  0  0  0  0  0  0  0
    7.2225   -1.7538   -0.7483 H   0  0  0  0  0  0  0  0  0  0  0  0
    6.4274    0.3475   -1.2416 H   0  0  0  0  0  0  0  0  0  0  0  0
    5.3088    0.2641    0.0854 H   0  0  0  0  0  0  0  0  0  0  0  0
    4.3181    0.2385   -2.4510 H   0  0  0  0  0  0  0  0  0  0  0  0
    4.4527   -2.3015   -3.2537 H   0  0  0  0  0  0  0  0  0  0  0  0
    6.0781   -1.5956   -3.0423 H   0  0  0  0  0  0  0  0  0  0  0  0
    0.9582   -2.7200   -0.6938 H   0  0  0  0  0  0  0  0  0  0  0  0
   -1.0947   -2.7654   -2.0355 H   0  0  0  0  0  0  0  0  0  0  0  0
   -1.1412   -1.7558   -4.3011 H   0  0  0  0  0  0  0  0  0  0  0  0
    0.8506   -0.5378   -5.1358 H   0  0  0  0  0  0  0  0  0  0  0  0
    2.8875   -0.4424   -3.8268 H   0  0  0  0  0  0  0  0  0  0  0  0
  1  2  1  0  0  0  0
  1 25  1  0  0  0  0
  1 26  1  0  0  0  0
  1 27  1  0  0  0  0
  2  3  1  0  0  0  0
  2 28  1  0  0  0  0
  2 29  1  0  0  0  0
  3  4  1  0  0  0  0
  3  6  1  0  0  0  0
  4  5  1  0  0  0  0
  4 30  1  0  0  0  0
  4 31  1  0  0  0  0
  5 32  1  0  0  0  0
  5 33  1  0  0  0  0
  5 34  1  0  0  0  0
  6  7  1  0  0  0  0
  6 35  1  0  0  0  0
  6 36  1  0  0  0  0
  7  8  1  0  0  0  0
  7 37  1  0  0  0  0
  7 38  1  0  0  0  0
  8  9  1  0  0  0  0
  8 39  1  0  0  0  0
  8 40  1  0  0  0  0
  9 10  1  0  0  0  0
 10 11  2  0  0  0  0
 10 12  1  0  0  0  0
 12 13  1  0  0  0  0
 12 17  1  0  0  0  0
 12 19  1  0  0  0  0
 13 14  1  0  0  0  0
 13 41  1  0  0  0  0
 13 42  1  0  0  0  0
 14 15  1  0  0  0  0
 14 18  1  0  0  0  0
 14 43  1  6  0  0  0
 15 16  1  0  0  0  0
 15 44  1  0  0  0  0
 15 45  1  0  0  0  0
 16 17  1  0  0  0  0
 16 46  1  0  0  0  0
 16 47  1  0  0  0  0
 17 18  1  0  0  0  0
 17 48  1  6  0  0  0
 18 49  1  0  0  0  0
 18 50  1  0  0  0  0
 19 20  2  0  0  0  0
 19 24  1  0  0  0  0
 20 21  1  0  0  0  0
 20 51  1  0  0  0  0
 21 22  2  0  0  0  0
 21 52  1  0  0  0  0
 22 23  1  0  0  0  0
 22 53  1  0  0  0  0
 23 24  2  0  0  0  0
 23 54  1  0  0  0  0
 24 55  1  0  0  0  0
M  END
>  <DRUGBANK_ID>
DB13619

>  <COMMON_NAME>
Bornaprine

>  <CAS_NUMBER>
20448-86-6

>  <UNII>
9M363FGA7J

>  <SYNONYMS>
Bornaprine

$$$$
