
 OpenBabel10282417173D

 50 53  0  0  0  0  0  0  0  0999 V2000
    1.1866    1.0019    0.0695 N   0  0  0  0  0  0  0  0  0  0  0  0
    0.0091    1.6322    0.1448 C   0  0  0  0  0  0  0  0  0  0  0  0
   -1.1768    1.0370    0.1019 N   0  0  0  0  0  0  0  0  0  0  0  0
   -1.1970   -0.3050    0.0301 C   0  0  0  0  0  0  0  0  0  0  0  0
   -0.0404   -1.1255   -0.0104 C   0  0  0  0  0  0  0  0  0  0  0  0
    1.1650   -0.3435    0.0128 C   0  0  0  0  0  0  0  0  0  0  0  0
    2.4681   -0.7993   -0.1807 N   0  0  0  0  0  0  0  0  0  0  0  0
   -0.0451   -2.6467   -0.0355 N   0  0  0  0  0  0  0  0  0  0  0  0
   -2.4880   -0.7209   -0.1329 N   0  0  0  0  0  0  0  0  0  0  0  0
   -1.2122   -3.4549   -0.0093 C   0  0  0  0  0  0  0  0  0  0  0  0
   -1.1922   -4.8160   -0.0170 O   0  0  0  0  0  0  0  0  0  0  0  0
   -2.3775   -3.0387    0.0337 O   0  0  0  0  0  0  0  0  0  0  0  0
   -0.0903   -5.7027   -0.0248 C   0  0  0  0  0  0  0  0  0  0  0  0
    1.2887   -3.2141   -0.0323 C   0  0  0  0  0  0  0  0  0  0  0  0
    0.0194    3.0930    0.1394 C   0  0  0  0  0  0  0  0  0  0  0  0
   -0.2789    5.1379    0.7079 N   0  0  0  0  0  0  0  0  0  0  0  0
    0.3198    5.1858   -0.5315 C   0  0  0  0  0  0  0  0  0  0  0  0
    0.5767    3.8798   -0.8991 C   0  0  0  0  0  0  0  0  0  0  0  0
   -0.5166    3.8592    1.1183 N   0  0  0  0  0  0  0  0  0  0  0  0
    0.6418    6.2692   -1.2553 N   0  0  0  0  0  0  0  0  0  0  0  0
    1.3621    6.0231   -2.3631 C   0  0  0  0  0  0  0  0  0  0  0  0
    1.6686    4.7656   -2.8444 C   0  0  0  0  0  0  0  0  0  0  0  0
    1.2434    3.6559   -2.1181 C   0  0  0  0  0  0  0  0  0  0  0  0
   -0.6900    6.2654    1.5618 C   0  0  0  0  0  0  0  0  0  0  0  0
    0.4735    7.0816    2.0799 C   0  0  0  0  0  0  0  0  0  0  0  0
    0.8551    7.0466    3.4263 C   0  0  0  0  0  0  0  0  0  0  0  0
    2.1024    7.5515    3.8142 C   0  0  0  0  0  0  0  0  0  0  0  0
    2.8828    8.2809    2.9179 C   0  0  0  0  0  0  0  0  0  0  0  0
    2.4310    8.4689    1.6232 C   0  0  0  0  0  0  0  0  0  0  0  0
    1.2422    7.8765    1.2257 C   0  0  0  0  0  0  0  0  0  0  0  0
    0.8087    8.1808    0.0020 F   0  0  0  0  0  0  0  0  0  0  0  0
    2.8037   -1.6547    0.2162 H   0  0  0  0  0  0  0  0  0  0  0  0
    3.1372   -0.0542   -0.0034 H   0  0  0  0  0  0  0  0  0  0  0  0
   -2.7182   -1.6928    0.0296 H   0  0  0  0  0  0  0  0  0  0  0  0
   -3.2327   -0.0609    0.0240 H   0  0  0  0  0  0  0  0  0  0  0  0
    0.4582   -5.5541   -0.9590 H   0  0  0  0  0  0  0  0  0  0  0  0
    0.4736   -5.5532    0.9007 H   0  0  0  0  0  0  0  0  0  0  0  0
   -0.4440   -6.7305   -0.0223 H   0  0  0  0  0  0  0  0  0  0  0  0
    1.7935   -2.9085   -0.9520 H   0  0  0  0  0  0  0  0  0  0  0  0
    1.7624   -2.9523    0.9193 H   0  0  0  0  0  0  0  0  0  0  0  0
    1.4449   -4.2684   -0.0538 H   0  0  0  0  0  0  0  0  0  0  0  0
    1.7119    6.9152   -2.8773 H   0  0  0  0  0  0  0  0  0  0  0  0
    2.2218    4.6514   -3.7691 H   0  0  0  0  0  0  0  0  0  0  0  0
    1.4396    2.6496   -2.4707 H   0  0  0  0  0  0  0  0  0  0  0  0
   -1.4018    6.8776    1.0009 H   0  0  0  0  0  0  0  0  0  0  0  0
   -1.2379    5.8281    2.4104 H   0  0  0  0  0  0  0  0  0  0  0  0
    0.1926    6.6350    4.1858 H   0  0  0  0  0  0  0  0  0  0  0  0
    2.4742    7.3592    4.8171 H   0  0  0  0  0  0  0  0  0  0  0  0
    3.8165    8.7356    3.2329 H   0  0  0  0  0  0  0  0  0  0  0  0
    2.9795    9.0640    0.9013 H   0  0  0  0  0  0  0  0  0  0  0  0
  1  2  1  0  0  0  0
  1  6  2  0  0  0  0
  2  3  2  0  0  0  0
  2 15  1  0  0  0  0
  3  4  1  0  0  0  0
  4  5  2  0  0  0  0
  4  9  1  0  0  0  0
  5  6  1  0  0  0  0
  5  8  1  0  0  0  0
  6  7  1  0  0  0  0
  7 32  1  0  0  0  0
  7 33  1  0  0  0  0
  8 10  1  0  0  0  0
  8 14  1  0  0  0  0
  9 34  1  0  0  0  0
  9 35  1  0  0  0  0
 10 11  1  0  0  0  0
 10 12  2  0  0  0  0
 11 13  1  0  0  0  0
 13 36  1  0  0  0  0
 13 37  1  0  0  0  0
 13 38  1  0  0  0  0
 14 39  1  0  0  0  0
 14 40  1  0  0  0  0
 14 41  1  0  0  0  0
 15 19  2  0  0  0  0
 16 17  1  0  0  0  0
 16 19  1  0  0  0  0
 17 18  2  0  0  0  0
 17 20  1  0  0  0  0
 18 15  1  0  0  0  0
 18 23  1  0  0  0  0
 20 21  2  0  0  0  0
 21 22  1  0  0  0  0
 21 42  1  0  0  0  0
 22 23  2  0  0  0  0
 22 43  1  0  0  0  0
 23 44  1  0  0  0  0
 24 16  1  0  0  0  0
 24 25  1  0  0  0  0
 24 45  1  0  0  0  0
 24 46  1  0  0  0  0
 25 26  1  0  0  0  0
 25 30  2  0  0  0  0
 26 27  2  0  0  0  0
 26 47  1  0  0  0  0
 27 28  1  0  0  0  0
 27 48  1  0  0  0  0
 28 29  2  0  0  0  0
 28 49  1  0  0  0  0
 29 30  1  0  0  0  0
 29 50  1  0  0  0  0
 30 31  1  0  0  0  0
M  END
>  <DRUGBANK_ID>
DB08931

>  <COMMON_NAME>
Riociguat

>  <CAS_NUMBER>
625115-55-1

>  <UNII>
RU3FE2Y4XI

>  <SYNONYMS>
Methyl N-[4,6-Diamino-2-[1-[(2-fluorophenyl)methyl]-1H-pyrazolo[3,4-b]pyridin-3-yl]-5-pyrimidinyl]-N-methyl-carbaminate; Riociguat; Riociguatum

$$$$
