
 OpenBabel10282417193D

 45 47  0  0  1  0  0  0  0  0999 V2000
    1.0490   -0.1060   -0.0596 C   0  0  0  0  0  0  0  0  0  0  0  0
   -0.2731    0.4427   -2.1888 C   0  0  0  0  0  0  0  0  0  0  0  0
    0.9757    2.2173   -0.9518 C   0  0  0  0  0  0  0  0  0  0  0  0
    1.8088    2.7995    0.1636 C   0  0  0  0  0  0  0  0  0  0  0  0
    5.7966   10.4228    0.9161 C   0  0  0  0  0  0  0  0  0  0  0  0
    3.4639    6.4840    1.3710 C   0  0  0  0  0  0  0  0  0  0  0  0
    4.5268    6.5969   -2.8605 C   0  0  0  0  0  0  0  0  0  0  0  0
    0.6059    0.9176   -1.0637 C   0  0  0  0  0  0  0  0  0  0  0  0
    5.8862   10.5313   -0.6167 C   0  0  2  0  0  0  0  0  0  0  0  0
    3.8341    5.5794   -1.1099 C   0  0  0  0  0  0  0  0  0  0  0  0
    4.6183   11.1317   -1.2430 C   0  0  2  0  0  0  0  0  0  0  0  0
    3.8203    9.8993   -1.6559 C   0  0  2  0  0  0  0  0  0  0  0  0
    3.2957    4.7094   -0.1373 C   0  0  0  0  0  0  0  0  0  0  0  0
    4.1276    6.8804   -0.7045 C   0  0  0  0  0  0  0  0  0  0  0  0
    4.9228    8.9045   -2.0040 C   0  0  2  0  0  0  0  0  0  0  0  0
    3.0050    3.3802   -0.3963 N   0  0  0  0  0  0  0  0  0  0  0  0
    3.0956    5.2111    1.1091 N   0  0  0  0  0  0  0  0  0  0  0  0
    3.9872    7.3998    0.5238 N   0  0  0  0  0  0  0  0  0  0  0  0
    4.1065    5.4160   -2.4526 N   0  0  0  0  0  0  0  0  0  0  0  0
    4.5645    7.5104   -1.8393 N   0  0  0  0  0  0  0  0  0  0  0  0
    6.2799    9.1782    1.4034 O   0  0  0  0  0  0  0  0  0  0  0  0
    4.9135   11.9236   -2.4047 O   0  0  0  0  0  0  0  0  0  0  0  0
    2.9541   10.1357   -2.7647 O   0  0  0  0  0  0  0  0  0  0  0  0
    6.0665    9.2171   -1.1992 O   0  0  0  0  0  0  0  0  0  0  0  0
    6.7712   11.1225   -0.8823 H   0  0  0  0  0  0  0  0  0  0  0  0
    4.0649   11.7801   -0.5558 H   0  0  0  0  0  0  0  0  0  0  0  0
    3.2119    9.5580   -0.8135 H   0  0  0  0  0  0  0  0  0  0  0  0
    5.2305    9.0336   -3.0496 H   0  0  0  0  0  0  0  0  0  0  0  0
    0.6786   -1.1078   -0.2938 H   0  0  0  0  0  0  0  0  0  0  0  0
    0.6784    0.1544    0.9378 H   0  0  0  0  0  0  0  0  0  0  0  0
    2.1426   -0.1596   -0.0340 H   0  0  0  0  0  0  0  0  0  0  0  0
   -1.2493    0.9388   -2.1616 H   0  0  0  0  0  0  0  0  0  0  0  0
    0.1957    0.6323   -3.1598 H   0  0  0  0  0  0  0  0  0  0  0  0
   -0.4609   -0.6356   -2.1273 H   0  0  0  0  0  0  0  0  0  0  0  0
    0.6164    2.9304   -1.6905 H   0  0  0  0  0  0  0  0  0  0  0  0
    1.1867    3.5211    0.7067 H   0  0  0  0  0  0  0  0  0  0  0  0
    2.1136    2.0370    0.8846 H   0  0  0  0  0  0  0  0  0  0  0  0
    6.4004   11.2156    1.3727 H   0  0  0  0  0  0  0  0  0  0  0  0
    4.7745   10.5554    1.2819 H   0  0  0  0  0  0  0  0  0  0  0  0
    3.3217    6.8066    2.3978 H   0  0  0  0  0  0  0  0  0  0  0  0
    4.8040    6.8448   -3.8756 H   0  0  0  0  0  0  0  0  0  0  0  0
    3.4144    2.9663   -1.2221 H   0  0  0  0  0  0  0  0  0  0  0  0
    5.7800    8.4813    0.9293 H   0  0  0  0  0  0  0  0  0  0  0  0
    5.5377   11.4517   -2.9808 H   0  0  0  0  0  0  0  0  0  0  0  0
    3.4253   10.7112   -3.3971 H   0  0  0  0  0  0  0  0  0  0  0  0
  1 29  1  0  0  0  0
  1 30  1  0  0  0  0
  1 31  1  0  0  0  0
  2 32  1  0  0  0  0
  2 33  1  0  0  0  0
  2 34  1  0  0  0  0
  3 35  1  0  0  0  0
  4  3  1  0  0  0  0
  4 36  1  0  0  0  0
  4 37  1  0  0  0  0
  5 38  1  0  0  0  0
  5 39  1  0  0  0  0
  6 40  1  0  0  0  0
  7 41  1  0  0  0  0
  8  1  1  0  0  0  0
  8  2  1  0  0  0  0
  8  3  2  0  0  0  0
  9 25  1  6  0  0  0
  9  5  1  0  0  0  0
 11  9  1  0  0  0  0
 11 22  1  0  0  0  0
 11 26  1  1  0  0  0
 12 11  1  0  0  0  0
 12 23  1  0  0  0  0
 12 27  1  1  0  0  0
 13 10  2  0  0  0  0
 14 10  1  0  0  0  0
 15 12  1  0  0  0  0
 15 20  1  0  0  0  0
 15 28  1  6  0  0  0
 16  4  1  0  0  0  0
 16 13  1  0  0  0  0
 16 42  1  0  0  0  0
 17  6  2  0  0  0  0
 17 13  1  0  0  0  0
 18  6  1  0  0  0  0
 18 14  2  0  0  0  0
 19  7  2  0  0  0  0
 19 10  1  0  0  0  0
 20  7  1  0  0  0  0
 20 14  1  0  0  0  0
 21  5  1  0  0  0  0
 21 43  1  0  0  0  0
 22 44  1  0  0  0  0
 23 45  1  0  0  0  0
 24  9  1  0  0  0  0
 24 15  1  0  0  0  0
M  END
>  <DRUGBANK_ID>
DB11933

>  <COMMON_NAME>
Riboprine

>  <CAS_NUMBER>
7724-76-7

>  <UNII>
8EU82FAZ5J

>  <SYNONYMS>
IPA; riboprina; Riboprine

$$$$
