1129
 OpenBabel10282417113D

 46 48  0  0  1  0  0  0  0  0999 V2000
    1.0272    0.4794    0.0360 S   0  0  3  0  0  0  0  0  0  0  0  0
    1.0510   -5.6001   -2.5082 O   0  0  0  0  0  0  0  0  0  0  0  0
   -0.6205   -5.5804    0.9033 O   0  0  0  0  0  0  0  0  0  0  0  0
    0.5979    1.3964   -1.0671 O   0  0  0  0  0  0  0  0  0  0  0  0
    3.4432   -0.9888    0.1045 N   0  0  0  0  0  0  0  0  0  0  0  0
    3.5387    1.2314    0.0082 N   0  0  0  0  0  0  0  0  0  0  0  0
    1.4971   -1.3592   -2.6243 N   0  0  0  0  0  0  0  0  0  0  0  0
    0.4797   -1.1258   -0.2689 C   0  0  0  0  0  0  0  0  0  0  0  0
    0.9482   -1.8939   -1.5206 C   0  0  0  0  0  0  0  0  0  0  0  0
    0.7887   -3.2535   -1.4906 C   0  0  0  0  0  0  0  0  0  0  0  0
    1.0863   -4.2182   -2.4819 C   0  0  0  0  0  0  0  0  0  0  0  0
    2.7392    0.2149    0.0126 C   0  0  0  0  0  0  0  0  0  0  0  0
    4.7848   -0.6685    0.0952 C   0  0  0  0  0  0  0  0  0  0  0  0
    0.4652   -6.6456   -1.6592 C   0  0  0  0  0  0  0  0  0  0  0  0
    1.0892   -6.9735   -0.2866 C   0  0  0  0  0  0  0  0  0  0  0  0
    4.7959    0.7147    0.0609 C   0  0  0  0  0  0  0  0  0  0  0  0
    0.2304   -3.5572   -0.1797 C   0  0  0  0  0  0  0  0  0  0  0  0
    1.5660   -3.6195   -3.6466 C   0  0  0  0  0  0  0  0  0  0  0  0
    0.8664   -5.8562    0.6616 C   0  0  0  0  0  0  0  0  0  0  0  0
    5.9544   -1.4392    0.1031 C   0  0  0  0  0  0  0  0  0  0  0  0
    1.7574   -2.2330   -3.6324 C   0  0  0  0  0  0  0  0  0  0  0  0
    5.9983    1.4104    0.0714 C   0  0  0  0  0  0  0  0  0  0  0  0
    7.1602   -0.7199    0.0918 C   0  0  0  0  0  0  0  0  0  0  0  0
    7.1828    0.6779    0.0806 C   0  0  0  0  0  0  0  0  0  0  0  0
   -1.7322   -5.2697   -0.1023 C   0  0  0  0  0  0  0  0  0  0  0  0
    3.0869   -1.9183    0.0594 H   0  0  0  0  0  0  0  0  0  0  0  0
    0.8242   -1.6139    0.6666 H   0  0  0  0  0  0  0  0  0  0  0  0
   -0.6169   -1.1547   -0.1994 H   0  0  0  0  0  0  0  0  0  0  0  0
   -0.6125   -6.5417   -1.6072 H   0  0  0  0  0  0  0  0  0  0  0  0
    0.5556   -7.5923   -2.2102 H   0  0  0  0  0  0  0  0  0  0  0  0
    0.6322   -7.8286    0.2120 H   0  0  0  0  0  0  0  0  0  0  0  0
    2.1645   -7.1627   -0.4122 H   0  0  0  0  0  0  0  0  0  0  0  0
    0.9398   -3.4914    0.6486 H   0  0  0  0  0  0  0  0  0  0  0  0
   -0.7310   -3.1309    0.0900 H   0  0  0  0  0  0  0  0  0  0  0  0
    0.0774   -4.5168   -0.5483 H   0  0  0  0  0  0  0  0  0  0  0  0
    1.7864   -4.2073   -4.5243 H   0  0  0  0  0  0  0  0  0  0  0  0
    1.3704   -5.8594    1.6391 H   0  0  0  0  0  0  0  0  0  0  0  0
    1.5636   -5.1206    0.1929 H   0  0  0  0  0  0  0  0  0  0  0  0
    5.9498   -2.5227    0.1085 H   0  0  0  0  0  0  0  0  0  0  0  0
    2.1660   -1.7349   -4.5163 H   0  0  0  0  0  0  0  0  0  0  0  0
    5.9790    2.4929    0.0584 H   0  0  0  0  0  0  0  0  0  0  0  0
    8.1060   -1.2585    0.0906 H   0  0  0  0  0  0  0  0  0  0  0  0
    8.1264    1.2141    0.0694 H   0  0  0  0  0  0  0  0  0  0  0  0
   -1.5115   -4.7576   -1.0762 H   0  0  0  0  0  0  0  0  0  0  0  0
   -2.2635   -6.1645   -0.4063 H   0  0  0  0  0  0  0  0  0  0  0  0
   -2.4275   -4.5427    0.3513 H   0  0  0  0  0  0  0  0  0  0  0  0
  1  4  2  0  0  0  0
  1  8  1  0  0  0  0
  1 12  1  0  0  0  0
  2 11  1  0  0  0  0
  2 14  1  0  0  0  0
  3 19  1  0  0  0  0
  3 25  1  0  0  0  0
  5 12  1  0  0  0  0
  5 13  1  0  0  0  0
  5 26  1  0  0  0  0
  6 12  2  0  0  0  0
  6 16  1  0  0  0  0
  7  9  2  0  0  0  0
  7 21  1  0  0  0  0
  8  9  1  0  0  0  0
  8 27  1  0  0  0  0
  8 28  1  0  0  0  0
  9 10  1  0  0  0  0
 10 11  2  0  0  0  0
 10 17  1  0  0  0  0
 11 18  1  0  0  0  0
 13 16  1  0  0  0  0
 13 20  2  0  0  0  0
 14 15  1  0  0  0  0
 14 29  1  0  0  0  0
 14 30  1  0  0  0  0
 15 19  1  0  0  0  0
 15 31  1  0  0  0  0
 15 32  1  0  0  0  0
 16 22  2  0  0  0  0
 17 33  1  0  0  0  0
 17 34  1  0  0  0  0
 17 35  1  0  0  0  0
 18 21  2  0  0  0  0
 18 36  1  0  0  0  0
 19 37  1  0  0  0  0
 19 38  1  0  0  0  0
 20 23  1  0  0  0  0
 20 39  1  0  0  0  0
 21 40  1  0  0  0  0
 22 24  1  0  0  0  0
 22 41  1  0  0  0  0
 23 24  2  0  0  0  0
 23 42  1  0  0  0  0
 24 43  1  0  0  0  0
 25 44  1  0  0  0  0
 25 45  1  0  0  0  0
 25 46  1  0  0  0  0
M  END
>  <DRUGBANK_ID>
DB01129

>  <SECONDARY_ACCESSION_NUMBERS>
APRD01212

>  <COMMON_NAME>
Rabeprazole

>  <CAS_NUMBER>
117976-89-3

>  <UNII>
32828355LL

>  <SYNONYMS>
Clofezone; Rabeprazole

$$$$
