
 OpenBabel10282417143D

 70 72  0  0  0  0  0  0  0  0999 V2000
    0.9804    1.1577    0.6122 C   0  0  1  0  0  0  0  0  0  0  0  0
    1.7265   -0.1902    0.8491 C   0  0  1  0  0  0  0  0  0  0  0  0
   -0.5620    1.2635    0.9123 C   0  0  0  0  0  0  0  0  0  0  0  0
    0.9024   -1.6202    0.7254 C   0  0  2  0  0  0  0  0  0  0  0  0
   -1.2778   -0.0340    0.6686 C   0  0  1  0  0  0  0  0  0  0  0  0
   -0.6677   -1.5229    0.7158 C   0  0  1  0  0  0  0  0  0  0  0  0
    1.6244    2.4597    0.7844 N   0  0  0  0  0  0  0  0  0  0  0  0
   -2.8077    0.2203    0.8838 N   0  0  0  0  0  0  0  0  0  0  0  0
   -1.4268   -2.6816   -0.3028 O   0  0  0  0  0  0  0  0  0  0  0  0
    1.5429   -2.8735    1.0272 O   0  0  0  0  0  0  0  0  0  0  0  0
    3.0633   -0.2469   -0.1548 O   0  0  0  0  0  0  0  0  0  0  0  0
   -1.4873   -2.6847   -2.1471 C   0  0  2  0  0  0  0  0  0  0  0  0
    0.4609   -3.0488   -2.3112 C   0  0  1  0  0  0  0  0  0  0  0  0
   -2.1735   -1.2188   -3.2008 O   0  0  0  0  0  0  0  0  0  0  0  0
    1.2577   -1.0888   -1.8479 C   0  0  0  0  0  0  0  0  0  0  0  0
   -1.6445    0.6989   -3.0655 C   0  0  1  0  0  0  0  0  0  0  0  0
    0.5533    0.4046   -3.1454 C   0  0  0  0  0  0  0  0  0  0  0  0
    0.9153   -4.1064   -1.5347 N   0  0  0  0  0  0  0  0  0  0  0  0
    3.0577   -0.1943   -1.9252 C   0  0  2  0  0  0  0  0  0  0  0  0
    2.1687    1.4974   -2.2433 C   0  0  1  0  0  0  0  0  0  0  0  0
    2.2892   -1.6107   -3.0941 O   0  0  0  0  0  0  0  0  0  0  0  0
    0.1643    1.7038   -1.9530 C   0  0  2  0  0  0  0  0  0  0  0  0
    0.2654   -1.4966   -3.1931 C   0  0  0  0  0  0  0  0  0  0  0  0
   -0.6459   -0.3394   -2.1634 C   0  0  1  0  0  0  0  0  0  0  0  0
    2.9267    2.5222   -1.6435 O   0  0  0  0  0  0  0  0  0  0  0  0
   -0.2796    2.9351   -2.5409 N   0  0  0  0  0  0  0  0  0  0  0  0
    0.4221    4.0031   -1.8923 C   0  0  0  0  0  0  0  0  0  0  0  0
   -2.4479   -0.6315   -1.5229 C   0  0  0  0  0  0  0  0  0  0  0  0
   -0.7236   -0.4782   -4.1786 O   0  0  0  0  0  0  0  0  0  0  0  0
   -2.6884    1.7310   -2.6706 C   0  0  0  0  0  0  0  0  0  0  0  0
   -2.3539    2.1818   -3.9455 N   0  0  0  0  0  0  0  0  0  0  0  0
    1.2906    1.1642   -0.3809 H   0  0  0  0  0  0  0  0  0  0  0  0
    1.9594   -0.0696    1.8995 H   0  0  0  0  0  0  0  0  0  0  0  0
   -0.7374    1.5065    1.9325 H   0  0  0  0  0  0  0  0  0  0  0  0
   -1.1283    2.0631    0.3240 H   0  0  0  0  0  0  0  0  0  0  0  0
    1.1017   -1.9636   -0.2255 H   0  0  0  0  0  0  0  0  0  0  0  0
   -0.9101    0.0440   -0.3128 H   0  0  0  0  0  0  0  0  0  0  0  0
   -0.9384   -1.7310    1.7418 H   0  0  0  0  0  0  0  0  0  0  0  0
    1.0950    3.2058    0.3271 H   0  0  0  0  0  0  0  0  0  0  0  0
    1.5127    2.6722    1.7560 H   0  0  0  0  0  0  0  0  0  0  0  0
   -3.4188   -0.5808    0.5725 H   0  0  0  0  0  0  0  0  0  0  0  0
   -3.1720    0.9306    0.2190 H   0  0  0  0  0  0  0  0  0  0  0  0
    1.8505   -3.2868    0.1622 H   0  0  0  0  0  0  0  0  0  0  0  0
   -2.2423   -3.4564   -2.2980 H   0  0  0  0  0  0  0  0  0  0  0  0
    0.3008   -3.3219   -3.4192 H   0  0  0  0  0  0  0  0  0  0  0  0
    1.4102   -0.6936   -0.9076 H   0  0  0  0  0  0  0  0  0  0  0  0
    1.6617   -0.3531   -2.6965 H   0  0  0  0  0  0  0  0  0  0  0  0
   -1.5701    0.9934   -1.7908 H   0  0  0  0  0  0  0  0  0  0  0  0
    0.8590    0.3660   -1.7988 H   0  0  0  0  0  0  0  0  0  0  0  0
    1.0000    0.8123   -4.0181 H   0  0  0  0  0  0  0  0  0  0  0  0
    1.8805   -3.8532   -1.7145 H   0  0  0  0  0  0  0  0  0  0  0  0
    0.4743   -3.8771   -0.6448 H   0  0  0  0  0  0  0  0  0  0  0  0
    4.1088   -0.1156   -2.1946 H   0  0  0  0  0  0  0  0  0  0  0  0
    2.3615    1.5821   -3.3313 H   0  0  0  0  0  0  0  0  0  0  0  0
   -0.0410    1.9100   -0.9778 H   0  0  0  0  0  0  0  0  0  0  0  0
   -0.3790   -1.2995   -2.0114 H   0  0  0  0  0  0  0  0  0  0  0  0
   -0.0798   -1.8041   -1.7291 H   0  0  0  0  0  0  0  0  0  0  0  0
    2.7353    2.4519   -0.6893 H   0  0  0  0  0  0  0  0  0  0  0  0
   -1.1460    3.0691   -2.0387 H   0  0  0  0  0  0  0  0  0  0  0  0
   -0.0429    4.9033   -2.2406 H   0  0  0  0  0  0  0  0  0  0  0  0
    0.1649    3.9637   -0.8351 H   0  0  0  0  0  0  0  0  0  0  0  0
    1.4747    3.9559   -2.1020 H   0  0  0  0  0  0  0  0  0  0  0  0
   -2.9661    0.2395   -1.3061 H   0  0  0  0  0  0  0  0  0  0  0  0
   -1.7944   -1.2413   -1.0913 H   0  0  0  0  0  0  0  0  0  0  0  0
   -2.6360   -1.0210   -0.5909 H   0  0  0  0  0  0  0  0  0  0  0  0
   -0.8599    0.4269   -4.5990 H   0  0  0  0  0  0  0  0  0  0  0  0
   -3.6637    1.2998   -2.4687 H   0  0  0  0  0  0  0  0  0  0  0  0
   -2.5565    2.3733   -1.7120 H   0  0  0  0  0  0  0  0  0  0  0  0
   -3.0990    2.7528   -4.2280 H   0  0  0  0  0  0  0  0  0  0  0  0
   -1.4105    2.6133   -3.9076 H   0  0  0  0  0  0  0  0  0  0  0  0
  1  7  1  0  0  0  0
  1 32  1  6  0  0  0
  2  1  1  0  0  0  0
  2 11  1  0  0  0  0
  2 33  1  1  0  0  0
  3  1  1  0  0  0  0
  3 34  1  0  0  0  0
  3 35  1  0  0  0  0
  4  2  1  0  0  0  0
  4 36  1  6  0  0  0
  4 10  1  0  0  0  0
  5  3  1  0  0  0  0
  5 37  1  6  0  0  0
  5  8  1  0  0  0  0
  6  4  1  0  0  0  0
  6  5  1  0  0  0  0
  6  9  1  0  0  0  0
  6 38  1  1  0  0  0
  7 39  1  0  0  0  0
  7 40  1  0  0  0  0
  8 41  1  0  0  0  0
  8 42  1  0  0  0  0
 10 43  1  0  0  0  0
 12 13  1  0  0  0  0
 12 14  1  0  0  0  0
 12  9  1  0  0  0  0
 12 44  1  6  0  0  0
 13 15  1  0  0  0  0
 13 18  1  0  0  0  0
 13 45  1  6  0  0  0
 14 16  1  0  0  0  0
 15 17  1  0  0  0  0
 15 46  1  0  0  0  0
 15 47  1  0  0  0  0
 16 17  1  0  0  0  0
 16 48  1  1  0  0  0
 16 30  1  0  0  0  0
 17 49  1  0  0  0  0
 17 50  1  0  0  0  0
 18 51  1  0  0  0  0
 18 52  1  0  0  0  0
 19 20  1  0  0  0  0
 19 21  1  0  0  0  0
 19 11  1  0  0  0  0
 19 53  1  6  0  0  0
 20 22  1  0  0  0  0
 20 25  1  0  0  0  0
 20 54  1  6  0  0  0
 21 23  1  0  0  0  0
 22 24  1  0  0  0  0
 22 55  1  1  0  0  0
 22 26  1  0  0  0  0
 23 24  1  0  0  0  0
 23 56  1  0  0  0  0
 23 57  1  0  0  0  0
 24 28  1  0  0  0  0
 24 29  1  6  0  0  0
 25 58  1  0  0  0  0
 26 59  1  0  0  0  0
 27 26  1  0  0  0  0
 27 60  1  0  0  0  0
 27 61  1  0  0  0  0
 27 62  1  0  0  0  0
 28 63  1  0  0  0  0
 28 64  1  0  0  0  0
 28 65  1  0  0  0  0
 29 66  1  0  0  0  0
 30 67  1  0  0  0  0
 30 68  1  0  0  0  0
 31 30  1  0  0  0  0
 31 69  1  0  0  0  0
 31 70  1  0  0  0  0
M  END
>  <DRUGBANK_ID>
DB04729

>  <COMMON_NAME>
Gentamicin C1a

>  <CAS_NUMBER>
26098-04-4

>  <UNII>
AV4A72IATD

>  <SYNONYMS>
Gentamycin C12

$$$$
