
 OpenBabel10282417243D

 20 22  0  0  0  0  0  0  0  0999 V2000
   -4.0956   -0.8533   -0.0108 O   0  0  0  0  0  0  0  0  0  0  0  0
   -2.9928   -0.3212    0.0045 C   0  0  0  0  0  0  0  0  0  0  0  0
   -2.8620    1.1462    0.0278 C   0  0  0  0  0  0  0  0  0  0  0  0
   -1.6767    1.7643    0.0137 C   0  0  0  0  0  0  0  0  0  0  0  0
   -0.4533    0.9757   -0.0098 C   0  0  0  0  0  0  0  0  0  0  0  0
    0.8128    1.5830   -0.0257 C   0  0  0  0  0  0  0  0  0  0  0  0
    1.9575    0.7594   -0.0158 C   0  0  0  0  0  0  0  0  0  0  0  0
    3.3624    0.9716   -0.0118 C   0  0  0  0  0  0  0  0  0  0  0  0
    3.9455   -0.2749    0.0073 C   0  0  0  0  0  0  0  0  0  0  0  0
    2.9978   -1.2468    0.0098 O   0  0  0  0  0  0  0  0  0  0  0  0
    1.7890   -0.6222   -0.0036 C   0  0  0  0  0  0  0  0  0  0  0  0
    0.5560   -1.2623   -0.0042 C   0  0  0  0  0  0  0  0  0  0  0  0
   -0.5543   -0.4179   -0.0038 C   0  0  0  0  0  0  0  0  0  0  0  0
   -1.8154   -1.0526    0.0026 O   0  0  0  0  0  0  0  0  0  0  0  0
   -3.7936    1.6980    0.0541 H   0  0  0  0  0  0  0  0  0  0  0  0
   -1.6108    2.8468    0.0288 H   0  0  0  0  0  0  0  0  0  0  0  0
    0.9202    2.6637   -0.0391 H   0  0  0  0  0  0  0  0  0  0  0  0
    3.8887    1.9151   -0.0179 H   0  0  0  0  0  0  0  0  0  0  0  0
    4.9687   -0.6237    0.0201 H   0  0  0  0  0  0  0  0  0  0  0  0
    0.4680   -2.3406   -0.0003 H   0  0  0  0  0  0  0  0  0  0  0  0
  1  2  2  0  0  0  0
  2  3  1  0  0  0  0
  2 14  1  0  0  0  0
  3  4  2  0  0  0  0
  3 15  1  0  0  0  0
  4  5  1  0  0  0  0
  4 16  1  0  0  0  0
  5  6  2  0  0  0  0
  5 13  1  0  0  0  0
  6  7  1  0  0  0  0
  6 17  1  0  0  0  0
  7  8  1  0  0  0  0
  7 11  2  0  0  0  0
  8  9  2  0  0  0  0
  8 18  1  0  0  0  0
  9 10  1  0  0  0  0
  9 19  1  0  0  0  0
 10 11  1  0  0  0  0
 11 12  1  0  0  0  0
 12 13  2  0  0  0  0
 12 20  1  0  0  0  0
 13 14  1  0  0  0  0
M  END
>  <DRUGBANK_ID>
DB18665

>  <COMMON_NAME>
Psoralen

>  <CAS_NUMBER>
66-97-7

>  <UNII>
KTZ7ZCN2EX

>  <SYNONYMS>
6-hydroxy-5-benzofuranacrylic acid .delta.-lactone; Ficusin

$$$$
