
 OpenBabel10282417143D

 52 53  0  0  0  0  0  0  0  0999 V2000
    6.5440   -2.3593    3.7539 P   0  0  0  0  0  0  0  0  0  0  0  0
    4.8013   -4.3208    4.1303 O   0  0  0  0  0  0  0  0  0  0  0  0
    4.1081   -6.6677    6.3269 O   0  0  0  0  0  0  0  0  0  0  0  0
    2.7634   -4.4337    6.7266 O   0  0  0  0  0  0  0  0  0  0  0  0
    5.0965   -1.5903    3.6843 O   0  0  0  0  0  0  0  0  0  0  0  0
    3.3307   -6.4908    3.6239 O   0  0  0  0  0  0  0  0  0  0  0  0
    7.7124   -7.5446    3.1268 O   0  0  0  0  0  0  0  0  0  0  0  0
    7.3376   -1.8372    2.4364 O   0  0  0  0  0  0  0  0  0  0  0  0
    5.8084   -3.5274    2.7112 O   0  0  0  0  0  0  0  0  0  0  0  0
    7.2024   -1.3139    4.6872 O   0  0  0  0  0  0  0  0  0  0  0  0
    4.1221   -7.2507   -1.0894 O   0  0  0  0  0  0  0  0  0  0  0  0
    2.5281   -4.4485    1.5974 O   0  0  0  0  0  0  0  0  0  0  0  0
    4.5013   -5.1726    0.8862 O   0  0  0  0  0  0  0  0  0  0  0  0
    2.4431   -6.3291   -2.8784 O   0  0  0  0  0  0  0  0  0  0  0  0
    6.6266   -5.8297    4.1984 N   0  0  0  0  0  0  0  0  0  0  0  0
    5.4684   -7.1570    2.8245 N   0  0  0  0  0  0  0  0  0  0  0  0
    2.7166   -7.1248   -0.7104 N   0  0  0  0  0  0  0  0  0  0  0  0
    5.2683   -5.5494    4.5687 C   0  0  1  0  0  0  0  0  0  0  0  0
    4.8734   -5.5176    6.0098 C   0  0  1  0  0  0  0  0  0  0  0  0
    4.0622   -4.1878    6.2128 C   0  0  1  0  0  0  0  0  0  0  0  0
    3.9305   -3.5310    4.8633 C   0  0  1  0  0  0  0  0  0  0  0  0
    4.5586   -6.4878    3.6160 C   0  0  0  0  0  0  0  0  0  0  0  0
    4.2870   -1.9962    4.8029 C   0  0  0  0  0  0  0  0  0  0  0  0
    6.7044   -6.9056    3.3317 C   0  0  0  0  0  0  0  0  0  0  0  0
    5.3433   -7.8350    1.5191 C   0  0  0  0  0  0  0  0  0  0  0  0
    4.1832   -8.8068    1.3951 C   0  0  0  0  0  0  0  0  0  0  0  0
    2.8338   -8.1208    1.5797 C   0  0  0  0  0  0  0  0  0  0  0  0
    2.5845   -6.8041    0.7581 C   0  0  1  0  0  0  0  0  0  0  0  0
    3.3147   -5.4351    1.1128 C   0  0  0  0  0  0  0  0  0  0  0  0
    2.2799   -5.9964   -1.5166 C   0  0  0  0  0  0  0  0  0  0  0  0
    7.4746   -5.5056    4.6350 H   0  0  0  0  0  0  0  0  0  0  0  0
    3.2806   -6.5572    5.8057 H   0  0  0  0  0  0  0  0  0  0  0  0
    2.2482   -3.6138    6.6278 H   0  0  0  0  0  0  0  0  0  0  0  0
    8.0494   -1.2594    2.7836 H   0  0  0  0  0  0  0  0  0  0  0  0
    6.4191   -3.7953    2.0035 H   0  0  0  0  0  0  0  0  0  0  0  0
    4.3152   -8.2031   -1.0276 H   0  0  0  0  0  0  0  0  0  0  0  0
    1.5895   -4.6536    1.7348 H   0  0  0  0  0  0  0  0  0  0  0  0
    3.3488   -6.6881   -2.8917 H   0  0  0  0  0  0  0  0  0  0  0  0
    5.7873   -5.4878    6.6128 H   0  0  0  0  0  0  0  0  0  0  0  0
    4.6185   -3.5360    6.8922 H   0  0  0  0  0  0  0  0  0  0  0  0
    2.9404   -3.6296    4.4002 H   0  0  0  0  0  0  0  0  0  0  0  0
    4.8172   -1.6871    5.7099 H   0  0  0  0  0  0  0  0  0  0  0  0
    3.3732   -1.3914    4.7806 H   0  0  0  0  0  0  0  0  0  0  0  0
    5.2735   -7.0684    0.7574 H   0  0  0  0  0  0  0  0  0  0  0  0
    6.2858   -8.3022    1.2042 H   0  0  0  0  0  0  0  0  0  0  0  0
    4.1554   -9.3278    0.4304 H   0  0  0  0  0  0  0  0  0  0  0  0
    4.3364   -9.6118    2.1192 H   0  0  0  0  0  0  0  0  0  0  0  0
    2.0357   -8.8416    1.3594 H   0  0  0  0  0  0  0  0  0  0  0  0
    2.6787   -8.0244    2.6477 H   0  0  0  0  0  0  0  0  0  0  0  0
    1.5213   -6.5924    0.9399 H   0  0  0  0  0  0  0  0  0  0  0  0
    1.2313   -5.7602   -1.3265 H   0  0  0  0  0  0  0  0  0  0  0  0
    2.8912   -5.1093   -1.3249 H   0  0  0  0  0  0  0  0  0  0  0  0
  1  5  1  0  0  0  0
  1  8  1  0  0  0  0
  1  9  1  0  0  0  0
  1 10  2  0  0  0  0
  2 21  1  0  0  0  0
  3 32  1  0  0  0  0
  4 33  1  0  0  0  0
  5 23  1  0  0  0  0
  6 22  2  0  0  0  0
  7 24  2  0  0  0  0
  8 34  1  0  0  0  0
  9 35  1  0  0  0  0
 11 17  1  0  0  0  0
 11 36  1  0  0  0  0
 12 29  1  0  0  0  0
 12 37  1  0  0  0  0
 13 29  2  0  0  0  0
 14 30  1  0  0  0  0
 14 38  1  0  0  0  0
 15 24  1  0  0  0  0
 15 31  1  0  0  0  0
 16 22  1  0  0  0  0
 16 24  1  0  0  0  0
 16 25  1  0  0  0  0
 17 30  1  0  0  0  0
 18  2  1  6  0  0  0
 18 15  1  0  0  0  0
 18 19  1  0  0  0  0
 18 22  1  0  0  0  0
 19  3  1  0  0  0  0
 19 20  1  0  0  0  0
 19 39  1  1  0  0  0
 20 21  1  0  0  0  0
 20 40  1  1  0  0  0
 20  4  1  0  0  0  0
 21 41  1  6  0  0  0
 21 23  1  0  0  0  0
 23 42  1  0  0  0  0
 23 43  1  0  0  0  0
 25 26  1  0  0  0  0
 25 44  1  0  0  0  0
 25 45  1  0  0  0  0
 26 27  1  0  0  0  0
 26 46  1  0  0  0  0
 26 47  1  0  0  0  0
 27 48  1  0  0  0  0
 27 49  1  0  0  0  0
 28 29  1  0  0  0  0
 28 50  1  1  0  0  0
 28 27  1  0  0  0  0
 28 17  1  0  0  0  0
 30 51  1  0  0  0  0
 30 52  1  0  0  0  0
M  END
>  <DRUGBANK_ID>
DB04460

>  <SECONDARY_ACCESSION_NUMBERS>
EXPT02811

>  <COMMON_NAME>
(C8-S)-Hydantocidin 5'-phosphate

$$$$
