
 OpenBabel10282417123D

 57 59  0  0  1  0  0  0  0  0999 V2000
  -12.6635   -2.0910    1.2595 N   0  0  0  0  0  0  0  0  0  0  0  0
  -12.2192   -2.5065    0.0157 C   0  0  0  0  0  0  0  0  0  0  0  0
  -10.8871   -2.8846   -0.2402 C   0  0  0  0  0  0  0  0  0  0  0  0
   -9.7826   -2.9865    0.5814 N   0  0  0  0  0  0  0  0  0  0  0  0
   -8.8243   -3.4581   -0.1839 C   0  0  0  0  0  0  0  0  0  0  0  0
   -9.2502   -3.6491   -1.4708 N   0  0  0  0  0  0  0  0  0  0  0  0
   -8.4461   -4.2300   -2.5238 C   0  0  2  0  0  0  0  0  0  0  0  0
   -8.3283   -3.2943   -3.6158 O   0  0  0  0  0  0  0  0  0  0  0  0
   -8.5362   -4.0304   -4.8443 C   0  0  2  0  0  0  0  0  0  0  0  0
   -9.7666   -3.4699   -5.5434 C   0  0  0  0  0  0  0  0  0  0  0  0
   -9.2984   -2.3530   -6.3493 O   0  0  0  0  0  0  0  0  0  0  0  0
   -8.5854   -1.1340   -5.3499 P   0  0  1  0  0  0  0  0  0  0  0  0
   -6.7419   -0.1235   -5.9933 O   0  0  0  0  0  0  0  0  0  0  0  0
   -9.7937   -0.7022   -4.5208 O   0  0  0  0  0  0  0  0  0  0  0  0
   -7.8724    0.0849   -4.3506 O   0  0  0  0  0  0  0  0  0  0  0  0
   -6.2783   -0.4245   -3.9118 P   0  0  2  0  0  0  0  0  0  0  0  0
   -6.0421    1.0569   -3.0501 O   0  0  0  0  0  0  0  0  0  0  0  0
   -5.0880   -0.0474   -4.8085 O   0  0  0  0  0  0  0  0  0  0  0  0
   -6.5145   -1.9059   -4.7736 O   0  0  0  0  0  0  0  0  0  0  0  0
   -7.2988   -1.5765   -6.8040 P   0  0  1  0  0  0  0  0  0  0  0  0
   -8.1482    0.3274   -6.2709 O   0  0  0  0  0  0  0  0  0  0  0  0
   -6.2128   -1.6136   -7.8356 O   0  0  0  0  0  0  0  0  0  0  0  0
   -9.0435   -1.4967   -7.0992 O   0  0  0  0  0  0  0  0  0  0  0  0
  -10.0501   -0.1705   -6.6292 P   0  0  1  0  0  0  0  0  0  0  0  0
   -9.1152    1.5604   -7.0138 O   0  0  0  0  0  0  0  0  0  0  0  0
  -10.6596   -0.1992   -8.0481 O   0  0  0  0  0  0  0  0  0  0  0  0
  -11.0567    1.1557   -6.1592 O   0  0  0  0  0  0  0  0  0  0  0  0
  -10.9781    2.3946   -7.3640 P   0  0  0  0  0  0  0  0  0  0  0  0
  -12.6204    2.3441   -7.3320 O   0  0  0  0  0  0  0  0  0  0  0  0
  -10.6702    3.4304   -6.1095 O   0  0  0  0  0  0  0  0  0  0  0  0
  -10.9078    3.5035   -8.4424 O   0  0  0  0  0  0  0  0  0  0  0  0
   -8.6200   -5.4980   -4.5259 C   0  0  1  0  0  0  0  0  0  0  0  0
   -7.3267   -6.0893   -4.6886 O   0  0  0  0  0  0  0  0  0  0  0  0
   -9.0420   -5.5218   -3.0764 C   0  0  1  0  0  0  0  0  0  0  0  0
   -8.5774   -6.6691   -2.3820 O   0  0  0  0  0  0  0  0  0  0  0  0
  -10.5765   -3.2925   -1.5300 C   0  0  0  0  0  0  0  0  0  0  0  0
  -11.4111   -3.3455   -2.5858 N   0  0  0  0  0  0  0  0  0  0  0  0
  -12.6543   -2.9354   -2.2380 C   0  0  0  0  0  0  0  0  0  0  0  0
  -13.0970   -2.5487   -1.0198 N   0  0  0  0  0  0  0  0  0  0  0  0
  -12.0104   -1.6451    1.8889 H   0  0  0  0  0  0  0  0  0  0  0  0
  -13.4723   -2.5523    1.6542 H   0  0  0  0  0  0  0  0  0  0  0  0
   -7.8168   -3.6766    0.1517 H   0  0  0  0  0  0  0  0  0  0  0  0
   -7.4271   -4.3899   -2.1396 H   0  0  0  0  0  0  0  0  0  0  0  0
   -7.6564   -3.8577   -5.4710 H   0  0  0  0  0  0  0  0  0  0  0  0
  -10.2250   -4.1905   -6.2191 H   0  0  0  0  0  0  0  0  0  0  0  0
  -10.5183   -3.0889   -4.8513 H   0  0  0  0  0  0  0  0  0  0  0  0
   -5.7731   -0.4199   -6.2118 H   0  0  0  0  0  0  0  0  0  0  0  0
   -6.7559    1.4791   -3.5699 H   0  0  0  0  0  0  0  0  0  0  0  0
   -8.7747    0.6041   -5.1217 H   0  0  0  0  0  0  0  0  0  0  0  0
   -8.5205    1.6277   -6.1820 H   0  0  0  0  0  0  0  0  0  0  0  0
  -12.8992    1.8178   -8.1090 H   0  0  0  0  0  0  0  0  0  0  0  0
  -10.1522    2.9793   -5.4294 H   0  0  0  0  0  0  0  0  0  0  0  0
   -9.2993   -5.9990   -5.2190 H   0  0  0  0  0  0  0  0  0  0  0  0
   -6.6797   -5.6800   -4.0915 H   0  0  0  0  0  0  0  0  0  0  0  0
  -10.1310   -5.5132   -3.0128 H   0  0  0  0  0  0  0  0  0  0  0  0
   -7.6211   -6.7732   -2.5308 H   0  0  0  0  0  0  0  0  0  0  0  0
  -13.3963   -2.9267   -3.0375 H   0  0  0  0  0  0  0  0  0  0  0  0
  1  2  1  0  0  0  0
  1 40  1  0  0  0  0
  1 41  1  0  0  0  0
  2  3  2  0  0  0  0
  2 39  1  0  0  0  0
  3  4  1  0  0  0  0
  3 36  1  0  0  0  0
  4  5  2  0  0  0  0
  5  6  1  0  0  0  0
  5 42  1  0  0  0  0
  6 36  1  0  0  0  0
  7  6  1  0  0  0  0
  7  8  1  0  0  0  0
  7 34  1  0  0  0  0
  7 43  1  1  0  0  0
  8  9  1  0  0  0  0
  9 32  1  0  0  0  0
  9 44  1  6  0  0  0
  9 10  1  0  0  0  0
 10 11  1  0  0  0  0
 10 45  1  0  0  0  0
 10 46  1  0  0  0  0
 12 11  1  0  0  0  0
 12 13  1  0  0  0  0
 12 14  2  6  0  0  0
 12 15  1  0  0  0  0
 13 47  1  0  0  0  0
 16 18  2  6  0  0  0
 16 19  1  0  0  0  0
 16 17  1  0  0  0  0
 16 15  1  0  0  0  0
 17 48  1  0  0  0  0
 20 19  1  0  0  0  0
 20 21  1  0  0  0  0
 20 22  2  6  0  0  0
 20 23  1  0  0  0  0
 21 49  1  0  0  0  0
 24 23  1  0  0  0  0
 24 25  1  0  0  0  0
 24 26  2  6  0  0  0
 24 27  1  0  0  0  0
 25 50  1  0  0  0  0
 27 28  1  0  0  0  0
 28 29  1  0  0  0  0
 28 30  1  0  0  0  0
 28 31  2  0  0  0  0
 29 51  1  0  0  0  0
 30 52  1  0  0  0  0
 32 33  1  0  0  0  0
 32 34  1  0  0  0  0
 32 53  1  6  0  0  0
 33 54  1  0  0  0  0
 34 35  1  0  0  0  0
 34 55  1  1  0  0  0
 35 56  1  0  0  0  0
 36 37  2  0  0  0  0
 37 38  1  0  0  0  0
 38 39  2  0  0  0  0
 38 57  1  0  0  0  0
M  END
>  <DRUGBANK_ID>
DB02738

>  <SECONDARY_ACCESSION_NUMBERS>
EXPT00244

>  <COMMON_NAME>
Adenosine-5'-Pentaphosphate

$$$$
