208
 OpenBabel10282417103D

 31 33  0  0  1  0  0  0  0  0999 V2000
   -2.1117   -0.1765    0.0006 Cl  0  0  0  0  0  0  0  0  0  0  0  0
    1.8465    4.4780    5.0669 S   0  0  0  0  0  0  0  0  0  0  0  0
   -0.0431    3.2638    1.1396 N   0  0  0  0  0  0  0  0  0  0  0  0
    1.3742    3.6751    1.1499 C   0  0  0  0  0  0  0  0  0  0  0  0
   -0.4163    2.5235    2.3678 C   0  0  0  0  0  0  0  0  0  0  0  0
    1.7542    4.6416    2.2734 C   0  0  0  0  0  0  0  0  0  0  0  0
    0.2151    3.1304    3.5935 C   0  0  0  0  0  0  0  0  0  0  0  0
    1.2221    4.0761    3.5438 C   0  0  0  0  0  0  0  0  0  0  0  0
   -0.3843    2.4808   -0.0768 C   0  0  0  0  0  0  0  0  0  0  0  0
    0.3017    1.1231   -0.1980 C   0  0  0  0  0  0  0  0  0  0  0  0
   -0.0525    2.7473    4.9425 C   0  0  0  0  0  0  0  0  0  0  0  0
    0.7632    3.4016    5.8400 C   0  0  0  0  0  0  0  0  0  0  0  0
   -0.3887   -0.0908   -0.0940 C   0  0  0  0  0  0  0  0  0  0  0  0
    1.7067    1.0622   -0.3221 C   0  0  0  0  0  0  0  0  0  0  0  0
    0.3128   -1.3036   -0.0366 C   0  0  0  0  0  0  0  0  0  0  0  0
    2.4068   -0.1309   -0.1536 C   0  0  0  0  0  0  0  0  0  0  0  0
    1.7080   -1.3167   -0.0257 C   0  0  0  0  0  0  0  0  0  0  0  0
    2.0045    2.7999    1.3272 H   0  0  0  0  0  0  0  0  0  0  0  0
    1.6506    4.1212    0.1874 H   0  0  0  0  0  0  0  0  0  0  0  0
   -1.5072    2.5124    2.4792 H   0  0  0  0  0  0  0  0  0  0  0  0
   -0.0735    1.4829    2.3318 H   0  0  0  0  0  0  0  0  0  0  0  0
    2.8492    4.7115    2.2984 H   0  0  0  0  0  0  0  0  0  0  0  0
    1.3474    5.6387    2.0825 H   0  0  0  0  0  0  0  0  0  0  0  0
   -0.1516    3.0727   -0.9718 H   0  0  0  0  0  0  0  0  0  0  0  0
   -1.4759    2.3822   -0.1065 H   0  0  0  0  0  0  0  0  0  0  0  0
   -0.7894    2.0090    5.2341 H   0  0  0  0  0  0  0  0  0  0  0  0
    0.7847    3.2933    6.9144 H   0  0  0  0  0  0  0  0  0  0  0  0
    2.2937    1.9608   -0.4827 H   0  0  0  0  0  0  0  0  0  0  0  0
   -0.2264   -2.2427    0.0287 H   0  0  0  0  0  0  0  0  0  0  0  0
    3.4940   -0.1157   -0.1134 H   0  0  0  0  0  0  0  0  0  0  0  0
    2.2477   -2.2554    0.0724 H   0  0  0  0  0  0  0  0  0  0  0  0
  1 13  1  0  0  0  0
  2  8  1  0  0  0  0
  2 12  1  0  0  0  0
  3  4  1  0  0  0  0
  3  5  1  0  0  0  0
  3  9  1  0  0  0  0
  4  6  1  0  0  0  0
  4 18  1  0  0  0  0
  4 19  1  0  0  0  0
  5  7  1  0  0  0  0
  5 20  1  0  0  0  0
  5 21  1  0  0  0  0
  6  8  1  0  0  0  0
  6 22  1  0  0  0  0
  6 23  1  0  0  0  0
  7  8  2  0  0  0  0
  7 11  1  0  0  0  0
  9 10  1  0  0  0  0
  9 24  1  0  0  0  0
  9 25  1  0  0  0  0
 10 13  1  0  0  0  0
 10 14  2  0  0  0  0
 11 12  2  0  0  0  0
 11 26  1  0  0  0  0
 12 27  1  0  0  0  0
 13 15  2  0  0  0  0
 14 16  1  0  0  0  0
 14 28  1  0  0  0  0
 15 17  1  0  0  0  0
 15 29  1  0  0  0  0
 16 17  2  0  0  0  0
 16 30  1  0  0  0  0
 17 31  1  0  0  0  0
M  END
>  <DRUGBANK_ID>
DB00208

>  <SECONDARY_ACCESSION_NUMBERS>
APRD01257

>  <COMMON_NAME>
Ticlopidine

>  <CAS_NUMBER>
55142-85-3

>  <UNII>
OM90ZUW7M1

>  <SYNONYMS>
Ticlopidina; Ticlopidine; Ticlopidinum

$$$$
