
 OpenBabel10282417123D

 17 17  0  0  0  0  0  0  0  0999 V2000
    2.1648   -0.0292    0.2223 O   0  0  0  0  0  0  0  0  0  0  0  0
    0.9647   -0.0102   -0.0487 C   0  0  0  0  0  0  0  0  0  0  0  0
    0.2358    1.2934   -0.2935 C   0  0  0  0  0  0  0  0  0  0  0  0
   -1.1688    1.2608    0.2928 C   0  0  0  0  0  0  0  0  0  0  0  0
   -1.9363    0.0178   -0.1485 C   0  0  0  0  0  0  0  0  0  0  0  0
   -1.1930   -1.2456    0.2742 C   0  0  0  0  0  0  0  0  0  0  0  0
    0.2028   -1.2874   -0.3312 C   0  0  0  0  0  0  0  0  0  0  0  0
    0.8053    2.1102    0.1627 H   0  0  0  0  0  0  0  0  0  0  0  0
    0.2000    1.4635   -1.3750 H   0  0  0  0  0  0  0  0  0  0  0  0
   -1.1076    1.2765    1.3882 H   0  0  0  0  0  0  0  0  0  0  0  0
   -1.7149    2.1603   -0.0118 H   0  0  0  0  0  0  0  0  0  0  0  0
   -2.9387    0.0248    0.2930 H   0  0  0  0  0  0  0  0  0  0  0  0
   -2.0611    0.0254   -1.2382 H   0  0  0  0  0  0  0  0  0  0  0  0
   -1.1256   -1.2806    1.3691 H   0  0  0  0  0  0  0  0  0  0  0  0
   -1.7572   -2.1306   -0.0407 H   0  0  0  0  0  0  0  0  0  0  0  0
    0.1442   -1.4099   -1.4180 H   0  0  0  0  0  0  0  0  0  0  0  0
    0.7608   -2.1345    0.0808 H   0  0  0  0  0  0  0  0  0  0  0  0
  1  2  2  0  0  0  0
  2  3  1  0  0  0  0
  2  7  1  0  0  0  0
  3  4  1  0  0  0  0
  3  8  1  0  0  0  0
  3  9  1  0  0  0  0
  4  5  1  0  0  0  0
  4 10  1  0  0  0  0
  4 11  1  0  0  0  0
  5  6  1  0  0  0  0
  5 12  1  0  0  0  0
  5 13  1  0  0  0  0
  6  7  1  0  0  0  0
  6 14  1  0  0  0  0
  6 15  1  0  0  0  0
  7 16  1  0  0  0  0
  7 17  1  0  0  0  0
M  END
>  <DRUGBANK_ID>
DB02060

>  <SECONDARY_ACCESSION_NUMBERS>
EXPT01075

>  <COMMON_NAME>
Cyclohexanone

>  <CAS_NUMBER>
108-94-1

>  <UNII>
5QOR3YM052

$$$$
