
 OpenBabel10282417133D

 13 13  0  0  0  0  0  0  0  0999 V2000
    2.2666    0.0065    0.0122 O   0  0  0  0  0  0  0  0  0  0  0  0
    0.9029   -0.0188    0.0119 C   0  0  0  0  0  0  0  0  0  0  0  0
    0.1948   -1.2178    0.0092 C   0  0  0  0  0  0  0  0  0  0  0  0
   -1.2016   -1.1879   -0.0020 C   0  0  0  0  0  0  0  0  0  0  0  0
   -1.8768    0.0337   -0.0099 C   0  0  0  0  0  0  0  0  0  0  0  0
   -1.1571    1.2291    0.0000 C   0  0  0  0  0  0  0  0  0  0  0  0
    0.2371    1.2014    0.0120 C   0  0  0  0  0  0  0  0  0  0  0  0
    2.5949   -0.9064   -0.0180 H   0  0  0  0  0  0  0  0  0  0  0  0
    0.7054   -2.1750    0.0163 H   0  0  0  0  0  0  0  0  0  0  0  0
   -1.7662   -2.1170   -0.0051 H   0  0  0  0  0  0  0  0  0  0  0  0
   -2.9636    0.0556   -0.0229 H   0  0  0  0  0  0  0  0  0  0  0  0
   -1.6801    2.1813   -0.0024 H   0  0  0  0  0  0  0  0  0  0  0  0
    0.8034    2.1282    0.0197 H   0  0  0  0  0  0  0  0  0  0  0  0
  1  2  1  0  0  0  0
  1  8  1  0  0  0  0
  2  3  2  0  0  0  0
  2  7  1  0  0  0  0
  3  4  1  0  0  0  0
  3  9  1  0  0  0  0
  4  5  2  0  0  0  0
  4 10  1  0  0  0  0
  5  6  1  0  0  0  0
  5 11  1  0  0  0  0
  6  7  2  0  0  0  0
  6 12  1  0  0  0  0
  7 13  1  0  0  0  0
M  END
>  <DRUGBANK_ID>
DB03255

>  <SECONDARY_ACCESSION_NUMBERS>
EXPT01917

>  <COMMON_NAME>
Phenol

>  <CAS_NUMBER>
108-95-2

>  <UNII>
339NCG44TV

>  <SYNONYMS>
Acide carbolique; Acide phénique; Benzenol; Carbolic acid; Carbolsäure; Fenol; Hydroxybenzene; Karbolsäure; Monohydroxybenzene; Oxybenzene; Phenic Acid; Phenol; Phenyl alcohol; Phenyl hydroxide; Phenylic acid; Phenylic alcohol; PHOH

$$$$
