
 OpenBabel10282417203D

 54 57  0  0  0  0  0  0  0  0999 V2000
    1.4449   -0.3214    0.0139 C   0  0  0  0  0  0  0  0  0  0  0  0
   -4.0007    2.5082   -3.9228 C   0  0  0  0  0  0  0  0  0  0  0  0
    2.1495    5.9756    1.7538 C   0  0  0  0  0  0  0  0  0  0  0  0
    0.5222   -1.3685    0.0426 C   0  0  0  0  0  0  0  0  0  0  0  0
    0.9953    0.9778   -0.1414 C   0  0  0  0  0  0  0  0  0  0  0  0
   -3.1642    1.3940   -3.9500 C   0  0  0  0  0  0  0  0  0  0  0  0
   -4.4277    3.0137   -2.7077 C   0  0  0  0  0  0  0  0  0  0  0  0
    1.3245    4.9068    2.4370 C   0  0  0  0  0  0  0  0  0  0  0  0
    1.6979    7.3586    2.2332 C   0  0  0  0  0  0  0  0  0  0  0  0
   -0.8587   -1.1135   -0.0018 C   0  0  0  0  0  0  0  0  0  0  0  0
   -0.3675    1.2088   -0.2864 C   0  0  0  0  0  0  0  0  0  0  0  0
   -2.7669    0.7749   -2.7590 C   0  0  0  0  0  0  0  0  0  0  0  0
   -4.0277    2.3972   -1.5291 C   0  0  0  0  0  0  0  0  0  0  0  0
   -2.6785    6.0882    1.0844 C   0  0  0  0  0  0  0  0  0  0  0  0
   -0.1219    5.2981    2.3139 C   0  0  0  0  0  0  0  0  0  0  0  0
    0.1922    7.6226    2.0124 C   0  0  0  0  0  0  0  0  0  0  0  0
   -2.0817    6.7053    2.3983 C   0  0  0  0  0  0  0  0  0  0  0  0
   -3.4687    1.1586    1.1111 C   0  0  0  0  0  0  0  0  0  0  0  0
   -1.3322    0.1986   -0.1374 C   0  0  0  0  0  0  0  0  0  0  0  0
   -3.2040    1.2633   -1.5154 C   0  0  0  0  0  0  0  0  0  0  0  0
   -2.8370    0.5356   -0.2077 C   0  0  0  0  0  0  0  0  0  0  0  0
   -2.9870    2.5272    1.4526 C   0  0  0  0  0  0  0  0  0  0  0  0
   -2.7671    4.5882    1.1071 C   0  0  0  0  0  0  0  0  0  0  0  0
   -3.7208    3.7173    1.3687 N   0  0  0  0  0  0  0  0  0  0  0  0
   -1.6893    2.7310    1.5252 N   0  0  0  0  0  0  0  0  0  0  0  0
   -0.6143    6.6102    2.7010 N   0  0  0  0  0  0  0  0  0  0  0  0
   -1.5902    3.9484    0.8678 O   0  0  0  0  0  0  0  0  0  0  0  0
    2.5110   -0.5131    0.0853 H   0  0  0  0  0  0  0  0  0  0  0  0
   -4.3276    2.9809   -4.8428 H   0  0  0  0  0  0  0  0  0  0  0  0
    3.2078    5.7981    1.9597 H   0  0  0  0  0  0  0  0  0  0  0  0
    2.0160    5.9030    0.6646 H   0  0  0  0  0  0  0  0  0  0  0  0
    0.8866   -2.3911    0.0967 H   0  0  0  0  0  0  0  0  0  0  0  0
    1.6834    1.8177   -0.1697 H   0  0  0  0  0  0  0  0  0  0  0  0
   -2.8305    0.9978   -4.9047 H   0  0  0  0  0  0  0  0  0  0  0  0
   -5.0897    3.8729   -2.6521 H   0  0  0  0  0  0  0  0  0  0  0  0
    1.4609    3.9442    1.9196 H   0  0  0  0  0  0  0  0  0  0  0  0
    1.5925    4.7610    3.4843 H   0  0  0  0  0  0  0  0  0  0  0  0
    1.9185    7.4375    3.3046 H   0  0  0  0  0  0  0  0  0  0  0  0
    2.2793    8.1235    1.7128 H   0  0  0  0  0  0  0  0  0  0  0  0
   -1.5466   -1.9546    0.0356 H   0  0  0  0  0  0  0  0  0  0  0  0
   -0.6771    2.2256   -0.5016 H   0  0  0  0  0  0  0  0  0  0  0  0
   -2.1117   -0.0936   -2.8163 H   0  0  0  0  0  0  0  0  0  0  0  0
   -4.4109    2.8415   -0.6237 H   0  0  0  0  0  0  0  0  0  0  0  0
   -2.0889    6.4358    0.2254 H   0  0  0  0  0  0  0  0  0  0  0  0
   -3.6917    6.4770    0.9445 H   0  0  0  0  0  0  0  0  0  0  0  0
   -0.2284    5.2987    1.2270 H   0  0  0  0  0  0  0  0  0  0  0  0
   -0.7034    4.5503    2.8537 H   0  0  0  0  0  0  0  0  0  0  0  0
   -0.0571    8.6140    2.4056 H   0  0  0  0  0  0  0  0  0  0  0  0
   -0.0260    7.6289    0.9367 H   0  0  0  0  0  0  0  0  0  0  0  0
   -2.3568    7.7684    2.4260 H   0  0  0  0  0  0  0  0  0  0  0  0
   -2.6138    6.2520    3.2462 H   0  0  0  0  0  0  0  0  0  0  0  0
   -4.5568    1.2055    0.9954 H   0  0  0  0  0  0  0  0  0  0  0  0
   -3.2632    0.5001    1.9629 H   0  0  0  0  0  0  0  0  0  0  0  0
   -3.3548   -0.4325   -0.2975 H   0  0  0  0  0  0  0  0  0  0  0  0
  1 28  1  0  0  0  0
  2 29  1  0  0  0  0
  3 30  1  0  0  0  0
  3 31  1  0  0  0  0
  4  1  2  0  0  0  0
  4 32  1  0  0  0  0
  5  1  1  0  0  0  0
  5 33  1  0  0  0  0
  6  2  2  0  0  0  0
  6 34  1  0  0  0  0
  7  2  1  0  0  0  0
  7 35  1  0  0  0  0
  8  3  1  0  0  0  0
  8 36  1  0  0  0  0
  8 37  1  0  0  0  0
  9  3  1  0  0  0  0
  9 38  1  0  0  0  0
  9 39  1  0  0  0  0
 10  4  1  0  0  0  0
 10 40  1  0  0  0  0
 11  5  2  0  0  0  0
 11 41  1  0  0  0  0
 12  6  1  0  0  0  0
 12 42  1  0  0  0  0
 13  7  2  0  0  0  0
 13 43  1  0  0  0  0
 14 44  1  0  0  0  0
 14 45  1  0  0  0  0
 15  8  1  0  0  0  0
 15 46  1  0  0  0  0
 15 47  1  0  0  0  0
 16  9  1  0  0  0  0
 16 48  1  0  0  0  0
 16 49  1  0  0  0  0
 17 14  1  0  0  0  0
 17 50  1  0  0  0  0
 17 51  1  0  0  0  0
 18 52  1  0  0  0  0
 18 53  1  0  0  0  0
 19 10  2  0  0  0  0
 19 11  1  0  0  0  0
 20 12  2  0  0  0  0
 20 13  1  0  0  0  0
 21 18  1  0  0  0  0
 21 19  1  0  0  0  0
 21 20  1  0  0  0  0
 21 54  1  0  0  0  0
 22 18  1  0  0  0  0
 23 14  1  0  0  0  0
 24 22  1  0  0  0  0
 24 23  2  0  0  0  0
 25 22  2  0  0  0  0
 26 15  1  0  0  0  0
 26 16  1  0  0  0  0
 26 17  1  0  0  0  0
 27 23  1  0  0  0  0
 27 25  1  0  0  0  0
M  END
>  <DRUGBANK_ID>
DB13397

>  <COMMON_NAME>
Prenoxdiazine

>  <CAS_NUMBER>
47543-65-7

>  <UNII>
S491HH391H

>  <SYNONYMS>
Prenoxdiazine

$$$$
