
 OpenBabel10282417213D

  7  4  0  0  0  0  0  0  0  0999 V2000
    1.0607    0.0757    0.0240 Mo  0  0  0  0  0  0  0  0  0  0  0  0
    1.0640   -0.0366    0.0676 Na  0  3  0  0  0  0  0  0  0  0  0  0
    0.9738   -0.0526   -0.0809 Na  0  3  0  0  0  0  0  0  0  0  0  0
    0.3274    0.5177   -2.0025 O   0  5  0  0  0  0  0  0  0  0  0  0
    0.3274   -1.9003    0.6546 O   0  5  0  0  0  0  0  0  0  0  0  0
    0.4044    1.4487    1.2735 O   0  0  0  0  0  0  0  0  0  0  0  0
    3.0297    0.0757    0.0240 O   0  0  0  0  0  0  0  0  0  0  0  0
  1  4  1  0  0  0  0
  1  5  1  0  0  0  0
  1  6  2  0  0  0  0
  1  7  2  0  0  0  0
M  CHG  4   2   1   3   1   4  -1   5  -1
M  END
>  <DRUGBANK_ID>
DB14496

>  <COMMON_NAME>
Sodium molybdate

>  <CAS_NUMBER>
7631-95-0

>  <UNII>
948QAQ08I1

>  <SYNONYMS>
Anhydric sodium molybdate; Molybdenum (as sodium); Sodium molybdate (anhydrous); Sodium molybdate(VI); Sodium molybdenum oxide

$$$$
