
 OpenBabel10282417243D

 42 44  0  0  0  0  0  0  0  0999 V2000
    1.4430    5.6724    2.4234 O   0  0  0  0  0  0  0  0  0  0  0  0
    0.2209    6.2443    2.2857 C   0  0  0  0  0  0  0  0  0  0  0  0
   -0.1905    7.0173    3.1473 O   0  0  0  0  0  0  0  0  0  0  0  0
   -0.4892    5.8654    1.0898 C   0  0  0  0  0  0  0  0  0  0  0  0
   -1.2217    6.7292    0.3120 N   0  0  0  0  0  0  0  0  0  0  0  0
   -1.7269    6.0466   -0.7074 N   0  0  0  0  0  0  0  0  0  0  0  0
   -1.3718    4.7665   -0.5435 N   0  0  0  0  0  0  0  0  0  0  0  0
   -0.5778    4.5956    0.5579 C   0  0  0  0  0  0  0  0  0  0  0  0
   -0.0494    3.4575    0.9982 O   0  0  0  0  0  0  0  0  0  0  0  0
   -0.2391    2.2589    0.2560 C   0  0  1  0  0  0  0  0  0  0  0  0
    0.4117    2.3263   -1.1340 C   0  0  0  0  0  0  0  0  0  0  0  0
    1.9164    2.5465   -1.0249 C   0  0  0  0  0  0  0  0  0  0  0  0
    2.5701    1.3824   -0.2570 C   0  0  1  0  0  0  0  0  0  0  0  0
    1.9496    1.2909    1.1461 C   0  0  0  0  0  0  0  0  0  0  0  0
    0.4133    1.1619    1.1014 C   0  0  0  0  0  0  0  0  0  0  0  0
    2.4773    0.0862   -1.0508 C   0  0  0  0  0  0  0  0  0  0  0  0
    2.9907    0.0735   -2.3487 C   0  0  0  0  0  0  0  0  0  0  0  0
    2.8857   -1.0607   -3.1438 C   0  0  0  0  0  0  0  0  0  0  0  0
    2.2674   -2.2130   -2.6604 C   0  0  0  0  0  0  0  0  0  0  0  0
    2.0589   -3.3621   -3.3640 O   0  0  0  0  0  0  0  0  0  0  0  0
    2.4632   -3.3355   -4.7205 C   0  0  0  0  0  0  0  0  0  0  0  0
    1.8364   -2.3498   -5.4010 F   0  0  0  0  0  0  0  0  0  0  0  0
    3.8004   -3.1716   -4.8178 F   0  0  0  0  0  0  0  0  0  0  0  0
    2.1391   -4.5121   -5.2956 F   0  0  0  0  0  0  0  0  0  0  0  0
    1.8024   -2.2357   -1.3521 C   0  0  0  0  0  0  0  0  0  0  0  0
    1.8995   -1.0961   -0.5620 C   0  0  0  0  0  0  0  0  0  0  0  0
    1.7841    6.0294    3.2677 H   0  0  0  0  0  0  0  0  0  0  0  0
   -1.6844    4.0902   -1.2291 H   0  0  0  0  0  0  0  0  0  0  0  0
   -1.3102    2.0375    0.1731 H   0  0  0  0  0  0  0  0  0  0  0  0
    0.1894    1.4071   -1.6877 H   0  0  0  0  0  0  0  0  0  0  0  0
    0.0139    3.1353   -1.7473 H   0  0  0  0  0  0  0  0  0  0  0  0
    2.3293    2.6678   -2.0323 H   0  0  0  0  0  0  0  0  0  0  0  0
    2.1236    3.4949   -0.5112 H   0  0  0  0  0  0  0  0  0  0  0  0
    3.6396    1.6073   -0.1446 H   0  0  0  0  0  0  0  0  0  0  0  0
    2.3926    0.4538    1.6993 H   0  0  0  0  0  0  0  0  0  0  0  0
    2.2185    2.1934    1.7112 H   0  0  0  0  0  0  0  0  0  0  0  0
    0.0421    1.1712    2.1321 H   0  0  0  0  0  0  0  0  0  0  0  0
    0.0894    0.2109    0.6765 H   0  0  0  0  0  0  0  0  0  0  0  0
    3.4677    0.9576   -2.7657 H   0  0  0  0  0  0  0  0  0  0  0  0
    3.3075   -0.9934   -4.1403 H   0  0  0  0  0  0  0  0  0  0  0  0
    1.3623   -3.1349   -0.9273 H   0  0  0  0  0  0  0  0  0  0  0  0
    1.4890   -1.1767    0.4391 H   0  0  0  0  0  0  0  0  0  0  0  0
  1  2  1  0  0  0  0
  1 27  1  0  0  0  0
  2  3  2  0  0  0  0
  2  4  1  0  0  0  0
  4  5  1  0  0  0  0
  4  8  2  0  0  0  0
  5  6  2  0  0  0  0
  6  7  1  0  0  0  0
  7  8  1  0  0  0  0
  7 28  1  0  0  0  0
  8  9  1  0  0  0  0
 10 11  1  0  0  0  0
 10 15  1  0  0  0  0
 10 29  1  6  0  0  0
 10  9  1  0  0  0  0
 11 12  1  0  0  0  0
 11 30  1  0  0  0  0
 11 31  1  0  0  0  0
 12 32  1  0  0  0  0
 12 33  1  0  0  0  0
 13 12  1  0  0  0  0
 13 14  1  0  0  0  0
 13 16  1  0  0  0  0
 13 34  1  1  0  0  0
 14 15  1  0  0  0  0
 14 35  1  0  0  0  0
 14 36  1  0  0  0  0
 15 37  1  0  0  0  0
 15 38  1  0  0  0  0
 16 17  2  0  0  0  0
 16 26  1  0  0  0  0
 17 18  1  0  0  0  0
 17 39  1  0  0  0  0
 18 19  2  0  0  0  0
 18 40  1  0  0  0  0
 19 20  1  0  0  0  0
 19 25  1  0  0  0  0
 20 21  1  0  0  0  0
 21 22  1  0  0  0  0
 21 23  1  0  0  0  0
 21 24  1  0  0  0  0
 25 26  2  0  0  0  0
 25 41  1  0  0  0  0
 26 42  1  0  0  0  0
M  END
>  <DRUGBANK_ID>
DB18067

>  <COMMON_NAME>
5-[[trans-4-[4-(trifluoromethoxy)phenyl]cyclohexyl]oxy]-1H-1,2,3-triazole-4-carboxylic acid

>  <CAS_NUMBER>
2360927-98-4

>  <UNII>
WC82E7HRU5

>  <SYNONYMS>
5-((trans-4-(4-(trifluoromethoxy)phenyl)cyclohexyl)oxy)-1h-1,2,3-triazole-4-carboxylic acid; 5-[[trans-4-[(trifluoromethoxy)phenyl]cyclohexyl]oxy]-1H-1,2,3-triazole-4-carboxylic acid

$$$$
