
 OpenBabel10282417143D

 20 20  0  0  1  0  0  0  0  0999 V2000
    1.2595   -0.0616    0.0623 O   0  0  0  0  0  0  0  0  0  0  0  0
    0.6199   -0.9318    1.0094 C   0  0  2  0  0  0  0  0  0  0  0  0
    0.7751   -2.3858    0.5561 C   0  0  0  0  0  0  0  0  0  0  0  0
    0.0573   -2.6798   -0.6472 O   0  0  0  0  0  0  0  0  0  0  0  0
   -1.3276   -2.3193   -0.6265 C   0  0  1  0  0  0  0  0  0  0  0  0
   -1.9918   -3.1319    0.3296 O   0  0  0  0  0  0  0  0  0  0  0  0
   -1.5348   -0.8315   -0.2881 C   0  0  2  0  0  0  0  0  0  0  0  0
   -0.9741   -0.0148   -1.3293 O   0  0  0  0  0  0  0  0  0  0  0  0
   -0.8778   -0.5971    1.0867 C   0  0  2  0  0  0  0  0  0  0  0  0
   -1.0906    0.7319    1.5637 O   0  0  0  0  0  0  0  0  0  0  0  0
    2.2255   -0.1209    0.1959 H   0  0  0  0  0  0  0  0  0  0  0  0
    1.1006   -0.7639    1.9785 H   0  0  0  0  0  0  0  0  0  0  0  0
    1.8285   -2.5998    0.3482 H   0  0  0  0  0  0  0  0  0  0  0  0
    0.4431   -3.0736    1.3411 H   0  0  0  0  0  0  0  0  0  0  0  0
   -1.7316   -2.5356   -1.6216 H   0  0  0  0  0  0  0  0  0  0  0  0
   -1.5294   -3.9847    0.2826 H   0  0  0  0  0  0  0  0  0  0  0  0
   -2.5999   -0.5838   -0.2338 H   0  0  0  0  0  0  0  0  0  0  0  0
   -0.0058    0.0079   -1.1680 H   0  0  0  0  0  0  0  0  0  0  0  0
   -1.3512   -1.2588    1.8241 H   0  0  0  0  0  0  0  0  0  0  0  0
   -0.7059    0.7834    2.4554 H   0  0  0  0  0  0  0  0  0  0  0  0
  1 11  1  0  0  0  0
  2  1  1  0  0  0  0
  2  3  1  0  0  0  0
  2  9  1  0  0  0  0
  2 12  1  1  0  0  0
  3  4  1  0  0  0  0
  3 13  1  0  0  0  0
  3 14  1  0  0  0  0
  4  5  1  0  0  0  0
  5  7  1  0  0  0  0
  5 15  1  6  0  0  0
  5  6  1  0  0  0  0
  6 16  1  0  0  0  0
  7  8  1  0  0  0  0
  7  9  1  0  0  0  0
  7 17  1  1  0  0  0
  8 18  1  0  0  0  0
  9 19  1  1  0  0  0
  9 10  1  0  0  0  0
 10 20  1  0  0  0  0
M  END
>  <DRUGBANK_ID>
DB04286

>  <SECONDARY_ACCESSION_NUMBERS>
EXPT02787

>  <COMMON_NAME>
beta-D-Ribopyranose

>  <CAS_NUMBER>
7296-60-8

>  <UNII>
49X539P7H4

>  <SYNONYMS>
Î²-D-ribopyranose

$$$$
