409
 OpenBabel10282417103D

 45 46  0  0  1  0  0  0  0  0999 V2000
   -1.5633    0.8556   -0.0084 Br  0  0  0  0  0  0  0  0  0  0  0  0
    4.2142   -3.0015   -0.0269 O   0  0  0  0  0  0  0  0  0  0  0  0
   -0.0247   -1.9239    0.5979 O   0  0  0  0  0  0  0  0  0  0  0  0
    4.4737    0.1430    0.0461 O   0  0  0  0  0  0  0  0  0  0  0  0
    0.6113   -6.1739   -1.2231 N   0  0  0  0  0  0  0  0  0  0  0  0
    2.3611   -3.9176    0.0794 N   0  0  0  0  0  0  0  0  0  0  0  0
    0.4728   -4.7382   -1.3677 C   0  0  1  0  0  0  0  0  0  0  0  0
   -0.9953   -4.4901   -1.7626 C   0  0  0  0  0  0  0  0  0  0  0  0
   -1.2568   -5.6332   -2.7010 C   0  0  0  0  0  0  0  0  0  0  0  0
   -0.2702   -6.7176   -2.2608 C   0  0  0  0  0  0  0  0  0  0  0  0
    0.9899   -4.0124   -0.1664 C   0  0  0  0  0  0  0  0  0  0  0  0
    0.2958   -6.6392    0.1474 C   0  0  0  0  0  0  0  0  0  0  0  0
   -1.0956   -6.2895    0.6869 C   0  0  0  0  0  0  0  0  0  0  0  0
    3.0024   -2.7164    0.0595 C   0  0  0  0  0  0  0  0  0  0  0  0
    2.2998   -1.2355    0.0635 C   0  0  0  0  0  0  0  0  0  0  0  0
    0.8246   -0.9531    0.1155 C   0  0  0  0  0  0  0  0  0  0  0  0
    3.1132   -0.0666    0.0147 C   0  0  0  0  0  0  0  0  0  0  0  0
    0.2810    0.3465   -0.0194 C   0  0  0  0  0  0  0  0  0  0  0  0
    2.5041    1.2183   -0.0197 C   0  0  0  0  0  0  0  0  0  0  0  0
    1.1322    1.4235   -0.0545 C   0  0  0  0  0  0  0  0  0  0  0  0
   -1.3872   -2.1118    0.2142 C   0  0  0  0  0  0  0  0  0  0  0  0
    5.3664   -0.9443    0.0899 C   0  0  0  0  0  0  0  0  0  0  0  0
    2.9715   -4.7280   -0.0199 H   0  0  0  0  0  0  0  0  0  0  0  0
    1.0614   -4.3558   -2.2174 H   0  0  0  0  0  0  0  0  0  0  0  0
   -1.7385   -4.5879   -0.9725 H   0  0  0  0  0  0  0  0  0  0  0  0
   -1.1829   -3.5150   -2.2259 H   0  0  0  0  0  0  0  0  0  0  0  0
   -2.2951   -5.9691   -2.6231 H   0  0  0  0  0  0  0  0  0  0  0  0
   -1.0695   -5.2944   -3.7242 H   0  0  0  0  0  0  0  0  0  0  0  0
   -0.7863   -7.6073   -1.9012 H   0  0  0  0  0  0  0  0  0  0  0  0
    0.3391   -7.0006   -3.1237 H   0  0  0  0  0  0  0  0  0  0  0  0
    0.5266   -4.1672    0.8137 H   0  0  0  0  0  0  0  0  0  0  0  0
    0.8474   -3.0688   -0.6082 H   0  0  0  0  0  0  0  0  0  0  0  0
    0.4524   -7.7175    0.1842 H   0  0  0  0  0  0  0  0  0  0  0  0
    1.0437   -6.2506    0.8558 H   0  0  0  0  0  0  0  0  0  0  0  0
   -1.8772   -6.6482    0.0131 H   0  0  0  0  0  0  0  0  0  0  0  0
   -1.2604   -6.7093    1.6782 H   0  0  0  0  0  0  0  0  0  0  0  0
   -1.2391   -5.2158    0.8278 H   0  0  0  0  0  0  0  0  0  0  0  0
    3.1308    2.1100   -0.0072 H   0  0  0  0  0  0  0  0  0  0  0  0
    0.7230    2.4305   -0.0471 H   0  0  0  0  0  0  0  0  0  0  0  0
   -2.0122   -1.6961    0.9964 H   0  0  0  0  0  0  0  0  0  0  0  0
   -1.6776   -1.8196   -0.8081 H   0  0  0  0  0  0  0  0  0  0  0  0
   -1.5910   -3.1746    0.2909 H   0  0  0  0  0  0  0  0  0  0  0  0
    5.1994   -1.5081    1.0154 H   0  0  0  0  0  0  0  0  0  0  0  0
    5.2932   -1.4839   -0.8607 H   0  0  0  0  0  0  0  0  0  0  0  0
    6.4079   -0.6264    0.1427 H   0  0  0  0  0  0  0  0  0  0  0  0
  1 18  1  0  0  0  0
  2 14  2  0  0  0  0
  3 16  1  0  0  0  0
  3 21  1  0  0  0  0
  4 17  1  0  0  0  0
  4 22  1  0  0  0  0
  5  7  1  0  0  0  0
  5 10  1  0  0  0  0
  5 12  1  0  0  0  0
  6 11  1  0  0  0  0
  6 14  1  0  0  0  0
  6 23  1  0  0  0  0
  7  8  1  0  0  0  0
  7 11  1  0  0  0  0
  7 24  1  6  0  0  0
  8  9  1  0  0  0  0
  8 25  1  0  0  0  0
  8 26  1  0  0  0  0
  9 10  1  0  0  0  0
  9 27  1  0  0  0  0
  9 28  1  0  0  0  0
 10 29  1  0  0  0  0
 10 30  1  0  0  0  0
 11 31  1  0  0  0  0
 11 32  1  0  0  0  0
 12 13  1  0  0  0  0
 12 33  1  0  0  0  0
 12 34  1  0  0  0  0
 13 35  1  0  0  0  0
 13 36  1  0  0  0  0
 13 37  1  0  0  0  0
 14 15  1  0  0  0  0
 15 16  1  0  0  0  0
 15 17  2  0  0  0  0
 16 18  2  0  0  0  0
 17 19  1  0  0  0  0
 18 20  1  0  0  0  0
 19 20  2  0  0  0  0
 19 38  1  0  0  0  0
 20 39  1  0  0  0  0
 21 40  1  0  0  0  0
 21 41  1  0  0  0  0
 21 42  1  0  0  0  0
 22 43  1  0  0  0  0
 22 44  1  0  0  0  0
 22 45  1  0  0  0  0
M  END
>  <DRUGBANK_ID>
DB00409

>  <SECONDARY_ACCESSION_NUMBERS>
APRD00316

>  <COMMON_NAME>
Remoxipride

>  <CAS_NUMBER>
80125-14-0

>  <UNII>
0223RD59PE

>  <SYNONYMS>
Remoxiprida; Remoxipride; Remoxipridum

$$$$
