1289
 OpenBabel10282417113D

 58 60  0  0  0  0  0  0  0  0999 V2000
    0.5252   -0.1312   -1.0033 S   0  0  0  0  0  0  0  0  0  0  0  0
    0.5738    4.0104   -0.1455 O   0  0  0  0  0  0  0  0  0  0  0  0
   -0.0808   -0.7388   -2.1135 O   0  0  0  0  0  0  0  0  0  0  0  0
    0.0802   -0.7262    0.3078 O   0  0  0  0  0  0  0  0  0  0  0  0
    7.6486   -4.3619    1.5283 O   0  0  0  0  0  0  0  0  0  0  0  0
   11.6659   -2.9467    0.9987 O   0  0  0  0  0  0  0  0  0  0  0  0
    2.7460    1.5911    1.3546 N   0  0  0  0  0  0  0  0  0  0  0  0
    2.3254    2.7612    0.6028 N   0  0  0  0  0  0  0  0  0  0  0  0
    0.1478    1.7218   -0.5992 N   0  0  0  0  0  0  0  0  0  0  0  0
    7.4042   -2.1432    1.7430 N   0  0  0  0  0  0  0  0  0  0  0  0
   10.4527   -3.5660    0.7350 N   0  0  0  0  0  0  0  0  0  0  0  0
    4.6605   -1.4537    1.5218 C   0  0  0  0  0  0  0  0  0  0  0  0
    3.5092   -2.1612    0.8751 C   0  0  0  0  0  0  0  0  0  0  0  0
    4.9431    0.1393    1.6778 C   0  0  0  0  0  0  0  0  0  0  0  0
    2.3358   -1.2436    1.1507 C   0  0  0  0  0  0  0  0  0  0  0  0
    3.9548    1.2511    1.9824 C   0  0  0  0  0  0  0  0  0  0  0  0
    2.0644    0.4184    1.0364 C   0  0  0  0  0  0  0  0  0  0  0  0
    1.0135    2.8671   -0.0428 C   0  0  0  0  0  0  0  0  0  0  0  0
    2.6977   -0.0702   -1.5157 C   0  0  0  0  0  0  0  0  0  0  0  0
    5.7583   -0.1207   -0.9286 C   0  0  0  0  0  0  0  0  0  0  0  0
    7.1918   -0.2290   -0.1774 C   0  0  0  0  0  0  0  0  0  0  0  0
    3.5769    1.0728   -1.3602 C   0  0  0  0  0  0  0  0  0  0  0  0
    3.4482   -1.2223   -1.6084 C   0  0  0  0  0  0  0  0  0  0  0  0
    7.6526   -0.7584    1.3167 C   0  0  0  0  0  0  0  0  0  0  0  0
    5.0236    1.0709   -1.0267 C   0  0  0  0  0  0  0  0  0  0  0  0
    4.9690   -1.2301   -1.3273 C   0  0  0  0  0  0  0  0  0  0  0  0
    8.1669   -3.2529    1.5473 C   0  0  0  0  0  0  0  0  0  0  0  0
    9.5772   -2.9720    1.5496 C   0  0  0  0  0  0  0  0  0  0  0  0
   10.2012   -2.0020    2.3752 C   0  0  0  0  0  0  0  0  0  0  0  0
   11.4959   -2.0076    1.9651 C   0  0  0  0  0  0  0  0  0  0  0  0
   12.6610   -1.2283    2.3787 C   0  0  0  0  0  0  0  0  0  0  0  0
    3.0131    3.4664    0.3065 H   0  0  0  0  0  0  0  0  0  0  0  0
   -0.7635    1.7606   -0.0923 H   0  0  0  0  0  0  0  0  0  0  0  0
    6.5547   -2.4287    2.2138 H   0  0  0  0  0  0  0  0  0  0  0  0
    5.4655   -1.9548    0.9963 H   0  0  0  0  0  0  0  0  0  0  0  0
    4.6239   -1.8325    2.5402 H   0  0  0  0  0  0  0  0  0  0  0  0
    3.7547   -2.6548   -0.0892 H   0  0  0  0  0  0  0  0  0  0  0  0
    3.2948   -3.2113    1.2036 H   0  0  0  0  0  0  0  0  0  0  0  0
    5.5674    0.1502    2.5709 H   0  0  0  0  0  0  0  0  0  0  0  0
    5.6952    0.6643    1.0963 H   0  0  0  0  0  0  0  0  0  0  0  0
    1.5785   -1.8916    0.6913 H   0  0  0  0  0  0  0  0  0  0  0  0
    2.1931   -1.3238    2.2149 H   0  0  0  0  0  0  0  0  0  0  0  0
    3.5511    0.8073    2.8798 H   0  0  0  0  0  0  0  0  0  0  0  0
    4.5103    2.1740    2.1064 H   0  0  0  0  0  0  0  0  0  0  0  0
    1.9670    0.8055    0.0588 H   0  0  0  0  0  0  0  0  0  0  0  0
    1.1088    0.6588    1.4961 H   0  0  0  0  0  0  0  0  0  0  0  0
    7.8290   -0.7691   -0.8740 H   0  0  0  0  0  0  0  0  0  0  0  0
    7.5813    0.8062   -0.1216 H   0  0  0  0  0  0  0  0  0  0  0  0
    3.1687    2.0619   -1.2924 H   0  0  0  0  0  0  0  0  0  0  0  0
    2.8547   -2.1416   -1.5976 H   0  0  0  0  0  0  0  0  0  0  0  0
    8.7267   -0.5859    1.2892 H   0  0  0  0  0  0  0  0  0  0  0  0
    7.3952   -0.1420    2.1899 H   0  0  0  0  0  0  0  0  0  0  0  0
    5.4203    2.0010   -0.5731 H   0  0  0  0  0  0  0  0  0  0  0  0
    5.4369   -2.1978   -1.0943 H   0  0  0  0  0  0  0  0  0  0  0  0
    9.7398   -1.3427    3.1004 H   0  0  0  0  0  0  0  0  0  0  0  0
   13.3950   -1.8970    2.8301 H   0  0  0  0  0  0  0  0  0  0  0  0
   13.1002   -0.7140    1.5220 H   0  0  0  0  0  0  0  0  0  0  0  0
   12.3754   -0.4757    3.1228 H   0  0  0  0  0  0  0  0  0  0  0  0
  1  3  2  0  0  0  0
  1  4  2  0  0  0  0
  1  9  1  0  0  0  0
  1 19  1  0  0  0  0
  2 18  2  0  0  0  0
  5 27  2  0  0  0  0
  6 11  1  0  0  0  0
  6 30  1  0  0  0  0
  7  8  1  0  0  0  0
  7 16  1  0  0  0  0
  7 17  1  0  0  0  0
  8 18  1  0  0  0  0
  8 32  1  0  0  0  0
  9 18  1  0  0  0  0
  9 33  1  0  0  0  0
 10 24  1  0  0  0  0
 10 27  1  0  0  0  0
 10 34  1  0  0  0  0
 11 28  2  0  0  0  0
 12 13  1  0  0  0  0
 12 14  1  0  0  0  0
 12 35  1  0  0  0  0
 12 36  1  0  0  0  0
 13 15  1  0  0  0  0
 13 37  1  0  0  0  0
 13 38  1  0  0  0  0
 14 16  1  0  0  0  0
 14 39  1  0  0  0  0
 14 40  1  0  0  0  0
 15 17  1  0  0  0  0
 15 41  1  0  0  0  0
 15 42  1  0  0  0  0
 16 43  1  0  0  0  0
 16 44  1  0  0  0  0
 17 45  1  0  0  0  0
 17 46  1  0  0  0  0
 19 22  2  0  0  0  0
 19 23  1  0  0  0  0
 20 21  1  0  0  0  0
 20 25  2  0  0  0  0
 20 26  1  0  0  0  0
 21 24  1  0  0  0  0
 21 47  1  0  0  0  0
 21 48  1  0  0  0  0
 22 25  1  0  0  0  0
 22 49  1  0  0  0  0
 23 26  2  0  0  0  0
 23 50  1  0  0  0  0
 24 51  1  0  0  0  0
 24 52  1  0  0  0  0
 25 53  1  0  0  0  0
 26 54  1  0  0  0  0
 27 28  1  0  0  0  0
 28 29  1  0  0  0  0
 29 30  2  0  0  0  0
 29 55  1  0  0  0  0
 30 31  1  0  0  0  0
 31 56  1  0  0  0  0
 31 57  1  0  0  0  0
 31 58  1  0  0  0  0
M  END
>  <DRUGBANK_ID>
DB01289

>  <COMMON_NAME>
Glisoxepide

>  <CAS_NUMBER>
25046-79-1

>  <UNII>
H7SC0I332I

>  <SYNONYMS>
Glisoxepide

$$$$
