
 OpenBabel10282417183D

155155  0  0  0  0  0  0  0  0999 V2000
    0.9603    0.0682    0.0293 C   0  0  0  0  0  0  0  0  0  0  0  0
    0.7269   -1.2881    0.3988 O   0  0  0  0  0  0  0  0  0  0  0  0
    0.9891   -2.2291   -0.5618 C   0  0  0  0  0  0  0  0  0  0  0  0
    2.2688   -2.3369   -1.1022 C   0  0  0  0  0  0  0  0  0  0  0  0
    3.2710   -1.4440   -0.8242 O   0  0  0  0  0  0  0  0  0  0  0  0
    2.6237   -3.4046   -1.9237 C   0  0  0  0  0  0  0  0  0  0  0  0
    4.0609   -3.4971   -2.3060 C   0  0  0  0  0  0  0  0  0  0  0  0
    1.6865   -4.4178   -2.2215 C   0  0  0  0  0  0  0  0  0  0  0  0
    2.0411   -5.6206   -3.0560 C   0  0  0  0  0  0  0  0  0  0  0  0
    1.7781   -6.9008   -2.3122 C   0  0  0  0  0  0  0  0  0  0  0  0
    1.0490   -7.9545   -2.7364 C   0  0  0  0  0  0  0  0  0  0  0  0
    0.3202   -7.9319   -4.0503 C   0  0  0  0  0  0  0  0  0  0  0  0
    0.8132   -9.1988   -1.8821 C   0  0  0  0  0  0  0  0  0  0  0  0
    2.0394  -10.0753   -1.5837 C   0  0  0  0  0  0  0  0  0  0  0  0
    3.0517   -9.3296   -0.7793 C   0  0  0  0  0  0  0  0  0  0  0  0
    3.6467   -9.6182    0.3848 C   0  0  0  0  0  0  0  0  0  0  0  0
    3.3542  -10.9036    1.0804 C   0  0  0  0  0  0  0  0  0  0  0  0
    4.6043   -8.6434    1.0738 C   0  0  0  0  0  0  0  0  0  0  0  0
    5.9201   -8.2728    0.3619 C   0  0  0  0  0  0  0  0  0  0  0  0
    5.7233   -7.5637   -0.9264 C   0  0  0  0  0  0  0  0  0  0  0  0
    6.2407   -6.4053   -1.3961 C   0  0  0  0  0  0  0  0  0  0  0  0
    7.1100   -5.5511   -0.5480 C   0  0  0  0  0  0  0  0  0  0  0  0
    5.8293   -5.8526   -2.7442 C   0  0  0  0  0  0  0  0  0  0  0  0
    6.0033   -6.5409   -4.0960 C   0  0  0  0  0  0  0  0  0  0  0  0
    5.2441   -7.8159   -4.1533 C   0  0  0  0  0  0  0  0  0  0  0  0
    4.3823   -8.3089   -5.0535 C   0  0  0  0  0  0  0  0  0  0  0  0
    3.9991   -7.5251   -6.2548 C   0  0  0  0  0  0  0  0  0  0  0  0
    3.7048   -9.6583   -4.8754 C   0  0  0  0  0  0  0  0  0  0  0  0
    4.5506  -10.9347   -4.6604 C   0  0  0  0  0  0  0  0  0  0  0  0
    5.4197  -10.9260   -3.4457 C   0  0  0  0  0  0  0  0  0  0  0  0
    5.5961  -11.8082   -2.4531 C   0  0  0  0  0  0  0  0  0  0  0  0
    4.8303  -13.0797   -2.4168 C   0  0  0  0  0  0  0  0  0  0  0  0
    6.5099  -11.5412   -1.2624 C   0  0  0  0  0  0  0  0  0  0  0  0
    8.0100  -11.2253   -1.4585 C   0  0  0  0  0  0  0  0  0  0  0  0
    8.3000  -10.0103   -2.2765 C   0  0  0  0  0  0  0  0  0  0  0  0
    9.1001   -8.9547   -2.0706 C   0  0  0  0  0  0  0  0  0  0  0  0
    9.8913   -8.8217   -0.8204 C   0  0  0  0  0  0  0  0  0  0  0  0
    9.1885   -7.7810   -3.0379 C   0  0  0  0  0  0  0  0  0  0  0  0
    9.5794   -7.9915   -4.5171 C   0  0  0  0  0  0  0  0  0  0  0  0
    8.6791   -8.8980   -5.2883 C   0  0  0  0  0  0  0  0  0  0  0  0
    8.0681   -8.7662   -6.4739 C   0  0  0  0  0  0  0  0  0  0  0  0
    8.2071   -7.5277   -7.2820 C   0  0  0  0  0  0  0  0  0  0  0  0
    7.1340   -9.8290   -7.0362 C   0  0  0  0  0  0  0  0  0  0  0  0
    7.6672  -11.2546   -7.2665 C   0  0  0  0  0  0  0  0  0  0  0  0
    8.0969  -11.9793   -6.0348 C   0  0  0  0  0  0  0  0  0  0  0  0
    7.7860  -13.1789   -5.5252 C   0  0  0  0  0  0  0  0  0  0  0  0
    6.7976  -14.0783   -6.1703 C   0  0  0  0  0  0  0  0  0  0  0  0
    8.3732  -13.6708   -4.2109 C   0  0  0  0  0  0  0  0  0  0  0  0
    9.9050  -13.8011   -4.1098 C   0  0  0  0  0  0  0  0  0  0  0  0
   10.6467  -12.5074   -4.1820 C   0  0  0  0  0  0  0  0  0  0  0  0
   11.5201  -11.9053   -3.3649 C   0  0  0  0  0  0  0  0  0  0  0  0
   11.9167  -12.4663   -2.0480 C   0  0  0  0  0  0  0  0  0  0  0  0
   12.1251  -10.5668   -3.7425 C   0  0  0  0  0  0  0  0  0  0  0  0
   12.8858  -10.4894   -5.0891 C   0  0  0  0  0  0  0  0  0  0  0  0
   12.0925  -10.7719   -6.3441 C   0  0  0  0  0  0  0  0  0  0  0  0
   11.8059   -9.9235   -7.3453 C   0  0  0  0  0  0  0  0  0  0  0  0
   10.9021  -10.3339   -8.4719 C   0  0  0  0  0  0  0  0  0  0  0  0
   12.4008   -8.5571   -7.4047 C   0  0  0  0  0  0  0  0  0  0  0  0
    0.3848   -4.2809   -1.7200 C   0  0  0  0  0  0  0  0  0  0  0  0
   -0.6143   -5.1868   -2.0020 O   0  0  0  0  0  0  0  0  0  0  0  0
    0.0303   -3.2074   -0.8895 C   0  0  0  0  0  0  0  0  0  0  0  0
   -1.2790   -3.2781   -0.4883 O   0  0  0  0  0  0  0  0  0  0  0  0
   -1.7953   -2.1903    0.2373 C   0  0  0  0  0  0  0  0  0  0  0  0
    0.4311    0.6847    0.7594 H   0  0  0  0  0  0  0  0  0  0  0  0
    0.5939    0.3023   -0.9738 H   0  0  0  0  0  0  0  0  0  0  0  0
    2.0104    0.3487    0.1286 H   0  0  0  0  0  0  0  0  0  0  0  0
    3.1350   -1.1122    0.0738 H   0  0  0  0  0  0  0  0  0  0  0  0
    4.4707   -4.2356   -1.6201 H   0  0  0  0  0  0  0  0  0  0  0  0
    4.1684   -3.7348   -3.3666 H   0  0  0  0  0  0  0  0  0  0  0  0
    4.6702   -2.6076   -2.1316 H   0  0  0  0  0  0  0  0  0  0  0  0
    1.4931   -5.5274   -3.9907 H   0  0  0  0  0  0  0  0  0  0  0  0
    3.0733   -5.6291   -3.3811 H   0  0  0  0  0  0  0  0  0  0  0  0
    2.1734   -6.8850   -1.2952 H   0  0  0  0  0  0  0  0  0  0  0  0
    0.6251   -8.7663   -4.6816 H   0  0  0  0  0  0  0  0  0  0  0  0
   -0.7567   -7.9725   -3.8617 H   0  0  0  0  0  0  0  0  0  0  0  0
    0.4889   -7.0234   -4.6288 H   0  0  0  0  0  0  0  0  0  0  0  0
    0.3478   -8.9026   -0.9330 H   0  0  0  0  0  0  0  0  0  0  0  0
    0.0800   -9.8397   -2.3876 H   0  0  0  0  0  0  0  0  0  0  0  0
    1.7003  -10.9897   -1.0990 H   0  0  0  0  0  0  0  0  0  0  0  0
    2.5095  -10.4249   -2.4981 H   0  0  0  0  0  0  0  0  0  0  0  0
    3.3179   -8.4005   -1.2410 H   0  0  0  0  0  0  0  0  0  0  0  0
    4.2758  -11.4760    1.1942 H   0  0  0  0  0  0  0  0  0  0  0  0
    2.8928  -10.7064    2.0491 H   0  0  0  0  0  0  0  0  0  0  0  0
    2.6634  -11.5385    0.5224 H   0  0  0  0  0  0  0  0  0  0  0  0
    4.0621   -7.7157    1.3053 H   0  0  0  0  0  0  0  0  0  0  0  0
    4.8891   -9.0710    2.0423 H   0  0  0  0  0  0  0  0  0  0  0  0
    6.5379   -7.7025    1.0539 H   0  0  0  0  0  0  0  0  0  0  0  0
    6.5097   -9.1607    0.1552 H   0  0  0  0  0  0  0  0  0  0  0  0
    5.0666   -8.0859   -1.5800 H   0  0  0  0  0  0  0  0  0  0  0  0
    8.0341   -5.3375   -1.0854 H   0  0  0  0  0  0  0  0  0  0  0  0
    6.5921   -4.6210   -0.2937 H   0  0  0  0  0  0  0  0  0  0  0  0
    7.3846   -6.0302    0.3919 H   0  0  0  0  0  0  0  0  0  0  0  0
    4.7544   -5.7869   -2.6527 H   0  0  0  0  0  0  0  0  0  0  0  0
    6.2300   -4.8375   -2.8509 H   0  0  0  0  0  0  0  0  0  0  0  0
    5.6670   -5.8427   -4.8635 H   0  0  0  0  0  0  0  0  0  0  0  0
    7.0456   -6.7200   -4.3207 H   0  0  0  0  0  0  0  0  0  0  0  0
    5.4290   -8.4117   -3.2924 H   0  0  0  0  0  0  0  0  0  0  0  0
    4.2785   -8.0862   -7.1467 H   0  0  0  0  0  0  0  0  0  0  0  0
    2.9251   -7.3266   -6.2388 H   0  0  0  0  0  0  0  0  0  0  0  0
    4.5036   -6.5597   -6.3063 H   0  0  0  0  0  0  0  0  0  0  0  0
    3.0145   -9.5381   -4.0483 H   0  0  0  0  0  0  0  0  0  0  0  0
    3.0588   -9.8524   -5.7393 H   0  0  0  0  0  0  0  0  0  0  0  0
    3.8768  -11.7906   -4.6610 H   0  0  0  0  0  0  0  0  0  0  0  0
    5.1927  -11.1052   -5.5196 H   0  0  0  0  0  0  0  0  0  0  0  0
    6.0184  -10.0492   -3.3954 H   0  0  0  0  0  0  0  0  0  0  0  0
    5.5310  -13.9151   -2.3910 H   0  0  0  0  0  0  0  0  0  0  0  0
    4.1779  -13.0911   -1.5413 H   0  0  0  0  0  0  0  0  0  0  0  0
    4.2015  -13.2127   -3.2973 H   0  0  0  0  0  0  0  0  0  0  0  0
    6.0429  -10.7297   -0.7160 H   0  0  0  0  0  0  0  0  0  0  0  0
    6.4583  -12.3898   -0.5701 H   0  0  0  0  0  0  0  0  0  0  0  0
    8.4737  -11.1605   -0.4742 H   0  0  0  0  0  0  0  0  0  0  0  0
    8.5113  -12.0660   -1.9287 H   0  0  0  0  0  0  0  0  0  0  0  0
    7.7665  -10.0229   -3.1971 H   0  0  0  0  0  0  0  0  0  0  0  0
   10.9470   -8.7253   -1.0775 H   0  0  0  0  0  0  0  0  0  0  0  0
    9.5482   -7.9496   -0.2591 H   0  0  0  0  0  0  0  0  0  0  0  0
    9.7940   -9.6905   -0.1697 H   0  0  0  0  0  0  0  0  0  0  0  0
    8.2231   -7.2934   -2.9889 H   0  0  0  0  0  0  0  0  0  0  0  0
    9.8775   -7.0285   -2.6369 H   0  0  0  0  0  0  0  0  0  0  0  0
    9.6548   -7.0129   -4.9910 H   0  0  0  0  0  0  0  0  0  0  0  0
   10.5854   -8.3928   -4.5823 H   0  0  0  0  0  0  0  0  0  0  0  0
    8.5206   -9.8185   -4.7781 H   0  0  0  0  0  0  0  0  0  0  0  0
    8.6004   -7.7832   -8.2666 H   0  0  0  0  0  0  0  0  0  0  0  0
    7.2357   -7.0373   -7.3732 H   0  0  0  0  0  0  0  0  0  0  0  0
    8.8981   -6.8140   -6.8337 H   0  0  0  0  0  0  0  0  0  0  0  0
    6.2740   -9.8588   -6.3793 H   0  0  0  0  0  0  0  0  0  0  0  0
    6.7279   -9.4868   -7.9955 H   0  0  0  0  0  0  0  0  0  0  0  0
    6.9220  -11.8291   -7.8174 H   0  0  0  0  0  0  0  0  0  0  0  0
    8.5261  -11.1917   -7.9270 H   0  0  0  0  0  0  0  0  0  0  0  0
    8.8052  -11.4124   -5.4754 H   0  0  0  0  0  0  0  0  0  0  0  0
    7.2761  -15.0350   -6.3859 H   0  0  0  0  0  0  0  0  0  0  0  0
    5.9417  -14.2200   -5.5060 H   0  0  0  0  0  0  0  0  0  0  0  0
    6.4241  -13.6739   -7.1108 H   0  0  0  0  0  0  0  0  0  0  0  0
    7.9949  -13.0125   -3.4377 H   0  0  0  0  0  0  0  0  0  0  0  0
    7.9496  -14.6500   -3.9576 H   0  0  0  0  0  0  0  0  0  0  0  0
   10.1498  -14.3280   -3.1858 H   0  0  0  0  0  0  0  0  0  0  0  0
   10.2609  -14.4262   -4.9361 H   0  0  0  0  0  0  0  0  0  0  0  0
   10.4469  -11.9798   -5.0911 H   0  0  0  0  0  0  0  0  0  0  0  0
   12.9993  -12.6064   -2.0332 H   0  0  0  0  0  0  0  0  0  0  0  0
   11.6139  -11.7907   -1.2435 H   0  0  0  0  0  0  0  0  0  0  0  0
   11.4528  -13.4347   -1.8581 H   0  0  0  0  0  0  0  0  0  0  0  0
   11.3185   -9.8428   -3.7084 H   0  0  0  0  0  0  0  0  0  0  0  0
   12.8094  -10.2272   -2.9537 H   0  0  0  0  0  0  0  0  0  0  0  0
   13.3328   -9.4908   -5.1513 H   0  0  0  0  0  0  0  0  0  0  0  0
   13.7167  -11.2001   -5.0574 H   0  0  0  0  0  0  0  0  0  0  0  0
   11.7380  -11.7925   -6.4627 H   0  0  0  0  0  0  0  0  0  0  0  0
   10.0537   -9.6460   -8.5509 H   0  0  0  0  0  0  0  0  0  0  0  0
   11.4272  -10.3421   -9.4280 H   0  0  0  0  0  0  0  0  0  0  0  0
   10.5051  -11.3427   -8.3170 H   0  0  0  0  0  0  0  0  0  0  0  0
   12.0907   -7.9532   -6.5478 H   0  0  0  0  0  0  0  0  0  0  0  0
   13.4924   -8.6526   -7.4019 H   0  0  0  0  0  0  0  0  0  0  0  0
   12.1193   -8.0327   -8.3207 H   0  0  0  0  0  0  0  0  0  0  0  0
   -0.2616   -5.9629   -2.4552 H   0  0  0  0  0  0  0  0  0  0  0  0
   -1.3208   -2.1426    1.2194 H   0  0  0  0  0  0  0  0  0  0  0  0
   -1.6927   -1.2619   -0.3316 H   0  0  0  0  0  0  0  0  0  0  0  0
   -2.8606   -2.3699    0.3948 H   0  0  0  0  0  0  0  0  0  0  0  0
  1  2  1  0  0  0  0
  1 64  1  0  0  0  0
  1 65  1  0  0  0  0
  1 66  1  0  0  0  0
  2  3  1  0  0  0  0
  3  4  1  0  0  0  0
  3 61  2  0  0  0  0
  4  5  1  0  0  0  0
  4  6  2  0  0  0  0
  5 67  1  0  0  0  0
  6  7  1  0  0  0  0
  6  8  1  0  0  0  0
  7 68  1  0  0  0  0
  7 69  1  0  0  0  0
  7 70  1  0  0  0  0
  8  9  1  0  0  0  0
  8 59  2  0  0  0  0
  9 10  1  0  0  0  0
  9 71  1  0  0  0  0
  9 72  1  0  0  0  0
 10 11  2  0  0  0  0
 10 73  1  0  0  0  0
 11 12  1  0  0  0  0
 11 13  1  0  0  0  0
 12 74  1  0  0  0  0
 12 75  1  0  0  0  0
 12 76  1  0  0  0  0
 13 14  1  0  0  0  0
 13 77  1  0  0  0  0
 13 78  1  0  0  0  0
 14 15  1  0  0  0  0
 14 79  1  0  0  0  0
 14 80  1  0  0  0  0
 15 16  2  0  0  0  0
 15 81  1  0  0  0  0
 16 17  1  0  0  0  0
 16 18  1  0  0  0  0
 17 82  1  0  0  0  0
 17 83  1  0  0  0  0
 17 84  1  0  0  0  0
 18 19  1  0  0  0  0
 18 85  1  0  0  0  0
 18 86  1  0  0  0  0
 19 20  1  0  0  0  0
 19 87  1  0  0  0  0
 19 88  1  0  0  0  0
 20 21  2  0  0  0  0
 20 89  1  0  0  0  0
 21 22  1  0  0  0  0
 21 23  1  0  0  0  0
 22 90  1  0  0  0  0
 22 91  1  0  0  0  0
 22 92  1  0  0  0  0
 23 24  1  0  0  0  0
 23 93  1  0  0  0  0
 23 94  1  0  0  0  0
 24 25  1  0  0  0  0
 24 95  1  0  0  0  0
 24 96  1  0  0  0  0
 25 26  2  0  0  0  0
 25 97  1  0  0  0  0
 26 27  1  0  0  0  0
 26 28  1  0  0  0  0
 27 98  1  0  0  0  0
 27 99  1  0  0  0  0
 27100  1  0  0  0  0
 28 29  1  0  0  0  0
 28101  1  0  0  0  0
 28102  1  0  0  0  0
 29 30  1  0  0  0  0
 29103  1  0  0  0  0
 29104  1  0  0  0  0
 30 31  2  0  0  0  0
 30105  1  0  0  0  0
 31 32  1  0  0  0  0
 31 33  1  0  0  0  0
 32106  1  0  0  0  0
 32107  1  0  0  0  0
 32108  1  0  0  0  0
 33 34  1  0  0  0  0
 33109  1  0  0  0  0
 33110  1  0  0  0  0
 34 35  1  0  0  0  0
 34111  1  0  0  0  0
 34112  1  0  0  0  0
 35 36  2  0  0  0  0
 35113  1  0  0  0  0
 36 37  1  0  0  0  0
 36 38  1  0  0  0  0
 37114  1  0  0  0  0
 37115  1  0  0  0  0
 37116  1  0  0  0  0
 38 39  1  0  0  0  0
 38117  1  0  0  0  0
 38118  1  0  0  0  0
 39 40  1  0  0  0  0
 39119  1  0  0  0  0
 39120  1  0  0  0  0
 40 41  2  0  0  0  0
 40121  1  0  0  0  0
 41 42  1  0  0  0  0
 41 43  1  0  0  0  0
 42122  1  0  0  0  0
 42123  1  0  0  0  0
 42124  1  0  0  0  0
 43 44  1  0  0  0  0
 43125  1  0  0  0  0
 43126  1  0  0  0  0
 44 45  1  0  0  0  0
 44127  1  0  0  0  0
 44128  1  0  0  0  0
 45 46  2  0  0  0  0
 45129  1  0  0  0  0
 46 47  1  0  0  0  0
 46 48  1  0  0  0  0
 47130  1  0  0  0  0
 47131  1  0  0  0  0
 47132  1  0  0  0  0
 48 49  1  0  0  0  0
 48133  1  0  0  0  0
 48134  1  0  0  0  0
 49 50  1  0  0  0  0
 49135  1  0  0  0  0
 49136  1  0  0  0  0
 50 51  2  0  0  0  0
 50137  1  0  0  0  0
 51 52  1  0  0  0  0
 51 53  1  0  0  0  0
 52138  1  0  0  0  0
 52139  1  0  0  0  0
 52140  1  0  0  0  0
 53 54  1  0  0  0  0
 53141  1  0  0  0  0
 53142  1  0  0  0  0
 54 55  1  0  0  0  0
 54143  1  0  0  0  0
 54144  1  0  0  0  0
 55 56  2  0  0  0  0
 55145  1  0  0  0  0
 56 57  1  0  0  0  0
 56 58  1  0  0  0  0
 57146  1  0  0  0  0
 57147  1  0  0  0  0
 57148  1  0  0  0  0
 58149  1  0  0  0  0
 58150  1  0  0  0  0
 58151  1  0  0  0  0
 59 60  1  0  0  0  0
 59 61  1  0  0  0  0
 60152  1  0  0  0  0
 61 62  1  0  0  0  0
 62 63  1  0  0  0  0
 63153  1  0  0  0  0
 63154  1  0  0  0  0
 63155  1  0  0  0  0
M  END
>  <DRUGBANK_ID>
DB11340

>  <COMMON_NAME>
Ubiquinol

>  <CAS_NUMBER>
992-78-9

>  <UNII>
M9NL0C577Y

$$$$
