4FP
 OpenBabel10282417163D

 30 31  0  0  0  0  0  0  0  0999 V2000
    2.1838    0.0540   -0.0820 F   0  0  0  0  0  0  0  0  0  0  0  0
    0.8640    0.0877    0.1675 C   0  0  0  0  0  0  0  0  0  0  0  0
    0.1813    1.2978    0.0898 C   0  0  0  0  0  0  0  0  0  0  0  0
   -1.2198    1.2987    0.1665 C   0  0  0  0  0  0  0  0  0  0  0  0
   -1.9206    0.1057    0.3683 C   0  0  0  0  0  0  0  0  0  0  0  0
   -3.4109    0.0139    0.0830 C   0  0  0  0  0  0  0  0  0  0  0  0
   -3.8863   -0.6968   -1.2349 C   0  0  0  0  0  0  0  0  0  0  0  0
   -3.4814   -2.1761   -1.3613 C   0  0  0  0  0  0  0  0  0  0  0  0
   -2.0696   -2.3783   -1.9197 C   0  0  0  0  0  0  0  0  0  0  0  0
   -1.7461   -1.6097   -3.1177 N   0  0  0  0  0  0  0  0  0  0  0  0
   -2.0583   -0.1872   -2.9393 C   0  0  0  0  0  0  0  0  0  0  0  0
   -3.5140    0.0239   -2.5422 C   0  0  0  0  0  0  0  0  0  0  0  0
   -1.1883   -1.0488    0.6906 C   0  0  0  0  0  0  0  0  0  0  0  0
    0.1959   -1.0776    0.4639 C   0  0  0  0  0  0  0  0  0  0  0  0
    0.7292    2.2079   -0.1053 H   0  0  0  0  0  0  0  0  0  0  0  0
   -1.7532    2.2301   -0.0161 H   0  0  0  0  0  0  0  0  0  0  0  0
   -3.8859   -0.4881    0.9356 H   0  0  0  0  0  0  0  0  0  0  0  0
   -3.8285    1.0305    0.0776 H   0  0  0  0  0  0  0  0  0  0  0  0
   -4.9863   -0.6778   -1.1790 H   0  0  0  0  0  0  0  0  0  0  0  0
   -3.5935   -2.6722   -0.3894 H   0  0  0  0  0  0  0  0  0  0  0  0
   -4.1843   -2.6810   -2.0380 H   0  0  0  0  0  0  0  0  0  0  0  0
   -1.3256   -2.0737   -1.2153 H   0  0  0  0  0  0  0  0  0  0  0  0
   -1.8554   -3.4447   -2.0390 H   0  0  0  0  0  0  0  0  0  0  0  0
   -0.7307   -1.6708   -3.2377 H   0  0  0  0  0  0  0  0  0  0  0  0
   -1.8467    0.3399   -3.8746 H   0  0  0  0  0  0  0  0  0  0  0  0
   -1.3890    0.2582   -2.2046 H   0  0  0  0  0  0  0  0  0  0  0  0
   -4.1402   -0.3763   -3.3541 H   0  0  0  0  0  0  0  0  0  0  0  0
   -3.7470    1.0914   -2.4746 H   0  0  0  0  0  0  0  0  0  0  0  0
   -1.7020   -1.9854    0.8876 H   0  0  0  0  0  0  0  0  0  0  0  0
    0.7199   -2.0326    0.4108 H   0  0  0  0  0  0  0  0  0  0  0  0
  1  2  1  0  0  0  0
  2  3  1  0  0  0  0
  2 14  2  0  0  0  0
  3  4  2  0  0  0  0
  3 15  1  0  0  0  0
  4  5  1  0  0  0  0
  4 16  1  0  0  0  0
  5  6  1  0  0  0  0
  5 13  2  0  0  0  0
  6  7  1  0  0  0  0
  6 17  1  0  0  0  0
  6 18  1  0  0  0  0
  7 12  1  0  0  0  0
  7  8  1  0  0  0  0
  7 19  1  0  0  0  0
  8  9  1  0  0  0  0
  8 20  1  0  0  0  0
  8 21  1  0  0  0  0
  9 10  1  0  0  0  0
  9 22  1  0  0  0  0
  9 23  1  0  0  0  0
 10 11  1  0  0  0  0
 10 24  1  0  0  0  0
 11 12  1  0  0  0  0
 11 25  1  0  0  0  0
 11 26  1  0  0  0  0
 12 27  1  0  0  0  0
 12 28  1  0  0  0  0
 13 14  1  0  0  0  0
 13 29  1  0  0  0  0
 14 30  1  0  0  0  0
M  END
>  <DRUGBANK_ID>
DB07110

>  <COMMON_NAME>
4-(4-FLUOROBENZYL)PIPERIDINE

$$$$
