
 OpenBabel10282417233D

118126  0  0  0  0  0  0  0  0999 V2000
   13.3054   -5.9508    3.5694 C   0  0  2  0  0  0  0  0  0  0  0  0
   12.3109   -6.9796    3.9707 C   0  0  2  0  0  0  0  0  0  0  0  0
   13.9810   -7.4995    2.5140 C   0  0  2  0  0  0  0  0  0  0  0  0
   12.3330   -4.4071    3.3130 C   0  0  0  0  0  0  0  0  0  0  0  0
   14.2013   -5.0481    4.4375 C   0  0  0  0  0  0  0  0  0  0  0  0
   12.7730   -8.8041    3.0332 C   0  0  2  0  0  0  0  0  0  0  0  0
   12.5745   -6.2426    5.6011 N   0  0  3  0  0  0  0  0  0  0  0  0
   14.2944   -9.6640    2.8042 C   0  0  2  0  0  0  0  0  0  0  0  0
   12.8290   -6.0584    1.5007 N   0  0  0  0  0  0  0  0  0  0  0  0
   12.3212   -4.3865    1.9888 C   0  0  0  0  0  0  0  0  0  0  0  0
   11.8065   -3.0871    4.2413 C   0  0  0  0  0  0  0  0  0  0  0  0
   13.7466   -5.3557    5.7993 C   0  0  0  0  0  0  0  0  0  0  0  0
   13.2994  -10.4424    3.6613 C   0  0  2  0  0  0  0  0  0  0  0  0
   12.7670   -8.9659    4.5812 C   0  0  0  0  0  0  0  0  0  0  0  0
   14.0632   -8.8499    1.3382 C   0  0  0  0  0  0  0  0  0  0  0  0
   12.7465   -7.4516    6.3286 C   0  0  0  0  0  0  0  0  0  0  0  0
   15.4474  -11.4629    2.7226 C   0  0  0  0  0  0  0  0  0  0  0  0
   14.4655  -11.1153    1.4505 O   0  0  0  0  0  0  0  0  0  0  0  0
   12.9371   -5.4145    0.1282 C   0  0  0  0  0  0  0  0  0  0  0  0
   11.5705   -3.0138    1.4890 C   0  0  0  0  0  0  0  0  0  0  0  0
   11.2642   -1.7406    4.0222 C   0  0  0  0  0  0  0  0  0  0  0  0
   12.5652  -11.9120    3.3613 O   0  0  0  0  0  0  0  0  0  0  0  0
   13.5663   -8.2393    5.3673 C   0  0  0  0  0  0  0  0  0  0  0  0
   15.9510   -9.1295    1.9606 C   0  0  0  0  0  0  0  0  0  0  0  0
   16.2673  -12.2669    1.5473 O   0  0  0  0  0  0  0  0  0  0  0  0
   15.4233  -12.4760    3.4533 O   0  0  0  0  0  0  0  0  0  0  0  0
   11.0878   -1.7868    2.5570 C   0  0  0  0  0  0  0  0  0  0  0  0
   11.4809   -0.1526    5.2949 C   0  0  2  0  0  0  0  0  0  0  0  0
   12.7383  -13.3374    3.0421 C   0  0  0  0  0  0  0  0  0  0  0  0
   17.1805  -11.5257    0.8163 C   0  0  0  0  0  0  0  0  0  0  0  0
   10.6383   -0.5879    2.1010 O   0  0  0  0  0  0  0  0  0  0  0  0
   13.5470    0.4054    5.5766 C   0  0  0  0  0  0  0  0  0  0  0  0
   10.5856    1.3081    5.3433 C   0  0  0  0  0  0  0  0  0  0  0  0
    9.8334   -0.1429    4.2477 C   0  0  0  0  0  0  0  0  0  0  0  0
   13.7683  -13.8197    2.0929 C   0  0  0  0  0  0  0  0  0  0  0  0
   11.9800  -14.2429    3.3938 O   0  0  0  0  0  0  0  0  0  0  0  0
   11.4875    0.5660    2.0149 C   0  0  0  0  0  0  0  0  0  0  0  0
   14.4483   -0.7167    5.1114 C   0  0  0  0  0  0  0  0  0  0  0  0
   15.3087    0.1219    6.1038 N   0  0  0  0  0  0  0  0  0  0  0  0
   11.0332    2.4840    4.5054 C   0  0  1  0  0  0  0  0  0  0  0  0
    8.8295   -1.0424    4.2966 O   0  0  0  0  0  0  0  0  0  0  0  0
    9.3263    0.6857    3.4880 O   0  0  0  0  0  0  0  0  0  0  0  0
   15.5117    0.1289    4.1002 C   0  0  0  0  0  0  0  0  0  0  0  0
   13.2064   -1.3500    5.2305 C   0  0  0  0  0  0  0  0  0  0  0  0
   16.4280    0.5050    5.0150 C   0  0  0  0  0  0  0  0  0  0  0  0
   12.5050    2.3038    4.5514 C   0  0  0  0  0  0  0  0  0  0  0  0
   10.3313    2.8393    3.1020 C   0  0  0  0  0  0  0  0  0  0  0  0
    8.8987   -2.1894    5.0355 C   0  0  0  0  0  0  0  0  0  0  0  0
   15.4749    1.1936    2.9310 C   0  0  0  0  0  0  0  0  0  0  0  0
   12.7895   -0.2148    3.7311 C   0  0  0  0  0  0  0  0  0  0  0  0
   17.2768    1.6030    4.5905 C   0  0  0  0  0  0  0  0  0  0  0  0
   12.8950    1.5397    3.3712 N   0  3  3  0  0  0  0  0  0  0  0  0
   10.2694    1.9074    1.6121 C   0  0  2  0  0  0  0  0  0  0  0  0
   15.7446    2.5079    2.9380 C   0  0  0  0  0  0  0  0  0  0  0  0
   16.8747    2.5933    3.6147 C   0  0  0  0  0  0  0  0  0  0  0  0
   12.2058    2.5678    1.8720 C   0  0  0  0  0  0  0  0  0  0  0  0
   10.7452    0.2805    0.3139 C   0  0  0  0  0  0  0  0  0  0  0  0
    8.9524    2.0887    1.3252 O   0  0  0  0  0  0  0  0  0  0  0  0
   12.6081   -0.5590    0.5573 C   0  0  0  0  0  0  0  0  0  0  0  0
   11.2603   -6.4231    4.0965 H   0  0  0  0  0  0  0  0  0  0  0  0
   14.7909   -6.8407    2.1522 H   0  0  0  0  0  0  0  0  0  0  0  0
   10.7283    3.3456    5.0972 H   0  0  0  0  0  0  0  0  0  0  0  0
   13.6501    0.5287    3.1304 O   0  5  0  0  0  0  0  0  0  0  0  0
   14.3183   -3.9471    4.1618 H   0  0  0  0  0  0  0  0  0  0  0  0
   15.2289   -5.2604    4.5799 H   0  0  0  0  0  0  0  0  0  0  0  0
   11.8020   -3.1130    5.3106 H   0  0  0  0  0  0  0  0  0  0  0  0
   13.9338   -4.4436    6.4313 H   0  0  0  0  0  0  0  0  0  0  0  0
   14.4660   -6.0276    6.2583 H   0  0  0  0  0  0  0  0  0  0  0  0
   14.0832  -10.7639    4.4417 H   0  0  0  0  0  0  0  0  0  0  0  0
   11.7484   -9.2800    4.8038 H   0  0  0  0  0  0  0  0  0  0  0  0
   13.8583   -9.7862    0.8866 H   0  0  0  0  0  0  0  0  0  0  0  0
   13.8224   -8.7452    0.2915 H   0  0  0  0  0  0  0  0  0  0  0  0
   11.7045   -7.5851    6.6182 H   0  0  0  0  0  0  0  0  0  0  0  0
   13.3551   -7.7165    7.1682 H   0  0  0  0  0  0  0  0  0  0  0  0
   14.9330  -12.1319    1.1945 H   0  0  0  0  0  0  0  0  0  0  0  0
   13.9443   -5.1566   -0.1950 H   0  0  0  0  0  0  0  0  0  0  0  0
   12.4033   -6.1693   -0.3956 H   0  0  0  0  0  0  0  0  0  0  0  0
   12.3315   -4.5033   -0.2885 H   0  0  0  0  0  0  0  0  0  0  0  0
   11.5421   -2.6364    0.3837 H   0  0  0  0  0  0  0  0  0  0  0  0
   14.4472   -7.7232    4.9132 H   0  0  0  0  0  0  0  0  0  0  0  0
   16.2149   -9.8347    2.9309 H   0  0  0  0  0  0  0  0  0  0  0  0
   16.5214   -9.5447    1.1689 H   0  0  0  0  0  0  0  0  0  0  0  0
   16.2887   -8.2718    2.4921 H   0  0  0  0  0  0  0  0  0  0  0  0
   16.5210  -11.1548    0.0410 H   0  0  0  0  0  0  0  0  0  0  0  0
   17.5102  -10.9576    1.6605 H   0  0  0  0  0  0  0  0  0  0  0  0
   18.1163  -11.8930    0.3773 H   0  0  0  0  0  0  0  0  0  0  0  0
   10.5836    1.4169    6.3959 H   0  0  0  0  0  0  0  0  0  0  0  0
    9.4584    1.3531    5.2855 H   0  0  0  0  0  0  0  0  0  0  0  0
   14.5028  -14.5550    2.4728 H   0  0  0  0  0  0  0  0  0  0  0  0
   13.7150  -13.8904    1.0024 H   0  0  0  0  0  0  0  0  0  0  0  0
   13.9684  -12.8177    2.1641 H   0  0  0  0  0  0  0  0  0  0  0  0
   11.2627    1.1307    2.8707 H   0  0  0  0  0  0  0  0  0  0  0  0
   12.4411    0.7506    1.6355 H   0  0  0  0  0  0  0  0  0  0  0  0
   11.4729    1.4923    0.8348 H   0  0  0  0  0  0  0  0  0  0  0  0
   15.8227   -0.7972    6.4343 H   0  0  0  0  0  0  0  0  0  0  0  0
   13.0558   -1.0595    6.4150 H   0  0  0  0  0  0  0  0  0  0  0  0
   12.1939   -1.5978    5.8284 H   0  0  0  0  0  0  0  0  0  0  0  0
   13.5355    2.5078    4.7833 H   0  0  0  0  0  0  0  0  0  0  0  0
   12.5922    3.3563    4.7854 H   0  0  0  0  0  0  0  0  0  0  0  0
   10.7648    3.8242    2.8383 H   0  0  0  0  0  0  0  0  0  0  0  0
    9.2931    3.1157    3.2539 H   0  0  0  0  0  0  0  0  0  0  0  0
    9.5508   -2.8452    4.4987 H   0  0  0  0  0  0  0  0  0  0  0  0
    9.2229   -1.7937    5.9770 H   0  0  0  0  0  0  0  0  0  0  0  0
    7.9606   -2.7243    5.0429 H   0  0  0  0  0  0  0  0  0  0  0  0
   14.7152    1.2132    2.1302 H   0  0  0  0  0  0  0  0  0  0  0  0
   13.0871   -1.1655    3.1316 H   0  0  0  0  0  0  0  0  0  0  0  0
   11.7995   -0.0329    3.6566 H   0  0  0  0  0  0  0  0  0  0  0  0
   18.3559    1.5587    4.7537 H   0  0  0  0  0  0  0  0  0  0  0  0
   15.2270    3.1632    2.2341 H   0  0  0  0  0  0  0  0  0  0  0  0
   17.4651    3.4267    3.2996 H   0  0  0  0  0  0  0  0  0  0  0  0
   13.2356    2.1724    1.4843 H   0  0  0  0  0  0  0  0  0  0  0  0
   12.5510    2.3653    0.6847 H   0  0  0  0  0  0  0  0  0  0  0  0
    9.8170   -0.3430    0.2999 H   0  0  0  0  0  0  0  0  0  0  0  0
   11.0806    0.7808   -0.5729 H   0  0  0  0  0  0  0  0  0  0  0  0
    9.0426    3.0199    1.2434 H   0  0  0  0  0  0  0  0  0  0  0  0
   12.6687   -0.8348    1.6202 H   0  0  0  0  0  0  0  0  0  0  0  0
   12.9049   -1.5961    0.6170 H   0  0  0  0  0  0  0  0  0  0  0  0
   13.5992   -0.0267    1.0280 H   0  0  0  0  0  0  0  0  0  0  0  0
  1  2  1  0  0  0  0
  1  3  1  0  0  0  0
  1  4  1  1  0  0  0
  1  5  1  0  0  0  0
  2  6  1  0  0  0  0
  2  7  1  0  0  0  0
  2 60  1  1  0  0  0
  3  8  1  0  0  0  0
  3  9  1  0  0  0  0
  3 61  1  1  0  0  0
  4 10  1  0  0  0  0
  4 11  2  0  0  0  0
  5 12  1  0  0  0  0
  5 64  1  0  0  0  0
  5 65  1  0  0  0  0
  6 13  1  0  0  0  0
  6 14  1  0  0  0  0
  6 15  1  1  0  0  0
  7 16  1  0  0  0  0
  7 12  1  0  0  0  0
  8 13  1  0  0  0  0
  8 18  1  6  0  0  0
  8 17  1  0  0  0  0
  9 10  1  0  0  0  0
  9 19  1  0  0  0  0
 10 20  2  0  0  0  0
 11 21  1  0  0  0  0
 11 66  1  0  0  0  0
 12 67  1  0  0  0  0
 12 68  1  0  0  0  0
 13 22  1  0  0  0  0
 13 69  1  1  0  0  0
 14 23  2  0  0  0  0
 14 70  1  0  0  0  0
 15 24  1  0  0  0  0
 15 71  1  0  0  0  0
 15 72  1  0  0  0  0
 16 23  1  0  0  0  0
 16 73  1  0  0  0  0
 16 74  1  0  0  0  0
 17 25  1  0  0  0  0
 17 26  2  0  0  0  0
 18 75  1  0  0  0  0
 19 76  1  0  0  0  0
 19 77  1  0  0  0  0
 19 78  1  0  0  0  0
 20 27  1  0  0  0  0
 20 79  1  0  0  0  0
 21 27  2  0  0  0  0
 22 29  1  0  0  0  0
 23 80  1  0  0  0  0
 24 81  1  0  0  0  0
 24 82  1  0  0  0  0
 24 83  1  0  0  0  0
 25 30  1  0  0  0  0
 27 31  1  0  0  0  0
 28 32  1  0  0  0  0
 28 33  1  0  0  0  0
 28 21  1  0  0  0  0
 28 34  1  6  0  0  0
 29 35  1  0  0  0  0
 29 36  2  0  0  0  0
 30 84  1  0  0  0  0
 30 85  1  0  0  0  0
 30 86  1  0  0  0  0
 31 37  1  0  0  0  0
 32 38  2  0  0  0  0
 32 39  1  0  0  0  0
 33 40  1  0  0  0  0
 33 87  1  0  0  0  0
 33 88  1  0  0  0  0
 34 41  1  0  0  0  0
 34 42  2  0  0  0  0
 35 89  1  0  0  0  0
 35 90  1  0  0  0  0
 35 91  1  0  0  0  0
 37 92  1  0  0  0  0
 37 93  1  0  0  0  0
 37 94  1  0  0  0  0
 38 43  1  0  0  0  0
 38 44  1  0  0  0  0
 39 45  1  0  0  0  0
 39 95  1  0  0  0  0
 40 46  1  0  0  0  0
 40 47  1  0  0  0  0
 40 62  1  1  0  0  0
 41 48  1  0  0  0  0
 43 49  1  0  0  0  0
 43 45  2  0  0  0  0
 44 50  1  0  0  0  0
 44 96  1  0  0  0  0
 44 97  1  0  0  0  0
 45 51  1  0  0  0  0
 46 52  1  0  0  0  0
 46 98  1  0  0  0  0
 46 99  1  0  0  0  0
 47 53  1  0  0  0  0
 47100  1  0  0  0  0
 47101  1  0  0  0  0
 48102  1  0  0  0  0
 48103  1  0  0  0  0
 48104  1  0  0  0  0
 49 54  2  0  0  0  0
 49105  1  0  0  0  0
 50 52  1  0  0  0  0
 50106  1  0  0  0  0
 50107  1  0  0  0  0
 51 55  2  0  0  0  0
 51108  1  0  0  0  0
 52 56  1  0  0  0  0
 52 63  1  0  0  0  0
 53 56  1  0  0  0  0
 53 57  1  0  0  0  0
 53 58  1  1  0  0  0
 54 55  1  0  0  0  0
 54109  1  0  0  0  0
 55110  1  0  0  0  0
 56111  1  0  0  0  0
 56112  1  0  0  0  0
 57 59  1  0  0  0  0
 57113  1  0  0  0  0
 57114  1  0  0  0  0
 58115  1  0  0  0  0
 59116  1  0  0  0  0
 59117  1  0  0  0  0
 59118  1  0  0  0  0
M  CHG  2  52   1  63  -1
M  END
>  <DRUGBANK_ID>
DB17390

>  <COMMON_NAME>
Vinblastine N-oxide

>  <CAS_NUMBER>
61936-68-3

>  <UNII>
PN45E4NV2N

>  <SYNONYMS>
Vinblastine N-oxide

$$$$
