
 OpenBabel10282417123D

 13 12  0  0  0  0  0  0  0  0999 V2000
    0.9101    0.0168   -0.0332 C   0  0  0  0  0  0  0  0  0  0  0  0
    0.4010    0.6610    1.2465 C   0  0  0  0  0  0  0  0  0  0  0  0
    0.8785    2.0399    1.3354 N   0  0  0  0  0  0  0  0  0  0  0  0
    0.4029    2.6728    2.5584 C   0  0  0  0  0  0  0  0  0  0  0  0
    0.5556    0.5579   -0.9170 H   0  0  0  0  0  0  0  0  0  0  0  0
    0.5505   -1.0149   -0.1026 H   0  0  0  0  0  0  0  0  0  0  0  0
    2.0048   -0.0054   -0.0593 H   0  0  0  0  0  0  0  0  0  0  0  0
   -0.6946    0.6394    1.2431 H   0  0  0  0  0  0  0  0  0  0  0  0
    0.7515    0.0776    2.1058 H   0  0  0  0  0  0  0  0  0  0  0  0
    1.8978    2.0499    1.3242 H   0  0  0  0  0  0  0  0  0  0  0  0
    0.7641    2.1466    3.4480 H   0  0  0  0  0  0  0  0  0  0  0  0
    0.7683    3.7032    2.6040 H   0  0  0  0  0  0  0  0  0  0  0  0
   -0.6910    2.7093    2.5832 H   0  0  0  0  0  0  0  0  0  0  0  0
  1  2  1  0  0  0  0
  1  5  1  0  0  0  0
  1  6  1  0  0  0  0
  1  7  1  0  0  0  0
  2  3  1  0  0  0  0
  2  8  1  0  0  0  0
  2  9  1  0  0  0  0
  3  4  1  0  0  0  0
  3 10  1  0  0  0  0
  4 11  1  0  0  0  0
  4 12  1  0  0  0  0
  4 13  1  0  0  0  0
M  END
>  <DRUGBANK_ID>
DB02396

>  <SECONDARY_ACCESSION_NUMBERS>
EXPT01370

>  <COMMON_NAME>
Methylethylamine

>  <CAS_NUMBER>
624-78-2

>  <UNII>
AE3IIW7JBO

$$$$
