
 OpenBabel10282417133D

 26 28  0  0  0  0  0  0  0  0999 V2000
    2.8091    0.8768    0.0004 C   0  0  0  0  0  0  0  0  0  0  0  0
    3.5457   -0.3066    0.0002 C   0  0  0  0  0  0  0  0  0  0  0  0
    2.8853   -1.5232   -0.0004 C   0  0  0  0  0  0  0  0  0  0  0  0
    1.4902   -1.5520   -0.0010 C   0  0  0  0  0  0  0  0  0  0  0  0
   -1.4999   -1.5525   -0.0003 C   0  0  0  0  0  0  0  0  0  0  0  0
   -2.8932   -1.5480    0.0017 C   0  0  0  0  0  0  0  0  0  0  0  0
   -3.5690   -0.3437    0.0000 C   0  0  0  0  0  0  0  0  0  0  0  0
   -2.8486    0.8481   -0.0015 C   0  0  0  0  0  0  0  0  0  0  0  0
   -0.7107    2.0974    0.0035 C   0  0  0  0  0  0  0  0  0  0  0  0
    0.6880    2.0652    0.0004 C   0  0  0  0  0  0  0  0  0  0  0  0
    0.7044   -0.3692   -0.0006 C   0  0  0  0  0  0  0  0  0  0  0  0
   -0.7307   -0.3613   -0.0005 C   0  0  0  0  0  0  0  0  0  0  0  0
   -1.4336    0.8791   -0.0003 C   0  0  0  0  0  0  0  0  0  0  0  0
    1.4017    0.8595    0.0001 C   0  0  0  0  0  0  0  0  0  0  0  0
   -1.3351    3.3437   -0.0118 N   0  0  0  0  0  0  0  0  0  0  0  0
    3.3472    1.8221    0.0012 H   0  0  0  0  0  0  0  0  0  0  0  0
    4.6313   -0.2764    0.0005 H   0  0  0  0  0  0  0  0  0  0  0  0
    3.4439   -2.4554   -0.0004 H   0  0  0  0  0  0  0  0  0  0  0  0
    1.0262   -2.5331   -0.0016 H   0  0  0  0  0  0  0  0  0  0  0  0
   -1.0228   -2.5282   -0.0012 H   0  0  0  0  0  0  0  0  0  0  0  0
   -3.4393   -2.4864    0.0043 H   0  0  0  0  0  0  0  0  0  0  0  0
   -4.6543   -0.3223   -0.0000 H   0  0  0  0  0  0  0  0  0  0  0  0
   -3.4249    1.7674   -0.0028 H   0  0  0  0  0  0  0  0  0  0  0  0
    1.2332    3.0066   -0.0004 H   0  0  0  0  0  0  0  0  0  0  0  0
   -2.3388    3.4292    0.0102 H   0  0  0  0  0  0  0  0  0  0  0  0
   -0.7918    4.1943    0.0092 H   0  0  0  0  0  0  0  0  0  0  0  0
  1 14  2  0  0  0  0
  1 16  1  0  0  0  0
  2  1  1  0  0  0  0
  2  3  2  0  0  0  0
  2 17  1  0  0  0  0
  3  4  1  0  0  0  0
  3 18  1  0  0  0  0
  4 11  2  0  0  0  0
  4 19  1  0  0  0  0
  5 12  2  0  0  0  0
  5 20  1  0  0  0  0
  6  5  1  0  0  0  0
  6 21  1  0  0  0  0
  7  8  1  0  0  0  0
  7  6  2  0  0  0  0
  7 22  1  0  0  0  0
  8 13  2  0  0  0  0
  8 23  1  0  0  0  0
  9 13  1  0  0  0  0
  9 10  2  0  0  0  0
 10 14  1  0  0  0  0
 10 24  1  0  0  0  0
 12 11  1  0  0  0  0
 13 12  1  0  0  0  0
 14 11  1  0  0  0  0
 15  9  1  0  0  0  0
 15 25  1  0  0  0  0
 15 26  1  0  0  0  0
M  END
>  <DRUGBANK_ID>
DB03369

>  <SECONDARY_ACCESSION_NUMBERS>
EXPT00353

>  <COMMON_NAME>
9-Aminophenanthrene

>  <CAS_NUMBER>
947-73-9

>  <UNII>
7M9M5KM2XY

>  <SYNONYMS>
9-phenanthrenamine; 9-phenanthrylamine; phenanthren-9-amine; Phenanthren-9-ylamine

$$$$
