
 OpenBabel10282417183D

122124  0  0  0  0  0  0  0  0999 V2000
   -6.3207   -2.4517    6.0044 O   0  0  0  0  0  0  0  0  0  0  0  0
   -2.3053   -1.7531    6.2574 O   0  0  0  0  0  0  0  0  0  0  0  0
   -1.9104   -0.4960    7.2180 O   0  0  0  0  0  0  0  0  0  0  0  0
   -6.5901   -0.9093    8.0359 O   0  0  0  0  0  0  0  0  0  0  0  0
   -2.3953    0.5474    8.7334 O   0  0  0  0  0  0  0  0  0  0  0  0
   -3.6057    2.6719    6.3642 O   0  0  0  0  0  0  0  0  0  0  0  0
   -3.1870   -3.0110    8.6002 O   0  0  0  0  0  0  0  0  0  0  0  0
   -5.5567    1.9278   10.2415 O   0  0  0  0  0  0  0  0  0  0  0  0
   -7.6319    2.5857    9.3824 O   0  0  0  0  0  0  0  0  0  0  0  0
   -0.2433    1.6828    7.2947 O   0  0  0  0  0  0  0  0  0  0  0  0
   -5.0507    2.5783   12.4917 O   0  0  0  0  0  0  0  0  0  0  0  0
   -1.5287   -3.9151    7.1102 O   0  0  0  0  0  0  0  0  0  0  0  0
   -3.6362    2.0157   10.7794 O   0  0  0  0  0  0  0  0  0  0  0  0
   -1.9478   -2.1613    1.8754 O   0  0  0  0  0  0  0  0  0  0  0  0
   -5.8874    0.5566    4.7272 N   0  0  0  0  0  0  0  0  0  0  0  0
   -5.1727   -1.8864    5.4494 C   0  0  1  0  0  0  0  0  0  0  0  0
   -5.2056   -0.1715    5.6338 C   0  0  1  0  0  0  0  0  0  0  0  0
   -4.0145    1.0150    5.7965 C   0  0  2  0  0  0  0  0  0  0  0  0
   -3.1110   -0.5035    6.8191 C   0  0  1  0  0  0  0  0  0  0  0  0
   -4.2250   -2.4839    9.2019 C   0  0  1  0  0  0  0  0  0  0  0  0
   -3.6810   -3.2067    5.8789 C   0  0  1  0  0  0  0  0  0  0  0  0
   -6.4937   -2.3069    7.6490 C   0  0  2  0  0  0  0  0  0  0  0  0
   -4.1338   -0.5397    8.8647 C   0  0  2  0  0  0  0  0  0  0  0  0
   -5.4990   -3.1263    8.7180 C   0  0  0  0  0  0  0  0  0  0  0  0
   -5.4049   -0.1921    8.1291 C   0  0  2  0  0  0  0  0  0  0  0  0
   -2.8407    0.9234    7.1398 C   0  0  2  0  0  0  0  0  0  0  0  0
   -4.2270    2.2361    8.7960 C   0  0  2  0  0  0  0  0  0  0  0  0
   -1.1032   -0.1478    6.0731 C   0  0  2  0  0  0  0  0  0  0  0  0
   -3.0384   -3.5527    9.5965 C   0  0  0  0  0  0  0  0  0  0  0  0
   -3.3445   -4.8325    6.0456 C   0  0  0  0  0  0  0  0  0  0  0  0
   -6.0405    3.3000    9.0669 C   0  0  1  0  0  0  0  0  0  0  0  0
   -1.3263    1.0785    7.1511 C   0  0  0  0  0  0  0  0  0  0  0  0
   -5.4979    1.1073    7.7535 C   0  0  0  0  0  0  0  0  0  0  0  0
   -5.8586    1.9074    5.2521 C   0  0  0  0  0  0  0  0  0  0  0  0
   -5.0467    0.2954    3.6043 C   0  0  0  0  0  0  0  0  0  0  0  0
   -0.1648   -1.9668    5.9275 C   0  0  0  0  0  0  0  0  0  0  0  0
   -0.6578   -0.7586    4.0374 C   0  0  0  0  0  0  0  0  0  0  0  0
   -0.0839   -2.3569    7.2970 C   0  0  2  0  0  0  0  0  0  0  0  0
   -5.2248    3.9841   10.2527 C   0  0  0  0  0  0  0  0  0  0  0  0
   -2.4105    0.2123    5.3218 C   0  0  0  0  0  0  0  0  0  0  0  0
   -1.3579   -2.5597    7.7281 C   0  0  2  0  0  0  0  0  0  0  0  0
   -4.3511    2.8954   11.3015 C   0  0  0  0  0  0  0  0  0  0  0  0
   -1.2401   -2.2163    2.9139 C   0  0  0  0  0  0  0  0  0  0  0  0
   -3.2152   -1.6972    4.9946 C   0  0  0  0  0  0  0  0  0  0  0  0
   -7.0207    1.6457   11.2778 C   0  0  0  0  0  0  0  0  0  0  0  0
    0.2283   -1.1458    7.9840 C   0  0  0  0  0  0  0  0  0  0  0  0
   -1.6540   -1.7928    9.5908 C   0  0  0  0  0  0  0  0  0  0  0  0
   -4.6912    1.2765   13.0797 C   0  0  1  0  0  0  0  0  0  0  0  0
   -4.0495   -2.0020    7.0170 C   0  0  0  0  0  0  0  0  0  0  0  0
   -3.7478   -3.0239    3.9292 C   0  0  0  0  0  0  0  0  0  0  0  0
   -2.6407   -0.8368   10.3392 C   0  0  0  0  0  0  0  0  0  0  0  0
   -5.2522   -0.0850   12.6028 C   0  0  0  0  0  0  0  0  0  0  0  0
   -3.8823   -1.1518   11.1423 C   0  0  0  0  0  0  0  0  0  0  0  0
   -4.9415   -0.3446   11.2665 C   0  0  0  0  0  0  0  0  0  0  0  0
   -3.1835    1.2505   13.0445 C   0  0  0  0  0  0  0  0  0  0  0  0
   -3.3240    2.6907    7.3071 H   0  0  0  0  0  0  0  0  0  0  0  0
   -2.7317   -2.3808    8.1661 H   0  0  0  0  0  0  0  0  0  0  0  0
   -7.6634    1.8446    8.7705 H   0  0  0  0  0  0  0  0  0  0  0  0
   -1.8736   -3.7175    6.1987 H   0  0  0  0  0  0  0  0  0  0  0  0
   -4.7969   -1.5503    4.5534 H   0  0  0  0  0  0  0  0  0  0  0  0
   -5.9625   -0.1940    6.3114 H   0  0  0  0  0  0  0  0  0  0  0  0
   -3.4231    1.4286    4.8580 H   0  0  0  0  0  0  0  0  0  0  0  0
   -2.5287   -0.6226    7.7382 H   0  0  0  0  0  0  0  0  0  0  0  0
   -4.8811   -3.4624    6.5730 H   0  0  0  0  0  0  0  0  0  0  0  0
   -7.4068   -2.8128    7.7125 H   0  0  0  0  0  0  0  0  0  0  0  0
   -4.8838   -0.5665    9.5208 H   0  0  0  0  0  0  0  0  0  0  0  0
   -5.7220   -2.9872    9.7542 H   0  0  0  0  0  0  0  0  0  0  0  0
   -5.2400   -4.1476    8.3885 H   0  0  0  0  0  0  0  0  0  0  0  0
   -4.7647   -0.1320    7.3430 H   0  0  0  0  0  0  0  0  0  0  0  0
   -2.3549    1.7100    6.1835 H   0  0  0  0  0  0  0  0  0  0  0  0
   -5.5995    2.1005    9.2483 H   0  0  0  0  0  0  0  0  0  0  0  0
   -1.3623   -1.0243    5.0097 H   0  0  0  0  0  0  0  0  0  0  0  0
   -2.9709   -4.5764    9.1940 H   0  0  0  0  0  0  0  0  0  0  0  0
   -1.6791   -3.5895    9.0859 H   0  0  0  0  0  0  0  0  0  0  0  0
   -3.0031   -3.0546   10.5138 H   0  0  0  0  0  0  0  0  0  0  0  0
   -2.7730   -5.2273    6.9363 H   0  0  0  0  0  0  0  0  0  0  0  0
   -4.3868   -4.9702    6.2818 H   0  0  0  0  0  0  0  0  0  0  0  0
   -2.7050   -4.8299    5.1480 H   0  0  0  0  0  0  0  0  0  0  0  0
   -6.9820    4.2790    9.5312 H   0  0  0  0  0  0  0  0  0  0  0  0
   -4.8085    0.8929    8.5119 H   0  0  0  0  0  0  0  0  0  0  0  0
   -4.8801    1.8347    7.2651 H   0  0  0  0  0  0  0  0  0  0  0  0
   -6.2792    1.7078    7.9241 H   0  0  0  0  0  0  0  0  0  0  0  0
   -4.9375    2.4810    5.2183 H   0  0  0  0  0  0  0  0  0  0  0  0
   -6.4436    2.4394    4.6306 H   0  0  0  0  0  0  0  0  0  0  0  0
   -6.2512    2.0204    6.2414 H   0  0  0  0  0  0  0  0  0  0  0  0
   -4.0301    0.6601    3.5885 H   0  0  0  0  0  0  0  0  0  0  0  0
   -4.9344   -0.7447    3.3366 H   0  0  0  0  0  0  0  0  0  0  0  0
   -5.6367    0.7289    2.8923 H   0  0  0  0  0  0  0  0  0  0  0  0
   -0.5258   -2.9904    5.2367 H   0  0  0  0  0  0  0  0  0  0  0  0
    0.8356   -2.1052    5.5181 H   0  0  0  0  0  0  0  0  0  0  0  0
   -0.9527   -0.1329    3.1556 H   0  0  0  0  0  0  0  0  0  0  0  0
    0.3736   -1.1544    3.7157 H   0  0  0  0  0  0  0  0  0  0  0  0
    0.0782   -3.3347    7.6774 H   0  0  0  0  0  0  0  0  0  0  0  0
   -5.2858    4.9473   10.7042 H   0  0  0  0  0  0  0  0  0  0  0  0
   -4.9480    4.1572    9.1658 H   0  0  0  0  0  0  0  0  0  0  0  0
   -3.4273   -0.3515    5.1340 H   0  0  0  0  0  0  0  0  0  0  0  0
   -2.2038    0.2758    4.2919 H   0  0  0  0  0  0  0  0  0  0  0  0
   -2.5146   -2.8121    7.0664 H   0  0  0  0  0  0  0  0  0  0  0  0
   -1.0124   -3.3144    3.1891 H   0  0  0  0  0  0  0  0  0  0  0  0
   -2.1078   -2.6358    4.9612 H   0  0  0  0  0  0  0  0  0  0  0  0
   -8.1203    1.4342   11.0723 H   0  0  0  0  0  0  0  0  0  0  0  0
   -6.7769    0.8780   10.6505 H   0  0  0  0  0  0  0  0  0  0  0  0
   -6.9913    0.9305   12.1259 H   0  0  0  0  0  0  0  0  0  0  0  0
   -0.5532   -0.4834    8.2887 H   0  0  0  0  0  0  0  0  0  0  0  0
    0.2816   -1.2731    9.0156 H   0  0  0  0  0  0  0  0  0  0  0  0
    0.7372   -0.5562    7.2578 H   0  0  0  0  0  0  0  0  0  0  0  0
   -1.4282   -2.8107   10.3207 H   0  0  0  0  0  0  0  0  0  0  0  0
   -5.0541    1.3169   14.1005 H   0  0  0  0  0  0  0  0  0  0  0  0
   -4.9856   -1.6884    7.1925 H   0  0  0  0  0  0  0  0  0  0  0  0
   -3.9139   -3.4628    7.4260 H   0  0  0  0  0  0  0  0  0  0  0  0
   -3.4340   -1.4800    8.0334 H   0  0  0  0  0  0  0  0  0  0  0  0
   -2.8480   -2.9347    3.5078 H   0  0  0  0  0  0  0  0  0  0  0  0
   -3.9575   -4.0442    4.3384 H   0  0  0  0  0  0  0  0  0  0  0  0
   -4.7804   -2.9708    3.9610 H   0  0  0  0  0  0  0  0  0  0  0  0
   -3.2552    0.2473   10.0756 H   0  0  0  0  0  0  0  0  0  0  0  0
   -6.2739   -0.3738   12.7005 H   0  0  0  0  0  0  0  0  0  0  0  0
   -4.8000   -0.9155   13.1007 H   0  0  0  0  0  0  0  0  0  0  0  0
   -3.8175   -2.0554   11.6437 H   0  0  0  0  0  0  0  0  0  0  0  0
   -5.1735    0.4034   10.5386 H   0  0  0  0  0  0  0  0  0  0  0  0
   -2.8095    1.8693   13.8322 H   0  0  0  0  0  0  0  0  0  0  0  0
   -2.7971    0.2483   13.0152 H   0  0  0  0  0  0  0  0  0  0  0  0
   -2.7239    1.7318   12.1983 H   0  0  0  0  0  0  0  0  0  0  0  0
  2 19  1  0  0  0  0
  2 21  1  0  0  0  0
  4 22  1  0  0  0  0
  4 25  1  0  0  0  0
  5 32  1  0  0  0  0
  6 56  1  0  0  0  0
  7 57  1  0  0  0  0
  8 45  1  0  0  0  0
  9 58  1  0  0  0  0
 10 32  2  0  0  0  0
 11 42  1  0  0  0  0
 11 48  1  0  0  0  0
 12 59  1  0  0  0  0
 13 42  2  0  0  0  0
 14 43  2  0  0  0  0
 15 34  1  0  0  0  0
 15 35  1  0  0  0  0
 16  1  1  0  0  0  0
 16 17  1  0  0  0  0
 16 21  1  0  0  0  0
 16 60  1  6  0  0  0
 17 15  1  0  0  0  0
 17 18  1  0  0  0  0
 17 61  1  1  0  0  0
 18  6  1  0  0  0  0
 18 19  1  0  0  0  0
 18 62  1  6  0  0  0
 19  3  1  0  0  0  0
 19 63  1  1  0  0  0
 20 23  1  0  0  0  0
 20 24  1  0  0  0  0
 20 29  1  0  0  0  0
 20  7  1  6  0  0  0
 21 30  1  0  0  0  0
 21 64  1  1  0  0  0
 22  1  1  0  0  0  0
 22 24  1  0  0  0  0
 22 65  1  1  0  0  0
 23 25  1  0  0  0  0
 23 66  1  1  0  0  0
 23  5  1  0  0  0  0
 24 67  1  0  0  0  0
 24 68  1  0  0  0  0
 25 69  1  6  0  0  0
 25 33  1  0  0  0  0
 26 27  1  0  0  0  0
 26 28  1  0  0  0  0
 26 70  1  1  0  0  0
 26  3  1  0  0  0  0
 27 31  1  0  0  0  0
 27 71  1  6  0  0  0
 27  8  1  0  0  0  0
 28 36  1  0  0  0  0
 28 72  1  6  0  0  0
 28 37  1  0  0  0  0
 29 73  1  0  0  0  0
 29 74  1  0  0  0  0
 29 75  1  0  0  0  0
 30 76  1  0  0  0  0
 30 77  1  0  0  0  0
 30 78  1  0  0  0  0
 31 39  1  0  0  0  0
 31 79  1  1  0  0  0
 31  9  1  0  0  0  0
 32 40  1  0  0  0  0
 33 80  1  0  0  0  0
 33 81  1  0  0  0  0
 33 82  1  0  0  0  0
 34 83  1  0  0  0  0
 34 84  1  0  0  0  0
 34 85  1  0  0  0  0
 35 86  1  0  0  0  0
 35 87  1  0  0  0  0
 35 88  1  0  0  0  0
 36 38  1  0  0  0  0
 36 89  1  0  0  0  0
 36 90  1  0  0  0  0
 37 43  1  0  0  0  0
 37 91  1  0  0  0  0
 37 92  1  0  0  0  0
 38 41  1  0  0  0  0
 38 93  1  1  0  0  0
 38 46  1  0  0  0  0
 39 42  1  0  0  0  0
 39 94  1  0  0  0  0
 39 95  1  0  0  0  0
 40 44  1  0  0  0  0
 40 96  1  0  0  0  0
 40 97  1  0  0  0  0
 41 12  1  0  0  0  0
 41 47  1  0  0  0  0
 41 98  1  6  0  0  0
 43 99  1  0  0  0  0
 44 49  1  0  0  0  0
 44 50  1  0  0  0  0
 44100  1  0  0  0  0
 45101  1  0  0  0  0
 45102  1  0  0  0  0
 45103  1  0  0  0  0
 46104  1  0  0  0  0
 46105  1  0  0  0  0
 46106  1  0  0  0  0
 47 51  2  0  0  0  0
 47107  1  0  0  0  0
 48 52  1  0  0  0  0
 48108  1  1  0  0  0
 48 55  1  0  0  0  0
 49109  1  0  0  0  0
 49110  1  0  0  0  0
 49111  1  0  0  0  0
 50112  1  0  0  0  0
 50113  1  0  0  0  0
 50114  1  0  0  0  0
 51 53  1  0  0  0  0
 51115  1  0  0  0  0
 52 54  1  0  0  0  0
 52116  1  0  0  0  0
 52117  1  0  0  0  0
 53 54  2  0  0  0  0
 53118  1  0  0  0  0
 54119  1  0  0  0  0
 55120  1  0  0  0  0
 55121  1  0  0  0  0
 55122  1  0  0  0  0
M  END
>  <DRUGBANK_ID>
DB09309

>  <COMMON_NAME>
Kitasamycin

>  <CAS_NUMBER>
1392-21-8

>  <UNII>
YX09Z4QW5Y

>  <SYNONYMS>
Leucomycin

$$$$
