NMQ
 OpenBabel10282417173D

 39 39  0  0  0  0  0  0  0  0999 V2000
    1.0380   -0.0244   -0.0892 Be  0  5  0  0  0  0  0  0  0  0  0  0
    2.3371   -0.1851   -0.8814 F   0  0  0  0  0  0  0  0  0  0  0  0
      -nan      -nan      -nan F   0  0  0  0  0  0  0  0  0  0  0  0
   -0.4920   -0.0244   -0.0892 F   0  0  0  0  0  0  0  0  0  0  0  0
    3.2347    0.0567   -1.7182 P   0  0  1  0  0  0  0  0  0  0  0  0
    1.9289    0.7711   -2.1449 O   0  0  0  0  0  0  0  0  0  0  0  0
    4.5957    0.9849   -1.1903 O   0  0  0  0  0  0  0  0  0  0  0  0
    2.6580   -0.0244   -0.0892 O   0  0  0  0  0  0  0  0  0  0  0  0
    3.8113    0.1377   -3.3473 O   0  0  0  0  0  0  0  0  0  0  0  0
    2.4817   -0.0426   -4.4393 P   0  0  1  0  0  0  0  0  0  0  0  0
    1.7245    1.3504   -3.7474 O   0  0  0  0  0  0  0  0  0  0  0  0
    3.4463    0.1167   -5.6400 O   0  0  0  0  0  0  0  0  0  0  0  0
    1.1522   -0.2230   -5.5314 O   0  0  0  0  0  0  0  0  0  0  0  0
    1.1030   -1.3006   -2.9120 N   0  0  0  0  0  0  0  0  0  0  0  0
   -0.0267   -1.4538   -3.8399 C   0  0  0  0  0  0  0  0  0  0  0  0
   -0.0613   -0.2723   -4.7956 C   0  0  0  0  0  0  0  0  0  0  0  0
    0.8599   -1.2239   -1.4643 C   0  0  0  0  0  0  0  0  0  0  0  0
    0.0138   -2.0777   -0.8999 C   0  0  0  0  0  0  0  0  0  0  0  0
   -0.1097   -2.1393    0.4672 C   0  0  0  0  0  0  0  0  0  0  0  0
    0.5639   -1.2650    1.2742 C   0  0  0  0  0  0  0  0  0  0  0  0
    1.4492   -0.4833    0.6835 C   0  0  0  0  0  0  0  0  0  0  0  0
    1.5253   -0.2691   -0.7131 C   0  0  0  0  0  0  0  0  0  0  0  0
    2.2450    0.8638   -1.3124 N   0  3  0  0  0  0  0  0  0  0  0  0
    2.8824    1.7725   -0.5093 O   0  5  0  0  0  0  0  0  0  0  0  0
    2.2750    0.9955   -2.5311 O   0  0  0  0  0  0  0  0  0  0  0  0
    2.4759   -1.2239   -3.4318 C   0  0  0  0  0  0  0  0  0  0  0  0
    4.5437    1.1196   -0.2007 H   0  0  0  0  0  0  0  0  0  0  0  0
    1.1386    1.0685   -2.9876 H   0  0  0  0  0  0  0  0  0  0  0  0
   -0.9411   -1.4910   -3.2855 H   0  0  0  0  0  0  0  0  0  0  0  0
    0.0897   -2.3599   -4.3970 H   0  0  0  0  0  0  0  0  0  0  0  0
   -0.1778    0.6337   -4.2385 H   0  0  0  0  0  0  0  0  0  0  0  0
   -0.8837   -0.3839   -5.4710 H   0  0  0  0  0  0  0  0  0  0  0  0
   -0.5771   -2.7234   -1.5153 H   0  0  0  0  0  0  0  0  0  0  0  0
   -0.7421   -2.8823    0.9065 H   0  0  0  0  0  0  0  0  0  0  0  0
    0.3833   -1.2168    2.3278 H   0  0  0  0  0  0  0  0  0  0  0  0
    2.1584    0.0235    1.3041 H   0  0  0  0  0  0  0  0  0  0  0  0
    2.7038   -2.1198   -3.9708 H   0  0  0  0  0  0  0  0  0  0  0  0
    2.5630   -0.3820   -4.0864 H   0  0  0  0  0  0  0  0  0  0  0  0
    3.1603   -1.1143   -2.6167 H   0  0  0  0  0  0  0  0  0  0  0  0
  1  2  1  0  0  0  0
  1  3  1  0  0  0  0
  1  4  1  0  0  0  0
  1  8  1  0  0  0  0
  5  6  2  6  0  0  0
  5  7  1  0  0  0  0
  5  8  1  0  0  0  0
  5  9  1  0  0  0  0
  7 27  1  0  0  0  0
 10  9  1  0  0  0  0
 10 11  1  0  0  0  0
 10 12  2  6  0  0  0
 10 13  1  0  0  0  0
 11 28  1  0  0  0  0
 13 16  1  0  0  0  0
 14 15  1  0  0  0  0
 14 17  1  0  0  0  0
 14 26  1  0  0  0  0
 15 16  1  0  0  0  0
 15 29  1  0  0  0  0
 15 30  1  0  0  0  0
 16 31  1  0  0  0  0
 16 32  1  0  0  0  0
 17 18  2  0  0  0  0
 17 22  1  0  0  0  0
 18 19  1  0  0  0  0
 18 33  1  0  0  0  0
 19 20  2  0  0  0  0
 19 34  1  0  0  0  0
 20 21  1  0  0  0  0
 20 35  1  0  0  0  0
 21 22  2  0  0  0  0
 21 36  1  0  0  0  0
 22 23  1  0  0  0  0
 23 24  1  0  0  0  0
 23 25  2  0  0  0  0
 26 37  1  0  0  0  0
 26 38  1  0  0  0  0
 26 39  1  0  0  0  0
M  CHG  3   1  -1  23   1  24  -1
M  END
>  <DRUGBANK_ID>
DB08276

>  <COMMON_NAME>
trifluoro-[hydroxy-[hydroxy-[2-(N-methyl-2-nitro-anilino)ethoxy]phosphoryl]oxy-phosphoryl]oxy-beryllium(1-)

>  <SYNONYMS>
N-methyl O-nitrophenyl aminoethyldiphosphate beryllium trifluoride

$$$$
