
 OpenBabel10282417183D

 34 36  0  0  0  0  0  0  0  0999 V2000
   -0.2372   -1.6636   -0.6186 O   0  0  0  0  0  0  0  0  0  0  0  0
   -2.0380    0.2270   -0.0488 O   0  0  0  0  0  0  0  0  0  0  0  0
   -0.3793    3.6288   -1.1601 O   0  0  0  0  0  0  0  0  0  0  0  0
    1.5559    0.9007   -0.2479 N   0  0  0  0  0  0  0  0  0  0  0  0
    3.4873   -0.4292    3.6443 N   0  0  0  0  0  0  0  0  0  0  0  0
    0.6770    1.5455    2.9717 N   0  0  0  0  0  0  0  0  0  0  0  0
    1.3046    2.0496    5.2393 N   0  0  0  0  0  0  0  0  0  0  0  0
    3.1439    1.0917    6.2987 N   0  0  0  0  0  0  0  0  0  0  0  0
    1.5266   -0.3760    0.5032 C   0  0  2  0  0  0  0  0  0  0  0  0
    0.0666   -0.8541    0.5314 C   0  0  1  0  0  0  0  0  0  0  0  0
    0.1528    1.3664   -0.3879 C   0  0  1  0  0  0  0  0  0  0  0  0
   -0.7280    0.4429    0.4744 C   0  0  1  0  0  0  0  0  0  0  0  0
    2.1352   -0.1832    1.8727 C   0  0  0  0  0  0  0  0  0  0  0  0
   -0.0288    2.8527   -0.0142 C   0  0  0  0  0  0  0  0  0  0  0  0
    1.7059    0.6769    2.9332 C   0  0  0  0  0  0  0  0  0  0  0  0
    3.2520   -0.8472    2.3604 C   0  0  0  0  0  0  0  0  0  0  0  0
    2.5514    0.4967    4.0178 C   0  0  0  0  0  0  0  0  0  0  0  0
    2.3469    1.2068    5.1897 C   0  0  0  0  0  0  0  0  0  0  0  0
    0.5322    2.1696    4.1469 C   0  0  0  0  0  0  0  0  0  0  0  0
    2.1395   -1.1000   -0.0500 H   0  0  0  0  0  0  0  0  0  0  0  0
   -1.1763   -1.9073   -0.5200 H   0  0  0  0  0  0  0  0  0  0  0  0
   -1.9463    0.1166   -1.0111 H   0  0  0  0  0  0  0  0  0  0  0  0
    0.3427    3.5308   -1.8048 H   0  0  0  0  0  0  0  0  0  0  0  0
    2.1267    1.5744    0.2594 H   0  0  0  0  0  0  0  0  0  0  0  0
    4.2391   -0.7552    4.2382 H   0  0  0  0  0  0  0  0  0  0  0  0
    3.9569    0.5066    6.3323 H   0  0  0  0  0  0  0  0  0  0  0  0
    2.9069    1.6888    7.0790 H   0  0  0  0  0  0  0  0  0  0  0  0
   -0.1765   -1.4493    1.4177 H   0  0  0  0  0  0  0  0  0  0  0  0
   -0.1209    1.2336   -1.4427 H   0  0  0  0  0  0  0  0  0  0  0  0
   -0.8636    0.8377    1.4785 H   0  0  0  0  0  0  0  0  0  0  0  0
   -0.8165    2.9921    0.7316 H   0  0  0  0  0  0  0  0  0  0  0  0
    0.8878    3.2893    0.3985 H   0  0  0  0  0  0  0  0  0  0  0  0
    3.8943   -1.5863    1.8987 H   0  0  0  0  0  0  0  0  0  0  0  0
   -0.3098    2.8503    4.2246 H   0  0  0  0  0  0  0  0  0  0  0  0
  1 21  1  0  0  0  0
  2 22  1  0  0  0  0
  3 14  1  0  0  0  0
  3 23  1  0  0  0  0
  4  9  1  0  0  0  0
  4 11  1  0  0  0  0
  4 24  1  0  0  0  0
  5 16  1  0  0  0  0
  5 17  1  0  0  0  0
  5 25  1  0  0  0  0
  6 15  1  0  0  0  0
  6 19  2  0  0  0  0
  7 18  2  0  0  0  0
  7 19  1  0  0  0  0
  8 18  1  0  0  0  0
  8 26  1  0  0  0  0
  8 27  1  0  0  0  0
  9 10  1  0  0  0  0
  9 20  1  6  0  0  0
  9 13  1  0  0  0  0
 10  1  1  0  0  0  0
 10 12  1  0  0  0  0
 10 28  1  1  0  0  0
 11 12  1  0  0  0  0
 11 29  1  6  0  0  0
 11 14  1  0  0  0  0
 12  2  1  0  0  0  0
 12 30  1  1  0  0  0
 13 15  1  0  0  0  0
 13 16  2  0  0  0  0
 14 31  1  0  0  0  0
 14 32  1  0  0  0  0
 15 17  2  0  0  0  0
 16 33  1  0  0  0  0
 17 18  1  0  0  0  0
 19 34  1  0  0  0  0
M  END
>  <DRUGBANK_ID>
DB11676

>  <COMMON_NAME>
Galidesivir

>  <CAS_NUMBER>
249503-25-1

>  <UNII>
OLF97F86A7

>  <SYNONYMS>
Galidesivir; Galid√©sivir; Galidesivirum; Immucillin A; Immucillin-A

$$$$
