4BR
 OpenBabel10282417163D

 25 25  0  0  0  0  0  0  0  0999 V2000
   -0.7973    0.8903   -0.7917 C   0  0  0  0  0  0  0  0  0  0  0  0
    0.5378    0.9328   -0.3822 C   0  0  0  0  0  0  0  0  0  0  0  0
    1.1767   -0.2483   -0.0461 C   0  0  0  0  0  0  0  0  0  0  0  0
    0.3923   -1.3988    0.0175 C   0  0  0  0  0  0  0  0  0  0  0  0
   -1.0172   -1.3306   -0.0769 C   0  0  0  0  0  0  0  0  0  0  0  0
   -1.6508   -0.1311   -0.4141 C   0  0  0  0  0  0  0  0  0  0  0  0
   -3.0223   -0.0980   -0.2480 O   0  0  0  0  0  0  0  0  0  0  0  0
   -3.7925    1.1355   -0.0795 C   0  0  0  0  0  0  0  0  0  0  0  0
   -3.5823    2.0408    1.1918 C   0  0  0  0  0  0  0  0  0  0  0  0
   -1.7827    2.3706    1.2297 P   0  0  1  0  0  0  0  0  0  0  0  0
   -1.5762    1.0944    2.0163 O   0  5  0  0  0  0  0  0  0  0  0  0
   -1.9580    3.1564   -0.0587 O   0  0  0  0  0  0  0  0  0  0  0  0
    2.6654   -0.1943    0.0332 C   0  0  0  0  0  0  0  0  0  0  0  0
   -0.4255    2.6193    1.2583 H   0  0  0  0  0  0  0  0  0  0  0  0
   -1.1517    1.8143   -1.2303 H   0  0  0  0  0  0  0  0  0  0  0  0
    1.0579    1.8852   -0.3131 H   0  0  0  0  0  0  0  0  0  0  0  0
    0.8565   -2.3712    0.1608 H   0  0  0  0  0  0  0  0  0  0  0  0
   -1.6314   -2.1985    0.1114 H   0  0  0  0  0  0  0  0  0  0  0  0
   -3.7375    1.7144   -1.0067 H   0  0  0  0  0  0  0  0  0  0  0  0
   -4.8411    0.8065   -0.0152 H   0  0  0  0  0  0  0  0  0  0  0  0
   -4.1647    2.9659    1.1261 H   0  0  0  0  0  0  0  0  0  0  0  0
   -3.9052    1.5083    2.0935 H   0  0  0  0  0  0  0  0  0  0  0  0
    3.0566   -0.6942    0.9204 H   0  0  0  0  0  0  0  0  0  0  0  0
    3.0684   -0.6378   -0.8817 H   0  0  0  0  0  0  0  0  0  0  0  0
    3.0241    0.8452    0.0600 H   0  0  0  0  0  0  0  0  0  0  0  0
  1  2  2  0  0  0  0
  1  6  1  0  0  0  0
  1 15  1  0  0  0  0
  2  3  1  0  0  0  0
  2 16  1  0  0  0  0
  3  4  2  0  0  0  0
  3 13  1  0  0  0  0
  4  5  1  0  0  0  0
  4 17  1  0  0  0  0
  5  6  2  0  0  0  0
  5 18  1  0  0  0  0
  6  7  1  0  0  0  0
  7  8  1  0  0  0  0
  8  9  1  0  0  0  0
  8 19  1  0  0  0  0
  8 20  1  0  0  0  0
  9 10  1  0  0  0  0
  9 21  1  0  0  0  0
  9 22  1  0  0  0  0
 10 11  1  0  0  0  0
 10 12  2  0  0  0  0
 10 14  1  1  0  0  0
 13 23  1  0  0  0  0
 13 24  1  0  0  0  0
 13 25  1  0  0  0  0
M  CHG  1  11  -1
M  END
>  <DRUGBANK_ID>
DB07103

>  <COMMON_NAME>
2-(4-METHYLPHENOXY)ETHYLPHOSPHINATE

$$$$
