
 OpenBabel10282417173D

180185  0  0  1  0  0  0  0  0999 V2000
   -0.9382    0.8658    1.8501 C   0  0  0  0  0  0  0  0  0  0  0  0
    0.9427   -0.3312    2.3071 C   0  0  0  0  0  0  0  0  0  0  0  0
    3.1085   -0.2120    3.9807 C   0  0  0  0  0  0  0  0  0  0  0  0
    4.8780   -0.0610    6.4805 C   0  0  2  0  0  0  0  0  0  0  0  0
    6.2727   -0.1199    9.1161 N   0  0  0  0  0  0  0  0  0  0  0  0
    7.3230    0.1360   11.7082 C   0  0  0  0  0  0  0  0  0  0  0  0
    8.3306    0.7986   14.2110 C   0  0  1  0  0  0  0  0  0  0  0  0
    9.7774    2.1007   15.4483 N   0  0  0  0  0  0  0  0  0  0  0  0
    9.9007    2.9027   14.3839 C   0  0  0  0  0  0  0  0  0  0  0  0
   10.8845    3.9298   13.9210 C   0  0  2  0  0  0  0  0  0  0  0  0
   10.1288    5.1883   13.5448 C   0  0  0  0  0  0  0  0  0  0  0  0
    9.0620    4.8195   12.0631 S   0  0  0  0  0  0  0  0  0  0  0  0
    7.6662    3.3292   12.4793 S   0  0  0  0  0  0  0  0  0  0  0  0
    6.6874    2.9185   11.2009 C   0  0  0  0  0  0  0  0  0  0  0  0
    7.2230    2.8897    9.9677 C   0  0  2  0  0  0  0  0  0  0  0  0
    5.8794    4.3567    9.0065 N   0  0  0  0  0  0  0  0  0  0  0  0
    4.1445    4.9057    7.7049 C   0  0  0  0  0  0  0  0  0  0  0  0
    2.1092    4.3436    7.1938 C   0  0  1  0  0  0  0  0  0  0  0  0
    2.7221    3.8381    5.9463 N   0  0  0  0  0  0  0  0  0  0  0  0
    2.4633    2.6656    5.3515 C   0  0  0  0  0  0  0  0  0  0  0  0
    3.4134    2.2502    4.2487 C   0  0  2  0  0  0  0  0  0  0  0  0
    4.7683    2.3722    4.7219 C   0  0  0  0  0  0  0  0  0  0  0  0
    2.8220    5.5123    6.6943 O   0  0  0  0  0  0  0  0  0  0  0  0
    2.6784    4.6765    8.4306 C   0  0  0  0  0  0  0  0  0  0  0  0
    1.2896    2.5256    5.0533 O   0  0  0  0  0  0  0  0  0  0  0  0
    4.7289    1.6545    5.7556 C   0  0  0  0  0  0  0  0  0  0  0  0
    2.7043    1.7014    3.2872 N   0  0  0  0  0  0  0  0  0  0  0  0
    3.3991    0.1954    4.4312 C   0  0  0  0  0  0  0  0  0  0  0  0
    8.0776   -0.1682   13.4537 O   0  0  0  0  0  0  0  0  0  0  0  0
    8.1466    1.4668   16.6306 C   0  0  0  0  0  0  0  0  0  0  0  0
    8.7597    3.2954   14.2429 O   0  0  0  0  0  0  0  0  0  0  0  0
   11.6149    3.4395   12.7594 N   0  0  0  0  0  0  0  0  0  0  0  0
    6.9794    0.4441   17.6131 S   0  0  0  0  0  0  0  0  0  0  0  0
    6.8706    2.3566    8.8640 C   0  0  0  0  0  0  0  0  0  0  0  0
    7.3015    0.3834    8.0729 N   0  0  0  0  0  0  0  0  0  0  0  0
    6.4197   -0.2920    7.0871 C   0  0  2  0  0  0  0  0  0  0  0  0
    4.6436   -1.1890    7.1653 C   0  0  0  0  0  0  0  0  0  0  0  0
    4.8262   -2.0825    6.4153 N   0  0  0  0  0  0  0  0  0  0  0  0
    7.2722    3.4945    8.4523 O   0  0  0  0  0  0  0  0  0  0  0  0
    3.5164    0.7555    6.3259 C   0  0  0  0  0  0  0  0  0  0  0  0
    3.5499   -0.8075    8.1232 C   0  0  0  0  0  0  0  0  0  0  0  0
    4.8509   -0.3580    9.2297 C   0  0  0  0  0  0  0  0  0  0  0  0
    5.7299    1.2626    8.8502 C   0  0  0  0  0  0  0  0  0  0  0  0
    5.8411    2.0721    6.7293 C   0  0  0  0  0  0  0  0  0  0  0  0
    5.1732   -1.0118   10.0896 O   0  0  0  0  0  0  0  0  0  0  0  0
    1.7528   -0.5005    4.3444 O   0  0  0  0  0  0  0  0  0  0  0  0
    3.0090   -0.1886    7.1193 O   0  0  0  0  0  0  0  0  0  0  0  0
    4.9406   -2.1217    5.1387 C   0  0  0  0  0  0  0  0  0  0  0  0
    4.3333   -3.4565    4.8627 C   0  0  0  0  0  0  0  0  0  0  0  0
    3.8375   -3.9507    6.0817 C   0  0  0  0  0  0  0  0  0  0  0  0
    4.7317   -3.3713    6.9319 C   0  0  1  0  0  0  0  0  0  0  0  0
    3.9003   -3.5501    8.7222 C   0  0  0  0  0  0  0  0  0  0  0  0
    4.9303   -2.8732    9.8423 O   0  0  0  0  0  0  0  0  0  0  0  0
    3.1739   -2.7894    9.0868 N   0  0  0  0  0  0  0  0  0  0  0  0
    2.4185   -1.9446    9.2656 C   0  0  2  0  0  0  0  0  0  0  0  0
    2.8918   -2.2903   11.7970 C   0  0  0  0  0  0  0  0  0  0  0  0
    2.0211   -3.5437    7.6994 C   0  0  0  0  0  0  0  0  0  0  0  0
    1.8618   -1.4484   10.6412 O   0  0  0  0  0  0  0  0  0  0  0  0
    3.7869   -2.7193   14.0170 N   0  0  0  0  0  0  0  0  0  0  0  0
    5.0492   -2.9077   16.1174 C   0  0  1  0  0  0  0  0  0  0  0  0
    6.3943   -2.7000   18.0844 C   0  0  0  0  0  0  0  0  0  0  0  0
    5.1015   -1.6376   16.9096 C   0  0  0  0  0  0  0  0  0  0  0  0
    7.9381   -1.3678   18.1833 S   0  0  0  0  0  0  0  0  0  0  0  0
    5.3076   -1.1278   15.6123 N   0  0  0  0  0  0  0  0  0  0  0  0
    4.5788    0.0326   15.2410 C   0  0  2  0  0  0  0  0  0  0  0  0
    5.3037   -0.9065   17.8391 O   0  0  0  0  0  0  0  0  0  0  0  0
    3.6901   -0.3544   14.0756 C   0  0  0  0  0  0  0  0  0  0  0  0
    3.9550    0.2737   12.6360 N   0  0  0  0  0  0  0  0  0  0  0  0
    3.0444    0.1877   11.6573 C   0  0  0  0  0  0  0  0  0  0  0  0
    4.2492    1.3484   14.5271 C   0  0  2  0  0  0  0  0  0  0  0  0
    2.9132    1.3789   13.8976 O   0  0  0  0  0  0  0  0  0  0  0  0
    5.2927    1.8331   13.5472 C   0  0  0  0  0  0  0  0  0  0  0  0
    3.5168    3.2317    9.0342 S   0  0  0  0  0  0  0  0  0  0  0  0
    4.1272    2.7893    7.4998 S   0  0  0  0  0  0  0  0  0  0  0  0
    3.6816   -0.1971   10.5715 C   0  0  0  0  0  0  0  0  0  0  0  0
    3.5950    0.6461    9.3846 N   0  0  0  0  0  0  0  0  0  0  0  0
    2.4472   -0.3070   14.4637 O   0  0  0  0  0  0  0  0  0  0  0  0
    7.6199    1.4028    6.2997 C   0  0  0  0  0  0  0  0  0  0  0  0
    7.7702    2.4807    7.2973 C   0  0  0  0  0  0  0  0  0  0  0  0
    8.5482    2.4176    8.3468 O   0  0  0  0  0  0  0  0  0  0  0  0
    6.1787    3.7921    7.3141 N   0  0  0  0  0  0  0  0  0  0  0  0
    3.5974   -1.4136   10.3546 O   0  0  0  0  0  0  0  0  0  0  0  0
    4.4234    0.5472    8.1692 C   0  0  1  0  0  0  0  0  0  0  0  0
    4.9310    1.4443    7.6452 C   0  0  0  0  0  0  0  0  0  0  0  0
    5.6558   -1.5095    8.4281 C   0  0  0  0  0  0  0  0  0  0  0  0
    4.8547   -2.3874    8.2945 N   0  0  0  0  0  0  0  0  0  0  0  0
    5.4241   -4.2216    8.8208 C   0  0  1  0  0  0  0  0  0  0  0  0
    4.1570   -4.6522   10.0418 C   0  0  0  0  0  0  0  0  0  0  0  0
    6.7077   -1.7614    8.9767 O   0  0  0  0  0  0  0  0  0  0  0  0
    5.2546   -5.1194    7.7272 C   0  0  0  0  0  0  0  0  0  0  0  0
    6.3887   -5.4002    7.1943 O   0  0  0  0  0  0  0  0  0  0  0  0
    4.3875   -5.5503    7.0881 O   0  0  0  0  0  0  0  0  0  0  0  0
    2.7441   -4.8401    9.5573 C   0  0  0  0  0  0  0  0  0  0  0  0
    1.4284   -3.6163    9.5230 C   0  0  0  0  0  0  0  0  0  0  0  0
    0.3402   -3.6615    8.6899 C   0  0  0  0  0  0  0  0  0  0  0  0
    0.0911   -5.0228    8.2910 C   0  0  0  0  0  0  0  0  0  0  0  0
    0.9460   -6.1259    8.5736 C   0  0  0  0  0  0  0  0  0  0  0  0
    2.2578   -5.9962    9.1011 C   0  0  0  0  0  0  0  0  0  0  0  0
   -1.0751   -5.2521    7.7242 O   0  0  0  0  0  0  0  0  0  0  0  0
   -0.1980    1.5075    2.7451 O   0  0  0  0  0  0  0  0  0  0  0  0
   -2.0921    1.3915    1.4887 O   0  0  0  0  0  0  0  0  0  0  0  0
    4.7804    0.6531   16.1005 H   0  0  0  0  0  0  0  0  0  0  0  0
    4.2661    0.3385    7.4988 H   0  0  0  0  0  0  0  0  0  0  0  0
    1.2008    3.6114    7.3935 H   0  0  0  0  0  0  0  0  0  0  0  0
   -0.4786   -1.2042    1.9281 H   0  0  0  0  0  0  0  0  0  0  0  0
   -0.6123   -0.5937    1.0199 H   0  0  0  0  0  0  0  0  0  0  0  0
    2.2403   -0.5733    2.2484 H   0  0  0  0  0  0  0  0  0  0  0  0
    2.1673    0.0779    2.2677 H   0  0  0  0  0  0  0  0  0  0  0  0
    4.1446   -0.0100    4.8008 H   0  0  0  0  0  0  0  0  0  0  0  0
    7.3760   -0.0914   10.5928 H   0  0  0  0  0  0  0  0  0  0  0  0
    7.9577    1.1664   15.1451 H   0  0  0  0  0  0  0  0  0  0  0  0
   10.5393    2.5766   16.3516 H   0  0  0  0  0  0  0  0  0  0  0  0
   11.8330    4.0192   14.4329 H   0  0  0  0  0  0  0  0  0  0  0  0
   10.4588    5.9284   14.2562 H   0  0  0  0  0  0  0  0  0  0  0  0
    9.5325    6.0333   13.2035 H   0  0  0  0  0  0  0  0  0  0  0  0
    5.9855    3.2260   11.9306 H   0  0  0  0  0  0  0  0  0  0  0  0
    5.9819    2.7761   10.4078 H   0  0  0  0  0  0  0  0  0  0  0  0
    8.0500    1.6320   10.2719 H   0  0  0  0  0  0  0  0  0  0  0  0
    7.5234    4.1560    9.2399 H   0  0  0  0  0  0  0  0  0  0  0  0
    3.4246    4.5405    5.6265 H   0  0  0  0  0  0  0  0  0  0  0  0
    3.9586    1.7281    3.4547 H   0  0  0  0  0  0  0  0  0  0  0  0
    5.5398    1.9749    4.1507 H   0  0  0  0  0  0  0  0  0  0  0  0
    4.9560    3.3180    5.1336 H   0  0  0  0  0  0  0  0  0  0  0  0
    2.9415    5.4946    9.0657 H   0  0  0  0  0  0  0  0  0  0  0  0
    2.3358    5.6984    8.0694 H   0  0  0  0  0  0  0  0  0  0  0  0
    1.9718    2.5098    2.7242 H   0  0  0  0  0  0  0  0  0  0  0  0
    8.3694    2.3008   17.9493 H   0  0  0  0  0  0  0  0  0  0  0  0
    7.6653    2.5488   16.6655 H   0  0  0  0  0  0  0  0  0  0  0  0
   11.8864    2.4777   12.9245 H   0  0  0  0  0  0  0  0  0  0  0  0
   12.4492    4.0083   12.6022 H   0  0  0  0  0  0  0  0  0  0  0  0
    7.4500   -0.1074    8.8331 H   0  0  0  0  0  0  0  0  0  0  0  0
    5.9119    0.5381    6.0496 H   0  0  0  0  0  0  0  0  0  0  0  0
    2.9634    0.2530    5.7016 H   0  0  0  0  0  0  0  0  0  0  0  0
    2.9729   -1.3968    7.6059 H   0  0  0  0  0  0  0  0  0  0  0  0
    6.7201    1.1047    9.2972 H   0  0  0  0  0  0  0  0  0  0  0  0
    6.4584    2.6416    6.6230 H   0  0  0  0  0  0  0  0  0  0  0  0
    4.5027   -1.6699    9.7186 H   0  0  0  0  0  0  0  0  0  0  0  0
    5.9064   -1.6496    5.0723 H   0  0  0  0  0  0  0  0  0  0  0  0
    4.4092   -1.6513    4.3483 H   0  0  0  0  0  0  0  0  0  0  0  0
    4.7370   -4.3696    4.4939 H   0  0  0  0  0  0  0  0  0  0  0  0
    3.7115   -3.0970    4.0557 H   0  0  0  0  0  0  0  0  0  0  0  0
    3.2757   -4.7712    6.5670 H   0  0  0  0  0  0  0  0  0  0  0  0
    2.9160   -4.1302    5.6694 H   0  0  0  0  0  0  0  0  0  0  0  0
    5.8020   -3.6098    7.2649 H   0  0  0  0  0  0  0  0  0  0  0  0
    2.8426   -2.9007   10.1178 H   0  0  0  0  0  0  0  0  0  0  0  0
    1.8496   -1.8189    7.4711 H   0  0  0  0  0  0  0  0  0  0  0  0
    1.7531   -4.5219    8.3795 H   0  0  0  0  0  0  0  0  0  0  0  0
    1.1468   -3.9757    7.1055 H   0  0  0  0  0  0  0  0  0  0  0  0
    2.7738   -4.1234    7.5139 H   0  0  0  0  0  0  0  0  0  0  0  0
    3.9834   -3.4424   15.5330 H   0  0  0  0  0  0  0  0  0  0  0  0
    6.4539   -3.3168   16.5024 H   0  0  0  0  0  0  0  0  0  0  0  0
    6.8780   -2.9741   19.5738 H   0  0  0  0  0  0  0  0  0  0  0  0
    6.0407   -3.4336   18.9020 H   0  0  0  0  0  0  0  0  0  0  0  0
    5.9427   -1.6111   14.9801 H   0  0  0  0  0  0  0  0  0  0  0  0
    4.4385    1.0951   12.5512 H   0  0  0  0  0  0  0  0  0  0  0  0
    2.2570    0.2429   12.3250 H   0  0  0  0  0  0  0  0  0  0  0  0
    2.4542    0.2058   10.7390 H   0  0  0  0  0  0  0  0  0  0  0  0
    4.0384    2.1168   15.2017 H   0  0  0  0  0  0  0  0  0  0  0  0
    2.9610    1.5105   12.9713 H   0  0  0  0  0  0  0  0  0  0  0  0
    6.0933    2.2495   13.9526 H   0  0  0  0  0  0  0  0  0  0  0  0
    5.6911    0.9232   12.9198 H   0  0  0  0  0  0  0  0  0  0  0  0
    4.7479    2.4952   12.8092 H   0  0  0  0  0  0  0  0  0  0  0  0
    3.2728    1.3652    9.1027 H   0  0  0  0  0  0  0  0  0  0  0  0
    7.9655    0.6572    6.6784 H   0  0  0  0  0  0  0  0  0  0  0  0
    6.9889    1.8659    5.5393 H   0  0  0  0  0  0  0  0  0  0  0  0
    5.2146    3.6756    7.1980 H   0  0  0  0  0  0  0  0  0  0  0  0
    6.1044    4.6059    7.9943 H   0  0  0  0  0  0  0  0  0  0  0  0
    6.6263    1.4850    7.7921 H   0  0  0  0  0  0  0  0  0  0  0  0
    6.4645    0.9740    6.9675 H   0  0  0  0  0  0  0  0  0  0  0  0
    3.6308   -2.4419    7.8552 H   0  0  0  0  0  0  0  0  0  0  0  0
    6.1755   -3.7881    9.2250 H   0  0  0  0  0  0  0  0  0  0  0  0
    4.5308   -5.4906   10.2035 H   0  0  0  0  0  0  0  0  0  0  0  0
    4.0760   -3.8429   10.7482 H   0  0  0  0  0  0  0  0  0  0  0  0
    7.1757   -5.1416    7.6949 H   0  0  0  0  0  0  0  0  0  0  0  0
    1.5671   -2.7692    9.7926 H   0  0  0  0  0  0  0  0  0  0  0  0
   -0.0128   -2.8009    8.2723 H   0  0  0  0  0  0  0  0  0  0  0  0
    0.5774   -7.0951    8.4111 H   0  0  0  0  0  0  0  0  0  0  0  0
    2.8584   -6.7915    9.2915 H   0  0  0  0  0  0  0  0  0  0  0  0
   -1.6289   -4.4770    7.5097 H   0  0  0  0  0  0  0  0  0  0  0  0
    0.6546    1.0440    2.9735 H   0  0  0  0  0  0  0  0  0  0  0  0
  1  2  1  0  0  0  0
  1100  1  0  0  0  0
  1101  2  0  0  0  0
  2  3  1  0  0  0  0
  2105  1  0  0  0  0
  2106  1  0  0  0  0
  3107  1  0  0  0  0
  3108  1  0  0  0  0
  4  5  1  0  0  0  0
  4109  1  6  0  0  0
  4  3  1  0  0  0  0
  5  6  1  0  0  0  0
  5110  1  0  0  0  0
  6  7  1  0  0  0  0
  6 29  2  0  0  0  0
  7  8  1  0  0  0  0
  7 30  1  0  0  0  0
  7111  1  1  0  0  0
  8  9  1  0  0  0  0
  8112  1  0  0  0  0
  9 10  1  0  0  0  0
  9 31  2  0  0  0  0
 10 11  1  0  0  0  0
 10113  1  1  0  0  0
 10 32  1  0  0  0  0
 11 12  1  0  0  0  0
 11114  1  0  0  0  0
 11115  1  0  0  0  0
 12 13  1  0  0  0  0
 13 14  1  0  0  0  0
 14116  1  0  0  0  0
 14117  1  0  0  0  0
 15 14  1  0  0  0  0
 15 16  1  0  0  0  0
 15 34  1  0  0  0  0
 15118  1  6  0  0  0
 16 17  1  0  0  0  0
 16119  1  0  0  0  0
 17 18  1  0  0  0  0
 17 23  2  0  0  0  0
 18 19  1  0  0  0  0
 18 24  1  0  0  0  0
 18104  1  6  0  0  0
 19 20  1  0  0  0  0
 19120  1  0  0  0  0
 20 21  1  0  0  0  0
 20 25  2  0  0  0  0
 21 27  1  0  0  0  0
 21 22  1  0  0  0  0
 21121  1  1  0  0  0
 22 26  1  0  0  0  0
 22122  1  0  0  0  0
 22123  1  0  0  0  0
 24 73  1  0  0  0  0
 24124  1  0  0  0  0
 24125  1  0  0  0  0
 26 40  2  0  0  0  0
 26 44  1  0  0  0  0
 27 28  1  0  0  0  0
 27126  1  0  0  0  0
 28  4  1  0  0  0  0
 28 46  2  0  0  0  0
 30 33  1  0  0  0  0
 30127  1  0  0  0  0
 30128  1  0  0  0  0
 32129  1  0  0  0  0
 32130  1  0  0  0  0
 33 63  1  0  0  0  0
 34 35  1  0  0  0  0
 34 39  2  0  0  0  0
 35 36  1  0  0  0  0
 35131  1  0  0  0  0
 36 37  1  0  0  0  0
 36 78  1  0  0  0  0
 36132  1  1  0  0  0
 37 38  1  0  0  0  0
 37 47  2  0  0  0  0
 38 48  1  0  0  0  0
 40 41  1  0  0  0  0
 40133  1  0  0  0  0
 41 42  2  0  0  0  0
 41134  1  0  0  0  0
 42 43  1  0  0  0  0
 42 45  1  0  0  0  0
 43 44  2  0  0  0  0
 43135  1  0  0  0  0
 44136  1  0  0  0  0
 45137  1  0  0  0  0
 48 49  1  0  0  0  0
 48138  1  0  0  0  0
 48139  1  0  0  0  0
 49 50  1  0  0  0  0
 49140  1  0  0  0  0
 49141  1  0  0  0  0
 50 51  1  0  0  0  0
 50142  1  0  0  0  0
 50143  1  0  0  0  0
 51 38  1  0  0  0  0
 51 52  1  0  0  0  0
 51144  1  1  0  0  0
 52 54  1  0  0  0  0
 52 53  2  0  0  0  0
 54 55  1  0  0  0  0
 54145  1  0  0  0  0
 55 56  1  0  0  0  0
 55 57  1  0  0  0  0
 55146  1  6  0  0  0
 56 59  1  0  0  0  0
 56 58  2  0  0  0  0
 57147  1  0  0  0  0
 57148  1  0  0  0  0
 57149  1  0  0  0  0
 59150  1  0  0  0  0
 60 59  1  0  0  0  0
 60 61  1  0  0  0  0
 60 62  1  0  0  0  0
 60151  1  1  0  0  0
 61152  1  0  0  0  0
 61153  1  0  0  0  0
 62 64  1  0  0  0  0
 62 66  2  0  0  0  0
 63 61  1  0  0  0  0
 64 65  1  0  0  0  0
 64154  1  0  0  0  0
 65 67  1  0  0  0  0
 65102  1  1  0  0  0
 65 70  1  0  0  0  0
 67 68  1  0  0  0  0
 67 77  2  0  0  0  0
 68 69  1  0  0  0  0
 68155  1  0  0  0  0
 69 75  1  0  0  0  0
 69156  1  0  0  0  0
 69157  1  0  0  0  0
 70158  1  1  0  0  0
 70 72  1  0  0  0  0
 70 71  1  0  0  0  0
 71159  1  0  0  0  0
 72160  1  0  0  0  0
 72161  1  0  0  0  0
 72162  1  0  0  0  0
 73 74  1  0  0  0  0
 75 76  1  0  0  0  0
 75 82  2  0  0  0  0
 76163  1  0  0  0  0
 78 79  1  0  0  0  0
 78164  1  0  0  0  0
 78165  1  0  0  0  0
 79 80  2  0  0  0  0
 79 81  1  0  0  0  0
 81166  1  0  0  0  0
 81167  1  0  0  0  0
 83 76  1  0  0  0  0
 83 84  1  0  0  0  0
 83 85  1  0  0  0  0
 83103  1  6  0  0  0
 84 74  1  0  0  0  0
 84168  1  0  0  0  0
 84169  1  0  0  0  0
 85 86  1  0  0  0  0
 85 89  2  0  0  0  0
 86170  1  0  0  0  0
 87 86  1  0  0  0  0
 87 88  1  0  0  0  0
 87 90  1  0  0  0  0
 87171  1  1  0  0  0
 88 93  1  0  0  0  0
 88172  1  0  0  0  0
 88173  1  0  0  0  0
 90 91  1  0  0  0  0
 90 92  2  0  0  0  0
 91174  1  0  0  0  0
 93 94  1  0  0  0  0
 93 98  2  0  0  0  0
 94 95  2  0  0  0  0
 94175  1  0  0  0  0
 95 96  1  0  0  0  0
 95176  1  0  0  0  0
 96 97  2  0  0  0  0
 96 99  1  0  0  0  0
 97 98  1  0  0  0  0
 97177  1  0  0  0  0
 98178  1  0  0  0  0
 99179  1  0  0  0  0
100180  1  0  0  0  0
M  END
>  <DRUGBANK_ID>
DB08890

>  <SECONDARY_ACCESSION_NUMBERS>
DB05566

>  <COMMON_NAME>
Linaclotide

>  <CAS_NUMBER>
851199-59-2

>  <UNII>
N0TXR0XR5X

>  <SYNONYMS>
(9-L-TYROSINE)HEAT-STABLE ENTEROTOXIN (ESCHERICHIA COLI)-(6-19)-PEPTIDE; L-TYROSINE, L-CYSTEINYL-L-CYSTEINYL-L-.ALPHA.-GLUTAMYL-L-TYROSYL-L-CYSTEINYL-L-CYSTEINYL-L-ASPARAGINYL-L-PROLYL-L-ALANYL-L-CYSTEINYL-L-THREONYLGLYCYL-L-CYSTEINYL-, CYCLIC (1->6),(2->10),(5->13)-TRIS(DISULFIDE); Linaclotida; Linaclotide

$$$$
