255
 OpenBabel10282417163D

 55 58  0  0  0  0  0  0  0  0999 V2000
    1.2871   -0.4181   -0.1270 O   0  0  0  0  0  0  0  0  0  0  0  0
    2.7274   -0.4407   -0.4017 S   0  0  0  0  0  0  0  0  0  0  0  0
    3.2692   -1.7423   -0.7004 O   0  0  0  0  0  0  0  0  0  0  0  0
    3.5697    0.1166    1.1417 N   0  0  0  0  0  0  0  0  0  0  0  0
    5.0394    0.3016    1.4121 C   0  0  0  0  0  0  0  0  0  0  0  0
    5.3338    0.9369    2.8506 C   0  0  0  0  0  0  0  0  0  0  0  0
    5.7588    1.1570    0.3725 C   0  0  0  0  0  0  0  0  0  0  0  0
    5.5070   -1.1167    1.3347 C   0  0  0  0  0  0  0  0  0  0  0  0
    3.0642    0.6598   -2.0410 C   0  0  0  0  0  0  0  0  0  0  0  0
    2.2874    1.5883   -2.7107 C   0  0  0  0  0  0  0  0  0  0  0  0
    2.6582    2.5355   -3.7692 C   0  0  0  0  0  0  0  0  0  0  0  0
    3.9488    2.8333   -4.2469 C   0  0  0  0  0  0  0  0  0  0  0  0
    4.6184    1.5993   -3.9086 C   0  0  0  0  0  0  0  0  0  0  0  0
    4.1335    0.4845   -2.8765 C   0  0  0  0  0  0  0  0  0  0  0  0
    4.2854    4.4308   -4.9939 C   0  0  0  0  0  0  0  0  0  0  0  0
    4.2142    5.9147   -5.2657 C   0  0  0  0  0  0  0  0  0  0  0  0
    3.2174    7.0834   -4.8566 N   0  0  0  0  0  0  0  0  0  0  0  0
    2.3751    6.7658   -3.8273 C   0  0  0  0  0  0  0  0  0  0  0  0
    1.4929    7.4362   -2.8677 C   0  0  0  0  0  0  0  0  0  0  0  0
    1.1727    6.8254   -1.6512 C   0  0  0  0  0  0  0  0  0  0  0  0
    1.7464    5.6603   -1.3873 C   0  0  0  0  0  0  0  0  0  0  0  0
    2.6597    5.0930   -2.2503 C   0  0  0  0  0  0  0  0  0  0  0  0
    2.6081    5.5019   -3.6051 C   0  0  0  0  0  0  0  0  0  0  0  0
    3.0131    4.7313   -4.7959 C   0  0  0  0  0  0  0  0  0  0  0  0
    3.2837    4.0006   -1.7585 N   0  0  0  0  0  0  0  0  0  0  0  0
    2.7670    3.2704   -0.6936 C   0  0  0  0  0  0  0  0  0  0  0  0
    3.6809    2.9899    0.1190 N   0  0  0  0  0  0  0  0  0  0  0  0
    3.1546    2.5738    1.2688 C   0  0  0  0  0  0  0  0  0  0  0  0
    1.8643    2.0823    1.5499 C   0  0  0  0  0  0  0  0  0  0  0  0
    0.9251    2.1416    0.6123 C   0  0  0  0  0  0  0  0  0  0  0  0
    1.3410    2.8832   -0.4684 C   0  0  0  0  0  0  0  0  0  0  0  0
    3.0426    0.3110    2.0000 H   0  0  0  0  0  0  0  0  0  0  0  0
    4.8895    0.3821    3.6812 H   0  0  0  0  0  0  0  0  0  0  0  0
    6.4113    1.0743    2.9899 H   0  0  0  0  0  0  0  0  0  0  0  0
    4.9830    1.9550    3.0652 H   0  0  0  0  0  0  0  0  0  0  0  0
    5.7181    2.2286    0.5883 H   0  0  0  0  0  0  0  0  0  0  0  0
    6.8361    0.9953    0.3352 H   0  0  0  0  0  0  0  0  0  0  0  0
    5.3483    0.9565   -0.6110 H   0  0  0  0  0  0  0  0  0  0  0  0
    5.0044   -1.7228    2.0978 H   0  0  0  0  0  0  0  0  0  0  0  0
    5.2043   -1.4938    0.3598 H   0  0  0  0  0  0  0  0  0  0  0  0
    6.5854   -1.1746    1.3842 H   0  0  0  0  0  0  0  0  0  0  0  0
    1.4344    2.0826   -2.3388 H   0  0  0  0  0  0  0  0  0  0  0  0
    1.8566    3.2865   -3.8218 H   0  0  0  0  0  0  0  0  0  0  0  0
    5.5419    1.2994   -4.3840 H   0  0  0  0  0  0  0  0  0  0  0  0
    4.5939   -0.4982   -2.7941 H   0  0  0  0  0  0  0  0  0  0  0  0
    4.6924    6.4135   -6.1422 H   0  0  0  0  0  0  0  0  0  0  0  0
    1.1032    8.4234   -3.0059 H   0  0  0  0  0  0  0  0  0  0  0  0
    0.6247    7.2241   -0.8064 H   0  0  0  0  0  0  0  0  0  0  0  0
    1.5140    5.1576   -0.4567 H   0  0  0  0  0  0  0  0  0  0  0  0
    2.5123    4.8407   -5.7881 H   0  0  0  0  0  0  0  0  0  0  0  0
    4.2113    3.7344   -2.0998 H   0  0  0  0  0  0  0  0  0  0  0  0
    3.9569    2.4972    1.9183 H   0  0  0  0  0  0  0  0  0  0  0  0
    1.6621    1.4157    2.3821 H   0  0  0  0  0  0  0  0  0  0  0  0
    0.0162    1.5307    0.6363 H   0  0  0  0  0  0  0  0  0  0  0  0
    0.5324    2.9025   -1.1899 H   0  0  0  0  0  0  0  0  0  0  0  0
  2  1  2  0  0  0  0
  2  4  1  0  0  0  0
  3  2  2  0  0  0  0
  4  5  1  0  0  0  0
  4 32  1  0  0  0  0
  5  7  1  0  0  0  0
  5  6  1  0  0  0  0
  6 33  1  0  0  0  0
  6 34  1  0  0  0  0
  6 35  1  0  0  0  0
  7 36  1  0  0  0  0
  7 37  1  0  0  0  0
  7 38  1  0  0  0  0
  8  5  1  0  0  0  0
  8 39  1  0  0  0  0
  8 40  1  0  0  0  0
  8 41  1  0  0  0  0
  9  2  1  0  0  0  0
 10  9  2  0  0  0  0
 10 42  1  0  0  0  0
 11 10  1  0  0  0  0
 11 43  1  0  0  0  0
 12 11  2  0  0  0  0
 12 13  1  0  0  0  0
 13 14  2  0  0  0  0
 13 44  1  0  0  0  0
 14  9  1  0  0  0  0
 14 45  1  0  0  0  0
 15 12  1  0  0  0  0
 16 15  2  0  0  0  0
 16 46  1  0  0  0  0
 17 16  1  0  0  0  0
 18 17  2  0  0  0  0
 18 23  1  0  0  0  0
 19 18  1  0  0  0  0
 19 47  1  0  0  0  0
 20 19  2  0  0  0  0
 20 21  1  0  0  0  0
 20 48  1  0  0  0  0
 21 22  2  0  0  0  0
 21 49  1  0  0  0  0
 22 23  1  0  0  0  0
 22 25  1  0  0  0  0
 23 24  2  0  0  0  0
 24 15  1  0  0  0  0
 24 50  1  0  0  0  0
 25 26  1  0  0  0  0
 25 51  1  0  0  0  0
 26 27  1  0  0  0  0
 27 28  2  0  0  0  0
 28 52  1  0  0  0  0
 29 28  1  0  0  0  0
 29 53  1  0  0  0  0
 30 29  2  0  0  0  0
 30 54  1  0  0  0  0
 31 26  2  0  0  0  0
 31 30  1  0  0  0  0
 31 55  1  0  0  0  0
M  END
>  <DRUGBANK_ID>
DB06933

>  <COMMON_NAME>
N-(tert-butyl)-4-[5-(pyridin-2-ylamino)quinolin-3-yl]benzenesulfonamide

$$$$
