
 OpenBabel10282417133D

 95 94  0  0  0  0  0  0  0  0999 V2000
   -9.1494    4.8188    3.5217 C   0  0  0  0  0  0  0  0  0  0  0  0
   -9.8679    5.6415    4.5787 C   0  0  0  0  0  0  0  0  0  0  0  0
  -10.5669    4.9695    5.6836 N   0  0  0  0  0  0  0  0  0  0  0  0
  -11.2618    5.7652    6.7058 C   0  0  0  0  0  0  0  0  0  0  0  0
  -12.7377    5.4020    6.7139 C   0  0  0  0  0  0  0  0  0  0  0  0
  -12.8939    3.9234    7.0299 C   0  0  0  0  0  0  0  0  0  0  0  0
  -12.2762    3.6323    8.3879 C   0  0  1  0  0  0  0  0  0  0  0  0
  -14.1671   -3.3693   11.1745 C   0  0  0  0  0  0  0  0  0  0  0  0
  -14.9849   -2.6099   10.4777 N   0  0  0  0  0  0  0  0  0  0  0  0
  -15.0628   -1.1680   10.7527 C   0  0  0  0  0  0  0  0  0  0  0  0
  -15.4965   -0.9496   12.1930 C   0  0  0  0  0  0  0  0  0  0  0  0
  -14.7141   -0.2946   13.0235 N   0  0  0  0  0  0  0  0  0  0  0  0
  -13.4204    0.2260   12.5586 C   0  0  1  0  0  0  0  0  0  0  0  0
  -12.7186    0.9362   13.7046 C   0  0  0  0  0  0  0  0  0  0  0  0
  -11.4689    1.4391   13.2555 O   0  0  0  0  0  0  0  0  0  0  0  0
  -12.5564   -0.9257   12.0712 C   0  0  0  0  0  0  0  0  0  0  0  0
  -12.1349   -0.9504   10.8251 N   0  0  0  0  0  0  0  0  0  0  0  0
  -12.4995    0.1359    9.9042 C   0  0  0  0  0  0  0  0  0  0  0  0
  -14.0126    0.2072    9.7787 C   0  0  0  0  0  0  0  0  0  0  0  0
  -14.6500    1.3064   10.1201 N   0  0  0  0  0  0  0  0  0  0  0  0
  -13.8987    2.4655   10.6231 C   0  0  2  0  0  0  0  0  0  0  0  0
  -12.9112    2.9276    9.5640 C   0  0  0  0  0  0  0  0  0  0  0  0
  -11.9902    1.7888    9.1575 C   0  0  0  0  0  0  0  0  0  0  0  0
  -12.8206    0.6264    8.6382 C   0  0  0  0  0  0  0  0  0  0  0  0
  -13.6019    1.0645    7.4727 N   0  0  0  0  0  0  0  0  0  0  0  0
  -13.4137    0.4060    6.1720 C   0  0  0  0  0  0  0  0  0  0  0  0
  -14.2217    0.8591    4.9668 C   0  0  0  0  0  0  0  0  0  0  0  0
  -12.5755   -0.5420    6.0551 O   0  0  0  0  0  0  0  0  0  0  0  0
  -14.5056    2.0865    7.5987 O   0  5  0  0  0  0  0  0  0  0  0  0
  -13.1439    2.0724   11.8825 C   0  0  0  0  0  0  0  0  0  0  0  0
  -11.8321    2.1655   11.9193 N   0  0  0  0  0  0  0  0  0  0  0  0
  -11.0963    2.6496   10.7424 C   0  0  3  0  0  0  0  0  0  0  0  0
   -9.6069    2.6611   11.0454 C   0  0  0  0  0  0  0  0  0  0  0  0
   -8.8460    3.1617    9.8285 C   0  0  0  0  0  0  0  0  0  0  0  0
   -9.3047    4.5704    9.4884 C   0  0  0  0  0  0  0  0  0  0  0  0
   -9.0436    5.4596   10.6295 N   0  0  0  0  0  0  0  0  0  0  0  0
   -8.1573    6.6212   10.4684 C   0  0  0  0  0  0  0  0  0  0  0  0
   -7.8873    7.5407   11.6483 C   0  0  0  0  0  0  0  0  0  0  0  0
   -7.6167    6.8567    9.3425 O   0  0  0  0  0  0  0  0  0  0  0  0
   -9.6264    5.2057   11.8431 O   0  5  0  0  0  0  0  0  0  0  0  0
  -11.3663    1.7302    9.5625 C   0  0  0  0  0  0  0  0  0  0  0  0
  -11.9193    2.2086    8.4688 N   0  0  0  0  0  0  0  0  0  0  0  0
  -11.1141    2.5892   10.6648 O   0  0  0  0  0  0  0  0  0  0  0  0
  -13.8491    2.4397   10.7060 O   0  0  0  0  0  0  0  0  0  0  0  0
  -12.5991    0.1406    9.8960 O   0  0  0  0  0  0  0  0  0  0  0  0
  -13.3636    0.1502   12.5265 O   0  0  0  0  0  0  0  0  0  0  0  0
  -15.0913   -1.1536   10.8474 O   0  0  0  0  0  0  0  0  0  0  0  0
  -13.3597   -2.7960   12.1922 O   0  0  0  0  0  0  0  0  0  0  0  0
  -10.5707    3.6017    5.7606 O   0  5  0  0  0  0  0  0  0  0  0  0
   -9.8644    6.9104    4.5073 O   0  0  0  0  0  0  0  0  0  0  0  0
    1.0732   -0.0533    0.0425 Ga  0  1  0  0  0  0  0  0  0  0  0  0
   -9.2594    3.7780    3.7442 H   0  0  0  0  0  0  0  0  0  0  0  0
   -8.1104    5.0745    3.5161 H   0  0  0  0  0  0  0  0  0  0  0  0
   -9.5726    5.0248    2.5608 H   0  0  0  0  0  0  0  0  0  0  0  0
  -10.8385    5.5592    7.6667 H   0  0  0  0  0  0  0  0  0  0  0  0
  -11.1518    6.8060    6.4833 H   0  0  0  0  0  0  0  0  0  0  0  0
  -13.2435    5.9811    7.4579 H   0  0  0  0  0  0  0  0  0  0  0  0
  -13.1609    5.6079    5.7529 H   0  0  0  0  0  0  0  0  0  0  0  0
  -13.9329    3.6677    7.0356 H   0  0  0  0  0  0  0  0  0  0  0  0
  -12.3881    3.3443    6.2858 H   0  0  0  0  0  0  0  0  0  0  0  0
  -12.9807    3.8678    9.1580 H   0  0  0  0  0  0  0  0  0  0  0  0
  -15.7749   -0.7171   10.0935 H   0  0  0  0  0  0  0  0  0  0  0  0
  -14.1020   -0.7230   10.5982 H   0  0  0  0  0  0  0  0  0  0  0  0
  -13.5810    0.9157   11.7564 H   0  0  0  0  0  0  0  0  0  0  0  0
  -13.3268    1.7469   14.0477 H   0  0  0  0  0  0  0  0  0  0  0  0
  -12.5580    0.2464   14.5067 H   0  0  0  0  0  0  0  0  0  0  0  0
  -10.9005    0.6814   12.9348 H   0  0  0  0  0  0  0  0  0  0  0  0
  -12.0703   -0.0527    8.9424 H   0  0  0  0  0  0  0  0  0  0  0  0
  -12.1289    1.0650   10.2842 H   0  0  0  0  0  0  0  0  0  0  0  0
  -14.5784    3.2607   10.8482 H   0  0  0  0  0  0  0  0  0  0  0  0
  -13.4799    3.2465    8.7156 H   0  0  0  0  0  0  0  0  0  0  0  0
  -12.3266    3.7459    9.9296 H   0  0  0  0  0  0  0  0  0  0  0  0
  -11.3261    2.1243    8.3886 H   0  0  0  0  0  0  0  0  0  0  0  0
  -11.4215    1.4698   10.0059 H   0  0  0  0  0  0  0  0  0  0  0  0
  -12.1723   -0.1753    8.3520 H   0  0  0  0  0  0  0  0  0  0  0  0
  -13.4847    0.2909    9.4072 H   0  0  0  0  0  0  0  0  0  0  0  0
  -13.5575    1.1946    4.1978 H   0  0  0  0  0  0  0  0  0  0  0  0
  -14.8062    0.0408    4.6012 H   0  0  0  0  0  0  0  0  0  0  0  0
  -14.8700    1.6607    5.2530 H   0  0  0  0  0  0  0  0  0  0  0  0
  -11.4192    3.6413   10.5030 H   0  0  0  0  0  0  0  0  0  0  0  0
   -9.4168    3.3083   11.8760 H   0  0  0  0  0  0  0  0  0  0  0  0
   -9.2840    1.6694   11.2848 H   0  0  0  0  0  0  0  0  0  0  0  0
   -7.7976    3.1697   10.0418 H   0  0  0  0  0  0  0  0  0  0  0  0
   -9.0361    2.5145    8.9979 H   0  0  0  0  0  0  0  0  0  0  0  0
   -8.7691    4.9228    8.6318 H   0  0  0  0  0  0  0  0  0  0  0  0
  -10.3532    4.5623    9.2751 H   0  0  0  0  0  0  0  0  0  0  0  0
   -6.8388    7.5487   11.8616 H   0  0  0  0  0  0  0  0  0  0  0  0
   -8.2102    8.5323   11.4089 H   0  0  0  0  0  0  0  0  0  0  0  0
   -8.4229    7.1882   12.5049 H   0  0  0  0  0  0  0  0  0  0  0  0
  -10.6937    2.2255   11.4961 H   0  0  0  0  0  0  0  0  0  0  0  0
  -14.8462    2.3689   10.6780 H   0  0  0  0  0  0  0  0  0  0  0  0
  -12.1146   -0.6949    9.6364 H   0  0  0  0  0  0  0  0  0  0  0  0
  -13.6840    0.1689   13.4736 H   0  0  0  0  0  0  0  0  0  0  0  0
  -15.6860   -1.6515   10.2162 H   0  0  0  0  0  0  0  0  0  0  0  0
  -12.7382   -3.3731   12.7219 H   0  0  0  0  0  0  0  0  0  0  0  0
  1  2  1  0  0  0  0
  1 52  1  0  0  0  0
  1 53  1  0  0  0  0
  1 54  1  0  0  0  0
  2  3  1  0  0  0  0
  2 50  2  0  0  0  0
  3  4  1  0  0  0  0
  3 49  1  0  0  0  0
  4  5  1  0  0  0  0
  4 55  1  0  0  0  0
  4 56  1  0  0  0  0
  5  6  1  0  0  0  0
  5 57  1  0  0  0  0
  5 58  1  0  0  0  0
  6 59  1  0  0  0  0
  6 60  1  0  0  0  0
  7  8  1  0  0  0  0
  7 42  1  0  0  0  0
  7 61  1  1  0  0  0
  7  6  1  0  0  0  0
  8  9  2  0  0  0  0
  8 48  1  0  0  0  0
  9 10  1  0  0  0  0
 10 11  1  0  0  0  0
 10 62  1  0  0  0  0
 10 63  1  0  0  0  0
 11 12  2  0  0  0  0
 11 47  1  0  0  0  0
 12 13  1  0  0  0  0
 13 14  1  0  0  0  0
 13 16  1  0  0  0  0
 13 64  1  6  0  0  0
 14 15  1  0  0  0  0
 14 65  1  0  0  0  0
 14 66  1  0  0  0  0
 15 67  1  0  0  0  0
 16 17  2  0  0  0  0
 16 46  1  0  0  0  0
 17 18  1  0  0  0  0
 18 19  1  0  0  0  0
 18 68  1  0  0  0  0
 18 69  1  0  0  0  0
 19 20  2  0  0  0  0
 19 45  1  0  0  0  0
 20 21  1  0  0  0  0
 21 30  1  0  0  0  0
 21 70  1  1  0  0  0
 21 22  1  0  0  0  0
 22 23  1  0  0  0  0
 22 71  1  0  0  0  0
 22 72  1  0  0  0  0
 23 24  1  0  0  0  0
 23 73  1  0  0  0  0
 23 74  1  0  0  0  0
 24 25  1  0  0  0  0
 24 75  1  0  0  0  0
 24 76  1  0  0  0  0
 25 26  1  0  0  0  0
 25 29  1  0  0  0  0
 26 27  1  0  0  0  0
 26 28  2  0  0  0  0
 27 77  1  0  0  0  0
 27 78  1  0  0  0  0
 27 79  1  0  0  0  0
 30 31  2  0  0  0  0
 30 44  1  0  0  0  0
 31 32  1  0  0  0  0
 32 33  1  0  0  0  0
 32 41  1  0  0  0  0
 32 80  1  0  0  0  0
 33 34  1  0  0  0  0
 33 81  1  0  0  0  0
 33 82  1  0  0  0  0
 34 35  1  0  0  0  0
 34 83  1  0  0  0  0
 34 84  1  0  0  0  0
 35 36  1  0  0  0  0
 35 85  1  0  0  0  0
 35 86  1  0  0  0  0
 36 37  1  0  0  0  0
 36 40  1  0  0  0  0
 37 38  1  0  0  0  0
 37 39  2  0  0  0  0
 38 87  1  0  0  0  0
 38 88  1  0  0  0  0
 38 89  1  0  0  0  0
 41 42  2  0  0  0  0
 41 43  1  0  0  0  0
 43 90  1  0  0  0  0
 44 91  1  0  0  0  0
 45 92  1  0  0  0  0
 46 93  1  0  0  0  0
 47 94  1  0  0  0  0
 48 95  1  0  0  0  0
M  CHG  4  29  -1  40  -1  49  -1  51   3
M  END
>  <DRUGBANK_ID>
DB03436

>  <SECONDARY_ACCESSION_NUMBERS>
EXPT01562

>  <COMMON_NAME>
Gallichrome

$$$$
