
 OpenBabel10282417193D

 28 29  0  0  0  0  0  0  0  0999 V2000
    1.2012   -0.1390    0.0010 C   0  0  0  0  0  0  0  0  0  0  0  0
    0.9250    0.4707    1.3732 C   0  0  0  0  0  0  0  0  0  0  0  0
    1.1352    1.9794    1.4184 C   0  0  0  0  0  0  0  0  0  0  0  0
    0.4561    2.7634    0.2733 C   0  0  0  0  0  0  0  0  0  0  0  0
   -1.0979    2.7461    0.1945 C   0  0  3  0  0  0  0  0  0  0  0  0
   -1.8657    1.5986    0.7586 C   0  0  0  0  0  0  0  0  0  0  0  0
   -2.5008    2.0074    1.9136 C   0  0  0  0  0  0  0  0  0  0  0  0
   -3.0829    1.1149    2.8036 C   0  0  0  0  0  0  0  0  0  0  0  0
   -2.9499   -0.2515    2.5431 C   0  0  0  0  0  0  0  0  0  0  0  0
   -2.3332   -0.6818    1.3617 C   0  0  0  0  0  0  0  0  0  0  0  0
   -1.8843    0.2505    0.4110 C   0  0  0  0  0  0  0  0  0  0  0  0
   -1.5708    3.8574    1.0002 O   0  0  0  0  0  0  0  0  0  0  0  0
   -2.3577    3.4549    2.0441 C   0  0  0  0  0  0  0  0  0  0  0  0
   -2.8404    4.1616    2.8943 O   0  0  0  0  0  0  0  0  0  0  0  0
    0.7576    0.4161   -0.8333 H   0  0  0  0  0  0  0  0  0  0  0  0
    0.7997   -1.1544   -0.0710 H   0  0  0  0  0  0  0  0  0  0  0  0
    2.2767   -0.1685   -0.1754 H   0  0  0  0  0  0  0  0  0  0  0  0
   -0.0787    0.3010    1.7226 H   0  0  0  0  0  0  0  0  0  0  0  0
    1.4772   -0.0712    2.1439 H   0  0  0  0  0  0  0  0  0  0  0  0
    0.7709    2.3660    2.3779 H   0  0  0  0  0  0  0  0  0  0  0  0
    2.2169    2.1558    1.3959 H   0  0  0  0  0  0  0  0  0  0  0  0
    0.7957    3.8064    0.3578 H   0  0  0  0  0  0  0  0  0  0  0  0
    0.8653    2.4282   -0.6860 H   0  0  0  0  0  0  0  0  0  0  0  0
   -1.4107    2.9392   -0.8370 H   0  0  0  0  0  0  0  0  0  0  0  0
   -3.5690    1.4643    3.7083 H   0  0  0  0  0  0  0  0  0  0  0  0
   -3.2955   -0.9865    3.2671 H   0  0  0  0  0  0  0  0  0  0  0  0
   -2.0961   -1.7392    1.2333 H   0  0  0  0  0  0  0  0  0  0  0  0
   -1.3511   -0.1118   -0.4615 H   0  0  0  0  0  0  0  0  0  0  0  0
  1  2  1  0  0  0  0
  1 15  1  0  0  0  0
  1 16  1  0  0  0  0
  1 17  1  0  0  0  0
  2  3  1  0  0  0  0
  2 18  1  0  0  0  0
  2 19  1  0  0  0  0
  3  4  1  0  0  0  0
  3 20  1  0  0  0  0
  3 21  1  0  0  0  0
  4  5  1  0  0  0  0
  4 22  1  0  0  0  0
  4 23  1  0  0  0  0
  5  6  1  0  0  0  0
  5 12  1  0  0  0  0
  5 24  1  0  0  0  0
  6  7  2  0  0  0  0
  6 11  1  0  0  0  0
  7  8  1  0  0  0  0
  7 13  1  0  0  0  0
  8  9  2  0  0  0  0
  8 25  1  0  0  0  0
  9 10  1  0  0  0  0
  9 26  1  0  0  0  0
 10 11  2  0  0  0  0
 10 27  1  0  0  0  0
 11 28  1  0  0  0  0
 12 13  1  0  0  0  0
 13 14  2  0  0  0  0
M  END
>  <DRUGBANK_ID>
DB12749

>  <COMMON_NAME>
Butylphthalide

>  <CAS_NUMBER>
6066-49-5

>  <UNII>
822Q956KGM

>  <SYNONYMS>
(Â±)-3-BUTYLPHTHALIDE; 3-BUTYLPHTHALIDE; 3-n-butylphthalide; 3-N-BUTYLPHTHALIDE [FHFI]; Butylphthalide; DL-3-n-butylphthalide; PHTHALIDE, 3-BUTYL-

$$$$
