
 OpenBabel10282417243D

 24 26  0  0  0  0  0  0  0  0999 V2000
    0.9742    0.0991   -0.0709 C   0  0  0  0  0  0  0  0  0  0  0  0
    0.5497   -0.8746   -1.0548 N   0  0  0  0  0  0  0  0  0  0  0  0
    0.8042   -2.2274   -0.9367 C   0  0  0  0  0  0  0  0  0  0  0  0
    0.3549   -2.8322   -2.1133 C   0  0  0  0  0  0  0  0  0  0  0  0
    0.5271   -4.2229   -2.2674 C   0  0  0  0  0  0  0  0  0  0  0  0
    1.1331   -4.9464   -1.2407 C   0  0  0  0  0  0  0  0  0  0  0  0
    1.3049   -6.2671   -1.3850 F   0  0  0  0  0  0  0  0  0  0  0  0
    1.5649   -4.3330   -0.0733 C   0  0  0  0  0  0  0  0  0  0  0  0
    1.4080   -2.9578    0.1010 C   0  0  0  0  0  0  0  0  0  0  0  0
   -0.2082   -1.8051   -2.9350 C   0  0  0  0  0  0  0  0  0  0  0  0
   -0.0901   -0.5974   -2.2437 C   0  0  0  0  0  0  0  0  0  0  0  0
   -0.5614    0.5966   -2.7847 C   0  0  0  0  0  0  0  0  0  0  0  0
   -1.1354    0.5946   -4.0087 N   0  0  0  0  0  0  0  0  0  0  0  0
   -1.2398   -0.5693   -4.6819 C   0  0  0  0  0  0  0  0  0  0  0  0
   -0.8031   -1.7954   -4.2069 C   0  0  0  0  0  0  0  0  0  0  0  0
    0.5829   -0.1971    0.9058 H   0  0  0  0  0  0  0  0  0  0  0  0
    0.6026    1.0923   -0.3252 H   0  0  0  0  0  0  0  0  0  0  0  0
    2.0680    0.1070   -0.0587 H   0  0  0  0  0  0  0  0  0  0  0  0
    0.2026   -4.7358   -3.1664 H   0  0  0  0  0  0  0  0  0  0  0  0
    2.0310   -4.9322    0.7031 H   0  0  0  0  0  0  0  0  0  0  0  0
    1.7484   -2.4762    1.0125 H   0  0  0  0  0  0  0  0  0  0  0  0
   -0.4982    1.5541   -2.2835 H   0  0  0  0  0  0  0  0  0  0  0  0
   -1.7049   -0.4906   -5.6610 H   0  0  0  0  0  0  0  0  0  0  0  0
   -0.9161   -2.6964   -4.7968 H   0  0  0  0  0  0  0  0  0  0  0  0
  1  2  1  0  0  0  0
  1 16  1  0  0  0  0
  1 17  1  0  0  0  0
  1 18  1  0  0  0  0
  2  3  1  0  0  0  0
  2 11  1  0  0  0  0
  3  4  2  0  0  0  0
  3  9  1  0  0  0  0
  4  5  1  0  0  0  0
  4 10  1  0  0  0  0
  5  6  2  0  0  0  0
  5 19  1  0  0  0  0
  6  7  1  0  0  0  0
  6  8  1  0  0  0  0
  8  9  2  0  0  0  0
  8 20  1  0  0  0  0
  9 21  1  0  0  0  0
 10 11  2  0  0  0  0
 10 15  1  0  0  0  0
 11 12  1  0  0  0  0
 12 13  2  0  0  0  0
 12 22  1  0  0  0  0
 13 14  1  0  0  0  0
 14 15  2  0  0  0  0
 14 23  1  0  0  0  0
 15 24  1  0  0  0  0
M  END
>  <DRUGBANK_ID>
DB18118

>  <COMMON_NAME>
6-fluoro-9-methyl-9H-pyrido(3,4-B)-indole

>  <UNII>
KT2RT2HH65

>  <SYNONYMS>
6-fluoro-9-methyl-9H-pyrido[3,4-b]-indole

$$$$
