
 OpenBabel10282417173D

 79 82  0  0  1  0  0  0  0  0999 V2000
    1.0004   -0.0982   -0.0511 C   0  0  0  0  0  0  0  0  0  0  0  0
    0.6264   -0.5679   -1.4351 C   0  0  2  0  0  0  0  0  0  0  0  0
    0.8247    0.2858   -2.6765 C   0  0  0  0  0  0  0  0  0  0  0  0
    0.3667    1.7390   -2.3793 C   0  0  2  0  0  0  0  0  0  0  0  0
    1.1063    2.2655   -1.1287 C   0  0  2  0  0  0  0  0  0  0  0  0
    0.6256    1.3853    0.1032 C   0  0  0  0  0  0  0  0  0  0  0  0
    0.5881    2.6349   -3.6065 C   0  0  0  0  0  0  0  0  0  0  0  0
    0.3819    4.2016   -3.4193 C   0  0  2  0  0  0  0  0  0  0  0  0
    1.2694    4.8008   -2.2046 C   0  0  2  0  0  0  0  0  0  0  0  0
    0.8157    3.8031   -0.9407 C   0  0  2  0  0  0  0  0  0  0  0  0
    1.7956    6.6069   -1.9898 C   0  0  1  0  0  0  0  0  0  0  0  0
    1.5726    6.4138   -0.5652 C   0  0  2  0  0  0  0  0  0  0  0  0
    1.0613    5.6072    0.5349 C   0  0  0  0  0  0  0  0  0  0  0  0
    1.4363    4.2037    0.3735 C   0  0  0  0  0  0  0  0  0  0  0  0
    2.7017    7.9685   -0.7844 C   0  0  0  0  0  0  0  0  0  0  0  0
    1.7252    8.6100    0.2343 C   0  0  0  0  0  0  0  0  0  0  0  0
    0.8095    7.8901   -0.5975 C   0  0  2  0  0  0  0  0  0  0  0  0
    0.9965   -1.9158   -1.6239 O   0  0  0  0  0  0  0  0  0  0  0  0
    3.3215    5.8134   -0.8869 C   0  0  0  0  0  0  0  0  0  0  0  0
   -0.6520    8.0583   -0.4113 C   0  0  2  0  0  0  0  0  0  0  0  0
   -1.1699    7.5759    0.9125 C   0  0  0  0  0  0  0  0  0  0  0  0
   -1.3404    7.4694   -1.6561 C   0  0  0  0  0  0  0  0  0  0  0  0
   -2.7304    8.0346   -1.8189 C   0  0  0  0  0  0  0  0  0  0  0  0
   -2.6809    9.5385   -2.0613 C   0  0  0  0  0  0  0  0  0  0  0  0
   -0.2783    3.9055   -0.8187 H   0  0  0  0  0  0  0  0  0  0  0  0
    2.6291    2.0701   -1.3036 C   0  0  0  0  0  0  0  0  0  0  0  0
    2.2154    4.4216   -2.5815 H   0  0  0  0  0  0  0  0  0  0  0  0
    1.1816    7.1399   -2.6978 H   0  0  0  0  0  0  0  0  0  0  0  0
    0.8861    8.5029   -1.5461 H   0  0  0  0  0  0  0  0  0  0  0  0
   -0.7174    1.6996   -2.1716 H   0  0  0  0  0  0  0  0  0  0  0  0
   -3.2058    9.9717   -3.2421 N   0  0  0  0  0  0  0  0  0  0  0  0
   -3.1518   11.3776   -3.6074 C   0  0  0  0  0  0  0  0  0  0  0  0
   -2.2087   10.3466   -1.2639 O   0  0  0  0  0  0  0  0  0  0  0  0
   -2.4516   11.6157   -4.9284 C   0  0  0  0  0  0  0  0  0  0  0  0
   -3.2822   10.7758   -6.2610 S   0  0  0  0  0  0  0  0  0  0  0  0
   -4.6949   11.5578   -6.1772 O   0  0  0  0  0  0  0  0  0  0  0  0
   -2.6391   11.1439   -7.5191 O   0  0  0  0  0  0  0  0  0  0  0  0
   -3.5311    9.4125   -5.8958 O   0  0  0  0  0  0  0  0  0  0  0  0
   -1.0211    4.4316   -3.3001 O   0  0  0  0  0  0  0  0  0  0  0  0
    0.3828   -0.7437    0.5975 H   0  0  0  0  0  0  0  0  0  0  0  0
    2.0373   -0.3174    0.2430 H   0  0  0  0  0  0  0  0  0  0  0  0
   -0.4522   -0.5268   -1.3423 H   0  0  0  0  0  0  0  0  0  0  0  0
    0.1868   -0.1690   -3.4467 H   0  0  0  0  0  0  0  0  0  0  0  0
    1.8393    0.2348   -3.0973 H   0  0  0  0  0  0  0  0  0  0  0  0
   -0.4695    1.4685    0.1940 H   0  0  0  0  0  0  0  0  0  0  0  0
    1.0098    1.7318    1.0678 H   0  0  0  0  0  0  0  0  0  0  0  0
    1.6107    2.4526   -3.9538 H   0  0  0  0  0  0  0  0  0  0  0  0
   -0.0728    2.2417   -4.3945 H   0  0  0  0  0  0  0  0  0  0  0  0
    0.6892    4.6417   -4.3702 H   0  0  0  0  0  0  0  0  0  0  0  0
    1.4537    5.9757    1.4897 H   0  0  0  0  0  0  0  0  0  0  0  0
   -0.0209    5.5962    0.5928 H   0  0  0  0  0  0  0  0  0  0  0  0
    2.5129    4.0809    0.3918 H   0  0  0  0  0  0  0  0  0  0  0  0
    1.0496    3.6711    1.2364 H   0  0  0  0  0  0  0  0  0  0  0  0
    3.4562    8.6755   -1.1222 H   0  0  0  0  0  0  0  0  0  0  0  0
    3.3195    7.5419    0.0343 H   0  0  0  0  0  0  0  0  0  0  0  0
    1.6024    9.6962    0.2576 H   0  0  0  0  0  0  0  0  0  0  0  0
    1.7363    8.2155    1.2638 H   0  0  0  0  0  0  0  0  0  0  0  0
    0.3689   -2.2722   -2.2753 H   0  0  0  0  0  0  0  0  0  0  0  0
    3.3948    4.7990   -1.2669 H   0  0  0  0  0  0  0  0  0  0  0  0
    3.8362    6.3776   -1.7240 H   0  0  0  0  0  0  0  0  0  0  0  0
    3.9727    5.8658   -0.0196 H   0  0  0  0  0  0  0  0  0  0  0  0
   -0.7514    9.1436   -0.3971 H   0  0  0  0  0  0  0  0  0  0  0  0
   -1.6507    6.6039    0.7988 H   0  0  0  0  0  0  0  0  0  0  0  0
   -0.3588    7.5060    1.6429 H   0  0  0  0  0  0  0  0  0  0  0  0
   -1.9001    8.2722    1.3164 H   0  0  0  0  0  0  0  0  0  0  0  0
   -0.7939    7.6843   -2.5885 H   0  0  0  0  0  0  0  0  0  0  0  0
   -1.3534    6.3770   -1.5717 H   0  0  0  0  0  0  0  0  0  0  0  0
   -3.2257    7.5122   -2.6434 H   0  0  0  0  0  0  0  0  0  0  0  0
   -3.2973    7.8495   -0.9057 H   0  0  0  0  0  0  0  0  0  0  0  0
    3.1861    2.4240   -0.4380 H   0  0  0  0  0  0  0  0  0  0  0  0
    2.9162    1.0263   -1.4211 H   0  0  0  0  0  0  0  0  0  0  0  0
    2.9970    2.5873   -2.1899 H   0  0  0  0  0  0  0  0  0  0  0  0
   -3.5714    9.2818   -3.9000 H   0  0  0  0  0  0  0  0  0  0  0  0
   -4.1813   11.7456   -3.6131 H   0  0  0  0  0  0  0  0  0  0  0  0
   -2.6210   11.9496   -2.8363 H   0  0  0  0  0  0  0  0  0  0  0  0
   -2.4241   12.6837   -5.1654 H   0  0  0  0  0  0  0  0  0  0  0  0
   -1.4240   11.2403   -4.9001 H   0  0  0  0  0  0  0  0  0  0  0  0
   -5.2881   11.1171   -5.5310 H   0  0  0  0  0  0  0  0  0  0  0  0
   -1.3235    4.2082   -2.4065 H   0  0  0  0  0  0  0  0  0  0  0  0
  1  2  1  0  0  0  0
  1 40  1  0  0  0  0
  1 41  1  0  0  0  0
  2  3  1  0  0  0  0
  2 18  1  0  0  0  0
  2 42  1  6  0  0  0
  3  4  1  0  0  0  0
  3 43  1  0  0  0  0
  3 44  1  0  0  0  0
  4  5  1  0  0  0  0
  4  7  1  0  0  0  0
  4 30  1  6  0  0  0
  5  6  1  0  0  0  0
  5 26  1  6  0  0  0
  6  1  1  0  0  0  0
  6 45  1  0  0  0  0
  6 46  1  0  0  0  0
  7  8  1  0  0  0  0
  7 47  1  0  0  0  0
  7 48  1  0  0  0  0
  8  9  1  0  0  0  0
  8 49  1  6  0  0  0
  8 39  1  0  0  0  0
  9 10  1  0  0  0  0
  9 11  1  0  0  0  0
  9 27  1  6  0  0  0
 10  5  1  0  0  0  0
 10 25  1  1  0  0  0
 11 12  1  0  0  0  0
 11 15  1  0  0  0  0
 11 28  1  6  0  0  0
 12 13  1  0  0  0  0
 12 19  1  1  0  0  0
 13 14  1  0  0  0  0
 13 50  1  0  0  0  0
 13 51  1  0  0  0  0
 14 10  1  0  0  0  0
 14 52  1  0  0  0  0
 14 53  1  0  0  0  0
 15 16  1  0  0  0  0
 15 54  1  0  0  0  0
 15 55  1  0  0  0  0
 16 17  1  0  0  0  0
 16 56  1  0  0  0  0
 16 57  1  0  0  0  0
 17 12  1  0  0  0  0
 17 29  1  6  0  0  0
 17 20  1  0  0  0  0
 18 58  1  0  0  0  0
 19 59  1  0  0  0  0
 19 60  1  0  0  0  0
 19 61  1  0  0  0  0
 20 62  1  6  0  0  0
 20 22  1  0  0  0  0
 20 21  1  0  0  0  0
 21 63  1  0  0  0  0
 21 64  1  0  0  0  0
 21 65  1  0  0  0  0
 22 23  1  0  0  0  0
 22 66  1  0  0  0  0
 22 67  1  0  0  0  0
 23 24  1  0  0  0  0
 23 68  1  0  0  0  0
 23 69  1  0  0  0  0
 26 70  1  0  0  0  0
 26 71  1  0  0  0  0
 26 72  1  0  0  0  0
 31 24  1  0  0  0  0
 31 73  1  0  0  0  0
 32 31  1  0  0  0  0
 32 74  1  0  0  0  0
 32 75  1  0  0  0  0
 33 24  2  0  0  0  0
 34 32  1  0  0  0  0
 34 76  1  0  0  0  0
 34 77  1  0  0  0  0
 35 34  1  0  0  0  0
 36 35  1  0  0  0  0
 36 78  1  0  0  0  0
 37 35  2  0  0  0  0
 38 35  2  0  0  0  0
 39 79  1  0  0  0  0
M  END
>  <DRUGBANK_ID>
DB08833

>  <COMMON_NAME>
Taurochenodeoxycholic acid

>  <CAS_NUMBER>
516-35-8

>  <UNII>
651KU15938

>  <SYNONYMS>
Chenodeoxycholoyltaurine; Taurine chenodeoxycholate; Taurochenodeoxycholate; Taurochenodeoxycholic acid

$$$$
