
 OpenBabel10282417123D

 81 83  0  0  1  0  0  0  0  0999 V2000
   -2.1256    6.4916    1.7324 C   0  0  0  0  0  0  0  0  0  0  0  0
   -1.0105    5.9279    2.5722 C   0  0  0  0  0  0  0  0  0  0  0  0
    0.0156    6.9386    3.0086 C   0  0  0  0  0  0  0  0  0  0  0  0
   -1.4410    5.2258    3.8060 C   0  0  1  0  0  0  0  0  0  0  0  0
   -2.0994    4.0296    3.3916 N   0  0  0  0  0  0  0  0  0  0  0  0
   -2.4678    3.2425    4.4409 C   0  0  0  0  0  0  0  0  0  0  0  0
   -3.4119    2.7065    5.0098 O   0  0  0  0  0  0  0  0  0  0  0  0
   -1.3585    2.5415    4.8056 C   0  0  0  0  0  0  0  0  0  0  0  0
   -1.2087    3.3183    6.2720 C   0  0  0  0  0  0  0  0  0  0  0  0
   -0.1437    2.7969    7.2181 C   0  0  0  0  0  0  0  0  0  0  0  0
    0.7108    1.2940    7.0971 C   0  0  0  0  0  0  0  0  0  0  0  0
    0.5008    0.2268    5.7505 C   0  0  0  0  0  0  0  0  0  0  0  0
   -0.5539    0.8421    4.4314 C   0  0  0  0  0  0  0  0  0  0  0  0
    1.8865    1.1277    7.9167 C   0  0  0  0  0  0  0  0  0  0  0  0
    2.6469    0.2419    7.5589 O   0  0  0  0  0  0  0  0  0  0  0  0
    2.1202    2.1649    8.7841 N   0  0  0  0  0  0  0  0  0  0  0  0
    1.1553    2.5832    9.8043 C   0  0  0  0  0  0  0  0  0  0  0  0
    1.0131    4.1216    9.8647 C   0  0  0  0  0  0  0  0  0  0  0  0
    2.2922    4.7499    9.9599 O   0  0  0  0  0  0  0  0  0  0  0  0
    3.1090    4.3873    8.8236 C   0  0  0  0  0  0  0  0  0  0  0  0
    3.3853    2.8751    8.8132 C   0  0  0  0  0  0  0  0  0  0  0  0
   -0.1774    4.8447    4.6573 C   0  0  0  0  0  0  0  0  0  0  0  0
    0.0049    5.4460    5.7205 O   0  0  0  0  0  0  0  0  0  0  0  0
    0.5095    3.6676    4.2428 N   0  0  0  0  0  0  0  0  0  0  0  0
    1.0394    3.4821    2.8943 C   0  0  0  0  0  0  0  0  0  0  0  0
    0.9025    2.0781    2.4217 C   0  0  0  0  0  0  0  0  0  0  0  0
    1.3488    1.3188    3.6550 C   0  0  0  0  0  0  0  0  0  0  0  0
    0.5211    2.2203    5.1440 C   0  0  2  0  0  0  0  0  0  0  0  0
   -1.2462    1.1876    6.1184 C   0  0  0  0  0  0  0  0  0  0  0  0
   -1.5839    0.8890    7.2695 O   0  0  0  0  0  0  0  0  0  0  0  0
   -2.5250    0.7160    4.9497 N   0  0  0  0  0  0  0  0  0  0  0  0
   -2.6348    1.2972    3.2085 C   0  0  2  0  0  0  0  0  0  0  0  0
   -4.0040    2.2937    2.7953 C   0  0  0  0  0  0  0  0  0  0  0  0
   -4.6079    3.8818    3.5622 C   0  0  0  0  0  0  0  0  0  0  0  0
   -3.9112    2.4771    1.2864 C   0  0  0  0  0  0  0  0  0  0  0  0
   -2.2316    0.1642    2.3029 C   0  0  0  0  0  0  0  0  0  0  0  0
   -1.2357    0.1456    1.5712 O   0  0  0  0  0  0  0  0  0  0  0  0
   -3.1165   -0.9381    2.5896 C   0  0  0  0  0  0  0  0  0  0  0  0
   -3.1092   -1.3220    3.8926 F   0  0  0  0  0  0  0  0  0  0  0  0
   -4.3714   -0.5213    2.3068 F   0  0  0  0  0  0  0  0  0  0  0  0
   -2.6114   -2.0248    1.7371 C   0  0  0  0  0  0  0  0  0  0  0  0
   -2.5584   -1.6454    0.4407 F   0  0  0  0  0  0  0  0  0  0  0  0
   -1.3764   -2.4303    2.1239 F   0  0  0  0  0  0  0  0  0  0  0  0
   -3.4521   -3.0689    1.8417 F   0  0  0  0  0  0  0  0  0  0  0  0
   -2.6692    7.2601    2.2746 H   0  0  0  0  0  0  0  0  0  0  0  0
   -2.8293    5.7141    1.4108 H   0  0  0  0  0  0  0  0  0  0  0  0
   -1.6656    6.8869    0.8251 H   0  0  0  0  0  0  0  0  0  0  0  0
   -0.6092    5.1995    1.8888 H   0  0  0  0  0  0  0  0  0  0  0  0
   -0.4764    7.6988    3.6208 H   0  0  0  0  0  0  0  0  0  0  0  0
    0.8096    6.4985    3.6248 H   0  0  0  0  0  0  0  0  0  0  0  0
    0.5120    7.3445    2.1413 H   0  0  0  0  0  0  0  0  0  0  0  0
   -2.1581    5.8154    4.4065 H   0  0  0  0  0  0  0  0  0  0  0  0
   -2.7264    4.1727    2.6173 H   0  0  0  0  0  0  0  0  0  0  0  0
   -1.8702    4.1792    6.4675 H   0  0  0  0  0  0  0  0  0  0  0  0
    0.0336    3.5256    7.9403 H   0  0  0  0  0  0  0  0  0  0  0  0
    0.8958   -0.7703    5.7309 H   0  0  0  0  0  0  0  0  0  0  0  0
   -0.7429    0.1152    3.6923 H   0  0  0  0  0  0  0  0  0  0  0  0
    1.5735    2.2339   10.7503 H   0  0  0  0  0  0  0  0  0  0  0  0
    0.1956    2.0693    9.6655 H   0  0  0  0  0  0  0  0  0  0  0  0
    0.5572    4.6198    9.0135 H   0  0  0  0  0  0  0  0  0  0  0  0
    0.3539    4.3939   10.6893 H   0  0  0  0  0  0  0  0  0  0  0  0
    4.0437    4.9413    8.9186 H   0  0  0  0  0  0  0  0  0  0  0  0
    2.6189    4.7012    7.8883 H   0  0  0  0  0  0  0  0  0  0  0  0
    3.8836    2.5805    9.7386 H   0  0  0  0  0  0  0  0  0  0  0  0
    4.0040    2.6045    7.9514 H   0  0  0  0  0  0  0  0  0  0  0  0
    2.0896    3.7129    2.9721 H   0  0  0  0  0  0  0  0  0  0  0  0
    0.6086    4.1055    2.1464 H   0  0  0  0  0  0  0  0  0  0  0  0
   -0.1219    1.9540    2.0618 H   0  0  0  0  0  0  0  0  0  0  0  0
    1.4642    1.7828    1.5368 H   0  0  0  0  0  0  0  0  0  0  0  0
    1.0894    0.2423    3.4537 H   0  0  0  0  0  0  0  0  0  0  0  0
    2.4012    1.1787    3.8612 H   0  0  0  0  0  0  0  0  0  0  0  0
    1.4869    2.4312    5.6315 H   0  0  0  0  0  0  0  0  0  0  0  0
   -3.3992    0.9017    5.4203 H   0  0  0  0  0  0  0  0  0  0  0  0
   -1.7706    1.9190    2.8861 H   0  0  0  0  0  0  0  0  0  0  0  0
   -4.7836    1.5959    3.0487 H   0  0  0  0  0  0  0  0  0  0  0  0
   -4.0970    4.8567    3.3642 H   0  0  0  0  0  0  0  0  0  0  0  0
   -5.6379    4.0276    3.3357 H   0  0  0  0  0  0  0  0  0  0  0  0
   -4.5777    4.0063    4.6801 H   0  0  0  0  0  0  0  0  0  0  0  0
   -3.6535    1.5283    0.8036 H   0  0  0  0  0  0  0  0  0  0  0  0
   -4.9058    2.7845    0.9901 H   0  0  0  0  0  0  0  0  0  0  0  0
   -3.1592    3.2025    0.9425 H   0  0  0  0  0  0  0  0  0  0  0  0
  1  2  1  0  0  0  0
  1 45  1  0  0  0  0
  1 46  1  0  0  0  0
  1 47  1  0  0  0  0
  2  3  1  0  0  0  0
  2  4  1  0  0  0  0
  2 48  1  0  0  0  0
  3 49  1  0  0  0  0
  3 50  1  0  0  0  0
  3 51  1  0  0  0  0
  4  5  1  0  0  0  0
  4 22  1  0  0  0  0
  4 52  1  1  0  0  0
  5  6  1  0  0  0  0
  5 53  1  0  0  0  0
  6  7  2  0  0  0  0
  6  8  1  0  0  0  0
  8  9  2  0  0  0  0
  8 13  1  0  0  0  0
  9 10  1  0  0  0  0
  9 54  1  0  0  0  0
 10 11  2  0  0  0  0
 10 55  1  0  0  0  0
 11 12  1  0  0  0  0
 11 14  1  0  0  0  0
 12 13  2  0  0  0  0
 12 56  1  0  0  0  0
 13 57  1  0  0  0  0
 14 15  2  0  0  0  0
 14 16  1  0  0  0  0
 16 17  1  0  0  0  0
 16 21  1  0  0  0  0
 17 18  1  0  0  0  0
 17 58  1  0  0  0  0
 17 59  1  0  0  0  0
 18 19  1  0  0  0  0
 18 60  1  0  0  0  0
 18 61  1  0  0  0  0
 19 20  1  0  0  0  0
 20 21  1  0  0  0  0
 20 62  1  0  0  0  0
 20 63  1  0  0  0  0
 21 64  1  0  0  0  0
 21 65  1  0  0  0  0
 22 23  2  0  0  0  0
 22 24  1  0  0  0  0
 24 25  1  0  0  0  0
 24 28  1  0  0  0  0
 25 26  1  0  0  0  0
 25 66  1  0  0  0  0
 25 67  1  0  0  0  0
 26 27  1  0  0  0  0
 26 68  1  0  0  0  0
 26 69  1  0  0  0  0
 27 28  1  0  0  0  0
 27 70  1  0  0  0  0
 27 71  1  0  0  0  0
 28 29  1  0  0  0  0
 28 72  1  1  0  0  0
 29 30  2  0  0  0  0
 29 31  1  0  0  0  0
 31 73  1  0  0  0  0
 32 36  1  0  0  0  0
 32 74  1  6  0  0  0
 32 33  1  0  0  0  0
 32 31  1  0  0  0  0
 33 34  1  0  0  0  0
 33 35  1  0  0  0  0
 33 75  1  0  0  0  0
 34 76  1  0  0  0  0
 34 77  1  0  0  0  0
 34 78  1  0  0  0  0
 35 79  1  0  0  0  0
 35 80  1  0  0  0  0
 35 81  1  0  0  0  0
 36 37  2  0  0  0  0
 36 38  1  0  0  0  0
 38 39  1  0  0  0  0
 38 40  1  0  0  0  0
 38 41  1  0  0  0  0
 41 42  1  0  0  0  0
 41 43  1  0  0  0  0
 41 44  1  0  0  0  0
M  END
>  <DRUGBANK_ID>
DB02341

>  <SECONDARY_ACCESSION_NUMBERS>
EXPT02880

>  <COMMON_NAME>
Mdl 101,146

>  <CAS_NUMBER>
149859-17-6

>  <UNII>
749Y52DBP2

$$$$
