421
 OpenBabel10282417103D

 61 65  0  0  1  0  0  0  0  0999 V2000
    1.0759    0.0303   -0.1774 S   0  0  0  0  0  0  0  0  0  0  0  0
    5.3581   -1.9832    4.7307 O   0  0  0  0  0  0  0  0  0  0  0  0
    7.5375   -1.7836    5.3937 O   0  0  0  0  0  0  0  0  0  0  0  0
   -3.2869    3.3355    1.1617 O   0  0  0  0  0  0  0  0  0  0  0  0
    3.2694    1.1504   -0.9606 O   0  0  0  0  0  0  0  0  0  0  0  0
    3.0728   -1.3319    4.0012 C   0  0  1  0  0  0  0  0  0  0  0  0
    2.3444   -1.5171    2.6741 C   0  0  2  0  0  0  0  0  0  0  0  0
    0.8692   -1.2258    2.5430 C   0  0  1  0  0  0  0  0  0  0  0  0
    4.5692   -1.6274    3.5837 C   0  0  2  0  0  0  0  0  0  0  0  0
    0.5774    0.1710    3.1805 C   0  0  1  0  0  0  0  0  0  0  0  0
    2.7756    0.0805    4.5176 C   0  0  0  0  0  0  0  0  0  0  0  0
    2.9109   -2.8493    2.1576 C   0  0  0  0  0  0  0  0  0  0  0  0
   -0.9514    0.4976    3.1744 C   0  0  2  0  0  0  0  0  0  0  0  0
    1.2636    0.3525    4.5605 C   0  0  0  0  0  0  0  0  0  0  0  0
    4.3842   -2.8720    2.6574 C   0  0  0  0  0  0  0  0  0  0  0  0
    0.4338   -1.2256    1.0339 C   0  0  1  0  0  0  0  0  0  0  0  0
    2.5748   -2.3885    5.0112 C   0  0  0  0  0  0  0  0  0  0  0  0
    5.4232   -0.5022    2.9572 C   0  0  0  0  0  0  0  0  0  0  0  0
   -1.4907    0.3131    1.7491 C   0  0  0  0  0  0  0  0  0  0  0  0
   -1.1049   -0.9789    1.0367 C   0  0  0  0  0  0  0  0  0  0  0  0
   -1.1208    1.9693    3.6434 C   0  0  0  0  0  0  0  0  0  0  0  0
   -1.7222   -0.4424    4.1223 C   0  0  0  0  0  0  0  0  0  0  0  0
    6.8416   -0.8747    3.2883 C   0  0  0  0  0  0  0  0  0  0  0  0
    6.6603   -1.5747    4.5914 C   0  0  0  0  0  0  0  0  0  0  0  0
   -2.4665    2.5678    3.2811 C   0  0  0  0  0  0  0  0  0  0  0  0
   -2.2256    1.2419    1.1099 C   0  0  0  0  0  0  0  0  0  0  0  0
   -2.6808    2.4754    1.7942 C   0  0  0  0  0  0  0  0  0  0  0  0
    2.8110    0.1662   -0.3852 C   0  0  0  0  0  0  0  0  0  0  0  0
    3.7605   -0.8605    0.0794 C   0  0  0  0  0  0  0  0  0  0  0  0
    2.6625   -0.6362    2.1544 H   0  0  0  0  0  0  0  0  0  0  0  0
    0.3202   -2.0091    3.0817 H   0  0  0  0  0  0  0  0  0  0  0  0
    1.0569    0.9250    2.5359 H   0  0  0  0  0  0  0  0  0  0  0  0
    0.6117   -2.2197    0.6077 H   0  0  0  0  0  0  0  0  0  0  0  0
    3.2158    0.8455    3.8656 H   0  0  0  0  0  0  0  0  0  0  0  0
    3.2167    0.2205    5.5089 H   0  0  0  0  0  0  0  0  0  0  0  0
    2.3463   -3.6971    2.5619 H   0  0  0  0  0  0  0  0  0  0  0  0
    2.8439   -3.0383    1.0879 H   0  0  0  0  0  0  0  0  0  0  0  0
    1.1298    1.3787    4.9171 H   0  0  0  0  0  0  0  0  0  0  0  0
    0.7962   -0.2961    5.3025 H   0  0  0  0  0  0  0  0  0  0  0  0
    4.5577   -3.8041    3.2077 H   0  0  0  0  0  0  0  0  0  0  0  0
    5.0918   -2.8682    1.8206 H   0  0  0  0  0  0  0  0  0  0  0  0
    2.6329   -3.4062    4.6151 H   0  0  0  0  0  0  0  0  0  0  0  0
    3.1754   -2.3657    5.9212 H   0  0  0  0  0  0  0  0  0  0  0  0
    1.5271   -2.2409    5.2777 H   0  0  0  0  0  0  0  0  0  0  0  0
    5.4308   -0.3702    1.8828 H   0  0  0  0  0  0  0  0  0  0  0  0
    5.1970    0.4772    3.3872 H   0  0  0  0  0  0  0  0  0  0  0  0
   -1.6101   -1.8100    1.5471 H   0  0  0  0  0  0  0  0  0  0  0  0
   -1.5014   -0.9978    0.0118 H   0  0  0  0  0  0  0  0  0  0  0  0
   -0.3396    2.5936    3.1847 H   0  0  0  0  0  0  0  0  0  0  0  0
   -0.9826    2.0454    4.7283 H   0  0  0  0  0  0  0  0  0  0  0  0
   -1.6048   -1.4956    3.8488 H   0  0  0  0  0  0  0  0  0  0  0  0
   -1.3782   -0.3402    5.1557 H   0  0  0  0  0  0  0  0  0  0  0  0
   -2.7956   -0.2331    4.1116 H   0  0  0  0  0  0  0  0  0  0  0  0
    7.2589   -1.5621    2.5456 H   0  0  0  0  0  0  0  0  0  0  0  0
    7.4666    0.0179    3.3701 H   0  0  0  0  0  0  0  0  0  0  0  0
   -2.4815    3.6220    3.5768 H   0  0  0  0  0  0  0  0  0  0  0  0
   -3.2869    2.0535    3.7899 H   0  0  0  0  0  0  0  0  0  0  0  0
   -2.5478    1.1348    0.0799 H   0  0  0  0  0  0  0  0  0  0  0  0
    3.8895   -0.7059    1.1202 H   0  0  0  0  0  0  0  0  0  0  0  0
    3.4352   -1.8525   -0.1833 H   0  0  0  0  0  0  0  0  0  0  0  0
    4.7856   -0.7153   -0.2561 H   0  0  0  0  0  0  0  0  0  0  0  0
  1 16  1  0  0  0  0
  1 28  1  0  0  0  0
  2 24  1  0  0  0  0
  3 24  2  0  0  0  0
  4 27  2  0  0  0  0
  5 28  2  0  0  0  0
  6  7  1  0  0  0  0
  6  9  1  0  0  0  0
  6 11  1  0  0  0  0
  6 17  1  1  0  0  0
  7  8  1  0  0  0  0
  7 12  1  0  0  0  0
  7 30  1  6  0  0  0
  8 10  1  0  0  0  0
  8 16  1  0  0  0  0
  8 31  1  1  0  0  0
  9  2  1  1  0  0  0
  9 15  1  0  0  0  0
  9 18  1  0  0  0  0
 10 13  1  0  0  0  0
 10 14  1  0  0  0  0
 10 32  1  6  0  0  0
 11 14  1  0  0  0  0
 11 34  1  0  0  0  0
 11 35  1  0  0  0  0
 12 15  1  0  0  0  0
 12 36  1  0  0  0  0
 12 37  1  0  0  0  0
 13 19  1  0  0  0  0
 13 21  1  0  0  0  0
 13 22  1  1  0  0  0
 14 38  1  0  0  0  0
 14 39  1  0  0  0  0
 15 40  1  0  0  0  0
 15 41  1  0  0  0  0
 16 20  1  0  0  0  0
 16 33  1  6  0  0  0
 17 42  1  0  0  0  0
 17 43  1  0  0  0  0
 17 44  1  0  0  0  0
 18 23  1  0  0  0  0
 18 45  1  0  0  0  0
 18 46  1  0  0  0  0
 19 20  1  0  0  0  0
 19 26  2  0  0  0  0
 20 47  1  0  0  0  0
 20 48  1  0  0  0  0
 21 25  1  0  0  0  0
 21 49  1  0  0  0  0
 21 50  1  0  0  0  0
 22 51  1  0  0  0  0
 22 52  1  0  0  0  0
 22 53  1  0  0  0  0
 23 24  1  0  0  0  0
 23 54  1  0  0  0  0
 23 55  1  0  0  0  0
 25 27  1  0  0  0  0
 25 56  1  0  0  0  0
 25 57  1  0  0  0  0
 26 27  1  0  0  0  0
 26 58  1  0  0  0  0
 28 29  1  0  0  0  0
 29 59  1  0  0  0  0
 29 60  1  0  0  0  0
 29 61  1  0  0  0  0
M  END
>  <DRUGBANK_ID>
DB00421

>  <SECONDARY_ACCESSION_NUMBERS>
APRD01234

>  <COMMON_NAME>
Spironolactone

>  <CAS_NUMBER>
52-01-7

>  <UNII>
27O7W4T232

>  <SYNONYMS>
Espironolactona; Spironolactone; Spironolactonum; Spironolattone

$$$$
