J4Z
 OpenBabel10282417173D

 40 44  0  0  0  0  0  0  0  0999 V2000
    3.6772   -0.6522    0.0033 C   0  0  0  0  0  0  0  0  0  0  0  0
    4.8824    1.4759    0.1101 N   0  0  0  0  0  0  0  0  0  0  0  0
    3.6721    0.7461   -0.0080 C   0  0  0  0  0  0  0  0  0  0  0  0
    5.6014    3.5994   -0.8790 N   0  0  0  0  0  0  0  0  0  0  0  0
    2.4222    1.3874   -0.0261 C   0  0  0  0  0  0  0  0  0  0  0  0
    6.2713    3.1585   -1.9810 N   0  0  0  0  0  0  0  0  0  0  0  0
    1.2105    0.6875   -0.0124 C   0  0  0  0  0  0  0  0  0  0  0  0
    6.2422    5.4452   -1.9365 N   0  0  0  0  0  0  0  0  0  0  0  0
   -0.0102    1.3796   -0.0048 C   0  0  0  0  0  0  0  0  0  0  0  0
    4.9997    5.7340    0.1119 N   0  0  0  0  0  0  0  0  0  0  0  0
   -1.2308    0.6954    0.0017 C   0  0  0  0  0  0  0  0  0  0  0  0
   -1.2259   -0.7160    0.0055 C   0  0  0  0  0  0  0  0  0  0  0  0
    0.0022   -1.4045    0.0061 C   0  0  0  0  0  0  0  0  0  0  0  0
    1.2284   -0.7164   -0.0044 C   0  0  0  0  0  0  0  0  0  0  0  0
    2.4717   -1.3752   -0.0098 C   0  0  0  0  0  0  0  0  0  0  0  0
    4.9479    2.8712    0.1448 C   0  0  0  0  0  0  0  0  0  0  0  0
    4.3740    3.5729    1.1365 C   0  0  0  0  0  0  0  0  0  0  0  0
    4.4284    5.0545    1.0640 C   0  0  0  0  0  0  0  0  0  0  0  0
    3.7668    5.8065    2.1879 C   0  0  0  0  0  0  0  0  0  0  0  0
    5.5981    5.0078   -0.8740 C   0  0  0  0  0  0  0  0  0  0  0  0
    6.6235    4.3048   -2.5676 C   0  0  0  0  0  0  0  0  0  0  0  0
   -2.4527    1.3876    0.0001 C   0  0  0  0  0  0  0  0  0  0  0  0
   -3.6613    0.6926   -0.0039 C   0  0  0  0  0  0  0  0  0  0  0  0
   -3.6607   -0.6990   -0.0009 C   0  0  0  0  0  0  0  0  0  0  0  0
   -2.4521   -1.3986    0.0055 C   0  0  0  0  0  0  0  0  0  0  0  0
    4.6138   -1.2041    0.0182 H   0  0  0  0  0  0  0  0  0  0  0  0
    5.7122    1.0074   -0.2465 H   0  0  0  0  0  0  0  0  0  0  0  0
    2.3686    2.4703   -0.0672 H   0  0  0  0  0  0  0  0  0  0  0  0
   -0.0085    2.4685   -0.0057 H   0  0  0  0  0  0  0  0  0  0  0  0
    0.0019   -2.4926    0.0139 H   0  0  0  0  0  0  0  0  0  0  0  0
    2.5082   -2.4630   -0.0190 H   0  0  0  0  0  0  0  0  0  0  0  0
    3.8464    3.0964    1.9533 H   0  0  0  0  0  0  0  0  0  0  0  0
    4.5209    6.3990    2.7120 H   0  0  0  0  0  0  0  0  0  0  0  0
    2.9967    6.4690    1.7842 H   0  0  0  0  0  0  0  0  0  0  0  0
    3.3004    5.1210    2.9019 H   0  0  0  0  0  0  0  0  0  0  0  0
    7.1866    4.3177   -3.4937 H   0  0  0  0  0  0  0  0  0  0  0  0
   -2.4716    2.4755   -0.0021 H   0  0  0  0  0  0  0  0  0  0  0  0
   -4.6014    1.2379   -0.0114 H   0  0  0  0  0  0  0  0  0  0  0  0
   -4.6014   -1.2429   -0.0049 H   0  0  0  0  0  0  0  0  0  0  0  0
   -2.4742   -2.4858    0.0065 H   0  0  0  0  0  0  0  0  0  0  0  0
  1  3  1  0  0  0  0
  1 26  1  0  0  0  0
  2 16  1  0  0  0  0
  2 27  1  0  0  0  0
  3  2  1  0  0  0  0
  4 20  1  0  0  0  0
  5  3  2  0  0  0  0
  5 28  1  0  0  0  0
  6  4  1  0  0  0  0
  6 21  2  0  0  0  0
  7  5  1  0  0  0  0
  8 20  2  0  0  0  0
  9  7  2  0  0  0  0
  9 29  1  0  0  0  0
 11  9  1  0  0  0  0
 12 11  1  0  0  0  0
 12 13  1  0  0  0  0
 13 14  2  0  0  0  0
 13 30  1  0  0  0  0
 14  7  1  0  0  0  0
 14 15  1  0  0  0  0
 15  1  2  0  0  0  0
 15 31  1  0  0  0  0
 16  4  1  0  0  0  0
 16 17  2  0  0  0  0
 17 18  1  0  0  0  0
 17 32  1  0  0  0  0
 18 10  2  0  0  0  0
 18 19  1  0  0  0  0
 19 33  1  0  0  0  0
 19 34  1  0  0  0  0
 19 35  1  0  0  0  0
 20 10  1  0  0  0  0
 21  8  1  0  0  0  0
 21 36  1  0  0  0  0
 22 11  2  0  0  0  0
 22 37  1  0  0  0  0
 23 22  1  0  0  0  0
 23 38  1  0  0  0  0
 24 23  2  0  0  0  0
 24 25  1  0  0  0  0
 24 39  1  0  0  0  0
 25 12  2  0  0  0  0
 25 40  1  0  0  0  0
M  END
>  <DRUGBANK_ID>
DB08006

>  <COMMON_NAME>
N-anthracen-2-yl-5-methyl[1,2,4]triazolo[1,5-a]pyrimidin-7-amine

$$$$
