
 OpenBabel10282417123D

 38 40  0  0  0  0  0  0  0  0999 V2000
   -0.9805    1.4726   -0.0018 C   0  0  0  0  0  0  0  0  0  0  0  0
   -2.0813    0.6206   -0.0012 N   0  0  0  0  0  0  0  0  0  0  0  0
   -0.8929   -1.4287    0.0058 N   0  0  0  0  0  0  0  0  0  0  0  0
    0.2158   -0.6360    0.0183 C   0  0  0  0  0  0  0  0  0  0  0  0
    0.2654    0.7381    0.0023 C   0  0  0  0  0  0  0  0  0  0  0  0
    1.5482    1.2172   -0.0126 N   0  0  0  0  0  0  0  0  0  0  0  0
    2.2901    0.1355    0.0416 C   0  0  0  0  0  0  0  0  0  0  0  0
    1.5355   -1.0069    0.0628 N   0  0  0  0  0  0  0  0  0  0  0  0
    2.0847   -2.3411    0.1237 C   0  0  2  0  0  0  0  0  0  0  0  0
    2.9969   -2.4265    1.2543 O   0  0  0  0  0  0  0  0  0  0  0  0
    4.1202   -3.2539    0.9057 C   0  0  2  0  0  0  0  0  0  0  0  0
    5.4477   -2.5466    1.0080 C   0  0  0  0  0  0  0  0  0  0  0  0
    5.4135   -1.2682    0.3981 O   0  0  0  0  0  0  0  0  0  0  0  0
    3.8770   -3.7816   -0.4770 C   0  0  1  0  0  0  0  0  0  0  0  0
    3.4364   -5.1028   -0.0879 O   0  0  0  0  0  0  0  0  0  0  0  0
    2.9043   -2.7242   -1.1228 C   0  0  1  0  0  0  0  0  0  0  0  0
    2.1782   -3.0586   -2.3548 O   0  0  0  0  0  0  0  0  0  0  0  0
   -2.0174   -0.7576   -0.0039 C   0  0  0  0  0  0  0  0  0  0  0  0
   -3.2165   -1.3900   -0.0283 N   0  0  0  0  0  0  0  0  0  0  0  0
   -1.0961    2.6778   -0.0075 O   0  0  0  0  0  0  0  0  0  0  0  0
    1.6178   -4.6852   -2.1736 P   0  0  0  0  0  0  0  0  0  0  0  0
    3.0955   -5.2901   -2.2588 O   0  0  0  0  0  0  0  0  0  0  0  0
    0.9481   -4.4732   -0.8433 O   0  0  0  0  0  0  0  0  0  0  0  0
    1.0573   -6.3119   -1.9925 O   0  0  0  0  0  0  0  0  0  0  0  0
   -2.9664    1.0944   -0.0054 H   0  0  0  0  0  0  0  0  0  0  0  0
    3.3704    0.1127    0.0680 H   0  0  0  0  0  0  0  0  0  0  0  0
    1.2430   -2.9703    0.3799 H   0  0  0  0  0  0  0  0  0  0  0  0
    4.1595   -4.0914    1.6202 H   0  0  0  0  0  0  0  0  0  0  0  0
    5.6849   -2.4314    2.0666 H   0  0  0  0  0  0  0  0  0  0  0  0
    6.2398   -3.1461    0.5418 H   0  0  0  0  0  0  0  0  0  0  0  0
    5.2819   -1.3807   -0.5549 H   0  0  0  0  0  0  0  0  0  0  0  0
    4.7691   -3.9120   -1.1065 H   0  0  0  0  0  0  0  0  0  0  0  0
    2.4595   -5.1442   -0.0523 H   0  0  0  0  0  0  0  0  0  0  0  0
    3.5123   -1.8689   -1.4379 H   0  0  0  0  0  0  0  0  0  0  0  0
   -3.2265   -2.4007    0.0307 H   0  0  0  0  0  0  0  0  0  0  0  0
   -4.1015   -0.9083    0.0307 H   0  0  0  0  0  0  0  0  0  0  0  0
    3.5674   -5.6962   -2.9953 H   0  0  0  0  0  0  0  0  0  0  0  0
    0.3734   -6.5092   -2.6541 H   0  0  0  0  0  0  0  0  0  0  0  0
  1  2  1  0  0  0  0
  1  5  1  0  0  0  0
  2 18  1  0  0  0  0
  2 25  1  0  0  0  0
  3  4  1  0  0  0  0
  4  5  2  0  0  0  0
  4  8  1  0  0  0  0
  5  6  1  0  0  0  0
  6  7  2  0  0  0  0
  7  8  1  0  0  0  0
  7 26  1  0  0  0  0
  9  8  1  0  0  0  0
  9 10  1  0  0  0  0
  9 16  1  0  0  0  0
  9 27  1  1  0  0  0
 10 11  1  0  0  0  0
 11 14  1  0  0  0  0
 11 28  1  1  0  0  0
 11 12  1  0  0  0  0
 12 13  1  0  0  0  0
 12 29  1  0  0  0  0
 12 30  1  0  0  0  0
 13 31  1  0  0  0  0
 14 15  1  0  0  0  0
 14 16  1  0  0  0  0
 14 32  1  6  0  0  0
 15 33  1  0  0  0  0
 16 34  1  6  0  0  0
 16 17  1  0  0  0  0
 17 21  1  0  0  0  0
 18  3  2  0  0  0  0
 18 19  1  0  0  0  0
 19 35  1  0  0  0  0
 19 36  1  0  0  0  0
 20  1  2  0  0  0  0
 21 22  1  0  0  0  0
 21 23  2  0  0  0  0
 21 24  1  0  0  0  0
 22 37  1  0  0  0  0
 24 38  1  0  0  0  0
M  END
>  <DRUGBANK_ID>
DB01937

>  <SECONDARY_ACCESSION_NUMBERS>
EXPT00121

>  <COMMON_NAME>
Guanosine-2'-monophosphate

>  <CAS_NUMBER>
130-50-7

>  <SYNONYMS>
2'-GMP; 2'-guanylic acid; 2'-O-phosphoguanosine; Guanosine 2'-phosphate

$$$$
