CDY
 OpenBabel10282417123D

 30 32  0  0  0  0  0  0  0  0999 V2000
    0.9682    0.0073    0.0512 O   0  0  0  0  0  0  0  0  0  0  0  0
    0.5413   -1.1692    0.7338 C   0  0  0  0  0  0  0  0  0  0  0  0
    1.0381   -2.4134   -0.0061 C   0  0  1  0  0  0  0  0  0  0  0  0
    1.3630   -3.4564    0.9283 O   0  0  0  0  0  0  0  0  0  0  0  0
    0.0227   -2.9909   -0.9819 C   0  0  0  0  0  0  0  0  0  0  0  0
    0.3616   -4.4617   -0.9627 C   0  0  0  0  0  0  0  0  0  0  0  0
    0.7871   -4.6898    0.4827 C   0  0  2  0  0  0  0  0  0  0  0  0
   -0.3037   -5.1016    1.3585 N   0  0  0  0  0  0  0  0  0  0  0  0
   -1.0144   -6.2649    1.1671 C   0  0  0  0  0  0  0  0  0  0  0  0
   -1.9397   -6.4426    2.0827 N   0  0  0  0  0  0  0  0  0  0  0  0
   -1.8083   -5.3613    2.9232 C   0  0  0  0  0  0  0  0  0  0  0  0
   -0.7934   -4.5125    2.4975 C   0  0  0  0  0  0  0  0  0  0  0  0
   -0.4123   -3.3745    3.0998 N   0  0  0  0  0  0  0  0  0  0  0  0
   -1.1432   -3.1441    4.2084 C   0  0  0  0  0  0  0  0  0  0  0  0
   -0.7389   -1.7210    5.0709 Cl  0  0  0  0  0  0  0  0  0  0  0  0
   -2.1524   -3.8670    4.7323 N   0  0  0  0  0  0  0  0  0  0  0  0
   -2.5051   -4.9968    4.0887 C   0  0  0  0  0  0  0  0  0  0  0  0
   -3.5369   -5.7558    4.5940 N   0  0  0  0  0  0  0  0  0  0  0  0
    1.9630   -2.1816   -0.5487 H   0  0  0  0  0  0  0  0  0  0  0  0
    1.5484   -5.4748    0.5578 H   0  0  0  0  0  0  0  0  0  0  0  0
    1.9368    0.0467    0.1472 H   0  0  0  0  0  0  0  0  0  0  0  0
    0.9203   -1.1317    1.7605 H   0  0  0  0  0  0  0  0  0  0  0  0
   -0.5519   -1.1417    0.7915 H   0  0  0  0  0  0  0  0  0  0  0  0
   -1.0057   -2.8474   -0.6310 H   0  0  0  0  0  0  0  0  0  0  0  0
    0.1016   -2.5494   -1.9800 H   0  0  0  0  0  0  0  0  0  0  0  0
   -0.4647   -5.0918   -1.3036 H   0  0  0  0  0  0  0  0  0  0  0  0
    1.2154   -4.6420   -1.6273 H   0  0  0  0  0  0  0  0  0  0  0  0
   -0.8206   -6.9368    0.3411 H   0  0  0  0  0  0  0  0  0  0  0  0
   -3.7908   -6.6095    4.1168 H   0  0  0  0  0  0  0  0  0  0  0  0
   -3.9960   -5.4549    5.4383 H   0  0  0  0  0  0  0  0  0  0  0  0
  1  2  1  0  0  0  0
  1 21  1  0  0  0  0
  2 22  1  0  0  0  0
  2 23  1  0  0  0  0
  3  2  1  0  0  0  0
  3  4  1  0  0  0  0
  3  5  1  0  0  0  0
  3 19  1  6  0  0  0
  4  7  1  0  0  0  0
  5  6  1  0  0  0  0
  5 24  1  0  0  0  0
  5 25  1  0  0  0  0
  6  7  1  0  0  0  0
  6 26  1  0  0  0  0
  6 27  1  0  0  0  0
  7  8  1  0  0  0  0
  7 20  1  1  0  0  0
  8  9  1  0  0  0  0
  8 12  1  0  0  0  0
  9 10  2  0  0  0  0
  9 28  1  0  0  0  0
 10 11  1  0  0  0  0
 11 12  2  0  0  0  0
 11 17  1  0  0  0  0
 12 13  1  0  0  0  0
 13 14  2  0  0  0  0
 14 15  1  0  0  0  0
 14 16  1  0  0  0  0
 16 17  2  0  0  0  0
 17 18  1  0  0  0  0
 18 29  1  0  0  0  0
 18 30  1  0  0  0  0
M  END
>  <DRUGBANK_ID>
DB02103

>  <SECONDARY_ACCESSION_NUMBERS>
EXPT00881

>  <COMMON_NAME>
2-Chlorodideoxyadenosine

>  <CAS_NUMBER>
114849-58-0

$$$$
