
 OpenBabel10282417183D

 37 38  0  0  1  0  0  0  0  0999 V2000
    1.0604   -0.0759   -0.0241 B   0  0  0  0  0  0  0  0  0  0  0  0
    0.2604    1.2198    0.4669 C   0  0  2  0  0  0  0  0  0  0  0  0
    0.9060    2.5161    0.0623 C   0  0  0  0  0  0  0  0  0  0  0  0
    0.2043    3.5591    0.9835 C   0  0  0  0  0  0  0  0  0  0  0  0
   -0.0364    2.7795    2.2789 C   0  0  0  0  0  0  0  0  0  0  0  0
    0.2430    1.3335    1.9370 N   0  0  0  0  0  0  0  0  0  0  0  0
    0.4582    0.2400    2.8956 C   0  0  0  0  0  0  0  0  0  0  0  0
    0.4171    0.4724    4.1443 O   0  0  0  0  0  0  0  0  0  0  0  0
    0.7300   -1.1686    2.3932 C   0  0  0  0  0  0  0  0  0  0  0  0
   -0.4064   -1.6268    1.5810 N   0  0  0  0  0  0  0  0  0  0  0  0
   -0.1436   -2.9891    1.0951 C   0  0  2  0  0  0  0  0  0  0  0  0
   -1.1854   -4.0087    0.5439 C   0  0  0  0  0  0  0  0  0  0  0  0
   -1.6641   -4.7075    1.7863 C   0  0  0  0  0  0  0  0  0  0  0  0
   -0.4018   -4.9343    2.5141 N   0  0  0  0  0  0  0  0  0  0  0  0
    0.4820   -3.7303    2.2796 C   0  0  0  0  0  0  0  0  0  0  0  0
    0.3104   -1.2907   -0.4845 O   0  0  0  0  0  0  0  0  0  0  0  0
    2.5604   -0.0759   -0.0241 O   0  0  0  0  0  0  0  0  0  0  0  0
   -0.7042    1.0837    0.0243 H   0  0  0  0  0  0  0  0  0  0  0  0
    1.9707    2.5083    0.1685 H   0  0  0  0  0  0  0  0  0  0  0  0
    0.7241    2.7307   -0.9700 H   0  0  0  0  0  0  0  0  0  0  0  0
    0.7849    4.4458    1.1302 H   0  0  0  0  0  0  0  0  0  0  0  0
   -0.7202    3.8872    0.5562 H   0  0  0  0  0  0  0  0  0  0  0  0
    0.5890    3.1277    3.0742 H   0  0  0  0  0  0  0  0  0  0  0  0
   -1.0489    2.8980    2.6042 H   0  0  0  0  0  0  0  0  0  0  0  0
    1.6182   -1.1693    1.7965 H   0  0  0  0  0  0  0  0  0  0  0  0
    0.8601   -1.8259    3.2274 H   0  0  0  0  0  0  0  0  0  0  0  0
   -1.2530   -1.6261    2.1498 H   0  0  0  0  0  0  0  0  0  0  0  0
    0.3810   -2.7360    0.1975 H   0  0  0  0  0  0  0  0  0  0  0  0
   -0.7769   -4.6770   -0.1851 H   0  0  0  0  0  0  0  0  0  0  0  0
   -1.9912   -3.5066    0.0504 H   0  0  0  0  0  0  0  0  0  0  0  0
   -2.3895   -4.1514    2.3425 H   0  0  0  0  0  0  0  0  0  0  0  0
   -2.1487   -5.6319    1.5506 H   0  0  0  0  0  0  0  0  0  0  0  0
    0.0559   -5.7756    2.1633 H   0  0  0  0  0  0  0  0  0  0  0  0
    1.4946   -4.0134    2.0811 H   0  0  0  0  0  0  0  0  0  0  0  0
    0.4982   -3.1036    3.1467 H   0  0  0  0  0  0  0  0  0  0  0  0
   -0.6727   -1.1198   -0.4197 H   0  0  0  0  0  0  0  0  0  0  0  0
    2.8937    0.8057    0.3100 H   0  0  0  0  0  0  0  0  0  0  0  0
  1 16  1  0  0  0  0
  1 17  1  0  0  0  0
  2  1  1  0  0  0  0
  2  3  1  0  0  0  0
  2  6  1  0  0  0  0
  2 18  1  6  0  0  0
  3  4  1  0  0  0  0
  3 19  1  0  0  0  0
  3 20  1  0  0  0  0
  4  5  1  0  0  0  0
  4 21  1  0  0  0  0
  4 22  1  0  0  0  0
  5  6  1  0  0  0  0
  5 23  1  0  0  0  0
  5 24  1  0  0  0  0
  6  7  1  0  0  0  0
  7  8  2  0  0  0  0
  7  9  1  0  0  0  0
  9 10  1  0  0  0  0
  9 25  1  0  0  0  0
  9 26  1  0  0  0  0
 10 27  1  0  0  0  0
 11 10  1  0  0  0  0
 11 12  1  0  0  0  0
 11 15  1  0  0  0  0
 11 28  1  6  0  0  0
 12 13  1  0  0  0  0
 12 29  1  0  0  0  0
 12 30  1  0  0  0  0
 13 14  1  0  0  0  0
 13 31  1  0  0  0  0
 13 32  1  0  0  0  0
 14 15  1  0  0  0  0
 14 33  1  0  0  0  0
 15 34  1  0  0  0  0
 15 35  1  0  0  0  0
 16 36  1  0  0  0  0
 17 37  1  0  0  0  0
M  END
>  <DRUGBANK_ID>
DB11723

>  <SECONDARY_ACCESSION_NUMBERS>
DB05065

>  <COMMON_NAME>
Dutogliptin

>  <CAS_NUMBER>
852329-66-9

>  <UNII>
38EAO245ZX

>  <SYNONYMS>
Dutogliptin

$$$$
