4DE
 OpenBabel10282417143D

 38 39  0  0  0  0  0  0  0  0999 V2000
    1.0890    0.0193    0.2499 O   0  0  0  0  0  0  0  0  0  0  0  0
    2.3332    0.0335    0.2495 C   0  0  0  0  0  0  0  0  0  0  0  0
    2.9238    0.4824   -0.9134 O   0  0  0  0  0  0  0  0  0  0  0  0
    4.3242    0.4846   -1.2812 C   0  0  0  0  0  0  0  0  0  0  0  0
    5.0138    1.3859   -0.3274 C   0  0  0  0  0  0  0  0  0  0  0  0
    3.0632   -0.6041    1.3937 C   0  0  0  0  0  0  0  0  0  0  0  0
    2.7501   -1.9442    1.7886 C   0  0  0  0  0  0  0  0  0  0  0  0
    1.7065   -2.8507    1.2072 C   0  0  0  0  0  0  0  0  0  0  0  0
    3.5453   -2.3935    2.7638 N   0  0  0  0  0  0  0  0  0  0  0  0
    4.2564   -1.3218    3.1883 N   0  0  0  0  0  0  0  0  0  0  0  0
    3.9986   -0.1850    2.3929 C   0  0  0  0  0  0  0  0  0  0  0  0
    4.7990    1.0919    2.6279 C   0  0  0  0  0  0  0  0  0  0  0  0
    5.1813   -1.4830    4.2866 C   0  0  0  0  0  0  0  0  0  0  0  0
    6.0422   -2.5943    4.3312 C   0  0  0  0  0  0  0  0  0  0  0  0
    7.0036   -2.7371    5.3596 C   0  0  0  0  0  0  0  0  0  0  0  0
    7.0912   -1.8027    6.3888 C   0  0  0  0  0  0  0  0  0  0  0  0
    6.2156   -0.7111    6.3620 C   0  0  0  0  0  0  0  0  0  0  0  0
    5.2508   -0.5640    5.3399 C   0  0  0  0  0  0  0  0  0  0  0  0
    7.9522   -1.8548    7.4553 O   0  0  0  0  0  0  0  0  0  0  0  0
    8.7882   -3.0068    7.5779 C   0  0  0  0  0  0  0  0  0  0  0  0
    4.7021   -0.5396   -1.2463 H   0  0  0  0  0  0  0  0  0  0  0  0
    4.4445    0.8910   -2.2901 H   0  0  0  0  0  0  0  0  0  0  0  0
    4.7618    0.8652    0.5510 H   0  0  0  0  0  0  0  0  0  0  0  0
    6.0993    1.3977   -0.3112 H   0  0  0  0  0  0  0  0  0  0  0  0
    4.5616    2.3786   -0.2306 H   0  0  0  0  0  0  0  0  0  0  0  0
    2.1435   -3.8062    0.9027 H   0  0  0  0  0  0  0  0  0  0  0  0
    0.9150   -3.0473    1.9394 H   0  0  0  0  0  0  0  0  0  0  0  0
    1.2218   -2.4322    0.3193 H   0  0  0  0  0  0  0  0  0  0  0  0
    4.7927    1.4680    3.6467 H   0  0  0  0  0  0  0  0  0  0  0  0
    5.8539    0.9217    2.3417 H   0  0  0  0  0  0  0  0  0  0  0  0
    4.4336    1.9460    2.0450 H   0  0  0  0  0  0  0  0  0  0  0  0
    6.0101   -3.3521    3.5511 H   0  0  0  0  0  0  0  0  0  0  0  0
    7.6795   -3.5861    5.3222 H   0  0  0  0  0  0  0  0  0  0  0  0
    6.2753    0.0337    7.1545 H   0  0  0  0  0  0  0  0  0  0  0  0
    4.5189    0.2336    5.4351 H   0  0  0  0  0  0  0  0  0  0  0  0
    8.2019   -3.9312    7.6258 H   0  0  0  0  0  0  0  0  0  0  0  0
    9.5183   -3.0460    6.7632 H   0  0  0  0  0  0  0  0  0  0  0  0
    9.3506   -2.9329    8.5170 H   0  0  0  0  0  0  0  0  0  0  0  0
  1  2  2  0  0  0  0
  2  3  1  0  0  0  0
  2  6  1  0  0  0  0
  3  4  1  0  0  0  0
  4  5  1  0  0  0  0
  4 21  1  0  0  0  0
  4 22  1  0  0  0  0
  5 23  1  0  0  0  0
  5 24  1  0  0  0  0
  5 25  1  0  0  0  0
  6  7  1  0  0  0  0
  6 11  2  0  0  0  0
  7  8  1  0  0  0  0
  7  9  2  0  0  0  0
  8 26  1  0  0  0  0
  8 27  1  0  0  0  0
  8 28  1  0  0  0  0
  9 10  1  0  0  0  0
 10 11  1  0  0  0  0
 10 13  1  0  0  0  0
 11 12  1  0  0  0  0
 12 29  1  0  0  0  0
 12 30  1  0  0  0  0
 12 31  1  0  0  0  0
 13 14  2  0  0  0  0
 13 18  1  0  0  0  0
 14 15  1  0  0  0  0
 14 32  1  0  0  0  0
 15 16  2  0  0  0  0
 15 33  1  0  0  0  0
 16 17  1  0  0  0  0
 16 19  1  0  0  0  0
 17 18  2  0  0  0  0
 17 34  1  0  0  0  0
 18 35  1  0  0  0  0
 19 20  1  0  0  0  0
 20 36  1  0  0  0  0
 20 37  1  0  0  0  0
 20 38  1  0  0  0  0
M  END
>  <DRUGBANK_ID>
DB04469

>  <SECONDARY_ACCESSION_NUMBERS>
EXPT00210

>  <COMMON_NAME>
1-(4-Methoxyphenyl)-3,5-Dimethyl-1h-Pyrazole-4-Carboxylic Acid Ethyl Ester

$$$$
