
 OpenBabel10282417203D

 39 41  0  0  0  0  0  0  0  0999 V2000
    2.1426   -0.3493   -0.9542 C   0  0  0  0  0  0  0  0  0  0  0  0
    0.9107   -0.3756   -1.5145 N   0  0  0  0  0  0  0  0  0  0  0  0
    0.8776   -0.5151    0.8240 C   0  0  1  0  0  0  0  0  0  0  0  0
    2.2314   -0.3109    0.3294 N   0  0  0  0  0  0  0  0  0  0  0  0
   -0.1778    2.1243    0.1158 C   0  0  0  0  0  0  0  0  0  0  0  0
    0.8555    1.8876    1.1573 N   0  0  0  0  0  0  0  0  0  0  0  0
    1.0428    0.3303    2.0372 C   0  0  1  0  0  0  0  0  0  0  0  0
   -0.7525    0.9343   -0.3885 N   0  0  0  0  0  0  0  0  0  0  0  0
   -0.0266   -0.3145   -0.4240 C   0  0  1  0  0  0  0  0  0  0  0  0
   -1.1810   -1.3414   -0.3400 C   0  0  0  0  0  0  0  0  0  0  0  0
   -2.5131   -0.6025   -0.1904 C   0  0  0  0  0  0  0  0  0  0  0  0
   -2.2165    0.8531   -0.4650 C   0  0  0  0  0  0  0  0  0  0  0  0
   -1.1059   -2.0076    0.8861 O   0  0  0  0  0  0  0  0  0  0  0  0
   -1.1498   -2.4363   -1.1843 O   0  0  0  0  0  0  0  0  0  0  0  0
    3.2288   -0.2448   -1.7136 N   0  0  0  0  0  0  0  0  0  0  0  0
   -0.0084    0.0369    1.1762 H   0  0  0  0  0  0  0  0  0  0  0  0
   -0.6012    3.0615   -0.5697 N   0  0  0  0  0  0  0  0  0  0  0  0
    2.0851    2.3021    0.3903 O   0  0  0  0  0  0  0  0  0  0  0  0
   -0.0516   -0.6697    3.1128 C   0  0  0  0  0  0  0  0  0  0  0  0
    0.2980   -2.2421    3.4065 O   0  0  0  0  0  0  0  0  0  0  0  0
    0.1810   -3.5538    2.9197 C   0  0  0  0  0  0  0  0  0  0  0  0
    0.4317   -3.7495    1.5906 N   0  0  0  0  0  0  0  0  0  0  0  0
   -0.0187   -4.5334    3.6087 O   0  0  0  0  0  0  0  0  0  0  0  0
    0.7714   -1.2210   -2.0565 H   0  0  0  0  0  0  0  0  0  0  0  0
    2.0440    0.2105    2.4888 H   0  0  0  0  0  0  0  0  0  0  0  0
   -2.9235   -0.6585    0.8388 H   0  0  0  0  0  0  0  0  0  0  0  0
   -3.2741   -1.0319   -0.8341 H   0  0  0  0  0  0  0  0  0  0  0  0
   -2.6133    1.1398   -1.4380 H   0  0  0  0  0  0  0  0  0  0  0  0
   -2.6607    1.4890    0.3173 H   0  0  0  0  0  0  0  0  0  0  0  0
   -1.2842   -1.2705    1.4701 H   0  0  0  0  0  0  0  0  0  0  0  0
   -1.5638   -3.1078   -0.5990 H   0  0  0  0  0  0  0  0  0  0  0  0
    4.0113    0.2610   -1.2986 H   0  0  0  0  0  0  0  0  0  0  0  0
    3.1142   -0.0859   -2.7005 H   0  0  0  0  0  0  0  0  0  0  0  0
   -0.1482    3.9939   -0.5324 H   0  0  0  0  0  0  0  0  0  0  0  0
    2.7170    1.5482    0.3421 H   0  0  0  0  0  0  0  0  0  0  0  0
   -0.1238   -0.2497    4.1143 H   0  0  0  0  0  0  0  0  0  0  0  0
   -1.1307   -0.7304    2.9082 H   0  0  0  0  0  0  0  0  0  0  0  0
    0.3715   -4.6945    1.2160 H   0  0  0  0  0  0  0  0  0  0  0  0
    0.2459   -3.0042    0.9552 H   0  0  0  0  0  0  0  0  0  0  0  0
  1 15  1  0  0  0  0
  1  2  1  0  0  0  0
  2 24  1  0  0  0  0
  3 16  1  1  0  0  0
  3  4  1  0  0  0  0
  4  1  2  0  0  0  0
  5  6  1  0  0  0  0
  5 17  2  0  0  0  0
  6  7  1  0  0  0  0
  6 18  1  0  0  0  0
  7  3  1  0  0  0  0
  7 25  1  1  0  0  0
  7 19  1  0  0  0  0
  8  5  1  0  0  0  0
  8  9  1  0  0  0  0
  9 10  1  6  0  0  0
  9  3  1  0  0  0  0
  9  2  1  0  0  0  0
 10 11  1  0  0  0  0
 10 13  1  0  0  0  0
 10 14  1  0  0  0  0
 11 12  1  0  0  0  0
 11 26  1  0  0  0  0
 11 27  1  0  0  0  0
 12  8  1  0  0  0  0
 12 28  1  0  0  0  0
 12 29  1  0  0  0  0
 13 30  1  0  0  0  0
 14 31  1  0  0  0  0
 15 32  1  0  0  0  0
 15 33  1  0  0  0  0
 17 34  1  0  0  0  0
 18 35  1  0  0  0  0
 19 20  1  0  0  0  0
 19 36  1  0  0  0  0
 19 37  1  0  0  0  0
 20 21  1  0  0  0  0
 21 22  1  0  0  0  0
 21 23  2  0  0  0  0
 22 38  1  0  0  0  0
 22 39  1  0  0  0  0
M  END
>  <DRUGBANK_ID>
DB12989

>  <COMMON_NAME>
Neosaxitoxin

>  <CAS_NUMBER>
64296-20-4

>  <UNII>
6YRL8BWD9H

$$$$
