PY1
 OpenBabel10282417133D

 33 36  0  0  0  0  0  0  0  0999 V2000
    1.0179    0.7834    0.0251 C   0  0  0  0  0  0  0  0  0  0  0  0
   -0.3701    1.1238    0.0253 C   0  0  0  0  0  0  0  0  0  0  0  0
   -1.1297    0.0129    0.0135 N   0  0  0  0  0  0  0  0  0  0  0  0
   -0.2468   -0.9971    0.0336 N   0  0  0  0  0  0  0  0  0  0  0  0
    1.0535   -0.5925    0.0429 C   0  0  0  0  0  0  0  0  0  0  0  0
    2.1910    1.6436    0.0012 C   0  0  0  0  0  0  0  0  0  0  0  0
   -0.9272    2.4783   -0.0194 C   0  0  0  0  0  0  0  0  0  0  0  0
   -1.6817    2.8772    1.0356 N   0  0  0  0  0  0  0  0  0  0  0  0
   -2.1061    4.1600    1.0308 C   0  0  0  0  0  0  0  0  0  0  0  0
   -1.7980    5.0751    0.0359 C   0  0  0  0  0  0  0  0  0  0  0  0
   -1.0175    4.6495   -1.0314 C   0  0  0  0  0  0  0  0  0  0  0  0
   -0.5766    3.3308   -1.0648 C   0  0  0  0  0  0  0  0  0  0  0  0
    3.1198    1.6202   -1.0685 C   0  0  0  0  0  0  0  0  0  0  0  0
    4.1841    2.5485   -1.0142 C   0  0  0  0  0  0  0  0  0  0  0  0
    4.3338    3.4271   -0.0084 N   0  0  0  0  0  0  0  0  0  0  0  0
    3.4279    3.4190    0.9909 C   0  0  0  0  0  0  0  0  0  0  0  0
    2.3505    2.5603    1.0409 C   0  0  0  0  0  0  0  0  0  0  0  0
    3.0349    0.7480   -2.1821 C   0  0  0  0  0  0  0  0  0  0  0  0
    3.9849    0.7685   -3.1974 C   0  0  0  0  0  0  0  0  0  0  0  0
    5.0261    1.6807   -3.1329 C   0  0  0  0  0  0  0  0  0  0  0  0
    5.1099    2.5601   -2.0502 C   0  0  0  0  0  0  0  0  0  0  0  0
   -0.6048   -1.9466    0.0250 H   0  0  0  0  0  0  0  0  0  0  0  0
    1.8698   -1.3015    0.0430 H   0  0  0  0  0  0  0  0  0  0  0  0
   -2.7167    4.4480    1.8820 H   0  0  0  0  0  0  0  0  0  0  0  0
   -2.1573    6.0966    0.0918 H   0  0  0  0  0  0  0  0  0  0  0  0
   -0.7468    5.3362   -1.8280 H   0  0  0  0  0  0  0  0  0  0  0  0
    0.0450    2.9820   -1.8830 H   0  0  0  0  0  0  0  0  0  0  0  0
    3.5951    4.1508    1.7761 H   0  0  0  0  0  0  0  0  0  0  0  0
    1.6487    2.6143    1.8677 H   0  0  0  0  0  0  0  0  0  0  0  0
    2.2186    0.0352   -2.2688 H   0  0  0  0  0  0  0  0  0  0  0  0
    3.9047    0.0757   -4.0302 H   0  0  0  0  0  0  0  0  0  0  0  0
    5.7719    1.7138   -3.9221 H   0  0  0  0  0  0  0  0  0  0  0  0
    5.9264    3.2790   -2.0141 H   0  0  0  0  0  0  0  0  0  0  0  0
  1  2  1  0  0  0  0
  1  5  2  0  0  0  0
  1  6  1  0  0  0  0
  2  3  2  0  0  0  0
  2  7  1  0  0  0  0
  3  4  1  0  0  0  0
  4  5  1  0  0  0  0
  4 22  1  0  0  0  0
  5 23  1  0  0  0  0
  6 13  2  0  0  0  0
  6 17  1  0  0  0  0
  7  8  2  0  0  0  0
  7 12  1  0  0  0  0
  8  9  1  0  0  0  0
  9 10  2  0  0  0  0
  9 24  1  0  0  0  0
 10 11  1  0  0  0  0
 10 25  1  0  0  0  0
 11 12  2  0  0  0  0
 11 26  1  0  0  0  0
 12 27  1  0  0  0  0
 13 14  1  0  0  0  0
 13 18  1  0  0  0  0
 14 15  2  0  0  0  0
 14 21  1  0  0  0  0
 15 16  1  0  0  0  0
 16 17  2  0  0  0  0
 16 28  1  0  0  0  0
 17 29  1  0  0  0  0
 18 19  2  0  0  0  0
 18 30  1  0  0  0  0
 19 20  1  0  0  0  0
 19 31  1  0  0  0  0
 20 21  2  0  0  0  0
 20 32  1  0  0  0  0
 21 33  1  0  0  0  0
M  END
>  <DRUGBANK_ID>
DB03921

>  <SECONDARY_ACCESSION_NUMBERS>
EXPT02712

>  <COMMON_NAME>
4-(3-Pyridin-2-Yl-1h-Pyrazol-4-Yl)Quinoline

$$$$
