
 OpenBabel10282417233D

 63 66  0  0  0  0  0  0  0  0999 V2000
    2.3393   -0.1885   -0.1066 F   0  0  0  0  0  0  0  0  0  0  0  0
    1.0117   -0.2364   -0.2539 C   0  0  0  0  0  0  0  0  0  0  0  0
    0.3311    0.9245   -0.5221 C   0  0  0  0  0  0  0  0  0  0  0  0
   -1.0509    0.8652   -0.4853 C   0  0  0  0  0  0  0  0  0  0  0  0
   -1.7739   -0.2974   -0.1480 C   0  0  0  0  0  0  0  0  0  0  0  0
   -1.0672   -1.4745   -0.0171 C   0  0  0  0  0  0  0  0  0  0  0  0
    0.3265   -1.4374   -0.0576 C   0  0  0  0  0  0  0  0  0  0  0  0
   -3.2802   -0.2615   -0.0095 C   0  0  0  0  0  0  0  0  0  0  0  0
   -3.9296   -0.7234   -1.2031 O   0  0  0  0  0  0  0  0  0  0  0  0
   -3.5340   -0.0380   -2.4004 C   0  0  0  0  0  0  0  0  0  0  0  0
   -4.0855    1.3876   -2.5157 C   0  0  0  0  0  0  0  0  0  0  0  0
   -3.6709    2.2102   -1.3851 N   0  0  0  0  0  0  0  0  0  0  0  0
   -4.8007    2.5007   -0.4777 C   0  0  0  0  0  0  0  0  0  0  0  0
   -5.6077    3.7100   -0.9144 C   0  0  0  0  0  0  0  0  0  0  0  0
   -4.7701    4.8841   -1.2110 N   0  0  0  0  0  0  0  0  0  0  0  0
   -4.2002    5.5442   -0.0136 C   0  0  0  0  0  0  0  0  0  0  0  0
   -3.2566    4.8152    0.9199 C   0  0  0  0  0  0  0  0  0  0  0  0
   -1.9168    5.0295    1.0663 C   0  0  0  0  0  0  0  0  0  0  0  0
   -1.0326    4.1300    1.8364 C   0  0  0  0  0  0  0  0  0  0  0  0
   -1.1826    2.7427    1.8518 C   0  0  0  0  0  0  0  0  0  0  0  0
   -0.1696    1.8870    2.3166 C   0  0  0  0  0  0  0  0  0  0  0  0
    1.0212    2.4123    2.7846 C   0  0  0  0  0  0  0  0  0  0  0  0
    1.1291    3.7910    2.9094 C   0  0  0  0  0  0  0  0  0  0  0  0
    0.1070    4.6405    2.4559 C   0  0  0  0  0  0  0  0  0  0  0  0
   -3.7616    4.5292   -2.2290 C   0  0  0  0  0  0  0  0  0  0  0  0
   -2.8788    3.3745   -1.7917 C   0  0  0  0  0  0  0  0  0  0  0  0
   -3.8953   -0.8561    1.2554 C   0  0  0  0  0  0  0  0  0  0  0  0
   -3.5715   -0.3022    2.5136 C   0  0  0  0  0  0  0  0  0  0  0  0
   -4.1662   -0.7731    3.6812 C   0  0  0  0  0  0  0  0  0  0  0  0
   -5.1086   -1.7860    3.5946 C   0  0  0  0  0  0  0  0  0  0  0  0
   -5.6689   -2.2592    4.7146 F   0  0  0  0  0  0  0  0  0  0  0  0
   -5.4872   -2.3108    2.3636 C   0  0  0  0  0  0  0  0  0  0  0  0
   -4.8896   -1.8401    1.1943 C   0  0  0  0  0  0  0  0  0  0  0  0
    0.8327    1.8853   -0.6108 H   0  0  0  0  0  0  0  0  0  0  0  0
   -1.5546    1.8053   -0.6061 H   0  0  0  0  0  0  0  0  0  0  0  0
   -1.6109   -2.3999    0.1407 H   0  0  0  0  0  0  0  0  0  0  0  0
    0.8867   -2.3465    0.1035 H   0  0  0  0  0  0  0  0  0  0  0  0
   -3.5433    0.7583    0.1918 H   0  0  0  0  0  0  0  0  0  0  0  0
   -2.4465   -0.0533   -2.5289 H   0  0  0  0  0  0  0  0  0  0  0  0
   -3.9270   -0.6142   -3.2423 H   0  0  0  0  0  0  0  0  0  0  0  0
   -3.7280    1.8161   -3.4575 H   0  0  0  0  0  0  0  0  0  0  0  0
   -5.1757    1.3438   -2.5784 H   0  0  0  0  0  0  0  0  0  0  0  0
   -5.4608    1.6289   -0.3659 H   0  0  0  0  0  0  0  0  0  0  0  0
   -4.4358    2.6289    0.5426 H   0  0  0  0  0  0  0  0  0  0  0  0
   -6.1528    3.4107   -1.8212 H   0  0  0  0  0  0  0  0  0  0  0  0
   -6.3779    3.9392   -0.1711 H   0  0  0  0  0  0  0  0  0  0  0  0
   -3.7286    6.4687   -0.3596 H   0  0  0  0  0  0  0  0  0  0  0  0
   -5.0515    5.8563    0.6030 H   0  0  0  0  0  0  0  0  0  0  0  0
   -3.6790    4.0458    1.5432 H   0  0  0  0  0  0  0  0  0  0  0  0
   -1.4316    5.8048    0.4877 H   0  0  0  0  0  0  0  0  0  0  0  0
   -2.0705    2.2987    1.4126 H   0  0  0  0  0  0  0  0  0  0  0  0
   -0.2672    0.8059    2.2208 H   0  0  0  0  0  0  0  0  0  0  0  0
    1.8404    1.7496    3.0534 H   0  0  0  0  0  0  0  0  0  0  0  0
    2.0245    4.2148    3.3526 H   0  0  0  0  0  0  0  0  0  0  0  0
    0.2014    5.7108    2.5908 H   0  0  0  0  0  0  0  0  0  0  0  0
   -4.2647    4.2170   -3.1556 H   0  0  0  0  0  0  0  0  0  0  0  0
   -3.1479    5.3930   -2.4995 H   0  0  0  0  0  0  0  0  0  0  0  0
   -2.2364    3.6984   -0.9764 H   0  0  0  0  0  0  0  0  0  0  0  0
   -2.1414    3.1012   -2.5578 H   0  0  0  0  0  0  0  0  0  0  0  0
   -2.8701    0.5230    2.5913 H   0  0  0  0  0  0  0  0  0  0  0  0
   -3.9015   -0.3536    4.6467 H   0  0  0  0  0  0  0  0  0  0  0  0
   -6.2487   -3.0813    2.3178 H   0  0  0  0  0  0  0  0  0  0  0  0
   -5.2185   -2.2254    0.2316 H   0  0  0  0  0  0  0  0  0  0  0  0
  1  2  1  0  0  0  0
  2  3  2  0  0  0  0
  2  7  1  0  0  0  0
  3  4  1  0  0  0  0
  3 34  1  0  0  0  0
  4  5  2  0  0  0  0
  4 35  1  0  0  0  0
  5  6  1  0  0  0  0
  5  8  1  0  0  0  0
  6  7  2  0  0  0  0
  6 36  1  0  0  0  0
  7 37  1  0  0  0  0
  8  9  1  0  0  0  0
  8 27  1  0  0  0  0
  8 38  1  0  0  0  0
  9 10  1  0  0  0  0
 10 11  1  0  0  0  0
 10 39  1  0  0  0  0
 10 40  1  0  0  0  0
 11 12  1  0  0  0  0
 11 41  1  0  0  0  0
 11 42  1  0  0  0  0
 12 13  1  0  0  0  0
 12 26  1  0  0  0  0
 13 14  1  0  0  0  0
 13 43  1  0  0  0  0
 13 44  1  0  0  0  0
 14 15  1  0  0  0  0
 14 45  1  0  0  0  0
 14 46  1  0  0  0  0
 15 16  1  0  0  0  0
 15 25  1  0  0  0  0
 16 17  1  0  0  0  0
 16 47  1  0  0  0  0
 16 48  1  0  0  0  0
 17 18  2  0  0  0  0
 17 49  1  0  0  0  0
 18 19  1  0  0  0  0
 18 50  1  0  0  0  0
 19 20  2  0  0  0  0
 19 24  1  0  0  0  0
 20 21  1  0  0  0  0
 20 51  1  0  0  0  0
 21 22  2  0  0  0  0
 21 52  1  0  0  0  0
 22 23  1  0  0  0  0
 22 53  1  0  0  0  0
 23 24  2  0  0  0  0
 23 54  1  0  0  0  0
 24 55  1  0  0  0  0
 25 26  1  0  0  0  0
 25 56  1  0  0  0  0
 25 57  1  0  0  0  0
 26 58  1  0  0  0  0
 26 59  1  0  0  0  0
 27 28  2  0  0  0  0
 27 33  1  0  0  0  0
 28 29  1  0  0  0  0
 28 60  1  0  0  0  0
 29 30  2  0  0  0  0
 29 61  1  0  0  0  0
 30 31  1  0  0  0  0
 30 32  1  0  0  0  0
 32 33  2  0  0  0  0
 32 62  1  0  0  0  0
 33 63  1  0  0  0  0
M  END
>  <DRUGBANK_ID>
DB17028

>  <COMMON_NAME>
GBR-12879

>  <CAS_NUMBER>
67469-43-6

>  <UNII>
VNS6D6QMEP

>  <SYNONYMS>
1-(2-(bis(4-fluorophenyl)methoxy)ethyl)-4-(3-phenyl-2-propenyl)piperazine; Piperazine, 1-(2-(bis(4-fluorophenyl)methoxy)ethyl)-4-(3-phenyl-2-propen-1-yl)-; Piperazine, 1-(2-(bis(4-fluorophenyl)methoxy)ethyl)-4-(3-phenyl-2-propenyl)-

$$$$
