
 OpenBabel10282417193D

 27 29  0  0  0  0  0  0  0  0999 V2000
   -2.4529    0.7099    0.0348 C   0  0  0  0  0  0  0  0  0  0  0  0
   -2.4554   -0.6842   -0.0297 C   0  0  0  0  0  0  0  0  0  0  0  0
   -1.2433    1.4069    0.0650 C   0  0  0  0  0  0  0  0  0  0  0  0
   -1.2478   -1.3823   -0.0559 C   0  0  0  0  0  0  0  0  0  0  0  0
    4.8599   -3.0079   -0.9367 C   0  0  0  0  0  0  0  0  0  0  0  0
    5.7051   -1.7600   -0.6740 C   0  0  0  0  0  0  0  0  0  0  0  0
    2.2472    0.6803   -0.3427 C   0  0  0  0  0  0  0  0  0  0  0  0
   -0.0375    0.7090    0.0320 C   0  0  0  0  0  0  0  0  0  0  0  0
   -0.0408   -0.6861   -0.0081 C   0  0  0  0  0  0  0  0  0  0  0  0
    2.2633   -0.6857    0.3321 C   0  0  3  0  0  0  0  0  0  0  0  0
    3.5100   -1.4521   -0.1104 C   0  0  0  0  0  0  0  0  0  0  0  0
    3.4415   -2.5791   -0.7767 N   0  0  0  0  0  0  0  0  0  0  0  0
    4.7880   -1.0067    0.1417 N   0  0  0  0  0  0  0  0  0  0  0  0
    1.1106    1.4562    0.0561 O   0  0  0  0  0  0  0  0  0  0  0  0
    1.0982   -1.4409   -0.0092 O   0  0  0  0  0  0  0  0  0  0  0  0
   -3.3933    1.2542    0.0583 H   0  0  0  0  0  0  0  0  0  0  0  0
   -3.3960   -1.2282   -0.0551 H   0  0  0  0  0  0  0  0  0  0  0  0
   -1.2406    2.4921    0.1054 H   0  0  0  0  0  0  0  0  0  0  0  0
   -1.2440   -2.4681   -0.1026 H   0  0  0  0  0  0  0  0  0  0  0  0
    5.0318   -3.4218   -1.9336 H   0  0  0  0  0  0  0  0  0  0  0  0
    5.0717   -3.7829   -0.1907 H   0  0  0  0  0  0  0  0  0  0  0  0
    6.6433   -1.9834   -0.1616 H   0  0  0  0  0  0  0  0  0  0  0  0
    5.9141   -1.2319   -1.6119 H   0  0  0  0  0  0  0  0  0  0  0  0
    3.1356    1.2568   -0.0611 H   0  0  0  0  0  0  0  0  0  0  0  0
    2.2489    0.5949   -1.4369 H   0  0  0  0  0  0  0  0  0  0  0  0
    2.2957   -0.5826    1.4244 H   0  0  0  0  0  0  0  0  0  0  0  0
    5.0282   -0.1124    0.5401 H   0  0  0  0  0  0  0  0  0  0  0  0
  1 16  1  0  0  0  0
  2  1  2  0  0  0  0
  2 17  1  0  0  0  0
  3  1  1  0  0  0  0
  3 18  1  0  0  0  0
  4  2  1  0  0  0  0
  4 19  1  0  0  0  0
  5 20  1  0  0  0  0
  5 21  1  0  0  0  0
  6  5  1  0  0  0  0
  6 22  1  0  0  0  0
  6 23  1  0  0  0  0
  7 24  1  0  0  0  0
  7 25  1  0  0  0  0
  8  3  2  0  0  0  0
  9  4  2  0  0  0  0
  9  8  1  0  0  0  0
 10  7  1  0  0  0  0
 10 26  1  0  0  0  0
 11 10  1  0  0  0  0
 12  5  1  0  0  0  0
 12 11  2  0  0  0  0
 13  6  1  0  0  0  0
 13 11  1  0  0  0  0
 13 27  1  0  0  0  0
 14  7  1  0  0  0  0
 14  8  1  0  0  0  0
 15  9  1  0  0  0  0
 15 10  1  0  0  0  0
M  END
>  <DRUGBANK_ID>
DB12551

>  <COMMON_NAME>
Idazoxan

>  <CAS_NUMBER>
79944-58-4

>  <UNII>
Y310PA316B

>  <SYNONYMS>
Idazoxan; idazoxano

$$$$
