
 OpenBabel10282417183D

 44 43  0  0  1  0  0  0  0  0999 V2000
    2.8089    0.1518   -5.8575 C   0  0  0  0  0  0  0  0  0  0  0  0
    3.2784    1.5830   -5.9770 C   0  0  0  0  0  0  0  0  0  0  0  0
    3.5650    2.2592   -4.6821 O   0  0  0  0  0  0  0  0  0  0  0  0
    2.7980    2.1266   -3.5474 C   0  0  0  0  0  0  0  0  0  0  0  0
    1.8984    1.3063   -3.4344 O   0  0  0  0  0  0  0  0  0  0  0  0
    3.1078    3.0725   -2.3606 C   0  0  2  0  0  0  0  0  0  0  0  0
    2.5476    2.3474   -1.0842 C   0  0  0  0  0  0  0  0  0  0  0  0
    3.8208    2.0926    0.1843 S   0  0  0  0  0  0  0  0  0  0  0  0
    2.4822    4.4273   -2.3747 N   0  0  0  0  0  0  0  0  0  0  0  0
    2.8879    5.3451   -3.4339 C   0  0  0  0  0  0  0  0  0  0  0  0
    2.2335    4.9970   -4.7798 C   0  0  0  0  0  0  0  0  0  0  0  0
    0.7622    4.8409   -4.6934 N   0  0  0  0  0  0  0  0  0  0  0  0
    0.1869    4.1870   -5.9102 C   0  0  1  0  0  0  0  0  0  0  0  0
    0.3948    2.6765   -5.9560 C   0  0  0  0  0  0  0  0  0  0  0  0
   -0.4444    1.4786   -4.8589 S   0  0  0  0  0  0  0  0  0  0  0  0
   -1.2984    4.2903   -6.0158 C   0  0  0  0  0  0  0  0  0  0  0  0
   -1.8866    4.6091   -7.0558 O   0  0  0  0  0  0  0  0  0  0  0  0
   -1.8686    3.7859   -4.8900 O   0  0  0  0  0  0  0  0  0  0  0  0
   -3.2588    3.4814   -4.9515 C   0  0  0  0  0  0  0  0  0  0  0  0
   -3.8945    4.8295   -4.7975 C   0  0  0  0  0  0  0  0  0  0  0  0
    3.6414   -0.4565   -5.5161 H   0  0  0  0  0  0  0  0  0  0  0  0
    2.4065   -0.2195   -6.8057 H   0  0  0  0  0  0  0  0  0  0  0  0
    2.0007    0.0168   -5.1421 H   0  0  0  0  0  0  0  0  0  0  0  0
    4.1651    1.7025   -6.6042 H   0  0  0  0  0  0  0  0  0  0  0  0
    2.5836    2.1168   -6.6379 H   0  0  0  0  0  0  0  0  0  0  0  0
    4.1944    3.1772   -2.3025 H   0  0  0  0  0  0  0  0  0  0  0  0
    1.7106    2.8991   -0.6331 H   0  0  0  0  0  0  0  0  0  0  0  0
    2.1344    1.3529   -1.2829 H   0  0  0  0  0  0  0  0  0  0  0  0
    4.6397    1.3679   -0.5921 H   0  0  0  0  0  0  0  0  0  0  0  0
    1.4722    4.4248   -2.2502 H   0  0  0  0  0  0  0  0  0  0  0  0
    2.5922    6.3684   -3.1645 H   0  0  0  0  0  0  0  0  0  0  0  0
    3.9823    5.3542   -3.5048 H   0  0  0  0  0  0  0  0  0  0  0  0
    2.5531    5.6794   -5.5719 H   0  0  0  0  0  0  0  0  0  0  0  0
    2.6834    4.0720   -5.0793 H   0  0  0  0  0  0  0  0  0  0  0  0
    0.5326    4.2355   -3.9052 H   0  0  0  0  0  0  0  0  0  0  0  0
    0.6415    4.6597   -6.7898 H   0  0  0  0  0  0  0  0  0  0  0  0
    0.3615    2.2919   -6.9778 H   0  0  0  0  0  0  0  0  0  0  0  0
    1.3778    2.6298   -5.5711 H   0  0  0  0  0  0  0  0  0  0  0  0
    0.1473    1.9532   -3.7367 H   0  0  0  0  0  0  0  0  0  0  0  0
   -3.5260    2.9438   -5.8720 H   0  0  0  0  0  0  0  0  0  0  0  0
   -3.5038    2.8199   -4.1096 H   0  0  0  0  0  0  0  0  0  0  0  0
   -3.5865    5.4825   -5.6195 H   0  0  0  0  0  0  0  0  0  0  0  0
   -4.9759    4.7724   -4.7701 H   0  0  0  0  0  0  0  0  0  0  0  0
   -3.4969    5.2918   -3.8865 H   0  0  0  0  0  0  0  0  0  0  0  0
  1  2  1  0  0  0  0
  1 21  1  0  0  0  0
  1 22  1  0  0  0  0
  1 23  1  0  0  0  0
  2  3  1  0  0  0  0
  2 24  1  0  0  0  0
  2 25  1  0  0  0  0
  3  4  1  0  0  0  0
  4  5  2  0  0  0  0
  6  9  1  0  0  0  0
  6 26  1  1  0  0  0
  6  7  1  0  0  0  0
  6  4  1  0  0  0  0
  7  8  1  0  0  0  0
  7 27  1  0  0  0  0
  7 28  1  0  0  0  0
  8 29  1  0  0  0  0
  9 10  1  0  0  0  0
  9 30  1  0  0  0  0
 10 11  1  0  0  0  0
 10 31  1  0  0  0  0
 10 32  1  0  0  0  0
 11 12  1  0  0  0  0
 11 33  1  0  0  0  0
 11 34  1  0  0  0  0
 12 35  1  0  0  0  0
 13 12  1  0  0  0  0
 13 14  1  0  0  0  0
 13 16  1  0  0  0  0
 13 36  1  6  0  0  0
 14 15  1  0  0  0  0
 14 37  1  0  0  0  0
 14 38  1  0  0  0  0
 15 39  1  0  0  0  0
 16 17  2  0  0  0  0
 16 18  1  0  0  0  0
 18 19  1  0  0  0  0
 19 20  1  0  0  0  0
 19 40  1  0  0  0  0
 19 41  1  0  0  0  0
 20 42  1  0  0  0  0
 20 43  1  0  0  0  0
 20 44  1  0  0  0  0
M  END
>  <DRUGBANK_ID>
DB11164

>  <COMMON_NAME>
Bicisate

>  <CAS_NUMBER>
121251-02-3

>  <UNII>
3JXF0Z0XOI

$$$$
