
 OpenBabel10282417183D

 29 30  0  0  0  0  0  0  0  0999 V2000
   -0.7830   -1.0090   -0.2000 Zn  0  0  0  0  0  0  0  0  0  0  0  0
    0.7340   -1.0680    0.0740 O   0  0  0  0  0  0  0  0  0  0  0  0
    2.4328    0.7759    0.2628 O   0  0  0  0  0  0  0  0  0  0  0  0
   -2.6001    2.0613    1.2315 O   0  0  0  0  0  0  0  0  0  0  0  0
   -1.1980    0.4130    0.2510 N   0  0  0  0  0  0  0  0  0  0  0  0
    2.3801    3.7980    0.8141 N   0  0  0  0  0  0  0  0  0  0  0  0
    2.7638    4.4611   -1.2771 N   0  0  0  0  0  0  0  0  0  0  0  0
   -2.8709   -1.5289   -0.6540 N   0  0  0  0  0  0  0  0  0  0  0  0
    0.0090    1.2780   -0.2000 C   0  0  2  0  0  0  0  0  0  0  0  0
    1.2380    0.3860    0.0740 C   0  0  0  0  0  0  0  0  0  0  0  0
   -2.4278    0.8375    0.9353 C   0  0  0  0  0  0  0  0  0  0  0  0
    0.0792    2.6070    0.5343 C   0  0  0  0  0  0  0  0  0  0  0  0
    1.3000    3.3814    0.0650 C   0  0  0  0  0  0  0  0  0  0  0  0
   -3.4934   -0.1873    1.2885 C   0  0  0  0  0  0  0  0  0  0  0  0
    1.5434    3.7816   -1.2148 C   0  0  0  0  0  0  0  0  0  0  0  0
    3.2242    4.4571   -0.0533 C   0  0  0  0  0  0  0  0  0  0  0  0
   -3.9924   -0.8576    0.0188 C   0  0  0  0  0  0  0  0  0  0  0  0
    2.5255    3.6481    1.8125 H   0  0  0  0  0  0  0  0  0  0  0  0
   -3.2058   -1.9787   -1.5061 H   0  0  0  0  0  0  0  0  0  0  0  0
   -2.1559   -0.8412   -0.8911 H   0  0  0  0  0  0  0  0  0  0  0  0
   -0.0626    1.5160   -1.2407 H   0  0  0  0  0  0  0  0  0  0  0  0
   -0.8041    3.1750    0.3291 H   0  0  0  0  0  0  0  0  0  0  0  0
    0.1524    2.4294    1.5870 H   0  0  0  0  0  0  0  0  0  0  0  0
   -3.0761   -0.9253    1.9412 H   0  0  0  0  0  0  0  0  0  0  0  0
   -4.3097    0.3013    1.7783 H   0  0  0  0  0  0  0  0  0  0  0  0
    0.8967    3.6025   -2.0482 H   0  0  0  0  0  0  0  0  0  0  0  0
    4.1473    4.9117    0.2401 H   0  0  0  0  0  0  0  0  0  0  0  0
   -4.7425   -1.5790    0.2675 H   0  0  0  0  0  0  0  0  0  0  0  0
   -4.4097   -0.1196   -0.6338 H   0  0  0  0  0  0  0  0  0  0  0  0
  1  2  1  0  0  0  0
  1  5  1  0  0  0  0
  2 10  1  0  0  0  0
  3 10  2  0  0  0  0
  4 11  2  0  0  0  0
  5  9  1  0  0  0  0
  5 11  1  0  0  0  0
  6 13  1  0  0  0  0
  6 16  1  0  0  0  0
  6 18  1  0  0  0  0
  7 15  1  0  0  0  0
  7 16  2  0  0  0  0
  8 17  1  0  0  0  0
  8 19  1  0  0  0  0
  8 20  1  0  0  0  0
  9 10  1  0  0  0  0
  9 12  1  0  0  0  0
  9 21  1  6  0  0  0
 11 14  1  0  0  0  0
 12 13  1  0  0  0  0
 12 22  1  0  0  0  0
 12 23  1  0  0  0  0
 13 15  2  0  0  0  0
 14 17  1  0  0  0  0
 14 24  1  0  0  0  0
 14 25  1  0  0  0  0
 15 26  1  0  0  0  0
 16 27  1  0  0  0  0
 17 28  1  0  0  0  0
 17 29  1  0  0  0  0
M  END
>  <DRUGBANK_ID>
DB09221

>  <COMMON_NAME>
Polaprezinc

>  <CAS_NUMBER>
107667-60-7

>  <UNII>
0WA1B15A1Z

>  <SYNONYMS>
beta-Alanyl-L-histidinato zinc; Polaprezinc; Zinc L-carnosine

$$$$
