
 OpenBabel10282417133D

 17 16  0  0  0  0  0  0  0  0999 V2000
    0.9598   -0.0159    0.0113 C   0  0  0  0  0  0  0  0  0  0  0  0
    0.3839    0.7081   -1.2086 C   0  0  0  0  0  0  0  0  0  0  0  0
    0.8839   -0.0050   -2.4704 C   0  0  0  0  0  0  0  0  0  0  0  0
   -1.1548    0.7550   -1.1847 C   0  0  0  0  0  0  0  0  0  0  0  0
   -1.7109    1.4490    0.0453 C   0  0  0  0  0  0  0  0  0  0  0  0
   -2.4406    2.5553   -0.2036 O   0  0  0  0  0  0  0  0  0  0  0  0
   -1.5457    1.0481    1.1900 O   0  0  0  0  0  0  0  0  0  0  0  0
    0.5840   -1.0433    0.0673 H   0  0  0  0  0  0  0  0  0  0  0  0
    0.7074    0.4926    0.9440 H   0  0  0  0  0  0  0  0  0  0  0  0
    2.0526   -0.0501   -0.0323 H   0  0  0  0  0  0  0  0  0  0  0  0
    0.7687    1.7359   -1.2169 H   0  0  0  0  0  0  0  0  0  0  0  0
    0.5412   -1.0459   -2.4975 H   0  0  0  0  0  0  0  0  0  0  0  0
    0.5322    0.4930   -3.3790 H   0  0  0  0  0  0  0  0  0  0  0  0
    1.9799   -0.0175   -2.4985 H   0  0  0  0  0  0  0  0  0  0  0  0
   -1.5223    1.2542   -2.0900 H   0  0  0  0  0  0  0  0  0  0  0  0
   -1.5730   -0.2587   -1.2061 H   0  0  0  0  0  0  0  0  0  0  0  0
   -2.5649    2.7821   -1.1421 H   0  0  0  0  0  0  0  0  0  0  0  0
  1  2  1  0  0  0  0
  1  8  1  0  0  0  0
  1  9  1  0  0  0  0
  1 10  1  0  0  0  0
  2  3  1  0  0  0  0
  2  4  1  0  0  0  0
  2 11  1  0  0  0  0
  3 12  1  0  0  0  0
  3 13  1  0  0  0  0
  3 14  1  0  0  0  0
  4  5  1  0  0  0  0
  4 15  1  0  0  0  0
  4 16  1  0  0  0  0
  5  6  1  0  0  0  0
  5  7  2  0  0  0  0
  6 17  1  0  0  0  0
M  END
>  <DRUGBANK_ID>
DB03750

>  <SECONDARY_ACCESSION_NUMBERS>
EXPT01947

>  <COMMON_NAME>
Isovaleric Acid

>  <CAS_NUMBER>
503-74-2

>  <UNII>
1BR7X184L5

$$$$
