
 OpenBabel10282417213D

 30 32  0  0  0  0  0  0  0  0999 V2000
    1.1031   -0.0626   -0.0486 C   0  0  0  0  0  0  0  0  0  0  0  0
    6.1054    5.6812   -3.0187 C   0  0  0  0  0  0  0  0  0  0  0  0
    3.1281    6.6126   -1.1629 C   0  0  0  0  0  0  0  0  0  0  0  0
    2.0273    6.0493   -0.5052 C   0  0  0  0  0  0  0  0  0  0  0  0
   -0.2637    4.0360    0.8804 C   0  0  0  0  0  0  0  0  0  0  0  0
   -1.0504    2.7715    1.2625 C   0  0  0  0  0  0  0  0  0  0  0  0
    3.9684    4.4115   -1.7487 C   0  0  0  0  0  0  0  0  0  0  0  0
    0.6134    1.3219    0.2703 C   0  0  0  0  0  0  0  0  0  0  0  0
    4.0892    5.8070   -1.7782 C   0  0  0  0  0  0  0  0  0  0  0  0
    1.8944    4.6497   -0.4710 C   0  0  0  0  0  0  0  0  0  0  0  0
    0.9498    3.7573    0.0903 C   0  0  0  0  0  0  0  0  0  0  0  0
    2.8624    3.8625   -1.0902 C   0  0  0  0  0  0  0  0  0  0  0  0
    1.3439    2.4698   -0.1841 C   0  0  0  0  0  0  0  0  0  0  0  0
   -0.4847    1.4478    0.9334 N   0  0  0  0  0  0  0  0  0  0  0  0
    2.5031    2.5426   -0.9090 N   0  0  0  0  0  0  0  0  0  0  0  0
    5.1155    6.4859   -2.3857 O   0  0  0  0  0  0  0  0  0  0  0  0
    0.7291   -0.3571   -1.0335 H   0  0  0  0  0  0  0  0  0  0  0  0
    0.7250   -0.7697    0.6964 H   0  0  0  0  0  0  0  0  0  0  0  0
    2.1947   -0.1041   -0.0459 H   0  0  0  0  0  0  0  0  0  0  0  0
    6.6141    5.0396   -2.2903 H   0  0  0  0  0  0  0  0  0  0  0  0
    5.6689    5.0865   -3.8291 H   0  0  0  0  0  0  0  0  0  0  0  0
    6.8559    6.3425   -3.4597 H   0  0  0  0  0  0  0  0  0  0  0  0
    3.2293    7.6955   -1.1896 H   0  0  0  0  0  0  0  0  0  0  0  0
    1.2881    6.6853   -0.0272 H   0  0  0  0  0  0  0  0  0  0  0  0
    0.0246    4.5693    1.7941 H   0  0  0  0  0  0  0  0  0  0  0  0
   -0.9199    4.7100    0.3169 H   0  0  0  0  0  0  0  0  0  0  0  0
   -2.0429    2.8293    0.8002 H   0  0  0  0  0  0  0  0  0  0  0  0
   -1.2244    2.7952    2.3449 H   0  0  0  0  0  0  0  0  0  0  0  0
    4.6934    3.7558   -2.2112 H   0  0  0  0  0  0  0  0  0  0  0  0
    3.0375    1.7574   -1.2525 H   0  0  0  0  0  0  0  0  0  0  0  0
  1 17  1  0  0  0  0
  1 18  1  0  0  0  0
  1 19  1  0  0  0  0
  2 20  1  0  0  0  0
  2 21  1  0  0  0  0
  2 22  1  0  0  0  0
  3 23  1  0  0  0  0
  4  3  2  0  0  0  0
  4 24  1  0  0  0  0
  5 25  1  0  0  0  0
  5 26  1  0  0  0  0
  6  5  1  0  0  0  0
  6 27  1  0  0  0  0
  6 28  1  0  0  0  0
  7 29  1  0  0  0  0
  8  1  1  0  0  0  0
  9  3  1  0  0  0  0
  9  7  2  0  0  0  0
 10  4  1  0  0  0  0
 11  5  1  0  0  0  0
 11 10  1  0  0  0  0
 12  7  1  0  0  0  0
 12 10  2  0  0  0  0
 13  8  1  0  0  0  0
 13 11  2  0  0  0  0
 14  6  1  0  0  0  0
 14  8  2  0  0  0  0
 15 12  1  0  0  0  0
 15 13  1  0  0  0  0
 15 30  1  0  0  0  0
 16  2  1  0  0  0  0
 16  9  1  0  0  0  0
M  END
>  <DRUGBANK_ID>
DB13875

>  <COMMON_NAME>
Harmaline

>  <CAS_NUMBER>
304-21-2

>  <UNII>
CN58I4TOET

$$$$
