1405
 OpenBabel10282417113D

 48 51  0  0  1  0  0  0  0  0999 V2000
    0.9352   -0.0026   -0.1070 F   0  0  0  0  0  0  0  0  0  0  0  0
    5.7407    2.0665    2.4117 F   0  0  0  0  0  0  0  0  0  0  0  0
    9.4322    4.7131    1.2763 F   0  0  0  0  0  0  0  0  0  0  0  0
    4.4188   -3.4568    0.1698 O   0  0  0  0  0  0  0  0  0  0  0  0
    6.5317   -4.7543    0.6992 O   0  0  0  0  0  0  0  0  0  0  0  0
    8.4288   -3.5992    1.0761 O   0  0  0  0  0  0  0  0  0  0  0  0
    2.2054    2.5102    0.2553 N   0  0  0  0  0  0  0  0  0  0  0  0
   -0.0094    4.3880    0.2717 N   0  0  0  0  0  0  0  0  0  0  0  0
    6.4262    0.0978    0.4636 N   0  0  0  0  0  0  0  0  0  0  0  0
   -0.0923    3.0707    0.9591 C   0  0  3  0  0  0  0  0  0  0  0  0
    1.2991    2.5605    1.4117 C   0  0  0  0  0  0  0  0  0  0  0  0
    2.3539    3.7835   -0.4604 C   0  0  0  0  0  0  0  0  0  0  0  0
    0.9418    4.2994   -0.8655 C   0  0  0  0  0  0  0  0  0  0  0  0
    2.9033    1.3422    0.0300 C   0  0  0  0  0  0  0  0  0  0  0  0
   -0.7844    2.0417    0.0620 C   0  0  0  0  0  0  0  0  0  0  0  0
    4.2964    1.3232    0.0292 C   0  0  0  0  0  0  0  0  0  0  0  0
    5.0203    0.1157    0.1852 C   0  0  0  0  0  0  0  0  0  0  0  0
    2.2678    0.0893   -0.0749 C   0  0  0  0  0  0  0  0  0  0  0  0
    4.3217   -1.0975    0.0875 C   0  0  0  0  0  0  0  0  0  0  0  0
    2.9555   -1.1110   -0.1246 C   0  0  0  0  0  0  0  0  0  0  0  0
    5.0167   -2.3863    0.2598 C   0  0  0  0  0  0  0  0  0  0  0  0
    7.0387   -1.1513    0.6543 C   0  0  0  0  0  0  0  0  0  0  0  0
    6.4548   -2.3631    0.5769 C   0  0  0  0  0  0  0  0  0  0  0  0
    7.1803    1.2989    0.6647 C   0  0  0  0  0  0  0  0  0  0  0  0
    6.8072    2.2685    1.6217 C   0  0  0  0  0  0  0  0  0  0  0  0
    8.2910    1.5724   -0.1462 C   0  0  0  0  0  0  0  0  0  0  0  0
    7.2294   -3.6028    0.8095 C   0  0  0  0  0  0  0  0  0  0  0  0
    7.5040    3.4612    1.7675 C   0  0  0  0  0  0  0  0  0  0  0  0
    9.0684    2.7095    0.0859 C   0  0  0  0  0  0  0  0  0  0  0  0
    8.6710    3.6369    1.0443 C   0  0  0  0  0  0  0  0  0  0  0  0
    5.5719   -4.6431    0.4830 H   0  0  0  0  0  0  0  0  0  0  0  0
    0.3708    5.0592    0.9404 H   0  0  0  0  0  0  0  0  0  0  0  0
   -0.7113    3.1985    1.8553 H   0  0  0  0  0  0  0  0  0  0  0  0
    1.2104    1.5952    1.9239 H   0  0  0  0  0  0  0  0  0  0  0  0
    1.7219    3.2572    2.1505 H   0  0  0  0  0  0  0  0  0  0  0  0
    2.8185    4.5279    0.2002 H   0  0  0  0  0  0  0  0  0  0  0  0
    2.9756    3.6922   -1.3567 H   0  0  0  0  0  0  0  0  0  0  0  0
    0.5226    3.6417   -1.6355 H   0  0  0  0  0  0  0  0  0  0  0  0
    1.0153    5.2868   -1.3326 H   0  0  0  0  0  0  0  0  0  0  0  0
   -0.9144    1.0983    0.6010 H   0  0  0  0  0  0  0  0  0  0  0  0
   -1.7685    2.3856   -0.2620 H   0  0  0  0  0  0  0  0  0  0  0  0
   -0.2037    1.8242   -0.8413 H   0  0  0  0  0  0  0  0  0  0  0  0
    4.8080    2.2795    0.0299 H   0  0  0  0  0  0  0  0  0  0  0  0
    2.4043   -2.0357   -0.2598 H   0  0  0  0  0  0  0  0  0  0  0  0
    8.0947   -1.0815    0.9165 H   0  0  0  0  0  0  0  0  0  0  0  0
    8.5381    0.9127   -0.9747 H   0  0  0  0  0  0  0  0  0  0  0  0
    7.1500    4.2287    2.4458 H   0  0  0  0  0  0  0  0  0  0  0  0
    9.9772    2.8826   -0.4819 H   0  0  0  0  0  0  0  0  0  0  0  0
  1 18  1  0  0  0  0
  2 25  1  0  0  0  0
  3 30  1  0  0  0  0
  4 21  2  0  0  0  0
  5 27  1  0  0  0  0
  5 31  1  0  0  0  0
  6 27  2  0  0  0  0
  7 11  1  0  0  0  0
  7 12  1  0  0  0  0
  7 14  1  0  0  0  0
  8 10  1  0  0  0  0
  8 13  1  0  0  0  0
  8 32  1  0  0  0  0
  9 17  1  0  0  0  0
  9 22  1  0  0  0  0
  9 24  1  0  0  0  0
 10 11  1  0  0  0  0
 10 15  1  0  0  0  0
 10 33  1  0  0  0  0
 11 34  1  0  0  0  0
 11 35  1  0  0  0  0
 12 13  1  0  0  0  0
 12 36  1  0  0  0  0
 12 37  1  0  0  0  0
 13 38  1  0  0  0  0
 13 39  1  0  0  0  0
 14 16  1  0  0  0  0
 14 18  2  0  0  0  0
 15 40  1  0  0  0  0
 15 41  1  0  0  0  0
 15 42  1  0  0  0  0
 16 17  2  0  0  0  0
 16 43  1  0  0  0  0
 17 19  1  0  0  0  0
 18 20  1  0  0  0  0
 19 20  2  0  0  0  0
 19 21  1  0  0  0  0
 20 44  1  0  0  0  0
 21 23  1  0  0  0  0
 22 23  2  0  0  0  0
 22 45  1  0  0  0  0
 23 27  1  0  0  0  0
 24 25  2  0  0  0  0
 24 26  1  0  0  0  0
 25 28  1  0  0  0  0
 26 29  2  0  0  0  0
 26 46  1  0  0  0  0
 28 30  2  0  0  0  0
 28 47  1  0  0  0  0
 29 30  1  0  0  0  0
 29 48  1  0  0  0  0
M  END
>  <DRUGBANK_ID>
DB01405

>  <COMMON_NAME>
Temafloxacin

>  <CAS_NUMBER>
108319-06-8

>  <UNII>
1WZ12GTT67

>  <SYNONYMS>
Temafloxacin; Temafloxacina; Temafloxacine; Temafloxacinum

$$$$
