
 OpenBabel10282417243D

 50 52  0  0  1  0  0  0  0  0999 V2000
    0.8965    0.1476   -0.0767 O   0  0  0  0  0  0  0  0  0  0  0  0
    0.4710   -0.8187    0.8820 C   0  0  0  0  0  0  0  0  0  0  0  0
    0.9912   -2.2131    0.5397 C   0  0  0  0  0  0  0  0  0  0  0  0
    2.5001   -2.3119    0.5654 C   0  0  0  0  0  0  0  0  0  0  0  0
    3.1704   -1.1094    0.5584 N   0  0  0  0  0  0  0  0  0  0  0  0
    4.5166   -1.1049    0.5708 C   0  0  0  0  0  0  0  0  0  0  0  0
    5.2584   -2.2570    0.5677 C   0  0  0  0  0  0  0  0  0  0  0  0
    4.5710   -3.4660    0.5192 C   0  0  0  0  0  0  0  0  0  0  0  0
    3.1672   -3.5374    0.5452 C   0  0  0  0  0  0  0  0  0  0  0  0
    2.4432   -4.8661    0.4451 C   0  0  0  0  0  0  0  0  0  0  0  0
    1.2503   -4.9200    0.1572 O   0  0  0  0  0  0  0  0  0  0  0  0
    3.2049   -6.0183    0.5659 N   0  0  0  0  0  0  0  0  0  0  0  0
    4.0452   -6.2609    1.7300 C   0  0  0  0  0  0  0  0  0  0  0  0
    5.3643   -6.8790    1.2613 C   0  0  0  0  0  0  0  0  0  0  0  0
    5.1448   -8.0642    0.4745 O   0  0  0  0  0  0  0  0  0  0  0  0
    4.3284   -7.7755   -0.6826 C   0  0  0  0  0  0  0  0  0  0  0  0
    2.9515   -7.2296   -0.2503 C   0  0  1  0  0  0  0  0  0  0  0  0
    2.2013   -8.3493    0.4991 C   0  0  0  0  0  0  0  0  0  0  0  0
    0.9186   -7.8685    0.8784 O   0  0  0  0  0  0  0  0  0  0  0  0
   -0.0691   -8.7674    1.1611 C   0  0  0  0  0  0  0  0  0  0  0  0
    0.1008  -10.1572    1.1094 C   0  0  0  0  0  0  0  0  0  0  0  0
   -0.9747  -11.0089    1.3555 C   0  0  0  0  0  0  0  0  0  0  0  0
   -2.2234  -10.4824    1.6748 C   0  0  0  0  0  0  0  0  0  0  0  0
   -2.3968   -9.0999    1.7579 C   0  0  0  0  0  0  0  0  0  0  0  0
   -3.6261   -8.6064    2.0862 O   0  0  0  0  0  0  0  0  0  0  0  0
   -1.3266   -8.2321    1.5055 C   0  0  0  0  0  0  0  0  0  0  0  0
   -1.4868   -6.7521    1.6057 C   0  0  0  0  0  0  0  0  0  0  0  0
   -2.5245   -6.1817    1.9233 O   0  0  0  0  0  0  0  0  0  0  0  0
    1.8767    0.0717   -0.0757 H   0  0  0  0  0  0  0  0  0  0  0  0
    0.8201   -0.5044    1.8717 H   0  0  0  0  0  0  0  0  0  0  0  0
   -0.6218   -0.8225    0.8877 H   0  0  0  0  0  0  0  0  0  0  0  0
    0.5763   -2.8995    1.2851 H   0  0  0  0  0  0  0  0  0  0  0  0
    0.6453   -2.4990   -0.4607 H   0  0  0  0  0  0  0  0  0  0  0  0
    4.9899   -0.1273    0.5744 H   0  0  0  0  0  0  0  0  0  0  0  0
    6.3421   -2.2282    0.5815 H   0  0  0  0  0  0  0  0  0  0  0  0
    5.1770   -4.3514    0.4413 H   0  0  0  0  0  0  0  0  0  0  0  0
    3.4984   -6.9521    2.3797 H   0  0  0  0  0  0  0  0  0  0  0  0
    4.1820   -5.3511    2.3182 H   0  0  0  0  0  0  0  0  0  0  0  0
    5.9374   -6.1846    0.6407 H   0  0  0  0  0  0  0  0  0  0  0  0
    5.9798   -7.1330    2.1259 H   0  0  0  0  0  0  0  0  0  0  0  0
    4.2288   -8.7038   -1.2555 H   0  0  0  0  0  0  0  0  0  0  0  0
    4.8535   -7.0507   -1.3173 H   0  0  0  0  0  0  0  0  0  0  0  0
    2.3654   -6.9437   -1.1340 H   0  0  0  0  0  0  0  0  0  0  0  0
    2.1339   -9.2066   -0.1802 H   0  0  0  0  0  0  0  0  0  0  0  0
    2.7355   -8.6715    1.4006 H   0  0  0  0  0  0  0  0  0  0  0  0
    1.0552  -10.6189    0.8763 H   0  0  0  0  0  0  0  0  0  0  0  0
   -0.8336  -12.0856    1.2942 H   0  0  0  0  0  0  0  0  0  0  0  0
   -3.0492  -11.1618    1.8609 H   0  0  0  0  0  0  0  0  0  0  0  0
   -4.2642   -9.3193    2.2310 H   0  0  0  0  0  0  0  0  0  0  0  0
   -0.5932   -6.1476    1.3921 H   0  0  0  0  0  0  0  0  0  0  0  0
  1  2  1  0  0  0  0
  1 29  1  0  0  0  0
  2  3  1  0  0  0  0
  2 30  1  0  0  0  0
  2 31  1  0  0  0  0
  3  4  1  0  0  0  0
  3 32  1  0  0  0  0
  3 33  1  0  0  0  0
  4  5  2  0  0  0  0
  4  9  1  0  0  0  0
  5  6  1  0  0  0  0
  6  7  2  0  0  0  0
  6 34  1  0  0  0  0
  7  8  1  0  0  0  0
  7 35  1  0  0  0  0
  8  9  2  0  0  0  0
  8 36  1  0  0  0  0
  9 10  1  0  0  0  0
 10 11  2  0  0  0  0
 10 12  1  0  0  0  0
 12 13  1  0  0  0  0
 13 14  1  0  0  0  0
 13 37  1  0  0  0  0
 13 38  1  0  0  0  0
 14 15  1  0  0  0  0
 14 39  1  0  0  0  0
 14 40  1  0  0  0  0
 15 16  1  0  0  0  0
 16 41  1  0  0  0  0
 16 42  1  0  0  0  0
 17 16  1  0  0  0  0
 17 12  1  0  0  0  0
 17 18  1  0  0  0  0
 17 43  1  6  0  0  0
 18 19  1  0  0  0  0
 18 44  1  0  0  0  0
 18 45  1  0  0  0  0
 19 20  1  0  0  0  0
 20 21  2  0  0  0  0
 20 26  1  0  0  0  0
 21 22  1  0  0  0  0
 21 46  1  0  0  0  0
 22 23  2  0  0  0  0
 22 47  1  0  0  0  0
 23 24  1  0  0  0  0
 23 48  1  0  0  0  0
 24 25  1  0  0  0  0
 24 26  2  0  0  0  0
 25 49  1  0  0  0  0
 26 27  1  0  0  0  0
 27 28  2  0  0  0  0
 27 50  1  0  0  0  0
M  END
>  <DRUGBANK_ID>
DB18071

>  <COMMON_NAME>
Osivelotor

>  <CAS_NUMBER>
2417955-18-9

>  <UNII>
UK749B4S16

>  <SYNONYMS>
(S)-2-hydroxy-6-((4-(2-(2-hydroxyethyl)nicotinoyl)morpholin- 3-yl)methoxy)benzaldehyde

$$$$
