K01
 OpenBabel10282417173D

 46 48  0  0  0  0  0  0  0  0999 V2000
    1.1260    0.2907   -0.1745 O   0  0  0  0  0  0  0  0  0  0  0  0
    2.3009    0.0042   -0.0061 C   0  0  0  0  0  0  0  0  0  0  0  0
    3.0594   -0.6949   -1.0357 C   0  0  0  0  0  0  0  0  0  0  0  0
    4.3218   -1.8028   -0.7198 S   0  0  0  0  0  0  0  0  0  0  0  0
    4.4714   -2.2014   -2.3856 C   0  0  0  0  0  0  0  0  0  0  0  0
    3.6121   -1.4639   -3.1686 C   0  0  0  0  0  0  0  0  0  0  0  0
    2.8010   -0.5998   -2.3885 C   0  0  0  0  0  0  0  0  0  0  0  0
    3.0616    0.4533    1.0696 N   0  0  0  0  0  0  0  0  0  0  0  0
    2.4791    1.2871    1.9758 C   0  0  0  0  0  0  0  0  0  0  0  0
    3.0885    2.8194    2.1117 S   0  0  0  0  0  0  0  0  0  0  0  0
    1.3314    3.3109    3.3575 C   0  0  0  0  0  0  0  0  0  0  0  0
    2.2402    2.4489    3.9205 C   0  0  0  0  0  0  0  0  0  0  0  0
    3.1606    4.1416    4.1206 C   0  0  0  0  0  0  0  0  0  0  0  0
    3.8147    3.9586    5.3975 C   0  0  0  0  0  0  0  0  0  0  0  0
    2.5267    3.7791    6.1674 C   0  0  0  0  0  0  0  0  0  0  0  0
    1.1333    3.8484    5.1102 C   0  0  0  0  0  0  0  0  0  0  0  0
    1.5316    1.2090    2.9409 C   0  0  0  0  0  0  0  0  0  0  0  0
    0.6865   -0.2361    2.8363 C   0  0  0  0  0  0  0  0  0  0  0  0
    1.1550   -1.1245    2.0522 O   0  0  0  0  0  0  0  0  0  0  0  0
   -0.5363   -0.7201    3.4127 N   0  0  0  0  0  0  0  0  0  0  0  0
   -1.0857   -0.0624    4.5520 C   0  0  0  0  0  0  0  0  0  0  0  0
   -0.0275   -0.0411    5.6288 C   0  0  0  0  0  0  0  0  0  0  0  0
   -1.1794   -2.0719    3.0273 C   0  0  0  0  0  0  0  0  0  0  0  0
   -1.1657   -3.1458    4.1341 C   0  0  0  0  0  0  0  0  0  0  0  0
    5.1742   -2.9538   -2.7204 H   0  0  0  0  0  0  0  0  0  0  0  0
    3.5453   -1.5549   -4.2455 H   0  0  0  0  0  0  0  0  0  0  0  0
    2.0333    0.0548   -2.7824 H   0  0  0  0  0  0  0  0  0  0  0  0
    4.0450    0.5902    0.9193 H   0  0  0  0  0  0  0  0  0  0  0  0
    3.8224    4.5479    3.3520 H   0  0  0  0  0  0  0  0  0  0  0  0
    2.4797    5.0812    4.1388 H   0  0  0  0  0  0  0  0  0  0  0  0
    4.4901    4.7510    5.7305 H   0  0  0  0  0  0  0  0  0  0  0  0
    4.4009    3.0679    5.1712 H   0  0  0  0  0  0  0  0  0  0  0  0
    2.4334    4.5736    6.9234 H   0  0  0  0  0  0  0  0  0  0  0  0
    2.6397    2.8343    6.7196 H   0  0  0  0  0  0  0  0  0  0  0  0
    0.7696    4.8780    5.0996 H   0  0  0  0  0  0  0  0  0  0  0  0
    0.4136    3.1450    5.5328 H   0  0  0  0  0  0  0  0  0  0  0  0
   -1.3962    0.9266    4.2204 H   0  0  0  0  0  0  0  0  0  0  0  0
   -1.9787   -0.5999    4.9023 H   0  0  0  0  0  0  0  0  0  0  0  0
    0.8927    0.4209    5.2707 H   0  0  0  0  0  0  0  0  0  0  0  0
   -0.3757    0.5265    6.4852 H   0  0  0  0  0  0  0  0  0  0  0  0
    0.2557   -1.0574    5.9281 H   0  0  0  0  0  0  0  0  0  0  0  0
   -2.2340   -1.8988    2.7558 H   0  0  0  0  0  0  0  0  0  0  0  0
   -0.7176   -2.5158    2.1334 H   0  0  0  0  0  0  0  0  0  0  0  0
   -1.6886   -2.8071    5.0334 H   0  0  0  0  0  0  0  0  0  0  0  0
   -1.6712   -4.0728    3.8183 H   0  0  0  0  0  0  0  0  0  0  0  0
   -0.1419   -3.4091    4.4097 H   0  0  0  0  0  0  0  0  0  0  0  0
  1  2  2  0  0  0  0
  2  3  1  0  0  0  0
  2  8  1  0  0  0  0
  3  7  2  0  0  0  0
  3  4  1  0  0  0  0
  4  5  1  0  0  0  0
  5  6  2  0  0  0  0
  5 25  1  0  0  0  0
  6  7  1  0  0  0  0
  6 26  1  0  0  0  0
  7 27  1  0  0  0  0
  8  9  1  0  0  0  0
  8 28  1  0  0  0  0
  9 17  2  0  0  0  0
  9 10  1  0  0  0  0
 10 11  1  0  0  0  0
 11 12  2  0  0  0  0
 11 16  1  0  0  0  0
 12 17  1  0  0  0  0
 12 13  1  0  0  0  0
 13 14  1  0  0  0  0
 13 29  1  0  0  0  0
 13 30  1  0  0  0  0
 14 15  1  0  0  0  0
 14 31  1  0  0  0  0
 14 32  1  0  0  0  0
 15 16  1  0  0  0  0
 15 33  1  0  0  0  0
 15 34  1  0  0  0  0
 16 35  1  0  0  0  0
 16 36  1  0  0  0  0
 17 18  1  0  0  0  0
 18 20  1  0  0  0  0
 18 19  2  0  0  0  0
 20 23  1  0  0  0  0
 20 21  1  0  0  0  0
 21 22  1  0  0  0  0
 21 37  1  0  0  0  0
 21 38  1  0  0  0  0
 22 39  1  0  0  0  0
 22 40  1  0  0  0  0
 22 41  1  0  0  0  0
 23 24  1  0  0  0  0
 23 42  1  0  0  0  0
 23 43  1  0  0  0  0
 24 44  1  0  0  0  0
 24 45  1  0  0  0  0
 24 46  1  0  0  0  0
M  END
>  <DRUGBANK_ID>
DB08032

>  <COMMON_NAME>
N,N-DIETHYL-2-[(2-THIENYLCARBONYL)AMINO]-4,5,6,7-TETRAHYDRO-1-BENZOTHIOPHENE-3-CARBOXAMIDE

$$$$
