
 OpenBabel10282417173D

 24 24  0  0  0  0  0  0  0  0999 V2000
    1.1278   -0.0328   -0.0423 C   0  0  0  0  0  0  0  0  0  0  0  0
   -0.6457    3.2317   -5.3591 C   0  0  0  0  0  0  0  0  0  0  0  0
   -1.4731    2.4215   -4.5752 C   0  0  0  0  0  0  0  0  0  0  0  0
    1.2016    2.7697   -3.8703 C   0  0  0  0  0  0  0  0  0  0  0  0
    0.7607    0.2001   -1.4838 C   0  0  0  0  0  0  0  0  0  0  0  0
    0.6866    3.4557   -4.9901 C   0  0  0  0  0  0  0  0  0  0  0  0
   -0.9975    1.8137   -3.3995 C   0  0  0  0  0  0  0  0  0  0  0  0
    0.3569    1.9821   -3.0597 C   0  0  0  0  0  0  0  0  0  0  0  0
   -1.9612    1.0789   -2.5331 C   0  0  0  0  0  0  0  0  0  0  0  0
    1.5075    4.5022   -5.7174 C   0  0  0  0  0  0  0  0  0  0  0  0
    1.9178    5.4977   -4.8808 F   0  0  0  0  0  0  0  0  0  0  0  0
    2.6343    4.0045   -6.2912 F   0  0  0  0  0  0  0  0  0  0  0  0
    0.8231    5.1308   -6.7167 F   0  0  0  0  0  0  0  0  0  0  0  0
    0.4146   -0.6889   -2.2529 O   0  0  0  0  0  0  0  0  0  0  0  0
   -1.8320    0.7900   -1.3548 O   0  0  0  0  0  0  0  0  0  0  0  0
   -3.0868    0.7368   -3.1861 O   0  0  0  0  0  0  0  0  0  0  0  0
    0.9063    1.5455   -1.8256 O   0  0  0  0  0  0  0  0  0  0  0  0
    0.7404   -1.0125    0.2591 H   0  0  0  0  0  0  0  0  0  0  0  0
    0.6758    0.7078    0.6253 H   0  0  0  0  0  0  0  0  0  0  0  0
    2.2137   -0.0343    0.0660 H   0  0  0  0  0  0  0  0  0  0  0  0
   -1.0639    3.7169   -6.2418 H   0  0  0  0  0  0  0  0  0  0  0  0
   -2.5162    2.3152   -4.8674 H   0  0  0  0  0  0  0  0  0  0  0  0
    2.2542    2.8838   -3.6130 H   0  0  0  0  0  0  0  0  0  0  0  0
   -3.5785    0.2151   -2.5167 H   0  0  0  0  0  0  0  0  0  0  0  0
  1 18  1  0  0  0  0
  1 19  1  0  0  0  0
  1 20  1  0  0  0  0
  2 21  1  0  0  0  0
  3  2  2  0  0  0  0
  3 22  1  0  0  0  0
  4 23  1  0  0  0  0
  5  1  1  0  0  0  0
  6  2  1  0  0  0  0
  6  4  2  0  0  0  0
  7  3  1  0  0  0  0
  8  4  1  0  0  0  0
  8  7  2  0  0  0  0
  9  7  1  0  0  0  0
 10  6  1  0  0  0  0
 11 10  1  0  0  0  0
 12 10  1  0  0  0  0
 13 10  1  0  0  0  0
 14  5  2  0  0  0  0
 15  9  2  0  0  0  0
 16  9  1  0  0  0  0
 16 24  1  0  0  0  0
 17  5  1  0  0  0  0
 17  8  1  0  0  0  0
M  END
>  <DRUGBANK_ID>
DB08814

>  <COMMON_NAME>
Triflusal

>  <CAS_NUMBER>
322-79-2

>  <UNII>
1Z0YFI05OO

>  <SYNONYMS>
Triflusal; Triflusalum

$$$$
