
 OpenBabel10282417223D

 17 17  0  0  0  0  0  0  0  0999 V2000
   -0.8592   -0.0754    1.2548 N   0  0  0  0  0  0  0  0  0  0  0  0
    0.6160    0.0770    1.2194 C   0  0  1  0  0  0  0  0  0  0  0  0
    0.9972    1.3188    2.0665 C   0  0  0  0  0  0  0  0  0  0  0  0
    1.1053    0.4100    3.3137 C   0  0  2  0  0  0  0  0  0  0  0  0
    2.1591    0.6468    4.1284 F   0  0  0  0  0  0  0  0  0  0  0  0
    1.2491   -0.7849    2.3491 C   0  0  0  0  0  0  0  0  0  0  0  0
    1.2134   -0.0791   -0.2326 C   0  0  0  0  0  0  0  0  0  0  0  0
    0.3078    0.1561   -1.2289 O   0  0  0  0  0  0  0  0  0  0  0  0
    2.3598   -0.4162   -0.5158 O   0  0  0  0  0  0  0  0  0  0  0  0
   -1.1907   -0.8485    0.6711 H   0  0  0  0  0  0  0  0  0  0  0  0
   -1.3910    0.7543    0.9930 H   0  0  0  0  0  0  0  0  0  0  0  0
    1.9587    1.7603    1.7766 H   0  0  0  0  0  0  0  0  0  0  0  0
    0.2675    2.1299    2.1535 H   0  0  0  0  0  0  0  0  0  0  0  0
    0.1716    0.3743    3.8904 H   0  0  0  0  0  0  0  0  0  0  0  0
    0.7465   -1.7064    2.6563 H   0  0  0  0  0  0  0  0  0  0  0  0
    2.3034   -1.0317    2.1613 H   0  0  0  0  0  0  0  0  0  0  0  0
   -0.5601    0.4362   -0.8845 H   0  0  0  0  0  0  0  0  0  0  0  0
  1 10  1  0  0  0  0
  1 11  1  0  0  0  0
  2  3  1  0  0  0  0
  2  6  1  0  0  0  0
  2  7  1  6  0  0  0
  2  1  1  0  0  0  0
  3 12  1  0  0  0  0
  3 13  1  0  0  0  0
  4  3  1  0  0  0  0
  4  5  1  0  0  0  0
  4  6  1  0  0  0  0
  4 14  1  1  0  0  0
  6 15  1  0  0  0  0
  6 16  1  0  0  0  0
  7  8  1  0  0  0  0
  7  9  2  0  0  0  0
  8 17  1  0  0  0  0
M  END
>  <DRUGBANK_ID>
DB15237

>  <COMMON_NAME>
Fluciclovine

>  <CAS_NUMBER>
222727-43-7

>  <UNII>
YKG0YF688X

>  <SYNONYMS>
Anti-1-amino-3-18F-fluorocyclobutane-1-carboxylic acid; Cyclobutanecarboxylic acid, 1-amino-3-fluoro-, trans-

$$$$
