
 OpenBabel10282417203D

  5  0  0  0  0  0  0  0  0  0999 V2000
    0.9826    0.0776   -0.0606 O   0  6  0  0  0  0  0  0  0  0  0  0
    1.0331   -0.0701    0.0632 O   0  6  0  0  0  0  0  0  0  0  0  0
    1.0524    0.0706    0.0477 O   0  6  0  0  0  0  0  0  0  0  0  0
    1.0527   -0.0461    0.0714 Mg  0  2  0  0  0  0  0  0  0  0  0  0
    0.9042    0.0183   -0.0219 Si  0  0  0  0  0  0  0  0  0  0  0  0
M  CHG  5   1  -2   2  -2   3  -2   4   2   5   4
M  END
>  <DRUGBANK_ID>
DB13249

>  <COMMON_NAME>
Magnesium silicate

>  <CAS_NUMBER>
1343-88-0

>  <UNII>
9B9691B2N9

$$$$
