CXM
 OpenBabel10282417123D

 23 22  0  0  0  0  0  0  0  0999 V2000
    0.9604   -0.0517   -0.0343 N   0  0  0  0  0  0  0  0  0  0  0  0
    0.2435    1.0634    0.6939 C   0  0  1  0  0  0  0  0  0  0  0  0
   -0.6968    1.8794   -0.1902 C   0  0  0  0  0  0  0  0  0  0  0  0
   -1.8177    1.0466   -0.8463 C   0  0  0  0  0  0  0  0  0  0  0  0
   -2.9981   -0.3278    0.1782 S   0  0  0  0  0  0  0  0  0  0  0  0
   -1.8763   -1.5723    1.2944 C   0  0  0  0  0  0  0  0  0  0  0  0
   -0.4495    0.9139    2.0746 C   0  0  0  0  0  0  0  0  0  0  0  0
    0.0642    0.5106    3.1057 O   0  0  0  0  0  0  0  0  0  0  0  0
    0.5442   -1.0219   -0.8955 C   0  0  0  0  0  0  0  0  0  0  0  0
    1.2701   -1.7355   -1.5891 O   0  0  0  0  0  0  0  0  0  0  0  0
   -0.7515   -1.1633   -0.9576 O   0  0  0  0  0  0  0  0  0  0  0  0
   -1.7644    1.2511    2.0529 O   0  0  0  0  0  0  0  0  0  0  0  0
    1.0806    1.7296    0.9722 H   0  0  0  0  0  0  0  0  0  0  0  0
    1.9679    0.0224   -0.0638 H   0  0  0  0  0  0  0  0  0  0  0  0
   -1.1486    2.7043    0.3837 H   0  0  0  0  0  0  0  0  0  0  0  0
   -0.0984    2.4024   -0.9527 H   0  0  0  0  0  0  0  0  0  0  0  0
   -2.5295    1.7365   -1.3215 H   0  0  0  0  0  0  0  0  0  0  0  0
   -1.3840    0.5939   -1.7474 H   0  0  0  0  0  0  0  0  0  0  0  0
   -1.2410   -2.2763    0.7546 H   0  0  0  0  0  0  0  0  0  0  0  0
   -1.2242   -1.1252    2.0387 H   0  0  0  0  0  0  0  0  0  0  0  0
   -2.5631   -2.1586    1.9161 H   0  0  0  0  0  0  0  0  0  0  0  0
   -1.1864   -1.7805   -1.5762 H   0  0  0  0  0  0  0  0  0  0  0  0
   -2.3479    0.4619    2.1582 H   0  0  0  0  0  0  0  0  0  0  0  0
  1  9  1  0  0  0  0
  1 14  1  0  0  0  0
  2  1  1  0  0  0  0
  2  3  1  0  0  0  0
  2  7  1  0  0  0  0
  2 13  1  1  0  0  0
  3  4  1  0  0  0  0
  3 15  1  0  0  0  0
  3 16  1  0  0  0  0
  4  5  1  0  0  0  0
  4 17  1  0  0  0  0
  4 18  1  0  0  0  0
  5  6  1  0  0  0  0
  6 19  1  0  0  0  0
  6 20  1  0  0  0  0
  6 21  1  0  0  0  0
  7  8  2  0  0  0  0
  7 12  1  0  0  0  0
  9 10  2  0  0  0  0
  9 11  1  0  0  0  0
 11 22  1  0  0  0  0
 12 23  1  0  0  0  0
M  END
>  <DRUGBANK_ID>
DB02899

>  <SECONDARY_ACCESSION_NUMBERS>
EXPT01067

>  <COMMON_NAME>
N-Carboxymethionine

$$$$
