
 OpenBabel10282417153D

 42 44  0  0  0  0  0  0  0  0999 V2000
    2.3700   -0.6807   -0.0943 C   0  0  0  0  0  0  0  0  0  0  0  0
    2.3815    0.8224    0.0425 C   0  0  0  0  0  0  0  0  0  0  0  0
    1.1238   -1.1398   -0.3360 C   0  0  0  0  0  0  0  0  0  0  0  0
    3.6805   -1.4765   -0.2243 C   0  0  0  0  0  0  0  0  0  0  0  0
    1.1600    1.5075    0.1109 N   0  0  0  0  0  0  0  0  0  0  0  0
   -0.1204   -0.5294    0.0467 C   0  0  0  0  0  0  0  0  0  0  0  0
   -0.1035    0.8454    0.1140 C   0  0  0  0  0  0  0  0  0  0  0  0
    3.7766   -2.9033   -0.1577 N   0  0  0  0  0  0  0  0  0  0  0  0
    0.8660   -2.2361   -1.0702 O   0  0  0  0  0  0  0  0  0  0  0  0
    3.4582    1.4577    0.0065 O   0  0  0  0  0  0  0  0  0  0  0  0
   -1.3271   -1.2682    0.1509 C   0  0  0  0  0  0  0  0  0  0  0  0
    4.7209   -0.8086   -0.3516 O   0  0  0  0  0  0  0  0  0  0  0  0
    5.0751   -3.4822   -0.3206 C   0  0  0  0  0  0  0  0  0  0  0  0
    1.1834    2.9546    0.0791 C   0  0  0  0  0  0  0  0  0  0  0  0
   -1.3344    1.4928    0.0898 C   0  0  0  0  0  0  0  0  0  0  0  0
   -1.4234   -2.9789    0.4456 Cl  0  0  0  0  0  0  0  0  0  0  0  0
    2.7733   -3.9765    0.0931 C   0  0  0  0  0  0  0  0  0  0  0  0
   -2.5144    0.7658   -0.1316 C   0  0  0  0  0  0  0  0  0  0  0  0
   -2.5271   -0.6157   -0.0211 C   0  0  0  0  0  0  0  0  0  0  0  0
    6.1330   -3.0956    0.5025 C   0  0  0  0  0  0  0  0  0  0  0  0
    5.2712   -4.4800   -1.2844 C   0  0  0  0  0  0  0  0  0  0  0  0
    1.9890   -3.6869    1.3695 C   0  0  0  0  0  0  0  0  0  0  0  0
    7.3679   -3.7244    0.3788 C   0  0  0  0  0  0  0  0  0  0  0  0
    6.5533   -4.9506   -1.5361 C   0  0  0  0  0  0  0  0  0  0  0  0
    7.5897   -4.6167   -0.6691 C   0  0  0  0  0  0  0  0  0  0  0  0
    1.5312   -2.7761   -0.6934 H   0  0  0  0  0  0  0  0  0  0  0  0
    0.6280    3.2973   -0.7992 H   0  0  0  0  0  0  0  0  0  0  0  0
    0.7319    3.3267    1.0013 H   0  0  0  0  0  0  0  0  0  0  0  0
    2.1987    3.3513    0.0054 H   0  0  0  0  0  0  0  0  0  0  0  0
   -1.4042    2.5698    0.1712 H   0  0  0  0  0  0  0  0  0  0  0  0
    2.2292   -4.1390   -0.8535 H   0  0  0  0  0  0  0  0  0  0  0  0
    3.2050   -4.9789    0.1859 H   0  0  0  0  0  0  0  0  0  0  0  0
   -3.4305    1.2814   -0.3954 H   0  0  0  0  0  0  0  0  0  0  0  0
   -3.4494   -1.1843   -0.0991 H   0  0  0  0  0  0  0  0  0  0  0  0
    5.9936   -2.3257    1.2566 H   0  0  0  0  0  0  0  0  0  0  0  0
    4.4470   -4.8614   -1.8808 H   0  0  0  0  0  0  0  0  0  0  0  0
    1.7563   -2.6325    1.5353 H   0  0  0  0  0  0  0  0  0  0  0  0
    1.0447   -4.2323    1.3889 H   0  0  0  0  0  0  0  0  0  0  0  0
    2.5916   -3.9628    2.2361 H   0  0  0  0  0  0  0  0  0  0  0  0
    8.1615   -3.4904    1.0815 H   0  0  0  0  0  0  0  0  0  0  0  0
    6.7384   -5.5663   -2.4111 H   0  0  0  0  0  0  0  0  0  0  0  0
    8.5743   -5.0497   -0.8134 H   0  0  0  0  0  0  0  0  0  0  0  0
  2  1  1  0  0  0  0
  3  1  2  0  0  0  0
  4  1  1  0  0  0  0
  5  2  1  0  0  0  0
  6  3  1  0  0  0  0
  6  7  2  0  0  0  0
  7  5  1  0  0  0  0
  8  4  1  0  0  0  0
  9  3  1  0  0  0  0
  9 26  1  0  0  0  0
 10  2  2  0  0  0  0
 11  6  1  0  0  0  0
 12  4  2  0  0  0  0
 13  8  1  0  0  0  0
 14  5  1  0  0  0  0
 14 27  1  0  0  0  0
 14 28  1  0  0  0  0
 14 29  1  0  0  0  0
 15  7  1  0  0  0  0
 15 30  1  0  0  0  0
 16 11  1  0  0  0  0
 17  8  1  0  0  0  0
 17 31  1  0  0  0  0
 17 32  1  0  0  0  0
 18 15  2  0  0  0  0
 18 33  1  0  0  0  0
 19 11  2  0  0  0  0
 19 18  1  0  0  0  0
 19 34  1  0  0  0  0
 20 13  1  0  0  0  0
 20 35  1  0  0  0  0
 21 13  2  0  0  0  0
 21 36  1  0  0  0  0
 22 17  1  0  0  0  0
 22 37  1  0  0  0  0
 22 38  1  0  0  0  0
 22 39  1  0  0  0  0
 23 20  2  0  0  0  0
 23 40  1  0  0  0  0
 24 21  1  0  0  0  0
 24 25  2  0  0  0  0
 24 41  1  0  0  0  0
 25 23  1  0  0  0  0
 25 42  1  0  0  0  0
M  END
>  <DRUGBANK_ID>
DB06685

>  <COMMON_NAME>
Laquinimod

>  <CAS_NUMBER>
248281-84-7

>  <UNII>
908SY76S4G

>  <SYNONYMS>
Laquinimod

$$$$
