
 OpenBabel10282417233D

173179  0  0  1  0  0  0  0  0999 V2000
   12.1135    1.3741   20.4286 C   0  0  0  0  0  0  0  0  0  0  0  0
    6.9480    2.5116    6.8144 C   0  0  0  0  0  0  0  0  0  0  0  0
    2.9222    8.3615   13.9082 C   0  0  0  0  0  0  0  0  0  0  0  0
    2.5077    0.0298    8.2174 C   0  0  0  0  0  0  0  0  0  0  0  0
    8.1249   -3.1966   12.2294 C   0  0  0  0  0  0  0  0  0  0  0  0
    8.0997   -5.0106   10.5385 C   0  0  0  0  0  0  0  0  0  0  0  0
    8.1111   -3.0461    9.9076 C   0  0  0  0  0  0  0  0  0  0  0  0
   11.9976    2.7899   20.1289 C   0  0  0  0  0  0  0  0  0  0  0  0
   11.8710    3.2979   21.5162 C   0  0  0  0  0  0  0  0  0  0  0  0
   13.0794    3.4132   22.3827 C   0  0  0  0  0  0  0  0  0  0  0  0
    7.9301    8.0598   17.6954 C   0  0  0  0  0  0  0  0  0  0  0  0
    8.8163    6.7970   15.8806 C   0  0  0  0  0  0  0  0  0  0  0  0
    9.0587    7.7414   18.4290 C   0  0  0  0  0  0  0  0  0  0  0  0
    9.9806    6.5462   16.5713 C   0  0  0  0  0  0  0  0  0  0  0  0
    6.6679    9.6131   15.3121 C   0  0  0  0  0  0  0  0  0  0  0  0
    6.1033    7.3335   14.8171 C   0  0  0  0  0  0  0  0  0  0  0  0
    5.6676   10.1850   14.5213 C   0  0  0  0  0  0  0  0  0  0  0  0
    5.1488    7.8571   14.1034 C   0  0  0  0  0  0  0  0  0  0  0  0
    4.5080    1.4650   13.9840 C   0  0  0  0  0  0  0  0  0  0  0  0
    5.4274    2.5294   12.2518 C   0  0  0  0  0  0  0  0  0  0  0  0
   10.8656    5.7510   19.8275 C   0  0  0  0  0  0  0  0  0  0  0  0
   12.4993    6.7900   18.4936 C   0  0  0  0  0  0  0  0  0  0  0  0
    5.6391    0.7241   14.0895 C   0  0  0  0  0  0  0  0  0  0  0  0
    6.6432    2.1336   12.5715 C   0  0  0  0  0  0  0  0  0  0  0  0
   11.7929    5.8759   20.8781 C   0  0  0  0  0  0  0  0  0  0  0  0
   13.4982    6.5738   19.4420 C   0  0  0  0  0  0  0  0  0  0  0  0
    6.0450   -3.6854   10.9760 C   0  0  0  0  0  0  0  0  0  0  0  0
   14.2794    3.9653   21.6277 C   0  0  0  0  0  0  0  0  0  0  0  0
    5.5463   -2.3187   11.3987 C   0  0  0  0  0  0  0  0  0  0  0  0
   -0.7625    3.4085   11.5588 C   0  0  0  0  0  0  0  0  0  0  0  0
    5.5006    4.1027   10.0852 C   0  0  0  0  0  0  0  0  0  0  0  0
    7.3515    1.1100    8.4330 C   0  0  0  0  0  0  0  0  0  0  0  0
    0.6572    4.8083   10.2179 C   0  0  0  0  0  0  0  0  0  0  0  0
    7.6205    1.2175    7.0745 C   0  0  1  0  0  0  0  0  0  0  0  0
    1.7929    7.5889   13.6365 C   0  0  2  0  0  0  0  0  0  0  0  0
    2.5775    0.7816    9.4660 C   0  0  2  0  0  0  0  0  0  0  0  0
    7.8570    7.6780   16.3701 C   0  0  0  0  0  0  0  0  0  0  0  0
   10.0800    6.9508   17.8799 C   0  0  0  0  0  0  0  0  0  0  0  0
    6.8507    8.2119   15.5013 C   0  0  0  0  0  0  0  0  0  0  0  0
   11.1596    6.4588   18.7020 C   0  0  0  0  0  0  0  0  0  0  0  0
    4.4325    2.4296   13.0841 C   0  0  0  0  0  0  0  0  0  0  0  0
    5.0641    9.2682   13.6824 C   0  0  0  0  0  0  0  0  0  0  0  0
    6.7075    0.9985   13.3341 C   0  0  0  0  0  0  0  0  0  0  0  0
   -0.5484    3.9368   10.1572 C   0  0  2  0  0  0  0  0  0  0  0  0
   13.1761    5.8875   20.5698 C   0  0  0  0  0  0  0  0  0  0  0  0
    4.1298    6.0012   10.2688 C   0  0  1  0  0  0  0  0  0  0  0  0
    0.5631    3.4232   12.1804 C   0  0  1  0  0  0  0  0  0  0  0  0
    6.3239    1.8453   10.2807 C   0  0  2  0  0  0  0  0  0  0  0  0
    2.0499    6.9463   12.3504 C   0  0  1  0  0  0  0  0  0  0  0  0
    3.9773    0.9608    9.9832 C   0  0  1  0  0  0  0  0  0  0  0  0
    3.0378    3.4377   10.6063 C   0  0  1  0  0  0  0  0  0  0  0  0
    6.2412   -0.9436    7.4209 C   0  0  1  0  0  0  0  0  0  0  0  0
    7.0119   -0.0374    6.4605 C   0  0  1  0  0  0  0  0  0  0  0  0
    3.4439    3.4428   13.0929 C   0  0  1  0  0  0  0  0  0  0  0  0
    3.5841    4.1812   11.7406 C   0  0  1  0  0  0  0  0  0  0  0  0
    4.2530    9.3538   12.0805 C   0  0  0  0  0  0  0  0  0  0  0  0
    2.0841    6.9690   10.3037 C   0  0  0  0  0  0  0  0  0  0  0  0
    1.3184    2.1548   11.7371 C   0  0  0  0  0  0  0  0  0  0  0  0
    3.7779    3.2626    9.3518 C   0  0  0  0  0  0  0  0  0  0  0  0
    7.3159   -1.8396    7.7898 C   0  0  0  0  0  0  0  0  0  0  0  0
    6.8227   -0.2836   10.1743 C   0  0  2  0  0  0  0  0  0  0  0  0
    1.8801    5.6097   12.6883 C   0  0  0  0  0  0  0  0  0  0  0  0
    4.6978   -0.1838    9.4197 C   0  0  0  0  0  0  0  0  0  0  0  0
    4.1199    7.9951   11.1231 N   0  0  0  0  0  0  0  0  0  0  0  0
    1.2283    7.1343   11.3318 N   0  0  0  0  0  0  0  0  0  0  0  0
    4.2787    2.0985    9.1950 N   0  0  0  0  0  0  0  0  0  0  0  0
    2.4112    2.2665   11.1145 N   0  0  0  0  0  0  0  0  0  0  0  0
    7.8979   -1.2000    8.7884 N   0  0  0  0  0  0  0  0  0  0  0  0
    1.0900    4.7025   11.7274 N   0  0  0  0  0  0  0  0  0  0  0  0
    5.8934    0.1043    8.4174 N   0  0  0  0  0  0  0  0  0  0  0  0
    7.5678   -3.7485   10.9854 N   0  3  0  0  0  0  0  0  0  0  0  0
    0.7671    8.5115   13.6427 O   0  0  0  0  0  0  0  0  0  0  0  0
    1.8040    0.0906   10.4197 O   0  0  0  0  0  0  0  0  0  0  0  0
    7.7607    0.1340   13.2154 O   0  0  0  0  0  0  0  0  0  0  0  0
   -1.5977    4.7704    9.7475 O   0  0  0  0  0  0  0  0  0  0  0  0
    7.6890    1.1302   11.0900 O   0  0  0  0  0  0  0  0  0  0  0  0
    6.0582    0.3983    5.5299 O   0  0  0  0  0  0  0  0  0  0  0  0
    2.2494    2.9224   13.4566 O   0  0  0  0  0  0  0  0  0  0  0  0
    4.7896    4.9180   11.9127 O   0  0  0  0  0  0  0  0  0  0  0  0
    3.6067   10.9295   12.6408 O   0  0  0  0  0  0  0  0  0  0  0  0
    0.9205    8.2415    9.8652 O   0  0  0  0  0  0  0  0  0  0  0  0
    0.9631    0.9414   12.2882 O   0  0  0  0  0  0  0  0  0  0  0  0
    4.3269    4.5885    8.6016 O   0  0  0  0  0  0  0  0  0  0  0  0
    7.7511   -2.9219    6.9599 O   0  0  0  0  0  0  0  0  0  0  0  0
    2.9095    5.4781   13.3937 O   0  0  0  0  0  0  0  0  0  0  0  0
    4.1252   -1.2738    9.6806 O   0  0  0  0  0  0  0  0  0  0  0  0
   14.1865    5.3949   21.3627 O   0  0  0  0  0  0  0  0  0  0  0  0
    5.9724   -1.4419   10.4198 O   0  0  0  0  0  0  0  0  0  0  0  0
    8.7047    1.2609    7.1154 H   0  0  0  0  0  0  0  0  0  0  0  0
    1.8706    6.8952   14.4426 H   0  0  0  0  0  0  0  0  0  0  0  0
    2.1604    1.7838    9.2099 H   0  0  0  0  0  0  0  0  0  0  0  0
   -0.4281    3.1118    9.4455 H   0  0  0  0  0  0  0  0  0  0  0  0
    3.6590    7.3316    9.9803 H   0  0  0  0  0  0  0  0  0  0  0  0
    0.4938    3.4514   13.2647 H   0  0  0  0  0  0  0  0  0  0  0  0
    7.5758    1.1962   10.1027 H   0  0  0  0  0  0  0  0  0  0  0  0
    3.0682    6.8828   12.0280 H   0  0  0  0  0  0  0  0  0  0  0  0
    4.0879    0.9814   11.0858 H   0  0  0  0  0  0  0  0  0  0  0  0
    2.4053    3.9773   10.0359 H   0  0  0  0  0  0  0  0  0  0  0  0
    5.4107   -1.5228    7.0927 H   0  0  0  0  0  0  0  0  0  0  0  0
    7.8376   -0.5312    5.9655 H   0  0  0  0  0  0  0  0  0  0  0  0
    3.6196    3.9869   14.0039 H   0  0  0  0  0  0  0  0  0  0  0  0
    2.9737    4.9679   11.3918 H   0  0  0  0  0  0  0  0  0  0  0  0
    7.6396   -0.8694   11.1013 H   0  0  0  0  0  0  0  0  0  0  0  0
   12.9825    1.2178   21.0679 H   0  0  0  0  0  0  0  0  0  0  0  0
   12.2304    0.8558   19.5048 H   0  0  0  0  0  0  0  0  0  0  0  0
   11.2140    1.0778   20.9689 H   0  0  0  0  0  0  0  0  0  0  0  0
    7.3369    3.3112    7.4511 H   0  0  0  0  0  0  0  0  0  0  0  0
    7.1671    2.7098    5.7945 H   0  0  0  0  0  0  0  0  0  0  0  0
    5.8620    2.4556    6.9908 H   0  0  0  0  0  0  0  0  0  0  0  0
    3.6145    8.0249   13.1572 H   0  0  0  0  0  0  0  0  0  0  0  0
    2.7362    9.1437   13.2680 H   0  0  0  0  0  0  0  0  0  0  0  0
    3.2233    8.8578   14.8400 H   0  0  0  0  0  0  0  0  0  0  0  0
    3.4450   -0.4352    7.9819 H   0  0  0  0  0  0  0  0  0  0  0  0
    1.7760   -0.7370    8.3744 H   0  0  0  0  0  0  0  0  0  0  0  0
    2.3055    0.6904    7.4002 H   0  0  0  0  0  0  0  0  0  0  0  0
    7.8157   -3.8897   12.9805 H   0  0  0  0  0  0  0  0  0  0  0  0
    9.1947   -3.0892   12.1041 H   0  0  0  0  0  0  0  0  0  0  0  0
    7.7150   -2.2191   12.4738 H   0  0  0  0  0  0  0  0  0  0  0  0
    7.6774   -5.2424    9.5472 H   0  0  0  0  0  0  0  0  0  0  0  0
    9.1833   -4.8745   10.4471 H   0  0  0  0  0  0  0  0  0  0  0  0
    7.8060   -5.6915   11.2912 H   0  0  0  0  0  0  0  0  0  0  0  0
    7.5357   -3.3535    9.0532 H   0  0  0  0  0  0  0  0  0  0  0  0
    7.7674   -2.1639   10.2396 H   0  0  0  0  0  0  0  0  0  0  0  0
    9.1450   -2.6926    9.8221 H   0  0  0  0  0  0  0  0  0  0  0  0
   12.8714    3.2263   19.6120 H   0  0  0  0  0  0  0  0  0  0  0  0
   11.1301    3.0758   19.5202 H   0  0  0  0  0  0  0  0  0  0  0  0
   11.9286    4.1462   21.0051 H   0  0  0  0  0  0  0  0  0  0  0  0
   10.8995    3.3180   22.0005 H   0  0  0  0  0  0  0  0  0  0  0  0
   12.9187    4.0175   23.2788 H   0  0  0  0  0  0  0  0  0  0  0  0
   13.2028    2.3825   22.6509 H   0  0  0  0  0  0  0  0  0  0  0  0
    7.1134    8.5792   18.1823 H   0  0  0  0  0  0  0  0  0  0  0  0
    8.6706    6.2757   14.9484 H   0  0  0  0  0  0  0  0  0  0  0  0
    9.1408    8.1300   19.4377 H   0  0  0  0  0  0  0  0  0  0  0  0
   10.7930    6.0154   16.0951 H   0  0  0  0  0  0  0  0  0  0  0  0
    7.4275   10.2735   15.7011 H   0  0  0  0  0  0  0  0  0  0  0  0
    6.1429    6.2840   14.6369 H   0  0  0  0  0  0  0  0  0  0  0  0
    5.5256   11.2545   14.5011 H   0  0  0  0  0  0  0  0  0  0  0  0
    4.4192    6.9629   13.8827 H   0  0  0  0  0  0  0  0  0  0  0  0
    3.6772    1.3141   14.6185 H   0  0  0  0  0  0  0  0  0  0  0  0
    5.2457    2.9674   11.3477 H   0  0  0  0  0  0  0  0  0  0  0  0
    9.9289    5.1933   19.9549 H   0  0  0  0  0  0  0  0  0  0  0  0
   12.8023    7.2054   17.5518 H   0  0  0  0  0  0  0  0  0  0  0  0
    5.7288    0.0392   14.8792 H   0  0  0  0  0  0  0  0  0  0  0  0
    7.4101    2.5346   11.8607 H   0  0  0  0  0  0  0  0  0  0  0  0
   11.4522    5.4157   21.8676 H   0  0  0  0  0  0  0  0  0  0  0  0
   14.4773    7.0098   19.3228 H   0  0  0  0  0  0  0  0  0  0  0  0
    5.7518   -4.4077   11.7120 H   0  0  0  0  0  0  0  0  0  0  0  0
    5.6782   -3.9666    9.9735 H   0  0  0  0  0  0  0  0  0  0  0  0
   15.1666    3.7809   22.2537 H   0  0  0  0  0  0  0  0  0  0  0  0
   14.4608    3.3985   20.7079 H   0  0  0  0  0  0  0  0  0  0  0  0
    5.8802   -1.9580   12.3386 H   0  0  0  0  0  0  0  0  0  0  0  0
    4.4504   -2.3805   11.4271 H   0  0  0  0  0  0  0  0  0  0  0  0
   -1.4023    4.0566   12.1488 H   0  0  0  0  0  0  0  0  0  0  0  0
   -1.1632    2.4054   11.5706 H   0  0  0  0  0  0  0  0  0  0  0  0
    6.1504    3.5508    8.9206 H   0  0  0  0  0  0  0  0  0  0  0  0
    5.6619    3.0272    9.0930 H   0  0  0  0  0  0  0  0  0  0  0  0
    8.3037    0.5848    8.7719 H   0  0  0  0  0  0  0  0  0  0  0  0
    7.5185    2.1426    8.9751 H   0  0  0  0  0  0  0  0  0  0  0  0
    1.2342    4.4437    9.3166 H   0  0  0  0  0  0  0  0  0  0  0  0
    0.5723    5.7990    9.8598 H   0  0  0  0  0  0  0  0  0  0  0  0
    0.8586    8.9759   14.4849 H   0  0  0  0  0  0  0  0  0  0  0  0
    0.8752    0.2853   10.2073 H   0  0  0  0  0  0  0  0  0  0  0  0
    7.7999   -0.5324   13.9162 H   0  0  0  0  0  0  0  0  0  0  0  0
   -2.4076    4.2463    9.7656 H   0  0  0  0  0  0  0  0  0  0  0  0
    7.1811    0.4796   11.6596 H   0  0  0  0  0  0  0  0  0  0  0  0
    5.5331    1.0460    6.0322 H   0  0  0  0  0  0  0  0  0  0  0  0
    2.1017    2.2618   14.1116 H   0  0  0  0  0  0  0  0  0  0  0  0
    5.1761    5.2975   11.1303 H   0  0  0  0  0  0  0  0  0  0  0  0
    2.8617   11.5844   12.3418 H   0  0  0  0  0  0  0  0  0  0  0  0
   -0.3005    8.1848    9.9418 H   0  0  0  0  0  0  0  0  0  0  0  0
    1.5305    0.1792   11.9618 H   0  0  0  0  0  0  0  0  0  0  0  0
    5.3442    4.6132    8.3590 H   0  0  0  0  0  0  0  0  0  0  0  0
    8.4268   -3.6010    7.2409 H   0  0  0  0  0  0  0  0  0  0  0  0
  1  8  1  0  0  0  0
  1104  1  0  0  0  0
  1105  1  0  0  0  0
  1106  1  0  0  0  0
  2107  1  0  0  0  0
  2108  1  0  0  0  0
  2109  1  0  0  0  0
  3110  1  0  0  0  0
  3111  1  0  0  0  0
  3112  1  0  0  0  0
  4113  1  0  0  0  0
  4114  1  0  0  0  0
  4115  1  0  0  0  0
  5 71  1  0  0  0  0
  5116  1  0  0  0  0
  5117  1  0  0  0  0
  5118  1  0  0  0  0
  6 71  1  0  0  0  0
  6119  1  0  0  0  0
  6120  1  0  0  0  0
  6121  1  0  0  0  0
  7 71  1  0  0  0  0
  7122  1  0  0  0  0
  7123  1  0  0  0  0
  7124  1  0  0  0  0
  8  9  1  0  0  0  0
  8125  1  0  0  0  0
  8126  1  0  0  0  0
  9 10  1  0  0  0  0
  9127  1  0  0  0  0
  9128  1  0  0  0  0
 10 28  1  0  0  0  0
 10129  1  0  0  0  0
 10130  1  0  0  0  0
 11 13  1  0  0  0  0
 11 37  2  0  0  0  0
 11131  1  0  0  0  0
 12 14  2  0  0  0  0
 12 37  1  0  0  0  0
 12132  1  0  0  0  0
 13 38  2  0  0  0  0
 13133  1  0  0  0  0
 14 38  1  0  0  0  0
 14134  1  0  0  0  0
 15 17  1  0  0  0  0
 15 39  2  0  0  0  0
 15135  1  0  0  0  0
 16 18  2  0  0  0  0
 16 39  1  0  0  0  0
 16136  1  0  0  0  0
 17 42  2  0  0  0  0
 17137  1  0  0  0  0
 18 42  1  0  0  0  0
 18138  1  0  0  0  0
 19 23  1  0  0  0  0
 19 41  2  0  0  0  0
 19139  1  0  0  0  0
 20 24  2  0  0  0  0
 20 41  1  0  0  0  0
 20140  1  0  0  0  0
 21 25  1  0  0  0  0
 21 40  2  0  0  0  0
 21141  1  0  0  0  0
 22 26  2  0  0  0  0
 22 40  1  0  0  0  0
 22142  1  0  0  0  0
 23 43  2  0  0  0  0
 23143  1  0  0  0  0
 24 43  1  0  0  0  0
 24144  1  0  0  0  0
 25 45  2  0  0  0  0
 25145  1  0  0  0  0
 26 45  1  0  0  0  0
 26146  1  0  0  0  0
 27 29  1  0  0  0  0
 27 71  1  0  0  0  0
 27147  1  0  0  0  0
 27148  1  0  0  0  0
 28 87  1  0  0  0  0
 28149  1  0  0  0  0
 28150  1  0  0  0  0
 29 88  1  0  0  0  0
 29151  1  0  0  0  0
 29152  1  0  0  0  0
 30153  1  0  0  0  0
 30154  1  0  0  0  0
 31155  1  0  0  0  0
 31156  1  0  0  0  0
 32 70  1  0  0  0  0
 32157  1  0  0  0  0
 32158  1  0  0  0  0
 33 69  1  0  0  0  0
 33159  1  0  0  0  0
 33160  1  0  0  0  0
 34  2  1  0  0  0  0
 34 32  1  0  0  0  0
 34 89  1  6  0  0  0
 35 72  1  0  0  0  0
 35 90  1  1  0  0  0
 35  3  1  0  0  0  0
 36 73  1  0  0  0  0
 36 91  1  6  0  0  0
 36  4  1  0  0  0  0
 37 39  1  0  0  0  0
 38 40  1  0  0  0  0
 42 56  1  0  0  0  0
 43 74  1  0  0  0  0
 44 30  1  0  0  0  0
 44 33  1  0  0  0  0
 44 92  1  6  0  0  0
 44 75  1  0  0  0  0
 45 87  1  0  0  0  0
 46 31  1  0  0  0  0
 46 93  1  6  0  0  0
 46 57  1  0  0  0  0
 46 64  1  0  0  0  0
 47 30  1  0  0  0  0
 47 94  1  1  0  0  0
 47 58  1  0  0  0  0
 47 69  1  0  0  0  0
 48 31  1  0  0  0  0
 48 61  1  0  0  0  0
 48 76  1  0  0  0  0
 48 95  1  6  0  0  0
 49 62  1  0  0  0  0
 49 65  1  0  0  0  0
 49 96  1  6  0  0  0
 49 35  1  0  0  0  0
 50 63  1  0  0  0  0
 50 66  1  0  0  0  0
 50 97  1  1  0  0  0
 50 36  1  0  0  0  0
 51 98  1  6  0  0  0
 51 59  1  0  0  0  0
 51 67  1  0  0  0  0
 52 99  1  6  0  0  0
 52 60  1  0  0  0  0
 52 70  1  0  0  0  0
 53 34  1  0  0  0  0
 53 52  1  0  0  0  0
 53 77  1  0  0  0  0
 53100  1  6  0  0  0
 54 41  1  0  0  0  0
 54101  1  1  0  0  0
 54 78  1  0  0  0  0
 55102  1  1  0  0  0
 55 79  1  0  0  0  0
 55 54  1  0  0  0  0
 55 51  1  0  0  0  0
 56 64  2  0  0  0  0
 56 80  1  0  0  0  0
 57 65  2  0  0  0  0
 57 81  1  0  0  0  0
 58 67  2  0  0  0  0
 58 82  1  0  0  0  0
 59 66  2  0  0  0  0
 59 83  1  0  0  0  0
 60 68  2  0  0  0  0
 60 84  1  0  0  0  0
 61 68  1  0  0  0  0
 61 88  1  0  0  0  0
 61103  1  1  0  0  0
 62 69  1  0  0  0  0
 62 85  2  0  0  0  0
 63 70  1  0  0  0  0
 63 86  2  0  0  0  0
 72161  1  0  0  0  0
 73162  1  0  0  0  0
 74163  1  0  0  0  0
 75164  1  0  0  0  0
 76165  1  0  0  0  0
 77166  1  0  0  0  0
 78167  1  0  0  0  0
 79168  1  0  0  0  0
 80169  1  0  0  0  0
 81170  1  0  0  0  0
 82171  1  0  0  0  0
 83172  1  0  0  0  0
 84173  1  0  0  0  0
M  CHG  1  71   1
M  END
>  <DRUGBANK_ID>
DB16310

>  <COMMON_NAME>
Rezafungin

>  <CAS_NUMBER>
1396640-59-7

>  <UNII>
G013B5478J

>  <SYNONYMS>
Biafungin; Echinocandin B, 1-((4R,5R)-4-hydroxy-N2-((4''-(pentyloxy)(1,1':4',1''-terphenyl)-4-yl)carbonyl)-5-(2-(trimethylammonio)ethoxy)-l-ornithine)-4-((4S)-4-hydroxy-4-(4-hydroxyphenyl)-l-allothreonine)-; Rezafungin; Rezafungin cation; Rezafungin ion

$$$$
