
 OpenBabel10282417183D

 53 54  0  0  0  0  0  0  0  0999 V2000
    1.3256   -0.1706    0.3190 C   0  0  0  0  0  0  0  0  0  0  0  0
    0.5483   -1.3252    0.0637 C   0  0  0  0  0  0  0  0  0  0  0  0
    1.0719   -2.6480    0.0872 N   0  0  0  0  0  0  0  0  0  0  0  0
    2.2642   -3.0124   -0.2675 C   0  0  0  0  0  0  0  0  0  0  0  0
    3.1503   -2.1295   -0.8283 N   0  0  0  0  0  0  0  0  0  0  0  0
    4.4310   -1.9245   -0.5632 C   0  0  0  0  0  0  0  0  0  0  0  0
    4.5931   -0.5672   -0.5828 O   0  0  0  0  0  0  0  0  0  0  0  0
    4.6084    1.2690   -0.7135 C   0  0  0  0  0  0  0  0  0  0  0  0
    5.2454   -2.8053   -0.2152 O   0  0  0  0  0  0  0  0  0  0  0  0
    2.7190   -4.2958   -0.1253 N   0  0  0  0  0  0  0  0  0  0  0  0
    1.8674   -5.3787   -0.1358 C   0  0  0  0  0  0  0  0  0  0  0  0
    2.4465   -6.6122   -0.1845 O   0  0  0  0  0  0  0  0  0  0  0  0
    3.8575   -6.8414   -0.2108 C   0  0  0  0  0  0  0  0  0  0  0  0
    0.6451   -5.3086   -0.1428 O   0  0  0  0  0  0  0  0  0  0  0  0
   -0.8374   -1.1488   -0.0788 C   0  0  0  0  0  0  0  0  0  0  0  0
   -1.4127    0.1304   -0.0836 C   0  0  0  0  0  0  0  0  0  0  0  0
   -0.6045    1.2597   -0.0158 C   0  0  0  0  0  0  0  0  0  0  0  0
    0.7837    1.0876    0.0223 C   0  0  0  0  0  0  0  0  0  0  0  0
   -1.1913    2.9230    0.2436 S   0  0  0  0  0  0  0  0  0  0  0  0
   -2.9363    2.7882    0.5455 C   0  0  0  0  0  0  0  0  0  0  0  0
   -3.4947    2.0011    1.5614 C   0  0  0  0  0  0  0  0  0  0  0  0
   -4.8768    1.9891    1.7632 C   0  0  0  0  0  0  0  0  0  0  0  0
   -5.6971    2.8102    0.9923 C   0  0  0  0  0  0  0  0  0  0  0  0
   -5.1390    3.6382    0.0212 C   0  0  0  0  0  0  0  0  0  0  0  0
   -3.7725    3.5830   -0.2399 C   0  0  0  0  0  0  0  0  0  0  0  0
    2.6301   -0.3890    0.9367 N   0  0  0  0  0  0  0  0  0  0  0  0
    3.6130    0.5353    1.2914 C   0  0  0  0  0  0  0  0  0  0  0  0
    5.4742    0.0721    1.1385 C   0  0  0  0  0  0  0  0  0  0  0  0
    6.5569    0.0861   -0.2958 O   0  0  0  0  0  0  0  0  0  0  0  0
    6.1201   -0.0124   -1.9974 C   0  0  0  0  0  0  0  0  0  0  0  0
    3.2099    1.7141    1.3397 O   0  0  0  0  0  0  0  0  0  0  0  0
    2.8325   -1.1782   -0.8855 H   0  0  0  0  0  0  0  0  0  0  0  0
    3.7449    1.4760   -1.2801 H   0  0  0  0  0  0  0  0  0  0  0  0
    4.7762    1.7793    0.2554 H   0  0  0  0  0  0  0  0  0  0  0  0
    5.6049    1.7076   -0.9716 H   0  0  0  0  0  0  0  0  0  0  0  0
    3.7179   -4.4352   -0.1693 H   0  0  0  0  0  0  0  0  0  0  0  0
    4.3035   -6.3928   -1.1023 H   0  0  0  0  0  0  0  0  0  0  0  0
    4.3147   -6.4635    0.7062 H   0  0  0  0  0  0  0  0  0  0  0  0
    4.0083   -7.9239   -0.2559 H   0  0  0  0  0  0  0  0  0  0  0  0
   -1.5007   -2.0120   -0.0881 H   0  0  0  0  0  0  0  0  0  0  0  0
   -2.4944    0.2223   -0.1251 H   0  0  0  0  0  0  0  0  0  0  0  0
    1.3962    1.9784   -0.0790 H   0  0  0  0  0  0  0  0  0  0  0  0
   -2.8661    1.3708    2.1866 H   0  0  0  0  0  0  0  0  0  0  0  0
   -5.3100    1.3585    2.5358 H   0  0  0  0  0  0  0  0  0  0  0  0
   -6.7724    2.8105    1.1481 H   0  0  0  0  0  0  0  0  0  0  0  0
   -5.7627    4.3387   -0.5256 H   0  0  0  0  0  0  0  0  0  0  0  0
   -3.3573    4.1719   -1.0547 H   0  0  0  0  0  0  0  0  0  0  0  0
    2.8050   -1.3509    1.1816 H   0  0  0  0  0  0  0  0  0  0  0  0
    6.0185    0.7488    1.8112 H   0  0  0  0  0  0  0  0  0  0  0  0
    5.5778   -0.9544    1.5080 H   0  0  0  0  0  0  0  0  0  0  0  0
    6.1716   -1.0448   -2.3308 H   0  0  0  0  0  0  0  0  0  0  0  0
    5.0566    0.2476   -2.3161 H   0  0  0  0  0  0  0  0  0  0  0  0
    6.6582    0.7329   -2.6050 H   0  0  0  0  0  0  0  0  0  0  0  0
  1  2  2  0  0  0  0
  1 18  1  0  0  0  0
  1 26  1  0  0  0  0
  2  3  1  0  0  0  0
  2 15  1  0  0  0  0
  3  4  2  0  0  0  0
  4  5  1  0  0  0  0
  4 10  1  0  0  0  0
  5  6  1  0  0  0  0
  5 32  1  0  0  0  0
  6  7  1  0  0  0  0
  6  9  2  0  0  0  0
  7  8  1  0  0  0  0
  8 33  1  0  0  0  0
  8 34  1  0  0  0  0
  8 35  1  0  0  0  0
 10 11  1  0  0  0  0
 10 36  1  0  0  0  0
 11 12  1  0  0  0  0
 11 14  2  0  0  0  0
 12 13  1  0  0  0  0
 13 37  1  0  0  0  0
 13 38  1  0  0  0  0
 13 39  1  0  0  0  0
 15 16  2  0  0  0  0
 15 40  1  0  0  0  0
 16 17  1  0  0  0  0
 16 41  1  0  0  0  0
 17 18  2  0  0  0  0
 17 19  1  0  0  0  0
 18 42  1  0  0  0  0
 19 20  1  0  0  0  0
 20 21  2  0  0  0  0
 20 25  1  0  0  0  0
 21 22  1  0  0  0  0
 21 43  1  0  0  0  0
 22 23  2  0  0  0  0
 22 44  1  0  0  0  0
 23 24  1  0  0  0  0
 23 45  1  0  0  0  0
 24 25  2  0  0  0  0
 24 46  1  0  0  0  0
 25 47  1  0  0  0  0
 26 27  1  0  0  0  0
 26 48  1  0  0  0  0
 27 28  1  0  0  0  0
 27 31  2  0  0  0  0
 28 29  1  0  0  0  0
 28 49  1  0  0  0  0
 28 50  1  0  0  0  0
 29 30  1  0  0  0  0
 30 51  1  0  0  0  0
 30 52  1  0  0  0  0
 30 53  1  0  0  0  0
M  END
>  <DRUGBANK_ID>
DB11409

>  <COMMON_NAME>
Febantel

>  <CAS_NUMBER>
58306-30-2

>  <UNII>
S75C401OS1

>  <SYNONYMS>
Febantel; Febantelum

$$$$
