
 OpenBabel10282417113D

 64 68  0  0  0  0  0  0  0  0999 V2000
    5.3060    1.4605   -1.9248 F   0  0  0  0  0  0  0  0  0  0  0  0
    5.3007   -3.2670    5.3519 O   0  0  0  0  0  0  0  0  0  0  0  0
    5.1299   -1.3009    6.6464 O   0  0  0  0  0  0  0  0  0  0  0  0
    2.5842   -2.3355    1.0103 O   0  0  0  0  0  0  0  0  0  0  0  0
    7.7065   -2.1342    2.9010 O   0  0  0  0  0  0  0  0  0  0  0  0
    8.8087   -1.3166    5.8223 O   0  0  0  0  0  0  0  0  0  0  0  0
    1.6097    4.2192   -2.2813 O   0  0  0  0  0  0  0  0  0  0  0  0
    5.5795   -0.4790    2.8237 C   0  0  2  0  0  0  0  0  0  0  0  0
    4.9739   -1.9453    3.1710 C   0  0  1  0  0  0  0  0  0  0  0  0
    4.8153   -0.1361    1.4384 C   0  0  1  0  0  0  0  0  0  0  0  0
    5.7026   -2.1978    4.5248 C   0  0  1  0  0  0  0  0  0  0  0  0
    3.3354    0.1641    1.5395 C   0  0  1  0  0  0  0  0  0  0  0  0
    5.1808   -0.9675    5.2709 C   0  0  1  0  0  0  0  0  0  0  0  0
    2.7265    1.2463    0.3250 C   0  0  2  0  0  0  0  0  0  0  0  0
    5.8750    0.1036    4.4507 C   0  0  0  0  0  0  0  0  0  0  0  0
    2.6794   -1.2924    1.9724 C   0  0  2  0  0  0  0  0  0  0  0  0
    3.3905   -1.7990    3.2544 C   0  0  0  0  0  0  0  0  0  0  0  0
    5.3829    0.7702    0.3889 C   0  0  0  0  0  0  0  0  0  0  0  0
    7.3118   -2.2638    4.0739 C   0  0  0  0  0  0  0  0  0  0  0  0
    2.9956    1.0458   -1.1228 C   0  0  0  0  0  0  0  0  0  0  0  0
    5.3302   -2.7321    6.6978 C   0  0  0  0  0  0  0  0  0  0  0  0
    5.2658   -3.1365    2.2259 C   0  0  0  0  0  0  0  0  0  0  0  0
    4.5592    0.6946   -1.0792 C   0  0  1  0  0  0  0  0  0  0  0  0
    3.6141    2.8962   -0.0531 C   0  0  0  0  0  0  0  0  0  0  0  0
    1.1904    0.6803    0.3281 C   0  0  0  0  0  0  0  0  0  0  0  0
    2.0774    1.8709   -1.8234 C   0  0  0  0  0  0  0  0  0  0  0  0
    8.4583   -2.4298    5.0279 C   0  0  0  0  0  0  0  0  0  0  0  0
    3.7562    3.5265   -1.6455 C   0  0  0  0  0  0  0  0  0  0  0  0
    4.4545   -3.5941    7.6060 C   0  0  0  0  0  0  0  0  0  0  0  0
    6.6776   -2.8185    7.3786 C   0  0  0  0  0  0  0  0  0  0  0  0
    2.3864    3.3371   -2.0641 C   0  0  0  0  0  0  0  0  0  0  0  0
    3.4194   -2.5274    0.5687 H   0  0  0  0  0  0  0  0  0  0  0  0
    8.8012   -0.5139    5.2747 H   0  0  0  0  0  0  0  0  0  0  0  0
    6.6071   -0.4483    2.4571 H   0  0  0  0  0  0  0  0  0  0  0  0
    4.9220   -1.0631    0.8659 H   0  0  0  0  0  0  0  0  0  0  0  0
    3.1555    0.7588    2.4405 H   0  0  0  0  0  0  0  0  0  0  0  0
    4.1647   -0.6013    5.1732 H   0  0  0  0  0  0  0  0  0  0  0  0
    5.6966    1.1322    4.7757 H   0  0  0  0  0  0  0  0  0  0  0  0
    6.9201   -0.0447    4.7768 H   0  0  0  0  0  0  0  0  0  0  0  0
    1.6386   -1.1583    2.2924 H   0  0  0  0  0  0  0  0  0  0  0  0
    2.9602   -2.7247    3.6548 H   0  0  0  0  0  0  0  0  0  0  0  0
    3.0602   -1.0276    3.9516 H   0  0  0  0  0  0  0  0  0  0  0  0
    6.4405    0.6226    0.1763 H   0  0  0  0  0  0  0  0  0  0  0  0
    5.3718    1.7014    0.9533 H   0  0  0  0  0  0  0  0  0  0  0  0
    4.9434   -3.0033    1.2039 H   0  0  0  0  0  0  0  0  0  0  0  0
    6.3100   -3.3871    2.0769 H   0  0  0  0  0  0  0  0  0  0  0  0
    4.7955   -4.0399    2.6232 H   0  0  0  0  0  0  0  0  0  0  0  0
    4.6238   -0.3164   -1.4829 H   0  0  0  0  0  0  0  0  0  0  0  0
    4.7069    2.8589    0.0117 H   0  0  0  0  0  0  0  0  0  0  0  0
    3.3774    3.7051    0.6342 H   0  0  0  0  0  0  0  0  0  0  0  0
    0.5140    1.1629    1.0258 H   0  0  0  0  0  0  0  0  0  0  0  0
    0.6826    0.4803   -0.6347 H   0  0  0  0  0  0  0  0  0  0  0  0
    1.1697   -0.3875    0.5844 H   0  0  0  0  0  0  0  0  0  0  0  0
    1.0689    2.0909   -1.3976 H   0  0  0  0  0  0  0  0  0  0  0  0
    8.2886   -3.3419    5.5951 H   0  0  0  0  0  0  0  0  0  0  0  0
    9.3429   -2.6441    4.4201 H   0  0  0  0  0  0  0  0  0  0  0  0
    4.2722    2.9614   -2.4476 H   0  0  0  0  0  0  0  0  0  0  0  0
    4.1537    4.5359   -1.7753 H   0  0  0  0  0  0  0  0  0  0  0  0
    4.8498   -4.6254    7.6065 H   0  0  0  0  0  0  0  0  0  0  0  0
    4.4883   -3.2368    8.6413 H   0  0  0  0  0  0  0  0  0  0  0  0
    3.4139   -3.6598    7.2903 H   0  0  0  0  0  0  0  0  0  0  0  0
    7.2919   -2.0665    6.9342 H   0  0  0  0  0  0  0  0  0  0  0  0
    6.6532   -2.4704    8.4144 H   0  0  0  0  0  0  0  0  0  0  0  0
    7.1335   -3.8064    7.3098 H   0  0  0  0  0  0  0  0  0  0  0  0
  2 11  1  0  0  0  0
  2 21  1  0  0  0  0
  3 13  1  0  0  0  0
  3 21  1  0  0  0  0
  4 32  1  0  0  0  0
  5 19  2  0  0  0  0
  6 27  1  0  0  0  0
  6 33  1  0  0  0  0
  7 31  2  0  0  0  0
  8  9  1  0  0  0  0
  8 10  1  0  0  0  0
  8 15  1  0  0  0  0
  8 34  1  1  0  0  0
  9 11  1  0  0  0  0
  9 17  1  0  0  0  0
  9 22  1  6  0  0  0
 10 12  1  0  0  0  0
 10 18  1  0  0  0  0
 10 35  1  6  0  0  0
 11 13  1  0  0  0  0
 11 19  1  6  0  0  0
 12 14  1  0  0  0  0
 12 16  1  0  0  0  0
 12 36  1  1  0  0  0
 13 15  1  0  0  0  0
 13 37  1  1  0  0  0
 14 20  1  0  0  0  0
 14 24  1  0  0  0  0
 14 25  1  1  0  0  0
 15 38  1  0  0  0  0
 15 39  1  0  0  0  0
 16  4  1  0  0  0  0
 16 17  1  0  0  0  0
 16 40  1  1  0  0  0
 17 41  1  0  0  0  0
 17 42  1  0  0  0  0
 18 23  1  0  0  0  0
 18 43  1  0  0  0  0
 18 44  1  0  0  0  0
 19 27  1  0  0  0  0
 20 23  1  0  0  0  0
 20 26  2  0  0  0  0
 21 29  1  0  0  0  0
 21 30  1  0  0  0  0
 22 45  1  0  0  0  0
 22 46  1  0  0  0  0
 22 47  1  0  0  0  0
 23  1  1  0  0  0  0
 23 48  1  6  0  0  0
 24 28  1  0  0  0  0
 24 49  1  0  0  0  0
 24 50  1  0  0  0  0
 25 51  1  0  0  0  0
 25 52  1  0  0  0  0
 25 53  1  0  0  0  0
 26 31  1  0  0  0  0
 26 54  1  0  0  0  0
 27 55  1  0  0  0  0
 27 56  1  0  0  0  0
 28 31  1  0  0  0  0
 28 57  1  0  0  0  0
 28 58  1  0  0  0  0
 29 59  1  0  0  0  0
 29 60  1  0  0  0  0
 29 61  1  0  0  0  0
 30 62  1  0  0  0  0
 30 63  1  0  0  0  0
 30 64  1  0  0  0  0
M  END
>  <DRUGBANK_ID>
DB00846

>  <SECONDARY_ACCESSION_NUMBERS>
APRD00982

>  <COMMON_NAME>
Flurandrenolide

>  <CAS_NUMBER>
1524-88-5

>  <UNII>
8EUL29XUQT

>  <SYNONYMS>
Fludroxicortida; Fludroxicortide; Fludroxycortid; Fludroxycortide; Fludroxycortidum; Flurandrenolide; Flurandrenolone

$$$$
