
 OpenBabel10282417143D

 29 31  0  0  0  0  0  0  0  0999 V2000
    0.9278    0.1242    0.0198 C   0  0  0  0  0  0  0  0  0  0  0  0
    0.5045   -1.3266    0.0213 C   0  0  0  0  0  0  0  0  0  0  0  0
   -0.7836   -1.6645   -0.0853 C   0  0  0  0  0  0  0  0  0  0  0  0
   -1.2354   -3.0627   -0.1259 C   0  0  0  0  0  0  0  0  0  0  0  0
   -2.4431   -3.3024   -0.2123 O   0  0  0  0  0  0  0  0  0  0  0  0
   -0.2578   -4.0697   -0.0618 O   0  0  0  0  0  0  0  0  0  0  0  0
    1.1452   -3.7750   -0.0110 C   0  0  0  0  0  0  0  0  0  0  0  0
    1.4818   -2.4125    0.0696 C   0  0  0  0  0  0  0  0  0  0  0  0
    2.8109   -2.0734    0.1524 C   0  0  0  0  0  0  0  0  0  0  0  0
    3.7745   -3.0143   -0.1311 C   0  0  0  0  0  0  0  0  0  0  0  0
    5.1289   -2.8234   -0.3789 C   0  0  0  0  0  0  0  0  0  0  0  0
    5.6488   -4.0612   -0.6050 C   0  0  0  0  0  0  0  0  0  0  0  0
    4.6653   -5.0324   -0.4828 O   0  0  0  0  0  0  0  0  0  0  0  0
    3.4608   -4.3627   -0.2249 C   0  0  0  0  0  0  0  0  0  0  0  0
    2.1271   -4.8412   -0.0539 C   0  0  0  0  0  0  0  0  0  0  0  0
    1.7809   -6.2988    0.1251 C   0  0  0  0  0  0  0  0  0  0  0  0
    7.0613   -4.3418   -0.9351 C   0  0  0  0  0  0  0  0  0  0  0  0
    0.5961    0.6156    0.9382 H   0  0  0  0  0  0  0  0  0  0  0  0
    0.5244    0.6476   -0.8517 H   0  0  0  0  0  0  0  0  0  0  0  0
    2.0027    0.3038   -0.0413 H   0  0  0  0  0  0  0  0  0  0  0  0
   -1.5521   -0.8995   -0.1467 H   0  0  0  0  0  0  0  0  0  0  0  0
    3.1766   -1.0766    0.3212 H   0  0  0  0  0  0  0  0  0  0  0  0
    5.6504   -1.8783   -0.4208 H   0  0  0  0  0  0  0  0  0  0  0  0
    2.0992   -6.9103   -0.7252 H   0  0  0  0  0  0  0  0  0  0  0  0
    2.2817   -6.6939    1.0208 H   0  0  0  0  0  0  0  0  0  0  0  0
    0.7084   -6.4694    0.2793 H   0  0  0  0  0  0  0  0  0  0  0  0
    7.3335   -3.7903   -1.8474 H   0  0  0  0  0  0  0  0  0  0  0  0
    7.6979   -3.9204   -0.1435 H   0  0  0  0  0  0  0  0  0  0  0  0
    7.2996   -5.3926   -1.0668 H   0  0  0  0  0  0  0  0  0  0  0  0
  1  2  1  0  0  0  0
  1 18  1  0  0  0  0
  1 19  1  0  0  0  0
  1 20  1  0  0  0  0
  2  3  2  0  0  0  0
  2  8  1  0  0  0  0
  3  4  1  0  0  0  0
  3 21  1  0  0  0  0
  4  5  2  0  0  0  0
  4  6  1  0  0  0  0
  6  7  1  0  0  0  0
  7  8  2  0  0  0  0
  7 15  1  0  0  0  0
  8  9  1  0  0  0  0
  9 10  2  0  0  0  0
  9 22  1  0  0  0  0
 10 11  1  0  0  0  0
 10 14  1  0  0  0  0
 11 12  2  0  0  0  0
 11 23  1  0  0  0  0
 12 13  1  0  0  0  0
 12 17  1  0  0  0  0
 13 14  1  0  0  0  0
 14 15  2  0  0  0  0
 15 16  1  0  0  0  0
 16 24  1  0  0  0  0
 16 25  1  0  0  0  0
 16 26  1  0  0  0  0
 17 27  1  0  0  0  0
 17 28  1  0  0  0  0
 17 29  1  0  0  0  0
M  END
>  <DRUGBANK_ID>
DB04571

>  <COMMON_NAME>
Trioxsalen

>  <CAS_NUMBER>
3902-71-4

>  <UNII>
Y6UY8OV51T

>  <SYNONYMS>
2',4,8-Trimethylpsoralen; 4,5',8-Trimethylpsoralen; 4,8,5'-Trimethylpsoralen; 6-hydroxy-β,2,7-trimethyl-5-benzofuranacrylic acid, δ-lactone; Trimethylpsoralen; Trioxisaleno; Trioxsalen; Trioxysalen; Trioxysalene; Trioxysalenum; Trisoralen

$$$$
