VGH
 OpenBabel10282417173D

 52 55  0  0  0  0  0  0  0  0999 V2000
    3.1343    0.4092    0.1006 Cl  0  0  0  0  0  0  0  0  0  0  0  0
    1.5074   -0.1290   -0.1439 C   0  0  0  0  0  0  0  0  0  0  0  0
    1.3080   -1.5167   -0.0668 C   0  0  0  0  0  0  0  0  0  0  0  0
    0.0285   -2.0426   -0.1711 C   0  0  0  0  0  0  0  0  0  0  0  0
   -1.0085   -1.2046   -0.5350 C   0  0  0  0  0  0  0  0  0  0  0  0
   -2.2609   -1.6827   -0.4675 F   0  0  0  0  0  0  0  0  0  0  0  0
    0.4315    0.7561   -0.4034 C   0  0  0  0  0  0  0  0  0  0  0  0
   -0.7963    0.1568   -0.7829 C   0  0  0  0  0  0  0  0  0  0  0  0
   -2.1668    0.9998   -1.4264 Cl  0  0  0  0  0  0  0  0  0  0  0  0
    0.5680    2.2617   -0.1086 C   0  0  1  0  0  0  0  0  0  0  0  0
    0.1491    3.1239   -1.2958 C   0  0  0  0  0  0  0  0  0  0  0  0
    0.1129    2.7380    1.2077 O   0  0  0  0  0  0  0  0  0  0  0  0
   -1.2324    2.7668    1.4709 C   0  0  0  0  0  0  0  0  0  0  0  0
   -1.8838    3.9828    1.6467 C   0  0  0  0  0  0  0  0  0  0  0  0
   -1.9860    1.6057    1.6649 C   0  0  0  0  0  0  0  0  0  0  0  0
   -1.4279    0.3924    2.0169 N   0  0  0  0  0  0  0  0  0  0  0  0
   -3.3292    1.5765    1.6647 N   0  0  0  0  0  0  0  0  0  0  0  0
   -3.9466    2.7579    1.6667 C   0  0  0  0  0  0  0  0  0  0  0  0
   -3.2791    3.9801    1.7594 C   0  0  0  0  0  0  0  0  0  0  0  0
   -4.0287    5.1242    2.1727 C   0  0  0  0  0  0  0  0  0  0  0  0
   -4.2352    6.4409    1.7531 C   0  0  0  0  0  0  0  0  0  0  0  0
   -4.7981    5.0210    3.3112 C   0  0  0  0  0  0  0  0  0  0  0  0
   -5.4331    6.2059    3.4902 N   0  0  0  0  0  0  0  0  0  0  0  0
   -5.0977    7.1080    2.5401 N   0  0  0  0  0  0  0  0  0  0  0  0
   -6.3689    6.5288    4.5724 C   0  0  0  0  0  0  0  0  0  0  0  0
   -5.6980    6.4601    5.9529 C   0  0  0  0  0  0  0  0  0  0  0  0
   -5.4162    5.0226    6.3897 C   0  0  0  0  0  0  0  0  0  0  0  0
   -6.6040    4.1720    6.3023 N   0  0  0  0  0  0  0  0  0  0  0  0
   -7.3075    4.2027    5.0197 C   0  0  0  0  0  0  0  0  0  0  0  0
   -7.6147    5.6274    4.5589 C   0  0  0  0  0  0  0  0  0  0  0  0
    1.6401    2.4774   -0.0348 H   0  0  0  0  0  0  0  0  0  0  0  0
    2.1395   -2.1874    0.1404 H   0  0  0  0  0  0  0  0  0  0  0  0
   -0.1779   -3.0871    0.0362 H   0  0  0  0  0  0  0  0  0  0  0  0
   -0.9314    3.2020   -1.3926 H   0  0  0  0  0  0  0  0  0  0  0  0
    0.5070    4.1507   -1.1968 H   0  0  0  0  0  0  0  0  0  0  0  0
    0.5562    2.6982   -2.2224 H   0  0  0  0  0  0  0  0  0  0  0  0
   -1.3250    4.9054    1.7651 H   0  0  0  0  0  0  0  0  0  0  0  0
   -2.0956   -0.3039    1.6855 H   0  0  0  0  0  0  0  0  0  0  0  0
   -0.4742    0.2769    1.7199 H   0  0  0  0  0  0  0  0  0  0  0  0
   -5.0341    2.6942    1.6938 H   0  0  0  0  0  0  0  0  0  0  0  0
   -3.8047    6.9367    0.8925 H   0  0  0  0  0  0  0  0  0  0  0  0
   -4.8997    4.1749    3.9536 H   0  0  0  0  0  0  0  0  0  0  0  0
   -6.6901    7.5645    4.3920 H   0  0  0  0  0  0  0  0  0  0  0  0
   -4.7678    7.0411    5.9562 H   0  0  0  0  0  0  0  0  0  0  0  0
   -6.3602    6.9206    6.6985 H   0  0  0  0  0  0  0  0  0  0  0  0
   -4.5805    4.5974    5.8288 H   0  0  0  0  0  0  0  0  0  0  0  0
   -5.0537    5.0237    7.4230 H   0  0  0  0  0  0  0  0  0  0  0  0
   -6.3435    3.2085    6.5201 H   0  0  0  0  0  0  0  0  0  0  0  0
   -8.2448    3.6440    5.1149 H   0  0  0  0  0  0  0  0  0  0  0  0
   -6.7597    3.6512    4.2517 H   0  0  0  0  0  0  0  0  0  0  0  0
   -8.3702    6.0488    5.2362 H   0  0  0  0  0  0  0  0  0  0  0  0
   -8.0656    5.6082    3.5593 H   0  0  0  0  0  0  0  0  0  0  0  0
  1  2  1  0  0  0  0
  2  3  1  0  0  0  0
  2  7  2  0  0  0  0
  3  4  2  0  0  0  0
  3 32  1  0  0  0  0
  4  5  1  0  0  0  0
  4 33  1  0  0  0  0
  5  6  1  0  0  0  0
  5  8  2  0  0  0  0
  7  8  1  0  0  0  0
  7 10  1  0  0  0  0
  8  9  1  0  0  0  0
 10 11  1  0  0  0  0
 10 12  1  0  0  0  0
 10 31  1  1  0  0  0
 11 34  1  0  0  0  0
 11 35  1  0  0  0  0
 11 36  1  0  0  0  0
 12 13  1  0  0  0  0
 13 14  2  0  0  0  0
 13 15  1  0  0  0  0
 14 19  1  0  0  0  0
 14 37  1  0  0  0  0
 15 16  1  0  0  0  0
 15 17  2  0  0  0  0
 16 38  1  0  0  0  0
 16 39  1  0  0  0  0
 17 18  1  0  0  0  0
 18 19  2  0  0  0  0
 18 40  1  0  0  0  0
 19 20  1  0  0  0  0
 20 21  1  0  0  0  0
 20 22  2  0  0  0  0
 21 24  2  0  0  0  0
 21 41  1  0  0  0  0
 22 23  1  0  0  0  0
 22 42  1  0  0  0  0
 23 24  1  0  0  0  0
 23 25  1  0  0  0  0
 25 26  1  0  0  0  0
 25 30  1  0  0  0  0
 25 43  1  0  0  0  0
 26 27  1  0  0  0  0
 26 44  1  0  0  0  0
 26 45  1  0  0  0  0
 27 28  1  0  0  0  0
 27 46  1  0  0  0  0
 27 47  1  0  0  0  0
 28 29  1  0  0  0  0
 28 48  1  0  0  0  0
 29 30  1  0  0  0  0
 29 49  1  0  0  0  0
 29 50  1  0  0  0  0
 30 51  1  0  0  0  0
 30 52  1  0  0  0  0
M  END
>  <DRUGBANK_ID>
DB08865

>  <SECONDARY_ACCESSION_NUMBERS>
DB08700

>  <COMMON_NAME>
Crizotinib

>  <CAS_NUMBER>
877399-52-5

>  <UNII>
53AH36668S

>  <SYNONYMS>
(R)-crizotinib; Crizotinib; Crizotinibum

$$$$
