
 OpenBabel10282417193D

 44 46  0  0  0  0  0  0  0  0999 V2000
   -0.1156    1.1023    0.0236 C   0  0  0  0  0  0  0  0  0  0  0  0
   -1.2711    0.2767    0.0071 C   0  0  0  0  0  0  0  0  0  0  0  0
    1.1460    0.4251    0.0058 C   0  0  0  0  0  0  0  0  0  0  0  0
   -1.1665   -1.1306   -0.0020 C   0  0  0  0  0  0  0  0  0  0  0  0
    1.2039   -0.9951    0.0002 C   0  0  0  0  0  0  0  0  0  0  0  0
    0.0551   -1.7671   -0.0022 C   0  0  0  0  0  0  0  0  0  0  0  0
    2.4848    1.1230    0.0098 C   0  0  0  0  0  0  0  0  0  0  0  0
   -2.6903    0.7489   -0.0003 C   0  0  0  0  0  0  0  0  0  0  0  0
   -0.1398    2.5551    0.0256 N   0  0  0  0  0  0  0  0  0  0  0  0
   -1.2223    3.4192    0.1733 C   0  0  0  0  0  0  0  0  0  0  0  0
   -1.0284    4.8878   -0.1270 C   0  0  0  0  0  0  0  0  0  0  0  0
   -1.9226    5.2798   -1.3512 C   0  0  3  0  0  0  0  0  0  0  0  0
   -2.3813    3.1429    0.4839 O   0  0  0  0  0  0  0  0  0  0  0  0
   -3.5436    7.1110   -1.6212 C   0  0  0  0  0  0  0  0  0  0  0  0
   -2.1374    7.6080   -1.8575 C   0  0  0  0  0  0  0  0  0  0  0  0
   -3.3376    5.7751   -0.9284 C   0  0  0  0  0  0  0  0  0  0  0  0
   -1.3245    6.4115   -2.1268 N   0  0  3  0  0  0  0  0  0  0  0  0
   -1.3697    6.0472   -3.5590 C   0  0  0  0  0  0  0  0  0  0  0  0
   -2.1966    4.7877   -3.7031 C   0  0  0  0  0  0  0  0  0  0  0  0
   -2.0485    4.1246   -2.3635 C   0  0  0  0  0  0  0  0  0  0  0  0
   -2.0717   -1.7358   -0.0068 H   0  0  0  0  0  0  0  0  0  0  0  0
    2.1590   -1.5191    0.0025 H   0  0  0  0  0  0  0  0  0  0  0  0
    0.0969   -2.8522   -0.0037 H   0  0  0  0  0  0  0  0  0  0  0  0
    2.6021    1.7420   -0.8834 H   0  0  0  0  0  0  0  0  0  0  0  0
    2.6005    1.7265    0.9137 H   0  0  0  0  0  0  0  0  0  0  0  0
    3.3151    0.4016    0.0037 H   0  0  0  0  0  0  0  0  0  0  0  0
   -2.9000    1.2203    0.9614 H   0  0  0  0  0  0  0  0  0  0  0  0
   -2.8624    1.3701   -0.8841 H   0  0  0  0  0  0  0  0  0  0  0  0
   -3.4240   -0.0586   -0.0549 H   0  0  0  0  0  0  0  0  0  0  0  0
    0.7683    2.9984   -0.0570 H   0  0  0  0  0  0  0  0  0  0  0  0
   -1.3791    5.4084    0.7782 H   0  0  0  0  0  0  0  0  0  0  0  0
    0.0263    5.1501   -0.2393 H   0  0  0  0  0  0  0  0  0  0  0  0
   -4.1305    7.8058   -1.0116 H   0  0  0  0  0  0  0  0  0  0  0  0
   -4.0717    6.9731   -2.5720 H   0  0  0  0  0  0  0  0  0  0  0  0
   -2.0961    8.3502   -2.6634 H   0  0  0  0  0  0  0  0  0  0  0  0
   -1.7593    8.1049   -0.9565 H   0  0  0  0  0  0  0  0  0  0  0  0
   -3.4216    5.9199    0.1545 H   0  0  0  0  0  0  0  0  0  0  0  0
   -4.1396    5.0874   -1.2213 H   0  0  0  0  0  0  0  0  0  0  0  0
   -1.7612    6.8358   -4.2102 H   0  0  0  0  0  0  0  0  0  0  0  0
   -0.3421    5.8478   -3.8827 H   0  0  0  0  0  0  0  0  0  0  0  0
   -3.2486    5.0216   -3.8965 H   0  0  0  0  0  0  0  0  0  0  0  0
   -1.8343    4.1364   -4.5041 H   0  0  0  0  0  0  0  0  0  0  0  0
   -2.9036    3.4696   -2.1606 H   0  0  0  0  0  0  0  0  0  0  0  0
   -1.1458    3.5045   -2.3859 H   0  0  0  0  0  0  0  0  0  0  0  0
  1  2  1  0  0  0  0
  1  3  2  0  0  0  0
  1  9  1  0  0  0  0
  2  4  2  0  0  0  0
  2  8  1  0  0  0  0
  3  5  1  0  0  0  0
  3  7  1  0  0  0  0
  4  6  1  0  0  0  0
  4 21  1  0  0  0  0
  5  6  2  0  0  0  0
  5 22  1  0  0  0  0
  6 23  1  0  0  0  0
  7 24  1  0  0  0  0
  7 25  1  0  0  0  0
  7 26  1  0  0  0  0
  8 27  1  0  0  0  0
  8 28  1  0  0  0  0
  8 29  1  0  0  0  0
  9 10  1  0  0  0  0
  9 30  1  0  0  0  0
 10 11  1  0  0  0  0
 10 13  2  0  0  0  0
 11 12  1  0  0  0  0
 11 31  1  0  0  0  0
 11 32  1  0  0  0  0
 12 20  1  0  0  0  0
 14 15  1  0  0  0  0
 14 16  1  0  0  0  0
 14 33  1  0  0  0  0
 14 34  1  0  0  0  0
 15 17  1  0  0  0  0
 15 35  1  0  0  0  0
 15 36  1  0  0  0  0
 16 12  1  0  0  0  0
 16 37  1  0  0  0  0
 16 38  1  0  0  0  0
 17 18  1  0  0  0  0
 17 12  1  0  0  0  0
 18 19  1  0  0  0  0
 18 39  1  0  0  0  0
 18 40  1  0  0  0  0
 19 20  1  0  0  0  0
 19 41  1  0  0  0  0
 19 42  1  0  0  0  0
 20 43  1  0  0  0  0
 20 44  1  0  0  0  0
M  END
>  <DRUGBANK_ID>
DB12712

>  <COMMON_NAME>
Pilsicainide

>  <CAS_NUMBER>
88069-67-4

>  <UNII>
AV0X7V6CSE

>  <SYNONYMS>
Pilsicainida; Pilsicainide; Pilsica√Ønide; Pilsicainidum; Pilzicainide

$$$$
