
 OpenBabel10282417153D

 35 37  0  0  1  0  0  0  0  0999 V2000
   -2.0489   -0.7605   -0.0111 C   0  0  0  0  0  0  0  0  0  0  0  0
   -2.1396    0.6231   -0.0111 N   0  0  0  0  0  0  0  0  0  0  0  0
   -1.0440    1.4593   -0.0168 C   0  0  0  0  0  0  0  0  0  0  0  0
   -1.1383    2.6816   -0.0034 O   0  0  0  0  0  0  0  0  0  0  0  0
    0.1845    0.7171   -0.0206 C   0  0  0  0  0  0  0  0  0  0  0  0
    0.1520   -0.6665   -0.0390 C   0  0  0  0  0  0  0  0  0  0  0  0
   -0.9488   -1.4571   -0.0316 N   0  0  0  0  0  0  0  0  0  0  0  0
    1.4718   -1.0578   -0.0339 N   0  0  0  0  0  0  0  0  0  0  0  0
    2.1517    0.1218    0.2412 C   0  0  0  0  0  0  0  0  0  0  0  0
    1.4359    1.2073    0.0771 N   0  0  0  0  0  0  0  0  0  0  0  0
    1.9907   -2.4346   -0.0790 C   0  0  1  0  0  0  0  0  0  0  0  0
    2.7460   -3.0688   -1.3361 C   0  0  1  0  0  0  0  0  0  0  0  0
    3.8275   -3.9290   -0.6574 C   0  0  1  0  0  0  0  0  0  0  0  0
    4.0259   -3.3371    0.7592 C   0  0  2  0  0  0  0  0  0  0  0  0
    2.8367   -2.6113    1.0980 O   0  0  0  0  0  0  0  0  0  0  0  0
    5.3460   -2.5068    1.0259 C   0  0  0  0  0  0  0  0  0  0  0  0
    5.4765   -1.1373    0.5750 O   0  0  0  0  0  0  0  0  0  0  0  0
    5.2409   -0.8627   -1.0091 S   0  0  0  0  0  0  0  0  0  0  0  0
    6.1411   -1.6726   -1.8045 O   0  0  0  0  0  0  0  0  0  0  0  0
    3.8478   -0.9656   -1.1919 O   0  0  0  0  0  0  0  0  0  0  0  0
    5.3511    0.6678   -1.4271 O   0  0  0  0  0  0  0  0  0  0  0  0
    3.3470   -5.2748   -0.5894 O   0  0  0  0  0  0  0  0  0  0  0  0
    1.9119   -3.6819   -2.3160 O   0  0  0  0  0  0  0  0  0  0  0  0
   -3.0323   -1.2524    0.0037 H   0  0  0  0  0  0  0  0  0  0  0  0
   -3.0270    1.0985   -0.0019 H   0  0  0  0  0  0  0  0  0  0  0  0
    3.1919    0.1925    0.5115 H   0  0  0  0  0  0  0  0  0  0  0  0
    1.1182   -3.0813    0.0749 H   0  0  0  0  0  0  0  0  0  0  0  0
    3.2880   -2.4701   -2.0536 H   0  0  0  0  0  0  0  0  0  0  0  0
    4.7921   -3.9623   -1.1780 H   0  0  0  0  0  0  0  0  0  0  0  0
    4.0762   -4.1838    1.4649 H   0  0  0  0  0  0  0  0  0  0  0  0
    5.5170   -2.4877    2.1143 H   0  0  0  0  0  0  0  0  0  0  0  0
    6.1860   -3.0689    0.6059 H   0  0  0  0  0  0  0  0  0  0  0  0
    4.5749    0.7306   -2.0600 H   0  0  0  0  0  0  0  0  0  0  0  0
    2.4520   -5.2529   -0.2139 H   0  0  0  0  0  0  0  0  0  0  0  0
    1.5565   -4.5108   -1.9842 H   0  0  0  0  0  0  0  0  0  0  0  0
  1  2  1  0  0  0  0
  1  7  2  0  0  0  0
  1 24  1  0  0  0  0
  2  3  1  0  0  0  0
  2 25  1  0  0  0  0
  3  4  2  0  0  0  0
  3  5  1  0  0  0  0
  5  6  2  0  0  0  0
  5 10  1  0  0  0  0
  6  7  1  0  0  0  0
  6  8  1  0  0  0  0
  8  9  1  0  0  0  0
  9 10  2  0  0  0  0
  9 26  1  0  0  0  0
 11  8  1  0  0  0  0
 11 15  1  0  0  0  0
 11 27  1  1  0  0  0
 12 11  1  0  0  0  0
 12 13  1  0  0  0  0
 12 23  1  0  0  0  0
 12 28  1  6  0  0  0
 13 14  1  0  0  0  0
 13 22  1  0  0  0  0
 13 29  1  6  0  0  0
 14 15  1  0  0  0  0
 14 30  1  1  0  0  0
 14 16  1  0  0  0  0
 16 17  1  0  0  0  0
 16 31  1  0  0  0  0
 16 32  1  0  0  0  0
 17 18  1  0  0  0  0
 18 19  2  0  0  0  0
 18 20  2  0  0  0  0
 18 21  1  0  0  0  0
 21 33  1  0  0  0  0
 22 34  1  0  0  0  0
 23 35  1  0  0  0  0
M  END
>  <DRUGBANK_ID>
DB05973

>  <COMMON_NAME>
Inosine 5'-sulfate

>  <CAS_NUMBER>
70023-32-4

>  <UNII>
SJ1W653O6G

$$$$
