
 OpenBabel10282417143D

 72 73  0  0  1  0  0  0  0  0999 V2000
   -2.9069    4.8493    0.2676 C   0  0  0  0  0  0  0  0  0  0  0  0
   -2.0267    4.3415   -0.8545 C   0  0  0  0  0  0  0  0  0  0  0  0
   -1.1131    5.5442   -1.4551 C   0  0  0  0  0  0  0  0  0  0  0  0
   -1.4541    2.9961   -0.2915 C   0  0  0  0  0  0  0  0  0  0  0  0
   -1.7991    1.4923   -0.3253 C   0  0  2  0  0  0  0  0  0  0  0  0
   -1.0041    0.7099   -1.3167 N   0  0  0  0  0  0  0  0  0  0  0  0
    0.1740    1.4492   -2.2705 S   0  0  0  0  0  0  0  0  0  0  0  0
    0.6631    0.3599   -3.1371 O   0  0  0  0  0  0  0  0  0  0  0  0
   -0.4345    2.5609   -2.9352 O   0  0  0  0  0  0  0  0  0  0  0  0
    1.5890    1.9772   -1.1122 C   0  0  0  0  0  0  0  0  0  0  0  0
    1.3181    2.8522    0.1563 C   0  0  0  0  0  0  0  0  0  0  0  0
    1.1681    2.3809    1.4693 C   0  0  0  0  0  0  0  0  0  0  0  0
    0.6121    3.1879    2.5165 C   0  0  0  0  0  0  0  0  0  0  0  0
    0.1696    4.4807    2.2934 C   0  0  0  0  0  0  0  0  0  0  0  0
    0.4216    5.0085    1.0508 C   0  0  0  0  0  0  0  0  0  0  0  0
    1.0313    4.2198    0.0119 C   0  0  0  0  0  0  0  0  0  0  0  0
   -3.2840    1.3879   -0.2557 C   0  0  0  0  0  0  0  0  0  0  0  0
   -3.8340    1.2271    0.8322 O   0  0  0  0  0  0  0  0  0  0  0  0
   -3.9168    1.7699   -1.4091 N   0  0  0  0  0  0  0  0  0  0  0  0
   -3.4850    1.5110   -2.7660 C   0  0  0  0  0  0  0  0  0  0  0  0
   -3.7767    2.7609   -3.5326 C   0  0  0  0  0  0  0  0  0  0  0  0
   -5.0412    3.1734   -2.8574 C   0  0  0  0  0  0  0  0  0  0  0  0
   -5.0777    2.6334   -1.4061 C   0  0  1  0  0  0  0  0  0  0  0  0
   -6.3328    1.8530   -0.9288 C   0  0  0  0  0  0  0  0  0  0  0  0
   -6.3523    1.0200   -0.0262 O   0  0  0  0  0  0  0  0  0  0  0  0
   -7.5354    2.1590   -1.4579 N   0  0  0  0  0  0  0  0  0  0  0  0
   -7.7888    3.1135   -2.4595 C   0  0  0  0  0  0  0  0  0  0  0  0
   -8.1023    2.4403   -3.8104 C   0  0  0  0  0  0  0  0  0  0  0  0
   -9.5745    2.0987   -3.8153 C   0  0  0  0  0  0  0  0  0  0  0  0
  -10.4391    3.3507   -3.5630 C   0  0  0  0  0  0  0  0  0  0  0  0
  -10.3544    4.2958   -4.6847 N   0  0  0  0  0  0  0  0  0  0  0  0
   -9.4074    5.1115   -4.9433 C   0  0  0  0  0  0  0  0  0  0  0  0
   -8.2910    5.4040   -4.2498 N   0  0  0  0  0  0  0  0  0  0  0  0
   -9.3445    5.8379   -6.0702 N   0  0  0  0  0  0  0  0  0  0  0  0
   -2.3598    4.9759    1.2043 H   0  0  0  0  0  0  0  0  0  0  0  0
   -3.6559    4.0975    0.5057 H   0  0  0  0  0  0  0  0  0  0  0  0
   -3.3826    5.7864   -0.0007 H   0  0  0  0  0  0  0  0  0  0  0  0
   -2.6105    4.0948   -1.7182 H   0  0  0  0  0  0  0  0  0  0  0  0
   -0.3159    6.0187   -0.8835 H   0  0  0  0  0  0  0  0  0  0  0  0
   -0.5818    5.2689   -2.3779 H   0  0  0  0  0  0  0  0  0  0  0  0
   -1.7141    6.4387   -1.6444 H   0  0  0  0  0  0  0  0  0  0  0  0
   -0.5681    3.0027   -0.8353 H   0  0  0  0  0  0  0  0  0  0  0  0
   -1.2974    3.1207    0.7742 H   0  0  0  0  0  0  0  0  0  0  0  0
   -1.4490    1.0288    0.6188 H   0  0  0  0  0  0  0  0  0  0  0  0
   -1.5332   -0.0226   -1.7999 H   0  0  0  0  0  0  0  0  0  0  0  0
    2.0952    1.0538   -0.8411 H   0  0  0  0  0  0  0  0  0  0  0  0
    2.2172    2.5636   -1.7957 H   0  0  0  0  0  0  0  0  0  0  0  0
    1.3781    1.3444    1.7003 H   0  0  0  0  0  0  0  0  0  0  0  0
    0.4233    2.7712    3.5004 H   0  0  0  0  0  0  0  0  0  0  0  0
   -0.4626    5.0335    2.9936 H   0  0  0  0  0  0  0  0  0  0  0  0
   -0.0941    5.9584    0.8817 H   0  0  0  0  0  0  0  0  0  0  0  0
    0.9814    4.5372   -1.0312 H   0  0  0  0  0  0  0  0  0  0  0  0
   -4.1078    0.6779   -3.1026 H   0  0  0  0  0  0  0  0  0  0  0  0
   -2.4641    1.2326   -2.9143 H   0  0  0  0  0  0  0  0  0  0  0  0
   -3.0227    3.5431   -3.4593 H   0  0  0  0  0  0  0  0  0  0  0  0
   -3.9295    2.5741   -4.5973 H   0  0  0  0  0  0  0  0  0  0  0  0
   -5.1654    4.2610   -2.9204 H   0  0  0  0  0  0  0  0  0  0  0  0
   -5.7675    2.6531   -3.4655 H   0  0  0  0  0  0  0  0  0  0  0  0
   -4.9848    3.4702   -0.7091 H   0  0  0  0  0  0  0  0  0  0  0  0
   -8.3147    1.6452   -1.0680 H   0  0  0  0  0  0  0  0  0  0  0  0
   -8.5418    3.7482   -2.0070 H   0  0  0  0  0  0  0  0  0  0  0  0
   -7.0032    3.8504   -2.5437 H   0  0  0  0  0  0  0  0  0  0  0  0
   -7.8795    3.0634   -4.6850 H   0  0  0  0  0  0  0  0  0  0  0  0
   -7.4853    1.5486   -3.9940 H   0  0  0  0  0  0  0  0  0  0  0  0
   -9.8456    1.6306   -4.7668 H   0  0  0  0  0  0  0  0  0  0  0  0
   -9.7317    1.3442   -3.0328 H   0  0  0  0  0  0  0  0  0  0  0  0
  -11.4697    2.9977   -3.4579 H   0  0  0  0  0  0  0  0  0  0  0  0
  -10.2523    3.8263   -2.5960 H   0  0  0  0  0  0  0  0  0  0  0  0
   -7.4321    5.2466   -4.7708 H   0  0  0  0  0  0  0  0  0  0  0  0
   -8.3006    4.8258   -3.4493 H   0  0  0  0  0  0  0  0  0  0  0  0
  -10.2380    6.1024   -6.4586 H   0  0  0  0  0  0  0  0  0  0  0  0
   -8.6074    6.5278   -6.1204 H   0  0  0  0  0  0  0  0  0  0  0  0
  1  2  1  0  0  0  0
  1 35  1  0  0  0  0
  1 36  1  0  0  0  0
  1 37  1  0  0  0  0
  2  3  1  0  0  0  0
  2  4  1  0  0  0  0
  2 38  1  0  0  0  0
  3 39  1  0  0  0  0
  3 40  1  0  0  0  0
  3 41  1  0  0  0  0
  4 42  1  0  0  0  0
  4 43  1  0  0  0  0
  5 17  1  0  0  0  0
  5 44  1  1  0  0  0
  5  6  1  0  0  0  0
  5  4  1  0  0  0  0
  6  7  1  0  0  0  0
  6 45  1  0  0  0  0
  7  8  2  0  0  0  0
  7  9  2  0  0  0  0
  7 10  1  0  0  0  0
 10 11  1  0  0  0  0
 10 46  1  0  0  0  0
 10 47  1  0  0  0  0
 11 12  2  0  0  0  0
 11 16  1  0  0  0  0
 12 13  1  0  0  0  0
 12 48  1  0  0  0  0
 13 14  2  0  0  0  0
 13 49  1  0  0  0  0
 14 15  1  0  0  0  0
 14 50  1  0  0  0  0
 15 16  2  0  0  0  0
 15 51  1  0  0  0  0
 16 52  1  0  0  0  0
 17 18  2  0  0  0  0
 17 19  1  0  0  0  0
 19 20  1  0  0  0  0
 19 23  1  0  0  0  0
 20 21  1  0  0  0  0
 20 53  1  0  0  0  0
 20 54  1  0  0  0  0
 21 22  1  0  0  0  0
 21 55  1  0  0  0  0
 21 56  1  0  0  0  0
 22 23  1  0  0  0  0
 22 57  1  0  0  0  0
 22 58  1  0  0  0  0
 23 59  1  1  0  0  0
 23 24  1  0  0  0  0
 24 25  2  0  0  0  0
 24 26  1  0  0  0  0
 26 27  1  0  0  0  0
 26 60  1  0  0  0  0
 27 28  1  0  0  0  0
 27 61  1  0  0  0  0
 27 62  1  0  0  0  0
 28 29  1  0  0  0  0
 28 63  1  0  0  0  0
 28 64  1  0  0  0  0
 29 30  1  0  0  0  0
 29 65  1  0  0  0  0
 29 66  1  0  0  0  0
 30 31  1  0  0  0  0
 30 67  1  0  0  0  0
 30 68  1  0  0  0  0
 31 32  2  0  0  0  0
 32 33  1  0  0  0  0
 32 34  1  0  0  0  0
 33 69  1  0  0  0  0
 33 70  1  0  0  0  0
 34 71  1  0  0  0  0
 34 72  1  0  0  0  0
M  END
>  <DRUGBANK_ID>
DB04772

>  <COMMON_NAME>
1-GUANIDINO-4-(N-PHENYLMETHANESULFONYL-L-LEUCYL-L-PROLYLAMINO)BUTANE

$$$$
