
 OpenBabel10282417243D

471474  0  0  1  0  0  0  0  0999 V2000
   16.5609    6.7314   32.5530 C   0  0  0  0  0  0  0  0  0  0  0  0
   15.7031    5.5761   32.7313 C   0  0  0  0  0  0  0  0  0  0  0  0
   14.2156    5.8020   32.8052 C   0  0  2  0  0  0  0  0  0  0  0  0
   14.3278    6.9241   32.0405 C   0  0  0  0  0  0  0  0  0  0  0  0
   13.4593    6.3902   34.0117 C   0  0  2  0  0  0  0  0  0  0  0  0
   12.1412    6.6410   33.8999 N   0  0  0  0  0  0  0  0  0  0  0  0
   12.0125    7.8916   34.1291 C   0  0  0  0  0  0  0  0  0  0  0  0
   11.0107    7.6267   33.2869 O   0  0  0  0  0  0  0  0  0  0  0  0
   13.0969    9.7818   34.2112 C   0  0  2  0  0  0  0  0  0  0  0  0
   12.4369   11.7814   33.8435 C   0  0  0  0  0  0  0  0  0  0  0  0
   12.6838   12.3033   31.8968 O   0  0  0  0  0  0  0  0  0  0  0  0
   14.5164   10.2099   32.8551 N   0  0  0  0  0  0  0  0  0  0  0  0
   16.1208    9.5625   32.6689 C   0  0  0  0  0  0  0  0  0  0  0  0
   16.6650    9.1024   31.6941 O   0  0  0  0  0  0  0  0  0  0  0  0
   16.5439    9.4370   34.0480 C   0  0  2  0  0  0  0  0  0  0  0  0
   17.7180    8.7929   33.8599 C   0  0  0  0  0  0  0  0  0  0  0  0
   18.5224    8.8584   32.5998 C   0  0  0  0  0  0  0  0  0  0  0  0
   19.7063    8.6325   32.9899 N   0  0  0  0  0  0  0  0  0  0  0  0
   18.5437    9.0349   31.3951 O   0  0  0  0  0  0  0  0  0  0  0  0
   15.8187    8.9147   35.3204 N   0  0  0  0  0  0  0  0  0  0  0  0
   14.7486    9.3575   36.5089 C   0  0  0  0  0  0  0  0  0  0  0  0
   13.6142    8.8711   36.7802 O   0  0  0  0  0  0  0  0  0  0  0  0
   15.2362   10.9979   36.8967 C   0  0  2  0  0  0  0  0  0  0  0  0
   16.0328   11.8828   35.5110 C   0  0  0  0  0  0  0  0  0  0  0  0
   16.8616   13.0714   35.5254 C   0  0  0  0  0  0  0  0  0  0  0  0
   17.8494   12.3933   36.3061 C   0  0  0  0  0  0  0  0  0  0  0  0
   17.1582   13.9546   34.4446 C   0  0  0  0  0  0  0  0  0  0  0  0
   16.0661   10.7152   37.7841 N   0  0  0  0  0  0  0  0  0  0  0  0
   15.8554   11.4740   38.8442 C   0  0  0  0  0  0  0  0  0  0  0  0
   16.7775   11.3392   39.6167 O   0  0  0  0  0  0  0  0  0  0  0  0
   14.6492   12.4436   39.1419 C   0  0  2  0  0  0  0  0  0  0  0  0
   15.2782   13.6512   39.8208 C   0  0  0  0  0  0  0  0  0  0  0  0
   15.1540   13.5427   41.2942 C   0  0  0  0  0  0  0  0  0  0  0  0
   16.2908   13.3728   42.0718 C   0  0  0  0  0  0  0  0  0  0  0  0
   16.1859   13.3560   43.4601 C   0  0  0  0  0  0  0  0  0  0  0  0
   14.9339   13.4709   44.0529 C   0  0  0  0  0  0  0  0  0  0  0  0
   14.7406   13.5038   45.4019 O   0  0  0  0  0  0  0  0  0  0  0  0
   13.7902   13.5597   43.2715 C   0  0  0  0  0  0  0  0  0  0  0  0
   13.8985   13.6050   41.8963 C   0  0  0  0  0  0  0  0  0  0  0  0
   13.6581   11.7243   39.8700 N   0  0  0  0  0  0  0  0  0  0  0  0
   12.3192   11.7042   39.6921 C   0  0  0  0  0  0  0  0  0  0  0  0
   11.5653   11.0847   40.4391 O   0  0  0  0  0  0  0  0  0  0  0  0
   11.6822   12.4455   38.5851 C   0  0  2  0  0  0  0  0  0  0  0  0
   11.2543   13.8426   38.6925 C   0  0  0  0  0  0  0  0  0  0  0  0
   10.2361   14.2575   37.6448 C   0  0  0  0  0  0  0  0  0  0  0  0
    9.0438   13.3399   37.5784 C   0  0  0  0  0  0  0  0  0  0  0  0
    8.4685   13.0662   38.9476 C   0  0  0  0  0  0  0  0  0  0  0  0
    7.9182   14.3230   39.3659 N   0  0  0  0  0  0  0  0  0  0  0  0
   10.7110   11.4484   38.2445 N   0  0  0  0  0  0  0  0  0  0  0  0
   10.4827   10.9763   37.0806 C   0  0  0  0  0  0  0  0  0  0  0  0
    9.4425   10.4298   36.6961 O   0  0  0  0  0  0  0  0  0  0  0  0
   11.6666   11.6549   36.3581 C   0  0  2  0  0  0  0  0  0  0  0  0
   13.0004   11.2395   36.5622 C   0  0  0  0  0  0  0  0  0  0  0  0
   13.9648   11.4973   35.4382 C   0  0  0  0  0  0  0  0  0  0  0  0
   14.2847   13.0072   34.9161 C   0  0  0  0  0  0  0  0  0  0  0  0
   14.3740   13.9644   35.9382 C   0  0  0  0  0  0  0  0  0  0  0  0
   15.2190   13.7321   37.0647 N   0  0  0  0  0  0  0  0  0  0  0  0
   11.4279   13.0591   35.3101 N   0  0  0  0  0  0  0  0  0  0  0  0
   11.1719   13.5658   33.7818 C   0  0  0  0  0  0  0  0  0  0  0  0
   11.1026   14.6899   33.3036 O   0  0  0  0  0  0  0  0  0  0  0  0
   11.2923   12.0905   32.5197 C   0  0  1  0  0  0  0  0  0  0  0  0
   12.7691   10.7518   32.6634 N   0  0  0  0  0  0  0  0  0  0  0  0
   12.3439    9.2936   32.7851 C   0  0  0  0  0  0  0  0  0  0  0  0
   13.0850    8.3772   32.7532 O   0  0  0  0  0  0  0  0  0  0  0  0
   11.0718    9.3572   34.1704 C   0  0  2  0  0  0  0  0  0  0  0  0
   11.0850   10.0659   35.2892 C   0  0  0  0  0  0  0  0  0  0  0  0
    9.8281    8.7741   34.4914 N   0  0  0  0  0  0  0  0  0  0  0  0
    8.8544    9.0182   33.6321 C   0  0  0  0  0  0  0  0  0  0  0  0
    8.8045    7.7340   33.7323 O   0  0  0  0  0  0  0  0  0  0  0  0
    8.6890   10.4274   32.0035 C   0  0  2  0  0  0  0  0  0  0  0  0
    9.2381   12.1707   32.0082 C   0  0  0  0  0  0  0  0  0  0  0  0
    9.8332   11.8681   33.0896 C   0  0  0  0  0  0  0  0  0  0  0  0
   11.1857   10.9788   30.9474 S   0  0  0  0  0  0  0  0  0  0  0  0
   12.1121    8.5196   30.7875 C   0  0  0  0  0  0  0  0  0  0  0  0
    8.0187   10.9026   31.0939 N   0  0  0  0  0  0  0  0  0  0  0  0
    7.8068   10.4105   29.4157 C   0  0  0  0  0  0  0  0  0  0  0  0
    6.8706   10.4539   28.7338 O   0  0  0  0  0  0  0  0  0  0  0  0
    8.6582    9.7561   28.5874 C   0  0  2  0  0  0  0  0  0  0  0  0
    9.7921    8.0960   29.1979 C   0  0  0  0  0  0  0  0  0  0  0  0
    9.5346    7.5547   30.7498 C   0  0  0  0  0  0  0  0  0  0  0  0
    8.5244    7.7618   31.8801 C   0  0  0  0  0  0  0  0  0  0  0  0
    7.9621    6.5746   32.3404 N   0  0  0  0  0  0  0  0  0  0  0  0
    7.8819    8.9056   32.2267 O   0  0  0  0  0  0  0  0  0  0  0  0
    9.8489   11.3910   28.4066 N   0  0  0  0  0  0  0  0  0  0  0  0
   10.2195   12.0513   26.8242 C   0  0  0  0  0  0  0  0  0  0  0  0
   10.8307   13.0310   26.5117 O   0  0  0  0  0  0  0  0  0  0  0  0
    9.3552   11.2028   25.4680 C   0  0  2  0  0  0  0  0  0  0  0  0
    9.7171    9.1069   25.7391 C   0  0  0  0  0  0  0  0  0  0  0  0
    8.9620    8.0707   26.8620 C   0  0  0  0  0  0  0  0  0  0  0  0
    7.4505    8.1373   26.8498 C   0  0  0  0  0  0  0  0  0  0  0  0
    6.6164    7.1898   26.2948 C   0  0  0  0  0  0  0  0  0  0  0  0
    7.2872    6.0302   26.7870 N   0  0  0  0  0  0  0  0  0  0  0  0
    8.0777   11.6250   24.6434 N   0  0  0  0  0  0  0  0  0  0  0  0
    6.7317   11.7177   24.4414 C   0  0  0  0  0  0  0  0  0  0  0  0
    6.5928   12.2230   23.3674 O   0  0  0  0  0  0  0  0  0  0  0  0
    5.5677   11.5805   25.4159 C   0  0  2  0  0  0  0  0  0  0  0  0
    5.6741   10.7712   26.4744 C   0  0  0  0  0  0  0  0  0  0  0  0
    6.9123   11.0520   26.3460 C   0  0  0  0  0  0  0  0  0  0  0  0
    7.6315   13.0404   26.3553 C   0  0  0  0  0  0  0  0  0  0  0  0
    7.7276   14.1436   28.1100 N   0  0  0  0  0  0  0  0  0  0  0  0
    8.9827   14.3855   29.7026 C   0  0  0  0  0  0  0  0  0  0  0  0
    8.7834   14.1112   31.1320 N   0  0  0  0  0  0  0  0  0  0  0  0
   10.4413   13.6371   29.5349 N   0  0  0  0  0  0  0  0  0  0  0  0
    4.4020   11.1135   24.9576 N   0  0  0  0  0  0  0  0  0  0  0  0
    2.9673   11.9701   25.0282 C   0  0  0  0  0  0  0  0  0  0  0  0
    1.9234   11.5773   24.5614 O   0  0  0  0  0  0  0  0  0  0  0  0
    3.0442   13.1645   25.9366 C   0  0  2  0  0  0  0  0  0  0  0  0
    3.7330   14.3336   25.5649 C   0  0  0  0  0  0  0  0  0  0  0  0
    4.7816   13.7794   24.7569 C   0  0  0  0  0  0  0  0  0  0  0  0
    4.3414   12.8629   23.5966 C   0  0  0  0  0  0  0  0  0  0  0  0
    5.6082   14.7878   24.2224 C   0  0  0  0  0  0  0  0  0  0  0  0
    3.6058   13.4575   27.0925 N   0  0  0  0  0  0  0  0  0  0  0  0
    3.0511   13.9943   28.3654 C   0  0  0  0  0  0  0  0  0  0  0  0
    3.8752   13.3362   29.4580 O   0  0  0  0  0  0  0  0  0  0  0  0
    1.0849   13.8715   28.7280 C   0  0  2  0  0  0  0  0  0  0  0  0
    0.7340   14.8831   27.8954 C   0  0  0  0  0  0  0  0  0  0  0  0
    1.1516   14.3526   26.6450 C   0  0  0  0  0  0  0  0  0  0  0  0
    0.5428   13.0809   26.1910 C   0  0  0  0  0  0  0  0  0  0  0  0
   -0.7820   13.2960   26.0921 N   0  0  0  0  0  0  0  0  0  0  0  0
   -1.3734   12.8290   24.9768 C   0  0  0  0  0  0  0  0  0  0  0  0
   -2.6746   13.0911   25.0041 N   0  0  0  0  0  0  0  0  0  0  0  0
   -0.7146   12.3799   23.9717 N   0  0  0  0  0  0  0  0  0  0  0  0
    0.3454   13.9919   30.4541 N   0  0  0  0  0  0  0  0  0  0  0  0
   -0.3535   12.9743   31.2619 C   0  0  0  0  0  0  0  0  0  0  0  0
   -0.3643   12.9687   32.4837 O   0  0  0  0  0  0  0  0  0  0  0  0
   -1.0877   11.8245   30.5511 C   0  0  1  0  0  0  0  0  0  0  0  0
   -1.3885   11.8967   29.0993 N   0  0  0  0  0  0  0  0  0  0  0  0
   -1.2199   11.1137   27.9720 C   0  0  0  0  0  0  0  0  0  0  0  0
   -1.7042   11.4033   26.9069 O   0  0  0  0  0  0  0  0  0  0  0  0
   -0.3826    9.9302   27.7932 C   0  0  2  0  0  0  0  0  0  0  0  0
    0.2652    9.5085   26.0990 C   0  0  0  0  0  0  0  0  0  0  0  0
    1.2021    8.0541   25.5231 C   0  0  0  0  0  0  0  0  0  0  0  0
    0.8169    6.8903   26.1531 C   0  0  0  0  0  0  0  0  0  0  0  0
    1.9323    5.8890   26.4514 C   0  0  0  0  0  0  0  0  0  0  0  0
    3.2716    5.9390   25.8677 C   0  0  0  0  0  0  0  0  0  0  0  0
    4.3447    5.2348   26.3230 O   0  0  0  0  0  0  0  0  0  0  0  0
    3.6424    6.9383   24.9902 C   0  0  0  0  0  0  0  0  0  0  0  0
    2.6411    7.8802   24.7705 C   0  0  0  0  0  0  0  0  0  0  0  0
   -0.4323    8.8018   28.8501 N   0  0  0  0  0  0  0  0  0  0  0  0
    0.4936    8.3088   30.3816 C   0  0  0  0  0  0  0  0  0  0  0  0
    0.0402    7.3799   31.0279 O   0  0  0  0  0  0  0  0  0  0  0  0
    2.4461    9.0761   30.9773 C   0  0  2  0  0  0  0  0  0  0  0  0
    2.8888    8.8274   32.4050 C   0  0  0  0  0  0  0  0  0  0  0  0
    1.7610    8.7558   33.3807 C   0  0  0  0  0  0  0  0  0  0  0  0
    1.3383    7.5340   33.3884 N   0  0  0  0  0  0  0  0  0  0  0  0
    1.0280    9.6765   33.7282 O   0  0  0  0  0  0  0  0  0  0  0  0
    2.6132   11.0656   30.3059 N   0  0  0  0  0  0  0  0  0  0  0  0
    2.7982   12.2752   28.9735 C   0  0  0  0  0  0  0  0  0  0  0  0
    2.4473   13.5454   29.5487 O   0  0  0  0  0  0  0  0  0  0  0  0
    3.8194   11.4830   27.8976 C   0  0  2  0  0  0  0  0  0  0  0  0
    4.9167   12.3887   28.0818 C   0  0  0  0  0  0  0  0  0  0  0  0
    5.5961   12.7767   29.0610 C   0  0  0  0  0  0  0  0  0  0  0  0
    6.6453   12.4718   28.5180 O   0  0  0  0  0  0  0  0  0  0  0  0
    5.3492   13.0116   30.1851 O   0  0  0  0  0  0  0  0  0  0  0  0
    3.6778   10.7425   26.7588 N   0  0  0  0  0  0  0  0  0  0  0  0
    3.2298    9.6705   26.1164 C   0  0  0  0  0  0  0  0  0  0  0  0
    2.4397    9.8593   25.2172 O   0  0  0  0  0  0  0  0  0  0  0  0
    3.4642    8.5200   26.8512 C   0  0  1  0  0  0  0  0  0  0  0  0
    4.6307    8.5751   27.2807 N   0  0  0  0  0  0  0  0  0  0  0  0
    4.7835    8.3484   28.5306 C   0  0  0  0  0  0  0  0  0  0  0  0
    5.8593    8.7002   28.2074 O   0  0  0  0  0  0  0  0  0  0  0  0
    4.1483    8.0607   30.3290 C   0  0  2  0  0  0  0  0  0  0  0  0
    4.6058    7.5942   31.9595 C   0  0  0  0  0  0  0  0  0  0  0  0
    4.4202    6.1840   31.8710 C   0  0  0  0  0  0  0  0  0  0  0  0
    5.3966    5.2415   31.6141 C   0  0  0  0  0  0  0  0  0  0  0  0
    4.9969    4.0124   31.6115 C   0  0  0  0  0  0  0  0  0  0  0  0
    3.6615    3.7918   31.7332 C   0  0  0  0  0  0  0  0  0  0  0  0
    2.7087    4.7249   31.7857 C   0  0  0  0  0  0  0  0  0  0  0  0
    3.1292    5.9149   31.6950 C   0  0  0  0  0  0  0  0  0  0  0  0
    3.2963    7.2297   29.9864 N   0  0  0  0  0  0  0  0  0  0  0  0
    2.1001    7.5862   29.8170 C   0  0  0  0  0  0  0  0  0  0  0  0
    1.4846    6.4887   29.6709 O   0  0  0  0  0  0  0  0  0  0  0  0
    1.5930    9.6835   29.8211 C   0  0  1  0  0  0  0  0  0  0  0  0
    2.1083   10.5708   31.7463 N   0  0  0  0  0  0  0  0  0  0  0  0
    3.2520   11.2849   32.3464 C   0  0  0  0  0  0  0  0  0  0  0  0
    3.6020   11.1690   33.5074 O   0  0  0  0  0  0  0  0  0  0  0  0
    4.1783   11.9793   31.5474 C   0  0  2  0  0  0  0  0  0  0  0  0
    3.8023   13.6732   31.6041 C   0  0  0  0  0  0  0  0  0  0  0  0
    4.3533   11.1085   30.4905 N   0  0  0  0  0  0  0  0  0  0  0  0
    5.2727   10.9261   29.7269 C   0  0  0  0  0  0  0  0  0  0  0  0
    5.0626   10.3725   28.7004 O   0  0  0  0  0  0  0  0  0  0  0  0
    6.5088   11.5374   30.3750 C   0  0  2  0  0  0  0  0  0  0  0  0
    6.3320    9.9890   30.9129 C   0  0  0  0  0  0  0  0  0  0  0  0
    6.4838    8.7408   29.9111 C   0  0  0  0  0  0  0  0  0  0  0  0
    7.5982    7.0055   30.2239 O   0  0  0  0  0  0  0  0  0  0  0  0
    5.4219    9.1115   30.1571 O   0  0  0  0  0  0  0  0  0  0  0  0
    6.9172   12.7910   30.9824 N   0  0  0  0  0  0  0  0  0  0  0  0
    7.2668   13.7072   30.0328 C   0  0  0  0  0  0  0  0  0  0  0  0
    6.9630   14.9119   30.2536 O   0  0  0  0  0  0  0  0  0  0  0  0
    8.7645   12.9233   28.8142 C   0  0  2  0  0  0  0  0  0  0  0  0
    9.6543   14.6478   28.0184 C   0  0  0  0  0  0  0  0  0  0  0  0
    8.8199   15.6156   27.3989 O   0  0  0  0  0  0  0  0  0  0  0  0
    8.3168   12.0517   27.8196 N   0  0  0  0  0  0  0  0  0  0  0  0
    9.0261   10.4770   27.0592 C   0  0  0  0  0  0  0  0  0  0  0  0
    8.2870    9.9054   25.9900 O   0  0  0  0  0  0  0  0  0  0  0  0
   10.6059    9.8832   28.0576 C   0  0  1  0  0  0  0  0  0  0  0  0
   11.7183   10.8534   28.1076 N   0  0  0  0  0  0  0  0  0  0  0  0
    9.6162    9.9907   29.8243 C   0  0  0  0  0  0  0  0  0  0  0  0
    8.1195    8.5904   30.0471 C   0  0  0  0  0  0  0  0  0  0  0  0
    6.7691    7.8918   31.3532 C   0  0  0  0  0  0  0  0  0  0  0  0
    5.9133    6.8302   30.3444 N   0  0  0  0  0  0  0  0  0  0  0  0
    6.3051    6.7800   29.0343 C   0  0  0  0  0  0  0  0  0  0  0  0
    7.6175    7.8528   28.8357 N   0  0  0  0  0  0  0  0  0  0  0  0
    1.9195   10.5730   28.8509 C   0  0  0  0  0  0  0  0  0  0  0  0
    1.7617   10.5368   27.5582 C   0  0  0  0  0  0  0  0  0  0  0  0
    1.6426   12.3584   29.6040 C   0  0  0  0  0  0  0  0  0  0  0  0
    2.8324    7.9590   27.8752 C   0  0  1  0  0  0  0  0  0  0  0  0
    1.5015    7.9351   27.8994 C   0  0  0  0  0  0  0  0  0  0  0  0
    3.4994    6.6759   28.1420 O   0  0  0  0  0  0  0  0  0  0  0  0
   -0.3727   10.6489   30.5407 C   0  0  1  0  0  0  0  0  0  0  0  0
    0.1583   10.1800   31.7468 C   0  0  0  0  0  0  0  0  0  0  0  0
   -1.3886    9.7111   30.2926 O   0  0  0  0  0  0  0  0  0  0  0  0
   10.1212   10.3656   32.8368 C   0  0  0  0  0  0  0  0  0  0  0  0
    8.1659   11.4098   33.3897 C   0  0  0  0  0  0  0  0  0  0  0  0
   10.4964    9.3015   31.6478 C   0  0  0  0  0  0  0  0  0  0  0  0
   14.0134    7.5067   34.7670 C   0  0  0  0  0  0  0  0  0  0  0  0
   14.4987    7.2362   35.8764 O   0  0  0  0  0  0  0  0  0  0  0  0
   14.6515    8.6602   33.6003 N   0  0  0  0  0  0  0  0  0  0  0  0
   14.6821    9.0082   31.4966 C   0  0  1  0  0  0  0  0  0  0  0  0
   13.7499   10.7502   30.9244 C   0  0  0  0  0  0  0  0  0  0  0  0
   14.3188   12.4923   31.9572 C   0  0  0  0  0  0  0  0  0  0  0  0
   14.9079   12.3526   30.7771 C   0  0  0  0  0  0  0  0  0  0  0  0
   13.1538   14.0370   31.8893 C   0  0  0  0  0  0  0  0  0  0  0  0
   15.4715    9.7716   30.3989 C   0  0  0  0  0  0  0  0  0  0  0  0
   15.5405    8.7824   29.6484 O   0  0  0  0  0  0  0  0  0  0  0  0
   16.6004   10.9542   31.0289 N   0  0  0  0  0  0  0  0  0  0  0  0
   16.5404   11.9744   32.4387 C   0  0  1  0  0  0  0  0  0  0  0  0
   17.6482   11.6035   33.2815 C   0  0  0  0  0  0  0  0  0  0  0  0
   18.7772   12.1953   32.6987 C   0  0  0  0  0  0  0  0  0  0  0  0
   19.3339   13.3564   33.1419 N   0  0  0  0  0  0  0  0  0  0  0  0
   19.1135   11.5386   31.7367 O   0  0  0  0  0  0  0  0  0  0  0  0
   16.2991   13.7418   32.0322 C   0  0  0  0  0  0  0  0  0  0  0  0
   15.1825   14.4720   32.2895 O   0  0  0  0  0  0  0  0  0  0  0  0
   17.0022   14.1007   31.1101 O   0  0  0  0  0  0  0  0  0  0  0  0
   16.4899    7.3702   31.6562 H   0  0  0  0  0  0  0  0  0  0  0  0
   17.5733    6.7413   32.8444 H   0  0  0  0  0  0  0  0  0  0  0  0
   16.0295    7.0940   33.4555 H   0  0  0  0  0  0  0  0  0  0  0  0
   16.1478    5.0565   31.9176 H   0  0  0  0  0  0  0  0  0  0  0  0
   15.8805    5.3119   33.7411 H   0  0  0  0  0  0  0  0  0  0  0  0
   13.6443    5.5631   31.9155 H   0  0  0  0  0  0  0  0  0  0  0  0
   13.3010    7.0838   31.8614 H   0  0  0  0  0  0  0  0  0  0  0  0
   14.8893    7.5851   32.5734 H   0  0  0  0  0  0  0  0  0  0  0  0
   14.8664    7.0992   31.1634 H   0  0  0  0  0  0  0  0  0  0  0  0
   13.3109    5.7581   34.8211 H   0  0  0  0  0  0  0  0  0  0  0  0
   11.3832    6.3915   33.2042 H   0  0  0  0  0  0  0  0  0  0  0  0
   13.3645    9.4699   35.0798 H   0  0  0  0  0  0  0  0  0  0  0  0
   11.4653   11.5637   34.0411 H   0  0  0  0  0  0  0  0  0  0  0  0
   12.9556   12.3128   34.3132 H   0  0  0  0  0  0  0  0  0  0  0  0
   13.0751   12.3380   30.9907 H   0  0  0  0  0  0  0  0  0  0  0  0
   13.6447    9.7495   32.0327 H   0  0  0  0  0  0  0  0  0  0  0  0
   16.2834   10.3642   33.9013 H   0  0  0  0  0  0  0  0  0  0  0  0
   17.7914    8.2508   34.7623 H   0  0  0  0  0  0  0  0  0  0  0  0
   17.0532    8.1029   33.5937 H   0  0  0  0  0  0  0  0  0  0  0  0
   20.2309    8.7919   32.1632 H   0  0  0  0  0  0  0  0  0  0  0  0
   19.8211    8.3166   33.9088 H   0  0  0  0  0  0  0  0  0  0  0  0
   15.3916    8.2902   34.6309 H   0  0  0  0  0  0  0  0  0  0  0  0
   14.6417   11.8594   37.0409 H   0  0  0  0  0  0  0  0  0  0  0  0
   16.4974   11.1137   35.1146 H   0  0  0  0  0  0  0  0  0  0  0  0
   15.5189   11.7405   34.5333 H   0  0  0  0  0  0  0  0  0  0  0  0
   16.3373   13.9688   35.6489 H   0  0  0  0  0  0  0  0  0  0  0  0
   18.2441   11.5147   35.7938 H   0  0  0  0  0  0  0  0  0  0  0  0
   18.4638   13.1557   36.6264 H   0  0  0  0  0  0  0  0  0  0  0  0
   17.4207   11.9987   37.1921 H   0  0  0  0  0  0  0  0  0  0  0  0
   16.3846   14.2186   33.8026 H   0  0  0  0  0  0  0  0  0  0  0  0
   17.7882   14.7335   34.6969 H   0  0  0  0  0  0  0  0  0  0  0  0
   17.7037   13.3945   33.8554 H   0  0  0  0  0  0  0  0  0  0  0  0
   16.7704   10.2304   37.2484 H   0  0  0  0  0  0  0  0  0  0  0  0
   14.0850   12.8936   38.3443 H   0  0  0  0  0  0  0  0  0  0  0  0
   16.3374   13.7858   39.5338 H   0  0  0  0  0  0  0  0  0  0  0  0
   14.7736   14.5632   39.4791 H   0  0  0  0  0  0  0  0  0  0  0  0
   17.2560   13.2817   41.5809 H   0  0  0  0  0  0  0  0  0  0  0  0
   17.0869   13.2613   44.0508 H   0  0  0  0  0  0  0  0  0  0  0  0
   15.5677   13.4506   45.9073 H   0  0  0  0  0  0  0  0  0  0  0  0
   12.8107   13.6139   43.7297 H   0  0  0  0  0  0  0  0  0  0  0  0
   12.9975   13.6703   41.2937 H   0  0  0  0  0  0  0  0  0  0  0  0
   14.0164   11.3285   40.7287 H   0  0  0  0  0  0  0  0  0  0  0  0
   12.3372   12.7775   37.8463 H   0  0  0  0  0  0  0  0  0  0  0  0
   10.8572   13.8185   39.6762 H   0  0  0  0  0  0  0  0  0  0  0  0
   12.1072   14.5392   38.6738 H   0  0  0  0  0  0  0  0  0  0  0  0
    9.8650   15.2330   37.8994 H   0  0  0  0  0  0  0  0  0  0  0  0
   10.6694   14.3881   36.6710 H   0  0  0  0  0  0  0  0  0  0  0  0
    8.3258   13.5773   36.8164 H   0  0  0  0  0  0  0  0  0  0  0  0
    9.2925   12.4444   37.1026 H   0  0  0  0  0  0  0  0  0  0  0  0
    7.7301   12.2685   38.8977 H   0  0  0  0  0  0  0  0  0  0  0  0
    9.2206   12.7300   39.6791 H   0  0  0  0  0  0  0  0  0  0  0  0
    7.5254   14.2212   40.2914 H   0  0  0  0  0  0  0  0  0  0  0  0
    8.6546   15.0242   39.4218 H   0  0  0  0  0  0  0  0  0  0  0  0
    9.8042   11.3643   38.6106 H   0  0  0  0  0  0  0  0  0  0  0  0
   12.3780   10.4171   36.1782 H   0  0  0  0  0  0  0  0  0  0  0  0
   13.2175   11.9704   37.1421 H   0  0  0  0  0  0  0  0  0  0  0  0
   12.9916   10.4493   37.3865 H   0  0  0  0  0  0  0  0  0  0  0  0
   14.9046   10.6321   35.3507 H   0  0  0  0  0  0  0  0  0  0  0  0
   14.1589   10.8187   34.7466 H   0  0  0  0  0  0  0  0  0  0  0  0
   15.0836   13.1357   34.1924 H   0  0  0  0  0  0  0  0  0  0  0  0
   13.6290   13.4735   34.2058 H   0  0  0  0  0  0  0  0  0  0  0  0
   14.5910   14.7160   35.1822 H   0  0  0  0  0  0  0  0  0  0  0  0
   13.4448   13.7701   36.3487 H   0  0  0  0  0  0  0  0  0  0  0  0
   15.9722   14.3752   37.1757 H   0  0  0  0  0  0  0  0  0  0  0  0
   15.7787   12.8581   37.0949 H   0  0  0  0  0  0  0  0  0  0  0  0
   11.8952   13.8017   35.7480 H   0  0  0  0  0  0  0  0  0  0  0  0
   11.1564   12.6725   31.3194 H   0  0  0  0  0  0  0  0  0  0  0  0
   13.8309   11.0986   32.9187 H   0  0  0  0  0  0  0  0  0  0  0  0
   11.5045   10.0662   33.4476 H   0  0  0  0  0  0  0  0  0  0  0  0
   11.2758    9.2536   35.9932 H   0  0  0  0  0  0  0  0  0  0  0  0
   11.9751   10.7431   35.0076 H   0  0  0  0  0  0  0  0  0  0  0  0
   10.2835   11.1139   35.3061 H   0  0  0  0  0  0  0  0  0  0  0  0
   10.0434    7.7458   34.3466 H   0  0  0  0  0  0  0  0  0  0  0  0
    9.3363   10.4573   31.3280 H   0  0  0  0  0  0  0  0  0  0  0  0
    9.7161   12.5099   31.2165 H   0  0  0  0  0  0  0  0  0  0  0  0
    8.4675   13.0685   32.7249 H   0  0  0  0  0  0  0  0  0  0  0  0
   10.1701   12.2702   34.0080 H   0  0  0  0  0  0  0  0  0  0  0  0
    9.1878   10.7029   34.0923 H   0  0  0  0  0  0  0  0  0  0  0  0
   11.7822    7.5574   31.4806 H   0  0  0  0  0  0  0  0  0  0  0  0
   11.4016    8.1290   30.1465 H   0  0  0  0  0  0  0  0  0  0  0  0
   12.8856    8.3415   30.1130 H   0  0  0  0  0  0  0  0  0  0  0  0
    7.2663   10.7538   31.9503 H   0  0  0  0  0  0  0  0  0  0  0  0
    8.0497    9.4633   27.8981 H   0  0  0  0  0  0  0  0  0  0  0  0
    9.5155    7.1847   28.8807 H   0  0  0  0  0  0  0  0  0  0  0  0
   10.7853    8.2534   28.8392 H   0  0  0  0  0  0  0  0  0  0  0  0
   10.3624    7.1694   31.0946 H   0  0  0  0  0  0  0  0  0  0  0  0
    9.1516    8.5669   31.1612 H   0  0  0  0  0  0  0  0  0  0  0  0
    7.2184    6.9371   32.9595 H   0  0  0  0  0  0  0  0  0  0  0  0
    8.8653    6.4664   32.6238 H   0  0  0  0  0  0  0  0  0  0  0  0
   10.4689   11.6639   29.1969 H   0  0  0  0  0  0  0  0  0  0  0  0
    8.3861   11.5718   26.2520 H   0  0  0  0  0  0  0  0  0  0  0  0
    8.8302    8.3629   25.3252 H   0  0  0  0  0  0  0  0  0  0  0  0
   10.6671    9.3890   25.9320 H   0  0  0  0  0  0  0  0  0  0  0  0
    9.4096    7.2188   27.3243 H   0  0  0  0  0  0  0  0  0  0  0  0
    9.2521    8.5196   27.6791 H   0  0  0  0  0  0  0  0  0  0  0  0
    7.0239    7.5767   27.5457 H   0  0  0  0  0  0  0  0  0  0  0  0
    6.9468    9.0375   27.0954 H   0  0  0  0  0  0  0  0  0  0  0  0
    5.6712    7.0376   26.7997 H   0  0  0  0  0  0  0  0  0  0  0  0
    6.6502    8.0098   25.6090 H   0  0  0  0  0  0  0  0  0  0  0  0
    6.7440    5.5582   26.1514 H   0  0  0  0  0  0  0  0  0  0  0  0
    8.2279    6.3200   26.7266 H   0  0  0  0  0  0  0  0  0  0  0  0
    8.6343   11.5090   23.9109 H   0  0  0  0  0  0  0  0  0  0  0  0
    5.3222   12.3637   25.9841 H   0  0  0  0  0  0  0  0  0  0  0  0
    5.9510   11.0022   27.3782 H   0  0  0  0  0  0  0  0  0  0  0  0
    5.6351    9.8156   26.4530 H   0  0  0  0  0  0  0  0  0  0  0  0
    7.2835   10.5402   27.1624 H   0  0  0  0  0  0  0  0  0  0  0  0
    6.8200    9.9762   25.4343 H   0  0  0  0  0  0  0  0  0  0  0  0
    8.6959   13.1629   26.1596 H   0  0  0  0  0  0  0  0  0  0  0  0
    6.8736   13.4320   25.9226 H   0  0  0  0  0  0  0  0  0  0  0  0
    6.8693   13.7491   28.4970 H   0  0  0  0  0  0  0  0  0  0  0  0
    9.3969   14.4760   31.7756 H   0  0  0  0  0  0  0  0  0  0  0  0
    7.7729   13.9882   31.5763 H   0  0  0  0  0  0  0  0  0  0  0  0
   11.0243   13.5832   30.3012 H   0  0  0  0  0  0  0  0  0  0  0  0
    4.5138   10.1125   24.9615 H   0  0  0  0  0  0  0  0  0  0  0  0
    2.3443   12.8009   26.6067 H   0  0  0  0  0  0  0  0  0  0  0  0
    2.9752   14.7502   25.0146 H   0  0  0  0  0  0  0  0  0  0  0  0
    4.0904   14.9936   26.4356 H   0  0  0  0  0  0  0  0  0  0  0  0
    5.5615   13.6238   25.4213 H   0  0  0  0  0  0  0  0  0  0  0  0
    3.4225   13.1555   23.2198 H   0  0  0  0  0  0  0  0  0  0  0  0
    4.8984   12.0511   23.1967 H   0  0  0  0  0  0  0  0  0  0  0  0
    3.8515   11.8960   23.6125 H   0  0  0  0  0  0  0  0  0  0  0  0
    5.9496   15.3973   25.0549 H   0  0  0  0  0  0  0  0  0  0  0  0
    6.4316   14.2528   23.7785 H   0  0  0  0  0  0  0  0  0  0  0  0
    4.8822   15.1768   23.5641 H   0  0  0  0  0  0  0  0  0  0  0  0
    4.2531   12.8494   26.7828 H   0  0  0  0  0  0  0  0  0  0  0  0
    0.5234   12.6140   28.4294 H   0  0  0  0  0  0  0  0  0  0  0  0
   -0.2539   14.7128   28.1432 H   0  0  0  0  0  0  0  0  0  0  0  0
    1.5464   15.4292   28.3736 H   0  0  0  0  0  0  0  0  0  0  0  0
    1.3189   14.9117   25.7910 H   0  0  0  0  0  0  0  0  0  0  0  0
    2.1546   14.5328   26.9390 H   0  0  0  0  0  0  0  0  0  0  0  0
    0.8798   12.6854   25.3001 H   0  0  0  0  0  0  0  0  0  0  0  0
    0.6464   12.3066   26.8593 H   0  0  0  0  0  0  0  0  0  0  0  0
   -1.1518   13.1697   27.0261 H   0  0  0  0  0  0  0  0  0  0  0  0
   -3.2172   12.9663   24.1779 H   0  0  0  0  0  0  0  0  0  0  0  0
   -3.1433   13.3648   25.8534 H   0  0  0  0  0  0  0  0  0  0  0  0
   -1.2573   12.2238   23.1367 H   0  0  0  0  0  0  0  0  0  0  0  0
    1.1988   14.2901   30.9810 H   0  0  0  0  0  0  0  0  0  0  0  0
   -1.6612   11.2301   31.2333 H   0  0  0  0  0  0  0  0  0  0  0  0
   -2.1089   12.5392   29.0755 H   0  0  0  0  0  0  0  0  0  0  0  0
    0.2365   10.6178   28.2570 H   0  0  0  0  0  0  0  0  0  0  0  0
   -0.6621    9.3577   25.7193 H   0  0  0  0  0  0  0  0  0  0  0  0
    0.6381   10.4377   25.6716 H   0  0  0  0  0  0  0  0  0  0  0  0
   -0.0094    7.1082   26.9698 H   0  0  0  0  0  0  0  0  0  0  0  0
    1.8244    5.3582   27.4570 H   0  0  0  0  0  0  0  0  0  0  0  0
    3.9881    4.5043   26.8315 H   0  0  0  0  0  0  0  0  0  0  0  0
    4.6658    7.4398   24.9759 H   0  0  0  0  0  0  0  0  0  0  0  0
    3.4502    8.7464   24.4225 H   0  0  0  0  0  0  0  0  0  0  0  0
   -1.1076    8.2470   28.4117 H   0  0  0  0  0  0  0  0  0  0  0  0
    3.0608    9.1285   30.0227 H   0  0  0  0  0  0  0  0  0  0  0  0
    2.9425    7.9589   31.9307 H   0  0  0  0  0  0  0  0  0  0  0  0
    3.7503    9.4796   32.4175 H   0  0  0  0  0  0  0  0  0  0  0  0
    0.5048    7.4753   33.9112 H   0  0  0  0  0  0  0  0  0  0  0  0
    2.0645    6.8894   33.1772 H   0  0  0  0  0  0  0  0  0  0  0  0
    1.6808   11.3032   30.9507 H   0  0  0  0  0  0  0  0  0  0  0  0
    3.7223   10.4243   27.9359 H   0  0  0  0  0  0  0  0  0  0  0  0
    5.5502   12.4070   27.3522 H   0  0  0  0  0  0  0  0  0  0  0  0
    5.0681   13.5654   28.2227 H   0  0  0  0  0  0  0  0  0  0  0  0
    7.1461   11.7530   28.0322 H   0  0  0  0  0  0  0  0  0  0  0  0
    3.1633   11.3981   26.4458 H   0  0  0  0  0  0  0  0  0  0  0  0
    3.7552    7.6184   26.6665 H   0  0  0  0  0  0  0  0  0  0  0  0
    5.3093    8.5397   26.5573 H   0  0  0  0  0  0  0  0  0  0  0  0
    4.1334    9.2250   30.8528 H   0  0  0  0  0  0  0  0  0  0  0  0
    5.4678    7.4079   32.4634 H   0  0  0  0  0  0  0  0  0  0  0  0
    4.9110    8.5316   32.4395 H   0  0  0  0  0  0  0  0  0  0  0  0
    6.4639    5.4017   31.3687 H   0  0  0  0  0  0  0  0  0  0  0  0
    5.7778    3.3144   31.6890 H   0  0  0  0  0  0  0  0  0  0  0  0
    3.2993    2.8240   31.8270 H   0  0  0  0  0  0  0  0  0  0  0  0
    1.6850    4.7213   32.0192 H   0  0  0  0  0  0  0  0  0  0  0  0
    2.3313    6.6018   31.5034 H   0  0  0  0  0  0  0  0  0  0  0  0
    3.7889    6.5243   29.5262 H   0  0  0  0  0  0  0  0  0  0  0  0
    0.7447    9.7834   29.4552 H   0  0  0  0  0  0  0  0  0  0  0  0
    1.8410   10.2151   32.5811 H   0  0  0  0  0  0  0  0  0  0  0  0
    5.1137   11.8152   31.9646 H   0  0  0  0  0  0  0  0  0  0  0  0
    4.3734   14.3262   30.8699 H   0  0  0  0  0  0  0  0  0  0  0  0
    3.0121   14.1316   31.0142 H   0  0  0  0  0  0  0  0  0  0  0  0
    2.9359   13.5825   32.2212 H   0  0  0  0  0  0  0  0  0  0  0  0
    3.7456   11.4411   29.8418 H   0  0  0  0  0  0  0  0  0  0  0  0
    7.5425   11.9086   29.7715 H   0  0  0  0  0  0  0  0  0  0  0  0
    7.2451    9.6337   30.8771 H   0  0  0  0  0  0  0  0  0  0  0  0
    5.8253   10.0368   31.8683 H   0  0  0  0  0  0  0  0  0  0  0  0
    8.0944    6.8836   29.3656 H   0  0  0  0  0  0  0  0  0  0  0  0
    6.0184   12.9606   31.2672 H   0  0  0  0  0  0  0  0  0  0  0  0
    9.1353   12.4639   29.6854 H   0  0  0  0  0  0  0  0  0  0  0  0
   10.1192   15.2838   28.9112 H   0  0  0  0  0  0  0  0  0  0  0  0
   10.5147   14.3335   27.6036 H   0  0  0  0  0  0  0  0  0  0  0  0
    8.2464   14.9319   26.9899 H   0  0  0  0  0  0  0  0  0  0  0  0
    7.5170   12.9126   27.7486 H   0  0  0  0  0  0  0  0  0  0  0  0
   10.8338    9.0434   27.5322 H   0  0  0  0  0  0  0  0  0  0  0  0
   12.1388   10.5358   28.9080 H   0  0  0  0  0  0  0  0  0  0  0  0
   11.8105   11.0815   27.1670 H   0  0  0  0  0  0  0  0  0  0  0  0
   10.1453    9.3718   30.0786 H   0  0  0  0  0  0  0  0  0  0  0  0
    9.2857   11.0149   30.0055 H   0  0  0  0  0  0  0  0  0  0  0  0
    6.5516    8.2979   32.6445 H   0  0  0  0  0  0  0  0  0  0  0  0
    5.5301    7.6033   30.6315 H   0  0  0  0  0  0  0  0  0  0  0  0
    5.5091    6.6193   28.3926 H   0  0  0  0  0  0  0  0  0  0  0  0
    3.0098   10.2047   29.0488 H   0  0  0  0  0  0  0  0  0  0  0  0
    1.0729   10.9339   27.0391 H   0  0  0  0  0  0  0  0  0  0  0  0
    1.9776   11.3853   27.1349 H   0  0  0  0  0  0  0  0  0  0  0  0
    2.0249    9.6509   27.2875 H   0  0  0  0  0  0  0  0  0  0  0  0
    2.2885   12.6463   30.8641 H   0  0  0  0  0  0  0  0  0  0  0  0
    1.8744   12.9303   28.3233 H   0  0  0  0  0  0  0  0  0  0  0  0
    0.6214   12.2699   30.1220 H   0  0  0  0  0  0  0  0  0  0  0  0
    3.0232    8.7796   28.4749 H   0  0  0  0  0  0  0  0  0  0  0  0
    1.2905    6.9578   27.9821 H   0  0  0  0  0  0  0  0  0  0  0  0
    0.8311    7.8285   28.6084 H   0  0  0  0  0  0  0  0  0  0  0  0
    0.9873    8.6779   27.5285 H   0  0  0  0  0  0  0  0  0  0  0  0
    2.9427    5.9719   28.4766 H   0  0  0  0  0  0  0  0  0  0  0  0
    0.2378   11.0420   29.7630 H   0  0  0  0  0  0  0  0  0  0  0  0
   -0.2417    9.2808   32.0862 H   0  0  0  0  0  0  0  0  0  0  0  0
    0.8781    9.3391   31.6534 H   0  0  0  0  0  0  0  0  0  0  0  0
    0.6069   11.0939   32.3088 H   0  0  0  0  0  0  0  0  0  0  0  0
   -1.1245    8.7754   30.2059 H   0  0  0  0  0  0  0  0  0  0  0  0
   10.3784   10.6374   33.9021 H   0  0  0  0  0  0  0  0  0  0  0  0
    7.7093   12.0793   32.2336 H   0  0  0  0  0  0  0  0  0  0  0  0
    7.5483   10.6117   33.6144 H   0  0  0  0  0  0  0  0  0  0  0  0
    8.6220   12.4711   34.0914 H   0  0  0  0  0  0  0  0  0  0  0  0
   11.1462    8.8622   32.0490 H   0  0  0  0  0  0  0  0  0  0  0  0
   10.1049    8.5614   32.1435 H   0  0  0  0  0  0  0  0  0  0  0  0
   11.3241    9.5284   30.2111 H   0  0  0  0  0  0  0  0  0  0  0  0
   14.7982    9.7363   33.9363 H   0  0  0  0  0  0  0  0  0  0  0  0
   13.8689    8.4634   31.2075 H   0  0  0  0  0  0  0  0  0  0  0  0
   13.2427   10.9593   29.9990 H   0  0  0  0  0  0  0  0  0  0  0  0
   12.7462   10.2849   31.2726 H   0  0  0  0  0  0  0  0  0  0  0  0
   14.3871   12.3528   33.0397 H   0  0  0  0  0  0  0  0  0  0  0  0
   14.7209   12.2020   29.7926 H   0  0  0  0  0  0  0  0  0  0  0  0
   15.8183   12.6289   30.8523 H   0  0  0  0  0  0  0  0  0  0  0  0
   15.0872   11.4844   31.3347 H   0  0  0  0  0  0  0  0  0  0  0  0
   12.6226   13.6132   32.7280 H   0  0  0  0  0  0  0  0  0  0  0  0
   13.1698   14.7895   32.6409 H   0  0  0  0  0  0  0  0  0  0  0  0
   12.6760   13.9278   30.9161 H   0  0  0  0  0  0  0  0  0  0  0  0
   17.5235   10.8722   30.7430 H   0  0  0  0  0  0  0  0  0  0  0  0
   15.7098   11.5625   32.9671 H   0  0  0  0  0  0  0  0  0  0  0  0
   17.0428   12.0880   33.9199 H   0  0  0  0  0  0  0  0  0  0  0  0
   17.8293   10.8963   34.0728 H   0  0  0  0  0  0  0  0  0  0  0  0
   20.0374   13.8045   32.6240 H   0  0  0  0  0  0  0  0  0  0  0  0
   19.0833   14.0336   33.8641 H   0  0  0  0  0  0  0  0  0  0  0  0
   14.5923   14.0359   32.9279 H   0  0  0  0  0  0  0  0  0  0  0  0
  1  2  1  0  0  0  0
  1235  1  0  0  0  0
  1236  1  0  0  0  0
  1237  1  0  0  0  0
  2238  1  0  0  0  0
  2239  1  0  0  0  0
  3240  1  6  0  0  0
  3  4  1  0  0  0  0
  3  2  1  0  0  0  0
  4241  1  0  0  0  0
  4242  1  0  0  0  0
  4243  1  0  0  0  0
  5216  1  0  0  0  0
  5244  1  1  0  0  0
  5  6  1  0  0  0  0
  5  3  1  0  0  0  0
  6  7  1  0  0  0  0
  6245  1  0  0  0  0
  7  8  2  0  0  0  0
  9 12  1  0  0  0  0
  9246  1  1  0  0  0
  9 10  1  0  0  0  0
  9  7  1  0  0  0  0
 10 11  1  0  0  0  0
 10247  1  0  0  0  0
 10248  1  0  0  0  0
 11249  1  0  0  0  0
 12 13  1  0  0  0  0
 12250  1  0  0  0  0
 13 14  2  0  0  0  0
 15 20  1  0  0  0  0
 15251  1  1  0  0  0
 15 16  1  0  0  0  0
 15 13  1  0  0  0  0
 16 17  1  0  0  0  0
 16252  1  0  0  0  0
 16253  1  0  0  0  0
 17 18  1  0  0  0  0
 17 19  2  0  0  0  0
 18254  1  0  0  0  0
 18255  1  0  0  0  0
 20 21  1  0  0  0  0
 20256  1  0  0  0  0
 21 22  2  0  0  0  0
 23 28  1  0  0  0  0
 23257  1  1  0  0  0
 23 24  1  0  0  0  0
 23 21  1  0  0  0  0
 24 25  1  0  0  0  0
 24258  1  0  0  0  0
 24259  1  0  0  0  0
 25 26  1  0  0  0  0
 25 27  1  0  0  0  0
 25260  1  0  0  0  0
 26261  1  0  0  0  0
 26262  1  0  0  0  0
 26263  1  0  0  0  0
 27264  1  0  0  0  0
 27265  1  0  0  0  0
 27266  1  0  0  0  0
 28 29  1  0  0  0  0
 28267  1  0  0  0  0
 29 30  2  0  0  0  0
 31 40  1  0  0  0  0
 31268  1  6  0  0  0
 31 32  1  0  0  0  0
 31 29  1  0  0  0  0
 32 33  1  0  0  0  0
 32269  1  0  0  0  0
 32270  1  0  0  0  0
 33 34  2  0  0  0  0
 33 39  1  0  0  0  0
 34 35  1  0  0  0  0
 34271  1  0  0  0  0
 35 36  2  0  0  0  0
 35272  1  0  0  0  0
 36 37  1  0  0  0  0
 36 38  1  0  0  0  0
 37273  1  0  0  0  0
 38 39  2  0  0  0  0
 38274  1  0  0  0  0
 39275  1  0  0  0  0
 40 41  1  0  0  0  0
 40276  1  0  0  0  0
 41 42  2  0  0  0  0
 43 49  1  0  0  0  0
 43277  1  6  0  0  0
 43 44  1  0  0  0  0
 43 41  1  0  0  0  0
 44 45  1  0  0  0  0
 44278  1  0  0  0  0
 44279  1  0  0  0  0
 45 46  1  0  0  0  0
 45280  1  0  0  0  0
 45281  1  0  0  0  0
 46 47  1  0  0  0  0
 46282  1  0  0  0  0
 46283  1  0  0  0  0
 47 48  1  0  0  0  0
 47284  1  0  0  0  0
 47285  1  0  0  0  0
 48286  1  0  0  0  0
 48287  1  0  0  0  0
 49 50  1  0  0  0  0
 49288  1  0  0  0  0
 50 51  2  0  0  0  0
 52 58  1  0  0  0  0
 52289  1  6  0  0  0
 52 53  1  0  0  0  0
 52 50  1  0  0  0  0
 53 54  1  0  0  0  0
 53290  1  0  0  0  0
 53291  1  0  0  0  0
 54 55  1  0  0  0  0
 54292  1  0  0  0  0
 54293  1  0  0  0  0
 55 56  1  0  0  0  0
 55294  1  0  0  0  0
 55295  1  0  0  0  0
 56 57  1  0  0  0  0
 56296  1  0  0  0  0
 56297  1  0  0  0  0
 57298  1  0  0  0  0
 57299  1  0  0  0  0
 58 59  1  0  0  0  0
 58300  1  0  0  0  0
 59 60  2  0  0  0  0
 61 59  1  0  0  0  0
 61 62  1  0  0  0  0
 61213  1  0  0  0  0
 61301  1  6  0  0  0
 62 63  1  0  0  0  0
 62302  1  0  0  0  0
 63 64  2  0  0  0  0
 65 67  1  0  0  0  0
 65303  1  6  0  0  0
 65 66  1  0  0  0  0
 65 63  1  0  0  0  0
 66304  1  0  0  0  0
 66305  1  0  0  0  0
 66306  1  0  0  0  0
 67 68  1  0  0  0  0
 67307  1  0  0  0  0
 68 69  2  0  0  0  0
 70 75  1  0  0  0  0
 70308  1  6  0  0  0
 70 71  1  0  0  0  0
 70 68  1  0  0  0  0
 71 72  1  0  0  0  0
 71309  1  0  0  0  0
 71310  1  0  0  0  0
 72 73  1  0  0  0  0
 72311  1  0  0  0  0
 72312  1  0  0  0  0
 73 74  1  0  0  0  0
 74313  1  0  0  0  0
 74314  1  0  0  0  0
 74315  1  0  0  0  0
 75 76  1  0  0  0  0
 75316  1  0  0  0  0
 76 77  2  0  0  0  0
 78 84  1  0  0  0  0
 78317  1  6  0  0  0
 78 79  1  0  0  0  0
 78 76  1  0  0  0  0
 79 80  1  0  0  0  0
 79318  1  0  0  0  0
 79319  1  0  0  0  0
 80 81  1  0  0  0  0
 80320  1  0  0  0  0
 80321  1  0  0  0  0
 81 82  1  0  0  0  0
 81 83  2  0  0  0  0
 82322  1  0  0  0  0
 82323  1  0  0  0  0
 84 85  1  0  0  0  0
 84324  1  0  0  0  0
 85 86  2  0  0  0  0
 87 93  1  0  0  0  0
 87325  1  1  0  0  0
 87 88  1  0  0  0  0
 87 85  1  0  0  0  0
 88 89  1  0  0  0  0
 88326  1  0  0  0  0
 88327  1  0  0  0  0
 89 90  1  0  0  0  0
 89328  1  0  0  0  0
 89329  1  0  0  0  0
 90 91  1  0  0  0  0
 90330  1  0  0  0  0
 90331  1  0  0  0  0
 91 92  1  0  0  0  0
 91332  1  0  0  0  0
 91333  1  0  0  0  0
 92334  1  0  0  0  0
 92335  1  0  0  0  0
 93 94  1  0  0  0  0
 93336  1  0  0  0  0
 94 95  2  0  0  0  0
 96104  1  0  0  0  0
 96337  1  1  0  0  0
 96 97  1  0  0  0  0
 96 94  1  0  0  0  0
 97 98  1  0  0  0  0
 97338  1  0  0  0  0
 97339  1  0  0  0  0
 98 99  1  0  0  0  0
 98340  1  0  0  0  0
 98341  1  0  0  0  0
 99100  1  0  0  0  0
 99342  1  0  0  0  0
 99343  1  0  0  0  0
100101  1  0  0  0  0
100344  1  0  0  0  0
101102  1  0  0  0  0
101103  2  0  0  0  0
102345  1  0  0  0  0
102346  1  0  0  0  0
103347  1  0  0  0  0
104105  1  0  0  0  0
104348  1  0  0  0  0
105106  2  0  0  0  0
107112  1  0  0  0  0
107349  1  1  0  0  0
107108  1  0  0  0  0
107105  1  0  0  0  0
108109  1  0  0  0  0
108350  1  0  0  0  0
108351  1  0  0  0  0
109110  1  0  0  0  0
109111  1  0  0  0  0
109352  1  0  0  0  0
110353  1  0  0  0  0
110354  1  0  0  0  0
110355  1  0  0  0  0
111356  1  0  0  0  0
111357  1  0  0  0  0
111358  1  0  0  0  0
112113  1  0  0  0  0
112359  1  0  0  0  0
113114  2  0  0  0  0
115123  1  0  0  0  0
115360  1  6  0  0  0
115116  1  0  0  0  0
115113  1  0  0  0  0
116117  1  0  0  0  0
116361  1  0  0  0  0
116362  1  0  0  0  0
117118  1  0  0  0  0
117363  1  0  0  0  0
117364  1  0  0  0  0
118119  1  0  0  0  0
118365  1  0  0  0  0
118366  1  0  0  0  0
119120  1  0  0  0  0
119367  1  0  0  0  0
120121  1  0  0  0  0
120122  2  0  0  0  0
121368  1  0  0  0  0
121369  1  0  0  0  0
122370  1  0  0  0  0
123124  1  0  0  0  0
123371  1  0  0  0  0
124125  2  0  0  0  0
126124  1  0  0  0  0
126127  1  0  0  0  0
126210  1  0  0  0  0
126372  1  1  0  0  0
127128  1  0  0  0  0
127373  1  0  0  0  0
128129  2  0  0  0  0
130139  1  0  0  0  0
130374  1  1  0  0  0
130131  1  0  0  0  0
130128  1  0  0  0  0
131132  1  0  0  0  0
131375  1  0  0  0  0
131376  1  0  0  0  0
132133  2  0  0  0  0
132138  1  0  0  0  0
133134  1  0  0  0  0
133377  1  0  0  0  0
134135  2  0  0  0  0
134378  1  0  0  0  0
135136  1  0  0  0  0
135137  1  0  0  0  0
136379  1  0  0  0  0
137138  2  0  0  0  0
137380  1  0  0  0  0
138381  1  0  0  0  0
139140  1  0  0  0  0
139382  1  0  0  0  0
140141  2  0  0  0  0
142147  1  0  0  0  0
142383  1  6  0  0  0
142143  1  0  0  0  0
142140  1  0  0  0  0
143144  1  0  0  0  0
143384  1  0  0  0  0
143385  1  0  0  0  0
144145  1  0  0  0  0
144146  2  0  0  0  0
145386  1  0  0  0  0
145387  1  0  0  0  0
147148  1  0  0  0  0
147388  1  0  0  0  0
148149  2  0  0  0  0
150155  1  0  0  0  0
150389  1  1  0  0  0
150151  1  0  0  0  0
150148  1  0  0  0  0
151152  1  0  0  0  0
151390  1  0  0  0  0
151391  1  0  0  0  0
152153  1  0  0  0  0
152154  2  0  0  0  0
153392  1  0  0  0  0
155156  1  0  0  0  0
155393  1  0  0  0  0
156157  2  0  0  0  0
158156  1  0  0  0  0
158159  1  0  0  0  0
158207  1  0  0  0  0
158394  1  6  0  0  0
159160  1  0  0  0  0
159395  1  0  0  0  0
160161  2  0  0  0  0
162170  1  0  0  0  0
162396  1  1  0  0  0
162163  1  0  0  0  0
162160  1  0  0  0  0
163164  1  0  0  0  0
163397  1  0  0  0  0
163398  1  0  0  0  0
164165  2  0  0  0  0
164169  1  0  0  0  0
165166  1  0  0  0  0
165399  1  0  0  0  0
166167  2  0  0  0  0
166400  1  0  0  0  0
167168  1  0  0  0  0
167401  1  0  0  0  0
168169  2  0  0  0  0
168402  1  0  0  0  0
169403  1  0  0  0  0
170171  1  0  0  0  0
170404  1  0  0  0  0
171172  2  0  0  0  0
173171  1  0  0  0  0
173174  1  0  0  0  0
173204  1  0  0  0  0
173405  1  6  0  0  0
174175  1  0  0  0  0
174406  1  0  0  0  0
175176  2  0  0  0  0
177179  1  0  0  0  0
177407  1  1  0  0  0
177178  1  0  0  0  0
177175  1  0  0  0  0
178408  1  0  0  0  0
178409  1  0  0  0  0
178410  1  0  0  0  0
179180  1  0  0  0  0
179411  1  0  0  0  0
180181  2  0  0  0  0
182187  1  0  0  0  0
182412  1  6  0  0  0
182183  1  0  0  0  0
182180  1  0  0  0  0
183184  1  0  0  0  0
183413  1  0  0  0  0
183414  1  0  0  0  0
184185  1  0  0  0  0
184186  2  0  0  0  0
185415  1  0  0  0  0
187188  1  0  0  0  0
187416  1  0  0  0  0
188189  2  0  0  0  0
190193  1  0  0  0  0
190417  1  1  0  0  0
190191  1  0  0  0  0
190188  1  0  0  0  0
191192  1  0  0  0  0
191418  1  0  0  0  0
191419  1  0  0  0  0
192420  1  0  0  0  0
193194  1  0  0  0  0
193421  1  0  0  0  0
194195  2  0  0  0  0
196194  1  0  0  0  0
196197  1  0  0  0  0
196198  1  0  0  0  0
196422  1  6  0  0  0
197423  1  0  0  0  0
197424  1  0  0  0  0
198199  1  0  0  0  0
198425  1  0  0  0  0
198426  1  0  0  0  0
199200  2  0  0  0  0
199203  1  0  0  0  0
200201  1  0  0  0  0
200427  1  0  0  0  0
201202  1  0  0  0  0
201428  1  0  0  0  0
202203  2  0  0  0  0
202429  1  0  0  0  0
204205  1  0  0  0  0
204206  1  0  0  0  0
204430  1  0  0  0  0
205431  1  0  0  0  0
205432  1  0  0  0  0
205433  1  0  0  0  0
206434  1  0  0  0  0
206435  1  0  0  0  0
206436  1  0  0  0  0
207208  1  0  0  0  0
207209  1  0  0  0  0
207437  1  1  0  0  0
208438  1  0  0  0  0
208439  1  0  0  0  0
208440  1  0  0  0  0
209441  1  0  0  0  0
210211  1  0  0  0  0
210212  1  0  0  0  0
210442  1  6  0  0  0
211443  1  0  0  0  0
211444  1  0  0  0  0
211445  1  0  0  0  0
212446  1  0  0  0  0
213214  1  0  0  0  0
213215  1  0  0  0  0
213447  1  0  0  0  0
214448  1  0  0  0  0
214449  1  0  0  0  0
214450  1  0  0  0  0
215451  1  0  0  0  0
215452  1  0  0  0  0
215453  1  0  0  0  0
216217  2  0  0  0  0
216218  1  0  0  0  0
218454  1  0  0  0  0
219218  1  0  0  0  0
219220  1  0  0  0  0
219224  1  0  0  0  0
219455  1  6  0  0  0
220221  1  0  0  0  0
220456  1  0  0  0  0
220457  1  0  0  0  0
221222  1  0  0  0  0
221223  1  0  0  0  0
221458  1  0  0  0  0
222459  1  0  0  0  0
222460  1  0  0  0  0
222461  1  0  0  0  0
223462  1  0  0  0  0
223463  1  0  0  0  0
223464  1  0  0  0  0
224225  2  0  0  0  0
224226  1  0  0  0  0
226465  1  0  0  0  0
227226  1  0  0  0  0
227228  1  0  0  0  0
227232  1  0  0  0  0
227466  1  1  0  0  0
228229  1  0  0  0  0
228467  1  0  0  0  0
228468  1  0  0  0  0
229230  1  0  0  0  0
229231  2  0  0  0  0
230469  1  0  0  0  0
230470  1  0  0  0  0
232233  1  0  0  0  0
232234  2  0  0  0  0
233471  1  0  0  0  0
M  END
>  <DRUGBANK_ID>
DB18634

>  <COMMON_NAME>
Vasoactive intestinal peptide

>  <CAS_NUMBER>
37221-79-7

>  <UNII>
6J2WVD66KR

>  <SYNONYMS>
His-ser-asp-ala-val-phe-thr-asp-asn-tyr-thr-arg-leu-arg-lys-gln-met-ala-val-lys-lys-tyr-leu-asn-ser-ile-leu-asn; Vasoactive intestinal peptide (human); Vasoactive intestinal polypeptide; VIP

$$$$
