
 OpenBabel10282417133D

  9  8  0  0  0  0  0  0  0  0999 V2000
    0.9756    0.1034    0.0544 C   0  0  0  0  0  0  0  0  0  0  0  0
    0.2303   -1.0019   -0.6237 C   0  0  0  0  0  0  0  0  0  0  0  0
   -0.6644   -1.7339    0.3263 C   0  0  0  0  0  0  0  0  0  0  0  0
    0.4277    1.0104    0.6740 O   0  0  0  0  0  0  0  0  0  0  0  0
   -1.8727   -1.8687    0.1514 O   0  0  0  0  0  0  0  0  0  0  0  0
   -0.1641   -2.2119    1.1860 H   0  0  0  0  0  0  0  0  0  0  0  0
    2.0748    0.0595   -0.0174 H   0  0  0  0  0  0  0  0  0  0  0  0
   -0.3528   -0.5823   -1.4481 H   0  0  0  0  0  0  0  0  0  0  0  0
    0.9509   -1.7130   -1.0399 H   0  0  0  0  0  0  0  0  0  0  0  0
  1  7  1  0  0  0  0
  2  1  1  0  0  0  0
  2  8  1  0  0  0  0
  2  9  1  0  0  0  0
  3  2  1  0  0  0  0
  3  6  1  0  0  0  0
  4  1  2  0  0  0  0
  5  3  2  0  0  0  0
M  END
>  <DRUGBANK_ID>
DB03057

>  <SECONDARY_ACCESSION_NUMBERS>
EXPT02141

>  <COMMON_NAME>
Malonaldehyde

>  <CAS_NUMBER>
542-78-9

>  <UNII>
4Y8F71G49Q

>  <SYNONYMS>
Malondialdehyde; Malonic aldehyde; Malonic dialdehyde; Malonodialdehyde

$$$$
