1161
 OpenBabel10282417113D

 37 37  0  0  0  0  0  0  0  0999 V2000
    1.7176   -1.1383   -1.6028 Cl  0  0  0  0  0  0  0  0  0  0  0  0
    2.6952    2.2120   -0.4199 O   0  0  0  0  0  0  0  0  0  0  0  0
    1.0558    3.5436   -1.0264 O   0  0  0  0  0  0  0  0  0  0  0  0
    1.3837    0.3920    1.6787 N   0  0  0  0  0  0  0  0  0  0  0  0
   -2.7911   -1.3947    0.3054 N   0  0  0  0  0  0  0  0  0  0  0  0
    2.8041    0.2927    1.2948 C   0  0  0  0  0  0  0  0  0  0  0  0
    0.8554   -0.5498    2.6645 C   0  0  0  0  0  0  0  0  0  0  0  0
    0.8751    1.7334    1.9517 C   0  0  0  0  0  0  0  0  0  0  0  0
    3.2851    0.9660   -0.0460 C   0  0  0  0  0  0  0  0  0  0  0  0
    1.3052   -0.1566    4.0546 C   0  0  0  0  0  0  0  0  0  0  0  0
    1.5761    2.7411    2.8190 C   0  0  0  0  0  0  0  0  0  0  0  0
    1.4187    2.3992   -0.9252 C   0  0  0  0  0  0  0  0  0  0  0  0
    0.3271    1.2671   -0.9462 C   0  0  0  0  0  0  0  0  0  0  0  0
    0.4516   -0.1366   -0.9785 C   0  0  0  0  0  0  0  0  0  0  0  0
   -0.9682    1.7425   -0.5549 C   0  0  0  0  0  0  0  0  0  0  0  0
   -1.8428   -0.4960   -0.1900 C   0  0  0  0  0  0  0  0  0  0  0  0
   -0.5736   -0.9613   -0.4739 C   0  0  0  0  0  0  0  0  0  0  0  0
   -2.0333    0.8753   -0.2073 C   0  0  0  0  0  0  0  0  0  0  0  0
   -2.5864   -2.3613    0.0561 H   0  0  0  0  0  0  0  0  0  0  0  0
   -3.7480   -1.1528    0.0698 H   0  0  0  0  0  0  0  0  0  0  0  0
    3.0889   -0.7684    1.2199 H   0  0  0  0  0  0  0  0  0  0  0  0
    3.4244    0.6908    2.1030 H   0  0  0  0  0  0  0  0  0  0  0  0
   -0.2460   -0.5099    2.6270 H   0  0  0  0  0  0  0  0  0  0  0  0
    1.0995   -1.5923    2.4259 H   0  0  0  0  0  0  0  0  0  0  0  0
    0.9817    2.2574    1.0475 H   0  0  0  0  0  0  0  0  0  0  0  0
   -0.2138    1.7319    2.0821 H   0  0  0  0  0  0  0  0  0  0  0  0
    3.2230    0.3812   -0.9452 H   0  0  0  0  0  0  0  0  0  0  0  0
    4.3746    1.0920    0.0144 H   0  0  0  0  0  0  0  0  0  0  0  0
    0.8517    0.7951    4.3365 H   0  0  0  0  0  0  0  0  0  0  0  0
    0.9825   -0.8670    4.8124 H   0  0  0  0  0  0  0  0  0  0  0  0
    2.3922   -0.0474    4.0820 H   0  0  0  0  0  0  0  0  0  0  0  0
    2.6584    2.6293    2.7616 H   0  0  0  0  0  0  0  0  0  0  0  0
    1.3349    3.7340    2.4169 H   0  0  0  0  0  0  0  0  0  0  0  0
    1.2290    2.7115    3.8462 H   0  0  0  0  0  0  0  0  0  0  0  0
   -1.1319    2.8080   -0.3676 H   0  0  0  0  0  0  0  0  0  0  0  0
   -0.3514   -2.0083   -0.2727 H   0  0  0  0  0  0  0  0  0  0  0  0
   -2.9799    1.2906    0.1322 H   0  0  0  0  0  0  0  0  0  0  0  0
  1 14  1  0  0  0  0
  2  9  1  0  0  0  0
  2 12  1  0  0  0  0
  3 12  2  0  0  0  0
  4  6  1  0  0  0  0
  4  7  1  0  0  0  0
  4  8  1  0  0  0  0
  5 16  1  0  0  0  0
  5 19  1  0  0  0  0
  5 20  1  0  0  0  0
  6  9  1  0  0  0  0
  6 21  1  0  0  0  0
  6 22  1  0  0  0  0
  7 10  1  0  0  0  0
  7 23  1  0  0  0  0
  7 24  1  0  0  0  0
  8 11  1  0  0  0  0
  8 25  1  0  0  0  0
  8 26  1  0  0  0  0
  9 27  1  0  0  0  0
  9 28  1  0  0  0  0
 10 29  1  0  0  0  0
 10 30  1  0  0  0  0
 10 31  1  0  0  0  0
 11 32  1  0  0  0  0
 11 33  1  0  0  0  0
 11 34  1  0  0  0  0
 12 13  1  0  0  0  0
 13 14  2  0  0  0  0
 13 15  1  0  0  0  0
 14 17  1  0  0  0  0
 15 18  2  0  0  0  0
 15 35  1  0  0  0  0
 16 17  2  0  0  0  0
 16 18  1  0  0  0  0
 17 36  1  0  0  0  0
 18 37  1  0  0  0  0
M  END
>  <DRUGBANK_ID>
DB01161

>  <SECONDARY_ACCESSION_NUMBERS>
APRD00404

>  <COMMON_NAME>
Chloroprocaine

>  <CAS_NUMBER>
133-16-4

>  <UNII>
5YVB0POT2H

>  <SYNONYMS>
2-(Diethylamino)ethyl 4-amino-2-chlorobenzoate; 2-chloroprocaine; 4-amino-2-chlorobenzoic acid 2-(diethylamino)ethyl ester; Chloroprocain; Chloroprocaine; Chloroprocainum; Chlorprocaine; Cloroprocaina

$$$$
