THZ
 OpenBabel10282417173D

 37 38  0  0  0  0  0  0  0  0999 V2000
    1.0095   -0.0359   -0.0838 N   0  0  0  0  0  0  0  0  0  0  0  0
    0.4027    1.1794    0.4842 C   0  0  1  0  0  0  0  0  0  0  0  0
    1.0268    2.4696   -0.1560 C   0  0  0  0  0  0  0  0  0  0  0  0
    0.7771    2.7138   -1.6503 C   0  0  0  0  0  0  0  0  0  0  0  0
   -0.6641    3.0330   -1.8905 C   0  0  0  0  0  0  0  0  0  0  0  0
   -1.2040    4.1817   -1.1828 N   0  0  0  0  0  0  0  0  0  0  0  0
   -2.2170    4.8427   -1.7958 C   0  0  0  0  0  0  0  0  0  0  0  0
   -2.8979    5.6796   -0.9913 N   0  0  0  0  0  0  0  0  0  0  0  0
   -2.4908    4.6938   -3.0358 N   0  0  0  0  0  0  0  0  0  0  0  0
   -1.1894    1.0258    0.6805 C   0  0  0  0  0  0  0  0  0  0  0  0
   -1.6399    1.3436    1.7741 O   0  0  0  0  0  0  0  0  0  0  0  0
   -2.1026    0.7022   -0.4728 C   0  0  0  0  0  0  0  0  0  0  0  0
   -1.6898   -0.3318   -1.7976 S   0  0  0  0  0  0  0  0  0  0  0  0
   -2.7965    0.5194   -2.8393 C   0  0  0  0  0  0  0  0  0  0  0  0
   -3.0079    0.3975   -4.2315 C   0  0  0  0  0  0  0  0  0  0  0  0
   -4.0136    1.1665   -4.8352 C   0  0  0  0  0  0  0  0  0  0  0  0
   -4.7228    2.1051   -4.0976 C   0  0  0  0  0  0  0  0  0  0  0  0
   -4.4535    2.2733   -2.7310 C   0  0  0  0  0  0  0  0  0  0  0  0
   -3.5141    1.4403   -2.0710 C   0  0  0  0  0  0  0  0  0  0  0  0
   -3.1619    1.4716   -0.7120 N   0  0  0  0  0  0  0  0  0  0  0  0
    0.7594   -0.1183   -1.0676 H   0  0  0  0  0  0  0  0  0  0  0  0
    2.0268    0.0578   -0.0642 H   0  0  0  0  0  0  0  0  0  0  0  0
    0.7729    1.2127    1.5231 H   0  0  0  0  0  0  0  0  0  0  0  0
    0.7119    3.3530    0.4129 H   0  0  0  0  0  0  0  0  0  0  0  0
    2.1202    2.4285   -0.0377 H   0  0  0  0  0  0  0  0  0  0  0  0
    1.3862    3.5219   -2.0630 H   0  0  0  0  0  0  0  0  0  0  0  0
    1.0325    1.8024   -2.2084 H   0  0  0  0  0  0  0  0  0  0  0  0
   -0.9624    2.9122   -2.9343 H   0  0  0  0  0  0  0  0  0  0  0  0
   -1.1174    2.2220   -1.4148 H   0  0  0  0  0  0  0  0  0  0  0  0
   -1.4245    3.9726   -0.2101 H   0  0  0  0  0  0  0  0  0  0  0  0
   -3.3629    6.4399   -1.4707 H   0  0  0  0  0  0  0  0  0  0  0  0
   -2.4485    5.9715   -0.1345 H   0  0  0  0  0  0  0  0  0  0  0  0
   -3.3086    5.2418   -3.2889 H   0  0  0  0  0  0  0  0  0  0  0  0
   -2.4193   -0.2882   -4.8339 H   0  0  0  0  0  0  0  0  0  0  0  0
   -4.2416    1.0320   -5.8924 H   0  0  0  0  0  0  0  0  0  0  0  0
   -5.4810    2.7182   -4.5831 H   0  0  0  0  0  0  0  0  0  0  0  0
   -4.9414    3.0758   -2.1844 H   0  0  0  0  0  0  0  0  0  0  0  0
  1 21  1  0  0  0  0
  1 22  1  0  0  0  0
  2  1  1  0  0  0  0
  2  3  1  0  0  0  0
  2 10  1  0  0  0  0
  2 23  1  1  0  0  0
  3  4  1  0  0  0  0
  3 24  1  0  0  0  0
  3 25  1  0  0  0  0
  4  5  1  0  0  0  0
  4 26  1  0  0  0  0
  4 27  1  0  0  0  0
  5  6  1  0  0  0  0
  5 28  1  0  0  0  0
  5 29  1  0  0  0  0
  6  7  1  0  0  0  0
  6 30  1  0  0  0  0
  7  8  1  0  0  0  0
  7  9  2  0  0  0  0
  8 31  1  0  0  0  0
  8 32  1  0  0  0  0
  9 33  1  0  0  0  0
 10 11  2  0  0  0  0
 10 12  1  0  0  0  0
 12 13  1  0  0  0  0
 12 20  2  0  0  0  0
 13 14  1  0  0  0  0
 14 15  2  0  0  0  0
 14 19  1  0  0  0  0
 15 16  1  0  0  0  0
 15 34  1  0  0  0  0
 16 17  2  0  0  0  0
 16 35  1  0  0  0  0
 17 18  1  0  0  0  0
 17 36  1  0  0  0  0
 18 19  2  0  0  0  0
 18 37  1  0  0  0  0
 19 20  1  0  0  0  0
M  END
>  <DRUGBANK_ID>
DB08624

>  <COMMON_NAME>
1-[(4S)-4-amino-5-(1,3-benzothiazol-2-yl)-5-oxopentyl]guanidine

$$$$
