
 OpenBabel10282417143D

 41 43  0  0  1  0  0  0  0  0999 V2000
    0.9225    0.5584   -0.0312 N   0  0  0  0  0  0  0  0  0  0  0  0
    0.3624    0.2881   -1.3676 C   0  0  1  0  0  0  0  0  0  0  0  0
    0.8206   -1.1099   -1.6748 C   0  0  0  0  0  0  0  0  0  0  0  0
   -0.0644   -2.2854   -0.4232 S   0  0  0  0  0  0  0  0  0  0  0  0
    1.0775   -2.6523    0.8976 C   0  0  0  0  0  0  0  0  0  0  0  0
    2.5437   -2.6820    0.5575 C   0  0  0  0  0  0  0  0  0  0  0  0
    3.2556   -1.7205    0.8724 O   0  0  0  0  0  0  0  0  0  0  0  0
    3.1375   -3.8010    0.0132 N   0  0  0  0  0  0  0  0  0  0  0  0
    2.5381   -4.9805   -0.5109 C   0  0  0  0  0  0  0  0  0  0  0  0
    3.0220   -6.2030   -0.0921 C   0  0  0  0  0  0  0  0  0  0  0  0
    2.3874   -7.3723   -0.5458 C   0  0  0  0  0  0  0  0  0  0  0  0
    1.2407   -7.3273   -1.3838 C   0  0  0  0  0  0  0  0  0  0  0  0
    0.6213   -8.4388   -1.8137 N   0  0  0  0  0  0  0  0  0  0  0  0
    1.1133   -9.6273   -1.4596 C   0  0  0  0  0  0  0  0  0  0  0  0
    2.2214   -9.7717   -0.6536 C   0  0  0  0  0  0  0  0  0  0  0  0
    2.8639   -8.6303   -0.1851 C   0  0  0  0  0  0  0  0  0  0  0  0
    0.7725   -6.1212   -1.8436 C   0  0  0  0  0  0  0  0  0  0  0  0
    1.5277   -4.9939   -1.5088 C   0  0  0  0  0  0  0  0  0  0  0  0
    1.2839   -3.9063   -2.3218 C   0  0  0  0  0  0  0  0  0  0  0  0
    0.1020   -3.7975   -3.0658 C   0  0  0  0  0  0  0  0  0  0  0  0
   -0.6990   -4.8888   -3.1715 C   0  0  0  0  0  0  0  0  0  0  0  0
   -0.3332   -6.0582   -2.6480 N   0  0  0  0  0  0  0  0  0  0  0  0
   -1.2097    0.3210   -1.4283 C   0  0  0  0  0  0  0  0  0  0  0  0
   -1.6945    1.1837   -2.3541 O   0  0  0  0  0  0  0  0  0  0  0  0
   -1.9824   -0.3573   -0.7985 O   0  0  0  0  0  0  0  0  0  0  0  0
    0.4937   -0.1658    0.5616 H   0  0  0  0  0  0  0  0  0  0  0  0
    1.9120    0.2591   -0.0287 H   0  0  0  0  0  0  0  0  0  0  0  0
    0.7908    0.9842   -2.0973 H   0  0  0  0  0  0  0  0  0  0  0  0
    0.5350   -1.2883   -2.7210 H   0  0  0  0  0  0  0  0  0  0  0  0
    1.9201   -1.1923   -1.6720 H   0  0  0  0  0  0  0  0  0  0  0  0
    0.9069   -1.8945    1.6697 H   0  0  0  0  0  0  0  0  0  0  0  0
    0.7844   -3.6004    1.3604 H   0  0  0  0  0  0  0  0  0  0  0  0
    4.1343   -3.8171    0.2071 H   0  0  0  0  0  0  0  0  0  0  0  0
    3.8684   -6.2605    0.5889 H   0  0  0  0  0  0  0  0  0  0  0  0
    0.5685  -10.4727   -1.8635 H   0  0  0  0  0  0  0  0  0  0  0  0
    2.5747  -10.7595   -0.3944 H   0  0  0  0  0  0  0  0  0  0  0  0
    3.7391   -8.7307    0.4492 H   0  0  0  0  0  0  0  0  0  0  0  0
    1.9642   -3.0786   -2.2002 H   0  0  0  0  0  0  0  0  0  0  0  0
   -0.2989   -2.8556   -3.4175 H   0  0  0  0  0  0  0  0  0  0  0  0
   -1.6502   -4.8299   -3.6881 H   0  0  0  0  0  0  0  0  0  0  0  0
   -1.0285    1.7840   -2.7169 H   0  0  0  0  0  0  0  0  0  0  0  0
  1 26  1  0  0  0  0
  1 27  1  0  0  0  0
  2  1  1  0  0  0  0
  2  3  1  0  0  0  0
  2 23  1  0  0  0  0
  2 28  1  6  0  0  0
  3  4  1  0  0  0  0
  3 29  1  0  0  0  0
  3 30  1  0  0  0  0
  4  5  1  0  0  0  0
  5  6  1  0  0  0  0
  5 31  1  0  0  0  0
  5 32  1  0  0  0  0
  6  7  2  0  0  0  0
  6  8  1  0  0  0  0
  8  9  1  0  0  0  0
  8 33  1  0  0  0  0
  9 10  2  0  0  0  0
  9 18  1  0  0  0  0
 10 11  1  0  0  0  0
 10 34  1  0  0  0  0
 11 12  2  0  0  0  0
 11 16  1  0  0  0  0
 12 13  1  0  0  0  0
 12 17  1  0  0  0  0
 13 14  2  0  0  0  0
 14 15  1  0  0  0  0
 14 35  1  0  0  0  0
 15 16  2  0  0  0  0
 15 36  1  0  0  0  0
 16 37  1  0  0  0  0
 17 18  2  0  0  0  0
 17 22  1  0  0  0  0
 18 19  1  0  0  0  0
 19 20  2  0  0  0  0
 19 38  1  0  0  0  0
 20 21  1  0  0  0  0
 20 39  1  0  0  0  0
 21 22  2  0  0  0  0
 21 40  1  0  0  0  0
 23 24  1  0  0  0  0
 23 25  2  0  0  0  0
 24 41  1  0  0  0  0
M  END
>  <DRUGBANK_ID>
DB04437

>  <SECONDARY_ACCESSION_NUMBERS>
EXPT02382

>  <COMMON_NAME>
Cysteine-Methylene-Carbamoyl-1,10-Phenanthroline

$$$$
