
 OpenBabel10282417183D

 27 29  0  0  0  0  0  0  0  0999 V2000
   -1.2146   -1.4728   -0.0453 C   0  0  0  0  0  0  0  0  0  0  0  0
   -0.0063   -2.1797   -0.0373 C   0  0  0  0  0  0  0  0  0  0  0  0
   -1.2053   -0.0749   -0.0281 C   0  0  0  0  0  0  0  0  0  0  0  0
    1.2003   -1.4653   -0.0108 C   0  0  0  0  0  0  0  0  0  0  0  0
   -0.0057    0.6335   -0.0149 C   0  0  0  0  0  0  0  0  0  0  0  0
    1.1945   -0.0702   -0.0093 C   0  0  0  0  0  0  0  0  0  0  0  0
    0.0246   -3.6313    0.0509 C   0  0  0  0  0  0  0  0  0  0  0  0
    0.6013   -4.3655    0.9807 N   0  0  0  0  0  0  0  0  0  0  0  0
   -0.5772   -4.3450   -0.9580 O   0  0  0  0  0  0  0  0  0  0  0  0
    0.3486   -5.6493    0.5871 C   0  0  0  0  0  0  0  0  0  0  0  0
   -0.3517   -5.6527   -0.6075 C   0  0  0  0  0  0  0  0  0  0  0  0
   -0.3997   -8.0312   -0.6973 C   0  0  0  0  0  0  0  0  0  0  0  0
   -0.7426   -6.8031   -1.2967 C   0  0  0  0  0  0  0  0  0  0  0  0
    0.2970   -8.0487    0.5326 C   0  0  0  0  0  0  0  0  0  0  0  0
    0.6815   -6.8662    1.1858 C   0  0  0  0  0  0  0  0  0  0  0  0
   -2.6970    0.7841   -0.0028 Cl  0  0  0  0  0  0  0  0  0  0  0  0
    2.6874    0.7854    0.0099 Cl  0  0  0  0  0  0  0  0  0  0  0  0
   -0.7380   -9.3624   -1.2962 C   0  0  0  0  0  0  0  0  0  0  0  0
   -1.3972   -9.3567   -2.4709 O   0  0  0  0  0  0  0  0  0  0  0  0
   -0.4302  -10.4112   -0.7476 O   0  0  0  0  0  0  0  0  0  0  0  0
   -2.1620   -2.0068   -0.0246 H   0  0  0  0  0  0  0  0  0  0  0  0
    2.1468   -2.0023    0.0213 H   0  0  0  0  0  0  0  0  0  0  0  0
   -0.0056    1.7204   -0.0006 H   0  0  0  0  0  0  0  0  0  0  0  0
   -1.2751   -6.7084   -2.2297 H   0  0  0  0  0  0  0  0  0  0  0  0
    0.5547   -8.9997    1.0031 H   0  0  0  0  0  0  0  0  0  0  0  0
    1.2190   -6.8850    2.1280 H   0  0  0  0  0  0  0  0  0  0  0  0
   -1.6244   -8.5086   -2.8827 H   0  0  0  0  0  0  0  0  0  0  0  0
  1 21  1  0  0  0  0
  2  1  1  0  0  0  0
  2  7  1  0  0  0  0
  3  1  2  0  0  0  0
  3 16  1  0  0  0  0
  4  2  2  0  0  0  0
  4 22  1  0  0  0  0
  5  3  1  0  0  0  0
  5 23  1  0  0  0  0
  6  4  1  0  0  0  0
  6  5  2  0  0  0  0
  6 17  1  0  0  0  0
  8  7  2  0  0  0  0
  9  7  1  0  0  0  0
 10  8  1  0  0  0  0
 10 11  1  0  0  0  0
 10 15  2  0  0  0  0
 11  9  1  0  0  0  0
 11 13  2  0  0  0  0
 12 18  1  0  0  0  0
 13 12  1  0  0  0  0
 13 24  1  0  0  0  0
 14 12  2  0  0  0  0
 14 25  1  0  0  0  0
 15 14  1  0  0  0  0
 15 26  1  0  0  0  0
 18 19  1  0  0  0  0
 18 20  2  0  0  0  0
 19 27  1  0  0  0  0
M  END
>  <DRUGBANK_ID>
DB11644

>  <COMMON_NAME>
Tafamidis

>  <CAS_NUMBER>
594839-88-0

>  <UNII>
8FG9H9D31J

>  <SYNONYMS>
Tafamidis; Tafamidisum

$$$$
