059
 OpenBabel10282417163D

 63 64  0  0  0  0  0  0  0  0999 V2000
   -7.6828    3.8408    2.2935 C   0  0  0  0  0  0  0  0  0  0  0  0
   -8.3248    5.0694    2.5726 C   0  0  0  0  0  0  0  0  0  0  0  0
   -7.7114    6.3015    2.3175 C   0  0  0  0  0  0  0  0  0  0  0  0
   -6.4048    6.2992    1.9078 C   0  0  0  0  0  0  0  0  0  0  0  0
   -5.7841    5.0635    1.7862 C   0  0  0  0  0  0  0  0  0  0  0  0
   -6.4075    3.8442    1.7790 C   0  0  0  0  0  0  0  0  0  0  0  0
   -5.6104    2.7095    1.1741 C   0  0  0  0  0  0  0  0  0  0  0  0
   -5.2878    2.8636   -0.3382 C   0  0  0  0  0  0  0  0  0  0  0  0
   -4.1636    4.1891   -0.8879 S   0  0  0  0  0  0  0  0  0  0  0  0
   -4.7665    5.4733   -0.6882 O   0  0  0  0  0  0  0  0  0  0  0  0
   -3.6879    3.8685   -2.2278 O   0  0  0  0  0  0  0  0  0  0  0  0
   -2.7905    4.0604    0.1272 N   0  0  0  0  0  0  0  0  0  0  0  0
   -1.7584    5.1649   -0.0548 C   0  0  1  0  0  0  0  0  0  0  0  0
   -1.7917    6.2278    1.0916 C   0  0  0  0  0  0  0  0  0  0  0  0
   -0.8702    7.4148    0.8801 C   0  0  0  0  0  0  0  0  0  0  0  0
   -3.1229    6.9027    1.2502 C   0  0  0  0  0  0  0  0  0  0  0  0
   -0.0748    4.5136   -0.2111 P   0  0  2  0  0  0  0  0  0  0  0  0
    0.2924    3.8070    1.2026 O   0  0  0  0  0  0  0  0  0  0  0  0
    0.8656    5.6325   -0.5166 O   0  0  0  0  0  0  0  0  0  0  0  0
    0.0316    3.0918   -1.2831 C   0  0  0  0  0  0  0  0  0  0  0  0
   -0.0797    3.4266   -2.7664 C   0  0  2  0  0  0  0  0  0  0  0  0
    0.0157    2.1705   -3.6006 C   0  0  0  0  0  0  0  0  0  0  0  0
   -0.8630    1.7063   -4.3073 O   0  0  0  0  0  0  0  0  0  0  0  0
    1.2220    1.5670   -3.5221 O   0  0  0  0  0  0  0  0  0  0  0  0
    0.9572    4.4413   -3.2174 C   0  0  0  0  0  0  0  0  0  0  0  0
    2.2052    4.5406   -2.5717 C   0  0  0  0  0  0  0  0  0  0  0  0
    0.6416    5.3646   -4.2162 C   0  0  0  0  0  0  0  0  0  0  0  0
    1.5484    6.3750   -4.5334 C   0  0  0  0  0  0  0  0  0  0  0  0
    2.7342    6.5186   -3.8066 C   0  0  0  0  0  0  0  0  0  0  0  0
    3.0308    5.6492   -2.7582 C   0  0  0  0  0  0  0  0  0  0  0  0
    4.1201    5.9549   -1.7547 C   0  0  0  0  0  0  0  0  0  0  0  0
    3.5951    6.1672   -0.4094 N   0  0  0  0  0  0  0  0  0  0  0  0
   -1.9498    5.6534   -1.0141 H   0  0  0  0  0  0  0  0  0  0  0  0
   -1.0797    3.8546   -2.9089 H   0  0  0  0  0  0  0  0  0  0  0  0
   -8.1884    2.9041    2.4885 H   0  0  0  0  0  0  0  0  0  0  0  0
   -9.3347    5.0689    2.9644 H   0  0  0  0  0  0  0  0  0  0  0  0
   -8.2237    7.2478    2.4611 H   0  0  0  0  0  0  0  0  0  0  0  0
   -5.8772    7.2183    1.6578 H   0  0  0  0  0  0  0  0  0  0  0  0
   -4.7517    4.9407    1.5929 H   0  0  0  0  0  0  0  0  0  0  0  0
   -4.6763    2.5700    1.7342 H   0  0  0  0  0  0  0  0  0  0  0  0
   -6.1861    1.7874    1.3076 H   0  0  0  0  0  0  0  0  0  0  0  0
   -4.8226    1.9417   -0.7034 H   0  0  0  0  0  0  0  0  0  0  0  0
   -6.2173    3.0156   -0.9002 H   0  0  0  0  0  0  0  0  0  0  0  0
   -2.9746    3.8776    1.1140 H   0  0  0  0  0  0  0  0  0  0  0  0
   -1.5406    5.7251    2.0367 H   0  0  0  0  0  0  0  0  0  0  0  0
   -1.1064    7.8970   -0.0749 H   0  0  0  0  0  0  0  0  0  0  0  0
   -1.0213    8.1501    1.6785 H   0  0  0  0  0  0  0  0  0  0  0  0
    0.1787    7.1484    0.9218 H   0  0  0  0  0  0  0  0  0  0  0  0
   -3.7193    6.1370    1.6390 H   0  0  0  0  0  0  0  0  0  0  0  0
   -3.1863    7.6549    2.0377 H   0  0  0  0  0  0  0  0  0  0  0  0
   -3.5269    7.3011    0.3168 H   0  0  0  0  0  0  0  0  0  0  0  0
    1.0397    3.1735    1.1340 H   0  0  0  0  0  0  0  0  0  0  0  0
    0.9917    2.5931   -1.0838 H   0  0  0  0  0  0  0  0  0  0  0  0
   -0.7156    2.3534   -0.9770 H   0  0  0  0  0  0  0  0  0  0  0  0
    1.1949    0.8561   -4.1946 H   0  0  0  0  0  0  0  0  0  0  0  0
    2.4797    3.8584   -1.7709 H   0  0  0  0  0  0  0  0  0  0  0  0
   -0.3159    5.3185   -4.7319 H   0  0  0  0  0  0  0  0  0  0  0  0
    1.3066    7.0911   -5.3128 H   0  0  0  0  0  0  0  0  0  0  0  0
    3.4106    7.3346   -4.0380 H   0  0  0  0  0  0  0  0  0  0  0  0
    4.8204    5.1174   -1.7192 H   0  0  0  0  0  0  0  0  0  0  0  0
    4.6631    6.8523   -2.0617 H   0  0  0  0  0  0  0  0  0  0  0  0
    4.2913    6.5404    0.2234 H   0  0  0  0  0  0  0  0  0  0  0  0
    2.8125    6.8305   -0.4494 H   0  0  0  0  0  0  0  0  0  0  0  0
  1  2  2  0  0  0  0
  1  6  1  0  0  0  0
  1 35  1  0  0  0  0
  2  3  1  0  0  0  0
  2 36  1  0  0  0  0
  3  4  2  0  0  0  0
  3 37  1  0  0  0  0
  4  5  1  0  0  0  0
  4 38  1  0  0  0  0
  5  6  2  0  0  0  0
  5 39  1  0  0  0  0
  6  7  1  0  0  0  0
  7  8  1  0  0  0  0
  7 40  1  0  0  0  0
  7 41  1  0  0  0  0
  8  9  1  0  0  0  0
  8 42  1  0  0  0  0
  8 43  1  0  0  0  0
  9 12  1  0  0  0  0
  9 11  2  0  0  0  0
  9 10  2  0  0  0  0
 12 44  1  0  0  0  0
 13 14  1  0  0  0  0
 13 33  1  6  0  0  0
 13 17  1  0  0  0  0
 13 12  1  0  0  0  0
 14 15  1  0  0  0  0
 14 16  1  0  0  0  0
 14 45  1  0  0  0  0
 15 46  1  0  0  0  0
 15 47  1  0  0  0  0
 15 48  1  0  0  0  0
 16 49  1  0  0  0  0
 16 50  1  0  0  0  0
 16 51  1  0  0  0  0
 17 20  1  0  0  0  0
 17 19  2  6  0  0  0
 17 18  1  0  0  0  0
 18 52  1  0  0  0  0
 20 21  1  0  0  0  0
 20 53  1  0  0  0  0
 20 54  1  0  0  0  0
 21 25  1  0  0  0  0
 21 22  1  0  0  0  0
 21 34  1  6  0  0  0
 22 23  2  0  0  0  0
 22 24  1  0  0  0  0
 24 55  1  0  0  0  0
 25 27  2  0  0  0  0
 25 26  1  0  0  0  0
 26 30  2  0  0  0  0
 26 56  1  0  0  0  0
 27 28  1  0  0  0  0
 27 57  1  0  0  0  0
 28 29  2  0  0  0  0
 28 58  1  0  0  0  0
 29 30  1  0  0  0  0
 29 59  1  0  0  0  0
 30 31  1  0  0  0  0
 31 32  1  0  0  0  0
 31 60  1  0  0  0  0
 31 61  1  0  0  0  0
 32 62  1  0  0  0  0
 32 63  1  0  0  0  0
M  END
>  <DRUGBANK_ID>
DB06835

>  <COMMON_NAME>
(2S)-2-[3-(AMINOMETHYL)PHENYL]-3-{(S)-HYDROXY[(1R)-2-METHYL-1-{[(2-PHENYLETHYL)SULFONYL]AMINO}PROPYL]PHOSPHORYL}PROPANOIC ACID

$$$$
