
 OpenBabel10282417193D

 31 32  0  0  0  0  0  0  0  0999 V2000
    0.9489    0.0740    0.0495 C   0  0  0  0  0  0  0  0  0  0  0  0
    0.4709    1.5210   -0.0092 C   0  0  0  0  0  0  0  0  0  0  0  0
    0.9255    2.2525   -1.2936 C   0  0  0  0  0  0  0  0  0  0  0  0
    0.4414    1.4931   -2.5686 C   0  0  0  0  0  0  0  0  0  0  0  0
   -1.0719    1.3360   -2.6931 C   0  0  0  0  0  0  0  0  0  0  0  0
    0.5001    3.6523   -1.2879 N   0  0  0  0  0  0  0  0  0  0  0  0
    1.3353    4.7980   -1.2925 C   0  0  0  0  0  0  0  0  0  0  0  0
    0.4848    5.9157   -1.3486 C   0  0  0  0  0  0  0  0  0  0  0  0
   -0.8205    5.4797   -1.3779 N   0  0  0  0  0  0  0  0  0  0  0  0
   -0.8350    4.1048   -1.2364 C   0  0  0  0  0  0  0  0  0  0  0  0
   -1.8632    3.4709   -1.0712 O   0  0  0  0  0  0  0  0  0  0  0  0
    0.8742    7.1950   -1.3239 N   0  0  0  0  0  0  0  0  0  0  0  0
    2.2233    7.3194   -1.2290 C   0  0  0  0  0  0  0  0  0  0  0  0
    3.1020    6.2212   -1.1772 C   0  0  0  0  0  0  0  0  0  0  0  0
    2.6774    4.9152   -1.2124 N   0  0  0  0  0  0  0  0  0  0  0  0
    4.5165    6.4494   -1.0871 C   0  0  0  0  0  0  0  0  0  0  0  0
    5.6954    6.6967   -1.0178 C   0  0  0  0  0  0  0  0  0  0  0  0
    0.5625   -0.5228   -0.7825 H   0  0  0  0  0  0  0  0  0  0  0  0
    0.5978   -0.4086    0.9654 H   0  0  0  0  0  0  0  0  0  0  0  0
    2.0415    0.0292    0.0239 H   0  0  0  0  0  0  0  0  0  0  0  0
   -0.6209    1.5278    0.0780 H   0  0  0  0  0  0  0  0  0  0  0  0
    0.8381    2.0595    0.8719 H   0  0  0  0  0  0  0  0  0  0  0  0
    2.0245    2.2428   -1.3130 H   0  0  0  0  0  0  0  0  0  0  0  0
    0.8156    1.9984   -3.4650 H   0  0  0  0  0  0  0  0  0  0  0  0
    0.8825    0.4891   -2.5937 H   0  0  0  0  0  0  0  0  0  0  0  0
   -1.5252    2.2974   -2.9331 H   0  0  0  0  0  0  0  0  0  0  0  0
   -1.3540    0.6767   -3.5154 H   0  0  0  0  0  0  0  0  0  0  0  0
   -1.5246    0.9326   -1.7811 H   0  0  0  0  0  0  0  0  0  0  0  0
   -1.6498    6.0452   -1.3988 H   0  0  0  0  0  0  0  0  0  0  0  0
    2.5864    8.3431   -1.1939 H   0  0  0  0  0  0  0  0  0  0  0  0
    6.7383    6.9149   -0.9593 H   0  0  0  0  0  0  0  0  0  0  0  0
  1  2  1  0  0  0  0
  1 18  1  0  0  0  0
  1 19  1  0  0  0  0
  1 20  1  0  0  0  0
  2  3  1  0  0  0  0
  2 21  1  0  0  0  0
  2 22  1  0  0  0  0
  3  4  1  0  0  0  0
  3  6  1  0  0  0  0
  3 23  1  0  0  0  0
  4  5  1  0  0  0  0
  4 24  1  0  0  0  0
  4 25  1  0  0  0  0
  5 26  1  0  0  0  0
  5 27  1  0  0  0  0
  5 28  1  0  0  0  0
  6  7  1  0  0  0  0
  6 10  1  0  0  0  0
  7  8  1  0  0  0  0
  7 15  2  0  0  0  0
  8  9  1  0  0  0  0
  8 12  2  0  0  0  0
  9 10  1  0  0  0  0
  9 29  1  0  0  0  0
 10 11  2  0  0  0  0
 12 13  1  0  0  0  0
 13 14  2  0  0  0  0
 13 30  1  0  0  0  0
 14 15  1  0  0  0  0
 14 16  1  0  0  0  0
 16 17  3  0  0  0  0
 17 31  1  0  0  0  0
M  END
>  <DRUGBANK_ID>
DB12209

>  <COMMON_NAME>
Tirasemtiv

>  <CAS_NUMBER>
1005491-05-3

>  <UNII>
G8WSM7R635

>  <SYNONYMS>
Tirasemtiv

$$$$
