
 OpenBabel10282417183D

 27 28  0  0  0  0  0  0  0  0999 V2000
    2.3504    0.0080   -0.0079 C   0  0  0  0  0  0  0  0  0  0  0  0
    1.5073   -1.0832   -0.2062 C   0  0  0  0  0  0  0  0  0  0  0  0
    0.1596   -1.0720   -0.1528 N   0  0  0  0  0  0  0  0  0  0  0  0
   -0.4044    0.1284   -0.0193 C   0  0  0  0  0  0  0  0  0  0  0  0
    0.3127    1.3110    0.0216 C   0  0  0  0  0  0  0  0  0  0  0  0
    1.7122    1.2484    0.0427 C   0  0  0  0  0  0  0  0  0  0  0  0
   -2.1151    0.0960    0.0099 Cl  0  0  0  0  0  0  0  0  0  0  0  0
    4.0465   -2.2147    1.5700 C   0  0  0  0  0  0  0  0  0  0  0  0
    3.1126   -2.9054    1.0234 N   0  0  0  0  0  0  0  0  0  0  0  0
    2.7796   -4.1364    1.4037 N   0  3  0  0  0  0  0  0  0  0  0  0
    3.4449   -4.7708    2.2333 O   0  5  0  0  0  0  0  0  0  0  0  0
    1.7727   -4.6161    0.8567 O   0  0  0  0  0  0  0  0  0  0  0  0
    4.9454   -2.5522    2.5407 N   0  0  0  0  0  0  0  0  0  0  0  0
    6.0113   -1.5909    2.6979 C   0  0  0  0  0  0  0  0  0  0  0  0
    5.3455   -0.3221    2.1352 C   0  0  0  0  0  0  0  0  0  0  0  0
    4.3234   -0.8875    1.2472 N   0  0  0  0  0  0  0  0  0  0  0  0
    3.8552   -0.1526    0.0711 C   0  0  0  0  0  0  0  0  0  0  0  0
    1.8924   -2.0578   -0.4703 H   0  0  0  0  0  0  0  0  0  0  0  0
   -0.2068    2.2602    0.0296 H   0  0  0  0  0  0  0  0  0  0  0  0
    2.2849    2.1715    0.0699 H   0  0  0  0  0  0  0  0  0  0  0  0
    5.0047   -3.5111    2.8718 H   0  0  0  0  0  0  0  0  0  0  0  0
    6.8762   -1.8745    2.0861 H   0  0  0  0  0  0  0  0  0  0  0  0
    6.3163   -1.4921    3.7412 H   0  0  0  0  0  0  0  0  0  0  0  0
    6.0622    0.3422    1.6432 H   0  0  0  0  0  0  0  0  0  0  0  0
    4.8498    0.2227    2.9478 H   0  0  0  0  0  0  0  0  0  0  0  0
    4.2171   -0.6441   -0.8405 H   0  0  0  0  0  0  0  0  0  0  0  0
    4.3143    0.8469    0.0622 H   0  0  0  0  0  0  0  0  0  0  0  0
  1  6  2  0  0  0  0
  2  1  1  0  0  0  0
  2 18  1  0  0  0  0
  3  2  2  0  0  0  0
  3  4  1  0  0  0  0
  4  7  1  0  0  0  0
  5  4  2  0  0  0  0
  5 19  1  0  0  0  0
  6  5  1  0  0  0  0
  6 20  1  0  0  0  0
  8  9  2  0  0  0  0
  8 13  1  0  0  0  0
  9 10  1  0  0  0  0
 10 11  1  0  0  0  0
 10 12  2  0  0  0  0
 13 14  1  0  0  0  0
 13 21  1  0  0  0  0
 14 22  1  0  0  0  0
 14 23  1  0  0  0  0
 15 14  1  0  0  0  0
 15 24  1  0  0  0  0
 15 25  1  0  0  0  0
 16  8  1  0  0  0  0
 16 15  1  0  0  0  0
 16 17  1  0  0  0  0
 17  1  1  0  0  0  0
 17 26  1  0  0  0  0
 17 27  1  0  0  0  0
M  CHG  2  10   1  11  -1
M  END
>  <DRUGBANK_ID>
DB11421

>  <SECONDARY_ACCESSION_NUMBERS>
DB07980

>  <COMMON_NAME>
Imidacloprid

>  <CAS_NUMBER>
105827-78-9

>  <UNII>
3BN7M937V8

>  <SYNONYMS>
(2E)-1-[(6-chloropyridin-3-yl)methyl]-N-nitroimidazolidin-2-imine; 1-((6-chloro-3-Pyridinyl)methyl)-N-nitro-2-imidazolidinimine; 1-((6-chloro-3-Pyridyl)methyl)-N-nitro-2-imidazolidinimine; IMD

$$$$
