468
 OpenBabel10282417163D

 46 48  0  0  0  0  0  0  0  0999 V2000
   -1.4406    0.2937   -0.2513 C   0  0  0  0  0  0  0  0  0  0  0  0
   -0.4693    1.3670    0.1997 C   0  0  0  0  0  0  0  0  0  0  0  0
    0.9910    1.0923   -0.2019 C   0  0  0  0  0  0  0  0  0  0  0  0
    1.4107   -0.3215    0.2436 C   0  0  0  0  0  0  0  0  0  0  0  0
    0.4229   -1.3866   -0.2325 C   0  0  0  0  0  0  0  0  0  0  0  0
   -0.9959   -1.0789    0.2299 C   0  0  0  0  0  0  0  0  0  0  0  0
    3.2622    2.1652    0.1587 C   0  0  0  0  0  0  0  0  0  0  0  0
    3.8141    3.2180    1.0940 C   0  0  0  0  0  0  0  0  0  0  0  0
    2.6027    4.1219    1.3374 C   0  0  1  0  0  0  0  0  0  0  0  0
    1.4512    3.1363    1.2661 C   0  0  0  0  0  0  0  0  0  0  0  0
    1.8879    2.1273    0.3324 N   0  0  0  0  0  0  0  0  0  0  0  0
    2.5597    4.7658    2.7043 C   0  0  0  0  0  0  0  0  0  0  0  0
    2.6261    6.1566    2.7185 N   0  0  0  0  0  0  0  0  0  0  0  0
    2.4585    4.0683    3.7130 O   0  0  0  0  0  0  0  0  0  0  0  0
    3.9308    1.4558   -0.5806 O   0  0  0  0  0  0  0  0  0  0  0  0
    2.7377    6.8960    3.9292 C   0  0  0  0  0  0  0  0  0  0  0  0
    1.9194    8.0273    4.1110 C   0  0  0  0  0  0  0  0  0  0  0  0
    1.9748    8.7669    5.3003 C   0  0  0  0  0  0  0  0  0  0  0  0
    2.8704    8.4040    6.3012 C   0  0  0  0  0  0  0  0  0  0  0  0
    3.7113    7.3057    6.1144 C   0  0  0  0  0  0  0  0  0  0  0  0
    3.6732    6.5460    4.9270 C   0  0  0  0  0  0  0  0  0  0  0  0
    4.6710    5.4304    4.7426 C   0  0  0  0  0  0  0  0  0  0  0  0
    4.8152    6.9261    7.3937 Cl  0  0  0  0  0  0  0  0  0  0  0  0
    2.5247    4.8607    0.5318 H   0  0  0  0  0  0  0  0  0  0  0  0
   -1.5178    0.3071   -1.3439 H   0  0  0  0  0  0  0  0  0  0  0  0
   -2.4347    0.5228    0.1493 H   0  0  0  0  0  0  0  0  0  0  0  0
   -0.7928    2.3318   -0.2068 H   0  0  0  0  0  0  0  0  0  0  0  0
   -0.5377    1.4401    1.2938 H   0  0  0  0  0  0  0  0  0  0  0  0
    1.0826    1.1426   -1.2949 H   0  0  0  0  0  0  0  0  0  0  0  0
    1.4881   -0.3581    1.3377 H   0  0  0  0  0  0  0  0  0  0  0  0
    2.4049   -0.5706   -0.1451 H   0  0  0  0  0  0  0  0  0  0  0  0
    0.7277   -2.3681    0.1466 H   0  0  0  0  0  0  0  0  0  0  0  0
    0.4458   -1.4435   -1.3280 H   0  0  0  0  0  0  0  0  0  0  0  0
   -1.0365   -1.1146    1.3260 H   0  0  0  0  0  0  0  0  0  0  0  0
   -1.6878   -1.8400   -0.1443 H   0  0  0  0  0  0  0  0  0  0  0  0
    4.1706    2.7199    2.0036 H   0  0  0  0  0  0  0  0  0  0  0  0
    4.6412    3.7547    0.6234 H   0  0  0  0  0  0  0  0  0  0  0  0
    1.2155    2.6432    2.2161 H   0  0  0  0  0  0  0  0  0  0  0  0
    0.5604    3.6477    0.8933 H   0  0  0  0  0  0  0  0  0  0  0  0
    2.3432    6.6668    1.8902 H   0  0  0  0  0  0  0  0  0  0  0  0
    1.1833    8.3192    3.3650 H   0  0  0  0  0  0  0  0  0  0  0  0
    1.3132    9.6167    5.4601 H   0  0  0  0  0  0  0  0  0  0  0  0
    2.9181    8.9785    7.2242 H   0  0  0  0  0  0  0  0  0  0  0  0
    5.6906    5.8012    4.8678 H   0  0  0  0  0  0  0  0  0  0  0  0
    4.4631    4.6253    5.4542 H   0  0  0  0  0  0  0  0  0  0  0  0
    4.6748    5.0030    3.7395 H   0  0  0  0  0  0  0  0  0  0  0  0
  1  6  1  0  0  0  0
  1  2  1  0  0  0  0
  1 25  1  0  0  0  0
  1 26  1  0  0  0  0
  2  3  1  0  0  0  0
  2 27  1  0  0  0  0
  2 28  1  0  0  0  0
  3 11  1  0  0  0  0
  3  4  1  0  0  0  0
  3 29  1  0  0  0  0
  4  5  1  0  0  0  0
  4 30  1  0  0  0  0
  4 31  1  0  0  0  0
  5  6  1  0  0  0  0
  5 32  1  0  0  0  0
  5 33  1  0  0  0  0
  6 34  1  0  0  0  0
  6 35  1  0  0  0  0
  7 11  1  0  0  0  0
  7 15  2  0  0  0  0
  7  8  1  0  0  0  0
  8  9  1  0  0  0  0
  8 36  1  0  0  0  0
  8 37  1  0  0  0  0
  9 12  1  0  0  0  0
  9 24  1  6  0  0  0
  9 10  1  0  0  0  0
 10 11  1  0  0  0  0
 10 38  1  0  0  0  0
 10 39  1  0  0  0  0
 12 13  1  0  0  0  0
 12 14  2  0  0  0  0
 13 16  1  0  0  0  0
 13 40  1  0  0  0  0
 16 21  2  0  0  0  0
 16 17  1  0  0  0  0
 17 18  2  0  0  0  0
 17 41  1  0  0  0  0
 18 19  1  0  0  0  0
 18 42  1  0  0  0  0
 19 20  2  0  0  0  0
 19 43  1  0  0  0  0
 20 21  1  0  0  0  0
 20 23  1  0  0  0  0
 21 22  1  0  0  0  0
 22 44  1  0  0  0  0
 22 45  1  0  0  0  0
 22 46  1  0  0  0  0
M  END
>  <DRUGBANK_ID>
DB07090

>  <COMMON_NAME>
(3S)-N-(3-CHLORO-2-METHYLPHENYL)-1-CYCLOHEXYL-5-OXOPYRROLIDINE-3-CARBOXAMIDE

$$$$
