
 OpenBabel10282417133D

 41 42  0  0  0  0  0  0  0  0999 V2000
    1.5632    0.0484   -1.1518 O   0  0  0  0  0  0  0  0  0  0  0  0
    3.5765    1.2127    0.0729 C   0  0  0  0  0  0  0  0  0  0  0  0
    3.1014    2.7515   -0.5061 S   0  0  0  0  0  0  0  0  0  0  0  0
    4.0883    5.8515   -0.2962 N   0  0  0  0  0  0  0  0  0  0  0  0
    2.0187    5.4427    1.1323 O   0  0  0  0  0  0  0  0  0  0  0  0
    4.3074    5.6344    2.1960 O   0  0  0  0  0  0  0  0  0  0  0  0
    3.4439    5.2263    1.1115 S   0  0  0  0  0  0  0  0  0  0  0  0
    3.7572    3.4976    0.8847 C   0  0  0  0  0  0  0  0  0  0  0  0
    4.6524    2.6241    1.4874 C   0  0  0  0  0  0  0  0  0  0  0  0
    4.1969    1.2647    1.3212 C   0  0  0  0  0  0  0  0  0  0  0  0
    3.3739    2.3903    4.2612 C   0  0  0  0  0  0  0  0  0  0  0  0
    3.9674    1.0580    4.6280 C   0  0  0  0  0  0  0  0  0  0  0  0
    3.6600    0.0844    3.5830 N   0  0  0  0  0  0  0  0  0  0  0  0
    4.3770    0.0476    2.2630 C   0  0  1  0  0  0  0  0  0  0  0  0
    3.9516   -1.3346    1.6109 C   0  0  0  0  0  0  0  0  0  0  0  0
    0.9824    1.0900    1.5912 C   0  0  0  0  0  0  0  0  0  0  0  0
    0.0926    0.0146    1.7041 O   0  0  0  0  0  0  0  0  0  0  0  0
    0.7525   -1.2228    2.0010 C   0  0  0  0  0  0  0  0  0  0  0  0
    1.5945   -1.9588    0.9168 C   0  0  0  0  0  0  0  0  0  0  0  0
    2.9100   -1.3526    0.5259 N   0  0  0  0  0  0  0  0  0  0  0  0
    2.9239   -0.2310   -0.7660 S   0  0  0  0  0  0  0  0  0  0  0  0
    3.9542   -0.5351   -1.7404 O   0  0  0  0  0  0  0  0  0  0  0  0
    4.0466    6.8635   -0.3365 H   0  0  0  0  0  0  0  0  0  0  0  0
    5.0153    5.4548   -0.4462 H   0  0  0  0  0  0  0  0  0  0  0  0
    5.2914    2.9925    2.2883 H   0  0  0  0  0  0  0  0  0  0  0  0
    2.3023    2.4258    4.0586 H   0  0  0  0  0  0  0  0  0  0  0  0
    3.7412    3.2708    4.7836 H   0  0  0  0  0  0  0  0  0  0  0  0
    3.7788    2.5365    3.3108 H   0  0  0  0  0  0  0  0  0  0  0  0
    3.5336    0.7495    5.5900 H   0  0  0  0  0  0  0  0  0  0  0  0
    5.0499    1.1207    4.7640 H   0  0  0  0  0  0  0  0  0  0  0  0
    2.6556    0.0252    3.4852 H   0  0  0  0  0  0  0  0  0  0  0  0
    5.4438   -0.0329    2.4979 H   0  0  0  0  0  0  0  0  0  0  0  0
    3.5379   -1.9504    2.4264 H   0  0  0  0  0  0  0  0  0  0  0  0
    4.8405   -1.8940    1.3068 H   0  0  0  0  0  0  0  0  0  0  0  0
    1.5031    1.3695    2.4991 H   0  0  0  0  0  0  0  0  0  0  0  0
    1.7416    0.6774    1.0065 H   0  0  0  0  0  0  0  0  0  0  0  0
    0.6150    1.9534    1.0332 H   0  0  0  0  0  0  0  0  0  0  0  0
   -0.0695   -1.8914    2.2591 H   0  0  0  0  0  0  0  0  0  0  0  0
    1.3255   -1.1085    2.9185 H   0  0  0  0  0  0  0  0  0  0  0  0
    1.0067   -2.1719    0.0197 H   0  0  0  0  0  0  0  0  0  0  0  0
    1.8431   -2.9465    1.3361 H   0  0  0  0  0  0  0  0  0  0  0  0
  2 10  2  0  0  0  0
  2  3  1  0  0  0  0
  3  8  1  0  0  0  0
  4 23  1  0  0  0  0
  4 24  1  0  0  0  0
  7  4  1  0  0  0  0
  7  5  2  0  0  0  0
  7  6  2  0  0  0  0
  8  7  1  0  0  0  0
  9  8  2  0  0  0  0
  9 25  1  0  0  0  0
 10  9  1  0  0  0  0
 10 14  1  0  0  0  0
 11 26  1  0  0  0  0
 11 27  1  0  0  0  0
 11 28  1  0  0  0  0
 12 11  1  0  0  0  0
 12 29  1  0  0  0  0
 12 30  1  0  0  0  0
 13 12  1  0  0  0  0
 13 31  1  0  0  0  0
 14 13  1  0  0  0  0
 14 32  1  1  0  0  0
 15 14  1  0  0  0  0
 15 33  1  0  0  0  0
 15 34  1  0  0  0  0
 16 35  1  0  0  0  0
 16 36  1  0  0  0  0
 16 37  1  0  0  0  0
 17 16  1  0  0  0  0
 18 17  1  0  0  0  0
 18 38  1  0  0  0  0
 18 39  1  0  0  0  0
 19 18  1  0  0  0  0
 19 40  1  0  0  0  0
 19 41  1  0  0  0  0
 20 15  1  0  0  0  0
 20 19  1  0  0  0  0
 21  1  2  0  0  0  0
 21  2  1  0  0  0  0
 21 20  1  0  0  0  0
 22 21  2  0  0  0  0
M  END
>  <DRUGBANK_ID>
DB03877

>  <SECONDARY_ACCESSION_NUMBERS>
EXPT00489

>  <COMMON_NAME>
AL-4623

>  <CAS_NUMBER>
138890-59-2

>  <UNII>
1M7AKN51DU

$$$$
