730
 OpenBabel10282417103D

 21 23  0  0  0  0  0  0  0  0999 V2000
   -1.1147   -0.0368    0.0545 S   0  0  0  0  0  0  0  0  0  0  0  0
    3.4754    1.5783   -0.9477 N   0  0  0  0  0  0  0  0  0  0  0  0
    2.7076    2.6278    0.8493 N   0  0  0  0  0  0  0  0  0  0  0  0
    1.3970   -0.6002   -0.1769 N   0  0  0  0  0  0  0  0  0  0  0  0
    4.4043    2.5458   -0.6705 C   0  0  0  0  0  0  0  0  0  0  0  0
    3.9315    3.1426    0.4950 C   0  0  0  0  0  0  0  0  0  0  0  0
    2.4794    1.6568   -0.0146 C   0  0  0  0  0  0  0  0  0  0  0  0
    1.2875    0.7707   -0.0170 C   0  0  0  0  0  0  0  0  0  0  0  0
    5.5805    2.9386   -1.3107 C   0  0  0  0  0  0  0  0  0  0  0  0
    4.6981    4.1444    1.1087 C   0  0  0  0  0  0  0  0  0  0  0  0
    6.3162    3.9609   -0.6999 C   0  0  0  0  0  0  0  0  0  0  0  0
    5.8917    4.5477    0.4953 C   0  0  0  0  0  0  0  0  0  0  0  0
    0.0038    1.2622    0.0861 C   0  0  0  0  0  0  0  0  0  0  0  0
    0.2008   -1.1356   -0.0528 C   0  0  0  0  0  0  0  0  0  0  0  0
    3.4606    0.9669   -1.7535 H   0  0  0  0  0  0  0  0  0  0  0  0
    5.9145    2.4787   -2.2344 H   0  0  0  0  0  0  0  0  0  0  0  0
    4.3641    4.5958    2.0363 H   0  0  0  0  0  0  0  0  0  0  0  0
    7.2413    4.3008   -1.1616 H   0  0  0  0  0  0  0  0  0  0  0  0
    6.4884    5.3338    0.9522 H   0  0  0  0  0  0  0  0  0  0  0  0
   -0.3149    2.2942    0.1287 H   0  0  0  0  0  0  0  0  0  0  0  0
    0.0402   -2.2063   -0.0417 H   0  0  0  0  0  0  0  0  0  0  0  0
  1 13  1  0  0  0  0
  1 14  1  0  0  0  0
  2  5  1  0  0  0  0
  2  7  1  0  0  0  0
  2 15  1  0  0  0  0
  3  6  1  0  0  0  0
  3  7  2  0  0  0  0
  4  8  1  0  0  0  0
  4 14  2  0  0  0  0
  5  6  1  0  0  0  0
  5  9  2  0  0  0  0
  6 10  2  0  0  0  0
  7  8  1  0  0  0  0
  8 13  2  0  0  0  0
  9 11  1  0  0  0  0
  9 16  1  0  0  0  0
 10 12  1  0  0  0  0
 10 17  1  0  0  0  0
 11 12  2  0  0  0  0
 11 18  1  0  0  0  0
 12 19  1  0  0  0  0
 13 20  1  0  0  0  0
 14 21  1  0  0  0  0
M  END
>  <DRUGBANK_ID>
DB00730

>  <SECONDARY_ACCESSION_NUMBERS>
APRD01252; DB08630

>  <COMMON_NAME>
Thiabendazole

>  <CAS_NUMBER>
148-79-8

>  <UNII>
N1Q45E87DT

>  <SYNONYMS>
2-(1,3-thiazole-4-yl)-1H-benzimidazole; 2-(4-thiazolyl)-1H-benzimidazole; 2-(thiazol-4-yl)benzimidazole; 4-(2-benzimidazolyl)thiazole; TBDZ; Thiabendazole; Tiabendazol; Tiabendazole; Tiabendazolum

$$$$
