
 OpenBabel10282417193D

 65 68  0  0  0  0  0  0  0  0999 V2000
    1.0589    0.0751    0.1271 C   0  0  0  0  0  0  0  0  0  0  0  0
    0.5876   -0.9179   -0.8386 N   0  0  0  0  0  0  0  0  0  0  0  0
    0.9471   -2.2757   -0.3761 C   0  0  0  0  0  0  0  0  0  0  0  0
    0.1774   -3.3626   -1.1355 C   0  0  0  0  0  0  0  0  0  0  0  0
    0.9521   -3.8863   -2.3421 C   0  0  0  0  0  0  0  0  0  0  0  0
    1.6501   -2.8027   -3.0316 N   0  0  0  0  0  0  0  0  0  0  0  0
    0.9160   -1.5675   -3.2847 C   0  0  0  0  0  0  0  0  0  0  0  0
    1.1815   -0.5735   -2.1522 C   0  0  0  0  0  0  0  0  0  0  0  0
    2.9489   -2.9608   -3.4591 C   0  0  0  0  0  0  0  0  0  0  0  0
    3.2680   -4.1127   -4.1339 C   0  0  0  0  0  0  0  0  0  0  0  0
    4.5493   -4.3602   -4.6135 C   0  0  0  0  0  0  0  0  0  0  0  0
    5.5509   -3.3939   -4.5861 C   0  0  0  0  0  0  0  0  0  0  0  0
    5.2706   -2.2346   -3.8677 C   0  0  0  0  0  0  0  0  0  0  0  0
    4.0071   -2.0680   -3.2580 C   0  0  0  0  0  0  0  0  0  0  0  0
    6.8805   -3.5433   -5.2929 C   0  0  0  0  0  0  0  0  0  0  0  0
    7.7785   -2.7487   -5.0729 O   0  0  0  0  0  0  0  0  0  0  0  0
    7.1334   -4.6000   -6.1666 N   0  0  0  0  0  0  0  0  0  0  0  0
    6.2362   -5.4458   -6.8589 C   0  0  0  0  0  0  0  0  0  0  0  0
    5.0556   -4.9770   -7.4899 C   0  0  0  0  0  0  0  0  0  0  0  0
    4.2086   -5.9334   -8.0445 C   0  0  0  0  0  0  0  0  0  0  0  0
    4.3394   -7.2918   -7.7966 C   0  0  0  0  0  0  0  0  0  0  0  0
    5.5153   -7.7577   -7.2522 C   0  0  0  0  0  0  0  0  0  0  0  0
    6.4671   -6.8443   -6.8002 C   0  0  0  0  0  0  0  0  0  0  0  0
    7.5426   -7.4121   -6.1690 O   0  0  0  0  0  0  0  0  0  0  0  0
    4.6625   -3.6061   -7.4462 N   0  0  0  0  0  0  0  0  0  0  0  0
    3.3942   -3.0168   -7.4609 C   0  0  0  0  0  0  0  0  0  0  0  0
    3.2764   -1.8183   -7.2358 O   0  0  0  0  0  0  0  0  0  0  0  0
    2.1559   -3.7961   -7.7327 C   0  0  0  0  0  0  0  0  0  0  0  0
    1.8090   -4.9248   -6.9835 C   0  0  0  0  0  0  0  0  0  0  0  0
    0.8363   -5.8220   -7.4110 C   0  0  0  0  0  0  0  0  0  0  0  0
    0.1058   -5.5416   -8.5530 C   0  0  0  0  0  0  0  0  0  0  0  0
    0.3507   -4.3417   -9.2377 C   0  0  0  0  0  0  0  0  0  0  0  0
    1.4041   -3.4917   -8.8622 C   0  0  0  0  0  0  0  0  0  0  0  0
   -0.8190   -6.3874   -9.1012 O   0  0  0  0  0  0  0  0  0  0  0  0
   -0.9470   -7.6672   -8.4783 C   0  0  0  0  0  0  0  0  0  0  0  0
    0.6669   -0.1357    1.1255 H   0  0  0  0  0  0  0  0  0  0  0  0
    0.6997    1.0694   -0.1582 H   0  0  0  0  0  0  0  0  0  0  0  0
    2.1540    0.1020    0.1807 H   0  0  0  0  0  0  0  0  0  0  0  0
    2.0316   -2.4490   -0.4184 H   0  0  0  0  0  0  0  0  0  0  0  0
    0.6648   -2.3745    0.6788 H   0  0  0  0  0  0  0  0  0  0  0  0
   -0.0416   -4.2035   -0.4658 H   0  0  0  0  0  0  0  0  0  0  0  0
   -0.8026   -2.9812   -1.4518 H   0  0  0  0  0  0  0  0  0  0  0  0
    1.6664   -4.6386   -1.9810 H   0  0  0  0  0  0  0  0  0  0  0  0
    0.2680   -4.4045   -3.0270 H   0  0  0  0  0  0  0  0  0  0  0  0
    1.1904   -1.1430   -4.2582 H   0  0  0  0  0  0  0  0  0  0  0  0
   -0.1631   -1.7690   -3.3529 H   0  0  0  0  0  0  0  0  0  0  0  0
    0.8173    0.4077   -2.4745 H   0  0  0  0  0  0  0  0  0  0  0  0
    2.2563   -0.4575   -2.0194 H   0  0  0  0  0  0  0  0  0  0  0  0
    2.4711   -4.8207   -4.3222 H   0  0  0  0  0  0  0  0  0  0  0  0
    4.6686   -5.3163   -5.0919 H   0  0  0  0  0  0  0  0  0  0  0  0
    6.0170   -1.4500   -3.7579 H   0  0  0  0  0  0  0  0  0  0  0  0
    3.9123   -1.2413   -2.5679 H   0  0  0  0  0  0  0  0  0  0  0  0
    8.1088   -4.6670   -6.4447 H   0  0  0  0  0  0  0  0  0  0  0  0
    3.3585   -5.6424   -8.6410 H   0  0  0  0  0  0  0  0  0  0  0  0
    3.5194   -7.9600   -8.0464 H   0  0  0  0  0  0  0  0  0  0  0  0
    5.6775   -8.8288   -7.1804 H   0  0  0  0  0  0  0  0  0  0  0  0
    7.9992   -6.7342   -5.6466 H   0  0  0  0  0  0  0  0  0  0  0  0
    5.3460   -2.9397   -7.1002 H   0  0  0  0  0  0  0  0  0  0  0  0
    2.4377   -5.2655   -6.1807 H   0  0  0  0  0  0  0  0  0  0  0  0
    0.7536   -6.7600   -6.8717 H   0  0  0  0  0  0  0  0  0  0  0  0
   -0.2533   -4.0845  -10.1029 H   0  0  0  0  0  0  0  0  0  0  0  0
    1.6783   -2.6430   -9.4844 H   0  0  0  0  0  0  0  0  0  0  0  0
   -0.0166   -8.2447   -8.5541 H   0  0  0  0  0  0  0  0  0  0  0  0
   -1.2574   -7.5696   -7.4318 H   0  0  0  0  0  0  0  0  0  0  0  0
   -1.7271   -8.2254   -9.0020 H   0  0  0  0  0  0  0  0  0  0  0  0
  1  2  1  0  0  0  0
  1 36  1  0  0  0  0
  1 37  1  0  0  0  0
  1 38  1  0  0  0  0
  2  3  1  0  0  0  0
  2  8  1  0  0  0  0
  3  4  1  0  0  0  0
  3 39  1  0  0  0  0
  3 40  1  0  0  0  0
  4  5  1  0  0  0  0
  4 41  1  0  0  0  0
  4 42  1  0  0  0  0
  5  6  1  0  0  0  0
  5 43  1  0  0  0  0
  5 44  1  0  0  0  0
  6  7  1  0  0  0  0
  6  9  1  0  0  0  0
  7  8  1  0  0  0  0
  7 45  1  0  0  0  0
  7 46  1  0  0  0  0
  8 47  1  0  0  0  0
  8 48  1  0  0  0  0
  9 10  2  0  0  0  0
  9 14  1  0  0  0  0
 10 11  1  0  0  0  0
 10 49  1  0  0  0  0
 11 12  2  0  0  0  0
 11 50  1  0  0  0  0
 12 13  1  0  0  0  0
 12 15  1  0  0  0  0
 13 14  2  0  0  0  0
 13 51  1  0  0  0  0
 14 52  1  0  0  0  0
 15 16  2  0  0  0  0
 15 17  1  0  0  0  0
 17 18  1  0  0  0  0
 17 53  1  0  0  0  0
 18 19  2  0  0  0  0
 18 23  1  0  0  0  0
 19 20  1  0  0  0  0
 19 25  1  0  0  0  0
 20 21  2  0  0  0  0
 20 54  1  0  0  0  0
 21 22  1  0  0  0  0
 21 55  1  0  0  0  0
 22 23  2  0  0  0  0
 22 56  1  0  0  0  0
 23 24  1  0  0  0  0
 24 57  1  0  0  0  0
 25 26  1  0  0  0  0
 25 58  1  0  0  0  0
 26 27  2  0  0  0  0
 26 28  1  0  0  0  0
 28 29  2  0  0  0  0
 28 33  1  0  0  0  0
 29 30  1  0  0  0  0
 29 59  1  0  0  0  0
 30 31  2  0  0  0  0
 30 60  1  0  0  0  0
 31 32  1  0  0  0  0
 31 34  1  0  0  0  0
 32 33  2  0  0  0  0
 32 61  1  0  0  0  0
 33 62  1  0  0  0  0
 34 35  1  0  0  0  0
 35 63  1  0  0  0  0
 35 64  1  0  0  0  0
 35 65  1  0  0  0  0
M  END
>  <DRUGBANK_ID>
DB12289

>  <COMMON_NAME>
Darexaban

>  <CAS_NUMBER>
365462-23-3

>  <UNII>
KF322K101S

>  <SYNONYMS>
Darexaban

$$$$
