
 OpenBabel10282417193D

 58 61  0  0  1  0  0  0  0  0999 V2000
    7.3776   -8.1085    6.8460 C   0  0  0  0  0  0  0  0  0  0  0  0
   -1.6747  -12.4429    5.3938 C   0  0  0  0  0  0  0  0  0  0  0  0
   -1.8455  -11.6457    3.0208 C   0  0  0  0  0  0  0  0  0  0  0  0
    5.9868   -7.5917    7.2014 C   0  0  0  0  0  0  0  0  0  0  0  0
    5.7877   -2.8159    3.5925 C   0  0  0  0  0  0  0  0  0  0  0  0
    4.2611   -2.8075    3.4789 C   0  0  0  0  0  0  0  0  0  0  0  0
    0.8237   -9.8912    4.7441 C   0  0  0  0  0  0  0  0  0  0  0  0
    0.0323  -10.8894    4.4660 C   0  0  0  0  0  0  0  0  0  0  0  0
    6.3941   -4.0841    2.9861 C   0  0  0  0  0  0  0  0  0  0  0  0
    4.3597   -5.2905    3.2552 C   0  0  0  0  0  0  0  0  0  0  0  0
    2.0170   -6.5347    5.1851 C   0  0  0  0  0  0  0  0  0  0  0  0
    3.7091   -4.2254    5.5426 C   0  0  0  0  0  0  0  0  0  0  0  0
    3.6634   -4.1341    3.9884 C   0  0  1  0  0  0  0  0  0  0  0  0
    1.7272   -8.8336    5.0890 C   0  0  0  0  0  0  0  0  0  0  0  0
    3.2484   -6.5831    5.8376 C   0  0  0  0  0  0  0  0  0  0  0  0
    2.9761   -9.0190    5.7345 C   0  0  0  0  0  0  0  0  0  0  0  0
    5.6318  -10.7053    7.5383 C   0  0  0  0  0  0  0  0  0  0  0  0
    3.7136   -7.8827    6.1116 C   0  0  0  0  0  0  0  0  0  0  0  0
    6.1397  -10.5223    8.8521 C   0  0  0  0  0  0  0  0  0  0  0  0
    4.7365   -9.7651    6.7746 C   0  0  0  0  0  0  0  0  0  0  0  0
   -0.8903  -12.0531    4.1419 C   0  0  0  0  0  0  0  0  0  0  0  0
    5.8444   -9.4855    9.6723 N   0  0  0  0  0  0  0  0  0  0  0  0
    5.7875   -5.2824    3.5561 N   0  0  0  0  0  0  0  0  0  0  0  0
    1.2686   -7.5917    4.8106 N   0  0  0  0  0  0  0  0  0  0  0  0
    3.6647  -10.1618    6.1093 N   0  0  0  0  0  0  0  0  0  0  0  0
    6.1083  -11.8531    7.0423 N   0  0  0  0  0  0  0  0  0  0  0  0
    6.9603  -11.5162    9.1575 N   0  0  0  0  0  0  0  0  0  0  0  0
    4.8616   -8.3834    6.7161 N   0  0  0  0  0  0  0  0  0  0  0  0
   -0.1045  -13.1567    3.7109 O   0  0  0  0  0  0  0  0  0  0  0  0
    4.0303   -5.5014    6.1164 O   0  0  0  0  0  0  0  0  0  0  0  0
    6.9577  -12.3426    8.0350 O   0  0  0  0  0  0  0  0  0  0  0  0
    2.6069   -4.1182    3.6908 H   0  0  0  0  0  0  0  0  0  0  0  0
    7.5660   -9.1320    7.1664 H   0  0  0  0  0  0  0  0  0  0  0  0
    8.1441   -7.4955    7.3310 H   0  0  0  0  0  0  0  0  0  0  0  0
    7.5326   -8.0799    5.7647 H   0  0  0  0  0  0  0  0  0  0  0  0
   -2.2835  -11.6091    5.7623 H   0  0  0  0  0  0  0  0  0  0  0  0
   -2.3383  -13.2912    5.1921 H   0  0  0  0  0  0  0  0  0  0  0  0
   -1.0010  -12.7536    6.2005 H   0  0  0  0  0  0  0  0  0  0  0  0
   -1.2950  -11.3810    2.1108 H   0  0  0  0  0  0  0  0  0  0  0  0
   -2.5136  -12.4730    2.7557 H   0  0  0  0  0  0  0  0  0  0  0  0
   -2.4600  -10.7848    3.3085 H   0  0  0  0  0  0  0  0  0  0  0  0
    5.8682   -7.4776    8.2810 H   0  0  0  0  0  0  0  0  0  0  0  0
    5.9184   -6.5811    6.7998 H   0  0  0  0  0  0  0  0  0  0  0  0
    6.1999   -1.9343    3.0911 H   0  0  0  0  0  0  0  0  0  0  0  0
    6.0770   -2.7412    4.6473 H   0  0  0  0  0  0  0  0  0  0  0  0
    3.8370   -1.9499    4.0140 H   0  0  0  0  0  0  0  0  0  0  0  0
    3.9883   -2.6807    2.4218 H   0  0  0  0  0  0  0  0  0  0  0  0
    6.2545   -4.0871    1.8988 H   0  0  0  0  0  0  0  0  0  0  0  0
    7.4697   -4.1051    3.1804 H   0  0  0  0  0  0  0  0  0  0  0  0
    3.9527   -6.2644    3.5187 H   0  0  0  0  0  0  0  0  0  0  0  0
    4.1841   -5.2157    2.1746 H   0  0  0  0  0  0  0  0  0  0  0  0
    1.5810   -5.5920    4.8762 H   0  0  0  0  0  0  0  0  0  0  0  0
    2.7689   -3.8656    5.9795 H   0  0  0  0  0  0  0  0  0  0  0  0
    4.4677   -3.5353    5.9316 H   0  0  0  0  0  0  0  0  0  0  0  0
    6.1698   -9.5018   10.6316 H   0  0  0  0  0  0  0  0  0  0  0  0
    5.0346   -8.9001    9.5131 H   0  0  0  0  0  0  0  0  0  0  0  0
    6.2178   -6.1209    3.1688 H   0  0  0  0  0  0  0  0  0  0  0  0
   -0.7100  -13.8904    3.5182 H   0  0  0  0  0  0  0  0  0  0  0  0
  1 33  1  0  0  0  0
  1 34  1  0  0  0  0
  1 35  1  0  0  0  0
  2 36  1  0  0  0  0
  2 37  1  0  0  0  0
  2 38  1  0  0  0  0
  3 39  1  0  0  0  0
  3 40  1  0  0  0  0
  3 41  1  0  0  0  0
  4  1  1  0  0  0  0
  4 42  1  0  0  0  0
  4 43  1  0  0  0  0
  5 44  1  0  0  0  0
  5 45  1  0  0  0  0
  6  5  1  0  0  0  0
  6 46  1  0  0  0  0
  6 47  1  0  0  0  0
  8  7  3  0  0  0  0
  9  5  1  0  0  0  0
  9 48  1  0  0  0  0
  9 49  1  0  0  0  0
 10 50  1  0  0  0  0
 10 51  1  0  0  0  0
 11 52  1  0  0  0  0
 12 53  1  0  0  0  0
 12 54  1  0  0  0  0
 13  6  1  0  0  0  0
 13 10  1  0  0  0  0
 13 32  1  6  0  0  0
 13 12  1  0  0  0  0
 14  7  1  0  0  0  0
 15 11  1  0  0  0  0
 16 14  2  0  0  0  0
 18 15  2  0  0  0  0
 18 16  1  0  0  0  0
 19 17  1  0  0  0  0
 20 17  1  0  0  0  0
 21  2  1  0  0  0  0
 21  3  1  0  0  0  0
 21  8  1  0  0  0  0
 22 19  1  0  0  0  0
 22 55  1  0  0  0  0
 22 56  1  0  0  0  0
 23  9  1  0  0  0  0
 23 10  1  0  0  0  0
 23 57  1  0  0  0  0
 24 11  2  0  0  0  0
 24 14  1  0  0  0  0
 25 16  1  0  0  0  0
 25 20  2  0  0  0  0
 26 17  2  0  0  0  0
 27 19  2  0  0  0  0
 28  4  1  0  0  0  0
 28 18  1  0  0  0  0
 28 20  1  0  0  0  0
 29 21  1  0  0  0  0
 29 58  1  0  0  0  0
 30 12  1  0  0  0  0
 30 15  1  0  0  0  0
 31 26  1  0  0  0  0
 31 27  1  0  0  0  0
M  END
>  <DRUGBANK_ID>
DB12745

>  <COMMON_NAME>
GSK-690693

>  <CAS_NUMBER>
937174-76-0

>  <UNII>
GWH480321B

$$$$
