
 OpenBabel10282417123D

 35 35  0  0  0  0  0  0  0  0999 V2000
   -1.5469   -1.7625    0.0205 C   0  0  0  0  0  0  0  0  0  0  0  0
   -0.4133   -0.7787    0.0001 C   0  0  0  0  0  0  0  0  0  0  0  0
    0.8304   -1.3164   -0.0036 N   0  0  0  0  0  0  0  0  0  0  0  0
    1.8736   -0.4682   -0.0356 C   0  0  0  0  0  0  0  0  0  0  0  0
    1.7608    0.9215   -0.0524 C   0  0  0  0  0  0  0  0  0  0  0  0
    3.0556    1.7003   -0.0021 C   0  0  0  0  0  0  0  0  0  0  0  0
    3.7437    1.5233    1.2464 O   0  0  0  0  0  0  0  0  0  0  0  0
    2.7632    1.8082    2.6429 P   0  0  0  0  0  0  0  0  0  0  0  0
    4.1897    2.0386    3.4287 O   0  0  0  0  0  0  0  0  0  0  0  0
    2.7796    3.3799    2.1840 O   0  0  0  0  0  0  0  0  0  0  0  0
    1.8856    2.0631    3.8928 O   0  0  0  0  0  0  0  0  0  0  0  0
    0.4538    1.4844   -0.0647 C   0  0  0  0  0  0  0  0  0  0  0  0
    0.2239    2.9807   -0.1213 C   0  0  0  0  0  0  0  0  0  0  0  0
    0.6148    3.5984    1.1415 N   0  0  0  0  0  0  0  0  0  0  0  0
    0.4764    5.0753    1.1617 C   0  0  0  0  0  0  0  0  0  0  0  0
   -0.9877    5.4968    1.1501 C   0  0  0  0  0  0  0  0  0  0  0  0
   -1.3859    6.1495    2.2661 O   0  0  0  0  0  0  0  0  0  0  0  0
   -1.7561    5.2242    0.2516 O   0  0  0  0  0  0  0  0  0  0  0  0
   -0.6419    0.6003   -0.0248 C   0  0  0  0  0  0  0  0  0  0  0  0
   -1.9500    1.0028   -0.0046 O   0  0  0  0  0  0  0  0  0  0  0  0
   -1.4979   -2.3929   -0.8722 H   0  0  0  0  0  0  0  0  0  0  0  0
   -1.4716   -2.3920    0.9117 H   0  0  0  0  0  0  0  0  0  0  0  0
   -2.5297   -1.2829    0.0346 H   0  0  0  0  0  0  0  0  0  0  0  0
    2.8489   -0.9531   -0.0323 H   0  0  0  0  0  0  0  0  0  0  0  0
    3.7220    1.3563   -0.8023 H   0  0  0  0  0  0  0  0  0  0  0  0
    2.9151    2.7664   -0.1996 H   0  0  0  0  0  0  0  0  0  0  0  0
    4.4628    1.3371    4.0305 H   0  0  0  0  0  0  0  0  0  0  0  0
    2.0372    3.4940    1.5594 H   0  0  0  0  0  0  0  0  0  0  0  0
    0.7850    3.3952   -0.9654 H   0  0  0  0  0  0  0  0  0  0  0  0
   -0.8180    3.1989   -0.3352 H   0  0  0  0  0  0  0  0  0  0  0  0
    0.0822    3.2002    1.9275 H   0  0  0  0  0  0  0  0  0  0  0  0
    0.9666    5.4412    2.0732 H   0  0  0  0  0  0  0  0  0  0  0  0
    1.0136    5.5371    0.3266 H   0  0  0  0  0  0  0  0  0  0  0  0
   -0.7017    6.2851    2.9492 H   0  0  0  0  0  0  0  0  0  0  0  0
   -2.0736    1.9622    0.0263 H   0  0  0  0  0  0  0  0  0  0  0  0
  1  2  1  0  0  0  0
  1 21  1  0  0  0  0
  1 22  1  0  0  0  0
  1 23  1  0  0  0  0
  2  3  2  0  0  0  0
  2 19  1  0  0  0  0
  3  4  1  0  0  0  0
  4  5  2  0  0  0  0
  4 24  1  0  0  0  0
  5  6  1  0  0  0  0
  5 12  1  0  0  0  0
  6  7  1  0  0  0  0
  6 25  1  0  0  0  0
  6 26  1  0  0  0  0
  7  8  1  0  0  0  0
  8  9  1  0  0  0  0
  8 10  1  0  0  0  0
  8 11  2  0  0  0  0
  9 27  1  0  0  0  0
 10 28  1  0  0  0  0
 12 13  1  0  0  0  0
 12 19  2  0  0  0  0
 13 14  1  0  0  0  0
 13 29  1  0  0  0  0
 13 30  1  0  0  0  0
 14 15  1  0  0  0  0
 14 31  1  0  0  0  0
 15 16  1  0  0  0  0
 15 32  1  0  0  0  0
 15 33  1  0  0  0  0
 16 17  1  0  0  0  0
 16 18  2  0  0  0  0
 17 34  1  0  0  0  0
 19 20  1  0  0  0  0
 20 35  1  0  0  0  0
M  END
>  <DRUGBANK_ID>
DB02824

>  <SECONDARY_ACCESSION_NUMBERS>
EXPT02606

>  <COMMON_NAME>
N-Pyridoxyl-Glycine-5-Monophosphate

$$$$
