
 OpenBabel10282417193D

114122  0  0  1  0  0  0  0  0999 V2000
    0.8887   -0.0379    0.0810 C   0  0  0  0  0  0  0  0  0  0  0  0
    0.3867    1.3520    0.3762 C   0  0  0  0  0  0  0  0  0  0  0  0
    0.9117    2.2338   -0.6486 C   0  0  0  0  0  0  0  0  0  0  0  0
    1.5993    1.7425   -1.6495 C   0  0  0  0  0  0  0  0  0  0  0  0
    1.9568    2.6206   -2.6345 C   0  0  1  0  0  0  0  0  0  0  0  0
    0.4188    2.2051   -4.0198 C   0  0  0  0  0  0  0  0  0  0  0  0
    0.8746    3.6469   -5.4258 C   0  0  1  0  0  0  0  0  0  0  0  0
    2.5259    3.7082   -5.8100 C   0  0  0  0  0  0  0  0  0  0  0  0
    3.2441    2.6343   -5.5377 C   0  0  0  0  0  0  0  0  0  0  0  0
    4.5985    2.7075   -6.0668 C   0  0  0  0  0  0  0  0  0  0  0  0
    5.7309    1.9125   -6.5126 C   0  0  0  0  0  0  0  0  0  0  0  0
    6.9431    2.5517   -6.8906 C   0  0  0  0  0  0  0  0  0  0  0  0
    7.0216    3.9388   -6.8938 C   0  0  0  0  0  0  0  0  0  0  0  0
    5.9050    4.7149   -6.5828 C   0  0  0  0  0  0  0  0  0  0  0  0
    4.7151    4.0833   -6.2273 C   0  0  0  0  0  0  0  0  0  0  0  0
    3.4813    4.6382   -5.9445 N   0  0  0  0  0  0  0  0  0  0  0  0
    2.1209    2.5328   -4.4312 C   0  0  0  0  0  0  0  0  0  0  0  0
    0.6594    3.8000   -3.2159 C   0  0  0  0  0  0  0  0  0  0  0  0
    1.0846    4.4701   -1.7184 N   0  0  2  0  0  0  0  0  0  0  0  0
    2.1263    4.2308   -2.5590 C   0  0  0  0  0  0  0  0  0  0  0  0
    0.6478    3.6703   -0.5407 C   0  0  0  0  0  0  0  0  0  0  0  0
    0.0900    3.0637   -6.4891 C   0  0  0  0  0  0  0  0  0  0  0  0
   -1.4680    3.4574   -6.0435 C   0  0  0  0  0  0  0  0  0  0  0  0
   -2.5986    3.2973   -6.8116 C   0  0  0  0  0  0  0  0  0  0  0  0
   -1.9470    1.8793   -7.9738 C   0  0  0  0  0  0  0  0  0  0  0  0
   -0.1877    1.7384   -8.4243 C   0  0  0  0  0  0  0  0  0  0  0  0
    0.7638    2.4587   -7.6517 C   0  0  0  0  0  0  0  0  0  0  0  0
    2.1126    2.5912   -7.8914 O   0  0  0  0  0  0  0  0  0  0  0  0
    2.5557    3.1215   -9.1280 C   0  0  0  0  0  0  0  0  0  0  0  0
   -2.8126    2.0936   -9.6759 N   0  0  0  0  0  0  0  0  0  0  0  0
   -4.0628    3.6260   -9.3047 C   0  0  2  0  0  0  0  0  0  0  0  0
   -4.1269    4.8683   -7.2772 C   0  0  2  0  0  0  0  0  0  0  0  0
   -4.9651    6.3836   -6.4103 C   0  0  0  0  0  0  0  0  0  0  0  0
   -6.3380    6.5097   -7.1087 C   0  0  0  0  0  0  0  0  0  0  0  0
   -6.0110    5.4743   -8.0484 N   0  0  3  0  0  0  0  0  0  0  0  0
   -4.7961    5.8826   -8.6947 C   0  0  1  0  0  0  0  0  0  0  0  0
   -3.3857    5.8747   -8.9999 C   0  0  1  0  0  0  0  0  0  0  0  0
   -2.9503    4.6068   -8.2957 C   0  0  0  0  0  0  0  0  0  0  0  0
   -4.2829    3.2822   -7.6373 C   0  0  0  0  0  0  0  0  0  0  0  0
   -5.9060    4.1527   -7.3124 C   0  0  0  0  0  0  0  0  0  0  0  0
   -3.0571    5.3745  -10.3609 C   0  0  2  0  0  0  0  0  0  0  0  0
   -4.0887    4.2035  -10.7023 C   0  0  2  0  0  0  0  0  0  0  0  0
   -5.5852    3.5332  -10.6013 C   0  0  0  0  0  0  0  0  0  0  0  0
   -6.0509    2.6471   -9.8837 O   0  0  0  0  0  0  0  0  0  0  0  0
   -6.2724    3.9226  -11.7105 O   0  0  0  0  0  0  0  0  0  0  0  0
   -7.6224    3.5399  -11.7724 C   0  0  0  0  0  0  0  0  0  0  0  0
   -4.1259    4.0133  -12.1289 O   0  0  0  0  0  0  0  0  0  0  0  0
   -1.5463    5.4233  -10.2390 O   0  0  0  0  0  0  0  0  0  0  0  0
   -0.8142    4.8578   -9.2781 C   0  0  0  0  0  0  0  0  0  0  0  0
    0.1097    5.2427   -8.5753 O   0  0  0  0  0  0  0  0  0  0  0  0
   -1.2508    3.5804   -9.0349 C   0  0  0  0  0  0  0  0  0  0  0  0
   -2.6295    6.9122   -8.2271 C   0  0  0  0  0  0  0  0  0  0  0  0
   -3.4693    8.1215   -8.1440 C   0  0  0  0  0  0  0  0  0  0  0  0
   -1.7259    2.1220  -11.0610 C   0  0  0  0  0  0  0  0  0  0  0  0
    0.5898    5.1608   -5.2505 C   0  0  0  0  0  0  0  0  0  0  0  0
   -0.0437    5.6702   -4.3543 O   0  0  0  0  0  0  0  0  0  0  0  0
    1.1096    6.0698   -6.0630 O   0  0  0  0  0  0  0  0  0  0  0  0
    0.7043    7.3416   -5.5091 C   0  0  0  0  0  0  0  0  0  0  0  0
    0.5271   -0.3687   -0.9048 H   0  0  0  0  0  0  0  0  0  0  0  0
    0.5343   -0.7206    0.8315 H   0  0  0  0  0  0  0  0  0  0  0  0
    1.9900   -0.0410    0.0626 H   0  0  0  0  0  0  0  0  0  0  0  0
   -0.7007    1.3960    0.3510 H   0  0  0  0  0  0  0  0  0  0  0  0
    0.7583    1.7118    1.3329 H   0  0  0  0  0  0  0  0  0  0  0  0
    1.8028    0.7644   -1.9996 H   0  0  0  0  0  0  0  0  0  0  0  0
    3.0593    2.7050   -2.9039 H   0  0  0  0  0  0  0  0  0  0  0  0
    0.5612    1.1393   -4.2644 H   0  0  0  0  0  0  0  0  0  0  0  0
   -0.6223    2.3857   -3.7251 H   0  0  0  0  0  0  0  0  0  0  0  0
    5.7253    0.8209   -6.5494 H   0  0  0  0  0  0  0  0  0  0  0  0
    7.8344    1.9739   -7.1514 H   0  0  0  0  0  0  0  0  0  0  0  0
    7.9520    4.4409   -7.1467 H   0  0  0  0  0  0  0  0  0  0  0  0
    5.9551    5.7933   -6.6015 H   0  0  0  0  0  0  0  0  0  0  0  0
    3.2361    5.5933   -5.8618 H   0  0  0  0  0  0  0  0  0  0  0  0
    1.6054    1.6895   -5.3734 H   0  0  0  0  0  0  0  0  0  0  0  0
    2.5456    1.2831   -4.4930 H   0  0  0  0  0  0  0  0  0  0  0  0
   -0.3277    3.9546   -2.3692 H   0  0  0  0  0  0  0  0  0  0  0  0
    0.0724    4.8248   -3.0414 H   0  0  0  0  0  0  0  0  0  0  0  0
    1.9861    4.7049   -3.6133 H   0  0  0  0  0  0  0  0  0  0  0  0
    2.8394    4.9947   -2.5678 H   0  0  0  0  0  0  0  0  0  0  0  0
    1.1999    4.0328    0.3275 H   0  0  0  0  0  0  0  0  0  0  0  0
   -0.4499    3.7680   -0.3494 H   0  0  0  0  0  0  0  0  0  0  0  0
   -1.6658    3.1765   -5.0225 H   0  0  0  0  0  0  0  0  0  0  0  0
    0.2802    1.6656   -9.4760 H   0  0  0  0  0  0  0  0  0  0  0  0
    2.1792    2.4590   -9.8920 H   0  0  0  0  0  0  0  0  0  0  0  0
    2.2063    4.1460   -9.2605 H   0  0  0  0  0  0  0  0  0  0  0  0
    3.6561    3.1217   -9.1954 H   0  0  0  0  0  0  0  0  0  0  0  0
   -4.3335    2.4373   -9.2317 H   0  0  0  0  0  0  0  0  0  0  0  0
   -5.0147    7.3652   -5.6852 H   0  0  0  0  0  0  0  0  0  0  0  0
   -4.8395    5.9969   -5.4119 H   0  0  0  0  0  0  0  0  0  0  0  0
   -6.8963    7.2816   -7.7044 H   0  0  0  0  0  0  0  0  0  0  0  0
   -7.0858    6.3728   -6.3413 H   0  0  0  0  0  0  0  0  0  0  0  0
   -5.1899    5.8643   -9.7689 H   0  0  0  0  0  0  0  0  0  0  0  0
   -2.0958    4.9602   -7.5510 H   0  0  0  0  0  0  0  0  0  0  0  0
   -4.3328    2.8168   -6.5948 H   0  0  0  0  0  0  0  0  0  0  0  0
   -6.9203    3.9525   -7.4429 H   0  0  0  0  0  0  0  0  0  0  0  0
   -5.6584    4.2025   -6.1960 H   0  0  0  0  0  0  0  0  0  0  0  0
   -3.0147    5.9389  -11.2563 H   0  0  0  0  0  0  0  0  0  0  0  0
   -7.7199    2.4572  -11.8606 H   0  0  0  0  0  0  0  0  0  0  0  0
   -8.0882    3.9438  -10.8788 H   0  0  0  0  0  0  0  0  0  0  0  0
   -8.0200    4.0267  -12.6638 H   0  0  0  0  0  0  0  0  0  0  0  0
   -4.8588    3.3895  -12.3822 H   0  0  0  0  0  0  0  0  0  0  0  0
   -2.2262    3.2721   -8.5401 H   0  0  0  0  0  0  0  0  0  0  0  0
   -2.2525    3.4476   -9.1672 H   0  0  0  0  0  0  0  0  0  0  0  0
   -0.8918    3.5997   -8.0487 H   0  0  0  0  0  0  0  0  0  0  0  0
   -2.3628    6.6105   -7.1902 H   0  0  0  0  0  0  0  0  0  0  0  0
   -1.7135    7.0885   -8.7580 H   0  0  0  0  0  0  0  0  0  0  0  0
   -4.3506    7.9935   -7.5424 H   0  0  0  0  0  0  0  0  0  0  0  0
   -2.8986    8.8803   -7.6496 H   0  0  0  0  0  0  0  0  0  0  0  0
   -3.8380    8.3514   -9.1351 H   0  0  0  0  0  0  0  0  0  0  0  0
   -1.9204    1.1230  -11.4486 H   0  0  0  0  0  0  0  0  0  0  0  0
   -1.9256    2.8476  -11.8839 H   0  0  0  0  0  0  0  0  0  0  0  0
   -0.6035    2.1511  -10.9915 H   0  0  0  0  0  0  0  0  0  0  0  0
   -0.3700    7.3869   -5.1999 H   0  0  0  0  0  0  0  0  0  0  0  0
    1.3132    7.5929   -4.6221 H   0  0  0  0  0  0  0  0  0  0  0  0
    0.8486    8.0318   -6.3047 H   0  0  0  0  0  0  0  0  0  0  0  0
  1  2  1  0  0  0  0
  1 59  1  0  0  0  0
  1 60  1  0  0  0  0
  1 61  1  0  0  0  0
  2  3  1  0  0  0  0
  2 62  1  0  0  0  0
  2 63  1  0  0  0  0
  3  4  2  0  0  0  0
  3 21  1  0  0  0  0
  4  5  1  0  0  0  0
  4 64  1  0  0  0  0
  5  6  1  0  0  0  0
  5 20  1  0  0  0  0
  5 65  1  6  0  0  0
  6  7  1  0  0  0  0
  6 66  1  0  0  0  0
  6 67  1  0  0  0  0
  7  8  1  0  0  0  0
  7 55  1  1  0  0  0
  7 22  1  0  0  0  0
  8  9  2  0  0  0  0
  8 16  1  0  0  0  0
  9 10  1  0  0  0  0
  9 17  1  0  0  0  0
 10 11  2  0  0  0  0
 10 15  1  0  0  0  0
 11 12  1  0  0  0  0
 11 68  1  0  0  0  0
 12 13  2  0  0  0  0
 12 69  1  0  0  0  0
 13 14  1  0  0  0  0
 13 70  1  0  0  0  0
 14 15  2  0  0  0  0
 14 71  1  0  0  0  0
 15 16  1  0  0  0  0
 16 72  1  0  0  0  0
 17 18  1  0  0  0  0
 17 73  1  0  0  0  0
 17 74  1  0  0  0  0
 18 75  1  0  0  0  0
 18 76  1  0  0  0  0
 19 18  1  6  0  0  0
 19 20  1  0  0  0  0
 19 21  1  0  0  0  0
 20 77  1  0  0  0  0
 20 78  1  0  0  0  0
 21 79  1  0  0  0  0
 21 80  1  0  0  0  0
 22 23  2  0  0  0  0
 22 27  1  0  0  0  0
 23 24  1  0  0  0  0
 23 81  1  0  0  0  0
 24 25  2  0  0  0  0
 25 26  1  0  0  0  0
 25 30  1  0  0  0  0
 26 27  2  0  0  0  0
 26 82  1  0  0  0  0
 27 28  1  0  0  0  0
 28 29  1  0  0  0  0
 29 83  1  0  0  0  0
 29 84  1  0  0  0  0
 29 85  1  0  0  0  0
 30 54  1  0  0  0  0
 31 30  1  0  0  0  0
 31 32  1  0  0  0  0
 31 42  1  0  0  0  0
 31 86  1  6  0  0  0
 32 24  1  1  0  0  0
 32 33  1  0  0  0  0
 32 36  1  0  0  0  0
 33 34  1  0  0  0  0
 33 87  1  0  0  0  0
 33 88  1  0  0  0  0
 34 35  1  0  0  0  0
 34 89  1  0  0  0  0
 34 90  1  0  0  0  0
 35 40  1  0  0  0  0
 36 35  1  0  0  0  0
 36 37  1  0  0  0  0
 36 91  1  6  0  0  0
 37 38  1  0  0  0  0
 37 41  1  0  0  0  0
 37 52  1  1  0  0  0
 38 39  2  0  0  0  0
 38 92  1  0  0  0  0
 39 40  1  0  0  0  0
 39 93  1  0  0  0  0
 40 94  1  0  0  0  0
 40 95  1  0  0  0  0
 41 42  1  0  0  0  0
 41 96  1  6  0  0  0
 41 48  1  0  0  0  0
 42 47  1  6  0  0  0
 42 43  1  0  0  0  0
 43 44  2  0  0  0  0
 43 45  1  0  0  0  0
 45 46  1  0  0  0  0
 46 97  1  0  0  0  0
 46 98  1  0  0  0  0
 46 99  1  0  0  0  0
 47100  1  0  0  0  0
 48 49  1  0  0  0  0
 49 50  2  0  0  0  0
 49 51  1  0  0  0  0
 51101  1  0  0  0  0
 51102  1  0  0  0  0
 51103  1  0  0  0  0
 52 53  1  0  0  0  0
 52104  1  0  0  0  0
 52105  1  0  0  0  0
 53106  1  0  0  0  0
 53107  1  0  0  0  0
 53108  1  0  0  0  0
 54109  1  0  0  0  0
 54110  1  0  0  0  0
 54111  1  0  0  0  0
 55 56  2  0  0  0  0
 55 57  1  0  0  0  0
 57 58  1  0  0  0  0
 58112  1  0  0  0  0
 58113  1  0  0  0  0
 58114  1  0  0  0  0
M  END
>  <DRUGBANK_ID>
DB12586

>  <COMMON_NAME>
Anhydrovinblastine

>  <CAS_NUMBER>
38390-45-3

>  <UNII>
5B622U08B3

$$$$
