OPI
 OpenBabel10282417173D

 54 53  0  0  0  0  0  0  0  0999 V2000
   -0.3796   -9.6059   -2.0357 O   0  0  0  0  0  0  0  0  0  0  0  0
   -0.7095   -8.5542   -1.1515 C   0  0  0  0  0  0  0  0  0  0  0  0
   -2.0552   -7.9144   -1.4157 C   0  0  0  0  0  0  0  0  0  0  0  0
   -3.0673   -8.8525   -0.9618 N   0  0  0  0  0  0  0  0  0  0  0  0
   -3.9676   -8.7698    0.0541 C   0  0  0  0  0  0  0  0  0  0  0  0
   -4.6600   -9.7579    0.2990 O   0  0  0  0  0  0  0  0  0  0  0  0
   -4.1254   -7.5000    0.8594 C   0  0  0  0  0  0  0  0  0  0  0  0
   -3.0575   -7.2808    1.8992 C   0  0  0  0  0  0  0  0  0  0  0  0
   -1.7610   -7.0234    1.3311 N   0  0  0  0  0  0  0  0  0  0  0  0
   -1.0767   -5.8603    1.1092 C   0  0  0  0  0  0  0  0  0  0  0  0
   -0.2275   -5.7604    0.2249 O   0  0  0  0  0  0  0  0  0  0  0  0
   -1.3987   -4.7237    2.0376 C   0  0  2  0  0  0  0  0  0  0  0  0
   -0.9040   -3.4987    1.4966 O   0  0  0  0  0  0  0  0  0  0  0  0
   -0.8211   -5.0169    3.4554 C   0  0  0  0  0  0  0  0  0  0  0  0
   -1.2725   -3.8528    4.3433 C   0  0  0  0  0  0  0  0  0  0  0  0
   -1.4190   -6.2663    4.1325 C   0  0  0  0  0  0  0  0  0  0  0  0
    0.7357   -5.1462    3.4414 C   0  0  0  0  0  0  0  0  0  0  0  0
    1.2444   -6.2554    2.6458 O   0  0  0  0  0  0  0  0  0  0  0  0
    1.2174   -7.5185    3.1432 C   0  0  0  0  0  0  0  0  0  0  0  0
    0.8426   -7.8104    4.2866 O   0  0  0  0  0  0  0  0  0  0  0  0
    1.6760   -8.5866    2.1529 C   0  0  0  0  0  0  0  0  0  0  0  0
    1.3480   -8.2475    0.7366 C   0  0  0  0  0  0  0  0  0  0  0  0
    3.1767   -8.6538    2.1227 C   0  0  0  0  0  0  0  0  0  0  0  0
    0.9744   -9.9213    2.5003 C   0  0  0  0  0  0  0  0  0  0  0  0
   -2.4846   -4.6163    2.0513 H   0  0  0  0  0  0  0  0  0  0  0  0
   -0.5985  -10.4262   -1.5576 H   0  0  0  0  0  0  0  0  0  0  0  0
   -0.7442   -9.0601   -0.1788 H   0  0  0  0  0  0  0  0  0  0  0  0
    0.0593   -7.7813   -1.2165 H   0  0  0  0  0  0  0  0  0  0  0  0
   -2.1915   -6.9599   -0.9108 H   0  0  0  0  0  0  0  0  0  0  0  0
   -2.1527   -7.7147   -2.4783 H   0  0  0  0  0  0  0  0  0  0  0  0
   -3.0049   -9.7773   -1.3696 H   0  0  0  0  0  0  0  0  0  0  0  0
   -4.2126   -6.6369    0.1962 H   0  0  0  0  0  0  0  0  0  0  0  0
   -5.0658   -7.5870    1.4160 H   0  0  0  0  0  0  0  0  0  0  0  0
   -3.3671   -6.4299    2.4973 H   0  0  0  0  0  0  0  0  0  0  0  0
   -2.9295   -8.1632    2.5357 H   0  0  0  0  0  0  0  0  0  0  0  0
   -1.3825   -7.8455    0.9251 H   0  0  0  0  0  0  0  0  0  0  0  0
   -1.1435   -3.5039    0.5486 H   0  0  0  0  0  0  0  0  0  0  0  0
   -2.3709   -3.8151    4.3573 H   0  0  0  0  0  0  0  0  0  0  0  0
   -0.9333   -3.9951    5.3721 H   0  0  0  0  0  0  0  0  0  0  0  0
   -0.9102   -2.8903    3.9775 H   0  0  0  0  0  0  0  0  0  0  0  0
   -1.2329   -7.1750    3.5655 H   0  0  0  0  0  0  0  0  0  0  0  0
   -0.9869   -6.4381    5.1208 H   0  0  0  0  0  0  0  0  0  0  0  0
   -2.4977   -6.1862    4.2793 H   0  0  0  0  0  0  0  0  0  0  0  0
    1.1744   -4.2358    3.0137 H   0  0  0  0  0  0  0  0  0  0  0  0
    1.1349   -5.2316    4.4589 H   0  0  0  0  0  0  0  0  0  0  0  0
    1.8887   -7.4108    0.2858 H   0  0  0  0  0  0  0  0  0  0  0  0
    1.4371   -9.1166    0.0739 H   0  0  0  0  0  0  0  0  0  0  0  0
    0.3432   -7.9200    0.8123 H   0  0  0  0  0  0  0  0  0  0  0  0
    3.5781   -8.8153    3.1168 H   0  0  0  0  0  0  0  0  0  0  0  0
    3.4998   -9.4399    1.4314 H   0  0  0  0  0  0  0  0  0  0  0  0
    3.5630   -7.6992    1.7368 H   0  0  0  0  0  0  0  0  0  0  0  0
    1.2169  -10.2355    3.5192 H   0  0  0  0  0  0  0  0  0  0  0  0
   -0.1234   -9.8362    2.4470 H   0  0  0  0  0  0  0  0  0  0  0  0
    1.2598  -10.7319    1.8200 H   0  0  0  0  0  0  0  0  0  0  0  0
  1  2  1  0  0  0  0
  1 26  1  0  0  0  0
  2  3  1  0  0  0  0
  2 27  1  0  0  0  0
  2 28  1  0  0  0  0
  3  4  1  0  0  0  0
  3 29  1  0  0  0  0
  3 30  1  0  0  0  0
  4  5  1  0  0  0  0
  4 31  1  0  0  0  0
  5  6  2  0  0  0  0
  5  7  1  0  0  0  0
  7  8  1  0  0  0  0
  7 32  1  0  0  0  0
  7 33  1  0  0  0  0
  8  9  1  0  0  0  0
  8 34  1  0  0  0  0
  8 35  1  0  0  0  0
  9 10  1  0  0  0  0
  9 36  1  0  0  0  0
 10 11  2  0  0  0  0
 12 14  1  0  0  0  0
 12 25  1  1  0  0  0
 12 13  1  0  0  0  0
 12 10  1  0  0  0  0
 13 37  1  0  0  0  0
 14 15  1  0  0  0  0
 14 16  1  0  0  0  0
 14 17  1  0  0  0  0
 15 38  1  0  0  0  0
 15 39  1  0  0  0  0
 15 40  1  0  0  0  0
 16 41  1  0  0  0  0
 16 42  1  0  0  0  0
 16 43  1  0  0  0  0
 17 18  1  0  0  0  0
 17 44  1  0  0  0  0
 17 45  1  0  0  0  0
 18 19  1  0  0  0  0
 19 20  2  0  0  0  0
 19 21  1  0  0  0  0
 21 22  1  0  0  0  0
 21 23  1  0  0  0  0
 21 24  1  0  0  0  0
 22 46  1  0  0  0  0
 22 47  1  0  0  0  0
 22 48  1  0  0  0  0
 23 49  1  0  0  0  0
 23 50  1  0  0  0  0
 23 51  1  0  0  0  0
 24 52  1  0  0  0  0
 24 53  1  0  0  0  0
 24 54  1  0  0  0  0
M  END
>  <DRUGBANK_ID>
DB08328

>  <COMMON_NAME>
PANTOTHENYL-AMINOETHANOL-11-PIVALIC ACID

$$$$
