
 OpenBabel10282417133D

 14 14  0  0  0  0  0  0  0  0999 V2000
    0.7004   -1.1812    0.2596 C   0  0  0  0  0  0  0  0  0  0  0  0
   -0.7371   -1.1659   -0.2585 C   0  0  0  0  0  0  0  0  0  0  0  0
   -1.4198    0.0165    0.1845 O   0  0  0  0  0  0  0  0  0  0  0  0
   -0.7123    1.1856   -0.2550 C   0  0  0  0  0  0  0  0  0  0  0  0
    0.7264    1.1690    0.2605 C   0  0  0  0  0  0  0  0  0  0  0  0
    1.4077   -0.0136   -0.1841 O   0  0  0  0  0  0  0  0  0  0  0  0
    0.7210   -1.2043    1.3554 H   0  0  0  0  0  0  0  0  0  0  0  0
    1.2319   -2.0617   -0.1130 H   0  0  0  0  0  0  0  0  0  0  0  0
   -1.2869   -2.0345    0.1154 H   0  0  0  0  0  0  0  0  0  0  0  0
   -0.7585   -1.1899   -1.3543 H   0  0  0  0  0  0  0  0  0  0  0  0
   -0.7352    1.2144   -1.3506 H   0  0  0  0  0  0  0  0  0  0  0  0
   -1.2428    2.0644    0.1232 H   0  0  0  0  0  0  0  0  0  0  0  0
    0.7495    1.1918    1.3562 H   0  0  0  0  0  0  0  0  0  0  0  0
    1.2762    2.0377   -0.1131 H   0  0  0  0  0  0  0  0  0  0  0  0
  1  2  1  0  0  0  0
  1  6  1  0  0  0  0
  1  7  1  0  0  0  0
  1  8  1  0  0  0  0
  2  3  1  0  0  0  0
  2  9  1  0  0  0  0
  2 10  1  0  0  0  0
  3  4  1  0  0  0  0
  4  5  1  0  0  0  0
  4 11  1  0  0  0  0
  4 12  1  0  0  0  0
  5  6  1  0  0  0  0
  5 13  1  0  0  0  0
  5 14  1  0  0  0  0
M  END
>  <DRUGBANK_ID>
DB03316

>  <SECONDARY_ACCESSION_NUMBERS>
EXPT01208

>  <COMMON_NAME>
1,4-Dioxane

>  <CAS_NUMBER>
123-91-1

>  <UNII>
J8A3S10O7S

>  <SYNONYMS>
1,4-dioxacyclohexane; 1,4-Dioxan; 1,4-Dioxane; di(ethylene oxide); Dioxan-1,4; Dioxane-1,4; glycol ethylene ether; p-Dioxane; tetrahydro-1,4-dioxin; tetrahydro-p-dioxin; tetrahydro-para-dioxin

$$$$
