
 OpenBabel10282417143D

 82 88  0  0  1  0  0  0  0  0999 V2000
   -3.3785    0.0116    3.3096 O   0  0  0  0  0  0  0  0  0  0  0  0
   -1.4053    3.4037    2.6273 O   0  0  0  0  0  0  0  0  0  0  0  0
   -0.5886    0.4231    4.0138 O   0  0  0  0  0  0  0  0  0  0  0  0
   -4.0971    1.3272   -0.1969 O   0  0  0  0  0  0  0  0  0  0  0  0
   -3.7931    3.8247    1.7075 O   0  0  0  0  0  0  0  0  0  0  0  0
    0.3875    1.9893   -0.5159 O   0  0  0  0  0  0  0  0  0  0  0  0
    1.6035   -1.0620    2.3455 O   0  0  0  0  0  0  0  0  0  0  0  0
    2.8130    0.2022    4.4207 O   0  0  0  0  0  0  0  0  0  0  0  0
   -2.2063    2.1366    1.0391 O   0  0  0  0  0  0  0  0  0  0  0  0
    0.8295   -1.0308   -2.0641 O   0  0  0  0  0  0  0  0  0  0  0  0
   -0.8054    2.5915   -3.9890 O   0  0  0  0  0  0  0  0  0  0  0  0
    0.8187    0.3302   -3.9262 O   0  0  0  0  0  0  0  0  0  0  0  0
   -1.7171    1.5218    3.1939 O   0  0  0  0  0  0  0  0  0  0  0  0
   -1.6360   -1.2625    5.2873 N   0  0  0  0  0  0  0  0  0  0  0  0
   -2.6472    0.5679    0.5436 C   0  0  2  0  0  0  0  0  0  0  0  0
   -3.6094    1.0675    2.1567 C   0  0  2  0  0  0  0  0  0  0  0  0
   -0.7273    1.5745    0.4230 C   0  0  2  0  0  0  0  0  0  0  0  0
   -3.1154    2.8954    2.6128 C   0  0  1  0  0  0  0  0  0  0  0  0
   -0.5289    3.1459    1.4032 C   0  0  1  0  0  0  0  0  0  0  0  0
   -1.9821   -0.4427    3.3461 C   0  0  1  0  0  0  0  0  0  0  0  0
   -1.0823   -1.3468    3.9519 C   0  0  1  0  0  0  0  0  0  0  0  0
    0.9016   -1.1053    3.6792 C   0  0  2  0  0  0  0  0  0  0  0  0
    1.4126    0.1244    4.3722 C   0  0  2  0  0  0  0  0  0  0  0  0
   -3.3048   -0.6585   -0.2285 C   0  0  0  0  0  0  0  0  0  0  0  0
    0.7260    1.1266    3.5416 C   0  0  1  0  0  0  0  0  0  0  0  0
   -0.6740    4.3648    0.5934 C   0  0  0  0  0  0  0  0  0  0  0  0
    1.6038    1.2846    2.2002 C   0  0  0  0  0  0  0  0  0  0  0  0
   -3.5620    3.9790    0.3152 C   0  0  0  0  0  0  0  0  0  0  0  0
   -2.8055    3.2041   -0.7999 C   0  0  0  0  0  0  0  0  0  0  0  0
    2.8926   -1.6700    2.2007 C   0  0  0  0  0  0  0  0  0  0  0  0
   -2.3439    3.2902   -2.0744 C   0  0  0  0  0  0  0  0  0  0  0  0
   -2.1956    2.0363   -0.7047 C   0  0  0  0  0  0  0  0  0  0  0  0
   -3.8488    5.2009   -0.1412 C   0  0  0  0  0  0  0  0  0  0  0  0
   -1.3374    0.5831   -1.2578 C   0  0  0  0  0  0  0  0  0  0  0  0
   -0.9696    0.7380   -2.5005 C   0  0  0  0  0  0  0  0  0  0  0  0
   -1.4374    2.0795   -2.8833 C   0  0  0  0  0  0  0  0  0  0  0  0
   -0.5757   -0.6196   -0.1936 C   0  0  0  0  0  0  0  0  0  0  0  0
   -2.6906    4.5866   -2.3658 C   0  0  0  0  0  0  0  0  0  0  0  0
   -3.4248    5.4737   -1.4656 C   0  0  0  0  0  0  0  0  0  0  0  0
   -0.6901   -0.7207    1.3180 C   0  0  0  0  0  0  0  0  0  0  0  0
    0.3805   -1.4538   -0.7688 C   0  0  0  0  0  0  0  0  0  0  0  0
    0.2585   -0.0107   -2.8962 C   0  0  0  0  0  0  0  0  0  0  0  0
   -1.3905    1.0007    2.1111 C   0  0  0  0  0  0  0  0  0  0  0  0
   -0.2286   -2.3054    1.9286 C   0  0  0  0  0  0  0  0  0  0  0  0
    0.9757   -2.6096   -0.1352 C   0  0  0  0  0  0  0  0  0  0  0  0
    0.5896   -3.1067    1.1299 C   0  0  0  0  0  0  0  0  0  0  0  0
   -0.1467   -3.2334    3.5897 C   0  0  0  0  0  0  0  0  0  0  0  0
   -3.9858    1.3418   -1.1793 H   0  0  0  0  0  0  0  0  0  0  0  0
    0.3038    2.0564   -1.4671 H   0  0  0  0  0  0  0  0  0  0  0  0
    2.9983    0.5256    5.3098 H   0  0  0  0  0  0  0  0  0  0  0  0
   -1.2216    3.4433   -4.1620 H   0  0  0  0  0  0  0  0  0  0  0  0
   -1.2477   -2.0060    5.8140 H   0  0  0  0  0  0  0  0  0  0  0  0
   -1.2790   -0.3333    5.5445 H   0  0  0  0  0  0  0  0  0  0  0  0
   -4.6948    1.1148    1.9447 H   0  0  0  0  0  0  0  0  0  0  0  0
   -0.0368    0.9864    0.9109 H   0  0  0  0  0  0  0  0  0  0  0  0
   -3.3416    2.9374    3.7126 H   0  0  0  0  0  0  0  0  0  0  0  0
    0.5316    3.2305    1.4662 H   0  0  0  0  0  0  0  0  0  0  0  0
   -2.1567   -0.8503    2.3145 H   0  0  0  0  0  0  0  0  0  0  0  0
   -1.6512   -2.0962    3.3646 H   0  0  0  0  0  0  0  0  0  0  0  0
    1.5118   -1.8863    4.1177 H   0  0  0  0  0  0  0  0  0  0  0  0
    1.0074    0.0902    5.3785 H   0  0  0  0  0  0  0  0  0  0  0  0
   -2.9441   -0.7439   -1.2557 H   0  0  0  0  0  0  0  0  0  0  0  0
   -3.1988   -1.5423    0.3531 H   0  0  0  0  0  0  0  0  0  0  0  0
   -4.3791   -0.5358   -0.4825 H   0  0  0  0  0  0  0  0  0  0  0  0
    0.8215    2.0997    4.0386 H   0  0  0  0  0  0  0  0  0  0  0  0
   -0.2966    5.2596    1.0536 H   0  0  0  0  0  0  0  0  0  0  0  0
   -0.4397    4.2288   -0.4577 H   0  0  0  0  0  0  0  0  0  0  0  0
   -1.6863    4.5465    0.7684 H   0  0  0  0  0  0  0  0  0  0  0  0
    1.7357    2.2957    1.8757 H   0  0  0  0  0  0  0  0  0  0  0  0
    2.6686    1.0793    2.2519 H   0  0  0  0  0  0  0  0  0  0  0  0
    1.3812    0.6869    1.3317 H   0  0  0  0  0  0  0  0  0  0  0  0
    3.6549   -1.1047    2.7215 H   0  0  0  0  0  0  0  0  0  0  0  0
    2.8346   -2.6963    2.5604 H   0  0  0  0  0  0  0  0  0  0  0  0
    3.1681   -1.6923    1.1321 H   0  0  0  0  0  0  0  0  0  0  0  0
   -4.2782    5.9170    0.5441 H   0  0  0  0  0  0  0  0  0  0  0  0
   -2.3682    4.9241   -3.3323 H   0  0  0  0  0  0  0  0  0  0  0  0
   -3.6881    6.4317   -1.8665 H   0  0  0  0  0  0  0  0  0  0  0  0
    1.8064   -3.1352   -0.6103 H   0  0  0  0  0  0  0  0  0  0  0  0
    1.1503   -3.8972    1.6439 H   0  0  0  0  0  0  0  0  0  0  0  0
    0.1149   -2.6787    4.5727 H   0  0  0  0  0  0  0  0  0  0  0  0
   -1.1463   -3.5856    3.9125 H   0  0  0  0  0  0  0  0  0  0  0  0
    0.6538   -3.9382    3.7796 H   0  0  0  0  0  0  0  0  0  0  0  0
  2 18  1  0  0  0  0
  2 19  1  0  0  0  0
  3 20  1  0  0  0  0
  3 25  1  0  0  0  0
  4 48  1  0  0  0  0
  5 28  1  0  0  0  0
  6 49  1  0  0  0  0
  7 30  1  0  0  0  0
  8 50  1  0  0  0  0
  9 32  1  0  0  0  0
  9 43  1  0  0  0  0
 10 41  1  0  0  0  0
 10 42  1  0  0  0  0
 11 36  1  0  0  0  0
 11 51  1  0  0  0  0
 12 42  2  0  0  0  0
 13 43  2  0  0  0  0
 14 52  1  0  0  0  0
 14 53  1  0  0  0  0
 15 16  1  0  0  0  0
 15 17  1  0  0  0  0
 15 24  1  0  0  0  0
 15  4  1  6  0  0  0
 16 18  1  0  0  0  0
 16 54  1  6  0  0  0
 16  1  1  0  0  0  0
 17 19  1  0  0  0  0
 17 55  1  1  0  0  0
 17  6  1  0  0  0  0
 18 56  1  1  0  0  0
 18  5  1  0  0  0  0
 19 26  1  0  0  0  0
 19 57  1  1  0  0  0
 20 21  1  0  0  0  0
 20 58  1  6  0  0  0
 20  1  1  0  0  0  0
 21 14  1  0  0  0  0
 21 22  1  0  0  0  0
 21 59  1  6  0  0  0
 22 23  1  0  0  0  0
 22 60  1  1  0  0  0
 22  7  1  0  0  0  0
 23 25  1  0  0  0  0
 23 61  1  1  0  0  0
 23  8  1  0  0  0  0
 24 62  1  0  0  0  0
 24 63  1  0  0  0  0
 24 64  1  0  0  0  0
 25 27  1  0  0  0  0
 25 65  1  1  0  0  0
 26 66  1  0  0  0  0
 26 67  1  0  0  0  0
 26 68  1  0  0  0  0
 27 69  1  0  0  0  0
 27 70  1  0  0  0  0
 27 71  1  0  0  0  0
 28 29  1  0  0  0  0
 28 33  2  0  0  0  0
 29 31  2  0  0  0  0
 29 32  1  0  0  0  0
 30 72  1  0  0  0  0
 30 73  1  0  0  0  0
 30 74  1  0  0  0  0
 31 36  1  0  0  0  0
 31 38  1  0  0  0  0
 32 34  2  0  0  0  0
 33 39  1  0  0  0  0
 33 75  1  0  0  0  0
 34 35  1  0  0  0  0
 34 37  1  0  0  0  0
 35 36  2  0  0  0  0
 35 42  1  0  0  0  0
 37 40  1  0  0  0  0
 37 41  2  0  0  0  0
 38 39  2  0  0  0  0
 38 76  1  0  0  0  0
 39 77  1  0  0  0  0
 40 43  1  0  0  0  0
 40 44  2  0  0  0  0
 41 45  1  0  0  0  0
 44 46  1  0  0  0  0
 44 47  1  0  0  0  0
 45 46  2  0  0  0  0
 45 78  1  0  0  0  0
 46 79  1  0  0  0  0
 47 80  1  0  0  0  0
 47 81  1  0  0  0  0
 47 82  1  0  0  0  0
M  END
>  <DRUGBANK_ID>
DB05129

>  <COMMON_NAME>
Elsamitrucin

>  <CAS_NUMBER>
97068-30-9

>  <UNII>
ZTV0FOB6NU

>  <SYNONYMS>
Elsamitrucin

$$$$
