
 OpenBabel10282417133D

 35 36  0  0  0  0  0  0  0  0999 V2000
    0.9568    0.0653   -0.0621 O   0  0  0  0  0  0  0  0  0  0  0  0
    0.3801    1.4054   -0.9920 P   0  0  0  0  0  0  0  0  0  0  0  0
    1.7081    2.0292   -0.6335 O   0  0  0  0  0  0  0  0  0  0  0  0
    0.4171    0.2388   -2.0388 O   0  0  0  0  0  0  0  0  0  0  0  0
   -0.1965    2.7454   -1.9219 O   0  0  0  0  0  0  0  0  0  0  0  0
   -0.3483    2.3263   -3.3145 C   0  0  0  0  0  0  0  0  0  0  0  0
    0.9477    1.7905   -4.0629 C   0  0  2  0  0  0  0  0  0  0  0  0
    1.2576    0.2657   -4.1661 C   0  0  1  0  0  0  0  0  0  0  0  0
    1.3287   -0.1334   -5.4678 F   0  0  0  0  0  0  0  0  0  0  0  0
    2.6561    0.1231   -3.5338 C   0  0  0  0  0  0  0  0  0  0  0  0
    3.2477    1.5410   -3.6083 C   0  0  2  0  0  0  0  0  0  0  0  0
    4.3433    1.8255   -2.6116 N   0  0  0  0  0  0  0  0  0  0  0  0
    5.4379    0.9578   -2.5815 C   0  0  0  0  0  0  0  0  0  0  0  0
    6.4166    1.0256   -1.6631 C   0  0  0  0  0  0  0  0  0  0  0  0
    7.5035    0.0138   -1.4732 C   0  0  0  0  0  0  0  0  0  0  0  0
    6.4102    2.1692   -0.7346 C   0  0  0  0  0  0  0  0  0  0  0  0
    7.2309    2.2680    0.1870 O   0  0  0  0  0  0  0  0  0  0  0  0
    5.4585    3.1044   -0.9751 N   0  0  0  0  0  0  0  0  0  0  0  0
    4.3544    2.9717   -1.7984 C   0  0  0  0  0  0  0  0  0  0  0  0
    3.5171    3.8674   -1.7586 O   0  0  0  0  0  0  0  0  0  0  0  0
    2.1237    2.4242   -3.5113 O   0  0  0  0  0  0  0  0  0  0  0  0
    1.9253    0.2538   -0.0284 H   0  0  0  0  0  0  0  0  0  0  0  0
    0.8024   -0.5219   -1.5442 H   0  0  0  0  0  0  0  0  0  0  0  0
   -1.1654    1.5924   -3.3617 H   0  0  0  0  0  0  0  0  0  0  0  0
   -0.7123    3.2147   -3.8408 H   0  0  0  0  0  0  0  0  0  0  0  0
    0.8482    2.1182   -5.1031 H   0  0  0  0  0  0  0  0  0  0  0  0
    0.4736   -0.4125   -3.8105 H   0  0  0  0  0  0  0  0  0  0  0  0
    2.6563   -0.1915   -2.4807 H   0  0  0  0  0  0  0  0  0  0  0  0
    3.2628   -0.6166   -4.0625 H   0  0  0  0  0  0  0  0  0  0  0  0
    3.6812    1.6960   -4.5996 H   0  0  0  0  0  0  0  0  0  0  0  0
    5.4547    0.1737   -3.3311 H   0  0  0  0  0  0  0  0  0  0  0  0
    8.4973    0.4668   -1.5534 H   0  0  0  0  0  0  0  0  0  0  0  0
    7.4191   -0.4396   -0.4773 H   0  0  0  0  0  0  0  0  0  0  0  0
    7.4371   -0.7967   -2.2046 H   0  0  0  0  0  0  0  0  0  0  0  0
    5.4525    3.9125   -0.3706 H   0  0  0  0  0  0  0  0  0  0  0  0
  1  2  1  0  0  0  0
  1 22  1  0  0  0  0
  2  3  2  0  0  0  0
  2  4  1  0  0  0  0
  2  5  1  0  0  0  0
  4 23  1  0  0  0  0
  5  6  1  0  0  0  0
  6 24  1  0  0  0  0
  6 25  1  0  0  0  0
  7  6  1  0  0  0  0
  7  8  1  0  0  0  0
  7 26  1  6  0  0  0
  8 10  1  0  0  0  0
  8 27  1  1  0  0  0
  8  9  1  0  0  0  0
 10 11  1  0  0  0  0
 10 28  1  0  0  0  0
 10 29  1  0  0  0  0
 11 12  1  0  0  0  0
 11 30  1  6  0  0  0
 12 13  1  0  0  0  0
 13 14  2  0  0  0  0
 13 31  1  0  0  0  0
 14 15  1  0  0  0  0
 14 16  1  0  0  0  0
 15 32  1  0  0  0  0
 15 33  1  0  0  0  0
 15 34  1  0  0  0  0
 16 17  2  0  0  0  0
 18 16  1  0  0  0  0
 18 19  1  0  0  0  0
 18 35  1  0  0  0  0
 19 20  2  0  0  0  0
 19 12  1  0  0  0  0
 21 11  1  0  0  0  0
 21  7  1  0  0  0  0
M  END
>  <DRUGBANK_ID>
DB03195

>  <SECONDARY_ACCESSION_NUMBERS>
EXPT01414

>  <COMMON_NAME>
3'-Fluoro-3'-deoxythymidine 5'-monophosphate

>  <CAS_NUMBER>
25520-83-6

>  <UNII>
K6W0IAP44B

>  <SYNONYMS>
3'-Deoxy-3'-fluorothymidine monophosphate; 3'-Fluoro-3'-deoxythymidine 5'-monophosphate; 3'-Fluoro-3'-deoxythymidine 5'-phosphate; 5'-Thymidylic acid, 3'-deoxy-3'-fluoro-

$$$$
