
 OpenBabel10282417213D

 43 46  0  0  0  0  0  0  0  0999 V2000
   -2.0541    0.1217    0.3645 N   0  0  3  0  0  0  0  0  0  0  0  0
    1.9435    0.3433    0.8438 N   0  0  3  0  0  0  0  0  0  0  0  0
   -0.1441    1.5991   -1.0277 C   0  0  1  0  0  0  0  0  0  0  0  0
   -0.0599   -0.6601   -0.5321 C   0  0  1  0  0  0  0  0  0  0  0  0
   -1.7207    1.5090   -0.2198 C   0  0  2  0  0  0  0  0  0  0  0  0
    0.5887   -0.0083    0.7503 C   0  0  2  0  0  0  0  0  0  0  0  0
   -0.0982    0.2602   -1.7206 C   0  0  0  0  0  0  0  0  0  0  0  0
   -1.4742   -1.0762   -0.1651 C   0  0  0  0  0  0  0  0  0  0  0  0
    1.5355    1.5911   -0.1814 C   0  0  0  0  0  0  0  0  0  0  0  0
   -3.1580    2.1951   -0.2053 C   0  0  0  0  0  0  0  0  0  0  0  0
    0.2302    1.5853    1.7251 C   0  0  0  0  0  0  0  0  0  0  0  0
   -3.2393   -0.0314    1.2293 C   0  0  0  0  0  0  0  0  0  0  0  0
    1.6560    0.0477    2.5781 C   0  0  0  0  0  0  0  0  0  0  0  0
   -4.1057    1.1313   -0.7578 C   0  0  0  0  0  0  0  0  0  0  0  0
   -0.7135    1.2064    2.6169 C   0  0  0  0  0  0  0  0  0  0  0  0
   -4.3482   -0.0269    0.2219 C   0  0  0  0  0  0  0  0  0  0  0  0
   -0.0878   -0.0576    3.0994 C   0  0  0  0  0  0  0  0  0  0  0  0
   -1.4272    2.2819    0.4706 H   0  0  0  0  0  0  0  0  0  0  0  0
    0.6429   -0.9900    1.2492 H   0  0  0  0  0  0  0  0  0  0  0  0
   -0.1354    2.4230   -1.7451 H   0  0  0  0  0  0  0  0  0  0  0  0
    0.4670   -1.5857   -0.8136 H   0  0  0  0  0  0  0  0  0  0  0  0
    0.7837    0.1193   -2.3492 H   0  0  0  0  0  0  0  0  0  0  0  0
   -0.9809    0.0783   -2.3480 H   0  0  0  0  0  0  0  0  0  0  0  0
   -1.4604   -1.8895    0.5812 H   0  0  0  0  0  0  0  0  0  0  0  0
   -2.0334   -1.4770   -1.0185 H   0  0  0  0  0  0  0  0  0  0  0  0
    1.7710    2.5541    0.3080 H   0  0  0  0  0  0  0  0  0  0  0  0
    2.2617    1.5750   -1.0005 H   0  0  0  0  0  0  0  0  0  0  0  0
   -3.4363    3.1624   -0.6330 H   0  0  0  0  0  0  0  0  0  0  0  0
   -3.3557    2.4329    0.8755 H   0  0  0  0  0  0  0  0  0  0  0  0
    1.0619    2.0187    2.3530 H   0  0  0  0  0  0  0  0  0  0  0  0
    0.0889    2.5520    1.1654 H   0  0  0  0  0  0  0  0  0  0  0  0
   -3.2875   -0.8983    1.9106 H   0  0  0  0  0  0  0  0  0  0  0  0
   -3.2897    0.7982    1.9535 H   0  0  0  0  0  0  0  0  0  0  0  0
    2.0471   -0.9563    2.8087 H   0  0  0  0  0  0  0  0  0  0  0  0
    2.1917    0.7831    3.1844 H   0  0  0  0  0  0  0  0  0  0  0  0
   -5.0158    1.5276   -1.1943 H   0  0  0  0  0  0  0  0  0  0  0  0
   -3.5410    0.7169   -1.6015 H   0  0  0  0  0  0  0  0  0  0  0  0
   -1.4613    1.9186    3.0725 H   0  0  0  0  0  0  0  0  0  0  0  0
   -1.3779    0.9207    1.9007 H   0  0  0  0  0  0  0  0  0  0  0  0
   -5.3306   -0.0173    0.6972 H   0  0  0  0  0  0  0  0  0  0  0  0
   -4.2722   -0.9665   -0.3379 H   0  0  0  0  0  0  0  0  0  0  0  0
   -0.3416   -0.2855    4.1183 H   0  0  0  0  0  0  0  0  0  0  0  0
   -0.5861   -0.8915    2.5469 H   0  0  0  0  0  0  0  0  0  0  0  0
  1  5  1  0  0  0  0
  1  8  1  0  0  0  0
  1 12  1  0  0  0  0
  2  6  1  0  0  0  0
  2  9  1  0  0  0  0
  2 13  1  0  0  0  0
  3  5  1  0  0  0  0
  3  7  1  0  0  0  0
  3  9  1  0  0  0  0
  3 20  1  1  0  0  0
  4  6  1  0  0  0  0
  4  7  1  0  0  0  0
  4  8  1  0  0  0  0
  4 21  1  1  0  0  0
  5 10  1  0  0  0  0
  5 18  1  6  0  0  0
  6 11  1  0  0  0  0
  6 19  1  1  0  0  0
  7 22  1  0  0  0  0
  7 23  1  0  0  0  0
  8 24  1  0  0  0  0
  8 25  1  0  0  0  0
  9 26  1  0  0  0  0
  9 27  1  0  0  0  0
 10 14  1  0  0  0  0
 10 28  1  0  0  0  0
 10 29  1  0  0  0  0
 11 15  1  0  0  0  0
 11 30  1  0  0  0  0
 11 31  1  0  0  0  0
 12 16  1  0  0  0  0
 12 32  1  0  0  0  0
 12 33  1  0  0  0  0
 13 17  1  0  0  0  0
 13 34  1  0  0  0  0
 13 35  1  0  0  0  0
 14 16  1  0  0  0  0
 14 36  1  0  0  0  0
 14 37  1  0  0  0  0
 15 17  1  0  0  0  0
 15 38  1  0  0  0  0
 15 39  1  0  0  0  0
 16 40  1  0  0  0  0
 16 41  1  0  0  0  0
 17 42  1  0  0  0  0
 17 43  1  0  0  0  0
M  END
>  <DRUGBANK_ID>
DB14755

>  <COMMON_NAME>
beta-Isosparteine

>  <CAS_NUMBER>
24915-04-6

>  <UNII>
HPV1ED2WZQ

>  <SYNONYMS>
(-)-beta-Isosparteine; (+)-beta-isosparteine; (+)-Î²-isosparteine; Nonalupine

$$$$
