
 OpenBabel10282417133D

 19 19  0  0  0  0  0  0  0  0999 V2000
    2.3040    0.0010    0.0040 N   0  0  0  0  0  0  0  0  0  0  0  0
    0.9560   -0.0010    0.0020 C   0  0  0  0  0  0  0  0  0  0  0  0
    0.2380    1.2040   -0.0120 C   0  0  0  0  0  0  0  0  0  0  0  0
   -1.1400    1.2110    0.0070 C   0  0  0  0  0  0  0  0  0  0  0  0
   -1.8370   -0.0000    0.0040 C   0  0  0  0  0  0  0  0  0  0  0  0
   -1.1430   -1.2080   -0.0050 C   0  0  0  0  0  0  0  0  0  0  0  0
    0.2400   -1.2070   -0.0000 C   0  0  0  0  0  0  0  0  0  0  0  0
   -3.7870    0.0007    0.0124 As  0  0  0  0  0  0  0  0  0  0  0  0
   -4.4105   -0.8636   -1.4997 O   0  0  0  0  0  0  0  0  0  0  0  0
   -4.3975   -0.8786    1.5213 O   0  0  0  0  0  0  0  0  0  0  0  0
   -4.3383    1.5620    0.0226 O   0  0  0  0  0  0  0  0  0  0  0  0
    2.8153   -0.8816    0.0041 H   0  0  0  0  0  0  0  0  0  0  0  0
    2.8127    0.8851    0.0054 H   0  0  0  0  0  0  0  0  0  0  0  0
    0.7688    2.1327   -0.0378 H   0  0  0  0  0  0  0  0  0  0  0  0
   -1.6731    2.1386    0.0240 H   0  0  0  0  0  0  0  0  0  0  0  0
   -1.6786   -2.1342   -0.0158 H   0  0  0  0  0  0  0  0  0  0  0  0
    0.7697   -2.1367    0.0024 H   0  0  0  0  0  0  0  0  0  0  0  0
   -4.0805   -0.3883   -2.3153 H   0  0  0  0  0  0  0  0  0  0  0  0
   -4.0645   -1.8215    1.5151 H   0  0  0  0  0  0  0  0  0  0  0  0
  1  2  1  0  0  0  0
  1 12  1  0  0  0  0
  1 13  1  0  0  0  0
  2  3  2  0  0  0  0
  2  7  1  0  0  0  0
  3  4  1  0  0  0  0
  3 14  1  0  0  0  0
  4  5  2  0  0  0  0
  4 15  1  0  0  0  0
  5  6  1  0  0  0  0
  5  8  1  0  0  0  0
  6  7  2  0  0  0  0
  6 16  1  0  0  0  0
  7 17  1  0  0  0  0
  8  9  1  0  0  0  0
  8 10  1  0  0  0  0
  8 11  2  0  0  0  0
  9 18  1  0  0  0  0
 10 19  1  0  0  0  0
M  END
>  <DRUGBANK_ID>
DB03006

>  <SECONDARY_ACCESSION_NUMBERS>
EXPT00575

>  <COMMON_NAME>
Arsanilic acid

>  <CAS_NUMBER>
98-50-0

>  <UNII>
UDX9AKS7GM

>  <SYNONYMS>
(p-aminophenyl)arsonic acid; 4-aminobenzenearsonic acid; 4-Aminophenylarsonic acid; 4-Aminophenylarsonsäure; 4-arsanilic acid; Arsanilic acid; Arsanilsäure; atoxylic acid; p-arsanilic acid

$$$$
