334
 OpenBabel10282417123D

 34 36  0  0  0  0  0  0  0  0999 V2000
    2.1848    0.7571   -0.0178 C   0  0  0  0  0  0  0  0  0  0  0  0
    2.1836   -0.6590   -0.0050 C   0  0  0  0  0  0  0  0  0  0  0  0
    1.0063   -1.4288    0.0081 C   0  0  0  0  0  0  0  0  0  0  0  0
   -0.1893   -0.7228    0.0350 C   0  0  0  0  0  0  0  0  0  0  0  0
   -0.2413    0.6593    0.0755 C   0  0  0  0  0  0  0  0  0  0  0  0
    0.9402    1.4081    0.0238 C   0  0  0  0  0  0  0  0  0  0  0  0
    3.4443    1.5426   -0.0632 C   0  0  0  0  0  0  0  0  0  0  0  0
    3.4300    2.8630   -0.0814 N   0  0  0  0  0  0  0  0  0  0  0  0
    4.6137    0.9364   -0.0824 N   0  3  0  0  0  0  0  0  0  0  0  0
   -1.5091   -1.0969    0.0092 N   0  0  0  0  0  0  0  0  0  0  0  0
   -1.5158    1.1080    0.1874 N   0  0  0  0  0  0  0  0  0  0  0  0
   -2.2847    0.0388    0.0610 C   0  0  0  0  0  0  0  0  0  0  0  0
   -3.7527    0.0028   -0.0397 C   0  0  0  0  0  0  0  0  0  0  0  0
   -4.4632   -0.6404    1.0066 C   0  0  0  0  0  0  0  0  0  0  0  0
   -5.8560   -0.6866    1.0118 C   0  0  0  0  0  0  0  0  0  0  0  0
   -6.6261   -1.3500    2.1111 C   0  0  0  0  0  0  0  0  0  0  0  0
   -6.5333   -0.0739   -0.0379 C   0  0  0  0  0  0  0  0  0  0  0  0
   -5.8298    0.5499   -1.0858 C   0  0  0  0  0  0  0  0  0  0  0  0
   -4.4116    0.5989   -1.1604 C   0  0  0  0  0  0  0  0  0  0  0  0
   -3.7763    1.1146   -2.1526 O   0  5  0  0  0  0  0  0  0  0  0  0
   -6.9296    1.3497   -2.4442 Br  0  0  0  0  0  0  0  0  0  0  0  0
    3.1057   -1.2313   -0.0135 H   0  0  0  0  0  0  0  0  0  0  0  0
    1.0315   -2.5134   -0.0011 H   0  0  0  0  0  0  0  0  0  0  0  0
    0.8047    2.4811    0.0157 H   0  0  0  0  0  0  0  0  0  0  0  0
    4.2718    3.4183   -0.1153 H   0  0  0  0  0  0  0  0  0  0  0  0
    2.5595    3.3816   -0.0813 H   0  0  0  0  0  0  0  0  0  0  0  0
    4.6803   -0.0719   -0.0757 H   0  0  0  0  0  0  0  0  0  0  0  0
    5.4860    1.4427   -0.1143 H   0  0  0  0  0  0  0  0  0  0  0  0
   -1.8793   -2.0295   -0.0974 H   0  0  0  0  0  0  0  0  0  0  0  0
   -3.9106   -1.0874    1.8289 H   0  0  0  0  0  0  0  0  0  0  0  0
   -7.2737   -0.6222    2.6112 H   0  0  0  0  0  0  0  0  0  0  0  0
   -7.2450   -2.1569    1.7042 H   0  0  0  0  0  0  0  0  0  0  0  0
   -5.9629   -1.7843    2.8659 H   0  0  0  0  0  0  0  0  0  0  0  0
   -7.6195   -0.0762   -0.0541 H   0  0  0  0  0  0  0  0  0  0  0  0
  1  2  2  0  0  0  0
  1  6  1  0  0  0  0
  1  7  1  0  0  0  0
  2  3  1  0  0  0  0
  2 22  1  0  0  0  0
  3  4  2  0  0  0  0
  3 23  1  0  0  0  0
  4  5  1  0  0  0  0
  4 10  1  0  0  0  0
  5  6  2  0  0  0  0
  5 11  1  0  0  0  0
  6 24  1  0  0  0  0
  7  8  1  0  0  0  0
  7  9  2  0  0  0  0
  8 25  1  0  0  0  0
  8 26  1  0  0  0  0
  9 27  1  0  0  0  0
  9 28  1  0  0  0  0
 10 12  1  0  0  0  0
 10 29  1  0  0  0  0
 11 12  2  0  0  0  0
 12 13  1  0  0  0  0
 13 14  2  0  0  0  0
 13 19  1  0  0  0  0
 14 15  1  0  0  0  0
 14 30  1  0  0  0  0
 15 16  1  0  0  0  0
 15 17  2  0  0  0  0
 16 31  1  0  0  0  0
 16 32  1  0  0  0  0
 16 33  1  0  0  0  0
 17 18  1  0  0  0  0
 17 34  1  0  0  0  0
 18 19  2  0  0  0  0
 18 21  1  0  0  0  0
 19 20  1  0  0  0  0
M  CHG  2   9   1  20  -1
M  END
>  <DRUGBANK_ID>
DB02288

>  <SECONDARY_ACCESSION_NUMBERS>
EXPT00152

>  <COMMON_NAME>
CRA-9334

$$$$
