
 OpenBabel10282417153D

 68 69  0  0  0  0  0  0  0  0999 V2000
    1.0462   -0.0459   -0.0933 O   0  0  0  0  0  0  0  0  0  0  0  0
    3.0544    0.9184   -0.6854 O   0  0  0  0  0  0  0  0  0  0  0  0
    4.9394    2.1901   -0.2764 O   0  0  0  0  0  0  0  0  0  0  0  0
    2.9789   -1.2603    0.1563 N   0  0  0  0  0  0  0  0  0  0  0  0
    3.9301    6.3443   -0.3561 C   0  0  0  0  0  0  0  0  0  0  0  0
    3.1692    7.6699   -0.4282 C   0  0  0  0  0  0  0  0  0  0  0  0
    3.5469    5.6314    0.9445 C   0  0  0  0  0  0  0  0  0  0  0  0
    3.5331    8.5267    0.7890 C   0  0  0  0  0  0  0  0  0  0  0  0
    2.0186    5.4276    0.9834 C   0  0  0  0  0  0  0  0  0  0  0  0
    5.0385    8.8054    0.7839 C   0  0  0  0  0  0  0  0  0  0  0  0
    1.5616    4.6086   -0.2139 C   0  0  0  0  0  0  0  0  0  0  0  0
    5.4174    9.5465   -0.5012 C   0  0  0  0  0  0  0  0  0  0  0  0
    2.2907    3.3021   -0.1405 C   0  0  0  0  0  0  0  0  0  0  0  0
    4.6569   10.8748   -0.5830 C   0  0  0  0  0  0  0  0  0  0  0  0
    1.9836    2.5374    1.1718 C   0  0  0  0  0  0  0  0  0  0  0  0
    5.0162   11.7766    0.6031 C   0  0  0  0  0  0  0  0  0  0  0  0
    0.5433    2.0695    1.1299 C   0  0  0  0  0  0  0  0  0  0  0  0
    6.5166   12.0694    0.6405 C   0  0  0  0  0  0  0  0  0  0  0  0
    0.2867    1.1967   -0.1064 C   0  0  0  0  0  0  0  0  0  0  0  0
    6.9484   12.7762   -0.6339 C   0  0  0  0  0  0  0  0  0  0  0  0
    2.4026   -0.1688   -0.2068 C   0  0  0  0  0  0  0  0  0  0  0  0
    4.3700   -1.2536    0.0544 C   0  0  0  0  0  0  0  0  0  0  0  0
    5.0845   -0.0746   -0.0152 C   0  0  0  0  0  0  0  0  0  0  0  0
    4.3407    1.1100   -0.2900 C   0  0  0  0  0  0  0  0  0  0  0  0
    6.4709   -0.0005   -0.0298 C   0  0  0  0  0  0  0  0  0  0  0  0
    5.0833   -2.4266   -0.0386 C   0  0  0  0  0  0  0  0  0  0  0  0
    7.1672   -1.1749   -0.2130 C   0  0  0  0  0  0  0  0  0  0  0  0
    6.4541   -2.3768   -0.3128 C   0  0  0  0  0  0  0  0  0  0  0  0
    8.6560   -1.1188   -0.2513 C   0  0  0  0  0  0  0  0  0  0  0  0
    5.0147    6.4786   -0.4041 H   0  0  0  0  0  0  0  0  0  0  0  0
    3.7174    5.7427   -1.2451 H   0  0  0  0  0  0  0  0  0  0  0  0
    3.3800    8.1699   -1.3760 H   0  0  0  0  0  0  0  0  0  0  0  0
    2.0862    7.5257   -0.4682 H   0  0  0  0  0  0  0  0  0  0  0  0
    3.8597    6.1807    1.8352 H   0  0  0  0  0  0  0  0  0  0  0  0
    4.1234    4.7047    1.0374 H   0  0  0  0  0  0  0  0  0  0  0  0
    2.9374    9.4423    0.7876 H   0  0  0  0  0  0  0  0  0  0  0  0
    3.2493    8.0554    1.7345 H   0  0  0  0  0  0  0  0  0  0  0  0
    1.4611    6.3622    0.9993 H   0  0  0  0  0  0  0  0  0  0  0  0
    1.7408    4.9611    1.9289 H   0  0  0  0  0  0  0  0  0  0  0  0
    5.3145    9.3641    1.6816 H   0  0  0  0  0  0  0  0  0  0  0  0
    5.6294    7.8879    0.8687 H   0  0  0  0  0  0  0  0  0  0  0  0
    1.7999    5.0791   -1.1749 H   0  0  0  0  0  0  0  0  0  0  0  0
    0.4831    4.4551   -0.2390 H   0  0  0  0  0  0  0  0  0  0  0  0
    6.5004    9.6858   -0.5414 H   0  0  0  0  0  0  0  0  0  0  0  0
    5.2100    8.9491   -1.3948 H   0  0  0  0  0  0  0  0  0  0  0  0
    3.3478    3.5081   -0.2373 H   0  0  0  0  0  0  0  0  0  0  0  0
    2.0625    2.7733   -1.0669 H   0  0  0  0  0  0  0  0  0  0  0  0
    4.8665   11.3613   -1.5383 H   0  0  0  0  0  0  0  0  0  0  0  0
    3.5730   10.7207   -0.6102 H   0  0  0  0  0  0  0  0  0  0  0  0
    2.1979    3.1285    2.0641 H   0  0  0  0  0  0  0  0  0  0  0  0
    2.6224    1.6777    1.3769 H   0  0  0  0  0  0  0  0  0  0  0  0
    4.4458   12.7079    0.5420 H   0  0  0  0  0  0  0  0  0  0  0  0
    4.7111   11.3172    1.5516 H   0  0  0  0  0  0  0  0  0  0  0  0
   -0.1188    2.9444    1.1272 H   0  0  0  0  0  0  0  0  0  0  0  0
    0.3197    1.5181    2.0472 H   0  0  0  0  0  0  0  0  0  0  0  0
    6.7502   12.6826    1.5148 H   0  0  0  0  0  0  0  0  0  0  0  0
    7.0983   11.1483    0.7667 H   0  0  0  0  0  0  0  0  0  0  0  0
    0.4291    1.7146   -1.0597 H   0  0  0  0  0  0  0  0  0  0  0  0
   -0.7752    0.9273   -0.0963 H   0  0  0  0  0  0  0  0  0  0  0  0
    6.3943   13.7130   -0.7427 H   0  0  0  0  0  0  0  0  0  0  0  0
    8.0179   12.9865   -0.6172 H   0  0  0  0  0  0  0  0  0  0  0  0
    6.7609   12.1697   -1.5261 H   0  0  0  0  0  0  0  0  0  0  0  0
    6.9811    0.9620    0.0204 H   0  0  0  0  0  0  0  0  0  0  0  0
    4.5623   -3.3716    0.0580 H   0  0  0  0  0  0  0  0  0  0  0  0
    6.9629   -3.2909   -0.5980 H   0  0  0  0  0  0  0  0  0  0  0  0
    9.0014   -0.4429   -1.0400 H   0  0  0  0  0  0  0  0  0  0  0  0
    9.0122   -0.7506    0.7171 H   0  0  0  0  0  0  0  0  0  0  0  0
    9.0749   -2.1118   -0.4191 H   0  0  0  0  0  0  0  0  0  0  0  0
  1 19  1  0  0  0  0
  1 21  1  0  0  0  0
  2 21  1  0  0  0  0
  2 24  1  0  0  0  0
  3 24  2  0  0  0  0
  4 21  2  0  0  0  0
  4 22  1  0  0  0  0
  5  6  1  0  0  0  0
  5  7  1  0  0  0  0
  5 30  1  0  0  0  0
  5 31  1  0  0  0  0
  6  8  1  0  0  0  0
  6 32  1  0  0  0  0
  6 33  1  0  0  0  0
  7  9  1  0  0  0  0
  7 34  1  0  0  0  0
  7 35  1  0  0  0  0
  8 10  1  0  0  0  0
  8 36  1  0  0  0  0
  8 37  1  0  0  0  0
  9 11  1  0  0  0  0
  9 38  1  0  0  0  0
  9 39  1  0  0  0  0
 10 12  1  0  0  0  0
 10 40  1  0  0  0  0
 10 41  1  0  0  0  0
 11 13  1  0  0  0  0
 11 42  1  0  0  0  0
 11 43  1  0  0  0  0
 12 14  1  0  0  0  0
 12 44  1  0  0  0  0
 12 45  1  0  0  0  0
 13 15  1  0  0  0  0
 13 46  1  0  0  0  0
 13 47  1  0  0  0  0
 14 16  1  0  0  0  0
 14 48  1  0  0  0  0
 14 49  1  0  0  0  0
 15 17  1  0  0  0  0
 15 50  1  0  0  0  0
 15 51  1  0  0  0  0
 16 18  1  0  0  0  0
 16 52  1  0  0  0  0
 16 53  1  0  0  0  0
 17 19  1  0  0  0  0
 17 54  1  0  0  0  0
 17 55  1  0  0  0  0
 18 20  1  0  0  0  0
 18 56  1  0  0  0  0
 18 57  1  0  0  0  0
 19 58  1  0  0  0  0
 19 59  1  0  0  0  0
 20 60  1  0  0  0  0
 20 61  1  0  0  0  0
 20 62  1  0  0  0  0
 22 23  2  0  0  0  0
 22 26  1  0  0  0  0
 23 24  1  0  0  0  0
 23 25  1  0  0  0  0
 25 27  2  0  0  0  0
 25 63  1  0  0  0  0
 26 28  2  0  0  0  0
 26 64  1  0  0  0  0
 27 28  1  0  0  0  0
 27 29  1  0  0  0  0
 28 65  1  0  0  0  0
 29 66  1  0  0  0  0
 29 67  1  0  0  0  0
 29 68  1  0  0  0  0
M  END
>  <DRUGBANK_ID>
DB06586

>  <COMMON_NAME>
Cetilistat

>  <CAS_NUMBER>
282526-98-1

>  <UNII>
LC5G1JUA39

>  <SYNONYMS>
Cetilistat

$$$$
