
 OpenBabel10282417163D

 55 58  0  0  0  0  0  0  0  0999 V2000
    3.6360   -1.3530   -0.1197 C   0  0  0  0  0  0  0  0  0  0  0  0
    4.1683   -0.1052    0.1665 C   0  0  0  0  0  0  0  0  0  0  0  0
    3.3556    1.0180    0.2016 C   0  0  0  0  0  0  0  0  0  0  0  0
    2.2673   -1.4725   -0.3673 C   0  0  0  0  0  0  0  0  0  0  0  0
    1.4141   -0.3581   -0.2977 C   0  0  0  0  0  0  0  0  0  0  0  0
    1.9786    0.9085   -0.0358 C   0  0  0  0  0  0  0  0  0  0  0  0
    1.1494    2.1634    0.0793 C   0  0  0  0  0  0  0  0  0  0  0  0
   -0.2705    2.0112   -0.4379 C   0  0  0  0  0  0  0  0  0  0  0  0
   -0.0753   -0.4945   -0.5674 C   0  0  2  0  0  0  0  0  0  0  0  0
   -0.8504    0.6904    0.0642 C   0  0  2  0  0  0  0  0  0  0  0  0
   -2.2094   -1.9330   -0.4109 C   0  0  0  0  0  0  0  0  0  0  0  0
   -0.6960   -1.8499   -0.1412 C   0  0  0  0  0  0  0  0  0  0  0  0
   -2.9461   -0.7428    0.2149 C   0  0  1  0  0  0  0  0  0  0  0  0
   -2.3050    0.5542   -0.3152 C   0  0  1  0  0  0  0  0  0  0  0  0
   -3.2341    1.6569    0.1434 C   0  0  0  0  0  0  0  0  0  0  0  0
   -4.5877    1.0103    0.0068 C   0  0  0  0  0  0  0  0  0  0  0  0
   -4.3748   -0.5036   -0.2969 C   0  0  2  0  0  0  0  0  0  0  0  0
   -0.7566    0.6698    1.1582 H   0  0  0  0  0  0  0  0  0  0  0  0
   -0.1870   -0.4283   -1.6609 H   0  0  0  0  0  0  0  0  0  0  0  0
   -2.3573    0.5414   -1.4185 H   0  0  0  0  0  0  0  0  0  0  0  0
   -2.9414   -0.8855    1.7562 C   0  0  0  0  0  0  0  0  0  0  0  0
   -5.3381   -1.3392    0.3529 O   0  0  0  0  0  0  0  0  0  0  0  0
    5.4947    0.0727    0.4232 O   0  0  0  0  0  0  0  0  0  0  0  0
   -6.6683   -1.0806    0.2657 C   0  0  0  0  0  0  0  0  0  0  0  0
   -7.1109   -0.0216   -0.7336 C   0  0  0  0  0  0  0  0  0  0  0  0
   -7.4492   -1.6323    1.0343 O   0  0  0  0  0  0  0  0  0  0  0  0
   -7.9510   -0.4524   -1.8971 C   0  0  0  0  0  0  0  0  0  0  0  0
   -9.2808   -0.9298   -1.4594 C   0  0  0  0  0  0  0  0  0  0  0  0
  -10.3346   -0.3250   -1.6020 O   0  0  0  0  0  0  0  0  0  0  0  0
   -9.2016   -2.1087   -0.8336 O   0  0  0  0  0  0  0  0  0  0  0  0
    4.2563   -2.2421   -0.1555 H   0  0  0  0  0  0  0  0  0  0  0  0
    3.7969    1.9854    0.4255 H   0  0  0  0  0  0  0  0  0  0  0  0
    1.8802   -2.4576   -0.6118 H   0  0  0  0  0  0  0  0  0  0  0  0
    1.1063    2.4396    1.1407 H   0  0  0  0  0  0  0  0  0  0  0  0
    1.6318    2.9855   -0.4611 H   0  0  0  0  0  0  0  0  0  0  0  0
   -0.8644    2.8668   -0.0954 H   0  0  0  0  0  0  0  0  0  0  0  0
   -0.2847    2.0363   -1.5353 H   0  0  0  0  0  0  0  0  0  0  0  0
   -2.3646   -1.9470   -1.4980 H   0  0  0  0  0  0  0  0  0  0  0  0
   -2.6006   -2.8841   -0.0305 H   0  0  0  0  0  0  0  0  0  0  0  0
   -0.2260   -2.6754   -0.6851 H   0  0  0  0  0  0  0  0  0  0  0  0
   -0.4916   -2.0272    0.9214 H   0  0  0  0  0  0  0  0  0  0  0  0
   -3.0727    1.9787    1.1749 H   0  0  0  0  0  0  0  0  0  0  0  0
   -3.1808    2.5380   -0.5047 H   0  0  0  0  0  0  0  0  0  0  0  0
   -5.2129    1.1642    0.8919 H   0  0  0  0  0  0  0  0  0  0  0  0
   -5.0496    1.5394   -0.8311 H   0  0  0  0  0  0  0  0  0  0  0  0
   -4.4182   -0.7284   -1.3723 H   0  0  0  0  0  0  0  0  0  0  0  0
   -3.3985   -0.0255    2.2539 H   0  0  0  0  0  0  0  0  0  0  0  0
   -3.5025   -1.7741    2.0673 H   0  0  0  0  0  0  0  0  0  0  0  0
   -1.9334   -0.9868    2.1651 H   0  0  0  0  0  0  0  0  0  0  0  0
    5.9406   -0.7877    0.3762 H   0  0  0  0  0  0  0  0  0  0  0  0
   -7.5111    0.8326   -0.1732 H   0  0  0  0  0  0  0  0  0  0  0  0
   -6.2731    0.3371   -1.3053 H   0  0  0  0  0  0  0  0  0  0  0  0
   -8.0846    0.4209   -2.5517 H   0  0  0  0  0  0  0  0  0  0  0  0
   -7.4309   -1.2123   -2.4881 H   0  0  0  0  0  0  0  0  0  0  0  0
  -10.0129   -2.2096   -0.2977 H   0  0  0  0  0  0  0  0  0  0  0  0
  1  2  2  0  0  0  0
  1 31  1  0  0  0  0
  2 23  1  0  0  0  0
  2  3  1  0  0  0  0
  3  6  2  0  0  0  0
  3 32  1  0  0  0  0
  4  1  1  0  0  0  0
  4 33  1  0  0  0  0
  5  9  1  0  0  0  0
  5  4  2  0  0  0  0
  5  6  1  0  0  0  0
  6  7  1  0  0  0  0
  7  8  1  0  0  0  0
  7 34  1  0  0  0  0
  7 35  1  0  0  0  0
  8 10  1  0  0  0  0
  8 36  1  0  0  0  0
  8 37  1  0  0  0  0
  9 19  1  6  0  0  0
  9 10  1  0  0  0  0
  9 12  1  0  0  0  0
 10 18  1  1  0  0  0
 10 14  1  0  0  0  0
 11 12  1  0  0  0  0
 11 38  1  0  0  0  0
 11 39  1  0  0  0  0
 12 40  1  0  0  0  0
 12 41  1  0  0  0  0
 13 21  1  1  0  0  0
 13 11  1  0  0  0  0
 13 14  1  0  0  0  0
 14 15  1  0  0  0  0
 14 20  1  6  0  0  0
 15 16  1  0  0  0  0
 15 42  1  0  0  0  0
 15 43  1  0  0  0  0
 16 17  1  0  0  0  0
 16 44  1  0  0  0  0
 16 45  1  0  0  0  0
 17 13  1  0  0  0  0
 17 46  1  6  0  0  0
 17 22  1  0  0  0  0
 21 47  1  0  0  0  0
 21 48  1  0  0  0  0
 21 49  1  0  0  0  0
 22 24  1  0  0  0  0
 23 50  1  0  0  0  0
 24 25  1  0  0  0  0
 24 26  2  0  0  0  0
 25 27  1  0  0  0  0
 25 51  1  0  0  0  0
 25 52  1  0  0  0  0
 27 28  1  0  0  0  0
 27 53  1  0  0  0  0
 27 54  1  0  0  0  0
 28 29  2  0  0  0  0
 28 30  1  0  0  0  0
 30 55  1  0  0  0  0
M  END
>  <DRUGBANK_ID>
DB07891

>  <COMMON_NAME>
Estradiol hemisuccinate

>  <CAS_NUMBER>
7698-93-3

>  <UNII>
VQV5064VG6

>  <SYNONYMS>
17beta-Estradiol hemisuccinate; beta-Estradiol-17-beta-hemisuccinate; beta-Estradiol-17beta-hemisuccinate

$$$$
