PAY
 OpenBabel10282417173D

 38 37  0  0  0  0  0  0  0  0999 V2000
   -5.8614    0.2063   -2.7243 O   0  0  0  0  0  0  0  0  0  0  0  0
   -4.2371    0.2535   -1.2099 O   0  0  0  0  0  0  0  0  0  0  0  0
   -4.5614    0.2657   -2.3847 C   0  0  0  0  0  0  0  0  0  0  0  0
   -3.6053    0.3391   -3.5604 C   0  0  0  0  0  0  0  0  0  0  0  0
   -3.6444   -0.8890   -4.4588 C   0  0  0  0  0  0  0  0  0  0  0  0
   -5.0379   -1.3018   -5.0038 C   0  0  1  0  0  0  0  0  0  0  0  0
   -5.4543   -0.2483   -6.0234 C   0  0  0  0  0  0  0  0  0  0  0  0
   -5.6707   -0.4162   -7.2055 O   0  0  0  0  0  0  0  0  0  0  0  0
   -5.5237    0.9888   -5.4886 O   0  0  0  0  0  0  0  0  0  0  0  0
   -5.1283   -2.7163   -5.6243 C   0  0  0  0  0  0  0  0  0  0  0  0
   -4.9381   -3.9070   -4.6469 C   0  0  2  0  0  0  0  0  0  0  0  0
   -6.2114   -4.2241   -3.8916 C   0  0  0  0  0  0  0  0  0  0  0  0
   -6.9886   -5.1213   -4.1373 O   0  0  0  0  0  0  0  0  0  0  0  0
   -6.4328   -3.4008   -2.8439 O   0  0  0  0  0  0  0  0  0  0  0  0
   -3.7837   -3.6740   -3.6789 C   0  0  0  0  0  0  0  0  0  0  0  0
   -3.2309   -4.7372   -2.7516 C   0  0  2  0  0  0  0  0  0  0  0  0
   -1.7040   -4.6064   -2.7294 C   0  0  0  0  0  0  0  0  0  0  0  0
   -3.6475   -6.0975   -3.2245 C   0  0  0  0  0  0  0  0  0  0  0  0
   -4.4900   -6.7259   -2.3808 O   0  0  0  0  0  0  0  0  0  0  0  0
   -3.3203   -6.5604   -4.3050 O   0  0  0  0  0  0  0  0  0  0  0  0
   -5.8038   -1.3234   -4.2316 H   0  0  0  0  0  0  0  0  0  0  0  0
   -4.7104   -4.7726   -5.2777 H   0  0  0  0  0  0  0  0  0  0  0  0
   -3.5969   -4.5406   -1.7347 H   0  0  0  0  0  0  0  0  0  0  0  0
   -6.3706    0.0808   -1.8989 H   0  0  0  0  0  0  0  0  0  0  0  0
   -3.7255    1.2620   -4.1206 H   0  0  0  0  0  0  0  0  0  0  0  0
   -2.5937    0.3818   -3.1338 H   0  0  0  0  0  0  0  0  0  0  0  0
   -2.9295   -0.8385   -5.2894 H   0  0  0  0  0  0  0  0  0  0  0  0
   -3.1685   -1.5882   -3.7926 H   0  0  0  0  0  0  0  0  0  0  0  0
   -5.6541    1.6109   -6.2304 H   0  0  0  0  0  0  0  0  0  0  0  0
   -6.1140   -2.8285   -6.1010 H   0  0  0  0  0  0  0  0  0  0  0  0
   -4.3952   -2.7925   -6.4378 H   0  0  0  0  0  0  0  0  0  0  0  0
   -7.2852   -3.7094   -2.4706 H   0  0  0  0  0  0  0  0  0  0  0  0
   -2.9470   -3.3464   -4.3078 H   0  0  0  0  0  0  0  0  0  0  0  0
   -4.0988   -2.8911   -2.9771 H   0  0  0  0  0  0  0  0  0  0  0  0
   -1.2855   -4.7718   -3.7305 H   0  0  0  0  0  0  0  0  0  0  0  0
   -1.3924   -3.6014   -2.4134 H   0  0  0  0  0  0  0  0  0  0  0  0
   -1.2570   -5.3379   -2.0546 H   0  0  0  0  0  0  0  0  0  0  0  0
   -4.7051   -6.2384   -1.5638 H   0  0  0  0  0  0  0  0  0  0  0  0
  1  3  1  0  0  0  0
  1 24  1  0  0  0  0
  2  3  2  0  0  0  0
  3  4  1  0  0  0  0
  4  5  1  0  0  0  0
  4 25  1  0  0  0  0
  4 26  1  0  0  0  0
  5  6  1  0  0  0  0
  5 27  1  0  0  0  0
  5 28  1  0  0  0  0
  6  7  1  0  0  0  0
  6 10  1  0  0  0  0
  6 21  1  1  0  0  0
  7  8  2  0  0  0  0
  7  9  1  0  0  0  0
  9 29  1  0  0  0  0
 10 30  1  0  0  0  0
 10 31  1  0  0  0  0
 11 15  1  0  0  0  0
 11 22  1  6  0  0  0
 11 12  1  0  0  0  0
 11 10  1  0  0  0  0
 12 13  2  0  0  0  0
 12 14  1  0  0  0  0
 14 32  1  0  0  0  0
 15 33  1  0  0  0  0
 15 34  1  0  0  0  0
 16 18  1  0  0  0  0
 16 23  1  1  0  0  0
 16 17  1  0  0  0  0
 16 15  1  0  0  0  0
 17 35  1  0  0  0  0
 17 36  1  0  0  0  0
 17 37  1  0  0  0  0
 18 19  1  0  0  0  0
 18 20  2  0  0  0  0
 19 38  1  0  0  0  0
M  END
>  <DRUGBANK_ID>
DB08368

>  <COMMON_NAME>
OCTANE-1,3,5,7-TETRACARBOXYLIC ACID

$$$$
