
 OpenBabel10282417233D

 28 29  0  0  1  0  0  0  0  0999 V2000
    0.8996   -2.2233    1.0023 C   0  0  0  0  0  0  0  0  0  0  0  0
    0.3942   -1.3731   -0.1554 C   0  0  2  0  0  0  0  0  0  0  0  0
    0.9250   -0.0529   -0.0778 O   0  0  0  0  0  0  0  0  0  0  0  0
   -1.1403   -1.3882   -0.1784 C   0  0  0  0  0  0  0  0  0  0  0  0
   -1.7894   -1.8047   -1.1309 O   0  0  0  0  0  0  0  0  0  0  0  0
   -1.8615   -0.8389    1.0513 C   0  0  0  0  0  0  0  0  0  0  0  0
   -2.8066   -1.5406    1.6143 N   0  0  0  0  0  0  0  0  0  0  0  0
   -3.4160   -0.9871    2.7451 C   0  0  0  0  0  0  0  0  0  0  0  0
   -3.0538    0.1906    3.3190 C   0  0  0  0  0  0  0  0  0  0  0  0
   -2.0345    0.9248    2.7574 N   0  0  0  0  0  0  0  0  0  0  0  0
   -1.3763    0.5149    1.5304 C   0  0  0  0  0  0  0  0  0  0  0  0
   -3.6948    0.6267    4.4480 N   0  0  0  0  0  0  0  0  0  0  0  0
   -4.6908   -0.0867    5.0220 C   0  0  0  0  0  0  0  0  0  0  0  0
   -5.2230    0.4427    6.1437 N   0  0  0  0  0  0  0  0  0  0  0  0
   -5.1315   -1.2120    4.5680 N   0  0  0  0  0  0  0  0  0  0  0  0
   -4.5585   -1.7409    3.4249 C   0  0  0  0  0  0  0  0  0  0  0  0
   -4.9461   -2.8122    2.9572 O   0  0  0  0  0  0  0  0  0  0  0  0
    0.5214   -1.8498    1.9597 H   0  0  0  0  0  0  0  0  0  0  0  0
    1.9923   -2.1971    1.0673 H   0  0  0  0  0  0  0  0  0  0  0  0
    0.5735   -3.2613    0.8906 H   0  0  0  0  0  0  0  0  0  0  0  0
    0.7568   -1.7979   -1.0983 H   0  0  0  0  0  0  0  0  0  0  0  0
    1.6628   -0.0395    0.5585 H   0  0  0  0  0  0  0  0  0  0  0  0
   -1.7804    1.8152    3.1618 H   0  0  0  0  0  0  0  0  0  0  0  0
   -1.5540    1.2444    0.7359 H   0  0  0  0  0  0  0  0  0  0  0  0
   -0.3140    0.4551    1.7592 H   0  0  0  0  0  0  0  0  0  0  0  0
   -3.3850    1.4941    4.8523 H   0  0  0  0  0  0  0  0  0  0  0  0
   -4.9671    1.3265    6.5520 H   0  0  0  0  0  0  0  0  0  0  0  0
   -5.9868   -0.0699    6.5715 H   0  0  0  0  0  0  0  0  0  0  0  0
  1 18  1  0  0  0  0
  1 19  1  0  0  0  0
  1 20  1  0  0  0  0
  2  4  1  0  0  0  0
  2 21  1  6  0  0  0
  2  3  1  0  0  0  0
  2  1  1  0  0  0  0
  3 22  1  0  0  0  0
  4  5  2  0  0  0  0
  4  6  1  0  0  0  0
  6  7  2  0  0  0  0
  6 11  1  0  0  0  0
  7  8  1  0  0  0  0
  8  9  2  0  0  0  0
  8 16  1  0  0  0  0
  9 10  1  0  0  0  0
  9 12  1  0  0  0  0
 10 11  1  0  0  0  0
 10 23  1  0  0  0  0
 11 24  1  0  0  0  0
 11 25  1  0  0  0  0
 12 13  1  0  0  0  0
 12 26  1  0  0  0  0
 13 14  1  0  0  0  0
 13 15  2  0  0  0  0
 14 27  1  0  0  0  0
 14 28  1  0  0  0  0
 15 16  1  0  0  0  0
 16 17  2  0  0  0  0
M  END
>  <DRUGBANK_ID>
DB16326

>  <COMMON_NAME>
Sepiapterin

>  <CAS_NUMBER>
17094-01-8

>  <UNII>
CJQ26KO7HP

>  <SYNONYMS>
L-sepiapterin; Sepiapterine

$$$$
