
 OpenBabel10282417183D

 60 63  0  0  1  0  0  0  0  0999 V2000
    2.3910   -0.0993   -0.0225 C   0  0  0  0  0  0  0  0  0  0  0  0
    0.8694   -0.1718   -0.0550 C   0  0  0  0  0  0  0  0  0  0  0  0
    0.1963    1.0521   -0.0382 C   0  0  0  0  0  0  0  0  0  0  0  0
   -1.1902    1.0308   -0.0479 C   0  0  0  0  0  0  0  0  0  0  0  0
   -1.9216   -0.2055   -0.0740 C   0  0  0  0  0  0  0  0  0  0  0  0
   -1.3300   -1.5070   -0.1052 C   0  0  0  0  0  0  0  0  0  0  0  0
    0.1098   -1.4335   -0.0771 C   0  0  0  0  0  0  0  0  0  0  0  0
   -2.3171   -2.8730    0.2173 C   0  0  0  0  0  0  0  0  0  0  0  0
   -2.9623   -4.1257   -0.7628 C   0  0  2  0  0  0  0  0  0  0  0  0
   -4.4571   -5.1480   -0.6711 C   0  0  0  0  0  0  0  0  0  0  0  0
   -4.9784   -5.5907   -2.1457 C   0  0  2  0  0  0  0  0  0  0  0  0
   -3.6918   -6.3863   -2.6402 C   0  0  0  0  0  0  0  0  0  0  0  0
   -2.4315   -5.6512   -2.5194 N   0  0  0  0  0  0  0  0  0  0  0  0
   -2.0954   -5.2556   -1.2087 C   0  0  0  0  0  0  0  0  0  0  0  0
   -1.4728   -5.9838   -0.4024 O   0  0  0  0  0  0  0  0  0  0  0  0
   -5.5931   -4.2796   -2.6481 C   0  0  0  0  0  0  0  0  0  0  0  0
   -4.6634   -3.3254   -2.9730 C   0  0  0  0  0  0  0  0  0  0  0  0
   -4.7800   -2.0425   -2.5222 C   0  0  0  0  0  0  0  0  0  0  0  0
   -6.0155   -1.5423   -2.2639 C   0  0  0  0  0  0  0  0  0  0  0  0
   -7.1245   -2.4079   -2.2639 C   0  0  0  0  0  0  0  0  0  0  0  0
   -6.9001   -3.8109   -2.3714 C   0  0  0  0  0  0  0  0  0  0  0  0
   -8.4278   -2.0078   -2.1312 O   0  0  0  0  0  0  0  0  0  0  0  0
   -8.7721   -0.6284   -2.2871 C   0  0  0  0  0  0  0  0  0  0  0  0
   -8.3175    0.0898   -3.5753 C   0  0  0  0  0  0  0  0  0  0  0  0
   -8.4421    1.5730   -3.2367 C   0  0  0  0  0  0  0  0  0  0  0  0
   -8.6605    1.6913   -1.7184 C   0  0  0  0  0  0  0  0  0  0  0  0
   -8.4539    0.3102   -1.1091 C   0  0  0  0  0  0  0  0  0  0  0  0
   -6.1240   -0.2056   -2.0933 O   0  0  0  0  0  0  0  0  0  0  0  0
   -5.0227    0.6531   -2.3185 C   0  0  0  0  0  0  0  0  0  0  0  0
    2.8002   -0.5824    0.8696 H   0  0  0  0  0  0  0  0  0  0  0  0
    2.8156   -0.5494   -0.9235 H   0  0  0  0  0  0  0  0  0  0  0  0
    2.7654    0.9407   -0.0003 H   0  0  0  0  0  0  0  0  0  0  0  0
    0.7336    2.0064    0.0072 H   0  0  0  0  0  0  0  0  0  0  0  0
   -1.7088    1.9915    0.0080 H   0  0  0  0  0  0  0  0  0  0  0  0
   -2.9967   -0.0985    0.0103 H   0  0  0  0  0  0  0  0  0  0  0  0
    0.7090   -2.3379   -0.0099 H   0  0  0  0  0  0  0  0  0  0  0  0
   -1.8438   -3.3210    1.0914 H   0  0  0  0  0  0  0  0  0  0  0  0
   -3.2304   -2.3418    0.5168 H   0  0  0  0  0  0  0  0  0  0  0  0
   -2.9490   -3.5195   -1.6422 H   0  0  0  0  0  0  0  0  0  0  0  0
   -4.2329   -6.1561   -0.2624 H   0  0  0  0  0  0  0  0  0  0  0  0
   -5.2736   -4.8095   -0.0225 H   0  0  0  0  0  0  0  0  0  0  0  0
   -5.7880   -6.3371   -2.2756 H   0  0  0  0  0  0  0  0  0  0  0  0
   -3.7618   -6.8440   -3.6325 H   0  0  0  0  0  0  0  0  0  0  0  0
   -3.5571   -7.2317   -1.9454 H   0  0  0  0  0  0  0  0  0  0  0  0
   -2.4474   -4.8917   -3.1835 H   0  0  0  0  0  0  0  0  0  0  0  0
   -3.6852   -3.6003   -3.2921 H   0  0  0  0  0  0  0  0  0  0  0  0
   -3.8800   -1.4522   -2.4161 H   0  0  0  0  0  0  0  0  0  0  0  0
   -7.7372   -4.4993   -2.2206 H   0  0  0  0  0  0  0  0  0  0  0  0
   -9.8683   -0.6348   -2.3400 H   0  0  0  0  0  0  0  0  0  0  0  0
   -7.3001   -0.1173   -3.9201 H   0  0  0  0  0  0  0  0  0  0  0  0
   -8.9122   -0.2107   -4.4426 H   0  0  0  0  0  0  0  0  0  0  0  0
   -7.5463    2.1250   -3.5489 H   0  0  0  0  0  0  0  0  0  0  0  0
   -9.2881    2.0061   -3.7771 H   0  0  0  0  0  0  0  0  0  0  0  0
   -7.9936    2.4390   -1.2736 H   0  0  0  0  0  0  0  0  0  0  0  0
   -9.6888    2.0076   -1.5250 H   0  0  0  0  0  0  0  0  0  0  0  0
   -9.0875    0.1132   -0.2412 H   0  0  0  0  0  0  0  0  0  0  0  0
   -7.4598    0.2419   -0.6623 H   0  0  0  0  0  0  0  0  0  0  0  0
   -4.3594    0.5830   -1.4608 H   0  0  0  0  0  0  0  0  0  0  0  0
   -4.5056    0.4411   -3.2604 H   0  0  0  0  0  0  0  0  0  0  0  0
   -5.4060    1.6727   -2.3702 H   0  0  0  0  0  0  0  0  0  0  0  0
  1  2  1  0  0  0  0
  1 30  1  0  0  0  0
  1 31  1  0  0  0  0
  1 32  1  0  0  0  0
  2  3  2  0  0  0  0
  2  7  1  0  0  0  0
  3  4  1  0  0  0  0
  3 33  1  0  0  0  0
  4  5  2  0  0  0  0
  4 34  1  0  0  0  0
  5  6  1  0  0  0  0
  5 35  1  0  0  0  0
  6  7  2  0  0  0  0
  6  8  1  0  0  0  0
  7 36  1  0  0  0  0
  8 37  1  0  0  0  0
  8 38  1  0  0  0  0
  9  8  1  0  0  0  0
  9 10  1  0  0  0  0
  9 14  1  0  0  0  0
  9 39  1  6  0  0  0
 10 11  1  0  0  0  0
 10 40  1  0  0  0  0
 10 41  1  0  0  0  0
 11 12  1  0  0  0  0
 11 16  1  0  0  0  0
 11 42  1  1  0  0  0
 12 13  1  0  0  0  0
 12 43  1  0  0  0  0
 12 44  1  0  0  0  0
 13 14  1  0  0  0  0
 13 45  1  0  0  0  0
 14 15  2  0  0  0  0
 16 17  2  0  0  0  0
 16 21  1  0  0  0  0
 17 18  1  0  0  0  0
 17 46  1  0  0  0  0
 18 19  2  0  0  0  0
 18 47  1  0  0  0  0
 19 20  1  0  0  0  0
 19 28  1  0  0  0  0
 20 21  2  0  0  0  0
 20 22  1  0  0  0  0
 21 48  1  0  0  0  0
 22 23  1  0  0  0  0
 23 24  1  0  0  0  0
 23 27  1  0  0  0  0
 23 49  1  0  0  0  0
 24 25  1  0  0  0  0
 24 50  1  0  0  0  0
 24 51  1  0  0  0  0
 25 26  1  0  0  0  0
 25 52  1  0  0  0  0
 25 53  1  0  0  0  0
 26 27  1  0  0  0  0
 26 54  1  0  0  0  0
 26 55  1  0  0  0  0
 27 56  1  0  0  0  0
 27 57  1  0  0  0  0
 28 29  1  0  0  0  0
 29 58  1  0  0  0  0
 29 59  1  0  0  0  0
 29 60  1  0  0  0  0
M  END
>  <DRUGBANK_ID>
DB11650

>  <COMMON_NAME>
HT-0712

>  <CAS_NUMBER>
617720-02-2

>  <UNII>
2O43FXG9IG

$$$$
