
 OpenBabel10282417123D

 19 19  0  0  0  0  0  0  0  0999 V2000
    0.7999   -0.0406    0.1540 O   0  0  0  0  0  0  0  0  0  0  0  0
    0.4760   -1.4241    0.0416 C   0  0  0  0  0  0  0  0  0  0  0  0
    1.0273   -2.0598   -1.2448 C   0  0  0  0  0  0  0  0  0  0  0  0
    2.5400   -2.0852   -1.2668 C   0  0  0  0  0  0  0  0  0  0  0  0
    3.2628   -0.8864   -1.3088 C   0  0  0  0  0  0  0  0  0  0  0  0
    4.6417   -0.8730   -1.1213 C   0  0  0  0  0  0  0  0  0  0  0  0
    5.3262   -2.0766   -0.9681 C   0  0  0  0  0  0  0  0  0  0  0  0
    4.6315   -3.2824   -1.0137 C   0  0  0  0  0  0  0  0  0  0  0  0
    3.2439   -3.2941   -1.1757 C   0  0  0  0  0  0  0  0  0  0  0  0
    1.7341    0.0006    0.4286 H   0  0  0  0  0  0  0  0  0  0  0  0
    0.8476   -1.9376    0.9352 H   0  0  0  0  0  0  0  0  0  0  0  0
   -0.6157   -1.4883    0.0438 H   0  0  0  0  0  0  0  0  0  0  0  0
    0.6384   -3.0839   -1.3118 H   0  0  0  0  0  0  0  0  0  0  0  0
    0.6681   -1.5192   -2.1279 H   0  0  0  0  0  0  0  0  0  0  0  0
    2.7452    0.0620   -1.4525 H   0  0  0  0  0  0  0  0  0  0  0  0
    5.1724    0.0723   -1.0800 H   0  0  0  0  0  0  0  0  0  0  0  0
    6.4030   -2.0684   -0.8242 H   0  0  0  0  0  0  0  0  0  0  0  0
    5.1708   -4.2209   -0.9002 H   0  0  0  0  0  0  0  0  0  0  0  0
    2.7218   -4.2459   -1.2148 H   0  0  0  0  0  0  0  0  0  0  0  0
  1  2  1  0  0  0  0
  1 10  1  0  0  0  0
  2  3  1  0  0  0  0
  2 11  1  0  0  0  0
  2 12  1  0  0  0  0
  3  4  1  0  0  0  0
  3 13  1  0  0  0  0
  3 14  1  0  0  0  0
  4  5  2  0  0  0  0
  4  9  1  0  0  0  0
  5  6  1  0  0  0  0
  5 15  1  0  0  0  0
  6  7  2  0  0  0  0
  6 16  1  0  0  0  0
  7  8  1  0  0  0  0
  7 17  1  0  0  0  0
  8  9  2  0  0  0  0
  8 18  1  0  0  0  0
  9 19  1  0  0  0  0
M  END
>  <DRUGBANK_ID>
DB02192

>  <SECONDARY_ACCESSION_NUMBERS>
EXPT02549

>  <COMMON_NAME>
Phenylethyl alcohol

>  <CAS_NUMBER>
60-12-8

>  <UNII>
ML9LGA7468

>  <SYNONYMS>
2-phenylethanol; Benzeneethanol; Phenethyl alcohol; Phenylethanol; Phenylethyl alcohol

$$$$
