
 OpenBabel10282417213D

 42 43  0  0  1  0  0  0  0  0999 V2000
    1.7702    1.2187   -0.8039 C   0  0  0  0  0  0  0  0  0  0  0  0
    1.2924    0.4201    0.4156 C   0  0  2  0  0  0  0  0  0  0  0  0
    1.3841   -1.1315    0.1371 C   0  0  0  0  0  0  0  0  0  0  0  0
    0.2311   -1.7262   -0.6749 C   0  0  0  0  0  0  0  0  0  0  0  0
   -1.0393   -1.3919    0.0493 C   0  0  0  0  0  0  0  0  0  0  0  0
   -1.0915    0.1089    0.1752 C   0  0  1  0  0  0  0  0  0  0  0  0
   -0.0608    0.8102    0.9064 N   0  0  0  0  0  0  0  0  0  0  0  0
   -0.3487    2.2514    1.0705 N   0  0  0  0  0  0  0  0  0  0  0  0
   -1.4727    3.0498    0.6395 C   0  0  0  0  0  0  0  0  0  0  0  0
   -1.2946    4.2681    0.5406 O   0  0  0  0  0  0  0  0  0  0  0  0
   -2.8488    2.5176    0.1636 C   0  0  0  0  0  0  0  0  0  0  0  0
   -3.5287    1.5159    0.8591 C   0  0  0  0  0  0  0  0  0  0  0  0
   -4.3723    0.6225    0.1605 C   0  0  0  0  0  0  0  0  0  0  0  0
   -4.7738    0.8537   -1.1623 C   0  0  0  0  0  0  0  0  0  0  0  0
   -4.2874    1.9864   -1.8166 C   0  0  0  0  0  0  0  0  0  0  0  0
   -3.3059    2.8057   -1.1599 C   0  0  0  0  0  0  0  0  0  0  0  0
   -4.7580    2.4471   -3.4709 S   0  0  0  0  0  0  0  0  0  0  0  0
   -5.3362    3.7508   -3.3785 O   0  0  0  0  0  0  0  0  0  0  0  0
   -3.6439    2.1573   -4.3685 O   0  0  0  0  0  0  0  0  0  0  0  0
   -6.0145    1.4529   -3.9601 N   0  0  0  0  0  0  0  0  0  0  0  0
   -5.7839   -0.3794   -1.8269 Cl  0  0  0  0  0  0  0  0  0  0  0  0
   -1.2756    0.6916   -1.2324 C   0  0  0  0  0  0  0  0  0  0  0  0
    1.1267    1.1172   -1.6726 H   0  0  0  0  0  0  0  0  0  0  0  0
    1.8343    2.2860   -0.5741 H   0  0  0  0  0  0  0  0  0  0  0  0
    2.7552    0.8779   -1.1337 H   0  0  0  0  0  0  0  0  0  0  0  0
    2.0191    0.6180    1.2170 H   0  0  0  0  0  0  0  0  0  0  0  0
    2.3174   -1.3771   -0.3769 H   0  0  0  0  0  0  0  0  0  0  0  0
    1.3970   -1.6560    1.1020 H   0  0  0  0  0  0  0  0  0  0  0  0
    0.2307   -1.3160   -1.6878 H   0  0  0  0  0  0  0  0  0  0  0  0
    0.2958   -2.8071   -0.8021 H   0  0  0  0  0  0  0  0  0  0  0  0
   -1.9373   -1.7203   -0.4910 H   0  0  0  0  0  0  0  0  0  0  0  0
   -1.0814   -1.8698    1.0371 H   0  0  0  0  0  0  0  0  0  0  0  0
   -1.8968    0.1741    0.8787 H   0  0  0  0  0  0  0  0  0  0  0  0
    0.4651    2.8276    1.2961 H   0  0  0  0  0  0  0  0  0  0  0  0
   -3.2142    1.2411    1.8664 H   0  0  0  0  0  0  0  0  0  0  0  0
   -4.6141   -0.3388    0.6219 H   0  0  0  0  0  0  0  0  0  0  0  0
   -2.7657    3.5489   -1.7528 H   0  0  0  0  0  0  0  0  0  0  0  0
   -6.7312    1.3377   -3.2427 H   0  0  0  0  0  0  0  0  0  0  0  0
   -6.4004    1.7214   -4.8644 H   0  0  0  0  0  0  0  0  0  0  0  0
   -2.2542    0.4171   -1.5999 H   0  0  0  0  0  0  0  0  0  0  0  0
   -1.1024    1.7662   -1.2834 H   0  0  0  0  0  0  0  0  0  0  0  0
   -0.6068    0.3498   -2.0096 H   0  0  0  0  0  0  0  0  0  0  0  0
  1 23  1  0  0  0  0
  1 24  1  0  0  0  0
  1 25  1  0  0  0  0
  2  1  1  0  0  0  0
  2  3  1  0  0  0  0
  2  7  1  0  0  0  0
  2 26  1  1  0  0  0
  3  4  1  0  0  0  0
  3 27  1  0  0  0  0
  3 28  1  0  0  0  0
  4  5  1  0  0  0  0
  4 29  1  0  0  0  0
  4 30  1  0  0  0  0
  5  6  1  0  0  0  0
  5 31  1  0  0  0  0
  5 32  1  0  0  0  0
  6  7  1  0  0  0  0
  6 22  1  0  0  0  0
  6 33  1  1  0  0  0
  7  8  1  0  0  0  0
  8  9  1  0  0  0  0
  8 34  1  0  0  0  0
  9 10  2  0  0  0  0
  9 11  1  0  0  0  0
 11 12  2  0  0  0  0
 11 16  1  0  0  0  0
 12 13  1  0  0  0  0
 12 35  1  0  0  0  0
 13 14  2  0  0  0  0
 13 36  1  0  0  0  0
 14 15  1  0  0  0  0
 14 21  1  0  0  0  0
 15 16  2  0  0  0  0
 15 17  1  0  0  0  0
 16 37  1  0  0  0  0
 17 18  2  0  0  0  0
 17 19  2  0  0  0  0
 17 20  1  0  0  0  0
 20 38  1  0  0  0  0
 20 39  1  0  0  0  0
 22 40  1  0  0  0  0
 22 41  1  0  0  0  0
 22 42  1  0  0  0  0
M  END
>  <DRUGBANK_ID>
DB13792

>  <COMMON_NAME>
Clopamide

>  <CAS_NUMBER>
636-54-4

>  <UNII>
17S83WON0I

>  <SYNONYMS>
Clopamide

$$$$
