
 OpenBabel10282417153D

 57 59  0  0  0  0  0  0  0  0999 V2000
    1.0187   -0.0160    0.0449 C   0  0  0  0  0  0  0  0  0  0  0  0
    0.4767   -0.3024   -1.2459 O   0  0  0  0  0  0  0  0  0  0  0  0
    0.9545    0.4913   -2.2558 C   0  0  0  0  0  0  0  0  0  0  0  0
    2.2988    0.8314   -2.4114 C   0  0  0  0  0  0  0  0  0  0  0  0
    2.7387    1.6474   -3.4866 C   0  0  0  0  0  0  0  0  0  0  0  0
    1.8475    2.1223   -4.4538 C   0  0  0  0  0  0  0  0  0  0  0  0
    0.5056    1.6729   -4.3290 C   0  0  0  0  0  0  0  0  0  0  0  0
    0.0539    0.9045   -3.2305 C   0  0  0  0  0  0  0  0  0  0  0  0
    2.1594    3.3827   -5.7453 S   0  0  0  0  0  0  0  0  0  0  0  0
    3.8703    3.8653   -6.0309 C   0  0  0  0  0  0  0  0  0  0  0  0
    4.3197    5.2699   -6.3197 C   0  0  0  0  0  0  0  0  0  0  0  0
    5.7099    5.4716   -6.5260 C   0  0  0  0  0  0  0  0  0  0  0  0
    6.5840    4.3624   -6.4655 N   0  0  0  0  0  0  0  0  0  0  0  0
    6.1047    3.1444   -6.0641 C   0  0  0  0  0  0  0  0  0  0  0  0
    4.8124    2.8848   -5.8535 N   0  0  0  0  0  0  0  0  0  0  0  0
    6.9597    2.1173   -5.6445 N   0  0  0  0  0  0  0  0  0  0  0  0
    6.0504    7.0859   -6.1235 N   0  0  0  0  0  0  0  0  0  0  0  0
    4.6538    7.4839   -5.8211 C   0  0  0  0  0  0  0  0  0  0  0  0
    3.7254    6.5334   -6.0560 N   0  0  0  0  0  0  0  0  0  0  0  0
    7.5233    7.7114   -5.1438 C   0  0  0  0  0  0  0  0  0  0  0  0
    8.3982    6.9985   -3.5070 C   0  0  0  0  0  0  0  0  0  0  0  0
    8.8368    5.2962   -3.1087 O   0  0  0  0  0  0  0  0  0  0  0  0
    7.5972    4.0564   -2.7376 C   0  0  0  0  0  0  0  0  0  0  0  0
    6.2706    4.8013   -1.4482 P   0  0  0  0  0  0  0  0  0  0  0  0
    6.9910    5.5926   -0.4054 O   0  0  0  0  0  0  0  0  0  0  0  0
    5.3737    5.7578   -2.3685 O   0  0  0  0  0  0  0  0  0  0  0  0
    5.1515    5.3022   -3.6995 C   0  0  0  0  0  0  0  0  0  0  0  0
    6.2253    6.0669   -4.1726 C   0  0  0  0  0  0  0  0  0  0  0  0
    7.0783    5.7109   -3.2250 F   0  0  0  0  0  0  0  0  0  0  0  0
    7.1706    5.7736   -5.0824 F   0  0  0  0  0  0  0  0  0  0  0  0
    6.0473    7.3660   -3.7714 F   0  0  0  0  0  0  0  0  0  0  0  0
    4.8019    4.2343   -1.0251 O   0  0  0  0  0  0  0  0  0  0  0  0
    3.4924    5.0499   -1.3045 C   0  0  0  0  0  0  0  0  0  0  0  0
    3.1985    6.5890   -1.8250 C   0  0  0  0  0  0  0  0  0  0  0  0
    3.5417    6.9709   -3.0686 F   0  0  0  0  0  0  0  0  0  0  0  0
    1.8402    6.7517   -1.8699 F   0  0  0  0  0  0  0  0  0  0  0  0
    3.6852    7.5423   -1.0089 F   0  0  0  0  0  0  0  0  0  0  0  0
    0.6350   -0.7559    0.7558 H   0  0  0  0  0  0  0  0  0  0  0  0
    0.6915    0.9756    0.3725 H   0  0  0  0  0  0  0  0  0  0  0  0
    2.1095   -0.0885    0.0800 H   0  0  0  0  0  0  0  0  0  0  0  0
    3.0350    0.4630   -1.7028 H   0  0  0  0  0  0  0  0  0  0  0  0
    3.7937    1.8862   -3.5276 H   0  0  0  0  0  0  0  0  0  0  0  0
   -0.2292    1.9300   -5.0912 H   0  0  0  0  0  0  0  0  0  0  0  0
   -1.0048    0.6592   -3.1339 H   0  0  0  0  0  0  0  0  0  0  0  0
    7.9654    2.2146   -5.6467 H   0  0  0  0  0  0  0  0  0  0  0  0
    6.6107    1.1623   -5.6717 H   0  0  0  0  0  0  0  0  0  0  0  0
    4.4243    8.3520   -5.1754 H   0  0  0  0  0  0  0  0  0  0  0  0
    8.2472    7.7061   -5.9426 H   0  0  0  0  0  0  0  0  0  0  0  0
    7.1362    8.7381   -4.8988 H   0  0  0  0  0  0  0  0  0  0  0  0
    9.3334    7.5280   -3.2783 H   0  0  0  0  0  0  0  0  0  0  0  0
    7.7984    7.2697   -2.5788 H   0  0  0  0  0  0  0  0  0  0  0  0
    7.0850    3.9162   -3.7021 H   0  0  0  0  0  0  0  0  0  0  0  0
    8.0351    3.0492   -2.7513 H   0  0  0  0  0  0  0  0  0  0  0  0
    5.1406    4.2342   -3.8299 H   0  0  0  0  0  0  0  0  0  0  0  0
    4.2866    5.7416   -4.1080 H   0  0  0  0  0  0  0  0  0  0  0  0
    2.9769    4.4032   -2.0179 H   0  0  0  0  0  0  0  0  0  0  0  0
    2.9458    5.0339   -0.3621 H   0  0  0  0  0  0  0  0  0  0  0  0
  1  2  1  0  0  0  0
  1 38  1  0  0  0  0
  1 39  1  0  0  0  0
  1 40  1  0  0  0  0
  2  3  1  0  0  0  0
  3  4  2  0  0  0  0
  3  8  1  0  0  0  0
  4  5  1  0  0  0  0
  4 41  1  0  0  0  0
  5  6  2  0  0  0  0
  5 42  1  0  0  0  0
  6  7  1  0  0  0  0
  6  9  1  0  0  0  0
  7  8  2  0  0  0  0
  7 43  1  0  0  0  0
  8 44  1  0  0  0  0
  9 10  1  0  0  0  0
 10 11  2  0  0  0  0
 10 15  1  0  0  0  0
 11 12  1  0  0  0  0
 11 19  1  0  0  0  0
 12 13  2  0  0  0  0
 12 17  1  0  0  0  0
 13 14  1  0  0  0  0
 14 15  2  0  0  0  0
 14 16  1  0  0  0  0
 16 45  1  0  0  0  0
 16 46  1  0  0  0  0
 17 18  1  0  0  0  0
 17 20  1  0  0  0  0
 18 19  2  0  0  0  0
 18 47  1  0  0  0  0
 20 21  1  0  0  0  0
 20 48  1  0  0  0  0
 20 49  1  0  0  0  0
 21 22  1  0  0  0  0
 21 50  1  0  0  0  0
 21 51  1  0  0  0  0
 22 23  1  0  0  0  0
 23 24  1  0  0  0  0
 23 52  1  0  0  0  0
 23 53  1  0  0  0  0
 24 25  2  0  0  0  0
 24 26  1  0  0  0  0
 24 32  1  0  0  0  0
 26 27  1  0  0  0  0
 27 28  1  0  0  0  0
 27 54  1  0  0  0  0
 27 55  1  0  0  0  0
 28 29  1  0  0  0  0
 28 30  1  0  0  0  0
 28 31  1  0  0  0  0
 32 33  1  0  0  0  0
 33 34  1  0  0  0  0
 33 56  1  0  0  0  0
 33 57  1  0  0  0  0
 34 35  1  0  0  0  0
 34 36  1  0  0  0  0
 34 37  1  0  0  0  0
M  END
>  <DRUGBANK_ID>
DB06368

>  <COMMON_NAME>
Alamifovir

>  <CAS_NUMBER>
193681-12-8

>  <UNII>
0N739K2A8A

>  <SYNONYMS>
Alamifovir

$$$$
