878
 OpenBabel10282417123D

 22 22  0  0  0  0  0  0  0  0999 V2000
    1.5709    1.2220   -0.0253 C   0  0  0  0  0  0  0  0  0  0  0  0
    2.9801    1.1309   -0.0832 C   0  0  0  0  0  0  0  0  0  0  0  0
    3.6333   -0.1247   -0.0923 C   0  0  0  0  0  0  0  0  0  0  0  0
    2.8279   -1.2424    0.1544 C   0  0  0  0  0  0  0  0  0  0  0  0
    1.4327   -1.1719    0.0597 C   0  0  0  0  0  0  0  0  0  0  0  0
    0.8045    0.0606   -0.0249 C   0  0  0  0  0  0  0  0  0  0  0  0
    3.3380   -2.4899    0.7572 C   0  0  0  0  0  0  0  0  0  0  0  0
    2.8495   -3.5959    0.6527 O   0  0  0  0  0  0  0  0  0  0  0  0
    4.4823   -2.2556    1.4320 O   0  0  0  0  0  0  0  0  0  0  0  0
    5.0422   -0.1706   -0.3089 N   0  0  0  0  0  0  0  0  0  0  0  0
    5.9394   -1.2193   -0.5677 C   0  0  0  0  0  0  0  0  0  0  0  0
    7.1475   -1.0112   -0.4412 O   0  0  0  0  0  0  0  0  0  0  0  0
    5.4883   -2.6760   -0.9835 C   0  0  0  0  0  0  0  0  0  0  0  0
    4.5728   -2.9731   -1.6965 O   0  0  0  0  0  0  0  0  0  0  0  0
    6.1593   -3.6191   -0.2669 O   0  0  0  0  0  0  0  0  0  0  0  0
   -1.2715    0.1228   -0.0189 I   0  0  0  0  0  0  0  0  0  0  0  0
    1.0822    2.1960    0.0065 H   0  0  0  0  0  0  0  0  0  0  0  0
    3.5361    2.0684   -0.1117 H   0  0  0  0  0  0  0  0  0  0  0  0
    0.8540   -2.0898    0.1226 H   0  0  0  0  0  0  0  0  0  0  0  0
    5.0170   -3.0801    1.4416 H   0  0  0  0  0  0  0  0  0  0  0  0
    5.5414    0.7031   -0.1785 H   0  0  0  0  0  0  0  0  0  0  0  0
    5.7145   -4.4733   -0.4674 H   0  0  0  0  0  0  0  0  0  0  0  0
  1  2  2  0  0  0  0
  1  6  1  0  0  0  0
  1 17  1  0  0  0  0
  2  3  1  0  0  0  0
  2 18  1  0  0  0  0
  3  4  2  0  0  0  0
  3 10  1  0  0  0  0
  4  5  1  0  0  0  0
  4  7  1  0  0  0  0
  5  6  2  0  0  0  0
  5 19  1  0  0  0  0
  6 16  1  0  0  0  0
  7  8  2  0  0  0  0
  7  9  1  0  0  0  0
  9 20  1  0  0  0  0
 10 11  1  0  0  0  0
 10 21  1  0  0  0  0
 11 12  2  0  0  0  0
 11 13  1  0  0  0  0
 13 14  2  0  0  0  0
 13 15  1  0  0  0  0
 15 22  1  0  0  0  0
M  END
>  <DRUGBANK_ID>
DB02662

>  <SECONDARY_ACCESSION_NUMBERS>
EXPT00329

>  <COMMON_NAME>
Novo Nordisk a/S Compound

$$$$
