BZS
 OpenBabel10282417163D

 27 27  0  0  0  0  0  0  0  0999 V2000
   -3.1170    0.4420   -1.3110 C   0  0  0  0  0  0  0  0  0  0  0  0
   -1.7229   -0.1277   -1.1639 C   0  0  0  0  0  0  0  0  0  0  0  0
   -0.6363    0.9111   -1.4837 C   0  0  2  0  0  0  0  0  0  0  0  0
    0.2445    1.1574   -0.2640 C   0  0  0  0  0  0  0  0  0  0  0  0
   -1.2351    2.2137   -2.0366 C   0  0  0  0  0  0  0  0  0  0  0  0
   -0.2785    3.2903   -2.4311 C   0  0  0  0  0  0  0  0  0  0  0  0
   -0.7535    4.6068   -2.3629 C   0  0  0  0  0  0  0  0  0  0  0  0
    1.0583    3.0319   -2.7303 C   0  0  0  0  0  0  0  0  0  0  0  0
    0.1231    5.6629   -2.5339 C   0  0  0  0  0  0  0  0  0  0  0  0
    1.9448    4.0903   -2.8284 C   0  0  0  0  0  0  0  0  0  0  0  0
    1.4733    5.4011   -2.7592 C   0  0  0  0  0  0  0  0  0  0  0  0
   -3.5823    1.2789   -0.5497 O   0  0  0  0  0  0  0  0  0  0  0  0
   -3.7772    0.0522   -2.4206 O   0  0  0  0  0  0  0  0  0  0  0  0
    1.0823    0.3673    0.1605 O   0  0  0  0  0  0  0  0  0  0  0  0
    0.0554    2.3391    0.3443 O   0  0  0  0  0  0  0  0  0  0  0  0
    0.0262    0.4767   -2.2468 H   0  0  0  0  0  0  0  0  0  0  0  0
   -1.6333   -0.5128   -0.1422 H   0  0  0  0  0  0  0  0  0  0  0  0
   -1.6076   -0.9984   -1.8215 H   0  0  0  0  0  0  0  0  0  0  0  0
   -1.8861    2.0147   -2.8952 H   0  0  0  0  0  0  0  0  0  0  0  0
   -1.8398    2.6593   -1.2368 H   0  0  0  0  0  0  0  0  0  0  0  0
   -1.7984    4.7985   -2.1171 H   0  0  0  0  0  0  0  0  0  0  0  0
    1.4378    2.0184   -2.8171 H   0  0  0  0  0  0  0  0  0  0  0  0
   -0.2433    6.6806   -2.4486 H   0  0  0  0  0  0  0  0  0  0  0  0
    3.0055    3.8846   -2.9287 H   0  0  0  0  0  0  0  0  0  0  0  0
    2.1673    6.2247   -2.8771 H   0  0  0  0  0  0  0  0  0  0  0  0
   -3.3540   -0.6426   -2.9570 H   0  0  0  0  0  0  0  0  0  0  0  0
    0.7500    2.4431    1.0258 H   0  0  0  0  0  0  0  0  0  0  0  0
  1  2  1  0  0  0  0
  1 12  2  0  0  0  0
  1 13  1  0  0  0  0
  2 17  1  0  0  0  0
  2 18  1  0  0  0  0
  3  5  1  0  0  0  0
  3 16  1  6  0  0  0
  3  4  1  0  0  0  0
  3  2  1  0  0  0  0
  4 14  2  0  0  0  0
  4 15  1  0  0  0  0
  5  6  1  0  0  0  0
  5 19  1  0  0  0  0
  5 20  1  0  0  0  0
  6  7  2  0  0  0  0
  6  8  1  0  0  0  0
  7  9  1  0  0  0  0
  7 21  1  0  0  0  0
  8 10  2  0  0  0  0
  8 22  1  0  0  0  0
  9 11  2  0  0  0  0
  9 23  1  0  0  0  0
 10 11  1  0  0  0  0
 10 24  1  0  0  0  0
 11 25  1  0  0  0  0
 13 26  1  0  0  0  0
 15 27  1  0  0  0  0
M  END
>  <DRUGBANK_ID>
DB07506

>  <COMMON_NAME>
L-BENZYLSUCCINIC ACID

$$$$
