
 OpenBabel10282417113D

152157  0  0  0  0  0  0  0  0999 V2000
    0.3473   -0.0159   -0.4520 C   0  0  0  0  0  0  0  0  0  0  0  0
    5.8529    4.3775    2.4432 C   0  0  0  0  0  0  0  0  0  0  0  0
    2.7112   -0.0864   -4.6799 C   0  0  0  0  0  0  0  0  0  0  0  0
    4.3933   -2.2121    1.8243 C   0  0  0  0  0  0  0  0  0  0  0  0
   10.2961    0.2901   -1.5734 C   0  0  0  0  0  0  0  0  0  0  0  0
    5.7669   -1.0948    4.0965 C   0  0  0  0  0  0  0  0  0  0  0  0
   -0.0715    8.6444    1.7507 C   0  0  0  0  0  0  0  0  0  0  0  0
   10.5646    9.1108    4.5848 C   0  0  0  0  0  0  0  0  0  0  0  0
    4.5905   -3.7752   -1.2893 C   0  0  0  0  0  0  0  0  0  0  0  0
    6.7772   -3.0604    0.5422 C   0  0  0  0  0  0  0  0  0  0  0  0
    2.8436    7.3213   -0.3009 C   0  0  0  0  0  0  0  0  0  0  0  0
   11.9731    5.5753    4.4517 C   0  0  0  0  0  0  0  0  0  0  0  0
    3.0302    4.1808   -1.7699 C   0  0  0  0  0  0  0  0  0  0  0  0
   10.8444    3.0852    2.3368 C   0  0  0  0  0  0  0  0  0  0  0  0
   -0.3729   -0.3000    2.8794 C   0  0  0  0  0  0  0  0  0  0  0  0
    6.3195    1.6360    0.6411 C   0  0  0  0  0  0  0  0  0  0  0  0
    2.3007    0.6938    1.7702 C   0  0  0  0  0  0  0  0  0  0  0  0
    2.5052    2.0717    2.5196 C   0  0  0  0  0  0  0  0  0  0  0  0
   -1.7068    2.7707    1.3974 C   0  0  0  0  0  0  0  0  0  0  0  0
    6.4361    6.5169    0.9615 C   0  0  0  0  0  0  0  0  0  0  0  0
   -0.0063    1.0824    2.3853 C   0  0  0  0  0  0  0  0  0  0  0  0
    6.1760    2.9449    0.0420 C   0  0  0  0  0  0  0  0  0  0  0  0
   -1.4356    1.5539    0.4921 C   0  0  0  0  0  0  0  0  0  0  0  0
    6.3425    5.2767    0.1276 C   0  0  0  0  0  0  0  0  0  0  0  0
    0.2902   -1.5405    2.2651 C   0  0  0  0  0  0  0  0  0  0  0  0
    5.8237    1.4282    2.0605 C   0  0  0  0  0  0  0  0  0  0  0  0
    2.3557    2.2266   -0.3795 C   0  0  0  0  0  0  0  0  0  0  0  0
    8.2963    2.8493    2.5624 C   0  0  0  0  0  0  0  0  0  0  0  0
    3.0636    0.7116   -2.2378 C   0  0  0  0  0  0  0  0  0  0  0  0
    4.0865    0.2014   -0.2092 C   0  0  0  0  0  0  0  0  0  0  0  0
    9.2453    0.9626    0.9142 C   0  0  0  0  0  0  0  0  0  0  0  0
    8.0886    0.2908    2.9335 C   0  0  0  0  0  0  0  0  0  0  0  0
   -1.0376    5.1558    1.7025 C   0  0  0  0  0  0  0  0  0  0  0  0
    8.0518    7.6539    2.4447 C   0  0  0  0  0  0  0  0  0  0  0  0
    3.3128    1.1374   -1.0004 C   0  0  0  0  0  0  0  0  0  0  0  0
    8.6764    1.3168    2.1704 C   0  0  0  0  0  0  0  0  0  0  0  0
   -0.7448    3.9272    1.1131 C   0  0  0  0  0  0  0  0  0  0  0  0
    7.7377    6.4952    1.7516 C   0  0  0  0  0  0  0  0  0  0  0  0
    0.7978    2.4140   -0.2132 C   0  0  3  0  0  0  0  0  0  0  0  0
    8.0806    3.9668    1.4185 C   0  0  3  0  0  0  0  0  0  0  0  0
    3.3985   -0.6194   -2.5766 C   0  0  0  0  0  0  0  0  0  0  0  0
    4.0365   -1.1817   -0.3852 C   0  0  0  0  0  0  0  0  0  0  0  0
    8.8971   -0.2349    0.2798 C   0  0  0  0  0  0  0  0  0  0  0  0
    7.6305   -0.8861    2.3210 C   0  0  0  0  0  0  0  0  0  0  0  0
   -0.2427    6.2782    1.4350 C   0  0  0  0  0  0  0  0  0  0  0  0
    9.1958    7.6951    3.2421 C   0  0  0  0  0  0  0  0  0  0  0  0
    2.5272   -0.4883    2.5138 C   0  0  0  0  0  0  0  0  0  0  0  0
    3.8252    2.5490    2.2169 C   0  0  0  0  0  0  0  0  0  0  0  0
    0.4285    3.8040    0.2877 C   0  0  0  0  0  0  0  0  0  0  0  0
    8.5618    5.3150    1.9208 C   0  0  0  0  0  0  0  0  0  0  0  0
    3.7999   -1.5952   -1.6561 C   0  0  0  0  0  0  0  0  0  0  0  0
    8.0394   -1.1427    0.9510 C   0  0  0  0  0  0  0  0  0  0  0  0
    0.9025    6.1731    0.5974 C   0  0  0  0  0  0  0  0  0  0  0  0
   10.0316    6.5542    3.3677 C   0  0  0  0  0  0  0  0  0  0  0  0
    1.2273    4.9485   -0.0362 C   0  0  0  0  0  0  0  0  0  0  0  0
    9.7491    5.3693    2.6651 C   0  0  0  0  0  0  0  0  0  0  0  0
    0.0323    1.2432    0.5610 N   0  3  3  0  0  0  0  0  0  0  0  0
    6.5830    4.0707    1.0295 N   0  3  3  0  0  0  0  0  0  0  0  0
    3.4652   -0.4044    3.1771 O   0  0  0  0  0  0  0  0  0  0  0  0
    4.0480    3.3879    1.3713 O   0  0  0  0  0  0  0  0  0  0  0  0
    3.2018   -1.0932   -3.8308 O   0  0  0  0  0  0  0  0  0  0  0  0
    3.7465   -2.1351    0.5759 O   0  0  0  0  0  0  0  0  0  0  0  0
    9.1990   -0.4651   -1.0560 O   0  0  0  0  0  0  0  0  0  0  0  0
    6.6768   -1.6173    3.0418 O   0  0  0  0  0  0  0  0  0  0  0  0
   -0.7388    7.4175    2.0289 O   0  0  0  0  0  0  0  0  0  0  0  0
    9.3819    8.9305    3.8145 O   0  0  0  0  0  0  0  0  0  0  0  0
    3.7221   -2.9226   -2.0248 O   0  0  0  0  0  0  0  0  0  0  0  0
    7.7385   -2.1730    0.1009 O   0  0  0  0  0  0  0  0  0  0  0  0
    1.6523    7.3167    0.4590 O   0  0  0  0  0  0  0  0  0  0  0  0
   11.1073    6.6720    4.2121 O   0  0  0  0  0  0  0  0  0  0  0  0
    2.3220    5.0433   -0.8800 O   0  0  0  0  0  0  0  0  0  0  0  0
   10.6763    4.3832    2.8484 O   0  0  0  0  0  0  0  0  0  0  0  0
    1.7234   -1.5606    2.2794 O   0  0  0  0  0  0  0  0  0  0  0  0
    4.6730    1.7413    2.7658 O   0  0  0  0  0  0  0  0  0  0  0  0
    0.0788    0.2547   -1.4778 H   0  0  0  0  0  0  0  0  0  0  0  0
   -0.1901   -0.8722   -0.1277 H   0  0  0  0  0  0  0  0  0  0  0  0
    1.3997   -0.2961   -0.4740 H   0  0  0  0  0  0  0  0  0  0  0  0
    4.8712    4.8315    2.3267 H   0  0  0  0  0  0  0  0  0  0  0  0
    5.8195    3.5287    3.0980 H   0  0  0  0  0  0  0  0  0  0  0  0
    6.4195    5.0724    3.0514 H   0  0  0  0  0  0  0  0  0  0  0  0
    1.6935    0.1741   -4.3588 H   0  0  0  0  0  0  0  0  0  0  0  0
    3.3681    0.7973   -4.6691 H   0  0  0  0  0  0  0  0  0  0  0  0
    2.6966   -0.5072   -5.6697 H   0  0  0  0  0  0  0  0  0  0  0  0
    4.9960   -1.3240    1.8604 H   0  0  0  0  0  0  0  0  0  0  0  0
    3.6766   -2.3429    2.6256 H   0  0  0  0  0  0  0  0  0  0  0  0
    4.9667   -3.0983    2.1076 H   0  0  0  0  0  0  0  0  0  0  0  0
    9.9494    1.2896   -1.8638 H   0  0  0  0  0  0  0  0  0  0  0  0
   11.1003    0.3579   -0.8338 H   0  0  0  0  0  0  0  0  0  0  0  0
   10.7077   -0.1950   -2.4628 H   0  0  0  0  0  0  0  0  0  0  0  0
    6.2608   -0.8640    5.0229 H   0  0  0  0  0  0  0  0  0  0  0  0
    5.2514   -0.1564    3.8956 H   0  0  0  0  0  0  0  0  0  0  0  0
    4.9417   -1.8142    4.2853 H   0  0  0  0  0  0  0  0  0  0  0  0
    0.9288    8.6281    2.1964 H   0  0  0  0  0  0  0  0  0  0  0  0
   -0.0481    8.8506    0.6735 H   0  0  0  0  0  0  0  0  0  0  0  0
   -0.6142    9.4680    2.2179 H   0  0  0  0  0  0  0  0  0  0  0  0
   10.5244    8.4853    5.4834 H   0  0  0  0  0  0  0  0  0  0  0  0
   11.4618    8.9246    3.9819 H   0  0  0  0  0  0  0  0  0  0  0  0
   10.6184   10.1471    4.9198 H   0  0  0  0  0  0  0  0  0  0  0  0
    5.5624   -3.3026   -1.3567 H   0  0  0  0  0  0  0  0  0  0  0  0
    4.2212   -3.9867   -0.2746 H   0  0  0  0  0  0  0  0  0  0  0  0
    4.7633   -4.7608   -1.7147 H   0  0  0  0  0  0  0  0  0  0  0  0
    6.8174   -3.3142    1.5893 H   0  0  0  0  0  0  0  0  0  0  0  0
    5.8835   -2.5250    0.3108 H   0  0  0  0  0  0  0  0  0  0  0  0
    6.7798   -3.9982   -0.0126 H   0  0  0  0  0  0  0  0  0  0  0  0
    3.5830    6.6705    0.1784 H   0  0  0  0  0  0  0  0  0  0  0  0
    2.6453    7.0584   -1.3451 H   0  0  0  0  0  0  0  0  0  0  0  0
    3.2549    8.3275   -0.3296 H   0  0  0  0  0  0  0  0  0  0  0  0
   11.4286    4.7665    4.9574 H   0  0  0  0  0  0  0  0  0  0  0  0
   12.4598    5.2570    3.5218 H   0  0  0  0  0  0  0  0  0  0  0  0
   12.7774    5.8947    5.1078 H   0  0  0  0  0  0  0  0  0  0  0  0
    3.7607    3.6109   -1.2063 H   0  0  0  0  0  0  0  0  0  0  0  0
    2.3463    3.5373   -2.3193 H   0  0  0  0  0  0  0  0  0  0  0  0
    3.8087    4.6184   -2.3899 H   0  0  0  0  0  0  0  0  0  0  0  0
   10.3679    2.3772    3.0160 H   0  0  0  0  0  0  0  0  0  0  0  0
   10.5311    3.0831    1.3009 H   0  0  0  0  0  0  0  0  0  0  0  0
   11.8201    2.6248    2.4390 H   0  0  0  0  0  0  0  0  0  0  0  0
    0.0008   -0.3338    3.9201 H   0  0  0  0  0  0  0  0  0  0  0  0
   -1.4458   -0.3587    2.8781 H   0  0  0  0  0  0  0  0  0  0  0  0
    7.3656    1.6435    0.5359 H   0  0  0  0  0  0  0  0  0  0  0  0
    6.1941    0.7715   -0.0129 H   0  0  0  0  0  0  0  0  0  0  0  0
    2.5005    0.5472    0.7800 H   0  0  0  0  0  0  0  0  0  0  0  0
    1.3897    0.3413    1.4349 H   0  0  0  0  0  0  0  0  0  0  0  0
    1.8892    2.9104    2.1753 H   0  0  0  0  0  0  0  0  0  0  0  0
    2.4237    2.0301    3.5997 H   0  0  0  0  0  0  0  0  0  0  0  0
   -2.7518    3.0457    1.3125 H   0  0  0  0  0  0  0  0  0  0  0  0
   -1.6744    2.5220    2.4725 H   0  0  0  0  0  0  0  0  0  0  0  0
    6.3381    7.3891    0.3179 H   0  0  0  0  0  0  0  0  0  0  0  0
    5.5654    6.5667    1.6344 H   0  0  0  0  0  0  0  0  0  0  0  0
    0.9021    1.0455    2.9561 H   0  0  0  0  0  0  0  0  0  0  0  0
   -0.0704    2.0837    2.8307 H   0  0  0  0  0  0  0  0  0  0  0  0
    6.8073    3.0161   -0.8663 H   0  0  0  0  0  0  0  0  0  0  0  0
    5.1776    3.0003   -0.3312 H   0  0  0  0  0  0  0  0  0  0  0  0
   -1.6874    1.7319   -0.5479 H   0  0  0  0  0  0  0  0  0  0  0  0
   -1.9112    0.6373    0.8517 H   0  0  0  0  0  0  0  0  0  0  0  0
    7.0881    5.2497   -0.6771 H   0  0  0  0  0  0  0  0  0  0  0  0
    5.3491    5.1595   -0.3240 H   0  0  0  0  0  0  0  0  0  0  0  0
    0.0206   -2.4103    2.8599 H   0  0  0  0  0  0  0  0  0  0  0  0
   -0.0816   -1.8339    1.2912 H   0  0  0  0  0  0  0  0  0  0  0  0
    6.4770    1.8291    2.7574 H   0  0  0  0  0  0  0  0  0  0  0  0
    5.8626    0.3908    2.2206 H   0  0  0  0  0  0  0  0  0  0  0  0
    2.6507    3.2023   -0.0589 H   0  0  0  0  0  0  0  0  0  0  0  0
    2.8640    2.1064    0.4971 H   0  0  0  0  0  0  0  0  0  0  0  0
    8.9143    3.2254    3.3668 H   0  0  0  0  0  0  0  0  0  0  0  0
    7.5290    2.9051    3.3330 H   0  0  0  0  0  0  0  0  0  0  0  0
    2.4660    1.3683   -2.8509 H   0  0  0  0  0  0  0  0  0  0  0  0
    4.3419    0.5038    0.7835 H   0  0  0  0  0  0  0  0  0  0  0  0
    9.7153    1.7063    0.2845 H   0  0  0  0  0  0  0  0  0  0  0  0
    7.6484    0.5546    3.8899 H   0  0  0  0  0  0  0  0  0  0  0  0
   -1.9113    5.2571    2.3533 H   0  0  0  0  0  0  0  0  0  0  0  0
    7.4007    8.5278    2.3740 H   0  0  0  0  0  0  0  0  0  0  0  0
    0.4075    2.3953   -1.2365 H   0  0  0  0  0  0  0  0  0  0  0  0
    8.6262    3.7615    0.4914 H   0  0  0  0  0  0  0  0  0  0  0  0
  1 57  1  0  0  0  0
  1 75  1  0  0  0  0
  1 76  1  0  0  0  0
  1 77  1  0  0  0  0
  2 58  1  0  0  0  0
  2 78  1  0  0  0  0
  2 79  1  0  0  0  0
  2 80  1  0  0  0  0
  3 61  1  0  0  0  0
  3 81  1  0  0  0  0
  3 82  1  0  0  0  0
  3 83  1  0  0  0  0
  4 62  1  0  0  0  0
  4 84  1  0  0  0  0
  4 85  1  0  0  0  0
  4 86  1  0  0  0  0
  5 63  1  0  0  0  0
  5 87  1  0  0  0  0
  5 88  1  0  0  0  0
  5 89  1  0  0  0  0
  6 64  1  0  0  0  0
  6 90  1  0  0  0  0
  6 91  1  0  0  0  0
  6 92  1  0  0  0  0
  7 65  1  0  0  0  0
  7 93  1  0  0  0  0
  7 94  1  0  0  0  0
  7 95  1  0  0  0  0
  8 66  1  0  0  0  0
  8 96  1  0  0  0  0
  8 97  1  0  0  0  0
  8 98  1  0  0  0  0
  9 67  1  0  0  0  0
  9 99  1  0  0  0  0
  9100  1  0  0  0  0
  9101  1  0  0  0  0
 10 68  1  0  0  0  0
 10102  1  0  0  0  0
 10103  1  0  0  0  0
 10104  1  0  0  0  0
 11 69  1  0  0  0  0
 11105  1  0  0  0  0
 11106  1  0  0  0  0
 11107  1  0  0  0  0
 12 70  1  0  0  0  0
 12108  1  0  0  0  0
 12109  1  0  0  0  0
 12110  1  0  0  0  0
 13 71  1  0  0  0  0
 13111  1  0  0  0  0
 13112  1  0  0  0  0
 13113  1  0  0  0  0
 14 72  1  0  0  0  0
 14114  1  0  0  0  0
 14115  1  0  0  0  0
 14116  1  0  0  0  0
 15 21  1  0  0  0  0
 15 25  1  0  0  0  0
 15117  1  0  0  0  0
 15118  1  0  0  0  0
 16 22  1  0  0  0  0
 16 26  1  0  0  0  0
 16119  1  0  0  0  0
 16120  1  0  0  0  0
 17 18  1  0  0  0  0
 17 47  1  0  0  0  0
 17121  1  0  0  0  0
 17122  1  0  0  0  0
 18 48  1  0  0  0  0
 18123  1  0  0  0  0
 18124  1  0  0  0  0
 19 23  1  0  0  0  0
 19 37  1  0  0  0  0
 19125  1  0  0  0  0
 19126  1  0  0  0  0
 20 24  1  0  0  0  0
 20 38  1  0  0  0  0
 20127  1  0  0  0  0
 20128  1  0  0  0  0
 21 57  1  0  0  0  0
 21129  1  0  0  0  0
 21130  1  0  0  0  0
 22 58  1  0  0  0  0
 22131  1  0  0  0  0
 22132  1  0  0  0  0
 23 57  1  0  0  0  0
 23133  1  0  0  0  0
 23134  1  0  0  0  0
 24 58  1  0  0  0  0
 24135  1  0  0  0  0
 24136  1  0  0  0  0
 25 73  1  0  0  0  0
 25137  1  0  0  0  0
 25138  1  0  0  0  0
 26 74  1  0  0  0  0
 26139  1  0  0  0  0
 26140  1  0  0  0  0
 27 35  1  0  0  0  0
 27 39  1  0  0  0  0
 27141  1  0  0  0  0
 27142  1  0  0  0  0
 28 36  1  0  0  0  0
 28 40  1  0  0  0  0
 28143  1  0  0  0  0
 28144  1  0  0  0  0
 29 35  2  0  0  0  0
 29 41  1  0  0  0  0
 29145  1  0  0  0  0
 30 35  1  0  0  0  0
 30 42  2  0  0  0  0
 30146  1  0  0  0  0
 31 36  2  0  0  0  0
 31 43  1  0  0  0  0
 31147  1  0  0  0  0
 32 36  1  0  0  0  0
 32 44  2  0  0  0  0
 32148  1  0  0  0  0
 33 37  2  0  0  0  0
 33 45  1  0  0  0  0
 33149  1  0  0  0  0
 34 38  2  0  0  0  0
 34 46  1  0  0  0  0
 34150  1  0  0  0  0
 37 49  1  0  0  0  0
 38 50  1  0  0  0  0
 39 49  1  0  0  0  0
 39 57  1  0  0  0  0
 39151  1  0  0  0  0
 40 50  1  0  0  0  0
 40 58  1  0  0  0  0
 40152  1  0  0  0  0
 41 51  2  0  0  0  0
 41 61  1  0  0  0  0
 42 51  1  0  0  0  0
 42 62  1  0  0  0  0
 43 52  2  0  0  0  0
 43 63  1  0  0  0  0
 44 52  1  0  0  0  0
 44 64  1  0  0  0  0
 45 53  2  0  0  0  0
 45 65  1  0  0  0  0
 46 54  2  0  0  0  0
 46 66  1  0  0  0  0
 47 59  2  0  0  0  0
 47 73  1  0  0  0  0
 48 60  2  0  0  0  0
 48 74  1  0  0  0  0
 49 55  2  0  0  0  0
 50 56  2  0  0  0  0
 51 67  1  0  0  0  0
 52 68  1  0  0  0  0
 53 55  1  0  0  0  0
 53 69  1  0  0  0  0
 54 56  1  0  0  0  0
 54 70  1  0  0  0  0
 55 71  1  0  0  0  0
 56 72  1  0  0  0  0
M  CHG  2  57   1  58   1
M  END
>  <DRUGBANK_ID>
DB01135

>  <SECONDARY_ACCESSION_NUMBERS>
APRD00934; DB01334

>  <COMMON_NAME>
Doxacurium

>  <CAS_NUMBER>
106791-39-3

>  <UNII>
P40015Y3WW

$$$$
