
 OpenBabel10282417183D

  3  0  0  0  0  0  0  0  0  0999 V2000
    1.0643    0.0765    0.0025 Cl  0  5  0  0  0  0  0  0  0  0  0  0
    0.9279   -0.0237   -0.0651 Cl  0  5  0  0  0  0  0  0  0  0  0  0
    0.9241    0.0648    0.0066 Sr  0  2  0  0  0  0  0  0  0  0  0  0
M  ISO  1   3  89
M  CHG  3   1  -1   2  -1   3   2
M  END
>  <DRUGBANK_ID>
DB09498

>  <SECONDARY_ACCESSION_NUMBERS>
DB12546

>  <COMMON_NAME>
Strontium chloride Sr-89

>  <CAS_NUMBER>
38270-90-5

>  <UNII>
5R78837D4A

>  <SYNONYMS>
Strontium (89Sr) chloride; Strontium chloride Sr 89; strontium chloride, 89Sr-labeled; Strontium chloride, Sr-89; Strontium-89 chloride

$$$$
