
 OpenBabel10282417153D

186188  0  0  1  0  0  0  0  0999 V2000
    2.4976    5.4333   30.3193 C   0  0  0  0  0  0  0  0  0  0  0  0
    5.3796    2.8051   29.1725 C   0  0  1  0  0  0  0  0  0  0  0  0
    9.1607   -0.3935   27.9514 C   0  0  1  0  0  0  0  0  0  0  0  0
   12.5438   -2.5076   27.2822 C   0  0  0  0  0  0  0  0  0  0  0  0
   14.2531   -4.0610   26.7995 O   0  0  0  0  0  0  0  0  0  0  0  0
   15.7554   -4.2188   26.6860 N   0  0  0  0  0  0  0  0  0  0  0  0
   18.9041   -5.7352   26.4605 C   0  0  0  0  0  0  0  0  0  0  0  0
   21.6629   -6.1769   25.3787 C   0  0  0  0  0  0  0  0  0  0  0  0
   21.5657   -4.9896   24.5305 C   0  0  0  0  0  0  0  0  0  0  0  0
   20.2137   -5.2431   24.0572 C   0  0  0  0  0  0  0  0  0  0  0  0
   18.3289   -5.2760   25.5378 C   0  0  2  0  0  0  0  0  0  0  0  0
   17.9294   -5.8777   24.4421 C   0  0  0  0  0  0  0  0  0  0  0  0
   17.7438   -7.1086   24.5400 O   0  0  0  0  0  0  0  0  0  0  0  0
   16.7557   -5.1481   24.8320 N   0  0  0  0  0  0  0  0  0  0  0  0
   15.4785   -5.4113   24.2406 C   0  0  2  0  0  0  0  0  0  0  0  0
   14.9046   -4.1637   23.6197 C   0  0  0  0  0  0  0  0  0  0  0  0
   14.8035   -4.3583   22.3892 O   0  0  0  0  0  0  0  0  0  0  0  0
   13.6136   -3.4871   24.0742 N   0  0  0  0  0  0  0  0  0  0  0  0
   13.0698   -2.3960   23.5156 C   0  0  2  0  0  0  0  0  0  0  0  0
   12.9117   -1.3488   24.6101 C   0  0  0  0  0  0  0  0  0  0  0  0
   13.6536   -0.3766   24.3223 O   0  0  0  0  0  0  0  0  0  0  0  0
   11.5340   -0.8139   25.0375 N   0  0  0  0  0  0  0  0  0  0  0  0
   11.3844    0.2032   25.9296 C   0  0  0  0  0  0  0  0  0  0  0  0
   10.4968   -0.2506   26.9212 C   0  0  0  0  0  0  0  0  0  0  0  0
   11.0802   -0.3772   28.0805 O   0  0  0  0  0  0  0  0  0  0  0  0
    9.1557    0.6365   27.0595 N   0  0  0  0  0  0  0  0  0  0  0  0
    7.8495    0.0325   28.3831 C   0  0  2  0  0  0  0  0  0  0  0  0
    6.8607   -0.4184   27.6221 C   0  0  0  0  0  0  0  0  0  0  0  0
    6.6728   -1.6480   27.7340 O   0  0  0  0  0  0  0  0  0  0  0  0
    5.6576    0.3039   28.0486 N   0  0  0  0  0  0  0  0  0  0  0  0
    4.3803    0.0263   27.4544 C   0  0  0  0  0  0  0  0  0  0  0  0
    3.8134    1.2715   26.8672 C   0  0  0  0  0  0  0  0  0  0  0  0
    3.8527    0.8074   25.7336 O   0  0  0  0  0  0  0  0  0  0  0  0
    2.5316    1.8334   27.3119 N   0  0  0  0  0  0  0  0  0  0  0  0
    2.0038    3.0577   26.7137 C   0  0  1  0  0  0  0  0  0  0  0  0
    1.8098    4.1214   27.7890 C   0  0  0  0  0  0  0  0  0  0  0  0
    2.5732    5.0853   27.5122 O   0  0  0  0  0  0  0  0  0  0  0  0
    0.4684    4.6474   28.0691 N   0  0  0  0  0  0  0  0  0  0  0  0
    0.2654    5.5933   29.0306 C   0  0  2  0  0  0  0  0  0  0  0  0
   -0.5542    4.8304   30.0750 C   0  0  0  0  0  0  0  0  0  0  0  0
    0.0457    4.9528   31.2489 O   0  0  0  0  0  0  0  0  0  0  0  0
   -0.9228    5.7347   30.3146 N   0  0  0  0  0  0  0  0  0  0  0  0
   -2.7750    5.4149   31.5317 C   0  0  0  0  0  0  0  0  0  0  0  0
   -4.3975    6.1946   31.0038 C   0  0  0  0  0  0  0  0  0  0  0  0
   -3.9626    6.9367   29.6689 C   0  0  0  0  0  0  0  0  0  0  0  0
   -2.3683    7.0830   29.8159 C   0  0  1  0  0  0  0  0  0  0  0  0
    0.0268    6.7889   30.2752 C   0  0  0  0  0  0  0  0  0  0  0  0
   -0.9956    8.8696   30.3077 O   0  0  0  0  0  0  0  0  0  0  0  0
    2.4926    4.9216   29.7705 N   0  0  0  0  0  0  0  0  0  0  0  0
   -0.2887    6.7660   29.0772 C   0  0  0  0  0  0  0  0  0  0  0  0
   -0.8842    7.8279   28.7653 C   0  0  0  0  0  0  0  0  0  0  0  0
   -1.6495    6.5124   31.1655 C   0  0  0  0  0  0  0  0  0  0  0  0
    2.2035    2.6757   25.2654 C   0  0  1  0  0  0  0  0  0  0  0  0
    2.3741    3.7912   24.2763 C   0  0  0  0  0  0  0  0  0  0  0  0
    3.3168    2.0829   25.0193 N   0  0  0  0  0  0  0  0  0  0  0  0
    7.4054    0.5696   29.3840 C   0  0  0  0  0  0  0  0  0  0  0  0
    6.6376   -0.5158   30.1515 C   0  0  0  0  0  0  0  0  0  0  0  0
    6.8263   -0.6436   31.3719 O   0  0  0  0  0  0  0  0  0  0  0  0
    5.7107   -1.3430   29.4813 O   0  0  0  0  0  0  0  0  0  0  0  0
   11.8908   -1.5741   23.0625 C   0  0  0  0  0  0  0  0  0  0  0  0
   10.6809   -2.4612   22.8746 C   0  0  0  0  0  0  0  0  0  0  0  0
    9.6398   -2.2829   23.5488 O   0  0  0  0  0  0  0  0  0  0  0  0
   10.7629   -3.4886   21.9196 O   0  0  0  0  0  0  0  0  0  0  0  0
   14.0146   -5.1799   24.2728 C   0  0  2  0  0  0  0  0  0  0  0  0
   13.5031   -6.2248   26.5089 C   0  0  0  0  0  0  0  0  0  0  0  0
   13.2140   -6.6098   23.7167 C   0  0  0  0  0  0  0  0  0  0  0  0
   12.6724   -7.5966   24.3378 O   0  0  0  0  0  0  0  0  0  0  0  0
   13.4555   -6.6082   22.3572 O   0  0  0  0  0  0  0  0  0  0  0  0
   11.4299   -3.0865   26.6783 N   0  0  0  0  0  0  0  0  0  0  0  0
   13.3421   -5.6181   25.2762 C   0  0  0  0  0  0  0  0  0  0  0  0
   14.2090   -7.3860   23.9739 O   0  0  0  0  0  0  0  0  0  0  0  0
   15.4059   -7.6247   23.5717 C   0  0  2  0  0  0  0  0  0  0  0  0
   15.5183   -8.9433   21.3982 C   0  0  0  0  0  0  0  0  0  0  0  0
   15.0586  -10.4270   21.4694 C   0  0  0  0  0  0  0  0  0  0  0  0
   13.8339  -10.6845   21.5384 O   0  0  0  0  0  0  0  0  0  0  0  0
   16.0460  -11.4992   21.5086 N   0  0  0  0  0  0  0  0  0  0  0  0
   17.0725   -9.6681   22.9843 N   0  0  0  0  0  0  0  0  0  0  0  0
   18.6346   -9.8026   22.9206 C   0  0  0  0  0  0  0  0  0  0  0  0
   19.2837  -10.8179   23.2794 O   0  0  0  0  0  0  0  0  0  0  0  0
   19.3775   -8.5563   22.4484 C   0  0  0  0  0  0  0  0  0  0  0  0
   18.9894   -8.2282   21.0203 C   0  0  0  0  0  0  0  0  0  0  0  0
   18.4104   -7.0419   20.7264 C   0  0  0  0  0  0  0  0  0  0  0  0
   18.1514   -6.0229   21.8171 C   0  0  0  0  0  0  0  0  0  0  0  0
   18.8957   -4.7414   21.5141 C   0  0  0  0  0  0  0  0  0  0  0  0
   18.4146   -4.1778   20.1942 C   0  0  0  0  0  0  0  0  0  0  0  0
   16.9285   -3.8862   20.2771 C   0  0  0  0  0  0  0  0  0  0  0  0
   16.6716   -2.8723   21.3758 C   0  0  0  0  0  0  0  0  0  0  0  0
   17.4165   -1.5891   21.0695 C   0  0  0  0  0  0  0  0  0  0  0  0
   16.9350   -1.0252   19.7467 C   0  0  0  0  0  0  0  0  0  0  0  0
   15.4474   -0.7323   19.8254 C   0  0  0  0  0  0  0  0  0  0  0  0
   15.1879    0.2757   20.9279 C   0  0  0  0  0  0  0  0  0  0  0  0
   14.9655   -0.1752   18.5026 C   0  0  0  0  0  0  0  0  0  0  0  0
    0.5760    7.4099   31.1823 H   0  0  0  0  0  0  0  0  0  0  0  0
    0.3856    7.1823   31.2564 H   0  0  0  0  0  0  0  0  0  0  0  0
    0.4465    7.3727   31.0530 H   0  0  0  0  0  0  0  0  0  0  0  0
    3.7791    4.5087   29.7733 H   0  0  0  0  0  0  0  0  0  0  0  0
   10.6769   -1.9044   27.4270 H   0  0  0  0  0  0  0  0  0  0  0  0
   21.2624   -6.8246   26.8311 H   0  0  0  0  0  0  0  0  0  0  0  0
   20.5433   -6.2161   27.1567 H   0  0  0  0  0  0  0  0  0  0  0  0
   22.9964   -6.8021   24.9861 H   0  0  0  0  0  0  0  0  0  0  0  0
   22.9846   -6.6954   24.7896 H   0  0  0  0  0  0  0  0  0  0  0  0
   22.5402   -4.6264   24.2684 H   0  0  0  0  0  0  0  0  0  0  0  0
   21.0898   -4.0464   24.7123 H   0  0  0  0  0  0  0  0  0  0  0  0
   20.6170   -5.5548   23.0944 H   0  0  0  0  0  0  0  0  0  0  0  0
   19.3388   -4.7203   23.7989 H   0  0  0  0  0  0  0  0  0  0  0  0
   19.2381   -4.7249   25.7684 H   0  0  0  0  0  0  0  0  0  0  0  0
   16.8169   -4.4847   25.6334 H   0  0  0  0  0  0  0  0  0  0  0  0
   15.6382   -6.4272   24.0135 H   0  0  0  0  0  0  0  0  0  0  0  0
   13.0007   -3.9910   24.8895 H   0  0  0  0  0  0  0  0  0  0  0  0
   13.3938   -2.6394   22.5219 H   0  0  0  0  0  0  0  0  0  0  0  0
   10.7213   -1.1211   24.3706 H   0  0  0  0  0  0  0  0  0  0  0  0
   12.3450    0.6097   25.7120 H   0  0  0  0  0  0  0  0  0  0  0  0
   10.8739    1.0899   26.2623 H   0  0  0  0  0  0  0  0  0  0  0  0
    8.9376    1.2887   26.7305 H   0  0  0  0  0  0  0  0  0  0  0  0
    8.8509   -0.6813   29.1004 H   0  0  0  0  0  0  0  0  0  0  0  0
    5.6725    0.9612   28.8259 H   0  0  0  0  0  0  0  0  0  0  0  0
    4.4185   -1.0257   27.2138 H   0  0  0  0  0  0  0  0  0  0  0  0
    3.3634   -0.0851   27.7823 H   0  0  0  0  0  0  0  0  0  0  0  0
    2.0046    1.3380   28.0187 H   0  0  0  0  0  0  0  0  0  0  0  0
    1.2848    3.8112   26.4081 H   0  0  0  0  0  0  0  0  0  0  0  0
   -0.3245    4.3467   27.5319 H   0  0  0  0  0  0  0  0  0  0  0  0
    1.2086    6.0534   28.7049 H   0  0  0  0  0  0  0  0  0  0  0  0
   -2.8468    4.5226   31.9181 H   0  0  0  0  0  0  0  0  0  0  0  0
   -3.0726    5.8890   32.4705 H   0  0  0  0  0  0  0  0  0  0  0  0
   -5.1636    5.5103   31.0685 H   0  0  0  0  0  0  0  0  0  0  0  0
   -4.7198    6.9612   31.5857 H   0  0  0  0  0  0  0  0  0  0  0  0
   -4.3976    6.7008   28.7257 H   0  0  0  0  0  0  0  0  0  0  0  0
   -4.5142    7.8363   29.6272 H   0  0  0  0  0  0  0  0  0  0  0  0
   -2.1831    7.4320   29.1000 H   0  0  0  0  0  0  0  0  0  0  0  0
    0.4642    6.3457   30.2363 H   0  0  0  0  0  0  0  0  0  0  0  0
    0.7505    7.6063   30.0463 H   0  0  0  0  0  0  0  0  0  0  0  0
   -1.6841    7.1809   28.1332 H   0  0  0  0  0  0  0  0  0  0  0  0
   -1.4314    8.5571   29.1974 H   0  0  0  0  0  0  0  0  0  0  0  0
   -0.2941    8.1241   28.1284 H   0  0  0  0  0  0  0  0  0  0  0  0
   -0.8602    5.8225   31.7516 H   0  0  0  0  0  0  0  0  0  0  0  0
   -1.6842    7.2427   31.5531 H   0  0  0  0  0  0  0  0  0  0  0  0
   -3.1500    5.9068   30.4152 H   0  0  0  0  0  0  0  0  0  0  0  0
    1.3562    2.0731   25.0178 H   0  0  0  0  0  0  0  0  0  0  0  0
    3.2461    4.3710   24.5200 H   0  0  0  0  0  0  0  0  0  0  0  0
    2.4828    3.3925   23.2825 H   0  0  0  0  0  0  0  0  0  0  0  0
    1.5072    4.4194   24.3129 H   0  0  0  0  0  0  0  0  0  0  0  0
    3.5167    1.4129   24.2716 H   0  0  0  0  0  0  0  0  0  0  0  0
    4.2408    2.3458   25.4386 H   0  0  0  0  0  0  0  0  0  0  0  0
    8.0521    1.0901   30.0306 H   0  0  0  0  0  0  0  0  0  0  0  0
    6.7771    1.2730   28.9313 H   0  0  0  0  0  0  0  0  0  0  0  0
    5.2139   -2.0416   29.9664 H   0  0  0  0  0  0  0  0  0  0  0  0
   11.6796   -0.7976   23.6725 H   0  0  0  0  0  0  0  0  0  0  0  0
   12.1249   -1.0343   22.1779 H   0  0  0  0  0  0  0  0  0  0  0  0
    9.9750   -4.0901   21.7745 H   0  0  0  0  0  0  0  0  0  0  0  0
   13.4623   -4.7686   24.4134 H   0  0  0  0  0  0  0  0  0  0  0  0
   14.0943   -5.4009   26.9433 H   0  0  0  0  0  0  0  0  0  0  0  0
   12.7162   -6.1466   26.3458 H   0  0  0  0  0  0  0  0  0  0  0  0
   14.3291   -6.9435   26.3635 H   0  0  0  0  0  0  0  0  0  0  0  0
   13.0453   -7.3343   21.8144 H   0  0  0  0  0  0  0  0  0  0  0  0
   13.1918   -4.6511   26.1820 H   0  0  0  0  0  0  0  0  0  0  0  0
   17.0410   -7.8356   22.2738 H   0  0  0  0  0  0  0  0  0  0  0  0
   14.6730   -8.3300   21.3133 H   0  0  0  0  0  0  0  0  0  0  0  0
   16.0831   -8.8586   20.4260 H   0  0  0  0  0  0  0  0  0  0  0  0
   17.0478  -11.2940   21.4530 H   0  0  0  0  0  0  0  0  0  0  0  0
   15.7433  -12.4723   21.6000 H   0  0  0  0  0  0  0  0  0  0  0  0
   16.6735  -10.6401   23.2509 H   0  0  0  0  0  0  0  0  0  0  0  0
   19.1315   -7.7368   23.0892 H   0  0  0  0  0  0  0  0  0  0  0  0
   20.4385   -8.7270   22.5034 H   0  0  0  0  0  0  0  0  0  0  0  0
   19.1705   -8.9472   20.2421 H   0  0  0  0  0  0  0  0  0  0  0  0
   18.1287   -6.8142   19.7139 H   0  0  0  0  0  0  0  0  0  0  0  0
   17.0973   -5.8222   21.8876 H   0  0  0  0  0  0  0  0  0  0  0  0
   18.4868   -6.4147   22.7515 H   0  0  0  0  0  0  0  0  0  0  0  0
   18.7177   -4.0239   22.2961 H   0  0  0  0  0  0  0  0  0  0  0  0
   19.9495   -4.9429   21.4587 H   0  0  0  0  0  0  0  0  0  0  0  0
   18.9470   -3.2718   19.9732 H   0  0  0  0  0  0  0  0  0  0  0  0
   18.5988   -4.8905   19.4123 H   0  0  0  0  0  0  0  0  0  0  0  0
   16.5853   -3.4935   19.3386 H   0  0  0  0  0  0  0  0  0  0  0  0
   16.3954   -4.7937   20.4906 H   0  0  0  0  0  0  0  0  0  0  0  0
   15.6185   -2.6693   21.4388 H   0  0  0  0  0  0  0  0  0  0  0  0
   17.0069   -3.2689   22.3164 H   0  0  0  0  0  0  0  0  0  0  0  0
   17.2392   -0.8738   21.8505 H   0  0  0  0  0  0  0  0  0  0  0  0
   18.4699   -1.7900   21.0137 H   0  0  0  0  0  0  0  0  0  0  0  0
   17.4667   -0.1184   19.5260 H   0  0  0  0  0  0  0  0  0  0  0  0
   17.1196   -1.7386   18.9637 H   0  0  0  0  0  0  0  0  0  0  0  0
   14.9156   -1.6423   20.0427 H   0  0  0  0  0  0  0  0  0  0  0  0
   15.7178    1.1857   20.7139 H   0  0  0  0  0  0  0  0  0  0  0  0
   14.1371    0.4825   20.9899 H   0  0  0  0  0  0  0  0  0  0  0  0
   15.5265   -0.1176   21.8680 H   0  0  0  0  0  0  0  0  0  0  0  0
   15.1464   -0.8887   17.7206 H   0  0  0  0  0  0  0  0  0  0  0  0
   13.9130    0.0311   18.5580 H   0  0  0  0  0  0  0  0  0  0  0  0
   15.4936    0.7342   18.2816 H   0  0  0  0  0  0  0  0  0  0  0  0
  1 93  1  0  0  0  0
  1 94  1  0  0  0  0
  1 95  1  0  0  0  0
  2  3  1  0  0  0  0
  2 49  1  0  0  0  0
  2 96  1  6  0  0  0
  2  1  1  0  0  0  0
  3  4  1  0  0  0  0
  3 97  1  6  0  0  0
  3 69  1  0  0  0  0
  4  6  1  0  0  0  0
  4  5  2  0  0  0  0
  6  7  1  0  0  0  0
  7  8  1  0  0  0  0
  7 98  1  0  0  0  0
  7 99  1  0  0  0  0
  8  9  1  0  0  0  0
  8100  1  0  0  0  0
  8101  1  0  0  0  0
  9 10  1  0  0  0  0
  9102  1  0  0  0  0
  9103  1  0  0  0  0
 10 11  1  0  0  0  0
 10104  1  0  0  0  0
 10105  1  0  0  0  0
 11  6  1  0  0  0  0
 11 12  1  0  0  0  0
 11106  1  1  0  0  0
 12 14  1  0  0  0  0
 12 13  2  0  0  0  0
 14 15  1  0  0  0  0
 14107  1  0  0  0  0
 15 16  1  0  0  0  0
 15108  1  6  0  0  0
 15 64  1  0  0  0  0
 16 18  1  0  0  0  0
 16 17  2  0  0  0  0
 18 19  1  0  0  0  0
 18109  1  0  0  0  0
 19 20  1  0  0  0  0
 19110  1  6  0  0  0
 19 60  1  0  0  0  0
 20 22  1  0  0  0  0
 20 21  2  0  0  0  0
 22 23  1  0  0  0  0
 22111  1  0  0  0  0
 23 24  1  0  0  0  0
 23112  1  0  0  0  0
 23113  1  0  0  0  0
 24 26  1  0  0  0  0
 24 25  2  0  0  0  0
 26 27  1  0  0  0  0
 26114  1  0  0  0  0
 27 28  1  0  0  0  0
 27115  1  1  0  0  0
 27 56  1  0  0  0  0
 28 30  1  0  0  0  0
 28 29  2  0  0  0  0
 30 31  1  0  0  0  0
 30116  1  0  0  0  0
 31 32  1  0  0  0  0
 31117  1  0  0  0  0
 31118  1  0  0  0  0
 32 34  1  0  0  0  0
 32 33  2  0  0  0  0
 34 35  1  0  0  0  0
 34119  1  0  0  0  0
 35 36  1  0  0  0  0
 35 53  1  0  0  0  0
 35120  1  1  0  0  0
 36 38  1  0  0  0  0
 36 37  2  0  0  0  0
 38 39  1  0  0  0  0
 38121  1  0  0  0  0
 39 40  1  0  0  0  0
 39122  1  1  0  0  0
 39 50  1  0  0  0  0
 40 42  1  0  0  0  0
 40 41  2  0  0  0  0
 42 43  1  0  0  0  0
 43 44  1  0  0  0  0
 43123  1  0  0  0  0
 43124  1  0  0  0  0
 44 45  1  0  0  0  0
 44125  1  0  0  0  0
 44126  1  0  0  0  0
 45 46  1  0  0  0  0
 45127  1  0  0  0  0
 45128  1  0  0  0  0
 46 42  1  0  0  0  0
 46 47  1  0  0  0  0
 46129  1  6  0  0  0
 47 49  1  0  0  0  0
 47 48  2  0  0  0  0
 49130  1  0  0  0  0
 50 51  1  0  0  0  0
 50 52  1  0  0  0  0
 50131  1  0  0  0  0
 51132  1  0  0  0  0
 51133  1  0  0  0  0
 51134  1  0  0  0  0
 52135  1  0  0  0  0
 52136  1  0  0  0  0
 52137  1  0  0  0  0
 53 54  1  0  0  0  0
 53 55  1  0  0  0  0
 53138  1  6  0  0  0
 54139  1  0  0  0  0
 54140  1  0  0  0  0
 54141  1  0  0  0  0
 55142  1  0  0  0  0
 55143  1  0  0  0  0
 56 57  1  0  0  0  0
 56144  1  0  0  0  0
 56145  1  0  0  0  0
 57 58  2  0  0  0  0
 57 59  1  0  0  0  0
 59146  1  0  0  0  0
 60 61  1  0  0  0  0
 60147  1  0  0  0  0
 60148  1  0  0  0  0
 61 62  2  0  0  0  0
 61 63  1  0  0  0  0
 63149  1  0  0  0  0
 64150  1  6  0  0  0
 64 66  1  0  0  0  0
 64 65  1  0  0  0  0
 65151  1  0  0  0  0
 65152  1  0  0  0  0
 65153  1  0  0  0  0
 66 67  2  0  0  0  0
 66 68  1  0  0  0  0
 68154  1  0  0  0  0
 69 70  1  0  0  0  0
 69155  1  0  0  0  0
 70 71  2  0  0  0  0
 72 77  1  0  0  0  0
 72156  1  6  0  0  0
 72 73  1  0  0  0  0
 72 70  1  0  0  0  0
 73 74  1  0  0  0  0
 73157  1  0  0  0  0
 73158  1  0  0  0  0
 74 75  2  0  0  0  0
 74 76  1  0  0  0  0
 76159  1  0  0  0  0
 76160  1  0  0  0  0
 77 78  1  0  0  0  0
 77161  1  0  0  0  0
 78 79  2  0  0  0  0
 78 80  1  0  0  0  0
 80 81  1  0  0  0  0
 80162  1  0  0  0  0
 80163  1  0  0  0  0
 81 82  2  0  0  0  0
 81164  1  0  0  0  0
 82 83  1  0  0  0  0
 82165  1  0  0  0  0
 83 84  1  0  0  0  0
 83166  1  0  0  0  0
 83167  1  0  0  0  0
 84 85  1  0  0  0  0
 84168  1  0  0  0  0
 84169  1  0  0  0  0
 85 86  1  0  0  0  0
 85170  1  0  0  0  0
 85171  1  0  0  0  0
 86 87  1  0  0  0  0
 86172  1  0  0  0  0
 86173  1  0  0  0  0
 87 88  1  0  0  0  0
 87174  1  0  0  0  0
 87175  1  0  0  0  0
 88 89  1  0  0  0  0
 88176  1  0  0  0  0
 88177  1  0  0  0  0
 89 90  1  0  0  0  0
 89178  1  0  0  0  0
 89179  1  0  0  0  0
 90 91  1  0  0  0  0
 90 92  1  0  0  0  0
 90180  1  0  0  0  0
 91181  1  0  0  0  0
 91182  1  0  0  0  0
 91183  1  0  0  0  0
 92184  1  0  0  0  0
 92185  1  0  0  0  0
 92186  1  0  0  0  0
M  END
>  <DRUGBANK_ID>
DB06087

>  <COMMON_NAME>
Friulimicin B

>  <CAS_NUMBER>
239802-15-4

>  <UNII>
AYO43961I1

>  <SYNONYMS>
Friulimycin B

$$$$
