644073
 OpenBabel10282417113D

 75 81  0  0  1  0  0  0  0  0999 V2000
    0.7413   -0.8540   -1.1195 O   0  0  0  0  0  0  0  0  0  0  0  0
    1.5010   -4.9014   -2.9766 O   0  0  0  0  0  0  0  0  0  0  0  0
    3.2909   -6.7950   -0.7568 O   0  0  0  0  0  0  0  0  0  0  0  0
    1.9061    2.2472   -0.3164 O   0  0  0  0  0  0  0  0  0  0  0  0
    4.0118   -2.7074    1.8457 N   0  0  0  0  0  0  0  0  0  0  0  0
    2.8940   -3.5345   -0.2268 C   0  0  2  0  0  0  0  0  0  0  0  0
    2.0350   -2.3850    0.0497 C   0  0  1  0  0  0  0  0  0  0  0  0
    0.9979   -4.0042   -1.9618 C   0  0  1  0  0  0  0  0  0  0  0  0
    0.8259   -2.4759   -0.8540 C   0  0  2  0  0  0  0  0  0  0  0  0
    1.2497   -5.3040   -0.6897 C   0  0  2  0  0  0  0  0  0  0  0  0
    2.1731   -4.7327    0.3707 C   0  0  0  0  0  0  0  0  0  0  0  0
    4.1413   -3.1708    0.4491 C   0  0  1  0  0  0  0  0  0  0  0  0
    3.3003   -3.6990   -1.7045 C   0  0  0  0  0  0  0  0  0  0  0  0
    2.1772   -3.2102   -2.5171 C   0  0  0  0  0  0  0  0  0  0  0  0
    1.6317   -2.3139    1.6006 C   0  0  0  0  0  0  0  0  0  0  0  0
    2.7980   -1.1608   -0.4851 C   0  0  0  0  0  0  0  0  0  0  0  0
    5.0605   -2.1821   -0.5439 C   0  0  0  0  0  0  0  0  0  0  0  0
    1.8299   -6.8807   -0.7595 C   0  0  1  0  0  0  0  0  0  0  0  0
    2.7728   -2.7576    2.5394 C   0  0  0  0  0  0  0  0  0  0  0  0
    4.2179   -1.0069   -0.6792 C   0  0  0  0  0  0  0  0  0  0  0  0
    1.9660   -0.2134   -0.7380 C   0  0  0  0  0  0  0  0  0  0  0  0
    5.0230   -1.7659    2.1073 C   0  0  0  0  0  0  0  0  0  0  0  0
    1.4882   -7.9159   -1.9070 C   0  0  0  0  0  0  0  0  0  0  0  0
    6.3035   -2.6738    1.7120 C   0  0  0  0  0  0  0  0  0  0  0  0
    1.4160   -7.6359    0.5672 C   0  0  0  0  0  0  0  0  0  0  0  0
    4.8546    0.2317   -0.6460 C   0  0  0  0  0  0  0  0  0  0  0  0
    2.5730    1.0811   -0.5387 C   0  0  0  0  0  0  0  0  0  0  0  0
    6.5713   -3.8756    0.5493 C   0  0  0  0  0  0  0  0  0  0  0  0
    6.2530   -4.2016    1.9650 C   0  0  0  0  0  0  0  0  0  0  0  0
    1.4053   -4.8683   -4.4114 C   0  0  0  0  0  0  0  0  0  0  0  0
    4.0258    1.2578   -0.4242 C   0  0  0  0  0  0  0  0  0  0  0  0
    0.1340   -8.6216   -1.7839 C   0  0  0  0  0  0  0  0  0  0  0  0
    1.3178   -7.2726   -3.2220 C   0  0  0  0  0  0  0  0  0  0  0  0
    2.7040   -8.8404   -2.1856 C   0  0  0  0  0  0  0  0  0  0  0  0
    3.6662   -6.7864    0.1400 H   0  0  0  0  0  0  0  0  0  0  0  0
    2.5973    2.9355   -0.2116 H   0  0  0  0  0  0  0  0  0  0  0  0
   -0.1167   -2.6979   -0.3320 H   0  0  0  0  0  0  0  0  0  0  0  0
    0.2458   -5.4014   -0.2479 H   0  0  0  0  0  0  0  0  0  0  0  0
    2.9004   -5.3894    0.8533 H   0  0  0  0  0  0  0  0  0  0  0  0
    1.5473   -4.6023    1.2519 H   0  0  0  0  0  0  0  0  0  0  0  0
    4.4624   -4.1866    0.5338 H   0  0  0  0  0  0  0  0  0  0  0  0
    3.7233   -4.6868   -1.9114 H   0  0  0  0  0  0  0  0  0  0  0  0
    4.0196   -3.0532   -2.1697 H   0  0  0  0  0  0  0  0  0  0  0  0
    2.5563   -3.2544   -3.5358 H   0  0  0  0  0  0  0  0  0  0  0  0
    1.9537   -2.1494   -2.5961 H   0  0  0  0  0  0  0  0  0  0  0  0
    1.2645   -1.3256    1.8782 H   0  0  0  0  0  0  0  0  0  0  0  0
    0.7835   -2.9847    1.8242 H   0  0  0  0  0  0  0  0  0  0  0  0
    6.0348   -1.8186   -0.2012 H   0  0  0  0  0  0  0  0  0  0  0  0
    5.4395   -2.5733   -1.5032 H   0  0  0  0  0  0  0  0  0  0  0  0
    2.7431   -2.2359    3.5054 H   0  0  0  0  0  0  0  0  0  0  0  0
    2.6864   -3.8139    2.8414 H   0  0  0  0  0  0  0  0  0  0  0  0
    4.4409   -1.0757    1.4760 H   0  0  0  0  0  0  0  0  0  0  0  0
    5.3286   -0.7377    2.4236 H   0  0  0  0  0  0  0  0  0  0  0  0
    7.1680   -2.0292    1.7352 H   0  0  0  0  0  0  0  0  0  0  0  0
    1.7248   -7.1474    1.4954 H   0  0  0  0  0  0  0  0  0  0  0  0
    0.3276   -7.7605    0.6227 H   0  0  0  0  0  0  0  0  0  0  0  0
    1.8666   -8.6385    0.6030 H   0  0  0  0  0  0  0  0  0  0  0  0
    5.9498    0.2929   -0.5410 H   0  0  0  0  0  0  0  0  0  0  0  0
    5.9459   -4.3270   -0.2493 H   0  0  0  0  0  0  0  0  0  0  0  0
    7.5012   -3.8188    0.0026 H   0  0  0  0  0  0  0  0  0  0  0  0
    6.9684   -4.8267    2.4488 H   0  0  0  0  0  0  0  0  0  0  0  0
    5.2662   -4.6350    2.2019 H   0  0  0  0  0  0  0  0  0  0  0  0
    0.3712   -4.7404   -4.6765 H   0  0  0  0  0  0  0  0  0  0  0  0
    2.1447   -4.2430   -4.9126 H   0  0  0  0  0  0  0  0  0  0  0  0
    1.7305   -5.8248   -4.8568 H   0  0  0  0  0  0  0  0  0  0  0  0
    4.5216    2.1989   -0.1428 H   0  0  0  0  0  0  0  0  0  0  0  0
   -0.6589   -7.8781   -1.6106 H   0  0  0  0  0  0  0  0  0  0  0  0
   -0.1185   -9.1180   -2.7306 H   0  0  0  0  0  0  0  0  0  0  0  0
    0.1065   -9.3770   -1.0043 H   0  0  0  0  0  0  0  0  0  0  0  0
    2.3019   -6.8408   -3.4287 H   0  0  0  0  0  0  0  0  0  0  0  0
    1.0788   -7.9169   -4.0692 H   0  0  0  0  0  0  0  0  0  0  0  0
    0.4461   -6.6150   -3.1303 H   0  0  0  0  0  0  0  0  0  0  0  0
    3.6261   -8.2491   -2.3307 H   0  0  0  0  0  0  0  0  0  0  0  0
    2.8884   -9.5475   -1.3818 H   0  0  0  0  0  0  0  0  0  0  0  0
    2.5933   -9.3607   -3.1417 H   0  0  0  0  0  0  0  0  0  0  0  0
  1 21  1  0  0  0  0
  2 30  1  0  0  0  0
  3 35  1  0  0  0  0
  4 27  1  0  0  0  0
  4 36  1  0  0  0  0
  5 19  1  0  0  0  0
  5 22  1  0  0  0  0
  6  7  1  0  0  0  0
  6 11  1  1  0  0  0
  6 12  1  0  0  0  0
  6 13  1  0  0  0  0
  7  9  1  0  0  0  0
  7 15  1  0  0  0  0
  7 16  1  6  0  0  0
  8  2  1  6  0  0  0
  8  9  1  0  0  0  0
  8 10  1  0  0  0  0
  8 14  1  0  0  0  0
  9  1  1  0  0  0  0
  9 37  1  1  0  0  0
 10 11  1  0  0  0  0
 10 38  1  1  0  0  0
 10 18  1  0  0  0  0
 11 39  1  0  0  0  0
 11 40  1  0  0  0  0
 12  5  1  0  0  0  0
 12 17  1  0  0  0  0
 12 41  1  1  0  0  0
 13 14  1  0  0  0  0
 13 42  1  0  0  0  0
 13 43  1  0  0  0  0
 14 44  1  0  0  0  0
 14 45  1  0  0  0  0
 15 19  1  0  0  0  0
 15 46  1  0  0  0  0
 15 47  1  0  0  0  0
 16 20  2  0  0  0  0
 16 21  1  0  0  0  0
 17 20  1  0  0  0  0
 17 48  1  0  0  0  0
 17 49  1  0  0  0  0
 18 25  1  0  0  0  0
 18 23  1  0  0  0  0
 18  3  1  1  0  0  0
 19 50  1  0  0  0  0
 19 51  1  0  0  0  0
 20 26  1  0  0  0  0
 21 27  2  0  0  0  0
 22 24  1  0  0  0  0
 22 52  1  0  0  0  0
 22 53  1  0  0  0  0
 23 32  1  0  0  0  0
 23 33  1  0  0  0  0
 23 34  1  0  0  0  0
 24 28  1  0  0  0  0
 24 29  1  0  0  0  0
 24 54  1  0  0  0  0
 25 55  1  0  0  0  0
 25 56  1  0  0  0  0
 25 57  1  0  0  0  0
 26 31  2  0  0  0  0
 26 58  1  0  0  0  0
 27 31  1  0  0  0  0
 28 29  1  0  0  0  0
 28 59  1  0  0  0  0
 28 60  1  0  0  0  0
 29 61  1  0  0  0  0
 29 62  1  0  0  0  0
 30 63  1  0  0  0  0
 30 64  1  0  0  0  0
 30 65  1  0  0  0  0
 31 66  1  0  0  0  0
 32 67  1  0  0  0  0
 32 68  1  0  0  0  0
 32 69  1  0  0  0  0
 33 70  1  0  0  0  0
 33 71  1  0  0  0  0
 33 72  1  0  0  0  0
 34 73  1  0  0  0  0
 34 74  1  0  0  0  0
 34 75  1  0  0  0  0
M  END
>  <DRUGBANK_ID>
DB00921

>  <SECONDARY_ACCESSION_NUMBERS>
APRD00670

>  <COMMON_NAME>
Buprenorphine

>  <CAS_NUMBER>
52485-79-7

>  <UNII>
40D3SCR4GZ

>  <SYNONYMS>
(−)-buprenorphine; 17-cyclopropylmethyl-4,5α-epoxy-7α-((S)-1-hydroxy-1,2,2-trimethylpropyl)-6-methoxy-6,14-endo-ethanomorphinan-3-ol; 2-(N-cyclopropylmethyl-4,5α-epoxy-3-hydroxy-6-methoxy-6,14-endo-ethanomorphinan-6α-yl)-3,3-dimethyl-2-butanol; 2-[3-cyclopropylmethyl-11-hydroxy-15-methoxy-(14R)-13-oxa-3-azahexacyclo[13.2.2.12,8.01,6.06,14.07,12]icosa-7,9,11-trien-16-yl]-3,3-dimethyl-2-butanol; 21-cyclopropyl-7α-[(S)-1-hydroxy-1,2,2-trimethylpropyl]-6,14-endo-ethano-6,7,8,14-tetrahydrooripavine; Buprenophine; Buprenorfina; Buprenorphine; Buprenorphinum

$$$$
