
 OpenBabel10282417243D

 53 55  0  0  0  0  0  0  0  0999 V2000
    0.6919   -0.5813    0.5055 O   0  0  0  0  0  0  0  0  0  0  0  0
    0.5634   -1.4930   -0.5846 C   0  0  0  0  0  0  0  0  0  0  0  0
    1.4271   -1.1905   -1.7921 C   0  0  0  0  0  0  0  0  0  0  0  0
    2.7834   -0.8032   -1.8198 O   0  0  0  0  0  0  0  0  0  0  0  0
    3.0995    0.3973   -1.0552 C   0  0  0  0  0  0  0  0  0  0  0  0
    2.1440    1.7297   -0.9355 C   0  0  0  0  0  0  0  0  0  0  0  0
    0.7253    1.6244   -1.0893 O   0  0  0  0  0  0  0  0  0  0  0  0
    0.3457    1.3242   -2.4466 C   0  0  0  0  0  0  0  0  0  0  0  0
    1.5439    1.0964   -3.4546 C   0  0  0  0  0  0  0  0  0  0  0  0
    2.9381    1.3308   -3.7156 O   0  0  0  0  0  0  0  0  0  0  0  0
    3.4744    2.6134   -3.3900 C   0  0  0  0  0  0  0  0  0  0  0  0
    2.5751    3.9714   -3.5430 C   0  0  0  0  0  0  0  0  0  0  0  0
    1.0826    4.1065   -3.7835 O   0  0  0  0  0  0  0  0  0  0  0  0
    0.3935    3.5554   -4.8777 C   0  0  0  0  0  0  0  0  0  0  0  0
    1.0078    2.5285   -5.6099 C   0  0  0  0  0  0  0  0  0  0  0  0
    0.2268    1.4542   -6.1225 C   0  0  0  0  0  0  0  0  0  0  0  0
   -1.0019    1.5492   -6.6610 C   0  0  0  0  0  0  0  0  0  0  0  0
   -1.6342    2.7504   -6.1659 C   0  0  0  0  0  0  0  0  0  0  0  0
   -0.9293    3.6868   -5.2027 C   0  0  0  0  0  0  0  0  0  0  0  0
   -1.3999    0.3452   -7.6350 C   0  0  0  0  0  0  0  0  0  0  0  0
   -1.8174    0.2314   -8.9136 N   0  0  0  0  0  0  0  0  0  0  0  0
   -2.0555   -1.1723   -9.3034 C   0  0  0  0  0  0  0  0  0  0  0  0
   -2.6966   -1.7896  -10.4424 C   0  0  0  0  0  0  0  0  0  0  0  0
   -3.1817   -3.1318  -10.3432 C   0  0  0  0  0  0  0  0  0  0  0  0
   -2.8924   -3.9129   -9.2353 C   0  0  0  0  0  0  0  0  0  0  0  0
   -2.0030   -3.4305   -8.2898 C   0  0  0  0  0  0  0  0  0  0  0  0
   -1.6731   -2.0624   -8.3075 C   0  0  0  0  0  0  0  0  0  0  0  0
   -0.8391   -1.2430   -7.0765 S   0  0  0  0  0  0  0  0  0  0  0  0
    1.6211   -0.3502    0.6176 H   0  0  0  0  0  0  0  0  0  0  0  0
    0.7611   -2.4925   -0.2455 H   0  0  0  0  0  0  0  0  0  0  0  0
   -0.4836   -1.3632   -0.9073 H   0  0  0  0  0  0  0  0  0  0  0  0
    1.0318   -1.5361   -2.7649 H   0  0  0  0  0  0  0  0  0  0  0  0
    1.1099   -0.2302   -1.7408 H   0  0  0  0  0  0  0  0  0  0  0  0
    3.2525    0.0049   -0.0577 H   0  0  0  0  0  0  0  0  0  0  0  0
    4.1125    0.6797   -1.3708 H   0  0  0  0  0  0  0  0  0  0  0  0
    2.4605    2.3121   -0.0600 H   0  0  0  0  0  0  0  0  0  0  0  0
    2.2942    2.5195   -1.6399 H   0  0  0  0  0  0  0  0  0  0  0  0
   -0.2085    0.3754   -2.5488 H   0  0  0  0  0  0  0  0  0  0  0  0
   -0.5674    1.8720   -2.7324 H   0  0  0  0  0  0  0  0  0  0  0  0
    1.2618    0.3133   -4.1490 H   0  0  0  0  0  0  0  0  0  0  0  0
    1.3232    2.0744   -3.6575 H   0  0  0  0  0  0  0  0  0  0  0  0
    3.8266    2.4565   -2.3710 H   0  0  0  0  0  0  0  0  0  0  0  0
    4.5021    2.7504   -3.7708 H   0  0  0  0  0  0  0  0  0  0  0  0
    2.7688    4.4997   -2.5859 H   0  0  0  0  0  0  0  0  0  0  0  0
    3.0374    4.5910   -4.3071 H   0  0  0  0  0  0  0  0  0  0  0  0
    2.0375    2.3661   -5.4728 H   0  0  0  0  0  0  0  0  0  0  0  0
    0.6769    0.4525   -5.9962 H   0  0  0  0  0  0  0  0  0  0  0  0
   -2.6473    2.9970   -6.4204 H   0  0  0  0  0  0  0  0  0  0  0  0
   -1.4742    4.5660   -4.7993 H   0  0  0  0  0  0  0  0  0  0  0  0
   -2.9423   -1.2559  -11.3615 H   0  0  0  0  0  0  0  0  0  0  0  0
   -3.8308   -3.5658  -11.1090 H   0  0  0  0  0  0  0  0  0  0  0  0
   -3.3541   -4.8883   -9.0812 H   0  0  0  0  0  0  0  0  0  0  0  0
   -1.6929   -4.0502   -7.4552 H   0  0  0  0  0  0  0  0  0  0  0  0
  1  2  1  0  0  0  0
  1 29  1  0  0  0  0
  2  3  1  0  0  0  0
  2 30  1  0  0  0  0
  2 31  1  0  0  0  0
  3  4  1  0  0  0  0
  3 32  1  0  0  0  0
  3 33  1  0  0  0  0
  4  5  1  0  0  0  0
  5  6  1  0  0  0  0
  5 34  1  0  0  0  0
  5 35  1  0  0  0  0
  6  7  1  0  0  0  0
  6 36  1  0  0  0  0
  6 37  1  0  0  0  0
  7  8  1  0  0  0  0
  8  9  1  0  0  0  0
  8 38  1  0  0  0  0
  8 39  1  0  0  0  0
  9 10  1  0  0  0  0
  9 40  1  0  0  0  0
  9 41  1  0  0  0  0
 10 11  1  0  0  0  0
 11 12  1  0  0  0  0
 11 42  1  0  0  0  0
 11 43  1  0  0  0  0
 12 13  1  0  0  0  0
 12 44  1  0  0  0  0
 12 45  1  0  0  0  0
 13 14  1  0  0  0  0
 14 15  2  0  0  0  0
 14 19  1  0  0  0  0
 15 16  1  0  0  0  0
 15 46  1  0  0  0  0
 16 17  2  0  0  0  0
 16 47  1  0  0  0  0
 17 18  1  0  0  0  0
 17 20  1  0  0  0  0
 18 19  2  0  0  0  0
 18 48  1  0  0  0  0
 19 49  1  0  0  0  0
 20 21  2  0  0  0  0
 20 28  1  0  0  0  0
 21 22  1  0  0  0  0
 22 23  2  0  0  0  0
 22 27  1  0  0  0  0
 23 24  1  0  0  0  0
 23 50  1  0  0  0  0
 24 25  2  0  0  0  0
 24 51  1  0  0  0  0
 25 26  1  0  0  0  0
 25 52  1  0  0  0  0
 26 27  2  0  0  0  0
 26 53  1  0  0  0  0
 27 28  1  0  0  0  0
M  END
>  <DRUGBANK_ID>
DB18103

>  <COMMON_NAME>
SPG302

>  <CAS_NUMBER>
2274723-90-7

>  <UNII>
CMJ4GT6MRD

>  <SYNONYMS>
2-(2-(2-(2-(4-benzothiazol-2-y1-phenoxy)-ethoxy)-ethoxy)-ethoxy)-ethanol; Ethanol, 2-(2-(2-(2-(4-(2-benzothiazolyl)phenoxy)ethoxy)ethoxy)ethoxy)-

$$$$
