
 OpenBabel10282417133D

 14 13  0  0  0  0  0  0  0  0999 V2000
    1.0749    0.0755    0.0650 C   0  0  0  0  0  0  0  0  0  0  0  0
    0.2844   -0.2572    1.3235 C   0  0  0  0  0  0  0  0  0  0  0  0
   -1.0615   -0.2674    1.3622 C   0  0  0  0  0  0  0  0  0  0  0  0
   -1.8886   -0.5872    2.5719 C   0  0  0  0  0  0  0  0  0  0  0  0
    2.3032    0.0730    0.0744 O   0  0  0  0  0  0  0  0  0  0  0  0
    0.3857    0.3712   -1.0537 O   0  0  0  0  0  0  0  0  0  0  0  0
    1.0487   -0.5499    2.4307 N   0  0  0  0  0  0  0  0  0  0  0  0
   -1.6657   -0.0379    0.4940 H   0  0  0  0  0  0  0  0  0  0  0  0
   -2.5238    0.2677    2.8202 H   0  0  0  0  0  0  0  0  0  0  0  0
   -2.5238   -1.4530    2.3654 H   0  0  0  0  0  0  0  0  0  0  0  0
   -1.3008   -0.8223    3.4613 H   0  0  0  0  0  0  0  0  0  0  0  0
   -0.5816    0.3568   -0.9991 H   0  0  0  0  0  0  0  0  0  0  0  0
    2.0610   -0.5235    2.3310 H   0  0  0  0  0  0  0  0  0  0  0  0
    0.6409   -0.7855    3.3223 H   0  0  0  0  0  0  0  0  0  0  0  0
  2  1  1  0  0  0  0
  3  2  2  0  0  0  0
  3  8  1  0  0  0  0
  4  3  1  0  0  0  0
  4  9  1  0  0  0  0
  4 10  1  0  0  0  0
  4 11  1  0  0  0  0
  5  1  2  0  0  0  0
  6  1  1  0  0  0  0
  6 12  1  0  0  0  0
  7  2  1  0  0  0  0
  7 13  1  0  0  0  0
  7 14  1  0  0  0  0
M  END
>  <DRUGBANK_ID>
DB03720

>  <SECONDARY_ACCESSION_NUMBERS>
EXPT01127

>  <COMMON_NAME>
alpha,beta-Dehydroaminobutyric acid

>  <CAS_NUMBER>
71018-10-5

>  <UNII>
66QL1S96RM

>  <SYNONYMS>
(2Z)-2-aminobut-2-enoic acid; (Z)-2-aminobutenoic acid; (Z)-dehydrobutyrine; (Z)2,3-didehydrobutyrine; 2-Ammoniobut-2-enoate; Anhydrothreonine

$$$$
