
 OpenBabel10282417193D

 31 31  0  0  1  0  0  0  0  0999 V2000
    0.8264    1.4176   -0.6094 C   0  0  0  0  0  0  0  0  0  0  0  0
    1.6361    0.2334   -0.0744 C   0  0  0  0  0  0  0  0  0  0  0  0
    0.9810   -1.0142   -0.2565 O   0  0  0  0  0  0  0  0  0  0  0  0
   -0.5262   -1.0975    0.3047 P   0  0  2  0  0  0  0  0  0  0  0  0
   -1.1865   -2.4312    0.0631 O   0  0  0  0  0  0  0  0  0  0  0  0
   -1.2338    0.1076   -0.4744 N   0  0  0  0  0  0  0  0  0  0  0  0
   -0.6494    1.4027   -0.2118 C   0  0  2  0  0  0  0  0  0  0  0  0
   -1.4102    2.4708   -0.7986 O   0  0  0  0  0  0  0  0  0  0  0  0
   -2.6098    1.8839   -1.4185 O   0  0  0  0  0  0  0  0  0  0  0  0
   -0.4804   -0.5099    1.8242 N   0  0  0  0  0  0  0  0  0  0  0  0
   -1.5781    0.2421    2.4821 C   0  0  0  0  0  0  0  0  0  0  0  0
   -2.6915   -0.5467    3.1590 C   0  0  0  0  0  0  0  0  0  0  0  0
   -2.4246   -0.7727    4.9091 Cl  0  0  0  0  0  0  0  0  0  0  0  0
    0.5742   -0.9968    2.7038 C   0  0  0  0  0  0  0  0  0  0  0  0
    0.1060   -2.2322    3.4330 C   0  0  0  0  0  0  0  0  0  0  0  0
   -0.0377   -3.7261    2.5042 Cl  0  0  0  0  0  0  0  0  0  0  0  0
    1.2805    2.3289   -0.2021 H   0  0  0  0  0  0  0  0  0  0  0  0
    0.8946    1.4547   -1.6954 H   0  0  0  0  0  0  0  0  0  0  0  0
    2.6278    0.1717   -0.5318 H   0  0  0  0  0  0  0  0  0  0  0  0
    1.8354    0.3864    0.9892 H   0  0  0  0  0  0  0  0  0  0  0  0
   -2.2279    0.1408   -0.2985 H   0  0  0  0  0  0  0  0  0  0  0  0
   -0.6286    1.6710    0.8461 H   0  0  0  0  0  0  0  0  0  0  0  0
   -3.2659    2.4799   -1.0222 H   0  0  0  0  0  0  0  0  0  0  0  0
   -1.1678    1.0436    3.1136 H   0  0  0  0  0  0  0  0  0  0  0  0
   -2.1423    0.8073    1.7291 H   0  0  0  0  0  0  0  0  0  0  0  0
   -3.6220    0.0203    3.1125 H   0  0  0  0  0  0  0  0  0  0  0  0
   -2.8468   -1.4902    2.6228 H   0  0  0  0  0  0  0  0  0  0  0  0
    1.5090   -1.2269    2.1751 H   0  0  0  0  0  0  0  0  0  0  0  0
    0.8426   -0.1765    3.3834 H   0  0  0  0  0  0  0  0  0  0  0  0
    0.6631   -2.3966    4.3498 H   0  0  0  0  0  0  0  0  0  0  0  0
   -0.9109   -2.0601    3.6877 H   0  0  0  0  0  0  0  0  0  0  0  0
  1  2  1  0  0  0  0
  1  7  1  0  0  0  0
  1 17  1  0  0  0  0
  1 18  1  0  0  0  0
  2  3  1  0  0  0  0
  2 19  1  0  0  0  0
  2 20  1  0  0  0  0
  3  4  1  0  0  0  0
  4  5  2  6  0  0  0
  4  6  1  0  0  0  0
  4 10  1  0  0  0  0
  6  7  1  0  0  0  0
  6 21  1  0  0  0  0
  7 22  1  1  0  0  0
  7  8  1  0  0  0  0
  8  9  1  0  0  0  0
  9 23  1  0  0  0  0
 10 11  1  0  0  0  0
 10 14  1  0  0  0  0
 11 12  1  0  0  0  0
 11 24  1  0  0  0  0
 11 25  1  0  0  0  0
 12 13  1  0  0  0  0
 12 26  1  0  0  0  0
 12 27  1  0  0  0  0
 14 15  1  0  0  0  0
 14 28  1  0  0  0  0
 14 29  1  0  0  0  0
 15 16  1  0  0  0  0
 15 30  1  0  0  0  0
 15 31  1  0  0  0  0
M  END
>  <DRUGBANK_ID>
DB12727

>  <COMMON_NAME>
Perfosfamide

>  <CAS_NUMBER>
62435-42-1

>  <UNII>
U880A4FUDA

>  <SYNONYMS>
Perfosfamide

$$$$
