P21
 OpenBabel10282417173D

 60 62  0  0  0  0  0  0  0  0999 V2000
    9.1074   -2.1411   -7.1066 Cl  0  0  0  0  0  0  0  0  0  0  0  0
    8.5784   -1.2416   -5.7471 C   0  0  0  0  0  0  0  0  0  0  0  0
    7.8914   -1.9035   -4.7576 C   0  0  0  0  0  0  0  0  0  0  0  0
    7.3122   -1.1733   -3.7287 C   0  0  0  0  0  0  0  0  0  0  0  0
    8.7432    0.1370   -5.6635 C   0  0  0  0  0  0  0  0  0  0  0  0
    8.2037    0.8548   -4.5748 C   0  0  0  0  0  0  0  0  0  0  0  0
    7.4872    0.2092   -3.5486 C   0  0  0  0  0  0  0  0  0  0  0  0
    6.9099    1.0894   -2.4051 C   0  0  0  0  0  0  0  0  0  0  0  0
    6.7367    2.2511   -2.6821 O   0  0  0  0  0  0  0  0  0  0  0  0
    6.6695    0.5769   -1.0626 N   0  0  0  0  0  0  0  0  0  0  0  0
    6.4904   -0.8696   -0.9323 C   0  0  0  0  0  0  0  0  0  0  0  0
    7.0186   -1.8064    0.1454 C   0  0  0  0  0  0  0  0  0  0  0  0
    6.0128    1.5004   -0.0198 C   0  0  2  0  0  0  0  0  0  0  0  0
    6.1387    3.0154   -0.0933 C   0  0  0  0  0  0  0  0  0  0  0  0
    6.0271    3.7838    1.1818 N   0  0  0  0  0  0  0  0  0  0  0  0
    6.5820    3.2169    2.4209 C   0  0  0  0  0  0  0  0  0  0  0  0
    6.0949    1.8413    2.6290 C   0  0  0  0  0  0  0  0  0  0  0  0
    6.4587    1.1052    1.3789 C   0  0  0  0  0  0  0  0  0  0  0  0
    6.6948    5.0682    0.9541 C   0  0  0  0  0  0  0  0  0  0  0  0
    8.2716    5.0496    0.9148 C   0  0  0  0  0  0  0  0  0  0  0  0
    9.0293    4.2045   -0.1140 C   0  0  0  0  0  0  0  0  0  0  0  0
    9.5273    4.7850   -1.2774 C   0  0  0  0  0  0  0  0  0  0  0  0
    9.9679    3.9869   -2.3407 C   0  0  0  0  0  0  0  0  0  0  0  0
    9.8992    2.5995   -2.2678 C   0  0  0  0  0  0  0  0  0  0  0  0
    9.4924    1.9986   -1.0928 C   0  0  0  0  0  0  0  0  0  0  0  0
    9.1322    2.8020   -0.0097 C   0  0  0  0  0  0  0  0  0  0  0  0
    6.4714   -1.7096    1.5328 C   0  0  0  0  0  0  0  0  0  0  0  0
    5.0387   -1.7082    1.6802 O   0  0  0  0  0  0  0  0  0  0  0  0
    4.1383   -0.9788    0.8341 C   0  0  0  0  0  0  0  0  0  0  0  0
    4.9475    1.3588   -0.1904 H   0  0  0  0  0  0  0  0  0  0  0  0
    7.7189   -2.9754   -4.7810 H   0  0  0  0  0  0  0  0  0  0  0  0
    6.6759   -1.8090   -3.1304 H   0  0  0  0  0  0  0  0  0  0  0  0
    9.2656    0.6675   -6.4542 H   0  0  0  0  0  0  0  0  0  0  0  0
    8.3361    1.9367   -4.5590 H   0  0  0  0  0  0  0  0  0  0  0  0
    5.5287   -1.1343   -1.3818 H   0  0  0  0  0  0  0  0  0  0  0  0
    7.2178   -1.2349   -1.6140 H   0  0  0  0  0  0  0  0  0  0  0  0
    6.8616   -2.8416   -0.1907 H   0  0  0  0  0  0  0  0  0  0  0  0
    8.1119   -1.6688    0.1669 H   0  0  0  0  0  0  0  0  0  0  0  0
    7.0530    3.2415   -0.5880 H   0  0  0  0  0  0  0  0  0  0  0  0
    5.4152    3.4052   -0.8212 H   0  0  0  0  0  0  0  0  0  0  0  0
    6.3273    3.8138    3.3031 H   0  0  0  0  0  0  0  0  0  0  0  0
    7.6710    3.1322    2.4190 H   0  0  0  0  0  0  0  0  0  0  0  0
    5.0216    1.7810    2.8360 H   0  0  0  0  0  0  0  0  0  0  0  0
    6.6020    1.3551    3.4811 H   0  0  0  0  0  0  0  0  0  0  0  0
    5.8661    0.2770    1.6105 H   0  0  0  0  0  0  0  0  0  0  0  0
    7.5264    0.8644    1.4015 H   0  0  0  0  0  0  0  0  0  0  0  0
    6.2709    5.5088    0.0448 H   0  0  0  0  0  0  0  0  0  0  0  0
    6.3666    5.7221    1.7744 H   0  0  0  0  0  0  0  0  0  0  0  0
    8.5606    6.0943    0.7843 H   0  0  0  0  0  0  0  0  0  0  0  0
    8.6560    4.7718    1.9013 H   0  0  0  0  0  0  0  0  0  0  0  0
    9.5338    5.8637   -1.3836 H   0  0  0  0  0  0  0  0  0  0  0  0
   10.3163    4.4475   -3.2580 H   0  0  0  0  0  0  0  0  0  0  0  0
   10.1039    1.9940   -3.1428 H   0  0  0  0  0  0  0  0  0  0  0  0
    9.3081    0.9248   -1.0584 H   0  0  0  0  0  0  0  0  0  0  0  0
    8.7152    2.2950    0.8428 H   0  0  0  0  0  0  0  0  0  0  0  0
    6.8674   -2.4587    2.2228 H   0  0  0  0  0  0  0  0  0  0  0  0
    7.0361   -0.8961    1.9860 H   0  0  0  0  0  0  0  0  0  0  0  0
    4.2039    0.1018    0.9145 H   0  0  0  0  0  0  0  0  0  0  0  0
    4.1692   -1.2955   -0.2024 H   0  0  0  0  0  0  0  0  0  0  0  0
    3.1051   -1.1383    1.1368 H   0  0  0  0  0  0  0  0  0  0  0  0
  1  2  1  0  0  0  0
  2  3  1  0  0  0  0
  2  5  2  0  0  0  0
  3  4  2  0  0  0  0
  3 31  1  0  0  0  0
  4  7  1  0  0  0  0
  4 32  1  0  0  0  0
  5  6  1  0  0  0  0
  5 33  1  0  0  0  0
  6  7  2  0  0  0  0
  6 34  1  0  0  0  0
  7  8  1  0  0  0  0
  8  9  2  0  0  0  0
  8 10  1  0  0  0  0
 10 11  1  0  0  0  0
 11 12  1  0  0  0  0
 11 35  1  0  0  0  0
 11 36  1  0  0  0  0
 12 27  1  0  0  0  0
 12 37  1  0  0  0  0
 12 38  1  0  0  0  0
 13 14  1  0  0  0  0
 13 18  1  0  0  0  0
 13 30  1  6  0  0  0
 13 10  1  0  0  0  0
 14 15  1  0  0  0  0
 14 39  1  0  0  0  0
 14 40  1  0  0  0  0
 15 16  1  0  0  0  0
 15 19  1  0  0  0  0
 16 17  1  0  0  0  0
 16 41  1  0  0  0  0
 16 42  1  0  0  0  0
 17 18  1  0  0  0  0
 17 43  1  0  0  0  0
 17 44  1  0  0  0  0
 18 45  1  0  0  0  0
 18 46  1  0  0  0  0
 19 20  1  0  0  0  0
 19 47  1  0  0  0  0
 19 48  1  0  0  0  0
 20 21  1  0  0  0  0
 20 49  1  0  0  0  0
 20 50  1  0  0  0  0
 21 22  1  0  0  0  0
 21 26  2  0  0  0  0
 22 23  2  0  0  0  0
 22 51  1  0  0  0  0
 23 24  1  0  0  0  0
 23 52  1  0  0  0  0
 24 25  2  0  0  0  0
 24 53  1  0  0  0  0
 25 26  1  0  0  0  0
 25 54  1  0  0  0  0
 26 55  1  0  0  0  0
 27 28  1  0  0  0  0
 27 56  1  0  0  0  0
 27 57  1  0  0  0  0
 28 29  1  0  0  0  0
 29 58  1  0  0  0  0
 29 59  1  0  0  0  0
 29 60  1  0  0  0  0
M  END
>  <DRUGBANK_ID>
DB08344

>  <COMMON_NAME>
4-chloro-N-(3-methoxypropyl)-N-[(3S)-1-(2-phenylethyl)piperidin-3-yl]benzamide

$$$$
