
 OpenBabel10282417203D

 87 89  0  0  0  0  0  0  0  0999 V2000
    0.9849    0.0085    0.0192 C   0  0  0  0  0  0  0  0  0  0  0  0
   -0.6362    6.2405   -2.4600 C   0  0  0  0  0  0  0  0  0  0  0  0
    7.8723   10.6342   -2.5492 C   0  0  0  0  0  0  0  0  0  0  0  0
    4.8022   12.1197    3.9662 C   0  0  0  0  0  0  0  0  0  0  0  0
   -2.3224    2.9022   -3.1145 C   0  0  0  0  0  0  0  0  0  0  0  0
    8.4000   11.2954    2.9415 C   0  0  0  0  0  0  0  0  0  0  0  0
    4.1770    7.1815    0.3987 C   0  0  0  0  0  0  0  0  0  0  0  0
    6.7562    4.1637   -2.1283 C   0  0  0  0  0  0  0  0  0  0  0  0
    4.5783    8.7756   -2.7530 C   0  0  0  0  0  0  0  0  0  0  0  0
    4.6540    6.6079   -0.9519 C   0  0  0  0  0  0  0  0  0  0  0  0
    5.0698    8.2645    0.8609 C   0  0  0  0  0  0  0  0  0  0  0  0
    5.9687    5.3787   -2.5300 C   0  0  0  0  0  0  0  0  0  0  0  0
    5.4084    9.2026   -1.5625 C   0  0  0  0  0  0  0  0  0  0  0  0
    7.1159    7.1033   -1.3990 C   0  0  0  0  0  0  0  0  0  0  0  0
    7.1687    8.0885   -0.2640 C   0  0  0  0  0  0  0  0  0  0  0  0
    6.1218    3.4842   -0.8952 C   0  0  0  0  0  0  0  0  0  0  0  0
    3.1960    8.6819   -2.0923 C   0  0  0  0  0  0  0  0  0  0  0  0
    2.1262    1.9693   -1.5957 C   0  0  0  0  0  0  0  0  0  0  0  0
    1.5006    4.2843   -2.0735 C   0  0  0  0  0  0  0  0  0  0  0  0
    5.4055   11.6809   -0.8055 C   0  0  0  0  0  0  0  0  0  0  0  0
    4.4459   11.3066    1.3789 C   0  0  0  0  0  0  0  0  0  0  0  0
    2.4763    3.2723   -1.8037 C   0  0  0  0  0  0  0  0  0  0  0  0
    4.2343   11.3351    0.0066 C   0  0  0  0  0  0  0  0  0  0  0  0
    0.7915    1.6336   -1.6584 C   0  0  0  0  0  0  0  0  0  0  0  0
    0.1651    3.9394   -2.2301 C   0  0  0  0  0  0  0  0  0  0  0  0
    6.7557   11.4438   -0.3480 C   0  0  0  0  0  0  0  0  0  0  0  0
    5.7553   11.4524    1.8925 C   0  0  0  0  0  0  0  0  0  0  0  0
   -0.1727    2.5697   -2.1240 C   0  0  0  0  0  0  0  0  0  0  0  0
    6.9192   11.3477    1.0602 C   0  0  0  0  0  0  0  0  0  0  0  0
    3.7861    3.5765   -1.2779 C   0  0  0  0  0  0  0  0  0  0  0  0
    2.8112   10.7506   -0.5100 C   0  0  0  0  0  0  0  0  0  0  0  0
    5.9981    6.1395   -1.2788 N   0  0  0  0  0  0  0  0  0  0  0  0
    5.8951    8.7867   -0.2211 N   0  0  0  0  0  0  0  0  0  0  0  0
    3.7050    4.5855   -0.5723 O   0  0  0  0  0  0  0  0  0  0  0  0
    1.8273   11.1578    0.1145 O   0  0  0  0  0  0  0  0  0  0  0  0
    0.4330    0.3670   -1.2639 O   0  0  0  0  0  0  0  0  0  0  0  0
   -0.8461    4.8393   -2.4263 O   0  0  0  0  0  0  0  0  0  0  0  0
    7.8714   11.1256   -1.1651 O   0  0  0  0  0  0  0  0  0  0  0  0
    5.9369   11.7090    3.2269 O   0  0  0  0  0  0  0  0  0  0  0  0
   -1.3893    2.0310   -2.4794 O   0  0  0  0  0  0  0  0  0  0  0  0
    8.1908   11.0667    1.5453 O   0  0  0  0  0  0  0  0  0  0  0  0
    4.8880    2.8057   -1.3103 O   0  0  0  0  0  0  0  0  0  0  0  0
    2.5303    9.9024   -1.6024 O   0  0  0  0  0  0  0  0  0  0  0  0
    0.6390   -0.9997    0.2547 H   0  0  0  0  0  0  0  0  0  0  0  0
    0.6353    0.6872    0.8070 H   0  0  0  0  0  0  0  0  0  0  0  0
    2.0828   -0.0324    0.0372 H   0  0  0  0  0  0  0  0  0  0  0  0
   -0.2451    6.6067   -1.5080 H   0  0  0  0  0  0  0  0  0  0  0  0
    0.0022    6.5144   -3.3023 H   0  0  0  0  0  0  0  0  0  0  0  0
   -1.6131    6.7191   -2.6199 H   0  0  0  0  0  0  0  0  0  0  0  0
    7.7199    9.5423   -2.6610 H   0  0  0  0  0  0  0  0  0  0  0  0
    7.1352   11.1508   -3.1700 H   0  0  0  0  0  0  0  0  0  0  0  0
    8.8631   10.6885   -3.0127 H   0  0  0  0  0  0  0  0  0  0  0  0
    4.1683   12.8254    3.4163 H   0  0  0  0  0  0  0  0  0  0  0  0
    4.2529   11.2216    4.2536 H   0  0  0  0  0  0  0  0  0  0  0  0
    5.1544   12.6254    4.8669 H   0  0  0  0  0  0  0  0  0  0  0  0
   -2.7231    3.6053   -2.3775 H   0  0  0  0  0  0  0  0  0  0  0  0
   -1.9002    3.4191   -3.9898 H   0  0  0  0  0  0  0  0  0  0  0  0
   -3.1674    2.3133   -3.4719 H   0  0  0  0  0  0  0  0  0  0  0  0
    8.1068   12.3206    3.1918 H   0  0  0  0  0  0  0  0  0  0  0  0
    7.8834   10.5499    3.5641 H   0  0  0  0  0  0  0  0  0  0  0  0
    9.4625   11.2215    3.1857 H   0  0  0  0  0  0  0  0  0  0  0  0
    3.1651    7.6457    0.3640 H   0  0  0  0  0  0  0  0  0  0  0  0
    3.9528    6.4074    1.1335 H   0  0  0  0  0  0  0  0  0  0  0  0
    7.7823    4.4831   -1.9048 H   0  0  0  0  0  0  0  0  0  0  0  0
    6.7825    3.4810   -2.9741 H   0  0  0  0  0  0  0  0  0  0  0  0
    4.5254    9.4696   -3.5885 H   0  0  0  0  0  0  0  0  0  0  0  0
    5.1434    7.9400   -3.1872 H   0  0  0  0  0  0  0  0  0  0  0  0
    3.6679    6.2453   -1.2467 H   0  0  0  0  0  0  0  0  0  0  0  0
    4.5002    6.9917   -1.9188 H   0  0  0  0  0  0  0  0  0  0  0  0
    4.4182    9.0129    1.3022 H   0  0  0  0  0  0  0  0  0  0  0  0
    5.6490    7.9368    1.7342 H   0  0  0  0  0  0  0  0  0  0  0  0
    6.3812    5.9285   -3.3914 H   0  0  0  0  0  0  0  0  0  0  0  0
    4.9650    5.1008   -2.8712 H   0  0  0  0  0  0  0  0  0  0  0  0
    4.6945    9.9162   -1.3448 H   0  0  0  0  0  0  0  0  0  0  0  0
    6.1471    9.7641   -2.0273 H   0  0  0  0  0  0  0  0  0  0  0  0
    8.0856    6.6035   -1.4654 H   0  0  0  0  0  0  0  0  0  0  0  0
    7.0722    7.6498   -2.3503 H   0  0  0  0  0  0  0  0  0  0  0  0
    7.4035    7.5831    0.6786 H   0  0  0  0  0  0  0  0  0  0  0  0
    8.0006    8.7820   -0.4164 H   0  0  0  0  0  0  0  0  0  0  0  0
    5.9832    4.1714   -0.0344 H   0  0  0  0  0  0  0  0  0  0  0  0
    6.8309    2.7442   -0.5241 H   0  0  0  0  0  0  0  0  0  0  0  0
    2.5723    7.8343   -2.4241 H   0  0  0  0  0  0  0  0  0  0  0  0
    3.4435    8.3639   -1.1315 H   0  0  0  0  0  0  0  0  0  0  0  0
    2.9038    1.2723   -1.3103 H   0  0  0  0  0  0  0  0  0  0  0  0
    1.7836    5.3334   -2.1215 H   0  0  0  0  0  0  0  0  0  0  0  0
    5.2403   11.7367   -1.8782 H   0  0  0  0  0  0  0  0  0  0  0  0
    3.6237   11.0528    2.0526 H   0  0  0  0  0  0  0  0  0  0  0  0
  1 44  1  0  0  0  0
  1 45  1  0  0  0  0
  1 46  1  0  0  0  0
  2 47  1  0  0  0  0
  2 48  1  0  0  0  0
  2 49  1  0  0  0  0
  3 50  1  0  0  0  0
  3 51  1  0  0  0  0
  3 52  1  0  0  0  0
  4 53  1  0  0  0  0
  4 54  1  0  0  0  0
  4 55  1  0  0  0  0
  5 56  1  0  0  0  0
  5 57  1  0  0  0  0
  5 58  1  0  0  0  0
  6 59  1  0  0  0  0
  6 60  1  0  0  0  0
  6 61  1  0  0  0  0
  7 62  1  0  0  0  0
  7 63  1  0  0  0  0
  8 64  1  0  0  0  0
  8 65  1  0  0  0  0
  9 66  1  0  0  0  0
  9 67  1  0  0  0  0
 10  7  1  0  0  0  0
 10 68  1  0  0  0  0
 10 69  1  0  0  0  0
 11  7  1  0  0  0  0
 11 70  1  0  0  0  0
 11 71  1  0  0  0  0
 12  8  1  0  0  0  0
 12 72  1  0  0  0  0
 12 73  1  0  0  0  0
 13  9  1  0  0  0  0
 13 74  1  0  0  0  0
 13 75  1  0  0  0  0
 14 76  1  0  0  0  0
 14 77  1  0  0  0  0
 15 14  1  0  0  0  0
 15 78  1  0  0  0  0
 15 79  1  0  0  0  0
 16  8  1  0  0  0  0
 16 80  1  0  0  0  0
 16 81  1  0  0  0  0
 17  9  1  0  0  0  0
 17 82  1  0  0  0  0
 17 83  1  0  0  0  0
 18 84  1  0  0  0  0
 19 85  1  0  0  0  0
 20 86  1  0  0  0  0
 21 87  1  0  0  0  0
 22 18  2  0  0  0  0
 22 19  1  0  0  0  0
 23 20  2  0  0  0  0
 23 21  1  0  0  0  0
 24 18  1  0  0  0  0
 25 19  2  0  0  0  0
 26 20  1  0  0  0  0
 27 21  2  0  0  0  0
 28 24  2  0  0  0  0
 28 25  1  0  0  0  0
 29 26  2  0  0  0  0
 29 27  1  0  0  0  0
 30 22  1  0  0  0  0
 31 23  1  0  0  0  0
 32 10  1  0  0  0  0
 32 12  1  0  0  0  0
 32 14  1  0  0  0  0
 33 11  1  0  0  0  0
 33 13  1  0  0  0  0
 33 15  1  0  0  0  0
 34 30  2  0  0  0  0
 35 31  2  0  0  0  0
 36  1  1  0  0  0  0
 36 24  1  0  0  0  0
 37  2  1  0  0  0  0
 37 25  1  0  0  0  0
 38  3  1  0  0  0  0
 38 26  1  0  0  0  0
 39  4  1  0  0  0  0
 39 27  1  0  0  0  0
 40  5  1  0  0  0  0
 40 28  1  0  0  0  0
 41  6  1  0  0  0  0
 41 29  1  0  0  0  0
 42 16  1  0  0  0  0
 42 30  1  0  0  0  0
 43 17  1  0  0  0  0
 43 31  1  0  0  0  0
M  END
>  <DRUGBANK_ID>
DB13715

>  <COMMON_NAME>
Dilazep

>  <CAS_NUMBER>
35898-87-4

>  <UNII>
F8KLC2BD5Z

>  <SYNONYMS>
Dilazep

$$$$
