HPQ
 OpenBabel10282417163D

 28 28  0  0  0  0  0  0  0  0999 V2000
    0.9084    1.5955    1.7942 N   0  0  0  0  0  0  0  0  0  0  0  0
    0.4408    0.2850    1.2907 C   0  0  2  0  0  0  0  0  0  0  0  0
    0.9773    0.0214   -0.1225 C   0  0  0  0  0  0  0  0  0  0  0  0
    1.2657    0.9579   -0.8844 O   0  0  0  0  0  0  0  0  0  0  0  0
   -1.0963    0.2934    1.3038 C   0  0  0  0  0  0  0  0  0  0  0  0
   -1.7014   -1.0741    0.9755 C   0  0  0  0  0  0  0  0  0  0  0  0
   -1.2464   -2.1805    1.9027 C   0  0  0  0  0  0  0  0  0  0  0  0
   -0.8511   -1.9015    3.2234 C   0  0  0  0  0  0  0  0  0  0  0  0
   -1.3211   -3.5171    1.4991 C   0  0  0  0  0  0  0  0  0  0  0  0
   -0.5902   -2.9158    4.1333 C   0  0  0  0  0  0  0  0  0  0  0  0
   -1.1302   -4.5368    2.4346 C   0  0  0  0  0  0  0  0  0  0  0  0
   -0.7622   -4.2360    3.7469 C   0  0  0  0  0  0  0  0  0  0  0  0
    1.1534   -1.4160   -0.5671 C   0  0  0  0  0  0  0  0  0  0  0  0
    0.8816   -0.4634    1.9542 H   0  0  0  0  0  0  0  0  0  0  0  0
    0.6171    2.3112    1.1240 H   0  0  0  0  0  0  0  0  0  0  0  0
    1.9282    1.6144    1.7573 H   0  0  0  0  0  0  0  0  0  0  0  0
   -1.4713    0.6170    2.2853 H   0  0  0  0  0  0  0  0  0  0  0  0
   -1.4826    1.0332    0.5916 H   0  0  0  0  0  0  0  0  0  0  0  0
   -2.7935   -1.0163    1.0432 H   0  0  0  0  0  0  0  0  0  0  0  0
   -1.5120   -1.3096   -0.0754 H   0  0  0  0  0  0  0  0  0  0  0  0
   -0.7374   -0.8811    3.5814 H   0  0  0  0  0  0  0  0  0  0  0  0
   -1.5597   -3.7780    0.4699 H   0  0  0  0  0  0  0  0  0  0  0  0
   -0.2969   -2.6580    5.1468 H   0  0  0  0  0  0  0  0  0  0  0  0
   -1.3013   -5.5710    2.1497 H   0  0  0  0  0  0  0  0  0  0  0  0
   -0.6175   -5.0286    4.4739 H   0  0  0  0  0  0  0  0  0  0  0  0
    1.8511   -1.9356    0.0921 H   0  0  0  0  0  0  0  0  0  0  0  0
    0.2192   -1.9710   -0.5899 H   0  0  0  0  0  0  0  0  0  0  0  0
    1.5320   -1.4328   -1.5915 H   0  0  0  0  0  0  0  0  0  0  0  0
  1 15  1  0  0  0  0
  1 16  1  0  0  0  0
  2  5  1  0  0  0  0
  2 14  1  1  0  0  0
  2  3  1  0  0  0  0
  2  1  1  0  0  0  0
  3  4  2  0  0  0  0
  3 13  1  0  0  0  0
  5  6  1  0  0  0  0
  5 17  1  0  0  0  0
  5 18  1  0  0  0  0
  6  7  1  0  0  0  0
  6 19  1  0  0  0  0
  6 20  1  0  0  0  0
  7  8  2  0  0  0  0
  7  9  1  0  0  0  0
  8 10  1  0  0  0  0
  8 21  1  0  0  0  0
  9 11  2  0  0  0  0
  9 22  1  0  0  0  0
 10 12  2  0  0  0  0
 10 23  1  0  0  0  0
 11 12  1  0  0  0  0
 11 24  1  0  0  0  0
 12 25  1  0  0  0  0
 13 26  1  0  0  0  0
 13 27  1  0  0  0  0
 13 28  1  0  0  0  0
M  END
>  <DRUGBANK_ID>
DB07913

>  <COMMON_NAME>
HOMOPHENYLALANINYLMETHANE

$$$$
