
 OpenBabel10282417203D

 46 46  0  0  0  0  0  0  0  0999 V2000
    3.8990    0.9351   -0.6056 O   0  0  0  0  0  0  0  0  0  0  0  0
    4.7840   -1.6446   -0.7289 O   0  0  0  0  0  0  0  0  0  0  0  0
    1.3522   -2.8906   -0.0123 O   0  0  0  0  0  0  0  0  0  0  0  0
    4.1696    4.4403   -1.5900 O   0  0  0  0  0  0  0  0  0  0  0  0
    5.7117    2.8498   -1.3463 O   0  0  0  0  0  0  0  0  0  0  0  0
   -0.6922   -2.0698    1.4462 O   0  0  0  0  0  0  0  0  0  0  0  0
    2.2035   -5.1036   -0.8936 O   0  0  0  0  0  0  0  0  0  0  0  0
    0.5777   -0.5603    0.3720 N   0  0  0  0  0  0  0  0  0  0  0  0
    0.1988    2.3598    0.5180 N   0  0  0  0  0  0  0  0  0  0  0  0
   -1.8779    2.8052    1.4789 N   0  0  0  0  0  0  0  0  0  0  0  0
   -1.7885    1.6576   -0.4420 N   0  0  0  0  0  0  0  0  0  0  0  0
    2.8596   -0.0954   -0.6602 C   0  0  2  0  0  0  0  0  0  0  0  0
    1.6681    0.3896    0.2172 C   0  0  1  0  0  0  0  0  0  0  0  0
    3.4370   -1.5103   -0.2169 C   0  0  1  0  0  0  0  0  0  0  0  0
    1.0993    1.6834   -0.4049 C   0  0  2  0  0  0  0  0  0  0  0  0
    3.4675    2.2316   -0.8911 C   0  0  0  0  0  0  0  0  0  0  0  0
    2.1802    2.6133   -0.8164 C   0  0  0  0  0  0  0  0  0  0  0  0
    2.5414   -2.6928   -0.7541 C   0  0  1  0  0  0  0  0  0  0  0  0
    4.4416    3.2932   -1.3081 C   0  0  0  0  0  0  0  0  0  0  0  0
    0.1886   -1.2139    1.5129 C   0  0  0  0  0  0  0  0  0  0  0  0
    3.1486   -4.0761   -0.5941 C   0  0  0  0  0  0  0  0  0  0  0  0
   -1.1520    2.2823    0.5542 C   0  0  0  0  0  0  0  0  0  0  0  0
    5.6072   -2.5977   -0.0529 C   0  0  0  0  0  0  0  0  0  0  0  0
    0.9127   -0.8905    2.7859 C   0  0  0  0  0  0  0  0  0  0  0  0
    2.5666   -0.1740   -1.7168 H   0  0  0  0  0  0  0  0  0  0  0  0
    0.5642   -2.6966   -0.5471 H   0  0  0  0  0  0  0  0  0  0  0  0
    6.2328    3.6328   -1.6225 H   0  0  0  0  0  0  0  0  0  0  0  0
    1.4225   -4.8826   -0.3493 H   0  0  0  0  0  0  0  0  0  0  0  0
    0.0614   -0.8332   -0.4520 H   0  0  0  0  0  0  0  0  0  0  0  0
    0.6389    2.7498    1.3427 H   0  0  0  0  0  0  0  0  0  0  0  0
   -1.3035    3.2813    2.1722 H   0  0  0  0  0  0  0  0  0  0  0  0
   -1.3579    1.1593   -1.1950 H   0  0  0  0  0  0  0  0  0  0  0  0
   -2.7990    1.6441   -0.3883 H   0  0  0  0  0  0  0  0  0  0  0  0
    2.0745    0.6310    1.2060 H   0  0  0  0  0  0  0  0  0  0  0  0
    3.4766   -1.4995    0.8801 H   0  0  0  0  0  0  0  0  0  0  0  0
    0.5683    1.4260   -1.3270 H   0  0  0  0  0  0  0  0  0  0  0  0
    1.8753    3.6193   -1.0988 H   0  0  0  0  0  0  0  0  0  0  0  0
    2.2930   -2.5247   -1.8090 H   0  0  0  0  0  0  0  0  0  0  0  0
    3.9584   -4.2153   -1.2993 H   0  0  0  0  0  0  0  0  0  0  0  0
    3.4462   -4.2068    0.4565 H   0  0  0  0  0  0  0  0  0  0  0  0
    5.5164   -2.5326    1.0341 H   0  0  0  0  0  0  0  0  0  0  0  0
    5.3953   -3.6215   -0.3427 H   0  0  0  0  0  0  0  0  0  0  0  0
    6.6406   -2.4725   -0.3764 H   0  0  0  0  0  0  0  0  0  0  0  0
    1.9831   -1.0955    2.6889 H   0  0  0  0  0  0  0  0  0  0  0  0
    0.7472    0.1619    3.0253 H   0  0  0  0  0  0  0  0  0  0  0  0
    0.5214   -1.5075    3.5975 H   0  0  0  0  0  0  0  0  0  0  0  0
  1 12  1  0  0  0  0
  1 16  1  0  0  0  0
  2 23  1  0  0  0  0
  3 26  1  0  0  0  0
  4 19  2  0  0  0  0
  5 19  1  0  0  0  0
  5 27  1  0  0  0  0
  6 20  2  0  0  0  0
  7 21  1  0  0  0  0
  7 28  1  0  0  0  0
  8 20  1  0  0  0  0
  8 29  1  0  0  0  0
  9 22  1  0  0  0  0
  9 30  1  0  0  0  0
 10 22  2  0  0  0  0
 10 31  1  0  0  0  0
 11 22  1  0  0  0  0
 11 32  1  0  0  0  0
 11 33  1  0  0  0  0
 12 13  1  0  0  0  0
 12 25  1  6  0  0  0
 13  8  1  0  0  0  0
 13 15  1  0  0  0  0
 13 34  1  1  0  0  0
 14 35  1  1  0  0  0
 14 12  1  0  0  0  0
 14  2  1  0  0  0  0
 15 17  1  0  0  0  0
 15 36  1  6  0  0  0
 15  9  1  0  0  0  0
 16 17  2  0  0  0  0
 16 19  1  0  0  0  0
 17 37  1  0  0  0  0
 18 21  1  0  0  0  0
 18 38  1  6  0  0  0
 18 14  1  0  0  0  0
 18  3  1  0  0  0  0
 20 24  1  0  0  0  0
 21 39  1  0  0  0  0
 21 40  1  0  0  0  0
 23 41  1  0  0  0  0
 23 42  1  0  0  0  0
 23 43  1  0  0  0  0
 24 44  1  0  0  0  0
 24 45  1  0  0  0  0
 24 46  1  0  0  0  0
M  END
>  <DRUGBANK_ID>
DB12791

>  <COMMON_NAME>
Laninamivir

>  <CAS_NUMBER>
203120-17-6

>  <UNII>
B408IW3GL5

>  <SYNONYMS>
Laninamivir; Laninamivirum

$$$$
