3BM
 OpenBabel10282417163D

 40 41  0  0  0  0  0  0  0  0999 V2000
   -2.0346    1.4270    0.0523 C   0  0  0  0  0  0  0  0  0  0  0  0
   -0.9563    2.2423    0.2460 C   0  0  0  0  0  0  0  0  0  0  0  0
    0.2640    1.6707    0.1916 C   0  0  0  0  0  0  0  0  0  0  0  0
    0.3755    0.2793    0.0971 C   0  0  0  0  0  0  0  0  0  0  0  0
   -0.7339   -0.5744    0.0604 C   0  0  0  0  0  0  0  0  0  0  0  0
   -1.9747    0.0116    0.0337 C   0  0  0  0  0  0  0  0  0  0  0  0
   -3.0982    2.1378   -0.4719 N   0  0  0  0  0  0  0  0  0  0  0  0
   -3.4805    3.4955   -0.1366 C   0  0  0  0  0  0  0  0  0  0  0  0
   -4.1956    3.9410    1.0642 C   0  0  0  0  0  0  0  0  0  0  0  0
   -4.5976    5.3480    1.0004 C   0  0  0  0  0  0  0  0  0  0  0  0
   -4.4008    6.1869   -0.1408 C   0  0  0  0  0  0  0  0  0  0  0  0
   -3.7195    5.7042   -1.2394 C   0  0  0  0  0  0  0  0  0  0  0  0
   -3.2848    4.3895   -1.2422 C   0  0  0  0  0  0  0  0  0  0  0  0
   -4.9235    2.9743    2.3249 C   0  0  0  0  0  0  0  0  0  0  0  0
   -5.2456    1.5450    2.2661 N   0  0  0  0  0  0  0  0  0  0  0  0
   -5.3923    3.5220    3.2766 O   0  0  0  0  0  0  0  0  0  0  0  0
   -5.8692    0.8875    1.1455 O   0  0  0  0  0  0  0  0  0  0  0  0
   -5.6668    1.6345   -0.0073 C   0  0  0  0  0  0  0  0  0  0  0  0
   -6.5878    2.7075   -0.4769 C   0  0  1  0  0  0  0  0  0  0  0  0
   -7.4187    3.4045    0.5960 C   0  0  0  0  0  0  0  0  0  0  0  0
   -6.0319    3.5299   -1.5028 O   0  0  0  0  0  0  0  0  0  0  0  0
   -6.9894    4.5210    1.3508 O   0  0  0  0  0  0  0  0  0  0  0  0
    2.2803   -0.4741   -0.0213 I   0  0  0  0  0  0  0  0  0  0  0  0
   -3.3753   -1.0022   -0.1139 Cl  0  0  0  0  0  0  0  0  0  0  0  0
   -2.8213    3.8863   -2.4002 F   0  0  0  0  0  0  0  0  0  0  0  0
   -3.6127    6.4518   -2.3478 F   0  0  0  0  0  0  0  0  0  0  0  0
   -7.2625    2.0728   -1.0335 H   0  0  0  0  0  0  0  0  0  0  0  0
   -1.0841    3.3175    0.1855 H   0  0  0  0  0  0  0  0  0  0  0  0
    1.0796    2.3754    0.1434 H   0  0  0  0  0  0  0  0  0  0  0  0
   -0.6449   -1.6548   -0.0182 H   0  0  0  0  0  0  0  0  0  0  0  0
   -3.7378    1.3756   -0.6009 H   0  0  0  0  0  0  0  0  0  0  0  0
   -5.2609    5.8269    1.7332 H   0  0  0  0  0  0  0  0  0  0  0  0
   -4.8801    7.1679   -0.2251 H   0  0  0  0  0  0  0  0  0  0  0  0
   -5.7696    1.2269    3.0912 H   0  0  0  0  0  0  0  0  0  0  0  0
   -4.8320    2.0950    0.3676 H   0  0  0  0  0  0  0  0  0  0  0  0
   -5.3398    1.0821   -0.8913 H   0  0  0  0  0  0  0  0  0  0  0  0
   -8.2098    3.8468    0.0125 H   0  0  0  0  0  0  0  0  0  0  0  0
   -7.7557    2.6350    1.2865 H   0  0  0  0  0  0  0  0  0  0  0  0
   -5.8667    4.4246   -1.1642 H   0  0  0  0  0  0  0  0  0  0  0  0
   -6.6038    4.2723    2.2240 H   0  0  0  0  0  0  0  0  0  0  0  0
  1  7  1  0  0  0  0
  1  6  1  0  0  0  0
  2  1  2  0  0  0  0
  2 28  1  0  0  0  0
  3  2  1  0  0  0  0
  3  4  2  0  0  0  0
  3 29  1  0  0  0  0
  4  5  1  0  0  0  0
  5  6  2  0  0  0  0
  5 30  1  0  0  0  0
  6 24  1  0  0  0  0
  7 31  1  0  0  0  0
  8  7  1  0  0  0  0
  9  8  1  0  0  0  0
  9 14  1  0  0  0  0
 10  9  2  0  0  0  0
 10 32  1  0  0  0  0
 11 10  1  0  0  0  0
 11 12  2  0  0  0  0
 11 33  1  0  0  0  0
 12 13  1  0  0  0  0
 13  8  2  0  0  0  0
 13 25  1  0  0  0  0
 14 16  2  0  0  0  0
 15 14  1  0  0  0  0
 15 17  1  0  0  0  0
 15 34  1  0  0  0  0
 17 18  1  0  0  0  0
 18 19  1  0  0  0  0
 18 35  1  0  0  0  0
 18 36  1  0  0  0  0
 19 20  1  0  0  0  0
 19 21  1  0  0  0  0
 19 27  1  6  0  0  0
 20 22  1  0  0  0  0
 20 37  1  0  0  0  0
 20 38  1  0  0  0  0
 21 39  1  0  0  0  0
 22 40  1  0  0  0  0
 23  4  1  0  0  0  0
 26 12  1  0  0  0  0
M  END
>  <DRUGBANK_ID>
DB07046

>  <COMMON_NAME>
2-[(2-chloro-4-iodophenyl)amino]-N-{[(2R)-2,3-dihydroxypropyl]oxy}-3,4-difluorobenzamide

$$$$
