DBF
 OpenBabel10282417133D

 27 29  0  0  0  0  0  0  0  0999 V2000
    3.4141    0.2400   -0.0141 C   0  0  0  0  0  0  0  0  0  0  0  0
    2.4325    1.2473   -0.0450 C   0  0  0  0  0  0  0  0  0  0  0  0
    1.1018    0.8132   -0.0174 C   0  0  0  0  0  0  0  0  0  0  0  0
    0.7171   -0.5260    0.0052 C   0  0  0  0  0  0  0  0  0  0  0  0
    1.7220   -1.5139    0.0316 C   0  0  0  0  0  0  0  0  0  0  0  0
    3.0657   -1.1141    0.0335 C   0  0  0  0  0  0  0  0  0  0  0  0
   -0.0048    1.6039   -0.0041 O   0  0  0  0  0  0  0  0  0  0  0  0
   -2.4483    1.2422    0.0450 C   0  0  0  0  0  0  0  0  0  0  0  0
   -1.1108    0.8084    0.0131 C   0  0  0  0  0  0  0  0  0  0  0  0
   -0.7153   -0.5288   -0.0093 C   0  0  0  0  0  0  0  0  0  0  0  0
   -1.7114   -1.5235   -0.0333 C   0  0  0  0  0  0  0  0  0  0  0  0
   -3.0553   -1.1324   -0.0288 C   0  0  0  0  0  0  0  0  0  0  0  0
   -3.4163    0.2195    0.0203 C   0  0  0  0  0  0  0  0  0  0  0  0
    1.9822    3.6238   -0.1499 O   0  0  0  0  0  0  0  0  0  0  0  0
    2.7587    2.6891   -0.1096 C   0  0  0  0  0  0  0  0  0  0  0  0
    4.0877    2.9168   -0.1352 O   0  0  0  0  0  0  0  0  0  0  0  0
   -4.0619    3.0412    0.1428 O   0  0  0  0  0  0  0  0  0  0  0  0
   -2.7544    2.7004    0.1074 C   0  0  0  0  0  0  0  0  0  0  0  0
   -1.8962    3.5655    0.1349 O   0  0  0  0  0  0  0  0  0  0  0  0
    4.4687    0.5108   -0.0262 H   0  0  0  0  0  0  0  0  0  0  0  0
    1.4673   -2.5704    0.0594 H   0  0  0  0  0  0  0  0  0  0  0  0
    3.8496   -1.8690    0.0696 H   0  0  0  0  0  0  0  0  0  0  0  0
   -1.4496   -2.5782   -0.0620 H   0  0  0  0  0  0  0  0  0  0  0  0
   -3.8331   -1.8944   -0.0605 H   0  0  0  0  0  0  0  0  0  0  0  0
   -4.4780    0.4386    0.0369 H   0  0  0  0  0  0  0  0  0  0  0  0
    4.1460    3.8965   -0.1833 H   0  0  0  0  0  0  0  0  0  0  0  0
   -4.7359    2.3466    0.1268 H   0  0  0  0  0  0  0  0  0  0  0  0
  1  2  2  0  0  0  0
  1  6  1  0  0  0  0
  1 20  1  0  0  0  0
  2  3  1  0  0  0  0
  2 15  1  0  0  0  0
  3  4  2  0  0  0  0
  3  7  1  0  0  0  0
  4  5  1  0  0  0  0
  4 10  1  0  0  0  0
  5  6  2  0  0  0  0
  5 21  1  0  0  0  0
  6 22  1  0  0  0  0
  7  9  1  0  0  0  0
  8  9  1  0  0  0  0
  8 13  2  0  0  0  0
  8 18  1  0  0  0  0
  9 10  2  0  0  0  0
 10 11  1  0  0  0  0
 11 12  2  0  0  0  0
 11 23  1  0  0  0  0
 12 13  1  0  0  0  0
 12 24  1  0  0  0  0
 13 25  1  0  0  0  0
 14 15  2  0  0  0  0
 15 16  1  0  0  0  0
 16 26  1  0  0  0  0
 17 18  1  0  0  0  0
 17 27  1  0  0  0  0
 18 19  2  0  0  0  0
M  END
>  <DRUGBANK_ID>
DB03682

>  <SECONDARY_ACCESSION_NUMBERS>
EXPT01120

>  <COMMON_NAME>
Dibenzofuran-4,6-Dicarboxylic Acid

>  <UNII>
RYR5HY07OV

$$$$
