
 OpenBabel10282417183D

 29 30  0  0  1  0  0  0  0  0999 V2000
   -4.2838    2.7856    3.1619 C   0  0  0  0  0  0  0  0  0  0  0  0
   -3.4789    3.3933    2.2054 C   0  0  0  0  0  0  0  0  0  0  0  0
   -3.0129    2.6592    1.1157 C   0  0  0  0  0  0  0  0  0  0  0  0
   -3.3531    1.3039    0.9687 C   0  0  0  0  0  0  0  0  0  0  0  0
   -4.1322    0.6934    1.9620 C   0  0  0  0  0  0  0  0  0  0  0  0
   -4.6131    1.4354    3.0432 C   0  0  0  0  0  0  0  0  0  0  0  0
   -2.8492    0.4874   -0.2115 C   0  0  2  0  0  0  0  0  0  0  0  0
   -1.3458    0.1991   -0.0388 C   0  0  0  0  0  0  0  0  0  0  0  0
   -0.9502   -1.1175   -0.6525 C   0  0  0  0  0  0  0  0  0  0  0  0
   -0.0722   -1.1536   -1.7304 C   0  0  0  0  0  0  0  0  0  0  0  0
    0.2720   -2.3873   -2.2719 C   0  0  0  0  0  0  0  0  0  0  0  0
   -0.2670   -3.5453   -1.7257 C   0  0  0  0  0  0  0  0  0  0  0  0
   -1.1237   -3.4228   -0.6459 C   0  0  0  0  0  0  0  0  0  0  0  0
   -1.4683   -2.2403   -0.0926 N   0  0  0  0  0  0  0  0  0  0  0  0
   -3.1232    1.1818   -1.4865 N   0  0  0  0  0  0  0  0  0  0  0  0
   -4.6479    3.3608    4.0092 H   0  0  0  0  0  0  0  0  0  0  0  0
   -3.2083    4.4418    2.3016 H   0  0  0  0  0  0  0  0  0  0  0  0
   -2.3760    3.1515    0.3883 H   0  0  0  0  0  0  0  0  0  0  0  0
   -4.3626   -0.3705    1.9072 H   0  0  0  0  0  0  0  0  0  0  0  0
   -5.2399    0.9611    3.7921 H   0  0  0  0  0  0  0  0  0  0  0  0
   -3.4205   -0.4493   -0.2495 H   0  0  0  0  0  0  0  0  0  0  0  0
   -0.7493    1.0171   -0.4651 H   0  0  0  0  0  0  0  0  0  0  0  0
   -1.0688    0.1577    1.0230 H   0  0  0  0  0  0  0  0  0  0  0  0
    0.3336   -0.2383   -2.1474 H   0  0  0  0  0  0  0  0  0  0  0  0
    0.9515   -2.4401   -3.1168 H   0  0  0  0  0  0  0  0  0  0  0  0
   -0.0255   -4.5204   -2.1322 H   0  0  0  0  0  0  0  0  0  0  0  0
   -1.5712   -4.2974   -0.1832 H   0  0  0  0  0  0  0  0  0  0  0  0
   -4.1204    1.3935   -1.5205 H   0  0  0  0  0  0  0  0  0  0  0  0
   -2.6486    2.0810   -1.4927 H   0  0  0  0  0  0  0  0  0  0  0  0
  1  2  2  0  0  0  0
  1  6  1  0  0  0  0
  1 16  1  0  0  0  0
  2  3  1  0  0  0  0
  2 17  1  0  0  0  0
  3  4  2  0  0  0  0
  3 18  1  0  0  0  0
  4  5  1  0  0  0  0
  5  6  2  0  0  0  0
  5 19  1  0  0  0  0
  6 20  1  0  0  0  0
  7 15  1  0  0  0  0
  7 21  1  6  0  0  0
  7  8  1  0  0  0  0
  7  4  1  0  0  0  0
  8  9  1  0  0  0  0
  8 22  1  0  0  0  0
  8 23  1  0  0  0  0
  9 10  2  0  0  0  0
  9 14  1  0  0  0  0
 10 11  1  0  0  0  0
 10 24  1  0  0  0  0
 11 12  2  0  0  0  0
 11 25  1  0  0  0  0
 12 13  1  0  0  0  0
 12 26  1  0  0  0  0
 13 14  2  0  0  0  0
 13 27  1  0  0  0  0
 15 28  1  0  0  0  0
 15 29  1  0  0  0  0
M  END
>  <DRUGBANK_ID>
DB11889

>  <COMMON_NAME>
Lanicemine

>  <CAS_NUMBER>
153322-05-5

>  <UNII>
9TMU325RK3

>  <SYNONYMS>
Lanicemine

$$$$
