
 OpenBabel10282417183D

 60 62  0  0  0  0  0  0  0  0999 V2000
    1.9903   -1.3461    0.1356 C   0  0  0  0  0  0  0  0  0  0  0  0
    2.3206   -0.0674    0.1616 N   0  0  0  0  0  0  0  0  0  0  0  0
   -0.3149   -0.8895    0.0200 C   0  0  0  0  0  0  0  0  0  0  0  0
   -0.0265    0.4737    0.0153 C   0  0  0  0  0  0  0  0  0  0  0  0
    0.7192   -1.7674    0.0311 N   0  0  0  0  0  0  0  0  0  0  0  0
    1.3285    0.8182    0.0700 C   0  0  0  0  0  0  0  0  0  0  0  0
   -1.6913   -1.2620    0.0067 C   0  0  0  0  0  0  0  0  0  0  0  0
   -2.7386   -0.2719    0.0015 C   0  0  0  0  0  0  0  0  0  0  0  0
    3.0154   -2.2126   -0.0778 N   0  0  0  0  0  0  0  0  0  0  0  0
    6.3016   -4.6218   -1.2026 C   0  0  0  0  0  0  0  0  0  0  0  0
    5.3532   -3.5786   -1.0669 N   0  0  0  0  0  0  0  0  0  0  0  0
   -1.0569    1.4410   -0.0148 C   0  0  0  0  0  0  0  0  0  0  0  0
   -2.4012    1.0959   -0.0104 C   0  0  0  0  0  0  0  0  0  0  0  0
    6.1904   -5.5714   -2.1926 O   0  0  0  0  0  0  0  0  0  0  0  0
    4.0579   -2.6086    0.8744 C   0  0  0  0  0  0  0  0  0  0  0  0
    2.8379   -3.0970   -1.1903 C   0  0  0  0  0  0  0  0  0  0  0  0
    5.4326   -2.7239    0.1342 C   0  0  0  0  0  0  0  0  0  0  0  0
    4.2270   -3.1131   -1.9308 C   0  0  0  0  0  0  0  0  0  0  0  0
    7.1714   -4.8050   -0.3684 O   0  0  0  0  0  0  0  0  0  0  0  0
    1.7805    2.1119   -0.0853 N   0  0  0  0  0  0  0  0  0  0  0  0
    3.7863   -6.0610   -2.5780 C   0  0  0  0  0  0  0  0  0  0  0  0
   -2.1319   -2.5850    0.0137 O   0  0  0  0  0  0  0  0  0  0  0  0
   -4.0355   -0.7605    0.0132 O   0  0  0  0  0  0  0  0  0  0  0  0
    5.1648   -5.6991   -3.1882 C   0  0  0  0  0  0  0  0  0  0  0  0
   -3.3876    2.0440   -0.0092 O   0  0  0  0  0  0  0  0  0  0  0  0
    3.5351   -5.4422   -1.3365 O   0  0  0  0  0  0  0  0  0  0  0  0
    2.6597   -5.6559   -3.5405 C   0  0  0  0  0  0  0  0  0  0  0  0
    3.6577   -7.4589   -2.0341 C   0  0  0  0  0  0  0  0  0  0  0  0
   -1.1583   -3.6334    0.0230 C   0  0  0  0  0  0  0  0  0  0  0  0
   -5.1161    0.1742    0.0165 C   0  0  0  0  0  0  0  0  0  0  0  0
   -3.0720    3.4299   -0.0155 C   0  0  0  0  0  0  0  0  0  0  0  0
   -0.7831    2.4876   -0.0183 H   0  0  0  0  0  0  0  0  0  0  0  0
    4.1370   -1.9045    1.7050 H   0  0  0  0  0  0  0  0  0  0  0  0
    3.8189   -3.5984    1.2956 H   0  0  0  0  0  0  0  0  0  0  0  0
    2.4408   -3.9987   -0.7152 H   0  0  0  0  0  0  0  0  0  0  0  0
    2.0573   -2.8313   -1.9130 H   0  0  0  0  0  0  0  0  0  0  0  0
    5.7086   -1.7312   -0.2382 H   0  0  0  0  0  0  0  0  0  0  0  0
    6.2183   -3.0548    0.8185 H   0  0  0  0  0  0  0  0  0  0  0  0
    4.4782   -2.0906   -2.2323 H   0  0  0  0  0  0  0  0  0  0  0  0
    4.1574   -3.6280   -2.8663 H   0  0  0  0  0  0  0  0  0  0  0  0
    1.1981    2.9137    0.0666 H   0  0  0  0  0  0  0  0  0  0  0  0
    2.7821    2.1957    0.0386 H   0  0  0  0  0  0  0  0  0  0  0  0
    5.2200   -4.7946   -3.8049 H   0  0  0  0  0  0  0  0  0  0  0  0
    5.4470   -6.4879   -3.8970 H   0  0  0  0  0  0  0  0  0  0  0  0
    4.3510   -5.3445   -0.8187 H   0  0  0  0  0  0  0  0  0  0  0  0
    2.6169   -6.3222   -4.4019 H   0  0  0  0  0  0  0  0  0  0  0  0
    1.6895   -5.6279   -3.0324 H   0  0  0  0  0  0  0  0  0  0  0  0
    2.7865   -4.6396   -3.9433 H   0  0  0  0  0  0  0  0  0  0  0  0
    3.7165   -8.2242   -2.7945 H   0  0  0  0  0  0  0  0  0  0  0  0
    4.4224   -7.6120   -1.2579 H   0  0  0  0  0  0  0  0  0  0  0  0
    2.6965   -7.5328   -1.4975 H   0  0  0  0  0  0  0  0  0  0  0  0
   -0.5510   -3.6236   -0.8897 H   0  0  0  0  0  0  0  0  0  0  0  0
   -0.5425   -3.6051    0.9296 H   0  0  0  0  0  0  0  0  0  0  0  0
   -1.6755   -4.5989    0.0364 H   0  0  0  0  0  0  0  0  0  0  0  0
   -5.1050    0.7924    0.9229 H   0  0  0  0  0  0  0  0  0  0  0  0
   -5.1171    0.7821   -0.8967 H   0  0  0  0  0  0  0  0  0  0  0  0
   -6.0654   -0.3686    0.0258 H   0  0  0  0  0  0  0  0  0  0  0  0
   -2.5214    3.7165    0.8859 H   0  0  0  0  0  0  0  0  0  0  0  0
   -2.5293    3.7081   -0.9240 H   0  0  0  0  0  0  0  0  0  0  0  0
   -4.0161    3.9862   -0.0136 H   0  0  0  0  0  0  0  0  0  0  0  0
  2  1  1  0  0  0  0
  3  5  1  0  0  0  0
  4  3  2  0  0  0  0
  5  1  2  0  0  0  0
  6  2  2  0  0  0  0
  6  4  1  0  0  0  0
  7  3  1  0  0  0  0
  8  7  2  0  0  0  0
  9  1  1  0  0  0  0
 10 11  1  0  0  0  0
 11 18  1  0  0  0  0
 12  4  1  0  0  0  0
 12 32  1  0  0  0  0
 13  8  1  0  0  0  0
 13 12  2  0  0  0  0
 14 10  1  0  0  0  0
 15  9  1  0  0  0  0
 15 33  1  0  0  0  0
 15 34  1  0  0  0  0
 16  9  1  0  0  0  0
 16 35  1  0  0  0  0
 16 36  1  0  0  0  0
 17 15  1  0  0  0  0
 17 11  1  0  0  0  0
 17 37  1  0  0  0  0
 17 38  1  0  0  0  0
 18 16  1  0  0  0  0
 18 39  1  0  0  0  0
 18 40  1  0  0  0  0
 19 10  2  0  0  0  0
 20  6  1  0  0  0  0
 20 41  1  0  0  0  0
 20 42  1  0  0  0  0
 21 24  1  0  0  0  0
 22  7  1  0  0  0  0
 23  8  1  0  0  0  0
 24 14  1  0  0  0  0
 24 43  1  0  0  0  0
 24 44  1  0  0  0  0
 25 13  1  0  0  0  0
 26 21  1  0  0  0  0
 26 45  1  0  0  0  0
 27 21  1  0  0  0  0
 27 46  1  0  0  0  0
 27 47  1  0  0  0  0
 27 48  1  0  0  0  0
 28 21  1  0  0  0  0
 28 49  1  0  0  0  0
 28 50  1  0  0  0  0
 28 51  1  0  0  0  0
 29 22  1  0  0  0  0
 29 52  1  0  0  0  0
 29 53  1  0  0  0  0
 29 54  1  0  0  0  0
 30 23  1  0  0  0  0
 30 55  1  0  0  0  0
 30 56  1  0  0  0  0
 30 57  1  0  0  0  0
 31 25  1  0  0  0  0
 31 58  1  0  0  0  0
 31 59  1  0  0  0  0
 31 60  1  0  0  0  0
M  END
>  <DRUGBANK_ID>
DB09206

>  <COMMON_NAME>
Trimazosin

>  <CAS_NUMBER>
35795-16-5

>  <UNII>
31L760807H

>  <SYNONYMS>
Trimazosin

$$$$
