
 OpenBabel10282417123D

 27 27  0  0  0  0  0  0  0  0999 V2000
    1.2545    0.8177    0.1275 O   0  0  0  0  0  0  0  0  0  0  0  0
    2.3929    0.3502    0.1177 C   0  0  0  0  0  0  0  0  0  0  0  0
    3.3011    0.9206    0.9248 O   0  0  0  0  0  0  0  0  0  0  0  0
    2.9221   -0.7895   -0.7930 C   0  0  0  0  0  0  0  0  0  0  0  0
    2.5279   -2.2667   -0.5026 C   0  0  0  0  0  0  0  0  0  0  0  0
    1.0403   -2.6346   -0.7527 C   0  0  0  0  0  0  0  0  0  0  0  0
    0.1648   -1.5240   -0.2217 C   0  0  0  0  0  0  0  0  0  0  0  0
   -1.3205   -1.7142   -0.1919 C   0  0  0  0  0  0  0  0  0  0  0  0
   -1.6561   -3.0103    0.4988 C   0  0  0  0  0  0  0  0  0  0  0  0
   -0.8882   -4.1638   -0.1460 C   0  0  0  0  0  0  0  0  0  0  0  0
    0.6341   -3.9620   -0.1046 C   0  0  0  0  0  0  0  0  0  0  0  0
    4.2224    0.6723    0.7562 H   0  0  0  0  0  0  0  0  0  0  0  0
    2.6541   -0.5495   -1.8296 H   0  0  0  0  0  0  0  0  0  0  0  0
    4.0169   -0.7389   -0.7592 H   0  0  0  0  0  0  0  0  0  0  0  0
    3.1329   -2.9240   -1.1487 H   0  0  0  0  0  0  0  0  0  0  0  0
    2.8135   -2.5187    0.5254 H   0  0  0  0  0  0  0  0  0  0  0  0
    0.8757   -2.7113   -1.8369 H   0  0  0  0  0  0  0  0  0  0  0  0
    0.4903   -1.3085    0.8058 H   0  0  0  0  0  0  0  0  0  0  0  0
    0.3003   -0.6958   -0.9119 H   0  0  0  0  0  0  0  0  0  0  0  0
   -1.7640   -0.8578    0.3323 H   0  0  0  0  0  0  0  0  0  0  0  0
   -1.6974   -1.6965   -1.2193 H   0  0  0  0  0  0  0  0  0  0  0  0
   -1.3981   -2.9354    1.5629 H   0  0  0  0  0  0  0  0  0  0  0  0
   -2.7357   -3.1705    0.4314 H   0  0  0  0  0  0  0  0  0  0  0  0
   -1.1489   -5.0942    0.3650 H   0  0  0  0  0  0  0  0  0  0  0  0
   -1.2056   -4.2563   -1.1919 H   0  0  0  0  0  0  0  0  0  0  0  0
    1.1313   -4.7948   -0.6158 H   0  0  0  0  0  0  0  0  0  0  0  0
    0.9678   -3.9813    0.9404 H   0  0  0  0  0  0  0  0  0  0  0  0
  1  2  2  0  0  0  0
  2  3  1  0  0  0  0
  2  4  1  0  0  0  0
  3 12  1  0  0  0  0
  4  5  1  0  0  0  0
  4 13  1  0  0  0  0
  4 14  1  0  0  0  0
  5  6  1  0  0  0  0
  5 15  1  0  0  0  0
  5 16  1  0  0  0  0
  6  7  1  0  0  0  0
  6 17  1  0  0  0  0
  7  8  1  0  0  0  0
  7 18  1  0  0  0  0
  7 19  1  0  0  0  0
  8  9  1  0  0  0  0
  8 20  1  0  0  0  0
  8 21  1  0  0  0  0
  9 10  1  0  0  0  0
  9 22  1  0  0  0  0
  9 23  1  0  0  0  0
 10 11  1  0  0  0  0
 10 24  1  0  0  0  0
 10 25  1  0  0  0  0
 11  6  1  0  0  0  0
 11 26  1  0  0  0  0
 11 27  1  0  0  0  0
M  END
>  <DRUGBANK_ID>
DB02242

>  <SECONDARY_ACCESSION_NUMBERS>
EXPT01069

>  <COMMON_NAME>
Cyclohexanepropanoic acid

>  <CAS_NUMBER>
701-97-3

>  <UNII>
U36W9HNV6D

>  <SYNONYMS>
3-Cyclohexanepropionic acid; 3-Cyclohexylpropanoic acid; 3-Cyclohexylpropionic acid

$$$$
