IPL
 OpenBabel10282417133D

 31 32  0  0  0  0  0  0  0  0999 V2000
   -1.3565    1.1153    0.1170 N   0  0  0  0  0  0  0  0  0  0  0  0
   -2.1471    0.0263    0.2740 C   0  0  0  0  0  0  0  0  0  0  0  0
   -1.4001   -1.1546    0.2457 C   0  0  0  0  0  0  0  0  0  0  0  0
    1.1447   -1.3872    0.0381 C   0  0  0  0  0  0  0  0  0  0  0  0
    2.3152   -0.6455   -0.0306 C   0  0  0  0  0  0  0  0  0  0  0  0
    2.2824    0.7510   -0.0423 C   0  0  0  0  0  0  0  0  0  0  0  0
    1.0860    1.4608   -0.0021 C   0  0  0  0  0  0  0  0  0  0  0  0
   -0.0653    0.6988    0.0817 C   0  0  0  0  0  0  0  0  0  0  0  0
   -0.0658   -0.6984    0.1272 C   0  0  0  0  0  0  0  0  0  0  0  0
   -4.2352   -2.1802    0.9160 C   0  0  0  0  0  0  0  0  0  0  0  0
   -2.9380   -2.9457    1.2118 C   0  0  0  0  0  0  0  0  0  0  0  0
   -1.8250   -2.6366    0.2155 C   0  0  0  0  0  0  0  0  0  0  0  0
   -4.6533   -1.7155   -1.7916 P   0  0  0  0  0  0  0  0  0  0  0  0
   -3.4009   -1.0832   -1.4644 O   0  0  0  0  0  0  0  0  0  0  0  0
   -5.3923   -3.0434   -2.3639 O   0  0  0  0  0  0  0  0  0  0  0  0
   -3.6514   -2.2827   -2.9770 O   0  0  0  0  0  0  0  0  0  0  0  0
   -4.7798   -2.5751   -0.3697 O   0  0  0  0  0  0  0  0  0  0  0  0
   -1.7001    2.0611    0.0105 H   0  0  0  0  0  0  0  0  0  0  0  0
   -3.2006    0.2373    0.1863 H   0  0  0  0  0  0  0  0  0  0  0  0
    1.1531   -2.4714    0.0400 H   0  0  0  0  0  0  0  0  0  0  0  0
    3.2578   -1.1767   -0.0688 H   0  0  0  0  0  0  0  0  0  0  0  0
    3.2109    1.3052   -0.0876 H   0  0  0  0  0  0  0  0  0  0  0  0
    1.0419    2.5433   -0.0181 H   0  0  0  0  0  0  0  0  0  0  0  0
   -4.9484   -2.4231    1.7201 H   0  0  0  0  0  0  0  0  0  0  0  0
   -4.1322   -1.1068    1.0629 H   0  0  0  0  0  0  0  0  0  0  0  0
   -3.1718   -4.0193    1.1940 H   0  0  0  0  0  0  0  0  0  0  0  0
   -2.5533   -2.7255    2.2160 H   0  0  0  0  0  0  0  0  0  0  0  0
   -2.1178   -3.0079   -0.7786 H   0  0  0  0  0  0  0  0  0  0  0  0
   -0.9584   -3.2802    0.4414 H   0  0  0  0  0  0  0  0  0  0  0  0
   -5.2830   -3.7076   -1.6604 H   0  0  0  0  0  0  0  0  0  0  0  0
   -3.4418   -1.5294   -3.5813 H   0  0  0  0  0  0  0  0  0  0  0  0
  1  2  1  0  0  0  0
  1  8  1  0  0  0  0
  1 18  1  0  0  0  0
  2  3  2  0  0  0  0
  2 19  1  0  0  0  0
  3  9  1  0  0  0  0
  3 12  1  0  0  0  0
  4  5  2  0  0  0  0
  4  9  1  0  0  0  0
  4 20  1  0  0  0  0
  5  6  1  0  0  0  0
  5 21  1  0  0  0  0
  6  7  2  0  0  0  0
  6 22  1  0  0  0  0
  7  8  1  0  0  0  0
  7 23  1  0  0  0  0
  8  9  2  0  0  0  0
 10 11  1  0  0  0  0
 10 17  1  0  0  0  0
 10 24  1  0  0  0  0
 10 25  1  0  0  0  0
 11 12  1  0  0  0  0
 11 26  1  0  0  0  0
 11 27  1  0  0  0  0
 12 28  1  0  0  0  0
 12 29  1  0  0  0  0
 13 14  2  0  0  0  0
 13 15  1  0  0  0  0
 13 16  1  0  0  0  0
 13 17  1  0  0  0  0
 15 30  1  0  0  0  0
 16 31  1  0  0  0  0
M  END
>  <DRUGBANK_ID>
DB03171

>  <SECONDARY_ACCESSION_NUMBERS>
EXPT01918

>  <COMMON_NAME>
Indole-3-Propanol Phosphate

>  <UNII>
KO9J17S3FI

$$$$
