EPJ
 OpenBabel10282417163D

 27 29  0  0  0  0  0  0  0  0999 V2000
   -1.2244    0.8368    0.5185 C   0  0  1  0  0  0  0  0  0  0  0  0
   -1.2873   -0.7118    0.4989 C   0  0  0  0  0  0  0  0  0  0  0  0
   -0.0273   -1.0990   -0.2841 C   0  0  2  0  0  0  0  0  0  0  0  0
    1.2309   -0.8267    0.5444 C   0  0  0  0  0  0  0  0  0  0  0  0
    1.3011    0.7002    0.5554 C   0  0  0  0  0  0  0  0  0  0  0  0
    0.0795    1.0967   -0.2756 C   0  0  1  0  0  0  0  0  0  0  0  0
    0.0235    0.0005   -1.2629 N   0  0  0  0  0  0  0  0  0  0  0  0
   -2.4824    1.4815   -0.0322 C   0  0  0  0  0  0  0  0  0  0  0  0
   -3.7185    1.2541    0.5846 C   0  0  0  0  0  0  0  0  0  0  0  0
   -4.8693    1.8623    0.0869 C   0  0  0  0  0  0  0  0  0  0  0  0
   -4.7389    2.6942   -1.0112 C   0  0  0  0  0  0  0  0  0  0  0  0
   -6.0997    3.4889   -1.6856 Cl  0  0  0  0  0  0  0  0  0  0  0  0
   -3.5784    2.9525   -1.6339 N   0  0  0  0  0  0  0  0  0  0  0  0
   -2.4830    2.3339   -1.1381 C   0  0  0  0  0  0  0  0  0  0  0  0
   -1.1040    1.1924    1.5510 H   0  0  0  0  0  0  0  0  0  0  0  0
   -0.0679   -2.1029   -0.7128 H   0  0  0  0  0  0  0  0  0  0  0  0
    0.1883    2.0974   -0.6964 H   0  0  0  0  0  0  0  0  0  0  0  0
   -1.2780   -1.1264    1.5137 H   0  0  0  0  0  0  0  0  0  0  0  0
   -2.1823   -1.0863   -0.0126 H   0  0  0  0  0  0  0  0  0  0  0  0
    1.1711   -1.2382    1.5563 H   0  0  0  0  0  0  0  0  0  0  0  0
    2.1219   -1.2354    0.0537 H   0  0  0  0  0  0  0  0  0  0  0  0
    2.2252    1.0416    0.0743 H   0  0  0  0  0  0  0  0  0  0  0  0
    1.2682    1.1107    1.5692 H   0  0  0  0  0  0  0  0  0  0  0  0
    0.8864   -0.0436   -1.8046 H   0  0  0  0  0  0  0  0  0  0  0  0
   -3.7941    0.5967    1.4482 H   0  0  0  0  0  0  0  0  0  0  0  0
   -5.8347    1.6903    0.5443 H   0  0  0  0  0  0  0  0  0  0  0  0
   -1.5813    2.5626   -1.6957 H   0  0  0  0  0  0  0  0  0  0  0  0
  1  2  1  0  0  0  0
  1  6  1  0  0  0  0
  1  8  1  0  0  0  0
  1 15  1  1  0  0  0
  2  3  1  0  0  0  0
  2 18  1  0  0  0  0
  2 19  1  0  0  0  0
  3  4  1  0  0  0  0
  3  7  1  0  0  0  0
  3 16  1  6  0  0  0
  4  5  1  0  0  0  0
  4 20  1  0  0  0  0
  4 21  1  0  0  0  0
  5  6  1  0  0  0  0
  5 22  1  0  0  0  0
  5 23  1  0  0  0  0
  6  7  1  0  0  0  0
  6 17  1  6  0  0  0
  7 24  1  0  0  0  0
  8  9  2  0  0  0  0
  8 14  1  0  0  0  0
  9 10  1  0  0  0  0
  9 25  1  0  0  0  0
 10 11  2  0  0  0  0
 10 26  1  0  0  0  0
 11 12  1  0  0  0  0
 11 13  1  0  0  0  0
 13 14  2  0  0  0  0
 14 27  1  0  0  0  0
M  END
>  <DRUGBANK_ID>
DB07720

>  <COMMON_NAME>
Epibatidine

>  <CAS_NUMBER>
140111-52-0

>  <UNII>
M6K314F1XX

>  <SYNONYMS>
(+)-epibatidine; (1R,2R,4S)-epibatidine

$$$$
