
 OpenBabel10282417133D

 12 11  0  0  0  0  0  0  0  0999 V2000
    1.0000   -0.0518    0.0855 C   0  0  0  0  0  0  0  0  0  0  0  0
    1.0000    3.1167   -0.2315 C   0  0  0  0  0  0  0  0  0  0  0  0
    0.3500    1.6239    0.8417 As  0  0  0  0  0  0  0  0  0  0  0  0
   -1.5000    1.6239    0.8417 O   0  0  0  0  0  0  0  0  0  0  0  0
    0.9019    1.7793    2.3950 O   0  0  0  0  0  0  0  0  0  0  0  0
    0.6434   -0.1522   -0.9183 H   0  0  0  0  0  0  0  0  0  0  0  0
    0.6434   -0.8709    0.6744 H   0  0  0  0  0  0  0  0  0  0  0  0
    2.0700   -0.0518    0.0855 H   0  0  0  0  0  0  0  0  0  0  0  0
    0.6433    3.0163   -1.2353 H   0  0  0  0  0  0  0  0  0  0  0  0
    0.6434    4.0362    0.1835 H   0  0  0  0  0  0  0  0  0  0  0  0
    2.0700    3.1167   -0.2315 H   0  0  0  0  0  0  0  0  0  0  0  0
   -1.8333    1.5301   -0.0964 H   0  0  0  0  0  0  0  0  0  0  0  0
  1  6  1  0  0  0  0
  1  7  1  0  0  0  0
  1  8  1  0  0  0  0
  2  9  1  0  0  0  0
  2 10  1  0  0  0  0
  2 11  1  0  0  0  0
  3  1  1  0  0  0  0
  3  2  1  0  0  0  0
  4  3  1  0  0  0  0
  4 12  1  0  0  0  0
  5  3  2  0  0  0  0
M  END
>  <DRUGBANK_ID>
DB02994

>  <SECONDARY_ACCESSION_NUMBERS>
EXPT00823

>  <COMMON_NAME>
Cacodylic acid

>  <CAS_NUMBER>
75-60-5

>  <UNII>
AJ2HL7EU8K

>  <SYNONYMS>
Dimethylarsenic acid; Dimethylarsinic acid; Hydroxydimethylarsine oxide

$$$$
