DT2
 OpenBabel10282417163D

 48 51  0  0  0  0  0  0  0  0999 V2000
    1.0214   -0.1377    0.0838 O   0  0  0  0  0  0  0  0  0  0  0  0
    2.4605    0.0223    0.0883 S   0  0  0  0  0  0  0  0  0  0  0  0
    3.1032    1.2298    0.5380 O   0  0  0  0  0  0  0  0  0  0  0  0
    3.0886   -1.1953    1.0773 N   0  0  0  0  0  0  0  0  0  0  0  0
    3.0697   -0.3727   -1.5282 C   0  0  0  0  0  0  0  0  0  0  0  0
    3.6272    0.6324   -2.3283 C   0  0  0  0  0  0  0  0  0  0  0  0
    4.1438    0.3233   -3.6000 C   0  0  0  0  0  0  0  0  0  0  0  0
    4.1414   -0.9955   -4.0685 C   0  0  0  0  0  0  0  0  0  0  0  0
    3.6368   -1.9883   -3.2067 C   0  0  0  0  0  0  0  0  0  0  0  0
    3.0503   -1.6855   -1.9774 C   0  0  0  0  0  0  0  0  0  0  0  0
    4.5643   -1.3112   -5.3772 N   0  0  0  0  0  0  0  0  0  0  0  0
    4.4776   -2.5766   -5.9549 C   0  0  0  0  0  0  0  0  0  0  0  0
    5.6479   -3.2340   -6.4028 N   0  0  0  0  0  0  0  0  0  0  0  0
    6.9457   -2.8143   -6.4413 N   0  0  0  0  0  0  0  0  0  0  0  0
    7.5740   -3.9000   -6.9000 C   0  0  0  0  0  0  0  0  0  0  0  0
    5.5910   -4.5528   -6.8589 C   0  0  0  0  0  0  0  0  0  0  0  0
    6.7947   -4.9753   -7.1687 N   0  0  0  0  0  0  0  0  0  0  0  0
    4.4279   -5.2360   -6.9141 N   0  0  0  0  0  0  0  0  0  0  0  0
    3.3267   -4.6498   -6.5334 C   0  0  0  0  0  0  0  0  0  0  0  0
    3.3088   -3.2436   -6.0443 C   0  0  0  0  0  0  0  0  0  0  0  0
    2.1438   -5.3554   -6.5650 N   0  0  0  0  0  0  0  0  0  0  0  0
    2.0391   -6.7380   -7.0233 C   0  0  0  0  0  0  0  0  0  0  0  0
    2.8627   -7.6678   -6.1183 C   0  0  0  0  0  0  0  0  0  0  0  0
    2.9117   -9.0925   -6.6483 C   0  0  0  0  0  0  0  0  0  0  0  0
    3.3957   -9.1273   -8.0944 C   0  0  0  0  0  0  0  0  0  0  0  0
    2.5101   -8.2727   -8.9955 C   0  0  0  0  0  0  0  0  0  0  0  0
    2.4369   -6.8353   -8.5042 C   0  0  0  0  0  0  0  0  0  0  0  0
    4.1070   -1.1474    1.1247 H   0  0  0  0  0  0  0  0  0  0  0  0
    2.6858   -1.0848    2.0125 H   0  0  0  0  0  0  0  0  0  0  0  0
    3.6482    1.6617   -1.9752 H   0  0  0  0  0  0  0  0  0  0  0  0
    4.5579    1.1279   -4.2043 H   0  0  0  0  0  0  0  0  0  0  0  0
    3.7026   -3.0370   -3.4819 H   0  0  0  0  0  0  0  0  0  0  0  0
    2.5899   -2.4803   -1.3964 H   0  0  0  0  0  0  0  0  0  0  0  0
    5.0662   -0.6088   -5.9127 H   0  0  0  0  0  0  0  0  0  0  0  0
    8.6462   -3.9182   -7.0505 H   0  0  0  0  0  0  0  0  0  0  0  0
    2.3684   -2.8240   -5.7145 H   0  0  0  0  0  0  0  0  0  0  0  0
    1.2840   -4.9217   -6.2492 H   0  0  0  0  0  0  0  0  0  0  0  0
    0.9857   -7.0400   -6.9401 H   0  0  0  0  0  0  0  0  0  0  0  0
    3.8981   -7.3271   -6.0309 H   0  0  0  0  0  0  0  0  0  0  0  0
    2.4625   -7.6511   -5.0975 H   0  0  0  0  0  0  0  0  0  0  0  0
    3.5874   -9.6847   -6.0210 H   0  0  0  0  0  0  0  0  0  0  0  0
    1.9167   -9.5447   -6.5773 H   0  0  0  0  0  0  0  0  0  0  0  0
    4.4315   -8.7658   -8.1456 H   0  0  0  0  0  0  0  0  0  0  0  0
    3.3995  -10.1605   -8.4561 H   0  0  0  0  0  0  0  0  0  0  0  0
    2.9093   -8.2812  -10.0160 H   0  0  0  0  0  0  0  0  0  0  0  0
    1.5014   -8.6972   -9.0348 H   0  0  0  0  0  0  0  0  0  0  0  0
    1.7361   -6.2567   -9.1180 H   0  0  0  0  0  0  0  0  0  0  0  0
    3.4184   -6.3868   -8.6829 H   0  0  0  0  0  0  0  0  0  0  0  0
  1  2  2  0  0  0  0
  2  3  2  0  0  0  0
  2  4  1  0  0  0  0
  2  5  1  0  0  0  0
  4 28  1  0  0  0  0
  4 29  1  0  0  0  0
  5  6  2  0  0  0  0
  5 10  1  0  0  0  0
  6  7  1  0  0  0  0
  6 30  1  0  0  0  0
  7  8  2  0  0  0  0
  7 31  1  0  0  0  0
  8  9  1  0  0  0  0
  8 11  1  0  0  0  0
  9 10  2  0  0  0  0
  9 32  1  0  0  0  0
 10 33  1  0  0  0  0
 11 12  1  0  0  0  0
 11 34  1  0  0  0  0
 12 13  1  0  0  0  0
 12 20  2  0  0  0  0
 13 14  1  0  0  0  0
 13 16  1  0  0  0  0
 14 15  2  0  0  0  0
 15 17  1  0  0  0  0
 15 35  1  0  0  0  0
 16 17  2  0  0  0  0
 16 18  1  0  0  0  0
 18 19  2  0  0  0  0
 19 20  1  0  0  0  0
 19 21  1  0  0  0  0
 20 36  1  0  0  0  0
 21 22  1  0  0  0  0
 21 37  1  0  0  0  0
 22 23  1  0  0  0  0
 22 27  1  0  0  0  0
 22 38  1  0  0  0  0
 23 24  1  0  0  0  0
 23 39  1  0  0  0  0
 23 40  1  0  0  0  0
 24 25  1  0  0  0  0
 24 41  1  0  0  0  0
 24 42  1  0  0  0  0
 25 26  1  0  0  0  0
 25 43  1  0  0  0  0
 25 44  1  0  0  0  0
 26 27  1  0  0  0  0
 26 45  1  0  0  0  0
 26 46  1  0  0  0  0
 27 47  1  0  0  0  0
 27 48  1  0  0  0  0
M  END
>  <DRUGBANK_ID>
DB07686

>  <COMMON_NAME>
4-{[5-(CYCLOHEXYLAMINO)[1,2,4]TRIAZOLO[1,5-A]PYRIMIDIN-7-YL]AMINO}BENZENESULFONAMIDE

$$$$
