1436
 OpenBabel10282417113D

 73 75  0  0  1  0  0  0  0  0999 V2000
   -1.9343    1.5744   -1.9945 O   0  0  0  0  0  0  0  0  0  0  0  0
    1.3264   -1.1145   -2.8327 O   0  0  0  0  0  0  0  0  0  0  0  0
    4.1861    4.6476   -2.0773 C   0  0  2  0  0  0  0  0  0  0  0  0
    5.7046    4.9970   -2.1056 C   0  0  2  0  0  0  0  0  0  0  0  0
    4.2052    3.4807   -1.0619 C   0  0  1  0  0  0  0  0  0  0  0  0
    6.1876    4.7745   -0.6471 C   0  0  0  0  0  0  0  0  0  0  0  0
    5.0859    3.9935    0.0724 C   0  0  0  0  0  0  0  0  0  0  0  0
    3.6278    4.0733   -3.3988 C   0  0  0  0  0  0  0  0  0  0  0  0
    6.2287    6.3434   -2.6742 C   0  0  1  0  0  0  0  0  0  0  0  0
    2.7984    3.0224   -0.8459 C   0  0  0  0  0  0  0  0  0  0  0  0
    3.2560    5.7641   -1.5339 C   0  0  0  0  0  0  0  0  0  0  0  0
    2.2128    3.5896   -3.2817 C   0  0  0  0  0  0  0  0  0  0  0  0
    2.1337    2.6161   -2.1466 C   0  0  0  0  0  0  0  0  0  0  0  0
    6.6930    6.1780   -4.1380 C   0  0  0  0  0  0  0  0  0  0  0  0
    5.3534    7.5770   -2.4605 C   0  0  0  0  0  0  0  0  0  0  0  0
    2.1668    2.9581    0.3520 C   0  0  0  0  0  0  0  0  0  0  0  0
    5.6511    5.6976   -5.1516 C   0  0  0  0  0  0  0  0  0  0  0  0
    4.4330    6.6196   -5.3628 C   0  0  0  0  0  0  0  0  0  0  0  0
    0.8485    2.3874    0.5169 C   0  0  0  0  0  0  0  0  0  0  0  0
    4.8592    8.0435   -5.7132 C   0  0  0  0  0  0  0  0  0  0  0  0
    0.4088    1.2035    0.0157 C   0  0  0  0  0  0  0  0  0  0  0  0
   -1.0495    0.8272    0.1392 C   0  0  0  0  0  0  0  0  0  0  0  0
    1.2084    0.2621   -0.7995 C   0  0  0  0  0  0  0  0  0  0  0  0
    5.4646    8.0045   -7.1040 C   0  0  0  0  0  0  0  0  0  0  0  0
    3.6997    9.0251   -5.5999 C   0  0  0  0  0  0  0  0  0  0  0  0
   -1.6955    0.4132   -1.1950 C   0  0  2  0  0  0  0  0  0  0  0  0
    0.5748   -0.1159   -2.1427 C   0  0  2  0  0  0  0  0  0  0  0  0
   -0.8527   -0.6019   -1.9640 C   0  0  0  0  0  0  0  0  0  0  0  0
    2.4568   -0.1104   -0.4468 C   0  0  0  0  0  0  0  0  0  0  0  0
    6.2072    4.1974   -2.6776 H   0  0  0  0  0  0  0  0  0  0  0  0
    4.7423    2.6185   -1.4946 H   0  0  0  0  0  0  0  0  0  0  0  0
   -2.3687    1.2909   -2.8179 H   0  0  0  0  0  0  0  0  0  0  0  0
    1.4823   -1.8335   -2.2002 H   0  0  0  0  0  0  0  0  0  0  0  0
    6.3937    5.7145   -0.1275 H   0  0  0  0  0  0  0  0  0  0  0  0
    7.1211    4.1950   -0.6546 H   0  0  0  0  0  0  0  0  0  0  0  0
    4.5480    4.6645    0.7493 H   0  0  0  0  0  0  0  0  0  0  0  0
    5.4955    3.1776    0.6765 H   0  0  0  0  0  0  0  0  0  0  0  0
    4.2579    3.2487   -3.7622 H   0  0  0  0  0  0  0  0  0  0  0  0
    3.5521    4.8027   -4.1798 H   0  0  0  0  0  0  0  0  0  0  0  0
    7.1512    6.5804   -2.1238 H   0  0  0  0  0  0  0  0  0  0  0  0
    3.6415    6.1990   -0.6086 H   0  0  0  0  0  0  0  0  0  0  0  0
    3.0743    6.5508   -2.2591 H   0  0  0  0  0  0  0  0  0  0  0  0
    2.2450    5.4161   -1.3091 H   0  0  0  0  0  0  0  0  0  0  0  0
    1.8985    3.1002   -4.2121 H   0  0  0  0  0  0  0  0  0  0  0  0
    1.5202    4.4238   -3.1285 H   0  0  0  0  0  0  0  0  0  0  0  0
    2.6191    1.6949   -2.4907 H   0  0  0  0  0  0  0  0  0  0  0  0
    1.0632    2.4865   -2.0268 H   0  0  0  0  0  0  0  0  0  0  0  0
    7.1577    7.1077   -4.4812 H   0  0  0  0  0  0  0  0  0  0  0  0
    7.5118    5.4450   -4.1477 H   0  0  0  0  0  0  0  0  0  0  0  0
    5.0651    7.7100   -1.4159 H   0  0  0  0  0  0  0  0  0  0  0  0
    5.8422    8.4954   -2.7912 H   0  0  0  0  0  0  0  0  0  0  0  0
    4.4418    7.5429   -3.0359 H   0  0  0  0  0  0  0  0  0  0  0  0
    2.6402    3.3436    1.2472 H   0  0  0  0  0  0  0  0  0  0  0  0
    6.1414    5.5394   -6.1158 H   0  0  0  0  0  0  0  0  0  0  0  0
    5.3622    4.6808   -4.8977 H   0  0  0  0  0  0  0  0  0  0  0  0
    3.7990    6.2004   -6.1557 H   0  0  0  0  0  0  0  0  0  0  0  0
    3.7569    6.6461   -4.5075 H   0  0  0  0  0  0  0  0  0  0  0  0
    0.1671    3.0249    1.0806 H   0  0  0  0  0  0  0  0  0  0  0  0
    5.6216    8.4078   -5.0206 H   0  0  0  0  0  0  0  0  0  0  0  0
   -1.6232    1.6630    0.5609 H   0  0  0  0  0  0  0  0  0  0  0  0
   -1.1119   -0.0059    0.8474 H   0  0  0  0  0  0  0  0  0  0  0  0
    4.7352    7.6109   -7.8181 H   0  0  0  0  0  0  0  0  0  0  0  0
    5.7962    8.9924   -7.4180 H   0  0  0  0  0  0  0  0  0  0  0  0
    6.3400    7.3470   -7.1253 H   0  0  0  0  0  0  0  0  0  0  0  0
    3.3450    9.0955   -4.5636 H   0  0  0  0  0  0  0  0  0  0  0  0
    4.0259   10.0262   -5.8980 H   0  0  0  0  0  0  0  0  0  0  0  0
    2.8576    8.7234   -6.2267 H   0  0  0  0  0  0  0  0  0  0  0  0
   -2.6750   -0.0269   -0.9836 H   0  0  0  0  0  0  0  0  0  0  0  0
    0.5439    0.7357   -2.8294 H   0  0  0  0  0  0  0  0  0  0  0  0
   -0.8395   -1.5636   -1.4406 H   0  0  0  0  0  0  0  0  0  0  0  0
   -1.2831   -0.7857   -2.9565 H   0  0  0  0  0  0  0  0  0  0  0  0
    2.9296    0.2580    0.4576 H   0  0  0  0  0  0  0  0  0  0  0  0
    3.0942   -0.6656   -1.1266 H   0  0  0  0  0  0  0  0  0  0  0  0
  1 32  1  0  0  0  0
  2 33  1  0  0  0  0
  3  4  1  0  0  0  0
  3  5  1  0  0  0  0
  3  8  1  0  0  0  0
  3 11  1  1  0  0  0
  4  6  1  0  0  0  0
  4 30  1  6  0  0  0
  4  9  1  0  0  0  0
  5  7  1  0  0  0  0
  5 10  1  0  0  0  0
  5 31  1  6  0  0  0
  6  7  1  0  0  0  0
  6 34  1  0  0  0  0
  6 35  1  0  0  0  0
  7 36  1  0  0  0  0
  7 37  1  0  0  0  0
  8 12  1  0  0  0  0
  8 38  1  0  0  0  0
  8 39  1  0  0  0  0
  9 14  1  0  0  0  0
  9 15  1  0  0  0  0
  9 40  1  1  0  0  0
 10 13  1  0  0  0  0
 10 16  2  0  0  0  0
 11 41  1  0  0  0  0
 11 42  1  0  0  0  0
 11 43  1  0  0  0  0
 12 13  1  0  0  0  0
 12 44  1  0  0  0  0
 12 45  1  0  0  0  0
 13 46  1  0  0  0  0
 13 47  1  0  0  0  0
 14 17  1  0  0  0  0
 14 48  1  0  0  0  0
 14 49  1  0  0  0  0
 15 50  1  0  0  0  0
 15 51  1  0  0  0  0
 15 52  1  0  0  0  0
 16 19  1  0  0  0  0
 16 53  1  0  0  0  0
 17 18  1  0  0  0  0
 17 54  1  0  0  0  0
 17 55  1  0  0  0  0
 18 20  1  0  0  0  0
 18 56  1  0  0  0  0
 18 57  1  0  0  0  0
 19 21  2  0  0  0  0
 19 58  1  0  0  0  0
 20 24  1  0  0  0  0
 20 25  1  0  0  0  0
 20 59  1  0  0  0  0
 21 22  1  0  0  0  0
 21 23  1  0  0  0  0
 22 26  1  0  0  0  0
 22 60  1  0  0  0  0
 22 61  1  0  0  0  0
 23 27  1  0  0  0  0
 23 29  2  0  0  0  0
 24 62  1  0  0  0  0
 24 63  1  0  0  0  0
 24 64  1  0  0  0  0
 25 65  1  0  0  0  0
 25 66  1  0  0  0  0
 25 67  1  0  0  0  0
 26  1  1  0  0  0  0
 26 28  1  0  0  0  0
 26 68  1  1  0  0  0
 27  2  1  0  0  0  0
 27 28  1  0  0  0  0
 27 69  1  6  0  0  0
 28 70  1  0  0  0  0
 28 71  1  0  0  0  0
 29 72  1  0  0  0  0
 29 73  1  0  0  0  0
M  END
>  <DRUGBANK_ID>
DB01436

>  <COMMON_NAME>
Alfacalcidol

>  <CAS_NUMBER>
41294-56-8

>  <UNII>
URQ2517572

>  <SYNONYMS>
(5Z,7E)-9,10-seco-5,7,10(19)-cholestatrien-1α,3β-diol; 1-hydroxycholecalciferol; 1alpha-hydroxycholecalciferol; 1α-hydroxy-vitamin D3; 1α-hydroxycholecalciferol; 1α-hydroxyvitamin D3; 9,10-secocholesta-5,7,10(19)-triene-1α,3β-diol; Alfacalcidol; Alfacalcidolum

$$$$
