333
 OpenBabel10282417163D

 42 46  0  0  0  0  0  0  0  0999 V2000
    1.0500   -1.3868   -0.0207 C   0  0  0  0  0  0  0  0  0  0  0  0
   -0.1461   -0.6852   -0.0009 C   0  0  0  0  0  0  0  0  0  0  0  0
   -1.4003   -1.2188    0.0090 O   0  0  0  0  0  0  0  0  0  0  0  0
   -2.2112   -0.0232    0.0835 C   0  0  0  0  0  0  0  0  0  0  0  0
   -1.4414    1.1917    0.0073 O   0  0  0  0  0  0  0  0  0  0  0  0
   -0.1796    0.6893    0.0023 C   0  0  0  0  0  0  0  0  0  0  0  0
    0.9702    1.4394   -0.0122 C   0  0  0  0  0  0  0  0  0  0  0  0
    2.1888    0.7596   -0.0532 C   0  0  0  0  0  0  0  0  0  0  0  0
    2.2483   -0.6507   -0.0468 C   0  0  0  0  0  0  0  0  0  0  0  0
    3.4293   -1.3804   -0.1053 O   0  0  0  0  0  0  0  0  0  0  0  0
    4.6408   -0.7029   -0.0101 C   0  0  0  0  0  0  0  0  0  0  0  0
    5.4959   -0.8529   -1.0462 N   0  0  0  0  0  0  0  0  0  0  0  0
    4.9291    0.0548    1.1031 C   0  0  0  0  0  0  0  0  0  0  0  0
    6.0995    0.7662    1.0544 C   0  0  0  0  0  0  0  0  0  0  0  0
    6.9653    0.6899    0.0306 N   0  0  0  0  0  0  0  0  0  0  0  0
    6.6416   -0.1462   -0.9687 C   0  0  0  0  0  0  0  0  0  0  0  0
    7.5025   -0.2684   -2.0613 O   0  0  0  0  0  0  0  0  0  0  0  0
    8.7464    0.3267   -1.9896 C   0  0  0  0  0  0  0  0  0  0  0  0
    9.6718    0.0405   -0.9777 C   0  0  0  0  0  0  0  0  0  0  0  0
   10.9553    0.6051   -1.0056 C   0  0  0  0  0  0  0  0  0  0  0  0
    9.1222    1.1547   -3.0529 C   0  0  0  0  0  0  0  0  0  0  0  0
   10.3986    1.7285   -3.0853 C   0  0  0  0  0  0  0  0  0  0  0  0
   11.3033    1.4661   -2.0509 C   0  0  0  0  0  0  0  0  0  0  0  0
   12.5466    2.1317   -2.0320 N   0  0  0  0  0  0  0  0  0  0  0  0
   13.7943    1.5802   -1.8717 C   0  0  0  0  0  0  0  0  0  0  0  0
   14.6732    2.6396   -1.9248 C   0  0  0  0  0  0  0  0  0  0  0  0
   14.0029    3.8255   -2.0614 N   0  0  0  0  0  0  0  0  0  0  0  0
   12.7309    3.4913   -2.1266 C   0  0  0  0  0  0  0  0  0  0  0  0
    1.0481   -2.4719   -0.0301 H   0  0  0  0  0  0  0  0  0  0  0  0
   -2.9426   -0.0295   -0.7334 H   0  0  0  0  0  0  0  0  0  0  0  0
   -2.7531   -0.0233    1.0367 H   0  0  0  0  0  0  0  0  0  0  0  0
    0.9356    2.5221   -0.0070 H   0  0  0  0  0  0  0  0  0  0  0  0
    3.0851    1.3683   -0.1021 H   0  0  0  0  0  0  0  0  0  0  0  0
    4.2433    0.1504    1.9352 H   0  0  0  0  0  0  0  0  0  0  0  0
    6.3791    1.4545    1.8442 H   0  0  0  0  0  0  0  0  0  0  0  0
    9.3926   -0.6034   -0.1477 H   0  0  0  0  0  0  0  0  0  0  0  0
   11.6374    0.4165   -0.1799 H   0  0  0  0  0  0  0  0  0  0  0  0
    8.4204    1.3589   -3.8574 H   0  0  0  0  0  0  0  0  0  0  0  0
   10.6910    2.3296   -3.9446 H   0  0  0  0  0  0  0  0  0  0  0  0
   13.9551    0.5139   -1.8112 H   0  0  0  0  0  0  0  0  0  0  0  0
   15.7553    2.6127   -1.8797 H   0  0  0  0  0  0  0  0  0  0  0  0
   11.9034    4.1846   -2.1829 H   0  0  0  0  0  0  0  0  0  0  0  0
  1  9  2  0  0  0  0
  1  2  1  0  0  0  0
  1 29  1  0  0  0  0
  2  3  1  0  0  0  0
  2  6  2  0  0  0  0
  3  4  1  0  0  0  0
  4  5  1  0  0  0  0
  4 30  1  0  0  0  0
  4 31  1  0  0  0  0
  5  6  1  0  0  0  0
  6  7  1  0  0  0  0
  7  8  2  0  0  0  0
  7 32  1  0  0  0  0
  8  9  1  0  0  0  0
  8 33  1  0  0  0  0
  9 10  1  0  0  0  0
 10 11  1  0  0  0  0
 11 13  2  0  0  0  0
 11 12  1  0  0  0  0
 12 16  2  0  0  0  0
 13 14  1  0  0  0  0
 13 34  1  0  0  0  0
 14 15  2  0  0  0  0
 14 35  1  0  0  0  0
 15 16  1  0  0  0  0
 16 17  1  0  0  0  0
 17 18  1  0  0  0  0
 18 19  2  0  0  0  0
 18 21  1  0  0  0  0
 19 20  1  0  0  0  0
 19 36  1  0  0  0  0
 20 23  2  0  0  0  0
 20 37  1  0  0  0  0
 21 22  2  0  0  0  0
 21 38  1  0  0  0  0
 22 23  1  0  0  0  0
 22 39  1  0  0  0  0
 23 24  1  0  0  0  0
 24 25  1  0  0  0  0
 24 28  1  0  0  0  0
 25 26  2  0  0  0  0
 25 40  1  0  0  0  0
 26 27  1  0  0  0  0
 26 41  1  0  0  0  0
 27 28  2  0  0  0  0
 28 42  1  0  0  0  0
M  END
>  <DRUGBANK_ID>
DB07008

>  <COMMON_NAME>
4-(1,3-BENZODIOXOL-5-YLOXY)-2-[4-(1H-IMIDAZOL-1-YL)PHENOXY]PYRIMIDINE

$$$$
