3033968
 OpenBabel10282417163D

 49 52  0  0  1  0  0  0  0  0999 V2000
   -0.0370   -2.1118    2.4794 O   0  0  0  0  0  0  0  0  0  0  0  0
   -6.8403   -0.8399   -6.7284 O   0  0  0  0  0  0  0  0  0  0  0  0
   -0.1040   -1.8173   -0.2433 C   0  0  2  0  0  0  0  0  0  0  0  0
   -1.9672   -1.2428   -2.5839 C   0  0  1  0  0  0  0  0  0  0  0  0
   -1.2752   -2.1165   -1.5432 C   0  0  2  0  0  0  0  0  0  0  0  0
   -1.7545   -1.6296   -4.0158 C   0  0  2  0  0  0  0  0  0  0  0  0
    0.4182   -2.0596   -2.2215 C   0  0  0  0  0  0  0  0  0  0  0  0
   -0.2021   -1.3368   -3.9560 C   0  0  0  0  0  0  0  0  0  0  0  0
   -3.2589   -1.4090   -4.8637 C   0  0  2  0  0  0  0  0  0  0  0  0
   -1.0930   -1.4889    1.8022 C   0  0  2  0  0  0  0  0  0  0  0  0
   -3.4018   -1.2661   -2.4267 C   0  0  0  0  0  0  0  0  0  0  0  0
    0.8833   -0.3834   -0.9827 C   0  0  0  0  0  0  0  0  0  0  0  0
   -1.9108   -1.8224   -0.3438 C   0  0  0  0  0  0  0  0  0  0  0  0
   -3.8853   -0.0892   -4.8084 C   0  0  0  0  0  0  0  0  0  0  0  0
   -3.9754    0.0012   -3.2550 C   0  0  0  0  0  0  0  0  0  0  0  0
   -1.3767   -0.8649    0.5409 C   0  0  0  0  0  0  0  0  0  0  0  0
   -5.0137   -1.9751   -4.2505 C   0  0  0  0  0  0  0  0  0  0  0  0
    0.3425    0.6780   -2.0460 C   0  0  0  0  0  0  0  0  0  0  0  0
   -6.3330   -0.9210   -4.4356 C   0  0  0  0  0  0  0  0  0  0  0  0
   -4.6790   -0.0218   -5.9554 C   0  0  0  0  0  0  0  0  0  0  0  0
   -2.4008   -2.2474    1.9597 C   0  0  0  0  0  0  0  0  0  0  0  0
   -6.0840   -0.5510   -5.8140 C   0  0  0  0  0  0  0  0  0  0  0  0
   -3.5226   -2.8980    2.0949 C   0  0  0  0  0  0  0  0  0  0  0  0
    0.7378   -1.5364    2.4800 H   0  0  0  0  0  0  0  0  0  0  0  0
   -1.8116   -0.2078   -2.4551 H   0  0  0  0  0  0  0  0  0  0  0  0
   -1.2675   -3.1764   -2.0020 H   0  0  0  0  0  0  0  0  0  0  0  0
   -1.6183   -2.6402   -4.4013 H   0  0  0  0  0  0  0  0  0  0  0  0
    1.5217   -1.9830   -2.5221 H   0  0  0  0  0  0  0  0  0  0  0  0
    0.4027   -3.1136   -2.6811 H   0  0  0  0  0  0  0  0  0  0  0  0
    0.1696   -0.3407   -4.2728 H   0  0  0  0  0  0  0  0  0  0  0  0
    0.2755   -1.7634   -4.8985 H   0  0  0  0  0  0  0  0  0  0  0  0
   -2.7884   -1.1181   -5.8328 H   0  0  0  0  0  0  0  0  0  0  0  0
   -3.7176   -1.1598   -1.4072 H   0  0  0  0  0  0  0  0  0  0  0  0
   -3.5742   -2.3373   -2.6961 H   0  0  0  0  0  0  0  0  0  0  0  0
    1.2285    0.1988   -0.1759 H   0  0  0  0  0  0  0  0  0  0  0  0
    1.8660   -0.7118   -1.4324 H   0  0  0  0  0  0  0  0  0  0  0  0
   -2.0475   -2.9458   -0.2711 H   0  0  0  0  0  0  0  0  0  0  0  0
   -3.5033    0.9271   -2.9538 H   0  0  0  0  0  0  0  0  0  0  0  0
   -4.9672    0.0295   -2.8482 H   0  0  0  0  0  0  0  0  0  0  0  0
   -0.4299   -0.2370    0.6615 H   0  0  0  0  0  0  0  0  0  0  0  0
   -5.1911   -2.0369   -3.1433 H   0  0  0  0  0  0  0  0  0  0  0  0
   -5.3272   -2.9806   -4.5223 H   0  0  0  0  0  0  0  0  0  0  0  0
   -0.7119    0.8511   -2.0462 H   0  0  0  0  0  0  0  0  0  0  0  0
    0.7066    1.6560   -1.7849 H   0  0  0  0  0  0  0  0  0  0  0  0
    0.7050    0.6749   -3.0838 H   0  0  0  0  0  0  0  0  0  0  0  0
   -6.3601    0.0445   -3.8812 H   0  0  0  0  0  0  0  0  0  0  0  0
   -7.3377   -1.3066   -4.2290 H   0  0  0  0  0  0  0  0  0  0  0  0
   -4.3066   -0.4328   -6.9229 H   0  0  0  0  0  0  0  0  0  0  0  0
   -4.4381   -3.4307    2.2060 H   0  0  0  0  0  0  0  0  0  0  0  0
  1 24  1  0  0  0  0
  2 22  2  0  0  0  0
  3  5  1  0  0  0  0
  3  7  1  0  0  0  0
  3 10  1  0  0  0  0
  3 12  1  6  0  0  0
  4  5  1  0  0  0  0
  4  6  1  0  0  0  0
  4 11  1  0  0  0  0
  4 25  1  1  0  0  0
  5 13  1  0  0  0  0
  5 26  1  6  0  0  0
  6  8  1  0  0  0  0
  6  9  1  0  0  0  0
  6 27  1  1  0  0  0
  7  8  1  0  0  0  0
  7 28  1  0  0  0  0
  7 29  1  0  0  0  0
  8 30  1  0  0  0  0
  8 31  1  0  0  0  0
  9 14  1  0  0  0  0
  9 17  1  0  0  0  0
  9 32  1  6  0  0  0
 10  1  1  0  0  0  0
 10 16  1  0  0  0  0
 10 21  1  6  0  0  0
 11 15  1  0  0  0  0
 11 33  1  0  0  0  0
 11 34  1  0  0  0  0
 12 18  1  0  0  0  0
 12 35  1  0  0  0  0
 12 36  1  0  0  0  0
 13 16  2  0  0  0  0
 13 37  1  0  0  0  0
 14 15  1  0  0  0  0
 14 20  2  0  0  0  0
 15 38  1  0  0  0  0
 15 39  1  0  0  0  0
 16 40  1  0  0  0  0
 17 19  1  0  0  0  0
 17 41  1  0  0  0  0
 17 42  1  0  0  0  0
 18 43  1  0  0  0  0
 18 44  1  0  0  0  0
 18 45  1  0  0  0  0
 19 22  1  0  0  0  0
 19 46  1  0  0  0  0
 19 47  1  0  0  0  0
 20 22  1  0  0  0  0
 20 48  1  0  0  0  0
 21 23  3  0  0  0  0
 23 49  1  0  0  0  0
M  END
>  <DRUGBANK_ID>
DB06730

>  <COMMON_NAME>
Gestodene

>  <CAS_NUMBER>
60282-87-3

>  <UNII>
1664P6E6MI

>  <SYNONYMS>
Gestodene; Gestodeno; Gestodenum

$$$$
