MUF
 OpenBabel10282417173D

 63 67  0  0  0  0  0  0  0  0999 V2000
    3.2876   -1.8909    2.1572 C   0  0  0  0  0  0  0  0  0  0  0  0
    1.5268   -2.0201    2.0210 C   0  0  0  0  0  0  0  0  0  0  0  0
    1.4910   -1.9042    0.5512 C   0  0  0  0  0  0  0  0  0  0  0  0
    1.8274   -0.5483    0.4192 C   0  0  0  0  0  0  0  0  0  0  0  0
    3.2036   -0.0479    0.7312 C   0  0  0  0  0  0  0  0  0  0  0  0
    3.5859    1.1668    1.1955 C   0  0  0  0  0  0  0  0  0  0  0  0
    5.0390    1.5432    1.2427 C   0  0  0  0  0  0  0  0  0  0  0  0
    6.0129    0.3632    1.5136 C   0  0  2  0  0  0  0  0  0  0  0  0
    5.6638   -0.8243    0.6873 C   0  0  1  0  0  0  0  0  0  0  0  0
    4.1246   -1.2361    0.7577 C   0  0  1  0  0  0  0  0  0  0  0  0
    6.8099   -1.8654    0.5827 C   0  0  0  0  0  0  0  0  0  0  0  0
    8.1694   -1.0945    0.1324 C   0  0  0  0  0  0  0  0  0  0  0  0
    8.7257    0.0435    1.3601 C   0  0  1  0  0  0  0  0  0  0  0  0
    7.4336    0.8590    1.3058 C   0  0  1  0  0  0  0  0  0  0  0  0
    7.7283    1.6969   -0.0998 C   0  0  0  0  0  0  0  0  0  0  0  0
    9.2598    1.8591   -0.1660 C   0  0  0  0  0  0  0  0  0  0  0  0
    9.6563    1.6400    1.2610 C   0  0  2  0  0  0  0  0  0  0  0  0
    9.1670   -1.0642    2.3528 C   0  0  0  0  0  0  0  0  0  0  0  0
    3.9876   -1.9889   -0.6525 C   0  0  0  0  0  0  0  0  0  0  0  0
   10.5209    3.1065    1.7928 C   0  0  0  0  0  0  0  0  0  0  0  0
   11.2063    3.7512    0.9856 O   0  0  0  0  0  0  0  0  0  0  0  0
    1.9514   -3.4349    0.3327 C   0  0  0  0  0  0  0  0  0  0  0  0
    2.6483   -4.1611    1.1696 O   0  0  0  0  0  0  0  0  0  0  0  0
    1.4802   -4.0312   -0.7127 O   0  0  0  0  0  0  0  0  0  0  0  0
   10.2953    3.8722    3.1501 C   0  0  0  0  0  0  0  0  0  0  0  0
   10.2384    3.0832    4.2854 C   0  0  0  0  0  0  0  0  0  0  0  0
   10.0455    3.6314    5.5710 C   0  0  0  0  0  0  0  0  0  0  0  0
    9.9232    5.0043    5.7616 C   0  0  0  0  0  0  0  0  0  0  0  0
   10.0273    5.8538    4.6705 C   0  0  0  0  0  0  0  0  0  0  0  0
   10.2381    5.2989    3.3685 C   0  0  0  0  0  0  0  0  0  0  0  0
    9.7066    5.5411    6.9987 O   0  0  0  0  0  0  0  0  0  0  0  0
    5.9149    0.0372    2.5533 H   0  0  0  0  0  0  0  0  0  0  0  0
    5.7274   -0.4046   -0.3432 H   0  0  0  0  0  0  0  0  0  0  0  0
    7.4830    1.4795    2.2129 H   0  0  0  0  0  0  0  0  0  0  0  0
    8.8918    2.2753    1.7700 H   0  0  0  0  0  0  0  0  0  0  0  0
    3.7787   -2.8569    2.2223 H   0  0  0  0  0  0  0  0  0  0  0  0
    3.4990   -1.4816    3.1547 H   0  0  0  0  0  0  0  0  0  0  0  0
    1.0228   -2.9584    2.3309 H   0  0  0  0  0  0  0  0  0  0  0  0
    0.7447   -1.2641    2.2784 H   0  0  0  0  0  0  0  0  0  0  0  0
    1.1544    0.2045    0.8681 H   0  0  0  0  0  0  0  0  0  0  0  0
    2.9004    1.9876    1.3954 H   0  0  0  0  0  0  0  0  0  0  0  0
    5.3294    2.3995    1.8723 H   0  0  0  0  0  0  0  0  0  0  0  0
    5.1217    1.9570    0.2296 H   0  0  0  0  0  0  0  0  0  0  0  0
    7.0942   -2.7580    1.1685 H   0  0  0  0  0  0  0  0  0  0  0  0
    6.3264   -2.5147   -0.1397 H   0  0  0  0  0  0  0  0  0  0  0  0
    8.9357   -1.8575   -0.0526 H   0  0  0  0  0  0  0  0  0  0  0  0
    7.9533   -0.6920   -0.8636 H   0  0  0  0  0  0  0  0  0  0  0  0
    7.6168    1.2801   -1.1057 H   0  0  0  0  0  0  0  0  0  0  0  0
    6.8390    2.2759   -0.2882 H   0  0  0  0  0  0  0  0  0  0  0  0
   10.1224    2.2386   -0.7351 H   0  0  0  0  0  0  0  0  0  0  0  0
    9.4088    0.9447   -0.7452 H   0  0  0  0  0  0  0  0  0  0  0  0
    9.7134   -1.8635    1.8003 H   0  0  0  0  0  0  0  0  0  0  0  0
    9.8531   -0.8180    3.1576 H   0  0  0  0  0  0  0  0  0  0  0  0
    8.3072   -1.6196    2.7528 H   0  0  0  0  0  0  0  0  0  0  0  0
    4.8673   -1.9554   -1.3018 H   0  0  0  0  0  0  0  0  0  0  0  0
    3.8915   -3.0594   -0.5323 H   0  0  0  0  0  0  0  0  0  0  0  0
    3.2134   -1.5739   -1.3137 H   0  0  0  0  0  0  0  0  0  0  0  0
    0.9241   -3.4013   -1.2146 H   0  0  0  0  0  0  0  0  0  0  0  0
   10.3793    2.0183    4.1704 H   0  0  0  0  0  0  0  0  0  0  0  0
    9.9894    2.9506    6.4123 H   0  0  0  0  0  0  0  0  0  0  0  0
    9.9376    6.9316    4.8452 H   0  0  0  0  0  0  0  0  0  0  0  0
   10.3425    6.0306    2.5628 H   0  0  0  0  0  0  0  0  0  0  0  0
    9.6786    4.8330    7.6657 H   0  0  0  0  0  0  0  0  0  0  0  0
  1  2  1  0  0  0  0
  1 36  1  0  0  0  0
  1 37  1  0  0  0  0
  2  3  1  0  0  0  0
  2 38  1  0  0  0  0
  2 39  1  0  0  0  0
  3  4  2  0  0  0  0
  3 22  1  0  0  0  0
  4 40  1  0  0  0  0
  5  4  1  0  0  0  0
  5  6  2  0  0  0  0
  6 41  1  0  0  0  0
  7  6  1  0  0  0  0
  7 42  1  0  0  0  0
  7 43  1  0  0  0  0
  8  7  1  0  0  0  0
  8 32  1  6  0  0  0
  9  8  1  0  0  0  0
  9 10  1  0  0  0  0
  9 33  1  1  0  0  0
 10  1  1  0  0  0  0
 10  5  1  0  0  0  0
 10 19  1  6  0  0  0
 11  9  1  0  0  0  0
 11 44  1  0  0  0  0
 11 45  1  0  0  0  0
 12 11  1  0  0  0  0
 12 13  1  0  0  0  0
 12 46  1  0  0  0  0
 12 47  1  0  0  0  0
 13 14  1  0  0  0  0
 13 18  1  6  0  0  0
 14  8  1  0  0  0  0
 14 15  1  0  0  0  0
 14 34  1  1  0  0  0
 15 48  1  0  0  0  0
 15 49  1  0  0  0  0
 16 15  1  0  0  0  0
 16 50  1  0  0  0  0
 16 51  1  0  0  0  0
 17 13  1  0  0  0  0
 17 16  1  0  0  0  0
 17 20  1  0  0  0  0
 17 35  1  1  0  0  0
 18 52  1  0  0  0  0
 18 53  1  0  0  0  0
 18 54  1  0  0  0  0
 19 55  1  0  0  0  0
 19 56  1  0  0  0  0
 19 57  1  0  0  0  0
 21 20  2  0  0  0  0
 22 24  1  0  0  0  0
 23 22  2  0  0  0  0
 24 58  1  0  0  0  0
 25 20  1  0  0  0  0
 25 26  1  0  0  0  0
 26 59  1  0  0  0  0
 27 26  2  0  0  0  0
 27 60  1  0  0  0  0
 28 27  1  0  0  0  0
 29 28  2  0  0  0  0
 29 30  1  0  0  0  0
 29 61  1  0  0  0  0
 30 25  2  0  0  0  0
 30 62  1  0  0  0  0
 31 28  1  0  0  0  0
 31 63  1  0  0  0  0
M  END
>  <DRUGBANK_ID>
DB08220

>  <COMMON_NAME>
(8alpha,10alpha,13alpha,17beta)-17-[(4-hydroxyphenyl)carbonyl]androsta-3,5-diene-3-carboxylic acid

$$$$
