D92
 OpenBabel10282417163D

 58 62  0  0  0  0  0  0  0  0999 V2000
    9.7742    2.0499   -9.8096 Cl  0  0  0  0  0  0  0  0  0  0  0  0
    9.4379    1.2958   -8.2987 C   0  0  0  0  0  0  0  0  0  0  0  0
    9.3931   -0.0962   -8.2235 C   0  0  0  0  0  0  0  0  0  0  0  0
    9.0930   -0.7463   -7.0245 C   0  0  0  0  0  0  0  0  0  0  0  0
    8.8346    0.0567   -5.9166 C   0  0  0  0  0  0  0  0  0  0  0  0
    8.4730   -0.3047   -4.6397 N   0  0  0  0  0  0  0  0  0  0  0  0
    9.2033    2.0900   -7.1759 C   0  0  0  0  0  0  0  0  0  0  0  0
    8.8913    1.4485   -5.9654 C   0  0  0  0  0  0  0  0  0  0  0  0
    8.5609    1.9066   -4.6752 C   0  0  0  0  0  0  0  0  0  0  0  0
    8.2160    0.8100   -3.8970 C   0  0  0  0  0  0  0  0  0  0  0  0
    7.6491    0.8993   -2.5893 C   0  0  0  0  0  0  0  0  0  0  0  0
    7.2701    1.9984   -2.2049 O   0  0  0  0  0  0  0  0  0  0  0  0
    7.5929   -0.2168   -1.7895 N   0  0  0  0  0  0  0  0  0  0  0  0
    7.1713   -0.1706   -0.3623 C   0  0  1  0  0  0  0  0  0  0  0  0
    7.3506   -1.5886    0.2599 C   0  0  0  0  0  0  0  0  0  0  0  0
    8.8246   -1.9945    0.3495 C   0  0  0  0  0  0  0  0  0  0  0  0
    9.6269   -0.9606    1.1301 C   0  0  0  0  0  0  0  0  0  0  0  0
    9.4451    0.4466    0.5668 C   0  0  0  0  0  0  0  0  0  0  0  0
    7.9714    0.8839    0.5166 C   0  0  1  0  0  0  0  0  0  0  0  0
    7.9200    2.2898    0.0474 N   0  0  0  0  0  0  0  0  0  0  0  0
    7.2286    3.3648    0.5933 C   0  0  0  0  0  0  0  0  0  0  0  0
    6.7435    3.2736    1.7218 O   0  0  0  0  0  0  0  0  0  0  0  0
    7.1594    4.6073   -0.2406 C   0  0  0  0  0  0  0  0  0  0  0  0
    7.6297    6.1508    0.4116 S   0  0  0  0  0  0  0  0  0  0  0  0
    7.2243    6.9203   -1.0652 C   0  0  0  0  0  0  0  0  0  0  0  0
    7.3530    8.3947   -1.3831 C   0  0  0  0  0  0  0  0  0  0  0  0
    6.5855    8.7822   -2.6073 N   0  0  0  0  0  0  0  0  0  0  0  0
    5.1571    8.9359   -2.3028 C   0  0  0  0  0  0  0  0  0  0  0  0
    6.7879    7.7765   -3.6830 C   0  0  0  0  0  0  0  0  0  0  0  0
    6.2634    6.3672   -3.3129 C   0  0  0  0  0  0  0  0  0  0  0  0
    6.7527    5.9754   -1.9543 C   0  0  0  0  0  0  0  0  0  0  0  0
    6.7268    4.6655   -1.4937 N   0  0  0  0  0  0  0  0  0  0  0  0
    6.1024    0.0766   -0.3545 H   0  0  0  0  0  0  0  0  0  0  0  0
    7.5497    0.8546    1.5296 H   0  0  0  0  0  0  0  0  0  0  0  0
    9.5869   -0.6952   -9.1083 H   0  0  0  0  0  0  0  0  0  0  0  0
    9.0456   -1.8271   -6.9621 H   0  0  0  0  0  0  0  0  0  0  0  0
    8.3200   -1.2551   -4.3403 H   0  0  0  0  0  0  0  0  0  0  0  0
    9.2340    3.1742   -7.2365 H   0  0  0  0  0  0  0  0  0  0  0  0
    8.4894    2.9403   -4.3488 H   0  0  0  0  0  0  0  0  0  0  0  0
    7.6915   -1.1254   -2.2158 H   0  0  0  0  0  0  0  0  0  0  0  0
    6.9234   -1.6100    1.2720 H   0  0  0  0  0  0  0  0  0  0  0  0
    6.8092   -2.3479   -0.3199 H   0  0  0  0  0  0  0  0  0  0  0  0
    8.9227   -2.9763    0.8299 H   0  0  0  0  0  0  0  0  0  0  0  0
    9.2422   -2.1021   -0.6592 H   0  0  0  0  0  0  0  0  0  0  0  0
    9.3151   -0.9753    2.1813 H   0  0  0  0  0  0  0  0  0  0  0  0
   10.6893   -1.2290    1.1071 H   0  0  0  0  0  0  0  0  0  0  0  0
   10.0170    1.1574    1.1710 H   0  0  0  0  0  0  0  0  0  0  0  0
    9.8749    0.4808   -0.4435 H   0  0  0  0  0  0  0  0  0  0  0  0
    8.1472    2.4322   -0.9336 H   0  0  0  0  0  0  0  0  0  0  0  0
    8.4075    8.6391   -1.5752 H   0  0  0  0  0  0  0  0  0  0  0  0
    7.0448    9.0305   -0.5442 H   0  0  0  0  0  0  0  0  0  0  0  0
    4.7176    8.0338   -1.8656 H   0  0  0  0  0  0  0  0  0  0  0  0
    4.9956    9.7533   -1.5936 H   0  0  0  0  0  0  0  0  0  0  0  0
    4.5883    9.1798   -3.2084 H   0  0  0  0  0  0  0  0  0  0  0  0
    6.3087    8.1169   -4.6111 H   0  0  0  0  0  0  0  0  0  0  0  0
    7.8616    7.7241   -3.9151 H   0  0  0  0  0  0  0  0  0  0  0  0
    5.1662    6.3891   -3.3057 H   0  0  0  0  0  0  0  0  0  0  0  0
    6.5733    5.6399   -4.0658 H   0  0  0  0  0  0  0  0  0  0  0  0
  1  2  1  0  0  0  0
  2  7  2  0  0  0  0
  2  3  1  0  0  0  0
  3  4  2  0  0  0  0
  3 35  1  0  0  0  0
  4  5  1  0  0  0  0
  4 36  1  0  0  0  0
  5  8  2  0  0  0  0
  5  6  1  0  0  0  0
  6 10  1  0  0  0  0
  6 37  1  0  0  0  0
  7  8  1  0  0  0  0
  7 38  1  0  0  0  0
  8  9  1  0  0  0  0
  9 10  2  0  0  0  0
  9 39  1  0  0  0  0
 10 11  1  0  0  0  0
 11 13  1  0  0  0  0
 11 12  2  0  0  0  0
 13 40  1  0  0  0  0
 14 15  1  0  0  0  0
 14 19  1  0  0  0  0
 14 33  1  1  0  0  0
 14 13  1  0  0  0  0
 15 16  1  0  0  0  0
 15 41  1  0  0  0  0
 15 42  1  0  0  0  0
 16 17  1  0  0  0  0
 16 43  1  0  0  0  0
 16 44  1  0  0  0  0
 17 18  1  0  0  0  0
 17 45  1  0  0  0  0
 17 46  1  0  0  0  0
 18 19  1  0  0  0  0
 18 47  1  0  0  0  0
 18 48  1  0  0  0  0
 19 20  1  0  0  0  0
 19 34  1  1  0  0  0
 20 21  1  0  0  0  0
 20 49  1  0  0  0  0
 21 23  1  0  0  0  0
 21 22  2  0  0  0  0
 23 32  2  0  0  0  0
 23 24  1  0  0  0  0
 24 25  1  0  0  0  0
 25 26  1  0  0  0  0
 25 31  2  0  0  0  0
 26 27  1  0  0  0  0
 26 50  1  0  0  0  0
 26 51  1  0  0  0  0
 27 28  1  0  0  0  0
 27 29  1  0  0  0  0
 28 52  1  0  0  0  0
 28 53  1  0  0  0  0
 28 54  1  0  0  0  0
 29 30  1  0  0  0  0
 29 55  1  0  0  0  0
 29 56  1  0  0  0  0
 30 31  1  0  0  0  0
 30 57  1  0  0  0  0
 30 58  1  0  0  0  0
 31 32  1  0  0  0  0
M  END
>  <DRUGBANK_ID>
DB07629

>  <COMMON_NAME>
N-((1R,2S)-2-(5-CHLORO-1H-INDOLE-2-CARBOXAMIDO)CYCLOHEXYL)-5-METHYL-4,5,6,7-TETRAHYDROTHIAZOLO[5,4-C]PYRIDINE-2-CARBOXAMIDE

$$$$
