
 OpenBabel10282417123D

 62 69  0  0  0  0  0  0  0  0999 V2000
    0.0624    0.3838    0.1530 O   0  0  0  0  0  0  0  0  0  0  0  0
   -0.2637   -0.6853    0.9669 C   0  0  1  0  0  0  0  0  0  0  0  0
   -1.5719   -1.0931    0.8104 N   0  0  0  0  0  0  0  0  0  0  0  0
   -1.6458   -2.3872    1.4038 C   0  0  0  0  0  0  0  0  0  0  0  0
   -2.3556   -2.5197    2.4046 O   0  0  0  0  0  0  0  0  0  0  0  0
   -0.4496   -3.1684    0.8355 C   0  0  0  0  0  0  0  0  0  0  0  0
    0.3822   -4.3990    1.1748 C   0  0  0  0  0  0  0  0  0  0  0  0
   -0.1872   -5.3570    2.0152 C   0  0  0  0  0  0  0  0  0  0  0  0
    0.8867   -6.2545    2.4183 C   0  0  0  0  0  0  0  0  0  0  0  0
    0.0786   -7.5762    2.8502 C   0  0  0  0  0  0  0  0  0  0  0  0
   -1.4267   -7.6508    3.1274 C   0  0  0  0  0  0  0  0  0  0  0  0
   -2.1982   -6.5317    3.1017 C   0  0  0  0  0  0  0  0  0  0  0  0
   -1.5377   -5.4633    2.5554 C   0  0  0  0  0  0  0  0  0  0  0  0
    2.4157   -5.5506    2.2370 N   0  0  0  0  0  0  0  0  0  0  0  0
    1.7548   -4.4045    1.8656 C   0  0  0  0  0  0  0  0  0  0  0  0
    2.4975   -2.8026    2.1365 C   0  0  0  0  0  0  0  0  0  0  0  0
    3.8560   -1.8666    2.6324 N   0  0  0  0  0  0  0  0  0  0  0  0
    4.4209   -1.0332    1.6922 C   0  0  0  0  0  0  0  0  0  0  0  0
    3.8478   -1.8956    0.8231 C   0  0  0  0  0  0  0  0  0  0  0  0
    4.5326   -1.7501   -0.6367 C   0  0  0  0  0  0  0  0  0  0  0  0
    5.5970   -0.9903   -0.9755 C   0  0  0  0  0  0  0  0  0  0  0  0
    5.8144    0.0333   -0.0925 C   0  0  0  0  0  0  0  0  0  0  0  0
    5.0939    0.1737    1.1699 C   0  0  0  0  0  0  0  0  0  0  0  0
    1.8863   -2.4959    1.1401 C   0  0  0  0  0  0  0  0  0  0  0  0
    0.4484   -2.1015    0.6820 C   0  0  0  0  0  0  0  0  0  0  0  0
    2.8508   -1.6904    3.4799 C   0  0  1  0  0  0  0  0  0  0  0  0
    3.2863   -3.5109    3.6063 O   0  0  0  0  0  0  0  0  0  0  0  0
    3.4682   -4.3967    1.8592 C   0  0  2  0  0  0  0  0  0  0  0  0
    2.9980   -3.4365    0.0179 C   0  0  0  0  0  0  0  0  0  0  0  0
    2.3189   -1.3003   -0.0674 C   0  0  1  0  0  0  0  0  0  0  0  0
    1.5730   -1.0240   -1.2945 N   0  0  0  0  0  0  0  0  0  0  0  0
    1.8458    0.3395   -1.7153 C   0  0  0  0  0  0  0  0  0  0  0  0
    1.9412   -0.7618    1.9954 C   0  0  1  0  0  0  0  0  0  0  0  0
    0.5251   -1.3867    2.9251 O   0  0  0  0  0  0  0  0  0  0  0  0
    0.3864   -2.7757    3.4639 C   0  0  0  0  0  0  0  0  0  0  0  0
    1.9814   -0.9796    4.6571 C   0  0  0  0  0  0  0  0  0  0  0  0
    4.5446   -4.5667    2.0199 H   0  0  0  0  0  0  0  0  0  0  0  0
    1.0211    0.4459    0.3292 H   0  0  0  0  0  0  0  0  0  0  0  0
   -0.2265   -0.1233    1.9280 H   0  0  0  0  0  0  0  0  0  0  0  0
   -2.1637   -0.3139    1.0387 H   0  0  0  0  0  0  0  0  0  0  0  0
    0.4873   -8.5996    2.8927 H   0  0  0  0  0  0  0  0  0  0  0  0
   -2.0077   -8.5588    3.3853 H   0  0  0  0  0  0  0  0  0  0  0  0
   -3.2642   -6.4477    3.3565 H   0  0  0  0  0  0  0  0  0  0  0  0
   -2.1650   -4.5859    2.5306 H   0  0  0  0  0  0  0  0  0  0  0  0
    3.9855   -2.1551   -1.5205 H   0  0  0  0  0  0  0  0  0  0  0  0
    6.0645   -1.1623   -1.9392 H   0  0  0  0  0  0  0  0  0  0  0  0
    6.5997    0.7267   -0.4000 H   0  0  0  0  0  0  0  0  0  0  0  0
    5.1562    1.1832    1.6125 H   0  0  0  0  0  0  0  0  0  0  0  0
    3.8135   -3.7644   -0.6216 H   0  0  0  0  0  0  0  0  0  0  0  0
    2.1253   -3.9504   -0.4267 H   0  0  0  0  0  0  0  0  0  0  0  0
    2.9620   -0.3940   -0.0365 H   0  0  0  0  0  0  0  0  0  0  0  0
    0.5678   -1.1067   -1.1323 H   0  0  0  0  0  0  0  0  0  0  0  0
    1.1649    0.4783   -2.5378 H   0  0  0  0  0  0  0  0  0  0  0  0
    1.6555    1.1858   -1.0380 H   0  0  0  0  0  0  0  0  0  0  0  0
    2.9165    0.4140   -1.8692 H   0  0  0  0  0  0  0  0  0  0  0  0
    1.8285    0.3374    2.1195 H   0  0  0  0  0  0  0  0  0  0  0  0
    0.5807   -3.1226    2.5573 H   0  0  0  0  0  0  0  0  0  0  0  0
    1.1860   -3.3719    3.9243 H   0  0  0  0  0  0  0  0  0  0  0  0
   -0.5272   -3.3460    3.4019 H   0  0  0  0  0  0  0  0  0  0  0  0
    2.5083   -0.8332    5.5681 H   0  0  0  0  0  0  0  0  0  0  0  0
    1.4344   -0.0170    4.3914 H   0  0  0  0  0  0  0  0  0  0  0  0
    1.0991   -1.5804    4.9552 H   0  0  0  0  0  0  0  0  0  0  0  0
  1 38  1  0  0  0  0
  2  1  1  0  0  0  0
  2  3  1  0  0  0  0
  2 39  1  1  0  0  0
  3 40  1  0  0  0  0
  4  3  1  0  0  0  0
  4  5  2  0  0  0  0
  6  4  1  0  0  0  0
  7  6  2  0  0  0  0
  8  7  1  0  0  0  0
  9  8  2  0  0  0  0
  9 14  1  0  0  0  0
 10  9  1  0  0  0  0
 10 11  2  0  0  0  0
 10 41  1  0  0  0  0
 11 12  1  0  0  0  0
 11 42  1  0  0  0  0
 12 13  2  0  0  0  0
 12 43  1  0  0  0  0
 13  8  1  0  0  0  0
 13 44  1  0  0  0  0
 15  7  1  0  0  0  0
 15 14  1  0  0  0  0
 16 15  2  0  0  0  0
 16 17  1  0  0  0  0
 18 17  1  0  0  0  0
 19 18  2  0  0  0  0
 19 20  1  0  0  0  0
 20 21  2  0  0  0  0
 20 45  1  0  0  0  0
 21 22  1  0  0  0  0
 21 46  1  0  0  0  0
 22 23  2  0  0  0  0
 22 47  1  0  0  0  0
 23 18  1  0  0  0  0
 23 48  1  0  0  0  0
 24 16  1  0  0  0  0
 24 19  1  0  0  0  0
 25  2  1  0  0  0  0
 25  6  1  0  0  0  0
 25 24  2  0  0  0  0
 26 17  1  0  0  0  0
 26 27  1  0  0  0  0
 26 33  1  0  0  0  0
 26 36  1  6  0  0  0
 28 14  1  0  0  0  0
 28 27  1  0  0  0  0
 28 37  1  6  0  0  0
 29 28  1  0  0  0  0
 29 49  1  0  0  0  0
 29 50  1  0  0  0  0
 30 29  1  0  0  0  0
 30 51  1  6  0  0  0
 30 31  1  0  0  0  0
 31 52  1  0  0  0  0
 32 31  1  0  0  0  0
 32 53  1  0  0  0  0
 32 54  1  0  0  0  0
 32 55  1  0  0  0  0
 33 30  1  0  0  0  0
 33 34  1  0  0  0  0
 33 56  1  1  0  0  0
 35 34  1  0  0  0  0
 35 57  1  0  0  0  0
 35 58  1  0  0  0  0
 35 59  1  0  0  0  0
 36 60  1  0  0  0  0
 36 61  1  0  0  0  0
 36 62  1  0  0  0  0
M  END
>  <DRUGBANK_ID>
DB01933

>  <SECONDARY_ACCESSION_NUMBERS>
EXPT03167

>  <COMMON_NAME>
7-Hydroxystaurosporine

>  <CAS_NUMBER>
112953-11-4

>  <UNII>
7BU5H4V94A

$$$$
