
 OpenBabel10282417203D

 41 41  0  0  0  0  0  0  0  0999 V2000
   -0.0812   -1.3409    0.0568 C   0  0  0  0  0  0  0  0  0  0  0  0
   -0.1705   -2.7307    0.0330 N   0  0  0  0  0  0  0  0  0  0  0  0
    1.1487   -0.6884    0.1069 C   0  0  0  0  0  0  0  0  0  0  0  0
   -1.1729   -0.5557    0.0091 N   0  0  0  0  0  0  0  0  0  0  0  0
   -1.4941   -3.3811    0.0471 C   0  0  0  0  0  0  0  0  0  0  0  0
    1.0463   -3.5399    0.1015 C   0  0  0  0  0  0  0  0  0  0  0  0
    1.2577    0.6988    0.0492 C   0  0  0  0  0  0  0  0  0  0  0  0
   -1.0799    0.8485    0.0017 N   0  0  0  0  0  0  0  0  0  0  0  0
   -1.7636   -4.3017   -1.1739 C   0  0  3  0  0  0  0  0  0  0  0  0
    1.8295   -3.4527   -1.2195 C   0  0  0  0  0  0  0  0  0  0  0  0
    0.1177    1.4686    0.0189 C   0  0  0  0  0  0  0  0  0  0  0  0
   -0.8549   -5.5224   -1.2699 C   0  0  0  0  0  0  0  0  0  0  0  0
   -3.1064   -4.8073   -1.1121 O   0  0  0  0  0  0  0  0  0  0  0  0
    0.2393    2.8571   -0.0889 N   0  0  0  0  0  0  0  0  0  0  0  0
   -0.9100    3.6095    0.1490 N   0  0  0  0  0  0  0  0  0  0  0  0
   -0.8080    4.9820    0.0431 C   0  0  0  0  0  0  0  0  0  0  0  0
   -1.9646    5.6980   -0.0109 O   0  0  0  0  0  0  0  0  0  0  0  0
    0.2856    5.5554    0.0020 O   0  0  0  0  0  0  0  0  0  0  0  0
   -3.2774    5.1067   -0.0374 C   0  0  0  0  0  0  0  0  0  0  0  0
   -3.5198    4.3348   -1.3228 C   0  0  0  0  0  0  0  0  0  0  0  0
    2.0823   -1.2304    0.1790 H   0  0  0  0  0  0  0  0  0  0  0  0
   -1.6152   -3.9592    0.9738 H   0  0  0  0  0  0  0  0  0  0  0  0
   -2.3156   -2.6512    0.0859 H   0  0  0  0  0  0  0  0  0  0  0  0
    1.6701   -3.2468    0.9538 H   0  0  0  0  0  0  0  0  0  0  0  0
    0.8063   -4.5827    0.3341 H   0  0  0  0  0  0  0  0  0  0  0  0
    2.2454    1.1455    0.0419 H   0  0  0  0  0  0  0  0  0  0  0  0
   -1.6851   -3.7113   -2.0931 H   0  0  0  0  0  0  0  0  0  0  0  0
    2.2391   -2.4600   -1.4129 H   0  0  0  0  0  0  0  0  0  0  0  0
    2.6720   -4.1473   -1.2124 H   0  0  0  0  0  0  0  0  0  0  0  0
    1.2034   -3.6566   -2.0940 H   0  0  0  0  0  0  0  0  0  0  0  0
   -0.8745   -6.0960   -0.3371 H   0  0  0  0  0  0  0  0  0  0  0  0
   -1.1519   -6.1879   -2.0825 H   0  0  0  0  0  0  0  0  0  0  0  0
    0.1748   -5.2661   -1.4863 H   0  0  0  0  0  0  0  0  0  0  0  0
   -3.1707   -5.3894   -0.3348 H   0  0  0  0  0  0  0  0  0  0  0  0
    1.1294    3.3196    0.0863 H   0  0  0  0  0  0  0  0  0  0  0  0
   -1.7797    3.0881    0.1488 H   0  0  0  0  0  0  0  0  0  0  0  0
   -3.4285    4.5030    0.8631 H   0  0  0  0  0  0  0  0  0  0  0  0
   -3.9951    5.9355    0.0113 H   0  0  0  0  0  0  0  0  0  0  0  0
   -2.7967    3.5322   -1.4770 H   0  0  0  0  0  0  0  0  0  0  0  0
   -4.5155    3.8854   -1.3215 H   0  0  0  0  0  0  0  0  0  0  0  0
   -3.4158    4.9955   -2.1882 H   0  0  0  0  0  0  0  0  0  0  0  0
  1  2  1  0  0  0  0
  1  3  1  0  0  0  0
  1  4  2  0  0  0  0
  2  5  1  0  0  0  0
  2  6  1  0  0  0  0
  3  7  2  0  0  0  0
  3 21  1  0  0  0  0
  4  8  1  0  0  0  0
  5  9  1  0  0  0  0
  5 22  1  0  0  0  0
  5 23  1  0  0  0  0
  6 10  1  0  0  0  0
  6 24  1  0  0  0  0
  6 25  1  0  0  0  0
  7 11  1  0  0  0  0
  7 26  1  0  0  0  0
  8 11  2  0  0  0  0
  9 12  1  0  0  0  0
  9 13  1  0  0  0  0
  9 27  1  0  0  0  0
 10 28  1  0  0  0  0
 10 29  1  0  0  0  0
 10 30  1  0  0  0  0
 11 14  1  0  0  0  0
 12 31  1  0  0  0  0
 12 32  1  0  0  0  0
 12 33  1  0  0  0  0
 13 34  1  0  0  0  0
 14 15  1  0  0  0  0
 14 35  1  0  0  0  0
 15 16  1  0  0  0  0
 15 36  1  0  0  0  0
 16 17  1  0  0  0  0
 16 18  2  0  0  0  0
 17 19  1  0  0  0  0
 19 20  1  0  0  0  0
 19 37  1  0  0  0  0
 19 38  1  0  0  0  0
 20 39  1  0  0  0  0
 20 40  1  0  0  0  0
 20 41  1  0  0  0  0
M  END
>  <DRUGBANK_ID>
DB13452

>  <COMMON_NAME>
Cadralazine

>  <CAS_NUMBER>
64241-34-5

>  <UNII>
8T96I3U713

>  <SYNONYMS>
Cadralazina; Cadralazine; Cadralazinum

$$$$
