
 OpenBabel10282417153D

 44 45  0  0  0  0  0  0  0  0999 V2000
    1.4456   -0.2450   -0.1769 C   0  0  0  0  0  0  0  0  0  0  0  0
    0.4770   -0.8476   -1.3364 C   0  0  3  0  0  0  0  0  0  0  0  0
    1.0051   -2.2674   -1.6823 C   0  0  0  0  0  0  0  0  0  0  0  0
    0.2477   -3.4189   -1.4361 C   0  0  0  0  0  0  0  0  0  0  0  0
    0.7436   -4.7137   -1.4638 C   0  0  0  0  0  0  0  0  0  0  0  0
    2.0819   -4.8926   -1.7079 C   0  0  0  0  0  0  0  0  0  0  0  0
    2.9065   -3.7926   -1.9185 C   0  0  0  0  0  0  0  0  0  0  0  0
    2.3733   -2.4889   -1.9320 C   0  0  0  0  0  0  0  0  0  0  0  0
    2.6105   -6.1446   -1.6639 O   0  0  0  0  0  0  0  0  0  0  0  0
   -1.2377   -0.6140   -1.1765 C   0  0  0  0  0  0  0  0  0  0  0  0
   -1.6707    0.7694   -0.4782 C   0  0  0  0  0  0  0  0  0  0  0  0
   -1.7019    0.8641    1.1048 C   0  0  0  0  0  0  0  0  0  0  0  0
   -2.3614   -0.5326    1.7939 C   0  0  0  0  0  0  0  0  0  0  0  0
   -2.2645   -1.9819    0.9577 C   0  0  0  0  0  0  0  0  0  0  0  0
   -2.2579   -1.7275   -0.5772 C   0  0  0  0  0  0  0  0  0  0  0  0
   -1.6194   -0.4921   -2.5845 O   0  0  0  0  0  0  0  0  0  0  0  0
    1.4914   -0.8952    1.1836 N   0  0  0  0  0  0  0  0  0  0  0  0
    0.1655   -1.2019    1.4104 C   0  0  0  0  0  0  0  0  0  0  0  0
    1.9059   -2.3061    1.3122 C   0  0  0  0  0  0  0  0  0  0  0  0
    1.1163    0.8063   -0.0566 H   0  0  0  0  0  0  0  0  0  0  0  0
    2.4813   -0.1470   -0.4975 H   0  0  0  0  0  0  0  0  0  0  0  0
    0.7439   -0.2416   -2.2269 H   0  0  0  0  0  0  0  0  0  0  0  0
   -0.6916   -3.3750   -0.9384 H   0  0  0  0  0  0  0  0  0  0  0  0
    0.0838   -5.5193   -1.1553 H   0  0  0  0  0  0  0  0  0  0  0  0
    3.9779   -3.9409   -2.0073 H   0  0  0  0  0  0  0  0  0  0  0  0
    3.0702   -1.6534   -1.9920 H   0  0  0  0  0  0  0  0  0  0  0  0
    1.8699   -6.7693   -1.5700 H   0  0  0  0  0  0  0  0  0  0  0  0
   -1.0887    1.5877   -0.9311 H   0  0  0  0  0  0  0  0  0  0  0  0
   -2.7080    0.9587   -0.7728 H   0  0  0  0  0  0  0  0  0  0  0  0
   -0.6569    1.0732    1.4613 H   0  0  0  0  0  0  0  0  0  0  0  0
   -2.1228    1.7973    1.5144 H   0  0  0  0  0  0  0  0  0  0  0  0
   -1.9329   -0.6496    2.8147 H   0  0  0  0  0  0  0  0  0  0  0  0
   -3.4190   -0.3454    1.9733 H   0  0  0  0  0  0  0  0  0  0  0  0
   -1.4235   -2.6664    1.1855 H   0  0  0  0  0  0  0  0  0  0  0  0
   -2.9679   -2.7405    1.3435 H   0  0  0  0  0  0  0  0  0  0  0  0
   -3.2863   -1.4249   -0.7987 H   0  0  0  0  0  0  0  0  0  0  0  0
   -2.2375   -2.6425   -1.1850 H   0  0  0  0  0  0  0  0  0  0  0  0
   -2.5595   -0.7124   -2.6911 H   0  0  0  0  0  0  0  0  0  0  0  0
   -0.0655   -1.9272    0.6464 H   0  0  0  0  0  0  0  0  0  0  0  0
   -0.1851   -1.5157    2.3786 H   0  0  0  0  0  0  0  0  0  0  0  0
   -0.4405   -0.4861    0.9129 H   0  0  0  0  0  0  0  0  0  0  0  0
    1.4211   -2.9725    0.6003 H   0  0  0  0  0  0  0  0  0  0  0  0
    2.9638   -2.4443    1.2654 H   0  0  0  0  0  0  0  0  0  0  0  0
    1.4996   -2.7272    2.2569 H   0  0  0  0  0  0  0  0  0  0  0  0
  1  2  1  0  0  0  0
  1 17  1  0  0  0  0
  1 20  1  0  0  0  0
  1 21  1  0  0  0  0
  2  3  1  0  0  0  0
  2 10  1  0  0  0  0
  2 22  1  0  0  0  0
  3  4  2  0  0  0  0
  3  8  1  0  0  0  0
  4  5  1  0  0  0  0
  4 23  1  0  0  0  0
  5  6  2  0  0  0  0
  5 24  1  0  0  0  0
  6  7  1  0  0  0  0
  6  9  1  0  0  0  0
  7  8  2  0  0  0  0
  7 25  1  0  0  0  0
  8 26  1  0  0  0  0
  9 27  1  0  0  0  0
 10 11  1  0  0  0  0
 10 15  1  0  0  0  0
 10 16  1  0  0  0  0
 11 12  1  0  0  0  0
 11 28  1  0  0  0  0
 11 29  1  0  0  0  0
 12 13  1  0  0  0  0
 12 30  1  0  0  0  0
 12 31  1  0  0  0  0
 13 14  1  0  0  0  0
 13 32  1  0  0  0  0
 13 33  1  0  0  0  0
 14 15  1  0  0  0  0
 14 34  1  0  0  0  0
 14 35  1  0  0  0  0
 15 36  1  0  0  0  0
 15 37  1  0  0  0  0
 16 38  1  0  0  0  0
 17 18  1  0  0  0  0
 17 19  1  0  0  0  0
 18 39  1  0  0  0  0
 18 40  1  0  0  0  0
 18 41  1  0  0  0  0
 19 42  1  0  0  0  0
 19 43  1  0  0  0  0
 19 44  1  0  0  0  0
M  END
>  <DRUGBANK_ID>
DB06700

>  <COMMON_NAME>
Desvenlafaxine

>  <CAS_NUMBER>
93413-62-8

>  <UNII>
NG99554ANW

>  <SYNONYMS>
Desvenlafaxina; Desvenlafaxine; O-desmethylvenlafaxine; ODV

$$$$
