32U
 OpenBabel10282417163D

 57 59  0  0  0  0  0  0  0  0999 V2000
   -4.2356    0.5312   -1.8208 N   0  0  0  0  0  0  0  0  0  0  0  0
   -4.3363    2.0325   -1.8402 C   0  0  2  0  0  0  0  0  0  0  0  0
   -4.7425    2.9898   -0.6381 C   0  0  0  0  0  0  0  0  0  0  0  0
   -4.8276    4.2261   -0.6801 O   0  0  0  0  0  0  0  0  0  0  0  0
   -4.9932    2.2547    0.4581 N   0  0  0  0  0  0  0  0  0  0  0  0
   -5.2838    2.5658    1.8655 C   0  0  0  0  0  0  0  0  0  0  0  0
   -6.6478    1.9611    2.2609 C   0  0  0  0  0  0  0  0  0  0  0  0
   -7.5532    2.8315    2.8201 C   0  0  0  0  0  0  0  0  0  0  0  0
   -8.7962    2.3681    3.2626 C   0  0  0  0  0  0  0  0  0  0  0  0
   -9.2502    1.0483    3.0472 C   0  0  0  0  0  0  0  0  0  0  0  0
  -10.6242    0.6119    3.3410 C   0  0  0  0  0  0  0  0  0  0  0  0
  -11.0236   -0.6160    3.0628 N   0  3  0  0  0  0  0  0  0  0  0  0
  -11.4774    1.4704    3.8485 N   0  0  0  0  0  0  0  0  0  0  0  0
   -8.3498    0.1612    2.5038 C   0  0  0  0  0  0  0  0  0  0  0  0
   -7.0839    0.6095    2.1620 C   0  0  0  0  0  0  0  0  0  0  0  0
   -5.1718    2.3469   -3.0521 C   0  0  0  0  0  0  0  0  0  0  0  0
   -4.6666    1.3117   -4.0529 C   0  0  0  0  0  0  0  0  0  0  0  0
   -4.2868    0.0818   -3.2196 C   0  0  0  0  0  0  0  0  0  0  0  0
   -3.7167   -0.4181   -0.9339 C   0  0  0  0  0  0  0  0  0  0  0  0
   -3.2467   -0.0685    0.5062 C   0  0  2  0  0  0  0  0  0  0  0  0
   -4.4613   -0.1740    1.3127 N   0  0  0  0  0  0  0  0  0  0  0  0
   -2.0443    0.9432    0.6710 C   0  0  0  0  0  0  0  0  0  0  0  0
   -3.8979   -1.6255   -1.1677 O   0  0  0  0  0  0  0  0  0  0  0  0
   -1.8263    2.3527    0.1012 C   0  0  0  0  0  0  0  0  0  0  0  0
   -1.7437    3.5117    0.8865 C   0  0  0  0  0  0  0  0  0  0  0  0
   -1.7959    4.8059    0.3115 C   0  0  0  0  0  0  0  0  0  0  0  0
   -1.9212    4.9757   -1.0605 C   0  0  0  0  0  0  0  0  0  0  0  0
   -1.8440    3.8477   -1.8524 C   0  0  0  0  0  0  0  0  0  0  0  0
   -1.6512    2.5630   -1.2682 C   0  0  0  0  0  0  0  0  0  0  0  0
   -3.4117    2.3139   -2.2765 H   0  0  0  0  0  0  0  0  0  0  0  0
   -2.8221   -0.9771    0.9548 H   0  0  0  0  0  0  0  0  0  0  0  0
   -4.7541    1.3391    0.1367 H   0  0  0  0  0  0  0  0  0  0  0  0
   -4.5109    2.1258    2.5298 H   0  0  0  0  0  0  0  0  0  0  0  0
   -5.1937    3.6429    2.0297 H   0  0  0  0  0  0  0  0  0  0  0  0
   -7.2834    3.8803    2.9181 H   0  0  0  0  0  0  0  0  0  0  0  0
   -9.3885    3.1003    3.7921 H   0  0  0  0  0  0  0  0  0  0  0  0
  -10.4071   -1.3023    2.6451 H   0  0  0  0  0  0  0  0  0  0  0  0
  -11.9668   -0.9336    3.2297 H   0  0  0  0  0  0  0  0  0  0  0  0
  -12.4371    1.2315    4.0382 H   0  0  0  0  0  0  0  0  0  0  0  0
  -11.1985    2.4229    4.0408 H   0  0  0  0  0  0  0  0  0  0  0  0
   -8.5501   -0.8958    2.3336 H   0  0  0  0  0  0  0  0  0  0  0  0
   -6.5232   -0.2487    1.8362 H   0  0  0  0  0  0  0  0  0  0  0  0
   -6.2268    2.2509   -2.8019 H   0  0  0  0  0  0  0  0  0  0  0  0
   -4.9599    3.3715   -3.3846 H   0  0  0  0  0  0  0  0  0  0  0  0
   -5.4108    1.0998   -4.8192 H   0  0  0  0  0  0  0  0  0  0  0  0
   -3.7684    1.6929   -4.5644 H   0  0  0  0  0  0  0  0  0  0  0  0
   -4.9992   -0.7383   -3.3287 H   0  0  0  0  0  0  0  0  0  0  0  0
   -3.2935   -0.2929   -3.5229 H   0  0  0  0  0  0  0  0  0  0  0  0
   -4.9713    0.6754    1.4161 H   0  0  0  0  0  0  0  0  0  0  0  0
   -5.1267   -0.7439    0.7672 H   0  0  0  0  0  0  0  0  0  0  0  0
   -1.7977    0.9853    1.7387 H   0  0  0  0  0  0  0  0  0  0  0  0
   -1.2496    0.3658    0.1883 H   0  0  0  0  0  0  0  0  0  0  0  0
   -1.6399    3.4406    1.9645 H   0  0  0  0  0  0  0  0  0  0  0  0
   -1.8177    5.6905    0.9424 H   0  0  0  0  0  0  0  0  0  0  0  0
   -2.1209    5.9509   -1.5035 H   0  0  0  0  0  0  0  0  0  0  0  0
   -2.1324    3.9457   -2.9048 H   0  0  0  0  0  0  0  0  0  0  0  0
   -1.6262    1.6894   -1.9232 H   0  0  0  0  0  0  0  0  0  0  0  0
  1 19  1  0  0  0  0
  2  1  1  0  0  0  0
  2 30  1  6  0  0  0
  2  3  1  0  0  0  0
  3  5  1  0  0  0  0
  4  3  2  0  0  0  0
  5 32  1  0  0  0  0
  6  5  1  0  0  0  0
  6  7  1  0  0  0  0
  6 33  1  0  0  0  0
  6 34  1  0  0  0  0
  7 15  2  0  0  0  0
  7  8  1  0  0  0  0
  8  9  2  0  0  0  0
  8 35  1  0  0  0  0
  9 10  1  0  0  0  0
  9 36  1  0  0  0  0
 10 11  1  0  0  0  0
 11 13  1  0  0  0  0
 11 12  2  0  0  0  0
 12 37  1  0  0  0  0
 12 38  1  0  0  0  0
 13 39  1  0  0  0  0
 13 40  1  0  0  0  0
 14 10  2  0  0  0  0
 14 41  1  0  0  0  0
 15 14  1  0  0  0  0
 15 42  1  0  0  0  0
 16 17  1  0  0  0  0
 16  2  1  0  0  0  0
 16 43  1  0  0  0  0
 16 44  1  0  0  0  0
 17 18  1  0  0  0  0
 17 45  1  0  0  0  0
 17 46  1  0  0  0  0
 18  1  1  0  0  0  0
 18 47  1  0  0  0  0
 18 48  1  0  0  0  0
 19 23  2  0  0  0  0
 20 31  1  1  0  0  0
 20 21  1  0  0  0  0
 20 22  1  0  0  0  0
 20 19  1  0  0  0  0
 21 49  1  0  0  0  0
 21 50  1  0  0  0  0
 22 24  1  0  0  0  0
 22 51  1  0  0  0  0
 22 52  1  0  0  0  0
 24 29  2  0  0  0  0
 25 26  2  0  0  0  0
 25 24  1  0  0  0  0
 25 53  1  0  0  0  0
 26 27  1  0  0  0  0
 26 54  1  0  0  0  0
 27 28  2  0  0  0  0
 27 55  1  0  0  0  0
 28 56  1  0  0  0  0
 29 28  1  0  0  0  0
 29 57  1  0  0  0  0
M  CHG  1  12   1
M  END
>  <DRUGBANK_ID>
DB07005

>  <COMMON_NAME>
D-phenylalanyl-N-{4-[amino(iminio)methyl]benzyl}-L-prolinamide

$$$$
