
 OpenBabel10282417153D

105111  0  0  1  0  0  0  0  0999 V2000
    1.1947   17.2385  -11.3074 S   0  0  0  0  0  0  0  0  0  0  0  0
   -2.5334   11.5655    1.9593 O   0  0  0  0  0  0  0  0  0  0  0  0
   -4.1656   11.1144    0.5078 O   0  0  0  0  0  0  0  0  0  0  0  0
   -2.7469   14.4991   -1.0423 O   0  0  0  0  0  0  0  0  0  0  0  0
   -3.4654   16.5894   -6.2593 O   0  0  0  0  0  0  0  0  0  0  0  0
   -1.9391   12.8401   -4.9135 O   0  0  0  0  0  0  0  0  0  0  0  0
    0.9170   16.4526   -1.4931 O   0  0  0  0  0  0  0  0  0  0  0  0
    0.2305   17.3130   -3.4236 O   0  0  0  0  0  0  0  0  0  0  0  0
   -0.6317   21.1693   -2.7639 O   0  0  0  0  0  0  0  0  0  0  0  0
   -2.8785   12.3028   -1.7765 N   0  0  0  0  0  0  0  0  0  0  0  0
   -2.6557   14.5983   -3.6630 N   0  0  0  0  0  0  0  0  0  0  0  0
    0.1536   15.0355   -3.2676 N   0  0  0  0  0  0  0  0  0  0  0  0
    0.0729   18.6224   -6.8412 N   0  0  0  0  0  0  0  0  0  0  0  0
    1.8876   17.1111   -8.8423 N   0  0  0  0  0  0  0  0  0  0  0  0
    3.6828   16.7229  -10.3042 N   0  0  0  0  0  0  0  0  0  0  0  0
   -2.0546   11.6156   -0.6079 C   0  0  1  0  0  0  0  0  0  0  0  0
   -0.4191   11.5771   -0.5734 C   0  0  1  0  0  0  0  0  0  0  0  0
   -1.2487   10.3727   -0.8402 C   0  0  0  0  0  0  0  0  0  0  0  0
    1.1490   10.9105   -1.0918 C   0  0  0  0  0  0  0  0  0  0  0  0
   -3.0024   11.4290    0.6804 C   0  0  0  0  0  0  0  0  0  0  0  0
   -4.0862   14.2970   -3.3174 C   0  0  2  0  0  0  0  0  0  0  0  0
   -3.2747   13.7151   -1.8461 C   0  0  0  0  0  0  0  0  0  0  0  0
   -4.8233   15.8416   -4.1061 C   0  0  0  0  0  0  0  0  0  0  0  0
   -3.6721   15.8663   -5.0766 C   0  0  2  0  0  0  0  0  0  0  0  0
   -2.7126   15.9465   -3.8731 C   0  0  0  0  0  0  0  0  0  0  0  0
    2.1127   11.4178   -1.9787 C   0  0  0  0  0  0  0  0  0  0  0  0
    3.6606   11.5149   -2.4375 C   0  0  0  0  0  0  0  0  0  0  0  0
   -1.7032   13.9209   -4.4190 C   0  0  0  0  0  0  0  0  0  0  0  0
   -0.3413   14.7389   -4.6133 C   0  0  2  0  0  0  0  0  0  0  0  0
    3.8386   12.6733   -3.5560 C   0  0  0  0  0  0  0  0  0  0  0  0
    0.7190   13.9856   -5.4115 C   0  0  0  0  0  0  0  0  0  0  0  0
    2.6413   12.6926   -4.5141 C   0  0  0  0  0  0  0  0  0  0  0  0
    2.1380   14.0893   -4.8108 C   0  0  0  0  0  0  0  0  0  0  0  0
   -2.2418   17.1965   -6.3898 C   0  0  0  0  0  0  0  0  0  0  0  0
    1.2873   15.5122   -0.4903 C   0  0  0  0  0  0  0  0  0  0  0  0
    0.4268   16.2593   -2.7362 C   0  0  0  0  0  0  0  0  0  0  0  0
    2.7761   15.1074   -0.6076 C   0  0  0  0  0  0  0  0  0  0  0  0
    0.3880   14.3521   -0.4748 C   0  0  0  0  0  0  0  0  0  0  0  0
   -1.8784   18.2497   -5.5090 C   0  0  0  0  0  0  0  0  0  0  0  0
    2.8552   13.6636   -0.3195 C   0  0  0  0  0  0  0  0  0  0  0  0
    1.4191   13.3630   -0.1131 C   0  0  0  0  0  0  0  0  0  0  0  0
   -1.4398   16.8497   -7.4778 C   0  0  0  0  0  0  0  0  0  0  0  0
   -0.6870   18.9228   -5.7534 C   0  0  0  0  0  0  0  0  0  0  0  0
   -0.2943   17.6075   -7.6745 C   0  0  0  0  0  0  0  0  0  0  0  0
   -2.6130   18.6195   -4.3541 C   0  0  0  0  0  0  0  0  0  0  0  0
   -0.3291   19.9227   -4.8177 C   0  0  0  0  0  0  0  0  0  0  0  0
   -2.1941   19.4973   -3.3975 C   0  0  0  0  0  0  0  0  0  0  0  0
    0.5249   17.4102   -8.8725 C   0  0  0  0  0  0  0  0  0  0  0  0
   -1.0570   20.2064   -3.6384 C   0  0  0  0  0  0  0  0  0  0  0  0
   -0.0147   17.5057  -10.1395 C   0  0  0  0  0  0  0  0  0  0  0  0
    2.3763   17.0048  -10.0625 C   0  0  0  0  0  0  0  0  0  0  0  0
   -1.4748   21.3352   -1.6086 C   0  0  0  0  0  0  0  0  0  0  0  0
    4.2809   16.6089  -11.6266 C   0  0  0  0  0  0  0  0  0  0  0  0
    5.3684   17.6613  -11.8189 C   0  0  0  0  0  0  0  0  0  0  0  0
    4.8719   15.2158  -11.8193 C   0  0  0  0  0  0  0  0  0  0  0  0
   -0.2681   11.9507    0.4379 H   0  0  0  0  0  0  0  0  0  0  0  0
   -4.3997   13.4674   -3.9498 H   0  0  0  0  0  0  0  0  0  0  0  0
   -1.6313   11.8264    2.1916 H   0  0  0  0  0  0  0  0  0  0  0  0
   -3.5575   11.6442   -2.1513 H   0  0  0  0  0  0  0  0  0  0  0  0
    0.5461   14.1967   -2.8736 H   0  0  0  0  0  0  0  0  0  0  0  0
    4.2910   16.6221   -9.4975 H   0  0  0  0  0  0  0  0  0  0  0  0
   -0.9885    9.6482   -0.0675 H   0  0  0  0  0  0  0  0  0  0  0  0
   -1.1428   10.0231   -1.8567 H   0  0  0  0  0  0  0  0  0  0  0  0
    1.5724   10.3804   -0.2365 H   0  0  0  0  0  0  0  0  0  0  0  0
   -4.7888   16.8873   -3.7209 H   0  0  0  0  0  0  0  0  0  0  0  0
   -5.7309   15.8915   -4.7386 H   0  0  0  0  0  0  0  0  0  0  0  0
   -4.0097   14.9095   -5.5224 H   0  0  0  0  0  0  0  0  0  0  0  0
   -1.7822   16.4548   -3.8837 H   0  0  0  0  0  0  0  0  0  0  0  0
   -3.1417   16.3450   -2.9146 H   0  0  0  0  0  0  0  0  0  0  0  0
    1.8096   12.3689   -2.3955 H   0  0  0  0  0  0  0  0  0  0  0  0
    4.3972   11.7835   -1.6511 H   0  0  0  0  0  0  0  0  0  0  0  0
    4.0031   10.5787   -2.8675 H   0  0  0  0  0  0  0  0  0  0  0  0
   -0.5147   15.6778   -5.1396 H   0  0  0  0  0  0  0  0  0  0  0  0
    3.9834   13.6780   -3.1112 H   0  0  0  0  0  0  0  0  0  0  0  0
    4.7612   12.5502   -4.1411 H   0  0  0  0  0  0  0  0  0  0  0  0
    0.7493   14.3791   -6.4332 H   0  0  0  0  0  0  0  0  0  0  0  0
    0.4142   12.9381   -5.5260 H   0  0  0  0  0  0  0  0  0  0  0  0
    2.8647   12.1300   -5.4139 H   0  0  0  0  0  0  0  0  0  0  0  0
    1.7798   12.1617   -4.1110 H   0  0  0  0  0  0  0  0  0  0  0  0
    2.1789   14.6573   -3.8775 H   0  0  0  0  0  0  0  0  0  0  0  0
    2.8109   14.6334   -5.4701 H   0  0  0  0  0  0  0  0  0  0  0  0
    1.1450   15.9020    0.5184 H   0  0  0  0  0  0  0  0  0  0  0  0
    3.1299   15.2763   -1.6315 H   0  0  0  0  0  0  0  0  0  0  0  0
    3.4451   15.5884    0.0981 H   0  0  0  0  0  0  0  0  0  0  0  0
   -0.4708   14.3567    0.1882 H   0  0  0  0  0  0  0  0  0  0  0  0
   -0.1514   14.0729   -1.3881 H   0  0  0  0  0  0  0  0  0  0  0  0
    3.3724   13.3328   -1.2002 H   0  0  0  0  0  0  0  0  0  0  0  0
    3.4512   13.1141    0.4226 H   0  0  0  0  0  0  0  0  0  0  0  0
    1.1303   12.8901   -0.9941 H   0  0  0  0  0  0  0  0  0  0  0  0
    1.2802   12.7846    0.7877 H   0  0  0  0  0  0  0  0  0  0  0  0
   -1.6992   16.0363   -8.1527 H   0  0  0  0  0  0  0  0  0  0  0  0
   -3.4911   18.1276   -4.0044 H   0  0  0  0  0  0  0  0  0  0  0  0
    0.5851   20.4688   -5.0095 H   0  0  0  0  0  0  0  0  0  0  0  0
   -2.7921   19.5470   -2.4938 H   0  0  0  0  0  0  0  0  0  0  0  0
   -1.0309   17.7263  -10.4327 H   0  0  0  0  0  0  0  0  0  0  0  0
   -2.5067   21.6007   -1.8873 H   0  0  0  0  0  0  0  0  0  0  0  0
   -1.4796   20.4311   -0.9815 H   0  0  0  0  0  0  0  0  0  0  0  0
   -1.0813   22.1541   -1.0089 H   0  0  0  0  0  0  0  0  0  0  0  0
    3.5457   16.7583  -12.4218 H   0  0  0  0  0  0  0  0  0  0  0  0
    6.1961   17.5216  -11.1155 H   0  0  0  0  0  0  0  0  0  0  0  0
    5.7780   17.5972  -12.8343 H   0  0  0  0  0  0  0  0  0  0  0  0
    4.9704   18.6713  -11.6814 H   0  0  0  0  0  0  0  0  0  0  0  0
    4.1105   14.4422  -11.6794 H   0  0  0  0  0  0  0  0  0  0  0  0
    5.2732   15.1136  -12.8344 H   0  0  0  0  0  0  0  0  0  0  0  0
    5.6878   15.0222  -11.1149 H   0  0  0  0  0  0  0  0  0  0  0  0
  1 50  1  0  0  0  0
  1 51  1  0  0  0  0
  2 20  1  0  0  0  0
  2 58  1  0  0  0  0
  3 20  2  0  0  0  0
  4 22  2  0  0  0  0
  5 34  1  0  0  0  0
  6 28  2  0  0  0  0
  7 35  1  0  0  0  0
  7 36  1  0  0  0  0
  8 36  2  0  0  0  0
  9 49  1  0  0  0  0
  9 52  1  0  0  0  0
 10 16  1  0  0  0  0
 10 22  1  0  0  0  0
 10 59  1  0  0  0  0
 11 21  1  0  0  0  0
 11 25  1  0  0  0  0
 11 28  1  0  0  0  0
 12 36  1  0  0  0  0
 12 60  1  0  0  0  0
 13 43  1  0  0  0  0
 13 44  2  0  0  0  0
 14 48  1  0  0  0  0
 14 51  2  0  0  0  0
 15 51  1  0  0  0  0
 15 53  1  0  0  0  0
 15 61  1  0  0  0  0
 16 17  1  0  0  0  0
 16 18  1  0  0  0  0
 16 20  1  6  0  0  0
 17 18  1  0  0  0  0
 17 19  1  0  0  0  0
 17 56  1  1  0  0  0
 18 62  1  0  0  0  0
 18 63  1  0  0  0  0
 19 26  2  0  0  0  0
 19 64  1  0  0  0  0
 21 22  1  0  0  0  0
 21 23  1  0  0  0  0
 21 57  1  1  0  0  0
 23 24  1  0  0  0  0
 23 65  1  0  0  0  0
 23 66  1  0  0  0  0
 24 25  1  0  0  0  0
 24 67  1  6  0  0  0
 24  5  1  0  0  0  0
 25 68  1  0  0  0  0
 25 69  1  0  0  0  0
 26 27  1  0  0  0  0
 26 70  1  0  0  0  0
 27 30  1  0  0  0  0
 27 71  1  0  0  0  0
 27 72  1  0  0  0  0
 28 29  1  0  0  0  0
 29 12  1  0  0  0  0
 29 31  1  0  0  0  0
 29 73  1  6  0  0  0
 30 32  1  0  0  0  0
 30 74  1  0  0  0  0
 30 75  1  0  0  0  0
 31 33  1  0  0  0  0
 31 76  1  0  0  0  0
 31 77  1  0  0  0  0
 32 33  1  0  0  0  0
 32 78  1  0  0  0  0
 32 79  1  0  0  0  0
 33 80  1  0  0  0  0
 33 81  1  0  0  0  0
 34 39  1  0  0  0  0
 34 42  2  0  0  0  0
 35 37  1  0  0  0  0
 35 38  1  0  0  0  0
 35 82  1  0  0  0  0
 37 40  1  0  0  0  0
 37 83  1  0  0  0  0
 37 84  1  0  0  0  0
 38 41  1  0  0  0  0
 38 85  1  0  0  0  0
 38 86  1  0  0  0  0
 39 43  2  0  0  0  0
 39 45  1  0  0  0  0
 40 41  1  0  0  0  0
 40 87  1  0  0  0  0
 40 88  1  0  0  0  0
 41 89  1  0  0  0  0
 41 90  1  0  0  0  0
 42 44  1  0  0  0  0
 42 91  1  0  0  0  0
 43 46  1  0  0  0  0
 44 48  1  0  0  0  0
 45 47  2  0  0  0  0
 45 92  1  0  0  0  0
 46 49  2  0  0  0  0
 46 93  1  0  0  0  0
 47 49  1  0  0  0  0
 47 94  1  0  0  0  0
 48 50  2  0  0  0  0
 50 95  1  0  0  0  0
 52 96  1  0  0  0  0
 52 97  1  0  0  0  0
 52 98  1  0  0  0  0
 53 54  1  0  0  0  0
 53 55  1  0  0  0  0
 53 99  1  0  0  0  0
 54100  1  0  0  0  0
 54101  1  0  0  0  0
 54102  1  0  0  0  0
 55103  1  0  0  0  0
 55104  1  0  0  0  0
 55105  1  0  0  0  0
M  END
>  <DRUGBANK_ID>
DB05868

>  <SECONDARY_ACCESSION_NUMBERS>
DB13130

>  <COMMON_NAME>
Ciluprevir

>  <CAS_NUMBER>
300832-84-2

>  <UNII>
75C8DU40T0

>  <SYNONYMS>
Ciluprevir

$$$$
