
 OpenBabel10282417143D

 82 84  0  0  1  0  0  0  0  0999 V2000
   -8.6109   -1.6095   12.3658 F   0  0  0  0  0  0  0  0  0  0  0  0
   -7.9100    4.6627    7.7941 O   0  0  0  0  0  0  0  0  0  0  0  0
  -12.3288   -0.2359    6.0737 O   0  0  0  0  0  0  0  0  0  0  0  0
   -8.9761   -2.1189    3.4884 O   0  0  0  0  0  0  0  0  0  0  0  0
  -11.7055   -2.3406   12.5896 O   0  0  0  0  0  0  0  0  0  0  0  0
  -12.8530    2.1202    3.1588 O   0  0  0  0  0  0  0  0  0  0  0  0
  -11.7198   -0.0943   12.7272 O   0  0  0  0  0  0  0  0  0  0  0  0
  -12.0801    2.5379    7.2851 O   0  0  0  0  0  0  0  0  0  0  0  0
  -10.0433    4.7518    8.9516 N   0  0  0  0  0  0  0  0  0  0  0  0
  -11.0473    0.1612    7.7961 N   0  0  0  0  0  0  0  0  0  0  0  0
  -10.9945    0.8980    3.4196 N   0  0  0  0  0  0  0  0  0  0  0  0
  -12.7997    2.3501    6.1250 N   0  0  0  0  0  0  0  0  0  0  0  0
   -8.3550    3.0248    9.7973 C   0  0  2  0  0  0  0  0  0  0  0  0
   -8.3442    1.4245    9.1992 C   0  0  0  0  0  0  0  0  0  0  0  0
   -9.6243    3.1896   10.6957 C   0  0  0  0  0  0  0  0  0  0  0  0
   -9.9878    0.4462    8.9535 C   0  0  1  0  0  0  0  0  0  0  0  0
  -10.7744    3.7530    9.8301 C   0  0  0  0  0  0  0  0  0  0  0  0
   -8.5567    4.3977    8.8154 C   0  0  0  0  0  0  0  0  0  0  0  0
  -10.9286   -2.0608    6.3477 C   0  0  2  0  0  0  0  0  0  0  0  0
  -11.0043   -2.0860    4.7441 C   0  0  0  0  0  0  0  0  0  0  0  0
  -11.3953   -0.6686    6.7756 C   0  0  0  0  0  0  0  0  0  0  0  0
   -9.7622    0.1227    3.8335 C   0  0  1  0  0  0  0  0  0  0  0  0
   -9.7096   -2.9055    6.8821 C   0  0  0  0  0  0  0  0  0  0  0  0
   -9.0696    0.6559    5.0581 C   0  0  0  0  0  0  0  0  0  0  0  0
   -9.8848   -1.4142    3.9506 C   0  0  0  0  0  0  0  0  0  0  0  0
  -10.8965    0.1881   10.1002 C   0  0  0  0  0  0  0  0  0  0  0  0
   -9.2327   -2.8919    8.3483 C   0  0  0  0  0  0  0  0  0  0  0  0
   -7.8860   -0.0401    5.6964 C   0  0  0  0  0  0  0  0  0  0  0  0
   -8.5624    2.0349    4.7429 C   0  0  0  0  0  0  0  0  0  0  0  0
  -11.2649   -0.9932   10.6153 C   0  0  0  0  0  0  0  0  0  0  0  0
   -9.0196   -3.7873    9.3574 C   0  0  0  0  0  0  0  0  0  0  0  0
   -8.7277   -1.7078    8.7542 C   0  0  0  0  0  0  0  0  0  0  0  0
  -11.9272    1.8272    3.9015 C   0  0  0  0  0  0  0  0  0  0  0  0
  -11.6144   -1.1057   12.0392 C   0  0  0  0  0  0  0  0  0  0  0  0
   -8.5932   -3.3868   10.7064 C   0  0  0  0  0  0  0  0  0  0  0  0
   -8.4513   -1.2499   10.0968 C   0  0  0  0  0  0  0  0  0  0  0  0
  -11.8456    2.5172    5.1712 C   0  0  0  0  0  0  0  0  0  0  0  0
   -8.4566   -2.0921   11.1187 C   0  0  0  0  0  0  0  0  0  0  0  0
  -10.9162    3.4654    5.6124 C   0  0  0  0  0  0  0  0  0  0  0  0
  -10.8696    2.8965    6.8587 C   0  0  0  0  0  0  0  0  0  0  0  0
  -11.3548   -3.6422   12.0575 C   0  0  0  0  0  0  0  0  0  0  0  0
   -9.7493    2.4266    7.4770 C   0  0  0  0  0  0  0  0  0  0  0  0
  -11.9843   -4.0172   10.7276 C   0  0  0  0  0  0  0  0  0  0  0  0
  -10.4743    4.9538    8.0268 H   0  0  0  0  0  0  0  0  0  0  0  0
  -11.7549    0.8888    7.7418 H   0  0  0  0  0  0  0  0  0  0  0  0
  -11.2704    0.6993    2.4670 H   0  0  0  0  0  0  0  0  0  0  0  0
   -7.3704    3.1326   10.2888 H   0  0  0  0  0  0  0  0  0  0  0  0
   -7.5463    0.8471    9.7269 H   0  0  0  0  0  0  0  0  0  0  0  0
   -7.7156    1.3692    8.2732 H   0  0  0  0  0  0  0  0  0  0  0  0
   -9.8239    2.2335   11.1784 H   0  0  0  0  0  0  0  0  0  0  0  0
   -9.4576    3.9221   11.4726 H   0  0  0  0  0  0  0  0  0  0  0  0
   -9.3949    0.1780    8.1287 H   0  0  0  0  0  0  0  0  0  0  0  0
  -11.2551    2.8768    9.3592 H   0  0  0  0  0  0  0  0  0  0  0  0
  -11.7419    4.1519   10.1668 H   0  0  0  0  0  0  0  0  0  0  0  0
  -11.8152   -2.6358    6.6632 H   0  0  0  0  0  0  0  0  0  0  0  0
  -10.9873   -3.1419    4.4405 H   0  0  0  0  0  0  0  0  0  0  0  0
  -11.9467   -1.7029    4.3244 H   0  0  0  0  0  0  0  0  0  0  0  0
   -9.0537    0.2971    3.0081 H   0  0  0  0  0  0  0  0  0  0  0  0
   -8.8665   -2.5246    6.3083 H   0  0  0  0  0  0  0  0  0  0  0  0
   -9.7981   -3.9246    6.4995 H   0  0  0  0  0  0  0  0  0  0  0  0
   -9.8496    0.6839    5.7982 H   0  0  0  0  0  0  0  0  0  0  0  0
  -11.2719    1.0527   10.6220 H   0  0  0  0  0  0  0  0  0  0  0  0
   -6.9319    0.3387    5.3375 H   0  0  0  0  0  0  0  0  0  0  0  0
   -7.9081    0.2362    6.7415 H   0  0  0  0  0  0  0  0  0  0  0  0
   -7.8567   -1.1176    5.6702 H   0  0  0  0  0  0  0  0  0  0  0  0
   -9.2867    2.5849    4.1623 H   0  0  0  0  0  0  0  0  0  0  0  0
   -8.3404    2.5310    5.6603 H   0  0  0  0  0  0  0  0  0  0  0  0
   -7.6182    2.1038    4.2264 H   0  0  0  0  0  0  0  0  0  0  0  0
  -10.9556   -1.8674   10.1054 H   0  0  0  0  0  0  0  0  0  0  0  0
   -9.1861   -4.8291    9.1590 H   0  0  0  0  0  0  0  0  0  0  0  0
   -8.8087   -1.1537    7.8514 H   0  0  0  0  0  0  0  0  0  0  0  0
   -8.4806   -4.1092   11.4915 H   0  0  0  0  0  0  0  0  0  0  0  0
   -8.5716   -0.2501   10.5163 H   0  0  0  0  0  0  0  0  0  0  0  0
  -10.0084    3.9228    5.2857 H   0  0  0  0  0  0  0  0  0  0  0  0
  -10.2855   -3.7685   12.1212 H   0  0  0  0  0  0  0  0  0  0  0  0
  -11.6801   -4.3840   12.7948 H   0  0  0  0  0  0  0  0  0  0  0  0
   -9.6185    3.1842    8.0980 H   0  0  0  0  0  0  0  0  0  0  0  0
  -10.0818    2.0666    8.3899 H   0  0  0  0  0  0  0  0  0  0  0  0
   -8.7016    2.4282    7.2382 H   0  0  0  0  0  0  0  0  0  0  0  0
  -11.8204   -3.3555    9.8835 H   0  0  0  0  0  0  0  0  0  0  0  0
  -11.6175   -4.9844   10.3759 H   0  0  0  0  0  0  0  0  0  0  0  0
  -13.0649   -4.0194   10.8485 H   0  0  0  0  0  0  0  0  0  0  0  0
  1 38  1  0  0  0  0
  2 18  2  0  0  0  0
  3 21  2  0  0  0  0
  4 25  2  0  0  0  0
  5 34  1  0  0  0  0
  5 41  1  0  0  0  0
  6 33  2  0  0  0  0
  7 34  2  0  0  0  0
  8 12  1  0  0  0  0
  8 40  1  0  0  0  0
  9 17  1  0  0  0  0
  9 18  1  0  0  0  0
  9 44  1  0  0  0  0
 10 21  1  0  0  0  0
 10 45  1  0  0  0  0
 11 33  1  0  0  0  0
 11 46  1  0  0  0  0
 12 37  2  0  0  0  0
 13 15  1  0  0  0  0
 13 18  1  0  0  0  0
 13 47  1  1  0  0  0
 13 14  1  0  0  0  0
 14 16  1  0  0  0  0
 14 48  1  0  0  0  0
 14 49  1  0  0  0  0
 15 17  1  0  0  0  0
 15 50  1  0  0  0  0
 15 51  1  0  0  0  0
 16 10  1  0  0  0  0
 16 26  1  0  0  0  0
 16 52  1  6  0  0  0
 17 53  1  0  0  0  0
 17 54  1  0  0  0  0
 19 23  1  0  0  0  0
 19 55  1  1  0  0  0
 19 21  1  0  0  0  0
 19 20  1  0  0  0  0
 20 25  1  0  0  0  0
 20 56  1  0  0  0  0
 20 57  1  0  0  0  0
 22 11  1  0  0  0  0
 22 24  1  0  0  0  0
 22 25  1  0  0  0  0
 22 58  1  6  0  0  0
 23 27  1  0  0  0  0
 23 59  1  0  0  0  0
 23 60  1  0  0  0  0
 24 28  1  0  0  0  0
 24 29  1  0  0  0  0
 24 61  1  0  0  0  0
 26 30  2  0  0  0  0
 26 62  1  0  0  0  0
 27 31  2  0  0  0  0
 27 32  1  0  0  0  0
 28 63  1  0  0  0  0
 28 64  1  0  0  0  0
 28 65  1  0  0  0  0
 29 66  1  0  0  0  0
 29 67  1  0  0  0  0
 29 68  1  0  0  0  0
 30 34  1  0  0  0  0
 30 69  1  0  0  0  0
 31 35  1  0  0  0  0
 31 70  1  0  0  0  0
 32 36  2  0  0  0  0
 32 71  1  0  0  0  0
 33 37  1  0  0  0  0
 35 38  2  0  0  0  0
 35 72  1  0  0  0  0
 36 38  1  0  0  0  0
 36 73  1  0  0  0  0
 37 39  1  0  0  0  0
 39 40  2  0  0  0  0
 39 74  1  0  0  0  0
 40 42  1  0  0  0  0
 41 43  1  0  0  0  0
 41 75  1  0  0  0  0
 41 76  1  0  0  0  0
 42 77  1  0  0  0  0
 42 78  1  0  0  0  0
 42 79  1  0  0  0  0
 43 80  1  0  0  0  0
 43 81  1  0  0  0  0
 43 82  1  0  0  0  0
M  END
>  <DRUGBANK_ID>
DB05102

>  <COMMON_NAME>
Rupintrivir

>  <CAS_NUMBER>
223537-30-2

>  <UNII>
RGE5K1Q5QW

>  <SYNONYMS>
Rupintrivir

$$$$
