AM4
 OpenBabel10282417163D

 23 23  0  0  0  0  0  0  0  0999 V2000
    1.4076   -0.1771   -0.0222 C   0  0  0  0  0  0  0  0  0  0  0  0
    0.5286   -1.2656    0.0079 C   0  0  0  0  0  0  0  0  0  0  0  0
   -0.8620   -1.0746    0.0030 C   0  0  0  0  0  0  0  0  0  0  0  0
   -1.7824   -2.2650    0.0379 C   0  0  0  0  0  0  0  0  0  0  0  0
   -3.0765   -2.1779    0.0572 N   0  0  0  0  0  0  0  0  0  0  0  0
   -1.2980   -3.5340    0.0526 N   0  0  0  0  0  0  0  0  0  0  0  0
   -1.3526    0.2414   -0.0032 C   0  0  0  0  0  0  0  0  0  0  0  0
   -0.4755    1.3370   -0.0013 C   0  0  0  0  0  0  0  0  0  0  0  0
    0.9004    1.1207   -0.0772 C   0  0  0  0  0  0  0  0  0  0  0  0
    2.0129    2.4950   -0.3018 S   0  0  0  0  0  0  0  0  0  0  0  0
    1.5185    3.2495   -1.8356 C   0  0  0  0  0  0  0  0  0  0  0  0
    1.7470    3.4322    0.7747 O   0  0  0  0  0  0  0  0  0  0  0  0
    3.3389    1.9481   -0.5057 O   0  0  0  0  0  0  0  0  0  0  0  0
    2.4801   -0.3608    0.0010 H   0  0  0  0  0  0  0  0  0  0  0  0
    0.9650   -2.2582    0.0247 H   0  0  0  0  0  0  0  0  0  0  0  0
   -3.4152   -1.2183    0.0430 H   0  0  0  0  0  0  0  0  0  0  0  0
   -0.3257   -3.7818    0.1263 H   0  0  0  0  0  0  0  0  0  0  0  0
   -1.9770   -4.2791    0.1512 H   0  0  0  0  0  0  0  0  0  0  0  0
   -2.4173    0.4515   -0.0134 H   0  0  0  0  0  0  0  0  0  0  0  0
   -0.8800    2.3443    0.0715 H   0  0  0  0  0  0  0  0  0  0  0  0
    0.4927    3.6131   -1.7581 H   0  0  0  0  0  0  0  0  0  0  0  0
    2.1853    4.0957   -2.0248 H   0  0  0  0  0  0  0  0  0  0  0  0
    1.6152    2.5274   -2.6491 H   0  0  0  0  0  0  0  0  0  0  0  0
  1  2  2  0  0  0  0
  1  9  1  0  0  0  0
  1 14  1  0  0  0  0
  2  3  1  0  0  0  0
  2 15  1  0  0  0  0
  3  4  1  0  0  0  0
  3  7  2  0  0  0  0
  4  5  2  0  0  0  0
  4  6  1  0  0  0  0
  5 16  1  0  0  0  0
  6 17  1  0  0  0  0
  6 18  1  0  0  0  0
  7  8  1  0  0  0  0
  7 19  1  0  0  0  0
  8  9  2  0  0  0  0
  8 20  1  0  0  0  0
  9 10  1  0  0  0  0
 10 11  1  0  0  0  0
 10 12  2  0  0  0  0
 10 13  2  0  0  0  0
 11 21  1  0  0  0  0
 11 22  1  0  0  0  0
 11 23  1  0  0  0  0
M  END
>  <DRUGBANK_ID>
DB07368

>  <COMMON_NAME>
4-(METHYLSULFONYL)BENZENECARBOXIMIDAMIDE

$$$$
