
 OpenBabel10282417133D

 57 60  0  0  1  0  0  0  0  0999 V2000
    0.6308    2.4472   -1.3023 C   0  0  0  0  0  0  0  0  0  0  0  0
    0.2381    1.7597    0.0244 C   0  0  0  0  0  0  0  0  0  0  0  0
    0.8717    2.5258    1.2125 C   0  0  0  0  0  0  0  0  0  0  0  0
   -1.2749    1.9071    0.2434 C   0  0  0  0  0  0  0  0  0  0  0  0
   -2.1686    0.7681   -0.1733 C   0  0  0  0  0  0  0  0  0  0  0  0
   -1.6400   -0.6715   -0.0238 C   0  0  0  0  0  0  0  0  0  0  0  0
   -2.1666   -1.4153   -1.2774 C   0  0  0  0  0  0  0  0  0  0  0  0
   -2.2960   -1.3085    1.2231 C   0  0  0  0  0  0  0  0  0  0  0  0
   -0.1195   -0.7893    0.0420 C   0  0  0  0  0  0  0  0  0  0  0  0
    0.7389    0.3233    0.0184 C   0  0  0  0  0  0  0  0  0  0  0  0
    2.1367    0.1102   -0.0313 C   0  0  0  0  0  0  0  0  0  0  0  0
    2.6894   -1.1624   -0.0174 C   0  0  0  0  0  0  0  0  0  0  0  0
    1.8542   -2.2709    0.0600 C   0  0  0  0  0  0  0  0  0  0  0  0
    0.4640   -2.0739    0.0929 C   0  0  0  0  0  0  0  0  0  0  0  0
    2.4378   -3.6624    0.0576 C   0  0  1  0  0  0  0  0  0  0  0  0
    2.1178   -4.2964    1.2974 O   0  0  0  0  0  0  0  0  0  0  0  0
    1.9893   -4.5028   -1.1232 C   0  0  0  0  0  0  0  0  0  0  0  0
    1.4083   -5.7640   -0.9261 C   0  0  0  0  0  0  0  0  0  0  0  0
    1.1111   -6.6044   -2.0041 C   0  0  0  0  0  0  0  0  0  0  0  0
    1.3606   -6.1576   -3.3183 C   0  0  0  0  0  0  0  0  0  0  0  0
    1.8690   -4.8678   -3.5220 C   0  0  0  0  0  0  0  0  0  0  0  0
    2.1932   -4.0537   -2.4372 C   0  0  0  0  0  0  0  0  0  0  0  0
    1.1099   -7.0145   -4.4018 C   0  0  0  0  0  0  0  0  0  0  0  0
    0.6102   -8.3068   -4.1975 C   0  0  0  0  0  0  0  0  0  0  0  0
    0.3580   -8.7346   -2.8839 C   0  0  0  0  0  0  0  0  0  0  0  0
    0.5984   -7.8897   -1.7977 C   0  0  0  0  0  0  0  0  0  0  0  0
    0.3232   -9.2657   -5.3054 C   0  0  0  0  0  0  0  0  0  0  0  0
    0.5662   -8.8465   -6.5627 O   0  0  0  0  0  0  0  0  0  0  0  0
   -0.1192  -10.3880   -5.0871 O   0  0  0  0  0  0  0  0  0  0  0  0
    1.7149    2.4575   -1.4663 H   0  0  0  0  0  0  0  0  0  0  0  0
    0.1746    1.9412   -2.1613 H   0  0  0  0  0  0  0  0  0  0  0  0
    0.3028    3.4926   -1.3140 H   0  0  0  0  0  0  0  0  0  0  0  0
    0.5800    2.0571    2.1628 H   0  0  0  0  0  0  0  0  0  0  0  0
    1.9638    2.5518    1.1897 H   0  0  0  0  0  0  0  0  0  0  0  0
    0.5165    3.5623    1.2323 H   0  0  0  0  0  0  0  0  0  0  0  0
   -1.4854    2.1069    1.3003 H   0  0  0  0  0  0  0  0  0  0  0  0
   -1.6289    2.8031   -0.2857 H   0  0  0  0  0  0  0  0  0  0  0  0
   -3.0908    0.8749    0.4146 H   0  0  0  0  0  0  0  0  0  0  0  0
   -2.4790    0.9540   -1.2078 H   0  0  0  0  0  0  0  0  0  0  0  0
   -2.0135   -2.4975   -1.2352 H   0  0  0  0  0  0  0  0  0  0  0  0
   -3.2438   -1.2445   -1.3974 H   0  0  0  0  0  0  0  0  0  0  0  0
   -1.6694   -1.0416   -2.1819 H   0  0  0  0  0  0  0  0  0  0  0  0
   -3.3825   -1.1565    1.2095 H   0  0  0  0  0  0  0  0  0  0  0  0
   -2.1386   -2.3921    1.2729 H   0  0  0  0  0  0  0  0  0  0  0  0
   -1.9079   -0.8689    2.1483 H   0  0  0  0  0  0  0  0  0  0  0  0
    2.8205    0.9550   -0.0919 H   0  0  0  0  0  0  0  0  0  0  0  0
    3.7693   -1.2714   -0.0775 H   0  0  0  0  0  0  0  0  0  0  0  0
   -0.1729   -2.9585    0.1271 H   0  0  0  0  0  0  0  0  0  0  0  0
    3.5335   -3.6129    0.0203 H   0  0  0  0  0  0  0  0  0  0  0  0
    2.3737   -3.6768    1.9998 H   0  0  0  0  0  0  0  0  0  0  0  0
    1.2111   -6.1024    0.0901 H   0  0  0  0  0  0  0  0  0  0  0  0
    2.0361   -4.4898   -4.5280 H   0  0  0  0  0  0  0  0  0  0  0  0
    2.6097   -3.0659   -2.6285 H   0  0  0  0  0  0  0  0  0  0  0  0
    1.3348   -6.6399   -5.3916 H   0  0  0  0  0  0  0  0  0  0  0  0
   -0.0241   -9.7369   -2.6926 H   0  0  0  0  0  0  0  0  0  0  0  0
    0.3981   -8.2473   -0.7888 H   0  0  0  0  0  0  0  0  0  0  0  0
    0.9134   -7.9510   -6.6984 H   0  0  0  0  0  0  0  0  0  0  0  0
  1  2  1  0  0  0  0
  1 30  1  0  0  0  0
  1 31  1  0  0  0  0
  1 32  1  0  0  0  0
  2  3  1  0  0  0  0
  2  4  1  0  0  0  0
  2 10  1  0  0  0  0
  3 33  1  0  0  0  0
  3 34  1  0  0  0  0
  3 35  1  0  0  0  0
  4  5  1  0  0  0  0
  4 36  1  0  0  0  0
  4 37  1  0  0  0  0
  5  6  1  0  0  0  0
  5 38  1  0  0  0  0
  5 39  1  0  0  0  0
  6  7  1  0  0  0  0
  6  8  1  0  0  0  0
  6  9  1  0  0  0  0
  7 40  1  0  0  0  0
  7 41  1  0  0  0  0
  7 42  1  0  0  0  0
  8 43  1  0  0  0  0
  8 44  1  0  0  0  0
  8 45  1  0  0  0  0
  9 10  2  0  0  0  0
  9 14  1  0  0  0  0
 10 11  1  0  0  0  0
 11 12  2  0  0  0  0
 11 46  1  0  0  0  0
 12 13  1  0  0  0  0
 12 47  1  0  0  0  0
 13 14  2  0  0  0  0
 13 15  1  0  0  0  0
 14 48  1  0  0  0  0
 15 16  1  0  0  0  0
 15 17  1  0  0  0  0
 15 49  1  6  0  0  0
 16 50  1  0  0  0  0
 17 18  2  0  0  0  0
 17 22  1  0  0  0  0
 18 19  1  0  0  0  0
 18 51  1  0  0  0  0
 19 20  2  0  0  0  0
 19 26  1  0  0  0  0
 20 21  1  0  0  0  0
 20 23  1  0  0  0  0
 21 22  2  0  0  0  0
 21 52  1  0  0  0  0
 22 53  1  0  0  0  0
 23 24  2  0  0  0  0
 23 54  1  0  0  0  0
 24 25  1  0  0  0  0
 24 27  1  0  0  0  0
 25 26  2  0  0  0  0
 25 55  1  0  0  0  0
 26 56  1  0  0  0  0
 27 28  1  0  0  0  0
 27 29  2  0  0  0  0
 28 57  1  0  0  0  0
M  END
>  <DRUGBANK_ID>
DB03466

>  <SECONDARY_ACCESSION_NUMBERS>
EXPT00057

>  <COMMON_NAME>
BMS184394

$$$$
