Sarcosine.mol
 OpenBabel10282417193D

 13 12  0  0  0  0  0  0  0  0999 V2000
    0.9175   -0.0124    0.0075 C   0  0  0  0  0  0  0  0  0  0  0  0
   -0.6542   -1.8847   -0.3224 N   0  0  0  0  0  0  0  0  0  0  0  0
    0.2028   -0.9089   -1.0087 C   0  0  0  0  0  0  0  0  0  0  0  0
   -1.3993   -2.6992   -1.2677 C   0  0  0  0  0  0  0  0  0  0  0  0
    0.3475    0.7005    0.8236 O   0  0  0  0  0  0  0  0  0  0  0  0
    2.2707   -0.0608   -0.0566 O   0  0  0  0  0  0  0  0  0  0  0  0
   -0.1030   -2.4722    0.3017 H   0  0  0  0  0  0  0  0  0  0  0  0
   -0.3922   -0.2508   -1.6523 H   0  0  0  0  0  0  0  0  0  0  0  0
    0.9344   -1.4245   -1.6402 H   0  0  0  0  0  0  0  0  0  0  0  0
   -0.7290   -3.2758   -1.9125 H   0  0  0  0  0  0  0  0  0  0  0  0
   -2.0369   -3.4046   -0.7253 H   0  0  0  0  0  0  0  0  0  0  0  0
   -2.0533   -2.0812   -1.8917 H   0  0  0  0  0  0  0  0  0  0  0  0
    2.6443   -0.6607   -0.7272 H   0  0  0  0  0  0  0  0  0  0  0  0
  1  3  1  0  0  0  0
  1  5  2  0  0  0  0
  1  6  1  0  0  0  0
  2  3  1  0  0  0  0
  2  4  1  0  0  0  0
  2  7  1  0  0  0  0
  3  8  1  0  0  0  0
  3  9  1  0  0  0  0
  4 10  1  0  0  0  0
  4 11  1  0  0  0  0
  4 12  1  0  0  0  0
  6 13  1  0  0  0  0
M  END
>  <DRUGBANK_ID>
DB12519

>  <COMMON_NAME>
Sarcosine

>  <CAS_NUMBER>
107-97-1

>  <UNII>
Z711V88R5F

$$$$
