
 OpenBabel10282417213D

 21 22  0  0  0  0  0  0  0  0999 V2000
    2.0967    0.7098    0.0038 N   0  0  0  0  0  0  0  0  0  0  0  0
    0.9324    1.4810   -0.0010 C   0  0  0  0  0  0  0  0  0  0  0  0
   -0.2479    0.6981   -0.0010 C   0  0  0  0  0  0  0  0  0  0  0  0
   -0.2535   -0.6656    0.0001 C   0  0  0  0  0  0  0  0  0  0  0  0
    0.9233   -1.3810   -0.0001 N   0  0  0  0  0  0  0  0  0  0  0  0
    2.1438   -0.6967   -0.0009 C   0  0  0  0  0  0  0  0  0  0  0  0
   -1.5615    1.0707   -0.0007 N   0  0  0  0  0  0  0  0  0  0  0  0
   -2.2771   -0.0894    0.0008 C   0  0  0  0  0  0  0  0  0  0  0  0
   -1.5240   -1.1657    0.0013 N   0  0  0  0  0  0  0  0  0  0  0  0
    0.9220   -2.8331    0.0015 C   0  0  0  0  0  0  0  0  0  0  0  0
    3.3549    1.4332    0.0122 C   0  0  0  0  0  0  0  0  0  0  0  0
    3.2200   -1.3006   -0.0053 O   0  0  0  0  0  0  0  0  0  0  0  0
    0.9077    2.7091   -0.0044 O   0  0  0  0  0  0  0  0  0  0  0  0
   -3.9705   -0.0001    0.0020 Cl  0  0  0  0  0  0  0  0  0  0  0  0
   -1.9323    2.0119   -0.0007 H   0  0  0  0  0  0  0  0  0  0  0  0
    0.4125   -3.1946    0.8994 H   0  0  0  0  0  0  0  0  0  0  0  0
    0.4110   -3.1971   -0.8945 H   0  0  0  0  0  0  0  0  0  0  0  0
    1.9390   -3.2372    0.0015 H   0  0  0  0  0  0  0  0  0  0  0  0
    3.4044    2.0745   -0.8735 H   0  0  0  0  0  0  0  0  0  0  0  0
    3.3942    2.0689    0.9026 H   0  0  0  0  0  0  0  0  0  0  0  0
    4.2254    0.7722    0.0158 H   0  0  0  0  0  0  0  0  0  0  0  0
  2  1  1  0  0  0  0
  2  3  1  0  0  0  0
  2 13  2  0  0  0  0
  3  4  2  0  0  0  0
  3  7  1  0  0  0  0
  4  5  1  0  0  0  0
  4  9  1  0  0  0  0
  6  1  1  0  0  0  0
  6  5  1  0  0  0  0
  6 12  2  0  0  0  0
  7 15  1  0  0  0  0
  8  7  1  0  0  0  0
  8  9  2  0  0  0  0
  8 14  1  0  0  0  0
 10  5  1  0  0  0  0
 10 16  1  0  0  0  0
 10 17  1  0  0  0  0
 10 18  1  0  0  0  0
 11  1  1  0  0  0  0
 11 19  1  0  0  0  0
 11 20  1  0  0  0  0
 11 21  1  0  0  0  0
M  END
>  <DRUGBANK_ID>
DB14132

>  <COMMON_NAME>
8-chlorotheophylline

>  <CAS_NUMBER>
85-18-7

>  <UNII>
GE2UA340FM

>  <SYNONYMS>
1,3-dimethyl-8-chloroxanthine; 8-chloro-1,3-dimethyl-3,7-dihydro-1H-purine-2,6-dione; Chlorotheophylline; Chlortheophylline

$$$$
