IAP
 OpenBabel10282417123D

 23 23  0  0  0  0  0  0  0  0999 V2000
    1.0075   -0.0126    0.0989 B   0  0  0  0  0  0  0  0  0  0  0  0
    0.2575   -1.3112    0.0641 O   0  0  0  0  0  0  0  0  0  0  0  0
    0.2575    1.2860    0.1337 O   0  0  0  0  0  0  0  0  0  0  0  0
    2.6075   -0.0126    0.0989 C   0  0  0  0  0  0  0  0  0  0  0  0
    3.2589    1.1441    0.1299 C   0  0  0  0  0  0  0  0  0  0  0  0
    4.6236    1.1743    0.2862 C   0  0  0  0  0  0  0  0  0  0  0  0
    5.3531    0.0184    0.3217 C   0  0  0  0  0  0  0  0  0  0  0  0
    4.6660   -1.1087    0.3633 C   0  0  0  0  0  0  0  0  0  0  0  0
    3.2869   -1.2192    0.0666 C   0  0  0  0  0  0  0  0  0  0  0  0
    5.3839   -2.3336    0.7442 N   0  0  0  0  0  0  0  0  0  0  0  0
    4.6679   -3.6159    0.8066 C   0  0  0  0  0  0  0  0  0  0  0  0
    5.2886   -4.6749    1.1360 O   0  0  0  0  0  0  0  0  0  0  0  0
    3.1852   -3.6753    0.4771 C   0  0  0  0  0  0  0  0  0  0  0  0
    2.0988   -2.4074    1.8316 I   0  0  0  0  0  0  0  0  0  0  0  0
    0.9073   -2.0710    0.0438 H   0  0  0  0  0  0  0  0  0  0  0  0
   -0.7257    1.1033    0.1288 H   0  0  0  0  0  0  0  0  0  0  0  0
    2.7160    2.0610    0.0323 H   0  0  0  0  0  0  0  0  0  0  0  0
    5.1228    2.1159    0.3815 H   0  0  0  0  0  0  0  0  0  0  0  0
    6.4230    0.0265    0.3161 H   0  0  0  0  0  0  0  0  0  0  0  0
    2.8120   -2.1504   -0.1620 H   0  0  0  0  0  0  0  0  0  0  0  0
    6.3789   -2.2937    0.9653 H   0  0  0  0  0  0  0  0  0  0  0  0
    3.0294   -3.3407   -0.5272 H   0  0  0  0  0  0  0  0  0  0  0  0
    2.8381   -4.6826    0.5755 H   0  0  0  0  0  0  0  0  0  0  0  0
  1  2  1  0  0  0  0
  1  3  1  0  0  0  0
  1  4  1  0  0  0  0
  2 15  1  0  0  0  0
  3 16  1  0  0  0  0
  4  5  2  0  0  0  0
  4  9  1  0  0  0  0
  5  6  1  0  0  0  0
  5 17  1  0  0  0  0
  6  7  2  0  0  0  0
  6 18  1  0  0  0  0
  7  8  1  0  0  0  0
  7 19  1  0  0  0  0
  8  9  2  0  0  0  0
  8 10  1  0  0  0  0
  9 20  1  0  0  0  0
 10 11  1  0  0  0  0
 10 21  1  0  0  0  0
 11 12  2  0  0  0  0
 11 13  1  0  0  0  0
 13 14  1  0  0  0  0
 13 22  1  0  0  0  0
 13 23  1  0  0  0  0
M  END
>  <DRUGBANK_ID>
DB02122

>  <SECONDARY_ACCESSION_NUMBERS>
EXPT01822

>  <COMMON_NAME>
4-iodo-acetamido phenylboronic acid

$$$$
