
 OpenBabel10282417243D

 79 82  0  0  1  0  0  0  0  0999 V2000
    2.3978   -0.2817   -0.9893 H   0  0  0  0  0  0  0  0  0  0  0  0
    2.0106   -0.0528    0.0155 C   0  0  1  0  0  0  0  0  0  0  0  0
    2.7233    1.2375    0.4117 C   0  0  0  0  0  0  0  0  0  0  0  0
    3.7305    0.9665    1.5152 C   0  0  0  0  0  0  0  0  0  0  0  0
    3.9887   -0.4900    1.2548 C   0  0  1  0  0  0  0  0  0  0  0  0
    4.5431   -0.5258    0.3019 H   0  0  0  0  0  0  0  0  0  0  0  0
    4.8146   -1.2557    2.2627 C   0  0  2  0  0  0  0  0  0  0  0  0
    4.3226   -1.2754    3.2431 H   0  0  0  0  0  0  0  0  0  0  0  0
    6.1718   -0.5611    2.4209 C   0  0  0  0  0  0  0  0  0  0  0  0
    7.2220   -1.4487    2.9736 C   0  0  0  0  0  0  0  0  0  0  0  0
    7.0891   -2.7788    3.0714 C   0  0  0  0  0  0  0  0  0  0  0  0
    8.1808   -3.5631    3.7056 C   0  0  0  0  0  0  0  0  0  0  0  0
    8.5665   -4.8155    2.9319 C   0  0  2  0  0  0  0  0  0  0  0  0
    7.3498   -5.6371    2.5202 C   0  0  0  0  0  0  0  0  0  0  0  0
    6.2732   -4.8192    1.8363 C   0  0  0  0  0  0  0  0  0  0  0  0
    5.8461   -3.5647    2.6471 C   0  0  1  0  0  0  0  0  0  0  0  0
    5.0662   -3.9919    3.9204 C   0  0  0  0  0  0  0  0  0  0  0  0
    4.9695   -2.6919    1.7108 C   0  0  1  0  0  0  0  0  0  0  0  0
    5.5194   -2.5906    0.7608 H   0  0  0  0  0  0  0  0  0  0  0  0
    3.6146   -3.3469    1.3407 C   0  0  0  0  0  0  0  0  0  0  0  0
    2.7579   -2.4747    0.4253 C   0  0  0  0  0  0  0  0  0  0  0  0
    2.5835   -1.0807    1.0250 C   0  0  2  0  0  0  0  0  0  0  0  0
    1.7402   -1.1587    2.3278 C   0  0  0  0  0  0  0  0  0  0  0  0
    9.5094   -5.5806    3.6834 O   0  0  0  0  0  0  0  0  0  0  0  0
    9.1377   -6.3148    5.0953 S   0  0  0  0  0  0  0  0  0  0  0  0
    8.7447   -5.1017    6.0814 O   0  0  0  0  0  0  0  0  0  0  0  0
    7.9562   -7.1399    4.9317 O   0  0  0  0  0  0  0  0  0  0  0  0
   10.3539   -6.8632    5.6294 O   0  0  0  0  0  0  0  0  0  0  0  0
    0.4489    0.0009   -0.0311 C   0  0  2  0  0  0  0  0  0  0  0  0
   -0.0160   -0.7013   -1.3107 C   0  0  0  0  0  0  0  0  0  0  0  0
   -0.2855    1.3505    0.1132 C   0  0  0  0  0  0  0  0  0  0  0  0
   -0.3213    1.9754    1.5378 C   0  0  0  0  0  0  0  0  0  0  0  0
    0.7187    3.0365    1.9896 C   0  0  0  0  0  0  0  0  0  0  0  0
    0.9625    4.1687    0.9571 C   0  0  0  0  0  0  0  0  0  0  0  0
   -0.3215    4.9797    0.8943 C   0  0  0  0  0  0  0  0  0  0  0  0
    2.1654    5.0126    1.3514 C   0  0  0  0  0  0  0  0  0  0  0  0
    1.2688    3.6966   -0.3536 O   0  0  0  0  0  0  0  0  0  0  0  0
    3.1502    1.7993   -0.4219 H   0  0  0  0  0  0  0  0  0  0  0  0
    1.9714    1.8537    0.7852 H   0  0  0  0  0  0  0  0  0  0  0  0
    4.6118    1.6064    1.4210 H   0  0  0  0  0  0  0  0  0  0  0  0
    3.3214    1.1308    2.5206 H   0  0  0  0  0  0  0  0  0  0  0  0
    6.5357   -0.1994    1.4524 H   0  0  0  0  0  0  0  0  0  0  0  0
    6.0597    0.3137    3.0728 H   0  0  0  0  0  0  0  0  0  0  0  0
    8.1300   -0.9574    3.3161 H   0  0  0  0  0  0  0  0  0  0  0  0
    7.7783   -3.8253    4.6781 H   0  0  0  0  0  0  0  0  0  0  0  0
    9.0790   -2.9646    3.9034 H   0  0  0  0  0  0  0  0  0  0  0  0
    9.0808   -4.4967    2.0100 H   0  0  0  0  0  0  0  0  0  0  0  0
    6.8669   -6.0622    3.3943 H   0  0  0  0  0  0  0  0  0  0  0  0
    7.6567   -6.4861    1.8997 H   0  0  0  0  0  0  0  0  0  0  0  0
    5.4102   -5.4818    1.6950 H   0  0  0  0  0  0  0  0  0  0  0  0
    6.6241   -4.5347    0.8370 H   0  0  0  0  0  0  0  0  0  0  0  0
    5.6642   -4.6153    4.5929 H   0  0  0  0  0  0  0  0  0  0  0  0
    4.7360   -3.1269    4.5061 H   0  0  0  0  0  0  0  0  0  0  0  0
    4.1809   -4.5879    3.6766 H   0  0  0  0  0  0  0  0  0  0  0  0
    3.7815   -4.3017    0.8341 H   0  0  0  0  0  0  0  0  0  0  0  0
    3.0354   -3.5666    2.2414 H   0  0  0  0  0  0  0  0  0  0  0  0
    1.7859   -2.9519    0.2630 H   0  0  0  0  0  0  0  0  0  0  0  0
    3.2459   -2.4077   -0.5558 H   0  0  0  0  0  0  0  0  0  0  0  0
    0.7897   -1.6766    2.1601 H   0  0  0  0  0  0  0  0  0  0  0  0
    2.2256   -1.7203    3.1268 H   0  0  0  0  0  0  0  0  0  0  0  0
    1.5117   -0.1660    2.7267 H   0  0  0  0  0  0  0  0  0  0  0  0
    9.4823   -4.4624    6.1201 H   0  0  0  0  0  0  0  0  0  0  0  0
    0.0176   -0.5983    0.7670 H   0  0  0  0  0  0  0  0  0  0  0  0
    0.5033   -0.3067   -2.1885 H   0  0  0  0  0  0  0  0  0  0  0  0
    0.1804   -1.7754   -1.2351 H   0  0  0  0  0  0  0  0  0  0  0  0
   -1.0911   -0.5741   -1.4669 H   0  0  0  0  0  0  0  0  0  0  0  0
   -0.0050    2.0279   -0.6911 H   0  0  0  0  0  0  0  0  0  0  0  0
   -1.3406    1.1366   -0.1092 H   0  0  0  0  0  0  0  0  0  0  0  0
   -1.2955    2.4713    1.6187 H   0  0  0  0  0  0  0  0  0  0  0  0
   -0.3575    1.1741    2.2837 H   0  0  0  0  0  0  0  0  0  0  0  0
    0.3831    3.4686    2.9408 H   0  0  0  0  0  0  0  0  0  0  0  0
    1.6579    2.5858    2.3302 H   0  0  0  0  0  0  0  0  0  0  0  0
   -0.5655    5.3653    1.8883 H   0  0  0  0  0  0  0  0  0  0  0  0
   -0.2422    5.8030    0.1845 H   0  0  0  0  0  0  0  0  0  0  0  0
   -1.1577    4.3590    0.5518 H   0  0  0  0  0  0  0  0  0  0  0  0
    3.0876    4.4177    1.3020 H   0  0  0  0  0  0  0  0  0  0  0  0
    2.2986    5.8346    0.6386 H   0  0  0  0  0  0  0  0  0  0  0  0
    2.0572    5.4183    2.3576 H   0  0  0  0  0  0  0  0  0  0  0  0
    1.2504    4.4336   -0.9855 H   0  0  0  0  0  0  0  0  0  0  0  0
  2  3  1  0  0  0  0
  2 22  1  0  0  0  0
  2 29  1  0  0  0  0
  2  1  1  6  0  0  0
  3  4  1  0  0  0  0
  3 38  1  0  0  0  0
  3 39  1  0  0  0  0
  4 40  1  0  0  0  0
  4 41  1  0  0  0  0
  5  4  1  0  0  0  0
  5  6  1  6  0  0  0
  5  7  1  0  0  0  0
  7  8  1  1  0  0  0
  7  9  1  0  0  0  0
  7 18  1  0  0  0  0
  9 10  1  0  0  0  0
  9 42  1  0  0  0  0
  9 43  1  0  0  0  0
 10 11  2  0  0  0  0
 10 44  1  0  0  0  0
 11 12  1  0  0  0  0
 12 45  1  0  0  0  0
 12 46  1  0  0  0  0
 13 12  1  0  0  0  0
 13 14  1  0  0  0  0
 13 24  1  0  0  0  0
 13 47  1  6  0  0  0
 14 15  1  0  0  0  0
 14 48  1  0  0  0  0
 14 49  1  0  0  0  0
 15 50  1  0  0  0  0
 15 51  1  0  0  0  0
 16 15  1  0  0  0  0
 16 11  1  0  0  0  0
 16 17  1  1  0  0  0
 17 52  1  0  0  0  0
 17 53  1  0  0  0  0
 17 54  1  0  0  0  0
 18 16  1  0  0  0  0
 18 19  1  6  0  0  0
 18 20  1  0  0  0  0
 20 21  1  0  0  0  0
 20 55  1  0  0  0  0
 20 56  1  0  0  0  0
 21 57  1  0  0  0  0
 21 58  1  0  0  0  0
 22 21  1  0  0  0  0
 22  5  1  0  0  0  0
 22 23  1  1  0  0  0
 23 59  1  0  0  0  0
 23 60  1  0  0  0  0
 23 61  1  0  0  0  0
 24 25  1  0  0  0  0
 25 26  1  0  0  0  0
 25 27  2  0  0  0  0
 25 28  2  0  0  0  0
 26 62  1  0  0  0  0
 29 63  1  1  0  0  0
 29 31  1  0  0  0  0
 29 30  1  0  0  0  0
 30 64  1  0  0  0  0
 30 65  1  0  0  0  0
 30 66  1  0  0  0  0
 31 32  1  0  0  0  0
 31 67  1  0  0  0  0
 31 68  1  0  0  0  0
 32 33  1  0  0  0  0
 32 69  1  0  0  0  0
 32 70  1  0  0  0  0
 33 34  1  0  0  0  0
 33 71  1  0  0  0  0
 33 72  1  0  0  0  0
 34 35  1  0  0  0  0
 34 36  1  0  0  0  0
 34 37  1  0  0  0  0
 35 73  1  0  0  0  0
 35 74  1  0  0  0  0
 35 75  1  0  0  0  0
 36 76  1  0  0  0  0
 36 77  1  0  0  0  0
 36 78  1  0  0  0  0
 37 79  1  0  0  0  0
M  END
>  <DRUGBANK_ID>
DB18079

>  <COMMON_NAME>
Larsucosterol

>  <CAS_NUMBER>
884905-07-1

>  <UNII>
UGX2V7MGMZ

>  <SYNONYMS>
25-hydroxycholest-5-en-3.beta.-yl hydrogen sulfate; 5-cholesten-3.beta.-25-diol-3-sulfate; 5-cholesten-3.beta., 25-diol 3-sulfate; Cholest-5-ene-3,25-diol, 3-(hydrogen sulfate), (3.beta.)-

$$$$
