8IP
 OpenBabel10282417163D

 37 39  0  0  0  0  0  0  0  0999 V2000
    2.2882   -0.1387    0.2086 N   0  0  0  0  0  0  0  0  0  0  0  0
    0.9003   -0.1042    0.0480 C   0  0  0  0  0  0  0  0  0  0  0  0
    0.3547    1.1326    0.0051 N   0  0  0  0  0  0  0  0  0  0  0  0
   -0.9911    1.2229   -0.0117 C   0  0  0  0  0  0  0  0  0  0  0  0
   -1.8357    0.1301   -0.0413 C   0  0  0  0  0  0  0  0  0  0  0  0
   -1.2573   -1.1299   -0.0125 C   0  0  0  0  0  0  0  0  0  0  0  0
    0.1262   -1.2940    0.0799 C   0  0  0  0  0  0  0  0  0  0  0  0
    0.7214   -2.5445    0.1531 N   0  0  0  0  0  0  0  0  0  0  0  0
    0.0097   -3.8079    0.2157 C   0  0  0  0  0  0  0  0  0  0  0  0
    0.3428   -4.6996   -0.9552 C   0  0  0  0  0  0  0  0  0  0  0  0
   -0.1243   -6.0210   -0.9568 C   0  0  0  0  0  0  0  0  0  0  0  0
    0.1929   -6.8845   -2.0039 C   0  0  0  0  0  0  0  0  0  0  0  0
    0.9408   -6.4240   -3.0866 C   0  0  0  0  0  0  0  0  0  0  0  0
    1.4048   -5.1034   -3.1202 C   0  0  0  0  0  0  0  0  0  0  0  0
    1.0865   -4.2521   -2.0537 C   0  0  0  0  0  0  0  0  0  0  0  0
    2.2446   -4.6120   -4.2075 C   0  0  0  0  0  0  0  0  0  0  0  0
    3.5491   -4.1660   -3.9592 C   0  0  0  0  0  0  0  0  0  0  0  0
    4.3282   -3.6753   -4.9993 C   0  0  0  0  0  0  0  0  0  0  0  0
    3.7774   -3.6478   -6.2690 C   0  0  0  0  0  0  0  0  0  0  0  0
    2.5265   -4.0685   -6.5574 N   0  0  0  0  0  0  0  0  0  0  0  0
    1.7908   -4.5361   -5.5217 C   0  0  0  0  0  0  0  0  0  0  0  0
    2.6585    0.7803   -0.0275 H   0  0  0  0  0  0  0  0  0  0  0  0
    2.7569   -0.9031   -0.2501 H   0  0  0  0  0  0  0  0  0  0  0  0
   -1.3990    2.2283    0.0108 H   0  0  0  0  0  0  0  0  0  0  0  0
   -2.9110    0.2426   -0.0745 H   0  0  0  0  0  0  0  0  0  0  0  0
   -1.9352   -1.9756   -0.0457 H   0  0  0  0  0  0  0  0  0  0  0  0
    1.7221   -2.5793    0.2895 H   0  0  0  0  0  0  0  0  0  0  0  0
    0.2941   -4.3162    1.1437 H   0  0  0  0  0  0  0  0  0  0  0  0
   -1.0762   -3.7030    0.2413 H   0  0  0  0  0  0  0  0  0  0  0  0
   -0.7408   -6.3837   -0.1372 H   0  0  0  0  0  0  0  0  0  0  0  0
   -0.1325   -7.9209   -1.9700 H   0  0  0  0  0  0  0  0  0  0  0  0
    1.1753   -7.1081   -3.8992 H   0  0  0  0  0  0  0  0  0  0  0  0
    1.4275   -3.2178   -2.0933 H   0  0  0  0  0  0  0  0  0  0  0  0
    3.9578   -4.2043   -2.9516 H   0  0  0  0  0  0  0  0  0  0  0  0
    5.3381   -3.3243   -4.8211 H   0  0  0  0  0  0  0  0  0  0  0  0
    4.3457   -3.2738   -7.1145 H   0  0  0  0  0  0  0  0  0  0  0  0
    0.7818   -4.8460   -5.7831 H   0  0  0  0  0  0  0  0  0  0  0  0
  1  2  1  0  0  0  0
  1 22  1  0  0  0  0
  1 23  1  0  0  0  0
  2  3  2  0  0  0  0
  2  7  1  0  0  0  0
  3  4  1  0  0  0  0
  4  5  2  0  0  0  0
  4 24  1  0  0  0  0
  5  6  1  0  0  0  0
  5 25  1  0  0  0  0
  6  7  2  0  0  0  0
  6 26  1  0  0  0  0
  7  8  1  0  0  0  0
  8  9  1  0  0  0  0
  8 27  1  0  0  0  0
  9 10  1  0  0  0  0
  9 28  1  0  0  0  0
  9 29  1  0  0  0  0
 10 15  1  0  0  0  0
 10 11  2  0  0  0  0
 11 12  1  0  0  0  0
 11 30  1  0  0  0  0
 12 13  2  0  0  0  0
 12 31  1  0  0  0  0
 13 14  1  0  0  0  0
 13 32  1  0  0  0  0
 14 16  1  0  0  0  0
 14 15  2  0  0  0  0
 15 33  1  0  0  0  0
 16 21  2  0  0  0  0
 16 17  1  0  0  0  0
 17 18  2  0  0  0  0
 17 34  1  0  0  0  0
 18 19  1  0  0  0  0
 18 35  1  0  0  0  0
 19 20  2  0  0  0  0
 19 36  1  0  0  0  0
 20 21  1  0  0  0  0
 21 37  1  0  0  0  0
M  END
>  <DRUGBANK_ID>
DB07284

>  <COMMON_NAME>
N~3~-(3-PYRIDIN-3-YLBENZYL)PYRIDINE-2,3-DIAMINE

$$$$
