
 OpenBabel10282417173D

 67 70  0  0  1  0  0  0  0  0999 V2000
   -1.3420    0.2223   -0.4038 C   0  0  0  0  0  0  0  0  0  0  0  0
   -0.8979   -1.2536   -0.0456 C   0  0  2  0  0  0  0  0  0  0  0  0
    0.5393   -1.5154   -0.5198 C   0  0  2  0  0  0  0  0  0  0  0  0
    1.4655   -0.4074    0.0901 C   0  0  0  0  0  0  0  0  0  0  0  0
    0.9951    1.0208   -0.2095 C   0  0  0  0  0  0  0  0  0  0  0  0
   -0.4497    1.2482    0.2835 C   0  0  2  0  0  0  0  0  0  0  0  0
   -0.5485    1.3579    1.8428 C   0  0  0  0  0  0  0  0  0  0  0  0
    0.0839    2.2859    2.3715 O   0  0  0  0  0  0  0  0  0  0  0  0
   -1.2564    0.4638    2.6529 N   0  0  0  0  0  0  0  0  0  0  0  0
   -2.2033   -0.5940    2.3361 C   0  0  0  0  0  0  0  0  0  0  0  0
   -1.0794    0.5721    4.0858 C   0  0  0  0  0  0  0  0  0  0  0  0
    0.5879   -1.5965   -1.9579 N   0  0  0  0  0  0  0  0  0  0  0  0
   -0.0944   -2.6091   -2.6215 C   0  0  0  0  0  0  0  0  0  0  0  0
   -0.1668   -2.4531   -4.1184 C   0  0  0  0  0  0  0  0  0  0  0  0
   -0.6380   -3.5823   -2.1601 O   0  0  0  0  0  0  0  0  0  0  0  0
   -0.9144   -3.4452   -4.7307 N   0  0  0  0  0  0  0  0  0  0  0  0
    0.4035   -1.5012   -4.6306 O   0  0  0  0  0  0  0  0  0  0  0  0
   -0.9366   -3.5423   -6.1126 C   0  0  0  0  0  0  0  0  0  0  0  0
   -2.1095   -3.7408   -6.7427 N   0  0  0  0  0  0  0  0  0  0  0  0
   -2.0769   -3.6021   -8.0984 C   0  0  0  0  0  0  0  0  0  0  0  0
   -0.9231   -3.3453   -8.8327 C   0  0  0  0  0  0  0  0  0  0  0  0
    0.2803   -3.2572   -8.1566 C   0  0  0  0  0  0  0  0  0  0  0  0
    0.2710   -3.3678   -6.7792 C   0  0  0  0  0  0  0  0  0  0  0  0
   -0.9628   -3.1339  -10.5330 Cl  0  0  0  0  0  0  0  0  0  0  0  0
   -2.0086   -2.2244   -0.3028 N   0  0  0  0  0  0  0  0  0  0  0  0
   -2.1143   -3.6263   -0.0293 C   0  0  0  0  0  0  0  0  0  0  0  0
   -3.3955   -4.2671   -0.5434 C   0  0  0  0  0  0  0  0  0  0  0  0
   -1.1965   -4.2271    0.5296 O   0  0  0  0  0  0  0  0  0  0  0  0
   -4.1012   -5.3500   -0.1471 N   0  0  0  0  0  0  0  0  0  0  0  0
   -5.2482   -5.5352   -0.9921 C   0  0  0  0  0  0  0  0  0  0  0  0
   -5.3282   -4.5667   -1.9682 C   0  0  0  0  0  0  0  0  0  0  0  0
   -4.0502   -3.4833   -1.9350 S   0  0  0  0  0  0  0  0  0  0  0  0
   -6.4002   -6.5718   -0.8975 C   0  0  0  0  0  0  0  0  0  0  0  0
   -7.3420   -6.4570   -2.1680 C   0  0  0  0  0  0  0  0  0  0  0  0
   -7.6455   -5.0613   -2.5677 N   0  0  0  0  0  0  0  0  0  0  0  0
   -6.3971   -4.4054   -2.9788 C   0  0  0  0  0  0  0  0  0  0  0  0
   -8.2943   -4.3192   -1.4806 C   0  0  0  0  0  0  0  0  0  0  0  0
   -1.3252    0.3702   -1.4932 H   0  0  0  0  0  0  0  0  0  0  0  0
   -2.3771    0.4840   -0.1524 H   0  0  0  0  0  0  0  0  0  0  0  0
   -0.6823   -1.3661    1.0048 H   0  0  0  0  0  0  0  0  0  0  0  0
    0.8727   -2.4785   -0.1159 H   0  0  0  0  0  0  0  0  0  0  0  0
    1.4842   -0.5048    1.1878 H   0  0  0  0  0  0  0  0  0  0  0  0
    2.5007   -0.5358   -0.2404 H   0  0  0  0  0  0  0  0  0  0  0  0
    1.6832    1.7556    0.2300 H   0  0  0  0  0  0  0  0  0  0  0  0
    1.0424    1.1821   -1.2960 H   0  0  0  0  0  0  0  0  0  0  0  0
   -0.7432    2.2494   -0.0806 H   0  0  0  0  0  0  0  0  0  0  0  0
   -1.7262   -1.5604    2.5612 H   0  0  0  0  0  0  0  0  0  0  0  0
   -3.1276   -0.5208    2.8983 H   0  0  0  0  0  0  0  0  0  0  0  0
   -2.5549   -0.5449    1.3307 H   0  0  0  0  0  0  0  0  0  0  0  0
   -0.0193    0.5564    4.3457 H   0  0  0  0  0  0  0  0  0  0  0  0
   -1.5633    1.4890    4.4229 H   0  0  0  0  0  0  0  0  0  0  0  0
   -1.5636   -0.2848    4.5712 H   0  0  0  0  0  0  0  0  0  0  0  0
    0.9187   -0.8109   -2.5087 H   0  0  0  0  0  0  0  0  0  0  0  0
   -1.5614   -3.9971   -4.1762 H   0  0  0  0  0  0  0  0  0  0  0  0
   -3.0389   -3.6823   -8.5978 H   0  0  0  0  0  0  0  0  0  0  0  0
    1.2195   -3.0761   -8.6659 H   0  0  0  0  0  0  0  0  0  0  0  0
    1.2001   -3.3015   -6.2215 H   0  0  0  0  0  0  0  0  0  0  0  0
   -2.8740   -1.8124   -0.6264 H   0  0  0  0  0  0  0  0  0  0  0  0
   -7.0356   -6.3780   -0.0211 H   0  0  0  0  0  0  0  0  0  0  0  0
   -6.0608   -7.6109   -0.8212 H   0  0  0  0  0  0  0  0  0  0  0  0
   -8.2935   -6.9922   -2.0332 H   0  0  0  0  0  0  0  0  0  0  0  0
   -6.8640   -6.9599   -3.0235 H   0  0  0  0  0  0  0  0  0  0  0  0
   -6.0384   -4.8363   -3.9214 H   0  0  0  0  0  0  0  0  0  0  0  0
   -6.5716   -3.3393   -3.1613 H   0  0  0  0  0  0  0  0  0  0  0  0
   -7.7252   -4.3266   -0.5448 H   0  0  0  0  0  0  0  0  0  0  0  0
   -8.4356   -3.2675   -1.7521 H   0  0  0  0  0  0  0  0  0  0  0  0
   -9.2821   -4.7408   -1.2747 H   0  0  0  0  0  0  0  0  0  0  0  0
  1  2  1  0  0  0  0
  1  6  1  0  0  0  0
  1 38  1  0  0  0  0
  1 39  1  0  0  0  0
  2  3  1  0  0  0  0
  2 40  1  1  0  0  0
  2 25  1  0  0  0  0
  3  4  1  0  0  0  0
  3 41  1  1  0  0  0
  3 12  1  0  0  0  0
  4  5  1  0  0  0  0
  4 42  1  0  0  0  0
  4 43  1  0  0  0  0
  5  6  1  0  0  0  0
  5 44  1  0  0  0  0
  5 45  1  0  0  0  0
  6 46  1  6  0  0  0
  6  7  1  0  0  0  0
  7  8  2  0  0  0  0
  7  9  1  0  0  0  0
  9 10  1  0  0  0  0
  9 11  1  0  0  0  0
 10 47  1  0  0  0  0
 10 48  1  0  0  0  0
 10 49  1  0  0  0  0
 11 50  1  0  0  0  0
 11 51  1  0  0  0  0
 11 52  1  0  0  0  0
 12 13  1  0  0  0  0
 12 53  1  0  0  0  0
 13 14  1  0  0  0  0
 13 15  2  0  0  0  0
 14 16  1  0  0  0  0
 14 17  2  0  0  0  0
 16 18  1  0  0  0  0
 16 54  1  0  0  0  0
 18 19  2  0  0  0  0
 18 23  1  0  0  0  0
 19 20  1  0  0  0  0
 20 21  2  0  0  0  0
 20 55  1  0  0  0  0
 21 22  1  0  0  0  0
 21 24  1  0  0  0  0
 22 23  2  0  0  0  0
 22 56  1  0  0  0  0
 23 57  1  0  0  0  0
 25 26  1  0  0  0  0
 25 58  1  0  0  0  0
 26 27  1  0  0  0  0
 26 28  2  0  0  0  0
 27 29  2  0  0  0  0
 27 32  1  0  0  0  0
 29 30  1  0  0  0  0
 30 31  2  0  0  0  0
 30 33  1  0  0  0  0
 31 32  1  0  0  0  0
 31 36  1  0  0  0  0
 33 34  1  0  0  0  0
 33 59  1  0  0  0  0
 33 60  1  0  0  0  0
 34 35  1  0  0  0  0
 34 61  1  0  0  0  0
 34 62  1  0  0  0  0
 35 36  1  0  0  0  0
 35 37  1  0  0  0  0
 36 63  1  0  0  0  0
 36 64  1  0  0  0  0
 37 65  1  0  0  0  0
 37 66  1  0  0  0  0
 37 67  1  0  0  0  0
M  END
>  <DRUGBANK_ID>
DB09075

>  <COMMON_NAME>
Edoxaban

>  <CAS_NUMBER>
480449-70-5

>  <UNII>
NDU3J18APO

>  <SYNONYMS>
Edoxaban

$$$$
