
 OpenBabel10282417113D

 34 35  0  0  0  0  0  0  0  0999 V2000
   -0.3512   -1.2342   -0.0014 C   0  0  0  0  0  0  0  0  0  0  0  0
   -0.3705    1.0829    0.0965 N   0  0  0  0  0  0  0  0  0  0  0  0
   -0.7559    2.4892    0.0037 C   0  0  0  0  0  0  0  0  0  0  0  0
   -1.1398   -0.1101    0.0219 C   0  0  0  0  0  0  0  0  0  0  0  0
   -2.6527   -0.0230    0.0072 C   0  0  0  0  0  0  0  0  0  0  0  0
    0.9754    0.7109    0.0794 N   0  0  0  0  0  0  0  0  0  0  0  0
    2.0736    1.5777   -0.0019 C   0  0  0  0  0  0  0  0  0  0  0  0
    4.2748    3.2873   -0.1833 C   0  0  0  0  0  0  0  0  0  0  0  0
    4.0846    2.2990   -1.1471 C   0  0  0  0  0  0  0  0  0  0  0  0
    2.9899    1.4411   -1.0523 C   0  0  0  0  0  0  0  0  0  0  0  0
    2.2995    2.5352    0.9891 C   0  0  0  0  0  0  0  0  0  0  0  0
    3.3756    3.4153    0.8759 C   0  0  0  0  0  0  0  0  0  0  0  0
    1.0662   -0.6595   -0.0097 C   0  0  0  0  0  0  0  0  0  0  0  0
    2.1057   -1.3184   -0.0471 O   0  0  0  0  0  0  0  0  0  0  0  0
   -0.5100   -2.6368   -0.0235 N   0  0  0  0  0  0  0  0  0  0  0  0
   -1.7679   -3.3571   -0.0152 C   0  0  0  0  0  0  0  0  0  0  0  0
    0.6520   -3.5628   -0.0118 C   0  0  0  0  0  0  0  0  0  0  0  0
   -1.3352    2.7183   -0.8969 H   0  0  0  0  0  0  0  0  0  0  0  0
   -1.3230    2.7994    0.8877 H   0  0  0  0  0  0  0  0  0  0  0  0
    0.1011    3.1717   -0.0420 H   0  0  0  0  0  0  0  0  0  0  0  0
   -3.0382    0.4949    0.8924 H   0  0  0  0  0  0  0  0  0  0  0  0
   -3.0273    0.4955   -0.8832 H   0  0  0  0  0  0  0  0  0  0  0  0
   -3.1650   -0.9814    0.0040 H   0  0  0  0  0  0  0  0  0  0  0  0
    5.1339    3.9494   -0.2495 H   0  0  0  0  0  0  0  0  0  0  0  0
    4.7803    2.1982   -1.9758 H   0  0  0  0  0  0  0  0  0  0  0  0
    2.8438    0.6758   -1.8115 H   0  0  0  0  0  0  0  0  0  0  0  0
    1.6579    2.5710    1.8657 H   0  0  0  0  0  0  0  0  0  0  0  0
    3.5145    4.1984    1.6154 H   0  0  0  0  0  0  0  0  0  0  0  0
   -1.8419   -3.9922   -0.9047 H   0  0  0  0  0  0  0  0  0  0  0  0
   -1.8385   -3.9917    0.8753 H   0  0  0  0  0  0  0  0  0  0  0  0
   -2.6372   -2.7195   -0.0146 H   0  0  0  0  0  0  0  0  0  0  0  0
    1.2740   -3.4392   -0.9061 H   0  0  0  0  0  0  0  0  0  0  0  0
    1.2633   -3.4379    0.8904 H   0  0  0  0  0  0  0  0  0  0  0  0
    0.3335   -4.6142   -0.0134 H   0  0  0  0  0  0  0  0  0  0  0  0
  1  4  2  0  0  0  0
  1 15  1  0  0  0  0
  2  3  1  0  0  0  0
  3 18  1  0  0  0  0
  3 19  1  0  0  0  0
  3 20  1  0  0  0  0
  4  2  1  0  0  0  0
  4  5  1  0  0  0  0
  5 21  1  0  0  0  0
  5 22  1  0  0  0  0
  5 23  1  0  0  0  0
  6 13  1  0  0  0  0
  6  2  1  0  0  0  0
  6  7  1  0  0  0  0
  7 11  1  0  0  0  0
  8  9  2  0  0  0  0
  8 12  1  0  0  0  0
  8 24  1  0  0  0  0
  9 10  1  0  0  0  0
  9 25  1  0  0  0  0
 10  7  2  0  0  0  0
 10 26  1  0  0  0  0
 11 12  2  0  0  0  0
 11 27  1  0  0  0  0
 12 28  1  0  0  0  0
 13  1  1  0  0  0  0
 13 14  2  0  0  0  0
 15 16  1  0  0  0  0
 15 17  1  0  0  0  0
 16 29  1  0  0  0  0
 16 30  1  0  0  0  0
 16 31  1  0  0  0  0
 17 32  1  0  0  0  0
 17 33  1  0  0  0  0
 17 34  1  0  0  0  0
M  END
>  <DRUGBANK_ID>
DB01424

>  <COMMON_NAME>
Aminophenazone

>  <CAS_NUMBER>
58-15-1

>  <UNII>
01704YP3MO

>  <SYNONYMS>
(Dimethylamino)phenazone; 1-Phenyl-2,3-dimethyl-4-(dimethylamino)-5-pyrazolone; 1-Phenyl-2,3-dimethyl-4-dimethylaminopyrazol-5-one; 1,5-Dimethyl-4-dimethylamino-2-phenyl-3-pyrazolone; 2,3-Dimethyl-4-dimethylamino-1-phenyl-5-pyrazolone; 3-Keto-1,5-dimethyl-4-dimethylamino-2-phenyl-2,3-dihydropyrazole; 4-(Dimethylamino)-1,2-dihydro-1,5-dimethyl-2-phenyl-3H-pyrazol-3-one; 4-(Dimethylamino)-1,5-dimethyl-2-phenyl-1,2-dihydro-3H-pyrazol-3-one; 4-(Dimethylamino)antipyrine; 4-Dimethylamino-1-phenyl-2,3-dimethylpyrazolone; 4-Dimethylamino-2,3-dimethyl-1-phenyl-3-pyrazolin-5-one; 4-Dimethylamino-2,3-dimethyl-1-phenyl-5-pyrazolone; 4-Dimethylaminoantipyrine; 4-Dimethylaminophenazone; Aminofenazona; Aminofenazone; Aminophenazon; Aminophenazone; Aminophenazonum; Aminopyrine; Dimethylaminoantipyrine; Dimethylaminoazophene; Dimethylaminophenazon; Dimethylaminophenazone; Dimethylaminophenyldimethylpyrazolone; Dipyrine

$$$$
