
 OpenBabel10282417233D

 16 16  0  0  0  0  0  0  0  0999 V2000
   -1.4009   -0.0735   -0.0429 C   0  0  0  0  0  0  0  0  0  0  0  0
   -0.6177   -1.2383   -0.0244 C   0  0  0  0  0  0  0  0  0  0  0  0
   -0.7583    1.1765    0.0144 C   0  0  0  0  0  0  0  0  0  0  0  0
   -2.8968   -0.1361   -0.1816 C   0  0  0  0  0  0  0  0  0  0  0  0
    0.7771   -1.1589    0.0357 C   0  0  0  0  0  0  0  0  0  0  0  0
   -1.3302   -2.8101   -0.1171 Cl  0  0  0  0  0  0  0  0  0  0  0  0
    0.6354    1.2403   -0.0120 C   0  0  0  0  0  0  0  0  0  0  0  0
    1.4025    0.0861   -0.0009 C   0  0  0  0  0  0  0  0  0  0  0  0
    1.2927    2.4342   -0.0700 O   0  0  0  0  0  0  0  0  0  0  0  0
   -1.3476    2.0865    0.0590 H   0  0  0  0  0  0  0  0  0  0  0  0
   -3.1590   -0.5946   -1.1417 H   0  0  0  0  0  0  0  0  0  0  0  0
   -3.3405   -0.7165    0.6329 H   0  0  0  0  0  0  0  0  0  0  0  0
   -3.3471    0.8616   -0.1644 H   0  0  0  0  0  0  0  0  0  0  0  0
    1.3785   -2.0609    0.0853 H   0  0  0  0  0  0  0  0  0  0  0  0
    2.4877    0.1515   -0.0301 H   0  0  0  0  0  0  0  0  0  0  0  0
    0.6448    3.1494   -0.1675 H   0  0  0  0  0  0  0  0  0  0  0  0
  1  2  1  0  0  0  0
  1  3  2  0  0  0  0
  1  4  1  0  0  0  0
  2  5  2  0  0  0  0
  2  6  1  0  0  0  0
  3  7  1  0  0  0  0
  3 10  1  0  0  0  0
  4 11  1  0  0  0  0
  4 12  1  0  0  0  0
  4 13  1  0  0  0  0
  5  8  1  0  0  0  0
  5 14  1  0  0  0  0
  7  9  1  0  0  0  0
  7  8  2  0  0  0  0
  8 15  1  0  0  0  0
  9 16  1  0  0  0  0
M  END
>  <DRUGBANK_ID>
DB16864

>  <COMMON_NAME>
Chlorocresol

>  <CAS_NUMBER>
59-50-7

>  <UNII>
36W53O7109

>  <SYNONYMS>
3-Methyl-4-chlorophenol; 4-Chloro-3-methyl phenol; Chlorocresol; p-Chloro-m-cresol

$$$$
