
 OpenBabel10282417153D

 40 43  0  0  1  0  0  0  0  0999 V2000
    0.9628    1.9636   -0.5932 N   0  0  0  0  0  0  0  0  0  0  0  0
   -0.4319    2.1866    1.6583 N   0  0  0  0  0  0  0  0  0  0  0  0
   -0.5360    1.6861   -0.8240 C   0  0  3  0  0  0  0  0  0  0  0  0
   -1.0086    2.6390    0.2166 C   0  0  0  0  0  0  0  0  0  0  0  0
    1.2502    3.2579    0.5076 C   0  0  0  0  0  0  0  0  0  0  0  0
   -1.4778    0.5221   -0.3758 C   0  0  0  0  0  0  0  0  0  0  0  0
    0.7211    3.0280    1.9681 C   0  0  0  0  0  0  0  0  0  0  0  0
    1.8573    0.8737   -0.5694 C   0  0  0  0  0  0  0  0  0  0  0  0
   -1.1004   -0.7748   -0.4694 C   0  0  0  0  0  0  0  0  0  0  0  0
    0.1494   -1.0815   -1.2760 C   0  0  0  0  0  0  0  0  0  0  0  0
    1.5081   -0.5013   -0.8265 C   0  0  0  0  0  0  0  0  0  0  0  0
    0.2902    0.8538    1.9546 C   0  0  0  0  0  0  0  0  0  0  0  0
   -2.8076    0.8184    0.1688 C   0  0  0  0  0  0  0  0  0  0  0  0
    3.1096    1.1256    0.0466 C   0  0  0  0  0  0  0  0  0  0  0  0
   -1.9842   -1.7655    0.0839 C   0  0  0  0  0  0  0  0  0  0  0  0
    2.4508   -1.4974   -0.4687 C   0  0  0  0  0  0  0  0  0  0  0  0
   -3.6391   -0.1398    0.7472 C   0  0  0  0  0  0  0  0  0  0  0  0
   -3.2223   -1.4121    0.7026 C   0  0  0  0  0  0  0  0  0  0  0  0
    3.9626    0.1179    0.4654 C   0  0  0  0  0  0  0  0  0  0  0  0
    3.6494   -1.1932    0.1758 C   0  0  0  0  0  0  0  0  0  0  0  0
   -0.7241    1.8453   -1.8963 H   0  0  0  0  0  0  0  0  0  0  0  0
   -0.7329    3.6027   -0.2362 H   0  0  0  0  0  0  0  0  0  0  0  0
   -2.0412    2.9631    0.2225 H   0  0  0  0  0  0  0  0  0  0  0  0
    2.2797    3.6047    0.4701 H   0  0  0  0  0  0  0  0  0  0  0  0
    0.7652    4.1940    0.1786 H   0  0  0  0  0  0  0  0  0  0  0  0
    0.9149    4.0654    2.3057 H   0  0  0  0  0  0  0  0  0  0  0  0
    0.0132    3.2564    2.7957 H   0  0  0  0  0  0  0  0  0  0  0  0
   -0.0392   -0.7627   -2.3079 H   0  0  0  0  0  0  0  0  0  0  0  0
    0.2135   -2.1755   -1.3221 H   0  0  0  0  0  0  0  0  0  0  0  0
   -0.2763    0.0147    2.3576 H   0  0  0  0  0  0  0  0  0  0  0  0
    0.8042    0.4013    1.1453 H   0  0  0  0  0  0  0  0  0  0  0  0
    1.1689    0.9831    2.6350 H   0  0  0  0  0  0  0  0  0  0  0  0
   -3.2487    1.7936    0.2573 H   0  0  0  0  0  0  0  0  0  0  0  0
    3.3818    2.1175    0.3814 H   0  0  0  0  0  0  0  0  0  0  0  0
   -1.7445   -2.8102    0.0411 H   0  0  0  0  0  0  0  0  0  0  0  0
    2.2069   -2.5495   -0.6019 H   0  0  0  0  0  0  0  0  0  0  0  0
   -4.5725    0.2045    1.2115 H   0  0  0  0  0  0  0  0  0  0  0  0
   -3.8794   -2.1802    1.1330 H   0  0  0  0  0  0  0  0  0  0  0  0
    4.8239    0.3715    1.0758 H   0  0  0  0  0  0  0  0  0  0  0  0
    4.3102   -1.9870    0.5038 H   0  0  0  0  0  0  0  0  0  0  0  0
  1  3  1  0  0  0  0
  1  5  1  0  0  0  0
  1  8  1  0  0  0  0
  2  4  1  0  0  0  0
  2  7  1  0  0  0  0
  2 12  1  0  0  0  0
  3  4  1  0  0  0  0
  3  6  1  0  0  0  0
  3 21  1  0  0  0  0
  4 22  1  0  0  0  0
  4 23  1  0  0  0  0
  5  7  1  0  0  0  0
  5 24  1  0  0  0  0
  5 25  1  0  0  0  0
  6  9  1  0  0  0  0
  6 13  2  0  0  0  0
  7 26  1  0  0  0  0
  7 27  1  0  0  0  0
  8 11  1  0  0  0  0
  8 14  2  0  0  0  0
  9 10  1  0  0  0  0
  9 15  2  0  0  0  0
 10 11  1  0  0  0  0
 10 28  1  0  0  0  0
 10 29  1  0  0  0  0
 11 16  2  0  0  0  0
 12 30  1  0  0  0  0
 12 31  1  0  0  0  0
 12 32  1  0  0  0  0
 13 17  1  0  0  0  0
 13 33  1  0  0  0  0
 14 19  1  0  0  0  0
 14 34  1  0  0  0  0
 15 18  1  0  0  0  0
 15 35  1  0  0  0  0
 16 20  1  0  0  0  0
 16 36  1  0  0  0  0
 17 18  2  0  0  0  0
 17 37  1  0  0  0  0
 18 38  1  0  0  0  0
 19 20  2  0  0  0  0
 19 39  1  0  0  0  0
 20 40  1  0  0  0  0
M  END
>  <DRUGBANK_ID>
DB06148

>  <COMMON_NAME>
Mianserin

>  <CAS_NUMBER>
24219-97-4

>  <UNII>
250PJI13LM

>  <SYNONYMS>
1,2,3,4,10,14b-Hexahydro-2-methyldibenzo(c,f)pyrazino(1,2-a)azepine; Mianserin; Mianserina; Mianserine; MiansÃ©rine; Mianserinum; Mianseryna

$$$$
