6CP
 OpenBabel10282417163D

 45 48  0  0  0  0  0  0  0  0999 V2000
    1.8878    0.7852    0.2529 C   0  0  0  0  0  0  0  0  0  0  0  0
   -2.3509   -0.0393   -0.0534 C   0  0  0  0  0  0  0  0  0  0  0  0
    2.3948   -3.2875   -0.0299 C   0  0  0  0  0  0  0  0  0  0  0  0
    3.1564   -2.9834   -1.3540 C   0  0  0  0  0  0  0  0  0  0  0  0
    4.4800   -3.7571   -1.4703 C   0  0  0  0  0  0  0  0  0  0  0  0
    5.2900   -3.2942   -2.6925 C   0  0  0  0  0  0  0  0  0  0  0  0
    5.5860   -1.7961   -2.6646 C   0  0  0  0  0  0  0  0  0  0  0  0
    4.2993   -1.0146   -2.6050 C   0  0  0  0  0  0  0  0  0  0  0  0
    3.4577   -1.4969   -1.4611 C   0  0  0  0  0  0  0  0  0  0  0  0
    3.6609    5.0298   -1.0903 C   0  0  0  0  0  0  0  0  0  0  0  0
    3.0624    5.7402   -0.0488 C   0  0  0  0  0  0  0  0  0  0  0  0
    2.5093    5.0502    1.0228 C   0  0  0  0  0  0  0  0  0  0  0  0
    2.5453    3.6603    1.0353 C   0  0  0  0  0  0  0  0  0  0  0  0
    2.0107   -0.5465    0.4795 N   0  0  0  0  0  0  0  0  0  0  0  0
    0.9426   -1.3592    0.2835 C   0  0  0  0  0  0  0  0  0  0  0  0
    1.0715   -2.7207    0.0697 O   0  0  0  0  0  0  0  0  0  0  0  0
   -0.2749   -0.7463    0.1301 C   0  0  0  0  0  0  0  0  0  0  0  0
   -1.5682   -1.1626   -0.0193 N   0  0  0  0  0  0  0  0  0  0  0  0
   -1.6316    1.0596   -0.0449 N   0  0  0  0  0  0  0  0  0  0  0  0
   -0.3440    0.6248    0.0660 C   0  0  0  0  0  0  0  0  0  0  0  0
    0.7322    1.4190    0.0783 N   0  0  0  0  0  0  0  0  0  0  0  0
    3.0617    1.5300    0.0317 N   0  0  0  0  0  0  0  0  0  0  0  0
    3.1448    2.9292    0.0001 C   0  0  0  0  0  0  0  0  0  0  0  0
    3.7224    3.6293   -1.0667 C   0  0  0  0  0  0  0  0  0  0  0  0
    4.2999    5.9023   -2.4332 Cl  0  0  0  0  0  0  0  0  0  0  0  0
   -3.4311   -0.0763   -0.0844 H   0  0  0  0  0  0  0  0  0  0  0  0
    2.9798   -3.0397    0.8634 H   0  0  0  0  0  0  0  0  0  0  0  0
    2.2395   -4.3758    0.0083 H   0  0  0  0  0  0  0  0  0  0  0  0
    2.5086   -3.2588   -2.1960 H   0  0  0  0  0  0  0  0  0  0  0  0
    5.0820   -3.6114   -0.5637 H   0  0  0  0  0  0  0  0  0  0  0  0
    4.2823   -4.8323   -1.5515 H   0  0  0  0  0  0  0  0  0  0  0  0
    6.2342   -3.8432   -2.7448 H   0  0  0  0  0  0  0  0  0  0  0  0
    4.7225   -3.5253   -3.6025 H   0  0  0  0  0  0  0  0  0  0  0  0
    6.2041   -1.5523   -1.7911 H   0  0  0  0  0  0  0  0  0  0  0  0
    6.1393   -1.4874   -3.5558 H   0  0  0  0  0  0  0  0  0  0  0  0
    4.4959    0.0556   -2.4611 H   0  0  0  0  0  0  0  0  0  0  0  0
    3.7238   -1.1174   -3.5300 H   0  0  0  0  0  0  0  0  0  0  0  0
    2.5153   -0.9787   -1.6165 H   0  0  0  0  0  0  0  0  0  0  0  0
    3.9672   -1.1973   -0.5346 H   0  0  0  0  0  0  0  0  0  0  0  0
    3.0089    6.8248   -0.0700 H   0  0  0  0  0  0  0  0  0  0  0  0
    2.0280    5.5786    1.8397 H   0  0  0  0  0  0  0  0  0  0  0  0
    2.0828    3.1255    1.8623 H   0  0  0  0  0  0  0  0  0  0  0  0
   -1.8901   -2.1179   -0.0256 H   0  0  0  0  0  0  0  0  0  0  0  0
    3.9007    0.9882   -0.0835 H   0  0  0  0  0  0  0  0  0  0  0  0
    4.1637    3.1016   -1.9078 H   0  0  0  0  0  0  0  0  0  0  0  0
  1 14  2  0  0  0  0
  1 21  1  0  0  0  0
  1 22  1  0  0  0  0
  2 18  1  0  0  0  0
  2 19  2  0  0  0  0
  2 26  1  0  0  0  0
  3  4  1  0  0  0  0
  3 16  1  0  0  0  0
  3 27  1  0  0  0  0
  3 28  1  0  0  0  0
  4  5  1  0  0  0  0
  4  9  1  0  0  0  0
  4 29  1  0  0  0  0
  5  6  1  0  0  0  0
  5 30  1  0  0  0  0
  5 31  1  0  0  0  0
  6  7  1  0  0  0  0
  6 32  1  0  0  0  0
  6 33  1  0  0  0  0
  7  8  1  0  0  0  0
  7 34  1  0  0  0  0
  7 35  1  0  0  0  0
  8  9  1  0  0  0  0
  8 36  1  0  0  0  0
  8 37  1  0  0  0  0
  9 38  1  0  0  0  0
  9 39  1  0  0  0  0
 10 11  2  0  0  0  0
 10 24  1  0  0  0  0
 10 25  1  0  0  0  0
 11 12  1  0  0  0  0
 11 40  1  0  0  0  0
 12 13  2  0  0  0  0
 12 41  1  0  0  0  0
 13 23  1  0  0  0  0
 13 42  1  0  0  0  0
 14 15  1  0  0  0  0
 15 16  1  0  0  0  0
 15 17  2  0  0  0  0
 17 18  1  0  0  0  0
 17 20  1  0  0  0  0
 18 43  1  0  0  0  0
 19 20  1  0  0  0  0
 20 21  2  0  0  0  0
 22 23  1  0  0  0  0
 22 44  1  0  0  0  0
 23 24  2  0  0  0  0
 24 45  1  0  0  0  0
M  END
>  <DRUGBANK_ID>
DB07203

>  <COMMON_NAME>
6-CYCLOHEXYLMETHOXY-2-(3'-CHLOROANILINO) PURINE

$$$$
