928
 OpenBabel10282417163D

 22 23  0  0  0  0  0  0  0  0999 V2000
    1.1226    0.0522   -0.1010 N   0  0  0  0  0  0  0  0  0  0  0  0
    2.2857    0.0563   -0.1147 C   0  0  0  0  0  0  0  0  0  0  0  0
    3.7064    0.0053   -0.1186 C   0  0  0  0  0  0  0  0  0  0  0  0
    4.6226    1.0665   -0.0758 C   0  0  0  0  0  0  0  0  0  0  0  0
    5.8914    0.6475    0.0117 N   0  0  0  0  0  0  0  0  0  0  0  0
    4.4731   -1.1381   -0.1429 C   0  0  0  0  0  0  0  0  0  0  0  0
    4.0958   -2.4402   -0.1542 N   0  0  0  0  0  0  0  0  0  0  0  0
    5.8004   -0.7073   -0.0857 N   0  0  0  0  0  0  0  0  0  0  0  0
    6.9524   -1.5340   -0.0951 C   0  0  0  0  0  0  0  0  0  0  0  0
    7.1170   -2.4751   -1.1214 C   0  0  0  0  0  0  0  0  0  0  0  0
    8.2080   -3.3475   -1.0976 C   0  0  0  0  0  0  0  0  0  0  0  0
    9.1119   -3.2976   -0.0374 C   0  0  0  0  0  0  0  0  0  0  0  0
   10.4320   -4.4019    0.0054 Cl  0  0  0  0  0  0  0  0  0  0  0  0
    8.9495   -2.3630    0.9875 C   0  0  0  0  0  0  0  0  0  0  0  0
    7.8759   -1.4628    0.9544 C   0  0  0  0  0  0  0  0  0  0  0  0
    4.4114    2.1302   -0.0785 H   0  0  0  0  0  0  0  0  0  0  0  0
    4.7539   -3.2134   -0.0771 H   0  0  0  0  0  0  0  0  0  0  0  0
    3.1171   -2.7191   -0.1091 H   0  0  0  0  0  0  0  0  0  0  0  0
    6.4224   -2.5138   -1.9581 H   0  0  0  0  0  0  0  0  0  0  0  0
    8.3494   -4.0603   -1.9063 H   0  0  0  0  0  0  0  0  0  0  0  0
    9.6531   -2.3382    1.8165 H   0  0  0  0  0  0  0  0  0  0  0  0
    7.7374   -0.7625    1.7755 H   0  0  0  0  0  0  0  0  0  0  0  0
  1  2  3  0  0  0  0
  2  3  1  0  0  0  0
  3  4  1  0  0  0  0
  3  6  2  0  0  0  0
  4  5  2  0  0  0  0
  4 16  1  0  0  0  0
  5  8  1  0  0  0  0
  6  7  1  0  0  0  0
  6  8  1  0  0  0  0
  7 17  1  0  0  0  0
  7 18  1  0  0  0  0
  8  9  1  0  0  0  0
  9 10  2  0  0  0  0
  9 15  1  0  0  0  0
 10 11  1  0  0  0  0
 10 19  1  0  0  0  0
 11 12  2  0  0  0  0
 11 20  1  0  0  0  0
 12 13  1  0  0  0  0
 12 14  1  0  0  0  0
 14 15  2  0  0  0  0
 14 21  1  0  0  0  0
 15 22  1  0  0  0  0
M  END
>  <DRUGBANK_ID>
DB07291

>  <COMMON_NAME>
5-amino-1-(4-chlorophenyl)-1H-pyrazole-4-carbonitrile

$$$$
