401
 OpenBabel10282417103D

 52 53  0  0  1  0  0  0  0  0999 V2000
    0.9881   -0.0515    0.0152 O   0  0  0  0  0  0  0  0  0  0  0  0
   -5.4674   -0.4365   -3.9303 O   0  0  0  0  0  0  0  0  0  0  0  0
    0.9936    0.8419   -2.0958 O   0  0  0  0  0  0  0  0  0  0  0  0
   -3.7995   -1.8510   -4.0061 O   0  0  0  0  0  0  0  0  0  0  0  0
    2.1156   -2.0832   -2.7080 O   0  5  0  0  0  0  0  0  0  0  0  0
    0.2603   -2.4309   -1.6110 O   0  0  0  0  0  0  0  0  0  0  0  0
   -3.0545    0.7780   -0.0841 N   0  0  0  0  0  0  0  0  0  0  0  0
    0.8824   -2.0096   -2.5961 N   0  3  0  0  0  0  0  0  0  0  0  0
   -1.8791   -0.6817   -2.1748 C   0  0  3  0  0  0  0  0  0  0  0  0
   -1.0674    0.1636   -1.1149 C   0  0  0  0  0  0  0  0  0  0  0  0
   -3.4559   -0.2799   -2.2199 C   0  0  0  0  0  0  0  0  0  0  0  0
   -1.1426   -0.7382   -3.5246 C   0  0  0  0  0  0  0  0  0  0  0  0
   -1.7026    0.8403   -0.1482 C   0  0  0  0  0  0  0  0  0  0  0  0
   -3.8513    0.4638   -1.1434 C   0  0  0  0  0  0  0  0  0  0  0  0
    0.4068    0.3870   -1.1476 C   0  0  0  0  0  0  0  0  0  0  0  0
    0.1273   -1.3563   -3.6921 C   0  0  0  0  0  0  0  0  0  0  0  0
   -1.7237   -0.1740   -4.6808 C   0  0  0  0  0  0  0  0  0  0  0  0
   -1.1197    1.7599    0.8815 C   0  0  0  0  0  0  0  0  0  0  0  0
   -4.2886   -0.8961   -3.3933 C   0  0  0  0  0  0  0  0  0  0  0  0
   -5.1494    1.0967   -0.8954 C   0  0  0  0  0  0  0  0  0  0  0  0
    2.9574   -0.1704    1.4697 C   0  0  0  0  0  0  0  0  0  0  0  0
    2.4288   -0.0286    0.0326 C   0  0  0  0  0  0  0  0  0  0  0  0
    0.7785   -1.3147   -4.9339 C   0  0  0  0  0  0  0  0  0  0  0  0
   -1.1781   -0.3666   -5.9444 C   0  0  0  0  0  0  0  0  0  0  0  0
    0.1078   -0.8595   -6.0622 C   0  0  0  0  0  0  0  0  0  0  0  0
    2.4556   -1.4613    2.1169 C   0  0  0  0  0  0  0  0  0  0  0  0
    4.4884   -0.1556    1.4795 C   0  0  0  0  0  0  0  0  0  0  0  0
   -6.5061    0.3447   -3.3342 C   0  0  0  0  0  0  0  0  0  0  0  0
   -3.4854    1.3540    0.6369 H   0  0  0  0  0  0  0  0  0  0  0  0
   -1.9359   -1.7220   -1.8171 H   0  0  0  0  0  0  0  0  0  0  0  0
   -2.6671    0.3632   -4.6540 H   0  0  0  0  0  0  0  0  0  0  0  0
   -1.4600    2.7793    0.6691 H   0  0  0  0  0  0  0  0  0  0  0  0
   -1.4877    1.4626    1.8684 H   0  0  0  0  0  0  0  0  0  0  0  0
   -0.0352    1.7828    0.9178 H   0  0  0  0  0  0  0  0  0  0  0  0
   -5.7648    0.7188   -0.0826 H   0  0  0  0  0  0  0  0  0  0  0  0
   -5.1826    2.1804   -1.0388 H   0  0  0  0  0  0  0  0  0  0  0  0
   -5.6044    0.7119   -1.7145 H   0  0  0  0  0  0  0  0  0  0  0  0
    2.5900    0.6731    2.0680 H   0  0  0  0  0  0  0  0  0  0  0  0
    2.7873   -0.8747   -0.5590 H   0  0  0  0  0  0  0  0  0  0  0  0
    2.8063    0.9015   -0.4078 H   0  0  0  0  0  0  0  0  0  0  0  0
    1.8061   -1.6530   -5.0334 H   0  0  0  0  0  0  0  0  0  0  0  0
   -1.7664   -0.1216   -6.8252 H   0  0  0  0  0  0  0  0  0  0  0  0
    0.5892   -0.8851   -7.0328 H   0  0  0  0  0  0  0  0  0  0  0  0
    2.8048   -2.3379    1.5601 H   0  0  0  0  0  0  0  0  0  0  0  0
    2.8216   -1.5481    3.1456 H   0  0  0  0  0  0  0  0  0  0  0  0
    1.3625   -1.4901    2.1474 H   0  0  0  0  0  0  0  0  0  0  0  0
    4.8779    0.7685    1.0404 H   0  0  0  0  0  0  0  0  0  0  0  0
    4.8741   -0.2296    2.5024 H   0  0  0  0  0  0  0  0  0  0  0  0
    4.8947   -0.9986    0.9088 H   0  0  0  0  0  0  0  0  0  0  0  0
   -6.8124   -0.1868   -2.4178 H   0  0  0  0  0  0  0  0  0  0  0  0
   -6.1144    1.3708   -3.2598 H   0  0  0  0  0  0  0  0  0  0  0  0
   -7.4511    0.4518   -3.8629 H   0  0  0  0  0  0  0  0  0  0  0  0
  1 15  1  0  0  0  0
  1 22  1  0  0  0  0
  2 19  1  0  0  0  0
  2 28  1  0  0  0  0
  3 15  2  0  0  0  0
  4 19  2  0  0  0  0
  5  8  1  0  0  0  0
  6  8  2  0  0  0  0
  7 13  1  0  0  0  0
  7 14  1  0  0  0  0
  7 29  1  0  0  0  0
  8 16  1  0  0  0  0
  9 10  1  0  0  0  0
  9 11  1  0  0  0  0
  9 12  1  0  0  0  0
  9 30  1  0  0  0  0
 10 13  2  0  0  0  0
 10 15  1  0  0  0  0
 11 14  2  0  0  0  0
 11 19  1  0  0  0  0
 12 16  1  0  0  0  0
 12 17  2  0  0  0  0
 13 18  1  0  0  0  0
 14 20  1  0  0  0  0
 16 23  2  0  0  0  0
 17 24  1  0  0  0  0
 17 31  1  0  0  0  0
 18 32  1  0  0  0  0
 18 33  1  0  0  0  0
 18 34  1  0  0  0  0
 20 35  1  0  0  0  0
 20 36  1  0  0  0  0
 20 37  1  0  0  0  0
 21 22  1  0  0  0  0
 21 26  1  0  0  0  0
 21 27  1  0  0  0  0
 21 38  1  0  0  0  0
 22 39  1  0  0  0  0
 22 40  1  0  0  0  0
 23 25  1  0  0  0  0
 23 41  1  0  0  0  0
 24 25  2  0  0  0  0
 24 42  1  0  0  0  0
 25 43  1  0  0  0  0
 26 44  1  0  0  0  0
 26 45  1  0  0  0  0
 26 46  1  0  0  0  0
 27 47  1  0  0  0  0
 27 48  1  0  0  0  0
 27 49  1  0  0  0  0
 28 50  1  0  0  0  0
 28 51  1  0  0  0  0
 28 52  1  0  0  0  0
M  CHG  2   5  -1   8   1
M  END
>  <DRUGBANK_ID>
DB00401

>  <SECONDARY_ACCESSION_NUMBERS>
APRD00635

>  <COMMON_NAME>
Nisoldipine

>  <CAS_NUMBER>
63675-72-9

>  <UNII>
4I8HAB65SZ

>  <SYNONYMS>
isobutyl methyl 2,6-dimethyl-4-(2-nitrophenyl)-1,4-dihydropyridine-3,5-dicarboxylate; Nisoldipin; Nisoldipina; Nisoldipine; Nisoldipino; Nisoldipinum

$$$$
