4816
 OpenBabel10282417143D

 26 28  0  0  0  0  0  0  0  0999 V2000
   -0.0742   -2.3221   -0.0039 O   0  0  0  0  0  0  0  0  0  0  0  0
    0.0054    3.0117    0.0245 O   0  0  0  0  0  0  0  0  0  0  0  0
    2.5826   -2.3870   -0.0297 O   0  0  0  0  0  0  0  0  0  0  0  0
   -2.6231   -2.3859    0.0674 O   0  0  0  0  0  0  0  0  0  0  0  0
    1.2849   -0.3594   -0.0070 C   0  0  0  0  0  0  0  0  0  0  0  0
   -1.2783   -0.3474    0.0002 C   0  0  0  0  0  0  0  0  0  0  0  0
    1.2757    1.0385    0.0080 C   0  0  0  0  0  0  0  0  0  0  0  0
   -1.2697    1.0458   -0.0153 C   0  0  0  0  0  0  0  0  0  0  0  0
   -0.0059   -1.0968   -0.0044 C   0  0  0  0  0  0  0  0  0  0  0  0
    0.0036    1.7870    0.0053 C   0  0  0  0  0  0  0  0  0  0  0  0
    2.5219   -1.0230   -0.0116 C   0  0  0  0  0  0  0  0  0  0  0  0
   -2.5093   -1.0214    0.0165 C   0  0  0  0  0  0  0  0  0  0  0  0
    2.4790    1.7615    0.0275 C   0  0  0  0  0  0  0  0  0  0  0  0
   -2.4754    1.7616   -0.0381 C   0  0  0  0  0  0  0  0  0  0  0  0
    3.7206   -0.3036    0.0039 C   0  0  0  0  0  0  0  0  0  0  0  0
   -3.7078   -0.3118   -0.0104 C   0  0  0  0  0  0  0  0  0  0  0  0
    3.6985    1.0890    0.0237 C   0  0  0  0  0  0  0  0  0  0  0  0
   -3.6921    1.0808   -0.0422 C   0  0  0  0  0  0  0  0  0  0  0  0
    3.5033   -2.6919   -0.0225 H   0  0  0  0  0  0  0  0  0  0  0  0
   -1.7148   -2.7683    0.0816 H   0  0  0  0  0  0  0  0  0  0  0  0
    2.4686    2.8509    0.0484 H   0  0  0  0  0  0  0  0  0  0  0  0
   -2.4701    2.8505   -0.0515 H   0  0  0  0  0  0  0  0  0  0  0  0
    4.6798   -0.8145    0.0043 H   0  0  0  0  0  0  0  0  0  0  0  0
   -4.6529   -0.8489   -0.0054 H   0  0  0  0  0  0  0  0  0  0  0  0
    4.6299    1.6508    0.0370 H   0  0  0  0  0  0  0  0  0  0  0  0
   -4.6273    1.6347   -0.0637 H   0  0  0  0  0  0  0  0  0  0  0  0
  1  9  2  0  0  0  0
  2 10  2  0  0  0  0
  3 11  1  0  0  0  0
  3 19  1  0  0  0  0
  4 12  1  0  0  0  0
  4 20  1  0  0  0  0
  5  7  2  0  0  0  0
  5  9  1  0  0  0  0
  5 11  1  0  0  0  0
  6  8  2  0  0  0  0
  6  9  1  0  0  0  0
  6 12  1  0  0  0  0
  7 10  1  0  0  0  0
  7 13  1  0  0  0  0
  8 10  1  0  0  0  0
  8 14  1  0  0  0  0
 11 15  2  0  0  0  0
 12 16  2  0  0  0  0
 13 17  2  0  0  0  0
 13 21  1  0  0  0  0
 14 18  2  0  0  0  0
 14 22  1  0  0  0  0
 15 17  1  0  0  0  0
 15 23  1  0  0  0  0
 16 18  1  0  0  0  0
 16 24  1  0  0  0  0
 17 25  1  0  0  0  0
 18 26  1  0  0  0  0
M  END
>  <DRUGBANK_ID>
DB04816

>  <COMMON_NAME>
Dantron

>  <CAS_NUMBER>
117-10-2

>  <UNII>
Z4XE6IBF3V

>  <SYNONYMS>
1,8-dihydroxy-9,10-anthracenedione; 1,8-dihydroxy-9,10-anthraquinone; 1,8-dihydroxyanthra-9,10-quinone; 1,8-Dihydroxyanthrachinon; 1,8-Dihydroxyanthraquinone; Chrysazin; Danthron; Dantron; Dantrona; Dantrone; Dantronum

$$$$
