AT6
 OpenBabel10282417163D

 37 38  0  0  0  0  0  0  0  0999 V2000
   -0.7538    1.1907    0.0464 C   0  0  0  0  0  0  0  0  0  0  0  0
   -1.4207   -0.0274   -0.0067 C   0  0  0  0  0  0  0  0  0  0  0  0
   -0.6911   -1.2130   -0.0052 C   0  0  0  0  0  0  0  0  0  0  0  0
    0.6578   -1.2320   -0.0082 N   0  0  0  0  0  0  0  0  0  0  0  0
    1.2996   -0.0389    0.0541 C   0  0  0  0  0  0  0  0  0  0  0  0
    0.6242    1.1704    0.1315 C   0  0  0  0  0  0  0  0  0  0  0  0
    2.8012   -0.0123    0.0061 C   0  0  0  0  0  0  0  0  0  0  0  0
    3.3362    0.6761   -1.2514 C   0  0  0  0  0  0  0  0  0  0  0  0
    3.0533    2.1113   -1.3745 N   0  0  0  0  0  0  0  0  0  0  0  0
    3.9041    3.1878   -1.3131 C   0  0  0  0  0  0  0  0  0  0  0  0
    3.4597    4.3279   -1.2325 O   0  0  0  0  0  0  0  0  0  0  0  0
    5.3649    2.9418   -1.3318 C   0  0  0  0  0  0  0  0  0  0  0  0
    5.9055    1.9717   -2.1830 C   0  0  0  0  0  0  0  0  0  0  0  0
    7.2091    1.5233   -1.9913 C   0  0  0  0  0  0  0  0  0  0  0  0
    8.0483    2.2019   -1.1078 C   0  0  0  0  0  0  0  0  0  0  0  0
    7.5646    3.3249   -0.4225 C   0  0  0  0  0  0  0  0  0  0  0  0
    6.2040    3.6502   -0.4735 C   0  0  0  0  0  0  0  0  0  0  0  0
    9.3829    1.7311   -0.8987 C   0  0  0  0  0  0  0  0  0  0  0  0
   10.4570    1.3137   -0.7226 N   0  0  0  0  0  0  0  0  0  0  0  0
   -1.3512   -2.4201   -0.0364 N   0  0  0  0  0  0  0  0  0  0  0  0
   -1.4516    2.5104    0.0172 C   0  0  0  0  0  0  0  0  0  0  0  0
   -2.5034   -0.0524   -0.0259 H   0  0  0  0  0  0  0  0  0  0  0  0
    1.1625    2.1051    0.2422 H   0  0  0  0  0  0  0  0  0  0  0  0
    3.1885    0.4854    0.9033 H   0  0  0  0  0  0  0  0  0  0  0  0
    3.1909   -1.0387    0.0190 H   0  0  0  0  0  0  0  0  0  0  0  0
    4.4075    0.5143   -1.2040 H   0  0  0  0  0  0  0  0  0  0  0  0
    2.9581    0.2074   -2.1645 H   0  0  0  0  0  0  0  0  0  0  0  0
    2.0867    2.3932   -1.4961 H   0  0  0  0  0  0  0  0  0  0  0  0
    5.2818    1.4978   -2.9379 H   0  0  0  0  0  0  0  0  0  0  0  0
    7.5535    0.6405   -2.5263 H   0  0  0  0  0  0  0  0  0  0  0  0
    8.2379    3.9362    0.1737 H   0  0  0  0  0  0  0  0  0  0  0  0
    5.8017    4.4369    0.1618 H   0  0  0  0  0  0  0  0  0  0  0  0
   -0.7892   -3.2566    0.0078 H   0  0  0  0  0  0  0  0  0  0  0  0
   -2.3546   -2.4710    0.0229 H   0  0  0  0  0  0  0  0  0  0  0  0
   -1.1744    3.0921    0.9020 H   0  0  0  0  0  0  0  0  0  0  0  0
   -1.1593    3.0720   -0.8783 H   0  0  0  0  0  0  0  0  0  0  0  0
   -2.5360    2.3858    0.0071 H   0  0  0  0  0  0  0  0  0  0  0  0
  1  2  2  0  0  0  0
  1  6  1  0  0  0  0
  1 21  1  0  0  0  0
  2  3  1  0  0  0  0
  2 22  1  0  0  0  0
  3  4  2  0  0  0  0
  3 20  1  0  0  0  0
  4  5  1  0  0  0  0
  5  6  2  0  0  0  0
  5  7  1  0  0  0  0
  6 23  1  0  0  0  0
  7  8  1  0  0  0  0
  7 24  1  0  0  0  0
  7 25  1  0  0  0  0
  8  9  1  0  0  0  0
  8 26  1  0  0  0  0
  8 27  1  0  0  0  0
  9 10  1  0  0  0  0
  9 28  1  0  0  0  0
 10 11  2  0  0  0  0
 10 12  1  0  0  0  0
 12 13  1  0  0  0  0
 12 17  2  0  0  0  0
 13 14  2  0  0  0  0
 13 29  1  0  0  0  0
 14 15  1  0  0  0  0
 14 30  1  0  0  0  0
 15 16  2  0  0  0  0
 15 18  1  0  0  0  0
 16 17  1  0  0  0  0
 16 31  1  0  0  0  0
 17 32  1  0  0  0  0
 18 19  3  0  0  0  0
 20 33  1  0  0  0  0
 20 34  1  0  0  0  0
 21 35  1  0  0  0  0
 21 36  1  0  0  0  0
 21 37  1  0  0  0  0
M  END
>  <DRUGBANK_ID>
DB07389

>  <COMMON_NAME>
N-[2-(6-AMINO-4-METHYLPYRIDIN-2-YL)ETHYL]-4-CYANOBENZAMIDE

$$$$
