
 OpenBabel10282417193D

 50 52  0  0  1  0  0  0  0  0999 V2000
    0.0296    1.3001   -3.4088 C   0  0  0  0  0  0  0  0  0  0  0  0
   -0.3301   -0.0737   -3.6769 N   0  0  0  0  0  0  0  0  0  0  0  0
   -0.4375   -0.9074   -2.4405 C   0  0  0  0  0  0  0  0  0  0  0  0
   -1.4869   -0.6008   -1.1050 C   0  0  1  0  0  0  0  0  0  0  0  0
   -1.2519    1.1375   -0.5040 C   0  0  0  0  0  0  0  0  0  0  0  0
   -2.1915    2.5207   -1.3453 C   0  0  0  0  0  0  0  0  0  0  0  0
   -3.9400    2.1434   -1.8700 C   0  0  0  0  0  0  0  0  0  0  0  0
   -4.2968    3.0076   -2.9891 C   0  0  0  0  0  0  0  0  0  0  0  0
   -5.3318    2.5427   -3.8657 C   0  0  0  0  0  0  0  0  0  0  0  0
   -5.9592    1.1904   -3.7432 C   0  0  0  0  0  0  0  0  0  0  0  0
   -5.5879    0.1765   -2.7665 C   0  0  0  0  0  0  0  0  0  0  0  0
   -4.5546    0.5090   -1.8236 C   0  0  0  0  0  0  0  0  0  0  0  0
   -3.3511   -0.9594   -1.4546 C   0  0  1  0  0  0  0  0  0  0  0  0
   -3.3239   -2.1678   -2.4547 C   0  0  0  0  0  0  0  0  0  0  0  0
   -2.6672   -3.3265   -2.0063 C   0  0  0  0  0  0  0  0  0  0  0  0
   -2.6081   -4.4715   -2.7981 C   0  0  0  0  0  0  0  0  0  0  0  0
   -3.1256   -4.4561   -4.0939 C   0  0  0  0  0  0  0  0  0  0  0  0
   -3.6856   -3.2994   -4.6075 C   0  0  0  0  0  0  0  0  0  0  0  0
   -3.7708   -2.1769   -3.7918 C   0  0  0  0  0  0  0  0  0  0  0  0
   -5.5861    3.3802   -4.9545 O   0  0  0  0  0  0  0  0  0  0  0  0
   -6.8458    3.0911   -5.5498 C   0  0  0  0  0  0  0  0  0  0  0  0
   -1.6117   -0.0170   -4.3027 C   0  0  0  0  0  0  0  0  0  0  0  0
   -2.6601    0.5970   -3.5453 C   0  0  0  0  0  0  0  0  0  0  0  0
   -3.5692    0.8668   -4.1707 O   0  0  0  0  0  0  0  0  0  0  0  0
   -2.4089    0.6873   -2.2408 O   0  0  0  0  0  0  0  0  0  0  0  0
    1.0705    1.4893   -3.2059 H   0  0  0  0  0  0  0  0  0  0  0  0
   -0.4120    1.4946   -2.4721 H   0  0  0  0  0  0  0  0  0  0  0  0
   -0.4083    2.0399   -4.1037 H   0  0  0  0  0  0  0  0  0  0  0  0
   -0.6266   -1.9258   -2.8083 H   0  0  0  0  0  0  0  0  0  0  0  0
    0.5917   -0.9286   -2.0716 H   0  0  0  0  0  0  0  0  0  0  0  0
   -1.1301   -1.2949   -0.3373 H   0  0  0  0  0  0  0  0  0  0  0  0
   -1.6891    1.1364    0.4849 H   0  0  0  0  0  0  0  0  0  0  0  0
   -0.1591    1.3440   -0.4313 H   0  0  0  0  0  0  0  0  0  0  0  0
   -2.0963    3.4687   -0.8165 H   0  0  0  0  0  0  0  0  0  0  0  0
   -1.6621    2.7821   -2.3066 H   0  0  0  0  0  0  0  0  0  0  0  0
   -3.5864    3.7682   -3.3907 H   0  0  0  0  0  0  0  0  0  0  0  0
   -6.5677    0.8249   -4.5870 H   0  0  0  0  0  0  0  0  0  0  0  0
   -5.8445   -0.8665   -3.0122 H   0  0  0  0  0  0  0  0  0  0  0  0
   -3.7131   -1.3458   -0.5000 H   0  0  0  0  0  0  0  0  0  0  0  0
   -2.1666   -3.3293   -1.0394 H   0  0  0  0  0  0  0  0  0  0  0  0
   -2.1831   -5.3792   -2.3800 H   0  0  0  0  0  0  0  0  0  0  0  0
   -3.0962   -5.3461   -4.7095 H   0  0  0  0  0  0  0  0  0  0  0  0
   -4.0788   -3.2396   -5.6214 H   0  0  0  0  0  0  0  0  0  0  0  0
   -4.1195   -1.2893   -4.3095 H   0  0  0  0  0  0  0  0  0  0  0  0
   -6.7295    2.2638   -6.2572 H   0  0  0  0  0  0  0  0  0  0  0  0
   -7.5872    2.8531   -4.7785 H   0  0  0  0  0  0  0  0  0  0  0  0
   -7.2199    3.9614   -6.0942 H   0  0  0  0  0  0  0  0  0  0  0  0
   -1.7109    0.6747   -5.1346 H   0  0  0  0  0  0  0  0  0  0  0  0
   -1.9850   -0.9694   -4.6145 H   0  0  0  0  0  0  0  0  0  0  0  0
   -2.9078    0.7956   -1.3028 H   0  0  0  0  0  0  0  0  0  0  0  0
  1  2  1  0  0  0  0
  1 26  1  0  0  0  0
  1 27  1  0  0  0  0
  1 28  1  0  0  0  0
  2  3  1  0  0  0  0
  2 22  1  0  0  0  0
  3 29  1  0  0  0  0
  3 30  1  0  0  0  0
  4  5  1  0  0  0  0
  4 13  1  0  0  0  0
  4 31  1  1  0  0  0
  4  3  1  0  0  0  0
  5  6  1  0  0  0  0
  5 32  1  0  0  0  0
  5 33  1  0  0  0  0
  6  7  1  0  0  0  0
  6 34  1  0  0  0  0
  6 35  1  0  0  0  0
  7  8  2  0  0  0  0
  7 12  1  0  0  0  0
  8  9  1  0  0  0  0
  8 36  1  0  0  0  0
  9 10  2  0  0  0  0
  9 20  1  0  0  0  0
 10 11  1  0  0  0  0
 10 37  1  0  0  0  0
 11 12  2  0  0  0  0
 11 38  1  0  0  0  0
 12 13  1  0  0  0  0
 13 14  1  0  0  0  0
 13 39  1  1  0  0  0
 14 15  2  0  0  0  0
 14 19  1  0  0  0  0
 15 16  1  0  0  0  0
 15 40  1  0  0  0  0
 16 17  2  0  0  0  0
 16 41  1  0  0  0  0
 17 18  1  0  0  0  0
 17 42  1  0  0  0  0
 18 19  2  0  0  0  0
 18 43  1  0  0  0  0
 19 44  1  0  0  0  0
 20 21  1  0  0  0  0
 21 45  1  0  0  0  0
 21 46  1  0  0  0  0
 21 47  1  0  0  0  0
 22 23  1  0  0  0  0
 22 48  1  0  0  0  0
 22 49  1  0  0  0  0
 23 24  2  0  0  0  0
 23 25  1  0  0  0  0
 25 50  1  0  0  0  0
M  END
>  <DRUGBANK_ID>
DB12220

>  <COMMON_NAME>
ORG-25935

>  <CAS_NUMBER>
1147011-84-4

>  <UNII>
55L20667O4

$$$$
