
 OpenBabel10282417193D

 57 61  0  0  1  0  0  0  0  0999 V2000
    2.1998    0.0708   -0.0147 C   0  0  0  0  0  0  0  0  0  0  0  0
    0.7596    0.0097    0.0037 N   0  0  0  0  0  0  0  0  0  0  0  0
   -0.0763    1.0899    0.0107 C   0  0  0  0  0  0  0  0  0  0  0  0
   -1.3389    0.7373   -0.0212 N   0  0  0  0  0  0  0  0  0  0  0  0
   -1.3170   -0.6229   -0.0523 C   0  0  0  0  0  0  0  0  0  0  0  0
   -0.0215   -1.1183   -0.0192 C   0  0  0  0  0  0  0  0  0  0  0  0
    0.4465   -2.5459    0.0126 C   0  0  1  0  0  0  0  0  0  0  0  0
   -0.0064   -3.1844    1.3273 C   0  0  0  0  0  0  0  0  0  0  0  0
   -1.3775   -3.3148    1.5940 C   0  0  0  0  0  0  0  0  0  0  0  0
   -1.8104   -3.7754    2.8181 C   0  0  0  0  0  0  0  0  0  0  0  0
   -0.9107   -4.2334    3.7619 C   0  0  0  0  0  0  0  0  0  0  0  0
    0.4492   -4.1686    3.5033 C   0  0  0  0  0  0  0  0  0  0  0  0
    0.9002   -3.6289    2.2998 C   0  0  0  0  0  0  0  0  0  0  0  0
   -1.4894   -4.8589    5.2506 Cl  0  0  0  0  0  0  0  0  0  0  0  0
    0.0198   -3.2980   -1.2379 C   0  0  0  0  0  0  0  0  0  0  0  0
    0.3100   -2.8129   -2.5137 C   0  0  0  0  0  0  0  0  0  0  0  0
   -0.0287   -3.5609   -3.6372 C   0  0  0  0  0  0  0  0  0  0  0  0
   -0.6867   -4.7951   -3.5107 C   0  0  0  0  0  0  0  0  0  0  0  0
   -1.0255   -5.2649   -2.2456 C   0  0  0  0  0  0  0  0  0  0  0  0
   -0.6307   -4.5277   -1.1402 C   0  0  0  0  0  0  0  0  0  0  0  0
   -1.7544   -6.5288   -2.0386 C   0  0  0  0  0  0  0  0  0  0  0  0
   -2.0448   -7.2408   -3.1373 C   0  0  0  0  0  0  0  0  0  0  0  0
   -1.6230   -6.8279   -4.5004 C   0  0  0  0  0  0  0  0  0  0  0  0
   -1.8544   -7.5918   -5.4351 O   0  0  0  0  0  0  0  0  0  0  0  0
   -0.9872   -5.6033   -4.6323 N   0  0  0  0  0  0  0  0  0  0  0  0
   -0.5752   -5.1563   -5.9483 C   0  0  0  0  0  0  0  0  0  0  0  0
   -2.1526   -7.0698   -0.7104 C   0  0  0  0  0  0  0  0  0  0  0  0
   -1.6257   -8.2892   -0.2681 C   0  0  0  0  0  0  0  0  0  0  0  0
   -1.8851   -8.7412    1.0266 C   0  0  0  0  0  0  0  0  0  0  0  0
   -2.6555   -7.9720    1.8999 C   0  0  0  0  0  0  0  0  0  0  0  0
   -3.2038   -6.7658    1.4717 C   0  0  0  0  0  0  0  0  0  0  0  0
   -2.9497   -6.3142    0.1718 C   0  0  0  0  0  0  0  0  0  0  0  0
   -4.0077   -5.9907    2.3757 C   0  0  0  0  0  0  0  0  0  0  0  0
   -4.5999   -5.2858    3.1407 C   0  0  0  0  0  0  0  0  0  0  0  0
    1.8757   -2.5716   -0.0340 O   0  0  0  0  0  0  0  0  0  0  0  0
    2.5856   -0.4442    0.8695 H   0  0  0  0  0  0  0  0  0  0  0  0
    2.5504   -0.4042   -0.9361 H   0  0  0  0  0  0  0  0  0  0  0  0
    2.5278    1.1103    0.0006 H   0  0  0  0  0  0  0  0  0  0  0  0
    0.2769    2.1101    0.0321 H   0  0  0  0  0  0  0  0  0  0  0  0
   -2.2408   -1.1865   -0.0803 H   0  0  0  0  0  0  0  0  0  0  0  0
   -2.1345   -3.0814    0.8465 H   0  0  0  0  0  0  0  0  0  0  0  0
   -2.8678   -3.7575    3.0062 H   0  0  0  0  0  0  0  0  0  0  0  0
    1.1668   -4.4987    4.2451 H   0  0  0  0  0  0  0  0  0  0  0  0
    1.9704   -3.5473    2.1385 H   0  0  0  0  0  0  0  0  0  0  0  0
    0.8201   -1.8596   -2.6390 H   0  0  0  0  0  0  0  0  0  0  0  0
    0.2468   -3.1551   -4.6043 H   0  0  0  0  0  0  0  0  0  0  0  0
   -0.8371   -4.9406   -0.1623 H   0  0  0  0  0  0  0  0  0  0  0  0
   -2.5876   -8.1780   -3.0942 H   0  0  0  0  0  0  0  0  0  0  0  0
   -1.0697   -4.2046   -6.1680 H   0  0  0  0  0  0  0  0  0  0  0  0
    0.5133   -5.0298   -5.9631 H   0  0  0  0  0  0  0  0  0  0  0  0
   -0.8480   -5.8736   -6.7229 H   0  0  0  0  0  0  0  0  0  0  0  0
   -0.9863   -8.8821   -0.9191 H   0  0  0  0  0  0  0  0  0  0  0  0
   -1.4827   -9.6943    1.3581 H   0  0  0  0  0  0  0  0  0  0  0  0
   -2.8312   -8.3219    2.9141 H   0  0  0  0  0  0  0  0  0  0  0  0
   -3.3325   -5.3445   -0.1428 H   0  0  0  0  0  0  0  0  0  0  0  0
   -4.9778   -4.5440    3.8159 H   0  0  0  0  0  0  0  0  0  0  0  0
    2.1234   -3.5117   -0.0645 H   0  0  0  0  0  0  0  0  0  0  0  0
  1  2  1  0  0  0  0
  1 36  1  0  0  0  0
  1 37  1  0  0  0  0
  1 38  1  0  0  0  0
  2  3  1  0  0  0  0
  2  6  1  0  0  0  0
  3  4  2  0  0  0  0
  3 39  1  0  0  0  0
  4  5  1  0  0  0  0
  5  6  2  0  0  0  0
  5 40  1  0  0  0  0
  7  6  1  0  0  0  0
  7  8  1  0  0  0  0
  7 15  1  0  0  0  0
  7 35  1  1  0  0  0
  8  9  2  0  0  0  0
  8 13  1  0  0  0  0
  9 10  1  0  0  0  0
  9 41  1  0  0  0  0
 10 11  2  0  0  0  0
 10 42  1  0  0  0  0
 11 12  1  0  0  0  0
 11 14  1  0  0  0  0
 12 13  2  0  0  0  0
 12 43  1  0  0  0  0
 13 44  1  0  0  0  0
 15 16  2  0  0  0  0
 15 20  1  0  0  0  0
 16 17  1  0  0  0  0
 16 45  1  0  0  0  0
 17 18  2  0  0  0  0
 17 46  1  0  0  0  0
 18 19  1  0  0  0  0
 18 25  1  0  0  0  0
 19 20  2  0  0  0  0
 19 21  1  0  0  0  0
 20 47  1  0  0  0  0
 21 22  2  0  0  0  0
 21 27  1  0  0  0  0
 22 23  1  0  0  0  0
 22 48  1  0  0  0  0
 23 24  2  0  0  0  0
 23 25  1  0  0  0  0
 25 26  1  0  0  0  0
 26 49  1  0  0  0  0
 26 50  1  0  0  0  0
 26 51  1  0  0  0  0
 27 28  2  0  0  0  0
 27 32  1  0  0  0  0
 28 29  1  0  0  0  0
 28 52  1  0  0  0  0
 29 30  2  0  0  0  0
 29 53  1  0  0  0  0
 30 31  1  0  0  0  0
 30 54  1  0  0  0  0
 31 32  2  0  0  0  0
 31 33  1  0  0  0  0
 32 55  1  0  0  0  0
 33 34  3  0  0  0  0
 34 56  1  0  0  0  0
 35 57  1  0  0  0  0
M  END
>  <DRUGBANK_ID>
DB12640

>  <COMMON_NAME>
CP-609754

>  <CAS_NUMBER>
1190094-64-4

>  <UNII>
L0S47W9GPY

$$$$
