4840
 OpenBabel10282417143D

 26 27  0  0  0  0  0  0  0  0999 V2000
    2.4105    0.7286    0.2772 N   0  0  0  0  0  0  0  0  0  0  0  0
    3.6588    2.6868    0.5058 N   0  0  0  0  0  0  0  0  0  0  0  0
    4.4586    0.7488    1.3906 N   0  0  0  0  0  0  0  0  0  0  0  0
    1.2340   -1.4190   -0.3616 C   0  0  0  0  0  0  0  0  0  0  0  0
    2.2966   -0.7317    0.5078 C   0  0  0  0  0  0  0  0  0  0  0  0
    1.2955    1.3803   -0.4098 C   0  0  0  0  0  0  0  0  0  0  0  0
   -0.0777   -0.7058   -0.1955 C   0  0  0  0  0  0  0  0  0  0  0  0
   -0.0300    0.6956   -0.1618 C   0  0  0  0  0  0  0  0  0  0  0  0
   -1.2966   -1.3744   -0.0607 C   0  0  0  0  0  0  0  0  0  0  0  0
   -1.2079    1.4196    0.0502 C   0  0  0  0  0  0  0  0  0  0  0  0
    3.5266    1.3697    0.7435 C   0  0  0  0  0  0  0  0  0  0  0  0
   -2.4661   -0.6434    0.1495 C   0  0  0  0  0  0  0  0  0  0  0  0
   -2.4199    0.7493    0.2179 C   0  0  0  0  0  0  0  0  0  0  0  0
    4.4483    3.2011    0.8653 H   0  0  0  0  0  0  0  0  0  0  0  0
    2.9602    3.2323    0.0315 H   0  0  0  0  0  0  0  0  0  0  0  0
    5.1960    1.4060    1.6382 H   0  0  0  0  0  0  0  0  0  0  0  0
    1.5241   -1.3943   -1.4190 H   0  0  0  0  0  0  0  0  0  0  0  0
    1.1437   -2.4700   -0.0644 H   0  0  0  0  0  0  0  0  0  0  0  0
    3.2565   -1.2236    0.3084 H   0  0  0  0  0  0  0  0  0  0  0  0
    2.0572   -0.8933    1.5674 H   0  0  0  0  0  0  0  0  0  0  0  0
    1.1899    2.4233   -0.0980 H   0  0  0  0  0  0  0  0  0  0  0  0
    1.4947    1.3770   -1.4891 H   0  0  0  0  0  0  0  0  0  0  0  0
   -1.3419   -2.4597   -0.0980 H   0  0  0  0  0  0  0  0  0  0  0  0
   -1.1882    2.5053    0.0971 H   0  0  0  0  0  0  0  0  0  0  0  0
   -3.4149   -1.1598    0.2712 H   0  0  0  0  0  0  0  0  0  0  0  0
   -3.3305    1.3139    0.4008 H   0  0  0  0  0  0  0  0  0  0  0  0
  1  5  1  0  0  0  0
  1  6  1  0  0  0  0
  1 11  1  0  0  0  0
  2 11  1  0  0  0  0
  2 14  1  0  0  0  0
  2 15  1  0  0  0  0
  3 11  2  0  0  0  0
  3 16  1  0  0  0  0
  4  5  1  0  0  0  0
  4  7  1  0  0  0  0
  4 17  1  0  0  0  0
  4 18  1  0  0  0  0
  5 19  1  0  0  0  0
  5 20  1  0  0  0  0
  6  8  1  0  0  0  0
  6 21  1  0  0  0  0
  6 22  1  0  0  0  0
  7  8  1  0  0  0  0
  7  9  2  0  0  0  0
  8 10  2  0  0  0  0
  9 12  1  0  0  0  0
  9 23  1  0  0  0  0
 10 13  1  0  0  0  0
 10 24  1  0  0  0  0
 12 13  2  0  0  0  0
 12 25  1  0  0  0  0
 13 26  1  0  0  0  0
M  END
>  <DRUGBANK_ID>
DB04840

>  <COMMON_NAME>
Debrisoquine

>  <CAS_NUMBER>
1131-64-2

>  <UNII>
X31CDK040E

>  <SYNONYMS>
Debrisochinum; Debrisoquin; Debrisoquina; DÃ©brisoquine; Debrisoquine; Debrisoquinum

$$$$
