
 OpenBabel10282417143D

 32 31  0  0  0  0  0  0  0  0999 V2000
    1.0811   -0.1552   -0.1059 C   0  0  0  0  0  0  0  0  0  0  0  0
    0.6623   -0.2791    1.3417 C   0  0  0  0  0  0  0  0  0  0  0  0
    1.3707    0.7182    2.2783 C   0  0  0  0  0  0  0  0  0  0  0  0
    1.3227    2.2603    2.0844 C   0  0  0  0  0  0  0  0  0  0  0  0
    0.9575    2.9685    3.0016 O   0  0  0  0  0  0  0  0  0  0  0  0
    1.6672    2.9686    0.4685 S   0  0  0  0  0  0  0  0  0  0  0  0
    0.4021    4.3310    0.1122 C   0  0  0  0  0  0  0  0  0  0  0  0
   -1.1814    4.2270    0.1121 C   0  0  0  0  0  0  0  0  0  0  0  0
   -1.7866    3.7485    1.4369 N   0  3  0  0  0  0  0  0  0  0  0  0
   -1.2569    4.6557    2.5621 C   0  0  0  0  0  0  0  0  0  0  0  0
   -3.3025    3.7594    1.5141 C   0  0  0  0  0  0  0  0  0  0  0  0
   -1.4908    2.2884    1.5619 C   0  0  0  0  0  0  0  0  0  0  0  0
    0.6283    0.7282   -0.5586 H   0  0  0  0  0  0  0  0  0  0  0  0
    0.7422   -1.0073   -0.6996 H   0  0  0  0  0  0  0  0  0  0  0  0
    2.1705   -0.0909   -0.1755 H   0  0  0  0  0  0  0  0  0  0  0  0
   -0.4320   -0.2249    1.4157 H   0  0  0  0  0  0  0  0  0  0  0  0
    0.9141   -1.2949    1.6811 H   0  0  0  0  0  0  0  0  0  0  0  0
    0.9113    0.5349    3.2660 H   0  0  0  0  0  0  0  0  0  0  0  0
    2.4210    0.4420    2.3825 H   0  0  0  0  0  0  0  0  0  0  0  0
    0.7020    5.1882    0.7201 H   0  0  0  0  0  0  0  0  0  0  0  0
    0.6429    4.6460   -0.9152 H   0  0  0  0  0  0  0  0  0  0  0  0
   -1.6129    5.2225   -0.0749 H   0  0  0  0  0  0  0  0  0  0  0  0
   -1.5528    3.5669   -0.6826 H   0  0  0  0  0  0  0  0  0  0  0  0
   -1.6891    5.6529    2.4186 H   0  0  0  0  0  0  0  0  0  0  0  0
   -1.5281    4.2361    3.5305 H   0  0  0  0  0  0  0  0  0  0  0  0
   -0.1785    4.7735    2.4920 H   0  0  0  0  0  0  0  0  0  0  0  0
   -3.6914    3.0857    0.7437 H   0  0  0  0  0  0  0  0  0  0  0  0
   -3.5684    3.3636    2.5049 H   0  0  0  0  0  0  0  0  0  0  0  0
   -3.6749    4.7723    1.3850 H   0  0  0  0  0  0  0  0  0  0  0  0
   -2.0620    1.7013    0.8359 H   0  0  0  0  0  0  0  0  0  0  0  0
   -0.5195    2.1549    1.1761 H   0  0  0  0  0  0  0  0  0  0  0  0
   -1.5893    1.9473    2.5912 H   0  0  0  0  0  0  0  0  0  0  0  0
  1  2  1  0  0  0  0
  1 13  1  0  0  0  0
  1 14  1  0  0  0  0
  1 15  1  0  0  0  0
  2  3  1  0  0  0  0
  2 16  1  0  0  0  0
  2 17  1  0  0  0  0
  3  4  1  0  0  0  0
  3 18  1  0  0  0  0
  3 19  1  0  0  0  0
  4  5  2  0  0  0  0
  4  6  1  0  0  0  0
  6  7  1  0  0  0  0
  7  8  1  0  0  0  0
  7 20  1  0  0  0  0
  7 21  1  0  0  0  0
  8  9  1  0  0  0  0
  8 22  1  0  0  0  0
  8 23  1  0  0  0  0
  9 10  1  0  0  0  0
  9 11  1  0  0  0  0
  9 12  1  0  0  0  0
 10 24  1  0  0  0  0
 10 25  1  0  0  0  0
 10 26  1  0  0  0  0
 11 27  1  0  0  0  0
 11 28  1  0  0  0  0
 11 29  1  0  0  0  0
 12 30  1  0  0  0  0
 12 31  1  0  0  0  0
 12 32  1  0  0  0  0
M  CHG  1   9   1
M  END
>  <DRUGBANK_ID>
DB04250

>  <SECONDARY_ACCESSION_NUMBERS>
EXPT00639

>  <COMMON_NAME>
Butyrylthiocholine

>  <UNII>
K8D83KI04M

$$$$
