
 OpenBabel10282417213D

 81 84  0  0  1  0  0  0  0  0999 V2000
    0.9767    0.0250   -0.0972 C   0  0  0  0  0  0  0  0  0  0  0  0
    0.5631   -0.4251    1.3036 C   0  0  0  0  0  0  0  0  0  0  0  0
    1.0549    0.4132    2.3692 O   0  0  0  0  0  0  0  0  0  0  0  0
    2.4123    0.4763    2.4682 C   0  0  0  0  0  0  0  0  0  0  0  0
    3.1800   -0.1390    1.7315 O   0  0  0  0  0  0  0  0  0  0  0  0
    2.8448    1.3830    3.4245 N   0  0  0  0  0  0  0  0  0  0  0  0
    2.4652    1.2214    4.8527 C   0  0  2  0  0  0  0  0  0  0  0  0
    1.4280    2.2049    5.3249 C   0  0  0  0  0  0  0  0  0  0  0  0
    1.4483    2.3886    7.0112 C   0  0  0  0  0  0  0  0  0  0  0  0
    3.6850    1.4079    5.7451 C   0  0  0  0  0  0  0  0  0  0  0  0
    4.4385    2.7380    5.4698 C   0  0  2  0  0  0  0  0  0  0  0  0
    3.9877    4.0655    6.0211 N   0  0  0  0  0  0  0  0  0  0  0  0
    4.7225    4.5578    7.1756 C   0  0  0  0  0  0  0  0  0  0  0  0
    5.1073    5.9921    6.9590 C   0  0  0  0  0  0  0  0  0  0  0  0
    4.1845    6.9622    7.3498 C   0  0  0  0  0  0  0  0  0  0  0  0
    4.4084    8.3059    7.0914 C   0  0  0  0  0  0  0  0  0  0  0  0
    5.5726    8.6812    6.4189 C   0  0  0  0  0  0  0  0  0  0  0  0
    6.5477    7.7297    6.0951 C   0  0  0  0  0  0  0  0  0  0  0  0
    6.2815    6.3737    6.3077 C   0  0  0  0  0  0  0  0  0  0  0  0
    7.9267    8.1722    5.6904 C   0  0  0  0  0  0  0  0  0  0  0  0
    8.8531    7.7386    6.5931 F   0  0  0  0  0  0  0  0  0  0  0  0
    8.3287    7.7089    4.4825 F   0  0  0  0  0  0  0  0  0  0  0  0
    8.0590    9.5272    5.6562 F   0  0  0  0  0  0  0  0  0  0  0  0
    3.4327    9.3283    7.5766 C   0  0  0  0  0  0  0  0  0  0  0  0
    3.9640   10.1856    8.4772 F   0  0  0  0  0  0  0  0  0  0  0  0
    2.9845   10.1164    6.5579 F   0  0  0  0  0  0  0  0  0  0  0  0
    2.3185    8.7946    8.1432 F   0  0  0  0  0  0  0  0  0  0  0  0
    2.8412    4.7784    5.6565 C   0  0  0  0  0  0  0  0  0  0  0  0
    2.7324    5.6612    4.6899 N   0  0  0  0  0  0  0  0  0  0  0  0
    1.4250    5.9469    4.3275 C   0  0  0  0  0  0  0  0  0  0  0  0
    0.2020    5.5576    4.7864 C   0  0  0  0  0  0  0  0  0  0  0  0
   -1.0420    5.9884    4.5799 O   0  0  0  0  0  0  0  0  0  0  0  0
   -1.1040    7.3422    4.1206 C   0  0  0  0  0  0  0  0  0  0  0  0
   -0.6162    8.3982    5.1389 C   0  0  0  0  0  0  0  0  0  0  0  0
    0.8956    8.4718    5.4288 C   0  0  0  0  0  0  0  0  0  0  0  0
    1.7500    8.7748    4.1337 C   0  0  0  0  0  0  0  0  0  0  0  0
    2.9512    9.3334    4.3224 O   0  0  0  0  0  0  0  0  0  0  0  0
    1.4286    8.5153    2.9816 O   0  0  0  0  0  0  0  0  0  0  0  0
    0.4281    4.6683    5.7567 C   0  0  0  0  0  0  0  0  0  0  0  0
    1.6963    4.5210    6.2699 N   0  0  0  0  0  0  0  0  0  0  0  0
    4.6873    2.9169    4.0098 C   0  0  0  0  0  0  0  0  0  0  0  0
    3.8726    2.3138    3.0553 C   0  0  0  0  0  0  0  0  0  0  0  0
    4.0405    2.7020    1.7189 C   0  0  0  0  0  0  0  0  0  0  0  0
    5.0362    3.6075    1.3418 C   0  0  0  0  0  0  0  0  0  0  0  0
    5.9017    4.1428    2.2924 C   0  0  0  0  0  0  0  0  0  0  0  0
    5.7151    3.7926    3.6244 C   0  0  0  0  0  0  0  0  0  0  0  0
    7.0159    5.0767    1.9222 C   0  0  0  0  0  0  0  0  0  0  0  0
    6.9066    6.2963    2.5149 F   0  0  0  0  0  0  0  0  0  0  0  0
    8.2294    4.5855    2.3033 F   0  0  0  0  0  0  0  0  0  0  0  0
    7.1078    5.3064    0.5849 F   0  0  0  0  0  0  0  0  0  0  0  0
    0.6257    1.0400   -0.3039 H   0  0  0  0  0  0  0  0  0  0  0  0
    0.5740   -0.6549   -0.8545 H   0  0  0  0  0  0  0  0  0  0  0  0
    2.0608    0.0387   -0.2340 H   0  0  0  0  0  0  0  0  0  0  0  0
   -0.5315   -0.4046    1.3591 H   0  0  0  0  0  0  0  0  0  0  0  0
    0.8750   -1.4570    1.4956 H   0  0  0  0  0  0  0  0  0  0  0  0
    1.9827    0.2477    4.9799 H   0  0  0  0  0  0  0  0  0  0  0  0
    1.7028    3.0489    4.6641 H   0  0  0  0  0  0  0  0  0  0  0  0
    0.4184    2.0133    4.9480 H   0  0  0  0  0  0  0  0  0  0  0  0
    2.4511    2.6391    7.4100 H   0  0  0  0  0  0  0  0  0  0  0  0
    0.9010    3.2195    7.5052 H   0  0  0  0  0  0  0  0  0  0  0  0
    1.0119    1.5537    7.5288 H   0  0  0  0  0  0  0  0  0  0  0  0
    3.4529    1.2672    6.8017 H   0  0  0  0  0  0  0  0  0  0  0  0
    4.3378    0.5497    5.5524 H   0  0  0  0  0  0  0  0  0  0  0  0
    5.4213    2.5184    5.9186 H   0  0  0  0  0  0  0  0  0  0  0  0
    4.1316    4.4566    8.0943 H   0  0  0  0  0  0  0  0  0  0  0  0
    5.6439    3.9889    7.3738 H   0  0  0  0  0  0  0  0  0  0  0  0
    3.2463    6.6398    7.8036 H   0  0  0  0  0  0  0  0  0  0  0  0
    5.7472    9.7310    6.1856 H   0  0  0  0  0  0  0  0  0  0  0  0
    7.0012    5.6279    5.9750 H   0  0  0  0  0  0  0  0  0  0  0  0
    1.3557    6.6740    3.5661 H   0  0  0  0  0  0  0  0  0  0  0  0
   -0.6097    7.4072    3.1533 H   0  0  0  0  0  0  0  0  0  0  0  0
   -2.1626    7.5396    3.9148 H   0  0  0  0  0  0  0  0  0  0  0  0
   -0.8901    9.3865    4.7636 H   0  0  0  0  0  0  0  0  0  0  0  0
   -1.1524    8.2396    6.0877 H   0  0  0  0  0  0  0  0  0  0  0  0
    1.0495    9.2583    6.1643 H   0  0  0  0  0  0  0  0  0  0  0  0
    1.1854    7.5799    6.0059 H   0  0  0  0  0  0  0  0  0  0  0  0
    3.0192    9.7375    5.1976 H   0  0  0  0  0  0  0  0  0  0  0  0
   -0.3669    3.9835    6.0425 H   0  0  0  0  0  0  0  0  0  0  0  0
    3.3705    2.3377    0.9452 H   0  0  0  0  0  0  0  0  0  0  0  0
    5.1306    3.8879    0.2958 H   0  0  0  0  0  0  0  0  0  0  0  0
    6.3498    4.2375    4.3855 H   0  0  0  0  0  0  0  0  0  0  0  0
  1  2  1  0  0  0  0
  1 51  1  0  0  0  0
  1 52  1  0  0  0  0
  1 53  1  0  0  0  0
  2  3  1  0  0  0  0
  2 54  1  0  0  0  0
  2 55  1  0  0  0  0
  3  4  1  0  0  0  0
  4  5  2  0  0  0  0
  4  6  1  0  0  0  0
  6 42  1  0  0  0  0
  7  6  1  0  0  0  0
  7 10  1  0  0  0  0
  7 56  1  1  0  0  0
  7  8  1  0  0  0  0
  8  9  1  0  0  0  0
  8 57  1  0  0  0  0
  8 58  1  0  0  0  0
  9 59  1  0  0  0  0
  9 60  1  0  0  0  0
  9 61  1  0  0  0  0
 10 62  1  0  0  0  0
 10 63  1  0  0  0  0
 11 10  1  0  0  0  0
 11 12  1  0  0  0  0
 11 41  1  0  0  0  0
 11 64  1  1  0  0  0
 12 13  1  0  0  0  0
 12 28  1  0  0  0  0
 13 14  1  0  0  0  0
 13 65  1  0  0  0  0
 13 66  1  0  0  0  0
 14 15  2  0  0  0  0
 14 19  1  0  0  0  0
 15 16  1  0  0  0  0
 15 67  1  0  0  0  0
 16 17  2  0  0  0  0
 16 24  1  0  0  0  0
 17 18  1  0  0  0  0
 17 68  1  0  0  0  0
 18 19  2  0  0  0  0
 18 20  1  0  0  0  0
 19 69  1  0  0  0  0
 20 21  1  0  0  0  0
 20 22  1  0  0  0  0
 20 23  1  0  0  0  0
 24 25  1  0  0  0  0
 24 26  1  0  0  0  0
 24 27  1  0  0  0  0
 28 29  2  0  0  0  0
 28 40  1  0  0  0  0
 29 30  1  0  0  0  0
 30 31  2  0  0  0  0
 30 70  1  0  0  0  0
 31 32  1  0  0  0  0
 31 39  1  0  0  0  0
 32 33  1  0  0  0  0
 33 34  1  0  0  0  0
 33 71  1  0  0  0  0
 33 72  1  0  0  0  0
 34 35  1  0  0  0  0
 34 73  1  0  0  0  0
 34 74  1  0  0  0  0
 35 36  1  0  0  0  0
 35 75  1  0  0  0  0
 35 76  1  0  0  0  0
 36 37  1  0  0  0  0
 36 38  2  0  0  0  0
 37 77  1  0  0  0  0
 39 40  2  0  0  0  0
 39 78  1  0  0  0  0
 41 42  2  0  0  0  0
 41 46  1  0  0  0  0
 42 43  1  0  0  0  0
 43 44  2  0  0  0  0
 43 79  1  0  0  0  0
 44 45  1  0  0  0  0
 44 80  1  0  0  0  0
 45 46  2  0  0  0  0
 45 47  1  0  0  0  0
 46 81  1  0  0  0  0
 47 48  1  0  0  0  0
 47 49  1  0  0  0  0
 47 50  1  0  0  0  0
M  END
>  <DRUGBANK_ID>
DB14890

>  <COMMON_NAME>
Obicetrapib

>  <CAS_NUMBER>
866399-87-3

>  <UNII>
8O74K609HN

>  <SYNONYMS>
Obicetrapib

$$$$
