
 OpenBabel10282417153D

 63 67  0  0  1  0  0  0  0  0999 V2000
   -0.1407    3.8161    3.2057 C   0  0  0  0  0  0  0  0  0  0  0  0
    1.0077    3.0800    2.5742 C   0  0  1  0  0  0  0  0  0  0  0  0
    1.8743    4.1596    1.8624 C   0  0  1  0  0  0  0  0  0  0  0  0
    3.2146    3.5798    1.4915 C   0  0  2  0  0  0  0  0  0  0  0  0
    3.8793    2.5095    2.3717 C   0  0  2  0  0  0  0  0  0  0  0  0
    2.8060    1.5006    2.8160 C   0  0  1  0  0  0  0  0  0  0  0  0
    1.7206    2.2070    3.4468 O   0  0  0  0  0  0  0  0  0  0  0  0
    2.4160    0.5143    1.8071 O   0  0  0  0  0  0  0  0  0  0  0  0
    1.9287    0.9129    0.5264 C   0  0  1  0  0  0  0  0  0  0  0  0
    2.9752    1.5356   -0.3602 C   0  0  0  0  0  0  0  0  0  0  0  0
    3.9465    0.6970   -1.0615 C   0  0  1  0  0  0  0  0  0  0  0  0
    3.0802    0.1119   -2.1112 C   0  0  0  0  0  0  0  0  0  0  0  0
    1.7836   -0.4773   -1.5506 C   0  0  0  0  0  0  0  0  0  0  0  0
    1.2253   -0.1214   -0.2882 C   0  0  0  0  0  0  0  0  0  0  0  0
   -0.0433   -0.5696    0.1156 C   0  0  0  0  0  0  0  0  0  0  0  0
   -0.7222   -1.4545   -0.7069 C   0  0  0  0  0  0  0  0  0  0  0  0
   -0.1578   -1.8201   -1.9432 C   0  0  0  0  0  0  0  0  0  0  0  0
    1.0623   -1.3014   -2.3749 C   0  0  0  0  0  0  0  0  0  0  0  0
    1.5454   -1.5917   -3.6160 O   0  0  0  0  0  0  0  0  0  0  0  0
   -0.8370   -2.7870   -2.7939 C   0  0  0  0  0  0  0  0  0  0  0  0
   -0.3730   -3.1571   -3.8882 O   0  0  0  0  0  0  0  0  0  0  0  0
   -2.0861   -3.3740   -2.3534 C   0  0  0  0  0  0  0  0  0  0  0  0
   -2.6869   -4.3209   -3.1781 C   0  0  0  0  0  0  0  0  0  0  0  0
   -3.8805   -4.9018   -2.7878 C   0  0  0  0  0  0  0  0  0  0  0  0
   -4.4696   -4.5392   -1.5753 C   0  0  0  0  0  0  0  0  0  0  0  0
   -3.8663   -3.5932   -0.7478 C   0  0  0  0  0  0  0  0  0  0  0  0
   -2.6668   -3.0073   -1.1420 C   0  0  0  0  0  0  0  0  0  0  0  0
   -2.0134   -2.0165   -0.2863 C   0  0  0  0  0  0  0  0  0  0  0  0
   -2.5268   -1.6649    0.7854 O   0  0  0  0  0  0  0  0  0  0  0  0
   -0.5832   -0.0736    1.2781 O   0  0  0  0  0  0  0  0  0  0  0  0
    5.0954    1.6916   -1.4413 C   0  0  0  0  0  0  0  0  0  0  0  0
    6.1708    1.6455   -0.8293 O   0  0  0  0  0  0  0  0  0  0  0  0
    4.7926    2.9038   -2.3326 C   0  0  0  0  0  0  0  0  0  0  0  0
    4.1922    2.5226   -3.5465 O   0  0  0  0  0  0  0  0  0  0  0  0
    4.4336   -0.3031   -0.1706 O   0  0  0  0  0  0  0  0  0  0  0  0
    4.9643    3.5154    3.9027 I   0  0  0  0  0  0  0  0  0  0  0  0
    4.1306    4.2642    0.6383 O   0  0  0  0  0  0  0  0  0  0  0  0
    1.1791    4.5892    0.6474 O   0  0  0  0  0  0  0  0  0  0  0  0
   -0.4364    4.6380    2.5426 H   0  0  0  0  0  0  0  0  0  0  0  0
    0.1458    4.1896    4.1829 H   0  0  0  0  0  0  0  0  0  0  0  0
   -1.0093    3.1566    3.2839 H   0  0  0  0  0  0  0  0  0  0  0  0
    0.4392    2.4237    1.9246 H   0  0  0  0  0  0  0  0  0  0  0  0
    2.0455    5.0492    2.4571 H   0  0  0  0  0  0  0  0  0  0  0  0
    2.6677    3.0763    0.7574 H   0  0  0  0  0  0  0  0  0  0  0  0
    4.6617    1.9454    1.8384 H   0  0  0  0  0  0  0  0  0  0  0  0
    3.2623    0.8686    3.5919 H   0  0  0  0  0  0  0  0  0  0  0  0
    1.1496    1.6521    0.6137 H   0  0  0  0  0  0  0  0  0  0  0  0
    3.7288    1.9711    0.2342 H   0  0  0  0  0  0  0  0  0  0  0  0
    2.4967    2.2894   -1.0162 H   0  0  0  0  0  0  0  0  0  0  0  0
    2.7613    0.8826   -2.8232 H   0  0  0  0  0  0  0  0  0  0  0  0
    3.6898   -0.6386   -2.6052 H   0  0  0  0  0  0  0  0  0  0  0  0
    2.3887   -1.1653   -3.8116 H   0  0  0  0  0  0  0  0  0  0  0  0
   -2.2162   -4.5976   -4.1210 H   0  0  0  0  0  0  0  0  0  0  0  0
   -4.3464   -5.6371   -3.4352 H   0  0  0  0  0  0  0  0  0  0  0  0
   -5.4058   -4.9983   -1.2743 H   0  0  0  0  0  0  0  0  0  0  0  0
   -4.3292   -3.3173    0.1973 H   0  0  0  0  0  0  0  0  0  0  0  0
   -1.4369   -0.5289    1.4758 H   0  0  0  0  0  0  0  0  0  0  0  0
    4.1392    3.6223   -1.8239 H   0  0  0  0  0  0  0  0  0  0  0  0
    5.7298    3.4302   -2.5426 H   0  0  0  0  0  0  0  0  0  0  0  0
    4.8026    1.8965   -3.9729 H   0  0  0  0  0  0  0  0  0  0  0  0
    4.7863    0.1356    0.6279 H   0  0  0  0  0  0  0  0  0  0  0  0
    4.9078    3.6839    0.4967 H   0  0  0  0  0  0  0  0  0  0  0  0
    0.9333    3.8237    0.0913 H   0  0  0  0  0  0  0  0  0  0  0  0
  1 39  1  0  0  0  0
  1 40  1  0  0  0  0
  1 41  1  0  0  0  0
  2  3  1  0  0  0  0
  2  7  1  0  0  0  0
  2 42  1  6  0  0  0
  2  1  1  0  0  0  0
  3  4  1  0  0  0  0
  3 38  1  0  0  0  0
  3 43  1  1  0  0  0
  4  5  1  0  0  0  0
  4 44  1  6  0  0  0
  4 37  1  0  0  0  0
  5  6  1  0  0  0  0
  5 45  1  6  0  0  0
  5 36  1  0  0  0  0
  6  7  1  0  0  0  0
  6  8  1  0  0  0  0
  6 46  1  1  0  0  0
  9 10  1  0  0  0  0
  9 14  1  0  0  0  0
  9 47  1  1  0  0  0
  9  8  1  0  0  0  0
 10 11  1  0  0  0  0
 10 48  1  0  0  0  0
 10 49  1  0  0  0  0
 11 12  1  0  0  0  0
 11 31  1  6  0  0  0
 11 35  1  0  0  0  0
 12 13  1  0  0  0  0
 12 50  1  0  0  0  0
 12 51  1  0  0  0  0
 13 14  2  0  0  0  0
 13 18  1  0  0  0  0
 14 15  1  0  0  0  0
 15 16  2  0  0  0  0
 15 30  1  0  0  0  0
 16 17  1  0  0  0  0
 16 28  1  0  0  0  0
 17 18  2  0  0  0  0
 17 20  1  0  0  0  0
 18 19  1  0  0  0  0
 19 52  1  0  0  0  0
 20 21  2  0  0  0  0
 20 22  1  0  0  0  0
 22 23  2  0  0  0  0
 22 27  1  0  0  0  0
 23 24  1  0  0  0  0
 23 53  1  0  0  0  0
 24 25  2  0  0  0  0
 24 54  1  0  0  0  0
 25 26  1  0  0  0  0
 25 55  1  0  0  0  0
 26 27  2  0  0  0  0
 26 56  1  0  0  0  0
 27 28  1  0  0  0  0
 28 29  2  0  0  0  0
 30 57  1  0  0  0  0
 31 32  2  0  0  0  0
 31 33  1  0  0  0  0
 33 34  1  0  0  0  0
 33 58  1  0  0  0  0
 33 59  1  0  0  0  0
 34 60  1  0  0  0  0
 35 61  1  0  0  0  0
 37 62  1  0  0  0  0
 38 63  1  0  0  0  0
M  END
>  <DRUGBANK_ID>
DB06420

>  <COMMON_NAME>
Annamycin

>  <CAS_NUMBER>
92689-49-1

>  <UNII>
SNU299M83Q

>  <SYNONYMS>
2'-Iodo-3'-hydroxy-4'-epi-4-demethoxydoxorubicin

$$$$
