
 OpenBabel10282417153D

 56 59  0  0  1  0  0  0  0  0999 V2000
    3.4678    1.4937    1.0486 C   0  0  0  0  0  0  0  0  0  0  0  0
    3.1008    2.7855    0.4365 C   0  0  0  0  0  0  0  0  0  0  0  0
    3.4072    2.7328   -0.9292 O   0  0  0  0  0  0  0  0  0  0  0  0
    2.6328    1.6739   -1.6152 C   0  0  2  0  0  0  0  0  0  0  0  0
    0.8693    1.8298   -1.7022 C   0  0  0  0  0  0  0  0  0  0  0  0
   -0.3614    1.9069   -0.6007 C   0  0  0  0  0  0  0  0  0  0  0  0
    0.0092    2.5387    0.6683 C   0  0  0  0  0  0  0  0  0  0  0  0
   -0.7923    2.6122    1.9005 C   0  0  0  0  0  0  0  0  0  0  0  0
   -2.0669    1.8057    2.1347 C   0  0  0  0  0  0  0  0  0  0  0  0
   -2.6052    0.9445    0.8474 C   0  0  0  0  0  0  0  0  0  0  0  0
   -1.7638    1.0951   -0.5925 C   0  0  0  0  0  0  0  0  0  0  0  0
   -2.1994    1.2445    3.7581 O   0  0  0  0  0  0  0  0  0  0  0  0
   -0.9391    1.4043    5.1385 C   0  0  0  0  0  0  0  0  0  0  0  0
    1.0474    0.3042    5.0986 C   0  0  0  0  0  0  0  0  0  0  0  0
    1.9790    0.5326    3.7674 N   0  0  0  0  0  0  0  0  0  0  0  0
    0.8289    1.3675    4.3906 C   0  0  0  0  0  0  0  0  0  0  0  0
    1.0973    2.0786    6.0116 C   0  0  0  0  0  0  0  0  0  0  0  0
    0.5083    1.0633    7.1437 C   0  0  0  0  0  0  0  0  0  0  0  0
   -0.3980   -0.3321    6.7565 C   0  0  0  0  0  0  0  0  0  0  0  0
   -0.9602   -0.8084    5.2317 C   0  0  0  0  0  0  0  0  0  0  0  0
   -0.3839   -0.0625    4.0067 C   0  0  0  0  0  0  0  0  0  0  0  0
   -0.6016    0.3714    2.8516 O   0  0  0  0  0  0  0  0  0  0  0  0
    0.3067   -0.1838    2.1518 C   0  0  0  0  0  0  0  0  0  0  0  0
    1.5534   -0.2463    2.5867 C   0  0  0  0  0  0  0  0  0  0  0  0
    2.1384   -0.8194    1.5192 C   0  0  0  0  0  0  0  0  0  0  0  0
    1.4624   -0.9426    0.1630 C   0  0  0  0  0  0  0  0  0  0  0  0
    0.1815   -0.9528   -0.1374 C   0  0  0  0  0  0  0  0  0  0  0  0
   -0.3039   -0.4357    0.9581 C   0  0  0  0  0  0  0  0  0  0  0  0
    3.4777    0.1812   -1.7339 C   0  0  0  0  0  0  0  0  0  0  0  0
    3.8310   -0.3010   -2.7997 O   0  0  0  0  0  0  0  0  0  0  0  0
    3.8100   -0.5376   -0.6093 O   0  0  0  0  0  0  0  0  0  0  0  0
    2.8200    0.8915    0.4669 H   0  0  0  0  0  0  0  0  0  0  0  0
    3.1882    1.3583    2.0765 H   0  0  0  0  0  0  0  0  0  0  0  0
    4.4648    1.0530    0.9279 H   0  0  0  0  0  0  0  0  0  0  0  0
    2.1105    3.1440    0.2545 H   0  0  0  0  0  0  0  0  0  0  0  0
    3.3315    3.5085    1.2188 H   0  0  0  0  0  0  0  0  0  0  0  0
    2.8287    2.0131   -2.6460 H   0  0  0  0  0  0  0  0  0  0  0  0
    0.7457    2.8567   -2.0884 H   0  0  0  0  0  0  0  0  0  0  0  0
    0.5688    1.1346   -2.4972 H   0  0  0  0  0  0  0  0  0  0  0  0
    1.0281    2.2970    1.0774 H   0  0  0  0  0  0  0  0  0  0  0  0
   -0.0128    2.7438    2.6880 H   0  0  0  0  0  0  0  0  0  0  0  0
   -3.1642   -0.0556    1.0068 H   0  0  0  0  0  0  0  0  0  0  0  0
   -1.8188    0.1987   -1.3286 H   0  0  0  0  0  0  0  0  0  0  0  0
   -0.9264    2.4742    5.0075 H   0  0  0  0  0  0  0  0  0  0  0  0
   -1.6331    1.1791    5.9892 H   0  0  0  0  0  0  0  0  0  0  0  0
    1.8746    0.2504    5.8970 H   0  0  0  0  0  0  0  0  0  0  0  0
    1.0845   -0.8615    5.0144 H   0  0  0  0  0  0  0  0  0  0  0  0
    1.9518    2.7315    6.2125 H   0  0  0  0  0  0  0  0  0  0  0  0
    1.0302    1.0460    8.1069 H   0  0  0  0  0  0  0  0  0  0  0  0
   -0.6752   -0.9960    7.5773 H   0  0  0  0  0  0  0  0  0  0  0  0
   -2.0372   -0.9727    5.2120 H   0  0  0  0  0  0  0  0  0  0  0  0
    3.1970   -0.8525    1.5872 H   0  0  0  0  0  0  0  0  0  0  0  0
    1.8286   -0.5591   -0.7778 H   0  0  0  0  0  0  0  0  0  0  0  0
   -0.0895   -0.7133   -1.1666 H   0  0  0  0  0  0  0  0  0  0  0  0
   -0.7194    0.5258    0.8743 H   0  0  0  0  0  0  0  0  0  0  0  0
    3.4032   -1.4398   -0.4539 H   0  0  0  0  0  0  0  0  0  0  0  0
  1  2  1  0  0  0  0
  1 32  1  0  0  0  0
  1 33  1  0  0  0  0
  1 34  1  0  0  0  0
  2  3  1  0  0  0  0
  2 35  1  0  0  0  0
  2 36  1  0  0  0  0
  4 29  1  0  0  0  0
  4 37  1  6  0  0  0
  4  5  1  0  0  0  0
  4  3  1  0  0  0  0
  5  6  1  0  0  0  0
  5 38  1  0  0  0  0
  5 39  1  0  0  0  0
  6  7  2  0  0  0  0
  6 11  1  0  0  0  0
  7  8  1  0  0  0  0
  7 40  1  0  0  0  0
  8  9  2  0  0  0  0
  8 41  1  0  0  0  0
  9 10  1  0  0  0  0
  9 12  1  0  0  0  0
 10 11  2  0  0  0  0
 10 42  1  0  0  0  0
 11 43  1  0  0  0  0
 12 13  1  0  0  0  0
 13 14  1  0  0  0  0
 13 44  1  0  0  0  0
 13 45  1  0  0  0  0
 14 15  1  0  0  0  0
 14 46  1  0  0  0  0
 14 47  1  0  0  0  0
 15 16  1  0  0  0  0
 15 24  1  0  0  0  0
 16 17  2  0  0  0  0
 16 21  1  0  0  0  0
 17 18  1  0  0  0  0
 17 48  1  0  0  0  0
 18 19  2  0  0  0  0
 18 49  1  0  0  0  0
 19 20  1  0  0  0  0
 19 50  1  0  0  0  0
 20 21  2  0  0  0  0
 20 51  1  0  0  0  0
 21 22  1  0  0  0  0
 22 23  1  0  0  0  0
 23 24  2  0  0  0  0
 23 28  1  0  0  0  0
 24 25  1  0  0  0  0
 25 26  2  0  0  0  0
 25 52  1  0  0  0  0
 26 27  1  0  0  0  0
 26 53  1  0  0  0  0
 27 28  2  0  0  0  0
 27 54  1  0  0  0  0
 28 55  1  0  0  0  0
 29 30  2  0  0  0  0
 29 31  1  0  0  0  0
 31 56  1  0  0  0  0
M  END
>  <DRUGBANK_ID>
DB06533

>  <COMMON_NAME>
Ragaglitazar

>  <CAS_NUMBER>
222834-30-2

>  <UNII>
Q5ELR5A7Y5

>  <SYNONYMS>
Ragaglitazar

$$$$
