
 OpenBabel10282417233D

 52 54  0  0  1  0  0  0  0  0999 V2000
    0.9428   -0.0347   -0.0679 C   0  0  0  0  0  0  0  0  0  0  0  0
    0.4646   -1.4544   -0.2389 C   0  0  0  0  0  0  0  0  0  0  0  0
   -0.8615   -1.7080   -0.6419 C   0  0  0  0  0  0  0  0  0  0  0  0
   -1.7527   -0.7022   -0.9086 O   0  0  0  0  0  0  0  0  0  0  0  0
   -1.3405   -3.0099   -0.7944 C   0  0  0  0  0  0  0  0  0  0  0  0
   -2.7600   -3.2848   -1.2214 C   0  0  0  0  0  0  0  0  0  0  0  0
   -0.4732   -4.0860   -0.5357 C   0  0  0  0  0  0  0  0  0  0  0  0
   -0.9907   -5.4772   -0.7099 C   0  0  0  0  0  0  0  0  0  0  0  0
    0.1606   -6.4336   -0.7266 C   0  0  0  0  0  0  0  0  0  0  0  0
    1.0554   -6.1917    0.4939 C   0  0  2  0  0  0  0  0  0  0  0  0
    0.3656   -6.0770    1.8781 C   0  0  0  0  0  0  0  0  0  0  0  0
    1.6927   -4.9102    0.2609 O   0  0  0  0  0  0  0  0  0  0  0  0
    0.8408   -3.8652   -0.0751 C   0  0  0  0  0  0  0  0  0  0  0  0
    1.3222   -2.5507    0.0605 C   0  0  0  0  0  0  0  0  0  0  0  0
    2.7334   -2.3011    0.5283 C   0  0  0  0  0  0  0  0  0  0  0  0
    2.0677   -7.3893    0.5789 C   0  0  0  0  0  0  0  0  0  0  0  0
    3.2890   -7.2447    0.4423 O   0  0  0  0  0  0  0  0  0  0  0  0
    1.5939   -8.6625    0.8354 N   0  0  0  0  0  0  0  0  0  0  0  0
    0.2030   -9.1247    0.8688 C   0  0  2  0  0  0  0  0  0  0  0  0
   -0.1070   -9.9870    2.0892 C   0  0  0  0  0  0  0  0  0  0  0  0
    0.3128  -11.4329    1.8713 C   0  0  0  0  0  0  0  0  0  0  0  0
   -0.1933  -11.9703    0.5319 C   0  0  0  0  0  0  0  0  0  0  0  0
    0.2837  -11.1512   -0.5774 N   0  0  0  0  0  0  0  0  0  0  0  0
   -0.2342   -9.7991   -0.4441 C   0  0  0  0  0  0  0  0  0  0  0  0
    0.5644    0.3723    0.8750 H   0  0  0  0  0  0  0  0  0  0  0  0
    0.6068    0.5921   -0.8996 H   0  0  0  0  0  0  0  0  0  0  0  0
    2.0311    0.0503   -0.0666 H   0  0  0  0  0  0  0  0  0  0  0  0
   -1.3403    0.1629   -0.7832 H   0  0  0  0  0  0  0  0  0  0  0  0
   -2.7651   -3.8491   -2.1598 H   0  0  0  0  0  0  0  0  0  0  0  0
   -3.2750   -3.8651   -0.4472 H   0  0  0  0  0  0  0  0  0  0  0  0
   -3.3438   -2.3787   -1.3921 H   0  0  0  0  0  0  0  0  0  0  0  0
   -1.5424   -5.5967   -1.6465 H   0  0  0  0  0  0  0  0  0  0  0  0
   -1.6742   -5.7239    0.1122 H   0  0  0  0  0  0  0  0  0  0  0  0
    0.7454   -6.3201   -1.6518 H   0  0  0  0  0  0  0  0  0  0  0  0
   -0.2888   -7.4072   -0.7943 H   0  0  0  0  0  0  0  0  0  0  0  0
   -0.1965   -6.9487    2.2046 H   0  0  0  0  0  0  0  0  0  0  0  0
    1.1155   -5.8987    2.6553 H   0  0  0  0  0  0  0  0  0  0  0  0
   -0.3371   -5.2424    1.9255 H   0  0  0  0  0  0  0  0  0  0  0  0
    3.2866   -1.7537   -0.2420 H   0  0  0  0  0  0  0  0  0  0  0  0
    2.7198   -1.7186    1.4558 H   0  0  0  0  0  0  0  0  0  0  0  0
    3.2925   -3.2185    0.7274 H   0  0  0  0  0  0  0  0  0  0  0  0
    2.3141   -9.3794    0.7964 H   0  0  0  0  0  0  0  0  0  0  0  0
   -0.4507   -8.2694    0.9643 H   0  0  0  0  0  0  0  0  0  0  0  0
    0.3522   -9.5766    2.9970 H   0  0  0  0  0  0  0  0  0  0  0  0
   -1.1934   -9.9594    2.2528 H   0  0  0  0  0  0  0  0  0  0  0  0
    1.4060  -11.4990    1.9112 H   0  0  0  0  0  0  0  0  0  0  0  0
   -0.0829  -12.0488    2.6856 H   0  0  0  0  0  0  0  0  0  0  0  0
    0.1667  -12.9911    0.3874 H   0  0  0  0  0  0  0  0  0  0  0  0
   -1.2904  -12.0016    0.5257 H   0  0  0  0  0  0  0  0  0  0  0  0
   -0.0466  -11.5347   -1.4629 H   0  0  0  0  0  0  0  0  0  0  0  0
   -1.3330   -9.8021   -0.4765 H   0  0  0  0  0  0  0  0  0  0  0  0
    0.1054   -9.2348   -1.3171 H   0  0  0  0  0  0  0  0  0  0  0  0
  1  2  1  0  0  0  0
  1 25  1  0  0  0  0
  1 26  1  0  0  0  0
  1 27  1  0  0  0  0
  2  3  2  0  0  0  0
  2 14  1  0  0  0  0
  3  4  1  0  0  0  0
  3  5  1  0  0  0  0
  4 28  1  0  0  0  0
  5  6  1  0  0  0  0
  5  7  2  0  0  0  0
  6 29  1  0  0  0  0
  6 30  1  0  0  0  0
  6 31  1  0  0  0  0
  7  8  1  0  0  0  0
  7 13  1  0  0  0  0
  8  9  1  0  0  0  0
  8 32  1  0  0  0  0
  8 33  1  0  0  0  0
  9 34  1  0  0  0  0
  9 35  1  0  0  0  0
 10  9  1  0  0  0  0
 10 11  1  0  0  0  0
 10 12  1  0  0  0  0
 10 16  1  1  0  0  0
 11 36  1  0  0  0  0
 11 37  1  0  0  0  0
 11 38  1  0  0  0  0
 12 13  1  0  0  0  0
 13 14  2  0  0  0  0
 14 15  1  0  0  0  0
 15 39  1  0  0  0  0
 15 40  1  0  0  0  0
 15 41  1  0  0  0  0
 16 17  2  0  0  0  0
 16 18  1  0  0  0  0
 18 42  1  0  0  0  0
 19 18  1  0  0  0  0
 19 20  1  0  0  0  0
 19 24  1  0  0  0  0
 19 43  1  1  0  0  0
 20 21  1  0  0  0  0
 20 44  1  0  0  0  0
 20 45  1  0  0  0  0
 21 22  1  0  0  0  0
 21 46  1  0  0  0  0
 21 47  1  0  0  0  0
 22 23  1  0  0  0  0
 22 48  1  0  0  0  0
 22 49  1  0  0  0  0
 23 24  1  0  0  0  0
 23 50  1  0  0  0  0
 24 51  1  0  0  0  0
 24 52  1  0  0  0  0
M  END
>  <DRUGBANK_ID>
DB16333

>  <COMMON_NAME>
Sonlicromanol

>  <CAS_NUMBER>
1541170-75-5

>  <UNII>
JCU3O35RDS

>  <SYNONYMS>
(S)-6-Hydroxy-2,5,7,8-Tetramethyl-N-((R)-Piperidin-3-Yl)Chroman-2-Carboxamide; KH-176; KH176; Sonlicromanol

$$$$
