LZ2
 OpenBabel10282417173D

 24 25  0  0  0  0  0  0  0  0999 V2000
    0.9597    0.1266   -0.0988 N   0  0  0  0  0  0  0  0  0  0  0  0
    0.3362    1.6062    0.3834 S   0  0  0  0  0  0  0  0  0  0  0  0
    0.9545    2.5556   -0.5085 O   0  0  0  0  0  0  0  0  0  0  0  0
   -1.1017    1.4408    0.4456 O   0  0  0  0  0  0  0  0  0  0  0  0
    0.9081    1.9477    2.0411 C   0  0  0  0  0  0  0  0  0  0  0  0
    0.8828    3.3095    2.4018 C   0  0  0  0  0  0  0  0  0  0  0  0
    1.2630    3.7090    3.6779 C   0  0  0  0  0  0  0  0  0  0  0  0
    1.6873    2.7560    4.5974 C   0  0  0  0  0  0  0  0  0  0  0  0
    1.7575    1.3894    4.2626 C   0  0  0  0  0  0  0  0  0  0  0  0
    2.2093    0.4386    5.2066 C   0  0  0  0  0  0  0  0  0  0  0  0
    2.5537    0.8599    6.4674 O   0  0  0  0  0  0  0  0  0  0  0  0
    2.3141   -0.9138    4.8940 C   0  0  0  0  0  0  0  0  0  0  0  0
    1.9315   -1.3435    3.6377 C   0  0  0  0  0  0  0  0  0  0  0  0
    1.4343   -0.4284    2.7142 C   0  0  0  0  0  0  0  0  0  0  0  0
    1.3588    0.9612    2.9645 C   0  0  0  0  0  0  0  0  0  0  0  0
    0.4832   -0.2256   -0.9294 H   0  0  0  0  0  0  0  0  0  0  0  0
    1.9761    0.1125   -0.1495 H   0  0  0  0  0  0  0  0  0  0  0  0
    0.5474    4.0662    1.6934 H   0  0  0  0  0  0  0  0  0  0  0  0
    1.2239    4.7568    3.9666 H   0  0  0  0  0  0  0  0  0  0  0  0
    1.9695    3.0856    5.5976 H   0  0  0  0  0  0  0  0  0  0  0  0
    2.7981    0.0905    7.0068 H   0  0  0  0  0  0  0  0  0  0  0  0
    2.6736   -1.6443    5.6099 H   0  0  0  0  0  0  0  0  0  0  0  0
    1.9917   -2.3915    3.3577 H   0  0  0  0  0  0  0  0  0  0  0  0
    1.0881   -0.8676    1.7910 H   0  0  0  0  0  0  0  0  0  0  0  0
  1  2  1  0  0  0  0
  1 16  1  0  0  0  0
  1 17  1  0  0  0  0
  2  3  2  0  0  0  0
  2  4  2  0  0  0  0
  2  5  1  0  0  0  0
  5  6  1  0  0  0  0
  5 15  2  0  0  0  0
  6  7  2  0  0  0  0
  6 18  1  0  0  0  0
  7  8  1  0  0  0  0
  7 19  1  0  0  0  0
  8  9  2  0  0  0  0
  8 20  1  0  0  0  0
  9 10  1  0  0  0  0
  9 15  1  0  0  0  0
 10 11  1  0  0  0  0
 10 12  2  0  0  0  0
 11 21  1  0  0  0  0
 12 13  1  0  0  0  0
 12 22  1  0  0  0  0
 13 14  2  0  0  0  0
 13 23  1  0  0  0  0
 14 15  1  0  0  0  0
 14 24  1  0  0  0  0
M  END
>  <DRUGBANK_ID>
DB08132

>  <COMMON_NAME>
5-hydroxynaphthalene-1-sulfonamide

>  <UNII>
5MS1N9V1FR

$$$$
