
 OpenBabel10282417243D

 48 53  0  0  1  0  0  0  0  0999 V2000
    2.4489   -0.0444   -0.0075 C   0  0  0  0  0  0  0  0  0  0  0  0
    0.9468   -0.0695    0.0398 C   0  0  0  0  0  0  0  0  0  0  0  0
    0.3510    1.1537   -0.0172 N   0  0  0  0  0  0  0  0  0  0  0  0
   -0.9997    1.2060   -0.0108 C   0  0  0  0  0  0  0  0  0  0  0  0
   -1.8124    0.0918   -0.0021 C   0  0  0  0  0  0  0  0  0  0  0  0
   -1.1996   -1.1491    0.0510 C   0  0  0  0  0  0  0  0  0  0  0  0
    0.2031   -1.2531    0.1048 C   0  0  0  0  0  0  0  0  0  0  0  0
    0.8013   -2.6011    0.1687 C   0  0  0  0  0  0  0  0  0  0  0  0
    0.3732   -3.4559   -0.7584 C   0  0  0  0  0  0  0  0  0  0  0  0
    0.9607   -4.7617   -0.9538 C   0  0  0  0  0  0  0  0  0  0  0  0
    0.3176   -5.6617   -1.7699 O   0  0  0  0  0  0  0  0  0  0  0  0
   -0.2500   -5.1033   -2.9267 C   0  0  0  0  0  0  0  0  0  0  0  0
    0.6781   -4.0439   -3.5478 C   0  0  2  0  0  0  0  0  0  0  0  0
   -0.0561   -2.8865   -4.1869 C   0  0  0  0  0  0  0  0  0  0  0  0
   -0.0892   -3.0629   -5.6129 O   0  0  0  0  0  0  0  0  0  0  0  0
    0.6861   -4.1725   -5.8470 C   0  0  0  0  0  0  0  0  0  0  0  0
    0.8442   -4.7484   -7.0723 C   0  0  0  0  0  0  0  0  0  0  0  0
    1.5938   -5.9270   -7.0603 C   0  0  0  0  0  0  0  0  0  0  0  0
    2.1613   -6.4896   -5.8260 C   0  0  0  0  0  0  0  0  0  0  0  0
    2.8463   -7.6311   -5.9893 F   0  0  0  0  0  0  0  0  0  0  0  0
    2.0000   -5.9036   -4.5278 C   0  0  0  0  0  0  0  0  0  0  0  0
    2.6510   -6.4049   -3.0398 C   0  0  0  0  0  0  0  0  0  0  0  0
    2.8568   -6.0522   -1.3475 N   0  0  0  0  0  0  0  0  0  0  0  0
    2.1581   -5.0501   -0.5144 C   0  0  0  0  0  0  0  0  0  0  0  0
    2.4982   -4.2779    0.7427 N   0  0  0  0  0  0  0  0  0  0  0  0
    3.2459   -4.4183    1.9082 C   0  0  0  0  0  0  0  0  0  0  0  0
    3.0912   -3.3943    2.7372 N   0  0  0  0  0  0  0  0  0  0  0  0
    2.1883   -2.5439    2.1967 N   0  0  0  0  0  0  0  0  0  0  0  0
    1.7836   -3.0771    1.0661 C   0  0  0  0  0  0  0  0  0  0  0  0
    1.2449   -4.7434   -4.6807 C   0  0  0  0  0  0  0  0  0  0  0  0
    2.7862    0.4994   -0.8958 H   0  0  0  0  0  0  0  0  0  0  0  0
    2.8355    0.4502    0.8877 H   0  0  0  0  0  0  0  0  0  0  0  0
    2.9032   -1.0346   -0.0695 H   0  0  0  0  0  0  0  0  0  0  0  0
   -1.4262    2.2044   -0.0097 H   0  0  0  0  0  0  0  0  0  0  0  0
   -2.8920    0.1801   -0.0169 H   0  0  0  0  0  0  0  0  0  0  0  0
   -1.8226   -2.0422    0.0554 H   0  0  0  0  0  0  0  0  0  0  0  0
   -0.3023   -3.0879   -1.5099 H   0  0  0  0  0  0  0  0  0  0  0  0
   -0.4135   -5.9762   -3.5756 H   0  0  0  0  0  0  0  0  0  0  0  0
   -1.2366   -4.7312   -2.6661 H   0  0  0  0  0  0  0  0  0  0  0  0
    1.5592   -3.6840   -3.0054 H   0  0  0  0  0  0  0  0  0  0  0  0
   -1.0753   -2.7949   -3.7944 H   0  0  0  0  0  0  0  0  0  0  0  0
    0.4592   -1.9514   -3.9308 H   0  0  0  0  0  0  0  0  0  0  0  0
    0.3894   -4.3262   -7.9692 H   0  0  0  0  0  0  0  0  0  0  0  0
    1.7394   -6.4241   -8.0237 H   0  0  0  0  0  0  0  0  0  0  0  0
    3.2256   -7.3195   -3.2287 H   0  0  0  0  0  0  0  0  0  0  0  0
    3.3206   -5.5682   -3.1827 H   0  0  0  0  0  0  0  0  0  0  0  0
    3.0291   -6.9148   -0.8211 H   0  0  0  0  0  0  0  0  0  0  0  0
    3.8206   -5.2787    2.2130 H   0  0  0  0  0  0  0  0  0  0  0  0
  1  2  1  0  0  0  0
  1 31  1  0  0  0  0
  1 32  1  0  0  0  0
  1 33  1  0  0  0  0
  2  3  2  0  0  0  0
  2  7  1  0  0  0  0
  3  4  1  0  0  0  0
  4  5  2  0  0  0  0
  4 34  1  0  0  0  0
  5  6  1  0  0  0  0
  5 35  1  0  0  0  0
  6  7  2  0  0  0  0
  6 36  1  0  0  0  0
  7  8  1  0  0  0  0
  8  9  2  0  0  0  0
  8 29  1  0  0  0  0
  9 10  1  0  0  0  0
  9 37  1  0  0  0  0
 10 11  1  0  0  0  0
 10 24  2  0  0  0  0
 11 12  1  0  0  0  0
 12 38  1  0  0  0  0
 12 39  1  0  0  0  0
 13 12  1  0  0  0  0
 13 14  1  0  0  0  0
 13 30  1  0  0  0  0
 13 40  1  1  0  0  0
 14 15  1  0  0  0  0
 14 41  1  0  0  0  0
 14 42  1  0  0  0  0
 15 16  1  0  0  0  0
 16 17  2  0  0  0  0
 16 30  1  0  0  0  0
 17 18  1  0  0  0  0
 17 43  1  0  0  0  0
 18 19  2  0  0  0  0
 18 44  1  0  0  0  0
 19 21  1  0  0  0  0
 19 20  1  0  0  0  0
 21 22  1  0  0  0  0
 21 30  2  0  0  0  0
 22 23  1  0  0  0  0
 22 45  1  0  0  0  0
 22 46  1  0  0  0  0
 23 24  1  0  0  0  0
 23 47  1  0  0  0  0
 24 25  1  0  0  0  0
 25 26  1  0  0  0  0
 25 29  1  0  0  0  0
 26 27  2  0  0  0  0
 26 48  1  0  0  0  0
 27 28  1  0  0  0  0
 28 29  2  0  0  0  0
M  END
>  <DRUGBANK_ID>
DB18070

>  <COMMON_NAME>
Pociredir

>  <CAS_NUMBER>
2490676-18-9

>  <UNII>
Q7VU9N2UO2

>  <SYNONYMS>
7h-furo(4,3,2-gh)(1,2,4)triazolo(4',3':1,6)pyrido(2,3-c)(5,2)benzoxazonine, 12-fluoro-7a,8,13,14-tetrahydro-4-(2-methyl-3-pyridinyl)-, (7as)-; Pociredir, (s)-

$$$$
