
 OpenBabel10282417203D

 54 58  0  0  0  0  0  0  0  0999 V2000
    2.4423   -0.0372    0.0556 C   0  0  0  0  0  0  0  0  0  0  0  0
   -3.4110    7.0810    6.4240 C   0  0  0  0  0  0  0  0  0  0  0  0
   -2.6258    8.2275    6.3038 C   0  0  0  0  0  0  0  0  0  0  0  0
   -3.7227    6.3222    5.2931 C   0  0  0  0  0  0  0  0  0  0  0  0
   -2.1459    8.6190    5.0536 C   0  0  0  0  0  0  0  0  0  0  0  0
   -7.8966    5.6189    2.1385 C   0  0  0  0  0  0  0  0  0  0  0  0
   -7.0789    4.5087    1.8692 C   0  0  0  0  0  0  0  0  0  0  0  0
    0.2930   -1.2045    0.2672 C   0  0  0  0  0  0  0  0  0  0  0  0
    0.3851    1.1515    0.2249 C   0  0  0  0  0  0  0  0  0  0  0  0
   -1.2388   -1.1982   -0.1122 C   0  0  0  0  0  0  0  0  0  0  0  0
   -1.0772    1.2274   -0.2075 C   0  0  0  0  0  0  0  0  0  0  0  0
   -5.9599    6.8883    2.8434 C   0  0  0  0  0  0  0  0  0  0  0  0
   -3.0623    4.8981    0.8020 C   0  0  0  0  0  0  0  0  0  0  0  0
   -3.2397    0.2496    0.8671 C   0  0  0  0  0  0  0  0  0  0  0  0
   -7.3373    6.7982    2.6407 C   0  0  0  0  0  0  0  0  0  0  0  0
   -3.2555    6.7248    4.0329 C   0  0  0  0  0  0  0  0  0  0  0  0
   -5.1355    5.7810    2.5544 C   0  0  0  0  0  0  0  0  0  0  0  0
   -2.4571    7.8731    3.9147 C   0  0  0  0  0  0  0  0  0  0  0  0
   -3.8546    1.4448    1.1333 C   0  0  0  0  0  0  0  0  0  0  0  0
   -5.6934    4.5600    2.0751 C   0  0  0  0  0  0  0  0  0  0  0  0
   -3.7152    3.5983    1.1086 C   0  0  0  0  0  0  0  0  0  0  0  0
   -3.6692    5.9582    2.8223 C   0  0  0  0  0  0  0  0  0  0  0  0
   -5.1401    2.0667    1.7786 C   0  0  0  0  0  0  0  0  0  0  0  0
   -1.9009    8.4859    2.3960 Cl  0  0  0  0  0  0  0  0  0  0  0  0
   -2.7232    5.5330    2.0601 N   0  0  0  0  0  0  0  0  0  0  0  0
   -3.1378    2.5249    0.7331 N   0  0  0  0  0  0  0  0  0  0  0  0
    1.0287   -0.0507   -0.3034 N   0  0  0  0  0  0  0  0  0  0  0  0
   -1.9002    0.0817    0.3030 N   0  0  0  0  0  0  0  0  0  0  0  0
   -4.8891    3.4476    1.7112 N   0  0  0  0  0  0  0  0  0  0  0  0
   -8.1995    7.9435    2.9688 N   0  0  0  0  0  0  0  0  0  0  0  0
   -6.0877    1.5037    2.2808 O   0  0  0  0  0  0  0  0  0  0  0  0
   -9.4149    7.8236    2.7661 O   0  0  0  0  0  0  0  0  0  0  0  0
   -7.6585    8.9548    3.4377 O   0  0  0  0  0  0  0  0  0  0  0  0
   -3.6940   -0.7129    1.0991 H   0  0  0  0  0  0  0  0  0  0  0  0
    2.9333    0.8495   -0.3686 H   0  0  0  0  0  0  0  0  0  0  0  0
    2.5991   -0.0208    1.1395 H   0  0  0  0  0  0  0  0  0  0  0  0
    2.9530   -0.9067   -0.3663 H   0  0  0  0  0  0  0  0  0  0  0  0
   -3.7822    6.7833    7.4027 H   0  0  0  0  0  0  0  0  0  0  0  0
   -2.3877    8.8221    7.1832 H   0  0  0  0  0  0  0  0  0  0  0  0
   -4.3281    5.4261    5.4070 H   0  0  0  0  0  0  0  0  0  0  0  0
   -1.5420    9.5192    4.9679 H   0  0  0  0  0  0  0  0  0  0  0  0
   -8.9661    5.5454    1.9464 H   0  0  0  0  0  0  0  0  0  0  0  0
   -7.5383    3.6213    1.4370 H   0  0  0  0  0  0  0  0  0  0  0  0
    0.7587   -2.1278   -0.0959 H   0  0  0  0  0  0  0  0  0  0  0  0
    0.3815   -1.1974    1.3618 H   0  0  0  0  0  0  0  0  0  0  0  0
    0.4342    1.1749    1.3242 H   0  0  0  0  0  0  0  0  0  0  0  0
    0.8889    2.0572   -0.1359 H   0  0  0  0  0  0  0  0  0  0  0  0
   -1.3001   -1.2970   -1.2072 H   0  0  0  0  0  0  0  0  0  0  0  0
   -1.7192   -2.0774    0.3265 H   0  0  0  0  0  0  0  0  0  0  0  0
   -1.1827    1.3016   -1.2961 H   0  0  0  0  0  0  0  0  0  0  0  0
   -1.3161    2.1932    0.2019 H   0  0  0  0  0  0  0  0  0  0  0  0
   -5.5289    7.8154    3.2221 H   0  0  0  0  0  0  0  0  0  0  0  0
   -3.6968    5.5093    0.1560 H   0  0  0  0  0  0  0  0  0  0  0  0
   -2.1348    4.6947    0.2505 H   0  0  0  0  0  0  0  0  0  0  0  0
  1 35  1  0  0  0  0
  1 36  1  0  0  0  0
  1 37  1  0  0  0  0
  2 38  1  0  0  0  0
  3  2  2  0  0  0  0
  3 39  1  0  0  0  0
  4  2  1  0  0  0  0
  4 40  1  0  0  0  0
  5  3  1  0  0  0  0
  5 41  1  0  0  0  0
  6 42  1  0  0  0  0
  7  6  2  0  0  0  0
  7 43  1  0  0  0  0
  8 44  1  0  0  0  0
  8 45  1  0  0  0  0
  9 46  1  0  0  0  0
  9 47  1  0  0  0  0
 10  8  1  0  0  0  0
 10 48  1  0  0  0  0
 10 49  1  0  0  0  0
 11  9  1  0  0  0  0
 11 50  1  0  0  0  0
 11 51  1  0  0  0  0
 12 52  1  0  0  0  0
 13 53  1  0  0  0  0
 13 54  1  0  0  0  0
 15  6  1  0  0  0  0
 15 12  2  0  0  0  0
 16  4  2  0  0  0  0
 17 12  1  0  0  0  0
 18  5  2  0  0  0  0
 18 16  1  0  0  0  0
 19 14  2  0  0  0  0
 20  7  1  0  0  0  0
 20 17  2  0  0  0  0
 21 13  1  0  0  0  0
 22 16  1  0  0  0  0
 22 17  1  0  0  0  0
 23 19  1  0  0  0  0
 24 18  1  0  0  0  0
 25 13  1  0  0  0  0
 25 22  2  0  0  0  0
 26 19  1  0  0  0  0
 26 21  2  0  0  0  0
 27  1  1  0  0  0  0
 27  8  1  0  0  0  0
 27  9  1  0  0  0  0
 28 10  1  0  0  0  0
 28 11  1  0  0  0  0
 28 14  1  0  0  0  0
 29 20  1  0  0  0  0
 29 21  1  0  0  0  0
 29 23  1  0  0  0  0
 30 15  1  0  0  0  0
 31 23  2  0  0  0  0
 32 30  2  0  0  0  0
 33 30  2  0  0  0  0
 34 14  1  0  0  0  0
M  END
>  <DRUGBANK_ID>
DB13643

>  <COMMON_NAME>
Loprazolam

>  <CAS_NUMBER>
61197-73-7

>  <UNII>
759N8462G8

>  <SYNONYMS>
Loprazolam; Triazulenone

$$$$
