SU9
 OpenBabel10282417133D

 29 31  0  0  0  0  0  0  0  0999 V2000
    1.0168    0.5425    0.0443 N   0  0  0  0  0  0  0  0  0  0  0  0
   -0.2692    1.0214    0.0423 C   0  0  0  0  0  0  0  0  0  0  0  0
   -1.1502    0.0512    0.0888 N   0  0  0  0  0  0  0  0  0  0  0  0
   -0.4074   -1.0975    0.0809 C   0  0  0  0  0  0  0  0  0  0  0  0
    0.9497   -0.8319    0.0567 C   0  0  0  0  0  0  0  0  0  0  0  0
    2.1000   -1.6644   -0.0338 C   0  0  0  0  0  0  0  0  0  0  0  0
    2.2398   -2.5472   -1.0439 C   0  0  0  0  0  0  0  0  0  0  0  0
    1.3266   -2.6014   -2.2547 C   0  0  0  0  0  0  0  0  0  0  0  0
    0.3453   -1.9346   -2.5260 O   0  0  0  0  0  0  0  0  0  0  0  0
    1.8545   -3.5711   -3.0723 N   0  0  0  0  0  0  0  0  0  0  0  0
    2.9846   -4.1472   -2.5215 C   0  0  0  0  0  0  0  0  0  0  0  0
    3.7334   -5.1463   -3.1077 C   0  0  0  0  0  0  0  0  0  0  0  0
    4.8155   -5.6358   -2.3816 C   0  0  0  0  0  0  0  0  0  0  0  0
    5.1077   -5.1325   -1.0958 C   0  0  0  0  0  0  0  0  0  0  0  0
    6.1754   -5.7417   -0.4845 O   0  0  0  0  0  0  0  0  0  0  0  0
    6.4899   -5.2914    0.8282 C   0  0  0  0  0  0  0  0  0  0  0  0
    4.3324   -4.0957   -0.5352 C   0  0  0  0  0  0  0  0  0  0  0  0
    3.2712   -3.5881   -1.2685 C   0  0  0  0  0  0  0  0  0  0  0  0
    1.8433    1.1192   -0.0191 H   0  0  0  0  0  0  0  0  0  0  0  0
   -0.5082    2.0765    0.0022 H   0  0  0  0  0  0  0  0  0  0  0  0
   -0.8762   -2.0717    0.0396 H   0  0  0  0  0  0  0  0  0  0  0  0
    2.8178   -1.6290    0.7821 H   0  0  0  0  0  0  0  0  0  0  0  0
    1.4295   -3.7996   -3.9562 H   0  0  0  0  0  0  0  0  0  0  0  0
    3.4894   -5.5361   -4.0896 H   0  0  0  0  0  0  0  0  0  0  0  0
    5.4322   -6.4230   -2.8138 H   0  0  0  0  0  0  0  0  0  0  0  0
    6.7771   -4.2349    0.8160 H   0  0  0  0  0  0  0  0  0  0  0  0
    5.6536   -5.4661    1.5137 H   0  0  0  0  0  0  0  0  0  0  0  0
    7.3460   -5.8648    1.1957 H   0  0  0  0  0  0  0  0  0  0  0  0
    4.5415   -3.7036    0.4510 H   0  0  0  0  0  0  0  0  0  0  0  0
  1  2  1  0  0  0  0
  1  5  1  0  0  0  0
  1 19  1  0  0  0  0
  2  3  2  0  0  0  0
  2 20  1  0  0  0  0
  3  4  1  0  0  0  0
  4  5  2  0  0  0  0
  4 21  1  0  0  0  0
  5  6  1  0  0  0  0
  6  7  2  0  0  0  0
  6 22  1  0  0  0  0
  7  8  1  0  0  0  0
  7 18  1  0  0  0  0
  8  9  2  0  0  0  0
  8 10  1  0  0  0  0
 10 11  1  0  0  0  0
 10 23  1  0  0  0  0
 11 12  2  0  0  0  0
 11 18  1  0  0  0  0
 12 13  1  0  0  0  0
 12 24  1  0  0  0  0
 13 14  2  0  0  0  0
 13 25  1  0  0  0  0
 14 15  1  0  0  0  0
 14 17  1  0  0  0  0
 15 16  1  0  0  0  0
 16 26  1  0  0  0  0
 16 27  1  0  0  0  0
 16 28  1  0  0  0  0
 17 18  2  0  0  0  0
 17 29  1  0  0  0  0
M  END
>  <DRUGBANK_ID>
DB03428

>  <SECONDARY_ACCESSION_NUMBERS>
EXPT02974

>  <COMMON_NAME>
SU9516

>  <UNII>
FD2SWT2SDI

$$$$
