
 OpenBabel10282417183D

 42 45  0  0  0  0  0  0  0  0999 V2000
    1.5465    1.2984    0.5665 O   0  0  0  0  0  0  0  0  0  0  0  0
   -0.6052   -0.1811   -4.9585 O   0  0  0  0  0  0  0  0  0  0  0  0
   -0.9790    1.0375    2.8177 C   0  0  1  0  0  0  0  0  0  0  0  0
   -1.7428    0.6689    1.2562 C   0  0  1  0  0  0  0  0  0  0  0  0
   -0.4419    2.3283    2.4289 C   0  0  1  0  0  0  0  0  0  0  0  0
   -1.4330    1.6378    0.0259 C   0  0  0  0  0  0  0  0  0  0  0  0
    0.7190    1.0021    1.6540 C   0  0  2  0  0  0  0  0  0  0  0  0
    0.7661    1.1100    3.4732 C   0  0  0  0  0  0  0  0  0  0  0  0
   -1.2285    1.1777   -1.2193 C   0  0  0  0  0  0  0  0  0  0  0  0
   -1.0757    3.3549    1.5754 C   0  0  0  0  0  0  0  0  0  0  0  0
   -1.6468   -0.8332    0.7821 C   0  0  0  0  0  0  0  0  0  0  0  0
   -1.3548    3.0484    0.3135 C   0  0  0  0  0  0  0  0  0  0  0  0
    1.3686    0.0887    2.6988 C   0  0  0  0  0  0  0  0  0  0  0  0
   -0.7441   -0.1857   -1.4521 C   0  0  0  0  0  0  0  0  0  0  0  0
   -0.5495    3.0385    3.9277 C   0  0  0  0  0  0  0  0  0  0  0  0
   -0.5487   -1.1142   -0.2798 C   0  0  0  0  0  0  0  0  0  0  0  0
   -1.6329    1.9752   -2.4429 C   0  0  0  0  0  0  0  0  0  0  0  0
   -0.4527   -0.6211   -2.6781 C   0  0  0  0  0  0  0  0  0  0  0  0
   -0.5768    0.2832   -3.8535 C   0  0  0  0  0  0  0  0  0  0  0  0
   -0.6480    1.7758   -3.5661 C   0  0  0  0  0  0  0  0  0  0  0  0
   -1.6144    0.7164    3.6443 H   0  0  0  0  0  0  0  0  0  0  0  0
   -2.8153    0.8723    1.4309 H   0  0  0  0  0  0  0  0  0  0  0  0
    1.9251    0.4379    0.2908 H   0  0  0  0  0  0  0  0  0  0  0  0
    0.1711    0.1409    1.3332 H   0  0  0  0  0  0  0  0  0  0  0  0
    0.9095    1.2015    4.5395 H   0  0  0  0  0  0  0  0  0  0  0  0
    1.4076    2.0436    3.1384 H   0  0  0  0  0  0  0  0  0  0  0  0
   -1.0582    4.3908    1.9033 H   0  0  0  0  0  0  0  0  0  0  0  0
   -2.5919   -1.1229    0.3015 H   0  0  0  0  0  0  0  0  0  0  0  0
   -1.5193   -1.4700    1.6585 H   0  0  0  0  0  0  0  0  0  0  0  0
   -1.2680    3.8662   -0.3969 H   0  0  0  0  0  0  0  0  0  0  0  0
    0.8802   -0.8147    3.0991 H   0  0  0  0  0  0  0  0  0  0  0  0
    2.4381   -0.0413    2.5737 H   0  0  0  0  0  0  0  0  0  0  0  0
    0.4065    3.4684    4.2326 H   0  0  0  0  0  0  0  0  0  0  0  0
   -1.2933    3.8450    3.9857 H   0  0  0  0  0  0  0  0  0  0  0  0
   -0.8975    2.3581    4.7342 H   0  0  0  0  0  0  0  0  0  0  0  0
   -0.5611   -2.1678   -0.5747 H   0  0  0  0  0  0  0  0  0  0  0  0
    0.4893   -1.0422    0.0785 H   0  0  0  0  0  0  0  0  0  0  0  0
   -1.8053    3.0427   -2.2687 H   0  0  0  0  0  0  0  0  0  0  0  0
   -2.6151    1.5769   -2.7425 H   0  0  0  0  0  0  0  0  0  0  0  0
   -0.1363   -1.6378   -2.8687 H   0  0  0  0  0  0  0  0  0  0  0  0
    0.3383    2.1631   -3.2936 H   0  0  0  0  0  0  0  0  0  0  0  0
   -0.9918    2.2899   -4.4688 H   0  0  0  0  0  0  0  0  0  0  0  0
  1 23  1  0  0  0  0
  2 19  2  0  0  0  0
  3  4  1  0  0  0  0
  3  5  1  0  0  0  0
  3  8  1  0  0  0  0
  3 21  1  6  0  0  0
  4  6  1  0  0  0  0
  4 11  1  0  0  0  0
  4 22  1  1  0  0  0
  5  7  1  0  0  0  0
  5 10  1  0  0  0  0
  5 15  1  1  0  0  0
  6  9  2  0  0  0  0
  6 12  1  0  0  0  0
  7  1  1  0  0  0  0
  7 13  1  0  0  0  0
  7 24  1  6  0  0  0
  8 13  1  0  0  0  0
  8 25  1  0  0  0  0
  8 26  1  0  0  0  0
  9 14  1  0  0  0  0
  9 17  1  0  0  0  0
 10 12  2  0  0  0  0
 10 27  1  0  0  0  0
 11 16  1  0  0  0  0
 11 28  1  0  0  0  0
 11 29  1  0  0  0  0
 12 30  1  0  0  0  0
 13 31  1  0  0  0  0
 13 32  1  0  0  0  0
 14 16  1  0  0  0  0
 14 18  2  0  0  0  0
 15 33  1  0  0  0  0
 15 34  1  0  0  0  0
 15 35  1  0  0  0  0
 16 36  1  0  0  0  0
 16 37  1  0  0  0  0
 17 20  1  0  0  0  0
 17 38  1  0  0  0  0
 17 39  1  0  0  0  0
 18 19  1  0  0  0  0
 18 40  1  0  0  0  0
 19 20  1  0  0  0  0
 20 41  1  0  0  0  0
 20 42  1  0  0  0  0
M  END
>  <DRUGBANK_ID>
DB11551

>  <COMMON_NAME>
Trenbolone

>  <CAS_NUMBER>
10161-33-8

>  <UNII>
P53R4420TR

>  <SYNONYMS>
17-b-Hydroxyestra-4,9,11-trien-3-one; 17-beta-Hydroxyestra-4,9,11-trien-3-one; 17-Î²-hydroxyestra-4,9,11-trien-3-one; Trenbolone

$$$$
