
 OpenBabel10282417213D

 23 21  0  0  0  0  0  0  0  0999 V2000
   -1.7913   -1.5367   -1.3145 C   0  0  1  0  0  0  0  0  0  0  0  0
   -1.3537   -0.3107   -0.4484 C   0  0  1  0  0  0  0  0  0  0  0  0
   -0.6087   -2.3995   -1.8260 C   0  0  1  0  0  0  0  0  0  0  0  0
   -0.9406   -0.7126    0.9926 C   0  0  2  0  0  0  0  0  0  0  0  0
    0.8789   -2.2467   -1.3442 C   0  0  0  0  0  0  0  0  0  0  0  0
    0.4704   -1.1917    1.4376 C   0  0  0  0  0  0  0  0  0  0  0  0
   -2.8434   -2.3285   -0.7214 O   0  0  0  0  0  0  0  0  0  0  0  0
   -0.3868    0.5473   -1.1115 O   0  0  0  0  0  0  0  0  0  0  0  0
   -1.0141   -3.7764   -1.9004 O   0  0  0  0  0  0  0  0  0  0  0  0
   -1.8373   -1.7625    1.3919 O   0  0  0  0  0  0  0  0  0  0  0  0
    1.5453   -3.2674   -1.0757 O   0  0  0  0  0  0  0  0  0  0  0  0
    1.3158   -1.0248   -1.3312 O   0  5  0  0  0  0  0  0  0  0  0  0
    1.3559   -0.2791    1.4521 O   0  0  0  0  0  0  0  0  0  0  0  0
    0.5689   -2.4341    1.6387 O   0  5  0  0  0  0  0  0  0  0  0  0
    1.8984    0.7074   -0.2215 Ca  0  2  0  0  0  0  0  0  0  0  0  0
   -2.2954   -1.1464   -2.2084 H   0  0  0  0  0  0  0  0  0  0  0  0
   -2.2404    0.3298   -0.3416 H   0  0  0  0  0  0  0  0  0  0  0  0
   -0.4774   -2.0785   -2.8666 H   0  0  0  0  0  0  0  0  0  0  0  0
   -1.1090    0.1626    1.6281 H   0  0  0  0  0  0  0  0  0  0  0  0
   -2.8417   -2.2143    0.2540 H   0  0  0  0  0  0  0  0  0  0  0  0
    0.0301   -0.0619   -1.7782 H   0  0  0  0  0  0  0  0  0  0  0  0
   -0.9734   -4.1086   -0.9831 H   0  0  0  0  0  0  0  0  0  0  0  0
   -1.2875   -2.5753    1.1982 H   0  0  0  0  0  0  0  0  0  0  0  0
  1  7  1  0  0  0  0
  1 16  1  6  0  0  0
  1  3  1  0  0  0  0
  1  2  1  0  0  0  0
  2  8  1  0  0  0  0
  2 17  1  1  0  0  0
  3  5  1  0  0  0  0
  3  9  1  0  0  0  0
  3 18  1  6  0  0  0
  4 10  1  0  0  0  0
  4 19  1  1  0  0  0
  4  6  1  0  0  0  0
  4  2  1  0  0  0  0
  7 20  1  0  0  0  0
  8 21  1  0  0  0  0
  9 22  1  0  0  0  0
 10 23  1  0  0  0  0
 11  5  2  0  0  0  0
 12  5  1  0  0  0  0
 13  6  2  0  0  0  0
 14  6  1  0  0  0  0
M  CHG  3  12  -1  14  -1  15   2
M  END
>  <DRUGBANK_ID>
DB13962

>  <COMMON_NAME>
Calcium saccharate

>  <CAS_NUMBER>
5793-88-4

>  <UNII>
SST07NLK7J

>  <SYNONYMS>
Calcii saccharas; Calcium D-glucarate; Calcium D-saccharate; Calcium glucarate; Calcium saccharate; Sacarato calcico; Saccharate de calcium; Saccharated lime

$$$$
