1502
 OpenBabel10282417113D

 52 53  0  0  1  0  0  0  0  0999 V2000
    0.8665    0.0118    0.1231 O   0  0  0  0  0  0  0  0  0  0  0  0
    5.3301   -2.4398   -2.7149 N   0  0  0  0  0  0  0  0  0  0  0  0
    2.7418   -0.4802   -1.1444 N   0  0  0  0  0  0  0  0  0  0  0  0
    5.2363   -1.8325   -1.3523 C   0  0  3  0  0  0  0  0  0  0  0  0
    4.3395   -0.4535   -1.2221 C   0  0  0  0  0  0  0  0  0  0  0  0
    5.1793   -3.9112   -2.8238 C   0  0  0  0  0  0  0  0  0  0  0  0
    6.7392   -1.6610   -1.1529 C   0  0  0  0  0  0  0  0  0  0  0  0
    4.3557   -4.7346   -1.7681 C   0  0  0  0  0  0  0  0  0  0  0  0
    4.2134   -1.9415   -3.3924 C   0  0  0  0  0  0  0  0  0  0  0  0
    1.8101   -0.6617   -2.4191 C   0  0  0  0  0  0  0  0  0  0  0  0
    2.8204   -4.7888   -1.6260 C   0  0  0  0  0  0  0  0  0  0  0  0
    2.0717   -0.0193    0.0311 C   0  0  0  0  0  0  0  0  0  0  0  0
    2.8866    0.4013    1.2870 C   0  0  0  0  0  0  0  0  0  0  0  0
    0.8549    0.2474   -2.8314 C   0  0  0  0  0  0  0  0  0  0  0  0
    1.7451   -1.7992   -3.2824 C   0  0  0  0  0  0  0  0  0  0  0  0
    2.1321   -5.9796   -1.8690 C   0  0  0  0  0  0  0  0  0  0  0  0
    2.0060   -3.7529   -1.1403 C   0  0  0  0  0  0  0  0  0  0  0  0
    2.5624    1.8382    1.6751 C   0  0  0  0  0  0  0  0  0  0  0  0
    0.1160    0.0372   -4.0545 C   0  0  0  0  0  0  0  0  0  0  0  0
    1.2902   -1.9173   -4.5884 C   0  0  0  0  0  0  0  0  0  0  0  0
    0.7229   -6.0550   -1.8079 C   0  0  0  0  0  0  0  0  0  0  0  0
    0.5945   -3.7567   -1.2745 C   0  0  0  0  0  0  0  0  0  0  0  0
    0.3734   -1.0077   -4.9560 C   0  0  0  0  0  0  0  0  0  0  0  0
   -0.0543   -4.9186   -1.6239 C   0  0  0  0  0  0  0  0  0  0  0  0
    4.8407   -2.4979   -0.5795 H   0  0  0  0  0  0  0  0  0  0  0  0
    4.6273    0.3010   -1.9644 H   0  0  0  0  0  0  0  0  0  0  0  0
    4.7361   -0.0047   -0.3113 H   0  0  0  0  0  0  0  0  0  0  0  0
    4.8080   -4.1630   -3.8344 H   0  0  0  0  0  0  0  0  0  0  0  0
    6.2124   -4.2780   -2.8647 H   0  0  0  0  0  0  0  0  0  0  0  0
    7.0117   -1.2992   -0.1653 H   0  0  0  0  0  0  0  0  0  0  0  0
    7.2340   -2.6385   -1.2889 H   0  0  0  0  0  0  0  0  0  0  0  0
    7.1506   -0.9925   -1.9209 H   0  0  0  0  0  0  0  0  0  0  0  0
    4.6718   -5.7598   -1.9970 H   0  0  0  0  0  0  0  0  0  0  0  0
    4.7663   -4.5200   -0.7825 H   0  0  0  0  0  0  0  0  0  0  0  0
    3.5736   -2.2794   -2.5948 H   0  0  0  0  0  0  0  0  0  0  0  0
    4.1239   -0.8640   -3.5113 H   0  0  0  0  0  0  0  0  0  0  0  0
    3.9402   -2.4221   -4.3254 H   0  0  0  0  0  0  0  0  0  0  0  0
    2.5980   -0.2713    2.1048 H   0  0  0  0  0  0  0  0  0  0  0  0
    3.9650    0.3147    1.2403 H   0  0  0  0  0  0  0  0  0  0  0  0
    0.6244    1.1166   -2.2273 H   0  0  0  0  0  0  0  0  0  0  0  0
    2.0915   -2.7925   -3.0578 H   0  0  0  0  0  0  0  0  0  0  0  0
    2.6907   -6.8885   -2.0690 H   0  0  0  0  0  0  0  0  0  0  0  0
    2.4363   -2.8202   -0.8064 H   0  0  0  0  0  0  0  0  0  0  0  0
    1.4959    1.9606    1.8863 H   0  0  0  0  0  0  0  0  0  0  0  0
    3.1191    2.1345    2.5723 H   0  0  0  0  0  0  0  0  0  0  0  0
    2.8314    2.5266    0.8677 H   0  0  0  0  0  0  0  0  0  0  0  0
   -0.6934    0.7064   -4.3144 H   0  0  0  0  0  0  0  0  0  0  0  0
    1.6074   -2.7732   -5.1879 H   0  0  0  0  0  0  0  0  0  0  0  0
    0.2298   -7.0162   -1.9032 H   0  0  0  0  0  0  0  0  0  0  0  0
    0.0260   -2.8270   -1.1714 H   0  0  0  0  0  0  0  0  0  0  0  0
   -0.1667   -1.1964   -5.8755 H   0  0  0  0  0  0  0  0  0  0  0  0
   -1.1389   -4.9376   -1.7039 H   0  0  0  0  0  0  0  0  0  0  0  0
  1 12  2  0  0  0  0
  2  4  1  0  0  0  0
  2  6  1  0  0  0  0
  2  9  1  0  0  0  0
  3  5  1  0  0  0  0
  3 10  1  0  0  0  0
  3 12  1  0  0  0  0
  4  5  1  0  0  0  0
  4  7  1  0  0  0  0
  4 25  1  0  0  0  0
  5 26  1  0  0  0  0
  5 27  1  0  0  0  0
  6  8  1  0  0  0  0
  6 28  1  0  0  0  0
  6 29  1  0  0  0  0
  7 30  1  0  0  0  0
  7 31  1  0  0  0  0
  7 32  1  0  0  0  0
  8 11  1  0  0  0  0
  8 33  1  0  0  0  0
  8 34  1  0  0  0  0
  9 35  1  0  0  0  0
  9 36  1  0  0  0  0
  9 37  1  0  0  0  0
 10 14  2  0  0  0  0
 10 15  1  0  0  0  0
 11 16  2  0  0  0  0
 11 17  1  0  0  0  0
 12 13  1  0  0  0  0
 13 18  1  0  0  0  0
 13 38  1  0  0  0  0
 13 39  1  0  0  0  0
 14 19  1  0  0  0  0
 14 40  1  0  0  0  0
 15 20  2  0  0  0  0
 15 41  1  0  0  0  0
 16 21  1  0  0  0  0
 16 42  1  0  0  0  0
 17 22  2  0  0  0  0
 17 43  1  0  0  0  0
 18 44  1  0  0  0  0
 18 45  1  0  0  0  0
 18 46  1  0  0  0  0
 19 23  2  0  0  0  0
 19 47  1  0  0  0  0
 20 23  1  0  0  0  0
 20 48  1  0  0  0  0
 21 24  2  0  0  0  0
 21 49  1  0  0  0  0
 22 24  1  0  0  0  0
 22 50  1  0  0  0  0
 23 51  1  0  0  0  0
 24 52  1  0  0  0  0
M  END
>  <DRUGBANK_ID>
DB01502

>  <COMMON_NAME>
Diampromide

>  <CAS_NUMBER>
552-25-0

>  <UNII>
26G7YC77BU

>  <SYNONYMS>
Diampromide

$$$$
