
 OpenBabel10282417243D

 46 47  0  0  0  0  0  0  0  0999 V2000
    0.9046   -0.0043   -0.0802 C   0  0  0  0  0  0  0  0  0  0  0  0
    0.3091   -0.4046    1.1732 N   0  0  0  0  0  0  0  0  0  0  0  0
   -0.5142    0.3426    1.9771 C   0  0  0  0  0  0  0  0  0  0  0  0
   -0.9589   -0.1374    3.0129 O   0  0  0  0  0  0  0  0  0  0  0  0
   -0.7523    1.8029    1.5923 C   0  0  0  0  0  0  0  0  0  0  0  0
    0.4108    2.5892    1.3475 O   0  0  0  0  0  0  0  0  0  0  0  0
    1.2435    2.7794    2.4104 C   0  0  0  0  0  0  0  0  0  0  0  0
    1.6716    1.8037    3.3019 C   0  0  0  0  0  0  0  0  0  0  0  0
    2.5472    2.1023    4.3469 C   0  0  0  0  0  0  0  0  0  0  0  0
    2.9637    0.7660    5.3721 Cl  0  0  0  0  0  0  0  0  0  0  0  0
    2.9961    3.4138    4.5556 C   0  0  0  0  0  0  0  0  0  0  0  0
    4.0022    3.7124    5.6536 C   0  0  0  0  0  0  0  0  0  0  0  0
    5.3833    4.0963    5.1558 C   0  0  0  0  0  0  0  0  0  0  0  0
    5.5970    5.2765    4.4428 C   0  0  0  0  0  0  0  0  0  0  0  0
    6.8260    5.6397    3.9150 C   0  0  0  0  0  0  0  0  0  0  0  0
    7.9234    4.8552    4.1874 C   0  0  0  0  0  0  0  0  0  0  0  0
    9.1499    5.2432    3.7346 O   0  0  0  0  0  0  0  0  0  0  0  0
    7.7839    3.6893    4.9458 C   0  0  0  0  0  0  0  0  0  0  0  0
    6.5028    3.3065    5.4100 C   0  0  0  0  0  0  0  0  0  0  0  0
    8.9908    2.8417    5.2727 C   0  0  0  0  0  0  0  0  0  0  0  0
    9.1968    2.7787    6.7850 C   0  0  0  0  0  0  0  0  0  0  0  0
    8.8286    1.4546    4.6580 C   0  0  0  0  0  0  0  0  0  0  0  0
    2.4715    4.4001    3.6853 C   0  0  0  0  0  0  0  0  0  0  0  0
    2.4939    6.1046    3.9929 Cl  0  0  0  0  0  0  0  0  0  0  0  0
    1.7022    4.0687    2.5696 C   0  0  0  0  0  0  0  0  0  0  0  0
    0.5954    0.9919   -0.3954 H   0  0  0  0  0  0  0  0  0  0  0  0
    0.5838   -0.7202   -0.8379 H   0  0  0  0  0  0  0  0  0  0  0  0
    1.9923   -0.0327    0.0208 H   0  0  0  0  0  0  0  0  0  0  0  0
    0.5473   -1.3118    1.5577 H   0  0  0  0  0  0  0  0  0  0  0  0
   -1.3362    1.7920    0.6644 H   0  0  0  0  0  0  0  0  0  0  0  0
   -1.3822    2.2901    2.3464 H   0  0  0  0  0  0  0  0  0  0  0  0
    1.3737    0.7697    3.2187 H   0  0  0  0  0  0  0  0  0  0  0  0
    3.6071    4.4790    6.3269 H   0  0  0  0  0  0  0  0  0  0  0  0
    4.1251    2.8386    6.3073 H   0  0  0  0  0  0  0  0  0  0  0  0
    4.8111    5.9859    4.2867 H   0  0  0  0  0  0  0  0  0  0  0  0
    6.8848    6.5465    3.3241 H   0  0  0  0  0  0  0  0  0  0  0  0
    9.0530    6.0928    3.2739 H   0  0  0  0  0  0  0  0  0  0  0  0
    6.3944    2.3924    5.9934 H   0  0  0  0  0  0  0  0  0  0  0  0
    9.8929    3.2902    4.8398 H   0  0  0  0  0  0  0  0  0  0  0  0
    8.3526    2.3004    7.2930 H   0  0  0  0  0  0  0  0  0  0  0  0
   10.0987    2.2096    7.0244 H   0  0  0  0  0  0  0  0  0  0  0  0
    9.3045    3.7863    7.2047 H   0  0  0  0  0  0  0  0  0  0  0  0
    8.6740    1.5283    3.5748 H   0  0  0  0  0  0  0  0  0  0  0  0
    9.7202    0.8493    4.8384 H   0  0  0  0  0  0  0  0  0  0  0  0
    7.9684    0.9215    5.0767 H   0  0  0  0  0  0  0  0  0  0  0  0
    1.3952    4.8396    1.8664 H   0  0  0  0  0  0  0  0  0  0  0  0
  1  2  1  0  0  0  0
  1 26  1  0  0  0  0
  1 27  1  0  0  0  0
  1 28  1  0  0  0  0
  2  3  1  0  0  0  0
  2 29  1  0  0  0  0
  3  4  2  0  0  0  0
  3  5  1  0  0  0  0
  5  6  1  0  0  0  0
  5 30  1  0  0  0  0
  5 31  1  0  0  0  0
  6  7  1  0  0  0  0
  7  8  2  0  0  0  0
  7 25  1  0  0  0  0
  8  9  1  0  0  0  0
  8 32  1  0  0  0  0
  9 10  1  0  0  0  0
  9 11  2  0  0  0  0
 11 12  1  0  0  0  0
 11 23  1  0  0  0  0
 12 13  1  0  0  0  0
 12 33  1  0  0  0  0
 12 34  1  0  0  0  0
 13 14  2  0  0  0  0
 13 19  1  0  0  0  0
 14 15  1  0  0  0  0
 14 35  1  0  0  0  0
 15 16  2  0  0  0  0
 15 36  1  0  0  0  0
 16 17  1  0  0  0  0
 16 18  1  0  0  0  0
 17 37  1  0  0  0  0
 18 19  2  0  0  0  0
 18 20  1  0  0  0  0
 19 38  1  0  0  0  0
 20 21  1  0  0  0  0
 20 22  1  0  0  0  0
 20 39  1  0  0  0  0
 21 40  1  0  0  0  0
 21 41  1  0  0  0  0
 21 42  1  0  0  0  0
 22 43  1  0  0  0  0
 22 44  1  0  0  0  0
 22 45  1  0  0  0  0
 23 24  1  0  0  0  0
 23 25  2  0  0  0  0
 25 46  1  0  0  0  0
M  END
>  <DRUGBANK_ID>
DB18157

>  <COMMON_NAME>
ABX-002

>  <CAS_NUMBER>
2156649-32-8

>  <UNII>
QTW4WC4BRX

>  <SYNONYMS>
2-(3,5-DICHLORO-4-((4-HYDROXY-3-(PROPAN-2-YL)PHENYL)METHYL)PHENOXY)-N-METHYLACETAMIDE

$$$$
