
 OpenBabel10282417143D

 31 30  0  0  1  0  0  0  0  0999 V2000
    0.9993    0.3046   -0.1000 C   0  0  0  0  0  0  0  0  0  0  0  0
    0.5638   -0.5121   -1.3077 C   0  0  0  0  0  0  0  0  0  0  0  0
    1.0591   -1.9400   -1.1829 C   0  0  0  0  0  0  0  0  0  0  0  0
    0.5243   -2.5758    0.0865 C   0  0  0  0  0  0  0  0  0  0  0  0
   -1.0232   -2.7030    0.0769 C   0  0  0  0  0  0  0  0  0  0  0  0
   -1.5558   -3.5531   -1.1021 C   0  0  0  0  0  0  0  0  0  0  0  0
   -0.9458   -5.2762   -1.0153 P   0  0  1  0  0  0  0  0  0  0  0  0
   -0.2803   -5.0617   -2.4769 O   0  0  0  0  0  0  0  0  0  0  0  0
   -0.1805   -5.0364    0.2643 O   0  0  0  0  0  0  0  0  0  0  0  0
   -0.3691   -6.9052   -0.9332 O   0  0  0  0  0  0  0  0  0  0  0  0
    1.0725   -7.0368   -0.7851 C   0  0  0  0  0  0  0  0  0  0  0  0
    1.8980   -6.3497   -1.8742 C   0  0  0  0  0  0  0  0  0  0  0  0
    0.5690   -0.0727    0.8340 H   0  0  0  0  0  0  0  0  0  0  0  0
    0.6704    1.3380   -0.1963 H   0  0  0  0  0  0  0  0  0  0  0  0
    2.0888    0.2728    0.0004 H   0  0  0  0  0  0  0  0  0  0  0  0
   -0.5281   -0.4930   -1.3971 H   0  0  0  0  0  0  0  0  0  0  0  0
    0.9584   -0.0767   -2.2282 H   0  0  0  0  0  0  0  0  0  0  0  0
    0.7685   -2.5290   -2.0608 H   0  0  0  0  0  0  0  0  0  0  0  0
    2.1547   -1.9703   -1.1623 H   0  0  0  0  0  0  0  0  0  0  0  0
    1.0863   -3.5058    0.1760 H   0  0  0  0  0  0  0  0  0  0  0  0
    0.8295   -2.0576    0.9994 H   0  0  0  0  0  0  0  0  0  0  0  0
   -1.3540   -3.1554    1.0235 H   0  0  0  0  0  0  0  0  0  0  0  0
   -1.4972   -1.7178    0.0660 H   0  0  0  0  0  0  0  0  0  0  0  0
   -2.6477   -3.6094   -1.0223 H   0  0  0  0  0  0  0  0  0  0  0  0
   -1.3497   -3.0639   -2.0591 H   0  0  0  0  0  0  0  0  0  0  0  0
   -0.7904   -5.5203   -3.1867 H   0  0  0  0  0  0  0  0  0  0  0  0
    1.3829   -6.6572    0.1948 H   0  0  0  0  0  0  0  0  0  0  0  0
    1.3023   -8.1045   -0.7857 H   0  0  0  0  0  0  0  0  0  0  0  0
    1.7824   -5.2599   -1.8514 H   0  0  0  0  0  0  0  0  0  0  0  0
    2.9683   -6.5202   -1.7451 H   0  0  0  0  0  0  0  0  0  0  0  0
    1.5954   -6.7020   -2.8664 H   0  0  0  0  0  0  0  0  0  0  0  0
  1  2  1  0  0  0  0
  1 13  1  0  0  0  0
  1 14  1  0  0  0  0
  1 15  1  0  0  0  0
  2  3  1  0  0  0  0
  2 16  1  0  0  0  0
  2 17  1  0  0  0  0
  3  4  1  0  0  0  0
  3 18  1  0  0  0  0
  3 19  1  0  0  0  0
  4  5  1  0  0  0  0
  4 20  1  0  0  0  0
  4 21  1  0  0  0  0
  5  6  1  0  0  0  0
  5 22  1  0  0  0  0
  5 23  1  0  0  0  0
  6  7  1  0  0  0  0
  6 24  1  0  0  0  0
  6 25  1  0  0  0  0
  7  8  1  0  0  0  0
  7  9  2  1  0  0  0
  7 10  1  0  0  0  0
  8 26  1  0  0  0  0
 10 11  1  0  0  0  0
 11 12  1  0  0  0  0
 11 27  1  0  0  0  0
 11 28  1  0  0  0  0
 12 29  1  0  0  0  0
 12 30  1  0  0  0  0
 12 31  1  0  0  0  0
M  END
>  <DRUGBANK_ID>
DB04321

>  <SECONDARY_ACCESSION_NUMBERS>
EXPT01724

>  <COMMON_NAME>
N-Hexylphosphonate Ethyl Ester

>  <UNII>
94B7PG7ZRX

$$$$
