
 OpenBabel10282417163D

 37 38  0  0  1  0  0  0  0  0999 V2000
    0.9755    0.0832   -0.1323 S   0  0  0  0  0  0  0  0  0  0  0  0
   -0.7799   -4.4511    0.7521 O   0  0  0  0  0  0  0  0  0  0  0  0
   -2.1656   -1.7606    0.5967 O   0  0  0  0  0  0  0  0  0  0  0  0
   -2.2772   -3.6589   -1.2589 O   0  0  0  0  0  0  0  0  0  0  0  0
    1.8039   -3.4789    1.2307 N   0  0  0  0  0  0  0  0  0  0  0  0
    1.0581   -2.8877    0.1067 C   0  0  2  0  0  0  0  0  0  0  0  0
    0.2778   -1.5646    0.3823 C   0  0  2  0  0  0  0  0  0  0  0  0
   -0.0452   -3.8863   -0.3467 C   0  0  2  0  0  0  0  0  0  0  0  0
   -1.0821   -1.7128   -0.3485 C   0  0  1  0  0  0  0  0  0  0  0  0
   -1.0056   -3.0192   -1.1453 C   0  0  2  0  0  0  0  0  0  0  0  0
    2.4132   -2.5309    2.1441 C   0  0  0  0  0  0  0  0  0  0  0  0
    2.7723   -0.0793   -0.0776 C   0  0  0  0  0  0  0  0  0  0  0  0
    2.9696   -3.1211    3.4093 C   0  0  0  0  0  0  0  0  0  0  0  0
    3.1273   -2.2623    4.5094 C   0  0  0  0  0  0  0  0  0  0  0  0
    3.3406   -4.4615    3.5238 C   0  0  0  0  0  0  0  0  0  0  0  0
    3.6088   -2.7497    5.7222 C   0  0  0  0  0  0  0  0  0  0  0  0
    3.7888   -4.9548    4.7486 C   0  0  0  0  0  0  0  0  0  0  0  0
    3.9289   -4.0984    5.8371 C   0  0  0  0  0  0  0  0  0  0  0  0
    0.0517   -1.4741    1.4488 H   0  0  0  0  0  0  0  0  0  0  0  0
    2.4936   -4.1457    0.8912 H   0  0  0  0  0  0  0  0  0  0  0  0
   -1.4222   -5.0610    0.3373 H   0  0  0  0  0  0  0  0  0  0  0  0
   -1.9187   -2.3899    1.3026 H   0  0  0  0  0  0  0  0  0  0  0  0
   -2.7551   -3.4303   -0.4338 H   0  0  0  0  0  0  0  0  0  0  0  0
    1.7467   -2.7420   -0.7348 H   0  0  0  0  0  0  0  0  0  0  0  0
    0.3567   -4.7158   -0.9401 H   0  0  0  0  0  0  0  0  0  0  0  0
   -1.3042   -0.8878   -1.0326 H   0  0  0  0  0  0  0  0  0  0  0  0
   -0.6015   -2.8304   -2.1449 H   0  0  0  0  0  0  0  0  0  0  0  0
    3.2267   -2.0116    1.6448 H   0  0  0  0  0  0  0  0  0  0  0  0
    1.6643   -1.8144    2.4886 H   0  0  0  0  0  0  0  0  0  0  0  0
    3.1942    0.8489   -0.4777 H   0  0  0  0  0  0  0  0  0  0  0  0
    3.1463   -0.1529    0.9433 H   0  0  0  0  0  0  0  0  0  0  0  0
    3.1331   -0.8983   -0.7023 H   0  0  0  0  0  0  0  0  0  0  0  0
    2.8526   -1.2119    4.4322 H   0  0  0  0  0  0  0  0  0  0  0  0
    3.2559   -5.1403    2.6828 H   0  0  0  0  0  0  0  0  0  0  0  0
    3.7101   -2.0806    6.5698 H   0  0  0  0  0  0  0  0  0  0  0  0
    4.0082   -6.0129    4.8460 H   0  0  0  0  0  0  0  0  0  0  0  0
    4.2859   -4.4885    6.7873 H   0  0  0  0  0  0  0  0  0  0  0  0
  1  7  1  0  0  0  0
  1 12  1  0  0  0  0
  2 21  1  0  0  0  0
  3 22  1  0  0  0  0
  4 23  1  0  0  0  0
  5 11  1  0  0  0  0
  5 20  1  0  0  0  0
  6  7  1  0  0  0  0
  6  8  1  0  0  0  0
  6 24  1  6  0  0  0
  6  5  1  0  0  0  0
  7  9  1  0  0  0  0
  7 19  1  1  0  0  0
  8 10  1  0  0  0  0
  8 25  1  6  0  0  0
  8  2  1  0  0  0  0
  9  3  1  0  0  0  0
  9 10  1  0  0  0  0
  9 26  1  6  0  0  0
 10  4  1  0  0  0  0
 10 27  1  6  0  0  0
 11 13  1  0  0  0  0
 11 28  1  0  0  0  0
 11 29  1  0  0  0  0
 12 30  1  0  0  0  0
 12 31  1  0  0  0  0
 12 32  1  0  0  0  0
 13 14  2  0  0  0  0
 13 15  1  0  0  0  0
 14 16  1  0  0  0  0
 14 33  1  0  0  0  0
 15 17  2  0  0  0  0
 15 34  1  0  0  0  0
 16 18  2  0  0  0  0
 16 35  1  0  0  0  0
 17 18  1  0  0  0  0
 17 36  1  0  0  0  0
 18 37  1  0  0  0  0
M  END
>  <DRUGBANK_ID>
DB06984

>  <COMMON_NAME>
(1R,2R,3R,4S,5R)-4-(Benzylamino)-5-(methylthio)cyclopentane-1,2,3-triol

>  <SYNONYMS>
Benzylation of mannostatin A, 1b

$$$$
