
 OpenBabel10282417183D

 64 64  0  0  0  0  0  0  0  0999 V2000
    1.4218    0.1743    0.6119 C   0  0  0  0  0  0  0  0  0  0  0  0
    0.8526    1.3482    0.2047 C   0  0  0  0  0  0  0  0  0  0  0  0
   -0.5373    1.4865    0.3197 C   0  0  0  0  0  0  0  0  0  0  0  0
   -1.3312    0.3860    0.7492 C   0  0  0  0  0  0  0  0  0  0  0  0
   -0.7621   -0.8485    1.0606 C   0  0  0  0  0  0  0  0  0  0  0  0
    0.6271   -0.8723    1.1142 C   0  0  0  0  0  0  0  0  0  0  0  0
   -1.4604   -2.0418    1.0323 O   0  0  0  0  0  0  0  0  0  0  0  0
   -0.9941   -3.3913    0.5497 C   0  0  0  0  0  0  0  0  0  0  0  0
   -0.2554   -3.8386   -0.8486 C   0  0  0  0  0  0  0  0  0  0  0  0
    0.8908   -2.9644   -1.3371 N   0  3  0  0  0  0  0  0  0  0  0  0
    0.3292   -1.5681   -1.7103 C   0  0  0  0  0  0  0  0  0  0  0  0
    1.9602   -3.2084   -0.2171 C   0  0  0  0  0  0  0  0  0  0  0  0
    1.6769   -3.3156   -2.5869 C   0  0  0  0  0  0  0  0  0  0  0  0
   -0.6446   -1.3861   -2.8997 C   0  0  0  0  0  0  0  0  0  0  0  0
   -1.9528   -2.1937   -2.8895 C   0  0  0  0  0  0  0  0  0  0  0  0
   -2.7954   -1.9538   -1.6434 C   0  0  0  0  0  0  0  0  0  0  0  0
   -3.3340   -0.5429   -1.5555 C   0  0  0  0  0  0  0  0  0  0  0  0
   -4.2976   -0.3564   -2.6929 C   0  0  0  0  0  0  0  0  0  0  0  0
   -5.4106   -1.3969   -2.5355 C   0  0  0  0  0  0  0  0  0  0  0  0
   -6.1590   -1.1632   -1.2137 C   0  0  0  0  0  0  0  0  0  0  0  0
   -6.7167    0.2633   -1.1977 C   0  0  0  0  0  0  0  0  0  0  0  0
   -7.6183    0.4812   -2.4192 C   0  0  0  0  0  0  0  0  0  0  0  0
   -8.7668   -0.5290   -2.4368 C   0  0  0  0  0  0  0  0  0  0  0  0
   -9.6196   -0.3683   -1.1902 C   0  0  0  0  0  0  0  0  0  0  0  0
    2.4844   -0.0207    0.4357 H   0  0  0  0  0  0  0  0  0  0  0  0
    1.4669    2.1447   -0.2211 H   0  0  0  0  0  0  0  0  0  0  0  0
   -0.9928    2.4210    0.0126 H   0  0  0  0  0  0  0  0  0  0  0  0
   -2.4140    0.5318    0.7024 H   0  0  0  0  0  0  0  0  0  0  0  0
    1.0595   -1.7886    1.3605 H   0  0  0  0  0  0  0  0  0  0  0  0
   -0.4868   -3.8829    1.3796 H   0  0  0  0  0  0  0  0  0  0  0  0
   -1.9451   -3.9484    0.4552 H   0  0  0  0  0  0  0  0  0  0  0  0
    0.1730   -4.8414   -0.6967 H   0  0  0  0  0  0  0  0  0  0  0  0
   -0.9241   -4.0309   -1.6747 H   0  0  0  0  0  0  0  0  0  0  0  0
   -0.3167   -1.3009   -0.9284 H   0  0  0  0  0  0  0  0  0  0  0  0
    1.1611   -0.8650   -1.7852 H   0  0  0  0  0  0  0  0  0  0  0  0
    2.4137   -4.1943   -0.3858 H   0  0  0  0  0  0  0  0  0  0  0  0
    2.7095   -2.4195   -0.2115 H   0  0  0  0  0  0  0  0  0  0  0  0
    1.4973   -3.3749    0.7587 H   0  0  0  0  0  0  0  0  0  0  0  0
    1.0412   -3.2350   -3.4647 H   0  0  0  0  0  0  0  0  0  0  0  0
    2.4866   -2.5683   -2.6496 H   0  0  0  0  0  0  0  0  0  0  0  0
    2.1006   -4.3126   -2.4921 H   0  0  0  0  0  0  0  0  0  0  0  0
   -0.9341   -0.3225   -2.8676 H   0  0  0  0  0  0  0  0  0  0  0  0
   -0.1446   -1.4920   -3.8611 H   0  0  0  0  0  0  0  0  0  0  0  0
   -2.5326   -1.9574   -3.7810 H   0  0  0  0  0  0  0  0  0  0  0  0
   -1.7715   -3.2545   -3.0278 H   0  0  0  0  0  0  0  0  0  0  0  0
   -3.5416   -2.7393   -1.4790 H   0  0  0  0  0  0  0  0  0  0  0  0
   -2.2049   -2.0706   -0.7847 H   0  0  0  0  0  0  0  0  0  0  0  0
   -3.8097   -0.3764   -0.5809 H   0  0  0  0  0  0  0  0  0  0  0  0
   -2.5436    0.2052   -1.6118 H   0  0  0  0  0  0  0  0  0  0  0  0
   -4.6499    0.6767   -2.7008 H   0  0  0  0  0  0  0  0  0  0  0  0
   -3.7878   -0.4627   -3.6501 H   0  0  0  0  0  0  0  0  0  0  0  0
   -6.0573   -1.3621   -3.4119 H   0  0  0  0  0  0  0  0  0  0  0  0
   -5.0469   -2.4274   -2.5621 H   0  0  0  0  0  0  0  0  0  0  0  0
   -6.9399   -1.9192   -1.0961 H   0  0  0  0  0  0  0  0  0  0  0  0
   -5.5303   -1.3231   -0.3296 H   0  0  0  0  0  0  0  0  0  0  0  0
   -7.2429    0.4516   -0.2595 H   0  0  0  0  0  0  0  0  0  0  0  0
   -5.9144    1.0097   -1.1910 H   0  0  0  0  0  0  0  0  0  0  0  0
   -7.9979    1.5056   -2.4219 H   0  0  0  0  0  0  0  0  0  0  0  0
   -7.0471    0.3946   -3.3523 H   0  0  0  0  0  0  0  0  0  0  0  0
   -9.3682   -0.3865   -3.3379 H   0  0  0  0  0  0  0  0  0  0  0  0
   -8.3963   -1.5601   -2.4977 H   0  0  0  0  0  0  0  0  0  0  0  0
  -10.0137    0.6507   -1.1447 H   0  0  0  0  0  0  0  0  0  0  0  0
  -10.4450   -1.0798   -1.1909 H   0  0  0  0  0  0  0  0  0  0  0  0
   -9.0485   -0.5487   -0.2732 H   0  0  0  0  0  0  0  0  0  0  0  0
  1  2  2  0  0  0  0
  1 25  1  0  0  0  0
  2  3  1  0  0  0  0
  2 26  1  0  0  0  0
  3  4  2  0  0  0  0
  3 27  1  0  0  0  0
  4  5  1  0  0  0  0
  4 28  1  0  0  0  0
  5  6  2  0  0  0  0
  5  7  1  0  0  0  0
  6  1  1  0  0  0  0
  6 29  1  0  0  0  0
  7  8  1  0  0  0  0
  8  9  1  0  0  0  0
  8 30  1  0  0  0  0
  8 31  1  0  0  0  0
  9 10  1  0  0  0  0
  9 32  1  0  0  0  0
  9 33  1  0  0  0  0
 10 12  1  0  0  0  0
 10 13  1  0  0  0  0
 10 11  1  0  0  0  0
 11 14  1  0  0  0  0
 11 34  1  0  0  0  0
 11 35  1  0  0  0  0
 12 36  1  0  0  0  0
 12 37  1  0  0  0  0
 12 38  1  0  0  0  0
 13 39  1  0  0  0  0
 13 40  1  0  0  0  0
 13 41  1  0  0  0  0
 14 15  1  0  0  0  0
 14 42  1  0  0  0  0
 14 43  1  0  0  0  0
 15 16  1  0  0  0  0
 15 44  1  0  0  0  0
 15 45  1  0  0  0  0
 16 17  1  0  0  0  0
 16 46  1  0  0  0  0
 16 47  1  0  0  0  0
 17 18  1  0  0  0  0
 17 48  1  0  0  0  0
 17 49  1  0  0  0  0
 18 19  1  0  0  0  0
 18 50  1  0  0  0  0
 18 51  1  0  0  0  0
 19 20  1  0  0  0  0
 19 52  1  0  0  0  0
 19 53  1  0  0  0  0
 20 21  1  0  0  0  0
 20 54  1  0  0  0  0
 20 55  1  0  0  0  0
 21 22  1  0  0  0  0
 21 56  1  0  0  0  0
 21 57  1  0  0  0  0
 22 23  1  0  0  0  0
 22 58  1  0  0  0  0
 22 59  1  0  0  0  0
 23 24  1  0  0  0  0
 23 60  1  0  0  0  0
 23 61  1  0  0  0  0
 24 62  1  0  0  0  0
 24 63  1  0  0  0  0
 24 64  1  0  0  0  0
M  CHG  1  10   1
M  END
>  <DRUGBANK_ID>
DB11594

>  <COMMON_NAME>
Domiphen

>  <CAS_NUMBER>
13900-14-6

>  <UNII>
4AZL56CU0F

>  <SYNONYMS>
(beta-phenoxyethyl)dimethyldodecylammonium; 1-dodecanaminium, n,n-dimethyl-n-(2-phenoxyethyl); Dodecyldimethyl(2-phenoxyethyl)ammonium; Domiphen cation; Domiphen ion; Phenododecinium

$$$$
