
 OpenBabel10282417103D

 57 60  0  0  0  0  0  0  0  0999 V2000
   -0.6085   -5.4065    1.4387 C   0  0  0  0  0  0  0  0  0  0  0  0
   -0.9019   -4.0791    0.7227 C   0  0  0  0  0  0  0  0  0  0  0  0
    0.2764   -3.4256    0.0791 C   0  0  0  0  0  0  0  0  0  0  0  0
    1.0261   -3.2226    1.1829 C   0  0  0  0  0  0  0  0  0  0  0  0
    1.5494   -4.4210    1.9457 C   0  0  2  0  0  0  0  0  0  0  0  0
    0.7252   -5.6464    1.4363 C   0  0  0  0  0  0  0  0  0  0  0  0
    1.2429   -1.8665    1.7596 C   0  0  0  0  0  0  0  0  0  0  0  0
    1.1513   -1.7288    3.3534 C   0  0  2  0  0  0  0  0  0  0  0  0
    2.0398   -2.8492    4.1248 C   0  0  2  0  0  0  0  0  0  0  0  0
    1.4298   -4.2508    3.5237 C   0  0  2  0  0  0  0  0  0  0  0  0
    2.7571   -2.6630    5.8779 C   0  0  1  0  0  0  0  0  0  0  0  0
    2.4860   -4.0382    6.0872 C   0  0  2  0  0  0  0  0  0  0  0  0
    1.7724   -5.2646    5.6482 C   0  0  0  0  0  0  0  0  0  0  0  0
    1.9488   -5.5047    4.1974 C   0  0  2  0  0  0  0  0  0  0  0  0
    3.7605   -3.6891    7.3558 C   0  0  0  0  0  0  0  0  0  0  0  0
    2.8206   -4.3946    8.3636 C   0  0  2  0  0  0  0  0  0  0  0  0
    1.9061   -3.5202    7.6785 C   0  0  2  0  0  0  0  0  0  0  0  0
   -1.9199   -3.4135    0.8667 O   0  0  0  0  0  0  0  0  0  0  0  0
    3.0038   -4.4568    1.4507 C   0  0  0  0  0  0  0  0  0  0  0  0
    2.9256   -2.6464    3.5378 H   0  0  0  0  0  0  0  0  0  0  0  0
    3.3044   -5.7866    3.9424 O   0  0  0  0  0  0  0  0  0  0  0  0
    4.2074   -3.8077    5.2617 C   0  0  0  0  0  0  0  0  0  0  0  0
    0.3524   -4.2338    3.7703 H   0  0  0  0  0  0  0  0  0  0  0  0
    2.1571   -1.8487    6.2542 H   0  0  0  0  0  0  0  0  0  0  0  0
    2.9397   -4.2481    9.8631 C   0  0  0  0  0  0  0  0  0  0  0  0
    0.4273   -3.5798    7.9347 C   0  0  0  0  0  0  0  0  0  0  0  0
   -0.0830   -4.8359    8.6000 C   0  0  0  0  0  0  0  0  0  0  0  0
   -0.3032   -2.6232    7.6857 O   0  0  0  0  0  0  0  0  0  0  0  0
    2.2310   -2.1499    8.2403 O   0  0  0  0  0  0  0  0  0  0  0  0
   -0.5988   -4.6020    9.8931 O   0  0  0  0  0  0  0  0  0  0  0  0
   -0.5781   -1.7483    3.8265 Cl  0  0  0  0  0  0  0  0  0  0  0  0
   -1.0535   -5.3864    2.4403 H   0  0  0  0  0  0  0  0  0  0  0  0
    0.0380   -2.6505   -0.6381 H   0  0  0  0  0  0  0  0  0  0  0  0
    1.0949   -5.9994    0.4609 H   0  0  0  0  0  0  0  0  0  0  0  0
    2.2399   -1.5811    1.4203 H   0  0  0  0  0  0  0  0  0  0  0  0
    0.5297   -1.1870    1.2666 H   0  0  0  0  0  0  0  0  0  0  0  0
    1.5111   -0.7236    3.5615 H   0  0  0  0  0  0  0  0  0  0  0  0
    2.1961   -6.1241    6.1816 H   0  0  0  0  0  0  0  0  0  0  0  0
    0.7034   -5.2358    5.8939 H   0  0  0  0  0  0  0  0  0  0  0  0
    1.4108   -6.4056    3.9007 H   0  0  0  0  0  0  0  0  0  0  0  0
    4.6600   -3.3006    7.8481 H   0  0  0  0  0  0  0  0  0  0  0  0
    4.2389   -4.6613    7.0330 H   0  0  0  0  0  0  0  0  0  0  0  0
    2.6800   -5.4637    8.1366 H   0  0  0  0  0  0  0  0  0  0  0  0
    3.5632   -5.3206    1.7944 H   0  0  0  0  0  0  0  0  0  0  0  0
    3.0777   -4.4919    0.3601 H   0  0  0  0  0  0  0  0  0  0  0  0
    3.5242   -3.5469    1.7706 H   0  0  0  0  0  0  0  0  0  0  0  0
    3.7013   -4.9745    3.5964 H   0  0  0  0  0  0  0  0  0  0  0  0
    4.2549   -3.4341    4.2431 H   0  0  0  0  0  0  0  0  0  0  0  0
    4.8058   -2.9624    5.7259 H   0  0  0  0  0  0  0  0  0  0  0  0
    4.8305   -4.6957    5.3259 H   0  0  0  0  0  0  0  0  0  0  0  0
    1.9592   -4.3543   10.3317 H   0  0  0  0  0  0  0  0  0  0  0  0
    3.5457   -5.0520   10.2911 H   0  0  0  0  0  0  0  0  0  0  0  0
    3.3449   -3.2880   10.1719 H   0  0  0  0  0  0  0  0  0  0  0  0
   -0.8439   -5.2502    7.9413 H   0  0  0  0  0  0  0  0  0  0  0  0
    0.6950   -5.5955    8.6817 H   0  0  0  0  0  0  0  0  0  0  0  0
    3.1870   -2.0190    8.4095 H   0  0  0  0  0  0  0  0  0  0  0  0
    0.0473   -4.0685   10.3905 H   0  0  0  0  0  0  0  0  0  0  0  0
  1  2  1  0  0  0  0
  1  6  2  0  0  0  0
  1 32  1  0  0  0  0
  2  3  1  0  0  0  0
  2 18  2  0  0  0  0
  3  4  2  0  0  0  0
  3 33  1  0  0  0  0
  4  5  1  0  0  0  0
  4  7  1  0  0  0  0
  5  6  1  0  0  0  0
  5 10  1  0  0  0  0
  5 19  1  6  0  0  0
  6 34  1  0  0  0  0
  7  8  1  0  0  0  0
  7 35  1  0  0  0  0
  7 36  1  0  0  0  0
  8  9  1  0  0  0  0
  8 37  1  1  0  0  0
  8 31  1  0  0  0  0
  9 10  1  0  0  0  0
  9 11  1  0  0  0  0
  9 20  1  6  0  0  0
 10 14  1  0  0  0  0
 10 23  1  1  0  0  0
 11 12  1  0  0  0  0
 11 15  1  0  0  0  0
 11 24  1  1  0  0  0
 12 13  1  0  0  0  0
 12 17  1  0  0  0  0
 12 22  1  1  0  0  0
 13 14  1  0  0  0  0
 13 38  1  0  0  0  0
 13 39  1  0  0  0  0
 14 21  1  0  0  0  0
 14 40  1  6  0  0  0
 15 16  1  0  0  0  0
 15 41  1  0  0  0  0
 15 42  1  0  0  0  0
 16 17  1  0  0  0  0
 16 25  1  0  0  0  0
 16 43  1  6  0  0  0
 17 29  1  1  0  0  0
 17 26  1  0  0  0  0
 19 44  1  0  0  0  0
 19 45  1  0  0  0  0
 19 46  1  0  0  0  0
 21 47  1  0  0  0  0
 22 48  1  0  0  0  0
 22 49  1  0  0  0  0
 22 50  1  0  0  0  0
 25 51  1  0  0  0  0
 25 52  1  0  0  0  0
 25 53  1  0  0  0  0
 26 27  1  0  0  0  0
 26 28  2  0  0  0  0
 27 30  1  0  0  0  0
 27 54  1  0  0  0  0
 27 55  1  0  0  0  0
 29 56  1  0  0  0  0
 30 57  1  0  0  0  0
M  END
>  <DRUGBANK_ID>
DB00240

>  <SECONDARY_ACCESSION_NUMBERS>
APRD00783

>  <COMMON_NAME>
Alclometasone

>  <CAS_NUMBER>
67452-97-5

>  <UNII>
136H45TB7B

>  <SYNONYMS>
(7alpha,11beta,16alpha)-7-chloro-11,17,21-trihydroxy-16-methylpregna-1,4-diene-3,20-dione; 7α-Chloro-16α-methylprednisolone; Alclometasone

$$$$
