
 OpenBabel10282417203D

 39 41  0  0  0  0  0  0  0  0999 V2000
    0.6452   -0.1876   -0.2224 C   0  0  0  0  0  0  0  0  0  0  0  0
   -1.1785    1.1232   -0.8735 C   0  0  0  0  0  0  0  0  0  0  0  0
    3.1561    1.8626    5.8171 C   0  0  0  0  0  0  0  0  0  0  0  0
    4.5320    1.8845    5.9122 C   0  0  0  0  0  0  0  0  0  0  0  0
    4.7944    1.0055   -1.6565 C   0  0  0  0  0  0  0  0  0  0  0  0
    0.5332    2.6545    1.2095 C   0  0  0  0  0  0  0  0  0  0  0  0
    2.5601    1.7172    4.5695 C   0  0  0  0  0  0  0  0  0  0  0  0
    5.2989    1.7507    4.7663 C   0  0  0  0  0  0  0  0  0  0  0  0
    5.4888    1.1389   -0.4704 C   0  0  0  0  0  0  0  0  0  0  0  0
    3.4396    1.0303   -1.5164 C   0  0  0  0  0  0  0  0  0  0  0  0
    0.7023    2.4421   -0.2733 C   0  0  0  0  0  0  0  0  0  0  0  0
    1.2195    1.6204    2.0784 C   0  0  0  0  0  0  0  0  0  0  0  0
    3.3095    1.6293    3.3679 C   0  0  0  0  0  0  0  0  0  0  0  0
    4.7103    1.6199    3.5079 C   0  0  0  0  0  0  0  0  0  0  0  0
    4.8512    1.3071    0.7925 C   0  0  0  0  0  0  0  0  0  0  0  0
    3.4644    1.3517    0.8758 C   0  0  0  0  0  0  0  0  0  0  0  0
    2.8733    1.1817   -0.3000 N   0  0  0  0  0  0  0  0  0  0  0  0
    0.2697    1.1198   -0.8329 N   0  0  0  0  0  0  0  0  0  0  0  0
    2.7206    1.5779    2.0744 N   0  0  0  0  0  0  0  0  0  0  0  0
    5.8915    1.4685    2.1906 S   0  0  0  0  0  0  0  0  0  0  0  0
    0.3841   -0.9934   -0.9155 H   0  0  0  0  0  0  0  0  0  0  0  0
    0.0899   -0.4065    0.6916 H   0  0  0  0  0  0  0  0  0  0  0  0
    1.6844   -0.4418    0.0044 H   0  0  0  0  0  0  0  0  0  0  0  0
   -1.5851    1.1808    0.1409 H   0  0  0  0  0  0  0  0  0  0  0  0
   -1.5271    1.9711   -1.4624 H   0  0  0  0  0  0  0  0  0  0  0  0
   -1.5319    0.2054   -1.3443 H   0  0  0  0  0  0  0  0  0  0  0  0
    2.5324    1.9613    6.7005 H   0  0  0  0  0  0  0  0  0  0  0  0
    5.0155    1.9984    6.8729 H   0  0  0  0  0  0  0  0  0  0  0  0
    5.2450    0.8889   -2.6269 H   0  0  0  0  0  0  0  0  0  0  0  0
    0.9003    3.6492    1.5010 H   0  0  0  0  0  0  0  0  0  0  0  0
   -0.5432    2.6811    1.4344 H   0  0  0  0  0  0  0  0  0  0  0  0
    1.4772    1.6820    4.6264 H   0  0  0  0  0  0  0  0  0  0  0  0
    6.3818    1.7593    4.8452 H   0  0  0  0  0  0  0  0  0  0  0  0
    6.5762    1.1222   -0.5245 H   0  0  0  0  0  0  0  0  0  0  0  0
    2.7496    0.9424   -2.3469 H   0  0  0  0  0  0  0  0  0  0  0  0
    1.7060    2.8050   -0.5238 H   0  0  0  0  0  0  0  0  0  0  0  0
    0.1607    3.2345   -0.8083 H   0  0  0  0  0  0  0  0  0  0  0  0
    0.8000    1.9453    3.0299 H   0  0  0  0  0  0  0  0  0  0  0  0
    0.8035    0.6163    2.0521 H   0  0  0  0  0  0  0  0  0  0  0  0
  1 21  1  0  0  0  0
  1 22  1  0  0  0  0
  1 23  1  0  0  0  0
  2 24  1  0  0  0  0
  2 25  1  0  0  0  0
  2 26  1  0  0  0  0
  3 27  1  0  0  0  0
  4  3  2  0  0  0  0
  4 28  1  0  0  0  0
  5 29  1  0  0  0  0
  6 30  1  0  0  0  0
  6 31  1  0  0  0  0
  7  3  1  0  0  0  0
  7 32  1  0  0  0  0
  8  4  1  0  0  0  0
  8 33  1  0  0  0  0
  9  5  2  0  0  0  0
  9 34  1  0  0  0  0
 10  5  1  0  0  0  0
 10 35  1  0  0  0  0
 11  6  1  0  0  0  0
 11 36  1  0  0  0  0
 11 37  1  0  0  0  0
 12  6  1  0  0  0  0
 12 38  1  0  0  0  0
 12 39  1  0  0  0  0
 13  7  2  0  0  0  0
 14  8  2  0  0  0  0
 14 13  1  0  0  0  0
 15  9  1  0  0  0  0
 16 15  2  0  0  0  0
 17 10  2  0  0  0  0
 17 16  1  0  0  0  0
 18  1  1  0  0  0  0
 18  2  1  0  0  0  0
 18 11  1  0  0  0  0
 19 12  1  0  0  0  0
 19 13  1  0  0  0  0
 19 16  1  0  0  0  0
 20 14  1  0  0  0  0
 20 15  1  0  0  0  0
M  END
>  <DRUGBANK_ID>
DB12958

>  <COMMON_NAME>
Prothipendyl

>  <CAS_NUMBER>
303-69-5

>  <UNII>
5O6VWA87VA

>  <SYNONYMS>
Prothipendyl; Prothipendylum; Protipendilo

$$$$
