
 OpenBabel10282417173D

 54 56  0  0  0  0  0  0  0  0999 V2000
    0.9347    0.0927    1.3886 C   0  0  0  0  0  0  0  0  0  0  0  0
    0.5018    1.3676    0.9984 C   0  0  0  0  0  0  0  0  0  0  0  0
   -0.8775    1.4078    0.7579 C   0  0  0  0  0  0  0  0  0  0  0  0
   -1.6806    0.2714    0.4932 C   0  0  0  0  0  0  0  0  0  0  0  0
   -1.1926   -0.9934    0.7199 C   0  0  0  0  0  0  0  0  0  0  0  0
    0.0393   -1.0483    1.3534 C   0  0  0  0  0  0  0  0  0  0  0  0
   -1.8599   -2.0469    0.1582 O   0  0  0  0  0  0  0  0  0  0  0  0
   -1.2168   -3.3317    0.0819 C   0  0  0  0  0  0  0  0  0  0  0  0
   -0.3601   -3.5741   -1.1886 C   0  0  0  0  0  0  0  0  0  0  0  0
    1.0692   -2.9743   -1.4722 C   0  0  0  0  0  0  0  0  0  0  0  0
    1.7005   -1.7812   -0.7707 C   0  0  0  0  0  0  0  0  0  0  0  0
    1.0663   -0.5014   -1.3234 C   0  0  0  0  0  0  0  0  0  0  0  0
    1.5909   -0.3158   -2.6280 N   0  0  0  0  0  0  0  0  0  0  0  0
    0.9264   -1.2259   -3.5179 C   0  0  0  0  0  0  0  0  0  0  0  0
    1.3156   -2.6638   -2.9914 C   0  0  0  0  0  0  0  0  0  0  0  0
    2.3480    0.8175   -2.8317 C   0  0  0  0  0  0  0  0  0  0  0  0
    3.5761    0.9175   -2.1721 C   0  0  0  0  0  0  0  0  0  0  0  0
    4.4877    1.9111   -2.4976 C   0  0  0  0  0  0  0  0  0  0  0  0
    4.0546    2.9537   -3.2839 C   0  0  0  0  0  0  0  0  0  0  0  0
    2.7979    2.9598   -3.7801 N   0  0  0  0  0  0  0  0  0  0  0  0
    1.9604    1.8506   -3.5998 N   0  0  0  0  0  0  0  0  0  0  0  0
    4.9854    4.0866   -3.5842 C   0  0  0  0  0  0  0  0  0  0  0  0
    1.5779    2.3917    0.4308 C   0  0  0  0  0  0  0  0  0  0  0  0
    1.2184    3.5007   -0.2982 O   0  0  0  0  0  0  0  0  0  0  0  0
   -0.1203    3.9712   -0.3991 C   0  0  0  0  0  0  0  0  0  0  0  0
   -0.8521    3.2401   -1.5276 C   0  0  0  0  0  0  0  0  0  0  0  0
    2.7626    2.1374    0.5159 O   0  0  0  0  0  0  0  0  0  0  0  0
    2.0177   -0.1095    1.3558 H   0  0  0  0  0  0  0  0  0  0  0  0
   -1.4157    2.3153    0.5876 H   0  0  0  0  0  0  0  0  0  0  0  0
   -2.6350    0.4281   -0.0083 H   0  0  0  0  0  0  0  0  0  0  0  0
    0.4349   -2.0419    1.5283 H   0  0  0  0  0  0  0  0  0  0  0  0
   -0.7138   -3.6136    1.0109 H   0  0  0  0  0  0  0  0  0  0  0  0
   -2.0472   -4.0639    0.0335 H   0  0  0  0  0  0  0  0  0  0  0  0
   -0.1845   -4.6674   -1.1770 H   0  0  0  0  0  0  0  0  0  0  0  0
   -1.0006   -3.4299   -2.0664 H   0  0  0  0  0  0  0  0  0  0  0  0
    1.7283   -3.7988   -1.1615 H   0  0  0  0  0  0  0  0  0  0  0  0
    1.7746   -1.9916    0.2879 H   0  0  0  0  0  0  0  0  0  0  0  0
    2.7768   -1.7422   -0.9833 H   0  0  0  0  0  0  0  0  0  0  0  0
   -0.0229   -0.5873   -1.4068 H   0  0  0  0  0  0  0  0  0  0  0  0
    1.2514    0.4285   -0.8412 H   0  0  0  0  0  0  0  0  0  0  0  0
    1.2343   -1.0606   -4.5466 H   0  0  0  0  0  0  0  0  0  0  0  0
   -0.1622   -1.0776   -3.4479 H   0  0  0  0  0  0  0  0  0  0  0  0
    2.4087   -2.7204   -3.0882 H   0  0  0  0  0  0  0  0  0  0  0  0
    0.8655   -3.4342   -3.6093 H   0  0  0  0  0  0  0  0  0  0  0  0
    3.8477    0.2162   -1.3907 H   0  0  0  0  0  0  0  0  0  0  0  0
    5.5045    1.8588   -2.1246 H   0  0  0  0  0  0  0  0  0  0  0  0
    5.3492    4.5345   -2.6520 H   0  0  0  0  0  0  0  0  0  0  0  0
    5.8498    3.7217   -4.1503 H   0  0  0  0  0  0  0  0  0  0  0  0
    4.4908    4.8660   -4.1683 H   0  0  0  0  0  0  0  0  0  0  0  0
   -0.5412    3.8991    0.6066 H   0  0  0  0  0  0  0  0  0  0  0  0
   -0.1435    5.0470   -0.5861 H   0  0  0  0  0  0  0  0  0  0  0  0
   -0.6047    2.1735   -1.5904 H   0  0  0  0  0  0  0  0  0  0  0  0
   -1.9371    3.3331   -1.4128 H   0  0  0  0  0  0  0  0  0  0  0  0
   -0.5582    3.6367   -2.5000 H   0  0  0  0  0  0  0  0  0  0  0  0
  1  2  2  0  0  0  0
  1 28  1  0  0  0  0
  2  3  1  0  0  0  0
  2 23  1  0  0  0  0
  3  4  2  0  0  0  0
  3 29  1  0  0  0  0
  4  5  1  0  0  0  0
  4 30  1  0  0  0  0
  5  6  2  0  0  0  0
  5  7  1  0  0  0  0
  6  1  1  0  0  0  0
  6 31  1  0  0  0  0
  7  8  1  0  0  0  0
  8  9  1  0  0  0  0
  8 32  1  0  0  0  0
  8 33  1  0  0  0  0
  9 10  1  0  0  0  0
  9 34  1  0  0  0  0
  9 35  1  0  0  0  0
 10 15  1  0  0  0  0
 10 11  1  0  0  0  0
 10 36  1  0  0  0  0
 11 12  1  0  0  0  0
 11 37  1  0  0  0  0
 11 38  1  0  0  0  0
 12 13  1  0  0  0  0
 12 39  1  0  0  0  0
 12 40  1  0  0  0  0
 13 14  1  0  0  0  0
 13 16  1  0  0  0  0
 14 15  1  0  0  0  0
 14 41  1  0  0  0  0
 14 42  1  0  0  0  0
 15 43  1  0  0  0  0
 15 44  1  0  0  0  0
 16 17  2  0  0  0  0
 17 18  1  0  0  0  0
 17 45  1  0  0  0  0
 18 19  2  0  0  0  0
 18 46  1  0  0  0  0
 19 20  1  0  0  0  0
 19 22  1  0  0  0  0
 20 21  2  0  0  0  0
 21 16  1  0  0  0  0
 22 47  1  0  0  0  0
 22 48  1  0  0  0  0
 22 49  1  0  0  0  0
 23 24  1  0  0  0  0
 23 27  2  0  0  0  0
 24 25  1  0  0  0  0
 25 26  1  0  0  0  0
 25 50  1  0  0  0  0
 25 51  1  0  0  0  0
 26 52  1  0  0  0  0
 26 53  1  0  0  0  0
 26 54  1  0  0  0  0
M  END
>  <DRUGBANK_ID>
DB08012

>  <COMMON_NAME>
Pirodavir

>  <CAS_NUMBER>
124436-59-5

>  <UNII>
BML697718K

>  <SYNONYMS>
Pirodavir; Pirodavirum

$$$$
