
 OpenBabel10282417233D

 23 23  0  0  0  0  0  0  0  0999 V2000
    0.6896    0.4763   -0.6188 C   0  0  0  0  0  0  0  0  0  0  0  0
   -0.3368   -0.0361   -0.2605 O   0  0  0  0  0  0  0  0  0  0  0  0
    2.2688    0.3916   -0.0654 C   0  0  0  0  0  0  0  0  0  0  0  0
    0.4714    1.0180   -1.8206 O   0  0  0  0  0  0  0  0  0  0  0  0
    1.3547    0.4979    2.7752 C   0  0  0  0  0  0  0  0  0  0  0  0
    0.2939   -0.2391    2.1087 C   0  0  0  0  0  0  0  0  0  0  0  0
    2.6624    0.3692    2.3600 C   0  0  0  0  0  0  0  0  0  0  0  0
    2.9595   -0.1505    1.1197 O   0  0  0  0  0  0  0  0  0  0  0  0
   -0.8056    0.2834    2.1105 O   0  0  0  0  0  0  0  0  0  0  0  0
    0.6454   -1.3926    1.3951 N   0  0  0  0  0  0  0  0  0  0  0  0
    0.9905    1.3287    3.8426 C   0  0  0  0  0  0  0  0  0  0  0  0
    3.6384    0.7107    3.3048 C   0  0  0  0  0  0  0  0  0  0  0  0
    1.9674    1.8647    4.6578 C   0  0  0  0  0  0  0  0  0  0  0  0
    3.2824    1.4539    4.4574 C   0  0  0  0  0  0  0  0  0  0  0  0
    2.6692   -0.2958   -0.8239 H   0  0  0  0  0  0  0  0  0  0  0  0
    2.7422    1.3605   -0.2511 H   0  0  0  0  0  0  0  0  0  0  0  0
   -0.4982    0.7537   -1.7862 H   0  0  0  0  0  0  0  0  0  0  0  0
    1.6212   -1.5512    1.1443 H   0  0  0  0  0  0  0  0  0  0  0  0
    0.0436   -1.4901    0.5688 H   0  0  0  0  0  0  0  0  0  0  0  0
   -0.0604    1.5402    4.0293 H   0  0  0  0  0  0  0  0  0  0  0  0
    4.6809    0.4293    3.1777 H   0  0  0  0  0  0  0  0  0  0  0  0
    1.6874    2.5445    5.4590 H   0  0  0  0  0  0  0  0  0  0  0  0
    4.0300    1.7430    5.1941 H   0  0  0  0  0  0  0  0  0  0  0  0
  1  3  1  0  0  0  0
  2  1  2  0  0  0  0
  3 15  1  0  0  0  0
  3 16  1  0  0  0  0
  4  1  1  0  0  0  0
  4 17  1  0  0  0  0
  6  5  1  0  0  0  0
  7  5  2  0  0  0  0
  8  7  1  0  0  0  0
  8  3  1  0  0  0  0
  9  6  2  0  0  0  0
 10  6  1  0  0  0  0
 10 18  1  0  0  0  0
 10 19  1  0  0  0  0
 11  5  1  0  0  0  0
 11 20  1  0  0  0  0
 12  7  1  0  0  0  0
 12 14  2  0  0  0  0
 12 21  1  0  0  0  0
 13 11  2  0  0  0  0
 13 22  1  0  0  0  0
 14 13  1  0  0  0  0
 14 23  1  0  0  0  0
M  END
>  <DRUGBANK_ID>
DB16000

>  <COMMON_NAME>
Salicylamide O-acetic acid

>  <CAS_NUMBER>
25395-22-6

>  <UNII>
5LB8V0RHJV

>  <SYNONYMS>
2-Carbamoylphenoxyacetic acid; Salamidacetic acid; Salicylamide-2-acetic acid

$$$$
