
 OpenBabel10282417103D

 23 23  0  0  0  0  0  0  0  0999 V2000
   -0.5931    1.2264   -0.0039 N   0  0  0  0  0  0  0  0  0  0  0  0
    0.7256   -1.2565   -0.0150 N   0  0  0  0  0  0  0  0  0  0  0  0
   -0.6300   -1.1975   -0.0104 C   0  0  0  0  0  0  0  0  0  0  0  0
   -1.3142   -2.4000   -0.0055 N   0  0  0  0  0  0  0  0  0  0  0  0
    1.4337   -0.0826    0.0052 C   0  0  0  0  0  0  0  0  0  0  0  0
    2.8033   -0.2776    0.1776 N   0  0  0  0  0  0  0  0  0  0  0  0
   -1.2622    0.0486   -0.0053 C   0  0  0  0  0  0  0  0  0  0  0  0
   -2.9824    0.1836   -0.0060 Cl  0  0  0  0  0  0  0  0  0  0  0  0
    0.7826    1.1655    0.0125 C   0  0  0  0  0  0  0  0  0  0  0  0
    2.8741    2.6709    0.0155 N   0  0  0  0  0  0  0  0  0  0  0  0
    4.9918    3.6670    0.0158 N   0  0  0  0  0  0  0  0  0  0  0  0
    3.6478    3.8091    0.0087 C   0  0  0  0  0  0  0  0  0  0  0  0
    3.1029    4.9725   -0.0002 N   0  0  0  0  0  0  0  0  0  0  0  0
    1.4637    2.5403    0.0152 C   0  0  0  0  0  0  0  0  0  0  0  0
    0.7105    3.5216   -0.0013 O   0  0  0  0  0  0  0  0  0  0  0  0
   -0.7801   -3.2559    0.0055 H   0  0  0  0  0  0  0  0  0  0  0  0
   -2.3259   -2.4294    0.0067 H   0  0  0  0  0  0  0  0  0  0  0  0
    3.4358    0.2985   -0.3401 H   0  0  0  0  0  0  0  0  0  0  0  0
    3.0201   -1.2620    0.0207 H   0  0  0  0  0  0  0  0  0  0  0  0
    3.4466    1.8648    0.1253 H   0  0  0  0  0  0  0  0  0  0  0  0
    5.5842    4.4886    0.0101 H   0  0  0  0  0  0  0  0  0  0  0  0
    5.4845    2.7846    0.0083 H   0  0  0  0  0  0  0  0  0  0  0  0
    3.7942    5.7153    0.0086 H   0  0  0  0  0  0  0  0  0  0  0  0
  1  7  1  0  0  0  0
  1  9  2  0  0  0  0
  2  5  2  0  0  0  0
  3  2  1  0  0  0  0
  3  4  1  0  0  0  0
  4 16  1  0  0  0  0
  4 17  1  0  0  0  0
  5  9  1  0  0  0  0
  5  6  1  0  0  0  0
  6 18  1  0  0  0  0
  6 19  1  0  0  0  0
  7  3  2  0  0  0  0
  7  8  1  0  0  0  0
  9 14  1  0  0  0  0
 10 12  1  0  0  0  0
 10 20  1  0  0  0  0
 11 21  1  0  0  0  0
 11 22  1  0  0  0  0
 12 11  1  0  0  0  0
 12 13  2  0  0  0  0
 13 23  1  0  0  0  0
 14 10  1  0  0  0  0
 14 15  2  0  0  0  0
M  END
>  <DRUGBANK_ID>
DB00594

>  <SECONDARY_ACCESSION_NUMBERS>
APRD00790; EXPT00514

>  <COMMON_NAME>
Amiloride

>  <CAS_NUMBER>
2609-46-3

>  <UNII>
7DZO8EB0Z3

>  <SYNONYMS>
3,5-diamino-N-carbamimidoyl-6-chloropyrazine-2-carboxamide; Amilorid; Amilorida; Amiloride; Amiloridum; Amipramidin; Amipramidine; Amyloride; N-amidino-3,5-diamino-6-chloropyrazinecarboxamide

$$$$
