
 OpenBabel10282417223D

 51 54  0  0  1  0  0  0  0  0999 V2000
    0.8756   -0.0551    0.0620 C   0  0  0  0  0  0  0  0  0  0  0  0
    0.3999    1.3661   -0.3017 C   0  0  0  0  0  0  0  0  0  0  0  0
    0.8622    1.6339   -1.7636 C   0  0  0  0  0  0  0  0  0  0  0  0
   -1.0691    1.4714   -0.1762 N   0  0  0  0  0  0  0  0  0  0  0  0
   -1.8874    2.2758    0.6161 C   0  0  0  0  0  0  0  0  0  0  0  0
   -3.0861    2.2639    0.4441 O   0  0  0  0  0  0  0  0  0  0  0  0
   -1.2605    3.0181    1.5945 O   0  0  0  0  0  0  0  0  0  0  0  0
   -2.0359    3.9098    2.4693 C   0  0  2  0  0  0  0  0  0  0  0  0
   -2.2720    5.3009    1.8601 C   0  0  0  0  0  0  0  0  0  0  0  0
   -1.6941    6.4479    2.6732 N   0  0  3  0  0  0  0  0  0  0  0  0
   -0.3060    6.3072    3.1739 C   0  0  0  0  0  0  0  0  0  0  0  0
   -0.0073    4.9073    3.6161 C   0  0  0  0  0  0  0  0  0  0  0  0
   -1.3108    4.1659    3.8256 C   0  0  3  0  0  0  0  0  0  0  0  0
   -2.1567    5.1417    4.6789 C   0  0  0  0  0  0  0  0  0  0  0  0
   -2.4053    6.4890    3.9497 C   0  0  0  0  0  0  0  0  0  0  0  0
    1.0701    2.4350    0.5080 C   0  0  0  0  0  0  0  0  0  0  0  0
    1.8440    2.3042    1.6429 C   0  0  0  0  0  0  0  0  0  0  0  0
    2.6550    3.8192    1.8921 S   0  0  0  0  0  0  0  0  0  0  0  0
    1.5996    4.6175    0.7162 C   0  0  0  0  0  0  0  0  0  0  0  0
    0.8854    3.7436    0.0496 N   0  0  0  0  0  0  0  0  0  0  0  0
    1.3977    6.1184    0.5890 C   0  0  0  0  0  0  0  0  0  0  0  0
    0.1124    6.6519    0.2602 C   0  0  0  0  0  0  0  0  0  0  0  0
   -0.3273    7.9717    0.6017 C   0  0  0  0  0  0  0  0  0  0  0  0
    0.5904    8.8481    1.1332 C   0  0  0  0  0  0  0  0  0  0  0  0
    0.1960   10.0468    1.5933 F   0  0  0  0  0  0  0  0  0  0  0  0
    1.8968    8.4037    1.3467 C   0  0  0  0  0  0  0  0  0  0  0  0
    2.2882    7.0530    1.1158 C   0  0  0  0  0  0  0  0  0  0  0  0
    0.5044   -0.8073   -0.6458 H   0  0  0  0  0  0  0  0  0  0  0  0
    0.5378   -0.3499    1.0609 H   0  0  0  0  0  0  0  0  0  0  0  0
    1.9726   -0.1187    0.0507 H   0  0  0  0  0  0  0  0  0  0  0  0
    0.5053    0.8845   -2.4730 H   0  0  0  0  0  0  0  0  0  0  0  0
    0.5219    2.6145   -2.1198 H   0  0  0  0  0  0  0  0  0  0  0  0
    1.9627    1.6510   -1.8140 H   0  0  0  0  0  0  0  0  0  0  0  0
   -1.6055    0.9132   -0.8292 H   0  0  0  0  0  0  0  0  0  0  0  0
   -2.9993    3.4343    2.6612 H   0  0  0  0  0  0  0  0  0  0  0  0
   -2.0368    5.2352    0.7997 H   0  0  0  0  0  0  0  0  0  0  0  0
   -3.3479    5.5094    1.7700 H   0  0  0  0  0  0  0  0  0  0  0  0
    0.4416    6.5681    2.4848 H   0  0  0  0  0  0  0  0  0  0  0  0
   -0.0364    7.0649    3.9314 H   0  0  0  0  0  0  0  0  0  0  0  0
    0.4787    4.3917    2.8213 H   0  0  0  0  0  0  0  0  0  0  0  0
    0.6750    4.9238    4.4732 H   0  0  0  0  0  0  0  0  0  0  0  0
   -1.0718    3.2139    4.2998 H   0  0  0  0  0  0  0  0  0  0  0  0
   -3.1102    4.6802    4.9124 H   0  0  0  0  0  0  0  0  0  0  0  0
   -1.5938    5.3487    5.5972 H   0  0  0  0  0  0  0  0  0  0  0  0
   -2.0035    7.3326    4.5362 H   0  0  0  0  0  0  0  0  0  0  0  0
   -3.4563    6.7282    3.7913 H   0  0  0  0  0  0  0  0  0  0  0  0
    2.0254    1.3943    2.2177 H   0  0  0  0  0  0  0  0  0  0  0  0
   -0.6564    5.9353    0.0362 H   0  0  0  0  0  0  0  0  0  0  0  0
   -1.3939    8.2121    0.7185 H   0  0  0  0  0  0  0  0  0  0  0  0
    2.5865    9.0862    1.8257 H   0  0  0  0  0  0  0  0  0  0  0  0
    3.2350    6.7070    1.5130 H   0  0  0  0  0  0  0  0  0  0  0  0
  1  2  1  0  0  0  0
  1 28  1  0  0  0  0
  1 29  1  0  0  0  0
  1 30  1  0  0  0  0
  2  3  1  0  0  0  0
  2  4  1  0  0  0  0
  2 16  1  0  0  0  0
  3 31  1  0  0  0  0
  3 32  1  0  0  0  0
  3 33  1  0  0  0  0
  4  5  1  0  0  0  0
  4 34  1  0  0  0  0
  5  6  2  0  0  0  0
  5  7  1  0  0  0  0
  8  7  1  0  0  0  0
  8  9  1  0  0  0  0
  8 13  1  0  0  0  0
  8 35  1  1  0  0  0
  9 10  1  0  0  0  0
  9 36  1  0  0  0  0
  9 37  1  0  0  0  0
 10 11  1  0  0  0  0
 10 15  1  0  0  0  0
 11 12  1  0  0  0  0
 11 38  1  0  0  0  0
 11 39  1  0  0  0  0
 12 13  1  0  0  0  0
 12 40  1  0  0  0  0
 12 41  1  0  0  0  0
 13 14  1  0  0  0  0
 13 42  1  0  0  0  0
 14 15  1  0  0  0  0
 14 43  1  0  0  0  0
 14 44  1  0  0  0  0
 15 45  1  0  0  0  0
 15 46  1  0  0  0  0
 16 17  2  0  0  0  0
 16 20  1  0  0  0  0
 17 18  1  0  0  0  0
 17 47  1  0  0  0  0
 18 19  1  0  0  0  0
 19 20  2  0  0  0  0
 19 21  1  0  0  0  0
 21 22  2  0  0  0  0
 21 27  1  0  0  0  0
 22 23  1  0  0  0  0
 22 48  1  0  0  0  0
 23 24  2  0  0  0  0
 23 49  1  0  0  0  0
 24 25  1  0  0  0  0
 24 26  1  0  0  0  0
 26 27  2  0  0  0  0
 26 50  1  0  0  0  0
 27 51  1  0  0  0  0
M  END
>  <DRUGBANK_ID>
DB14966

>  <COMMON_NAME>
Venglustat

>  <CAS_NUMBER>
1401090-53-6

>  <UNII>
BLP1XA3FZA

>  <SYNONYMS>
GENZ-682452; Venglustat

$$$$
