
 OpenBabel10282417153D

 46 47  0  0  1  0  0  0  0  0999 V2000
    1.0523   -0.1390    0.0368 C   0  0  0  0  0  0  0  0  0  0  0  0
    0.6345    1.2108    0.6069 C   0  0  1  0  0  0  0  0  0  0  0  0
    1.1209    2.4392   -0.1166 C   0  0  0  0  0  0  0  0  0  0  0  0
    1.7734    2.3531   -1.3430 C   0  0  0  0  0  0  0  0  0  0  0  0
    2.0372    3.5035   -2.0722 C   0  0  0  0  0  0  0  0  0  0  0  0
    1.6301    4.7580   -1.6000 C   0  0  0  0  0  0  0  0  0  0  0  0
    1.8371    5.9181   -2.3542 C   0  0  0  0  0  0  0  0  0  0  0  0
    1.4244    7.1656   -1.8785 C   0  0  0  0  0  0  0  0  0  0  0  0
    0.7865    7.2529   -0.6415 C   0  0  0  0  0  0  0  0  0  0  0  0
    0.5686    6.1076    0.1213 C   0  0  0  0  0  0  0  0  0  0  0  0
    0.9898    4.8596   -0.3479 C   0  0  0  0  0  0  0  0  0  0  0  0
    0.7643    3.7027    0.3941 C   0  0  0  0  0  0  0  0  0  0  0  0
    1.6967    8.2244   -2.7022 O   0  0  0  0  0  0  0  0  0  0  0  0
    1.3064    9.5060   -2.2204 C   0  0  0  0  0  0  0  0  0  0  0  0
   -0.8594    1.3328    0.6808 C   0  0  0  0  0  0  0  0  0  0  0  0
   -1.3811    1.8147    1.6807 O   0  0  0  0  0  0  0  0  0  0  0  0
   -1.4798    0.9622   -0.4748 O   0  0  0  0  0  0  0  0  0  0  0  0
   -2.9155    1.0221   -0.5210 C   0  0  0  0  0  0  0  0  0  0  0  0
   -3.4985   -0.2041    0.2039 C   0  0  0  0  0  0  0  0  0  0  0  0
   -3.3025   -0.1327    1.7193 C   0  0  0  0  0  0  0  0  0  0  0  0
   -3.8592    1.1781    2.3217 C   0  0  0  0  0  0  0  0  0  0  0  0
   -5.2743    1.1278    2.4648 O   0  0  0  0  0  0  0  0  0  0  0  0
   -6.0287    1.4178    1.2972 N   0  3  0  0  0  0  0  0  0  0  0  0
   -5.4581    1.8597    0.3094 O   0  0  0  0  0  0  0  0  0  0  0  0
   -7.2257    1.1576    1.4448 O   0  5  0  0  0  0  0  0  0  0  0  0
    0.6932   -0.2786   -0.9891 H   0  0  0  0  0  0  0  0  0  0  0  0
    0.6510   -0.9640    0.6345 H   0  0  0  0  0  0  0  0  0  0  0  0
    2.1437   -0.2175    0.0327 H   0  0  0  0  0  0  0  0  0  0  0  0
    1.0024    1.2447    1.6417 H   0  0  0  0  0  0  0  0  0  0  0  0
    2.0467    1.3934   -1.7705 H   0  0  0  0  0  0  0  0  0  0  0  0
    2.5416    3.3998   -3.0281 H   0  0  0  0  0  0  0  0  0  0  0  0
    2.3201    5.8492   -3.3257 H   0  0  0  0  0  0  0  0  0  0  0  0
    0.4431    8.1983   -0.2384 H   0  0  0  0  0  0  0  0  0  0  0  0
    0.0632    6.2020    1.0800 H   0  0  0  0  0  0  0  0  0  0  0  0
    0.2408    3.7756    1.3498 H   0  0  0  0  0  0  0  0  0  0  0  0
    0.2192    9.5641   -2.0984 H   0  0  0  0  0  0  0  0  0  0  0  0
    1.8209    9.7499   -1.2841 H   0  0  0  0  0  0  0  0  0  0  0  0
    1.5983   10.2528   -2.9635 H   0  0  0  0  0  0  0  0  0  0  0  0
   -3.2342    2.0005   -0.1505 H   0  0  0  0  0  0  0  0  0  0  0  0
   -3.2371    1.0032   -1.5694 H   0  0  0  0  0  0  0  0  0  0  0  0
   -4.5646   -0.3462    0.0030 H   0  0  0  0  0  0  0  0  0  0  0  0
   -3.0123   -1.1048   -0.1875 H   0  0  0  0  0  0  0  0  0  0  0  0
   -3.7773   -0.9891    2.2065 H   0  0  0  0  0  0  0  0  0  0  0  0
   -2.2354   -0.2781    1.9303 H   0  0  0  0  0  0  0  0  0  0  0  0
   -3.4429    1.2607    3.3351 H   0  0  0  0  0  0  0  0  0  0  0  0
   -3.5531    2.1120    1.8384 H   0  0  0  0  0  0  0  0  0  0  0  0
  1 26  1  0  0  0  0
  1 27  1  0  0  0  0
  1 28  1  0  0  0  0
  2  1  1  0  0  0  0
  2  3  1  0  0  0  0
  2 15  1  0  0  0  0
  2 29  1  1  0  0  0
  3  4  2  0  0  0  0
  3 12  1  0  0  0  0
  4  5  1  0  0  0  0
  4 30  1  0  0  0  0
  5  6  2  0  0  0  0
  5 31  1  0  0  0  0
  6  7  1  0  0  0  0
  6 11  1  0  0  0  0
  7  8  2  0  0  0  0
  7 32  1  0  0  0  0
  8  9  1  0  0  0  0
  8 13  1  0  0  0  0
  9 10  2  0  0  0  0
  9 33  1  0  0  0  0
 10 11  1  0  0  0  0
 10 34  1  0  0  0  0
 11 12  2  0  0  0  0
 12 35  1  0  0  0  0
 13 14  1  0  0  0  0
 14 36  1  0  0  0  0
 14 37  1  0  0  0  0
 14 38  1  0  0  0  0
 15 16  2  0  0  0  0
 15 17  1  0  0  0  0
 17 18  1  0  0  0  0
 18 19  1  0  0  0  0
 18 39  1  0  0  0  0
 18 40  1  0  0  0  0
 19 20  1  0  0  0  0
 19 41  1  0  0  0  0
 19 42  1  0  0  0  0
 20 21  1  0  0  0  0
 20 43  1  0  0  0  0
 20 44  1  0  0  0  0
 21 22  1  0  0  0  0
 21 45  1  0  0  0  0
 21 46  1  0  0  0  0
 22 23  1  0  0  0  0
 23 24  2  0  0  0  0
 23 25  1  0  0  0  0
M  CHG  2  23   1  25  -1
M  END
>  <DRUGBANK_ID>
DB06682

>  <COMMON_NAME>
Naproxcinod

>  <CAS_NUMBER>
163133-43-5

>  <UNII>
V24GR4LI3I

>  <SYNONYMS>
(S)-2-(6-Methoxy-2-naphthyl)propanoic acid 4-nitrooxybutyl ester; Naproxcinod; Naproxcinodum; Naproxen-N-butyl nitrate

$$$$
