
 OpenBabel10282417123D

 75 82  0  0  0  0  0  0  0  0999 V2000
   -0.9544   -1.4427   -0.8427 C   0  0  0  0  0  0  0  0  0  0  0  0
    1.5228    5.3610    8.2294 C   0  0  0  0  0  0  0  0  0  0  0  0
   -3.1201   -2.5935    1.0802 C   0  0  0  0  0  0  0  0  0  0  0  0
   -1.0095    2.3596   10.4281 C   0  0  0  0  0  0  0  0  0  0  0  0
   -5.2524    1.6235   -0.8187 C   0  0  0  0  0  0  0  0  0  0  0  0
    2.2399    6.6079    3.7333 C   0  0  0  0  0  0  0  0  0  0  0  0
   -0.5728   -0.9062    0.3477 C   0  0  0  0  0  0  0  0  0  0  0  0
    0.7833    4.4710    8.9448 C   0  0  0  0  0  0  0  0  0  0  0  0
   -2.7015    3.4030   -1.2655 C   0  0  0  0  0  0  0  0  0  0  0  0
    0.7921    6.0244    1.0064 C   0  0  0  0  0  0  0  0  0  0  0  0
   -2.6904    4.9227   -1.2926 C   0  0  0  0  0  0  0  0  0  0  0  0
    1.1849    4.9322    0.0250 C   0  0  0  0  0  0  0  0  0  0  0  0
   -5.2127    1.1787    2.7853 C   0  0  0  0  0  0  0  0  0  0  0  0
   -0.3422    1.6738    1.7274 C   0  0  0  0  0  0  0  0  0  0  0  0
    0.3395    4.5406    6.1925 C   0  0  0  0  0  0  0  0  0  0  0  0
   -1.4428    4.1283    1.1575 C   0  0  0  0  0  0  0  0  0  0  0  0
   -2.7307   -1.2359    1.6421 C   0  0  0  0  0  0  0  0  0  0  0  0
   -1.0333    2.6989    8.9467 C   0  0  0  0  0  0  0  0  0  0  0  0
   -4.2969    2.1350    0.2471 C   0  0  0  0  0  0  0  0  0  0  0  0
    1.0512    5.6877    3.5084 C   0  0  0  0  0  0  0  0  0  0  0  0
   -1.6230   -0.4522    1.3484 C   0  0  0  0  0  0  0  0  0  0  0  0
   -0.2618    3.6164    8.2465 C   0  0  0  0  0  0  0  0  0  0  0  0
   -3.1640    2.9240    0.1010 C   0  0  0  0  0  0  0  0  0  0  0  0
    0.3822    5.3949    2.3278 C   0  0  0  0  0  0  0  0  0  0  0  0
   -3.5776   -0.2343    2.8510 C   0  0  0  0  0  0  0  0  0  0  0  0
   -4.3389    1.8779    2.0118 C   0  0  0  0  0  0  0  0  0  0  0  0
   -2.0598    2.0218    7.6543 C   0  0  0  0  0  0  0  0  0  0  0  0
    0.1521    4.7022    4.6928 C   0  0  0  0  0  0  0  0  0  0  0  0
   -1.5180    0.7502    2.0011 C   0  0  0  0  0  0  0  0  0  0  0  0
   -0.4843    3.7179    6.8962 C   0  0  0  0  0  0  0  0  0  0  0  0
   -2.4801    3.2525    1.2443 C   0  0  0  0  0  0  0  0  0  0  0  0
   -0.6655    4.5121    2.4061 C   0  0  0  0  0  0  0  0  0  0  0  0
   -1.7403    5.4415   -0.2256 C   0  0  0  0  0  0  0  0  0  0  0  0
    0.0021    4.0048   -0.2010 C   0  0  0  0  0  0  0  0  0  0  0  0
   -2.5971    2.7965    4.0136 Fe  0  2  3  0  0  0  0  0  0  0  0  0
   -2.4788    1.1059    2.8960 N   0  0  0  0  0  0  0  0  0  0  0  0
   -1.4391    2.9387    6.3203 N   0  0  0  0  0  0  0  0  0  0  0  0
   -2.9284    2.7894    2.4423 N   0  0  0  0  0  0  0  0  0  0  0  0
   -1.0003    3.9847    3.6144 N   0  0  0  0  0  0  0  0  0  0  0  0
   -0.6279    6.2433   -0.5945 O   0  0  0  0  0  0  0  0  0  0  0  0
   -1.9415    5.1578    0.9968 O   0  0  0  0  0  0  0  0  0  0  0  0
   -0.5370    3.8465   -1.5051 O   0  0  0  0  0  0  0  0  0  0  0  0
   -0.5045    3.3710    0.7772 O   0  0  0  0  0  0  0  0  0  0  0  0
   -1.9940   -1.5452   -1.0746 H   0  0  0  0  0  0  0  0  0  0  0  0
   -0.2151   -1.7623   -1.5471 H   0  0  0  0  0  0  0  0  0  0  0  0
    2.2585    5.9626    8.7210 H   0  0  0  0  0  0  0  0  0  0  0  0
    1.3688    5.4594    7.1752 H   0  0  0  0  0  0  0  0  0  0  0  0
   -3.1774   -3.3060    1.8764 H   0  0  0  0  0  0  0  0  0  0  0  0
   -4.0725   -2.5200    0.5980 H   0  0  0  0  0  0  0  0  0  0  0  0
   -2.3846   -2.9101    0.3705 H   0  0  0  0  0  0  0  0  0  0  0  0
   -1.9697    2.5604   10.8555 H   0  0  0  0  0  0  0  0  0  0  0  0
   -0.7731    1.3235   10.5530 H   0  0  0  0  0  0  0  0  0  0  0  0
   -0.2689    2.9561   10.9188 H   0  0  0  0  0  0  0  0  0  0  0  0
   -5.2610    0.5537   -0.8063 H   0  0  0  0  0  0  0  0  0  0  0  0
   -6.2377    1.9905   -0.6202 H   0  0  0  0  0  0  0  0  0  0  0  0
   -4.9310    1.9665   -1.7800 H   0  0  0  0  0  0  0  0  0  0  0  0
    1.9673    7.3812    4.4208 H   0  0  0  0  0  0  0  0  0  0  0  0
    3.0560    6.0447    4.1353 H   0  0  0  0  0  0  0  0  0  0  0  0
    2.5332    7.0458    2.8021 H   0  0  0  0  0  0  0  0  0  0  0  0
    0.4668   -0.8037    0.5797 H   0  0  0  0  0  0  0  0  0  0  0  0
    0.9374    4.3727    9.9991 H   0  0  0  0  0  0  0  0  0  0  0  0
   -1.7150    3.0356   -1.4571 H   0  0  0  0  0  0  0  0  0  0  0  0
   -3.3703    3.0377   -2.0166 H   0  0  0  0  0  0  0  0  0  0  0  0
   -0.0285    6.5836    0.6079 H   0  0  0  0  0  0  0  0  0  0  0  0
    1.6248    6.6773    1.1655 H   0  0  0  0  0  0  0  0  0  0  0  0
   -2.3648    5.2598   -2.2545 H   0  0  0  0  0  0  0  0  0  0  0  0
   -3.6769    5.2901   -1.1010 H   0  0  0  0  0  0  0  0  0  0  0  0
    1.4735    5.3753   -0.9051 H   0  0  0  0  0  0  0  0  0  0  0  0
    2.0056    4.3729    0.4235 H   0  0  0  0  0  0  0  0  0  0  0  0
   -6.0389    0.6705    2.3335 H   0  0  0  0  0  0  0  0  0  0  0  0
    0.4099    1.3877    1.0222 H   0  0  0  0  0  0  0  0  0  0  0  0
    1.1194    5.0740    6.6948 H   0  0  0  0  0  0  0  0  0  0  0  0
   -1.1740    4.5471    0.2102 H   0  0  0  0  0  0  0  0  0  0  0  0
   -0.4696    6.4666   -1.5563 H   0  0  0  0  0  0  0  0  0  0  0  0
   -0.1384    4.3452   -2.2748 H   0  0  0  0  0  0  0  0  0  0  0  0
  1 44  1  0  0  0  0
  1 45  1  0  0  0  0
  2 46  1  0  0  0  0
  2 47  1  0  0  0  0
  3 48  1  0  0  0  0
  3 49  1  0  0  0  0
  3 50  1  0  0  0  0
  4 51  1  0  0  0  0
  4 52  1  0  0  0  0
  4 53  1  0  0  0  0
  5 54  1  0  0  0  0
  5 55  1  0  0  0  0
  5 56  1  0  0  0  0
  6 57  1  0  0  0  0
  6 58  1  0  0  0  0
  6 59  1  0  0  0  0
  7  1  2  0  0  0  0
  7 60  1  0  0  0  0
  8  2  2  0  0  0  0
  8 61  1  0  0  0  0
  9 62  1  0  0  0  0
  9 63  1  0  0  0  0
 10 64  1  0  0  0  0
 10 65  1  0  0  0  0
 11  9  1  0  0  0  0
 11 66  1  0  0  0  0
 11 67  1  0  0  0  0
 12 10  1  0  0  0  0
 12 68  1  0  0  0  0
 12 69  1  0  0  0  0
 13 70  1  0  0  0  0
 14 71  1  0  0  0  0
 15 72  1  0  0  0  0
 16 73  1  0  0  0  0
 17  3  1  0  0  0  0
 18  4  1  0  0  0  0
 19  5  1  0  0  0  0
 20  6  1  0  0  0  0
 21  7  1  0  0  0  0
 21 17  1  0  0  0  0
 22  8  1  0  0  0  0
 22 18  2  0  0  0  0
 23  9  1  0  0  0  0
 23 19  2  0  0  0  0
 24 10  1  0  0  0  0
 24 20  1  0  0  0  0
 25 13  1  0  0  0  0
 25 17  2  0  0  0  0
 26 13  2  0  0  0  0
 26 19  1  0  0  0  0
 27 14  2  0  0  0  0
 27 18  1  0  0  0  0
 28 15  1  0  0  0  0
 28 20  2  0  0  0  0
 29 14  1  0  0  0  0
 29 21  2  0  0  0  0
 30 15  2  0  0  0  0
 30 22  1  0  0  0  0
 31 16  2  0  0  0  0
 31 23  1  0  0  0  0
 32 16  1  0  0  0  0
 32 24  2  0  0  0  0
 33 11  1  0  0  0  0
 34 12  1  0  0  0  0
 36 25  1  0  0  0  0
 36 29  1  0  0  0  0
 36 35  1  0  0  0  0
 37 27  1  0  0  0  0
 37 30  1  0  0  0  0
 37 35  1  0  0  0  0
 38 26  1  0  0  0  0
 38 31  1  0  0  0  0
 38 35  1  0  0  0  0
 39 28  1  0  0  0  0
 39 32  1  0  0  0  0
 39 35  1  0  0  0  0
 40 33  1  0  0  0  0
 40 74  1  0  0  0  0
 41 33  2  0  0  0  0
 42 34  1  0  0  0  0
 42 75  1  0  0  0  0
 43 34  2  0  0  0  0
M  CHG  1  35   2
M  END
>  <DRUGBANK_ID>
DB02577

>  <SECONDARY_ACCESSION_NUMBERS>
EXPT02172

>  <COMMON_NAME>
Mesoheme

$$$$
