
 OpenBabel10282417183D

199201  0  0  1  0  0  0  0  0999 V2000
    3.4780    0.9952   -3.4044 C   0  0  0  0  0  0  0  0  0  0  0  0
    4.7527    1.7516   -2.7865 C   0  0  0  0  0  0  0  0  0  0  0  0
    4.9946    3.0860   -3.4353 C   0  0  0  0  0  0  0  0  0  0  0  0
    3.4025    3.3789   -3.1616 C   0  0  0  0  0  0  0  0  0  0  0  0
    2.8344    4.3440   -1.3385 C   0  0  0  0  0  0  0  0  0  0  0  0
    4.4863    5.0143   -0.4505 C   0  0  0  0  0  0  0  0  0  0  0  0
    4.9089    6.3811   -0.7718 C   0  0  0  0  0  0  0  0  0  0  0  0
    3.6859    7.0413   -0.6621 C   0  0  0  0  0  0  0  0  0  0  0  0
    3.7817    7.7403    0.3602 O   0  0  0  0  0  0  0  0  0  0  0  0
    2.5065    7.0160   -1.3204 O   0  0  0  0  0  0  0  0  0  0  0  0
    2.0570    6.1548   -2.2931 C   0  0  1  0  0  0  0  0  0  0  0  0
    0.8867    6.3376   -3.6749 C   0  0  1  0  0  0  0  0  0  0  0  0
    0.7946    4.8886   -4.7922 C   0  0  0  0  0  0  0  0  0  0  0  0
    2.0523    4.3614   -4.6284 C   0  0  0  0  0  0  0  0  0  0  0  0
    3.1891    5.0306   -3.0265 C   0  0  2  0  0  0  0  0  0  0  0  0
    4.0741    3.6741   -1.8196 O   0  0  0  0  0  0  0  0  0  0  0  0
    2.8239    2.3468   -1.4091 C   0  0  0  0  0  0  0  0  0  0  0  0
    3.0554    1.3706   -0.6975 O   0  0  0  0  0  0  0  0  0  0  0  0
    1.1686    2.2852   -2.0538 C   0  0  0  0  0  0  0  0  0  0  0  0
    0.2699    2.9954   -2.7329 C   0  0  0  0  0  0  0  0  0  0  0  0
    0.4819    4.3004   -2.7770 C   0  0  0  0  0  0  0  0  0  0  0  0
    0.6085    0.9772   -2.1652 C   0  0  0  0  0  0  0  0  0  0  0  0
    2.1886    2.9138   -5.1938 C   0  0  0  0  0  0  0  0  0  0  0  0
   -0.4334    4.2214   -5.4658 C   0  0  1  0  0  0  0  0  0  0  0  0
   -0.8204    5.3901   -6.2097 C   0  0  2  0  0  0  0  0  0  0  0  0
   -0.6416    6.7741   -6.6545 C   0  0  2  0  0  0  0  0  0  0  0  0
    0.5765    7.5628   -5.7879 C   0  0  0  0  0  0  0  0  0  0  0  0
    1.4574    7.3953   -4.5897 C   0  0  1  0  0  0  0  0  0  0  0  0
    2.1009    8.7166   -4.6684 C   0  0  0  0  0  0  0  0  0  0  0  0
    2.6406    6.7901   -4.2512 O   0  0  0  0  0  0  0  0  0  0  0  0
    3.7767    7.1852   -3.7226 C   0  0  0  0  0  0  0  0  0  0  0  0
    4.3927    6.6300   -2.8448 O   0  0  0  0  0  0  0  0  0  0  0  0
    4.5913    8.0597   -4.3837 C   0  0  0  0  0  0  0  0  0  0  0  0
   -0.6223    7.5435   -7.9388 O   0  0  0  0  0  0  0  0  0  0  0  0
    0.2722    8.5839   -8.2375 C   0  0  0  0  0  0  0  0  0  0  0  0
    0.6872    8.7042   -9.3786 O   0  0  0  0  0  0  0  0  0  0  0  0
    0.9441    9.4537   -7.1102 C   0  0  0  0  0  0  0  0  0  0  0  0
   -0.3361    9.9642   -5.8791 C   0  0  0  0  0  0  0  0  0  0  0  0
   -1.5943    8.6897   -5.1989 C   0  0  0  0  0  0  0  0  0  0  0  0
   -1.0355    7.4295   -4.2487 C   0  0  0  0  0  0  0  0  0  0  0  0
    0.0277    8.2155   -3.1079 C   0  0  0  0  0  0  0  0  0  0  0  0
   -0.9611    8.6946   -2.2864 C   0  0  0  0  0  0  0  0  0  0  0  0
   -1.6609    7.5075   -1.8074 C   0  0  0  0  0  0  0  0  0  0  0  0
   -0.9150    6.4843   -1.1307 C   0  0  0  0  0  0  0  0  0  0  0  0
   -0.1581    7.1020   -0.1411 C   0  0  0  0  0  0  0  0  0  0  0  0
   -1.1793    7.4786    0.7196 C   0  0  0  0  0  0  0  0  0  0  0  0
   -1.8923    6.0607    1.5234 C   0  0  0  0  0  0  0  0  0  0  0  0
   -1.4037    5.0309    2.7677 N   0  0  0  0  0  0  0  0  0  0  0  0
   -1.2075    4.9689    4.0936 C   0  0  0  0  0  0  0  0  0  0  0  0
   -0.2614    4.2901    4.5113 O   0  0  0  0  0  0  0  0  0  0  0  0
   -2.0868    5.8455    4.7811 C   0  0  0  0  0  0  0  0  0  0  0  0
   -1.7727    7.3121    4.8752 C   0  0  1  0  0  0  0  0  0  0  0  0
   -1.6564    7.8983    3.5940 C   0  0  0  0  0  0  0  0  0  0  0  0
   -2.4507    8.5957    2.9461 O   0  0  0  0  0  0  0  0  0  0  0  0
   -0.6064    7.3374    3.0193 N   0  0  0  0  0  0  0  0  0  0  0  0
    0.7590    6.0779    2.8434 C   0  0  1  0  0  0  0  0  0  0  0  0
    0.5881    4.5304    1.7828 C   0  0  0  0  0  0  0  0  0  0  0  0
    0.6143    4.7802    0.4143 C   0  0  0  0  0  0  0  0  0  0  0  0
    1.6549    5.7407    0.6657 C   0  0  0  0  0  0  0  0  0  0  0  0
    2.7603    5.3882    0.4827 O   0  0  0  0  0  0  0  0  0  0  0  0
    1.8809    6.9622    1.1402 N   0  0  0  0  0  0  0  0  0  0  0  0
    1.4290    8.4124    2.0670 C   0  0  1  0  0  0  0  0  0  0  0  0
    1.8394    8.4260    3.4821 C   0  0  0  0  0  0  0  0  0  0  0  0
    3.2364    8.9535    3.3945 C   0  0  0  0  0  0  0  0  0  0  0  0
    3.2068   10.2281    2.7155 C   0  0  0  0  0  0  0  0  0  0  0  0
    3.1775   11.2563    3.3855 O   0  0  0  0  0  0  0  0  0  0  0  0
    3.0506   10.2637    1.3341 N   0  0  0  0  0  0  0  0  0  0  0  0
    2.2536    9.4783   -0.0671 C   0  0  1  0  0  0  0  0  0  0  0  0
    0.8243    9.7004   -0.3234 C   0  0  0  0  0  0  0  0  0  0  0  0
    0.2195   10.8799   -0.9390 C   0  0  0  0  0  0  0  0  0  0  0  0
    0.9979   11.2821   -2.1119 C   0  0  0  0  0  0  0  0  0  0  0  0
    0.5147   11.0837   -3.2183 O   0  0  0  0  0  0  0  0  0  0  0  0
    2.3202   11.7329   -1.9855 N   0  0  0  0  0  0  0  0  0  0  0  0
    3.5439   11.2698   -0.8643 C   0  0  1  0  0  0  0  0  0  0  0  0
    4.8010    9.9445   -0.5519 C   0  0  0  0  0  0  0  0  0  0  0  0
    5.7133    9.4981   -1.6622 C   0  0  0  0  0  0  0  0  0  0  0  0
    6.6793   10.5088   -1.6232 C   0  0  0  0  0  0  0  0  0  0  0  0
    7.7043   10.4312   -0.9974 O   0  0  0  0  0  0  0  0  0  0  0  0
    6.1789   11.6010   -2.1788 O   0  0  0  0  0  0  0  0  0  0  0  0
    4.0642   12.4136   -0.2776 C   0  0  0  0  0  0  0  0  0  0  0  0
    3.9383   12.7722    0.8639 O   0  0  0  0  0  0  0  0  0  0  0  0
    4.6143   12.9880   -1.3165 O   0  0  0  0  0  0  0  0  0  0  0  0
    2.7147    9.2011   -1.5819 C   0  0  0  0  0  0  0  0  0  0  0  0
    3.5130    8.4903   -2.0978 O   0  0  0  0  0  0  0  0  0  0  0  0
    2.9648   10.0509   -2.5156 O   0  0  0  0  0  0  0  0  0  0  0  0
    0.4617    9.9949    2.0357 C   0  0  0  0  0  0  0  0  0  0  0  0
   -0.7257   10.1650    1.7805 O   0  0  0  0  0  0  0  0  0  0  0  0
    1.1543   11.1242    1.7791 O   0  0  0  0  0  0  0  0  0  0  0  0
    2.6077    6.0870    3.1042 C   0  0  0  0  0  0  0  0  0  0  0  0
    3.0983    5.9040    4.2027 O   0  0  0  0  0  0  0  0  0  0  0  0
    3.5601    6.7120    2.3276 O   0  0  0  0  0  0  0  0  0  0  0  0
   -2.8978    8.0158    5.4185 N   0  0  0  0  0  0  0  0  0  0  0  0
    1.0496    5.5204   -6.8588 C   0  0  2  0  0  0  0  0  0  0  0  0
    1.0576    4.0899   -7.2039 C   0  0  0  0  0  0  0  0  0  0  0  0
    2.0071    3.6001   -7.7873 O   0  0  0  0  0  0  0  0  0  0  0  0
    0.0368    3.3996   -6.5519 O   0  0  0  0  0  0  0  0  0  0  0  0
    2.6835    6.1189   -6.5127 C   0  0  0  0  0  0  0  0  0  0  0  0
    1.2968    6.3601   -7.9484 O   0  0  0  0  0  0  0  0  0  0  0  0
   -2.2867    5.6216   -5.6511 O   0  0  0  0  0  0  0  0  0  0  0  0
    2.5181    1.4912   -3.4243 H   0  0  0  0  0  0  0  0  0  0  0  0
    3.0935    0.1955   -2.8124 H   0  0  0  0  0  0  0  0  0  0  0  0
    3.4731    0.8809   -4.4754 H   0  0  0  0  0  0  0  0  0  0  0  0
    4.7776    1.9413   -1.6623 H   0  0  0  0  0  0  0  0  0  0  0  0
    5.5651    1.1137   -2.7761 H   0  0  0  0  0  0  0  0  0  0  0  0
    5.6119    3.9054   -2.8897 H   0  0  0  0  0  0  0  0  0  0  0  0
    5.1550    3.3146   -4.4929 H   0  0  0  0  0  0  0  0  0  0  0  0
    3.7028    3.9274   -4.2107 H   0  0  0  0  0  0  0  0  0  0  0  0
    2.4897    2.9896   -3.3116 H   0  0  0  0  0  0  0  0  0  0  0  0
    1.7840    4.3964   -1.1180 H   0  0  0  0  0  0  0  0  0  0  0  0
    2.7089    3.7079   -0.3451 H   0  0  0  0  0  0  0  0  0  0  0  0
    4.4255    4.9056    0.6653 H   0  0  0  0  0  0  0  0  0  0  0  0
    5.3572    4.3724   -0.5774 H   0  0  0  0  0  0  0  0  0  0  0  0
    5.5269    6.8950   -0.0407 H   0  0  0  0  0  0  0  0  0  0  0  0
    5.5031    6.7822   -1.5612 H   0  0  0  0  0  0  0  0  0  0  0  0
    1.3858    5.8049   -1.5470 H   0  0  0  0  0  0  0  0  0  0  0  0
   -0.1507    6.1483   -3.1672 H   0  0  0  0  0  0  0  0  0  0  0  0
    4.0340    5.2974   -3.7671 H   0  0  0  0  0  0  0  0  0  0  0  0
   -0.5592    2.7860   -3.3631 H   0  0  0  0  0  0  0  0  0  0  0  0
    1.2700    4.8406   -3.1471 H   0  0  0  0  0  0  0  0  0  0  0  0
    0.0199    4.7121   -1.9963 H   0  0  0  0  0  0  0  0  0  0  0  0
    1.4666    4.1168   -2.5961 H   0  0  0  0  0  0  0  0  0  0  0  0
    1.1949    0.3379   -2.7875 H   0  0  0  0  0  0  0  0  0  0  0  0
    0.5836    0.7484   -1.1259 H   0  0  0  0  0  0  0  0  0  0  0  0
   -0.3533    1.0191   -2.6924 H   0  0  0  0  0  0  0  0  0  0  0  0
    1.3904    2.2024   -4.8980 H   0  0  0  0  0  0  0  0  0  0  0  0
    2.6426    2.9072   -6.1309 H   0  0  0  0  0  0  0  0  0  0  0  0
    3.1219    2.5232   -4.8931 H   0  0  0  0  0  0  0  0  0  0  0  0
   -1.2603    3.7116   -4.8521 H   0  0  0  0  0  0  0  0  0  0  0  0
   -0.7099    5.9642   -7.3978 H   0  0  0  0  0  0  0  0  0  0  0  0
   -0.0438    8.2591   -6.2281 H   0  0  0  0  0  0  0  0  0  0  0  0
    0.2604    8.3772   -5.0592 H   0  0  0  0  0  0  0  0  0  0  0  0
    1.7717    9.6185   -5.0961 H   0  0  0  0  0  0  0  0  0  0  0  0
    2.3470    9.1170   -3.7755 H   0  0  0  0  0  0  0  0  0  0  0  0
    2.8511    8.4884   -5.3577 H   0  0  0  0  0  0  0  0  0  0  0  0
    4.4098    7.6433   -5.3414 H   0  0  0  0  0  0  0  0  0  0  0  0
    4.1444    8.9616   -4.0568 H   0  0  0  0  0  0  0  0  0  0  0  0
    5.5001    7.8074   -3.8768 H   0  0  0  0  0  0  0  0  0  0  0  0
    1.7254    8.7601   -6.7344 H   0  0  0  0  0  0  0  0  0  0  0  0
    1.8181   10.0991   -7.2848 H   0  0  0  0  0  0  0  0  0  0  0  0
    0.2131   10.3356   -5.0135 H   0  0  0  0  0  0  0  0  0  0  0  0
   -0.8620   10.6825   -6.4465 H   0  0  0  0  0  0  0  0  0  0  0  0
   -2.2072    9.0932   -4.4238 H   0  0  0  0  0  0  0  0  0  0  0  0
   -2.0884    8.1989   -6.0443 H   0  0  0  0  0  0  0  0  0  0  0  0
   -1.5319    6.4534   -4.0050 H   0  0  0  0  0  0  0  0  0  0  0  0
   -0.4711    6.6415   -4.7808 H   0  0  0  0  0  0  0  0  0  0  0  0
    0.9875    7.9009   -2.5756 H   0  0  0  0  0  0  0  0  0  0  0  0
    0.5836    9.0741   -3.4447 H   0  0  0  0  0  0  0  0  0  0  0  0
   -0.1208    9.1843   -1.9743 H   0  0  0  0  0  0  0  0  0  0  0  0
   -1.4064    9.4518   -2.8542 H   0  0  0  0  0  0  0  0  0  0  0  0
   -2.3901    7.8369   -1.1413 H   0  0  0  0  0  0  0  0  0  0  0  0
   -2.1050    6.9114   -2.5517 H   0  0  0  0  0  0  0  0  0  0  0  0
   -1.3489    5.5037   -1.0279 H   0  0  0  0  0  0  0  0  0  0  0  0
   -0.0813    6.2449   -1.6269 H   0  0  0  0  0  0  0  0  0  0  0  0
    0.1151    6.6308    0.7161 H   0  0  0  0  0  0  0  0  0  0  0  0
    0.8253    7.4656   -0.4067 H   0  0  0  0  0  0  0  0  0  0  0  0
   -0.6427    8.2317    1.2237 H   0  0  0  0  0  0  0  0  0  0  0  0
   -1.7699    8.2574    0.3365 H   0  0  0  0  0  0  0  0  0  0  0  0
   -2.7137    6.5056    2.0147 H   0  0  0  0  0  0  0  0  0  0  0  0
   -2.2040    5.4694    0.6838 H   0  0  0  0  0  0  0  0  0  0  0  0
   -0.5541    4.4966    2.9251 H   0  0  0  0  0  0  0  0  0  0  0  0
   -2.9713    5.6187    4.1727 H   0  0  0  0  0  0  0  0  0  0  0  0
   -2.0362    5.4216    5.7558 H   0  0  0  0  0  0  0  0  0  0  0  0
   -0.7561    7.5539    5.2060 H   0  0  0  0  0  0  0  0  0  0  0  0
   -1.2581    7.7532    2.3593 H   0  0  0  0  0  0  0  0  0  0  0  0
    0.6277    5.9581    3.8835 H   0  0  0  0  0  0  0  0  0  0  0  0
    1.3649    3.8658    2.0520 H   0  0  0  0  0  0  0  0  0  0  0  0
   -0.3773    3.9601    1.5446 H   0  0  0  0  0  0  0  0  0  0  0  0
    0.4719    3.9528   -0.2797 H   0  0  0  0  0  0  0  0  0  0  0  0
   -0.3340    5.1443    0.2692 H   0  0  0  0  0  0  0  0  0  0  0  0
    2.8643    6.7337    0.9149 H   0  0  0  0  0  0  0  0  0  0  0  0
    0.6576    7.8083    1.9502 H   0  0  0  0  0  0  0  0  0  0  0  0
    1.0359    8.9601    3.9756 H   0  0  0  0  0  0  0  0  0  0  0  0
    1.7097    7.5563    4.1066 H   0  0  0  0  0  0  0  0  0  0  0  0
    3.6511    8.9156    4.3732 H   0  0  0  0  0  0  0  0  0  0  0  0
    4.0563    8.5423    2.8030 H   0  0  0  0  0  0  0  0  0  0  0  0
    2.8815   11.2787    1.3751 H   0  0  0  0  0  0  0  0  0  0  0  0
    2.2309    8.6128    0.4259 H   0  0  0  0  0  0  0  0  0  0  0  0
    0.4270    8.8559   -0.7302 H   0  0  0  0  0  0  0  0  0  0  0  0
    0.1758    9.2938    0.3546 H   0  0  0  0  0  0  0  0  0  0  0  0
   -0.8408   10.6339   -1.1236 H   0  0  0  0  0  0  0  0  0  0  0  0
    0.1989   11.7105   -0.3026 H   0  0  0  0  0  0  0  0  0  0  0  0
    2.6213   11.3442   -2.8984 H   0  0  0  0  0  0  0  0  0  0  0  0
    2.7085   11.1878   -0.2635 H   0  0  0  0  0  0  0  0  0  0  0  0
    5.0196    9.6355    0.5132 H   0  0  0  0  0  0  0  0  0  0  0  0
    4.4894    8.9666   -0.6657 H   0  0  0  0  0  0  0  0  0  0  0  0
    6.1480    8.5087   -1.5611 H   0  0  0  0  0  0  0  0  0  0  0  0
    5.3203    9.4454   -2.6554 H   0  0  0  0  0  0  0  0  0  0  0  0
    6.6343   12.3026   -1.6856 H   0  0  0  0  0  0  0  0  0  0  0  0
    5.3610   13.3836   -0.8830 H   0  0  0  0  0  0  0  0  0  0  0  0
    3.9020   10.1405   -2.7602 H   0  0  0  0  0  0  0  0  0  0  0  0
    1.3016   11.3097    0.8343 H   0  0  0  0  0  0  0  0  0  0  0  0
    3.3709    7.5592    1.7928 H   0  0  0  0  0  0  0  0  0  0  0  0
   -2.7157    9.0043    5.1992 H   0  0  0  0  0  0  0  0  0  0  0  0
   -3.6735    7.7999    4.7701 H   0  0  0  0  0  0  0  0  0  0  0  0
    3.4160    5.8657   -7.2710 H   0  0  0  0  0  0  0  0  0  0  0  0
    2.8959    7.2181   -6.6376 H   0  0  0  0  0  0  0  0  0  0  0  0
    3.1735    5.8327   -5.6269 H   0  0  0  0  0  0  0  0  0  0  0  0
    1.4208    7.1751   -7.4343 H   0  0  0  0  0  0  0  0  0  0  0  0
   -2.7171    6.2936   -5.0312 H   0  0  0  0  0  0  0  0  0  0  0  0
  1  2  1  0  0  0  0
  1100  1  0  0  0  0
  1101  1  0  0  0  0
  1102  1  0  0  0  0
  2  3  1  0  0  0  0
  2103  1  0  0  0  0
  2104  1  0  0  0  0
  3  4  1  0  0  0  0
  3105  1  0  0  0  0
  3106  1  0  0  0  0
  4  5  1  0  0  0  0
  4107  1  0  0  0  0
  4108  1  0  0  0  0
  5  6  1  0  0  0  0
  5109  1  0  0  0  0
  5110  1  0  0  0  0
  6  7  1  0  0  0  0
  6111  1  0  0  0  0
  6112  1  0  0  0  0
  7  8  1  0  0  0  0
  7113  1  0  0  0  0
  7114  1  0  0  0  0
  8  9  2  0  0  0  0
  8 10  1  0  0  0  0
 11 12  1  0  0  0  0
 11 15  1  0  0  0  0
 11 10  1  0  0  0  0
 11115  1  1  0  0  0
 12 13  1  0  0  0  0
 12 28  1  0  0  0  0
 12116  1  6  0  0  0
 13 14  2  0  0  0  0
 13 24  1  0  0  0  0
 14 15  1  0  0  0  0
 14 23  1  0  0  0  0
 15117  1  6  0  0  0
 15 16  1  0  0  0  0
 16 17  1  0  0  0  0
 17 18  2  0  0  0  0
 17 19  1  0  0  0  0
 19 20  2  0  0  0  0
 19 22  1  0  0  0  0
 20 21  1  0  0  0  0
 20118  1  0  0  0  0
 21119  1  0  0  0  0
 21120  1  0  0  0  0
 21121  1  0  0  0  0
 22122  1  0  0  0  0
 22123  1  0  0  0  0
 22124  1  0  0  0  0
 23125  1  0  0  0  0
 23126  1  0  0  0  0
 23127  1  0  0  0  0
 24 25  1  0  0  0  0
 24 96  1  0  0  0  0
 24128  1  1  0  0  0
 25 26  1  0  0  0  0
 25 93  1  0  0  0  0
 25 99  1  1  0  0  0
 26 27  1  0  0  0  0
 26 34  1  0  0  0  0
 26129  1  6  0  0  0
 27 28  1  0  0  0  0
 27130  1  0  0  0  0
 27131  1  0  0  0  0
 28 29  1  0  0  0  0
 28 30  1  6  0  0  0
 29132  1  0  0  0  0
 29133  1  0  0  0  0
 29134  1  0  0  0  0
 30 31  1  0  0  0  0
 31 32  2  0  0  0  0
 31 33  1  0  0  0  0
 33135  1  0  0  0  0
 33136  1  0  0  0  0
 33137  1  0  0  0  0
 34 35  1  0  0  0  0
 35 36  2  0  0  0  0
 35 37  1  0  0  0  0
 37 38  1  0  0  0  0
 37138  1  0  0  0  0
 37139  1  0  0  0  0
 38 39  1  0  0  0  0
 38140  1  0  0  0  0
 38141  1  0  0  0  0
 39 40  1  0  0  0  0
 39142  1  0  0  0  0
 39143  1  0  0  0  0
 40 41  1  0  0  0  0
 40144  1  0  0  0  0
 40145  1  0  0  0  0
 41 42  1  0  0  0  0
 41146  1  0  0  0  0
 41147  1  0  0  0  0
 42 43  1  0  0  0  0
 42148  1  0  0  0  0
 42149  1  0  0  0  0
 43 44  1  0  0  0  0
 43150  1  0  0  0  0
 43151  1  0  0  0  0
 44 45  1  0  0  0  0
 44152  1  0  0  0  0
 44153  1  0  0  0  0
 45 46  1  0  0  0  0
 45154  1  0  0  0  0
 45155  1  0  0  0  0
 46 47  1  0  0  0  0
 46156  1  0  0  0  0
 46157  1  0  0  0  0
 47 48  1  0  0  0  0
 47158  1  0  0  0  0
 47159  1  0  0  0  0
 48 49  1  0  0  0  0
 48160  1  0  0  0  0
 49 50  2  0  0  0  0
 49 51  1  0  0  0  0
 51 52  1  0  0  0  0
 51161  1  0  0  0  0
 51162  1  0  0  0  0
 52 53  1  0  0  0  0
 52 92  1  0  0  0  0
 52163  1  1  0  0  0
 53 54  2  0  0  0  0
 53 55  1  0  0  0  0
 55164  1  0  0  0  0
 56 55  1  0  0  0  0
 56 57  1  0  0  0  0
 56 89  1  0  0  0  0
 56165  1  1  0  0  0
 57 58  1  0  0  0  0
 57166  1  0  0  0  0
 57167  1  0  0  0  0
 58 59  1  0  0  0  0
 58168  1  0  0  0  0
 58169  1  0  0  0  0
 59 60  2  0  0  0  0
 59 61  1  0  0  0  0
 61170  1  0  0  0  0
 62 61  1  0  0  0  0
 62 63  1  0  0  0  0
 62 86  1  0  0  0  0
 62171  1  1  0  0  0
 63 64  1  0  0  0  0
 63172  1  0  0  0  0
 63173  1  0  0  0  0
 64 65  1  0  0  0  0
 64174  1  0  0  0  0
 64175  1  0  0  0  0
 65 66  2  0  0  0  0
 65 67  1  0  0  0  0
 67176  1  0  0  0  0
 68 67  1  0  0  0  0
 68 69  1  0  0  0  0
 68 83  1  0  0  0  0
 68177  1  1  0  0  0
 69 70  1  0  0  0  0
 69178  1  0  0  0  0
 69179  1  0  0  0  0
 70 71  1  0  0  0  0
 70180  1  0  0  0  0
 70181  1  0  0  0  0
 71 72  2  0  0  0  0
 71 73  1  0  0  0  0
 73182  1  0  0  0  0
 74 73  1  0  0  0  0
 74 75  1  0  0  0  0
 74 80  1  0  0  0  0
 74183  1  1  0  0  0
 75 76  1  0  0  0  0
 75184  1  0  0  0  0
 75185  1  0  0  0  0
 76 77  1  0  0  0  0
 76186  1  0  0  0  0
 76187  1  0  0  0  0
 77 78  2  0  0  0  0
 77 79  1  0  0  0  0
 79188  1  0  0  0  0
 80 81  2  0  0  0  0
 80 82  1  0  0  0  0
 82189  1  0  0  0  0
 83 84  2  0  0  0  0
 83 85  1  0  0  0  0
 85190  1  0  0  0  0
 86 87  2  0  0  0  0
 86 88  1  0  0  0  0
 88191  1  0  0  0  0
 89 90  2  0  0  0  0
 89 91  1  0  0  0  0
 91192  1  0  0  0  0
 92193  1  0  0  0  0
 92194  1  0  0  0  0
 93 94  1  0  0  0  0
 93 98  1  6  0  0  0
 93 97  1  0  0  0  0
 94 96  1  0  0  0  0
 94 95  2  0  0  0  0
 97195  1  0  0  0  0
 97196  1  0  0  0  0
 97197  1  0  0  0  0
 98198  1  0  0  0  0
 99199  1  0  0  0  0
M  END
>  <DRUGBANK_ID>
DB11813

>  <COMMON_NAME>
Mipsagargin

>  <CAS_NUMBER>
1245732-48-2

>  <UNII>
Q032I35QMX

>  <SYNONYMS>
Mipsagargin

$$$$
