ML2
 OpenBabel10282417173D

 33 34  0  0  0  0  0  0  0  0999 V2000
   -2.3893    0.1093   -0.1511 C   0  0  0  0  0  0  0  0  0  0  0  0
   -0.2428    0.7017    0.0062 C   0  0  0  0  0  0  0  0  0  0  0  0
    0.9375    1.4410    0.0112 C   0  0  0  0  0  0  0  0  0  0  0  0
    2.1413    0.7406    0.0090 C   0  0  0  0  0  0  0  0  0  0  0  0
    4.5482   -0.6787   -0.0097 C   0  0  0  0  0  0  0  0  0  0  0  0
   -1.6882   -1.0806   -0.0213 C   0  0  0  0  0  0  0  0  0  0  0  0
   -2.2105   -2.4958    0.0103 C   0  0  0  0  0  0  0  0  0  0  0  0
   -4.2224   -2.0767    1.4456 N   0  0  0  0  0  0  0  0  0  0  0  0
   -5.5180   -2.4805    1.3371 C   0  0  0  0  0  0  0  0  0  0  0  0
   -5.7771   -3.9484    1.2608 C   0  0  0  0  0  0  0  0  0  0  0  0
   -4.3575    0.5115   -0.5420 I   0  0  0  0  0  0  0  0  0  0  0  0
   -1.5310    1.1510   -0.0136 N   0  0  0  0  0  0  0  0  0  0  0  0
    2.1670   -0.6525    0.0094 C   0  0  0  0  0  0  0  0  0  0  0  0
    3.3174   -1.4038   -0.0022 O   0  0  0  0  0  0  0  0  0  0  0  0
    0.9572   -1.3782    0.0167 C   0  0  0  0  0  0  0  0  0  0  0  0
   -0.2862   -0.6929    0.0087 C   0  0  0  0  0  0  0  0  0  0  0  0
   -2.9978   -2.8453    1.2863 C   0  0  0  0  0  0  0  0  0  0  0  0
   -6.4336   -1.6556    1.3223 O   0  0  0  0  0  0  0  0  0  0  0  0
    0.9252    2.5254    0.0020 H   0  0  0  0  0  0  0  0  0  0  0  0
    3.0510    1.3306    0.0036 H   0  0  0  0  0  0  0  0  0  0  0  0
    4.6412   -0.0625   -0.9118 H   0  0  0  0  0  0  0  0  0  0  0  0
    4.6526   -0.0667    0.8937 H   0  0  0  0  0  0  0  0  0  0  0  0
    5.3739   -1.3966   -0.0167 H   0  0  0  0  0  0  0  0  0  0  0  0
   -2.8139   -2.6894   -0.8841 H   0  0  0  0  0  0  0  0  0  0  0  0
   -1.3614   -3.1918   -0.0391 H   0  0  0  0  0  0  0  0  0  0  0  0
   -4.1275   -1.0664    1.4479 H   0  0  0  0  0  0  0  0  0  0  0  0
   -5.3384   -4.3539    0.3461 H   0  0  0  0  0  0  0  0  0  0  0  0
   -5.3511   -4.4294    2.1445 H   0  0  0  0  0  0  0  0  0  0  0  0
   -6.8552   -4.1263    1.2476 H   0  0  0  0  0  0  0  0  0  0  0  0
   -1.8162    2.1184   -0.0246 H   0  0  0  0  0  0  0  0  0  0  0  0
    0.9898   -2.4644    0.0039 H   0  0  0  0  0  0  0  0  0  0  0  0
   -3.2341   -3.9125    1.2784 H   0  0  0  0  0  0  0  0  0  0  0  0
   -2.3907   -2.6414    2.1739 H   0  0  0  0  0  0  0  0  0  0  0  0
  1 12  1  0  0  0  0
  2  3  2  0  0  0  0
  3 19  1  0  0  0  0
  4  3  1  0  0  0  0
  4 20  1  0  0  0  0
  5 21  1  0  0  0  0
  5 22  1  0  0  0  0
  5 23  1  0  0  0  0
  6  1  2  0  0  0  0
  6 16  1  0  0  0  0
  7 17  1  0  0  0  0
  7  6  1  0  0  0  0
  7 24  1  0  0  0  0
  7 25  1  0  0  0  0
  8 17  1  0  0  0  0
  8 26  1  0  0  0  0
  9  8  1  0  0  0  0
  9 18  2  0  0  0  0
 10  9  1  0  0  0  0
 10 27  1  0  0  0  0
 10 28  1  0  0  0  0
 10 29  1  0  0  0  0
 11  1  1  0  0  0  0
 12  2  1  0  0  0  0
 12 30  1  0  0  0  0
 13  4  2  0  0  0  0
 14 13  1  0  0  0  0
 14  5  1  0  0  0  0
 15 16  2  0  0  0  0
 15 13  1  0  0  0  0
 15 31  1  0  0  0  0
 16  2  1  0  0  0  0
 17 32  1  0  0  0  0
 17 33  1  0  0  0  0
M  END
>  <DRUGBANK_ID>
DB08190

>  <COMMON_NAME>
N-[2-(2-iodo-5-methoxy-1H-indol-3-yl)ethyl]acetamide

>  <UNII>
2Q5TZ5754A

$$$$
