FL9
 OpenBabel10282417163D

 31 33  0  0  0  0  0  0  0  0999 V2000
   -2.3808   -0.6500   -0.0262 C   0  0  0  0  0  0  0  0  0  0  0  0
   -1.8971    0.7891   -0.0194 C   0  0  0  0  0  0  0  0  0  0  0  0
   -0.4169    0.6683   -0.0101 C   0  0  0  0  0  0  0  0  0  0  0  0
    0.6527    1.5642   -0.0034 C   0  0  0  0  0  0  0  0  0  0  0  0
    1.9743    1.0624    0.0014 C   0  0  0  0  0  0  0  0  0  0  0  0
    2.1921   -0.3224   -0.0002 C   0  0  0  0  0  0  0  0  0  0  0  0
    1.1248   -1.2123   -0.0018 C   0  0  0  0  0  0  0  0  0  0  0  0
   -0.1575   -0.6977   -0.0074 C   0  0  0  0  0  0  0  0  0  0  0  0
   -3.6378   -1.1469   -0.0203 C   0  0  0  0  0  0  0  0  0  0  0  0
   -3.9430   -2.6180    0.0187 C   0  0  0  0  0  0  0  0  0  0  0  0
   -3.5096   -3.4697    1.0602 C   0  0  0  0  0  0  0  0  0  0  0  0
   -3.7501   -4.8620    1.0277 C   0  0  0  0  0  0  0  0  0  0  0  0
   -4.4555   -5.4322   -0.0339 C   0  0  0  0  0  0  0  0  0  0  0  0
   -4.9341   -4.6014   -1.0481 C   0  0  0  0  0  0  0  0  0  0  0  0
   -4.6899   -3.2112   -1.0197 C   0  0  0  0  0  0  0  0  0  0  0  0
   -3.1024   -5.9919    2.4206 Br  0  0  0  0  0  0  0  0  0  0  0  0
   -5.9080   -5.3320   -2.5104 Br  0  0  0  0  0  0  0  0  0  0  0  0
   -1.2743   -1.4936   -0.0141 O   0  0  0  0  0  0  0  0  0  0  0  0
   -2.5815    1.7955   -0.0006 O   0  0  0  0  0  0  0  0  0  0  0  0
    0.4452    2.9121   -0.0039 O   0  0  0  0  0  0  0  0  0  0  0  0
    3.4409   -0.8746   -0.0020 O   0  0  0  0  0  0  0  0  0  0  0  0
   -2.8445   -2.9711    2.1544 O   0  0  0  0  0  0  0  0  0  0  0  0
   -4.6883   -6.7838   -0.1052 O   0  0  0  0  0  0  0  0  0  0  0  0
    2.8284    1.7357    0.0056 H   0  0  0  0  0  0  0  0  0  0  0  0
    1.2918   -2.2828   -0.0018 H   0  0  0  0  0  0  0  0  0  0  0  0
   -4.5070   -0.4907   -0.0392 H   0  0  0  0  0  0  0  0  0  0  0  0
   -5.0795   -2.6037   -1.8344 H   0  0  0  0  0  0  0  0  0  0  0  0
    1.2944    3.3877   -0.0095 H   0  0  0  0  0  0  0  0  0  0  0  0
    4.1290   -0.1898   -0.0086 H   0  0  0  0  0  0  0  0  0  0  0  0
   -2.7718   -2.0069    2.0803 H   0  0  0  0  0  0  0  0  0  0  0  0
   -4.2850   -7.2181    0.6687 H   0  0  0  0  0  0  0  0  0  0  0  0
  1  2  1  0  0  0  0
  1  9  2  0  0  0  0
  1 18  1  0  0  0  0
  2  3  1  0  0  0  0
  2 19  2  0  0  0  0
  3  4  2  0  0  0  0
  3  8  1  0  0  0  0
  4  5  1  0  0  0  0
  4 20  1  0  0  0  0
  5  6  2  0  0  0  0
  5 24  1  0  0  0  0
  6  7  1  0  0  0  0
  6 21  1  0  0  0  0
  7  8  2  0  0  0  0
  7 25  1  0  0  0  0
  8 18  1  0  0  0  0
  9 10  1  0  0  0  0
  9 26  1  0  0  0  0
 10 11  2  0  0  0  0
 10 15  1  0  0  0  0
 11 12  1  0  0  0  0
 11 22  1  0  0  0  0
 12 13  2  0  0  0  0
 12 16  1  0  0  0  0
 13 14  1  0  0  0  0
 13 23  1  0  0  0  0
 14 15  2  0  0  0  0
 14 17  1  0  0  0  0
 15 27  1  0  0  0  0
 20 28  1  0  0  0  0
 21 29  1  0  0  0  0
 22 30  1  0  0  0  0
 23 31  1  0  0  0  0
M  END
>  <DRUGBANK_ID>
DB07775

>  <COMMON_NAME>
3',5'-DIBROMO-2',4,4',6'-TETRAHYDROXY AURONE

>  <UNII>
QT9515X0WW

$$$$
