1420
 OpenBabel10282417113D

 57 60  0  0  1  0  0  0  0  0999 V2000
    1.0239    0.0774    0.0152 O   0  0  0  0  0  0  0  0  0  0  0  0
   -0.1638  -10.4314    2.4427 O   0  0  0  0  0  0  0  0  0  0  0  0
    2.9268    0.8947   -0.8364 O   0  0  0  0  0  0  0  0  0  0  0  0
   -0.8549   -2.9032    1.0815 C   0  0  2  0  0  0  0  0  0  0  0  0
    0.2743   -2.3080    0.2374 C   0  0  2  0  0  0  0  0  0  0  0  0
   -1.1244   -4.3609    0.7116 C   0  0  1  0  0  0  0  0  0  0  0  0
    0.1526   -5.2281    0.9429 C   0  0  1  0  0  0  0  0  0  0  0  0
   -0.0588   -6.7172    0.5058 C   0  0  2  0  0  0  0  0  0  0  0  0
    1.5264   -3.1251    0.5312 C   0  0  0  0  0  0  0  0  0  0  0  0
    1.4040   -4.6171    0.3145 C   0  0  0  0  0  0  0  0  0  0  0  0
    0.2566   -0.8651    0.7750 C   0  0  2  0  0  0  0  0  0  0  0  0
   -1.9801   -1.8753    0.9511 C   0  0  0  0  0  0  0  0  0  0  0  0
   -2.2717   -4.9281    1.5440 C   0  0  0  0  0  0  0  0  0  0  0  0
   -1.2513   -0.5180    0.8512 C   0  0  0  0  0  0  0  0  0  0  0  0
   -1.2603   -7.2481    1.2864 C   0  0  0  0  0  0  0  0  0  0  0  0
    0.0368   -2.2943   -1.2882 C   0  0  0  0  0  0  0  0  0  0  0  0
   -2.5131   -6.4042    1.2585 C   0  0  0  0  0  0  0  0  0  0  0  0
    1.2182   -7.5452    0.8378 C   0  0  0  0  0  0  0  0  0  0  0  0
   -0.3401   -6.8294   -1.0116 C   0  0  0  0  0  0  0  0  0  0  0  0
    0.9591   -9.0446    0.8370 C   0  0  0  0  0  0  0  0  0  0  0  0
   -1.2535   -8.4135    1.9559 C   0  0  0  0  0  0  0  0  0  0  0  0
   -0.1285   -9.3695    1.8273 C   0  0  0  0  0  0  0  0  0  0  0  0
    2.3771    0.1740    0.0068 C   0  0  0  0  0  0  0  0  0  0  0  0
    3.2408   -0.6100    0.9748 C   0  0  0  0  0  0  0  0  0  0  0  0
    2.9942   -0.4293    2.4534 C   0  0  0  0  0  0  0  0  0  0  0  0
   -0.5480   -2.8920    2.1420 H   0  0  0  0  0  0  0  0  0  0  0  0
   -1.4079   -4.3943   -0.3451 H   0  0  0  0  0  0  0  0  0  0  0  0
    0.3395   -5.2250    2.0306 H   0  0  0  0  0  0  0  0  0  0  0  0
    1.8407   -2.9619    1.5704 H   0  0  0  0  0  0  0  0  0  0  0  0
    2.3077   -2.8381   -0.1714 H   0  0  0  0  0  0  0  0  0  0  0  0
    2.3052   -5.0794    0.7388 H   0  0  0  0  0  0  0  0  0  0  0  0
    1.4487   -4.8032   -0.7603 H   0  0  0  0  0  0  0  0  0  0  0  0
    0.5518   -0.8109    1.8101 H   0  0  0  0  0  0  0  0  0  0  0  0
   -2.5845   -2.0504    0.0554 H   0  0  0  0  0  0  0  0  0  0  0  0
   -2.6501   -1.9077    1.8171 H   0  0  0  0  0  0  0  0  0  0  0  0
   -3.1916   -4.3728    1.3301 H   0  0  0  0  0  0  0  0  0  0  0  0
   -2.0544   -4.7917    2.6108 H   0  0  0  0  0  0  0  0  0  0  0  0
   -1.6089    0.0825    0.0088 H   0  0  0  0  0  0  0  0  0  0  0  0
   -1.4452    0.0692    1.7593 H   0  0  0  0  0  0  0  0  0  0  0  0
   -0.9214   -1.8435   -1.5590 H   0  0  0  0  0  0  0  0  0  0  0  0
    0.8205   -1.7175   -1.7935 H   0  0  0  0  0  0  0  0  0  0  0  0
    0.0599   -3.2984   -1.7182 H   0  0  0  0  0  0  0  0  0  0  0  0
   -2.9664   -6.5047    0.2651 H   0  0  0  0  0  0  0  0  0  0  0  0
   -3.2516   -6.7761    1.9771 H   0  0  0  0  0  0  0  0  0  0  0  0
    1.5972   -7.2624    1.8304 H   0  0  0  0  0  0  0  0  0  0  0  0
    2.0221   -7.3258    0.1235 H   0  0  0  0  0  0  0  0  0  0  0  0
   -1.2299   -6.2717   -1.3159 H   0  0  0  0  0  0  0  0  0  0  0  0
    0.4954   -6.4532   -1.6104 H   0  0  0  0  0  0  0  0  0  0  0  0
   -0.5057   -7.8667   -1.3156 H   0  0  0  0  0  0  0  0  0  0  0  0
    1.8718   -9.5762    1.1243 H   0  0  0  0  0  0  0  0  0  0  0  0
    0.6532   -9.4047   -0.1505 H   0  0  0  0  0  0  0  0  0  0  0  0
   -2.0956   -8.7579    2.5446 H   0  0  0  0  0  0  0  0  0  0  0  0
    3.2713   -1.6553    0.7262 H   0  0  0  0  0  0  0  0  0  0  0  0
    4.2849   -0.3412    0.7710 H   0  0  0  0  0  0  0  0  0  0  0  0
    1.9940   -0.6698    2.7946 H   0  0  0  0  0  0  0  0  0  0  0  0
    3.6364   -1.1099    3.0193 H   0  0  0  0  0  0  0  0  0  0  0  0
    3.1889    0.6026    2.7411 H   0  0  0  0  0  0  0  0  0  0  0  0
  1 23  1  0  0  0  0
  2 22  2  0  0  0  0
  3 23  2  0  0  0  0
  4  5  1  0  0  0  0
  4  6  1  0  0  0  0
  4 12  1  0  0  0  0
  4 26  1  1  0  0  0
  5  9  1  0  0  0  0
  5 11  1  0  0  0  0
  5 16  1  6  0  0  0
  6  7  1  0  0  0  0
  6 13  1  0  0  0  0
  6 27  1  6  0  0  0
  7  8  1  0  0  0  0
  7 10  1  0  0  0  0
  7 28  1  1  0  0  0
  8 15  1  0  0  0  0
  8 18  1  0  0  0  0
  8 19  1  6  0  0  0
  9 10  1  0  0  0  0
  9 29  1  0  0  0  0
  9 30  1  0  0  0  0
 10 31  1  0  0  0  0
 10 32  1  0  0  0  0
 11  1  1  0  0  0  0
 11 14  1  0  0  0  0
 11 33  1  1  0  0  0
 12 14  1  0  0  0  0
 12 34  1  0  0  0  0
 12 35  1  0  0  0  0
 13 17  1  0  0  0  0
 13 36  1  0  0  0  0
 13 37  1  0  0  0  0
 14 38  1  0  0  0  0
 14 39  1  0  0  0  0
 15 17  1  0  0  0  0
 15 21  2  0  0  0  0
 16 40  1  0  0  0  0
 16 41  1  0  0  0  0
 16 42  1  0  0  0  0
 17 43  1  0  0  0  0
 17 44  1  0  0  0  0
 18 20  1  0  0  0  0
 18 45  1  0  0  0  0
 18 46  1  0  0  0  0
 19 47  1  0  0  0  0
 19 48  1  0  0  0  0
 19 49  1  0  0  0  0
 20 22  1  0  0  0  0
 20 50  1  0  0  0  0
 20 51  1  0  0  0  0
 21 22  1  0  0  0  0
 21 52  1  0  0  0  0
 23 24  1  0  0  0  0
 24 25  1  0  0  0  0
 24 53  1  0  0  0  0
 24 54  1  0  0  0  0
 25 55  1  0  0  0  0
 25 56  1  0  0  0  0
 25 57  1  0  0  0  0
M  END
>  <DRUGBANK_ID>
DB01420

>  <SECONDARY_ACCESSION_NUMBERS>
DBSALT001032

>  <COMMON_NAME>
Testosterone propionate

>  <CAS_NUMBER>
57-85-2

>  <UNII>
WI93Z9138A

>  <SYNONYMS>
Testosterone propionate

$$$$
