
 OpenBabel10282417173D

 48 52  0  0  1  0  0  0  0  0999 V2000
    0.0169   -0.7358    0.1167 C   0  0  0  0  0  0  0  0  0  0  0  0
    1.3263   -1.3999    0.1351 N   0  0  0  0  0  0  0  0  0  0  0  0
   -1.2495   -1.4137    0.1215 C   0  0  0  0  0  0  0  0  0  0  0  0
   -0.0221    0.6782    0.0516 C   0  0  0  0  0  0  0  0  0  0  0  0
    1.4580   -2.8537   -0.1304 C   0  0  0  0  0  0  0  0  0  0  0  0
    2.4697   -0.5994    0.0561 C   0  0  0  0  0  0  0  0  0  0  0  0
   -2.4798   -0.7186    0.0385 C   0  0  0  0  0  0  0  0  0  0  0  0
    1.2269    1.4703    0.0321 C   0  0  0  0  0  0  0  0  0  0  0  0
   -1.2344    1.3781   -0.0059 C   0  0  0  0  0  0  0  0  0  0  0  0
    1.7405   -4.0543    0.7202 C   0  0  0  0  0  0  0  0  0  0  0  0
    1.3400   -4.1952   -0.7303 C   0  0  0  0  0  0  0  0  0  0  0  0
    2.5133    0.7490    0.0234 C   0  0  0  0  0  0  0  0  0  0  0  0
   -3.6800   -1.3944    0.0332 N   0  0  0  0  0  0  0  0  0  0  0  0
   -2.4326    0.6787   -0.0238 C   0  0  0  0  0  0  0  0  0  0  0  0
    1.2026    2.7002    0.0125 O   0  0  0  0  0  0  0  0  0  0  0  0
    3.8146    1.4587   -0.0175 C   0  0  0  0  0  0  0  0  0  0  0  0
   -4.0982   -2.3610    1.0627 C   0  0  0  0  0  0  0  0  0  0  0  0
   -4.6809   -1.2326   -1.0207 C   0  0  0  0  0  0  0  0  0  0  0  0
   -3.5751    1.3826   -0.0294 F   0  0  0  0  0  0  0  0  0  0  0  0
    3.7442    2.8105   -0.0237 O   0  0  0  0  0  0  0  0  0  0  0  0
    4.8871    0.8724   -0.0317 O   0  0  0  0  0  0  0  0  0  0  0  0
   -5.5731   -2.5757    0.7715 C   0  0  1  0  0  0  0  0  0  0  0  0
   -5.6517   -2.3940   -0.7551 C   0  0  1  0  0  0  0  0  0  0  0  0
   -6.1217   -3.8503    1.1154 O   0  0  0  0  0  0  0  0  0  0  0  0
   -7.0643   -2.2268   -1.1462 N   0  0  0  0  0  0  0  0  0  0  0  0
   -7.5227   -3.8379    0.7666 C   0  0  0  0  0  0  0  0  0  0  0  0
   -7.7632   -3.4646   -0.7174 C   0  0  0  0  0  0  0  0  0  0  0  0
   -5.2603   -3.2837   -1.2742 H   0  0  0  0  0  0  0  0  0  0  0  0
   -6.1208   -1.8013    1.3196 H   0  0  0  0  0  0  0  0  0  0  0  0
   -1.3980   -2.8413    0.1576 C   0  0  0  0  0  0  0  0  0  0  0  0
   -1.5757   -3.9987    0.1632 N   0  0  0  0  0  0  0  0  0  0  0  0
    0.5510   -2.7230   -0.6926 H   0  0  0  0  0  0  0  0  0  0  0  0
    3.3970   -1.1716    0.0234 H   0  0  0  0  0  0  0  0  0  0  0  0
   -1.2661    2.4660   -0.0234 H   0  0  0  0  0  0  0  0  0  0  0  0
    2.7320   -4.4398    0.9313 H   0  0  0  0  0  0  0  0  0  0  0  0
    1.0190   -4.3458    1.4812 H   0  0  0  0  0  0  0  0  0  0  0  0
    0.3569   -4.6431   -0.9154 H   0  0  0  0  0  0  0  0  0  0  0  0
    1.9797   -4.4633   -1.5540 H   0  0  0  0  0  0  0  0  0  0  0  0
   -3.5930   -3.3224    1.0258 H   0  0  0  0  0  0  0  0  0  0  0  0
   -3.9350   -1.9378    2.0589 H   0  0  0  0  0  0  0  0  0  0  0  0
   -4.2323   -1.3315   -2.0177 H   0  0  0  0  0  0  0  0  0  0  0  0
   -5.1757   -0.2622   -0.9391 H   0  0  0  0  0  0  0  0  0  0  0  0
    2.8309    3.1888   -0.0079 H   0  0  0  0  0  0  0  0  0  0  0  0
   -7.4469   -1.4446   -0.6107 H   0  0  0  0  0  0  0  0  0  0  0  0
   -8.0279   -3.1203    1.4236 H   0  0  0  0  0  0  0  0  0  0  0  0
   -7.9394   -4.8287    0.9735 H   0  0  0  0  0  0  0  0  0  0  0  0
   -7.4184   -4.2881   -1.3544 H   0  0  0  0  0  0  0  0  0  0  0  0
   -8.8364   -3.3455   -0.8965 H   0  0  0  0  0  0  0  0  0  0  0  0
  1  2  1  0  0  0  0
  1  3  2  0  0  0  0
  1  4  1  0  0  0  0
  2  5  1  0  0  0  0
  2  6  1  0  0  0  0
  3  7  1  0  0  0  0
  3 30  1  0  0  0  0
  4  8  1  0  0  0  0
  4  9  2  0  0  0  0
  5 10  1  0  0  0  0
  5 11  1  0  0  0  0
  5 32  1  0  0  0  0
  6 12  2  0  0  0  0
  6 33  1  0  0  0  0
  7 13  1  0  0  0  0
  7 14  2  0  0  0  0
  8 15  2  0  0  0  0
  8 12  1  0  0  0  0
  9 14  1  0  0  0  0
  9 34  1  0  0  0  0
 10 11  1  0  0  0  0
 10 35  1  0  0  0  0
 10 36  1  0  0  0  0
 11 37  1  0  0  0  0
 11 38  1  0  0  0  0
 12 16  1  0  0  0  0
 13 17  1  0  0  0  0
 13 18  1  0  0  0  0
 14 19  1  0  0  0  0
 16 20  1  0  0  0  0
 16 21  2  0  0  0  0
 17 22  1  0  0  0  0
 17 39  1  0  0  0  0
 17 40  1  0  0  0  0
 18 23  1  0  0  0  0
 18 41  1  0  0  0  0
 18 42  1  0  0  0  0
 20 43  1  0  0  0  0
 22 24  1  0  0  0  0
 22 23  1  0  0  0  0
 22 29  1  1  0  0  0
 23 25  1  0  0  0  0
 23 28  1  6  0  0  0
 24 26  1  0  0  0  0
 25 27  1  0  0  0  0
 25 44  1  0  0  0  0
 26 27  1  0  0  0  0
 26 45  1  0  0  0  0
 26 46  1  0  0  0  0
 27 47  1  0  0  0  0
 27 48  1  0  0  0  0
 30 31  3  0  0  0  0
M  END
>  <DRUGBANK_ID>
DB09047

>  <COMMON_NAME>
Finafloxacin

>  <CAS_NUMBER>
209342-40-5

>  <UNII>
D26OSN9Q4R

>  <SYNONYMS>
8-Cyano-1-cyclopropyl-6-fluoro-7-[(4aS,7aS)-hexahydropyrrolo[3,4-b][1,4]oxazin-6(2H)-yl]-4-oxo-1,4-dihydro-3-quinolinecarboxylic acid; Finafloxacin; gastrochinolon; gastroquinolone

$$$$
