BRC
 OpenBabel10282417123D

 38 37  0  0  0  0  0  0  0  0999 V2000
    0.9038    0.0735    0.0839 C   0  0  0  0  0  0  0  0  0  0  0  0
    0.1388   -0.2720    0.9753 O   0  0  0  0  0  0  0  0  0  0  0  0
    0.4046    0.5256   -1.0756 O   0  0  0  0  0  0  0  0  0  0  0  0
    2.4078    0.0640    0.1108 C   0  0  0  0  0  0  0  0  0  0  0  0
    2.9140   -0.6072    1.3879 C   0  0  0  0  0  0  0  0  0  0  0  0
    2.4726   -2.0750    1.4656 C   0  0  0  0  0  0  0  0  0  0  0  0
    3.0119   -2.8774    0.2805 C   0  0  0  0  0  0  0  0  0  0  0  0
    4.5417   -2.8795    0.2957 C   0  0  0  0  0  0  0  0  0  0  0  0
    5.0524   -3.5188    1.5915 C   0  0  0  0  0  0  0  0  0  0  0  0
    4.5485   -4.9619    1.7003 C   0  0  0  0  0  0  0  0  0  0  0  0
    5.0477   -5.7849    0.5087 C   0  0  0  0  0  0  0  0  0  0  0  0
    6.5790   -5.8152    0.4796 C   0  0  0  0  0  0  0  0  0  0  0  0
    7.1453   -6.4638    1.7483 C   0  0  0  0  0  0  0  0  0  0  0  0
    6.6386   -7.8851    1.9459 C   0  0  0  0  0  0  0  0  0  0  0  0
    7.2414   -9.0399    0.4969 Br  0  0  0  0  0  0  0  0  0  0  0  0
   -0.5635    0.4624   -0.9282 H   0  0  0  0  0  0  0  0  0  0  0  0
    2.7830   -0.4527   -0.7802 H   0  0  0  0  0  0  0  0  0  0  0  0
    2.7766    1.0912    0.0622 H   0  0  0  0  0  0  0  0  0  0  0  0
    4.0078   -0.5295    1.4315 H   0  0  0  0  0  0  0  0  0  0  0  0
    2.5549   -0.0700    2.2711 H   0  0  0  0  0  0  0  0  0  0  0  0
    2.7925   -2.4984    2.4240 H   0  0  0  0  0  0  0  0  0  0  0  0
    1.3863   -2.1776    1.4919 H   0  0  0  0  0  0  0  0  0  0  0  0
    2.6023   -3.8923    0.3125 H   0  0  0  0  0  0  0  0  0  0  0  0
    2.6485   -2.4900   -0.6745 H   0  0  0  0  0  0  0  0  0  0  0  0
    4.9158   -3.3991   -0.5916 H   0  0  0  0  0  0  0  0  0  0  0  0
    4.9526   -1.8716    0.1929 H   0  0  0  0  0  0  0  0  0  0  0  0
    6.1439   -3.4627    1.6250 H   0  0  0  0  0  0  0  0  0  0  0  0
    4.7453   -2.9533    2.4761 H   0  0  0  0  0  0  0  0  0  0  0  0
    4.8616   -5.3920    2.6556 H   0  0  0  0  0  0  0  0  0  0  0  0
    3.4558   -5.0101    1.7473 H   0  0  0  0  0  0  0  0  0  0  0  0
    4.6214   -6.7900    0.5497 H   0  0  0  0  0  0  0  0  0  0  0  0
    4.6728   -5.3899   -0.4413 H   0  0  0  0  0  0  0  0  0  0  0  0
    6.9168   -6.3366   -0.4193 H   0  0  0  0  0  0  0  0  0  0  0  0
    6.9943   -4.8061    0.3718 H   0  0  0  0  0  0  0  0  0  0  0  0
    8.2385   -6.4324    1.7194 H   0  0  0  0  0  0  0  0  0  0  0  0
    6.8702   -5.8674    2.6288 H   0  0  0  0  0  0  0  0  0  0  0  0
    7.0205   -8.3182    2.8701 H   0  0  0  0  0  0  0  0  0  0  0  0
    5.5472   -7.9502    1.9738 H   0  0  0  0  0  0  0  0  0  0  0  0
  1  2  2  0  0  0  0
  1  3  1  0  0  0  0
  1  4  1  0  0  0  0
  3 16  1  0  0  0  0
  4  5  1  0  0  0  0
  4 17  1  0  0  0  0
  4 18  1  0  0  0  0
  5  6  1  0  0  0  0
  5 19  1  0  0  0  0
  5 20  1  0  0  0  0
  6  7  1  0  0  0  0
  6 21  1  0  0  0  0
  6 22  1  0  0  0  0
  7  8  1  0  0  0  0
  7 23  1  0  0  0  0
  7 24  1  0  0  0  0
  8  9  1  0  0  0  0
  8 25  1  0  0  0  0
  8 26  1  0  0  0  0
  9 10  1  0  0  0  0
  9 27  1  0  0  0  0
  9 28  1  0  0  0  0
 10 11  1  0  0  0  0
 10 29  1  0  0  0  0
 10 30  1  0  0  0  0
 11 12  1  0  0  0  0
 11 31  1  0  0  0  0
 11 32  1  0  0  0  0
 12 13  1  0  0  0  0
 12 33  1  0  0  0  0
 12 34  1  0  0  0  0
 13 14  1  0  0  0  0
 13 35  1  0  0  0  0
 13 36  1  0  0  0  0
 14 15  1  0  0  0  0
 14 37  1  0  0  0  0
 14 38  1  0  0  0  0
M  END
>  <DRUGBANK_ID>
DB02405

>  <SECONDARY_ACCESSION_NUMBERS>
EXPT00749

>  <COMMON_NAME>
12-Bromododecanoic Acid

>  <CAS_NUMBER>
73367-80-3

>  <UNII>
RP072ZQ00E

$$$$
