832
 OpenBabel10282417113D

 25 26  0  0  1  0  0  0  0  0999 V2000
    1.1151    0.0380   -0.2030 O   0  0  0  0  0  0  0  0  0  0  0  0
    5.2044    1.4562    0.8705 O   0  0  0  0  0  0  0  0  0  0  0  0
    3.1826    1.0668   -0.2095 N   0  0  0  0  0  0  0  0  0  0  0  0
    3.1735   -1.2452    0.1280 C   0  0  3  0  0  0  0  0  0  0  0  0
    4.5951   -0.7045   -0.0284 C   0  0  0  0  0  0  0  0  0  0  0  0
    2.3333    0.0011   -0.1110 C   0  0  0  0  0  0  0  0  0  0  0  0
    2.9014   -2.0160    1.4048 C   0  0  0  0  0  0  0  0  0  0  0  0
    4.4024    0.7381    0.2904 C   0  0  0  0  0  0  0  0  0  0  0  0
    2.8261    2.3802   -0.6868 C   0  0  0  0  0  0  0  0  0  0  0  0
    1.6281   -2.5591    1.6296 C   0  0  0  0  0  0  0  0  0  0  0  0
    3.9297   -2.3665    2.2970 C   0  0  0  0  0  0  0  0  0  0  0  0
    1.4128   -3.4552    2.6799 C   0  0  0  0  0  0  0  0  0  0  0  0
    3.7352   -3.3215    3.2886 C   0  0  0  0  0  0  0  0  0  0  0  0
    2.4702   -3.8479    3.4975 C   0  0  0  0  0  0  0  0  0  0  0  0
    2.9828   -1.9319   -0.7087 H   0  0  0  0  0  0  0  0  0  0  0  0
    5.3800   -1.1665    0.5638 H   0  0  0  0  0  0  0  0  0  0  0  0
    4.9201   -0.7634   -1.0740 H   0  0  0  0  0  0  0  0  0  0  0  0
    2.9740    3.1393    0.0826 H   0  0  0  0  0  0  0  0  0  0  0  0
    3.5050    2.6057   -1.5196 H   0  0  0  0  0  0  0  0  0  0  0  0
    1.8027    2.3930   -1.0699 H   0  0  0  0  0  0  0  0  0  0  0  0
    0.7936   -2.3085    0.9751 H   0  0  0  0  0  0  0  0  0  0  0  0
    4.9250   -1.9395    2.2451 H   0  0  0  0  0  0  0  0  0  0  0  0
    0.4233   -3.8742    2.8392 H   0  0  0  0  0  0  0  0  0  0  0  0
    4.5838   -3.6564    3.8793 H   0  0  0  0  0  0  0  0  0  0  0  0
    2.3124   -4.5586    4.3022 H   0  0  0  0  0  0  0  0  0  0  0  0
  1  6  2  0  0  0  0
  2  8  2  0  0  0  0
  3  6  1  0  0  0  0
  3  8  1  0  0  0  0
  3  9  1  0  0  0  0
  4  5  1  0  0  0  0
  4  6  1  0  0  0  0
  4  7  1  0  0  0  0
  4 15  1  0  0  0  0
  5  8  1  0  0  0  0
  5 16  1  0  0  0  0
  5 17  1  0  0  0  0
  7 10  2  0  0  0  0
  7 11  1  0  0  0  0
  9 18  1  0  0  0  0
  9 19  1  0  0  0  0
  9 20  1  0  0  0  0
 10 12  1  0  0  0  0
 10 21  1  0  0  0  0
 11 13  2  0  0  0  0
 11 22  1  0  0  0  0
 12 14  2  0  0  0  0
 12 23  1  0  0  0  0
 13 14  1  0  0  0  0
 13 24  1  0  0  0  0
 14 25  1  0  0  0  0
M  END
>  <DRUGBANK_ID>
DB00832

>  <SECONDARY_ACCESSION_NUMBERS>
APRD00496

>  <COMMON_NAME>
Phensuximide

>  <CAS_NUMBER>
86-34-0

>  <UNII>
6WVL9C355G

>  <SYNONYMS>
Fensuccimide; Fensuximida; Phensuximide; Phensuximidum

$$$$
