
 OpenBabel10282417123D

 41 43  0  0  1  0  0  0  0  0999 V2000
    2.1709    0.7274   -0.0191 C   0  0  0  0  0  0  0  0  0  0  0  0
    0.9567    1.4146    0.0178 C   0  0  0  0  0  0  0  0  0  0  0  0
   -4.4347   -0.6553    0.9950 C   0  0  0  0  0  0  0  0  0  0  0  0
   -6.4336   -0.1981   -0.1956 C   0  0  0  0  0  0  0  0  0  0  0  0
    1.0340   -1.4350    0.0040 C   0  0  0  0  0  0  0  0  0  0  0  0
   -7.5390   -0.3049    2.7934 C   0  0  0  0  0  0  0  0  0  0  0  0
    2.2234   -0.6800   -0.0068 C   0  0  0  0  0  0  0  0  0  0  0  0
   -5.8221   -0.7444    0.9325 C   0  0  0  0  0  0  0  0  0  0  0  0
   -6.6729   -1.3323    2.0462 C   0  0  2  0  0  0  0  0  0  0  0  0
   -3.7065   -0.0068   -0.0435 C   0  0  0  0  0  0  0  0  0  0  0  0
   -5.7239    0.4831   -1.1912 C   0  0  0  0  0  0  0  0  0  0  0  0
   -0.2177    0.6686    0.0772 C   0  0  0  0  0  0  0  0  0  0  0  0
   -0.1626   -0.7165    0.0367 C   0  0  0  0  0  0  0  0  0  0  0  0
   -8.6702    0.3739    2.0160 C   0  0  0  0  0  0  0  0  0  0  0  0
   -4.3183    0.5778   -1.2019 C   0  0  0  0  0  0  0  0  0  0  0  0
    3.5620   -1.3595    0.0055 C   0  0  0  0  0  0  0  0  0  0  0  0
   -2.2505    0.0402    0.0859 C   0  0  0  0  0  0  0  0  0  0  0  0
   -7.4934   -2.5268    1.5811 C   0  0  0  0  0  0  0  0  0  0  0  0
   -6.8089    1.3089   -2.5427 Br  0  0  0  0  0  0  0  0  0  0  0  0
    3.7218   -2.6486    0.0242 N   0  0  0  0  0  0  0  0  0  0  0  0
    4.7155   -0.6434    0.0107 N   0  0  0  0  0  0  0  0  0  0  0  0
   -1.4908    1.1120    0.2042 N   0  0  0  0  0  0  0  0  0  0  0  0
   -1.4795   -1.0937    0.0224 N   0  0  0  0  0  0  0  0  0  0  0  0
   -9.8224   -0.1035    2.2339 O   0  0  0  0  0  0  0  0  0  0  0  0
   -8.3528    1.3827    1.3328 O   0  5  0  0  0  0  0  0  0  0  0  0
   -3.6578    1.1095   -2.1690 O   0  5  0  0  0  0  0  0  0  0  0  0
   -7.3538   -3.6851    1.9768 O   0  0  0  0  0  0  0  0  0  0  0  0
   -8.4022   -2.2423    0.6355 O   0  0  0  0  0  0  0  0  0  0  0  0
   -5.9843   -1.7446    2.8032 H   0  0  0  0  0  0  0  0  0  0  0  0
    3.0620    1.3396   -0.0460 H   0  0  0  0  0  0  0  0  0  0  0  0
    0.8985    2.4964    0.0093 H   0  0  0  0  0  0  0  0  0  0  0  0
   -3.8995   -1.0599    1.8514 H   0  0  0  0  0  0  0  0  0  0  0  0
   -7.5139   -0.2412   -0.2953 H   0  0  0  0  0  0  0  0  0  0  0  0
    1.0035   -2.5145   -0.0000 H   0  0  0  0  0  0  0  0  0  0  0  0
   -8.0125   -0.8039    3.6505 H   0  0  0  0  0  0  0  0  0  0  0  0
   -6.8998    0.4804    3.2181 H   0  0  0  0  0  0  0  0  0  0  0  0
    2.8279   -3.1391    0.0261 H   0  0  0  0  0  0  0  0  0  0  0  0
    4.7622    0.3604   -0.0335 H   0  0  0  0  0  0  0  0  0  0  0  0
    5.5771   -1.1685   -0.0076 H   0  0  0  0  0  0  0  0  0  0  0  0
   -1.8547   -2.0227   -0.0873 H   0  0  0  0  0  0  0  0  0  0  0  0
   -8.9221   -3.0389    0.4453 H   0  0  0  0  0  0  0  0  0  0  0  0
  1 30  1  0  0  0  0
  2  1  2  0  0  0  0
  2 31  1  0  0  0  0
  3 32  1  0  0  0  0
  4 33  1  0  0  0  0
  5 34  1  0  0  0  0
  6 35  1  0  0  0  0
  6 36  1  0  0  0  0
  7  1  1  0  0  0  0
  7  5  2  0  0  0  0
  8  3  2  0  0  0  0
  8  4  1  0  0  0  0
  9  6  1  0  0  0  0
  9  8  1  0  0  0  0
  9 18  1  0  0  0  0
  9 29  1  1  0  0  0
 10  3  1  0  0  0  0
 11  4  2  0  0  0  0
 12  2  1  0  0  0  0
 13  5  1  0  0  0  0
 13 12  2  0  0  0  0
 14  6  1  0  0  0  0
 15 10  2  0  0  0  0
 15 11  1  0  0  0  0
 16  7  1  0  0  0  0
 17 10  1  0  0  0  0
 19 11  1  0  0  0  0
 20 16  2  0  0  0  0
 20 37  1  0  0  0  0
 21 16  1  0  0  0  0
 21 38  1  0  0  0  0
 21 39  1  0  0  0  0
 22 12  1  0  0  0  0
 22 17  2  0  0  0  0
 23 13  1  0  0  0  0
 23 17  1  0  0  0  0
 23 40  1  0  0  0  0
 24 14  2  0  0  0  0
 25 14  1  0  0  0  0
 26 15  1  0  0  0  0
 27 18  2  0  0  0  0
 28 18  1  0  0  0  0
 28 41  1  0  0  0  0
M  CHG  2  25  -1  26  -1
M  END
>  <DRUGBANK_ID>
DB02063

>  <SECONDARY_ACCESSION_NUMBERS>
EXPT00325

>  <COMMON_NAME>
CRA_16847

>  <SYNONYMS>
2-(3-{5-[AMINO(IMINIO)METHYL]-1H-BENZIMIDAZOL-2-YL}-5-BROMO-4-OXIDOPHENYL)SUCCINATE

$$$$
