DFY
 OpenBabel10282417163D

 45 48  0  0  0  0  0  0  0  0999 V2000
   -1.8624    0.7245    0.0303 C   0  0  0  0  0  0  0  0  0  0  0  0
    2.4447   -0.1741   -0.0809 C   0  0  0  0  0  0  0  0  0  0  0  0
    3.8945   -0.0263   -0.0806 C   0  0  0  0  0  0  0  0  0  0  0  0
    4.5791    0.5040    1.0173 C   0  0  0  0  0  0  0  0  0  0  0  0
    5.9648    0.3301    1.1249 C   0  0  0  0  0  0  0  0  0  0  0  0
    6.6678   -0.3917    0.1572 C   0  0  0  0  0  0  0  0  0  0  0  0
    5.9938   -0.9276   -0.9338 C   0  0  0  0  0  0  0  0  0  0  0  0
    4.6270   -0.7070   -1.0709 C   0  0  0  0  0  0  0  0  0  0  0  0
    2.0254   -3.4661   -1.3606 C   0  0  0  0  0  0  0  0  0  0  0  0
    2.1795   -4.8551   -1.2462 C   0  0  0  0  0  0  0  0  0  0  0  0
    2.7366   -5.4112   -0.0933 C   0  0  0  0  0  0  0  0  0  0  0  0
    3.1743   -4.5805    0.9406 C   0  0  0  0  0  0  0  0  0  0  0  0
   -0.6802    1.3505    0.0353 N   0  0  0  0  0  0  0  0  0  0  0  0
    0.3415    0.4938   -0.0123 C   0  0  0  0  0  0  0  0  0  0  0  0
    1.6483    0.9202    0.0126 O   0  0  0  0  0  0  0  0  0  0  0  0
    0.2782   -0.9103   -0.0654 C   0  0  0  0  0  0  0  0  0  0  0  0
   -1.4035   -2.8276    0.1549 N   0  0  0  0  0  0  0  0  0  0  0  0
   -1.0496   -1.4824    0.0138 C   0  0  0  0  0  0  0  0  0  0  0  0
   -2.0871   -0.6011    0.0207 N   0  0  0  0  0  0  0  0  0  0  0  0
    2.9890   -3.1948    0.8540 C   0  0  0  0  0  0  0  0  0  0  0  0
    1.6796   -1.3225   -0.1646 C   0  0  0  0  0  0  0  0  0  0  0  0
    2.3410   -2.6379   -0.2691 C   0  0  0  0  0  0  0  0  0  0  0  0
   -0.3116   -4.7012    1.4644 C   0  0  0  0  0  0  0  0  0  0  0  0
   -0.3990   -3.8497    0.2181 C   0  0  0  0  0  0  0  0  0  0  0  0
   -1.3773   -5.6158    1.5649 O   0  0  0  0  0  0  0  0  0  0  0  0
   -2.7588   -3.2835   -0.0821 C   0  0  0  0  0  0  0  0  0  0  0  0
   -2.7484    1.3492    0.0527 H   0  0  0  0  0  0  0  0  0  0  0  0
    4.0366    0.9891    1.8250 H   0  0  0  0  0  0  0  0  0  0  0  0
    6.4960    0.7192    1.9902 H   0  0  0  0  0  0  0  0  0  0  0  0
    7.7379   -0.5510    0.2585 H   0  0  0  0  0  0  0  0  0  0  0  0
    6.5154   -1.5492   -1.6569 H   0  0  0  0  0  0  0  0  0  0  0  0
    4.1107   -1.1544   -1.9192 H   0  0  0  0  0  0  0  0  0  0  0  0
    1.4324   -3.0690   -2.1833 H   0  0  0  0  0  0  0  0  0  0  0  0
    1.7043   -5.5068   -1.9782 H   0  0  0  0  0  0  0  0  0  0  0  0
    2.7306   -6.4919    0.0446 H   0  0  0  0  0  0  0  0  0  0  0  0
    3.5401   -5.0238    1.8657 H   0  0  0  0  0  0  0  0  0  0  0  0
    3.2341   -2.5823    1.7204 H   0  0  0  0  0  0  0  0  0  0  0  0
    0.6097   -5.2863    1.4317 H   0  0  0  0  0  0  0  0  0  0  0  0
   -0.2506   -4.0665    2.3546 H   0  0  0  0  0  0  0  0  0  0  0  0
   -0.3894   -4.4264   -0.7114 H   0  0  0  0  0  0  0  0  0  0  0  0
    0.4888   -3.3141    0.3613 H   0  0  0  0  0  0  0  0  0  0  0  0
   -2.1638   -5.0580    1.6654 H   0  0  0  0  0  0  0  0  0  0  0  0
   -3.3686   -3.0921    0.8038 H   0  0  0  0  0  0  0  0  0  0  0  0
   -3.2139   -2.8510   -0.9759 H   0  0  0  0  0  0  0  0  0  0  0  0
   -2.7654   -4.3705   -0.2465 H   0  0  0  0  0  0  0  0  0  0  0  0
  1 13  2  0  0  0  0
  1 19  1  0  0  0  0
  1 27  1  0  0  0  0
  2  3  1  0  0  0  0
  2 15  1  0  0  0  0
  2 21  2  0  0  0  0
  3  4  2  0  0  0  0
  3  8  1  0  0  0  0
  4  5  1  0  0  0  0
  4 28  1  0  0  0  0
  5  6  2  0  0  0  0
  5 29  1  0  0  0  0
  6  7  1  0  0  0  0
  6 30  1  0  0  0  0
  7  8  2  0  0  0  0
  7 31  1  0  0  0  0
  8 32  1  0  0  0  0
  9 10  2  0  0  0  0
  9 22  1  0  0  0  0
  9 33  1  0  0  0  0
 10 11  1  0  0  0  0
 10 34  1  0  0  0  0
 11 12  2  0  0  0  0
 11 35  1  0  0  0  0
 12 20  1  0  0  0  0
 12 36  1  0  0  0  0
 13 14  1  0  0  0  0
 14 15  1  0  0  0  0
 14 16  2  0  0  0  0
 16 18  1  0  0  0  0
 16 21  1  0  0  0  0
 17 18  1  0  0  0  0
 17 24  1  0  0  0  0
 17 26  1  0  0  0  0
 18 19  2  0  0  0  0
 20 22  2  0  0  0  0
 20 37  1  0  0  0  0
 21 22  1  0  0  0  0
 23 24  1  0  0  0  0
 23 25  1  0  0  0  0
 23 38  1  0  0  0  0
 23 39  1  0  0  0  0
 24 40  1  0  0  0  0
 24 41  1  0  0  0  0
 25 42  1  0  0  0  0
 26 43  1  0  0  0  0
 26 44  1  0  0  0  0
 26 45  1  0  0  0  0
M  END
>  <DRUGBANK_ID>
DB07654

>  <COMMON_NAME>
(5,6-DIPHENYL-FURO[2,3-D]PYRIMIDIN-4-YLAMINO)-ACETIC

$$$$
