
 OpenBabel10282417133D

 47 47  0  0  1  0  0  0  0  0999 V2000
    0.9756    0.2003   -0.0064 C   0  0  0  0  0  0  0  0  0  0  0  0
   -5.1615   -4.3231   -2.4148 C   0  0  0  0  0  0  0  0  0  0  0  0
    0.5690   -0.8421   -1.0320 C   0  0  0  0  0  0  0  0  0  0  0  0
    1.0828   -2.2240   -0.6231 C   0  0  0  0  0  0  0  0  0  0  0  0
    0.4742   -2.7013    0.7053 C   0  0  0  0  0  0  0  0  0  0  0  0
   -3.6945   -6.3438    0.2443 C   0  0  0  0  0  0  0  0  0  0  0  0
   -3.0650   -3.0720    2.0343 C   0  0  0  0  0  0  0  0  0  0  0  0
   -2.6322   -5.9742    2.4586 C   0  0  0  0  0  0  0  0  0  0  0  0
   -4.6131   -4.6780   -1.0641 C   0  0  0  0  0  0  0  0  0  0  0  0
   -3.3715   -5.4496    1.2622 C   0  0  0  0  0  0  0  0  0  0  0  0
   -3.6841   -4.0801    1.0899 C   0  0  0  0  0  0  0  0  0  0  0  0
   -1.0579   -2.7410    0.6217 C   0  0  1  0  0  0  0  0  0  0  0  0
   -4.3346   -3.7025   -0.0972 C   0  0  0  0  0  0  0  0  0  0  0  0
   -1.2940   -3.8085   -0.4516 C   0  0  0  0  0  0  0  0  0  0  0  0
   -4.3085   -5.9893   -0.8971 N   0  0  0  0  0  0  0  0  0  0  0  0
   -1.5975   -3.0761    1.9605 N   0  0  0  0  0  0  0  0  0  0  0  0
   -4.5947   -2.4018   -0.4251 O   0  0  0  0  0  0  0  0  0  0  0  0
   -1.0956   -5.0101   -0.3173 O   0  0  0  0  0  0  0  0  0  0  0  0
   -1.6006   -3.3002   -1.6605 O   0  0  0  0  0  0  0  0  0  0  0  0
   -5.5012   -7.6840    3.7360 O   0  0  0  0  0  0  0  0  0  0  0  0
   -4.4222   -5.8674    4.9688 O   0  0  0  0  0  0  0  0  0  0  0  0
   -6.3841   -5.5007    3.7560 O   0  0  0  0  0  0  0  0  0  0  0  0
   -3.4708   -6.8721    3.1400 O   0  0  0  0  0  0  0  0  0  0  0  0
   -5.0081   -6.1484    3.4651 P   0  0  0  0  0  0  0  0  0  0  0  0
   -1.4994   -1.7823    0.3407 H   0  0  0  0  0  0  0  0  0  0  0  0
    0.5605   -0.0177    0.9830 H   0  0  0  0  0  0  0  0  0  0  0  0
    0.6148    1.1881   -0.2971 H   0  0  0  0  0  0  0  0  0  0  0  0
    2.0654    0.2271    0.0813 H   0  0  0  0  0  0  0  0  0  0  0  0
   -4.4354   -4.5945   -3.1897 H   0  0  0  0  0  0  0  0  0  0  0  0
   -6.0868   -4.8786   -2.5866 H   0  0  0  0  0  0  0  0  0  0  0  0
   -5.3773   -3.2573   -2.5227 H   0  0  0  0  0  0  0  0  0  0  0  0
   -0.5205   -0.8305   -1.1500 H   0  0  0  0  0  0  0  0  0  0  0  0
    0.9658   -0.5827   -2.0176 H   0  0  0  0  0  0  0  0  0  0  0  0
    0.8637   -2.9415   -1.4241 H   0  0  0  0  0  0  0  0  0  0  0  0
    2.1735   -2.2170   -0.5392 H   0  0  0  0  0  0  0  0  0  0  0  0
    0.8632   -3.7071    0.9243 H   0  0  0  0  0  0  0  0  0  0  0  0
    0.8073   -2.0727    1.5368 H   0  0  0  0  0  0  0  0  0  0  0  0
   -3.4030   -7.3911    0.3049 H   0  0  0  0  0  0  0  0  0  0  0  0
   -3.3820   -3.3050    3.0604 H   0  0  0  0  0  0  0  0  0  0  0  0
   -3.4334   -2.0543    1.8831 H   0  0  0  0  0  0  0  0  0  0  0  0
   -1.7004   -6.4689    2.1711 H   0  0  0  0  0  0  0  0  0  0  0  0
   -2.3739   -5.2131    3.1947 H   0  0  0  0  0  0  0  0  0  0  0  0
   -1.1923   -3.9652    2.2360 H   0  0  0  0  0  0  0  0  0  0  0  0
   -4.3757   -1.7861    0.2877 H   0  0  0  0  0  0  0  0  0  0  0  0
   -1.6337   -4.0924   -2.2387 H   0  0  0  0  0  0  0  0  0  0  0  0
   -6.0305   -8.0141    2.9912 H   0  0  0  0  0  0  0  0  0  0  0  0
   -3.4557   -5.8239    5.0010 H   0  0  0  0  0  0  0  0  0  0  0  0
  1 26  1  0  0  0  0
  1 27  1  0  0  0  0
  1 28  1  0  0  0  0
  2 29  1  0  0  0  0
  2 30  1  0  0  0  0
  2 31  1  0  0  0  0
  3  1  1  0  0  0  0
  3 32  1  0  0  0  0
  3 33  1  0  0  0  0
  4  3  1  0  0  0  0
  4 34  1  0  0  0  0
  4 35  1  0  0  0  0
  5  4  1  0  0  0  0
  5 36  1  0  0  0  0
  5 37  1  0  0  0  0
  6 38  1  0  0  0  0
  7 39  1  0  0  0  0
  7 40  1  0  0  0  0
  8 41  1  0  0  0  0
  8 42  1  0  0  0  0
  9  2  1  0  0  0  0
 10  6  1  0  0  0  0
 10  8  1  0  0  0  0
 11  7  1  0  0  0  0
 11 10  2  0  0  0  0
 12  5  1  0  0  0  0
 12 16  1  0  0  0  0
 12 25  1  6  0  0  0
 13  9  2  0  0  0  0
 13 11  1  0  0  0  0
 14 12  1  0  0  0  0
 15  6  2  0  0  0  0
 15  9  1  0  0  0  0
 16  7  1  0  0  0  0
 16 43  1  0  0  0  0
 17 13  1  0  0  0  0
 17 44  1  0  0  0  0
 18 14  2  0  0  0  0
 19 14  1  0  0  0  0
 19 45  1  0  0  0  0
 20 46  1  0  0  0  0
 21 47  1  0  0  0  0
 23  8  1  0  0  0  0
 24 20  1  0  0  0  0
 24 21  1  0  0  0  0
 24 22  2  0  0  0  0
 24 23  1  0  0  0  0
M  END
>  <DRUGBANK_ID>
DB02981

>  <SECONDARY_ACCESSION_NUMBERS>
EXPT02715

>  <COMMON_NAME>
Vitamin B6 Complexed with 2-Amino-Hexanoic Acid

$$$$
