
 OpenBabel10282417213D

 46 50  0  0  0  0  0  0  0  0999 V2000
    2.4862   -0.0278   -0.2937 C   0  0  0  0  0  0  0  0  0  0  0  0
   -1.8994   -1.5212    0.6475 C   0  0  0  0  0  0  0  0  0  0  0  0
    1.4394   -8.2459    5.8820 C   0  0  0  0  0  0  0  0  0  0  0  0
   -2.4082   -0.5843    1.7311 C   0  0  0  0  0  0  0  0  0  0  0  0
   -0.5347   -0.7873    1.0179 C   0  0  0  0  0  0  0  0  0  0  0  0
    2.1529   -7.5715    4.8919 C   0  0  0  0  0  0  0  0  0  0  0  0
    0.6331   -7.5297    6.7657 C   0  0  0  0  0  0  0  0  0  0  0  0
    0.4260   -1.0346    4.0802 C   0  0  0  0  0  0  0  0  0  0  0  0
    0.4362   -2.5694   -0.5489 C   0  0  0  0  0  0  0  0  0  0  0  0
   -0.7056    1.0645   -1.0882 C   0  0  0  0  0  0  0  0  0  0  0  0
   -0.9831   -0.4662    2.3294 C   0  0  0  0  0  0  0  0  0  0  0  0
   -0.2432   -1.4847    3.0440 C   0  0  0  0  0  0  0  0  0  0  0  0
    2.0645   -6.1862    4.8004 C   0  0  0  0  0  0  0  0  0  0  0  0
    0.5643   -6.1441    6.6713 C   0  0  0  0  0  0  0  0  0  0  0  0
    0.9425   -2.0018    4.9537 C   0  0  0  0  0  0  0  0  0  0  0  0
    0.2769   -0.9180   -1.1876 C   0  0  0  0  0  0  0  0  0  0  0  0
    1.2833   -5.4589    5.6971 C   0  0  0  0  0  0  0  0  0  0  0  0
    1.2305   -4.0211    5.6450 C   0  0  0  0  0  0  0  0  0  0  0  0
    0.0897   -2.8630    2.4599 C   0  0  0  0  0  0  0  0  0  0  0  0
    2.7698   -5.5619    3.8435 F   0  0  0  0  0  0  0  0  0  0  0  0
   -0.2252   -5.4805    7.5294 F   0  0  0  0  0  0  0  0  0  0  0  0
   -0.8527   -0.2577   -1.5510 N   0  0  0  0  0  0  0  0  0  0  0  0
    0.5622    1.3588   -0.7679 N   0  0  0  0  0  0  0  0  0  0  0  0
    1.3948   -1.9093    6.1603 N   0  0  0  0  0  0  0  0  0  0  0  0
    1.5635   -3.1894    6.6158 N   0  0  0  0  0  0  0  0  0  0  0  0
    0.4650   -3.8092    3.2795 N   0  0  0  0  0  0  0  0  0  0  0  0
    1.1864    0.1292   -0.8963 N   0  0  0  0  0  0  0  0  0  0  0  0
    0.8136   -3.3158    4.5394 N   0  0  0  0  0  0  0  0  0  0  0  0
    0.0595   -3.1393    1.0710 O   0  0  0  0  0  0  0  0  0  0  0  0
    3.2002    0.3980   -0.9928 H   0  0  0  0  0  0  0  0  0  0  0  0
    2.5305    0.4789    0.6785 H   0  0  0  0  0  0  0  0  0  0  0  0
    2.6766   -1.0880   -0.1409 H   0  0  0  0  0  0  0  0  0  0  0  0
   -2.0559   -2.5960    0.8239 H   0  0  0  0  0  0  0  0  0  0  0  0
   -2.2888   -1.4102   -0.3732 H   0  0  0  0  0  0  0  0  0  0  0  0
    1.5129   -9.3264    5.9668 H   0  0  0  0  0  0  0  0  0  0  0  0
   -2.7347    0.3522    1.2552 H   0  0  0  0  0  0  0  0  0  0  0  0
   -3.1572   -0.9980    2.3834 H   0  0  0  0  0  0  0  0  0  0  0  0
    0.5152   -1.1504    1.0219 H   0  0  0  0  0  0  0  0  0  0  0  0
   -0.4029    0.2039    0.7114 H   0  0  0  0  0  0  0  0  0  0  0  0
    2.7861   -8.1120    4.1960 H   0  0  0  0  0  0  0  0  0  0  0  0
    0.0598   -8.0362    7.5349 H   0  0  0  0  0  0  0  0  0  0  0  0
    0.4713    0.0195    4.3736 H   0  0  0  0  0  0  0  0  0  0  0  0
   -0.1826   -3.2472   -1.1515 H   0  0  0  0  0  0  0  0  0  0  0  0
    1.4878   -2.8399   -0.5392 H   0  0  0  0  0  0  0  0  0  0  0  0
   -1.5437    1.6775   -0.6984 H   0  0  0  0  0  0  0  0  0  0  0  0
   -0.5916    0.5589    2.4982 H   0  0  0  0  0  0  0  0  0  0  0  0
  1 30  1  0  0  0  0
  1 31  1  0  0  0  0
  1 32  1  0  0  0  0
  2 33  1  0  0  0  0
  2 34  1  0  0  0  0
  3 35  1  0  0  0  0
  4  2  1  0  0  0  0
  4 36  1  0  0  0  0
  4 37  1  0  0  0  0
  5  2  1  0  0  0  0
  5 38  1  0  0  0  0
  5 39  1  0  0  0  0
  6  3  2  0  0  0  0
  6 40  1  0  0  0  0
  7  3  1  0  0  0  0
  7 41  1  0  0  0  0
  8 42  1  0  0  0  0
  9 43  1  0  0  0  0
  9 44  1  0  0  0  0
 10 45  1  0  0  0  0
 11  4  1  0  0  0  0
 11  5  1  0  0  0  0
 11 46  1  0  0  0  0
 12  8  2  0  0  0  0
 12 11  1  0  0  0  0
 13  6  1  0  0  0  0
 14  7  2  0  0  0  0
 15  8  1  0  0  0  0
 16  9  1  0  0  0  0
 17 13  2  0  0  0  0
 17 14  1  0  0  0  0
 18 17  1  0  0  0  0
 19 12  1  0  0  0  0
 20 13  1  0  0  0  0
 21 14  1  0  0  0  0
 22 10  1  0  0  0  0
 22 16  2  0  0  0  0
 23 10  2  0  0  0  0
 24 15  2  0  0  0  0
 25 18  2  0  0  0  0
 25 24  1  0  0  0  0
 26 19  2  0  0  0  0
 27  1  1  0  0  0  0
 27 16  1  0  0  0  0
 27 23  1  0  0  0  0
 28 15  1  0  0  0  0
 28 18  1  0  0  0  0
 28 26  1  0  0  0  0
 29  9  1  0  0  0  0
 29 19  1  0  0  0  0
M  END
>  <DRUGBANK_ID>
DB13993

>  <COMMON_NAME>
MRK-409

>  <CAS_NUMBER>
233275-76-8

>  <UNII>
9VSE02330I

$$$$
