
 OpenBabel10282417193D

 81 85  0  0  0  0  0  0  0  0999 V2000
    1.0319   -0.0654    0.0232 C   0  0  0  0  0  0  0  0  0  0  0  0
    0.4872   -0.9921   -1.0564 C   0  0  0  0  0  0  0  0  0  0  0  0
    1.0445   -2.4019   -0.8689 C   0  0  0  0  0  0  0  0  0  0  0  0
   -1.3190   -0.9672   -1.1269 S   0  0  0  0  0  0  0  0  0  0  0  0
   -1.7564    0.4189   -1.2739 O   0  0  0  0  0  0  0  0  0  0  0  0
   -1.7514   -1.9484   -2.0968 O   0  0  0  0  0  0  0  0  0  0  0  0
   -1.8606   -1.5347    0.4769 C   0  0  0  0  0  0  0  0  0  0  0  0
   -1.8265   -2.9267    0.7009 C   0  0  0  0  0  0  0  0  0  0  0  0
   -2.0482   -3.4450    1.9749 C   0  0  0  0  0  0  0  0  0  0  0  0
   -2.2953   -2.5799    3.0267 C   0  0  0  0  0  0  0  0  0  0  0  0
   -2.3618   -1.2077    2.7897 C   0  0  0  0  0  0  0  0  0  0  0  0
   -2.2473   -0.6520    1.4973 C   0  0  0  0  0  0  0  0  0  0  0  0
   -2.4571    0.7345    1.3084 N   0  0  0  0  0  0  0  0  0  0  0  0
   -2.8569    1.6277    2.3119 C   0  0  0  0  0  0  0  0  0  0  0  0
   -1.9578    1.8043    3.2767 N   0  0  0  0  0  0  0  0  0  0  0  0
   -2.3576    2.5172    4.3077 C   0  0  0  0  0  0  0  0  0  0  0  0
   -3.5501    3.0512    4.4483 N   0  0  0  0  0  0  0  0  0  0  0  0
   -4.3930    2.8580    3.4387 C   0  0  0  0  0  0  0  0  0  0  0  0
   -4.0880    2.1573    2.3354 N   0  0  0  0  0  0  0  0  0  0  0  0
   -5.6872    3.3527    3.6048 N   0  0  0  0  0  0  0  0  0  0  0  0
   -6.1909    4.1126    4.6795 C   0  0  0  0  0  0  0  0  0  0  0  0
   -5.5507    5.3209    4.9980 C   0  0  0  0  0  0  0  0  0  0  0  0
   -6.0552    6.2042    5.9576 C   0  0  0  0  0  0  0  0  0  0  0  0
   -7.2094    5.9117    6.6738 C   0  0  0  0  0  0  0  0  0  0  0  0
   -7.8413    4.6809    6.3839 C   0  0  0  0  0  0  0  0  0  0  0  0
   -7.3199    3.7544    5.4355 C   0  0  0  0  0  0  0  0  0  0  0  0
   -7.9880    2.5468    5.3846 O   0  0  0  0  0  0  0  0  0  0  0  0
   -7.3546    1.4539    4.7136 C   0  0  0  0  0  0  0  0  0  0  0  0
   -7.6463    6.7803    7.6507 N   0  0  0  0  0  0  0  0  0  0  0  0
   -7.6914    6.3834    9.0397 C   0  0  0  0  0  0  0  0  0  0  0  0
   -9.1059    6.5721    9.5056 C   0  0  0  0  0  0  0  0  0  0  0  0
   -9.8006    7.8971    9.1558 C   0  0  0  0  0  0  0  0  0  0  0  0
   -9.4268    8.4014    7.7428 C   0  0  0  0  0  0  0  0  0  0  0  0
   -7.9480    8.1909    7.4245 C   0  0  0  0  0  0  0  0  0  0  0  0
  -11.2784    7.8958    9.3568 N   0  0  0  0  0  0  0  0  0  0  0  0
  -11.6856    7.5004   10.7255 C   0  0  0  0  0  0  0  0  0  0  0  0
  -11.6915    5.9759   11.0026 C   0  0  0  0  0  0  0  0  0  0  0  0
  -12.4531    5.2037   10.0045 N   0  0  0  0  0  0  0  0  0  0  0  0
  -12.0590    5.5512    8.6267 C   0  0  0  0  0  0  0  0  0  0  0  0
  -12.0470    7.0757    8.3872 C   0  0  0  0  0  0  0  0  0  0  0  0
  -12.2423    3.7780   10.2300 C   0  0  0  0  0  0  0  0  0  0  0  0
    0.7179   -0.3877    1.0204 H   0  0  0  0  0  0  0  0  0  0  0  0
    0.6869    0.9619   -0.1257 H   0  0  0  0  0  0  0  0  0  0  0  0
    2.1274   -0.0574    0.0101 H   0  0  0  0  0  0  0  0  0  0  0  0
    0.8189   -0.6229   -2.0356 H   0  0  0  0  0  0  0  0  0  0  0  0
    0.7602   -2.8214    0.0995 H   0  0  0  0  0  0  0  0  0  0  0  0
    0.6904   -3.0807   -1.6508 H   0  0  0  0  0  0  0  0  0  0  0  0
    2.1396   -2.3971   -0.8993 H   0  0  0  0  0  0  0  0  0  0  0  0
   -1.5997   -3.6164   -0.1103 H   0  0  0  0  0  0  0  0  0  0  0  0
   -1.9979   -4.5153    2.1552 H   0  0  0  0  0  0  0  0  0  0  0  0
   -2.4597   -2.9568    4.0332 H   0  0  0  0  0  0  0  0  0  0  0  0
   -2.5233   -0.5735    3.6578 H   0  0  0  0  0  0  0  0  0  0  0  0
   -2.7122    1.0247    0.3665 H   0  0  0  0  0  0  0  0  0  0  0  0
   -1.6532    2.6558    5.1157 H   0  0  0  0  0  0  0  0  0  0  0  0
   -6.3249    3.1374    2.8555 H   0  0  0  0  0  0  0  0  0  0  0  0
   -4.6349    5.5916    4.4807 H   0  0  0  0  0  0  0  0  0  0  0  0
   -5.5173    7.1259    6.1566 H   0  0  0  0  0  0  0  0  0  0  0  0
   -8.7807    4.4396    6.8799 H   0  0  0  0  0  0  0  0  0  0  0  0
   -7.4046    1.5976    3.6309 H   0  0  0  0  0  0  0  0  0  0  0  0
   -6.3267    1.2825    5.0578 H   0  0  0  0  0  0  0  0  0  0  0  0
   -7.9121    0.5330    4.9120 H   0  0  0  0  0  0  0  0  0  0  0  0
   -7.0307    7.0005    9.6579 H   0  0  0  0  0  0  0  0  0  0  0  0
   -7.4137    5.3340    9.1996 H   0  0  0  0  0  0  0  0  0  0  0  0
   -9.0987    6.4193   10.5834 H   0  0  0  0  0  0  0  0  0  0  0  0
   -9.6179    5.7584    9.0223 H   0  0  0  0  0  0  0  0  0  0  0  0
   -9.3996    8.6478    9.8560 H   0  0  0  0  0  0  0  0  0  0  0  0
   -9.9714    7.8561    6.9700 H   0  0  0  0  0  0  0  0  0  0  0  0
   -9.7039    9.4584    7.6411 H   0  0  0  0  0  0  0  0  0  0  0  0
   -7.7522    8.4992    6.3943 H   0  0  0  0  0  0  0  0  0  0  0  0
   -7.3423    8.8164    8.0917 H   0  0  0  0  0  0  0  0  0  0  0  0
  -12.7087    7.8656   10.8945 H   0  0  0  0  0  0  0  0  0  0  0  0
  -11.0710    8.0231   11.4700 H   0  0  0  0  0  0  0  0  0  0  0  0
  -12.0872    5.8065   12.0102 H   0  0  0  0  0  0  0  0  0  0  0  0
  -10.6813    5.5740   11.0587 H   0  0  0  0  0  0  0  0  0  0  0  0
  -11.1052    5.0943    8.3576 H   0  0  0  0  0  0  0  0  0  0  0  0
  -12.7457    5.0931    7.9072 H   0  0  0  0  0  0  0  0  0  0  0  0
  -13.0893    7.4195    8.4157 H   0  0  0  0  0  0  0  0  0  0  0  0
  -11.7487    7.2706    7.3552 H   0  0  0  0  0  0  0  0  0  0  0  0
  -12.8153    3.1948    9.5045 H   0  0  0  0  0  0  0  0  0  0  0  0
  -11.1845    3.4974   10.1430 H   0  0  0  0  0  0  0  0  0  0  0  0
  -12.5907    3.5053   11.2301 H   0  0  0  0  0  0  0  0  0  0  0  0
  1  2  1  0  0  0  0
  1 42  1  0  0  0  0
  1 43  1  0  0  0  0
  1 44  1  0  0  0  0
  2  3  1  0  0  0  0
  2  4  1  0  0  0  0
  2 45  1  0  0  0  0
  3 46  1  0  0  0  0
  3 47  1  0  0  0  0
  3 48  1  0  0  0  0
  4  5  2  0  0  0  0
  4  6  2  0  0  0  0
  4  7  1  0  0  0  0
  7  8  2  0  0  0  0
  7 12  1  0  0  0  0
  8  9  1  0  0  0  0
  8 49  1  0  0  0  0
  9 10  2  0  0  0  0
  9 50  1  0  0  0  0
 10 11  1  0  0  0  0
 10 51  1  0  0  0  0
 11 12  2  0  0  0  0
 11 52  1  0  0  0  0
 12 13  1  0  0  0  0
 13 14  1  0  0  0  0
 13 53  1  0  0  0  0
 14 15  2  0  0  0  0
 14 19  1  0  0  0  0
 15 16  1  0  0  0  0
 16 17  2  0  0  0  0
 16 54  1  0  0  0  0
 17 18  1  0  0  0  0
 18 19  2  0  0  0  0
 18 20  1  0  0  0  0
 20 21  1  0  0  0  0
 20 55  1  0  0  0  0
 21 22  2  0  0  0  0
 21 26  1  0  0  0  0
 22 23  1  0  0  0  0
 22 56  1  0  0  0  0
 23 24  2  0  0  0  0
 23 57  1  0  0  0  0
 24 25  1  0  0  0  0
 24 29  1  0  0  0  0
 25 26  2  0  0  0  0
 25 58  1  0  0  0  0
 26 27  1  0  0  0  0
 27 28  1  0  0  0  0
 28 59  1  0  0  0  0
 28 60  1  0  0  0  0
 28 61  1  0  0  0  0
 29 30  1  0  0  0  0
 29 34  1  0  0  0  0
 30 31  1  0  0  0  0
 30 62  1  0  0  0  0
 30 63  1  0  0  0  0
 31 32  1  0  0  0  0
 31 64  1  0  0  0  0
 31 65  1  0  0  0  0
 32 33  1  0  0  0  0
 32 35  1  0  0  0  0
 32 66  1  0  0  0  0
 33 34  1  0  0  0  0
 33 67  1  0  0  0  0
 33 68  1  0  0  0  0
 34 69  1  0  0  0  0
 34 70  1  0  0  0  0
 35 36  1  0  0  0  0
 35 40  1  0  0  0  0
 36 37  1  0  0  0  0
 36 71  1  0  0  0  0
 36 72  1  0  0  0  0
 37 38  1  0  0  0  0
 37 73  1  0  0  0  0
 37 74  1  0  0  0  0
 38 39  1  0  0  0  0
 38 41  1  0  0  0  0
 39 40  1  0  0  0  0
 39 75  1  0  0  0  0
 39 76  1  0  0  0  0
 40 77  1  0  0  0  0
 40 78  1  0  0  0  0
 41 79  1  0  0  0  0
 41 80  1  0  0  0  0
 41 81  1  0  0  0  0
M  END
>  <DRUGBANK_ID>
DB12729

>  <COMMON_NAME>
ASP-3026

>  <CAS_NUMBER>
1097917-15-1

>  <UNII>
HP4L6MXF10

$$$$
