
 OpenBabel10282417153D

 36 36  0  0  0  0  0  0  0  0999 V2000
    0.9413   -0.0340   -0.0735 C   0  0  0  0  0  0  0  0  0  0  0  0
    0.3313   -0.4608    1.5983 P   0  0  0  0  0  0  0  0  0  0  0  0
    0.3313    1.6271   -0.5398 P   0  0  0  0  0  0  0  0  0  0  0  0
    0.3585   -1.1751   -0.9114 N   0  0  0  0  0  0  0  0  0  0  0  0
    1.5145    0.2978    2.1945 O   0  0  0  0  0  0  0  0  0  0  0  0
    1.3954    1.7571   -1.6362 O   0  0  0  0  0  0  0  0  0  0  0  0
   -0.9470    0.5628    1.4846 O   0  0  0  0  0  0  0  0  0  0  0  0
   -0.9596    0.9498   -1.3220 O   0  0  0  0  0  0  0  0  0  0  0  0
   -0.2454    3.1974   -0.9806 O   0  0  0  0  0  0  0  0  0  0  0  0
   -0.2454   -0.8642    3.1787 O   0  0  0  0  0  0  0  0  0  0  0  0
    1.0662   -2.4595   -0.6462 C   0  0  0  0  0  0  0  0  0  0  0  0
    0.5636   -3.5583   -1.6123 C   0  0  0  0  0  0  0  0  0  0  0  0
    1.0571   -3.0349    0.7920 C   0  0  0  0  0  0  0  0  0  0  0  0
    1.1618   -4.9395   -1.2657 C   0  0  0  0  0  0  0  0  0  0  0  0
   -0.2184   -3.7846    1.1822 C   0  0  0  0  0  0  0  0  0  0  0  0
    0.3029   -5.7847   -0.3030 C   0  0  0  0  0  0  0  0  0  0  0  0
    0.1039   -5.2678    1.1251 C   0  0  0  0  0  0  0  0  0  0  0  0
    2.0358   -0.0813   -0.1266 H   0  0  0  0  0  0  0  0  0  0  0  0
   -0.6437   -1.2609   -0.7278 H   0  0  0  0  0  0  0  0  0  0  0  0
   -1.5691    0.5230    0.7389 H   0  0  0  0  0  0  0  0  0  0  0  0
   -0.5724    0.4392   -2.0767 H   0  0  0  0  0  0  0  0  0  0  0  0
   -0.0216    3.2983   -1.9265 H   0  0  0  0  0  0  0  0  0  0  0  0
   -0.1610   -1.8068    3.3957 H   0  0  0  0  0  0  0  0  0  0  0  0
    2.1175   -2.2778   -0.9015 H   0  0  0  0  0  0  0  0  0  0  0  0
   -0.5329   -3.6183   -1.6178 H   0  0  0  0  0  0  0  0  0  0  0  0
    0.8540   -3.2871   -2.6348 H   0  0  0  0  0  0  0  0  0  0  0  0
    1.9313   -3.6880    0.8880 H   0  0  0  0  0  0  0  0  0  0  0  0
    1.3342   -2.3513    1.5801 H   0  0  0  0  0  0  0  0  0  0  0  0
    1.2708   -5.5082   -2.1948 H   0  0  0  0  0  0  0  0  0  0  0  0
    2.1804   -4.8294   -0.8720 H   0  0  0  0  0  0  0  0  0  0  0  0
   -1.0865   -3.5364    0.5578 H   0  0  0  0  0  0  0  0  0  0  0  0
   -0.5135   -3.5294    2.2056 H   0  0  0  0  0  0  0  0  0  0  0  0
   -0.6858   -5.9217   -0.7541 H   0  0  0  0  0  0  0  0  0  0  0  0
    0.7553   -6.7804   -0.2263 H   0  0  0  0  0  0  0  0  0  0  0  0
   -0.6881   -5.8411    1.6199 H   0  0  0  0  0  0  0  0  0  0  0  0
    1.0123   -5.4520    1.7161 H   0  0  0  0  0  0  0  0  0  0  0  0
  1 18  1  0  0  0  0
  2  1  1  0  0  0  0
  3  1  1  0  0  0  0
  4  1  1  0  0  0  0
  4 19  1  0  0  0  0
  5  2  2  0  0  0  0
  6  3  2  0  0  0  0
  7  2  1  0  0  0  0
  7 20  1  0  0  0  0
  8  3  1  0  0  0  0
  8 21  1  0  0  0  0
  9  3  1  0  0  0  0
  9 22  1  0  0  0  0
 10  2  1  0  0  0  0
 10 23  1  0  0  0  0
 11  4  1  0  0  0  0
 11 24  1  0  0  0  0
 12 11  1  0  0  0  0
 12 25  1  0  0  0  0
 12 26  1  0  0  0  0
 13 11  1  0  0  0  0
 13 27  1  0  0  0  0
 13 28  1  0  0  0  0
 14 12  1  0  0  0  0
 14 29  1  0  0  0  0
 14 30  1  0  0  0  0
 15 13  1  0  0  0  0
 15 31  1  0  0  0  0
 15 32  1  0  0  0  0
 16 14  1  0  0  0  0
 16 17  1  0  0  0  0
 16 33  1  0  0  0  0
 16 34  1  0  0  0  0
 17 15  1  0  0  0  0
 17 35  1  0  0  0  0
 17 36  1  0  0  0  0
M  END
>  <DRUGBANK_ID>
DB06255

>  <COMMON_NAME>
Incadronic acid

>  <CAS_NUMBER>
124351-85-5

>  <UNII>
G5C4M8847E

>  <SYNONYMS>
Cimadronate; Incadronate; Incadronic acid

$$$$
