8NH
 OpenBabel10282417163D

 33 35  0  0  0  0  0  0  0  0999 V2000
    1.1204    0.0342    0.0669 Cl  0  0  0  0  0  0  0  0  0  0  0  0
    2.8673    0.0681    0.0394 C   0  0  0  0  0  0  0  0  0  0  0  0
    3.5667    1.3281    0.1001 C   0  0  0  0  0  0  0  0  0  0  0  0
    4.9558    1.4173   -0.1646 C   0  0  0  0  0  0  0  0  0  0  0  0
    5.5922    0.1853   -0.4188 C   0  0  0  0  0  0  0  0  0  0  0  0
    4.9420   -1.0640   -0.1976 C   0  0  0  0  0  0  0  0  0  0  0  0
    3.5560   -1.1403   -0.0621 C   0  0  0  0  0  0  0  0  0  0  0  0
    2.8794   -2.4121   -0.0928 C   0  0  0  0  0  0  0  0  0  0  0  0
    2.3169   -3.4369   -0.1550 N   0  0  0  0  0  0  0  0  0  0  0  0
    5.7030    2.6749   -0.1863 N   0  0  0  0  0  0  0  0  0  0  0  0
    5.9762    3.5279    0.9003 C   0  0  0  0  0  0  0  0  0  0  0  0
    6.8510    4.5295    0.4376 N   0  0  0  0  0  0  0  0  0  0  0  0
    6.7366    4.6492   -0.9726 C   0  0  1  0  0  0  0  0  0  0  0  0
    8.0392    5.2160   -1.5083 C   0  0  1  0  0  0  0  0  0  0  0  0
    8.9287    5.4648   -0.2884 C   0  0  0  0  0  0  0  0  0  0  0  0
    8.1264    5.0332    0.9510 C   0  0  0  0  0  0  0  0  0  0  0  0
    8.7425    4.3503   -2.3834 O   0  0  0  0  0  0  0  0  0  0  0  0
    6.2552    3.2407   -1.3280 C   0  0  0  0  0  0  0  0  0  0  0  0
    6.2304    2.8091   -2.4734 O   0  0  0  0  0  0  0  0  0  0  0  0
    5.5225    3.4991    2.0338 O   0  0  0  0  0  0  0  0  0  0  0  0
    2.7667    2.5487    0.4326 C   0  0  0  0  0  0  0  0  0  0  0  0
    5.9190    5.3696   -1.1124 H   0  0  0  0  0  0  0  0  0  0  0  0
    7.8624    6.1645   -2.0331 H   0  0  0  0  0  0  0  0  0  0  0  0
    6.6186    0.1494   -0.7778 H   0  0  0  0  0  0  0  0  0  0  0  0
    5.5317   -1.9809   -0.1400 H   0  0  0  0  0  0  0  0  0  0  0  0
    9.2098    6.5249   -0.2308 H   0  0  0  0  0  0  0  0  0  0  0  0
    9.8682    4.9032   -0.3717 H   0  0  0  0  0  0  0  0  0  0  0  0
    8.6774    4.2682    1.5092 H   0  0  0  0  0  0  0  0  0  0  0  0
    7.9582    5.8969    1.6030 H   0  0  0  0  0  0  0  0  0  0  0  0
    8.3523    4.4368   -3.2724 H   0  0  0  0  0  0  0  0  0  0  0  0
    1.9833    2.7035   -0.3130 H   0  0  0  0  0  0  0  0  0  0  0  0
    2.3324    2.4205    1.4295 H   0  0  0  0  0  0  0  0  0  0  0  0
    3.3804    3.4451    0.4475 H   0  0  0  0  0  0  0  0  0  0  0  0
  1  2  1  0  0  0  0
  2  7  2  0  0  0  0
  2  3  1  0  0  0  0
  3  4  2  0  0  0  0
  3 21  1  0  0  0  0
  4  5  1  0  0  0  0
  4 10  1  0  0  0  0
  5  6  2  0  0  0  0
  5 24  1  0  0  0  0
  6  7  1  0  0  0  0
  6 25  1  0  0  0  0
  7  8  1  0  0  0  0
  8  9  3  0  0  0  0
 10 11  1  0  0  0  0
 10 18  1  0  0  0  0
 11 20  2  0  0  0  0
 11 12  1  0  0  0  0
 12 16  1  0  0  0  0
 12 13  1  0  0  0  0
 13 14  1  0  0  0  0
 13 18  1  0  0  0  0
 13 22  1  6  0  0  0
 14 15  1  0  0  0  0
 14 23  1  6  0  0  0
 14 17  1  0  0  0  0
 15 16  1  0  0  0  0
 15 26  1  0  0  0  0
 15 27  1  0  0  0  0
 16 28  1  0  0  0  0
 16 29  1  0  0  0  0
 17 30  1  0  0  0  0
 18 19  2  0  0  0  0
 21 31  1  0  0  0  0
 21 32  1  0  0  0  0
 21 33  1  0  0  0  0
M  END
>  <DRUGBANK_ID>
DB07286

>  <COMMON_NAME>
BMS-564929

>  <CAS_NUMBER>
627530-84-1

>  <UNII>
9BLW27W4X7

$$$$
