
 OpenBabel10282417133D

 19 19  0  0  0  0  0  0  0  0999 V2000
    0.9689    0.0723    0.0617 N   0  0  0  0  0  0  0  0  0  0  0  0
    0.2339    0.4954    1.2624 C   0  0  0  0  0  0  0  0  0  0  0  0
    0.6066    1.6612    1.9877 C   0  0  0  0  0  0  0  0  0  0  0  0
    0.0295    1.9044    3.2449 C   0  0  0  0  0  0  0  0  0  0  0  0
   -1.0207    1.2347    3.6193 C   0  0  0  0  0  0  0  0  0  0  0  0
   -1.5846    0.2775    2.7654 C   0  0  0  0  0  0  0  0  0  0  0  0
   -0.8474   -0.1844    1.6480 C   0  0  0  0  0  0  0  0  0  0  0  0
   -1.4408   -1.8950    0.6243 Hg  0  0  0  0  0  0  0  0  0  0  0  0
   -1.7548    1.5397    5.2454 S   0  0  0  0  0  0  0  0  0  0  0  0
   -0.5657    1.2027    6.4984 N   0  0  0  0  0  0  0  0  0  0  0  0
   -2.1950    3.0024    5.3401 O   0  0  0  0  0  0  0  0  0  0  0  0
   -2.9692    0.6281    5.4360 O   0  0  0  0  0  0  0  0  0  0  0  0
    0.4589   -0.2212   -0.7715 H   0  0  0  0  0  0  0  0  0  0  0  0
    1.9889    0.0723    0.0617 H   0  0  0  0  0  0  0  0  0  0  0  0
    1.3198    2.3463    1.5793 H   0  0  0  0  0  0  0  0  0  0  0  0
    0.4540    2.6408    3.8948 H   0  0  0  0  0  0  0  0  0  0  0  0
   -2.5665   -0.1024    2.9566 H   0  0  0  0  0  0  0  0  0  0  0  0
   -0.9794    1.3745    7.4148 H   0  0  0  0  0  0  0  0  0  0  0  0
   -0.2723    0.2278    6.4353 H   0  0  0  0  0  0  0  0  0  0  0  0
  1  2  1  0  0  0  0
  1 13  1  0  0  0  0
  1 14  1  0  0  0  0
  2  3  2  0  0  0  0
  2  7  1  0  0  0  0
  3  4  1  0  0  0  0
  3 15  1  0  0  0  0
  4  5  2  0  0  0  0
  4 16  1  0  0  0  0
  5  6  1  0  0  0  0
  5  9  1  0  0  0  0
  6  7  2  0  0  0  0
  6 17  1  0  0  0  0
  7  8  1  0  0  0  0
  9 10  1  0  0  0  0
  9 11  2  0  0  0  0
  9 12  2  0  0  0  0
 10 18  1  0  0  0  0
 10 19  1  0  0  0  0
M  END
>  <DRUGBANK_ID>
DB04203

>  <SECONDARY_ACCESSION_NUMBERS>
EXPT00515

>  <COMMON_NAME>
3-Mercuri-4-Aminobenzenesulfonamide

$$$$
