
 OpenBabel10282417113D

 31 30  0  0  0  0  0  0  0  0999 V2000
   -1.8770    0.0420   -0.0140 C   0  0  0  0  0  0  0  0  0  0  0  0
   -1.2260   -1.1720   -0.0010 C   0  0  0  0  0  0  0  0  0  0  0  0
    0.1710   -1.2410    0.0150 C   0  0  0  0  0  0  0  0  0  0  0  0
    0.8850   -0.0250   -0.0010 C   0  0  0  0  0  0  0  0  0  0  0  0
    0.2240    1.1800    0.0160 C   0  0  0  0  0  0  0  0  0  0  0  0
   -1.1570    1.2120    0.0000 C   0  0  0  0  0  0  0  0  0  0  0  0
    1.0132    2.4785    0.0524 C   0  0  0  0  0  0  0  0  0  0  0  0
    0.4026    3.5930    0.0682 O   0  0  0  0  0  0  0  0  0  0  0  0
    2.4328    2.4464    0.0689 O   0  5  0  0  0  0  0  0  0  0  0  0
    2.2370    0.0050   -0.0110 O   0  0  0  0  0  0  0  0  0  0  0  0
   -1.8770    0.0420   -0.0140 C   0  0  0  0  0  0  0  0  0  0  0  0
   -1.2260   -1.1720   -0.0010 C   0  0  0  0  0  0  0  0  0  0  0  0
    0.1710   -1.2410    0.0150 C   0  0  0  0  0  0  0  0  0  0  0  0
    0.8850   -0.0250   -0.0010 C   0  0  0  0  0  0  0  0  0  0  0  0
    0.2240    1.1800    0.0160 C   0  0  0  0  0  0  0  0  0  0  0  0
   -1.1570    1.2120    0.0000 C   0  0  0  0  0  0  0  0  0  0  0  0
    1.0132    2.4785    0.0524 C   0  0  0  0  0  0  0  0  0  0  0  0
    0.4026    3.5930    0.0682 O   0  0  0  0  0  0  0  0  0  0  0  0
    2.4328    2.4464    0.0689 O   0  5  0  0  0  0  0  0  0  0  0  0
    2.2370    0.0050   -0.0110 O   0  0  0  0  0  0  0  0  0  0  0  0
    3.7173    1.8230   -0.7029 Mg  0  2  0  0  0  0  0  0  0  0  0  0
   -2.9463    0.0738   -0.0351 H   0  0  0  0  0  0  0  0  0  0  0  0
   -1.7979   -2.0763   -0.0032 H   0  0  0  0  0  0  0  0  0  0  0  0
    0.6794   -2.1822    0.0385 H   0  0  0  0  0  0  0  0  0  0  0  0
   -1.6681    2.1520   -0.0015 H   0  0  0  0  0  0  0  0  0  0  0  0
    2.7560   -0.8497   -0.0234 H   0  0  0  0  0  0  0  0  0  0  0  0
   -2.9463    0.0738   -0.0351 H   0  0  0  0  0  0  0  0  0  0  0  0
   -1.7979   -2.0763   -0.0032 H   0  0  0  0  0  0  0  0  0  0  0  0
    0.6794   -2.1822    0.0385 H   0  0  0  0  0  0  0  0  0  0  0  0
   -1.6681    2.1520   -0.0015 H   0  0  0  0  0  0  0  0  0  0  0  0
    2.7560   -0.8497   -0.0234 H   0  0  0  0  0  0  0  0  0  0  0  0
  1  2  2  0  0  0  0
  1  6  1  0  0  0  0
  1 22  1  0  0  0  0
  2  3  1  0  0  0  0
  2 23  1  0  0  0  0
  3  4  2  0  0  0  0
  3 24  1  0  0  0  0
  4  5  1  0  0  0  0
  4 10  1  0  0  0  0
  5  6  2  0  0  0  0
  5  7  1  0  0  0  0
  6 25  1  0  0  0  0
  7  8  2  0  0  0  0
  7  9  1  0  0  0  0
 10 26  1  0  0  0  0
 11 12  2  0  0  0  0
 11 16  1  0  0  0  0
 11 27  1  0  0  0  0
 12 13  1  0  0  0  0
 12 28  1  0  0  0  0
 13 14  2  0  0  0  0
 13 29  1  0  0  0  0
 14 15  1  0  0  0  0
 14 20  1  0  0  0  0
 15 16  2  0  0  0  0
 15 17  1  0  0  0  0
 16 30  1  0  0  0  0
 17 18  2  0  0  0  0
 17 19  1  0  0  0  0
 20 31  1  0  0  0  0
M  CHG  3   9  -1  19  -1  21   2
M  END
>  <DRUGBANK_ID>
DB01397

>  <COMMON_NAME>
Magnesium salicylate

>  <CAS_NUMBER>
18917-89-0

>  <UNII>
JQ69D454N1

>  <SYNONYMS>
Magnesium salicylate; Magnesium salicylate anhydrous

$$$$
