
 OpenBabel10282417233D

 53 57  0  0  0  0  0  0  0  0999 V2000
    2.2166   -0.1996    0.0609 F   0  0  0  0  0  0  0  0  0  0  0  0
    0.8905   -0.0511   -0.0087 C   0  0  0  0  0  0  0  0  0  0  0  0
    0.2752    1.2034   -0.0565 C   0  0  0  0  0  0  0  0  0  0  0  0
   -1.1428    1.2372   -0.0296 C   0  0  0  0  0  0  0  0  0  0  0  0
   -1.8964    0.0367    0.0128 C   0  0  0  0  0  0  0  0  0  0  0  0
   -3.4169    0.0087    0.0048 C   0  0  0  0  0  0  0  0  0  0  0  0
   -3.9553   -0.6902   -1.2514 C   0  0  0  0  0  0  0  0  0  0  0  0
   -3.6988   -1.9601   -1.3957 N   0  0  0  0  0  0  0  0  0  0  0  0
   -3.9988   -2.5619   -2.5766 N   0  0  0  0  0  0  0  0  0  0  0  0
   -4.4726   -1.9257   -3.6947 C   0  0  0  0  0  0  0  0  0  0  0  0
   -4.5847   -2.4947   -4.7794 O   0  0  0  0  0  0  0  0  0  0  0  0
   -4.8864   -0.5256   -3.5100 C   0  0  0  0  0  0  0  0  0  0  0  0
   -5.5284    0.1608   -4.5445 C   0  0  0  0  0  0  0  0  0  0  0  0
   -6.0098    1.4503   -4.3230 C   0  0  0  0  0  0  0  0  0  0  0  0
   -5.8510    2.0499   -3.0754 C   0  0  0  0  0  0  0  0  0  0  0  0
   -5.1841    1.3757   -2.0530 C   0  0  0  0  0  0  0  0  0  0  0  0
   -4.6835    0.0890   -2.2753 C   0  0  0  0  0  0  0  0  0  0  0  0
   -1.2181   -1.1890    0.0430 C   0  0  0  0  0  0  0  0  0  0  0  0
    0.1623   -1.2301    0.0189 C   0  0  0  0  0  0  0  0  0  0  0  0
    1.1027    2.4684   -0.0145 C   0  0  0  0  0  0  0  0  0  0  0  0
    0.5372    3.5518    0.1064 O   0  0  0  0  0  0  0  0  0  0  0  0
    2.4758    2.2911    0.0582 N   0  0  0  0  0  0  0  0  0  0  0  0
    3.4352    1.9394   -0.9997 C   0  0  0  0  0  0  0  0  0  0  0  0
    4.3495    3.0511   -0.4476 C   0  0  0  0  0  0  0  0  0  0  0  0
    5.8537    2.7797   -0.3297 C   0  0  0  0  0  0  0  0  0  0  0  0
    6.4806    2.6998   -1.6617 N   0  0  0  0  0  0  0  0  0  0  0  0
    7.9418    2.5178   -1.5910 C   0  0  0  0  0  0  0  0  0  0  0  0
    8.8485    3.3408   -2.4666 C   0  0  0  0  0  0  0  0  0  0  0  0
    8.6434    1.8859   -2.7659 C   0  0  0  0  0  0  0  0  0  0  0  0
    3.4945    2.9877    0.8365 C   0  0  0  0  0  0  0  0  0  0  0  0
   -1.6620    2.1963   -0.0184 H   0  0  0  0  0  0  0  0  0  0  0  0
   -3.7854   -0.5387    0.8828 H   0  0  0  0  0  0  0  0  0  0  0  0
   -3.7886    1.0261    0.1144 H   0  0  0  0  0  0  0  0  0  0  0  0
   -3.7090   -3.5303   -2.6794 H   0  0  0  0  0  0  0  0  0  0  0  0
   -5.6688   -0.3148   -5.5128 H   0  0  0  0  0  0  0  0  0  0  0  0
   -6.5244    1.9825   -5.1186 H   0  0  0  0  0  0  0  0  0  0  0  0
   -6.2486    3.0458   -2.8925 H   0  0  0  0  0  0  0  0  0  0  0  0
   -5.0983    1.8803   -1.0975 H   0  0  0  0  0  0  0  0  0  0  0  0
   -1.7609   -2.1324    0.0689 H   0  0  0  0  0  0  0  0  0  0  0  0
    0.6882   -2.1778    0.0334 H   0  0  0  0  0  0  0  0  0  0  0  0
    3.8293    0.9266   -0.8728 H   0  0  0  0  0  0  0  0  0  0  0  0
    3.1098    2.0874   -2.0311 H   0  0  0  0  0  0  0  0  0  0  0  0
    4.2010    4.0065   -0.9698 H   0  0  0  0  0  0  0  0  0  0  0  0
    6.3204    3.6027    0.2263 H   0  0  0  0  0  0  0  0  0  0  0  0
    6.0510    1.8547    0.2269 H   0  0  0  0  0  0  0  0  0  0  0  0
    6.0658    1.9217   -2.1750 H   0  0  0  0  0  0  0  0  0  0  0  0
    8.3391    2.2705   -0.6083 H   0  0  0  0  0  0  0  0  0  0  0  0
    8.4220    4.0660   -3.1492 H   0  0  0  0  0  0  0  0  0  0  0  0
    9.8020    3.6469   -2.0485 H   0  0  0  0  0  0  0  0  0  0  0  0
    9.4628    1.2047   -2.5662 H   0  0  0  0  0  0  0  0  0  0  0  0
    8.0610    1.6221   -3.6413 H   0  0  0  0  0  0  0  0  0  0  0  0
    3.2229    3.9435    1.2852 H   0  0  0  0  0  0  0  0  0  0  0  0
    3.8580    2.3069    1.6177 H   0  0  0  0  0  0  0  0  0  0  0  0
  1  2  1  0  0  0  0
  2  3  2  0  0  0  0
  2 19  1  0  0  0  0
  3  4  1  0  0  0  0
  3 20  1  0  0  0  0
  4  5  2  0  0  0  0
  4 31  1  0  0  0  0
  5  6  1  0  0  0  0
  5 18  1  0  0  0  0
  6  7  1  0  0  0  0
  6 32  1  0  0  0  0
  6 33  1  0  0  0  0
  7  8  2  0  0  0  0
  7 17  1  0  0  0  0
  8  9  1  0  0  0  0
  9 10  1  0  0  0  0
  9 34  1  0  0  0  0
 10 11  2  0  0  0  0
 10 12  1  0  0  0  0
 12 13  2  0  0  0  0
 12 17  1  0  0  0  0
 13 14  1  0  0  0  0
 13 35  1  0  0  0  0
 14 15  2  0  0  0  0
 14 36  1  0  0  0  0
 15 16  1  0  0  0  0
 15 37  1  0  0  0  0
 16 17  2  0  0  0  0
 16 38  1  0  0  0  0
 18 19  2  0  0  0  0
 18 39  1  0  0  0  0
 19 40  1  0  0  0  0
 20 21  2  0  0  0  0
 20 22  1  0  0  0  0
 22 23  1  0  0  0  0
 22 30  1  0  0  0  0
 23 24  1  0  0  0  0
 23 41  1  0  0  0  0
 23 42  1  0  0  0  0
 24 25  1  0  0  0  0
 24 30  1  0  0  0  0
 24 43  1  0  0  0  0
 25 26  1  0  0  0  0
 25 44  1  0  0  0  0
 25 45  1  0  0  0  0
 26 27  1  0  0  0  0
 26 46  1  0  0  0  0
 27 28  1  0  0  0  0
 27 29  1  0  0  0  0
 27 47  1  0  0  0  0
 28 29  1  0  0  0  0
 28 48  1  0  0  0  0
 28 49  1  0  0  0  0
 29 50  1  0  0  0  0
 29 51  1  0  0  0  0
 30 52  1  0  0  0  0
 30 53  1  0  0  0  0
M  END
>  <DRUGBANK_ID>
DB17105

>  <COMMON_NAME>
Venadaparib

>  <CAS_NUMBER>
1681017-83-3

>  <UNII>
PUP792O0IW

>  <SYNONYMS>
1(2h)-phthalazinone, 4-((3-((3-((cyclopropylamino)methyl)-1-azetidinyl)carbonyl)-4-fluorophenyl)methyl)-; 4-((3-((3-((cyclopropylamino)methyl)-1-azetidinyl)carbonyl)-4-fluorophenyl)methyl)-1(2h)-phthalazinone

$$$$
