
 OpenBabel10282417173D

 31 33  0  0  0  0  0  0  0  0999 V2000
    1.9691    1.0990    0.0197 C   0  0  0  0  0  0  0  0  0  0  0  0
    2.2504   -0.2782    0.0211 C   0  0  0  0  0  0  0  0  0  0  0  0
    0.6393    1.6098    0.0058 C   0  0  0  0  0  0  0  0  0  0  0  0
    1.2052   -1.1761   -0.0138 C   0  0  0  0  0  0  0  0  0  0  0  0
   -3.8019   -1.9745    1.3400 C   0  0  0  0  0  0  0  0  0  0  0  0
   -3.1918   -3.3694    1.2294 C   0  0  0  0  0  0  0  0  0  0  0  0
   -0.4032    0.6831   -0.0303 C   0  0  0  0  0  0  0  0  0  0  0  0
   -0.0740   -0.6537   -0.0756 C   0  0  0  0  0  0  0  0  0  0  0  0
   -3.7121   -1.1699    0.0213 C   0  0  3  0  0  0  0  0  0  0  0  0
   -3.7813   -4.1489    0.0814 C   0  0  0  0  0  0  0  0  0  0  0  0
   -4.2904   -2.0389   -1.1295 C   0  0  0  0  0  0  0  0  0  0  0  0
   -1.9068    0.7104   -0.0573 C   0  0  0  0  0  0  0  0  0  0  0  0
   -1.2678   -1.4148   -0.3002 C   0  0  0  0  0  0  0  0  0  0  0  0
   -4.2782   -3.4114   -0.9659 N   0  0  0  0  0  0  0  0  0  0  0  0
   -2.3443   -0.6040   -0.1728 N   0  0  0  0  0  0  0  0  0  0  0  0
   -3.7932   -5.3771    0.0583 O   0  0  0  0  0  0  0  0  0  0  0  0
   -4.7384   -1.5590   -2.1709 O   0  0  0  0  0  0  0  0  0  0  0  0
   -2.5762    1.7220    0.0457 O   0  0  0  0  0  0  0  0  0  0  0  0
   -1.2058   -2.5929   -0.6160 O   0  0  0  0  0  0  0  0  0  0  0  0
    0.4690    2.9810    0.0053 N   0  0  0  0  0  0  0  0  0  0  0  0
    2.8221    1.7780    0.0163 H   0  0  0  0  0  0  0  0  0  0  0  0
    3.2739   -0.6475    0.0157 H   0  0  0  0  0  0  0  0  0  0  0  0
    1.3612   -2.2494   -0.0318 H   0  0  0  0  0  0  0  0  0  0  0  0
   -4.8532   -2.0937    1.6375 H   0  0  0  0  0  0  0  0  0  0  0  0
   -3.2998   -1.4195    2.1384 H   0  0  0  0  0  0  0  0  0  0  0  0
   -3.3259   -3.9294    2.1579 H   0  0  0  0  0  0  0  0  0  0  0  0
   -2.1140   -3.3353    1.1113 H   0  0  0  0  0  0  0  0  0  0  0  0
   -4.4129   -0.3263    0.1095 H   0  0  0  0  0  0  0  0  0  0  0  0
   -4.6553   -3.9577   -1.7313 H   0  0  0  0  0  0  0  0  0  0  0  0
   -0.4612    3.3836   -0.0146 H   0  0  0  0  0  0  0  0  0  0  0  0
    1.2663    3.6065   -0.0083 H   0  0  0  0  0  0  0  0  0  0  0  0
  1 21  1  0  0  0  0
  2  1  2  0  0  0  0
  2 22  1  0  0  0  0
  3  1  1  0  0  0  0
  3 20  1  0  0  0  0
  4  2  1  0  0  0  0
  4 23  1  0  0  0  0
  5 24  1  0  0  0  0
  5 25  1  0  0  0  0
  6  5  1  0  0  0  0
  6 26  1  0  0  0  0
  6 27  1  0  0  0  0
  7  3  2  0  0  0  0
  8  4  2  0  0  0  0
  8  7  1  0  0  0  0
  9  5  1  0  0  0  0
  9 28  1  0  0  0  0
 10  6  1  0  0  0  0
 11  9  1  0  0  0  0
 12  7  1  0  0  0  0
 13  8  1  0  0  0  0
 14 10  1  0  0  0  0
 14 11  1  0  0  0  0
 14 29  1  0  0  0  0
 15  9  1  0  0  0  0
 15 12  1  0  0  0  0
 15 13  1  0  0  0  0
 16 10  2  0  0  0  0
 17 11  2  0  0  0  0
 18 12  2  0  0  0  0
 19 13  2  0  0  0  0
 20 30  1  0  0  0  0
 20 31  1  0  0  0  0
M  END
>  <DRUGBANK_ID>
DB08910

>  <COMMON_NAME>
Pomalidomide

>  <CAS_NUMBER>
19171-19-8

>  <UNII>
D2UX06XLB5

>  <SYNONYMS>
Pomalidomida; Pomalidomide

$$$$
