
 OpenBabel10282417133D

 19 19  0  0  0  0  0  0  0  0999 V2000
    1.0094    0.0279    0.1219 N   0  0  0  0  0  0  0  0  0  0  0  0
    0.6175    0.3680   -1.2490 O   0  0  0  0  0  0  0  0  0  0  0  0
    0.9093    1.6726   -1.6083 C   0  0  0  0  0  0  0  0  0  0  0  0
    1.5887    2.4553   -0.9423 O   0  0  0  0  0  0  0  0  0  0  0  0
    0.4649    2.0046   -2.8731 N   0  0  0  0  0  0  0  0  0  0  0  0
   -0.4187    1.2362   -3.6495 C   0  0  0  0  0  0  0  0  0  0  0  0
   -1.4955    0.5908   -3.0366 C   0  0  0  0  0  0  0  0  0  0  0  0
   -2.3665   -0.2003   -3.7766 C   0  0  0  0  0  0  0  0  0  0  0  0
   -2.1843   -0.3295   -5.1486 C   0  0  0  0  0  0  0  0  0  0  0  0
   -1.1507    0.3631   -5.7823 C   0  0  0  0  0  0  0  0  0  0  0  0
   -0.2552    1.1383   -5.0335 C   0  0  0  0  0  0  0  0  0  0  0  0
    0.6775   -0.9360    0.1709 H   0  0  0  0  0  0  0  0  0  0  0  0
    2.0234   -0.0379    0.0219 H   0  0  0  0  0  0  0  0  0  0  0  0
    0.8355    2.8669   -3.2492 H   0  0  0  0  0  0  0  0  0  0  0  0
   -1.6874    0.7224   -1.9747 H   0  0  0  0  0  0  0  0  0  0  0  0
   -3.1883   -0.7013   -3.2740 H   0  0  0  0  0  0  0  0  0  0  0  0
   -2.8517   -0.9682   -5.7212 H   0  0  0  0  0  0  0  0  0  0  0  0
   -1.0430    0.2863   -6.8621 H   0  0  0  0  0  0  0  0  0  0  0  0
    0.5935    1.5932   -5.5388 H   0  0  0  0  0  0  0  0  0  0  0  0
  1  2  1  0  0  0  0
  1 12  1  0  0  0  0
  1 13  1  0  0  0  0
  2  3  1  0  0  0  0
  3  4  2  0  0  0  0
  3  5  1  0  0  0  0
  5  6  1  0  0  0  0
  5 14  1  0  0  0  0
  6  7  2  0  0  0  0
  6 11  1  0  0  0  0
  7  8  1  0  0  0  0
  7 15  1  0  0  0  0
  8  9  2  0  0  0  0
  8 16  1  0  0  0  0
  9 10  1  0  0  0  0
  9 17  1  0  0  0  0
 10 11  2  0  0  0  0
 10 18  1  0  0  0  0
 11 19  1  0  0  0  0
M  END
>  <DRUGBANK_ID>
DB04157

>  <SECONDARY_ACCESSION_NUMBERS>
EXPT02588

>  <COMMON_NAME>
N-[(Aminooxy)Carbonyl]Aniline

$$$$
