
 OpenBabel10282417223D

139140  0  0  1  0  0  0  0  0999 V2000
    6.0451  -12.8145  -12.3982 N   0  0  0  0  0  0  0  0  0  0  0  0
    6.8709  -13.0509  -11.2112 C   0  0  1  0  0  0  0  0  0  0  0  0
    6.2871  -12.3657   -9.9998 C   0  0  0  0  0  0  0  0  0  0  0  0
    4.9591  -12.8157   -9.4553 N   0  0  0  0  0  0  0  0  0  0  0  0
    4.7587  -13.6374   -8.3693 C   0  0  0  0  0  0  0  0  0  0  0  0
    3.7026  -13.8929   -7.7905 O   0  0  0  0  0  0  0  0  0  0  0  0
    5.8959  -14.1642   -7.6698 C   0  0  2  0  0  0  0  0  0  0  0  0
    6.2474  -12.9215   -7.1306 C   0  0  0  0  0  0  0  0  0  0  0  0
    5.2186  -12.2821   -5.6461 C   0  0  0  0  0  0  0  0  0  0  0  0
    3.9522  -10.6878   -5.5190 C   0  0  0  0  0  0  0  0  0  0  0  0
    3.0912  -10.0126   -3.8302 C   0  0  0  0  0  0  0  0  0  0  0  0
    3.6467  -11.2303   -2.3049 C   0  0  0  0  0  0  0  0  0  0  0  0
    5.1316  -12.5324   -2.4265 C   0  0  0  0  0  0  0  0  0  0  0  0
    5.9027  -13.2318   -4.0443 C   0  0  0  0  0  0  0  0  0  0  0  0
    6.9989  -15.0432   -7.6210 N   0  0  0  0  0  0  0  0  0  0  0  0
    7.4133  -16.0069   -6.7294 C   0  0  0  0  0  0  0  0  0  0  0  0
    8.4201  -16.6363   -7.0381 O   0  0  0  0  0  0  0  0  0  0  0  0
    6.6923  -16.5030   -5.4567 C   0  0  2  0  0  0  0  0  0  0  0  0
    7.3923  -16.0578   -4.1348 C   0  0  0  0  0  0  0  0  0  0  0  0
    7.1514  -16.6656   -2.7737 C   0  0  0  0  0  0  0  0  0  0  0  0
    7.8854  -16.1649   -1.7119 C   0  0  0  0  0  0  0  0  0  0  0  0
    7.6059  -16.6053   -0.4254 C   0  0  0  0  0  0  0  0  0  0  0  0
    6.5211  -17.4421   -0.1715 C   0  0  0  0  0  0  0  0  0  0  0  0
    5.6551  -17.7649   -1.1807 C   0  0  0  0  0  0  0  0  0  0  0  0
    6.0506  -17.4749   -2.4610 C   0  0  0  0  0  0  0  0  0  0  0  0
    5.7338  -17.5959   -5.3535 N   0  0  0  0  0  0  0  0  0  0  0  0
    4.3229  -17.7160   -5.0974 C   0  0  0  0  0  0  0  0  0  0  0  0
    3.8599  -18.8258   -4.8210 O   0  0  0  0  0  0  0  0  0  0  0  0
    3.2251  -16.6513   -5.2315 C   0  0  0  0  0  0  0  0  0  0  0  0
    3.1946  -15.8401   -3.9714 C   0  0  0  0  0  0  0  0  0  0  0  0
    4.5224  -15.3051   -3.9172 C   0  0  0  0  0  0  0  0  0  0  0  0
    4.6241  -14.6630   -5.2375 C   0  0  0  0  0  0  0  0  0  0  0  0
    3.6159  -13.6072   -5.2925 C   0  0  0  0  0  0  0  0  0  0  0  0
    4.1750  -12.7213   -4.1212 C   0  0  0  0  0  0  0  0  0  0  0  0
    6.0685  -11.4811   -4.2773 C   0  0  0  0  0  0  0  0  0  0  0  0
    5.9362   -9.8805   -5.4317 N   0  0  0  0  0  0  0  0  0  0  0  0
    5.9304   -8.3021   -5.0810 C   0  0  0  0  0  0  0  0  0  0  0  0
    5.8546   -7.4069   -5.9310 O   0  0  0  0  0  0  0  0  0  0  0  0
    6.4925   -8.0605   -3.5882 C   0  0  0  0  0  0  0  0  0  0  0  0
    5.3738   -8.2329   -2.6453 C   0  0  0  0  0  0  0  0  0  0  0  0
    5.2093   -9.7650   -2.4142 C   0  0  2  0  0  0  0  0  0  0  0  0
    6.7778  -10.3802   -1.8339 N   0  0  0  0  0  0  0  0  0  0  0  0
    8.1451  -10.9232   -2.4956 C   0  0  0  0  0  0  0  0  0  0  0  0
    8.7505  -11.8475   -1.9310 O   0  0  0  0  0  0  0  0  0  0  0  0
    8.6176  -10.6390   -3.9154 N   0  0  0  0  0  0  0  0  0  0  0  0
    7.8523  -10.2171   -5.0558 C   0  0  1  0  0  0  0  0  0  0  0  0
    7.8814   -8.9965   -6.0166 C   0  0  0  0  0  0  0  0  0  0  0  0
    8.7254   -9.1234   -7.1778 C   0  0  0  0  0  0  0  0  0  0  0  0
    8.3976   -9.9220   -8.4937 C   0  0  0  0  0  0  0  0  0  0  0  0
    7.4381   -9.4307   -9.2915 O   0  0  0  0  0  0  0  0  0  0  0  0
    8.9132  -11.0028   -8.7908 O   0  0  0  0  0  0  0  0  0  0  0  0
    7.0940  -11.2119   -6.2808 C   0  0  0  0  0  0  0  0  0  0  0  0
    5.5605  -10.9279   -7.1426 O   0  0  0  0  0  0  0  0  0  0  0  0
    7.7258  -11.3674   -7.2644 O   0  0  0  0  0  0  0  0  0  0  0  0
    4.5240  -10.8456   -3.7746 C   0  0  0  0  0  0  0  0  0  0  0  0
    2.8358  -11.4803   -4.4856 O   0  0  0  0  0  0  0  0  0  0  0  0
    4.9591   -9.6805   -4.0074 O   0  0  0  0  0  0  0  0  0  0  0  0
    7.0951  -14.5481  -10.9157 C   0  0  0  0  0  0  0  0  0  0  0  0
    8.2285  -15.0299  -10.8748 O   0  0  0  0  0  0  0  0  0  0  0  0
    6.0244  -15.3661  -10.6102 N   0  0  0  0  0  0  0  0  0  0  0  0
    4.6039  -15.0576  -10.6698 C   0  0  1  0  0  0  0  0  0  0  0  0
    3.7141  -15.3935  -11.7886 C   0  0  0  0  0  0  0  0  0  0  0  0
    3.5085  -16.7988  -11.7447 C   0  0  0  0  0  0  0  0  0  0  0  0
    2.2927  -17.1598  -11.3070 O   0  0  0  0  0  0  0  0  0  0  0  0
    4.4002  -17.6252  -11.8996 O   0  0  0  0  0  0  0  0  0  0  0  0
    3.5918  -15.2724   -9.5466 C   0  0  0  0  0  0  0  0  0  0  0  0
    2.6713  -14.4333   -9.5311 O   0  0  0  0  0  0  0  0  0  0  0  0
    3.8214  -16.3429   -8.6748 N   0  0  0  0  0  0  0  0  0  0  0  0
    4.2166  -17.6400   -9.2143 C   0  0  1  0  0  0  0  0  0  0  0  0
    5.4201  -18.3724   -8.6931 C   0  0  0  0  0  0  0  0  0  0  0  0
    4.9203  -19.3169   -7.3396 S   0  0  0  0  0  0  0  0  0  0  0  0
    3.0112  -18.6434   -9.4569 C   0  0  0  0  0  0  0  0  0  0  0  0
    2.8069  -19.2398  -10.6561 O   0  0  0  0  0  0  0  0  0  0  0  0
    2.2121  -18.8820   -8.5562 O   0  0  0  0  0  0  0  0  0  0  0  0
    5.1164  -13.1717  -12.2481 H   0  0  0  0  0  0  0  0  0  0  0  0
    5.8946  -11.8082  -12.4666 H   0  0  0  0  0  0  0  0  0  0  0  0
    7.8588  -12.5910  -11.3759 H   0  0  0  0  0  0  0  0  0  0  0  0
    7.1004  -12.5426   -9.2962 H   0  0  0  0  0  0  0  0  0  0  0  0
    6.1610  -11.2935  -10.1409 H   0  0  0  0  0  0  0  0  0  0  0  0
    4.1142  -12.5691   -9.9551 H   0  0  0  0  0  0  0  0  0  0  0  0
    5.4516  -14.1033   -6.7932 H   0  0  0  0  0  0  0  0  0  0  0  0
    7.3566  -13.0643   -7.0784 H   0  0  0  0  0  0  0  0  0  0  0  0
    6.1148  -12.2537   -7.9841 H   0  0  0  0  0  0  0  0  0  0  0  0
    4.1058   -9.8142   -6.3402 H   0  0  0  0  0  0  0  0  0  0  0  0
    3.4165   -8.9176   -4.1277 H   0  0  0  0  0  0  0  0  0  0  0  0
    4.1391  -10.9770   -1.2609 H   0  0  0  0  0  0  0  0  0  0  0  0
    5.0925  -13.3926   -1.7008 H   0  0  0  0  0  0  0  0  0  0  0  0
    6.9211  -13.6527   -4.2643 H   0  0  0  0  0  0  0  0  0  0  0  0
    7.6967  -14.7156   -8.2819 H   0  0  0  0  0  0  0  0  0  0  0  0
    5.8735  -15.9657   -5.6521 H   0  0  0  0  0  0  0  0  0  0  0  0
    8.3860  -15.6458   -4.3198 H   0  0  0  0  0  0  0  0  0  0  0  0
    6.9214  -15.1587   -3.8129 H   0  0  0  0  0  0  0  0  0  0  0  0
    8.7010  -15.4727   -1.8971 H   0  0  0  0  0  0  0  0  0  0  0  0
    8.2462  -16.2973    0.3880 H   0  0  0  0  0  0  0  0  0  0  0  0
    6.3518  -17.8676    0.8061 H   0  0  0  0  0  0  0  0  0  0  0  0
    4.7141  -18.2749   -1.0081 H   0  0  0  0  0  0  0  0  0  0  0  0
    5.3920  -17.8689   -3.2042 H   0  0  0  0  0  0  0  0  0  0  0  0
    6.2894  -18.4318   -5.3336 H   0  0  0  0  0  0  0  0  0  0  0  0
    3.2816  -16.1044   -6.1605 H   0  0  0  0  0  0  0  0  0  0  0  0
    2.2354  -17.0349   -5.3959 H   0  0  0  0  0  0  0  0  0  0  0  0
    2.5012  -15.0054   -3.9826 H   0  0  0  0  0  0  0  0  0  0  0  0
    3.1282  -16.4038   -3.0719 H   0  0  0  0  0  0  0  0  0  0  0  0
    4.8258  -14.8111   -3.0086 H   0  0  0  0  0  0  0  0  0  0  0  0
    5.2108  -16.0614   -3.8347 H   0  0  0  0  0  0  0  0  0  0  0  0
    5.7193  -14.4478   -5.3725 H   0  0  0  0  0  0  0  0  0  0  0  0
    4.5280  -15.2042   -6.1584 H   0  0  0  0  0  0  0  0  0  0  0  0
    3.5766  -13.0495   -6.1976 H   0  0  0  0  0  0  0  0  0  0  0  0
    2.5639  -13.8208   -5.3399 H   0  0  0  0  0  0  0  0  0  0  0  0
    3.3066  -12.5317   -3.4279 H   0  0  0  0  0  0  0  0  0  0  0  0
    3.8629  -13.4557   -3.2728 H   0  0  0  0  0  0  0  0  0  0  0  0
    6.3092  -11.1866   -3.3191 H   0  0  0  0  0  0  0  0  0  0  0  0
    7.1832  -12.0252   -4.1724 H   0  0  0  0  0  0  0  0  0  0  0  0
    5.8412  -10.0210   -6.4584 H   0  0  0  0  0  0  0  0  0  0  0  0
    7.3163   -8.6628   -3.1840 H   0  0  0  0  0  0  0  0  0  0  0  0
    6.9500   -7.1042   -3.6331 H   0  0  0  0  0  0  0  0  0  0  0  0
    5.4453   -7.9860   -1.6122 H   0  0  0  0  0  0  0  0  0  0  0  0
    4.4760   -7.7952   -3.1135 H   0  0  0  0  0  0  0  0  0  0  0  0
    4.2551   -9.4630   -1.8478 H   0  0  0  0  0  0  0  0  0  0  0  0
    6.5239  -11.0526   -1.1083 H   0  0  0  0  0  0  0  0  0  0  0  0
    9.1026  -11.3899   -4.3921 H   0  0  0  0  0  0  0  0  0  0  0  0
    7.2180   -9.9256   -4.2505 H   0  0  0  0  0  0  0  0  0  0  0  0
    6.9620   -8.8693   -6.7351 H   0  0  0  0  0  0  0  0  0  0  0  0
    8.0409   -8.1317   -5.3624 H   0  0  0  0  0  0  0  0  0  0  0  0
    8.6179   -8.0774   -7.4113 H   0  0  0  0  0  0  0  0  0  0  0  0
    9.4400   -9.6481   -6.5663 H   0  0  0  0  0  0  0  0  0  0  0  0
    7.7693   -8.5407   -9.4516 H   0  0  0  0  0  0  0  0  0  0  0  0
    4.6138  -11.5175   -7.1039 H   0  0  0  0  0  0  0  0  0  0  0  0
    2.2312  -12.2587   -4.5018 H   0  0  0  0  0  0  0  0  0  0  0  0
    6.3092  -16.3147  -10.4140 H   0  0  0  0  0  0  0  0  0  0  0  0
    4.6099  -14.0294  -10.9068 H   0  0  0  0  0  0  0  0  0  0  0  0
    2.7281  -14.9338  -11.6272 H   0  0  0  0  0  0  0  0  0  0  0  0
    4.1396  -15.1716  -12.7366 H   0  0  0  0  0  0  0  0  0  0  0  0
    1.5095  -16.7017  -10.9162 H   0  0  0  0  0  0  0  0  0  0  0  0
    3.2961  -16.3735   -7.8184 H   0  0  0  0  0  0  0  0  0  0  0  0
    4.7501  -17.2593  -10.0306 H   0  0  0  0  0  0  0  0  0  0  0  0
    5.7174  -19.1399   -9.3901 H   0  0  0  0  0  0  0  0  0  0  0  0
    6.2408  -17.6869   -8.4656 H   0  0  0  0  0  0  0  0  0  0  0  0
    4.3740  -18.1516   -6.9160 H   0  0  0  0  0  0  0  0  0  0  0  0
    3.0205  -18.6978  -11.4522 H   0  0  0  0  0  0  0  0  0  0  0  0
  1 75  1  0  0  0  0
  1 76  1  0  0  0  0
  2  1  1  0  0  0  0
  2  3  1  0  0  0  0
  2 58  1  0  0  0  0
  2 77  1  6  0  0  0
  3  4  1  0  0  0  0
  3 78  1  0  0  0  0
  3 79  1  0  0  0  0
  4  5  1  0  0  0  0
  4 80  1  0  0  0  0
  5  6  2  0  0  0  0
  7 15  1  0  0  0  0
  7 81  1  1  0  0  0
  7  8  1  0  0  0  0
  7  5  1  0  0  0  0
  8  9  1  0  0  0  0
  8 82  1  0  0  0  0
  8 83  1  0  0  0  0
  9 10  2  0  0  0  0
  9 14  1  0  0  0  0
 10 11  1  0  0  0  0
 10 84  1  0  0  0  0
 11 12  2  0  0  0  0
 11 85  1  0  0  0  0
 12 13  1  0  0  0  0
 12 86  1  0  0  0  0
 13 14  2  0  0  0  0
 13 87  1  0  0  0  0
 14 88  1  0  0  0  0
 15 16  1  0  0  0  0
 15 89  1  0  0  0  0
 16 17  2  0  0  0  0
 18 26  1  0  0  0  0
 18 90  1  1  0  0  0
 18 19  1  0  0  0  0
 18 16  1  0  0  0  0
 19 20  1  0  0  0  0
 19 91  1  0  0  0  0
 19 92  1  0  0  0  0
 20 21  2  0  0  0  0
 20 25  1  0  0  0  0
 21 22  1  0  0  0  0
 21 93  1  0  0  0  0
 22 23  2  0  0  0  0
 22 94  1  0  0  0  0
 23 24  1  0  0  0  0
 23 95  1  0  0  0  0
 24 25  2  0  0  0  0
 24 96  1  0  0  0  0
 25 97  1  0  0  0  0
 26 27  1  0  0  0  0
 26 98  1  0  0  0  0
 27 28  2  0  0  0  0
 27 29  1  0  0  0  0
 29 30  1  0  0  0  0
 29 99  1  0  0  0  0
 29100  1  0  0  0  0
 30 31  1  0  0  0  0
 30101  1  0  0  0  0
 30102  1  0  0  0  0
 31 32  1  0  0  0  0
 31103  1  0  0  0  0
 31104  1  0  0  0  0
 32 33  1  0  0  0  0
 32105  1  0  0  0  0
 32106  1  0  0  0  0
 33 34  1  0  0  0  0
 33107  1  0  0  0  0
 33108  1  0  0  0  0
 34 35  1  0  0  0  0
 34109  1  0  0  0  0
 34110  1  0  0  0  0
 35 36  1  0  0  0  0
 35111  1  0  0  0  0
 35112  1  0  0  0  0
 36 37  1  0  0  0  0
 36113  1  0  0  0  0
 37 38  2  0  0  0  0
 37 39  1  0  0  0  0
 39 40  1  0  0  0  0
 39114  1  0  0  0  0
 39115  1  0  0  0  0
 40116  1  0  0  0  0
 40117  1  0  0  0  0
 41 55  1  0  0  0  0
 41118  1  1  0  0  0
 41 42  1  0  0  0  0
 41 40  1  0  0  0  0
 42 43  1  0  0  0  0
 42119  1  0  0  0  0
 43 44  2  0  0  0  0
 43 45  1  0  0  0  0
 45120  1  0  0  0  0
 46 45  1  0  0  0  0
 46 47  1  0  0  0  0
 46 52  1  0  0  0  0
 46121  1  1  0  0  0
 47 48  1  0  0  0  0
 47122  1  0  0  0  0
 47123  1  0  0  0  0
 48 49  1  0  0  0  0
 48124  1  0  0  0  0
 48125  1  0  0  0  0
 49 50  1  0  0  0  0
 49 51  2  0  0  0  0
 50126  1  0  0  0  0
 52 53  1  0  0  0  0
 52 54  2  0  0  0  0
 53127  1  0  0  0  0
 55 56  1  0  0  0  0
 55 57  2  0  0  0  0
 56128  1  0  0  0  0
 58 59  2  0  0  0  0
 58 60  1  0  0  0  0
 60129  1  0  0  0  0
 61 60  1  0  0  0  0
 61 62  1  0  0  0  0
 61 66  1  0  0  0  0
 61130  1  6  0  0  0
 62 63  1  0  0  0  0
 62131  1  0  0  0  0
 62132  1  0  0  0  0
 63 64  1  0  0  0  0
 63 65  2  0  0  0  0
 64133  1  0  0  0  0
 66 67  2  0  0  0  0
 66 68  1  0  0  0  0
 68134  1  0  0  0  0
 69 68  1  0  0  0  0
 69 70  1  0  0  0  0
 69 72  1  0  0  0  0
 69135  1  6  0  0  0
 70 71  1  0  0  0  0
 70136  1  0  0  0  0
 70137  1  0  0  0  0
 71138  1  0  0  0  0
 72 73  1  0  0  0  0
 72 74  2  0  0  0  0
 73139  1  0  0  0  0
M  END
>  <DRUGBANK_ID>
DB15340

>  <COMMON_NAME>
EC-0652

>  <CAS_NUMBER>
1025066-50-5

>  <UNII>
RWY5U5KZV3

$$$$
