
 OpenBabel10282417183D

140145  0  0  1  0  0  0  0  0999 V2000
    0.9697   -0.0643    0.0982 C   0  0  0  0  0  0  0  0  0  0  0  0
    0.4755   -0.9426   -0.9494 N   0  0  0  0  0  0  0  0  0  0  0  0
    0.7541   -2.3403   -0.6406 C   0  0  0  0  0  0  0  0  0  0  0  0
    0.2662   -3.2958   -1.7073 C   0  0  0  0  0  0  0  0  0  0  0  0
   -0.6867   -2.8912   -2.6687 C   0  0  0  0  0  0  0  0  0  0  0  0
   -1.1445   -3.8036   -3.6276 C   0  0  0  0  0  0  0  0  0  0  0  0
   -0.6639   -5.1017   -3.6422 C   0  0  0  0  0  0  0  0  0  0  0  0
    0.2490   -5.5214   -2.6834 C   0  0  0  0  0  0  0  0  0  0  0  0
    0.7040   -4.6265   -1.7147 C   0  0  0  0  0  0  0  0  0  0  0  0
    1.8032   -5.2180   -0.5186 Cl  0  0  0  0  0  0  0  0  0  0  0  0
   -1.2239   -6.1847   -4.8523 Cl  0  0  0  0  0  0  0  0  0  0  0  0
   -1.1829   -1.4578   -2.7211 C   0  0  1  0  0  0  0  0  0  0  0  0
   -0.9467   -0.7823   -1.3152 C   0  0  0  0  0  0  0  0  0  0  0  0
   -0.5088   -0.7006   -3.8588 C   0  0  0  0  0  0  0  0  0  0  0  0
   -0.5161   -1.0636   -5.2088 C   0  0  0  0  0  0  0  0  0  0  0  0
    0.1528   -0.2923   -6.1598 C   0  0  0  0  0  0  0  0  0  0  0  0
    0.9352    0.7749   -5.7569 C   0  0  0  0  0  0  0  0  0  0  0  0
    1.0680    1.0381   -4.4146 C   0  0  0  0  0  0  0  0  0  0  0  0
    0.2452    0.4023   -3.5204 C   0  0  0  0  0  0  0  0  0  0  0  0
    1.9642    2.3676   -3.7325 S   0  0  0  0  0  0  0  0  0  0  0  0
    1.1462    2.7784   -2.6093 O   0  0  0  0  0  0  0  0  0  0  0  0
    3.3072    1.9772   -3.3223 O   0  0  0  0  0  0  0  0  0  0  0  0
    2.1514    3.3931   -5.2144 N   0  0  0  0  0  0  0  0  0  0  0  0
    1.1357    3.9417   -6.3251 C   0  0  0  0  0  0  0  0  0  0  0  0
    0.2248    5.1985   -6.0921 C   0  0  0  0  0  0  0  0  0  0  0  0
    0.8728    6.3556   -5.4565 O   0  0  0  0  0  0  0  0  0  0  0  0
    1.8486    6.1854   -4.3127 C   0  0  0  0  0  0  0  0  0  0  0  0
    1.4048    5.3930   -3.0658 C   0  0  0  0  0  0  0  0  0  0  0  0
    0.5777    4.6373   -3.8478 O   0  0  0  0  0  0  0  0  0  0  0  0
   -0.5491    3.8808   -3.6218 C   0  0  0  0  0  0  0  0  0  0  0  0
   -1.5411    4.9539   -3.2927 C   0  0  0  0  0  0  0  0  0  0  0  0
   -1.1775    6.3901   -3.2262 N   0  0  0  0  0  0  0  0  0  0  0  0
   -1.4370    7.5214   -3.8802 C   0  0  0  0  0  0  0  0  0  0  0  0
   -0.8377    8.5513   -3.5631 O   0  0  0  0  0  0  0  0  0  0  0  0
   -2.3806    7.5646   -4.8119 N   0  0  0  0  0  0  0  0  0  0  0  0
   -3.1437    6.4802   -5.3192 C   0  0  0  0  0  0  0  0  0  0  0  0
   -4.5541    6.4416   -4.7888 C   0  0  0  0  0  0  0  0  0  0  0  0
   -5.2520    7.5400   -5.5037 C   0  0  0  0  0  0  0  0  0  0  0  0
   -4.9853    7.2948   -6.9677 C   0  0  0  0  0  0  0  0  0  0  0  0
   -5.7338    6.2203   -7.5050 N   0  0  0  0  0  0  0  0  0  0  0  0
   -6.7854    6.3048   -8.3132 C   0  0  0  0  0  0  0  0  0  0  0  0
   -7.3336    5.2602   -8.6762 O   0  0  0  0  0  0  0  0  0  0  0  0
   -7.2894    7.4921   -8.7055 N   0  0  0  0  0  0  0  0  0  0  0  0
   -7.0192    8.9866   -8.6024 C   0  0  0  0  0  0  0  0  0  0  0  0
   -6.6099    9.9189   -9.7813 C   0  0  0  0  0  0  0  0  0  0  0  0
   -7.2527    9.7466  -11.0149 O   0  0  0  0  0  0  0  0  0  0  0  0
   -7.8517    8.5032  -11.2946 C   0  0  0  0  0  0  0  0  0  0  0  0
   -6.8752    7.4073  -11.7343 C   0  0  0  0  0  0  0  0  0  0  0  0
   -5.8056    7.1120  -10.8664 O   0  0  0  0  0  0  0  0  0  0  0  0
   -4.7227    7.9794  -10.6241 C   0  0  0  0  0  0  0  0  0  0  0  0
   -4.2422    8.9464  -11.7470 C   0  0  0  0  0  0  0  0  0  0  0  0
   -5.2457    9.5789  -12.6763 N   0  0  0  0  0  0  0  0  0  0  0  0
   -4.7294   10.3306  -14.0911 S   0  0  0  0  0  0  0  0  0  0  0  0
   -3.7517    9.4905  -14.6465 O   0  0  0  0  0  0  0  0  0  0  0  0
   -5.9820   10.6544  -14.8346 O   0  0  0  0  0  0  0  0  0  0  0  0
   -4.0418   11.8502  -13.5593 C   0  0  0  0  0  0  0  0  0  0  0  0
   -3.4679   12.6941  -14.4954 C   0  0  0  0  0  0  0  0  0  0  0  0
   -2.8469   13.8597  -14.0496 C   0  0  0  0  0  0  0  0  0  0  0  0
   -2.7559   14.1488  -12.6786 C   0  0  0  0  0  0  0  0  0  0  0  0
   -3.3176   13.2914  -11.7294 C   0  0  0  0  0  0  0  0  0  0  0  0
   -4.0176   12.1801  -12.2080 C   0  0  0  0  0  0  0  0  0  0  0  0
   -3.4946   13.6357  -10.2585 C   0  0  2  0  0  0  0  0  0  0  0  0
   -4.1838   15.0090  -10.1539 C   0  0  0  0  0  0  0  0  0  0  0  0
   -3.1943   16.0719   -9.9150 N   0  0  0  0  0  0  0  0  0  0  0  0
   -2.6172   15.9117   -8.5741 C   0  0  0  0  0  0  0  0  0  0  0  0
   -2.0554   14.5225   -8.3442 C   0  0  0  0  0  0  0  0  0  0  0  0
   -2.4111   13.4512   -9.2042 C   0  0  0  0  0  0  0  0  0  0  0  0
   -1.9657   12.1565   -8.8977 C   0  0  0  0  0  0  0  0  0  0  0  0
   -1.1681   11.9267   -7.7784 C   0  0  0  0  0  0  0  0  0  0  0  0
   -0.8000   12.9746   -6.9417 C   0  0  0  0  0  0  0  0  0  0  0  0
   -1.2478   14.2662   -7.2190 C   0  0  0  0  0  0  0  0  0  0  0  0
   -0.7869   15.5283   -6.1273 Cl  0  0  0  0  0  0  0  0  0  0  0  0
   -0.6628   10.3195   -7.4300 Cl  0  0  0  0  0  0  0  0  0  0  0  0
   -3.7998   17.3899  -10.0546 C   0  0  0  0  0  0  0  0  0  0  0  0
    0.6363   -0.3917    1.0853 H   0  0  0  0  0  0  0  0  0  0  0  0
    0.6592    0.9739   -0.0562 H   0  0  0  0  0  0  0  0  0  0  0  0
    2.0691   -0.0582    0.0905 H   0  0  0  0  0  0  0  0  0  0  0  0
    1.8373   -2.4552   -0.5199 H   0  0  0  0  0  0  0  0  0  0  0  0
    0.2602   -2.6029    0.3024 H   0  0  0  0  0  0  0  0  0  0  0  0
   -1.8634   -3.4870   -4.3787 H   0  0  0  0  0  0  0  0  0  0  0  0
    0.6033   -6.5459   -2.6837 H   0  0  0  0  0  0  0  0  0  0  0  0
   -2.2621   -1.4450   -2.9148 H   0  0  0  0  0  0  0  0  0  0  0  0
   -1.6024   -1.2123   -0.5550 H   0  0  0  0  0  0  0  0  0  0  0  0
   -1.2347    0.2782   -1.3751 H   0  0  0  0  0  0  0  0  0  0  0  0
   -1.0059   -1.9616   -5.5592 H   0  0  0  0  0  0  0  0  0  0  0  0
    0.1176   -0.5528   -7.2117 H   0  0  0  0  0  0  0  0  0  0  0  0
    1.4385    1.3704   -6.5006 H   0  0  0  0  0  0  0  0  0  0  0  0
    0.2663    0.7757   -2.5074 H   0  0  0  0  0  0  0  0  0  0  0  0
    3.0307    3.8987   -5.1788 H   0  0  0  0  0  0  0  0  0  0  0  0
    1.7561    4.2501   -7.1820 H   0  0  0  0  0  0  0  0  0  0  0  0
    0.5107    3.1322   -6.7207 H   0  0  0  0  0  0  0  0  0  0  0  0
   -0.2373    5.4896   -7.0587 H   0  0  0  0  0  0  0  0  0  0  0  0
   -0.7661    4.9688   -5.6619 H   0  0  0  0  0  0  0  0  0  0  0  0
    2.6913    5.6622   -4.7626 H   0  0  0  0  0  0  0  0  0  0  0  0
    2.2565    7.1455   -4.0114 H   0  0  0  0  0  0  0  0  0  0  0  0
    2.2294    4.8428   -2.5859 H   0  0  0  0  0  0  0  0  0  0  0  0
    0.8494    5.7575   -2.2098 H   0  0  0  0  0  0  0  0  0  0  0  0
   -0.1017    3.4162   -4.5064 H   0  0  0  0  0  0  0  0  0  0  0  0
   -1.2173    3.2698   -4.3021 H   0  0  0  0  0  0  0  0  0  0  0  0
   -2.2634    4.7188   -4.0159 H   0  0  0  0  0  0  0  0  0  0  0  0
   -2.0284    4.6773   -2.3738 H   0  0  0  0  0  0  0  0  0  0  0  0
   -0.4776    6.6677   -2.5645 H   0  0  0  0  0  0  0  0  0  0  0  0
   -2.5444    8.5080   -5.1460 H   0  0  0  0  0  0  0  0  0  0  0  0
   -2.9014    6.4037   -6.3738 H   0  0  0  0  0  0  0  0  0  0  0  0
   -2.8406    5.4997   -5.1507 H   0  0  0  0  0  0  0  0  0  0  0  0
   -5.0081    5.4740   -5.0397 H   0  0  0  0  0  0  0  0  0  0  0  0
   -4.6070    6.5449   -3.7001 H   0  0  0  0  0  0  0  0  0  0  0  0
   -6.3180    7.5818   -5.2638 H   0  0  0  0  0  0  0  0  0  0  0  0
   -4.8178    8.5071   -5.2201 H   0  0  0  0  0  0  0  0  0  0  0  0
   -5.1396    8.2430   -7.3611 H   0  0  0  0  0  0  0  0  0  0  0  0
   -3.9832    7.2051   -7.3759 H   0  0  0  0  0  0  0  0  0  0  0  0
   -5.5018    5.2630   -7.2484 H   0  0  0  0  0  0  0  0  0  0  0  0
   -8.1280    7.1981   -9.1819 H   0  0  0  0  0  0  0  0  0  0  0  0
   -7.7889    9.4237   -7.9803 H   0  0  0  0  0  0  0  0  0  0  0  0
   -6.1463    9.1430   -8.0350 H   0  0  0  0  0  0  0  0  0  0  0  0
   -5.5302   10.1995   -9.6444 H   0  0  0  0  0  0  0  0  0  0  0  0
   -6.8056   10.9884   -9.7137 H   0  0  0  0  0  0  0  0  0  0  0  0
   -8.5117    8.2159  -10.4849 H   0  0  0  0  0  0  0  0  0  0  0  0
   -8.5697    8.6856  -12.0925 H   0  0  0  0  0  0  0  0  0  0  0  0
   -7.4334    6.4812  -11.8729 H   0  0  0  0  0  0  0  0  0  0  0  0
   -6.5009    7.5429  -12.7381 H   0  0  0  0  0  0  0  0  0  0  0  0
   -4.0736    7.1560  -10.3178 H   0  0  0  0  0  0  0  0  0  0  0  0
   -4.4001    8.4131   -9.6415 H   0  0  0  0  0  0  0  0  0  0  0  0
   -3.7670    9.7845  -11.2241 H   0  0  0  0  0  0  0  0  0  0  0  0
   -3.5065    8.4160  -12.3284 H   0  0  0  0  0  0  0  0  0  0  0  0
   -5.9175    8.9729  -13.1130 H   0  0  0  0  0  0  0  0  0  0  0  0
   -3.5172   12.4541  -15.5545 H   0  0  0  0  0  0  0  0  0  0  0  0
   -2.4329   14.5559  -14.7730 H   0  0  0  0  0  0  0  0  0  0  0  0
   -2.3228   15.0960  -12.3639 H   0  0  0  0  0  0  0  0  0  0  0  0
   -4.6049   11.6019  -11.5038 H   0  0  0  0  0  0  0  0  0  0  0  0
   -4.2057   12.8763   -9.9095 H   0  0  0  0  0  0  0  0  0  0  0  0
   -4.9239   14.9695   -9.3461 H   0  0  0  0  0  0  0  0  0  0  0  0
   -4.7422   15.2163  -11.0760 H   0  0  0  0  0  0  0  0  0  0  0  0
   -1.8033   16.6368   -8.4617 H   0  0  0  0  0  0  0  0  0  0  0  0
   -3.3753   16.1237   -7.8056 H   0  0  0  0  0  0  0  0  0  0  0  0
   -2.2935   11.3170   -9.5042 H   0  0  0  0  0  0  0  0  0  0  0  0
   -0.1662   12.7901   -6.0785 H   0  0  0  0  0  0  0  0  0  0  0  0
   -4.6364   17.5237   -9.3618 H   0  0  0  0  0  0  0  0  0  0  0  0
   -3.0617   18.1780   -9.8689 H   0  0  0  0  0  0  0  0  0  0  0  0
   -4.1638   17.5338  -11.0775 H   0  0  0  0  0  0  0  0  0  0  0  0
  1  2  1  0  0  0  0
  1 75  1  0  0  0  0
  1 76  1  0  0  0  0
  1 77  1  0  0  0  0
  2  3  1  0  0  0  0
  2 13  1  0  0  0  0
  3  4  1  0  0  0  0
  3 78  1  0  0  0  0
  3 79  1  0  0  0  0
  4  5  2  0  0  0  0
  4  9  1  0  0  0  0
  5  6  1  0  0  0  0
  5 12  1  0  0  0  0
  6  7  2  0  0  0  0
  6 80  1  0  0  0  0
  7  8  1  0  0  0  0
  7 11  1  0  0  0  0
  8  9  2  0  0  0  0
  8 81  1  0  0  0  0
  9 10  1  0  0  0  0
 12 13  1  0  0  0  0
 12 82  1  6  0  0  0
 12 14  1  0  0  0  0
 13 83  1  0  0  0  0
 13 84  1  0  0  0  0
 14 15  2  0  0  0  0
 14 19  1  0  0  0  0
 15 16  1  0  0  0  0
 15 85  1  0  0  0  0
 16 17  2  0  0  0  0
 16 86  1  0  0  0  0
 17 18  1  0  0  0  0
 17 87  1  0  0  0  0
 18 19  2  0  0  0  0
 18 20  1  0  0  0  0
 19 88  1  0  0  0  0
 20 21  2  0  0  0  0
 20 22  2  0  0  0  0
 20 23  1  0  0  0  0
 23 24  1  0  0  0  0
 23 89  1  0  0  0  0
 24 25  1  0  0  0  0
 24 90  1  0  0  0  0
 24 91  1  0  0  0  0
 25 26  1  0  0  0  0
 25 92  1  0  0  0  0
 25 93  1  0  0  0  0
 26 27  1  0  0  0  0
 27 28  1  0  0  0  0
 27 94  1  0  0  0  0
 27 95  1  0  0  0  0
 28 29  1  0  0  0  0
 28 96  1  0  0  0  0
 28 97  1  0  0  0  0
 29 30  1  0  0  0  0
 30 31  1  0  0  0  0
 30 98  1  0  0  0  0
 30 99  1  0  0  0  0
 31 32  1  0  0  0  0
 31100  1  0  0  0  0
 31101  1  0  0  0  0
 32 33  1  0  0  0  0
 32102  1  0  0  0  0
 33 34  2  0  0  0  0
 33 35  1  0  0  0  0
 35 36  1  0  0  0  0
 35103  1  0  0  0  0
 36 37  1  0  0  0  0
 36104  1  0  0  0  0
 36105  1  0  0  0  0
 37 38  1  0  0  0  0
 37106  1  0  0  0  0
 37107  1  0  0  0  0
 38 39  1  0  0  0  0
 38108  1  0  0  0  0
 38109  1  0  0  0  0
 39 40  1  0  0  0  0
 39110  1  0  0  0  0
 39111  1  0  0  0  0
 40 41  1  0  0  0  0
 40112  1  0  0  0  0
 41 42  2  0  0  0  0
 41 43  1  0  0  0  0
 43 44  1  0  0  0  0
 43113  1  0  0  0  0
 44 45  1  0  0  0  0
 44114  1  0  0  0  0
 44115  1  0  0  0  0
 45 46  1  0  0  0  0
 45116  1  0  0  0  0
 45117  1  0  0  0  0
 46 47  1  0  0  0  0
 47 48  1  0  0  0  0
 47118  1  0  0  0  0
 47119  1  0  0  0  0
 48 49  1  0  0  0  0
 48120  1  0  0  0  0
 48121  1  0  0  0  0
 49 50  1  0  0  0  0
 50 51  1  0  0  0  0
 50122  1  0  0  0  0
 50123  1  0  0  0  0
 51 52  1  0  0  0  0
 51124  1  0  0  0  0
 51125  1  0  0  0  0
 52 53  1  0  0  0  0
 52126  1  0  0  0  0
 53 54  2  0  0  0  0
 53 55  2  0  0  0  0
 53 56  1  0  0  0  0
 56 57  2  0  0  0  0
 56 61  1  0  0  0  0
 57 58  1  0  0  0  0
 57127  1  0  0  0  0
 58 59  2  0  0  0  0
 58128  1  0  0  0  0
 59 60  1  0  0  0  0
 59129  1  0  0  0  0
 60 61  2  0  0  0  0
 61130  1  0  0  0  0
 62 60  1  0  0  0  0
 62 63  1  0  0  0  0
 62 67  1  0  0  0  0
 62131  1  1  0  0  0
 63 64  1  0  0  0  0
 63132  1  0  0  0  0
 63133  1  0  0  0  0
 64 65  1  0  0  0  0
 64 74  1  0  0  0  0
 65 66  1  0  0  0  0
 65134  1  0  0  0  0
 65135  1  0  0  0  0
 66 67  2  0  0  0  0
 66 71  1  0  0  0  0
 67 68  1  0  0  0  0
 68 69  2  0  0  0  0
 68136  1  0  0  0  0
 69 70  1  0  0  0  0
 69 73  1  0  0  0  0
 70 71  2  0  0  0  0
 70137  1  0  0  0  0
 71 72  1  0  0  0  0
 74138  1  0  0  0  0
 74139  1  0  0  0  0
 74140  1  0  0  0  0
M  END
>  <DRUGBANK_ID>
DB11761

>  <COMMON_NAME>
Tenapanor

>  <CAS_NUMBER>
1234423-95-0

>  <UNII>
WYD79216A6

>  <SYNONYMS>
Tenapanor

$$$$
