CJH
 OpenBabel10282417163D

 42 43  0  0  0  0  0  0  0  0999 V2000
    0.8745   -0.1138    0.1817 C   0  0  0  0  0  0  0  0  0  0  0  0
    0.5518    1.3753    0.1028 C   0  0  0  0  0  0  0  0  0  0  0  0
    1.0025    2.0958   -1.0591 O   0  0  0  0  0  0  0  0  0  0  0  0
    2.3485    2.2049   -1.2582 C   0  0  0  0  0  0  0  0  0  0  0  0
    3.1837    1.1052   -1.2230 C   0  0  0  0  0  0  0  0  0  0  0  0
    2.8771    3.4106   -1.7140 C   0  0  0  0  0  0  0  0  0  0  0  0
    4.2194    3.4880   -2.1122 C   0  0  0  0  0  0  0  0  0  0  0  0
    5.0619    2.3938   -1.9468 C   0  0  0  0  0  0  0  0  0  0  0  0
    4.5317    1.1790   -1.5154 C   0  0  0  0  0  0  0  0  0  0  0  0
    5.3262   -0.0319   -1.4585 C   0  0  0  0  0  0  0  0  0  0  0  0
    4.9920   -1.2059   -2.1582 C   0  0  0  0  0  0  0  0  0  0  0  0
    5.8470   -2.3211   -2.1551 C   0  0  0  0  0  0  0  0  0  0  0  0
    6.5178    0.0160   -0.7860 C   0  0  0  0  0  0  0  0  0  0  0  0
    7.4444   -0.9617   -1.0599 C   0  0  0  0  0  0  0  0  0  0  0  0
    7.0808   -2.2181   -1.5209 C   0  0  0  0  0  0  0  0  0  0  0  0
    7.9072   -3.3451   -1.2854 N   0  0  0  0  0  0  0  0  0  0  0  0
    8.9938   -3.4984   -0.4251 C   0  0  0  0  0  0  0  0  0  0  0  0
    9.6392   -4.5494   -0.4562 O   0  0  0  0  0  0  0  0  0  0  0  0
    9.4342   -2.4061    0.5125 C   0  0  0  0  0  0  0  0  0  0  0  0
   10.8018   -1.9873    0.4302 C   0  0  0  0  0  0  0  0  0  0  0  0
   11.8768   -1.5666    0.4216 N   0  0  0  0  0  0  0  0  0  0  0  0
    8.5562   -1.7776    1.3317 C   0  0  0  0  0  0  0  0  0  0  0  0
    8.8039   -0.4477    2.0031 C   0  0  0  0  0  0  0  0  0  0  0  0
    7.2456   -2.2262    1.4543 O   0  0  0  0  0  0  0  0  0  0  0  0
    0.6766   -0.6132   -0.7742 H   0  0  0  0  0  0  0  0  0  0  0  0
    0.3282   -0.6139    0.9817 H   0  0  0  0  0  0  0  0  0  0  0  0
    1.9160   -0.2759    0.4688 H   0  0  0  0  0  0  0  0  0  0  0  0
   -0.5417    1.4529    0.0815 H   0  0  0  0  0  0  0  0  0  0  0  0
    0.8915    1.8925    1.0053 H   0  0  0  0  0  0  0  0  0  0  0  0
    2.8236    0.1098   -1.0515 H   0  0  0  0  0  0  0  0  0  0  0  0
    2.2469    4.2908   -1.7941 H   0  0  0  0  0  0  0  0  0  0  0  0
    4.6065    4.3834   -2.5897 H   0  0  0  0  0  0  0  0  0  0  0  0
    6.1141    2.4661   -2.2169 H   0  0  0  0  0  0  0  0  0  0  0  0
    4.0575   -1.2407   -2.7146 H   0  0  0  0  0  0  0  0  0  0  0  0
    5.5370   -3.2201   -2.6802 H   0  0  0  0  0  0  0  0  0  0  0  0
    6.7604    0.8420   -0.1226 H   0  0  0  0  0  0  0  0  0  0  0  0
    8.4593   -0.7269   -0.7968 H   0  0  0  0  0  0  0  0  0  0  0  0
    7.6244   -4.2259   -1.7045 H   0  0  0  0  0  0  0  0  0  0  0  0
    8.2491    0.3576    1.5018 H   0  0  0  0  0  0  0  0  0  0  0  0
    8.4391   -0.4977    3.0283 H   0  0  0  0  0  0  0  0  0  0  0  0
    9.8507   -0.1394    2.0011 H   0  0  0  0  0  0  0  0  0  0  0  0
    6.6487   -1.4523    1.4859 H   0  0  0  0  0  0  0  0  0  0  0  0
  1  2  1  0  0  0  0
  1 25  1  0  0  0  0
  1 26  1  0  0  0  0
  1 27  1  0  0  0  0
  2  3  1  0  0  0  0
  2 28  1  0  0  0  0
  2 29  1  0  0  0  0
  3  4  1  0  0  0  0
  4  5  2  0  0  0  0
  4  6  1  0  0  0  0
  5  9  1  0  0  0  0
  5 30  1  0  0  0  0
  6  7  2  0  0  0  0
  6 31  1  0  0  0  0
  7  8  1  0  0  0  0
  7 32  1  0  0  0  0
  8  9  2  0  0  0  0
  8 33  1  0  0  0  0
  9 10  1  0  0  0  0
 10 11  2  0  0  0  0
 10 13  1  0  0  0  0
 11 12  1  0  0  0  0
 11 34  1  0  0  0  0
 12 15  2  0  0  0  0
 12 35  1  0  0  0  0
 13 14  2  0  0  0  0
 13 36  1  0  0  0  0
 14 15  1  0  0  0  0
 14 37  1  0  0  0  0
 15 16  1  0  0  0  0
 16 17  1  0  0  0  0
 16 38  1  0  0  0  0
 17 18  2  0  0  0  0
 17 19  1  0  0  0  0
 19 20  1  0  0  0  0
 19 22  2  0  0  0  0
 20 21  3  0  0  0  0
 22 23  1  0  0  0  0
 22 24  1  0  0  0  0
 23 39  1  0  0  0  0
 23 40  1  0  0  0  0
 23 41  1  0  0  0  0
 24 42  1  0  0  0  0
M  END
>  <DRUGBANK_ID>
DB07561

>  <COMMON_NAME>
(2Z)-2-cyano-N-(3'-ethoxybiphenyl-4-yl)-3-hydroxybut-2-enamide

$$$$
