
 OpenBabel10282417133D

 10  9  0  0  0  0  0  0  0  0999 V2000
    0.9393    0.0180   -0.0024 C   0  0  0  0  0  0  0  0  0  0  0  0
    0.1804   -0.8838    0.9698 C   0  0  0  0  0  0  0  0  0  0  0  0
   -1.3560   -0.9341    1.0241 C   0  0  0  0  0  0  0  0  0  0  0  0
    2.2803   -0.0864    0.1101 O   0  0  0  0  0  0  0  0  0  0  0  0
    0.3924    0.7545   -0.7966 O   0  0  0  0  0  0  0  0  0  0  0  0
   -1.9624   -0.1267    0.1536 O   0  0  0  0  0  0  0  0  0  0  0  0
   -1.9929   -1.6415    1.7869 O   0  0  0  0  0  0  0  0  0  0  0  0
    0.8588   -1.5824    1.7231 O   0  0  0  0  0  0  0  0  0  0  0  0
    2.5568   -0.7275    0.8014 H   0  0  0  0  0  0  0  0  0  0  0  0
   -2.9289   -0.2357    0.2710 H   0  0  0  0  0  0  0  0  0  0  0  0
  2  1  1  0  0  0  0
  3  2  1  0  0  0  0
  4  1  1  0  0  0  0
  4  9  1  0  0  0  0
  5  1  2  0  0  0  0
  6  3  1  0  0  0  0
  6 10  1  0  0  0  0
  7  3  2  0  0  0  0
  8  2  2  0  0  0  0
M  END
>  <DRUGBANK_ID>
DB03589

>  <SECONDARY_ACCESSION_NUMBERS>
EXPT02110

>  <COMMON_NAME>
Mesoxalic acid

>  <CAS_NUMBER>
473-90-5

>  <UNII>
62R514HE48

>  <SYNONYMS>
alpha-Ketomalonic acid; Ketomalonic acid; Oxomalonic acid

$$$$
