
 OpenBabel10282417233D

 76 80  0  0  1  0  0  0  0  0999 V2000
   -0.0526    1.8881    0.7627 H   0  0  0  0  0  0  0  0  0  0  0  0
   -0.9816    1.4022    0.4331 C   0  0  1  0  0  0  0  0  0  0  0  0
   -1.5656    2.0620   -0.9686 C   0  0  2  0  0  0  0  0  0  0  0  0
   -0.7923    1.6545   -2.1084 O   0  0  0  0  0  0  0  0  0  0  0  0
   -1.4879    0.5624   -2.7931 C   0  0  0  0  0  0  0  0  0  0  0  0
   -1.8717    3.4661   -0.5618 C   0  0  1  0  0  0  0  0  0  0  0  0
   -3.0957    3.2595    0.4610 C   0  0  0  0  0  0  0  0  0  0  0  0
   -2.7039    2.8164    1.8598 C   0  0  0  0  0  0  0  0  0  0  0  0
   -2.0194    1.5299    1.6945 C   0  0  2  0  0  0  0  0  0  0  0  0
   -1.8654    0.5757    2.8625 C   0  0  0  0  0  0  0  0  0  0  0  0
   -2.9725    0.4897    1.9609 O   0  0  0  0  0  0  0  0  0  0  0  0
   -0.5665    3.8732   -0.1204 O   0  0  0  0  0  0  0  0  0  0  0  0
   -0.1830    5.0889   -0.5834 C   0  0  0  0  0  0  0  0  0  0  0  0
    0.8535    5.3107   -1.1281 O   0  0  0  0  0  0  0  0  0  0  0  0
   -1.1803    5.9512   -0.2092 N   0  0  0  0  0  0  0  0  0  0  0  0
   -1.8900    5.8242    1.0478 C   0  0  0  0  0  0  0  0  0  0  0  0
   -1.5244    7.2799    1.2582 C   0  0  3  0  0  0  0  0  0  0  0  0
   -2.3899    8.1925    2.1135 C   0  0  0  0  0  0  0  0  0  0  0  0
   -2.3668    7.8468    3.6274 C   0  0  0  0  0  0  0  0  0  0  0  0
   -1.0822    7.9475    4.3923 N   0  0  0  0  0  0  0  0  0  0  0  0
    0.1227    7.3729    3.7454 C   0  0  0  0  0  0  0  0  0  0  0  0
   -0.1154    5.8698    3.5262 C   0  0  0  0  0  0  0  0  0  0  0  0
   -0.2153    5.1413    4.7496 O   0  0  0  0  0  0  0  0  0  0  0  0
   -1.3377    5.6677    5.4886 C   0  0  0  0  0  0  0  0  0  0  0  0
   -1.1797    7.1950    5.6770 C   0  0  0  0  0  0  0  0  0  0  0  0
   -1.3569    7.3682   -0.2603 C   0  0  0  0  0  0  0  0  0  0  0  0
   -0.7236   -0.0126    0.1095 C   0  0  1  0  0  0  0  0  0  0  0  0
   -2.0583   -0.5147   -0.2457 C   0  0  0  0  0  0  0  0  0  0  0  0
    0.3685   -0.3877   -0.7463 O   0  0  0  0  0  0  0  0  0  0  0  0
    0.4738   -0.8977    0.5721 C   0  0  2  0  0  0  0  0  0  0  0  0
    0.1796   -2.3583    0.7893 C   0  0  0  0  0  0  0  0  0  0  0  0
   -0.5982   -2.4779    2.0762 C   0  0  0  0  0  0  0  0  0  0  0  0
   -1.9328   -2.6707    2.1473 C   0  0  0  0  0  0  0  0  0  0  0  0
   -2.6954   -2.3257    3.4060 C   0  0  0  0  0  0  0  0  0  0  0  0
   -2.7750   -3.0575    0.9488 C   0  0  0  0  0  0  0  0  0  0  0  0
   -2.5567    1.9273   -1.4044 H   0  0  0  0  0  0  0  0  0  0  0  0
   -2.5242    0.4072   -2.4448 H   0  0  0  0  0  0  0  0  0  0  0  0
   -1.5931    0.8396   -3.8310 H   0  0  0  0  0  0  0  0  0  0  0  0
   -0.9831   -0.4140   -2.7176 H   0  0  0  0  0  0  0  0  0  0  0  0
   -2.2668    4.1158   -1.3557 H   0  0  0  0  0  0  0  0  0  0  0  0
   -3.8076    4.0851    0.4941 H   0  0  0  0  0  0  0  0  0  0  0  0
   -3.7663    2.4848    0.0328 H   0  0  0  0  0  0  0  0  0  0  0  0
   -3.6147    2.7699    2.4858 H   0  0  0  0  0  0  0  0  0  0  0  0
   -2.0066    3.4138    2.4343 H   0  0  0  0  0  0  0  0  0  0  0  0
   -2.1809    0.6960    3.8864 H   0  0  0  0  0  0  0  0  0  0  0  0
   -1.0543   -0.1276    2.7706 H   0  0  0  0  0  0  0  0  0  0  0  0
   -2.9500    5.6334    0.9996 H   0  0  0  0  0  0  0  0  0  0  0  0
   -1.4180    5.0334    1.6295 H   0  0  0  0  0  0  0  0  0  0  0  0
   -0.5011    7.3561    1.5714 H   0  0  0  0  0  0  0  0  0  0  0  0
   -2.0549    9.2232    1.9877 H   0  0  0  0  0  0  0  0  0  0  0  0
   -3.4336    8.1448    1.7690 H   0  0  0  0  0  0  0  0  0  0  0  0
   -3.0759    8.5217    4.1300 H   0  0  0  0  0  0  0  0  0  0  0  0
   -2.8404    6.8629    3.7185 H   0  0  0  0  0  0  0  0  0  0  0  0
    0.3833    7.9907    2.8824 H   0  0  0  0  0  0  0  0  0  0  0  0
    1.0222    7.4863    4.3571 H   0  0  0  0  0  0  0  0  0  0  0  0
   -1.1120    5.7540    3.1460 H   0  0  0  0  0  0  0  0  0  0  0  0
    0.5732    5.4030    2.8145 H   0  0  0  0  0  0  0  0  0  0  0  0
   -2.2748    5.4140    4.9723 H   0  0  0  0  0  0  0  0  0  0  0  0
   -1.3714    5.1519    6.4467 H   0  0  0  0  0  0  0  0  0  0  0  0
   -0.2340    7.3573    6.2129 H   0  0  0  0  0  0  0  0  0  0  0  0
   -1.9782    7.6050    6.2954 H   0  0  0  0  0  0  0  0  0  0  0  0
   -0.4860    7.9455   -0.5598 H   0  0  0  0  0  0  0  0  0  0  0  0
   -2.2486    7.5802   -0.8420 H   0  0  0  0  0  0  0  0  0  0  0  0
   -2.1841   -1.1461   -1.1088 H   0  0  0  0  0  0  0  0  0  0  0  0
   -2.3769   -0.9381    0.6700 H   0  0  0  0  0  0  0  0  0  0  0  0
   -2.8210    0.2679   -0.3505 H   0  0  0  0  0  0  0  0  0  0  0  0
    1.3150   -0.5413    1.1553 H   0  0  0  0  0  0  0  0  0  0  0  0
   -0.3844   -2.7396   -0.0677 H   0  0  0  0  0  0  0  0  0  0  0  0
    1.0769   -2.9841    0.8465 H   0  0  0  0  0  0  0  0  0  0  0  0
   -0.0396   -2.1623    2.9598 H   0  0  0  0  0  0  0  0  0  0  0  0
   -3.3967   -1.4947    3.2500 H   0  0  0  0  0  0  0  0  0  0  0  0
   -3.2913   -3.1749    3.7265 H   0  0  0  0  0  0  0  0  0  0  0  0
   -2.0305   -2.0139    4.2214 H   0  0  0  0  0  0  0  0  0  0  0  0
   -2.5146   -2.5824    0.0146 H   0  0  0  0  0  0  0  0  0  0  0  0
   -2.5875   -4.0790    0.6513 H   0  0  0  0  0  0  0  0  0  0  0  0
   -3.8272   -2.7897    1.0848 H   0  0  0  0  0  0  0  0  0  0  0  0
  2  3  1  0  0  0  0
  2  9  1  0  0  0  0
  2  1  1  1  0  0  0
  3  6  1  0  0  0  0
  3 36  1  6  0  0  0
  3  4  1  0  0  0  0
  4  5  1  0  0  0  0
  5 37  1  0  0  0  0
  5 38  1  0  0  0  0
  5 39  1  0  0  0  0
  6  7  1  0  0  0  0
  6 40  1  6  0  0  0
  6 12  1  0  0  0  0
  7  8  1  0  0  0  0
  7 41  1  0  0  0  0
  7 42  1  0  0  0  0
  8 43  1  0  0  0  0
  8 44  1  0  0  0  0
  9  8  1  0  0  0  0
  9 10  1  0  0  0  0
  9 11  1  6  0  0  0
 10 11  1  0  0  0  0
 10 45  1  0  0  0  0
 10 46  1  0  0  0  0
 12 13  1  0  0  0  0
 13 14  2  0  0  0  0
 13 15  1  0  0  0  0
 15 16  1  0  0  0  0
 15 26  1  0  0  0  0
 16 17  1  0  0  0  0
 16 47  1  0  0  0  0
 16 48  1  0  0  0  0
 17 18  1  0  0  0  0
 17 26  1  0  0  0  0
 17 49  1  0  0  0  0
 18 19  1  0  0  0  0
 18 50  1  0  0  0  0
 18 51  1  0  0  0  0
 19 20  1  0  0  0  0
 19 52  1  0  0  0  0
 19 53  1  0  0  0  0
 20 21  1  0  0  0  0
 20 25  1  0  0  0  0
 21 22  1  0  0  0  0
 21 54  1  0  0  0  0
 21 55  1  0  0  0  0
 22 23  1  0  0  0  0
 22 56  1  0  0  0  0
 22 57  1  0  0  0  0
 23 24  1  0  0  0  0
 24 25  1  0  0  0  0
 24 58  1  0  0  0  0
 24 59  1  0  0  0  0
 25 60  1  0  0  0  0
 25 61  1  0  0  0  0
 26 62  1  0  0  0  0
 26 63  1  0  0  0  0
 27 29  1  0  0  0  0
 27 30  1  0  0  0  0
 27  2  1  0  0  0  0
 27 28  1  6  0  0  0
 28 64  1  0  0  0  0
 28 65  1  0  0  0  0
 28 66  1  0  0  0  0
 30 29  1  0  0  0  0
 30 67  1  1  0  0  0
 30 31  1  0  0  0  0
 31 32  1  0  0  0  0
 31 68  1  0  0  0  0
 31 69  1  0  0  0  0
 32 33  2  0  0  0  0
 32 70  1  0  0  0  0
 33 34  1  0  0  0  0
 33 35  1  0  0  0  0
 34 71  1  0  0  0  0
 34 72  1  0  0  0  0
 34 73  1  0  0  0  0
 35 74  1  0  0  0  0
 35 75  1  0  0  0  0
 35 76  1  0  0  0  0
M  END
>  <DRUGBANK_ID>
DB16079

>  <COMMON_NAME>
Aclimostat

>  <CAS_NUMBER>
2082752-83-6

>  <UNII>
X150A3JK8R

>  <SYNONYMS>
Aclimostat

$$$$
