G15
 OpenBabel10282417163D

 52 55  0  0  0  0  0  0  0  0999 V2000
    3.1209   -1.7903   -2.6072 O   0  0  0  0  0  0  0  0  0  0  0  0
    2.5866   -0.7009   -2.3991 C   0  0  0  0  0  0  0  0  0  0  0  0
    1.3582   -0.4397   -2.9931 N   0  0  0  0  0  0  0  0  0  0  0  0
    0.4568   -1.5502   -3.3056 C   0  0  0  0  0  0  0  0  0  0  0  0
    0.2994   -1.7757   -4.8137 C   0  0  0  0  0  0  0  0  0  0  0  0
   -0.0444   -0.5551   -5.4933 O   0  0  0  0  0  0  0  0  0  0  0  0
    0.9938    0.4024   -5.3031 C   0  0  0  0  0  0  0  0  0  0  0  0
    1.1425    0.7356   -3.8278 C   0  0  0  0  0  0  0  0  0  0  0  0
    3.1003    0.3511   -1.3102 C   0  0  2  0  0  0  0  0  0  0  0  0
    2.7116    1.7847   -1.6217 C   0  0  0  0  0  0  0  0  0  0  0  0
    4.5586    0.2857   -1.1347 N   0  0  0  0  0  0  0  0  0  0  0  0
    5.4096    1.4197   -0.8444 C   0  0  0  0  0  0  0  0  0  0  0  0
    6.7997    0.8215   -0.9279 C   0  0  0  0  0  0  0  0  0  0  0  0
    5.1424   -0.8700   -0.6427 C   0  0  0  0  0  0  0  0  0  0  0  0
    4.5318   -1.8915   -0.3626 O   0  0  0  0  0  0  0  0  0  0  0  0
    6.6065   -0.6045   -0.3774 C   0  0  1  0  0  0  0  0  0  0  0  0
    7.5647   -1.5521   -0.9813 N   0  0  0  0  0  0  0  0  0  0  0  0
    7.3427   -3.2299   -0.6278 S   0  0  0  0  0  0  0  0  0  0  0  0
    6.0898   -3.7410   -1.1273 O   0  0  0  0  0  0  0  0  0  0  0  0
    8.5862   -3.8533   -1.0367 O   0  0  0  0  0  0  0  0  0  0  0  0
    7.3042   -3.4255    1.1544 C   0  0  0  0  0  0  0  0  0  0  0  0
    6.4836   -2.7371    1.9844 N   0  0  0  0  0  0  0  0  0  0  0  0
    6.8634   -3.1992    3.1891 N   0  0  0  0  0  0  0  0  0  0  0  0
    8.2895   -4.1329    1.8279 N   0  0  0  0  0  0  0  0  0  0  0  0
    7.9545   -4.0112    3.0909 C   0  0  0  0  0  0  0  0  0  0  0  0
    8.6909   -4.5206    4.2005 C   0  0  0  0  0  0  0  0  0  0  0  0
   10.0447   -4.3517    4.4217 C   0  0  0  0  0  0  0  0  0  0  0  0
   10.4652   -4.9135    5.6632 C   0  0  0  0  0  0  0  0  0  0  0  0
    9.4290   -5.5602    6.2845 C   0  0  0  0  0  0  0  0  0  0  0  0
    7.9606   -5.4413    5.4479 S   0  0  0  0  0  0  0  0  0  0  0  0
    9.5086   -6.4121    7.7734 Cl  0  0  0  0  0  0  0  0  0  0  0  0
    2.6319    0.0590   -0.3574 H   0  0  0  0  0  0  0  0  0  0  0  0
    6.7571   -0.5545    0.7032 H   0  0  0  0  0  0  0  0  0  0  0  0
   -0.5076   -1.2469   -2.8832 H   0  0  0  0  0  0  0  0  0  0  0  0
    0.7645   -2.4745   -2.8040 H   0  0  0  0  0  0  0  0  0  0  0  0
    1.2175   -2.1783   -5.2552 H   0  0  0  0  0  0  0  0  0  0  0  0
   -0.5123   -2.4842   -4.9991 H   0  0  0  0  0  0  0  0  0  0  0  0
    0.7405    1.3202   -5.8431 H   0  0  0  0  0  0  0  0  0  0  0  0
    1.9366    0.0195   -5.7135 H   0  0  0  0  0  0  0  0  0  0  0  0
    0.2412    1.2152   -3.4366 H   0  0  0  0  0  0  0  0  0  0  0  0
    1.9821    1.4186   -3.7994 H   0  0  0  0  0  0  0  0  0  0  0  0
    3.0067    2.4911   -0.8449 H   0  0  0  0  0  0  0  0  0  0  0  0
    3.2348    2.0916   -2.5355 H   0  0  0  0  0  0  0  0  0  0  0  0
    1.6331    1.8956   -1.7344 H   0  0  0  0  0  0  0  0  0  0  0  0
    5.1903    1.8079    0.1613 H   0  0  0  0  0  0  0  0  0  0  0  0
    5.2742    2.2189   -1.5774 H   0  0  0  0  0  0  0  0  0  0  0  0
    7.5275    1.4098   -0.3564 H   0  0  0  0  0  0  0  0  0  0  0  0
    7.1251    0.8217   -1.9751 H   0  0  0  0  0  0  0  0  0  0  0  0
    8.5410   -1.3426   -0.7746 H   0  0  0  0  0  0  0  0  0  0  0  0
    6.3986   -2.8678    4.0278 H   0  0  0  0  0  0  0  0  0  0  0  0
   10.6937   -3.8164    3.7381 H   0  0  0  0  0  0  0  0  0  0  0  0
   11.4705   -4.8547    6.0609 H   0  0  0  0  0  0  0  0  0  0  0  0
  1  2  2  0  0  0  0
  2  3  1  0  0  0  0
  3  4  1  0  0  0  0
  3  8  1  0  0  0  0
  4  5  1  0  0  0  0
  4 34  1  0  0  0  0
  4 35  1  0  0  0  0
  5  6  1  0  0  0  0
  5 36  1  0  0  0  0
  5 37  1  0  0  0  0
  6  7  1  0  0  0  0
  7  8  1  0  0  0  0
  7 38  1  0  0  0  0
  7 39  1  0  0  0  0
  8 40  1  0  0  0  0
  8 41  1  0  0  0  0
  9 10  1  0  0  0  0
  9 11  1  0  0  0  0
  9 32  1  1  0  0  0
  9  2  1  0  0  0  0
 10 42  1  0  0  0  0
 10 43  1  0  0  0  0
 10 44  1  0  0  0  0
 11 12  1  0  0  0  0
 11 14  1  0  0  0  0
 12 13  1  0  0  0  0
 12 45  1  0  0  0  0
 12 46  1  0  0  0  0
 13 16  1  0  0  0  0
 13 47  1  0  0  0  0
 13 48  1  0  0  0  0
 14 15  2  0  0  0  0
 14 16  1  0  0  0  0
 16 33  1  1  0  0  0
 16 17  1  0  0  0  0
 17 18  1  0  0  0  0
 17 49  1  0  0  0  0
 18 20  2  0  0  0  0
 18 21  1  0  0  0  0
 18 19  2  0  0  0  0
 21 22  2  0  0  0  0
 21 24  1  0  0  0  0
 22 23  1  0  0  0  0
 23 25  1  0  0  0  0
 23 50  1  0  0  0  0
 24 25  2  0  0  0  0
 25 26  1  0  0  0  0
 26 27  2  0  0  0  0
 26 30  1  0  0  0  0
 27 28  1  0  0  0  0
 27 51  1  0  0  0  0
 28 29  2  0  0  0  0
 28 52  1  0  0  0  0
 29 30  1  0  0  0  0
 29 31  1  0  0  0  0
M  END
>  <DRUGBANK_ID>
DB07804

>  <COMMON_NAME>
5-(5-CHLORO-2-THIENYL)-N-{(3S)-1-[(1S)-1-METHYL-2-MORPHOLIN-4-YL-2-OXOETHYL]-2-OXOPYRROLIDIN-3-YL}-1H-1,2,4-TRIAZOLE-3-SULFONAMIDE

$$$$
