782
 OpenBabel10282417113D

 57 59  0  0  0  0  0  0  0  0999 V2000
    0.9808   -0.4571   -0.3077 O   0  0  0  0  0  0  0  0  0  0  0  0
    5.4242    3.0472    0.1452 O   0  0  0  0  0  0  0  0  0  0  0  0
    2.8853   -1.2556    0.5007 O   0  0  0  0  0  0  0  0  0  0  0  0
    1.6710    2.1035   -0.5312 N   0  3  0  0  0  0  0  0  0  0  0  0
    2.1649    1.8090   -2.5894 C   0  0  0  0  0  0  0  0  0  0  0  0
    2.3630    3.9868   -0.0869 C   0  0  0  0  0  0  0  0  0  0  0  0
    0.2078    1.9149   -0.2093 C   0  0  0  0  0  0  0  0  0  0  0  0
    2.4712    1.5968    0.9533 C   0  0  0  0  0  0  0  0  0  0  0  0
    1.6103    3.0554   -3.8001 C   0  0  0  0  0  0  0  0  0  0  0  0
    3.9289    2.1384   -3.1570 C   0  0  0  0  0  0  0  0  0  0  0  0
    1.7698    4.1625    1.4792 C   0  0  0  0  0  0  0  0  0  0  0  0
    4.0406    4.8020   -1.1566 C   0  0  0  0  0  0  0  0  0  0  0  0
    0.0515    0.5459   -0.7974 C   0  0  0  0  0  0  0  0  0  0  0  0
    3.4412    0.7902   -1.0856 C   0  0  0  0  0  0  0  0  0  0  0  0
    2.3816   -0.4810   -0.3367 C   0  0  0  0  0  0  0  0  0  0  0  0
    4.8684    0.6234   -0.6219 C   0  0  0  0  0  0  0  0  0  0  0  0
    3.3209    2.7469   -1.1208 C   0  0  0  0  0  0  0  0  0  0  0  0
    5.6688    1.7284   -0.2080 C   0  0  0  0  0  0  0  0  0  0  0  0
    4.1338    3.5198    0.3262 C   0  0  0  0  0  0  0  0  0  0  0  0
    5.4005   -0.6579   -0.7030 C   0  0  0  0  0  0  0  0  0  0  0  0
    1.5967    3.5975   -1.7620 C   0  0  0  0  0  0  0  0  0  0  0  0
    7.0055    1.5616    0.0021 C   0  0  0  0  0  0  0  0  0  0  0  0
    3.5138    5.2917    0.7084 C   0  0  0  0  0  0  0  0  0  0  0  0
    6.7305   -0.8055   -0.3807 C   0  0  0  0  0  0  0  0  0  0  0  0
    0.8739    5.0336   -1.1506 C   0  0  0  0  0  0  0  0  0  0  0  0
    7.5285    0.2968   -0.0522 C   0  0  0  0  0  0  0  0  0  0  0  0
    1.9275    5.9682   -0.0741 C   0  0  0  0  0  0  0  0  0  0  0  0
    1.7717    0.8471   -2.8953 H   0  0  0  0  0  0  0  0  0  0  0  0
    2.6005    4.7476   -1.1647 H   0  0  0  0  0  0  0  0  0  0  0  0
   -0.4737    2.6039   -0.7283 H   0  0  0  0  0  0  0  0  0  0  0  0
    0.0793    2.1839    0.8445 H   0  0  0  0  0  0  0  0  0  0  0  0
    2.0487    1.9407    1.8720 H   0  0  0  0  0  0  0  0  0  0  0  0
    2.1215    0.6462    1.0693 H   0  0  0  0  0  0  0  0  0  0  0  0
    3.5531    1.5394    0.9442 H   0  0  0  0  0  0  0  0  0  0  0  0
    2.0267    4.0933   -3.5802 H   0  0  0  0  0  0  0  0  0  0  0  0
    2.0193    2.8625   -4.7716 H   0  0  0  0  0  0  0  0  0  0  0  0
    0.5163    3.1255   -3.7819 H   0  0  0  0  0  0  0  0  0  0  0  0
    4.7569    1.7554   -2.5556 H   0  0  0  0  0  0  0  0  0  0  0  0
    4.1604    1.9034   -4.1844 H   0  0  0  0  0  0  0  0  0  0  0  0
    4.1699    3.1963   -3.1415 H   0  0  0  0  0  0  0  0  0  0  0  0
    2.4266    3.6012    2.1443 H   0  0  0  0  0  0  0  0  0  0  0  0
    1.8544    5.1545    1.9498 H   0  0  0  0  0  0  0  0  0  0  0  0
    0.7069    3.9811    1.4887 H   0  0  0  0  0  0  0  0  0  0  0  0
    4.2797    4.5018   -2.1604 H   0  0  0  0  0  0  0  0  0  0  0  0
    4.2788    5.8920   -1.2298 H   0  0  0  0  0  0  0  0  0  0  0  0
    5.1041    4.8526   -0.5501 H   0  0  0  0  0  0  0  0  0  0  0  0
    0.2513    0.5556   -1.8588 H   0  0  0  0  0  0  0  0  0  0  0  0
   -1.0089    0.3105   -0.7163 H   0  0  0  0  0  0  0  0  0  0  0  0
    3.4331    0.3024   -2.1007 H   0  0  0  0  0  0  0  0  0  0  0  0
    4.7810   -1.5205   -0.9682 H   0  0  0  0  0  0  0  0  0  0  0  0
    0.6871    2.9393   -2.0220 H   0  0  0  0  0  0  0  0  0  0  0  0
    7.5798    2.4496    0.2553 H   0  0  0  0  0  0  0  0  0  0  0  0
    4.1898    6.1461    0.8381 H   0  0  0  0  0  0  0  0  0  0  0  0
    7.1553   -1.7974   -0.3963 H   0  0  0  0  0  0  0  0  0  0  0  0
   -0.2529    4.9905   -1.1097 H   0  0  0  0  0  0  0  0  0  0  0  0
    8.5745    0.1918    0.1861 H   0  0  0  0  0  0  0  0  0  0  0  0
    1.5763    6.9953   -0.1214 H   0  0  0  0  0  0  0  0  0  0  0  0
  1 13  1  0  0  0  0
  1 15  1  0  0  0  0
  2 18  1  0  0  0  0
  2 19  1  0  0  0  0
  3 15  2  0  0  0  0
  4  5  1  0  0  0  0
  4  6  1  0  0  0  0
  4  7  1  0  0  0  0
  4  8  1  0  0  0  0
  5  9  1  0  0  0  0
  5 10  1  0  0  0  0
  5 28  1  0  0  0  0
  6 11  1  0  0  0  0
  6 12  1  0  0  0  0
  6 29  1  0  0  0  0
  7 13  1  0  0  0  0
  7 30  1  0  0  0  0
  7 31  1  0  0  0  0
  8 32  1  0  0  0  0
  8 33  1  0  0  0  0
  8 34  1  0  0  0  0
  9 35  1  0  0  0  0
  9 36  1  0  0  0  0
  9 37  1  0  0  0  0
 10 38  1  0  0  0  0
 10 39  1  0  0  0  0
 10 40  1  0  0  0  0
 11 41  1  0  0  0  0
 11 42  1  0  0  0  0
 11 43  1  0  0  0  0
 12 44  1  0  0  0  0
 12 45  1  0  0  0  0
 12 46  1  0  0  0  0
 13 47  1  0  0  0  0
 13 48  1  0  0  0  0
 14 15  1  0  0  0  0
 14 16  1  0  0  0  0
 14 17  1  0  0  0  0
 14 49  1  0  0  0  0
 16 18  1  0  0  0  0
 16 20  2  0  0  0  0
 17 19  1  0  0  0  0
 17 21  2  0  0  0  0
 18 22  2  0  0  0  0
 19 23  2  0  0  0  0
 20 24  1  0  0  0  0
 20 50  1  0  0  0  0
 21 25  1  0  0  0  0
 21 51  1  0  0  0  0
 22 26  1  0  0  0  0
 22 52  1  0  0  0  0
 23 27  1  0  0  0  0
 23 53  1  0  0  0  0
 24 26  2  0  0  0  0
 24 54  1  0  0  0  0
 25 27  2  0  0  0  0
 25 55  1  0  0  0  0
 26 56  1  0  0  0  0
 27 57  1  0  0  0  0
M  CHG  1   4   1
M  END
>  <DRUGBANK_ID>
DB00782

>  <SECONDARY_ACCESSION_NUMBERS>
APRD00177

>  <COMMON_NAME>
Propantheline

>  <CAS_NUMBER>
298-50-0

>  <UNII>
1306V2B0Q8

>  <SYNONYMS>
Propantheline

$$$$
