
 OpenBabel10282417183D

 95 98  0  0  0  0  0  0  0  0999 V2000
    2.5049    0.0514   -0.0962 O   0  0  0  0  0  0  0  0  0  0  0  0
    1.1339    0.0221   -0.0487 C   0  0  0  0  0  0  0  0  0  0  0  0
    0.4335   -1.1980   -0.0229 C   0  0  0  0  0  0  0  0  0  0  0  0
    0.4898    1.2817   -0.0269 C   0  0  0  0  0  0  0  0  0  0  0  0
    1.0143   -2.5260   -0.0128 C   0  0  0  0  0  0  0  0  0  0  0  0
   -0.9236   -1.1114    0.2177 C   0  0  0  0  0  0  0  0  0  0  0  0
   -0.8843    1.3325    0.1489 C   0  0  0  0  0  0  0  0  0  0  0  0
    1.6693   -2.8287    1.1001 N   0  0  0  0  0  0  0  0  0  0  0  0
    0.7579   -3.3700   -1.0097 N   0  0  0  0  0  0  0  0  0  0  0  0
   -1.4471    0.1402    0.4872 C   0  0  0  0  0  0  0  0  0  0  0  0
   -1.6005    2.4857   -0.0103 O   0  0  0  0  0  0  0  0  0  0  0  0
    2.1153   -4.0747    1.1697 C   0  0  0  0  0  0  0  0  0  0  0  0
    1.2875   -4.5841   -0.8507 C   0  0  0  0  0  0  0  0  0  0  0  0
   -3.0666    2.4696   -0.0397 C   0  0  0  0  0  0  0  0  0  0  0  0
    1.9907   -4.9890    0.2111 N   0  0  0  0  0  0  0  0  0  0  0  0
    2.9185   -4.3568    2.3454 C   0  0  0  0  0  0  0  0  0  0  0  0
    1.1489   -5.5347   -1.9575 C   0  0  0  0  0  0  0  0  0  0  0  0
   -3.7601    1.8558   -1.3028 C   0  0  3  0  0  0  0  0  0  0  0  0
    2.4702   -4.3530    3.6801 C   0  0  0  0  0  0  0  0  0  0  0  0
    4.2858   -4.4247    2.1684 C   0  0  0  0  0  0  0  0  0  0  0  0
    1.5300   -5.1789   -3.2616 C   0  0  0  0  0  0  0  0  0  0  0  0
    0.6755   -6.8379   -1.7426 C   0  0  0  0  0  0  0  0  0  0  0  0
   -3.5988    0.3198   -1.3946 C   0  0  0  0  0  0  0  0  0  0  0  0
   -5.2749    2.1260   -1.3899 C   0  0  0  0  0  0  0  0  0  0  0  0
    1.1540   -4.1132    3.9844 O   0  0  0  0  0  0  0  0  0  0  0  0
    3.3248   -4.5865    4.7839 C   0  0  0  0  0  0  0  0  0  0  0  0
    5.0801   -4.3895    3.3019 C   0  0  0  0  0  0  0  0  0  0  0  0
    1.4882   -6.1081   -4.3076 C   0  0  0  0  0  0  0  0  0  0  0  0
    0.6197   -7.7624   -2.7910 C   0  0  0  0  0  0  0  0  0  0  0  0
   -4.1930   -0.4962   -0.1842 C   0  0  0  0  0  0  0  0  0  0  0  0
   -5.7601    3.5466   -1.4156 C   0  0  0  0  0  0  0  0  0  0  0  0
    4.6875   -4.7081    4.5663 C   0  0  0  0  0  0  0  0  0  0  0  0
    1.0438   -7.4083   -4.0727 C   0  0  0  0  0  0  0  0  0  0  0  0
   -5.6775   -0.7009   -0.0614 C   0  0  0  0  0  0  0  0  0  0  0  0
    5.5513   -5.1150    5.5442 O   0  0  0  0  0  0  0  0  0  0  0  0
    0.9825   -8.4121   -4.9996 O   0  0  0  0  0  0  0  0  0  0  0  0
   -6.1876   -1.2391   -1.3584 C   0  0  0  0  0  0  0  0  0  0  0  0
    6.9452   -5.4491    5.2350 C   0  0  0  0  0  0  0  0  0  0  0  0
    1.4485   -8.0964   -6.3062 C   0  0  0  0  0  0  0  0  0  0  0  0
    7.2142   -6.7683    4.4349 C   0  0  3  0  0  0  0  0  0  0  0  0
    6.7561   -6.6844    2.9596 C   0  0  0  0  0  0  0  0  0  0  0  0
    8.6944   -7.1946    4.3924 C   0  0  0  0  0  0  0  0  0  0  0  0
    7.4439   -5.5554    2.1014 C   0  0  0  0  0  0  0  0  0  0  0  0
    9.4152   -7.4506    5.6843 C   0  0  0  0  0  0  0  0  0  0  0  0
    8.8543   -5.7276    1.6101 C   0  0  0  0  0  0  0  0  0  0  0  0
    8.9540   -7.0482    0.9182 C   0  0  0  0  0  0  0  0  0  0  0  0
    2.8292   -0.8519    0.0574 H   0  0  0  0  0  0  0  0  0  0  0  0
    1.0577    2.1980   -0.0986 H   0  0  0  0  0  0  0  0  0  0  0  0
   -1.5468   -2.0006    0.2548 H   0  0  0  0  0  0  0  0  0  0  0  0
   -2.4022    0.1987    0.9467 H   0  0  0  0  0  0  0  0  0  0  0  0
   -3.4762    2.0588    0.8907 H   0  0  0  0  0  0  0  0  0  0  0  0
   -3.3445    3.5300   -0.0063 H   0  0  0  0  0  0  0  0  0  0  0  0
   -3.2838    2.2980   -2.1884 H   0  0  0  0  0  0  0  0  0  0  0  0
    4.7271   -4.4356    1.1755 H   0  0  0  0  0  0  0  0  0  0  0  0
    1.8928   -4.1729   -3.4667 H   0  0  0  0  0  0  0  0  0  0  0  0
    0.3518   -7.1440   -0.7495 H   0  0  0  0  0  0  0  0  0  0  0  0
   -3.9829   -0.0585   -2.3465 H   0  0  0  0  0  0  0  0  0  0  0  0
   -2.5346    0.1267   -1.5560 H   0  0  0  0  0  0  0  0  0  0  0  0
   -5.7012    1.5882   -2.2487 H   0  0  0  0  0  0  0  0  0  0  0  0
   -5.7443    1.7483   -0.4949 H   0  0  0  0  0  0  0  0  0  0  0  0
    0.7079   -3.8198    3.1722 H   0  0  0  0  0  0  0  0  0  0  0  0
    2.9347   -4.6209    5.7909 H   0  0  0  0  0  0  0  0  0  0  0  0
    6.1067   -4.1458    3.1903 H   0  0  0  0  0  0  0  0  0  0  0  0
    1.8211   -5.7836   -5.2877 H   0  0  0  0  0  0  0  0  0  0  0  0
    0.2567   -8.7698   -2.6009 H   0  0  0  0  0  0  0  0  0  0  0  0
   -3.7166   -1.4848   -0.1722 H   0  0  0  0  0  0  0  0  0  0  0  0
   -4.0288   -0.0333    0.7874 H   0  0  0  0  0  0  0  0  0  0  0  0
   -5.3897    4.0821   -2.2873 H   0  0  0  0  0  0  0  0  0  0  0  0
   -6.8575    3.5291   -1.4419 H   0  0  0  0  0  0  0  0  0  0  0  0
   -5.4711    4.0548   -0.4942 H   0  0  0  0  0  0  0  0  0  0  0  0
   -5.8701   -1.3867    0.7727 H   0  0  0  0  0  0  0  0  0  0  0  0
   -6.1803    0.2073    0.2698 H   0  0  0  0  0  0  0  0  0  0  0  0
   -5.8017   -2.2535   -1.4788 H   0  0  0  0  0  0  0  0  0  0  0  0
   -7.2718   -1.2187   -1.3710 H   0  0  0  0  0  0  0  0  0  0  0  0
   -5.8445   -0.6569   -2.2143 H   0  0  0  0  0  0  0  0  0  0  0  0
    7.4690   -4.5916    4.7963 H   0  0  0  0  0  0  0  0  0  0  0  0
    7.4139   -5.5711    6.2190 H   0  0  0  0  0  0  0  0  0  0  0  0
    0.8374   -7.3085   -6.7587 H   0  0  0  0  0  0  0  0  0  0  0  0
    2.5075   -7.8161   -6.2919 H   0  0  0  0  0  0  0  0  0  0  0  0
    1.3495   -8.9925   -6.9254 H   0  0  0  0  0  0  0  0  0  0  0  0
    6.6422   -7.5709    4.9201 H   0  0  0  0  0  0  0  0  0  0  0  0
    6.8419   -7.6569    2.4664 H   0  0  0  0  0  0  0  0  0  0  0  0
    5.6658   -6.6020    2.9755 H   0  0  0  0  0  0  0  0  0  0  0  0
    8.8117   -8.0710    3.7391 H   0  0  0  0  0  0  0  0  0  0  0  0
    9.2737   -6.3871    3.9723 H   0  0  0  0  0  0  0  0  0  0  0  0
    6.8080   -5.3537    1.2300 H   0  0  0  0  0  0  0  0  0  0  0  0
    7.5885   -4.6173    2.6350 H   0  0  0  0  0  0  0  0  0  0  0  0
    8.9650   -8.2706    6.2401 H   0  0  0  0  0  0  0  0  0  0  0  0
   10.4565   -7.7044    5.4464 H   0  0  0  0  0  0  0  0  0  0  0  0
    9.4379   -6.5394    6.2842 H   0  0  0  0  0  0  0  0  0  0  0  0
    9.0981   -4.8933    0.9410 H   0  0  0  0  0  0  0  0  0  0  0  0
    9.5771   -5.5933    2.4143 H   0  0  0  0  0  0  0  0  0  0  0  0
    8.3704   -6.9921   -0.0031 H   0  0  0  0  0  0  0  0  0  0  0  0
    9.9927   -7.2893    0.7207 H   0  0  0  0  0  0  0  0  0  0  0  0
    8.5422   -7.8628    1.5150 H   0  0  0  0  0  0  0  0  0  0  0  0
  1  2  1  0  0  0  0
  1 47  1  0  0  0  0
  2  3  2  0  0  0  0
  2  4  1  0  0  0  0
  3  5  1  0  0  0  0
  3  6  1  0  0  0  0
  4  7  2  0  0  0  0
  4 48  1  0  0  0  0
  5  8  1  0  0  0  0
  5  9  2  0  0  0  0
  6 10  2  0  0  0  0
  6 49  1  0  0  0  0
  7 10  1  0  0  0  0
  7 11  1  0  0  0  0
  8 12  2  0  0  0  0
  9 13  1  0  0  0  0
 10 50  1  0  0  0  0
 11 14  1  0  0  0  0
 12 15  1  0  0  0  0
 12 16  1  0  0  0  0
 13 15  2  0  0  0  0
 13 17  1  0  0  0  0
 14 18  1  0  0  0  0
 14 51  1  0  0  0  0
 14 52  1  0  0  0  0
 16 19  2  0  0  0  0
 16 20  1  0  0  0  0
 17 21  2  0  0  0  0
 17 22  1  0  0  0  0
 18 23  1  0  0  0  0
 18 24  1  0  0  0  0
 18 53  1  0  0  0  0
 19 25  1  0  0  0  0
 19 26  1  0  0  0  0
 20 27  2  0  0  0  0
 20 54  1  0  0  0  0
 21 28  1  0  0  0  0
 21 55  1  0  0  0  0
 22 29  2  0  0  0  0
 22 56  1  0  0  0  0
 23 30  1  0  0  0  0
 23 57  1  0  0  0  0
 23 58  1  0  0  0  0
 24 31  1  0  0  0  0
 24 59  1  0  0  0  0
 24 60  1  0  0  0  0
 25 61  1  0  0  0  0
 26 32  2  0  0  0  0
 26 62  1  0  0  0  0
 27 32  1  0  0  0  0
 27 63  1  0  0  0  0
 28 33  2  0  0  0  0
 28 64  1  0  0  0  0
 29 33  1  0  0  0  0
 29 65  1  0  0  0  0
 30 34  1  0  0  0  0
 30 66  1  0  0  0  0
 30 67  1  0  0  0  0
 31 68  1  0  0  0  0
 31 69  1  0  0  0  0
 31 70  1  0  0  0  0
 32 35  1  0  0  0  0
 33 36  1  0  0  0  0
 34 37  1  0  0  0  0
 34 71  1  0  0  0  0
 34 72  1  0  0  0  0
 35 38  1  0  0  0  0
 36 39  1  0  0  0  0
 37 73  1  0  0  0  0
 37 74  1  0  0  0  0
 37 75  1  0  0  0  0
 38 40  1  0  0  0  0
 38 76  1  0  0  0  0
 38 77  1  0  0  0  0
 39 78  1  0  0  0  0
 39 79  1  0  0  0  0
 39 80  1  0  0  0  0
 40 41  1  0  0  0  0
 40 42  1  0  0  0  0
 40 81  1  0  0  0  0
 41 43  1  0  0  0  0
 41 82  1  0  0  0  0
 41 83  1  0  0  0  0
 42 44  1  0  0  0  0
 42 84  1  0  0  0  0
 42 85  1  0  0  0  0
 43 45  1  0  0  0  0
 43 86  1  0  0  0  0
 43 87  1  0  0  0  0
 44 88  1  0  0  0  0
 44 89  1  0  0  0  0
 44 90  1  0  0  0  0
 45 46  1  0  0  0  0
 45 91  1  0  0  0  0
 45 92  1  0  0  0  0
 46 93  1  0  0  0  0
 46 94  1  0  0  0  0
 46 95  1  0  0  0  0
M  END
>  <DRUGBANK_ID>
DB11206

>  <COMMON_NAME>
Bemotrizinol

>  <CAS_NUMBER>
187393-00-6

>  <UNII>
PWZ1720CBH

>  <SYNONYMS>
Bemotrizinol; BEMT

$$$$
