
 OpenBabel10282417103D

 62 64  0  0  0  0  0  0  0  0999 V2000
   -3.1001    1.5299    3.0650 C   0  0  0  0  0  0  0  0  0  0  0  0
   -3.8104    0.3098    3.2116 C   0  0  0  0  0  0  0  0  0  0  0  0
   -5.0976    0.2190    2.7412 C   0  0  0  0  0  0  0  0  0  0  0  0
   -5.6916    1.3958    2.3091 C   0  0  0  0  0  0  0  0  0  0  0  0
   -5.0171    2.6317    2.1708 C   0  0  0  0  0  0  0  0  0  0  0  0
   -3.6408    2.6554    2.3800 C   0  0  0  0  0  0  0  0  0  0  0  0
   -2.7084    3.6797    1.6781 C   0  0  0  0  0  0  0  0  0  0  0  0
   -2.3642    3.7059    0.1120 C   0  0  0  0  0  0  0  0  0  0  0  0
   -4.4714    2.7020   -0.8820 N   0  0  0  0  0  0  0  0  0  0  0  0
   -7.9064   -0.8161    0.5082 C   0  0  0  0  0  0  0  0  0  0  0  0
   -6.2123    0.2726   -0.7927 N   0  0  0  0  0  0  0  0  0  0  0  0
   -7.7793    2.1357   -1.5784 C   0  0  0  0  0  0  0  0  0  0  0  0
   -9.2561    2.2057   -1.2099 C   0  0  0  0  0  0  0  0  0  0  0  0
   -9.5412    0.8491   -0.5864 C   0  0  0  0  0  0  0  0  0  0  0  0
   -7.1638    1.3344   -0.4448 C   0  0  1  0  0  0  0  0  0  0  0  0
   -6.7376    2.1062    0.1773 H   0  0  0  0  0  0  0  0  0  0  0  0
   -8.3338    0.6349    0.3028 C   0  0  2  0  0  0  0  0  0  0  0  0
   -8.5457    1.0967    1.2788 H   0  0  0  0  0  0  0  0  0  0  0  0
   -3.8709    1.3662   -1.0479 C   0  0  1  0  0  0  0  0  0  0  0  0
   -3.1820    0.7495    0.1591 C   0  0  0  0  0  0  0  0  0  0  0  0
   -3.5525    3.8387   -0.8397 C   0  0  2  0  0  0  0  0  0  0  0  0
   -3.2354    4.1545   -2.3272 C   0  0  0  0  0  0  0  0  0  0  0  0
   -2.6075    3.3753   -3.0414 O   0  0  0  0  0  0  0  0  0  0  0  0
   -3.7960    5.2595   -2.8848 O   0  0  0  0  0  0  0  0  0  0  0  0
   -4.4558    6.3087   -2.1567 C   0  0  0  0  0  0  0  0  0  0  0  0
   -6.8207   -1.0538   -0.5611 C   0  0  2  0  0  0  0  0  0  0  0  0
   -7.0479   -1.5063   -2.9984 O   0  0  0  0  0  0  0  0  0  0  0  0
   -7.4195   -1.6634   -1.8239 C   0  0  0  0  0  0  0  0  0  0  0  0
   -8.4649   -2.4786   -1.6039 O   0  0  0  0  0  0  0  0  0  0  0  0
   -4.9616    0.3236   -1.4273 C   0  0  0  0  0  0  0  0  0  0  0  0
   -4.5759   -0.6331   -2.1130 O   0  0  0  0  0  0  0  0  0  0  0  0
   -5.8280    5.9075   -1.6332 C   0  0  0  0  0  0  0  0  0  0  0  0
   -2.0406    1.4955    3.2864 H   0  0  0  0  0  0  0  0  0  0  0  0
   -3.2943   -0.6183    3.4441 H   0  0  0  0  0  0  0  0  0  0  0  0
   -5.5428   -0.7457    2.4863 H   0  0  0  0  0  0  0  0  0  0  0  0
   -6.6226    1.2354    1.8164 H   0  0  0  0  0  0  0  0  0  0  0  0
   -5.5256    3.4509    1.6600 H   0  0  0  0  0  0  0  0  0  0  0  0
   -3.0624    4.6834    1.9385 H   0  0  0  0  0  0  0  0  0  0  0  0
   -1.7289    3.5658    2.1579 H   0  0  0  0  0  0  0  0  0  0  0  0
   -1.7167    4.5799   -0.0616 H   0  0  0  0  0  0  0  0  0  0  0  0
   -1.7205    2.8845   -0.2145 H   0  0  0  0  0  0  0  0  0  0  0  0
   -5.0584    2.7135   -0.0728 H   0  0  0  0  0  0  0  0  0  0  0  0
   -7.4850   -0.9405    1.5133 H   0  0  0  0  0  0  0  0  0  0  0  0
   -8.7535   -1.5095    0.4870 H   0  0  0  0  0  0  0  0  0  0  0  0
   -7.6018    1.6708   -2.5492 H   0  0  0  0  0  0  0  0  0  0  0  0
   -7.3505    3.1455   -1.6013 H   0  0  0  0  0  0  0  0  0  0  0  0
   -9.4224    3.0006   -0.4682 H   0  0  0  0  0  0  0  0  0  0  0  0
   -9.8803    2.4100   -2.0793 H   0  0  0  0  0  0  0  0  0  0  0  0
  -10.4732    0.8355   -0.0122 H   0  0  0  0  0  0  0  0  0  0  0  0
   -9.5980    0.0796   -1.3586 H   0  0  0  0  0  0  0  0  0  0  0  0
   -3.1095    1.3828   -1.8266 H   0  0  0  0  0  0  0  0  0  0  0  0
   -2.9186   -0.3095    0.1341 H   0  0  0  0  0  0  0  0  0  0  0  0
   -2.3158    1.2653    0.5708 H   0  0  0  0  0  0  0  0  0  0  0  0
   -3.9659    0.7595    0.8672 H   0  0  0  0  0  0  0  0  0  0  0  0
   -4.0614    4.6937   -0.4050 H   0  0  0  0  0  0  0  0  0  0  0  0
   -3.7855    6.6827   -1.3759 H   0  0  0  0  0  0  0  0  0  0  0  0
   -4.5940    7.1294   -2.8704 H   0  0  0  0  0  0  0  0  0  0  0  0
   -6.0560   -1.7448   -0.1789 H   0  0  0  0  0  0  0  0  0  0  0  0
   -8.7253   -2.7461   -2.5104 H   0  0  0  0  0  0  0  0  0  0  0  0
   -5.8175    5.0737   -0.9321 H   0  0  0  0  0  0  0  0  0  0  0  0
   -6.2885    6.7441   -1.1037 H   0  0  0  0  0  0  0  0  0  0  0  0
   -6.4712    5.5756   -2.4510 H   0  0  0  0  0  0  0  0  0  0  0  0
  1  2  1  0  0  0  0
  1  6  2  0  0  0  0
  1 33  1  0  0  0  0
  2  3  2  0  0  0  0
  2 34  1  0  0  0  0
  3  4  1  0  0  0  0
  3 35  1  0  0  0  0
  4  5  2  0  0  0  0
  4 36  1  0  0  0  0
  5  6  1  0  0  0  0
  5 37  1  0  0  0  0
  6  7  1  0  0  0  0
  7  8  1  0  0  0  0
  7 38  1  0  0  0  0
  7 39  1  0  0  0  0
  8 40  1  0  0  0  0
  8 41  1  0  0  0  0
  9 42  1  0  0  0  0
 10 26  1  0  0  0  0
 10 17  1  0  0  0  0
 10 43  1  0  0  0  0
 10 44  1  0  0  0  0
 11 15  1  0  0  0  0
 12 13  1  0  0  0  0
 12 45  1  0  0  0  0
 12 46  1  0  0  0  0
 13 14  1  0  0  0  0
 13 47  1  0  0  0  0
 13 48  1  0  0  0  0
 14 49  1  0  0  0  0
 14 50  1  0  0  0  0
 15 12  1  0  0  0  0
 15 16  1  1  0  0  0
 17 15  1  0  0  0  0
 17 14  1  0  0  0  0
 17 18  1  1  0  0  0
 19 20  1  0  0  0  0
 19 51  1  6  0  0  0
 19 30  1  0  0  0  0
 19  9  1  0  0  0  0
 20 52  1  0  0  0  0
 20 53  1  0  0  0  0
 20 54  1  0  0  0  0
 21 22  1  0  0  0  0
 21 55  1  1  0  0  0
 21  9  1  0  0  0  0
 21  8  1  0  0  0  0
 22 24  1  0  0  0  0
 22 23  2  0  0  0  0
 24 25  1  0  0  0  0
 25 32  1  0  0  0  0
 25 56  1  0  0  0  0
 25 57  1  0  0  0  0
 26 11  1  0  0  0  0
 26 58  1  1  0  0  0
 26 28  1  0  0  0  0
 28 27  2  0  0  0  0
 28 29  1  0  0  0  0
 29 59  1  0  0  0  0
 30 11  1  0  0  0  0
 30 31  2  0  0  0  0
 32 60  1  0  0  0  0
 32 61  1  0  0  0  0
 32 62  1  0  0  0  0
M  END
>  <DRUGBANK_ID>
DB00178

>  <SECONDARY_ACCESSION_NUMBERS>
APRD00009

>  <COMMON_NAME>
Ramipril

>  <CAS_NUMBER>
87333-19-5

>  <UNII>
L35JN3I7SJ

>  <SYNONYMS>
(2S-(1(R*(R*)),2alpha,3abeta,6abeta))-1-(2-((1-(Ethoxycarbonyl)-3-phenylpropyl)amino)-1-oxopropyl)octahydrocyclopenta(b)pyrrole-2-carboxylic acid; Ramipril; Ramiprilum

$$$$
