
 OpenBabel10282417173D

 31 33  0  0  0  0  0  0  0  0999 V2000
   -0.5457    1.1267   -0.1405 C   0  0  0  0  0  0  0  0  0  0  0  0
   -1.2234   -0.0251   -0.2726 N   0  0  0  0  0  0  0  0  0  0  0  0
   -0.5626   -1.1864   -0.1435 C   0  0  0  0  0  0  0  0  0  0  0  0
    0.7952   -1.2193   -0.0225 C   0  0  0  0  0  0  0  0  0  0  0  0
    1.4073    0.0054   -0.0048 C   0  0  0  0  0  0  0  0  0  0  0  0
    0.7803    1.1879   -0.0246 N   0  0  0  0  0  0  0  0  0  0  0  0
   -1.2973   -2.3464    0.0506 N   0  0  0  0  0  0  0  0  0  0  0  0
   -1.3904    2.6917   -0.0645 S   0  0  0  0  0  0  0  0  0  0  0  0
   -3.1817    2.2853    0.0301 C   0  0  1  0  0  0  0  0  0  0  0  0
   -3.7057    1.6520   -1.2548 C   0  0  0  0  0  0  0  0  0  0  0  0
   -4.7233    1.9206    3.3467 C   0  0  0  0  0  0  0  0  0  0  0  0
   -4.6527    0.5576    3.5546 C   0  0  0  0  0  0  0  0  0  0  0  0
   -3.9619   -0.3235    2.7697 C   0  0  0  0  0  0  0  0  0  0  0  0
   -3.4489    0.2135    1.5670 C   0  0  0  0  0  0  0  0  0  0  0  0
   -3.6054    1.6006    1.3233 C   0  0  0  0  0  0  0  0  0  0  0  0
   -4.1938    2.4297    2.2223 N   0  0  0  0  0  0  0  0  0  0  0  0
   -5.2641   -0.0447    4.5889 O   0  0  0  0  0  0  0  0  0  0  0  0
   -4.0159   -1.5647    3.4979 C   0  0  0  0  0  0  0  0  0  0  0  0
   -4.7902   -1.3050    4.6151 C   0  0  0  0  0  0  0  0  0  0  0  0
    3.1183    0.1064    0.0439 Cl  0  0  0  0  0  0  0  0  0  0  0  0
    1.3439   -2.1447    0.0586 H   0  0  0  0  0  0  0  0  0  0  0  0
   -0.8630   -3.2462   -0.0989 H   0  0  0  0  0  0  0  0  0  0  0  0
   -2.2965   -2.2930   -0.0994 H   0  0  0  0  0  0  0  0  0  0  0  0
   -3.6689    3.2781    0.0552 H   0  0  0  0  0  0  0  0  0  0  0  0
   -3.2911    0.6580   -1.4183 H   0  0  0  0  0  0  0  0  0  0  0  0
   -4.7965    1.5443   -1.2263 H   0  0  0  0  0  0  0  0  0  0  0  0
   -3.4649    2.2716   -2.1277 H   0  0  0  0  0  0  0  0  0  0  0  0
   -5.1873    2.5568    4.0737 H   0  0  0  0  0  0  0  0  0  0  0  0
   -3.0030   -0.4237    0.8344 H   0  0  0  0  0  0  0  0  0  0  0  0
   -3.5588   -2.5247    3.2957 H   0  0  0  0  0  0  0  0  0  0  0  0
   -5.1067   -1.8365    5.5017 H   0  0  0  0  0  0  0  0  0  0  0  0
  1  2  1  0  0  0  0
  1  6  2  0  0  0  0
  1  8  1  0  0  0  0
  2  3  2  0  0  0  0
  3  4  1  0  0  0  0
  3  7  1  0  0  0  0
  4  5  2  0  0  0  0
  4 21  1  0  0  0  0
  5  6  1  0  0  0  0
  5 20  1  0  0  0  0
  7 22  1  0  0  0  0
  7 23  1  0  0  0  0
  8  9  1  0  0  0  0
  9 10  1  0  0  0  0
  9 15  1  0  0  0  0
  9 24  1  1  0  0  0
 10 25  1  0  0  0  0
 10 26  1  0  0  0  0
 10 27  1  0  0  0  0
 11 12  1  0  0  0  0
 11 16  2  0  0  0  0
 11 28  1  0  0  0  0
 12 13  2  0  0  0  0
 13 14  1  0  0  0  0
 14 15  2  0  0  0  0
 14 29  1  0  0  0  0
 15 16  1  0  0  0  0
 17 19  1  0  0  0  0
 17 12  1  0  0  0  0
 18 19  2  0  0  0  0
 18 13  1  0  0  0  0
 18 30  1  0  0  0  0
 19 31  1  0  0  0  0
M  END
>  <DRUGBANK_ID>
DB08414

>  <COMMON_NAME>
PNU-142721

>  <CAS_NUMBER>
185220-03-5

>  <UNII>
U3D0LYB7P0

$$$$
