
 OpenBabel10282417183D

 61 61  0  0  0  0  0  0  0  0999 V2000
   -0.7821    1.1104    0.0323 C   0  0  0  0  0  0  0  0  0  0  0  0
    0.5990    1.1330   -0.1052 C   0  0  0  0  0  0  0  0  0  0  0  0
    1.3155   -0.0156   -0.2064 N   0  3  0  0  0  0  0  0  0  0  0  0
    0.6981   -1.2030   -0.0398 C   0  0  0  0  0  0  0  0  0  0  0  0
   -0.6859   -1.2779   -0.0328 C   0  0  0  0  0  0  0  0  0  0  0  0
   -1.4343   -0.1090   -0.0243 C   0  0  0  0  0  0  0  0  0  0  0  0
    2.7797   -0.0207   -0.4904 C   0  0  0  0  0  0  0  0  0  0  0  0
    3.1090    0.6558   -1.8554 C   0  0  0  0  0  0  0  0  0  0  0  0
    4.0460    1.6599   -1.9825 N   0  0  0  0  0  0  0  0  0  0  0  0
    4.2471    2.5850   -3.1113 C   0  0  0  0  0  0  0  0  0  0  0  0
    3.6474    4.0002   -2.9118 C   0  0  0  0  0  0  0  0  0  0  0  0
    4.2961    4.7700   -1.8630 O   0  0  0  0  0  0  0  0  0  0  0  0
    4.0501    4.7081   -0.5327 C   0  0  0  0  0  0  0  0  0  0  0  0
    3.3252    3.5016   -0.0346 C   0  0  0  0  0  0  0  0  0  0  0  0
    4.3337    2.6109    0.7206 C   0  0  0  0  0  0  0  0  0  0  0  0
    4.7434    3.1148    2.0623 C   0  0  0  0  0  0  0  0  0  0  0  0
    3.4683    3.3177    2.8683 C   0  0  0  0  0  0  0  0  0  0  0  0
    2.6969    1.9932    3.0755 C   0  0  0  0  0  0  0  0  0  0  0  0
    3.5868    0.9668    3.7807 C   0  0  0  0  0  0  0  0  0  0  0  0
    4.0820    1.5709    5.0956 C   0  0  0  0  0  0  0  0  0  0  0  0
    2.8858    1.9336    5.9852 C   0  0  0  0  0  0  0  0  0  0  0  0
    2.0774    0.6807    6.3371 C   0  0  0  0  0  0  0  0  0  0  0  0
    2.9459   -0.3456    7.0643 C   0  0  0  0  0  0  0  0  0  0  0  0
    3.4930    0.2466    8.3529 C   0  0  0  0  0  0  0  0  0  0  0  0
    2.4674    0.2964   -2.8420 O   0  0  0  0  0  0  0  0  0  0  0  0
    4.4927    5.5171    0.2465 O   0  0  0  0  0  0  0  0  0  0  0  0
   -1.3461    2.0353    0.1478 H   0  0  0  0  0  0  0  0  0  0  0  0
    1.1147    2.0800   -0.1260 H   0  0  0  0  0  0  0  0  0  0  0  0
    1.3241   -2.0818    0.0761 H   0  0  0  0  0  0  0  0  0  0  0  0
   -1.1743   -2.2475   -0.0397 H   0  0  0  0  0  0  0  0  0  0  0  0
   -2.5215   -0.1501   -0.0449 H   0  0  0  0  0  0  0  0  0  0  0  0
    3.1942    0.3047    0.4415 H   0  0  0  0  0  0  0  0  0  0  0  0
    3.1421   -1.0508   -0.5347 H   0  0  0  0  0  0  0  0  0  0  0  0
    4.7030    1.8840   -1.2708 H   0  0  0  0  0  0  0  0  0  0  0  0
    5.3344    2.7016   -3.1954 H   0  0  0  0  0  0  0  0  0  0  0  0
    3.8472    2.1262   -4.0150 H   0  0  0  0  0  0  0  0  0  0  0  0
    3.8478    4.5793   -3.8216 H   0  0  0  0  0  0  0  0  0  0  0  0
    2.5613    4.0020   -2.7703 H   0  0  0  0  0  0  0  0  0  0  0  0
    2.4661    3.8049    0.5649 H   0  0  0  0  0  0  0  0  0  0  0  0
    2.7867    3.0175   -0.8401 H   0  0  0  0  0  0  0  0  0  0  0  0
    3.8647    1.6860    0.9532 H   0  0  0  0  0  0  0  0  0  0  0  0
    5.2606    2.3254    0.2193 H   0  0  0  0  0  0  0  0  0  0  0  0
    5.4095    2.3638    2.5085 H   0  0  0  0  0  0  0  0  0  0  0  0
    5.3543    4.0072    1.9471 H   0  0  0  0  0  0  0  0  0  0  0  0
    3.7355    3.8003    3.8053 H   0  0  0  0  0  0  0  0  0  0  0  0
    2.8022    4.0396    2.3976 H   0  0  0  0  0  0  0  0  0  0  0  0
    1.7799    2.1983    3.6342 H   0  0  0  0  0  0  0  0  0  0  0  0
    2.3065    1.5567    2.1531 H   0  0  0  0  0  0  0  0  0  0  0  0
    3.0379    0.0323    3.9356 H   0  0  0  0  0  0  0  0  0  0  0  0
    4.4369    0.6636    3.1602 H   0  0  0  0  0  0  0  0  0  0  0  0
    4.7759    0.8847    5.5851 H   0  0  0  0  0  0  0  0  0  0  0  0
    4.6949    2.4612    4.9245 H   0  0  0  0  0  0  0  0  0  0  0  0
    3.2361    2.4563    6.8776 H   0  0  0  0  0  0  0  0  0  0  0  0
    2.2275    2.6687    5.5097 H   0  0  0  0  0  0  0  0  0  0  0  0
    1.2167    0.9600    6.9519 H   0  0  0  0  0  0  0  0  0  0  0  0
    1.6483    0.2233    5.4367 H   0  0  0  0  0  0  0  0  0  0  0  0
    2.3580   -1.2426    7.2748 H   0  0  0  0  0  0  0  0  0  0  0  0
    3.7757   -0.6830    6.4318 H   0  0  0  0  0  0  0  0  0  0  0  0
    2.6651    0.5517    8.9995 H   0  0  0  0  0  0  0  0  0  0  0  0
    4.1172   -0.4767    8.8774 H   0  0  0  0  0  0  0  0  0  0  0  0
    4.1181    1.1271    8.1706 H   0  0  0  0  0  0  0  0  0  0  0  0
  1  2  2  0  0  0  0
  1 27  1  0  0  0  0
  2  3  1  0  0  0  0
  2 28  1  0  0  0  0
  3  7  1  0  0  0  0
  3  4  2  0  0  0  0
  4  5  1  0  0  0  0
  4 29  1  0  0  0  0
  5  6  2  0  0  0  0
  5 30  1  0  0  0  0
  6  1  1  0  0  0  0
  6 31  1  0  0  0  0
  7  8  1  0  0  0  0
  7 32  1  0  0  0  0
  7 33  1  0  0  0  0
  8  9  1  0  0  0  0
  8 25  2  0  0  0  0
  9 10  1  0  0  0  0
  9 34  1  0  0  0  0
 10 11  1  0  0  0  0
 10 35  1  0  0  0  0
 10 36  1  0  0  0  0
 11 12  1  0  0  0  0
 11 37  1  0  0  0  0
 11 38  1  0  0  0  0
 12 13  1  0  0  0  0
 13 14  1  0  0  0  0
 13 26  2  0  0  0  0
 14 15  1  0  0  0  0
 14 39  1  0  0  0  0
 14 40  1  0  0  0  0
 15 16  1  0  0  0  0
 15 41  1  0  0  0  0
 15 42  1  0  0  0  0
 16 17  1  0  0  0  0
 16 43  1  0  0  0  0
 16 44  1  0  0  0  0
 17 18  1  0  0  0  0
 17 45  1  0  0  0  0
 17 46  1  0  0  0  0
 18 19  1  0  0  0  0
 18 47  1  0  0  0  0
 18 48  1  0  0  0  0
 19 20  1  0  0  0  0
 19 49  1  0  0  0  0
 19 50  1  0  0  0  0
 20 21  1  0  0  0  0
 20 51  1  0  0  0  0
 20 52  1  0  0  0  0
 21 22  1  0  0  0  0
 21 53  1  0  0  0  0
 21 54  1  0  0  0  0
 22 23  1  0  0  0  0
 22 55  1  0  0  0  0
 22 56  1  0  0  0  0
 23 24  1  0  0  0  0
 23 57  1  0  0  0  0
 23 58  1  0  0  0  0
 24 59  1  0  0  0  0
 24 60  1  0  0  0  0
 24 61  1  0  0  0  0
M  CHG  1   3   1
M  END
>  <DRUGBANK_ID>
DB09376

>  <COMMON_NAME>
Lapyrium

>  <CAS_NUMBER>
109260-82-4

>  <UNII>
5172AI8LRR

$$$$
