
 OpenBabel10282417143D

 25 24  0  0  0  0  0  0  0  0999 V2000
    1.7678    0.7106    0.6286 C   0  0  0  0  0  0  0  0  0  0  0  0
    0.4181    1.6743   -0.6926 C   0  0  0  0  0  0  0  0  0  0  0  0
    0.4094    1.6883   -2.5883 C   0  0  0  0  0  0  0  0  0  0  0  0
   -0.9972    1.2707   -0.7764 O   0  0  0  0  0  0  0  0  0  0  0  0
   -1.5739   -0.1842   -1.5137 P   0  0  0  0  0  0  0  0  0  0  0  0
   -2.1436    0.5267   -2.7407 O   0  0  0  0  0  0  0  0  0  0  0  0
   -0.1201   -0.8159   -1.8779 O   0  0  0  0  0  0  0  0  0  0  0  0
    0.8289   -0.4536   -0.9528 C   0  0  0  0  0  0  0  0  0  0  0  0
    2.2432    0.8037   -1.5806 C   0  0  0  0  0  0  0  0  0  0  0  0
   -0.2555   -0.2364    0.7093 C   0  0  0  0  0  0  0  0  0  0  0  0
    1.6988   -0.4524    0.7086 H   0  0  0  0  0  0  0  0  0  0  0  0
    1.6588    0.7728    1.6924 H   0  0  0  0  0  0  0  0  0  0  0  0
    2.8187    0.5586    0.4013 H   0  0  0  0  0  0  0  0  0  0  0  0
    0.4889    2.6639   -0.2863 H   0  0  0  0  0  0  0  0  0  0  0  0
    0.1997    0.7154   -3.0859 H   0  0  0  0  0  0  0  0  0  0  0  0
   -0.2949    2.4172   -2.9956 H   0  0  0  0  0  0  0  0  0  0  0  0
    1.3085    1.9040   -3.2062 H   0  0  0  0  0  0  0  0  0  0  0  0
   -2.0339   -1.3448   -2.1018 H   0  0  0  0  0  0  0  0  0  0  0  0
    1.4890   -1.3059   -0.8883 H   0  0  0  0  0  0  0  0  0  0  0  0
    2.0424    1.9366   -1.7339 H   0  0  0  0  0  0  0  0  0  0  0  0
    2.9425    1.3722   -0.9141 H   0  0  0  0  0  0  0  0  0  0  0  0
    2.6808    0.4802   -2.4962 H   0  0  0  0  0  0  0  0  0  0  0  0
   -0.2353   -1.0951    1.3564 H   0  0  0  0  0  0  0  0  0  0  0  0
   -0.0335    0.6684    1.3595 H   0  0  0  0  0  0  0  0  0  0  0  0
   -1.3194    0.1073    0.7276 H   0  0  0  0  0  0  0  0  0  0  0  0
  1  2  1  0  0  0  0
  1 11  1  0  0  0  0
  1 12  1  0  0  0  0
  1 13  1  0  0  0  0
  2  3  1  0  0  0  0
  2  4  1  0  0  0  0
  2 14  1  0  0  0  0
  3 15  1  0  0  0  0
  3 16  1  0  0  0  0
  3 17  1  0  0  0  0
  4  5  1  0  0  0  0
  5  6  2  0  0  0  0
  5  7  1  0  0  0  0
  5 18  1  0  0  0  0
  7  8  1  0  0  0  0
  8  9  1  0  0  0  0
  8 10  1  0  0  0  0
  8 19  1  0  0  0  0
  9 20  1  0  0  0  0
  9 21  1  0  0  0  0
  9 22  1  0  0  0  0
 10 23  1  0  0  0  0
 10 24  1  0  0  0  0
 10 25  1  0  0  0  0
M  END
>  <DRUGBANK_ID>
DB04491

>  <SECONDARY_ACCESSION_NUMBERS>
EXPT01171

>  <COMMON_NAME>
Diisopropylphosphono Group

>  <UNII>
676G4RQ6ND

$$$$
