C19
 OpenBabel10282417163D

 53 57  0  0  0  0  0  0  0  0999 V2000
    2.4575   -0.6204   -0.0456 N   0  0  0  0  0  0  0  0  0  0  0  0
    1.3010   -1.2967   -0.0058 C   0  0  0  0  0  0  0  0  0  0  0  0
    0.0671   -0.6851    0.0291 C   0  0  0  0  0  0  0  0  0  0  0  0
    0.0742    0.7105    0.0650 C   0  0  0  0  0  0  0  0  0  0  0  0
    1.2195    1.4059    0.0824 N   0  0  0  0  0  0  0  0  0  0  0  0
    2.3611    0.7114   -0.0066 C   0  0  0  0  0  0  0  0  0  0  0  0
   -1.1227   -1.4172    0.0049 C   0  0  0  0  0  0  0  0  0  0  0  0
   -2.3409   -0.7529   -0.1272 C   0  0  0  0  0  0  0  0  0  0  0  0
   -2.3451    0.6444   -0.1777 C   0  0  0  0  0  0  0  0  0  0  0  0
   -1.1562    1.3572    0.0293 C   0  0  0  0  0  0  0  0  0  0  0  0
    3.5277    1.4114   -0.0733 N   0  0  0  0  0  0  0  0  0  0  0  0
   -3.6041   -1.5107   -0.0637 C   0  0  0  0  0  0  0  0  0  0  0  0
   -4.5647   -1.5355   -1.2546 C   0  0  0  0  0  0  0  0  0  0  0  0
   -5.8831   -1.9716   -1.0146 N   0  0  0  0  0  0  0  0  0  0  0  0
   -6.1849   -2.5004    0.2498 C   0  0  0  0  0  0  0  0  0  0  0  0
   -5.2522   -2.7196    1.1922 C   0  0  0  0  0  0  0  0  0  0  0  0
   -3.9313   -2.1307    1.0969 C   0  0  0  0  0  0  0  0  0  0  0  0
   -3.0858   -2.1570    2.3680 C   0  0  0  0  0  0  0  0  0  0  0  0
   -4.1458   -1.1221   -2.3619 O   0  0  0  0  0  0  0  0  0  0  0  0
   -6.9249   -1.8846   -2.0615 C   0  0  0  0  0  0  0  0  0  0  0  0
   -6.9273   -2.5195   -3.3255 C   0  0  0  0  0  0  0  0  0  0  0  0
   -8.0893   -2.4177   -4.3073 C   0  0  0  0  0  0  0  0  0  0  0  0
   -9.1902   -1.5469   -4.0850 C   0  0  0  0  0  0  0  0  0  0  0  0
   -8.9339   -0.7938   -2.9182 C   0  0  0  0  0  0  0  0  0  0  0  0
   -8.0063   -1.0456   -1.8686 C   0  0  0  0  0  0  0  0  0  0  0  0
  -10.7045   -0.9589   -4.6133 C   0  0  0  0  0  0  0  0  0  0  0  0
  -10.0806    0.4460   -4.3458 C   0  0  0  0  0  0  0  0  0  0  0  0
   -9.4982    0.5003   -3.0302 N   0  0  0  0  0  0  0  0  0  0  0  0
  -11.7078   -1.7282   -3.6967 C   0  0  0  0  0  0  0  0  0  0  0  0
  -11.8591   -0.2767   -5.6509 C   0  0  0  0  0  0  0  0  0  0  0  0
    1.3928   -2.3780   -0.0456 H   0  0  0  0  0  0  0  0  0  0  0  0
   -1.1002   -2.4999    0.1066 H   0  0  0  0  0  0  0  0  0  0  0  0
   -3.2676    1.1897   -0.3666 H   0  0  0  0  0  0  0  0  0  0  0  0
   -1.1941    2.4398    0.1324 H   0  0  0  0  0  0  0  0  0  0  0  0
    3.4761    2.4131   -0.1055 H   0  0  0  0  0  0  0  0  0  0  0  0
    4.3742    0.8853   -0.1988 H   0  0  0  0  0  0  0  0  0  0  0  0
   -7.2103   -2.8139    0.4146 H   0  0  0  0  0  0  0  0  0  0  0  0
   -5.4787   -3.3038    2.0837 H   0  0  0  0  0  0  0  0  0  0  0  0
   -3.6346   -1.7469    3.2228 H   0  0  0  0  0  0  0  0  0  0  0  0
   -2.7665   -3.1772    2.6134 H   0  0  0  0  0  0  0  0  0  0  0  0
   -2.1702   -1.5586    2.3136 H   0  0  0  0  0  0  0  0  0  0  0  0
   -6.0483   -3.1304   -3.5681 H   0  0  0  0  0  0  0  0  0  0  0  0
   -7.9563   -3.0340   -5.1985 H   0  0  0  0  0  0  0  0  0  0  0  0
   -8.0724   -0.4442   -0.9719 H   0  0  0  0  0  0  0  0  0  0  0  0
  -10.6439    1.3675   -4.4979 H   0  0  0  0  0  0  0  0  0  0  0  0
   -9.3173    0.5242   -5.1572 H   0  0  0  0  0  0  0  0  0  0  0  0
  -10.0868    0.7333   -2.2477 H   0  0  0  0  0  0  0  0  0  0  0  0
  -11.8539   -2.7182   -4.1546 H   0  0  0  0  0  0  0  0  0  0  0  0
  -11.3885   -1.8566   -2.6653 H   0  0  0  0  0  0  0  0  0  0  0  0
  -12.7292   -1.3210   -3.6305 H   0  0  0  0  0  0  0  0  0  0  0  0
  -11.9791   -0.7075   -6.6397 H   0  0  0  0  0  0  0  0  0  0  0  0
  -12.8856   -0.3112   -5.2028 H   0  0  0  0  0  0  0  0  0  0  0  0
  -11.8472    0.8289   -5.7678 H   0  0  0  0  0  0  0  0  0  0  0  0
  1  2  1  0  0  0  0
  2 31  1  0  0  0  0
  3  2  2  0  0  0  0
  3  7  1  0  0  0  0
  4  3  1  0  0  0  0
  5  4  2  0  0  0  0
  5  6  1  0  0  0  0
  6  1  2  0  0  0  0
  7 32  1  0  0  0  0
  8  7  2  0  0  0  0
  8 12  1  0  0  0  0
  9  8  1  0  0  0  0
  9 33  1  0  0  0  0
 10  4  1  0  0  0  0
 10  9  2  0  0  0  0
 10 34  1  0  0  0  0
 11  6  1  0  0  0  0
 11 35  1  0  0  0  0
 11 36  1  0  0  0  0
 12 17  2  0  0  0  0
 12 13  1  0  0  0  0
 13 14  1  0  0  0  0
 14 20  1  0  0  0  0
 15 14  1  0  0  0  0
 15 37  1  0  0  0  0
 16 15  2  0  0  0  0
 16 38  1  0  0  0  0
 17 16  1  0  0  0  0
 18 17  1  0  0  0  0
 18 39  1  0  0  0  0
 18 40  1  0  0  0  0
 18 41  1  0  0  0  0
 19 13  2  0  0  0  0
 20 25  1  0  0  0  0
 21 20  2  0  0  0  0
 21 22  1  0  0  0  0
 21 42  1  0  0  0  0
 22 23  2  0  0  0  0
 22 43  1  0  0  0  0
 23 26  1  0  0  0  0
 23 24  1  0  0  0  0
 24 28  1  0  0  0  0
 25 24  2  0  0  0  0
 25 44  1  0  0  0  0
 26 30  1  0  0  0  0
 26 27  1  0  0  0  0
 27 45  1  0  0  0  0
 27 46  1  0  0  0  0
 28 27  1  0  0  0  0
 28 47  1  0  0  0  0
 29 26  1  0  0  0  0
 29 48  1  0  0  0  0
 29 49  1  0  0  0  0
 29 50  1  0  0  0  0
 30 51  1  0  0  0  0
 30 52  1  0  0  0  0
 30 53  1  0  0  0  0
M  END
>  <DRUGBANK_ID>
DB07514

>  <COMMON_NAME>
3-(2-aminoquinazolin-6-yl)-1-(3,3-dimethylindolin-6-yl)-4-methylpyridin-2(1H)-one

$$$$
