
 OpenBabel10282417143D

 75 75  0  0  0  0  0  0  0  0999 V2000
    0.7445    0.3295   -0.1873 C   0  0  0  0  0  0  0  0  0  0  0  0
    0.4206   -0.1571    1.2174 C   0  0  0  0  0  0  0  0  0  0  0  0
    1.0023    0.4787    2.3947 O   0  0  0  0  0  0  0  0  0  0  0  0
    2.7323    0.4787    2.3947 P   0  0  0  0  0  0  0  0  0  0  0  0
    2.6650    1.6953    3.3406 O   0  0  0  0  0  0  0  0  0  0  0  0
    2.6117   -0.9032    3.3585 O   0  0  0  0  0  0  0  0  0  0  0  0
    1.4225   -1.7086    3.5405 C   0  0  0  0  0  0  0  0  0  0  0  0
    0.5081   -1.0759    4.5591 C   0  0  0  0  0  0  0  0  0  0  0  0
    4.5623    0.4787    2.3947 C   0  0  0  0  0  0  0  0  0  0  0  0
    5.2460    0.5910    3.5854 C   0  0  0  0  0  0  0  0  0  0  0  0
    6.7300    0.6755    3.7449 C   0  0  0  0  0  0  0  0  0  0  0  0
    7.4948    1.5751    2.9692 C   0  0  0  0  0  0  0  0  0  0  0  0
    8.9072    1.4735    2.8307 C   0  0  0  0  0  0  0  0  0  0  0  0
    9.5257    0.5242    3.6413 C   0  0  0  0  0  0  0  0  0  0  0  0
   10.8817    0.3253    3.6475 O   0  0  0  0  0  0  0  0  0  0  0  0
    8.8281   -0.3530    4.4933 C   0  0  0  0  0  0  0  0  0  0  0  0
    7.4108   -0.2799    4.5066 C   0  0  0  0  0  0  0  0  0  0  0  0
    9.5727   -1.3779    5.3927 C   0  0  0  0  0  0  0  0  0  0  0  0
    9.1792   -1.0862    6.8488 C   0  0  0  0  0  0  0  0  0  0  0  0
    9.1859   -2.8095    4.9894 C   0  0  0  0  0  0  0  0  0  0  0  0
   11.1311   -1.3457    5.3701 C   0  0  0  0  0  0  0  0  0  0  0  0
    9.6135    2.3573    1.7787 C   0  0  0  0  0  0  0  0  0  0  0  0
    9.2160    1.9630    0.3404 C   0  0  0  0  0  0  0  0  0  0  0  0
    9.2251    3.8169    2.0580 C   0  0  0  0  0  0  0  0  0  0  0  0
   11.1518    2.3204    1.7856 C   0  0  0  0  0  0  0  0  0  0  0  0
    5.4773    0.4904    0.8099 P   0  0  0  0  0  0  0  0  0  0  0  0
    6.6315   -0.2992    1.4056 O   0  0  0  0  0  0  0  0  0  0  0  0
    4.4924   -0.6020    0.0382 O   0  0  0  0  0  0  0  0  0  0  0  0
    3.6040   -1.5044    0.6153 C   0  0  0  0  0  0  0  0  0  0  0  0
    4.1810   -2.3363    1.7400 C   0  0  0  0  0  0  0  0  0  0  0  0
    6.3423    0.5014   -0.6882 O   0  0  0  0  0  0  0  0  0  0  0  0
    6.7118   -0.8238   -1.2231 C   0  0  0  0  0  0  0  0  0  0  0  0
    7.5503   -1.7562   -0.3263 C   0  0  0  0  0  0  0  0  0  0  0  0
    0.3055    1.2958   -0.4129 H   0  0  0  0  0  0  0  0  0  0  0  0
    0.3552   -0.4223   -0.8940 H   0  0  0  0  0  0  0  0  0  0  0  0
    1.8151    0.3955   -0.3921 H   0  0  0  0  0  0  0  0  0  0  0  0
   -0.6585   -0.2319    1.3764 H   0  0  0  0  0  0  0  0  0  0  0  0
    0.7832   -1.1800    1.1348 H   0  0  0  0  0  0  0  0  0  0  0  0
    0.8412   -1.9449    2.6520 H   0  0  0  0  0  0  0  0  0  0  0  0
    1.7134   -2.7247    3.8262 H   0  0  0  0  0  0  0  0  0  0  0  0
    0.4276    0.0068    4.4402 H   0  0  0  0  0  0  0  0  0  0  0  0
   -0.5047   -1.4857    4.4919 H   0  0  0  0  0  0  0  0  0  0  0  0
    0.9386   -1.2416    5.5420 H   0  0  0  0  0  0  0  0  0  0  0  0
    4.6909    0.5634    4.5223 H   0  0  0  0  0  0  0  0  0  0  0  0
    6.9583    2.2616    2.3219 H   0  0  0  0  0  0  0  0  0  0  0  0
   11.4547    0.9857    3.3391 H   0  0  0  0  0  0  0  0  0  0  0  0
    6.8365   -1.0112    5.0706 H   0  0  0  0  0  0  0  0  0  0  0  0
    8.1080   -1.2207    7.0234 H   0  0  0  0  0  0  0  0  0  0  0  0
    9.7138   -1.7482    7.5367 H   0  0  0  0  0  0  0  0  0  0  0  0
    9.4317   -0.0510    7.1135 H   0  0  0  0  0  0  0  0  0  0  0  0
    9.4567   -3.0081    3.9444 H   0  0  0  0  0  0  0  0  0  0  0  0
    9.7168   -3.5392    5.6117 H   0  0  0  0  0  0  0  0  0  0  0  0
    8.1152   -3.0005    5.0986 H   0  0  0  0  0  0  0  0  0  0  0  0
   11.5207   -1.5997    4.3730 H   0  0  0  0  0  0  0  0  0  0  0  0
   11.5106   -0.3602    5.6773 H   0  0  0  0  0  0  0  0  0  0  0  0
   11.5879   -2.0681    6.0480 H   0  0  0  0  0  0  0  0  0  0  0  0
    8.1486    2.0901    0.1522 H   0  0  0  0  0  0  0  0  0  0  0  0
    9.7470    2.5858   -0.3915 H   0  0  0  0  0  0  0  0  0  0  0  0
    9.4807    0.9207    0.1226 H   0  0  0  0  0  0  0  0  0  0  0  0
    9.4642    4.0767    3.0965 H   0  0  0  0  0  0  0  0  0  0  0  0
    9.7681    4.5007    1.4000 H   0  0  0  0  0  0  0  0  0  0  0  0
    8.1575    4.0008    1.9067 H   0  0  0  0  0  0  0  0  0  0  0  0
   11.5316    2.6472    2.7619 H   0  0  0  0  0  0  0  0  0  0  0  0
   11.5161    1.3161    1.5239 H   0  0  0  0  0  0  0  0  0  0  0  0
   11.6069    2.9927    1.0562 H   0  0  0  0  0  0  0  0  0  0  0  0
    2.8272   -0.8244    0.8405 H   0  0  0  0  0  0  0  0  0  0  0  0
    3.0152   -2.1017   -0.0829 H   0  0  0  0  0  0  0  0  0  0  0  0
    4.9116   -1.8258    2.3691 H   0  0  0  0  0  0  0  0  0  0  0  0
    3.4246   -2.7365    2.4120 H   0  0  0  0  0  0  0  0  0  0  0  0
    4.7040   -3.1839    1.3215 H   0  0  0  0  0  0  0  0  0  0  0  0
    5.8068   -1.3660   -1.5210 H   0  0  0  0  0  0  0  0  0  0  0  0
    7.2594   -0.6518   -2.1514 H   0  0  0  0  0  0  0  0  0  0  0  0
    6.9911   -2.1340    0.5412 H   0  0  0  0  0  0  0  0  0  0  0  0
    7.8474   -2.6733   -0.8352 H   0  0  0  0  0  0  0  0  0  0  0  0
    8.4403   -1.2364    0.0434 H   0  0  0  0  0  0  0  0  0  0  0  0
  1  2  1  0  0  0  0
  1 34  1  0  0  0  0
  1 35  1  0  0  0  0
  1 36  1  0  0  0  0
  2  3  1  0  0  0  0
  2 37  1  0  0  0  0
  2 38  1  0  0  0  0
  3  4  1  0  0  0  0
  4  5  2  0  0  0  0
  4  6  1  0  0  0  0
  4  9  1  0  0  0  0
  6  7  1  0  0  0  0
  7  8  1  0  0  0  0
  7 39  1  0  0  0  0
  7 40  1  0  0  0  0
  8 41  1  0  0  0  0
  8 42  1  0  0  0  0
  8 43  1  0  0  0  0
  9 10  2  0  0  0  0
  9 26  1  0  0  0  0
 10 11  1  0  0  0  0
 10 44  1  0  0  0  0
 11 12  2  0  0  0  0
 11 17  1  0  0  0  0
 12 13  1  0  0  0  0
 12 45  1  0  0  0  0
 13 14  2  0  0  0  0
 13 22  1  0  0  0  0
 14 15  1  0  0  0  0
 14 16  1  0  0  0  0
 15 46  1  0  0  0  0
 16 17  2  0  0  0  0
 16 18  1  0  0  0  0
 17 47  1  0  0  0  0
 18 19  1  0  0  0  0
 18 20  1  0  0  0  0
 18 21  1  0  0  0  0
 19 48  1  0  0  0  0
 19 49  1  0  0  0  0
 19 50  1  0  0  0  0
 20 51  1  0  0  0  0
 20 52  1  0  0  0  0
 20 53  1  0  0  0  0
 21 54  1  0  0  0  0
 21 55  1  0  0  0  0
 21 56  1  0  0  0  0
 22 23  1  0  0  0  0
 22 24  1  0  0  0  0
 22 25  1  0  0  0  0
 23 57  1  0  0  0  0
 23 58  1  0  0  0  0
 23 59  1  0  0  0  0
 24 60  1  0  0  0  0
 24 61  1  0  0  0  0
 24 62  1  0  0  0  0
 25 63  1  0  0  0  0
 25 64  1  0  0  0  0
 25 65  1  0  0  0  0
 26 27  2  0  0  0  0
 26 28  1  0  0  0  0
 26 31  1  0  0  0  0
 28 29  1  0  0  0  0
 29 30  1  0  0  0  0
 29 66  1  0  0  0  0
 29 67  1  0  0  0  0
 30 68  1  0  0  0  0
 30 69  1  0  0  0  0
 30 70  1  0  0  0  0
 31 32  1  0  0  0  0
 32 33  1  0  0  0  0
 32 71  1  0  0  0  0
 32 72  1  0  0  0  0
 33 73  1  0  0  0  0
 33 74  1  0  0  0  0
 33 75  1  0  0  0  0
M  END
>  <DRUGBANK_ID>
DB04466

>  <SECONDARY_ACCESSION_NUMBERS>
EXPT02953

>  <COMMON_NAME>
SR12813

>  <CAS_NUMBER>
126411-39-0

>  <UNII>
6Q7MN2PVB9

$$$$
