
 OpenBabel10282417133D

 37 37  0  0  1  0  0  0  0  0999 V2000
    1.6137   -0.7787   -0.0842 C   0  0  0  0  0  0  0  0  0  0  0  0
    0.0191   -2.7779    0.1282 C   0  0  0  0  0  0  0  0  0  0  0  0
    0.1696   -1.2704    0.0595 C   0  0  2  0  0  0  0  0  0  0  0  0
    1.4846    0.6501   -0.6114 C   0  0  1  0  0  0  0  0  0  0  0  0
   -0.6580   -0.4922   -0.9356 C   0  0  2  0  0  0  0  0  0  0  0  0
   -0.0531    0.9155   -0.7288 C   0  0  1  0  0  0  0  0  0  0  0  0
   -2.0291   -0.5511   -0.5521 O   0  0  0  0  0  0  0  0  0  0  0  0
   -0.6378    1.5061    0.4436 O   0  0  0  0  0  0  0  0  0  0  0  0
    0.7961   -4.0850    2.5041 O   0  0  0  0  0  0  0  0  0  0  0  0
    0.8048   -1.7289    2.4343 O   0  0  0  0  0  0  0  0  0  0  0  0
    0.2388   -2.7067    4.2927 O   0  0  0  0  0  0  0  0  0  0  0  0
    2.6478    3.5374    3.8897 O   0  0  0  0  0  0  0  0  0  0  0  0
    1.1379    2.6552    5.5064 O   0  0  0  0  0  0  0  0  0  0  0  0
    3.4694    2.1831    5.5231 O   0  0  0  0  0  0  0  0  0  0  0  0
    3.2008    1.6397    2.2663 O   0  0  0  0  0  0  0  0  0  0  0  0
    1.3687    3.2089    1.4779 O   0  0  0  0  0  0  0  0  0  0  0  0
   -0.8488   -3.0911    1.2240 O   0  0  0  0  0  0  0  0  0  0  0  0
    2.2660    1.5497    0.1909 O   0  0  0  0  0  0  0  0  0  0  0  0
    0.9956    1.9241    3.3874 O   0  0  0  0  0  0  0  0  0  0  0  0
   -0.2749   -2.8883    2.8434 P   0  0  0  0  0  0  0  0  0  0  0  0
    2.3010    2.0607    4.5144 P   0  0  0  0  0  0  0  0  0  0  0  0
    1.6308    1.7369    1.7892 P   0  0  3  0  0  0  0  0  0  0  0  0
   -0.2430   -0.8848    0.9894 H   0  0  0  0  0  0  0  0  0  0  0  0
    1.9177    0.6606   -1.6178 H   0  0  0  0  0  0  0  0  0  0  0  0
   -0.5443   -0.8757   -1.9517 H   0  0  0  0  0  0  0  0  0  0  0  0
   -0.2849    1.5788   -1.5638 H   0  0  0  0  0  0  0  0  0  0  0  0
    2.1642   -0.8015    0.8622 H   0  0  0  0  0  0  0  0  0  0  0  0
    2.1887   -1.4054   -0.7736 H   0  0  0  0  0  0  0  0  0  0  0  0
   -0.4115   -3.1933   -0.7866 H   0  0  0  0  0  0  0  0  0  0  0  0
    0.9832   -3.2755    0.2835 H   0  0  0  0  0  0  0  0  0  0  0  0
   -2.1888    0.1308    0.1288 H   0  0  0  0  0  0  0  0  0  0  0  0
   -0.7296    0.8908    1.1881 H   0  0  0  0  0  0  0  0  0  0  0  0
    0.5504   -4.9136    2.9520 H   0  0  0  0  0  0  0  0  0  0  0  0
    1.6542   -2.1421    2.6961 H   0  0  0  0  0  0  0  0  0  0  0  0
    3.3269    3.4028    3.1914 H   0  0  0  0  0  0  0  0  0  0  0  0
    0.8249    3.4672    5.0577 H   0  0  0  0  0  0  0  0  0  0  0  0
    3.6412    0.8108    2.0007 H   0  0  0  0  0  0  0  0  0  0  0  0
  1 27  1  0  0  0  0
  1 28  1  0  0  0  0
  2 29  1  0  0  0  0
  2 30  1  0  0  0  0
  3  1  1  0  0  0  0
  3 23  1  1  0  0  0
  3  2  1  0  0  0  0
  4  1  1  0  0  0  0
  4 18  1  0  0  0  0
  4 24  1  6  0  0  0
  5  3  1  0  0  0  0
  5  7  1  0  0  0  0
  5 25  1  6  0  0  0
  6  4  1  0  0  0  0
  6  5  1  0  0  0  0
  6  8  1  0  0  0  0
  6 26  1  6  0  0  0
  7 31  1  0  0  0  0
  8 32  1  0  0  0  0
  9 33  1  0  0  0  0
 10 34  1  0  0  0  0
 12 35  1  0  0  0  0
 13 36  1  0  0  0  0
 15 37  1  0  0  0  0
 17  2  1  0  0  0  0
 20  9  1  0  0  0  0
 20 10  1  0  0  0  0
 20 11  2  0  0  0  0
 20 17  1  0  0  0  0
 21 12  1  0  0  0  0
 21 13  1  0  0  0  0
 21 14  2  0  0  0  0
 21 19  1  0  0  0  0
 22 15  1  0  0  0  0
 22 16  2  0  0  0  0
 22 18  1  0  0  0  0
 22 19  1  0  0  0  0
M  END
>  <DRUGBANK_ID>
DB03942

>  <SECONDARY_ACCESSION_NUMBERS>
EXPT02523

>  <COMMON_NAME>
Carboxylic PRPP

>  <SYNONYMS>
CPRPP

$$$$
