
 OpenBabel10282417123D

  9  9  0  0  0  0  0  0  0  0999 V2000
   -0.2389   -1.0251    0.0011 N   0  0  0  0  0  0  0  0  0  0  0  0
    1.0602   -0.6069   -0.0013 C   0  0  0  0  0  0  0  0  0  0  0  0
    1.0170    0.7666   -0.0008 C   0  0  0  0  0  0  0  0  0  0  0  0
   -0.3549    1.0781    0.0020 C   0  0  0  0  0  0  0  0  0  0  0  0
   -1.1235   -0.0137    0.0027 N   0  0  0  0  0  0  0  0  0  0  0  0
   -0.5943   -1.9755    0.0021 H   0  0  0  0  0  0  0  0  0  0  0  0
    1.8805   -1.3099   -0.0027 H   0  0  0  0  0  0  0  0  0  0  0  0
    1.8551    1.4484   -0.0020 H   0  0  0  0  0  0  0  0  0  0  0  0
   -0.8256    2.0529    0.0038 H   0  0  0  0  0  0  0  0  0  0  0  0
  1  2  1  0  0  0  0
  1  5  1  0  0  0  0
  1  6  1  0  0  0  0
  2  3  2  0  0  0  0
  2  7  1  0  0  0  0
  3  4  1  0  0  0  0
  3  8  1  0  0  0  0
  4  5  2  0  0  0  0
  4  9  1  0  0  0  0
M  END
>  <DRUGBANK_ID>
DB02757

>  <SECONDARY_ACCESSION_NUMBERS>
EXPT02727

>  <COMMON_NAME>
Pyrazole

>  <CAS_NUMBER>
288-13-1

>  <UNII>
3QD5KJZ7ZJ

>  <SYNONYMS>
1,2-Diazole; 1H-Pyrazol; 1H-pyrazole

$$$$
