
 OpenBabel10282417223D

 88 88  0  0  1  0  0  0  0  0999 V2000
   -2.6590   -1.5467    1.7756 O   0  0  0  0  0  0  0  0  0  0  0  0
   -1.2891   -1.0207    0.8543 C   0  0  0  0  0  0  0  0  0  0  0  0
   -1.2331   -1.3474   -0.3461 O   0  0  0  0  0  0  0  0  0  0  0  0
   -0.7123    0.9404    0.9833 C   0  0  0  0  0  0  0  0  0  0  0  0
   -1.2323    2.5188    1.0172 C   0  0  0  0  0  0  0  0  0  0  0  0
   -2.7378    3.0199    2.1526 C   0  0  2  0  0  0  0  0  0  0  0  0
   -4.1789    1.9231    1.3850 N   0  0  0  0  0  0  0  0  0  0  0  0
   -3.7504    0.3338    0.7076 P   0  0  3  0  0  0  0  0  0  0  0  0
   -2.3882    0.3424    1.1006 O   0  0  0  0  0  0  0  0  0  0  0  0
   -4.6132   -0.9519    1.8778 O   0  0  0  0  0  0  0  0  0  0  0  0
   -3.3339   -1.2109    0.0493 O   0  0  0  0  0  0  0  0  0  0  0  0
   -3.3538   -1.3285   -1.3695 C   0  0  0  0  0  0  0  0  0  0  0  0
   -4.6932   -1.2565   -1.8876 C   0  0  0  0  0  0  0  0  0  0  0  0
   -4.9007    0.1486   -1.8497 C   0  0  0  0  0  0  0  0  0  0  0  0
   -4.1119    1.7010   -2.2509 C   0  0  2  0  0  0  0  0  0  0  0  0
   -3.0468    2.2552   -1.2912 N   0  0  0  0  0  0  0  0  0  0  0  0
   -3.2457    1.9320    0.1766 C   0  0  0  0  0  0  0  0  0  0  0  0
   -2.9442    3.2114    0.2574 O   0  0  0  0  0  0  0  0  0  0  0  0
   -5.2258    0.7109    1.2998 C   0  0  0  0  0  0  0  0  0  0  0  0
   -7.2876    0.6728    0.6638 C   0  0  0  0  0  0  0  0  0  0  0  0
   -7.1175    1.4123   -1.1999 C   0  0  2  0  0  0  0  0  0  0  0  0
   -7.3294    2.7817   -1.0670 N   0  0  0  0  0  0  0  0  0  0  0  0
   -7.4225    3.5533    0.0678 C   0  0  0  0  0  0  0  0  0  0  0  0
   -8.5190    4.0761    0.0473 O   0  0  0  0  0  0  0  0  0  0  0  0
   -6.6437    3.4703    1.5059 C   0  0  0  0  0  0  0  0  0  0  0  0
   -6.4941    2.1458    2.1378 C   0  0  0  0  0  0  0  0  0  0  0  0
   -6.0085    1.9519    0.3698 C   0  0  0  0  0  0  0  0  0  0  0  0
   -4.7624    1.6254    0.0788 C   0  0  0  0  0  0  0  0  0  0  0  0
   -3.6166    1.0351    2.3407 C   0  0  0  0  0  0  0  0  0  0  0  0
   -2.9921    0.1234    3.3301 N   0  0  0  0  0  0  0  0  0  0  0  0
   -1.4916   -0.4687    3.3250 C   0  0  0  0  0  0  0  0  0  0  0  0
   -1.3061   -1.6916    3.1682 O   0  0  0  0  0  0  0  0  0  0  0  0
   -0.0070    0.3788    3.1765 C   0  0  0  0  0  0  0  0  0  0  0  0
   -0.1476    1.8398    3.4455 C   0  0  0  0  0  0  0  0  0  0  0  0
    0.6759    2.8173    2.8951 C   0  0  0  0  0  0  0  0  0  0  0  0
    1.6803    2.3638    2.0579 C   0  0  0  0  0  0  0  0  0  0  0  0
    2.6760    3.2072    1.8180 F   0  0  0  0  0  0  0  0  0  0  0  0
    1.7852    1.0389    1.5668 C   0  0  0  0  0  0  0  0  0  0  0  0
    0.9599   -0.0016    2.0685 C   0  0  0  0  0  0  0  0  0  0  0  0
   -7.6877    0.3469   -1.9807 C   0  0  0  0  0  0  0  0  0  0  0  0
   -7.0355   -0.4501   -2.8889 O   0  0  0  0  0  0  0  0  0  0  0  0
   -8.7514    0.0956   -1.4563 O   0  0  0  0  0  0  0  0  0  0  0  0
   -4.9896    2.8890   -2.7202 C   0  0  0  0  0  0  0  0  0  0  0  0
   -5.1166    2.8592   -4.0241 O   0  0  0  0  0  0  0  0  0  0  0  0
   -5.5984    3.7451   -2.1111 O   0  0  0  0  0  0  0  0  0  0  0  0
   -3.1765    4.4353    2.2267 C   0  0  0  0  0  0  0  0  0  0  0  0
   -3.1389    4.8192    3.5231 O   0  0  0  0  0  0  0  0  0  0  0  0
   -3.5296    5.0775    1.2529 O   0  0  0  0  0  0  0  0  0  0  0  0
   -3.6804   -1.5600    1.4957 H   0  0  0  0  0  0  0  0  0  0  0  0
   -1.0379    1.0525    1.9445 H   0  0  0  0  0  0  0  0  0  0  0  0
   -0.1385    0.7825    0.1415 H   0  0  0  0  0  0  0  0  0  0  0  0
   -0.6582    3.3987    1.2083 H   0  0  0  0  0  0  0  0  0  0  0  0
   -1.3274    2.5519   -0.1140 H   0  0  0  0  0  0  0  0  0  0  0  0
   -2.6662    2.6804    3.2749 H   0  0  0  0  0  0  0  0  0  0  0  0
   -4.6675    2.8376    1.3651 H   0  0  0  0  0  0  0  0  0  0  0  0
   -2.0800    0.5220    0.2314 H   0  0  0  0  0  0  0  0  0  0  0  0
   -2.7731   -0.5077   -1.8104 H   0  0  0  0  0  0  0  0  0  0  0  0
   -3.0976   -2.2765   -1.7621 H   0  0  0  0  0  0  0  0  0  0  0  0
   -4.7123   -1.2199   -2.9292 H   0  0  0  0  0  0  0  0  0  0  0  0
   -5.5358   -1.7550   -1.3176 H   0  0  0  0  0  0  0  0  0  0  0  0
   -5.8722    0.1150   -1.6373 H   0  0  0  0  0  0  0  0  0  0  0  0
   -4.8946   -0.0279   -0.8485 H   0  0  0  0  0  0  0  0  0  0  0  0
   -3.5003    1.1147   -2.8650 H   0  0  0  0  0  0  0  0  0  0  0  0
   -2.9058    3.2964   -1.1030 H   0  0  0  0  0  0  0  0  0  0  0  0
   -5.2317   -0.6058    0.5160 H   0  0  0  0  0  0  0  0  0  0  0  0
   -5.2393    0.4642    2.5670 H   0  0  0  0  0  0  0  0  0  0  0  0
   -7.3719   -0.3704    0.7858 H   0  0  0  0  0  0  0  0  0  0  0  0
   -7.7452    1.6200    0.8431 H   0  0  0  0  0  0  0  0  0  0  0  0
   -6.0400    1.7069   -1.5544 H   0  0  0  0  0  0  0  0  0  0  0  0
   -7.2678    3.0796   -2.0090 H   0  0  0  0  0  0  0  0  0  0  0  0
   -5.6826    3.9752    1.3917 H   0  0  0  0  0  0  0  0  0  0  0  0
   -7.2074    3.9037    2.2676 H   0  0  0  0  0  0  0  0  0  0  0  0
   -5.8316    1.9199    2.9950 H   0  0  0  0  0  0  0  0  0  0  0  0
   -7.3048    1.4171    2.3925 H   0  0  0  0  0  0  0  0  0  0  0  0
   -6.0088    0.4569    0.0741 H   0  0  0  0  0  0  0  0  0  0  0  0
   -5.7567    1.1489   -0.2824 H   0  0  0  0  0  0  0  0  0  0  0  0
   -3.8063    0.8815   -0.8380 H   0  0  0  0  0  0  0  0  0  0  0  0
   -4.6142    2.9847   -0.2023 H   0  0  0  0  0  0  0  0  0  0  0  0
   -2.5133    1.4354    2.3232 H   0  0  0  0  0  0  0  0  0  0  0  0
   -4.1118    1.8963    3.1571 H   0  0  0  0  0  0  0  0  0  0  0  0
   -3.6626   -0.5693    3.0325 H   0  0  0  0  0  0  0  0  0  0  0  0
   -1.1301    2.2192    3.7054 H   0  0  0  0  0  0  0  0  0  0  0  0
    0.5170    3.8705    3.1231 H   0  0  0  0  0  0  0  0  0  0  0  0
    2.5580    0.7888    0.8589 H   0  0  0  0  0  0  0  0  0  0  0  0
    0.7140   -0.8004    1.2861 H   0  0  0  0  0  0  0  0  0  0  0  0
   -6.1210   -0.2703   -3.2257 H   0  0  0  0  0  0  0  0  0  0  0  0
   -4.3826    2.3526   -4.3869 H   0  0  0  0  0  0  0  0  0  0  0  0
   -2.8979    4.1173    4.1775 H   0  0  0  0  0  0  0  0  0  0  0  0
  1  2  1  0  0  0  0
  1 49  1  0  0  0  0
  2  3  2  0  0  0  0
  2  4  1  0  0  0  0
  4  5  1  0  0  0  0
  4 50  1  0  0  0  0
  4 51  1  0  0  0  0
  5 52  1  0  0  0  0
  5 53  1  0  0  0  0
  6 46  1  0  0  0  0
  6 54  1  1  0  0  0
  6  7  1  0  0  0  0
  6  5  1  0  0  0  0
  7  8  1  0  0  0  0
  7 55  1  0  0  0  0
  8  9  1  0  0  0  0
  8 10  2  0  0  0  0
  8 11  1  0  0  0  0
  9 56  1  0  0  0  0
 11 12  1  0  0  0  0
 12 13  1  0  0  0  0
 12 57  1  0  0  0  0
 12 58  1  0  0  0  0
 13 14  1  0  0  0  0
 13 59  1  0  0  0  0
 13 60  1  0  0  0  0
 14 61  1  0  0  0  0
 14 62  1  0  0  0  0
 15 43  1  0  0  0  0
 15 63  1  6  0  0  0
 15 16  1  0  0  0  0
 15 14  1  0  0  0  0
 16 17  1  0  0  0  0
 16 64  1  0  0  0  0
 17 18  2  0  0  0  0
 17 19  1  0  0  0  0
 19 20  1  0  0  0  0
 19 65  1  0  0  0  0
 19 66  1  0  0  0  0
 20 67  1  0  0  0  0
 20 68  1  0  0  0  0
 21 40  1  0  0  0  0
 21 69  1  6  0  0  0
 21 22  1  0  0  0  0
 21 20  1  0  0  0  0
 22 23  1  0  0  0  0
 22 70  1  0  0  0  0
 23 24  2  0  0  0  0
 23 25  1  0  0  0  0
 25 26  1  0  0  0  0
 25 71  1  0  0  0  0
 25 72  1  0  0  0  0
 26 27  1  0  0  0  0
 26 73  1  0  0  0  0
 26 74  1  0  0  0  0
 27 28  1  0  0  0  0
 27 75  1  0  0  0  0
 27 76  1  0  0  0  0
 28 29  1  0  0  0  0
 28 77  1  0  0  0  0
 28 78  1  0  0  0  0
 29 30  1  0  0  0  0
 29 79  1  0  0  0  0
 29 80  1  0  0  0  0
 30 31  1  0  0  0  0
 30 81  1  0  0  0  0
 31 32  2  0  0  0  0
 31 33  1  0  0  0  0
 33 34  2  0  0  0  0
 33 39  1  0  0  0  0
 34 35  1  0  0  0  0
 34 82  1  0  0  0  0
 35 36  2  0  0  0  0
 35 83  1  0  0  0  0
 36 37  1  0  0  0  0
 36 38  1  0  0  0  0
 38 39  2  0  0  0  0
 38 84  1  0  0  0  0
 39 85  1  0  0  0  0
 40 41  1  0  0  0  0
 40 42  2  0  0  0  0
 41 86  1  0  0  0  0
 43 44  1  0  0  0  0
 43 45  2  0  0  0  0
 44 87  1  0  0  0  0
 46 47  1  0  0  0  0
 46 48  2  0  0  0  0
 47 88  1  0  0  0  0
M  END
>  <DRUGBANK_ID>
DB14965

>  <COMMON_NAME>
CTT-1057

>  <CAS_NUMBER>
1628717-55-4

>  <UNII>
QMH3V8VSPB

$$$$
