973
 OpenBabel10282417163D

 38 41  0  0  0  0  0  0  0  0999 V2000
    2.4397   -0.7042   -0.0239 C   0  0  0  0  0  0  0  0  0  0  0  0
    2.4539    0.6808   -0.0108 C   0  0  0  0  0  0  0  0  0  0  0  0
    1.2513    1.3902    0.0240 C   0  0  0  0  0  0  0  0  0  0  0  0
   -0.0125    0.7474    0.0146 C   0  0  0  0  0  0  0  0  0  0  0  0
    0.0028   -0.6791    0.0131 C   0  0  0  0  0  0  0  0  0  0  0  0
    1.2221   -1.3795    0.0041 C   0  0  0  0  0  0  0  0  0  0  0  0
   -1.1987   -1.3989    0.0123 C   0  0  0  0  0  0  0  0  0  0  0  0
   -2.4142   -0.7373   -0.0016 C   0  0  0  0  0  0  0  0  0  0  0  0
   -2.4431    0.6514   -0.0018 C   0  0  0  0  0  0  0  0  0  0  0  0
   -1.2728    1.4318    0.0014 C   0  0  0  0  0  0  0  0  0  0  0  0
   -1.3661    2.9258   -0.0062 C   0  0  0  0  0  0  0  0  0  0  0  0
   -2.4635    3.6960   -0.0984 C   0  0  0  0  0  0  0  0  0  0  0  0
   -2.5545    5.1187   -0.1380 C   0  0  0  0  0  0  0  0  0  0  0  0
   -3.7845    5.4883   -0.4828 C   0  0  0  0  0  0  0  0  0  0  0  0
   -4.5127    4.2343   -0.6901 C   0  0  0  0  0  0  0  0  0  0  0  0
   -5.6394    4.1256   -1.1530 O   0  0  0  0  0  0  0  0  0  0  0  0
   -3.7405    3.1831   -0.2919 O   0  0  0  0  0  0  0  0  0  0  0  0
   -4.2990    6.8351   -0.6181 C   0  0  0  0  0  0  0  0  0  0  0  0
   -3.6787    7.7264   -1.5017 C   0  0  0  0  0  0  0  0  0  0  0  0
   -4.1249    9.0420   -1.5991 C   0  0  0  0  0  0  0  0  0  0  0  0
   -5.1918    9.4671   -0.8111 C   0  0  0  0  0  0  0  0  0  0  0  0
   -5.8255    8.5844    0.0629 C   0  0  0  0  0  0  0  0  0  0  0  0
   -5.3811    7.2649    0.1584 C   0  0  0  0  0  0  0  0  0  0  0  0
   -5.7245   11.0987   -0.9136 Cl  0  0  0  0  0  0  0  0  0  0  0  0
   -1.5319    5.9732    0.1725 O   0  0  0  0  0  0  0  0  0  0  0  0
    3.3738   -1.2582   -0.0542 H   0  0  0  0  0  0  0  0  0  0  0  0
    3.3970    1.2205   -0.0292 H   0  0  0  0  0  0  0  0  0  0  0  0
    1.3352    2.4705    0.0549 H   0  0  0  0  0  0  0  0  0  0  0  0
    1.2342   -2.4682    0.0091 H   0  0  0  0  0  0  0  0  0  0  0  0
   -1.2053   -2.4866    0.0176 H   0  0  0  0  0  0  0  0  0  0  0  0
   -3.3511   -1.2884   -0.0145 H   0  0  0  0  0  0  0  0  0  0  0  0
   -3.4329    1.0879   -0.0034 H   0  0  0  0  0  0  0  0  0  0  0  0
   -0.4163    3.4433    0.0195 H   0  0  0  0  0  0  0  0  0  0  0  0
   -2.8367    7.4004   -2.1094 H   0  0  0  0  0  0  0  0  0  0  0  0
   -3.6311    9.7251   -2.2834 H   0  0  0  0  0  0  0  0  0  0  0  0
   -6.6591    8.9165    0.6752 H   0  0  0  0  0  0  0  0  0  0  0  0
   -5.8712    6.5862    0.8542 H   0  0  0  0  0  0  0  0  0  0  0  0
   -0.7620    5.4823    0.4967 H   0  0  0  0  0  0  0  0  0  0  0  0
  1  2  2  0  0  0  0
  1  6  1  0  0  0  0
  1 26  1  0  0  0  0
  2  3  1  0  0  0  0
  2 27  1  0  0  0  0
  3  4  2  0  0  0  0
  3 28  1  0  0  0  0
  4 10  1  0  0  0  0
  4  5  1  0  0  0  0
  5  7  1  0  0  0  0
  5  6  2  0  0  0  0
  6 29  1  0  0  0  0
  7  8  2  0  0  0  0
  7 30  1  0  0  0  0
  8  9  1  0  0  0  0
  8 31  1  0  0  0  0
  9 10  2  0  0  0  0
  9 32  1  0  0  0  0
 10 11  1  0  0  0  0
 11 12  2  0  0  0  0
 11 33  1  0  0  0  0
 12 13  1  0  0  0  0
 12 17  1  0  0  0  0
 13 25  1  0  0  0  0
 13 14  2  0  0  0  0
 14 18  1  0  0  0  0
 14 15  1  0  0  0  0
 15 17  1  0  0  0  0
 15 16  2  0  0  0  0
 18 19  1  0  0  0  0
 18 23  2  0  0  0  0
 19 20  2  0  0  0  0
 19 34  1  0  0  0  0
 20 21  1  0  0  0  0
 20 35  1  0  0  0  0
 21 24  1  0  0  0  0
 21 22  2  0  0  0  0
 22 23  1  0  0  0  0
 22 36  1  0  0  0  0
 23 37  1  0  0  0  0
 25 38  1  0  0  0  0
M  END
>  <DRUGBANK_ID>
DB07296

>  <COMMON_NAME>
(5Z)-3-(4-CHLOROPHENYL)-4-HYDROXY-5-(1-NAPHTHYLMETHYLENE)FURAN-2(5H)-ONE

$$$$
