
 OpenBabel10282417183D

 93 97  0  0  1  0  0  0  0  0999 V2000
   12.4431   18.4840   10.4334 C   0  0  0  0  0  0  0  0  0  0  0  0
   13.1065   17.1194   10.5927 C   0  0  0  0  0  0  0  0  0  0  0  0
   12.2288   15.8090    9.3704 C   0  0  0  0  0  0  0  0  0  0  0  0
   12.2345   14.8666   10.3371 C   0  0  0  0  0  0  0  0  0  0  0  0
   12.5561   13.8864    9.4172 C   0  0  0  0  0  0  0  0  0  0  0  0
   12.1321   12.6679    9.5577 C   0  0  0  0  0  0  0  0  0  0  0  0
   12.1520   11.9363    8.4012 C   0  0  0  0  0  0  0  0  0  0  0  0
   11.0732   11.3356    7.9337 C   0  0  0  0  0  0  0  0  0  0  0  0
   11.7866   10.5454    7.0134 C   0  0  0  0  0  0  0  0  0  0  0  0
   13.0243   10.8805    6.5487 C   0  0  0  0  0  0  0  0  0  0  0  0
   13.2847   11.6833    7.6069 N   0  0  0  0  0  0  0  0  0  0  0  0
   13.8709   10.3447    5.4573 C   0  0  0  0  0  0  0  0  0  0  0  0
   13.5633    9.6044    4.3523 C   0  0  0  0  0  0  0  0  0  0  0  0
   12.3514    9.3196    4.1847 N   0  0  0  0  0  0  0  0  0  0  0  0
   11.8914    8.3283    3.0427 C   0  0  0  0  0  0  0  0  0  0  0  0
    9.9284    8.2598    2.6875 C   0  0  0  0  0  0  0  0  0  0  0  0
    9.0140    9.5441    3.1739 C   0  0  0  0  0  0  0  0  0  0  0  0
    8.7773    9.6866    4.6158 C   0  0  0  0  0  0  0  0  0  0  0  0
    8.3281   11.0473    4.8995 C   0  0  0  0  0  0  0  0  0  0  0  0
    9.5768   12.5470    4.9620 C   0  0  0  0  0  0  0  0  0  0  0  0
    8.9869   11.4303    3.3802 N   0  0  0  0  0  0  0  0  0  0  0  0
   10.6303   13.5888    6.1142 C   0  0  0  0  0  0  0  0  0  0  0  0
   11.7296   14.7468    7.6523 C   0  0  0  0  0  0  0  0  0  0  0  0
   12.9682   14.2716    8.1236 N   0  0  0  0  0  0  0  0  0  0  0  0
    7.1220   11.1062    5.6133 C   0  0  0  0  0  0  0  0  0  0  0  0
   10.0145   10.4210    4.6401 C   0  0  0  0  0  0  0  0  0  0  0  0
   10.8475   10.8413    3.7659 O   0  0  0  0  0  0  0  0  0  0  0  0
    9.6660   10.9244    6.1306 O   0  0  0  0  0  0  0  0  0  0  0  0
   11.1307    8.3794    3.3154 C   0  0  0  0  0  0  0  0  0  0  0  0
   12.1234    7.0776    4.4891 C   0  0  0  0  0  0  0  0  0  0  0  0
   13.2861    6.6636    4.4690 O   0  0  0  0  0  0  0  0  0  0  0  0
   11.3943    6.4341    5.3030 N   0  0  0  0  0  0  0  0  0  0  0  0
   10.2199    6.9657    5.8290 C   0  0  1  0  0  0  0  0  0  0  0  0
    9.2107    5.9180    5.6724 C   0  0  0  0  0  0  0  0  0  0  0  0
    9.6847    4.7508    6.4874 C   0  0  0  0  0  0  0  0  0  0  0  0
    9.0645    4.3660    7.4626 O   0  0  0  0  0  0  0  0  0  0  0  0
   10.8622    4.1900    6.0913 O   0  0  0  0  0  0  0  0  0  0  0  0
   10.4496    7.4486    7.2856 C   0  0  0  0  0  0  0  0  0  0  0  0
   10.1250    8.4867    7.8292 O   0  0  0  0  0  0  0  0  0  0  0  0
   11.0080    6.5367    8.0749 O   0  0  0  0  0  0  0  0  0  0  0  0
   13.0221    7.7513    2.4097 C   0  0  2  0  0  0  0  0  0  0  0  0
   14.0275    8.8586    3.1225 C   0  0  2  0  0  0  0  0  0  0  0  0
   15.2661    8.2348    3.5569 C   0  0  0  0  0  0  0  0  0  0  0  0
   12.7726    7.5607    1.0246 C   0  0  0  0  0  0  0  0  0  0  0  0
   14.0851    6.9183    0.8001 C   0  0  0  0  0  0  0  0  0  0  0  0
   14.3292    5.5687    1.5282 C   0  0  0  0  0  0  0  0  0  0  0  0
   14.3902    4.5184    0.9194 O   0  0  0  0  0  0  0  0  0  0  0  0
   14.5014    5.5823    2.8557 O   0  0  0  0  0  0  0  0  0  0  0  0
   11.1988    9.7414    6.1239 C   0  0  0  0  0  0  0  0  0  0  0  0
    9.6361   11.5764    8.2390 C   0  0  0  0  0  0  0  0  0  0  0  0
    9.1477   12.3988    9.1376 C   0  0  0  0  0  0  0  0  0  0  0  0
   11.8699   14.6411   11.8186 C   0  0  0  0  0  0  0  0  0  0  0  0
   12.6956   18.7452    9.4205 H   0  0  0  0  0  0  0  0  0  0  0  0
   12.7296   19.3402   11.0897 H   0  0  0  0  0  0  0  0  0  0  0  0
   11.3819   18.3166   10.5706 H   0  0  0  0  0  0  0  0  0  0  0  0
   14.2458   17.3985   10.7537 H   0  0  0  0  0  0  0  0  0  0  0  0
   12.9813   17.0237   11.8105 H   0  0  0  0  0  0  0  0  0  0  0  0
   11.5359   12.3676   10.3955 H   0  0  0  0  0  0  0  0  0  0  0  0
   14.2044   11.9399    7.8509 H   0  0  0  0  0  0  0  0  0  0  0  0
   14.9027   10.4808    5.5505 H   0  0  0  0  0  0  0  0  0  0  0  0
    7.9617   10.5413    3.2784 H   0  0  0  0  0  0  0  0  0  0  0  0
   11.5797   14.5741    6.0861 H   0  0  0  0  0  0  0  0  0  0  0  0
    7.3709   10.6486    6.5507 H   0  0  0  0  0  0  0  0  0  0  0  0
    7.2641   12.1347    5.4022 H   0  0  0  0  0  0  0  0  0  0  0  0
    6.0915   10.9276    5.3507 H   0  0  0  0  0  0  0  0  0  0  0  0
   10.2386   11.6824    6.3228 H   0  0  0  0  0  0  0  0  0  0  0  0
   11.5993    9.4489    2.1685 H   0  0  0  0  0  0  0  0  0  0  0  0
   10.6030    8.8824    4.0377 H   0  0  0  0  0  0  0  0  0  0  0  0
   11.9908    5.7280    5.7013 H   0  0  0  0  0  0  0  0  0  0  0  0
    9.8684    7.7505    5.1838 H   0  0  0  0  0  0  0  0  0  0  0  0
    8.2807    6.3384    6.0528 H   0  0  0  0  0  0  0  0  0  0  0  0
    9.0637    5.6585    4.6168 H   0  0  0  0  0  0  0  0  0  0  0  0
   11.1664    3.4570    6.6697 H   0  0  0  0  0  0  0  0  0  0  0  0
   11.0613    6.9622    8.9597 H   0  0  0  0  0  0  0  0  0  0  0  0
   12.6853    6.7354    2.6585 H   0  0  0  0  0  0  0  0  0  0  0  0
   14.0936    9.6231    2.3624 H   0  0  0  0  0  0  0  0  0  0  0  0
   15.6442    7.6993    2.7163 H   0  0  0  0  0  0  0  0  0  0  0  0
   15.9320    9.0157    3.8699 H   0  0  0  0  0  0  0  0  0  0  0  0
   15.1351    7.5513    4.3928 H   0  0  0  0  0  0  0  0  0  0  0  0
   11.8964    6.8872    0.9556 H   0  0  0  0  0  0  0  0  0  0  0  0
   12.5513    8.5282    0.6064 H   0  0  0  0  0  0  0  0  0  0  0  0
   14.0686    6.7621   -0.2537 H   0  0  0  0  0  0  0  0  0  0  0  0
   14.8630    7.6483    1.0266 H   0  0  0  0  0  0  0  0  0  0  0  0
   14.4692    4.7815    3.4265 H   0  0  0  0  0  0  0  0  0  0  0  0
   10.1543    9.3401    6.2344 H   0  0  0  0  0  0  0  0  0  0  0  0
   11.3385   10.9481    5.4703 H   0  0  0  0  0  0  0  0  0  0  0  0
   11.4226    8.8175    5.7434 H   0  0  0  0  0  0  0  0  0  0  0  0
    8.7688   11.2021    7.6682 H   0  0  0  0  0  0  0  0  0  0  0  0
    8.0957   12.4799    9.3074 H   0  0  0  0  0  0  0  0  0  0  0  0
    9.8581   12.8938    9.7285 H   0  0  0  0  0  0  0  0  0  0  0  0
   10.7988   14.3621   11.8057 H   0  0  0  0  0  0  0  0  0  0  0  0
   12.3755   13.7777   12.2894 H   0  0  0  0  0  0  0  0  0  0  0  0
   11.9356   15.4709   12.5330 H   0  0  0  0  0  0  0  0  0  0  0  0
  1  2  1  0  0  0  0
  1 53  1  0  0  0  0
  1 54  1  0  0  0  0
  1 55  1  0  0  0  0
  2  3  1  0  0  0  0
  2 56  1  0  0  0  0
  2 57  1  0  0  0  0
  3  4  2  0  0  0  0
  3 23  1  0  0  0  0
  4  5  1  0  0  0  0
  4 52  1  0  0  0  0
  5  6  2  0  0  0  0
  5 24  1  0  0  0  0
  6  7  1  0  0  0  0
  6 58  1  0  0  0  0
  7  8  2  0  0  0  0
  7 11  1  0  0  0  0
  8  9  1  0  0  0  0
  8 50  1  0  0  0  0
  9 10  2  0  0  0  0
  9 49  1  0  0  0  0
 10 11  1  0  0  0  0
 10 12  1  0  0  0  0
 11 59  1  0  0  0  0
 12 13  2  0  0  0  0
 12 60  1  0  0  0  0
 13 14  1  0  0  0  0
 13 42  1  0  0  0  0
 14 15  2  0  0  0  0
 15 16  1  0  0  0  0
 15 41  1  0  0  0  0
 16 17  2  0  0  0  0
 16 29  1  0  0  0  0
 17 18  1  0  0  0  0
 17 21  1  0  0  0  0
 18 19  2  0  0  0  0
 18 26  1  0  0  0  0
 19 20  1  0  0  0  0
 19 25  1  0  0  0  0
 20 21  1  0  0  0  0
 20 22  2  0  0  0  0
 21 61  1  0  0  0  0
 22 23  1  0  0  0  0
 22 62  1  0  0  0  0
 23 24  2  0  0  0  0
 25 63  1  0  0  0  0
 25 64  1  0  0  0  0
 25 65  1  0  0  0  0
 26 27  2  0  0  0  0
 26 28  1  0  0  0  0
 28 66  1  0  0  0  0
 29 30  1  0  0  0  0
 29 67  1  0  0  0  0
 29 68  1  0  0  0  0
 30 31  2  0  0  0  0
 30 32  1  0  0  0  0
 32 69  1  0  0  0  0
 33 32  1  0  0  0  0
 33 34  1  0  0  0  0
 33 38  1  0  0  0  0
 33 70  1  6  0  0  0
 34 35  1  0  0  0  0
 34 71  1  0  0  0  0
 34 72  1  0  0  0  0
 35 36  2  0  0  0  0
 35 37  1  0  0  0  0
 37 73  1  0  0  0  0
 38 39  2  0  0  0  0
 38 40  1  0  0  0  0
 40 74  1  0  0  0  0
 41 42  1  0  0  0  0
 41 44  1  0  0  0  0
 41 75  1  1  0  0  0
 42 43  1  0  0  0  0
 42 76  1  6  0  0  0
 43 77  1  0  0  0  0
 43 78  1  0  0  0  0
 43 79  1  0  0  0  0
 44 45  1  0  0  0  0
 44 80  1  0  0  0  0
 44 81  1  0  0  0  0
 45 46  1  0  0  0  0
 45 82  1  0  0  0  0
 45 83  1  0  0  0  0
 46 47  2  0  0  0  0
 46 48  1  0  0  0  0
 48 84  1  0  0  0  0
 49 85  1  0  0  0  0
 49 86  1  0  0  0  0
 49 87  1  0  0  0  0
 50 51  2  0  0  0  0
 50 88  1  0  0  0  0
 51 89  1  0  0  0  0
 51 90  1  0  0  0  0
 52 91  1  0  0  0  0
 52 92  1  0  0  0  0
 52 93  1  0  0  0  0
M  END
>  <DRUGBANK_ID>
DB11812

>  <COMMON_NAME>
Talaporfin

>  <CAS_NUMBER>
110230-98-3

>  <UNII>
P4ROX5ELT2

>  <SYNONYMS>
Talaporfin

$$$$
