
 OpenBabel10282417143D

 32 31  0  0  1  0  0  0  0  0999 V2000
    0.9712   -0.0447    0.0791 C   0  0  0  0  0  0  0  0  0  0  0  0
    0.4330   -1.3519    0.6915 C   0  0  0  0  0  0  0  0  0  0  0  0
    0.9783   -1.4538    2.1224 C   0  0  0  0  0  0  0  0  0  0  0  0
   -1.0993   -1.2802    0.6672 C   0  0  0  0  0  0  0  0  0  0  0  0
    0.9103   -2.4593   -0.1214 O   0  0  0  0  0  0  0  0  0  0  0  0
    0.5193   -3.7235    0.2238 C   0  0  0  0  0  0  0  0  0  0  0  0
   -0.1938   -4.0008    1.1851 O   0  0  0  0  0  0  0  0  0  0  0  0
    1.0829   -4.8114   -0.6925 C   0  0  1  0  0  0  0  0  0  0  0  0
    0.6151   -4.6489   -2.0859 N   0  0  0  0  0  0  0  0  0  0  0  0
    2.6123   -4.8839   -0.6160 C   0  0  0  0  0  0  0  0  0  0  0  0
    3.1385   -5.0980    0.8091 C   0  0  0  0  0  0  0  0  0  0  0  0
    2.6451   -6.3981    1.4135 C   0  0  0  0  0  0  0  0  0  0  0  0
    3.5884   -7.3104    1.7539 N   0  0  0  0  0  0  0  0  0  0  0  0
    1.4610   -6.6650    1.5889 O   0  0  0  0  0  0  0  0  0  0  0  0
    0.6349    0.8257    0.6573 H   0  0  0  0  0  0  0  0  0  0  0  0
    0.6308    0.0852   -0.9541 H   0  0  0  0  0  0  0  0  0  0  0  0
    2.0665   -0.0308    0.0560 H   0  0  0  0  0  0  0  0  0  0  0  0
    0.6469   -0.6078    2.7328 H   0  0  0  0  0  0  0  0  0  0  0  0
    0.6532   -2.3654    2.6289 H   0  0  0  0  0  0  0  0  0  0  0  0
    2.0741   -1.4770    2.1187 H   0  0  0  0  0  0  0  0  0  0  0  0
   -1.4640   -1.1915   -0.3623 H   0  0  0  0  0  0  0  0  0  0  0  0
   -1.5671   -2.1754    1.0821 H   0  0  0  0  0  0  0  0  0  0  0  0
   -1.4658   -0.4294    1.2488 H   0  0  0  0  0  0  0  0  0  0  0  0
    0.6500   -5.7589   -0.3605 H   0  0  0  0  0  0  0  0  0  0  0  0
    0.9150   -5.4690   -2.6142 H   0  0  0  0  0  0  0  0  0  0  0  0
   -0.4060   -4.7078   -2.0698 H   0  0  0  0  0  0  0  0  0  0  0  0
    2.9722   -5.7009   -1.2553 H   0  0  0  0  0  0  0  0  0  0  0  0
    3.0471   -3.9574   -1.0146 H   0  0  0  0  0  0  0  0  0  0  0  0
    4.2343   -5.0846    0.7926 H   0  0  0  0  0  0  0  0  0  0  0  0
    2.8290   -4.2782    1.4672 H   0  0  0  0  0  0  0  0  0  0  0  0
    3.2499   -8.1683    2.1725 H   0  0  0  0  0  0  0  0  0  0  0  0
    4.5824   -7.1444    1.7125 H   0  0  0  0  0  0  0  0  0  0  0  0
  1  2  1  0  0  0  0
  1 15  1  0  0  0  0
  1 16  1  0  0  0  0
  1 17  1  0  0  0  0
  2  3  1  0  0  0  0
  2  4  1  0  0  0  0
  2  5  1  0  0  0  0
  3 18  1  0  0  0  0
  3 19  1  0  0  0  0
  3 20  1  0  0  0  0
  4 21  1  0  0  0  0
  4 22  1  0  0  0  0
  4 23  1  0  0  0  0
  5  6  1  0  0  0  0
  6  7  2  0  0  0  0
  6  8  1  0  0  0  0
  8  9  1  0  0  0  0
  8 10  1  0  0  0  0
  8 24  1  1  0  0  0
  9 25  1  0  0  0  0
  9 26  1  0  0  0  0
 10 11  1  0  0  0  0
 10 27  1  0  0  0  0
 10 28  1  0  0  0  0
 11 12  1  0  0  0  0
 11 29  1  0  0  0  0
 11 30  1  0  0  0  0
 12 13  1  0  0  0  0
 12 14  2  0  0  0  0
 13 31  1  0  0  0  0
 13 32  1  0  0  0  0
M  END
>  <DRUGBANK_ID>
DB04636

>  <COMMON_NAME>
Glutamine t-butyl ester

$$$$
