
 OpenBabel10282417143D

 59 60  0  0  1  0  0  0  0  0999 V2000
   -3.4408    2.8922    1.9766 N   0  0  0  0  0  0  0  0  0  0  0  0
   -2.2921    3.4806    1.8374 C   0  0  0  0  0  0  0  0  0  0  0  0
   -1.5072    2.6466    2.5362 N   0  0  0  0  0  0  0  0  0  0  0  0
   -1.6037    4.8808    1.4657 N   0  0  0  0  0  0  0  0  0  0  0  0
   -2.0212    6.5397    1.3926 C   0  0  0  0  0  0  0  0  0  0  0  0
   -0.6817    4.7671    0.2957 C   0  0  0  0  0  0  0  0  0  0  0  0
    0.6702    4.2641    0.7697 C   0  0  0  0  0  0  0  0  0  0  0  0
    0.5622    2.9690    1.5737 C   0  0  2  0  0  0  0  0  0  0  0  0
   -0.5048    1.9995    0.6172 N   0  0  0  0  0  0  0  0  0  0  0  0
    0.5262    3.4393    3.3252 C   0  0  0  0  0  0  0  0  0  0  0  0
    0.0002    2.5298    4.5699 C   0  0  0  0  0  0  0  0  0  0  0  0
    0.8475    1.8700    5.1947 O   0  0  0  0  0  0  0  0  0  0  0  0
   -1.3276    2.3978    5.0246 N   0  0  0  0  0  0  0  0  0  0  0  0
   -2.6813    2.9248    4.5324 C   0  0  1  0  0  0  0  0  0  0  0  0
   -3.8670    2.3726    5.2290 C   0  0  0  0  0  0  0  0  0  0  0  0
   -4.7523    3.3023    5.5774 C   0  0  0  0  0  0  0  0  0  0  0  0
   -4.3896    4.7951    5.7105 C   0  0  1  0  0  0  0  0  0  0  0  0
   -3.0853    5.1079    5.2831 O   0  0  0  0  0  0  0  0  0  0  0  0
   -2.8821    4.5763    3.9663 C   0  0  2  0  0  0  0  0  0  0  0  0
   -4.0856    5.0754    2.5810 C   0  0  0  0  0  0  0  0  0  0  0  0
   -3.8783    5.1930    1.2160 O   0  0  0  0  0  0  0  0  0  0  0  0
   -5.3115    4.9712    2.7062 O   0  0  0  0  0  0  0  0  0  0  0  0
   -5.3251    5.7032    5.0656 N   0  0  0  0  0  0  0  0  0  0  0  0
   -6.6489    5.4037    5.1904 C   0  0  0  0  0  0  0  0  0  0  0  0
   -7.5654    6.1879    4.6224 C   0  0  0  0  0  0  0  0  0  0  0  0
   -7.1875    7.2867    3.7279 C   0  0  1  0  0  0  0  0  0  0  0  0
   -7.8366    7.2271    2.4664 N   0  0  0  0  0  0  0  0  0  0  0  0
   -7.4925    8.5024    4.3193 O   0  0  0  0  0  0  0  0  0  0  0  0
   -5.8264    7.4095    3.5140 N   0  0  0  0  0  0  0  0  0  0  0  0
   -4.8542    6.8467    4.3283 C   0  0  0  0  0  0  0  0  0  0  0  0
   -3.7501    7.2415    4.1961 O   0  0  0  0  0  0  0  0  0  0  0  0
   -4.1896    3.2549    2.6022 H   0  0  0  0  0  0  0  0  0  0  0  0
   -0.8106    2.1184    2.0878 H   0  0  0  0  0  0  0  0  0  0  0  0
   -1.7731    1.7982    3.0203 H   0  0  0  0  0  0  0  0  0  0  0  0
   -1.1456    7.2075    1.4022 H   0  0  0  0  0  0  0  0  0  0  0  0
   -2.5061    6.7492    0.4121 H   0  0  0  0  0  0  0  0  0  0  0  0
   -2.7041    6.9201    2.1576 H   0  0  0  0  0  0  0  0  0  0  0  0
   -1.1801    4.1501   -0.4562 H   0  0  0  0  0  0  0  0  0  0  0  0
   -0.5875    5.7083   -0.2608 H   0  0  0  0  0  0  0  0  0  0  0  0
    1.3132    4.0788   -0.0893 H   0  0  0  0  0  0  0  0  0  0  0  0
    1.1122    5.0625    1.3773 H   0  0  0  0  0  0  0  0  0  0  0  0
    1.3961    2.2841    1.5433 H   0  0  0  0  0  0  0  0  0  0  0  0
   -1.2559    1.3507    1.0013 H   0  0  0  0  0  0  0  0  0  0  0  0
   -1.2604    2.6290    0.2846 H   0  0  0  0  0  0  0  0  0  0  0  0
    1.5964    3.5922    3.5369 H   0  0  0  0  0  0  0  0  0  0  0  0
    0.1231    4.4539    3.4871 H   0  0  0  0  0  0  0  0  0  0  0  0
   -1.3953    1.5453    5.5842 H   0  0  0  0  0  0  0  0  0  0  0  0
   -2.9664    2.1711    3.8203 H   0  0  0  0  0  0  0  0  0  0  0  0
   -4.2207    1.3559    4.9655 H   0  0  0  0  0  0  0  0  0  0  0  0
   -5.7630    2.9231    5.6660 H   0  0  0  0  0  0  0  0  0  0  0  0
   -4.4300    5.0030    6.7746 H   0  0  0  0  0  0  0  0  0  0  0  0
   -1.8872    4.9916    3.7445 H   0  0  0  0  0  0  0  0  0  0  0  0
   -3.0123    4.9014    0.8446 H   0  0  0  0  0  0  0  0  0  0  0  0
   -6.9370    4.5539    5.7869 H   0  0  0  0  0  0  0  0  0  0  0  0
   -8.5977    6.0060    4.8540 H   0  0  0  0  0  0  0  0  0  0  0  0
   -8.2171    8.1519    2.3061 H   0  0  0  0  0  0  0  0  0  0  0  0
   -8.6512    6.6256    2.5694 H   0  0  0  0  0  0  0  0  0  0  0  0
   -6.6074    8.9120    4.2911 H   0  0  0  0  0  0  0  0  0  0  0  0
   -5.4953    7.9649    2.7395 H   0  0  0  0  0  0  0  0  0  0  0  0
  1  2  2  0  0  0  0
  1 32  1  0  0  0  0
  2  3  1  0  0  0  0
  2  4  1  0  0  0  0
  3 33  1  0  0  0  0
  3 34  1  0  0  0  0
  4  5  1  0  0  0  0
  4  6  1  0  0  0  0
  5 35  1  0  0  0  0
  5 36  1  0  0  0  0
  5 37  1  0  0  0  0
  6  7  1  0  0  0  0
  6 38  1  0  0  0  0
  6 39  1  0  0  0  0
  7 40  1  0  0  0  0
  7 41  1  0  0  0  0
  8 10  1  0  0  0  0
  8 42  1  6  0  0  0
  8  9  1  0  0  0  0
  8  7  1  0  0  0  0
  9 43  1  0  0  0  0
  9 44  1  0  0  0  0
 10 11  1  0  0  0  0
 10 45  1  0  0  0  0
 10 46  1  0  0  0  0
 11 12  2  0  0  0  0
 11 13  1  0  0  0  0
 13 47  1  0  0  0  0
 14 13  1  0  0  0  0
 14 15  1  0  0  0  0
 14 19  1  0  0  0  0
 14 48  1  6  0  0  0
 15 16  2  0  0  0  0
 15 49  1  0  0  0  0
 16 17  1  0  0  0  0
 16 50  1  0  0  0  0
 17 18  1  0  0  0  0
 17 51  1  1  0  0  0
 17 23  1  0  0  0  0
 18 19  1  0  0  0  0
 19 20  1  0  0  0  0
 19 52  1  6  0  0  0
 20 21  1  0  0  0  0
 20 22  2  0  0  0  0
 21 53  1  0  0  0  0
 23 24  1  0  0  0  0
 23 30  1  0  0  0  0
 24 25  2  0  0  0  0
 24 54  1  0  0  0  0
 25 26  1  0  0  0  0
 25 55  1  0  0  0  0
 26 29  1  0  0  0  0
 26 28  1  1  0  0  0
 26 27  1  0  0  0  0
 27 56  1  0  0  0  0
 27 57  1  0  0  0  0
 28 58  1  0  0  0  0
 29 30  1  0  0  0  0
 29 59  1  0  0  0  0
 30 31  2  0  0  0  0
M  END
>  <DRUGBANK_ID>
DB04649

>  <COMMON_NAME>
TETRAHEDRAL INTERMEDIATE OF BLASTICIDIN S

$$$$
