
 OpenBabel10282417223D

 62 66  0  0  0  0  0  0  0  0999 V2000
    0.6448   -0.5778    0.2822 C   0  0  0  0  0  0  0  0  0  0  0  0
    0.4062   -0.6313    1.7407 C   0  0  0  0  0  0  0  0  0  0  0  0
    0.9644    0.4662    2.5538 N   0  0  0  0  0  0  0  0  0  0  0  0
    1.0897    0.0777    3.9213 C   0  0  0  0  0  0  0  0  0  0  0  0
    1.5458   -0.9918    4.2616 O   0  0  0  0  0  0  0  0  0  0  0  0
    0.4347    0.9682    4.7780 N   0  0  0  0  0  0  0  0  0  0  0  0
    0.7930    2.3556    4.6609 C   0  0  0  0  0  0  0  0  0  0  0  0
    0.9527    2.8107    3.2383 C   0  0  0  0  0  0  0  0  0  0  0  0
    1.1015    4.1730    2.9544 C   0  0  0  0  0  0  0  0  0  0  0  0
    1.2514    4.7411    1.7294 N   0  0  0  0  0  0  0  0  0  0  0  0
    1.2310    3.8396    0.7299 C   0  0  0  0  0  0  0  0  0  0  0  0
    1.3717    4.1585   -0.6275 N   0  0  0  0  0  0  0  0  0  0  0  0
    1.3795    3.0047   -1.3702 C   0  0  0  0  0  0  0  0  0  0  0  0
    1.5795    2.6855   -2.8216 C   0  0  0  0  0  0  0  0  0  0  0  0
    2.8042    1.9116   -3.1506 N   0  0  0  0  0  0  0  0  0  0  0  0
    3.0273    0.5272   -2.6425 C   0  0  0  0  0  0  0  0  0  0  0  0
    3.7441    0.4067   -1.2658 C   0  0  0  0  0  0  0  0  0  0  0  0
    4.9115    1.2291   -1.1935 O   0  0  0  0  0  0  0  0  0  0  0  0
    4.5299    2.5864   -1.4600 C   0  0  0  0  0  0  0  0  0  0  0  0
    4.0164    2.7001   -2.9010 C   0  0  0  0  0  0  0  0  0  0  0  0
    1.1780    2.0263   -0.4517 C   0  0  0  0  0  0  0  0  0  0  0  0
    1.0910    2.4542    0.8775 C   0  0  0  0  0  0  0  0  0  0  0  0
    0.9705    1.8769    2.1859 C   0  0  0  0  0  0  0  0  0  0  0  0
   -0.6977    0.5242    5.5473 C   0  0  0  0  0  0  0  0  0  0  0  0
   -0.5706   -0.4814    6.5163 C   0  0  0  0  0  0  0  0  0  0  0  0
    0.6541   -0.9531    6.7907 F   0  0  0  0  0  0  0  0  0  0  0  0
   -1.6766   -0.9304    7.2622 C   0  0  0  0  0  0  0  0  0  0  0  0
   -1.6739   -1.8663    8.2665 O   0  0  0  0  0  0  0  0  0  0  0  0
   -0.4179   -2.4471    8.5961 C   0  0  0  0  0  0  0  0  0  0  0  0
   -2.9453   -0.3932    7.0138 C   0  0  0  0  0  0  0  0  0  0  0  0
   -3.1161    0.5953    6.0459 C   0  0  0  0  0  0  0  0  0  0  0  0
   -4.3271    1.1609    5.7270 O   0  0  0  0  0  0  0  0  0  0  0  0
   -5.4745    0.7088    6.4501 C   0  0  0  0  0  0  0  0  0  0  0  0
   -1.9858    1.0532    5.3330 C   0  0  0  0  0  0  0  0  0  0  0  0
   -2.1571    1.9871    4.3818 F   0  0  0  0  0  0  0  0  0  0  0  0
   -0.0509    0.1963   -0.0480 H   0  0  0  0  0  0  0  0  0  0  0  0
    0.4060   -1.4038   -0.3828 H   0  0  0  0  0  0  0  0  0  0  0  0
    1.7136   -0.4048    0.1763 H   0  0  0  0  0  0  0  0  0  0  0  0
   -0.6794   -0.6265    1.8914 H   0  0  0  0  0  0  0  0  0  0  0  0
    0.7849   -1.5978    2.0850 H   0  0  0  0  0  0  0  0  0  0  0  0
    0.0855    2.9822    5.2126 H   0  0  0  0  0  0  0  0  0  0  0  0
    1.7689    2.4449    5.1621 H   0  0  0  0  0  0  0  0  0  0  0  0
    1.1000    4.8954    3.7708 H   0  0  0  0  0  0  0  0  0  0  0  0
    1.5000    5.0993   -0.9701 H   0  0  0  0  0  0  0  0  0  0  0  0
    0.7140    2.0935   -3.1632 H   0  0  0  0  0  0  0  0  0  0  0  0
    1.5534    3.6000   -3.4204 H   0  0  0  0  0  0  0  0  0  0  0  0
    3.7192    0.0469   -3.3539 H   0  0  0  0  0  0  0  0  0  0  0  0
    2.1227   -0.0950   -2.6890 H   0  0  0  0  0  0  0  0  0  0  0  0
    3.1383    0.7226   -0.4294 H   0  0  0  0  0  0  0  0  0  0  0  0
    4.0062   -0.6349   -1.0447 H   0  0  0  0  0  0  0  0  0  0  0  0
    5.4013    3.2245   -1.3197 H   0  0  0  0  0  0  0  0  0  0  0  0
    3.8005    2.9169   -0.7166 H   0  0  0  0  0  0  0  0  0  0  0  0
    4.7937    2.3140   -3.5705 H   0  0  0  0  0  0  0  0  0  0  0  0
    3.8412    3.7420   -3.1793 H   0  0  0  0  0  0  0  0  0  0  0  0
    1.2070    1.0718   -0.9120 H   0  0  0  0  0  0  0  0  0  0  0  0
   -0.0018   -2.9865    7.7398 H   0  0  0  0  0  0  0  0  0  0  0  0
    0.2736   -1.6881    8.9756 H   0  0  0  0  0  0  0  0  0  0  0  0
   -0.5792   -3.1743    9.3976 H   0  0  0  0  0  0  0  0  0  0  0  0
   -3.7801   -0.7694    7.6001 H   0  0  0  0  0  0  0  0  0  0  0  0
   -5.6575   -0.3592    6.2845 H   0  0  0  0  0  0  0  0  0  0  0  0
   -5.3796    0.9278    7.5196 H   0  0  0  0  0  0  0  0  0  0  0  0
   -6.3515    1.2514    6.0816 H   0  0  0  0  0  0  0  0  0  0  0  0
  1  2  1  0  0  0  0
  1 36  1  0  0  0  0
  1 37  1  0  0  0  0
  1 38  1  0  0  0  0
  2  3  1  0  0  0  0
  2 39  1  0  0  0  0
  2 40  1  0  0  0  0
  3  4  1  0  0  0  0
  3 23  1  0  0  0  0
  4  5  2  0  0  0  0
  4  6  1  0  0  0  0
  6  7  1  0  0  0  0
  6 24  1  0  0  0  0
  7  8  1  0  0  0  0
  7 41  1  0  0  0  0
  7 42  1  0  0  0  0
  8  9  2  0  0  0  0
  8 23  1  0  0  0  0
  9 10  1  0  0  0  0
  9 43  1  0  0  0  0
 10 11  2  0  0  0  0
 11 12  1  0  0  0  0
 11 22  1  0  0  0  0
 12 13  1  0  0  0  0
 12 44  1  0  0  0  0
 13 14  1  0  0  0  0
 13 21  2  0  0  0  0
 14 15  1  0  0  0  0
 14 45  1  0  0  0  0
 14 46  1  0  0  0  0
 15 16  1  0  0  0  0
 15 20  1  0  0  0  0
 16 17  1  0  0  0  0
 16 47  1  0  0  0  0
 16 48  1  0  0  0  0
 17 18  1  0  0  0  0
 17 49  1  0  0  0  0
 17 50  1  0  0  0  0
 18 19  1  0  0  0  0
 19 20  1  0  0  0  0
 19 51  1  0  0  0  0
 19 52  1  0  0  0  0
 20 53  1  0  0  0  0
 20 54  1  0  0  0  0
 21 22  1  0  0  0  0
 21 55  1  0  0  0  0
 22 23  2  0  0  0  0
 24 25  2  0  0  0  0
 24 34  1  0  0  0  0
 25 26  1  0  0  0  0
 25 27  1  0  0  0  0
 27 28  1  0  0  0  0
 27 30  2  0  0  0  0
 28 29  1  0  0  0  0
 29 56  1  0  0  0  0
 29 57  1  0  0  0  0
 29 58  1  0  0  0  0
 30 31  1  0  0  0  0
 30 59  1  0  0  0  0
 31 32  1  0  0  0  0
 31 34  2  0  0  0  0
 32 33  1  0  0  0  0
 33 60  1  0  0  0  0
 33 61  1  0  0  0  0
 33 62  1  0  0  0  0
 34 35  1  0  0  0  0
M  END
>  <DRUGBANK_ID>
DB15102

>  <COMMON_NAME>
Pemigatinib

>  <CAS_NUMBER>
1513857-77-6

>  <UNII>
Y6BX7BL23K

>  <SYNONYMS>
INCB054828; Pemigatinib

$$$$
