
 OpenBabel10282417123D

 60 63  0  0  0  0  0  0  0  0999 V2000
    0.7413   -0.3468    0.0866 C   0  0  0  0  0  0  0  0  0  0  0  0
   12.1115    2.5799   -9.8032 C   0  0  0  0  0  0  0  0  0  0  0  0
    0.4765    0.3167    1.4296 C   0  0  0  0  0  0  0  0  0  0  0  0
    4.2131    2.4748    3.1357 C   0  0  0  0  0  0  0  0  0  0  0  0
    5.1176    1.8901    2.2524 C   0  0  0  0  0  0  0  0  0  0  0  0
    2.8322    2.4201    2.8904 C   0  0  0  0  0  0  0  0  0  0  0  0
    4.6539    1.3555    1.0678 C   0  0  0  0  0  0  0  0  0  0  0  0
    5.4964   -1.2513   -2.2956 C   0  0  0  0  0  0  0  0  0  0  0  0
    4.4972   -0.6795   -1.4873 C   0  0  0  0  0  0  0  0  0  0  0  0
    6.5174   -2.6970   -4.8868 C   0  0  0  0  0  0  0  0  0  0  0  0
    7.3254   -3.2163   -5.8825 C   0  0  0  0  0  0  0  0  0  0  0  0
   10.8943    1.4852   -6.2911 C   0  0  0  0  0  0  0  0  0  0  0  0
    9.8187    1.0966   -8.4754 C   0  0  0  0  0  0  0  0  0  0  0  0
   10.7043   -0.0093   -5.9418 C   0  0  0  0  0  0  0  0  0  0  0  0
    9.6631   -0.4110   -8.1431 C   0  0  0  0  0  0  0  0  0  0  0  0
    5.0015    0.3527   -4.0196 C   0  0  0  0  0  0  0  0  0  0  0  0
    7.7711   -0.6721   -5.1002 C   0  0  0  0  0  0  0  0  0  0  0  0
   12.0330    2.3721   -8.3044 C   0  0  0  0  0  0  0  0  0  0  0  0
    5.7693   -0.7329   -3.5695 C   0  0  0  0  0  0  0  0  0  0  0  0
    6.7185   -1.3757   -4.4929 C   0  0  0  0  0  0  0  0  0  0  0  0
    3.9496    0.8735   -3.2525 C   0  0  0  0  0  0  0  0  0  0  0  0
    2.3544    1.7584    1.7612 C   0  0  0  0  0  0  0  0  0  0  0  0
    3.7762    0.4508   -1.9312 C   0  0  0  0  0  0  0  0  0  0  0  0
    3.2914    1.3856    0.7853 C   0  0  0  0  0  0  0  0  0  0  0  0
    8.5588   -1.2642   -6.0939 C   0  0  0  0  0  0  0  0  0  0  0  0
    8.3117   -2.5242   -6.5046 N   0  0  0  0  0  0  0  0  0  0  0  0
   10.9606    1.6923   -7.7548 N   0  0  0  0  0  0  0  0  0  0  0  0
    9.5582   -0.5342   -6.6910 N   0  0  0  0  0  0  0  0  0  0  0  0
    3.0340    1.8350   -3.9264 N   0  0  0  0  0  0  0  0  0  0  0  0
   12.9466    2.8165   -7.6047 O   0  0  0  0  0  0  0  0  0  0  0  0
    3.4100    2.3226   -4.9877 O   0  0  0  0  0  0  0  0  0  0  0  0
    1.9002    2.0487   -3.4458 O   0  0  0  0  0  0  0  0  0  0  0  0
    0.9924    1.6671    1.5735 O   0  0  0  0  0  0  0  0  0  0  0  0
    2.8234    1.5287   -0.9023 S   0  0  0  0  0  0  0  0  0  0  0  0
    0.5032    0.3453   -0.7284 H   0  0  0  0  0  0  0  0  0  0  0  0
    0.1823   -1.2643   -0.0949 H   0  0  0  0  0  0  0  0  0  0  0  0
    1.7884   -0.6573    0.0471 H   0  0  0  0  0  0  0  0  0  0  0  0
   12.1489    3.6537  -10.0120 H   0  0  0  0  0  0  0  0  0  0  0  0
   13.0291    2.1142  -10.1769 H   0  0  0  0  0  0  0  0  0  0  0  0
   11.2862    2.1695  -10.3753 H   0  0  0  0  0  0  0  0  0  0  0  0
   -0.6132    0.3893    1.5294 H   0  0  0  0  0  0  0  0  0  0  0  0
    0.8345   -0.3237    2.2432 H   0  0  0  0  0  0  0  0  0  0  0  0
    4.5946    2.9809    4.0172 H   0  0  0  0  0  0  0  0  0  0  0  0
    6.1884    1.9293    2.4224 H   0  0  0  0  0  0  0  0  0  0  0  0
    2.1475    2.9334    3.5610 H   0  0  0  0  0  0  0  0  0  0  0  0
    5.3700    1.0268    0.3234 H   0  0  0  0  0  0  0  0  0  0  0  0
    6.0909   -2.0827   -1.9109 H   0  0  0  0  0  0  0  0  0  0  0  0
    4.3340   -1.1177   -0.5006 H   0  0  0  0  0  0  0  0  0  0  0  0
    5.7168   -3.2985   -4.4656 H   0  0  0  0  0  0  0  0  0  0  0  0
    7.1803   -4.2377   -6.2259 H   0  0  0  0  0  0  0  0  0  0  0  0
   11.7774    1.8829   -5.7819 H   0  0  0  0  0  0  0  0  0  0  0  0
   10.0240    2.0505   -5.9340 H   0  0  0  0  0  0  0  0  0  0  0  0
    8.9301    1.6421   -8.1318 H   0  0  0  0  0  0  0  0  0  0  0  0
    9.8805    1.2297   -9.5513 H   0  0  0  0  0  0  0  0  0  0  0  0
   11.6039   -0.5597   -6.2495 H   0  0  0  0  0  0  0  0  0  0  0  0
   10.5949   -0.1449   -4.8607 H   0  0  0  0  0  0  0  0  0  0  0  0
   10.5502   -0.9509   -8.4990 H   0  0  0  0  0  0  0  0  0  0  0  0
    8.7872   -0.8076   -8.6666 H   0  0  0  0  0  0  0  0  0  0  0  0
    5.2143    0.7903   -4.9910 H   0  0  0  0  0  0  0  0  0  0  0  0
    7.9472    0.3684   -4.8458 H   0  0  0  0  0  0  0  0  0  0  0  0
  1 35  1  0  0  0  0
  1 36  1  0  0  0  0
  1 37  1  0  0  0  0
  2 38  1  0  0  0  0
  2 39  1  0  0  0  0
  2 40  1  0  0  0  0
  3  1  1  0  0  0  0
  3 41  1  0  0  0  0
  3 42  1  0  0  0  0
  4 43  1  0  0  0  0
  5  4  2  0  0  0  0
  5 44  1  0  0  0  0
  6  4  1  0  0  0  0
  6 45  1  0  0  0  0
  7  5  1  0  0  0  0
  7 46  1  0  0  0  0
  8 47  1  0  0  0  0
  9  8  2  0  0  0  0
  9 48  1  0  0  0  0
 10 49  1  0  0  0  0
 11 10  2  0  0  0  0
 11 50  1  0  0  0  0
 12 51  1  0  0  0  0
 12 52  1  0  0  0  0
 13 53  1  0  0  0  0
 13 54  1  0  0  0  0
 14 12  1  0  0  0  0
 14 55  1  0  0  0  0
 14 56  1  0  0  0  0
 15 13  1  0  0  0  0
 15 57  1  0  0  0  0
 15 58  1  0  0  0  0
 16 59  1  0  0  0  0
 17 60  1  0  0  0  0
 18  2  1  0  0  0  0
 19  8  1  0  0  0  0
 19 16  2  0  0  0  0
 20 10  1  0  0  0  0
 20 17  2  0  0  0  0
 20 19  1  0  0  0  0
 21 16  1  0  0  0  0
 22  6  2  0  0  0  0
 23  9  1  0  0  0  0
 23 21  2  0  0  0  0
 24  7  2  0  0  0  0
 24 22  1  0  0  0  0
 25 17  1  0  0  0  0
 26 11  1  0  0  0  0
 26 25  2  0  0  0  0
 27 12  1  0  0  0  0
 27 13  1  0  0  0  0
 27 18  1  0  0  0  0
 28 14  1  0  0  0  0
 28 15  1  0  0  0  0
 28 25  1  0  0  0  0
 29 21  1  0  0  0  0
 30 18  2  0  0  0  0
 31 29  2  0  0  0  0
 32 29  2  0  0  0  0
 33  3  1  0  0  0  0
 33 22  1  0  0  0  0
 34 23  1  0  0  0  0
 34 24  1  0  0  0  0
M  END
>  <DRUGBANK_ID>
DB02177

>  <SECONDARY_ACCESSION_NUMBERS>
EXPT01986

>  <COMMON_NAME>
1-Acetyl-4-(4-{4-[(2-Ethoxyphenyl)Thio]-3-Nitrophenyl}Pyridin-2-Yl)Piperazine

$$$$
