
 OpenBabel10282417243D

 29 30  0  0  1  0  0  0  0  0999 V2000
    0.9992   -0.0679    0.1056 O   0  0  0  0  0  0  0  0  0  0  0  0
    0.5436   -1.2124   -0.6103 C   0  0  0  0  0  0  0  0  0  0  0  0
    1.0299   -1.1681   -2.0620 C   0  0  1  0  0  0  0  0  0  0  0  0
    0.6904   -2.3796   -2.7618 O   0  0  0  0  0  0  0  0  0  0  0  0
    0.0097   -2.0641   -3.9806 C   0  0  2  0  0  0  0  0  0  0  0  0
    0.2936   -0.5884   -4.2249 C   0  0  0  0  0  0  0  0  0  0  0  0
    0.4341    0.0098   -2.8359 C   0  0  2  0  0  0  0  0  0  0  0  0
    1.3614    1.1453   -2.9556 N   0  0  0  0  0  0  0  0  0  0  0  0
    1.4101    2.0095   -2.0558 N   0  3  0  0  0  0  0  0  0  0  0  0
    1.5262    2.8343   -1.2835 N   0  5  0  0  0  0  0  0  0  0  0  0
   -1.4340   -2.3878   -3.9397 N   0  0  0  0  0  0  0  0  0  0  0  0
   -2.1994   -2.0864   -5.0635 C   0  0  0  0  0  0  0  0  0  0  0  0
   -3.5338   -2.1389   -5.0522 C   0  0  0  0  0  0  0  0  0  0  0  0
   -4.2047   -2.6723   -3.8611 C   0  0  0  0  0  0  0  0  0  0  0  0
   -5.4222   -2.6326   -3.7433 O   0  0  0  0  0  0  0  0  0  0  0  0
   -3.3759   -3.2195   -2.9311 N   0  0  0  0  0  0  0  0  0  0  0  0
   -2.0291   -2.9790   -2.8260 C   0  0  0  0  0  0  0  0  0  0  0  0
   -1.4808   -3.2718   -1.7679 O   0  0  0  0  0  0  0  0  0  0  0  0
    1.9713   -0.1094    0.1327 H   0  0  0  0  0  0  0  0  0  0  0  0
    0.8929   -2.1161   -0.0990 H   0  0  0  0  0  0  0  0  0  0  0  0
   -0.5499   -1.2220   -0.5597 H   0  0  0  0  0  0  0  0  0  0  0  0
    2.1248   -1.1016   -2.0585 H   0  0  0  0  0  0  0  0  0  0  0  0
    0.4476   -2.6822   -4.7749 H   0  0  0  0  0  0  0  0  0  0  0  0
   -0.4522   -0.0663   -4.8297 H   0  0  0  0  0  0  0  0  0  0  0  0
    1.2517   -0.5010   -4.7552 H   0  0  0  0  0  0  0  0  0  0  0  0
   -0.5511    0.3041   -2.4489 H   0  0  0  0  0  0  0  0  0  0  0  0
   -1.6767   -1.7526   -5.9570 H   0  0  0  0  0  0  0  0  0  0  0  0
   -4.1604   -1.8165   -5.8732 H   0  0  0  0  0  0  0  0  0  0  0  0
   -3.8072   -3.6101   -2.1085 H   0  0  0  0  0  0  0  0  0  0  0  0
  1  2  1  0  0  0  0
  1 19  1  0  0  0  0
  2 20  1  0  0  0  0
  2 21  1  0  0  0  0
  3  2  1  0  0  0  0
  3  4  1  0  0  0  0
  3  7  1  0  0  0  0
  3 22  1  1  0  0  0
  5  4  1  0  0  0  0
  5  6  1  0  0  0  0
  5 11  1  0  0  0  0
  5 23  1  6  0  0  0
  6 24  1  0  0  0  0
  6 25  1  0  0  0  0
  7  6  1  0  0  0  0
  7 26  1  1  0  0  0
  7  8  1  0  0  0  0
  8  9  2  0  0  0  0
  9 10  2  0  0  0  0
 11 12  1  0  0  0  0
 11 17  1  0  0  0  0
 12 13  2  0  0  0  0
 12 27  1  0  0  0  0
 13 14  1  0  0  0  0
 13 28  1  0  0  0  0
 14 15  2  0  0  0  0
 14 16  1  0  0  0  0
 16 17  1  0  0  0  0
 16 29  1  0  0  0  0
 17 18  2  0  0  0  0
M  CHG  2   9   1  10  -1
M  END
>  <DRUGBANK_ID>
DB17759

>  <COMMON_NAME>
Navuridine

>  <CAS_NUMBER>
84472-85-5

>  <UNII>
PS28W65479

>  <SYNONYMS>
3'-azido-2',3'-dideoxyuridine; 3'-azido-2',3'dideoxyuridine; Navuridine; Uridine, 3'-azido-2',3'-dideoxy-

$$$$
