AO1
 OpenBabel10282417133D

 50 51  0  0  0  0  0  0  0  0999 V2000
   10.7225   -3.3242   -6.8131 C   0  0  0  0  0  0  0  0  0  0  0  0
   11.1894   -2.2104   -7.7271 C   0  0  0  0  0  0  0  0  0  0  0  0
   12.6086   -1.2129   -7.1028 S   0  0  0  0  0  0  0  0  0  0  0  0
   12.0584   -0.4119   -5.5288 C   0  0  0  0  0  0  0  0  0  0  0  0
   10.9502    0.6453   -5.6691 C   0  0  0  0  0  0  0  0  0  0  0  0
    9.5907    0.0312   -6.0030 C   0  0  1  0  0  0  0  0  0  0  0  0
    9.1559   -1.0599   -4.9922 C   0  0  1  0  0  0  0  0  0  0  0  0
    8.9503   -0.4862   -3.5960 C   0  0  0  0  0  0  0  0  0  0  0  0
    7.7045   -0.6977   -3.1123 N   0  0  0  0  0  0  0  0  0  0  0  0
    7.0813    0.0054   -2.0202 C   0  0  2  0  0  0  0  0  0  0  0  0
    5.5406   -0.0465   -2.1098 C   0  0  0  0  0  0  0  0  0  0  0  0
    9.8482    0.0990   -2.9863 O   0  0  0  0  0  0  0  0  0  0  0  0
    7.5448    1.4668   -1.9249 C   0  0  0  0  0  0  0  0  0  0  0  0
    4.8463    0.4418   -0.9846 C   0  0  0  0  0  0  0  0  0  0  0  0
    3.4582    0.4259   -0.9365 C   0  0  0  0  0  0  0  0  0  0  0  0
    2.7304   -0.1110   -1.9958 C   0  0  0  0  0  0  0  0  0  0  0  0
    3.3663   -0.6001   -3.1449 C   0  0  0  0  0  0  0  0  0  0  0  0
    4.7718   -0.5448   -3.2297 C   0  0  0  0  0  0  0  0  0  0  0  0
    2.6085   -1.1141   -4.2255 C   0  0  0  0  0  0  0  0  0  0  0  0
    3.2063   -1.6218   -5.3814 C   0  0  0  0  0  0  0  0  0  0  0  0
    4.5710   -1.5712   -5.4986 C   0  0  0  0  0  0  0  0  0  0  0  0
    5.2923   -0.9768   -4.4713 C   0  0  0  0  0  0  0  0  0  0  0  0
    8.1342   -1.8681   -5.5668 O   0  0  0  0  0  0  0  0  0  0  0  0
    8.5469    1.0250   -6.2913 N   0  0  0  0  0  0  0  0  0  0  0  0
    9.6893   -0.4108   -6.9783 H   0  0  0  0  0  0  0  0  0  0  0  0
    9.9493   -1.7503   -4.7585 H   0  0  0  0  0  0  0  0  0  0  0  0
    7.4008   -0.5459   -1.1275 H   0  0  0  0  0  0  0  0  0  0  0  0
   11.4775   -4.1031   -6.7211 H   0  0  0  0  0  0  0  0  0  0  0  0
    9.7894   -3.7614   -7.1868 H   0  0  0  0  0  0  0  0  0  0  0  0
   10.5285   -3.0184   -5.8001 H   0  0  0  0  0  0  0  0  0  0  0  0
   11.5346   -2.6764   -8.6539 H   0  0  0  0  0  0  0  0  0  0  0  0
   10.3640   -1.5977   -8.0914 H   0  0  0  0  0  0  0  0  0  0  0  0
   11.8421   -1.1751   -4.7757 H   0  0  0  0  0  0  0  0  0  0  0  0
   12.9426    0.1026   -5.1302 H   0  0  0  0  0  0  0  0  0  0  0  0
   10.8738    1.2197   -4.7383 H   0  0  0  0  0  0  0  0  0  0  0  0
   11.2440    1.3832   -6.4247 H   0  0  0  0  0  0  0  0  0  0  0  0
    7.3357   -1.6196   -3.3313 H   0  0  0  0  0  0  0  0  0  0  0  0
    7.1613    1.9562   -1.0266 H   0  0  0  0  0  0  0  0  0  0  0  0
    8.6306    1.5602   -1.8566 H   0  0  0  0  0  0  0  0  0  0  0  0
    7.2199    2.0383   -2.8011 H   0  0  0  0  0  0  0  0  0  0  0  0
    5.3885    0.8566   -0.1355 H   0  0  0  0  0  0  0  0  0  0  0  0
    2.9416    0.8307   -0.0701 H   0  0  0  0  0  0  0  0  0  0  0  0
    1.6461   -0.1338   -1.9230 H   0  0  0  0  0  0  0  0  0  0  0  0
    1.5234   -1.1132   -4.1760 H   0  0  0  0  0  0  0  0  0  0  0  0
    2.6150   -2.0157   -6.2010 H   0  0  0  0  0  0  0  0  0  0  0  0
    5.0894   -1.9408   -6.3796 H   0  0  0  0  0  0  0  0  0  0  0  0
    6.3140   -0.7961   -4.7127 H   0  0  0  0  0  0  0  0  0  0  0  0
    7.5520   -1.2824   -6.0772 H   0  0  0  0  0  0  0  0  0  0  0  0
    7.7498    0.5859   -6.7480 H   0  0  0  0  0  0  0  0  0  0  0  0
    8.2157    1.4608   -5.4344 H   0  0  0  0  0  0  0  0  0  0  0  0
  1  2  1  0  0  0  0
  1 28  1  0  0  0  0
  1 29  1  0  0  0  0
  1 30  1  0  0  0  0
  2  3  1  0  0  0  0
  2 31  1  0  0  0  0
  2 32  1  0  0  0  0
  3  4  1  0  0  0  0
  4  5  1  0  0  0  0
  4 33  1  0  0  0  0
  4 34  1  0  0  0  0
  5  6  1  0  0  0  0
  5 35  1  0  0  0  0
  5 36  1  0  0  0  0
  6  7  1  0  0  0  0
  6 24  1  0  0  0  0
  6 25  1  6  0  0  0
  7  8  1  0  0  0  0
  7 23  1  0  0  0  0
  7 26  1  1  0  0  0
  8  9  1  0  0  0  0
  8 12  2  0  0  0  0
  9 37  1  0  0  0  0
 10 13  1  0  0  0  0
 10 27  1  1  0  0  0
 10 11  1  0  0  0  0
 10  9  1  0  0  0  0
 11 14  1  0  0  0  0
 11 18  2  0  0  0  0
 13 38  1  0  0  0  0
 13 39  1  0  0  0  0
 13 40  1  0  0  0  0
 14 15  2  0  0  0  0
 14 41  1  0  0  0  0
 15 16  1  0  0  0  0
 15 42  1  0  0  0  0
 16 17  2  0  0  0  0
 16 43  1  0  0  0  0
 17 18  1  0  0  0  0
 17 19  1  0  0  0  0
 18 22  1  0  0  0  0
 19 20  2  0  0  0  0
 19 44  1  0  0  0  0
 20 21  1  0  0  0  0
 20 45  1  0  0  0  0
 21 22  2  0  0  0  0
 21 46  1  0  0  0  0
 22 47  1  0  0  0  0
 23 48  1  0  0  0  0
 24 49  1  0  0  0  0
 24 50  1  0  0  0  0
M  END
>  <DRUGBANK_ID>
DB04108

>  <SECONDARY_ACCESSION_NUMBERS>
EXPT00526

>  <COMMON_NAME>
(2s,3r)-3-Amino-2-Hydroxy-5-(Ethylsulfanyl)Pentanoyl-((S)-(-)-(1-Naphthyl)Ethyl)Amide

$$$$
