LI3
 OpenBabel10282417173D

 43 46  0  0  0  0  0  0  0  0999 V2000
    2.2047   -0.0562   -0.0658 F   0  0  0  0  0  0  0  0  0  0  0  0
    0.8667   -0.0175   -0.0224 C   0  0  0  0  0  0  0  0  0  0  0  0
    0.2311    1.2236   -0.0144 C   0  0  0  0  0  0  0  0  0  0  0  0
   -1.1449    1.3152    0.1547 C   0  0  0  0  0  0  0  0  0  0  0  0
   -1.8041    0.1155    0.4017 C   0  0  0  0  0  0  0  0  0  0  0  0
   -1.2444   -1.1443    0.1341 C   0  0  0  0  0  0  0  0  0  0  0  0
    0.1417   -1.2061   -0.0057 C   0  0  0  0  0  0  0  0  0  0  0  0
   -2.0664   -2.4077   -0.0024 C   0  0  0  0  0  0  0  0  0  0  0  0
   -1.4896   -3.4896    0.0002 O   0  0  0  0  0  0  0  0  0  0  0  0
   -3.4609   -2.4028   -0.0855 N   0  0  0  0  0  0  0  0  0  0  0  0
   -4.3431   -1.3197   -0.2390 C   0  0  0  0  0  0  0  0  0  0  0  0
   -4.0908   -0.3247   -1.1879 C   0  0  0  0  0  0  0  0  0  0  0  0
   -4.7389    0.9111   -1.1228 C   0  0  0  0  0  0  0  0  0  0  0  0
   -5.7469    1.0662   -0.1675 C   0  0  0  0  0  0  0  0  0  0  0  0
   -6.5346    2.1589    0.1235 N   0  0  0  0  0  0  0  0  0  0  0  0
   -7.4804    1.8140    1.0510 C   0  0  0  0  0  0  0  0  0  0  0  0
   -7.2023    0.5349    1.4778 C   0  0  0  0  0  0  0  0  0  0  0  0
   -6.1101    0.0447    0.7100 C   0  0  0  0  0  0  0  0  0  0  0  0
   -5.3907   -1.1715    0.6828 C   0  0  0  0  0  0  0  0  0  0  0  0
   -1.8057    2.5159    0.0505 N   0  0  0  0  0  0  0  0  0  0  0  0
   -1.5978    3.3552   -1.1410 C   0  0  0  0  0  0  0  0  0  0  0  0
   -1.3766    4.7900   -0.6534 C   0  0  0  0  0  0  0  0  0  0  0  0
   -2.5018    5.2569    0.1187 O   0  0  0  0  0  0  0  0  0  0  0  0
   -2.7074    4.4132    1.2741 C   0  0  0  0  0  0  0  0  0  0  0  0
   -2.9572    2.9536    0.8552 C   0  0  0  0  0  0  0  0  0  0  0  0
    0.8293    2.1263   -0.0815 H   0  0  0  0  0  0  0  0  0  0  0  0
   -2.8245    0.1916    0.7350 H   0  0  0  0  0  0  0  0  0  0  0  0
    0.6681   -2.1540   -0.0761 H   0  0  0  0  0  0  0  0  0  0  0  0
   -3.8690   -3.3058    0.1319 H   0  0  0  0  0  0  0  0  0  0  0  0
   -3.2648   -0.4376   -1.8879 H   0  0  0  0  0  0  0  0  0  0  0  0
   -4.3877    1.7419   -1.7272 H   0  0  0  0  0  0  0  0  0  0  0  0
   -6.4687    3.0573   -0.3376 H   0  0  0  0  0  0  0  0  0  0  0  0
   -8.2682    2.5037    1.3233 H   0  0  0  0  0  0  0  0  0  0  0  0
   -7.7591   -0.0136    2.2254 H   0  0  0  0  0  0  0  0  0  0  0  0
   -5.5902   -1.9243    1.4393 H   0  0  0  0  0  0  0  0  0  0  0  0
   -2.4965    3.3166   -1.7741 H   0  0  0  0  0  0  0  0  0  0  0  0
   -0.7578    3.0225   -1.7588 H   0  0  0  0  0  0  0  0  0  0  0  0
   -0.4767    4.8414   -0.0302 H   0  0  0  0  0  0  0  0  0  0  0  0
   -1.2465    5.4610   -1.5063 H   0  0  0  0  0  0  0  0  0  0  0  0
   -3.5737    4.8069    1.8149 H   0  0  0  0  0  0  0  0  0  0  0  0
   -1.8307    4.4824    1.9262 H   0  0  0  0  0  0  0  0  0  0  0  0
   -3.8582    2.9702    0.2385 H   0  0  0  0  0  0  0  0  0  0  0  0
   -3.1394    2.3225    1.7299 H   0  0  0  0  0  0  0  0  0  0  0  0
  1  2  1  0  0  0  0
  2  3  2  0  0  0  0
  2  7  1  0  0  0  0
  3  4  1  0  0  0  0
  3 26  1  0  0  0  0
  4  5  2  0  0  0  0
  4 20  1  0  0  0  0
  5  6  1  0  0  0  0
  5 27  1  0  0  0  0
  6  7  2  0  0  0  0
  6  8  1  0  0  0  0
  7 28  1  0  0  0  0
  8  9  2  0  0  0  0
  8 10  1  0  0  0  0
 10 11  1  0  0  0  0
 10 29  1  0  0  0  0
 11 12  2  0  0  0  0
 11 19  1  0  0  0  0
 12 13  1  0  0  0  0
 12 30  1  0  0  0  0
 13 14  2  0  0  0  0
 13 31  1  0  0  0  0
 14 15  1  0  0  0  0
 14 18  1  0  0  0  0
 15 16  1  0  0  0  0
 15 32  1  0  0  0  0
 16 17  2  0  0  0  0
 16 33  1  0  0  0  0
 17 18  1  0  0  0  0
 17 34  1  0  0  0  0
 18 19  2  0  0  0  0
 19 35  1  0  0  0  0
 20 21  1  0  0  0  0
 20 25  1  0  0  0  0
 21 22  1  0  0  0  0
 21 36  1  0  0  0  0
 21 37  1  0  0  0  0
 22 23  1  0  0  0  0
 22 38  1  0  0  0  0
 22 39  1  0  0  0  0
 23 24  1  0  0  0  0
 24 25  1  0  0  0  0
 24 40  1  0  0  0  0
 24 41  1  0  0  0  0
 25 42  1  0  0  0  0
 25 43  1  0  0  0  0
M  END
>  <DRUGBANK_ID>
DB08092

>  <COMMON_NAME>
3-fluoro-N-1H-indol-5-yl-5-morpholin-4-ylbenzamide

$$$$
