
 OpenBabel10282417153D

 72 76  0  0  1  0  0  0  0  0999 V2000
    0.7185    0.1191    0.0135 C   0  0  0  0  0  0  0  0  0  0  0  0
    0.0271    0.8342   -1.0790 C   0  0  0  0  0  0  0  0  0  0  0  0
   -1.0572    1.6102   -0.8691 N   0  0  0  0  0  0  0  0  0  0  0  0
   -1.4321    2.0066   -2.1097 N   0  0  0  0  0  0  0  0  0  0  0  0
   -2.6281    2.8033   -2.3040 C   0  0  0  0  0  0  0  0  0  0  0  0
   -2.2519    4.1558   -2.9058 C   0  0  0  0  0  0  0  0  0  0  0  0
   -3.5893    2.0182   -3.1951 C   0  0  0  0  0  0  0  0  0  0  0  0
   -0.6438    1.5687   -3.1343 C   0  0  0  0  0  0  0  0  0  0  0  0
   -0.5818    1.7714   -4.5450 C   0  0  0  0  0  0  0  0  0  0  0  0
    0.4349    1.1787   -5.3164 C   0  0  0  0  0  0  0  0  0  0  0  0
    1.3856    0.4252   -4.7081 C   0  0  0  0  0  0  0  0  0  0  0  0
    1.2767    0.3802   -3.3406 C   0  0  0  0  0  0  0  0  0  0  0  0
    0.2753    0.7959   -2.4839 C   0  0  0  0  0  0  0  0  0  0  0  0
    0.1053   -0.4451    0.9554 O   0  0  0  0  0  0  0  0  0  0  0  0
    2.0696   -0.0012    0.0885 N   0  0  0  0  0  0  0  0  0  0  0  0
    3.1465    0.4366   -0.7735 C   0  0  2  0  0  0  0  0  0  0  0  0
    3.4029   -0.5869   -1.9433 C   0  0  0  0  0  0  0  0  0  0  0  0
    4.5549   -1.4925   -1.7773 C   0  0  2  0  0  0  0  0  0  0  0  0
    4.1701   -2.3143   -0.5582 C   0  0  0  0  0  0  0  0  0  0  0  0
    4.8614   -1.6214    0.5978 C   0  0  0  0  0  0  0  0  0  0  0  0
    5.4494   -0.3770   -0.0242 C   0  0  1  0  0  0  0  0  0  0  0  0
    5.7140   -0.6696   -1.4576 N   0  0  0  0  0  0  0  0  0  0  0  0
    5.9995    0.4611   -2.4510 C   0  0  0  0  0  0  0  0  0  0  0  0
    5.1156    1.7830   -2.7252 C   0  0  0  0  0  0  0  0  0  0  0  0
    4.8941    2.5801   -1.5370 N   0  0  0  0  0  0  0  0  0  0  0  0
    3.8564    3.5852   -1.4813 C   0  0  0  0  0  0  0  0  0  0  0  0
    4.4334    4.7385   -2.2567 C   0  0  0  0  0  0  0  0  0  0  0  0
    5.7822    5.1103   -1.7475 N   0  0  0  0  0  0  0  0  0  0  0  0
    6.0605    6.3033   -1.1376 C   0  0  0  0  0  0  0  0  0  0  0  0
    7.1178    6.5279   -0.5548 O   0  0  0  0  0  0  0  0  0  0  0  0
    4.9854    7.3322   -1.2541 C   0  0  0  0  0  0  0  0  0  0  0  0
    6.7576    4.0316   -1.5605 C   0  0  0  0  0  0  0  0  0  0  0  0
    6.1019    2.9552   -0.7715 C   0  0  0  0  0  0  0  0  0  0  0  0
    4.3544    0.6348    0.1392 C   0  0  0  0  0  0  0  0  0  0  0  0
   -3.0835    2.9556   -1.3184 H   0  0  0  0  0  0  0  0  0  0  0  0
   -1.7467    4.0594   -3.8705 H   0  0  0  0  0  0  0  0  0  0  0  0
   -3.1412    4.7633   -3.0741 H   0  0  0  0  0  0  0  0  0  0  0  0
   -1.5576    4.6965   -2.2528 H   0  0  0  0  0  0  0  0  0  0  0  0
   -3.8286    1.0470   -2.7463 H   0  0  0  0  0  0  0  0  0  0  0  0
   -4.5065    2.5786   -3.3677 H   0  0  0  0  0  0  0  0  0  0  0  0
   -3.1615    1.7986   -4.1780 H   0  0  0  0  0  0  0  0  0  0  0  0
   -1.2902    2.4013   -5.0622 H   0  0  0  0  0  0  0  0  0  0  0  0
    0.5374    1.3831   -6.3754 H   0  0  0  0  0  0  0  0  0  0  0  0
    2.3005    0.0836   -5.1825 H   0  0  0  0  0  0  0  0  0  0  0  0
    2.1834    0.6499   -2.8920 H   0  0  0  0  0  0  0  0  0  0  0  0
    2.3565   -0.4865    0.9246 H   0  0  0  0  0  0  0  0  0  0  0  0
    2.7708    1.3846   -1.1543 H   0  0  0  0  0  0  0  0  0  0  0  0
    2.5145   -1.2026   -2.1076 H   0  0  0  0  0  0  0  0  0  0  0  0
    3.6587   -0.1595   -2.9175 H   0  0  0  0  0  0  0  0  0  0  0  0
    4.6745   -2.0803   -2.6946 H   0  0  0  0  0  0  0  0  0  0  0  0
    3.0778   -2.3210   -0.4076 H   0  0  0  0  0  0  0  0  0  0  0  0
    4.4767   -3.3461   -0.6669 H   0  0  0  0  0  0  0  0  0  0  0  0
    4.1615   -1.3458    1.4005 H   0  0  0  0  0  0  0  0  0  0  0  0
    5.6310   -2.2486    1.0296 H   0  0  0  0  0  0  0  0  0  0  0  0
    6.3661   -0.0473    0.4767 H   0  0  0  0  0  0  0  0  0  0  0  0
    7.0093    0.8237   -2.2210 H   0  0  0  0  0  0  0  0  0  0  0  0
    6.1244    0.0017   -3.4438 H   0  0  0  0  0  0  0  0  0  0  0  0
    5.5760    2.3679   -3.5291 H   0  0  0  0  0  0  0  0  0  0  0  0
    4.1375    1.5681   -3.1527 H   0  0  0  0  0  0  0  0  0  0  0  0
    2.8976    3.2587   -1.9052 H   0  0  0  0  0  0  0  0  0  0  0  0
    3.6289    3.8205   -0.4250 H   0  0  0  0  0  0  0  0  0  0  0  0
    4.5568    4.4114   -3.2920 H   0  0  0  0  0  0  0  0  0  0  0  0
    3.7038    5.5452   -2.2456 H   0  0  0  0  0  0  0  0  0  0  0  0
    4.7088    7.4413   -2.3075 H   0  0  0  0  0  0  0  0  0  0  0  0
    4.1174    7.0330   -0.6583 H   0  0  0  0  0  0  0  0  0  0  0  0
    5.3717    8.2809   -0.8909 H   0  0  0  0  0  0  0  0  0  0  0  0
    7.0370    3.6290   -2.5372 H   0  0  0  0  0  0  0  0  0  0  0  0
    7.6730    4.3180   -1.0394 H   0  0  0  0  0  0  0  0  0  0  0  0
    5.8153    3.2614    0.2512 H   0  0  0  0  0  0  0  0  0  0  0  0
    6.7940    2.1180   -0.6120 H   0  0  0  0  0  0  0  0  0  0  0  0
    5.0009    1.3584   -0.1815 H   0  0  0  0  0  0  0  0  0  0  0  0
    4.1406    1.1277    1.0943 H   0  0  0  0  0  0  0  0  0  0  0  0
  1  2  1  0  0  0  0
  1 14  2  0  0  0  0
  1 15  1  0  0  0  0
  2  3  2  0  0  0  0
  2 13  1  0  0  0  0
  3  4  1  0  0  0  0
  4  5  1  0  0  0  0
  5  6  1  0  0  0  0
  5  7  1  0  0  0  0
  5 35  1  0  0  0  0
  6 36  1  0  0  0  0
  6 37  1  0  0  0  0
  6 38  1  0  0  0  0
  7 39  1  0  0  0  0
  7 40  1  0  0  0  0
  7 41  1  0  0  0  0
  8  4  1  0  0  0  0
  8  9  2  0  0  0  0
  9 10  1  0  0  0  0
  9 42  1  0  0  0  0
 10 43  1  0  0  0  0
 11 10  2  0  0  0  0
 11 44  1  0  0  0  0
 12 11  1  0  0  0  0
 12 45  1  0  0  0  0
 13 12  2  0  0  0  0
 13  8  1  0  0  0  0
 15 46  1  0  0  0  0
 16 15  1  0  0  0  0
 16 17  1  0  0  0  0
 16 34  1  0  0  0  0
 16 47  1  6  0  0  0
 17 18  1  0  0  0  0
 17 48  1  0  0  0  0
 17 49  1  0  0  0  0
 18 19  1  0  0  0  0
 18 22  1  0  0  0  0
 18 50  1  6  0  0  0
 19 51  1  0  0  0  0
 19 52  1  0  0  0  0
 20 19  1  0  0  0  0
 20 53  1  0  0  0  0
 20 54  1  0  0  0  0
 21 20  1  0  0  0  0
 21 22  1  0  0  0  0
 21 55  1  1  0  0  0
 22 23  1  0  0  0  0
 23 24  1  0  0  0  0
 23 56  1  0  0  0  0
 23 57  1  0  0  0  0
 24 25  1  0  0  0  0
 24 58  1  0  0  0  0
 24 59  1  0  0  0  0
 25 26  1  0  0  0  0
 25 33  1  0  0  0  0
 26 27  1  0  0  0  0
 26 60  1  0  0  0  0
 26 61  1  0  0  0  0
 27 28  1  0  0  0  0
 27 62  1  0  0  0  0
 27 63  1  0  0  0  0
 28 29  1  0  0  0  0
 29 30  2  0  0  0  0
 29 31  1  0  0  0  0
 31 64  1  0  0  0  0
 31 65  1  0  0  0  0
 31 66  1  0  0  0  0
 32 28  1  0  0  0  0
 32 67  1  0  0  0  0
 32 68  1  0  0  0  0
 33 32  1  0  0  0  0
 33 69  1  0  0  0  0
 33 70  1  0  0  0  0
 34 21  1  0  0  0  0
 34 71  1  0  0  0  0
 34 72  1  0  0  0  0
M  END
>  <DRUGBANK_ID>
DB05905

>  <COMMON_NAME>
TD-2749

>  <CAS_NUMBER>
863248-59-3

>  <UNII>
0ZN0AQ6SBV

$$$$
