
 OpenBabel10282417133D

 16 16  0  0  0  0  0  0  0  0999 V2000
    1.0350   -0.0062   -0.0935 O   0  0  0  0  0  0  0  0  0  0  0  0
    0.4650    0.8679    1.2612 S   0  0  0  0  0  0  0  0  0  0  0  0
    0.9752    0.2091    2.5449 O   0  0  0  0  0  0  0  0  0  0  0  0
    0.9752    2.3091    1.1900 O   0  0  0  0  0  0  0  0  0  0  0  0
   -1.3450    0.8679    1.2612 C   0  0  0  0  0  0  0  0  0  0  0  0
   -2.0687    1.4116    0.1636 C   0  0  0  0  0  0  0  0  0  0  0  0
   -3.4410    1.6746    0.3057 C   0  0  0  0  0  0  0  0  0  0  0  0
   -4.0972    1.1809    1.3142 C   0  0  0  0  0  0  0  0  0  0  0  0
   -6.1261    1.5846    1.5312 Hg  0  0  0  0  0  0  0  0  0  0  0  0
   -3.4392    0.3772    2.2547 C   0  0  0  0  0  0  0  0  0  0  0  0
   -2.0236    0.3581    2.2905 C   0  0  0  0  0  0  0  0  0  0  0  0
    2.0350   -0.0062   -0.0935 H   0  0  0  0  0  0  0  0  0  0  0  0
   -1.5722    1.6182   -0.7614 H   0  0  0  0  0  0  0  0  0  0  0  0
   -3.9468    2.2814   -0.4161 H   0  0  0  0  0  0  0  0  0  0  0  0
   -4.0029   -0.2185    2.9418 H   0  0  0  0  0  0  0  0  0  0  0  0
   -1.5066   -0.0586    3.1295 H   0  0  0  0  0  0  0  0  0  0  0  0
  1  2  1  0  0  0  0
  1 12  1  0  0  0  0
  2  3  2  0  0  0  0
  2  4  2  0  0  0  0
  2  5  1  0  0  0  0
  5  6  2  0  0  0  0
  5 11  1  0  0  0  0
  6  7  1  0  0  0  0
  6 13  1  0  0  0  0
  7  8  2  0  0  0  0
  7 14  1  0  0  0  0
  8  9  1  0  0  0  0
  8 10  1  0  0  0  0
 10 11  2  0  0  0  0
 10 15  1  0  0  0  0
 11 16  1  0  0  0  0
M  END
>  <DRUGBANK_ID>
DB02983

>  <SECONDARY_ACCESSION_NUMBERS>
EXPT02614

>  <COMMON_NAME>
Para-Mercury-Benzenesulfonic Acid

$$$$
