ICU
 OpenBabel10282417173D

 32 32  0  0  0  0  0  0  0  0999 V2000
    1.0597    0.0709    0.0202 C   0  0  0  0  0  0  0  0  0  0  0  0
    0.2818   -0.8664    0.0649 O   0  0  0  0  0  0  0  0  0  0  0  0
    0.5573    1.3198   -0.0022 O   0  0  0  0  0  0  0  0  0  0  0  0
    2.5618    0.0204    0.0338 C   0  0  0  0  0  0  0  0  0  0  0  0
    3.2857    1.2313    0.0230 C   0  0  0  0  0  0  0  0  0  0  0  0
    4.6862    1.2557    0.0388 C   0  0  0  0  0  0  0  0  0  0  0  0
    5.3787    2.4506    0.0610 N   0  0  0  0  0  0  0  0  0  0  0  0
    5.3825    0.0542    0.0464 C   0  0  0  0  0  0  0  0  0  0  0  0
    4.6937   -1.1521    0.0262 C   0  0  0  0  0  0  0  0  0  0  0  0
    3.2813   -1.1978    0.0376 C   0  0  0  0  0  0  0  0  0  0  0  0
    2.6275   -2.5753   -0.0310 C   0  0  1  0  0  0  0  0  0  0  0  0
    3.0346   -3.2761   -1.2325 O   0  0  0  0  0  0  0  0  0  0  0  0
    2.6656   -2.6855   -2.4099 C   0  0  0  0  0  0  0  0  0  0  0  0
    2.0853   -1.6143   -2.5269 O   0  0  0  0  0  0  0  0  0  0  0  0
    3.0625   -3.5166   -3.5924 C   0  0  0  0  0  0  0  0  0  0  0  0
    2.9037   -3.3757    1.2719 C   0  0  0  0  0  0  0  0  0  0  0  0
    2.0470   -3.6406    2.1097 O   0  0  0  0  0  0  0  0  0  0  0  0
    4.2194   -3.7239    1.4054 O   0  0  0  0  0  0  0  0  0  0  0  0
    4.5444   -4.4091    2.6204 C   0  0  0  0  0  0  0  0  0  0  0  0
    1.5425   -2.5458   -0.0715 H   0  0  0  0  0  0  0  0  0  0  0  0
   -0.4121    1.1595   -0.0055 H   0  0  0  0  0  0  0  0  0  0  0  0
    2.7513    2.1779   -0.0060 H   0  0  0  0  0  0  0  0  0  0  0  0
    6.3896    2.4581    0.0615 H   0  0  0  0  0  0  0  0  0  0  0  0
    4.8875    3.3327    0.0376 H   0  0  0  0  0  0  0  0  0  0  0  0
    6.4696    0.0406    0.0562 H   0  0  0  0  0  0  0  0  0  0  0  0
    5.2791   -2.0702   -0.0083 H   0  0  0  0  0  0  0  0  0  0  0  0
    4.1393   -3.6963   -3.5887 H   0  0  0  0  0  0  0  0  0  0  0  0
    2.5043   -4.4551   -3.6008 H   0  0  0  0  0  0  0  0  0  0  0  0
    2.8166   -2.9663   -4.5084 H   0  0  0  0  0  0  0  0  0  0  0  0
    4.2935   -3.8074    3.5013 H   0  0  0  0  0  0  0  0  0  0  0  0
    4.0343   -5.3757    2.6524 H   0  0  0  0  0  0  0  0  0  0  0  0
    5.6241   -4.5882    2.6298 H   0  0  0  0  0  0  0  0  0  0  0  0
  1  2  2  0  0  0  0
  1  3  1  0  0  0  0
  1  4  1  0  0  0  0
  3 21  1  0  0  0  0
  4  5  2  0  0  0  0
  4 10  1  0  0  0  0
  5  6  1  0  0  0  0
  5 22  1  0  0  0  0
  6  7  1  0  0  0  0
  6  8  2  0  0  0  0
  7 23  1  0  0  0  0
  7 24  1  0  0  0  0
  8  9  1  0  0  0  0
  8 25  1  0  0  0  0
  9 10  2  0  0  0  0
  9 26  1  0  0  0  0
 10 11  1  0  0  0  0
 11 12  1  0  0  0  0
 11 16  1  0  0  0  0
 11 20  1  6  0  0  0
 12 13  1  0  0  0  0
 13 14  2  0  0  0  0
 13 15  1  0  0  0  0
 15 27  1  0  0  0  0
 15 28  1  0  0  0  0
 15 29  1  0  0  0  0
 16 17  2  0  0  0  0
 16 18  1  0  0  0  0
 18 19  1  0  0  0  0
 19 30  1  0  0  0  0
 19 31  1  0  0  0  0
 19 32  1  0  0  0  0
M  END
>  <DRUGBANK_ID>
DB07957

>  <COMMON_NAME>
METHYL(2-ACETOXY-2-(2-CARBOXY-4-AMINO-PHENYL))ACETATE

$$$$
