
 OpenBabel10282417163D

 53 52  0  0  1  0  0  0  0  0999 V2000
   -0.1832   -1.4921    6.5558 C   0  0  0  0  0  0  0  0  0  0  0  0
    0.0356    2.9464    9.2585 C   0  0  0  0  0  0  0  0  0  0  0  0
    1.1523    5.1072    4.8981 C   0  0  0  0  0  0  0  0  0  0  0  0
    2.0095    0.3664    5.2451 C   0  0  0  0  0  0  0  0  0  0  0  0
    2.4644   -1.0462    5.4070 C   0  0  0  0  0  0  0  0  0  0  0  0
    0.4674    0.4727    5.1187 C   0  0  0  0  0  0  0  0  0  0  0  0
    2.0229   -1.7829    4.2032 C   0  0  0  0  0  0  0  0  0  0  0  0
    0.5597    0.7989    7.6405 C   0  0  0  0  0  0  0  0  0  0  0  0
    0.9475    3.0287    6.5018 C   0  0  0  0  0  0  0  0  0  0  0  0
   -0.2380    5.0100    6.8398 C   0  0  0  0  0  0  0  0  0  0  0  0
    1.8371   -1.2656    0.5762 C   0  0  0  0  0  0  0  0  0  0  0  0
    1.0888   -3.1601    1.9819 C   0  0  0  0  0  0  0  0  0  0  0  0
   -0.1620    0.0535    6.4565 C   0  0  2  0  0  0  0  0  0  0  0  0
    0.6297    2.3652    7.6827 C   0  0  0  0  0  0  0  0  0  0  0  0
    0.6365    4.4072    6.1433 C   0  0  0  0  0  0  0  0  0  0  0  0
    2.2643   -2.1893    1.7163 C   0  0  2  0  0  0  0  0  0  0  0  0
    2.6359   -1.3090    2.9117 C   0  0  2  0  0  0  0  0  0  0  0  0
   -1.1829    4.3648    7.8054 C   0  0  0  0  0  0  0  0  0  0  0  0
    2.2186   -1.4242   -0.5812 O   0  0  0  0  0  0  0  0  0  0  0  0
    0.9829   -3.7711    3.2646 O   0  0  0  0  0  0  0  0  0  0  0  0
    4.0463   -1.3132    3.1000 O   0  0  0  0  0  0  0  0  0  0  0  0
   -1.2673    5.1352    8.7382 O   0  0  0  0  0  0  0  0  0  0  0  0
   -1.6972    2.9103    7.7976 O   0  0  0  0  0  0  0  0  0  0  0  0
    1.3830    2.5849    5.6071 H   0  0  0  0  0  0  0  0  0  0  0  0
   -0.2579    6.1326    6.9228 H   0  0  0  0  0  0  0  0  0  0  0  0
   -1.2273    0.3142    6.4217 H   0  0  0  0  0  0  0  0  0  0  0  0
    3.1658   -2.7056    1.3685 H   0  0  0  0  0  0  0  0  0  0  0  0
    2.3226   -0.2733    2.7297 H   0  0  0  0  0  0  0  0  0  0  0  0
   -0.1327   -1.8362    5.5312 H   0  0  0  0  0  0  0  0  0  0  0  0
   -1.1257   -1.8827    6.9206 H   0  0  0  0  0  0  0  0  0  0  0  0
    0.5901   -2.0486    7.1049 H   0  0  0  0  0  0  0  0  0  0  0  0
    0.6992    3.7623    9.5185 H   0  0  0  0  0  0  0  0  0  0  0  0
   -1.0699    3.4137    9.5681 H   0  0  0  0  0  0  0  0  0  0  0  0
   -0.1256    2.0389    9.8369 H   0  0  0  0  0  0  0  0  0  0  0  0
    0.2952    5.5785    4.3744 H   0  0  0  0  0  0  0  0  0  0  0  0
    1.8487    5.8919    5.2029 H   0  0  0  0  0  0  0  0  0  0  0  0
    1.6235    4.4125    4.2058 H   0  0  0  0  0  0  0  0  0  0  0  0
    2.4980    0.8344    4.3961 H   0  0  0  0  0  0  0  0  0  0  0  0
    2.4196    0.8868    6.1032 H   0  0  0  0  0  0  0  0  0  0  0  0
    3.5315   -1.1760    5.5576 H   0  0  0  0  0  0  0  0  0  0  0  0
    2.0779   -1.5304    6.2921 H   0  0  0  0  0  0  0  0  0  0  0  0
    0.0744   -0.0573    4.2416 H   0  0  0  0  0  0  0  0  0  0  0  0
    0.1079    1.4705    4.8712 H   0  0  0  0  0  0  0  0  0  0  0  0
    2.3602   -2.7683    4.4931 H   0  0  0  0  0  0  0  0  0  0  0  0
    0.9402   -1.7551    4.0490 H   0  0  0  0  0  0  0  0  0  0  0  0
    0.0673    0.4311    8.5335 H   0  0  0  0  0  0  0  0  0  0  0  0
    1.5874    0.4471    7.7428 H   0  0  0  0  0  0  0  0  0  0  0  0
    1.0864   -0.4800    0.8050 H   0  0  0  0  0  0  0  0  0  0  0  0
    0.1956   -2.5528    1.8300 H   0  0  0  0  0  0  0  0  0  0  0  0
    1.0220   -4.0328    1.3403 H   0  0  0  0  0  0  0  0  0  0  0  0
    1.8521   -4.1291    3.5194 H   0  0  0  0  0  0  0  0  0  0  0  0
    4.2986   -2.2256    3.3309 H   0  0  0  0  0  0  0  0  0  0  0  0
   -1.8087    2.3127    8.6645 H   0  0  0  0  0  0  0  0  0  0  0  0
  1 29  1  0  0  0  0
  1 30  1  0  0  0  0
  1 31  1  0  0  0  0
  2 32  1  0  0  0  0
  2 33  1  0  0  0  0
  2 34  1  0  0  0  0
  3 35  1  0  0  0  0
  3 36  1  0  0  0  0
  3 37  1  0  0  0  0
  4 38  1  0  0  0  0
  4 39  1  0  0  0  0
  5  4  1  0  0  0  0
  5 40  1  0  0  0  0
  5 41  1  0  0  0  0
  6  4  1  0  0  0  0
  6 42  1  0  0  0  0
  6 43  1  0  0  0  0
  7  5  1  0  0  0  0
  7 44  1  0  0  0  0
  7 45  1  0  0  0  0
  8 46  1  0  0  0  0
  8 47  1  0  0  0  0
 11 48  1  0  0  0  0
 12 49  1  0  0  0  0
 12 50  1  0  0  0  0
 13  8  1  0  0  0  0
 13 26  1  6  0  0  0
 13  6  1  0  0  0  0
 13  1  1  0  0  0  0
 14  2  1  0  0  0  0
 14  8  1  0  0  0  0
 14  9  2  0  0  0  0
 15  3  1  0  0  0  0
 15  9  1  0  0  0  0
 15 10  2  3  0  0  0
 16 27  1  6  0  0  0
 16 12  1  0  0  0  0
 16 11  1  0  0  0  0
 17 21  1  0  0  0  0
 17 28  1  6  0  0  0
 17 16  1  0  0  0  0
 17  7  1  0  0  0  0
 18 10  1  0  0  0  0
 19 11  2  0  0  0  0
 20 12  1  0  0  0  0
 20 51  1  0  0  0  0
 21 52  1  0  0  0  0
 22 18  2  0  0  0  0
 23 18  1  0  0  0  0
 23 53  1  0  0  0  0
 24  9  1  0  0  0  0
 25 10  1  0  0  0  0
M  END
>  <DRUGBANK_ID>
DB07740

>  <COMMON_NAME>
(7R,12R,13R)-13-formyl-12,14-dihydroxy-3,5,7-trimethyltetradeca-2,4-dienoic acid

$$$$
