
 OpenBabel10282417213D

 66 64  0  0  0  0  0  0  0  0999 V2000
    1.7867   -0.6528    0.0233 C   0  0  0  0  0  0  0  0  0  0  0  0
    0.1560    2.8222    1.3463 C   0  0  0  0  0  0  0  0  0  0  0  0
   -3.5163    7.6514   -4.1117 C   0  0  0  0  0  0  0  0  0  0  0  0
   -3.7596    8.6659   -1.8662 C   0  0  0  0  0  0  0  0  0  0  0  0
    1.4559    0.6260    0.6578 C   0  0  0  0  0  0  0  0  0  0  0  0
    0.3335    4.1358    1.8458 C   0  0  0  0  0  0  0  0  0  0  0  0
    1.7927    1.8034   -0.4339 C   0  0  0  0  0  0  0  0  0  0  0  0
    1.1090    5.1672    0.9388 C   0  0  0  0  0  0  0  0  0  0  0  0
    0.8564    1.9148   -1.7449 C   0  0  0  0  0  0  0  0  0  0  0  0
    0.4770    5.3877   -0.4091 C   0  0  0  0  0  0  0  0  0  0  0  0
   -0.7667    1.9649   -1.7874 C   0  0  0  0  0  0  0  0  0  0  0  0
   -1.0477    5.5665   -0.0959 C   0  0  0  0  0  0  0  0  0  0  0  0
   -1.5517    3.2205   -1.4730 C   0  0  0  0  0  0  0  0  0  0  0  0
   -0.9953    4.2784   -2.4618 C   0  0  0  0  0  0  0  0  0  0  0  0
   -1.5239    6.9243    0.1997 C   0  0  0  0  0  0  0  0  0  0  0  0
   -1.8672    4.6039   -3.6037 C   0  0  0  0  0  0  0  0  0  0  0  0
   -1.1219    7.8598   -0.9350 C   0  0  0  0  0  0  0  0  0  0  0  0
   -3.2927    4.9321   -3.1470 C   0  0  0  0  0  0  0  0  0  0  0  0
   -1.6122    7.7176   -2.4149 C   0  0  0  0  0  0  0  0  0  0  0  0
   -3.6846    6.1441   -2.2408 C   0  0  0  0  0  0  0  0  0  0  0  0
   -3.1145    7.5135   -2.6387 N   0  3  0  0  0  0  0  0  0  0  0  0
   -1.9002   -1.2867   -0.4683 Cl  0  5  0  0  0  0  0  0  0  0  0  0
    1.3228   -0.6204   -0.9616 H   0  0  0  0  0  0  0  0  0  0  0  0
    1.3628   -1.4885    0.5882 H   0  0  0  0  0  0  0  0  0  0  0  0
    2.8687   -0.6929   -0.0323 H   0  0  0  0  0  0  0  0  0  0  0  0
    1.0814    2.4139    1.6231 H   0  0  0  0  0  0  0  0  0  0  0  0
   -0.4566    2.0047    0.7777 H   0  0  0  0  0  0  0  0  0  0  0  0
    0.0828    3.1976    0.3151 H   0  0  0  0  0  0  0  0  0  0  0  0
   -4.6114    7.5881   -4.1572 H   0  0  0  0  0  0  0  0  0  0  0  0
   -3.1551    8.5959   -4.5097 H   0  0  0  0  0  0  0  0  0  0  0  0
   -3.0853    6.8285   -4.6851 H   0  0  0  0  0  0  0  0  0  0  0  0
   -3.4742    8.6017   -0.8144 H   0  0  0  0  0  0  0  0  0  0  0  0
   -3.3652    9.5992   -2.2893 H   0  0  0  0  0  0  0  0  0  0  0  0
   -4.8418    8.6167   -1.9535 H   0  0  0  0  0  0  0  0  0  0  0  0
    0.4056    0.4742    0.9658 H   0  0  0  0  0  0  0  0  0  0  0  0
    1.9539    0.7326    1.6548 H   0  0  0  0  0  0  0  0  0  0  0  0
    0.9671    4.0338    2.7493 H   0  0  0  0  0  0  0  0  0  0  0  0
   -0.6427    4.4326    2.2020 H   0  0  0  0  0  0  0  0  0  0  0  0
    1.8748    2.8269   -0.0424 H   0  0  0  0  0  0  0  0  0  0  0  0
    2.8699    1.7378   -0.6701 H   0  0  0  0  0  0  0  0  0  0  0  0
    2.1630    4.8994    0.7657 H   0  0  0  0  0  0  0  0  0  0  0  0
    1.0648    6.1225    1.4232 H   0  0  0  0  0  0  0  0  0  0  0  0
    1.2731    2.7603   -2.3152 H   0  0  0  0  0  0  0  0  0  0  0  0
    1.1092    1.0621   -2.3725 H   0  0  0  0  0  0  0  0  0  0  0  0
    0.8040    4.5459   -1.0345 H   0  0  0  0  0  0  0  0  0  0  0  0
    0.9452    6.2064   -0.9800 H   0  0  0  0  0  0  0  0  0  0  0  0
   -1.1058    1.7791   -2.8178 H   0  0  0  0  0  0  0  0  0  0  0  0
   -1.2072    1.1999   -1.1709 H   0  0  0  0  0  0  0  0  0  0  0  0
   -1.3890    4.9175    0.6860 H   0  0  0  0  0  0  0  0  0  0  0  0
   -1.8005    5.2939   -0.8095 H   0  0  0  0  0  0  0  0  0  0  0  0
   -2.6438    3.0910   -1.5043 H   0  0  0  0  0  0  0  0  0  0  0  0
   -1.5569    3.3667   -0.3952 H   0  0  0  0  0  0  0  0  0  0  0  0
   -0.7660    5.2855   -2.1608 H   0  0  0  0  0  0  0  0  0  0  0  0
   -0.0151    3.9983   -2.8121 H   0  0  0  0  0  0  0  0  0  0  0  0
   -1.1079    7.1668    1.1765 H   0  0  0  0  0  0  0  0  0  0  0  0
   -2.6071    6.8491    0.3544 H   0  0  0  0  0  0  0  0  0  0  0  0
   -1.3802    5.4190   -4.1528 H   0  0  0  0  0  0  0  0  0  0  0  0
   -1.7901    3.7307   -4.2490 H   0  0  0  0  0  0  0  0  0  0  0  0
   -0.0331    7.8441   -1.0058 H   0  0  0  0  0  0  0  0  0  0  0  0
   -1.3451    8.8590   -0.5686 H   0  0  0  0  0  0  0  0  0  0  0  0
   -3.8823    4.9509   -4.0614 H   0  0  0  0  0  0  0  0  0  0  0  0
   -3.6983    4.0684   -2.6227 H   0  0  0  0  0  0  0  0  0  0  0  0
   -1.0580    7.0116   -3.0245 H   0  0  0  0  0  0  0  0  0  0  0  0
   -1.3711    8.6767   -2.8946 H   0  0  0  0  0  0  0  0  0  0  0  0
   -4.7762    6.2409   -2.3323 H   0  0  0  0  0  0  0  0  0  0  0  0
   -3.5595    5.9981   -1.1719 H   0  0  0  0  0  0  0  0  0  0  0  0
  1 23  1  0  0  0  0
  1 24  1  0  0  0  0
  1 25  1  0  0  0  0
  2 26  1  0  0  0  0
  2 27  1  0  0  0  0
  2 28  1  0  0  0  0
  3 29  1  0  0  0  0
  3 30  1  0  0  0  0
  3 31  1  0  0  0  0
  4 32  1  0  0  0  0
  4 33  1  0  0  0  0
  4 34  1  0  0  0  0
  5  1  1  0  0  0  0
  5 35  1  0  0  0  0
  5 36  1  0  0  0  0
  6  2  1  0  0  0  0
  6 37  1  0  0  0  0
  6 38  1  0  0  0  0
  7  5  1  0  0  0  0
  7 39  1  0  0  0  0
  7 40  1  0  0  0  0
  8  6  1  0  0  0  0
  8 41  1  0  0  0  0
  8 42  1  0  0  0  0
  9  7  1  0  0  0  0
  9 43  1  0  0  0  0
  9 44  1  0  0  0  0
 10  8  1  0  0  0  0
 10 45  1  0  0  0  0
 10 46  1  0  0  0  0
 11  9  1  0  0  0  0
 11 47  1  0  0  0  0
 11 48  1  0  0  0  0
 12 10  1  0  0  0  0
 12 49  1  0  0  0  0
 12 50  1  0  0  0  0
 13 11  1  0  0  0  0
 13 51  1  0  0  0  0
 13 52  1  0  0  0  0
 14 13  1  0  0  0  0
 14 53  1  0  0  0  0
 14 54  1  0  0  0  0
 15 12  1  0  0  0  0
 15 55  1  0  0  0  0
 15 56  1  0  0  0  0
 16 14  1  0  0  0  0
 16 57  1  0  0  0  0
 16 58  1  0  0  0  0
 17 15  1  0  0  0  0
 17 59  1  0  0  0  0
 17 60  1  0  0  0  0
 18 16  1  0  0  0  0
 18 61  1  0  0  0  0
 18 62  1  0  0  0  0
 19 17  1  0  0  0  0
 19 63  1  0  0  0  0
 19 64  1  0  0  0  0
 20 18  1  0  0  0  0
 20 65  1  0  0  0  0
 20 66  1  0  0  0  0
 21  3  1  0  0  0  0
 21  4  1  0  0  0  0
 21 19  1  0  0  0  0
 21 20  1  0  0  0  0
M  CHG  2  21   1  22  -1
M  END
>  <DRUGBANK_ID>
DB13969

>  <COMMON_NAME>
Quaternium-24

>  <CAS_NUMBER>
32426-11-2

>  <UNII>
0T2NG1539G

>  <SYNONYMS>
Ammonium, decyldimethyloctyl, chloride; Decyl dimethyl octyl ammonium chloride; Decyloctyldimethylammonium chloride; Octyl decyl dimethyl ammonium chloride

$$$$
