C8C
 OpenBabel10282417163D

 33 35  0  0  0  0  0  0  0  0999 V2000
   -2.2465    1.2368   -0.1518 N   0  0  0  0  0  0  0  0  0  0  0  0
   -1.2010    0.3952   -0.0147 C   0  0  0  0  0  0  0  0  0  0  0  0
    1.1448    0.2509    0.2832 C   0  0  0  0  0  0  0  0  0  0  0  0
    0.9253   -1.1768    0.5457 C   0  0  0  0  0  0  0  0  0  0  0  0
   -0.2659   -1.6842    0.1831 C   0  0  0  0  0  0  0  0  0  0  0  0
   -0.4378   -3.1852   -0.0427 C   0  0  0  0  0  0  0  0  0  0  0  0
    0.1801   -3.7650   -1.3540 C   0  0  0  0  0  0  0  0  0  0  0  0
    1.6747   -3.5504   -1.5078 C   0  0  0  0  0  0  0  0  0  0  0  0
    2.1347   -2.2523   -1.7605 C   0  0  0  0  0  0  0  0  0  0  0  0
    3.4628   -1.8915   -1.5475 C   0  0  0  0  0  0  0  0  0  0  0  0
    4.4021   -2.9102   -1.4059 C   0  0  0  0  0  0  0  0  0  0  0  0
    5.8159   -2.9068   -1.3562 C   0  0  0  0  0  0  0  0  0  0  0  0
    6.2219   -4.2180   -1.3933 C   0  0  0  0  0  0  0  0  0  0  0  0
    5.1036   -5.0104   -1.3219 N   0  0  0  0  0  0  0  0  0  0  0  0
    3.9662   -4.2340   -1.3477 C   0  0  0  0  0  0  0  0  0  0  0  0
    2.6044   -4.5856   -1.3292 C   0  0  0  0  0  0  0  0  0  0  0  0
   -1.3732   -0.8907   -0.0210 N   0  0  0  0  0  0  0  0  0  0  0  0
    0.0179    0.9818    0.1230 N   0  0  0  0  0  0  0  0  0  0  0  0
    2.2727    0.7284    0.1455 O   0  0  0  0  0  0  0  0  0  0  0  0
   -2.1525    2.2263    0.0197 H   0  0  0  0  0  0  0  0  0  0  0  0
   -3.1634    0.8253   -0.0265 H   0  0  0  0  0  0  0  0  0  0  0  0
    1.8014   -1.7825    0.7319 H   0  0  0  0  0  0  0  0  0  0  0  0
   -0.0283   -3.7232    0.8213 H   0  0  0  0  0  0  0  0  0  0  0  0
   -1.5118   -3.4200   -0.0585 H   0  0  0  0  0  0  0  0  0  0  0  0
   -0.0314   -4.8428   -1.3857 H   0  0  0  0  0  0  0  0  0  0  0  0
   -0.3231   -3.3353   -2.2292 H   0  0  0  0  0  0  0  0  0  0  0  0
    1.4241   -1.4573   -1.9756 H   0  0  0  0  0  0  0  0  0  0  0  0
    3.7550   -0.8457   -1.5110 H   0  0  0  0  0  0  0  0  0  0  0  0
    6.4489   -2.0301   -1.3990 H   0  0  0  0  0  0  0  0  0  0  0  0
    7.2095   -4.6473   -1.4771 H   0  0  0  0  0  0  0  0  0  0  0  0
    5.1058   -6.0199   -1.3301 H   0  0  0  0  0  0  0  0  0  0  0  0
    2.2890   -5.6176   -1.2107 H   0  0  0  0  0  0  0  0  0  0  0  0
    0.1427    1.9672   -0.0331 H   0  0  0  0  0  0  0  0  0  0  0  0
  1  2  1  0  0  0  0
  1 20  1  0  0  0  0
  1 21  1  0  0  0  0
  2 17  2  0  0  0  0
  2 18  1  0  0  0  0
  3  4  1  0  0  0  0
  3 18  1  0  0  0  0
  3 19  2  0  0  0  0
  4  5  2  0  0  0  0
  4 22  1  0  0  0  0
  5  6  1  0  0  0  0
  5 17  1  0  0  0  0
  6  7  1  0  0  0  0
  6 23  1  0  0  0  0
  6 24  1  0  0  0  0
  7  8  1  0  0  0  0
  7 25  1  0  0  0  0
  7 26  1  0  0  0  0
  8  9  1  0  0  0  0
  8 16  2  0  0  0  0
  9 10  2  0  0  0  0
  9 27  1  0  0  0  0
 10 11  1  0  0  0  0
 10 28  1  0  0  0  0
 11 12  1  0  0  0  0
 11 15  2  0  0  0  0
 12 13  2  0  0  0  0
 12 29  1  0  0  0  0
 13 14  1  0  0  0  0
 13 30  1  0  0  0  0
 14 15  1  0  0  0  0
 14 31  1  0  0  0  0
 15 16  1  0  0  0  0
 16 32  1  0  0  0  0
 18 33  1  0  0  0  0
M  END
>  <DRUGBANK_ID>
DB07535

>  <COMMON_NAME>
2-amino-6-[2-(1H-indol-6-yl)ethyl]pyrimidin-4(3H)-one

>  <UNII>
O6FBI5EK8D

$$$$
