
 OpenBabel10282417183D

 41 43  0  0  0  0  0  0  0  0999 V2000
   -0.1779    0.3848    1.1445 C   0  0  1  0  0  0  0  0  0  0  0  0
    1.1163   -1.4923    0.0093 C   0  0  2  0  0  0  0  0  0  0  0  0
    0.4020   -1.0702   -1.2714 C   0  0  0  0  0  0  0  0  0  0  0  0
   -0.1918    0.3434   -1.1668 C   0  0  1  0  0  0  0  0  0  0  0  0
   -1.0820    0.4736   -0.0081 N   0  0  0  0  0  0  0  0  0  0  0  0
    0.4326   -1.0184    1.2914 C   0  0  0  0  0  0  0  0  0  0  0  0
    0.8673    1.3930   -0.8058 C   0  0  0  0  0  0  0  0  0  0  0  0
    0.8725    1.4259    0.7320 C   0  0  0  0  0  0  0  0  0  0  0  0
   -2.2319   -0.4105    0.0023 C   0  0  0  0  0  0  0  0  0  0  0  0
   -0.6947    0.6029   -2.1039 H   0  0  0  0  0  0  0  0  0  0  0  0
   -0.6685    0.6730    2.0803 H   0  0  0  0  0  0  0  0  0  0  0  0
    2.4361   -0.9140   -0.0274 O   0  0  0  0  0  0  0  0  0  0  0  0
    3.6033   -1.5683    0.0466 C   0  0  0  0  0  0  0  0  0  0  0  0
    3.6048   -3.1011   -0.0089 C   0  0  3  0  0  0  0  0  0  0  0  0
    4.6496   -0.9161    0.1551 O   0  0  0  0  0  0  0  0  0  0  0  0
    4.2530   -3.6276   -1.2695 C   0  0  0  0  0  0  0  0  0  0  0  0
    4.2871   -3.6294    1.1289 O   0  0  0  0  0  0  0  0  0  0  0  0
    5.4950   -3.1281   -1.6869 C   0  0  0  0  0  0  0  0  0  0  0  0
    6.1287   -3.6383   -2.8108 C   0  0  0  0  0  0  0  0  0  0  0  0
    5.5483   -4.6882   -3.5119 C   0  0  0  0  0  0  0  0  0  0  0  0
    4.3255   -5.2160   -3.0983 C   0  0  0  0  0  0  0  0  0  0  0  0
    3.6551   -4.6604   -2.0080 C   0  0  0  0  0  0  0  0  0  0  0  0
    1.1321   -2.5744    0.0326 H   0  0  0  0  0  0  0  0  0  0  0  0
   -0.3931   -1.7945   -1.4813 H   0  0  0  0  0  0  0  0  0  0  0  0
    1.0970   -1.1151   -2.1194 H   0  0  0  0  0  0  0  0  0  0  0  0
   -0.3521   -1.7373    1.5540 H   0  0  0  0  0  0  0  0  0  0  0  0
    1.1506   -1.0219    2.1220 H   0  0  0  0  0  0  0  0  0  0  0  0
    1.8542    1.1637   -1.2215 H   0  0  0  0  0  0  0  0  0  0  0  0
    0.5796    2.3778   -1.1906 H   0  0  0  0  0  0  0  0  0  0  0  0
    0.5815    2.4258    1.0742 H   0  0  0  0  0  0  0  0  0  0  0  0
    1.8642    1.2206    1.1491 H   0  0  0  0  0  0  0  0  0  0  0  0
   -1.9815   -1.4749    0.0292 H   0  0  0  0  0  0  0  0  0  0  0  0
   -2.8668   -0.1956    0.8675 H   0  0  0  0  0  0  0  0  0  0  0  0
   -2.8400   -0.2359   -0.8918 H   0  0  0  0  0  0  0  0  0  0  0  0
    2.6145   -3.5310    0.0570 H   0  0  0  0  0  0  0  0  0  0  0  0
    5.2001   -3.2960    1.0743 H   0  0  0  0  0  0  0  0  0  0  0  0
    5.9897   -2.3283   -1.1407 H   0  0  0  0  0  0  0  0  0  0  0  0
    7.0840   -3.2215   -3.1152 H   0  0  0  0  0  0  0  0  0  0  0  0
    6.0552   -5.0969   -4.3803 H   0  0  0  0  0  0  0  0  0  0  0  0
    3.9038   -6.0717   -3.6191 H   0  0  0  0  0  0  0  0  0  0  0  0
    2.6778   -5.0550   -1.7343 H   0  0  0  0  0  0  0  0  0  0  0  0
  1 11  1  1  0  0  0
  1  6  1  0  0  0  0
  1  8  1  0  0  0  0
  2  3  1  0  0  0  0
  2 23  1  1  0  0  0
  2 12  1  0  0  0  0
  3  4  1  0  0  0  0
  3 24  1  0  0  0  0
  3 25  1  0  0  0  0
  4 10  1  6  0  0  0
  4  5  1  0  0  0  0
  4  7  1  0  0  0  0
  5  1  1  0  0  0  0
  5  9  1  0  0  0  0
  6  2  1  0  0  0  0
  6 26  1  0  0  0  0
  6 27  1  0  0  0  0
  7  8  1  0  0  0  0
  7 28  1  0  0  0  0
  7 29  1  0  0  0  0
  8 30  1  0  0  0  0
  8 31  1  0  0  0  0
  9 32  1  0  0  0  0
  9 33  1  0  0  0  0
  9 34  1  0  0  0  0
 12 13  1  0  0  0  0
 13 14  1  0  0  0  0
 13 15  2  0  0  0  0
 14 16  1  0  0  0  0
 14 17  1  0  0  0  0
 14 35  1  0  0  0  0
 16 18  1  0  0  0  0
 16 22  2  0  0  0  0
 17 36  1  0  0  0  0
 18 19  2  0  0  0  0
 18 37  1  0  0  0  0
 19 20  1  0  0  0  0
 19 38  1  0  0  0  0
 20 21  2  0  0  0  0
 20 39  1  0  0  0  0
 21 22  1  0  0  0  0
 21 40  1  0  0  0  0
 22 41  1  0  0  0  0
M  END
>  <DRUGBANK_ID>
DB11181

>  <COMMON_NAME>
Homatropine

>  <CAS_NUMBER>
87-00-3

>  <UNII>
8QS6WCL55Z

>  <SYNONYMS>
Homatropina; Omatropina

$$$$
