
 OpenBabel10282417173D

 49 49  0  0  0  0  0  0  0  0999 V2000
    0.9999   -0.0260   -0.0299 C   0  0  0  0  0  0  0  0  0  0  0  0
    0.4840    0.7280   -1.2398 C   0  0  0  0  0  0  0  0  0  0  0  0
    0.9995    0.2151   -2.5689 C   0  0  0  0  0  0  0  0  0  0  0  0
   -1.0280    0.6974   -1.2373 C   0  0  0  0  0  0  0  0  0  0  0  0
   -1.8039    1.7754   -1.1692 C   0  0  0  0  0  0  0  0  0  0  0  0
   -1.2366    3.1229   -1.1221 C   0  0  0  0  0  0  0  0  0  0  0  0
   -1.6823    3.9522   -2.3218 C   0  0  0  0  0  0  0  0  0  0  0  0
   -3.0448    4.5547   -2.1461 C   0  0  0  0  0  0  0  0  0  0  0  0
   -3.1423    5.3590   -0.8365 C   0  0  0  0  0  0  0  0  0  0  0  0
   -2.3496    6.6949   -0.7055 C   0  0  0  0  0  0  0  0  0  0  0  0
   -2.9828    7.7366   -0.6250 O   0  0  0  0  0  0  0  0  0  0  0  0
   -0.9734    6.8057   -0.6215 N   0  0  0  0  0  0  0  0  0  0  0  0
    0.0906    5.8130   -0.6278 C   0  0  0  0  0  0  0  0  0  0  0  0
    0.8918    5.6605   -1.9277 C   0  0  0  0  0  0  0  0  0  0  0  0
    0.5238    6.3668   -3.0829 C   0  0  0  0  0  0  0  0  0  0  0  0
    1.1097    6.0962   -4.3188 C   0  0  0  0  0  0  0  0  0  0  0  0
    2.1127    5.1399   -4.4536 C   0  0  0  0  0  0  0  0  0  0  0  0
    2.4957    4.3792   -3.3439 C   0  0  0  0  0  0  0  0  0  0  0  0
    1.8554    4.6339   -2.0989 C   0  0  0  0  0  0  0  0  0  0  0  0
    3.4121    3.3601   -3.2703 O   0  0  0  0  0  0  0  0  0  0  0  0
    4.2725    3.1429   -4.3755 C   0  0  0  0  0  0  0  0  0  0  0  0
    2.5717    5.0785   -5.7378 O   0  0  0  0  0  0  0  0  0  0  0  0
    0.6661   -1.0652   -0.0439 H   0  0  0  0  0  0  0  0  0  0  0  0
    0.6368    0.4444    0.8939 H   0  0  0  0  0  0  0  0  0  0  0  0
    2.0928    0.0020   -0.0044 H   0  0  0  0  0  0  0  0  0  0  0  0
    0.9220    1.7213   -1.1383 H   0  0  0  0  0  0  0  0  0  0  0  0
    0.6661   -0.8089   -2.7481 H   0  0  0  0  0  0  0  0  0  0  0  0
    0.6363    0.8495   -3.3885 H   0  0  0  0  0  0  0  0  0  0  0  0
    2.0924    0.2471   -2.5883 H   0  0  0  0  0  0  0  0  0  0  0  0
   -1.5277   -0.2641   -1.2891 H   0  0  0  0  0  0  0  0  0  0  0  0
   -2.8873    1.7182   -1.1229 H   0  0  0  0  0  0  0  0  0  0  0  0
   -1.5098    3.4895   -0.1264 H   0  0  0  0  0  0  0  0  0  0  0  0
   -0.1512    3.1380   -1.1028 H   0  0  0  0  0  0  0  0  0  0  0  0
   -1.1074    4.8414   -2.4551 H   0  0  0  0  0  0  0  0  0  0  0  0
   -1.4901    3.4327   -3.2658 H   0  0  0  0  0  0  0  0  0  0  0  0
   -3.2453    5.2151   -2.9973 H   0  0  0  0  0  0  0  0  0  0  0  0
   -3.7769    3.7414   -2.1838 H   0  0  0  0  0  0  0  0  0  0  0  0
   -4.2057    5.6240   -0.7511 H   0  0  0  0  0  0  0  0  0  0  0  0
   -2.9695    4.7454    0.0518 H   0  0  0  0  0  0  0  0  0  0  0  0
   -0.6678    7.7661   -0.5353 H   0  0  0  0  0  0  0  0  0  0  0  0
    0.7129    5.8172    0.2717 H   0  0  0  0  0  0  0  0  0  0  0  0
   -0.4844    4.9486   -0.4504 H   0  0  0  0  0  0  0  0  0  0  0  0
   -0.3226    7.0495   -3.0704 H   0  0  0  0  0  0  0  0  0  0  0  0
    0.7618    6.6234   -5.2044 H   0  0  0  0  0  0  0  0  0  0  0  0
    2.0816    3.9611   -1.2693 H   0  0  0  0  0  0  0  0  0  0  0  0
    3.7060    2.7379   -5.2210 H   0  0  0  0  0  0  0  0  0  0  0  0
    4.8135    4.0608   -4.6335 H   0  0  0  0  0  0  0  0  0  0  0  0
    5.0260    2.3952   -4.1142 H   0  0  0  0  0  0  0  0  0  0  0  0
    3.3495    4.5249   -5.8367 H   0  0  0  0  0  0  0  0  0  0  0  0
  1  2  1  0  0  0  0
  1 23  1  0  0  0  0
  1 24  1  0  0  0  0
  1 25  1  0  0  0  0
  2  3  1  0  0  0  0
  2  4  1  0  0  0  0
  2 26  1  0  0  0  0
  3 27  1  0  0  0  0
  3 28  1  0  0  0  0
  3 29  1  0  0  0  0
  4  5  2  0  0  0  0
  4 30  1  0  0  0  0
  5  6  1  0  0  0  0
  5 31  1  0  0  0  0
  6  7  1  0  0  0  0
  6 32  1  0  0  0  0
  6 33  1  0  0  0  0
  7  8  1  0  0  0  0
  7 34  1  0  0  0  0
  7 35  1  0  0  0  0
  8  9  1  0  0  0  0
  8 36  1  0  0  0  0
  8 37  1  0  0  0  0
  9 10  1  0  0  0  0
  9 38  1  0  0  0  0
  9 39  1  0  0  0  0
 10 11  2  0  0  0  0
 10 12  1  0  0  0  0
 12 13  1  0  0  0  0
 12 40  1  0  0  0  0
 13 14  1  0  0  0  0
 13 41  1  0  0  0  0
 13 42  1  0  0  0  0
 14 15  1  0  0  0  0
 14 19  2  0  0  0  0
 15 16  2  0  0  0  0
 15 43  1  0  0  0  0
 16 17  1  0  0  0  0
 16 44  1  0  0  0  0
 17 18  2  0  0  0  0
 17 22  1  0  0  0  0
 18 19  1  0  0  0  0
 18 20  1  0  0  0  0
 19 45  1  0  0  0  0
 20 21  1  0  0  0  0
 21 46  1  0  0  0  0
 21 47  1  0  0  0  0
 21 48  1  0  0  0  0
 22 49  1  0  0  0  0
M  END
>  <DRUGBANK_ID>
DB09120

>  <COMMON_NAME>
Zucapsaicin

>  <CAS_NUMBER>
25775-90-0

>  <UNII>
15OX67P384

>  <SYNONYMS>
(Z)-Capsaicin; cis-Capsaicin; Civamide; Zucapsaicin

$$$$
