
 OpenBabel10282417153D

 88 90  0  0  1  0  0  0  0  0999 V2000
   -2.5100   -7.8471   -1.1420 C   0  0  0  0  0  0  0  0  0  0  0  0
   -1.6231   -7.0203   -0.2783 C   0  0  0  0  0  0  0  0  0  0  0  0
   -0.2406   -7.5547   -0.5228 C   0  0  0  0  0  0  0  0  0  0  0  0
   -1.7635   -5.5884   -0.6938 C   0  0  0  0  0  0  0  0  0  0  0  0
   -3.1517   -4.9625   -0.5419 N   0  0  0  0  0  0  0  0  0  0  0  0
   -2.8060   -3.4742   -0.7277 C   0  0  1  0  0  0  0  0  0  0  0  0
   -2.3379   -3.0626   -2.1562 C   0  0  0  0  0  0  0  0  0  0  0  0
   -3.1845   -3.6311   -3.2843 C   0  0  0  0  0  0  0  0  0  0  0  0
   -4.6143   -3.1818   -3.2914 C   0  0  0  0  0  0  0  0  0  0  0  0
   -4.6666   -1.7349   -3.4294 C   0  0  0  0  0  0  0  0  0  0  0  0
   -4.4540   -1.2886   -4.7359 N   0  0  0  0  0  0  0  0  0  0  0  0
   -5.3828   -0.6369   -5.4724 C   0  0  0  0  0  0  0  0  0  0  0  0
   -5.1142   -0.4576   -6.6615 O   0  0  0  0  0  0  0  0  0  0  0  0
   -6.6727   -0.0672   -4.7998 C   0  0  2  0  0  0  0  0  0  0  0  0
   -6.3918    1.2090   -3.8488 C   0  0  0  0  0  0  0  0  0  0  0  0
   -7.6252    2.0674   -4.0825 C   0  0  0  0  0  0  0  0  0  0  0  0
   -7.6986    2.8795   -5.2054 C   0  0  0  0  0  0  0  0  0  0  0  0
   -8.8418    3.6441   -5.3954 C   0  0  0  0  0  0  0  0  0  0  0  0
   -9.8581    3.6730   -4.4320 C   0  0  0  0  0  0  0  0  0  0  0  0
   -9.8051    2.8438   -3.3302 C   0  0  0  0  0  0  0  0  0  0  0  0
   -8.7432    1.9793   -3.2250 C   0  0  0  0  0  0  0  0  0  0  0  0
   -6.1227    1.1058   -2.3275 C   0  0  0  0  0  0  0  0  0  0  0  0
   -6.7822    1.7804   -1.3001 C   0  0  0  0  0  0  0  0  0  0  0  0
   -6.9008    1.2820    0.0098 C   0  0  0  0  0  0  0  0  0  0  0  0
   -6.1908    0.1806    0.3551 C   0  0  0  0  0  0  0  0  0  0  0  0
   -5.3819   -0.2743   -0.6426 C   0  0  0  0  0  0  0  0  0  0  0  0
   -5.0930    0.4279   -1.8052 C   0  0  0  0  0  0  0  0  0  0  0  0
   -7.5770   -1.0761   -4.2039 N   0  0  0  0  0  0  0  0  0  0  0  0
   -8.8320   -1.4131   -4.5709 C   0  0  0  0  0  0  0  0  0  0  0  0
   -9.4811   -2.2572   -3.9182 O   0  0  0  0  0  0  0  0  0  0  0  0
   -9.3181   -0.7796   -5.6455 O   0  0  0  0  0  0  0  0  0  0  0  0
  -10.6568   -1.1725   -5.9482 C   0  0  0  0  0  0  0  0  0  0  0  0
   -3.8556   -2.6403   -0.0951 C   0  0  0  0  0  0  0  0  0  0  0  0
   -4.0531   -2.8121    1.2932 O   0  0  0  0  0  0  0  0  0  0  0  0
   -4.7110   -5.8166   -1.3509 S   0  0  0  0  0  0  0  0  0  0  0  0
   -4.5770   -5.9460   -2.7844 O   0  0  0  0  0  0  0  0  0  0  0  0
   -5.1227   -6.9937   -0.6070 O   0  0  0  0  0  0  0  0  0  0  0  0
   -6.1316   -4.8660   -0.9824 C   0  0  0  0  0  0  0  0  0  0  0  0
   -6.4935   -4.8663    0.3573 C   0  0  0  0  0  0  0  0  0  0  0  0
   -7.6668   -4.2531    0.7372 C   0  0  0  0  0  0  0  0  0  0  0  0
   -8.4188   -3.5646   -0.2032 C   0  0  0  0  0  0  0  0  0  0  0  0
   -7.9526   -3.4680   -1.5011 C   0  0  0  0  0  0  0  0  0  0  0  0
   -6.9604   -4.3098   -1.9440 C   0  0  0  0  0  0  0  0  0  0  0  0
   -9.5549   -2.8414    0.1564 N   0  0  0  0  0  0  0  0  0  0  0  0
   -2.5036   -7.5477   -2.1974 H   0  0  0  0  0  0  0  0  0  0  0  0
   -3.4081   -7.6063   -0.6712 H   0  0  0  0  0  0  0  0  0  0  0  0
   -2.5349   -8.9193   -1.0057 H   0  0  0  0  0  0  0  0  0  0  0  0
   -1.9096   -7.0985    0.7785 H   0  0  0  0  0  0  0  0  0  0  0  0
    0.0217   -7.4293   -1.5798 H   0  0  0  0  0  0  0  0  0  0  0  0
    0.5008   -7.0548    0.0982 H   0  0  0  0  0  0  0  0  0  0  0  0
   -0.2529   -8.6247   -0.2975 H   0  0  0  0  0  0  0  0  0  0  0  0
   -1.0611   -5.0131   -0.0559 H   0  0  0  0  0  0  0  0  0  0  0  0
   -1.4016   -5.4339   -1.7147 H   0  0  0  0  0  0  0  0  0  0  0  0
   -1.9428   -3.2179   -0.0844 H   0  0  0  0  0  0  0  0  0  0  0  0
   -2.1815   -1.9772   -2.2347 H   0  0  0  0  0  0  0  0  0  0  0  0
   -1.3325   -3.4534   -2.3371 H   0  0  0  0  0  0  0  0  0  0  0  0
   -2.7879   -3.4659   -4.2820 H   0  0  0  0  0  0  0  0  0  0  0  0
   -3.0753   -4.6875   -3.1479 H   0  0  0  0  0  0  0  0  0  0  0  0
   -5.2588   -3.6573   -4.0303 H   0  0  0  0  0  0  0  0  0  0  0  0
   -5.0341   -3.2902   -2.3160 H   0  0  0  0  0  0  0  0  0  0  0  0
   -5.6186   -1.4309   -3.0412 H   0  0  0  0  0  0  0  0  0  0  0  0
   -3.8748   -1.3563   -2.8105 H   0  0  0  0  0  0  0  0  0  0  0  0
   -3.6380   -1.6305   -5.2281 H   0  0  0  0  0  0  0  0  0  0  0  0
   -7.2035    0.2825   -5.6970 H   0  0  0  0  0  0  0  0  0  0  0  0
   -5.4989    1.7074   -4.2569 H   0  0  0  0  0  0  0  0  0  0  0  0
   -6.9015    2.8740   -5.9472 H   0  0  0  0  0  0  0  0  0  0  0  0
   -8.9483    4.2153   -6.3093 H   0  0  0  0  0  0  0  0  0  0  0  0
  -10.7195    4.3159   -4.5561 H   0  0  0  0  0  0  0  0  0  0  0  0
  -10.5723    2.8260   -2.5634 H   0  0  0  0  0  0  0  0  0  0  0  0
   -8.7722    1.2873   -2.3845 H   0  0  0  0  0  0  0  0  0  0  0  0
   -7.2808    2.7100   -1.5204 H   0  0  0  0  0  0  0  0  0  0  0  0
   -7.6212    1.6981    0.6961 H   0  0  0  0  0  0  0  0  0  0  0  0
   -6.2598   -0.3589    1.2940 H   0  0  0  0  0  0  0  0  0  0  0  0
   -5.4399   -1.3424   -0.6974 H   0  0  0  0  0  0  0  0  0  0  0  0
   -4.2321    0.2772   -2.4296 H   0  0  0  0  0  0  0  0  0  0  0  0
   -7.3252   -1.5063   -3.3338 H   0  0  0  0  0  0  0  0  0  0  0  0
  -10.6984   -2.2431   -6.1819 H   0  0  0  0  0  0  0  0  0  0  0  0
  -11.3320   -0.9431   -5.1140 H   0  0  0  0  0  0  0  0  0  0  0  0
  -10.9810   -0.6103   -6.8234 H   0  0  0  0  0  0  0  0  0  0  0  0
   -3.5620   -1.6083   -0.2739 H   0  0  0  0  0  0  0  0  0  0  0  0
   -4.7861   -2.9289   -0.5395 H   0  0  0  0  0  0  0  0  0  0  0  0
   -4.4649   -3.6872    1.3926 H   0  0  0  0  0  0  0  0  0  0  0  0
   -5.8858   -5.4119    1.0753 H   0  0  0  0  0  0  0  0  0  0  0  0
   -7.9831   -4.3373    1.7665 H   0  0  0  0  0  0  0  0  0  0  0  0
   -8.4294   -2.7804   -2.1716 H   0  0  0  0  0  0  0  0  0  0  0  0
   -6.8012   -4.4316   -3.0109 H   0  0  0  0  0  0  0  0  0  0  0  0
  -10.1477   -2.6568   -0.6540 H   0  0  0  0  0  0  0  0  0  0  0  0
  -10.0760   -3.3097    0.8907 H   0  0  0  0  0  0  0  0  0  0  0  0
  1  2  1  0  0  0  0
  1 45  1  0  0  0  0
  1 46  1  0  0  0  0
  1 47  1  0  0  0  0
  2  3  1  0  0  0  0
  2  4  1  0  0  0  0
  2 48  1  0  0  0  0
  3 49  1  0  0  0  0
  3 50  1  0  0  0  0
  3 51  1  0  0  0  0
  4  5  1  0  0  0  0
  4 52  1  0  0  0  0
  4 53  1  0  0  0  0
  5 35  1  0  0  0  0
  6  5  1  0  0  0  0
  6  7  1  0  0  0  0
  6 33  1  0  0  0  0
  6 54  1  1  0  0  0
  7  8  1  0  0  0  0
  7 55  1  0  0  0  0
  7 56  1  0  0  0  0
  8  9  1  0  0  0  0
  8 57  1  0  0  0  0
  8 58  1  0  0  0  0
  9 10  1  0  0  0  0
  9 59  1  0  0  0  0
  9 60  1  0  0  0  0
 10 11  1  0  0  0  0
 10 61  1  0  0  0  0
 10 62  1  0  0  0  0
 11 12  1  0  0  0  0
 11 63  1  0  0  0  0
 12 13  2  0  0  0  0
 14 28  1  0  0  0  0
 14 64  1  6  0  0  0
 14 15  1  0  0  0  0
 14 12  1  0  0  0  0
 15 16  1  0  0  0  0
 15 22  1  0  0  0  0
 15 65  1  0  0  0  0
 16 17  2  0  0  0  0
 16 21  1  0  0  0  0
 17 18  1  0  0  0  0
 17 66  1  0  0  0  0
 18 19  2  0  0  0  0
 18 67  1  0  0  0  0
 19 20  1  0  0  0  0
 19 68  1  0  0  0  0
 20 21  2  0  0  0  0
 20 69  1  0  0  0  0
 21 70  1  0  0  0  0
 22 23  2  0  0  0  0
 22 27  1  0  0  0  0
 23 24  1  0  0  0  0
 23 71  1  0  0  0  0
 24 25  2  0  0  0  0
 24 72  1  0  0  0  0
 25 26  1  0  0  0  0
 25 73  1  0  0  0  0
 26 27  2  0  0  0  0
 26 74  1  0  0  0  0
 27 75  1  0  0  0  0
 28 29  1  0  0  0  0
 28 76  1  0  0  0  0
 29 30  2  0  0  0  0
 29 31  1  0  0  0  0
 31 32  1  0  0  0  0
 32 77  1  0  0  0  0
 32 78  1  0  0  0  0
 32 79  1  0  0  0  0
 33 34  1  0  0  0  0
 33 80  1  0  0  0  0
 33 81  1  0  0  0  0
 34 82  1  0  0  0  0
 35 36  2  0  0  0  0
 35 37  2  0  0  0  0
 35 38  1  0  0  0  0
 38 39  2  0  0  0  0
 38 43  1  0  0  0  0
 39 40  1  0  0  0  0
 39 83  1  0  0  0  0
 40 41  2  0  0  0  0
 40 84  1  0  0  0  0
 41 42  1  0  0  0  0
 41 44  1  0  0  0  0
 42 43  2  0  0  0  0
 42 85  1  0  0  0  0
 43 86  1  0  0  0  0
 44 87  1  0  0  0  0
 44 88  1  0  0  0  0
M  END
>  <DRUGBANK_ID>
DB05961

>  <COMMON_NAME>
PPL-100

>  <CAS_NUMBER>
612547-11-2

>  <UNII>
JRI5GOF0K0

$$$$
