
 OpenBabel10282417143D

 30 29  0  0  1  0  0  0  0  0999 V2000
    1.0185    1.6961   -2.1604 C   0  0  0  0  0  0  0  0  0  0  0  0
    2.4690    1.2990   -2.4947 C   0  0  0  0  0  0  0  0  0  0  0  0
    2.1065    1.3084    1.8884 C   0  0  0  0  0  0  0  0  0  0  0  0
    0.4903    1.2761   -0.7854 C   0  0  2  0  0  0  0  0  0  0  0  0
    2.4214    0.5566    0.5825 C   0  0  2  0  0  0  0  0  0  0  0  0
    1.2080    0.0351   -0.2101 C   0  0  1  0  0  0  0  0  0  0  0  0
    3.4816    2.0706   -1.8615 O   0  0  0  0  0  0  0  0  0  0  0  0
   -0.9378    1.2044   -0.7275 O   0  0  0  0  0  0  0  0  0  0  0  0
    3.3709   -0.4862    0.7580 O   0  0  0  0  0  0  0  0  0  0  0  0
    0.3905   -0.7649    0.6162 O   0  0  0  0  0  0  0  0  0  0  0  0
   -0.3716    0.9739    4.4583 O   0  0  0  0  0  0  0  0  0  0  0  0
   -0.6772    1.5705    2.0554 O   0  0  0  0  0  0  0  0  0  0  0  0
   -0.7406   -0.9350    2.8445 O   0  0  0  0  0  0  0  0  0  0  0  0
    1.4853    0.4624    2.8475 O   0  0  0  0  0  0  0  0  0  0  0  0
   -0.1110    0.4332    2.9913 P   0  0  0  0  0  0  0  0  0  0  0  0
    0.6933    2.1394   -0.1500 H   0  0  0  0  0  0  0  0  0  0  0  0
    2.9240    1.3018   -0.0065 H   0  0  0  0  0  0  0  0  0  0  0  0
    1.4600   -0.6586   -1.0163 H   0  0  0  0  0  0  0  0  0  0  0  0
    0.3511    1.2770   -2.9183 H   0  0  0  0  0  0  0  0  0  0  0  0
    0.9238    2.7880   -2.2154 H   0  0  0  0  0  0  0  0  0  0  0  0
    2.6704    0.2477   -2.2678 H   0  0  0  0  0  0  0  0  0  0  0  0
    2.6335    1.4048   -3.5637 H   0  0  0  0  0  0  0  0  0  0  0  0
    3.0556    1.6671    2.2994 H   0  0  0  0  0  0  0  0  0  0  0  0
    1.5228    2.2183    1.7074 H   0  0  0  0  0  0  0  0  0  0  0  0
    3.1193    2.8653   -1.4400 H   0  0  0  0  0  0  0  0  0  0  0  0
   -1.2549    0.3430   -1.0575 H   0  0  0  0  0  0  0  0  0  0  0  0
    3.1464   -0.9917    1.5532 H   0  0  0  0  0  0  0  0  0  0  0  0
    0.9638   -1.1979    1.2866 H   0  0  0  0  0  0  0  0  0  0  0  0
   -0.4326    0.2002    5.0476 H   0  0  0  0  0  0  0  0  0  0  0  0
   -0.7154    1.2639    1.1209 H   0  0  0  0  0  0  0  0  0  0  0  0
  1 19  1  0  0  0  0
  1 20  1  0  0  0  0
  2  1  1  0  0  0  0
  2 21  1  0  0  0  0
  2 22  1  0  0  0  0
  3 23  1  0  0  0  0
  3 24  1  0  0  0  0
  4  8  1  0  0  0  0
  4 16  1  1  0  0  0
  4  6  1  0  0  0  0
  4  1  1  0  0  0  0
  5  3  1  0  0  0  0
  5  9  1  0  0  0  0
  5 17  1  6  0  0  0
  6  5  1  0  0  0  0
  6 10  1  0  0  0  0
  6 18  1  6  0  0  0
  7  2  1  0  0  0  0
  7 25  1  0  0  0  0
  8 26  1  0  0  0  0
  9 27  1  0  0  0  0
 10 28  1  0  0  0  0
 11 29  1  0  0  0  0
 12 30  1  0  0  0  0
 14  3  1  0  0  0  0
 15 11  1  0  0  0  0
 15 12  1  0  0  0  0
 15 13  2  0  0  0  0
 15 14  1  0  0  0  0
M  END
>  <DRUGBANK_ID>
DB04516

>  <SECONDARY_ACCESSION_NUMBERS>
EXPT01174

>  <COMMON_NAME>
2-Deoxy-Glucitol-6-Phosphate

$$$$
