
 OpenBabel10282417133D

 45 45  0  0  0  0  0  0  0  0999 V2000
    3.1633    1.2587    0.6942 O   0  0  0  0  0  0  0  0  0  0  0  0
    2.9050    2.3370   -0.3108 C   0  0  0  0  0  0  0  0  0  0  0  0
    3.4649    2.2090   -1.8432 C   0  0  0  0  0  0  0  0  0  0  0  0
    3.0737    1.1004   -2.9406 C   0  0  0  0  0  0  0  0  0  0  0  0
    1.5473    0.7621   -3.3565 C   0  0  0  0  0  0  0  0  0  0  0  0
    1.0236    1.8732   -4.1823 C   0  0  0  0  0  0  0  0  0  0  0  0
    1.7026    1.6843   -5.5112 C   0  0  0  0  0  0  0  0  0  0  0  0
    1.4777    0.2615   -6.0450 C   0  0  0  0  0  0  0  0  0  0  0  0
    2.4435   -0.0494    0.5930 C   0  0  2  0  0  0  0  0  0  0  0  0
    3.0418   -1.1953    1.1750 O   0  0  0  0  0  0  0  0  0  0  0  0
    2.4202   -2.4177    0.6324 C   0  0  2  0  0  0  0  0  0  0  0  0
    2.8781   -3.5338    1.5195 C   0  0  0  0  0  0  0  0  0  0  0  0
    2.4598   -3.2026    2.8358 O   0  0  0  0  0  0  0  0  0  0  0  0
    2.8606   -2.7280   -0.7927 C   0  0  2  0  0  0  0  0  0  0  0  0
    2.2789   -1.6397   -1.6240 C   0  0  1  0  0  0  0  0  0  0  0  0
    2.4173   -0.3129   -0.8589 C   0  0  1  0  0  0  0  0  0  0  0  0
    1.2224    0.4225   -1.0063 O   0  0  0  0  0  0  0  0  0  0  0  0
    2.8799   -1.7575   -2.9421 O   0  0  0  0  0  0  0  0  0  0  0  0
    2.3826   -3.9819   -1.2848 O   0  0  0  0  0  0  0  0  0  0  0  0
    1.8472    2.6501   -0.2940 H   0  0  0  0  0  0  0  0  0  0  0  0
    3.3940    3.2324    0.1030 H   0  0  0  0  0  0  0  0  0  0  0  0
    3.3016    3.1695   -2.3481 H   0  0  0  0  0  0  0  0  0  0  0  0
    4.5566    2.1187   -1.7257 H   0  0  0  0  0  0  0  0  0  0  0  0
    3.6448    1.3147   -3.8482 H   0  0  0  0  0  0  0  0  0  0  0  0
    3.6725    0.2124   -2.7407 H   0  0  0  0  0  0  0  0  0  0  0  0
    1.4546   -0.2480   -3.7623 H   0  0  0  0  0  0  0  0  0  0  0  0
    0.6661    0.6193   -2.7281 H   0  0  0  0  0  0  0  0  0  0  0  0
   -0.0726    1.8198   -4.2493 H   0  0  0  0  0  0  0  0  0  0  0  0
    1.2528    2.8040   -3.6508 H   0  0  0  0  0  0  0  0  0  0  0  0
    1.3455    2.4491   -6.1905 H   0  0  0  0  0  0  0  0  0  0  0  0
    2.7753    1.8538   -5.4035 H   0  0  0  0  0  0  0  0  0  0  0  0
    0.4051    0.0449   -6.0825 H   0  0  0  0  0  0  0  0  0  0  0  0
    1.9489    0.1362   -7.0124 H   0  0  0  0  0  0  0  0  0  0  0  0
    1.9380   -0.5369   -5.4449 H   0  0  0  0  0  0  0  0  0  0  0  0
    1.4393    0.0867    1.0321 H   0  0  0  0  0  0  0  0  0  0  0  0
    1.3209   -2.3235    0.6690 H   0  0  0  0  0  0  0  0  0  0  0  0
    2.4535   -4.4910    1.2088 H   0  0  0  0  0  0  0  0  0  0  0  0
    3.9705   -3.5786    1.4961 H   0  0  0  0  0  0  0  0  0  0  0  0
    2.7067   -2.2583    2.9337 H   0  0  0  0  0  0  0  0  0  0  0  0
    3.9545   -2.7294   -0.8910 H   0  0  0  0  0  0  0  0  0  0  0  0
    1.2191   -1.7876   -1.8415 H   0  0  0  0  0  0  0  0  0  0  0  0
    3.4411    0.0296   -1.0557 H   0  0  0  0  0  0  0  0  0  0  0  0
    1.4259    1.3265   -1.3564 H   0  0  0  0  0  0  0  0  0  0  0  0
    3.8531   -1.8048   -2.9022 H   0  0  0  0  0  0  0  0  0  0  0  0
    1.4745   -3.8598   -1.6229 H   0  0  0  0  0  0  0  0  0  0  0  0
  1  2  1  0  0  0  0
  2  3  1  0  0  0  0
  2 20  1  0  0  0  0
  2 21  1  0  0  0  0
  3  4  1  0  0  0  0
  3 22  1  0  0  0  0
  3 23  1  0  0  0  0
  4  5  1  0  0  0  0
  4 24  1  0  0  0  0
  4 25  1  0  0  0  0
  5  6  1  0  0  0  0
  5 26  1  0  0  0  0
  5 27  1  0  0  0  0
  6  7  1  0  0  0  0
  6 28  1  0  0  0  0
  6 29  1  0  0  0  0
  7  8  1  0  0  0  0
  7 30  1  0  0  0  0
  7 31  1  0  0  0  0
  8 32  1  0  0  0  0
  8 33  1  0  0  0  0
  8 34  1  0  0  0  0
  9 10  1  0  0  0  0
  9 16  1  0  0  0  0
  9 35  1  1  0  0  0
  9  1  1  0  0  0  0
 10 11  1  0  0  0  0
 11 12  1  0  0  0  0
 11 14  1  0  0  0  0
 11 36  1  1  0  0  0
 12 13  1  0  0  0  0
 12 37  1  0  0  0  0
 12 38  1  0  0  0  0
 13 39  1  0  0  0  0
 14 19  1  0  0  0  0
 14 40  1  6  0  0  0
 15 14  1  0  0  0  0
 15 18  1  0  0  0  0
 15 41  1  6  0  0  0
 16 15  1  0  0  0  0
 16 17  1  0  0  0  0
 16 42  1  6  0  0  0
 17 43  1  0  0  0  0
 18 44  1  0  0  0  0
 19 45  1  0  0  0  0
M  END
>  <DRUGBANK_ID>
DB03338

>  <SECONDARY_ACCESSION_NUMBERS>
EXPT00614

>  <COMMON_NAME>
Heptyl glucoside

>  <CAS_NUMBER>
78617-12-6

>  <UNII>
BU2OC48XBR

>  <SYNONYMS>
1-Heptyl beta-D-glucoside; Heptyl beta-D-glucopyranoside; Heptyl glucoside; n-Heptyl beta-D-glucopyranoside; n-Heptyl beta-D-glucoside

$$$$
