BIT
 OpenBabel10282417123D

 38 41  0  0  0  0  0  0  0  0999 V2000
    0.8132    0.0206    0.2571 O   0  0  0  0  0  0  0  0  0  0  0  0
    1.9705    0.0335    0.5992 C   0  0  0  0  0  0  0  0  0  0  0  0
    2.6659   -1.1799    1.0797 C   0  0  0  0  0  0  0  0  0  0  0  0
    2.7539   -2.3755    0.3572 C   0  0  0  0  0  0  0  0  0  0  0  0
    3.3075   -3.4922    0.9850 C   0  0  0  0  0  0  0  0  0  0  0  0
    3.3682   -4.8250    0.2936 C   0  0  0  0  0  0  0  0  0  0  0  0
    3.7704   -3.3525    2.3048 C   0  0  0  0  0  0  0  0  0  0  0  0
    3.2973   -0.9731    2.2956 C   0  0  0  0  0  0  0  0  0  0  0  0
    3.7812   -2.0995    2.9474 C   0  0  0  0  0  0  0  0  0  0  0  0
    3.0022    1.1718    0.4036 C   0  0  2  0  0  0  0  0  0  0  0  0
    3.2597    1.3433    2.0399 C   0  0  0  0  0  0  0  0  0  0  0  0
    3.3980    0.3226    2.8483 N   0  0  0  0  0  0  0  0  0  0  0  0
    2.9693    0.6452   -0.9227 O   0  0  0  0  0  0  0  0  0  0  0  0
    2.9904    2.6529    0.0269 C   0  0  0  0  0  0  0  0  0  0  0  0
    3.3532    3.5489    1.2229 C   0  0  0  0  0  0  0  0  0  0  0  0
    3.1557    2.6967    2.3853 N   0  0  0  0  0  0  0  0  0  0  0  0
    3.1467    3.2213    3.6932 C   0  0  0  0  0  0  0  0  0  0  0  0
    3.9498    2.7204    4.7378 C   0  0  0  0  0  0  0  0  0  0  0  0
    3.7368    3.0825    6.0844 C   0  0  0  0  0  0  0  0  0  0  0  0
    2.7719    4.0274    6.4106 C   0  0  0  0  0  0  0  0  0  0  0  0
    2.0561    4.6355    5.3854 C   0  0  0  0  0  0  0  0  0  0  0  0
    2.2228    4.2171    4.0516 C   0  0  0  0  0  0  0  0  0  0  0  0
    2.4109   -2.4250   -0.6739 H   0  0  0  0  0  0  0  0  0  0  0  0
    2.8217   -4.8141   -0.6563 H   0  0  0  0  0  0  0  0  0  0  0  0
    4.4048   -5.1099    0.0845 H   0  0  0  0  0  0  0  0  0  0  0  0
    2.9066   -5.5913    0.9250 H   0  0  0  0  0  0  0  0  0  0  0  0
    4.1293   -4.2259    2.8458 H   0  0  0  0  0  0  0  0  0  0  0  0
    4.1452   -2.0111    3.9663 H   0  0  0  0  0  0  0  0  0  0  0  0
    2.0175    0.6823   -1.2330 H   0  0  0  0  0  0  0  0  0  0  0  0
    3.7743    2.8503   -0.7260 H   0  0  0  0  0  0  0  0  0  0  0  0
    2.0491    2.9128   -0.4673 H   0  0  0  0  0  0  0  0  0  0  0  0
    4.4113    3.8256    1.2793 H   0  0  0  0  0  0  0  0  0  0  0  0
    2.8882    4.5357    1.0558 H   0  0  0  0  0  0  0  0  0  0  0  0
    4.7605    2.0262    4.5274 H   0  0  0  0  0  0  0  0  0  0  0  0
    4.3146    2.6151    6.8805 H   0  0  0  0  0  0  0  0  0  0  0  0
    2.5802    4.2882    7.4503 H   0  0  0  0  0  0  0  0  0  0  0  0
    1.3380    5.4154    5.6265 H   0  0  0  0  0  0  0  0  0  0  0  0
    1.5567    4.6321    3.3014 H   0  0  0  0  0  0  0  0  0  0  0  0
  1  2  2  0  0  0  0
  2  3  1  0  0  0  0
  2 10  1  0  0  0  0
  3  4  2  0  0  0  0
  3  8  1  0  0  0  0
  4  5  1  0  0  0  0
  4 23  1  0  0  0  0
  5  7  2  0  0  0  0
  5  6  1  0  0  0  0
  6 24  1  0  0  0  0
  6 25  1  0  0  0  0
  6 26  1  0  0  0  0
  7  9  1  0  0  0  0
  7 27  1  0  0  0  0
  8  9  2  0  0  0  0
  8 12  1  0  0  0  0
  9 28  1  0  0  0  0
 10 11  1  0  0  0  0
 10 14  1  0  0  0  0
 10 13  1  1  0  0  0
 11 12  2  0  0  0  0
 11 16  1  0  0  0  0
 13 29  1  0  0  0  0
 14 15  1  0  0  0  0
 14 30  1  0  0  0  0
 14 31  1  0  0  0  0
 15 16  1  0  0  0  0
 15 32  1  0  0  0  0
 15 33  1  0  0  0  0
 16 17  1  0  0  0  0
 17 18  2  0  0  0  0
 17 22  1  0  0  0  0
 18 19  1  0  0  0  0
 18 34  1  0  0  0  0
 19 20  2  0  0  0  0
 19 35  1  0  0  0  0
 20 21  1  0  0  0  0
 20 36  1  0  0  0  0
 21 22  2  0  0  0  0
 21 37  1  0  0  0  0
 22 38  1  0  0  0  0
M  END
>  <DRUGBANK_ID>
DB01944

>  <SECONDARY_ACCESSION_NUMBERS>
EXPT00711

>  <COMMON_NAME>
(S)-blebbistatin

>  <UNII>
8WII7624I5

$$$$
