
 OpenBabel10282417213D

 16 15  0  0  0  0  0  0  0  0999 V2000
    1.0641   -0.0987   -0.1182 O   0  0  0  0  0  0  0  0  0  0  0  0
    0.5421   -1.4207    0.2194 C   0  0  0  0  0  0  0  0  0  0  0  0
    1.1521   -2.4994   -1.1271 P   0  0  0  0  0  0  0  0  0  0  0  0
    0.1737   -3.6488   -0.4615 O   0  0  0  0  0  0  0  0  0  0  0  0
    0.0638   -1.7301   -2.1002 O   0  0  0  0  0  0  0  0  0  0  0  0
    1.6682   -3.4121   -2.2664 O   0  0  0  0  0  0  0  0  0  0  0  0
    1.1521   -2.0475    1.8269 P   0  0  0  0  0  0  0  0  0  0  0  0
    0.5838   -0.6126    2.4053 O   0  0  0  0  0  0  0  0  0  0  0  0
   -0.2571   -2.9048    1.9597 O   0  0  0  0  0  0  0  0  0  0  0  0
    1.6682   -2.5778    3.1870 O   0  0  0  0  0  0  0  0  0  0  0  0
    2.0227   -0.0708    0.0976 H   0  0  0  0  0  0  0  0  0  0  0  0
   -0.5507   -1.3162    0.2095 H   0  0  0  0  0  0  0  0  0  0  0  0
    0.4165   -4.5275   -0.8302 H   0  0  0  0  0  0  0  0  0  0  0  0
    0.0285   -0.7577   -1.9548 H   0  0  0  0  0  0  0  0  0  0  0  0
    1.1209   -0.2441    3.1288 H   0  0  0  0  0  0  0  0  0  0  0  0
   -0.5788   -3.3100    1.1180 H   0  0  0  0  0  0  0  0  0  0  0  0
  1  2  1  0  0  0  0
  1 11  1  0  0  0  0
  2  3  1  0  0  0  0
  2  7  1  0  0  0  0
  2 12  1  0  0  0  0
  3  4  1  0  0  0  0
  3  5  1  0  0  0  0
  3  6  2  0  0  0  0
  4 13  1  0  0  0  0
  5 14  1  0  0  0  0
  7  8  1  0  0  0  0
  7  9  1  0  0  0  0
  7 10  2  0  0  0  0
  8 15  1  0  0  0  0
  9 16  1  0  0  0  0
M  END
>  <DRUGBANK_ID>
DB14159

>  <COMMON_NAME>
Oxidronic acid

>  <CAS_NUMBER>
15468-10-7

>  <UNII>
71MR4V32TI

>  <SYNONYMS>
(Hydroxymethylene)diphosphonic acid; Acido oxidronico; Acidum oxidronicum; HMD-P; HMDP; Hydroxymethanediphosphonic acid; Oxidronate; Oxidronic acid

$$$$
