PQA
 OpenBabel10282417173D

 49 52  0  0  0  0  0  0  0  0999 V2000
    0.9948   -0.2216   -0.1209 N   0  0  0  0  0  0  0  0  0  0  0  0
    0.3165   -0.9203    0.8327 C   0  0  0  0  0  0  0  0  0  0  0  0
    0.6143   -1.0649    2.1595 C   0  0  0  0  0  0  0  0  0  0  0  0
   -0.4266   -1.8704    2.6800 C   0  0  0  0  0  0  0  0  0  0  0  0
   -1.3777   -2.1192    1.7789 N   0  0  0  0  0  0  0  0  0  0  0  0
   -0.8892   -1.5662    0.6401 N   0  0  0  0  0  0  0  0  0  0  0  0
   -1.5741   -1.6673   -0.5770 C   0  0  0  0  0  0  0  0  0  0  0  0
   -0.8861   -2.1283   -1.7065 C   0  0  0  0  0  0  0  0  0  0  0  0
   -1.5417   -2.1594   -2.9307 C   0  0  0  0  0  0  0  0  0  0  0  0
   -2.8530   -1.7015   -3.0121 C   0  0  0  0  0  0  0  0  0  0  0  0
   -3.4763   -1.7140   -4.1968 F   0  0  0  0  0  0  0  0  0  0  0  0
   -3.5291   -1.2247   -1.8895 C   0  0  0  0  0  0  0  0  0  0  0  0
   -2.8951   -1.2222   -0.6503 C   0  0  0  0  0  0  0  0  0  0  0  0
    1.7608   -0.4366    2.7686 C   0  0  0  0  0  0  0  0  0  0  0  0
    2.5569    0.2853    2.2026 O   0  0  0  0  0  0  0  0  0  0  0  0
    1.9922   -0.7450    4.1563 C   0  0  0  0  0  0  0  0  0  0  0  0
    2.1322   -2.1207    4.4316 C   0  0  0  0  0  0  0  0  0  0  0  0
    2.4514   -2.4435    5.6843 C   0  0  0  0  0  0  0  0  0  0  0  0
    2.6754   -1.3525    6.4879 C   0  0  0  0  0  0  0  0  0  0  0  0
    2.6789    0.0018    6.3006 C   0  0  0  0  0  0  0  0  0  0  0  0
    3.1458    0.8827    7.2293 O   0  0  0  0  0  0  0  0  0  0  0  0
    3.8369    0.4920    8.4788 C   0  0  0  0  0  0  0  0  0  0  0  0
    5.1523   -0.3172    8.3709 C   0  0  0  0  0  0  0  0  0  0  0  0
    4.9298   -1.8056    8.1548 C   0  0  0  0  0  0  0  0  0  0  0  0
    3.8707   -2.3892    9.0597 N   0  0  0  0  0  0  0  0  0  0  0  0
    2.6323   -1.5796    9.3784 C   0  0  0  0  0  0  0  0  0  0  0  0
    2.9260   -0.1001    9.5734 C   0  0  0  0  0  0  0  0  0  0  0  0
    2.2093    0.3294    5.0685 C   0  0  0  0  0  0  0  0  0  0  0  0
    0.4737    0.5218   -0.5865 H   0  0  0  0  0  0  0  0  0  0  0  0
    1.8994    0.1613    0.1852 H   0  0  0  0  0  0  0  0  0  0  0  0
   -0.5517   -2.2677    3.6838 H   0  0  0  0  0  0  0  0  0  0  0  0
    0.1411   -2.4813   -1.6290 H   0  0  0  0  0  0  0  0  0  0  0  0
   -1.0390   -2.5302   -3.8171 H   0  0  0  0  0  0  0  0  0  0  0  0
   -4.5412   -0.8494   -1.9923 H   0  0  0  0  0  0  0  0  0  0  0  0
   -3.3973   -0.8183    0.2259 H   0  0  0  0  0  0  0  0  0  0  0  0
    2.0233   -2.9207    3.7095 H   0  0  0  0  0  0  0  0  0  0  0  0
    2.6395   -3.4415    6.0662 H   0  0  0  0  0  0  0  0  0  0  0  0
    2.9859   -1.6721    7.4023 H   0  0  0  0  0  0  0  0  0  0  0  0
    4.1594    1.4648    8.8817 H   0  0  0  0  0  0  0  0  0  0  0  0
    5.7822    0.0987    7.5746 H   0  0  0  0  0  0  0  0  0  0  0  0
    5.7198   -0.2378    9.3075 H   0  0  0  0  0  0  0  0  0  0  0  0
    4.7785   -1.9321    7.0702 H   0  0  0  0  0  0  0  0  0  0  0  0
    5.8463   -2.3981    8.2404 H   0  0  0  0  0  0  0  0  0  0  0  0
    3.5624   -3.2717    8.6374 H   0  0  0  0  0  0  0  0  0  0  0  0
    2.1089   -2.0356   10.2223 H   0  0  0  0  0  0  0  0  0  0  0  0
    1.7990   -1.6326    8.6496 H   0  0  0  0  0  0  0  0  0  0  0  0
    3.4095   -0.0149   10.5530 H   0  0  0  0  0  0  0  0  0  0  0  0
    1.9928    0.4746    9.6098 H   0  0  0  0  0  0  0  0  0  0  0  0
    2.0544    1.3622    4.7783 H   0  0  0  0  0  0  0  0  0  0  0  0
  1  2  1  0  0  0  0
  1 29  1  0  0  0  0
  1 30  1  0  0  0  0
  2  3  2  0  0  0  0
  2  6  1  0  0  0  0
  3  4  1  0  0  0  0
  3 14  1  0  0  0  0
  4  5  2  0  0  0  0
  4 31  1  0  0  0  0
  5  6  1  0  0  0  0
  6  7  1  0  0  0  0
  7  8  1  0  0  0  0
  7 13  2  0  0  0  0
  8  9  2  0  0  0  0
  8 32  1  0  0  0  0
  9 10  1  0  0  0  0
  9 33  1  0  0  0  0
 10 11  1  0  0  0  0
 10 12  2  0  0  0  0
 12 13  1  0  0  0  0
 12 34  1  0  0  0  0
 13 35  1  0  0  0  0
 14 15  2  0  0  0  0
 14 16  1  0  0  0  0
 16 17  1  0  0  0  0
 16 28  2  0  0  0  0
 17 18  2  0  0  0  0
 17 36  1  0  0  0  0
 18 19  1  0  0  0  0
 18 37  1  0  0  0  0
 19 20  2  0  0  0  0
 19 38  1  0  0  0  0
 20 21  1  0  0  0  0
 20 28  1  0  0  0  0
 21 22  1  0  0  0  0
 22 23  1  0  0  0  0
 22 27  1  0  0  0  0
 22 39  1  0  0  0  0
 23 24  1  0  0  0  0
 23 40  1  0  0  0  0
 23 41  1  0  0  0  0
 24 25  1  0  0  0  0
 24 42  1  0  0  0  0
 24 43  1  0  0  0  0
 25 26  1  0  0  0  0
 25 44  1  0  0  0  0
 26 27  1  0  0  0  0
 26 45  1  0  0  0  0
 26 46  1  0  0  0  0
 27 47  1  0  0  0  0
 27 48  1  0  0  0  0
 28 49  1  0  0  0  0
M  END
>  <DRUGBANK_ID>
DB08423

>  <COMMON_NAME>
[5-AMINO-1-(4-FLUOROPHENYL)-1H-PYRAZOL-4-YL][3-(PIPERIDIN-4-YLOXY)PHENYL]METHANONE

$$$$
