
 OpenBabel10282417243D

112117  0  0  1  0  0  0  0  0999 V2000
    3.6915    0.8167    0.1856 H   0  0  0  0  0  0  0  0  0  0  0  0
    2.7507    0.3357   -0.0657 C   0  0  2  0  0  0  0  0  0  0  0  0
    2.9200   -0.6956   -1.0349 O   0  0  0  0  0  0  0  0  0  0  0  0
    2.2936   -0.6160   -2.3685 C   0  0  1  0  0  0  0  0  0  0  0  0
    0.6064   -0.9604   -2.4377 C   0  0  2  0  0  0  0  0  0  0  0  0
   -0.0955   -1.6211   -1.2567 N   0  0  0  0  0  0  0  0  0  0  0  0
   -1.6719   -1.3086   -0.8871 C   0  0  0  0  0  0  0  0  0  0  0  0
   -2.4641   -1.0983    0.8207 C   0  0  0  0  0  0  0  0  0  0  0  0
   -1.9788   -0.0958    2.3329 C   0  0  0  0  0  0  0  0  0  0  0  0
   -1.7552    1.6444    1.9848 C   0  0  0  0  0  0  0  0  0  0  0  0
   -1.4322    2.3802    2.9419 O   0  0  0  0  0  0  0  0  0  0  0  0
   -1.6207    2.2305    0.6041 N   0  0  0  0  0  0  0  0  0  0  0  0
   -1.0537    1.8669   -0.8976 C   0  0  0  0  0  0  0  0  0  0  0  0
   -1.7244    2.0132   -2.1605 C   0  0  0  0  0  0  0  0  0  0  0  0
   -0.9351    2.1760   -3.3479 C   0  0  0  0  0  0  0  0  0  0  0  0
   -1.5001    2.0057   -4.5464 C   0  0  0  0  0  0  0  0  0  0  0  0
   -2.8311    1.6523   -4.4800 C   0  0  0  0  0  0  0  0  0  0  0  0
   -3.5069    1.2607   -3.3003 C   0  0  0  0  0  0  0  0  0  0  0  0
   -2.9891    1.5480   -2.1051 C   0  0  0  0  0  0  0  0  0  0  0  0
   -3.5560    1.9593   -5.5744 N   0  0  0  0  0  0  0  0  0  0  0  0
   -4.5890    2.9459   -5.4070 C   0  0  0  0  0  0  0  0  0  0  0  0
   -5.8782    2.1976   -5.5439 C   0  0  0  0  0  0  0  0  0  0  0  0
   -5.8931    1.2844   -6.7782 C   0  0  3  0  0  0  0  0  0  0  0  0
   -4.6398    0.4068   -6.9491 C   0  0  0  0  0  0  0  0  0  0  0  0
   -3.3807    1.2197   -6.7761 C   0  0  0  0  0  0  0  0  0  0  0  0
   -7.0858    0.4861   -6.8951 O   0  0  0  0  0  0  0  0  0  0  0  0
   -7.3260   -0.4497   -5.9255 C   0  0  0  0  0  0  0  0  0  0  0  0
   -7.5488   -0.1242   -4.5916 C   0  0  0  0  0  0  0  0  0  0  0  0
   -7.8670   -1.0905   -3.6467 C   0  0  0  0  0  0  0  0  0  0  0  0
   -8.0999   -2.3980   -4.0425 C   0  0  0  0  0  0  0  0  0  0  0  0
   -8.4565   -3.4120   -3.1993 O   0  0  0  0  0  0  0  0  0  0  0  0
   -8.4669   -3.1040   -1.8089 C   0  0  0  0  0  0  0  0  0  0  0  0
   -7.2605   -2.6527   -1.3927 F   0  0  0  0  0  0  0  0  0  0  0  0
   -9.4095   -2.1777   -1.5229 F   0  0  0  0  0  0  0  0  0  0  0  0
   -8.7550   -4.2217   -1.1085 F   0  0  0  0  0  0  0  0  0  0  0  0
   -7.9840   -2.7167   -5.4012 C   0  0  0  0  0  0  0  0  0  0  0  0
   -7.5361   -1.7633   -6.3295 C   0  0  0  0  0  0  0  0  0  0  0  0
    0.2118   -1.8885   -3.5835 C   0  0  0  0  0  0  0  0  0  0  0  0
   -0.5902   -1.2791   -4.5204 N   0  0  0  0  0  0  0  0  0  0  0  0
    0.4398   -3.0683   -3.6158 O   0  0  0  0  0  0  0  0  0  0  0  0
    2.8288    0.7143   -3.3076 C   0  0  1  0  0  0  0  0  0  0  0  0
    2.6322    0.2607   -4.2905 H   0  0  0  0  0  0  0  0  0  0  0  0
    2.1178    2.0374   -3.3926 O   0  0  0  0  0  0  0  0  0  0  0  0
    3.0227    3.3141   -2.9783 C   0  0  2  0  0  0  0  0  0  0  0  0
    4.3571    2.6390   -2.6912 C   0  0  2  0  0  0  0  0  0  0  0  0
    5.3717    3.4682   -3.2349 O   0  0  0  0  0  0  0  0  0  0  0  0
    4.2826    1.2083   -3.2916 C   0  0  2  0  0  0  0  0  0  0  0  0
    4.6113    1.3924   -4.6853 O   0  0  0  0  0  0  0  0  0  0  0  0
    2.5924    4.4043   -1.6866 N   0  0  0  0  0  0  0  0  0  0  0  0
    2.9346    4.3218   -0.2609 C   0  0  0  0  0  0  0  0  0  0  0  0
    2.2823    5.0230    0.7009 C   0  0  0  0  0  0  0  0  0  0  0  0
    1.2747    5.9487    0.2912 C   0  0  0  0  0  0  0  0  0  0  0  0
    0.4196    6.4090    1.1292 O   0  0  0  0  0  0  0  0  0  0  0  0
    1.3475    6.3037   -0.9912 N   0  0  0  0  0  0  0  0  0  0  0  0
    1.7894    5.4991   -2.0532 C   0  0  0  0  0  0  0  0  0  0  0  0
    1.4941    5.7535   -3.1776 O   0  0  0  0  0  0  0  0  0  0  0  0
    2.1980   -0.0791    1.1724 O   0  0  0  0  0  0  0  0  0  0  0  0
    0.9843    0.6487    1.3861 C   0  0  2  0  0  0  0  0  0  0  0  0
   -0.0016   -0.3280    0.9519 C   0  0  0  0  0  0  0  0  0  0  0  0
    0.0239   -1.7558    1.3327 N   0  0  0  0  0  0  0  0  0  0  0  0
    1.0339    1.8972    0.6061 C   0  0  1  0  0  0  0  0  0  0  0  0
    1.2335    2.9208    1.5065 O   0  0  0  0  0  0  0  0  0  0  0  0
    1.7472    1.2932   -0.5085 C   0  0  1  0  0  0  0  0  0  0  0  0
    1.9903    2.2739   -1.3301 O   0  0  0  0  0  0  0  0  0  0  0  0
    2.7437   -1.5013   -2.8507 H   0  0  0  0  0  0  0  0  0  0  0  0
    0.1808    0.0057   -2.6702 H   0  0  0  0  0  0  0  0  0  0  0  0
    0.5927   -1.4506   -0.5115 H   0  0  0  0  0  0  0  0  0  0  0  0
   -1.8646   -0.3577   -1.3339 H   0  0  0  0  0  0  0  0  0  0  0  0
   -2.2881   -1.9236   -1.5550 H   0  0  0  0  0  0  0  0  0  0  0  0
   -3.4224   -0.6143    0.6229 H   0  0  0  0  0  0  0  0  0  0  0  0
   -2.6431   -2.1461    1.1168 H   0  0  0  0  0  0  0  0  0  0  0  0
   -2.3166   -0.4599    3.3334 H   0  0  0  0  0  0  0  0  0  0  0  0
   -0.9317   -0.3267    2.7504 H   0  0  0  0  0  0  0  0  0  0  0  0
   -1.2667    3.1795    0.7702 H   0  0  0  0  0  0  0  0  0  0  0  0
   -0.2432    2.4880   -1.2626 H   0  0  0  0  0  0  0  0  0  0  0  0
   -0.6029    0.9196   -1.0285 H   0  0  0  0  0  0  0  0  0  0  0  0
    0.1243    2.3845   -3.3444 H   0  0  0  0  0  0  0  0  0  0  0  0
   -0.9674    2.2158   -5.4726 H   0  0  0  0  0  0  0  0  0  0  0  0
   -4.4823    0.8044   -3.2931 H   0  0  0  0  0  0  0  0  0  0  0  0
   -3.4070    1.2823   -1.1415 H   0  0  0  0  0  0  0  0  0  0  0  0
   -4.4540    3.7310   -6.1466 H   0  0  0  0  0  0  0  0  0  0  0  0
   -4.5590    3.4294   -4.4137 H   0  0  0  0  0  0  0  0  0  0  0  0
   -6.7411    2.8666   -5.5096 H   0  0  0  0  0  0  0  0  0  0  0  0
   -5.9015    1.5922   -4.6438 H   0  0  0  0  0  0  0  0  0  0  0  0
   -5.9088    1.9649   -7.6413 H   0  0  0  0  0  0  0  0  0  0  0  0
   -4.6541   -0.3986   -6.2028 H   0  0  0  0  0  0  0  0  0  0  0  0
   -4.6262   -0.0728   -7.9305 H   0  0  0  0  0  0  0  0  0  0  0  0
   -2.5071    0.5543   -6.7282 H   0  0  0  0  0  0  0  0  0  0  0  0
   -3.2118    1.9423   -7.5745 H   0  0  0  0  0  0  0  0  0  0  0  0
   -7.5333    0.8910   -4.2239 H   0  0  0  0  0  0  0  0  0  0  0  0
   -7.9716   -0.7494   -2.6219 H   0  0  0  0  0  0  0  0  0  0  0  0
   -8.2616   -3.7071   -5.7533 H   0  0  0  0  0  0  0  0  0  0  0  0
   -7.3795   -2.0440   -7.3680 H   0  0  0  0  0  0  0  0  0  0  0  0
   -1.0863   -1.8966   -5.1440 H   0  0  0  0  0  0  0  0  0  0  0  0
   -0.9504   -0.3438   -4.4076 H   0  0  0  0  0  0  0  0  0  0  0  0
    2.9169    3.9142   -3.8846 H   0  0  0  0  0  0  0  0  0  0  0  0
    4.5606    2.5567   -1.6212 H   0  0  0  0  0  0  0  0  0  0  0  0
    5.1113    3.6336   -4.1618 H   0  0  0  0  0  0  0  0  0  0  0  0
    4.9969    0.5189   -2.8301 H   0  0  0  0  0  0  0  0  0  0  0  0
    3.8407    1.8500   -5.0790 H   0  0  0  0  0  0  0  0  0  0  0  0
    3.5417    3.5107    0.1474 H   0  0  0  0  0  0  0  0  0  0  0  0
    2.2944    4.7987    1.7707 H   0  0  0  0  0  0  0  0  0  0  0  0
    0.7707    7.0870   -1.2580 H   0  0  0  0  0  0  0  0  0  0  0  0
    0.8388    0.9379    2.4129 H   0  0  0  0  0  0  0  0  0  0  0  0
   -0.8503    0.2547    1.0537 H   0  0  0  0  0  0  0  0  0  0  0  0
   -0.4908   -0.1696    0.0522 H   0  0  0  0  0  0  0  0  0  0  0  0
   -0.7678   -2.0447    1.9158 H   0  0  0  0  0  0  0  0  0  0  0  0
   -0.1919   -2.3586    0.5170 H   0  0  0  0  0  0  0  0  0  0  0  0
    0.4585    2.6417    0.0999 H   0  0  0  0  0  0  0  0  0  0  0  0
    2.0706    2.7744    1.9217 H   0  0  0  0  0  0  0  0  0  0  0  0
    1.1314    0.7435   -1.1658 H   0  0  0  0  0  0  0  0  0  0  0  0
    2.8500    2.5874   -1.0882 H   0  0  0  0  0  0  0  0  0  0  0  0
  2 57  1  0  0  0  0
  2  3  1  0  0  0  0
  2  1  1  1  0  0  0
  4  3  1  0  0  0  0
  4 41  1  0  0  0  0
  4 65  1  6  0  0  0
  5 38  1  0  0  0  0
  5 66  1  6  0  0  0
  5  6  1  0  0  0  0
  5  4  1  0  0  0  0
  6  7  1  0  0  0  0
  6 67  1  0  0  0  0
  7  8  1  0  0  0  0
  7 68  1  0  0  0  0
  7 69  1  0  0  0  0
  8  9  1  0  0  0  0
  8 70  1  0  0  0  0
  8 71  1  0  0  0  0
  9 10  1  0  0  0  0
  9 72  1  0  0  0  0
  9 73  1  0  0  0  0
 10 11  2  0  0  0  0
 10 12  1  0  0  0  0
 12 13  1  0  0  0  0
 12 74  1  0  0  0  0
 13 14  1  0  0  0  0
 13 75  1  0  0  0  0
 13 76  1  0  0  0  0
 14 15  2  0  0  0  0
 14 19  1  0  0  0  0
 15 16  1  0  0  0  0
 15 77  1  0  0  0  0
 16 17  2  0  0  0  0
 16 78  1  0  0  0  0
 17 18  1  0  0  0  0
 17 20  1  0  0  0  0
 18 19  2  0  0  0  0
 18 79  1  0  0  0  0
 19 80  1  0  0  0  0
 20 21  1  0  0  0  0
 20 25  1  0  0  0  0
 21 22  1  0  0  0  0
 21 81  1  0  0  0  0
 21 82  1  0  0  0  0
 22 23  1  0  0  0  0
 22 83  1  0  0  0  0
 22 84  1  0  0  0  0
 23 24  1  0  0  0  0
 23 26  1  0  0  0  0
 23 85  1  0  0  0  0
 24 25  1  0  0  0  0
 24 86  1  0  0  0  0
 24 87  1  0  0  0  0
 25 88  1  0  0  0  0
 25 89  1  0  0  0  0
 26 27  1  0  0  0  0
 27 28  2  0  0  0  0
 27 37  1  0  0  0  0
 28 29  1  0  0  0  0
 28 90  1  0  0  0  0
 29 30  2  0  0  0  0
 29 91  1  0  0  0  0
 30 31  1  0  0  0  0
 30 36  1  0  0  0  0
 31 32  1  0  0  0  0
 32 33  1  0  0  0  0
 32 34  1  0  0  0  0
 32 35  1  0  0  0  0
 36 37  2  0  0  0  0
 36 92  1  0  0  0  0
 37 93  1  0  0  0  0
 38 39  1  0  0  0  0
 38 40  2  0  0  0  0
 39 94  1  0  0  0  0
 39 95  1  0  0  0  0
 41 42  1  6  0  0  0
 41 43  1  0  0  0  0
 41 47  1  0  0  0  0
 44 43  1  0  0  0  0
 44 96  1  6  0  0  0
 44 49  1  0  0  0  0
 45 44  1  0  0  0  0
 45 46  1  0  0  0  0
 45 97  1  1  0  0  0
 46 98  1  0  0  0  0
 47 45  1  0  0  0  0
 47 48  1  0  0  0  0
 47 99  1  1  0  0  0
 48100  1  0  0  0  0
 49 50  1  0  0  0  0
 49 55  1  0  0  0  0
 50 51  2  0  0  0  0
 50101  1  0  0  0  0
 51 52  1  0  0  0  0
 51102  1  0  0  0  0
 52 53  2  0  0  0  0
 52 54  1  0  0  0  0
 54 55  1  0  0  0  0
 54103  1  0  0  0  0
 55 56  2  0  0  0  0
 58 57  1  0  0  0  0
 58104  1  1  0  0  0
 58 59  1  0  0  0  0
 59 60  1  0  0  0  0
 59105  1  0  0  0  0
 59106  1  0  0  0  0
 60107  1  0  0  0  0
 60108  1  0  0  0  0
 61 58  1  0  0  0  0
 61 62  1  0  0  0  0
 61 63  1  0  0  0  0
 61109  1  6  0  0  0
 62110  1  0  0  0  0
 63  2  1  0  0  0  0
 63 64  1  0  0  0  0
 63111  1  6  0  0  0
 64112  1  0  0  0  0
M  END
>  <DRUGBANK_ID>
DB18603

>  <COMMON_NAME>
APPD

>  <CAS_NUMBER>
2364414-26-4

>  <UNII>
YG9BKQ6J2Z

>  <SYNONYMS>
AMINOURIDYL PHENOXYPIPERIDINBENZYL BUTAMIDE; D-GLYCERO-.ALPHA.-L-TALO-HEPTOFURANURONAMIDE, 5-O-(5-AMINO-5-DEOXY-.BETA.-D-RIBOFURANOSYL)-1,6-DIDEOXY-1-(3,4-DIHYDRO-2,4-DIOXO-1(2H)-PYRIMIDINYL)-6-((4-OXO-4-(((4-(4-(4-(TRIFLUOROMETHOXY)PHENOXY)-1-PIPERIDINYL)PHENYL)METHYL)AMINO)BUTYL)AMINO)-

$$$$
