
 OpenBabel10282417133D

 27 27  0  0  1  0  0  0  0  0999 V2000
    0.8252   -0.0772   -0.3178 N   0  0  0  0  0  0  0  0  0  0  0  0
    0.3634   -1.4133    0.0973 C   0  0  1  0  0  0  0  0  0  0  0  0
    0.9186   -1.9735    1.4425 C   0  0  0  0  0  0  0  0  0  0  0  0
    0.5323   -1.2141    2.7023 C   0  0  0  0  0  0  0  0  0  0  0  0
   -0.2454   -1.8383    3.7030 C   0  0  0  0  0  0  0  0  0  0  0  0
   -0.8071   -1.0940    4.7542 C   0  0  0  0  0  0  0  0  0  0  0  0
   -1.5150   -1.7232    5.7944 N   0  0  0  0  0  0  0  0  0  0  0  0
   -0.4603    0.2585    4.8786 C   0  0  0  0  0  0  0  0  0  0  0  0
   -1.0052    0.9920    5.9015 O   0  0  0  0  0  0  0  0  0  0  0  0
    0.4083    0.8605    3.9843 C   0  0  0  0  0  0  0  0  0  0  0  0
    0.8811    0.1279    2.9066 C   0  0  0  0  0  0  0  0  0  0  0  0
    1.7011    0.8250    2.0683 O   0  0  0  0  0  0  0  0  0  0  0  0
   -1.1807   -1.3886    0.1253 C   0  0  0  0  0  0  0  0  0  0  0  0
   -1.7661   -2.0676   -0.8905 O   0  0  0  0  0  0  0  0  0  0  0  0
   -1.8442   -0.7795    0.9463 O   0  0  0  0  0  0  0  0  0  0  0  0
    0.4814    0.6213    0.3579 H   0  0  0  0  0  0  0  0  0  0  0  0
    1.8325    0.0027   -0.4129 H   0  0  0  0  0  0  0  0  0  0  0  0
    0.6959   -2.0905   -0.6988 H   0  0  0  0  0  0  0  0  0  0  0  0
    0.5766   -3.0160    1.5275 H   0  0  0  0  0  0  0  0  0  0  0  0
    2.0145   -2.0338    1.3977 H   0  0  0  0  0  0  0  0  0  0  0  0
   -0.4467   -2.9063    3.6559 H   0  0  0  0  0  0  0  0  0  0  0  0
   -2.0779   -1.0371    6.3003 H   0  0  0  0  0  0  0  0  0  0  0  0
   -2.0291   -2.5550    5.5352 H   0  0  0  0  0  0  0  0  0  0  0  0
   -0.7361    1.9171    5.7740 H   0  0  0  0  0  0  0  0  0  0  0  0
    0.7312    1.8888    4.0970 H   0  0  0  0  0  0  0  0  0  0  0  0
    2.0400    0.2011    1.4132 H   0  0  0  0  0  0  0  0  0  0  0  0
   -1.1504   -2.4064   -1.5641 H   0  0  0  0  0  0  0  0  0  0  0  0
  1 16  1  0  0  0  0
  1 17  1  0  0  0  0
  2  1  1  0  0  0  0
  2  3  1  0  0  0  0
  2 13  1  0  0  0  0
  2 18  1  6  0  0  0
  3  4  1  0  0  0  0
  3 19  1  0  0  0  0
  3 20  1  0  0  0  0
  4  5  2  0  0  0  0
  4 11  1  0  0  0  0
  5  6  1  0  0  0  0
  5 21  1  0  0  0  0
  6  7  1  0  0  0  0
  6  8  2  0  0  0  0
  7 22  1  0  0  0  0
  7 23  1  0  0  0  0
  8  9  1  0  0  0  0
  8 10  1  0  0  0  0
  9 24  1  0  0  0  0
 10 11  2  0  0  0  0
 10 25  1  0  0  0  0
 11 12  1  0  0  0  0
 12 26  1  0  0  0  0
 13 14  1  0  0  0  0
 13 15  2  0  0  0  0
 14 27  1  0  0  0  0
M  END
>  <DRUGBANK_ID>
DB02928

>  <SECONDARY_ACCESSION_NUMBERS>
EXPT03140

>  <COMMON_NAME>
3-Amino-6-Hydroxy-Tyrosine

$$$$
