
 OpenBabel10282417193D

 76 81  0  0  0  0  0  0  0  0999 V2000
   -0.2579   -1.0474   -0.2373 C   0  0  0  0  0  0  0  0  0  0  0  0
   -1.6135   -1.2204   -0.0248 C   0  0  0  0  0  0  0  0  0  0  0  0
   -2.3213   -0.0302    0.0670 C   0  0  0  0  0  0  0  0  0  0  0  0
   -1.7423    1.2195    0.0554 N   0  0  0  0  0  0  0  0  0  0  0  0
   -0.3910    1.3262   -0.0644 C   0  0  0  0  0  0  0  0  0  0  0  0
    0.3671    0.1870   -0.1908 C   0  0  0  0  0  0  0  0  0  0  0  0
    2.0724    0.2459   -0.2792 Cl  0  0  0  0  0  0  0  0  0  0  0  0
    0.1766    2.5832   -0.0229 N   0  0  0  0  0  0  0  0  0  0  0  0
    0.3182    3.1155    1.3204 C   0  0  0  0  0  0  0  0  0  0  0  0
   -0.0621    4.5789    1.1916 C   0  0  0  0  0  0  0  0  0  0  0  0
    0.8213    5.2913    0.1494 C   0  0  0  0  0  0  0  0  0  0  0  0
    0.9277    4.5236   -1.1836 C   0  0  0  0  0  0  0  0  0  0  0  0
    1.2219    3.0477   -0.9399 C   0  0  0  0  0  0  0  0  0  0  0  0
    0.2958    6.6874   -0.0907 C   0  0  0  0  0  0  0  0  0  0  0  0
    0.8813    7.7134    0.1597 O   0  0  0  0  0  0  0  0  0  0  0  0
   -0.9453    6.7041   -0.6237 O   0  0  0  0  0  0  0  0  0  0  0  0
   -2.2868   -2.5680    0.0018 C   0  0  0  0  0  0  0  0  0  0  0  0
   -3.5203   -2.5956   -0.0075 O   0  0  0  0  0  0  0  0  0  0  0  0
   -1.5975   -3.7760   -0.0906 N   0  0  0  0  0  0  0  0  0  0  0  0
   -0.2631   -3.9832    0.1661 C   0  0  0  0  0  0  0  0  0  0  0  0
    0.4506   -3.4179    1.1092 N   0  0  0  0  0  0  0  0  0  0  0  0
    1.7919   -3.4796    0.7659 C   0  0  0  0  0  0  0  0  0  0  0  0
    2.0981   -4.2626   -0.3423 C   0  0  0  0  0  0  0  0  0  0  0  0
    0.6137   -4.8578   -1.0212 S   0  0  0  0  0  0  0  0  0  0  0  0
    3.3437   -4.6132   -0.7765 N   0  0  0  0  0  0  0  0  0  0  0  0
    4.3282   -5.0597    0.2405 C   0  0  0  0  0  0  0  0  0  0  0  0
    5.6958   -4.3680    0.0983 C   0  0  0  0  0  0  0  0  0  0  0  0
    6.2403   -4.2837   -1.2713 N   0  0  0  0  0  0  0  0  0  0  0  0
    5.2269   -3.6187   -2.1264 C   0  0  0  0  0  0  0  0  0  0  0  0
    3.8029   -4.2478   -2.1264 C   0  0  0  0  0  0  0  0  0  0  0  0
    6.7363   -5.5699   -1.8196 C   0  0  0  0  0  0  0  0  0  0  0  0
    5.6535   -6.6067   -2.1377 C   0  0  0  0  0  0  0  0  0  0  0  0
    6.0624   -8.0063   -2.4721 C   0  0  0  0  0  0  0  0  0  0  0  0
    7.0403   -8.5126   -1.4425 C   0  0  0  0  0  0  0  0  0  0  0  0
    8.2360   -7.5713   -1.3496 C   0  0  0  0  0  0  0  0  0  0  0  0
    7.8269   -6.1689   -0.9126 C   0  0  0  0  0  0  0  0  0  0  0  0
    2.8230   -2.6420    1.4813 C   0  0  0  0  0  0  0  0  0  0  0  0
    3.7861   -1.8715    0.8548 C   0  0  0  0  0  0  0  0  0  0  0  0
    4.6085   -1.1622    1.7699 C   0  0  0  0  0  0  0  0  0  0  0  0
    4.3250   -1.5106    3.0667 C   0  0  0  0  0  0  0  0  0  0  0  0
    2.9622   -2.5478    3.1734 S   0  0  0  0  0  0  0  0  0  0  0  0
    5.8018   -0.0427    1.2767 Cl  0  0  0  0  0  0  0  0  0  0  0  0
    0.3817   -1.8637   -0.4840 H   0  0  0  0  0  0  0  0  0  0  0  0
   -3.4090   -0.0112    0.1223 H   0  0  0  0  0  0  0  0  0  0  0  0
    1.3526    3.0064    1.6812 H   0  0  0  0  0  0  0  0  0  0  0  0
   -0.3267    2.6107    2.0486 H   0  0  0  0  0  0  0  0  0  0  0  0
    0.0072    5.0721    2.1647 H   0  0  0  0  0  0  0  0  0  0  0  0
   -1.1128    4.6226    0.8762 H   0  0  0  0  0  0  0  0  0  0  0  0
    1.8323    5.3890    0.5678 H   0  0  0  0  0  0  0  0  0  0  0  0
   -0.0178    4.5889   -1.7352 H   0  0  0  0  0  0  0  0  0  0  0  0
    1.6990    4.9707   -1.8219 H   0  0  0  0  0  0  0  0  0  0  0  0
    1.2278    2.5065   -1.8943 H   0  0  0  0  0  0  0  0  0  0  0  0
    2.2288    2.9581   -0.5018 H   0  0  0  0  0  0  0  0  0  0  0  0
   -1.1780    7.6502   -0.7129 H   0  0  0  0  0  0  0  0  0  0  0  0
   -2.1620   -4.5937   -0.2827 H   0  0  0  0  0  0  0  0  0  0  0  0
    3.9633   -4.9329    1.2642 H   0  0  0  0  0  0  0  0  0  0  0  0
    4.4207   -6.1450    0.2251 H   0  0  0  0  0  0  0  0  0  0  0  0
    5.6221   -3.3446    0.4593 H   0  0  0  0  0  0  0  0  0  0  0  0
    6.4049   -4.7927    0.8129 H   0  0  0  0  0  0  0  0  0  0  0  0
    5.1303   -2.5807   -1.7771 H   0  0  0  0  0  0  0  0  0  0  0  0
    5.6110   -3.5146   -3.1488 H   0  0  0  0  0  0  0  0  0  0  0  0
    3.7503   -5.1356   -2.7474 H   0  0  0  0  0  0  0  0  0  0  0  0
    3.1149   -3.5686   -2.6437 H   0  0  0  0  0  0  0  0  0  0  0  0
    7.2263   -5.3263   -2.7734 H   0  0  0  0  0  0  0  0  0  0  0  0
    5.0132   -6.7589   -1.2878 H   0  0  0  0  0  0  0  0  0  0  0  0
    5.0680   -6.2939   -2.9915 H   0  0  0  0  0  0  0  0  0  0  0  0
    5.1501   -8.6186   -2.4650 H   0  0  0  0  0  0  0  0  0  0  0  0
    6.4684   -8.0211   -3.4853 H   0  0  0  0  0  0  0  0  0  0  0  0
    6.5442   -8.5864   -0.4639 H   0  0  0  0  0  0  0  0  0  0  0  0
    7.3529   -9.5183   -1.7289 H   0  0  0  0  0  0  0  0  0  0  0  0
    8.9499   -7.9723   -0.6255 H   0  0  0  0  0  0  0  0  0  0  0  0
    8.7301   -7.5117   -2.3242 H   0  0  0  0  0  0  0  0  0  0  0  0
    8.7018   -5.5055   -0.8943 H   0  0  0  0  0  0  0  0  0  0  0  0
    7.4838   -6.2590    0.1217 H   0  0  0  0  0  0  0  0  0  0  0  0
    3.8672   -1.7577   -0.2201 H   0  0  0  0  0  0  0  0  0  0  0  0
    4.8239   -1.1734    3.9619 H   0  0  0  0  0  0  0  0  0  0  0  0
  1  2  2  0  0  0  0
  1  6  1  0  0  0  0
  1 43  1  0  0  0  0
  2  3  1  0  0  0  0
  2 17  1  0  0  0  0
  3  4  2  0  0  0  0
  3 44  1  0  0  0  0
  4  5  1  0  0  0  0
  5  6  2  0  0  0  0
  5  8  1  0  0  0  0
  6  7  1  0  0  0  0
  8  9  1  0  0  0  0
  8 13  1  0  0  0  0
  9 10  1  0  0  0  0
  9 45  1  0  0  0  0
  9 46  1  0  0  0  0
 10 11  1  0  0  0  0
 10 47  1  0  0  0  0
 10 48  1  0  0  0  0
 11 12  1  0  0  0  0
 11 14  1  0  0  0  0
 11 49  1  0  0  0  0
 12 13  1  0  0  0  0
 12 50  1  0  0  0  0
 12 51  1  0  0  0  0
 13 52  1  0  0  0  0
 13 53  1  0  0  0  0
 14 15  2  0  0  0  0
 14 16  1  0  0  0  0
 16 54  1  0  0  0  0
 17 18  2  0  0  0  0
 17 19  1  0  0  0  0
 19 20  1  0  0  0  0
 19 55  1  0  0  0  0
 20 21  2  0  0  0  0
 20 24  1  0  0  0  0
 21 22  1  0  0  0  0
 22 23  2  0  0  0  0
 22 37  1  0  0  0  0
 23 24  1  0  0  0  0
 23 25  1  0  0  0  0
 25 26  1  0  0  0  0
 25 30  1  0  0  0  0
 26 27  1  0  0  0  0
 26 56  1  0  0  0  0
 26 57  1  0  0  0  0
 27 28  1  0  0  0  0
 27 58  1  0  0  0  0
 27 59  1  0  0  0  0
 28 29  1  0  0  0  0
 28 31  1  0  0  0  0
 29 30  1  0  0  0  0
 29 60  1  0  0  0  0
 29 61  1  0  0  0  0
 30 62  1  0  0  0  0
 30 63  1  0  0  0  0
 31 32  1  0  0  0  0
 31 36  1  0  0  0  0
 31 64  1  0  0  0  0
 32 33  1  0  0  0  0
 32 65  1  0  0  0  0
 32 66  1  0  0  0  0
 33 34  1  0  0  0  0
 33 67  1  0  0  0  0
 33 68  1  0  0  0  0
 34 35  1  0  0  0  0
 34 69  1  0  0  0  0
 34 70  1  0  0  0  0
 35 36  1  0  0  0  0
 35 71  1  0  0  0  0
 35 72  1  0  0  0  0
 36 73  1  0  0  0  0
 36 74  1  0  0  0  0
 37 38  2  0  0  0  0
 37 41  1  0  0  0  0
 38 39  1  0  0  0  0
 38 75  1  0  0  0  0
 39 40  2  0  0  0  0
 39 42  1  0  0  0  0
 40 41  1  0  0  0  0
 40 76  1  0  0  0  0
M  END
>  <DRUGBANK_ID>
DB11995

>  <COMMON_NAME>
Avatrombopag

>  <CAS_NUMBER>
570406-98-3

>  <UNII>
3H8GSZ4SQL

>  <SYNONYMS>
Avatrombopag

$$$$
