
 OpenBabel10282417123D

 45 46  0  0  0  0  0  0  0  0999 V2000
   -0.1099    1.9906    0.4470 O   0  0  0  0  0  0  0  0  0  0  0  0
    1.0827    1.3979   -0.1008 C   0  0  2  0  0  0  0  0  0  0  0  0
    1.1494   -0.0997    0.3358 C   0  0  1  0  0  0  0  0  0  0  0  0
   -0.0963   -0.8277   -0.1531 C   0  0  2  0  0  0  0  0  0  0  0  0
   -1.2838    1.3758   -0.1278 C   0  0  1  0  0  0  0  0  0  0  0  0
   -1.3622   -0.1003    0.2783 C   0  0  1  0  0  0  0  0  0  0  0  0
    6.0167    1.8458   -1.5066 C   0  0  3  0  0  0  0  0  0  0  0  0
    4.8877    1.0683   -2.1924 C   0  0  1  0  0  0  0  0  0  0  0  0
    5.8978    1.8027   -0.0909 O   0  0  0  0  0  0  0  0  0  0  0  0
    3.5298    1.5744   -1.7257 C   0  0  2  0  0  0  0  0  0  0  0  0
    4.6724    2.3964    0.3870 C   0  0  1  0  0  0  0  0  0  0  0  0
    3.4711    1.6284   -0.1822 C   0  0  1  0  0  0  0  0  0  0  0  0
    7.2727    1.2869   -1.8534 O   0  0  0  0  0  0  0  0  0  0  0  0
    4.9347    1.1308   -3.6237 O   0  0  0  0  0  0  0  0  0  0  0  0
    2.5262    0.6993   -2.2946 O   0  0  0  0  0  0  0  0  0  0  0  0
    2.2310    2.1520    0.3168 O   0  0  0  0  0  0  0  0  0  0  0  0
    4.6797    2.2796    1.9216 C   0  0  0  0  0  0  0  0  0  0  0  0
    5.8308    2.9264    2.4601 O   0  0  0  0  0  0  0  0  0  0  0  0
    2.2686   -0.8677   -0.1346 O   0  0  0  0  0  0  0  0  0  0  0  0
   -0.0889   -2.1785    0.3258 O   0  0  0  0  0  0  0  0  0  0  0  0
   -2.5133   -0.7272   -0.2838 O   0  0  0  0  0  0  0  0  0  0  0  0
   -2.5232    2.1200    0.3649 C   0  0  0  0  0  0  0  0  0  0  0  0
   -2.4681    3.4817   -0.0527 O   0  0  0  0  0  0  0  0  0  0  0  0
    0.9711    1.5339   -1.1753 H   0  0  0  0  0  0  0  0  0  0  0  0
    1.2172   -0.1322    1.4304 H   0  0  0  0  0  0  0  0  0  0  0  0
   -0.0642   -0.9146   -1.2477 H   0  0  0  0  0  0  0  0  0  0  0  0
   -1.2390    1.4836   -1.2222 H   0  0  0  0  0  0  0  0  0  0  0  0
   -1.4454   -0.1804    1.3684 H   0  0  0  0  0  0  0  0  0  0  0  0
    6.0237    2.8870   -1.8445 H   0  0  0  0  0  0  0  0  0  0  0  0
    4.9699    0.0012   -1.9467 H   0  0  0  0  0  0  0  0  0  0  0  0
    3.3153    2.5715   -2.1311 H   0  0  0  0  0  0  0  0  0  0  0  0
    4.6609    3.4559    0.1067 H   0  0  0  0  0  0  0  0  0  0  0  0
    3.6226    0.6300    0.2189 H   0  0  0  0  0  0  0  0  0  0  0  0
    7.1917    0.3252   -1.7360 H   0  0  0  0  0  0  0  0  0  0  0  0
    4.8186    2.0599   -3.8950 H   0  0  0  0  0  0  0  0  0  0  0  0
    2.9841   -0.0458   -2.7308 H   0  0  0  0  0  0  0  0  0  0  0  0
    3.7897    2.7361    2.3643 H   0  0  0  0  0  0  0  0  0  0  0  0
    4.7232    1.2302    2.2374 H   0  0  0  0  0  0  0  0  0  0  0  0
    6.5958    2.5144    2.0144 H   0  0  0  0  0  0  0  0  0  0  0  0
    2.1038   -1.0607   -1.0808 H   0  0  0  0  0  0  0  0  0  0  0  0
    0.0932   -2.1557    1.2824 H   0  0  0  0  0  0  0  0  0  0  0  0
   -2.3739   -0.8417   -1.2410 H   0  0  0  0  0  0  0  0  0  0  0  0
   -3.4368    1.6775   -0.0437 H   0  0  0  0  0  0  0  0  0  0  0  0
   -2.5757    2.1033    1.4573 H   0  0  0  0  0  0  0  0  0  0  0  0
   -1.6241    3.8293    0.2928 H   0  0  0  0  0  0  0  0  0  0  0  0
  1  5  1  0  0  0  0
  2  1  1  0  0  0  0
  2 16  1  0  0  0  0
  2  3  1  0  0  0  0
  2 24  1  6  0  0  0
  3 19  1  0  0  0  0
  3  4  1  0  0  0  0
  3 25  1  1  0  0  0
  4 20  1  0  0  0  0
  4  6  1  0  0  0  0
  4 26  1  6  0  0  0
  5 22  1  0  0  0  0
  5  6  1  0  0  0  0
  5 27  1  6  0  0  0
  6 21  1  0  0  0  0
  6 28  1  1  0  0  0
  7  8  1  0  0  0  0
  7  9  1  0  0  0  0
  7 13  1  0  0  0  0
  7 29  1  0  0  0  0
  8 10  1  0  0  0  0
  8 14  1  0  0  0  0
  8 30  1  1  0  0  0
  9 11  1  0  0  0  0
 10 12  1  0  0  0  0
 10 15  1  0  0  0  0
 10 31  1  6  0  0  0
 11 12  1  0  0  0  0
 11 17  1  0  0  0  0
 11 32  1  6  0  0  0
 12 16  1  0  0  0  0
 12 33  1  1  0  0  0
 13 34  1  0  0  0  0
 14 35  1  0  0  0  0
 15 36  1  0  0  0  0
 17 37  1  0  0  0  0
 17 38  1  0  0  0  0
 18 17  1  0  0  0  0
 18 39  1  0  0  0  0
 19 40  1  0  0  0  0
 20 41  1  0  0  0  0
 21 42  1  0  0  0  0
 22 23  1  0  0  0  0
 22 43  1  0  0  0  0
 22 44  1  0  0  0  0
 23 45  1  0  0  0  0
M  END
>  <DRUGBANK_ID>
DB02061

>  <SECONDARY_ACCESSION_NUMBERS>
EXPT00844

>  <COMMON_NAME>
Cellobiose

>  <CAS_NUMBER>
528-50-7

>  <UNII>
BM3MOX055H

>  <SYNONYMS>
1-beta-D-Glucopyranosyl-4-D-glucopyranose; 4-beta-d-glucopyranosyl-d-glucopyranose; 4-o-beta-d-glucopyranosyl-d-glucose; 4-O-β-D-glucopyranosyl-D-glucopyranose; 4-β-D-glucopyranosyl-D-glucopyranose; Cellose; D-(+)-cellobiose; D-cellobiose; D-glucosyl-β-(1-4)-D-glucose

$$$$
