1259
 OpenBabel10282417113D

 66 70  0  0  0  0  0  0  0  0999 V2000
   -1.7862    0.3358   -1.4781 Cl  0  0  0  0  0  0  0  0  0  0  0  0
   -1.6354   -1.8922   -6.9512 S   0  0  0  0  0  0  0  0  0  0  0  0
   -3.7336   -2.6921    4.5153 F   0  0  0  0  0  0  0  0  0  0  0  0
    3.1606    0.6122   -5.0606 O   0  0  0  0  0  0  0  0  0  0  0  0
   -2.7614   -1.3477   -6.2368 O   0  0  0  0  0  0  0  0  0  0  0  0
   -1.7963   -3.0892   -7.7756 O   0  0  0  0  0  0  0  0  0  0  0  0
   -0.3467   -2.3798   -0.2009 O   0  0  0  0  0  0  0  0  0  0  0  0
    0.4569    0.6676   -6.4170 N   0  0  0  0  0  0  0  0  0  0  0  0
    2.5059    2.4183   -0.0493 N   0  0  0  0  0  0  0  0  0  0  0  0
    6.6318    2.4528    0.0565 N   0  0  0  0  0  0  0  0  0  0  0  0
    4.5168    3.1372    0.9521 N   0  0  0  0  0  0  0  0  0  0  0  0
   -0.6643    0.6925   -7.3547 C   0  0  0  0  0  0  0  0  0  0  0  0
   -1.0087   -0.6221   -8.0469 C   0  0  0  0  0  0  0  0  0  0  0  0
    1.6851    0.1238   -6.9856 C   0  0  0  0  0  0  0  0  0  0  0  0
    2.6877   -0.2956   -5.9680 C   0  0  0  0  0  0  0  0  0  0  0  0
    4.7577    0.6864   -3.2441 C   0  0  0  0  0  0  0  0  0  0  0  0
    4.0985   -0.0444   -4.3086 C   0  0  0  0  0  0  0  0  0  0  0  0
    4.6226    1.9073   -1.1229 C   0  0  0  0  0  0  0  0  0  0  0  0
    4.0110    1.3251   -2.2655 C   0  0  0  0  0  0  0  0  0  0  0  0
    3.2928   -1.5214   -5.7720 C   0  0  0  0  0  0  0  0  0  0  0  0
    4.2055   -1.3555   -4.7160 C   0  0  0  0  0  0  0  0  0  0  0  0
    6.0104    1.8942   -0.9886 C   0  0  0  0  0  0  0  0  0  0  0  0
    6.1417    0.6568   -3.0924 C   0  0  0  0  0  0  0  0  0  0  0  0
    3.9113    2.5162   -0.0736 C   0  0  0  0  0  0  0  0  0  0  0  0
   -0.3732   -2.3027   -5.7497 C   0  0  0  0  0  0  0  0  0  0  0  0
    6.7499    1.2608   -1.9812 C   0  0  0  0  0  0  0  0  0  0  0  0
    1.7637    1.2191   -0.0028 C   0  0  0  0  0  0  0  0  0  0  0  0
    5.8550    3.0583    0.9682 C   0  0  0  0  0  0  0  0  0  0  0  0
    0.4124    1.2549   -0.3127 C   0  0  0  0  0  0  0  0  0  0  0  0
    2.3736   -0.0419    0.0869 C   0  0  0  0  0  0  0  0  0  0  0  0
    0.2817   -1.1718   -0.3361 C   0  0  0  0  0  0  0  0  0  0  0  0
   -0.2625    0.0780   -0.6667 C   0  0  0  0  0  0  0  0  0  0  0  0
    1.6389   -1.2219   -0.0273 C   0  0  0  0  0  0  0  0  0  0  0  0
   -1.7641   -2.4116    0.0297 C   0  0  0  0  0  0  0  0  0  0  0  0
   -2.2484   -1.7770    1.3341 C   0  0  0  0  0  0  0  0  0  0  0  0
   -2.8597   -2.5376    2.3263 C   0  0  0  0  0  0  0  0  0  0  0  0
   -2.1153   -0.4075    1.6309 C   0  0  0  0  0  0  0  0  0  0  0  0
   -3.2384   -1.9304    3.5343 C   0  0  0  0  0  0  0  0  0  0  0  0
   -2.5474    0.2167    2.7880 C   0  0  0  0  0  0  0  0  0  0  0  0
   -3.0913   -0.5643    3.7701 C   0  0  0  0  0  0  0  0  0  0  0  0
    0.2043    0.2165   -5.5449 H   0  0  0  0  0  0  0  0  0  0  0  0
    2.0510    3.2552    0.2900 H   0  0  0  0  0  0  0  0  0  0  0  0
   -1.5504    1.0734   -6.8326 H   0  0  0  0  0  0  0  0  0  0  0  0
   -0.4304    1.4469   -8.1182 H   0  0  0  0  0  0  0  0  0  0  0  0
   -1.8074   -0.4345   -8.7769 H   0  0  0  0  0  0  0  0  0  0  0  0
   -0.1795   -1.0325   -8.6290 H   0  0  0  0  0  0  0  0  0  0  0  0
    2.1107    0.8351   -7.6968 H   0  0  0  0  0  0  0  0  0  0  0  0
    1.4782   -0.7934   -7.5466 H   0  0  0  0  0  0  0  0  0  0  0  0
    2.9269    1.3250   -2.3648 H   0  0  0  0  0  0  0  0  0  0  0  0
    3.0994   -2.4226   -6.3362 H   0  0  0  0  0  0  0  0  0  0  0  0
    4.8531   -2.1001   -4.2777 H   0  0  0  0  0  0  0  0  0  0  0  0
    6.7632    0.1621   -3.8345 H   0  0  0  0  0  0  0  0  0  0  0  0
    0.5458   -2.5801   -6.2652 H   0  0  0  0  0  0  0  0  0  0  0  0
   -0.2131   -1.4948   -5.0405 H   0  0  0  0  0  0  0  0  0  0  0  0
   -0.7272   -3.1535   -5.1640 H   0  0  0  0  0  0  0  0  0  0  0  0
    7.8327    1.2239   -1.8861 H   0  0  0  0  0  0  0  0  0  0  0  0
    6.3675    3.5213    1.8060 H   0  0  0  0  0  0  0  0  0  0  0  0
   -0.1245    2.2006   -0.3205 H   0  0  0  0  0  0  0  0  0  0  0  0
    3.4455   -0.1305    0.2404 H   0  0  0  0  0  0  0  0  0  0  0  0
    2.1475   -2.1744    0.1072 H   0  0  0  0  0  0  0  0  0  0  0  0
   -2.2841   -2.0528   -0.8602 H   0  0  0  0  0  0  0  0  0  0  0  0
   -2.0332   -3.4791    0.0372 H   0  0  0  0  0  0  0  0  0  0  0  0
   -3.0218   -3.6037    2.1995 H   0  0  0  0  0  0  0  0  0  0  0  0
   -1.6276    0.3013    1.0049 H   0  0  0  0  0  0  0  0  0  0  0  0
   -2.3993    1.2896    2.8870 H   0  0  0  0  0  0  0  0  0  0  0  0
   -3.3690   -0.1129    4.7124 H   0  0  0  0  0  0  0  0  0  0  0  0
  1 32  1  0  0  0  0
  2  5  2  0  0  0  0
  2  6  2  0  0  0  0
  2 13  1  0  0  0  0
  2 25  1  0  0  0  0
  3 38  1  0  0  0  0
  4 15  1  0  0  0  0
  4 17  1  0  0  0  0
  7 31  1  0  0  0  0
  7 34  1  0  0  0  0
  8 12  1  0  0  0  0
  8 14  1  0  0  0  0
  8 41  1  0  0  0  0
  9 24  1  0  0  0  0
  9 27  1  0  0  0  0
  9 42  1  0  0  0  0
 10 22  1  0  0  0  0
 10 28  2  0  0  0  0
 11 24  2  0  0  0  0
 11 28  1  0  0  0  0
 12 13  1  0  0  0  0
 12 43  1  0  0  0  0
 12 44  1  0  0  0  0
 13 45  1  0  0  0  0
 13 46  1  0  0  0  0
 14 15  1  0  0  0  0
 14 47  1  0  0  0  0
 14 48  1  0  0  0  0
 15 20  2  0  0  0  0
 16 17  1  0  0  0  0
 16 19  2  0  0  0  0
 16 23  1  0  0  0  0
 17 21  2  0  0  0  0
 18 19  1  0  0  0  0
 18 22  2  0  0  0  0
 18 24  1  0  0  0  0
 19 49  1  0  0  0  0
 20 21  1  0  0  0  0
 20 50  1  0  0  0  0
 21 51  1  0  0  0  0
 22 26  1  0  0  0  0
 23 26  2  0  0  0  0
 23 52  1  0  0  0  0
 25 53  1  0  0  0  0
 25 54  1  0  0  0  0
 25 55  1  0  0  0  0
 26 56  1  0  0  0  0
 27 29  2  0  0  0  0
 27 30  1  0  0  0  0
 28 57  1  0  0  0  0
 29 32  1  0  0  0  0
 29 58  1  0  0  0  0
 30 33  2  0  0  0  0
 30 59  1  0  0  0  0
 31 32  2  0  0  0  0
 31 33  1  0  0  0  0
 33 60  1  0  0  0  0
 34 35  1  0  0  0  0
 34 61  1  0  0  0  0
 34 62  1  0  0  0  0
 35 36  2  0  0  0  0
 35 37  1  0  0  0  0
 36 38  1  0  0  0  0
 36 63  1  0  0  0  0
 37 39  2  0  0  0  0
 37 64  1  0  0  0  0
 38 40  2  0  0  0  0
 39 40  1  0  0  0  0
 39 65  1  0  0  0  0
 40 66  1  0  0  0  0
M  END
>  <DRUGBANK_ID>
DB01259

>  <SECONDARY_ACCESSION_NUMBERS>
DB02584

>  <COMMON_NAME>
Lapatinib

>  <CAS_NUMBER>
231277-92-2

>  <UNII>
0VUA21238F

>  <SYNONYMS>
Lapatinib; N-(3-chloro-4-((3-fluorophenyl)methoxy)phenyl)-6-(5-(((2-(methylsulfonyl)ethyl)amino)methyl)-2-furanyl)-4-quinazolinamine

$$$$
