455
 OpenBabel10282417103D

 50 53  0  0  0  0  0  0  0  0999 V2000
    1.0168    0.0434    0.0756 Cl  0  0  0  0  0  0  0  0  0  0  0  0
   11.2568   -3.4463   -3.0445 O   0  0  0  0  0  0  0  0  0  0  0  0
    9.3182   -4.2321   -3.7803 O   0  0  0  0  0  0  0  0  0  0  0  0
    9.1696   -2.8801   -1.9320 N   0  0  0  0  0  0  0  0  0  0  0  0
    8.7576    0.3163    1.6898 N   0  0  0  0  0  0  0  0  0  0  0  0
    7.6326   -0.6165   -0.9190 C   0  0  0  0  0  0  0  0  0  0  0  0
    7.0631   -1.5246   -2.0265 C   0  0  0  0  0  0  0  0  0  0  0  0
    9.1221   -0.5868   -1.0574 C   0  0  0  0  0  0  0  0  0  0  0  0
    6.9836    0.0710    0.0545 C   0  0  0  0  0  0  0  0  0  0  0  0
    7.6972   -2.9421   -1.9750 C   0  0  0  0  0  0  0  0  0  0  0  0
    9.6169   -2.0181   -0.8307 C   0  0  0  0  0  0  0  0  0  0  0  0
    5.5132    0.0337    0.0387 C   0  0  0  0  0  0  0  0  0  0  0  0
    7.7141    0.9262    1.0563 C   0  0  0  0  0  0  0  0  0  0  0  0
    4.8163    1.2155   -0.2540 C   0  0  0  0  0  0  0  0  0  0  0  0
    5.5783    2.4831   -0.5338 C   0  0  0  0  0  0  0  0  0  0  0  0
    6.1943    3.0198    0.7518 C   0  0  0  0  0  0  0  0  0  0  0  0
    7.3396    2.2446    1.3599 C   0  0  0  0  0  0  0  0  0  0  0  0
    4.8189   -1.1428    0.3385 C   0  0  0  0  0  0  0  0  0  0  0  0
    9.8952   -3.5368   -2.9333 C   0  0  0  0  0  0  0  0  0  0  0  0
    3.4206    1.2153   -0.2227 C   0  0  0  0  0  0  0  0  0  0  0  0
    8.0695    2.9215    2.3529 C   0  0  0  0  0  0  0  0  0  0  0  0
    3.4269   -1.1431    0.3348 C   0  0  0  0  0  0  0  0  0  0  0  0
    2.7355    0.0363    0.0615 C   0  0  0  0  0  0  0  0  0  0  0  0
    9.1429    2.3128    2.9810 C   0  0  0  0  0  0  0  0  0  0  0  0
    9.4516    1.0217    2.6112 C   0  0  0  0  0  0  0  0  0  0  0  0
   12.1570   -2.6264   -2.2840 C   0  0  0  0  0  0  0  0  0  0  0  0
   11.8809   -1.1617   -2.5692 C   0  0  0  0  0  0  0  0  0  0  0  0
    7.3026   -1.0719   -2.9999 H   0  0  0  0  0  0  0  0  0  0  0  0
    5.9761   -1.6144   -1.9973 H   0  0  0  0  0  0  0  0  0  0  0  0
    9.2989   -0.1922   -2.0642 H   0  0  0  0  0  0  0  0  0  0  0  0
    9.6622    0.0993   -0.4080 H   0  0  0  0  0  0  0  0  0  0  0  0
    7.3321   -3.5503   -2.8089 H   0  0  0  0  0  0  0  0  0  0  0  0
    7.3829   -3.4408   -1.0499 H   0  0  0  0  0  0  0  0  0  0  0  0
    9.2140   -2.4453    0.0958 H   0  0  0  0  0  0  0  0  0  0  0  0
   10.6750   -1.9945   -0.6521 H   0  0  0  0  0  0  0  0  0  0  0  0
    6.3452    2.3115   -1.3001 H   0  0  0  0  0  0  0  0  0  0  0  0
    4.9006    3.2365   -0.9509 H   0  0  0  0  0  0  0  0  0  0  0  0
    6.5601    4.0307    0.5293 H   0  0  0  0  0  0  0  0  0  0  0  0
    5.4166    3.1208    1.5215 H   0  0  0  0  0  0  0  0  0  0  0  0
    5.3642   -2.0580    0.5601 H   0  0  0  0  0  0  0  0  0  0  0  0
    2.8732    2.1346   -0.4118 H   0  0  0  0  0  0  0  0  0  0  0  0
    7.7909    3.9347    2.6360 H   0  0  0  0  0  0  0  0  0  0  0  0
    2.8918   -2.0624    0.5504 H   0  0  0  0  0  0  0  0  0  0  0  0
    9.7122    2.8343    3.7415 H   0  0  0  0  0  0  0  0  0  0  0  0
   10.2900    0.5006    3.0644 H   0  0  0  0  0  0  0  0  0  0  0  0
   12.1034   -2.9549   -1.2420 H   0  0  0  0  0  0  0  0  0  0  0  0
   13.1869   -2.8469   -2.5775 H   0  0  0  0  0  0  0  0  0  0  0  0
   10.8245   -1.0079   -2.7347 H   0  0  0  0  0  0  0  0  0  0  0  0
   12.2235   -0.5111   -1.7590 H   0  0  0  0  0  0  0  0  0  0  0  0
   12.2935   -0.8345   -3.5225 H   0  0  0  0  0  0  0  0  0  0  0  0
  1 23  1  0  0  0  0
  2 19  1  0  0  0  0
  2 26  1  0  0  0  0
  3 19  2  0  0  0  0
  4 10  1  0  0  0  0
  4 11  1  0  0  0  0
  4 19  1  0  0  0  0
  5 13  1  0  0  0  0
  5 25  2  0  0  0  0
  6  7  1  0  0  0  0
  6  8  1  0  0  0  0
  6  9  2  0  0  0  0
  7 10  1  0  0  0  0
  7 28  1  0  0  0  0
  7 29  1  0  0  0  0
  8 11  1  0  0  0  0
  8 30  1  0  0  0  0
  8 31  1  0  0  0  0
  9 12  1  0  0  0  0
  9 13  1  0  0  0  0
 10 32  1  0  0  0  0
 10 33  1  0  0  0  0
 11 34  1  0  0  0  0
 11 35  1  0  0  0  0
 12 14  2  0  0  0  0
 12 18  1  0  0  0  0
 13 17  2  0  0  0  0
 14 15  1  0  0  0  0
 14 20  1  0  0  0  0
 15 16  1  0  0  0  0
 15 36  1  0  0  0  0
 15 37  1  0  0  0  0
 16 17  1  0  0  0  0
 16 38  1  0  0  0  0
 16 39  1  0  0  0  0
 17 21  1  0  0  0  0
 18 22  2  0  0  0  0
 18 40  1  0  0  0  0
 20 23  2  0  0  0  0
 20 41  1  0  0  0  0
 21 24  2  0  0  0  0
 21 42  1  0  0  0  0
 22 23  1  0  0  0  0
 22 43  1  0  0  0  0
 24 25  1  0  0  0  0
 24 44  1  0  0  0  0
 25 45  1  0  0  0  0
 26 27  1  0  0  0  0
 26 46  1  0  0  0  0
 26 47  1  0  0  0  0
 27 48  1  0  0  0  0
 27 49  1  0  0  0  0
 27 50  1  0  0  0  0
M  END
>  <DRUGBANK_ID>
DB00455

>  <SECONDARY_ACCESSION_NUMBERS>
APRD00384

>  <COMMON_NAME>
Loratadine

>  <CAS_NUMBER>
79794-75-5

>  <UNII>
7AJO3BO7QN

>  <SYNONYMS>
Loratadina; Loratadine; Loratadinum

$$$$
