
 OpenBabel10282417193D

 60 64  0  0  1  0  0  0  0  0999 V2000
    1.0835    0.0563   -0.0688 C   0  0  0  0  0  0  0  0  0  0  0  0
    0.9080    7.1616   -2.6559 C   0  0  0  0  0  0  0  0  0  0  0  0
    2.0350    6.3837   -2.3765 C   0  0  0  0  0  0  0  0  0  0  0  0
   -0.3659    6.5952   -2.6019 C   0  0  0  0  0  0  0  0  0  0  0  0
    1.8958    5.0336   -2.0439 C   0  0  0  0  0  0  0  0  0  0  0  0
   -0.5140    5.2478   -2.2702 C   0  0  0  0  0  0  0  0  0  0  0  0
   -2.2362    1.4226   -5.5929 C   0  0  0  0  0  0  0  0  0  0  0  0
   -0.1622    2.3084   -6.3554 C   0  0  0  0  0  0  0  0  0  0  0  0
   -2.0671    2.0894   -4.2353 C   0  0  0  0  0  0  0  0  0  0  0  0
    0.1332    3.0454   -5.0242 C   0  0  0  0  0  0  0  0  0  0  0  0
   -6.3075    3.1391   -4.5515 C   0  0  0  0  0  0  0  0  0  0  0  0
   -5.8719    2.4844   -3.2411 C   0  0  0  0  0  0  0  0  0  0  0  0
   -0.0996    0.9450   -2.1683 C   0  0  0  0  0  0  0  0  0  0  0  0
   -3.7233    3.4011   -7.3986 C   0  0  0  0  0  0  0  0  0  0  0  0
   -2.1119    4.7068   -6.1934 C   0  0  0  0  0  0  0  0  0  0  0  0
   -4.7028    4.7726   -3.8321 C   0  0  0  0  0  0  0  0  0  0  0  0
    0.6706    1.1204   -1.0089 C   0  0  0  0  0  0  0  0  0  0  0  0
    0.6205    4.4625   -2.0247 C   0  0  0  0  0  0  0  0  0  0  0  0
   -2.2270    3.4539   -7.0805 C   0  0  1  0  0  0  0  0  0  0  0  0
   -4.2534    4.8176   -7.1269 C   0  0  1  0  0  0  0  0  0  0  0  0
   -0.1635    2.1859   -2.7445 C   0  0  0  0  0  0  0  0  0  0  0  0
   -5.4924    4.7813   -6.1821 C   0  0  0  0  0  0  0  0  0  0  0  0
   -3.1609    5.6437   -6.5822 N   0  0  0  0  0  0  0  0  0  0  0  0
    1.0835    2.3871   -0.8544 N   0  0  0  0  0  0  0  0  0  0  0  0
   -1.6012    2.1597   -6.7081 N   0  0  0  0  0  0  0  0  0  0  0  0
   -0.7033    2.5173   -3.9425 N   0  0  0  0  0  0  0  0  0  0  0  0
   -5.3057    4.1074   -4.9657 N   0  0  0  0  0  0  0  0  0  0  0  0
    0.4925    3.0595   -1.8803 N   0  0  0  0  0  0  0  0  0  0  0  0
   -6.5911    5.1069   -6.5897 O   0  0  0  0  0  0  0  0  0  0  0  0
   -4.5298    3.4889   -2.5673 S   0  0  0  0  0  0  0  0  0  0  0  0
   -1.7376    3.7284   -8.0267 H   0  0  0  0  0  0  0  0  0  0  0  0
   -4.5694    5.2758   -8.0718 H   0  0  0  0  0  0  0  0  0  0  0  0
    0.7048   -0.9196   -0.3957 H   0  0  0  0  0  0  0  0  0  0  0  0
    0.6959    0.2478    0.9354 H   0  0  0  0  0  0  0  0  0  0  0  0
    2.1740   -0.0038   -0.0304 H   0  0  0  0  0  0  0  0  0  0  0  0
    1.0232    8.2130   -2.9092 H   0  0  0  0  0  0  0  0  0  0  0  0
    3.0255    6.8274   -2.4396 H   0  0  0  0  0  0  0  0  0  0  0  0
   -1.2409    7.1997   -2.8282 H   0  0  0  0  0  0  0  0  0  0  0  0
    2.7783    4.4228   -1.8703 H   0  0  0  0  0  0  0  0  0  0  0  0
   -1.5103    4.8217   -2.1804 H   0  0  0  0  0  0  0  0  0  0  0  0
   -3.3014    1.2499   -5.7746 H   0  0  0  0  0  0  0  0  0  0  0  0
   -1.8089    0.4124   -5.5324 H   0  0  0  0  0  0  0  0  0  0  0  0
    0.2625    1.2972   -6.2656 H   0  0  0  0  0  0  0  0  0  0  0  0
    0.3763    2.7766   -7.1861 H   0  0  0  0  0  0  0  0  0  0  0  0
   -2.6809    2.9728   -4.2514 H   0  0  0  0  0  0  0  0  0  0  0  0
   -2.4842    1.4562   -3.4453 H   0  0  0  0  0  0  0  0  0  0  0  0
   -0.0399    4.1157   -5.1133 H   0  0  0  0  0  0  0  0  0  0  0  0
    1.2040    2.9745   -4.7995 H   0  0  0  0  0  0  0  0  0  0  0  0
   -7.2887    3.6128   -4.4376 H   0  0  0  0  0  0  0  0  0  0  0  0
   -6.4015    2.3945   -5.3522 H   0  0  0  0  0  0  0  0  0  0  0  0
   -6.6680    2.5180   -2.4974 H   0  0  0  0  0  0  0  0  0  0  0  0
   -5.5799    1.4376   -3.3881 H   0  0  0  0  0  0  0  0  0  0  0  0
   -0.4954    0.0309   -2.5859 H   0  0  0  0  0  0  0  0  0  0  0  0
   -3.8792    3.1063   -8.4435 H   0  0  0  0  0  0  0  0  0  0  0  0
   -4.2669    2.6692   -6.7992 H   0  0  0  0  0  0  0  0  0  0  0  0
   -2.2444    4.5113   -5.1402 H   0  0  0  0  0  0  0  0  0  0  0  0
   -1.1469    5.2032   -6.3007 H   0  0  0  0  0  0  0  0  0  0  0  0
   -3.7718    5.2805   -4.0733 H   0  0  0  0  0  0  0  0  0  0  0  0
   -5.3829    5.5134   -3.4093 H   0  0  0  0  0  0  0  0  0  0  0  0
   -2.7851    6.2271   -7.3299 H   0  0  0  0  0  0  0  0  0  0  0  0
  1 33  1  0  0  0  0
  1 34  1  0  0  0  0
  1 35  1  0  0  0  0
  2 36  1  0  0  0  0
  3  2  2  0  0  0  0
  3 37  1  0  0  0  0
  4  2  1  0  0  0  0
  4 38  1  0  0  0  0
  5  3  1  0  0  0  0
  5 39  1  0  0  0  0
  6  4  2  0  0  0  0
  6 40  1  0  0  0  0
  7 41  1  0  0  0  0
  7 42  1  0  0  0  0
  8 43  1  0  0  0  0
  8 44  1  0  0  0  0
  9  7  1  0  0  0  0
  9 45  1  0  0  0  0
  9 46  1  0  0  0  0
 10  8  1  0  0  0  0
 10 47  1  0  0  0  0
 10 48  1  0  0  0  0
 11 49  1  0  0  0  0
 11 50  1  0  0  0  0
 12 11  1  0  0  0  0
 12 51  1  0  0  0  0
 12 52  1  0  0  0  0
 13 53  1  0  0  0  0
 14 54  1  0  0  0  0
 14 55  1  0  0  0  0
 15 56  1  0  0  0  0
 15 57  1  0  0  0  0
 16 58  1  0  0  0  0
 16 59  1  0  0  0  0
 17  1  1  0  0  0  0
 17 13  1  0  0  0  0
 18  5  2  0  0  0  0
 18  6  1  0  0  0  0
 19 14  1  0  0  0  0
 19 15  1  0  0  0  0
 19 25  1  0  0  0  0
 19 31  1  6  0  0  0
 20 14  1  0  0  0  0
 20 32  1  6  0  0  0
 20 22  1  0  0  0  0
 21 13  2  0  0  0  0
 23 15  1  0  0  0  0
 23 20  1  0  0  0  0
 23 60  1  0  0  0  0
 24 17  2  0  0  0  0
 25  7  1  0  0  0  0
 25  8  1  0  0  0  0
 26  9  1  0  0  0  0
 26 10  1  0  0  0  0
 26 21  1  0  0  0  0
 27 11  1  0  0  0  0
 27 16  1  0  0  0  0
 27 22  1  0  0  0  0
 28 18  1  0  0  0  0
 28 21  1  0  0  0  0
 28 24  1  0  0  0  0
 29 22  2  0  0  0  0
 30 12  1  0  0  0  0
 30 16  1  0  0  0  0
M  END
>  <DRUGBANK_ID>
DB11950

>  <COMMON_NAME>
Teneligliptin

>  <CAS_NUMBER>
760937-92-6

>  <UNII>
28ZHI4CF9C

>  <SYNONYMS>
Teneligliptin

$$$$
