
 OpenBabel10282417103D

 41 43  0  0  0  0  0  0  0  0999 V2000
   -0.4909    0.8182   -0.6682 C   0  0  2  0  0  0  0  0  0  0  0  0
   -0.5600   -0.6025   -0.3396 N   0  0  0  0  0  0  0  0  0  0  0  0
    0.5222   -1.4205   -0.1298 C   0  0  0  0  0  0  0  0  0  0  0  0
    1.7504   -0.8473   -0.0375 C   0  0  0  0  0  0  0  0  0  0  0  0
    1.9801    0.6575    0.0664 C   0  0  0  0  0  0  0  0  0  0  0  0
    0.5317    1.6308    0.5570 S   0  0  0  0  0  0  0  0  0  0  0  0
   -2.0092    0.8210   -0.4740 C   0  0  1  0  0  0  0  0  0  0  0  0
   -1.8249   -0.5614    0.1442 C   0  0  0  0  0  0  0  0  0  0  0  0
   -2.7329    1.9374    0.1612 N   0  0  0  0  0  0  0  0  0  0  0  0
   -3.7849    2.6431   -0.4111 C   0  0  0  0  0  0  0  0  0  0  0  0
   -4.2851    3.5774    0.2237 O   0  0  0  0  0  0  0  0  0  0  0  0
   -2.5249   -1.3339    0.7637 O   0  0  0  0  0  0  0  0  0  0  0  0
   -4.3047    2.2679   -1.8576 C   0  0  1  0  0  0  0  0  0  0  0  0
    3.0795   -1.5615    0.0103 C   0  0  0  0  0  0  0  0  0  0  0  0
    0.2505   -2.9141   -0.0705 C   0  0  0  0  0  0  0  0  0  0  0  0
   -0.8027   -3.4652   -0.3409 O   0  0  0  0  0  0  0  0  0  0  0  0
    1.3168   -3.6587    0.2739 O   0  0  0  0  0  0  0  0  0  0  0  0
   -3.2201    2.4617   -2.9210 C   0  0  0  0  0  0  0  0  0  0  0  0
   -2.7917    3.7609   -3.2240 C   0  0  0  0  0  0  0  0  0  0  0  0
   -1.6605    3.9633   -4.0178 C   0  0  0  0  0  0  0  0  0  0  0  0
   -0.9141    2.8769   -4.4722 C   0  0  0  0  0  0  0  0  0  0  0  0
   -1.3241    1.5855   -4.1793 C   0  0  0  0  0  0  0  0  0  0  0  0
   -2.5256    1.3849   -3.5086 C   0  0  0  0  0  0  0  0  0  0  0  0
   -4.9228    0.9257   -1.8530 N   0  0  0  0  0  0  0  0  0  0  0  0
   -0.1913    1.0269   -1.7019 H   0  0  0  0  0  0  0  0  0  0  0  0
    2.7221    0.8554    0.8440 H   0  0  0  0  0  0  0  0  0  0  0  0
    2.3719    1.0289   -0.8871 H   0  0  0  0  0  0  0  0  0  0  0  0
   -2.4677    0.6174   -1.4163 H   0  0  0  0  0  0  0  0  0  0  0  0
   -2.4788    2.2705    1.0875 H   0  0  0  0  0  0  0  0  0  0  0  0
   -5.1216    2.9623   -2.0945 H   0  0  0  0  0  0  0  0  0  0  0  0
    3.6946   -1.2221   -0.8285 H   0  0  0  0  0  0  0  0  0  0  0  0
    3.5913   -1.3348    0.9502 H   0  0  0  0  0  0  0  0  0  0  0  0
    3.0659   -2.6405   -0.0869 H   0  0  0  0  0  0  0  0  0  0  0  0
    1.0599   -4.6009    0.2128 H   0  0  0  0  0  0  0  0  0  0  0  0
   -3.3261    4.6237   -2.8273 H   0  0  0  0  0  0  0  0  0  0  0  0
   -1.3388    4.9744   -4.2520 H   0  0  0  0  0  0  0  0  0  0  0  0
   -0.0181    3.0331   -5.0650 H   0  0  0  0  0  0  0  0  0  0  0  0
   -0.6996    0.7329   -4.4357 H   0  0  0  0  0  0  0  0  0  0  0  0
   -2.8399    0.3548   -3.3480 H   0  0  0  0  0  0  0  0  0  0  0  0
   -5.1604    0.6704   -2.8085 H   0  0  0  0  0  0  0  0  0  0  0  0
   -4.2825    0.2159   -1.5135 H   0  0  0  0  0  0  0  0  0  0  0  0
  1  2  1  0  0  0  0
  1  6  1  0  0  0  0
  1  7  1  0  0  0  0
  1 25  1  6  0  0  0
  2  3  1  0  0  0  0
  2  8  1  0  0  0  0
  3  4  2  0  0  0  0
  3 15  1  0  0  0  0
  4  5  1  0  0  0  0
  4 14  1  0  0  0  0
  5  6  1  0  0  0  0
  5 26  1  0  0  0  0
  5 27  1  0  0  0  0
  7  8  1  0  0  0  0
  7  9  1  0  0  0  0
  7 28  1  6  0  0  0
  8 12  2  0  0  0  0
  9 10  1  0  0  0  0
  9 29  1  0  0  0  0
 10 11  2  0  0  0  0
 10 13  1  0  0  0  0
 13 18  1  0  0  0  0
 13 24  1  0  0  0  0
 13 30  1  6  0  0  0
 14 31  1  0  0  0  0
 14 32  1  0  0  0  0
 14 33  1  0  0  0  0
 15 16  2  0  0  0  0
 15 17  1  0  0  0  0
 17 34  1  0  0  0  0
 18 19  2  0  0  0  0
 18 23  1  0  0  0  0
 19 20  1  0  0  0  0
 19 35  1  0  0  0  0
 20 21  2  0  0  0  0
 20 36  1  0  0  0  0
 21 22  1  0  0  0  0
 21 37  1  0  0  0  0
 22 23  2  0  0  0  0
 22 38  1  0  0  0  0
 23 39  1  0  0  0  0
 24 40  1  0  0  0  0
 24 41  1  0  0  0  0
M  END
>  <DRUGBANK_ID>
DB00567

>  <SECONDARY_ACCESSION_NUMBERS>
APRD00250

>  <COMMON_NAME>
Cephalexin

>  <CAS_NUMBER>
15686-71-2

>  <UNII>
5SFF1W6677

>  <SYNONYMS>
(6R,7R)-7-{[(2R)-2-amino-2-phenylacetyl]amino}-3-methyl-8-oxo-5-thia-1-azabicyclo[4.2.0]oct-2-ene-2-carboxylic acid; 7-(D-alpha-Aminophenylacetamido)desacetoxycephalosporanic acid; 7-beta-(D-alpha-Amino-alpha-phenylacetylamino)-3-methyl-3-cephem-4-carboxylic acid; Anhydrous cefalexin; Anhydrous cephalexin; Cefalexin; Cefalexin anhydrous; Cefalexina; CÃ©falexine; Cefalexinum; Cephalexin anhydrous

$$$$
