
 OpenBabel10282417183D

 32 33  0  0  0  0  0  0  0  0999 V2000
    1.1004    0.0080    0.0727 C   0  0  0  0  0  0  0  0  0  0  0  0
    0.5468    1.1242   -0.7895 C   0  0  0  0  0  0  0  0  0  0  0  0
    0.9239    0.9515   -2.1970 N   0  0  0  0  0  0  0  0  0  0  0  0
    0.4750    2.0791   -3.0732 C   0  0  3  0  0  0  0  0  0  0  0  0
   -0.9933    2.4923   -2.7947 C   0  0  0  0  0  0  0  0  0  0  0  0
   -1.3827    3.8005   -3.4850 C   0  0  0  0  0  0  0  0  0  0  0  0
   -0.4863    4.9304   -3.0096 C   0  0  0  0  0  0  0  0  0  0  0  0
    0.9840    4.6521   -3.2840 C   0  0  0  0  0  0  0  0  0  0  0  0
    1.4162    3.2942   -2.7770 C   0  0  0  0  0  0  0  0  0  0  0  0
    2.5155    3.1628   -2.2335 O   0  0  0  0  0  0  0  0  0  0  0  0
    0.6812    1.6688   -4.5518 C   0  0  0  0  0  0  0  0  0  0  0  0
    1.8600    1.3474   -5.2088 C   0  0  0  0  0  0  0  0  0  0  0  0
    1.6799    1.1416   -6.6121 C   0  0  0  0  0  0  0  0  0  0  0  0
    0.3719    1.3005   -6.9991 C   0  0  0  0  0  0  0  0  0  0  0  0
   -0.6448    1.4782   -5.6565 S   0  0  0  0  0  0  0  0  0  0  0  0
    0.7455   -0.9639   -0.2832 H   0  0  0  0  0  0  0  0  0  0  0  0
    0.7465    0.1388    1.1013 H   0  0  0  0  0  0  0  0  0  0  0  0
    2.1936    0.0083    0.0825 H   0  0  0  0  0  0  0  0  0  0  0  0
   -0.5396    1.0771   -0.6825 H   0  0  0  0  0  0  0  0  0  0  0  0
    0.8951    2.0861   -0.3942 H   0  0  0  0  0  0  0  0  0  0  0  0
    1.9510    0.9587   -2.2362 H   0  0  0  0  0  0  0  0  0  0  0  0
   -1.1729    2.6686   -1.7292 H   0  0  0  0  0  0  0  0  0  0  0  0
   -1.6758    1.6791   -3.0750 H   0  0  0  0  0  0  0  0  0  0  0  0
   -2.4335    4.0164   -3.2702 H   0  0  0  0  0  0  0  0  0  0  0  0
   -1.3034    3.7515   -4.5714 H   0  0  0  0  0  0  0  0  0  0  0  0
   -0.6434    5.0824   -1.9355 H   0  0  0  0  0  0  0  0  0  0  0  0
   -0.7781    5.8531   -3.5203 H   0  0  0  0  0  0  0  0  0  0  0  0
    1.5895    5.4163   -2.7828 H   0  0  0  0  0  0  0  0  0  0  0  0
    1.2084    4.6935   -4.3543 H   0  0  0  0  0  0  0  0  0  0  0  0
    2.8179    1.2895   -4.7064 H   0  0  0  0  0  0  0  0  0  0  0  0
    2.4722    0.9057   -7.3090 H   0  0  0  0  0  0  0  0  0  0  0  0
   -0.0505    1.2518   -7.9937 H   0  0  0  0  0  0  0  0  0  0  0  0
  1  2  1  0  0  0  0
  1 16  1  0  0  0  0
  1 17  1  0  0  0  0
  1 18  1  0  0  0  0
  2  3  1  0  0  0  0
  2 19  1  0  0  0  0
  2 20  1  0  0  0  0
  3  4  1  0  0  0  0
  3 21  1  0  0  0  0
  4  5  1  0  0  0  0
  4  9  1  0  0  0  0
  4 11  1  0  0  0  0
  5  6  1  0  0  0  0
  5 22  1  0  0  0  0
  5 23  1  0  0  0  0
  6  7  1  0  0  0  0
  6 24  1  0  0  0  0
  6 25  1  0  0  0  0
  7  8  1  0  0  0  0
  7 26  1  0  0  0  0
  7 27  1  0  0  0  0
  8  9  1  0  0  0  0
  8 28  1  0  0  0  0
  8 29  1  0  0  0  0
  9 10  2  0  0  0  0
 11 12  2  0  0  0  0
 11 15  1  0  0  0  0
 12 13  1  0  0  0  0
 12 30  1  0  0  0  0
 13 14  2  0  0  0  0
 13 31  1  0  0  0  0
 14 15  1  0  0  0  0
 14 32  1  0  0  0  0
M  END
>  <DRUGBANK_ID>
DB11549

>  <COMMON_NAME>
Tiletamine

>  <CAS_NUMBER>
14176-49-9

>  <UNII>
2YFC543249

>  <SYNONYMS>
Tiletamine

$$$$
