1324
 OpenBabel10282417113D

 38 39  0  0  1  0  0  0  0  0999 V2000
    0.9706    0.2058   -0.0841 Cl  0  0  0  0  0  0  0  0  0  0  0  0
    7.0720   -0.0391   -0.2618 S   0  0  0  0  0  0  0  0  0  0  0  0
    8.9162    1.8681    2.5596 S   0  0  0  0  0  0  0  0  0  0  0  0
    2.6211   -2.8439    0.0156 S   0  0  0  0  0  0  0  0  0  0  0  0
    8.2333   -1.8441    1.4770 F   0  0  0  0  0  0  0  0  0  0  0  0
   10.3278   -1.9999    1.4106 F   0  0  0  0  0  0  0  0  0  0  0  0
    9.3270   -1.5169    3.3084 F   0  0  0  0  0  0  0  0  0  0  0  0
    7.6033   -1.0239   -1.1450 O   0  0  0  0  0  0  0  0  0  0  0  0
    7.2225   -0.1084    1.1784 O   0  0  0  0  0  0  0  0  0  0  0  0
    2.9567   -3.5108   -1.2222 O   0  0  0  0  0  0  0  0  0  0  0  0
    2.9335   -3.4258    1.2998 O   0  0  0  0  0  0  0  0  0  0  0  0
    7.5656    1.5019   -0.7079 N   0  0  0  0  0  0  0  0  0  0  0  0
    5.5008    2.4445   -0.0869 N   0  0  0  0  0  0  0  0  0  0  0  0
    0.9721   -2.6338   -0.0313 N   0  0  0  0  0  0  0  0  0  0  0  0
    6.9452    2.4680    0.2119 C   0  0  3  0  0  0  0  0  0  0  0  0
    5.3695    0.0064   -0.3156 C   0  0  0  0  0  0  0  0  0  0  0  0
    4.7839    1.2603   -0.2584 C   0  0  0  0  0  0  0  0  0  0  0  0
    7.1889    2.2573    1.7813 C   0  0  0  0  0  0  0  0  0  0  0  0
    9.0130    1.6686   -0.8387 C   0  0  0  0  0  0  0  0  0  0  0  0
    4.7206   -1.2232   -0.1505 C   0  0  0  0  0  0  0  0  0  0  0  0
    3.4032    1.2253   -0.1778 C   0  0  0  0  0  0  0  0  0  0  0  0
    3.3422   -1.2319   -0.0598 C   0  0  0  0  0  0  0  0  0  0  0  0
    2.6796    0.0005   -0.1030 C   0  0  0  0  0  0  0  0  0  0  0  0
    9.7002    0.2238    1.7398 C   0  0  0  0  0  0  0  0  0  0  0  0
    9.3321   -1.2658    1.9883 C   0  0  0  0  0  0  0  0  0  0  0  0
    5.1103    3.3028   -0.4606 H   0  0  0  0  0  0  0  0  0  0  0  0
    0.6773   -2.0721   -0.8293 H   0  0  0  0  0  0  0  0  0  0  0  0
    0.4655   -3.5104    0.0688 H   0  0  0  0  0  0  0  0  0  0  0  0
    7.3454    3.4615   -0.0338 H   0  0  0  0  0  0  0  0  0  0  0  0
    6.8521    3.1899    2.2643 H   0  0  0  0  0  0  0  0  0  0  0  0
    6.4637    1.5624    2.2272 H   0  0  0  0  0  0  0  0  0  0  0  0
    9.3804    1.8868    0.1434 H   0  0  0  0  0  0  0  0  0  0  0  0
    9.4891    0.7656   -1.2402 H   0  0  0  0  0  0  0  0  0  0  0  0
    9.3810    2.5433   -1.3657 H   0  0  0  0  0  0  0  0  0  0  0  0
    5.3120   -2.1395   -0.0465 H   0  0  0  0  0  0  0  0  0  0  0  0
    2.8613    2.1662   -0.1425 H   0  0  0  0  0  0  0  0  0  0  0  0
    9.9814    0.3003    0.6905 H   0  0  0  0  0  0  0  0  0  0  0  0
   10.7118    0.3317    2.1552 H   0  0  0  0  0  0  0  0  0  0  0  0
  1 23  1  0  0  0  0
  2  8  2  0  0  0  0
  2  9  2  0  0  0  0
  2 12  1  0  0  0  0
  2 16  1  0  0  0  0
  3 18  1  0  0  0  0
  3 24  1  0  0  0  0
  4 10  2  0  0  0  0
  4 11  2  0  0  0  0
  4 14  1  0  0  0  0
  4 22  1  0  0  0  0
  5 25  1  0  0  0  0
  6 25  1  0  0  0  0
  7 25  1  0  0  0  0
 12 15  1  0  0  0  0
 12 19  1  0  0  0  0
 13 15  1  0  0  0  0
 13 17  1  0  0  0  0
 13 26  1  0  0  0  0
 14 27  1  0  0  0  0
 14 28  1  0  0  0  0
 15 18  1  0  0  0  0
 15 29  1  0  0  0  0
 16 17  1  0  0  0  0
 16 20  2  0  0  0  0
 17 21  2  0  0  0  0
 18 30  1  0  0  0  0
 18 31  1  0  0  0  0
 19 32  1  0  0  0  0
 19 33  1  0  0  0  0
 19 34  1  0  0  0  0
 20 22  1  0  0  0  0
 20 35  1  0  0  0  0
 21 23  1  0  0  0  0
 21 36  1  0  0  0  0
 22 23  2  0  0  0  0
 24 25  1  0  0  0  0
 24 37  1  0  0  0  0
 24 38  1  0  0  0  0
M  END
>  <DRUGBANK_ID>
DB01324

>  <COMMON_NAME>
Polythiazide

>  <CAS_NUMBER>
346-18-9

>  <UNII>
36780APV5N

>  <SYNONYMS>
Polythiazide

$$$$
