
 OpenBabel10282417193D

 48 50  0  0  0  0  0  0  0  0999 V2000
    1.0675   -0.2010   -0.1451 C   0  0  0  0  0  0  0  0  0  0  0  0
    0.4791   -0.7254    1.1609 C   0  0  0  0  0  0  0  0  0  0  0  0
    0.9594   -0.0289    2.4208 C   0  0  0  0  0  0  0  0  0  0  0  0
    1.5314   -0.5880    3.6001 C   0  0  0  0  0  0  0  0  0  0  0  0
    1.6726    0.5304    4.5283 C   0  0  0  0  0  0  0  0  0  0  0  0
    1.3181    1.6970    3.8465 C   0  0  0  0  0  0  0  0  0  0  0  0
    0.8029    1.3451    2.6103 N   0  0  0  0  0  0  0  0  0  0  0  0
    0.2078    2.3174    1.6666 C   0  0  0  0  0  0  0  0  0  0  0  0
   -1.0872    2.9435    2.1140 C   0  0  0  0  0  0  0  0  0  0  0  0
   -1.1571    3.7816    3.2199 C   0  0  0  0  0  0  0  0  0  0  0  0
   -2.3459    4.1044    3.8352 C   0  0  0  0  0  0  0  0  0  0  0  0
   -3.5156    3.8640    3.1524 C   0  0  0  0  0  0  0  0  0  0  0  0
   -3.4677    3.2710    1.8907 C   0  0  0  0  0  0  0  0  0  0  0  0
   -2.2738    2.7306    1.4102 C   0  0  0  0  0  0  0  0  0  0  0  0
    1.4943    2.9581    4.4538 C   0  0  0  0  0  0  0  0  0  0  0  0
    1.7550    3.0834    5.8052 C   0  0  0  0  0  0  0  0  0  0  0  0
    2.0755    1.9667    6.5102 C   0  0  0  0  0  0  0  0  0  0  0  0
    2.0994    0.7306    5.8774 C   0  0  0  0  0  0  0  0  0  0  0  0
    2.5034   -0.3370    6.5673 O   0  0  0  0  0  0  0  0  0  0  0  0
    3.1111   -0.3189    7.8381 C   0  0  0  0  0  0  0  0  0  0  0  0
    4.3748    0.5036    7.9145 C   0  0  0  0  0  0  0  0  0  0  0  0
    4.5279    1.4956    8.6120 O   0  0  0  0  0  0  0  0  0  0  0  0
    5.3510    0.0881    7.0820 O   0  0  0  0  0  0  0  0  0  0  0  0
    1.8628   -2.0548    3.7665 C   0  0  0  0  0  0  0  0  0  0  0  0
    1.6735   -2.8578    2.8424 O   0  0  0  0  0  0  0  0  0  0  0  0
    2.4671   -2.7660    5.0089 C   0  0  0  0  0  0  0  0  0  0  0  0
    2.8260   -2.3301    6.0897 O   0  0  0  0  0  0  0  0  0  0  0  0
    2.7004   -4.0976    5.0274 N   0  0  0  0  0  0  0  0  0  0  0  0
    0.7876    0.8132   -0.4176 H   0  0  0  0  0  0  0  0  0  0  0  0
    0.7116   -0.8102   -0.9803 H   0  0  0  0  0  0  0  0  0  0  0  0
    2.1586   -0.2112   -0.1122 H   0  0  0  0  0  0  0  0  0  0  0  0
   -0.6181   -0.7064    1.1419 H   0  0  0  0  0  0  0  0  0  0  0  0
    0.7452   -1.7822    1.1828 H   0  0  0  0  0  0  0  0  0  0  0  0
    0.9801    3.0438    1.3904 H   0  0  0  0  0  0  0  0  0  0  0  0
   -0.0723    1.7893    0.7693 H   0  0  0  0  0  0  0  0  0  0  0  0
   -0.2935    4.2366    3.6504 H   0  0  0  0  0  0  0  0  0  0  0  0
   -2.3175    4.5818    4.8093 H   0  0  0  0  0  0  0  0  0  0  0  0
   -4.4510    4.1868    3.5903 H   0  0  0  0  0  0  0  0  0  0  0  0
   -4.3676    3.2155    1.2893 H   0  0  0  0  0  0  0  0  0  0  0  0
   -2.2798    2.1656    0.4796 H   0  0  0  0  0  0  0  0  0  0  0  0
    1.4146    3.8763    3.8966 H   0  0  0  0  0  0  0  0  0  0  0  0
    1.7567    4.0458    6.3023 H   0  0  0  0  0  0  0  0  0  0  0  0
    2.3570    2.0779    7.5477 H   0  0  0  0  0  0  0  0  0  0  0  0
    2.3701   -0.0207    8.5827 H   0  0  0  0  0  0  0  0  0  0  0  0
    3.3910   -1.3477    8.1034 H   0  0  0  0  0  0  0  0  0  0  0  0
    6.0425    0.7770    7.1406 H   0  0  0  0  0  0  0  0  0  0  0  0
    2.5560   -4.7364    4.2698 H   0  0  0  0  0  0  0  0  0  0  0  0
    3.1065   -4.3505    5.9228 H   0  0  0  0  0  0  0  0  0  0  0  0
  1  2  1  0  0  0  0
  1 29  1  0  0  0  0
  1 30  1  0  0  0  0
  1 31  1  0  0  0  0
  2  3  1  0  0  0  0
  2 32  1  0  0  0  0
  2 33  1  0  0  0  0
  3  4  2  0  0  0  0
  3  7  1  0  0  0  0
  4  5  1  0  0  0  0
  4 24  1  0  0  0  0
  5  6  1  0  0  0  0
  5 18  2  0  0  0  0
  6  7  1  0  0  0  0
  6 15  2  0  0  0  0
  7  8  1  0  0  0  0
  8  9  1  0  0  0  0
  8 34  1  0  0  0  0
  8 35  1  0  0  0  0
  9 10  2  0  0  0  0
  9 14  1  0  0  0  0
 10 11  1  0  0  0  0
 10 36  1  0  0  0  0
 11 12  2  0  0  0  0
 11 37  1  0  0  0  0
 12 13  1  0  0  0  0
 12 38  1  0  0  0  0
 13 14  2  0  0  0  0
 13 39  1  0  0  0  0
 14 40  1  0  0  0  0
 15 16  1  0  0  0  0
 15 41  1  0  0  0  0
 16 17  2  0  0  0  0
 16 42  1  0  0  0  0
 17 18  1  0  0  0  0
 17 43  1  0  0  0  0
 18 19  1  0  0  0  0
 19 20  1  0  0  0  0
 20 21  1  0  0  0  0
 20 44  1  0  0  0  0
 20 45  1  0  0  0  0
 21 22  2  0  0  0  0
 21 23  1  0  0  0  0
 23 46  1  0  0  0  0
 24 25  2  0  0  0  0
 24 26  1  0  0  0  0
 26 27  2  0  0  0  0
 26 28  1  0  0  0  0
 28 47  1  0  0  0  0
 28 48  1  0  0  0  0
M  END
>  <DRUGBANK_ID>
DB11909

>  <COMMON_NAME>
Varespladib

>  <CAS_NUMBER>
172732-68-2

>  <UNII>
2Q3P98DATH

>  <SYNONYMS>
Varespladib

$$$$
