
 OpenBabel10282417243D

 74 76  0  0  1  0  0  0  0  0999 V2000
    1.5103   -1.5531   -1.0978 O   0  0  0  0  0  0  0  0  0  0  0  0
    0.2974   -1.8410   -1.6843 C   0  0  0  0  0  0  0  0  0  0  0  0
    0.4249   -2.2980   -2.7774 O   0  0  0  0  0  0  0  0  0  0  0  0
   -1.3042   -1.4719   -1.0908 C   0  0  0  0  0  0  0  0  0  0  0  0
   -1.9579   -1.6586    0.3849 C   0  0  0  0  0  0  0  0  0  0  0  0
   -1.8082   -0.6266    1.6485 C   0  0  0  0  0  0  0  0  0  0  0  0
   -2.2196    0.8966    1.5563 C   0  0  0  0  0  0  0  0  0  0  0  0
   -3.6837    1.0031    1.4061 C   0  0  0  0  0  0  0  0  0  0  0  0
   -4.2404    1.7918    2.3389 O   0  0  0  0  0  0  0  0  0  0  0  0
   -4.2920    0.4856    0.4838 O   0  0  0  0  0  0  0  0  0  0  0  0
    0.0096    0.3821   -0.0103 C   0  0  0  0  0  0  0  0  0  0  0  0
    0.6149    1.0325   -1.2047 C   0  0  1  0  0  0  0  0  0  0  0  0
   -0.4568    1.3238   -2.1797 N   0  0  0  0  0  0  0  0  0  0  0  0
    1.4024    1.9977   -0.3424 C   0  0  0  0  0  0  0  0  0  0  0  0
    2.4625    1.1983    0.4316 O   0  0  0  0  0  0  0  0  0  0  0  0
    2.2645    0.4693    1.6189 C   0  0  0  0  0  0  0  0  0  0  0  0
    1.8185   -0.8823    1.7135 C   0  0  0  0  0  0  0  0  0  0  0  0
    1.4080   -1.4963    2.8870 C   0  0  0  0  0  0  0  0  0  0  0  0
    1.8188   -0.9407    4.0586 C   0  0  0  0  0  0  0  0  0  0  0  0
    2.5198    0.2715    4.0156 C   0  0  0  0  0  0  0  0  0  0  0  0
    2.6415    1.0256    2.8254 C   0  0  0  0  0  0  0  0  0  0  0  0
    1.5513   -1.6440    5.2834 C   0  0  0  0  0  0  0  0  0  0  0  0
    1.0295   -1.1776    6.4674 C   0  0  0  0  0  0  0  0  0  0  0  0
    1.0140   -2.1553    7.4208 N   0  0  0  0  0  0  0  0  0  0  0  0
    1.4957   -3.2238    6.8182 C   0  0  0  0  0  0  0  0  0  0  0  0
    1.7756   -4.5132    7.3020 C   0  0  0  0  0  0  0  0  0  0  0  0
    2.2680   -5.4376    6.4673 C   0  0  0  0  0  0  0  0  0  0  0  0
    2.4819   -5.0866    5.0220 C   0  0  0  0  0  0  0  0  0  0  0  0
    2.9435   -6.0699    4.1689 N   0  0  0  0  0  0  0  0  0  0  0  0
    3.2881   -5.8492    2.7666 C   0  0  2  0  0  0  0  0  0  0  0  0
    3.0252   -7.1258    1.9669 C   0  0  0  0  0  0  0  0  0  0  0  0
    4.7288   -5.3890    2.6487 C   0  0  0  0  0  0  0  0  0  0  0  0
    5.0045   -4.0109    2.6221 C   0  0  0  0  0  0  0  0  0  0  0  0
    6.3191   -3.5417    2.6047 C   0  0  0  0  0  0  0  0  0  0  0  0
    7.3778   -4.4454    2.6343 C   0  0  0  0  0  0  0  0  0  0  0  0
    7.1120   -5.8068    2.6748 C   0  0  0  0  0  0  0  0  0  0  0  0
    8.1222   -6.6765    2.8077 F   0  0  0  0  0  0  0  0  0  0  0  0
    5.8084   -6.2853    2.6307 C   0  0  0  0  0  0  0  0  0  0  0  0
    2.2354   -3.8895    4.5616 N   0  0  0  0  0  0  0  0  0  0  0  0
    1.7786   -2.9900    5.4895 N   0  0  0  0  0  0  0  0  0  0  0  0
    1.8713   -0.7661   -0.6219 H   0  0  0  0  0  0  0  0  0  0  0  0
   -1.7004   -0.4939   -1.3779 H   0  0  0  0  0  0  0  0  0  0  0  0
   -1.9053   -2.0241   -1.8225 H   0  0  0  0  0  0  0  0  0  0  0  0
   -3.0457   -1.7064    0.2304 H   0  0  0  0  0  0  0  0  0  0  0  0
   -1.6363   -2.6446    0.7221 H   0  0  0  0  0  0  0  0  0  0  0  0
   -2.3211   -1.0444    2.5268 H   0  0  0  0  0  0  0  0  0  0  0  0
   -0.7812   -0.6725    2.0019 H   0  0  0  0  0  0  0  0  0  0  0  0
   -1.7715    1.4605    2.3900 H   0  0  0  0  0  0  0  0  0  0  0  0
   -1.9209    1.5587    0.7297 H   0  0  0  0  0  0  0  0  0  0  0  0
   -3.5745    2.1822    2.9368 H   0  0  0  0  0  0  0  0  0  0  0  0
   -1.0131    0.5429   -0.1572 H   0  0  0  0  0  0  0  0  0  0  0  0
    0.1733    0.8132    0.9781 H   0  0  0  0  0  0  0  0  0  0  0  0
    0.1359   -0.6666    0.1887 H   0  0  0  0  0  0  0  0  0  0  0  0
    1.3414    0.4986   -1.8129 H   0  0  0  0  0  0  0  0  0  0  0  0
   -0.0876    1.7405   -3.0289 H   0  0  0  0  0  0  0  0  0  0  0  0
   -0.8140    0.4384   -2.5825 H   0  0  0  0  0  0  0  0  0  0  0  0
    1.8741    2.6872   -1.0366 H   0  0  0  0  0  0  0  0  0  0  0  0
    0.7123    2.5654    0.3113 H   0  0  0  0  0  0  0  0  0  0  0  0
    1.6144   -1.5851    0.9297 H   0  0  0  0  0  0  0  0  0  0  0  0
    0.8059   -2.4104    2.8529 H   0  0  0  0  0  0  0  0  0  0  0  0
    3.0039    0.6189    4.9226 H   0  0  0  0  0  0  0  0  0  0  0  0
    3.0711    2.0186    2.8626 H   0  0  0  0  0  0  0  0  0  0  0  0
    0.6845   -0.1699    6.6602 H   0  0  0  0  0  0  0  0  0  0  0  0
    1.5960   -4.7095    8.3506 H   0  0  0  0  0  0  0  0  0  0  0  0
    2.5084   -6.4367    6.8008 H   0  0  0  0  0  0  0  0  0  0  0  0
    3.2693   -6.9434    4.5642 H   0  0  0  0  0  0  0  0  0  0  0  0
    2.6301   -5.0818    2.3404 H   0  0  0  0  0  0  0  0  0  0  0  0
    1.9638   -7.3874    2.0002 H   0  0  0  0  0  0  0  0  0  0  0  0
    3.3159   -6.9881    0.9189 H   0  0  0  0  0  0  0  0  0  0  0  0
    3.5788   -7.9864    2.3593 H   0  0  0  0  0  0  0  0  0  0  0  0
    4.1850   -3.2927    2.6308 H   0  0  0  0  0  0  0  0  0  0  0  0
    6.5100   -2.4721    2.6005 H   0  0  0  0  0  0  0  0  0  0  0  0
    8.4054   -4.0997    2.6348 H   0  0  0  0  0  0  0  0  0  0  0  0
    5.6654   -7.3600    2.5983 H   0  0  0  0  0  0  0  0  0  0  0  0
  1  2  1  0  0  0  0
  1 41  1  0  0  0  0
  2  3  2  0  0  0  0
  2  4  1  0  0  0  0
  4  5  1  0  0  0  0
  4 42  1  0  0  0  0
  4 43  1  0  0  0  0
  5  6  1  0  0  0  0
  5 44  1  0  0  0  0
  5 45  1  0  0  0  0
  6  7  1  0  0  0  0
  6 46  1  0  0  0  0
  6 47  1  0  0  0  0
  7  8  1  0  0  0  0
  7 48  1  0  0  0  0
  7 49  1  0  0  0  0
  8  9  1  0  0  0  0
  8 10  2  0  0  0  0
  9 50  1  0  0  0  0
 11 51  1  0  0  0  0
 11 52  1  0  0  0  0
 11 53  1  0  0  0  0
 12 11  1  0  0  0  0
 12 13  1  0  0  0  0
 12 14  1  0  0  0  0
 12 54  1  6  0  0  0
 13 55  1  0  0  0  0
 13 56  1  0  0  0  0
 14 15  1  0  0  0  0
 14 57  1  0  0  0  0
 14 58  1  0  0  0  0
 15 16  1  0  0  0  0
 16 17  2  0  0  0  0
 16 21  1  0  0  0  0
 17 18  1  0  0  0  0
 17 59  1  0  0  0  0
 18 19  2  0  0  0  0
 18 60  1  0  0  0  0
 19 20  1  0  0  0  0
 19 22  1  0  0  0  0
 20 21  2  0  0  0  0
 20 61  1  0  0  0  0
 21 62  1  0  0  0  0
 22 23  2  0  0  0  0
 22 40  1  0  0  0  0
 23 24  1  0  0  0  0
 23 63  1  0  0  0  0
 24 25  2  0  0  0  0
 25 26  1  0  0  0  0
 25 40  1  0  0  0  0
 26 27  2  0  0  0  0
 26 64  1  0  0  0  0
 27 28  1  0  0  0  0
 27 65  1  0  0  0  0
 28 29  1  0  0  0  0
 28 39  2  0  0  0  0
 29 66  1  0  0  0  0
 30 32  1  0  0  0  0
 30 67  1  6  0  0  0
 30 31  1  0  0  0  0
 30 29  1  0  0  0  0
 31 68  1  0  0  0  0
 31 69  1  0  0  0  0
 31 70  1  0  0  0  0
 32 33  2  0  0  0  0
 32 38  1  0  0  0  0
 33 34  1  0  0  0  0
 33 71  1  0  0  0  0
 34 35  2  0  0  0  0
 34 72  1  0  0  0  0
 35 36  1  0  0  0  0
 35 73  1  0  0  0  0
 36 37  1  0  0  0  0
 36 38  2  0  0  0  0
 38 74  1  0  0  0  0
 39 40  1  0  0  0  0
M  END
>  <DRUGBANK_ID>
DB18711

>  <COMMON_NAME>
taletrectinib

>  <CAS_NUMBER>
1505515-69-4

>  <UNII>
6KLL51GNBG

>  <SYNONYMS>
Taletrectinib adipate

$$$$
