
 OpenBabel10282417223D

 65 68  0  0  0  0  0  0  0  0999 V2000
    1.1552    0.0446    0.0812 C   0  0  0  0  0  0  0  0  0  0  0  0
    0.5148    1.2457    0.7942 C   0  0  0  0  0  0  0  0  0  0  0  0
    1.1556    2.5250    0.2253 C   0  0  0  0  0  0  0  0  0  0  0  0
   -0.9725    1.2442    0.7605 N   0  0  0  0  0  0  0  0  0  0  0  0
   -1.5239    2.4550    0.1490 C   0  0  0  0  0  0  0  0  0  0  0  0
   -3.0187    2.5179    0.2432 C   0  0  0  0  0  0  0  0  0  0  0  0
   -3.6742    1.2684   -0.3520 C   0  0  0  0  0  0  0  0  0  0  0  0
   -3.0426   -0.0134    0.1942 C   0  0  0  0  0  0  0  0  0  0  0  0
   -1.5374    0.0458    0.1208 C   0  0  0  0  0  0  0  0  0  0  0  0
   -5.1439    1.2661   -0.1603 N   0  0  3  0  0  0  0  0  0  0  0  0
   -5.7124    2.4769   -0.7902 C   0  0  0  0  0  0  0  0  0  0  0  0
   -7.1692    2.3792   -1.2264 C   0  0  0  0  0  0  0  0  0  0  0  0
   -8.2166    1.9948   -0.1858 C   0  0  0  0  0  0  0  0  0  0  0  0
   -7.7175    2.1449    1.1580 N   0  0  0  0  0  0  0  0  0  0  0  0
   -6.9082    1.0582    1.6787 C   0  0  0  0  0  0  0  0  0  0  0  0
   -5.4502    1.2409    1.2967 C   0  0  0  0  0  0  0  0  0  0  0  0
   -8.1461    3.1856    1.9414 C   0  0  0  0  0  0  0  0  0  0  0  0
   -7.2084    3.9611    2.6248 C   0  0  0  0  0  0  0  0  0  0  0  0
   -7.6371    4.9566    3.4675 C   0  0  0  0  0  0  0  0  0  0  0  0
   -8.9904    5.0533    3.6925 C   0  0  0  0  0  0  0  0  0  0  0  0
   -9.8917    4.4331    2.8507 C   0  0  0  0  0  0  0  0  0  0  0  0
   -9.4724    3.4751    1.9863 N   0  0  0  0  0  0  0  0  0  0  0  0
  -11.3739    4.8040    2.8423 C   0  0  0  0  0  0  0  0  0  0  0  0
  -12.1971    4.0547    2.3306 O   0  0  0  0  0  0  0  0  0  0  0  0
  -11.8736    5.9658    3.4682 N   0  0  0  0  0  0  0  0  0  0  0  0
  -11.1832    7.0112    4.1144 C   0  0  0  0  0  0  0  0  0  0  0  0
  -10.0911    7.6420    3.5139 C   0  0  0  0  0  0  0  0  0  0  0  0
   -9.2200    8.3507    4.3280 C   0  0  0  0  0  0  0  0  0  0  0  0
   -9.4291    8.5569    5.6440 N   0  0  0  0  0  0  0  0  0  0  0  0
  -10.5697    8.0541    6.1665 C   0  0  0  0  0  0  0  0  0  0  0  0
  -11.4787    7.2868    5.4495 C   0  0  0  0  0  0  0  0  0  0  0  0
    0.8685    0.0295   -0.9767 H   0  0  0  0  0  0  0  0  0  0  0  0
    0.8579   -0.9042    0.5406 H   0  0  0  0  0  0  0  0  0  0  0  0
    2.2440    0.0867    0.1227 H   0  0  0  0  0  0  0  0  0  0  0  0
    0.7971    1.1864    1.8548 H   0  0  0  0  0  0  0  0  0  0  0  0
    0.8743    2.6632   -0.8255 H   0  0  0  0  0  0  0  0  0  0  0  0
    0.8542    3.4146    0.7895 H   0  0  0  0  0  0  0  0  0  0  0  0
    2.2446    2.4812    0.2625 H   0  0  0  0  0  0  0  0  0  0  0  0
   -1.2429    2.5203   -0.9072 H   0  0  0  0  0  0  0  0  0  0  0  0
   -1.1780    3.3540    0.6703 H   0  0  0  0  0  0  0  0  0  0  0  0
   -3.3446    3.4221   -0.2848 H   0  0  0  0  0  0  0  0  0  0  0  0
   -3.2671    2.6565    1.2981 H   0  0  0  0  0  0  0  0  0  0  0  0
   -3.4687    1.2649   -1.4353 H   0  0  0  0  0  0  0  0  0  0  0  0
   -3.2755   -0.1999    1.2435 H   0  0  0  0  0  0  0  0  0  0  0  0
   -3.4031   -0.8827   -0.3706 H   0  0  0  0  0  0  0  0  0  0  0  0
   -1.1901   -0.8593    0.6309 H   0  0  0  0  0  0  0  0  0  0  0  0
   -1.2497   -0.0005   -0.9342 H   0  0  0  0  0  0  0  0  0  0  0  0
   -5.1539    2.7012   -1.7124 H   0  0  0  0  0  0  0  0  0  0  0  0
   -5.5733    3.3578   -0.1492 H   0  0  0  0  0  0  0  0  0  0  0  0
   -7.4369    3.3653   -1.6267 H   0  0  0  0  0  0  0  0  0  0  0  0
   -7.2436    1.6819   -2.0688 H   0  0  0  0  0  0  0  0  0  0  0  0
   -9.1175    2.5913   -0.3577 H   0  0  0  0  0  0  0  0  0  0  0  0
   -8.5097    0.9514   -0.3454 H   0  0  0  0  0  0  0  0  0  0  0  0
   -7.2449    0.0956    1.2729 H   0  0  0  0  0  0  0  0  0  0  0  0
   -6.9800    0.9686    2.7701 H   0  0  0  0  0  0  0  0  0  0  0  0
   -4.9464    0.4076    1.7864 H   0  0  0  0  0  0  0  0  0  0  0  0
   -5.0819    2.1444    1.7850 H   0  0  0  0  0  0  0  0  0  0  0  0
   -6.1436    3.8146    2.5062 H   0  0  0  0  0  0  0  0  0  0  0  0
   -6.9510    5.6306    3.9693 H   0  0  0  0  0  0  0  0  0  0  0  0
   -9.3010    5.6646    4.5173 H   0  0  0  0  0  0  0  0  0  0  0  0
  -12.8709    5.8836    3.6420 H   0  0  0  0  0  0  0  0  0  0  0  0
   -9.8208    7.4430    2.4820 H   0  0  0  0  0  0  0  0  0  0  0  0
   -8.2589    8.6914    3.9504 H   0  0  0  0  0  0  0  0  0  0  0  0
  -10.7077    8.2488    7.2275 H   0  0  0  0  0  0  0  0  0  0  0  0
  -12.3116    6.8251    5.9682 H   0  0  0  0  0  0  0  0  0  0  0  0
  1  2  1  0  0  0  0
  1 32  1  0  0  0  0
  1 33  1  0  0  0  0
  1 34  1  0  0  0  0
  2  3  1  0  0  0  0
  2  4  1  0  0  0  0
  2 35  1  0  0  0  0
  3 36  1  0  0  0  0
  3 37  1  0  0  0  0
  3 38  1  0  0  0  0
  4  5  1  0  0  0  0
  4  9  1  0  0  0  0
  5  6  1  0  0  0  0
  5 39  1  0  0  0  0
  5 40  1  0  0  0  0
  6  7  1  0  0  0  0
  6 41  1  0  0  0  0
  6 42  1  0  0  0  0
  7  8  1  0  0  0  0
  7 10  1  0  0  0  0
  7 43  1  0  0  0  0
  8  9  1  0  0  0  0
  8 44  1  0  0  0  0
  8 45  1  0  0  0  0
  9 46  1  0  0  0  0
  9 47  1  0  0  0  0
 10 11  1  0  0  0  0
 10 16  1  0  0  0  0
 11 12  1  0  0  0  0
 11 48  1  0  0  0  0
 11 49  1  0  0  0  0
 12 13  1  0  0  0  0
 12 50  1  0  0  0  0
 12 51  1  0  0  0  0
 13 14  1  0  0  0  0
 13 52  1  0  0  0  0
 13 53  1  0  0  0  0
 14 15  1  0  0  0  0
 14 17  1  0  0  0  0
 15 16  1  0  0  0  0
 15 54  1  0  0  0  0
 15 55  1  0  0  0  0
 16 56  1  0  0  0  0
 16 57  1  0  0  0  0
 17 18  2  0  0  0  0
 17 22  1  0  0  0  0
 18 19  1  0  0  0  0
 18 58  1  0  0  0  0
 19 20  2  0  0  0  0
 19 59  1  0  0  0  0
 20 21  1  0  0  0  0
 20 60  1  0  0  0  0
 21 22  2  0  0  0  0
 21 23  1  0  0  0  0
 23 24  2  0  0  0  0
 23 25  1  0  0  0  0
 25 26  1  0  0  0  0
 25 61  1  0  0  0  0
 26 27  2  0  0  0  0
 26 31  1  0  0  0  0
 27 28  1  0  0  0  0
 27 62  1  0  0  0  0
 28 29  2  0  0  0  0
 28 63  1  0  0  0  0
 29 30  1  0  0  0  0
 30 31  2  0  0  0  0
 30 64  1  0  0  0  0
 31 65  1  0  0  0  0
M  END
>  <DRUGBANK_ID>
DB15265

>  <COMMON_NAME>
USL-311

>  <CAS_NUMBER>
1373268-67-7

>  <UNII>
2BTG5MX2Q2

>  <SYNONYMS>
2-Pyridinecarboxamide, 6-(hexahydro-4-(1-(1-methylethyl)-4-piperidinyl)-1H-1,4-diazepin-1-yl)-N-4-pyridinyl-; 6-[4-(1-propan-2-ylpiperidin-4-yl)-1,4-diazepan-1-yl]-N-pyridin-4-ylpyridine-2-carboxamide; 6-{4-[l-(propan-2-yl)piperidin-4-yl]-1,4-diazepan-1-yl}-N-(pyridin-4-yl)pyridine-2-carboxamide

$$$$
