
 OpenBabel10282417203D

 38 38  0  0  0  0  0  0  0  0999 V2000
   -3.6812    2.2337    1.3156 C   0  0  0  0  0  0  0  0  0  0  0  0
   -4.8056    0.8450    3.4309 C   0  0  0  0  0  0  0  0  0  0  0  0
   -4.4960    0.1672    2.2565 C   0  0  0  0  0  0  0  0  0  0  0  0
   -4.5588    2.2149    3.5501 C   0  0  0  0  0  0  0  0  0  0  0  0
   -4.9071    2.7572    4.7505 O   0  0  0  0  0  0  0  0  0  0  0  0
   -3.9825    2.9335    2.4967 C   0  0  0  0  0  0  0  0  0  0  0  0
   -3.6592    4.4019    2.5352 C   0  0  0  0  0  0  0  0  0  0  0  0
   -2.2605    4.6082    2.3741 O   0  0  0  0  0  0  0  0  0  0  0  0
   -3.9370    0.8573    1.1766 C   0  0  0  0  0  0  0  0  0  0  0  0
   -1.9478    0.0255   -0.0254 C   0  0  0  0  0  0  0  0  0  0  0  0
   -1.3664   -0.9715   -0.9342 N   0  0  0  0  0  0  0  0  0  0  0  0
    0.6339   -1.3642    0.5079 C   0  0  0  0  0  0  0  0  0  0  0  0
    0.5635   -2.1138   -1.8714 C   0  0  0  0  0  0  0  0  0  0  0  0
    0.1094   -1.0131   -0.8964 C   0  0  0  0  0  0  0  0  0  0  0  0
    0.6997    0.3262   -1.3703 C   0  0  0  0  0  0  0  0  0  0  0  0
   -3.4903    0.0940   -0.0540 C   0  0  2  0  0  0  0  0  0  0  0  0
   -3.9764    0.7419   -1.2276 O   0  0  0  0  0  0  0  0  0  0  0  0
   -3.2066    2.7789    0.4984 H   0  0  0  0  0  0  0  0  0  0  0  0
   -5.2377    0.3014    4.2681 H   0  0  0  0  0  0  0  0  0  0  0  0
   -4.6730   -0.9048    2.1967 H   0  0  0  0  0  0  0  0  0  0  0  0
   -4.8054    3.7209    4.7385 H   0  0  0  0  0  0  0  0  0  0  0  0
   -4.1835    4.9191    1.7244 H   0  0  0  0  0  0  0  0  0  0  0  0
   -3.9525    4.8832    3.4687 H   0  0  0  0  0  0  0  0  0  0  0  0
   -1.8128    4.0489    3.0323 H   0  0  0  0  0  0  0  0  0  0  0  0
   -1.5708    1.0186   -0.2876 H   0  0  0  0  0  0  0  0  0  0  0  0
   -1.6412   -0.1974    1.0017 H   0  0  0  0  0  0  0  0  0  0  0  0
   -1.7423   -1.8921   -0.7023 H   0  0  0  0  0  0  0  0  0  0  0  0
    0.2199   -2.3175    0.8575 H   0  0  0  0  0  0  0  0  0  0  0  0
    1.7253   -1.4513    0.5096 H   0  0  0  0  0  0  0  0  0  0  0  0
    0.3842   -0.5985    1.2497 H   0  0  0  0  0  0  0  0  0  0  0  0
    0.2227   -1.9123   -2.8937 H   0  0  0  0  0  0  0  0  0  0  0  0
    1.6576   -2.1820   -1.8968 H   0  0  0  0  0  0  0  0  0  0  0  0
    0.1803   -3.0981   -1.5777 H   0  0  0  0  0  0  0  0  0  0  0  0
    0.3300    0.5870   -2.3694 H   0  0  0  0  0  0  0  0  0  0  0  0
    0.4532    1.1531   -0.6965 H   0  0  0  0  0  0  0  0  0  0  0  0
    1.7922    0.2806   -1.4174 H   0  0  0  0  0  0  0  0  0  0  0  0
   -3.9142   -0.9167   -0.0477 H   0  0  0  0  0  0  0  0  0  0  0  0
   -3.4764    1.5666   -1.3360 H   0  0  0  0  0  0  0  0  0  0  0  0
  1  6  1  0  0  0  0
  1  9  2  0  0  0  0
  1 18  1  0  0  0  0
  2  3  2  0  0  0  0
  2 19  1  0  0  0  0
  3  9  1  0  0  0  0
  3 20  1  0  0  0  0
  4  2  1  0  0  0  0
  4  5  1  0  0  0  0
  5 21  1  0  0  0  0
  6  4  2  0  0  0  0
  6  7  1  0  0  0  0
  7  8  1  0  0  0  0
  7 22  1  0  0  0  0
  7 23  1  0  0  0  0
  8 24  1  0  0  0  0
 10 11  1  0  0  0  0
 10 25  1  0  0  0  0
 10 26  1  0  0  0  0
 11 14  1  0  0  0  0
 11 27  1  0  0  0  0
 12 28  1  0  0  0  0
 12 29  1  0  0  0  0
 12 30  1  0  0  0  0
 13 31  1  0  0  0  0
 13 32  1  0  0  0  0
 13 33  1  0  0  0  0
 14 12  1  0  0  0  0
 14 13  1  0  0  0  0
 14 15  1  0  0  0  0
 15 34  1  0  0  0  0
 15 35  1  0  0  0  0
 15 36  1  0  0  0  0
 16 17  1  0  0  0  0
 16 37  1  1  0  0  0
 16 10  1  0  0  0  0
 16  9  1  0  0  0  0
 17 38  1  0  0  0  0
M  END
>  <DRUGBANK_ID>
DB13139

>  <SECONDARY_ACCESSION_NUMBERS>
DB05761

>  <COMMON_NAME>
Levosalbutamol

>  <CAS_NUMBER>
34391-04-3

>  <UNII>
EDN2NBH5SS

>  <SYNONYMS>
(-)-Albuterol; (-)-Salbutamol; (R)-salbutamol; Levalbuterol; Levosalbutamol; R-salbutamol

$$$$
