
 OpenBabel10282417183D

 45 45  0  0  0  0  0  0  0  0999 V2000
    0.3148   -1.3601    0.6444 C   0  0  0  0  0  0  0  0  0  0  0  0
    1.1601   -0.2250    0.5638 C   0  0  0  0  0  0  0  0  0  0  0  0
   -1.1364   -1.2437    0.4928 C   0  0  0  0  0  0  0  0  0  0  0  0
    0.6986   -2.6678    0.5325 O   0  0  0  0  0  0  0  0  0  0  0  0
    0.4129    0.9584    0.4394 C   0  0  0  0  0  0  0  0  0  0  0  0
    2.8700   -0.0205    0.2922 C   0  0  0  0  0  0  0  0  0  0  0  0
   -1.8111   -0.0105    0.3181 C   0  0  0  0  0  0  0  0  0  0  0  0
    1.9652   -2.8195   -0.0422 C   0  0  0  0  0  0  0  0  0  0  0  0
   -0.9922    1.1168    0.3383 C   0  0  0  0  0  0  0  0  0  0  0  0
   -3.2914    0.0116    0.0080 C   0  0  0  0  0  0  0  0  0  0  0  0
    2.2051   -2.1443   -1.4749 C   0  0  0  0  0  0  0  0  0  0  0  0
   -1.5588    2.4101    0.0549 O   0  0  0  0  0  0  0  0  0  0  0  0
    1.7919   -0.5853   -1.9428 N   0  0  0  0  0  0  0  0  0  0  0  0
   -1.1248    3.7611    0.0346 C   0  0  0  0  0  0  0  0  0  0  0  0
    0.3630    4.0549    0.0453 C   0  0  0  0  0  0  0  0  0  0  0  0
   -1.9061    4.6731    0.0018 O   0  0  0  0  0  0  0  0  0  0  0  0
    2.4675    0.5055   -2.7769 C   0  0  0  0  0  0  0  0  0  0  0  0
    0.3923   -0.4624   -2.2385 C   0  0  0  0  0  0  0  0  0  0  0  0
    3.3414   -0.4913    1.6647 C   0  0  0  0  0  0  0  0  0  0  0  0
    4.1598   -0.4701   -0.9145 C   0  0  0  0  0  0  0  0  0  0  0  0
   -1.6906   -2.1596    0.2466 H   0  0  0  0  0  0  0  0  0  0  0  0
    1.0339    1.6972    0.0218 H   0  0  0  0  0  0  0  0  0  0  0  0
    2.9692    1.0738    0.2657 H   0  0  0  0  0  0  0  0  0  0  0  0
    2.7464   -2.5888    0.6958 H   0  0  0  0  0  0  0  0  0  0  0  0
    2.1848   -3.8956   -0.1187 H   0  0  0  0  0  0  0  0  0  0  0  0
   -3.5499   -0.4981   -0.9338 H   0  0  0  0  0  0  0  0  0  0  0  0
   -3.8223   -0.4960    0.8190 H   0  0  0  0  0  0  0  0  0  0  0  0
   -3.7024    1.0257   -0.0606 H   0  0  0  0  0  0  0  0  0  0  0  0
    3.2824   -2.3849   -1.3162 H   0  0  0  0  0  0  0  0  0  0  0  0
    2.0552   -2.8000   -2.3182 H   0  0  0  0  0  0  0  0  0  0  0  0
    0.6234    4.5908   -0.8668 H   0  0  0  0  0  0  0  0  0  0  0  0
    0.6177    4.5872    0.9592 H   0  0  0  0  0  0  0  0  0  0  0  0
    1.0663    3.2654    0.0346 H   0  0  0  0  0  0  0  0  0  0  0  0
    2.3065    0.3198   -3.8326 H   0  0  0  0  0  0  0  0  0  0  0  0
    2.0933    1.5279   -2.5154 H   0  0  0  0  0  0  0  0  0  0  0  0
    3.5313    0.7799   -2.7168 H   0  0  0  0  0  0  0  0  0  0  0  0
    0.1819   -0.8805   -3.2049 H   0  0  0  0  0  0  0  0  0  0  0  0
   -0.1601   -1.0516   -1.5456 H   0  0  0  0  0  0  0  0  0  0  0  0
    0.0628    0.5863   -2.1506 H   0  0  0  0  0  0  0  0  0  0  0  0
    2.7906   -1.3582    2.0424 H   0  0  0  0  0  0  0  0  0  0  0  0
    4.3961   -0.7421    1.6245 H   0  0  0  0  0  0  0  0  0  0  0  0
    3.1231    0.2603    2.4251 H   0  0  0  0  0  0  0  0  0  0  0  0
    4.5863   -0.2775   -1.9519 H   0  0  0  0  0  0  0  0  0  0  0  0
    5.1688   -0.4984   -0.5507 H   0  0  0  0  0  0  0  0  0  0  0  0
    3.7296   -1.0033   -1.7293 H   0  0  0  0  0  0  0  0  0  0  0  0
  1  2  2  0  0  0  0
  1  3  1  0  0  0  0
  1  4  1  0  0  0  0
  2  5  1  0  0  0  0
  2  6  1  0  0  0  0
  3  7  2  0  0  0  0
  3 21  1  0  0  0  0
  4  8  1  0  0  0  0
  5  9  2  0  0  0  0
  5 22  1  0  0  0  0
  6 19  1  0  0  0  0
  6 20  1  0  0  0  0
  6 23  1  0  0  0  0
  7 10  1  0  0  0  0
  7  9  1  0  0  0  0
  8 11  1  0  0  0  0
  8 24  1  0  0  0  0
  8 25  1  0  0  0  0
  9 12  1  0  0  0  0
 10 26  1  0  0  0  0
 10 27  1  0  0  0  0
 10 28  1  0  0  0  0
 11 13  1  0  0  0  0
 11 29  1  0  0  0  0
 11 30  1  0  0  0  0
 12 14  1  0  0  0  0
 13 17  1  0  0  0  0
 13 18  1  0  0  0  0
 14 15  1  0  0  0  0
 14 16  2  0  0  0  0
 15 31  1  0  0  0  0
 15 32  1  0  0  0  0
 15 33  1  0  0  0  0
 17 34  1  0  0  0  0
 17 35  1  0  0  0  0
 17 36  1  0  0  0  0
 18 37  1  0  0  0  0
 18 38  1  0  0  0  0
 18 39  1  0  0  0  0
 19 40  1  0  0  0  0
 19 41  1  0  0  0  0
 19 42  1  0  0  0  0
 20 43  1  0  0  0  0
 20 44  1  0  0  0  0
 20 45  1  0  0  0  0
M  END
>  <DRUGBANK_ID>
DB09205

>  <COMMON_NAME>
Moxisylyte

>  <CAS_NUMBER>
54-32-0

>  <UNII>
PW8QYA7KI0

>  <SYNONYMS>
Moxisylyte; Thymoxamine

$$$$
