
 OpenBabel10282417143D

 19 18  0  0  0  0  0  0  0  0999 V2000
    1.0767   -0.0333    0.0779 C   0  0  0  0  0  0  0  0  0  0  0  0
    0.3350    1.0916    0.8120 C   0  0  2  0  0  0  0  0  0  0  0  0
    2.4208    0.0680    0.1419 O   0  0  0  0  0  0  0  0  0  0  0  0
    0.2675    2.5264   -1.2635 C   0  0  0  0  0  0  0  0  0  0  0  0
    0.9270    1.6441   -2.0353 O   0  0  0  0  0  0  0  0  0  0  0  0
    0.6592    2.4699    0.2047 C   0  0  1  0  0  0  0  0  0  0  0  0
    0.5438   -0.9638   -0.5109 O   0  0  0  0  0  0  0  0  0  0  0  0
   -0.5347    3.2941   -1.7749 O   0  0  0  0  0  0  0  0  0  0  0  0
   -0.0856    3.5861    0.9524 C   0  0  0  0  0  0  0  0  0  0  0  0
    0.6669    1.0230    2.2602 N   0  0  0  0  0  0  0  0  0  0  0  0
   -0.7387    0.8900    0.7048 H   0  0  0  0  0  0  0  0  0  0  0  0
    2.7577   -0.6830   -0.3859 H   0  0  0  0  0  0  0  0  0  0  0  0
    0.5638    1.7593   -2.9397 H   0  0  0  0  0  0  0  0  0  0  0  0
    1.7353    2.6792    0.2634 H   0  0  0  0  0  0  0  0  0  0  0  0
    0.1841    3.6251    2.0117 H   0  0  0  0  0  0  0  0  0  0  0  0
    0.1490    4.5673    0.5283 H   0  0  0  0  0  0  0  0  0  0  0  0
   -1.1707    3.4425    0.8851 H   0  0  0  0  0  0  0  0  0  0  0  0
    0.1225    1.7103    2.7771 H   0  0  0  0  0  0  0  0  0  0  0  0
    0.3872    0.1132    2.6264 H   0  0  0  0  0  0  0  0  0  0  0  0
  1  7  2  0  0  0  0
  1  3  1  0  0  0  0
  2  1  1  0  0  0  0
  2 10  1  0  0  0  0
  2 11  1  6  0  0  0
  3 12  1  0  0  0  0
  4  8  2  0  0  0  0
  4  5  1  0  0  0  0
  4  6  1  0  0  0  0
  5 13  1  0  0  0  0
  6  2  1  0  0  0  0
  6  9  1  0  0  0  0
  6 14  1  1  0  0  0
  9 15  1  0  0  0  0
  9 16  1  0  0  0  0
  9 17  1  0  0  0  0
 10 18  1  0  0  0  0
 10 19  1  0  0  0  0
M  END
>  <DRUGBANK_ID>
DB04538

>  <SECONDARY_ACCESSION_NUMBERS>
EXPT00179

>  <COMMON_NAME>
threo-3-methyl-L-aspartic acid

>  <CAS_NUMBER>
6061-13-8

>  <UNII>
X72YFG5KQE

>  <SYNONYMS>
(3S)-3-methyl-L-aspartic acid; 2S,3S-3-methylaspartic acid; L-threo-3-Methylaspartate

$$$$
