
 OpenBabel10282417233D

 53 56  0  0  0  0  0  0  0  0999 V2000
    0.0493    1.2408   -0.0354 C   0  0  0  0  0  0  0  0  0  0  0  0
    1.2062    0.5687    0.0380 N   0  0  0  0  0  0  0  0  0  0  0  0
    1.1618   -0.7656    0.0525 C   0  0  0  0  0  0  0  0  0  0  0  0
   -0.0550   -1.4173    0.0421 C   0  0  0  0  0  0  0  0  0  0  0  0
   -1.2201   -0.6613   -0.0445 C   0  0  0  0  0  0  0  0  0  0  0  0
   -1.1768    0.6806   -0.1009 N   0  0  0  0  0  0  0  0  0  0  0  0
    2.3649   -1.5133    0.1545 N   0  0  0  0  0  0  0  0  0  0  0  0
    0.1458    2.7059   -0.0196 C   0  0  0  0  0  0  0  0  0  0  0  0
    1.3214    3.3779   -0.0290 C   0  0  0  0  0  0  0  0  0  0  0  0
    1.4269    4.8403    0.0041 C   0  0  0  0  0  0  0  0  0  0  0  0
    0.6708    5.6006    0.9037 C   0  0  0  0  0  0  0  0  0  0  0  0
    0.8079    6.9889    0.9532 C   0  0  0  0  0  0  0  0  0  0  0  0
    1.7284    7.6295    0.1265 C   0  0  0  0  0  0  0  0  0  0  0  0
    2.5169    6.8805   -0.7451 C   0  0  0  0  0  0  0  0  0  0  0  0
    2.3531    5.4937   -0.8218 C   0  0  0  0  0  0  0  0  0  0  0  0
    5.5487   -0.3756   -0.5029 N   0  0  0  0  0  0  0  0  0  0  0  0
    4.5404   -1.2161   -0.8206 N   0  0  0  0  0  0  0  0  0  0  0  0
    3.5945   -0.9406    0.0828 C   0  0  0  0  0  0  0  0  0  0  0  0
    4.0590   -0.0120    1.0399 C   0  0  0  0  0  0  0  0  0  0  0  0
    5.3297    0.3340    0.6455 C   0  0  0  0  0  0  0  0  0  0  0  0
    6.3214    1.2523    1.2432 C   0  0  0  0  0  0  0  0  0  0  0  0
   -2.4190   -1.3464   -0.1133 N   0  0  0  0  0  0  0  0  0  0  0  0
   -2.8725   -2.1435    1.0312 C   0  0  0  0  0  0  0  0  0  0  0  0
   -3.5198   -3.4457    0.5053 C   0  0  0  0  0  0  0  0  0  0  0  0
   -4.6431   -3.1559   -0.4160 N   0  0  0  0  0  0  0  0  0  0  0  0
   -4.1225   -2.3570   -1.5561 C   0  0  0  0  0  0  0  0  0  0  0  0
   -3.4588   -1.0208   -1.0914 C   0  0  0  0  0  0  0  0  0  0  0  0
   -5.2745   -4.3911   -0.8694 C   0  0  0  0  0  0  0  0  0  0  0  0
   -0.1124   -2.4968    0.0462 H   0  0  0  0  0  0  0  0  0  0  0  0
    2.2888   -2.3927   -0.3388 H   0  0  0  0  0  0  0  0  0  0  0  0
   -0.7985    3.2315   -0.0021 H   0  0  0  0  0  0  0  0  0  0  0  0
    2.2678    2.8417   -0.0592 H   0  0  0  0  0  0  0  0  0  0  0  0
   -0.0269    5.1141    1.5808 H   0  0  0  0  0  0  0  0  0  0  0  0
    0.2023    7.5662    1.6463 H   0  0  0  0  0  0  0  0  0  0  0  0
    1.8317    8.7106    0.1640 H   0  0  0  0  0  0  0  0  0  0  0  0
    3.2605    7.3766   -1.3641 H   0  0  0  0  0  0  0  0  0  0  0  0
    2.9468    4.9306   -1.5385 H   0  0  0  0  0  0  0  0  0  0  0  0
    6.3709   -0.3545   -1.0990 H   0  0  0  0  0  0  0  0  0  0  0  0
    3.5222    0.3392    1.9074 H   0  0  0  0  0  0  0  0  0  0  0  0
    7.2390    0.7159    1.5047 H   0  0  0  0  0  0  0  0  0  0  0  0
    6.5739    2.0622    0.5524 H   0  0  0  0  0  0  0  0  0  0  0  0
    5.9253    1.7033    2.1599 H   0  0  0  0  0  0  0  0  0  0  0  0
   -3.6105   -1.5774    1.6159 H   0  0  0  0  0  0  0  0  0  0  0  0
   -2.0506   -2.4001    1.7086 H   0  0  0  0  0  0  0  0  0  0  0  0
   -3.8709   -4.0379    1.3576 H   0  0  0  0  0  0  0  0  0  0  0  0
   -2.7526   -4.0375   -0.0145 H   0  0  0  0  0  0  0  0  0  0  0  0
   -3.3731   -2.9483   -2.1027 H   0  0  0  0  0  0  0  0  0  0  0  0
   -4.9340   -2.1323   -2.2574 H   0  0  0  0  0  0  0  0  0  0  0  0
   -4.2227   -0.3657   -0.6540 H   0  0  0  0  0  0  0  0  0  0  0  0
   -3.0390   -0.5187   -1.9705 H   0  0  0  0  0  0  0  0  0  0  0  0
   -6.1225   -4.1707   -1.5269 H   0  0  0  0  0  0  0  0  0  0  0  0
   -4.5788   -5.0455   -1.4055 H   0  0  0  0  0  0  0  0  0  0  0  0
   -5.6800   -4.9463   -0.0152 H   0  0  0  0  0  0  0  0  0  0  0  0
  1  2  1  0  0  0  0
  1  6  2  0  0  0  0
  1  8  1  0  0  0  0
  2  3  2  0  0  0  0
  3  4  1  0  0  0  0
  3  7  1  0  0  0  0
  4  5  2  0  0  0  0
  4 29  1  0  0  0  0
  5  6  1  0  0  0  0
  5 22  1  0  0  0  0
  7 18  1  0  0  0  0
  7 30  1  0  0  0  0
  8  9  2  0  0  0  0
  8 31  1  0  0  0  0
  9 10  1  0  0  0  0
  9 32  1  0  0  0  0
 10 11  1  0  0  0  0
 10 15  2  0  0  0  0
 11 12  2  0  0  0  0
 11 33  1  0  0  0  0
 12 13  1  0  0  0  0
 12 34  1  0  0  0  0
 13 14  2  0  0  0  0
 13 35  1  0  0  0  0
 14 15  1  0  0  0  0
 14 36  1  0  0  0  0
 15 37  1  0  0  0  0
 16 17  1  0  0  0  0
 16 20  1  0  0  0  0
 16 38  1  0  0  0  0
 17 18  2  0  0  0  0
 18 19  1  0  0  0  0
 19 20  2  0  0  0  0
 19 39  1  0  0  0  0
 20 21  1  0  0  0  0
 21 40  1  0  0  0  0
 21 41  1  0  0  0  0
 21 42  1  0  0  0  0
 22 23  1  0  0  0  0
 22 27  1  0  0  0  0
 23 24  1  0  0  0  0
 23 43  1  0  0  0  0
 23 44  1  0  0  0  0
 24 25  1  0  0  0  0
 24 45  1  0  0  0  0
 24 46  1  0  0  0  0
 25 26  1  0  0  0  0
 25 28  1  0  0  0  0
 26 27  1  0  0  0  0
 26 47  1  0  0  0  0
 26 48  1  0  0  0  0
 27 49  1  0  0  0  0
 27 50  1  0  0  0  0
 28 51  1  0  0  0  0
 28 52  1  0  0  0  0
 28 53  1  0  0  0  0
M  END
>  <DRUGBANK_ID>
DB16891

>  <COMMON_NAME>
ENMD-981693

>  <CAS_NUMBER>
934353-76-1

>  <UNII>
J6U9WP10T7

>  <SYNONYMS>
(E)-N-(5-Methyl-1H-pyrazol-3-yl)-6-(4-methylpiperazin-1-yl)-2-styrylpyrimidin-4-amine; ENMD-2076 free base

$$$$
