
 OpenBabel10282417223D

 65 69  0  0  0  0  0  0  0  0999 V2000
   -0.0129    1.0856    1.6662 C   0  0  0  0  0  0  0  0  0  0  0  0
   -2.5773    7.2753   -3.3792 C   0  0  0  0  0  0  0  0  0  0  0  0
    0.2240    5.1995    0.6759 C   0  0  0  0  0  0  0  0  0  0  0  0
    0.5877    5.8874   -0.6184 C   0  0  0  0  0  0  0  0  0  0  0  0
    0.7040    7.1595   -3.4589 C   0  0  0  0  0  0  0  0  0  0  0  0
    0.5855    6.8418   -4.9705 C   0  0  0  0  0  0  0  0  0  0  0  0
   -1.6161    2.1158   -0.9339 C   0  0  0  0  0  0  0  0  0  0  0  0
   -2.1779    4.3289   -2.9388 C   0  0  0  0  0  0  0  0  0  0  0  0
   -0.3547    1.2901   -1.0359 C   0  0  0  0  0  0  0  0  0  0  0  0
   -1.8135    5.0345   -4.2609 C   0  0  0  0  0  0  0  0  0  0  0  0
    0.9992    2.8031    0.3309 C   0  0  0  0  0  0  0  0  0  0  0  0
    4.2194    8.7264   -1.0970 C   0  0  0  0  0  0  0  0  0  0  0  0
    3.5611    9.0996   -3.5477 C   0  0  0  0  0  0  0  0  0  0  0  0
    1.9472    9.3421   -2.0719 C   0  0  0  0  0  0  0  0  0  0  0  0
    0.0295    9.6955   -3.8430 C   0  0  0  0  0  0  0  0  0  0  0  0
    3.2940    9.0421   -2.1734 C   0  0  0  0  0  0  0  0  0  0  0  0
   -0.2326    3.7595    0.4632 C   0  0  2  0  0  0  0  0  0  0  0  0
   -1.3347    3.5865   -0.6141 C   0  0  1  0  0  0  0  0  0  0  0  0
   -1.0075    4.3199   -1.8916 C   0  0  2  0  0  0  0  0  0  0  0  0
   -0.5600    5.7643   -1.6092 C   0  0  2  0  0  0  0  0  0  0  0  0
   -0.1612    6.1131   -3.0070 C   0  0  1  0  0  0  0  0  0  0  0  0
   -0.8085    7.3037   -5.1053 C   0  0  2  0  0  0  0  0  0  0  0  0
   -0.3591    8.9040   -5.1481 C   0  0  0  0  0  0  0  0  0  0  0  0
    0.5041    1.3402    0.2396 C   0  0  1  0  0  0  0  0  0  0  0  0
   -1.3929    6.4684   -3.9252 C   0  0  2  0  0  0  0  0  0  0  0  0
    4.9515    8.5631   -0.2473 N   0  0  0  0  0  0  0  0  0  0  0  0
    2.5004    9.5125   -4.2649 N   0  0  0  0  0  0  0  0  0  0  0  0
    1.4757    9.6660   -3.3667 N   0  0  0  0  0  0  0  0  0  0  0  0
   -0.0920    9.3895   -6.2596 O   0  0  0  0  0  0  0  0  0  0  0  0
    1.4855    0.3213    0.0421 O   0  0  0  0  0  0  0  0  0  0  0  0
   -0.7482    3.5196    1.3977 H   0  0  0  0  0  0  0  0  0  0  0  0
   -2.2571    4.0407   -0.2323 H   0  0  0  0  0  0  0  0  0  0  0  0
   -0.1569    3.7892   -2.3481 H   0  0  0  0  0  0  0  0  0  0  0  0
   -1.3931    6.3585   -1.2104 H   0  0  0  0  0  0  0  0  0  0  0  0
    0.4837    5.2763   -3.3088 H   0  0  0  0  0  0  0  0  0  0  0  0
   -1.3450    7.0752   -6.0361 H   0  0  0  0  0  0  0  0  0  0  0  0
   -0.9479    1.5926    1.8985 H   0  0  0  0  0  0  0  0  0  0  0  0
    0.7390    1.4983    2.3645 H   0  0  0  0  0  0  0  0  0  0  0  0
   -0.0615    0.0392    1.9639 H   0  0  0  0  0  0  0  0  0  0  0  0
   -2.3420    8.3212   -3.1884 H   0  0  0  0  0  0  0  0  0  0  0  0
   -3.3848    7.2759   -4.1207 H   0  0  0  0  0  0  0  0  0  0  0  0
   -2.9767    6.8901   -2.4433 H   0  0  0  0  0  0  0  0  0  0  0  0
   -0.5889    5.7556    1.1605 H   0  0  0  0  0  0  0  0  0  0  0  0
    1.0749    5.2307    1.3661 H   0  0  0  0  0  0  0  0  0  0  0  0
    0.7900    6.9430   -0.3996 H   0  0  0  0  0  0  0  0  0  0  0  0
    1.5088    5.4666   -1.0332 H   0  0  0  0  0  0  0  0  0  0  0  0
    1.7252    7.4108   -3.5079 H   0  0  0  0  0  0  0  0  0  0  0  0
    0.2229    7.8374   -2.7382 H   0  0  0  0  0  0  0  0  0  0  0  0
    1.1270    7.3085   -5.7878 H   0  0  0  0  0  0  0  0  0  0  0  0
    0.9789    5.8184   -5.0766 H   0  0  0  0  0  0  0  0  0  0  0  0
   -2.1584    2.0015   -1.8756 H   0  0  0  0  0  0  0  0  0  0  0  0
   -2.2667    1.6963   -0.1692 H   0  0  0  0  0  0  0  0  0  0  0  0
   -3.0356    4.8299   -2.4804 H   0  0  0  0  0  0  0  0  0  0  0  0
   -2.5052    3.3292   -3.2060 H   0  0  0  0  0  0  0  0  0  0  0  0
    0.2618    1.6807   -1.8708 H   0  0  0  0  0  0  0  0  0  0  0  0
   -0.5978    0.2776   -1.3747 H   0  0  0  0  0  0  0  0  0  0  0  0
   -2.6299    5.0048   -4.9833 H   0  0  0  0  0  0  0  0  0  0  0  0
   -0.9730    4.4860   -4.7189 H   0  0  0  0  0  0  0  0  0  0  0  0
    1.6032    2.9392    1.2387 H   0  0  0  0  0  0  0  0  0  0  0  0
    1.6858    3.0660   -0.4810 H   0  0  0  0  0  0  0  0  0  0  0  0
    4.4888    8.8468   -4.0571 H   0  0  0  0  0  0  0  0  0  0  0  0
    1.2804    9.1993   -1.2288 H   0  0  0  0  0  0  0  0  0  0  0  0
   -0.3130   10.7273   -3.8069 H   0  0  0  0  0  0  0  0  0  0  0  0
   -0.6145    9.2692   -3.0790 H   0  0  0  0  0  0  0  0  0  0  0  0
    1.0299   -0.5277    0.2415 H   0  0  0  0  0  0  0  0  0  0  0  0
  1 37  1  0  0  0  0
  1 38  1  0  0  0  0
  1 39  1  0  0  0  0
  2 40  1  0  0  0  0
  2 41  1  0  0  0  0
  2 42  1  0  0  0  0
  3 43  1  0  0  0  0
  3 44  1  0  0  0  0
  4  3  1  0  0  0  0
  4 45  1  0  0  0  0
  4 46  1  0  0  0  0
  5 47  1  0  0  0  0
  5 48  1  0  0  0  0
  6  5  1  0  0  0  0
  6 49  1  0  0  0  0
  6 50  1  0  0  0  0
  7 51  1  0  0  0  0
  7 52  1  0  0  0  0
  8 53  1  0  0  0  0
  8 54  1  0  0  0  0
  9  7  1  0  0  0  0
  9 55  1  0  0  0  0
  9 56  1  0  0  0  0
 10  8  1  0  0  0  0
 10 57  1  0  0  0  0
 10 58  1  0  0  0  0
 11 59  1  0  0  0  0
 11 60  1  0  0  0  0
 13 61  1  0  0  0  0
 14 62  1  0  0  0  0
 15 63  1  0  0  0  0
 15 64  1  0  0  0  0
 16 12  1  0  0  0  0
 16 13  1  0  0  0  0
 16 14  2  0  0  0  0
 17  3  1  0  0  0  0
 17 11  1  0  0  0  0
 17 31  1  1  0  0  0
 18  7  1  0  0  0  0
 18 17  1  0  0  0  0
 18 19  1  0  0  0  0
 18 32  1  1  0  0  0
 19  8  1  0  0  0  0
 19 20  1  0  0  0  0
 19 33  1  6  0  0  0
 20  4  1  0  0  0  0
 20 21  1  0  0  0  0
 20 34  1  1  0  0  0
 21  5  1  0  0  0  0
 21 25  1  0  0  0  0
 21 35  1  6  0  0  0
 22  6  1  0  0  0  0
 22 36  1  6  0  0  0
 22 23  1  0  0  0  0
 23 15  1  0  0  0  0
 24  9  1  0  0  0  0
 24 11  1  0  0  0  0
 24 30  1  6  0  0  0
 24  1  1  0  0  0  0
 25  2  1  1  0  0  0
 25 10  1  0  0  0  0
 25 22  1  0  0  0  0
 26 12  3  0  0  0  0
 27 13  2  0  0  0  0
 28 14  1  0  0  0  0
 28 15  1  0  0  0  0
 28 27  1  0  0  0  0
 29 23  2  0  0  0  0
 30 65  1  0  0  0  0
M  END
>  <DRUGBANK_ID>
DB15490

>  <COMMON_NAME>
Zuranolone

>  <CAS_NUMBER>
1632051-40-1

>  <UNII>
7ZW49N180B

>  <SYNONYMS>
Zuranolone

$$$$
