
 OpenBabel10282417193D

 53 56  0  0  1  0  0  0  0  0999 V2000
    1.6090   -0.1942   -0.3314 C   0  0  0  0  0  0  0  0  0  0  0  0
    1.3190   -0.9053   -1.6969 C   0  0  2  0  0  0  0  0  0  0  0  0
    2.9418   -1.3692   -2.7438 C   0  0  0  0  0  0  0  0  0  0  0  0
    2.7881   -1.8565   -4.3838 C   0  0  0  0  0  0  0  0  0  0  0  0
    1.4055   -1.9334   -4.0380 C   0  0  0  0  0  0  0  0  0  0  0  0
    1.0642   -2.9107   -3.3636 O   0  0  0  0  0  0  0  0  0  0  0  0
    0.8472   -0.5315   -4.0101 C   0  0  0  0  0  0  0  0  0  0  0  0
    0.7521   -0.0052   -2.7752 C   0  0  0  0  0  0  0  0  0  0  0  0
   -0.1764    1.1515   -2.4559 C   0  0  0  0  0  0  0  0  0  0  0  0
   -1.6575    0.7385   -1.9687 C   0  0  0  0  0  0  0  0  0  0  0  0
   -1.6765   -0.2528   -0.6931 C   0  0  2  0  0  0  0  0  0  0  0  0
   -0.3852   -1.4105   -1.1468 C   0  0  0  0  0  0  0  0  0  0  0  0
   -0.8628   -2.6558   -0.9749 C   0  0  0  0  0  0  0  0  0  0  0  0
   -2.3182   -2.9470   -0.7035 C   0  0  0  0  0  0  0  0  0  0  0  0
   -3.1124   -2.0045    0.0925 C   0  0  1  0  0  0  0  0  0  0  0  0
   -3.3017   -0.6085    0.3237 C   0  0  1  0  0  0  0  0  0  0  0  0
   -4.1812   -1.9727    1.6316 C   0  0  0  0  0  0  0  0  0  0  0  0
   -5.0739   -3.0452    0.9234 C   0  0  0  0  0  0  0  0  0  0  0  0
   -4.9124   -2.0617   -0.1105 C   0  0  2  0  0  0  0  0  0  0  0  0
   -5.5817   -2.3868   -1.4134 C   0  0  0  0  0  0  0  0  0  0  0  0
   -5.0804   -3.1402   -2.2393 O   0  0  0  0  0  0  0  0  0  0  0  0
   -6.9698   -1.7642   -1.6328 C   0  0  0  0  0  0  0  0  0  0  0  0
   -7.9745   -2.1780   -0.7239 O   0  0  0  0  0  0  0  0  0  0  0  0
   -5.8093   -0.9850    0.4905 O   0  0  0  0  0  0  0  0  0  0  0  0
   -2.0868   -1.4300    1.5871 C   0  0  0  0  0  0  0  0  0  0  0  0
    1.1244   -0.7528    0.4907 H   0  0  0  0  0  0  0  0  0  0  0  0
    1.0918    0.7693   -0.2653 H   0  0  0  0  0  0  0  0  0  0  0  0
    2.6369   -0.0385   -0.0114 H   0  0  0  0  0  0  0  0  0  0  0  0
    3.6187   -2.2076   -2.4714 H   0  0  0  0  0  0  0  0  0  0  0  0
    3.6772   -0.5198   -2.8260 H   0  0  0  0  0  0  0  0  0  0  0  0
    3.0589   -2.8736   -4.7472 H   0  0  0  0  0  0  0  0  0  0  0  0
    2.9605   -1.1533   -5.2275 H   0  0  0  0  0  0  0  0  0  0  0  0
    1.1194    0.1502   -4.8105 H   0  0  0  0  0  0  0  0  0  0  0  0
    0.2634    1.8371   -1.7213 H   0  0  0  0  0  0  0  0  0  0  0  0
   -0.2509    1.7594   -3.3662 H   0  0  0  0  0  0  0  0  0  0  0  0
   -2.1626    1.6854   -1.7317 H   0  0  0  0  0  0  0  0  0  0  0  0
   -2.1792    0.3190   -2.8402 H   0  0  0  0  0  0  0  0  0  0  0  0
   -1.2253    0.4339    0.0324 H   0  0  0  0  0  0  0  0  0  0  0  0
   -0.2209   -3.5187   -1.0433 H   0  0  0  0  0  0  0  0  0  0  0  0
   -2.8233   -3.1557   -1.6487 H   0  0  0  0  0  0  0  0  0  0  0  0
   -2.3677   -3.8713   -0.1149 H   0  0  0  0  0  0  0  0  0  0  0  0
   -4.0145   -0.0120   -0.2060 H   0  0  0  0  0  0  0  0  0  0  0  0
   -4.6509   -1.7646    2.6065 H   0  0  0  0  0  0  0  0  0  0  0  0
   -3.4957   -2.7267    2.0737 H   0  0  0  0  0  0  0  0  0  0  0  0
   -6.0829   -3.2189    1.3324 H   0  0  0  0  0  0  0  0  0  0  0  0
   -4.5973   -4.0163    0.7202 H   0  0  0  0  0  0  0  0  0  0  0  0
   -6.8834   -0.6696   -1.5768 H   0  0  0  0  0  0  0  0  0  0  0  0
   -7.2853   -2.0116   -2.6428 H   0  0  0  0  0  0  0  0  0  0  0  0
   -7.9503   -3.1481   -0.6784 H   0  0  0  0  0  0  0  0  0  0  0  0
   -5.6688   -0.0982    0.1346 H   0  0  0  0  0  0  0  0  0  0  0  0
   -1.1702   -0.9245    1.3365 H   0  0  0  0  0  0  0  0  0  0  0  0
   -2.6412   -0.6348    2.2200 H   0  0  0  0  0  0  0  0  0  0  0  0
   -1.8356   -2.2142    2.2904 H   0  0  0  0  0  0  0  0  0  0  0  0
  1 26  1  0  0  0  0
  1 27  1  0  0  0  0
  1 28  1  0  0  0  0
  2  1  1  1  0  0  0
  2  3  1  0  0  0  0
  2  8  1  0  0  0  0
  2 12  1  0  0  0  0
  3  4  1  0  0  0  0
  3 29  1  0  0  0  0
  3 30  1  0  0  0  0
  4  5  1  0  0  0  0
  4 31  1  0  0  0  0
  4 32  1  0  0  0  0
  5  6  2  0  0  0  0
  5  7  1  0  0  0  0
  7  8  2  0  0  0  0
  7 33  1  0  0  0  0
  8  9  1  0  0  0  0
  9 10  1  0  0  0  0
  9 34  1  0  0  0  0
  9 35  1  0  0  0  0
 10 36  1  0  0  0  0
 10 37  1  0  0  0  0
 11 10  1  0  0  0  0
 11 12  1  0  0  0  0
 11 16  1  0  0  0  0
 11 38  1  1  0  0  0
 12 13  2  0  0  0  0
 13 14  1  0  0  0  0
 13 39  1  0  0  0  0
 14 15  1  0  0  0  0
 14 40  1  0  0  0  0
 14 41  1  0  0  0  0
 15 16  1  0  0  0  0
 15 19  1  0  0  0  0
 15 25  1  1  0  0  0
 16 17  1  0  0  0  0
 16 42  1  6  0  0  0
 17 18  1  0  0  0  0
 17 43  1  0  0  0  0
 17 44  1  0  0  0  0
 18 19  1  0  0  0  0
 18 45  1  0  0  0  0
 18 46  1  0  0  0  0
 19 24  1  1  0  0  0
 19 20  1  0  0  0  0
 20 21  2  0  0  0  0
 20 22  1  0  0  0  0
 22 23  1  0  0  0  0
 22 47  1  0  0  0  0
 22 48  1  0  0  0  0
 23 49  1  0  0  0  0
 24 50  1  0  0  0  0
 25 51  1  0  0  0  0
 25 52  1  0  0  0  0
 25 53  1  0  0  0  0
M  END
>  <DRUGBANK_ID>
DB12081

>  <COMMON_NAME>
Anecortave

>  <CAS_NUMBER>
10184-70-0

>  <UNII>
R5Y8O51589

$$$$
