
 OpenBabel10282417203D

 25 23  0  0  1  0  0  0  0  0999 V2000
    5.0450   -3.0117    2.6706 C   0  0  0  0  0  0  0  0  0  0  0  0
    4.9112   -3.2572    1.1617 C   0  0  2  0  0  0  0  0  0  0  0  0
    3.5042   -3.1333    0.5581 C   0  0  2  0  0  0  0  0  0  0  0  0
    2.6247   -1.8886    0.8287 C   0  0  1  0  0  0  0  0  0  0  0  0
    3.2068   -0.4413    0.8617 C   0  0  2  0  0  0  0  0  0  0  0  0
    2.7472    0.4848   -0.2931 C   0  0  0  0  0  0  0  0  0  0  0  0
    4.2386   -1.9769    3.1990 O   0  0  0  0  0  0  0  0  0  0  0  0
    5.3927   -4.6019    0.9110 O   0  0  0  0  0  0  0  0  0  0  0  0
    2.7470   -4.2887    1.0287 O   0  0  0  0  0  0  0  0  0  0  0  0
    1.4833   -1.9984   -0.0698 O   0  0  0  0  0  0  0  0  0  0  0  0
    4.6242   -0.3788    1.0197 O   0  0  0  0  0  0  0  0  0  0  0  0
    2.3257   -0.1264   -1.3278 O   0  0  0  0  0  0  0  0  0  0  0  0
    2.5063    1.6792    0.0102 O   0  5  0  0  0  0  0  0  0  0  0  0
   -0.0237    0.3034    0.1589 K   0  3  0  0  0  0  0  0  0  0  0  0
    5.5892   -2.6009    0.6083 H   0  0  0  0  0  0  0  0  0  0  0  0
    3.5855   -3.2905   -0.5253 H   0  0  0  0  0  0  0  0  0  0  0  0
    2.1227   -2.0400    1.7899 H   0  0  0  0  0  0  0  0  0  0  0  0
    2.7827    0.0245    1.7672 H   0  0  0  0  0  0  0  0  0  0  0  0
    6.0898   -2.7684    2.8919 H   0  0  0  0  0  0  0  0  0  0  0  0
    4.8085   -3.9178    3.2348 H   0  0  0  0  0  0  0  0  0  0  0  0
    3.3353   -2.3234    3.2295 H   0  0  0  0  0  0  0  0  0  0  0  0
    4.7146   -5.1932    1.2984 H   0  0  0  0  0  0  0  0  0  0  0  0
    1.9614   -4.3285    0.4490 H   0  0  0  0  0  0  0  0  0  0  0  0
    1.8404   -1.6330   -0.9290 H   0  0  0  0  0  0  0  0  0  0  0  0
    5.0302   -0.3406    0.1386 H   0  0  0  0  0  0  0  0  0  0  0  0
  1 19  1  0  0  0  0
  1 20  1  0  0  0  0
  2  8  1  0  0  0  0
  2 15  1  6  0  0  0
  2  3  1  0  0  0  0
  2  1  1  0  0  0  0
  3 16  1  6  0  0  0
  3  9  1  0  0  0  0
  3  4  1  0  0  0  0
  4 10  1  0  0  0  0
  4 17  1  1  0  0  0
  5 11  1  0  0  0  0
  5 18  1  1  0  0  0
  5  6  1  0  0  0  0
  5  4  1  0  0  0  0
  7  1  1  0  0  0  0
  7 21  1  0  0  0  0
  8 22  1  0  0  0  0
  9 23  1  0  0  0  0
 10 24  1  0  0  0  0
 11 25  1  0  0  0  0
 12  6  2  0  0  0  0
 13  6  1  0  0  0  0
M  CHG  2  13  -1  14   1
M  END
>  <DRUGBANK_ID>
DB13620

>  <COMMON_NAME>
Potassium gluconate

>  <CAS_NUMBER>
299-27-4

>  <UNII>
12H3K5QKN9

>  <SYNONYMS>
potassium D-gluconate; Potassium gluconate

$$$$
