
 OpenBabel10282417123D

 23 23  0  0  1  0  0  0  0  0999 V2000
    1.0868   -0.0027   -0.1068 O   0  0  0  0  0  0  0  0  0  0  0  0
    0.6119    1.1828    0.5299 C   0  0  0  0  0  0  0  0  0  0  0  0
    1.1101    1.2172    1.9799 C   0  0  1  0  0  0  0  0  0  0  0  0
    2.5427    1.2856    1.9755 O   0  0  0  0  0  0  0  0  0  0  0  0
    0.5333    2.4180    2.7428 C   0  0  0  0  0  0  0  0  0  0  0  0
   -0.9780    2.4183    2.8275 C   0  0  0  0  0  0  0  0  0  0  0  0
   -1.7041    1.2211    2.9138 C   0  0  0  0  0  0  0  0  0  0  0  0
   -3.0927    1.2198    2.9892 C   0  0  0  0  0  0  0  0  0  0  0  0
   -3.7776    2.4303    3.0387 C   0  0  0  0  0  0  0  0  0  0  0  0
   -3.0734    3.6296    2.9840 C   0  0  0  0  0  0  0  0  0  0  0  0
   -1.6823    3.6311    2.8513 C   0  0  0  0  0  0  0  0  0  0  0  0
    2.0406    0.1223   -0.2419 H   0  0  0  0  0  0  0  0  0  0  0  0
    0.9777    2.0485   -0.0319 H   0  0  0  0  0  0  0  0  0  0  0  0
   -0.4791    1.1696    0.4650 H   0  0  0  0  0  0  0  0  0  0  0  0
    0.8645    0.2798    2.4916 H   0  0  0  0  0  0  0  0  0  0  0  0
    2.8506    0.3988    1.7148 H   0  0  0  0  0  0  0  0  0  0  0  0
    0.9360    2.4325    3.7643 H   0  0  0  0  0  0  0  0  0  0  0  0
    0.8937    3.3426    2.2715 H   0  0  0  0  0  0  0  0  0  0  0  0
   -1.2063    0.2536    2.8977 H   0  0  0  0  0  0  0  0  0  0  0  0
   -3.6286    0.2773    3.0181 H   0  0  0  0  0  0  0  0  0  0  0  0
   -4.8601    2.4295    3.1227 H   0  0  0  0  0  0  0  0  0  0  0  0
   -3.6115    4.5735    3.0483 H   0  0  0  0  0  0  0  0  0  0  0  0
   -1.1577    4.5789    2.7668 H   0  0  0  0  0  0  0  0  0  0  0  0
  1  2  1  0  0  0  0
  1 12  1  0  0  0  0
  2  3  1  0  0  0  0
  2 13  1  0  0  0  0
  2 14  1  0  0  0  0
  3  4  1  0  0  0  0
  3  5  1  0  0  0  0
  3 15  1  1  0  0  0
  4 16  1  0  0  0  0
  5  6  1  0  0  0  0
  5 17  1  0  0  0  0
  5 18  1  0  0  0  0
  6  7  2  0  0  0  0
  6 11  1  0  0  0  0
  7  8  1  0  0  0  0
  7 19  1  0  0  0  0
  8  9  2  0  0  0  0
  8 20  1  0  0  0  0
  9 10  1  0  0  0  0
  9 21  1  0  0  0  0
 10 11  2  0  0  0  0
 10 22  1  0  0  0  0
 11 23  1  0  0  0  0
M  END
>  <DRUGBANK_ID>
DB02803

>  <SECONDARY_ACCESSION_NUMBERS>
EXPT02644

>  <COMMON_NAME>
3-Phenyl-1,2-Propandiol

>  <UNII>
6PQ7U3G5W6

$$$$
