
 OpenBabel10282417123D

 25 25  0  0  1  0  0  0  0  0999 V2000
   -1.3861   -0.4257    0.0630 C   0  0  0  0  0  0  0  0  0  0  0  0
   -0.8649   -2.8466    0.0074 C   0  0  0  0  0  0  0  0  0  0  0  0
   -0.4622   -1.4003    0.0284 C   0  0  0  0  0  0  0  0  0  0  0  0
   -1.0889    1.0278    0.0520 C   0  0  1  0  0  0  0  0  0  0  0  0
    1.0041   -1.1311   -0.0429 C   0  0  2  0  0  0  0  0  0  0  0  0
    0.4124    1.4349    0.1259 C   0  0  1  0  0  0  0  0  0  0  0  0
    1.4845    0.3309    0.0848 C   0  0  1  0  0  0  0  0  0  0  0  0
   -1.6716    1.5727   -1.1909 N   0  0  0  0  0  0  0  0  0  0  0  0
   -1.6404   -3.1290    1.1631 O   0  0  0  0  0  0  0  0  0  0  0  0
    1.4481   -1.6644   -1.2942 O   0  0  0  0  0  0  0  0  0  0  0  0
    0.6827    2.2862   -1.0224 O   0  0  0  0  0  0  0  0  0  0  0  0
    2.3659    0.4991    1.2164 O   0  0  0  0  0  0  0  0  0  0  0  0
   -1.6044    1.4759    0.9131 H   0  0  0  0  0  0  0  0  0  0  0  0
    1.4920   -1.7298    0.7354 H   0  0  0  0  0  0  0  0  0  0  0  0
    0.5605    2.0796    1.0019 H   0  0  0  0  0  0  0  0  0  0  0  0
    2.1391    0.5354   -0.7723 H   0  0  0  0  0  0  0  0  0  0  0  0
   -2.4392   -0.7069    0.0814 H   0  0  0  0  0  0  0  0  0  0  0  0
   -1.4590   -3.0679   -0.8854 H   0  0  0  0  0  0  0  0  0  0  0  0
    0.0030   -3.5135    0.0070 H   0  0  0  0  0  0  0  0  0  0  0  0
   -1.5085    2.5859   -1.1738 H   0  0  0  0  0  0  0  0  0  0  0  0
   -2.6836    1.4596   -1.1818 H   0  0  0  0  0  0  0  0  0  0  0  0
   -1.0922   -2.8975    1.9308 H   0  0  0  0  0  0  0  0  0  0  0  0
    1.0789   -1.0949   -1.9934 H   0  0  0  0  0  0  0  0  0  0  0  0
    0.1896    1.8398   -1.7462 H   0  0  0  0  0  0  0  0  0  0  0  0
    2.1197   -0.1278    1.9144 H   0  0  0  0  0  0  0  0  0  0  0  0
  1 17  1  0  0  0  0
  2 18  1  0  0  0  0
  2 19  1  0  0  0  0
  3  1  2  0  0  0  0
  3  2  1  0  0  0  0
  4  1  1  0  0  0  0
  4 13  1  1  0  0  0
  4  8  1  0  0  0  0
  5  3  1  0  0  0  0
  5 10  1  0  0  0  0
  5 14  1  1  0  0  0
  6  4  1  0  0  0  0
  6 15  1  1  0  0  0
  6 11  1  0  0  0  0
  7  5  1  0  0  0  0
  7  6  1  0  0  0  0
  7 16  1  6  0  0  0
  7 12  1  0  0  0  0
  8 20  1  0  0  0  0
  8 21  1  0  0  0  0
  9  2  1  0  0  0  0
  9 22  1  0  0  0  0
 10 23  1  0  0  0  0
 11 24  1  0  0  0  0
 12 25  1  0  0  0  0
M  END
>  <DRUGBANK_ID>
DB02120

>  <SECONDARY_ACCESSION_NUMBERS>
EXPT00413

>  <COMMON_NAME>
6-Amino-4-Hydroxymethyl-Cyclohex-4-Ene-1,2,3-Triol

>  <CAS_NUMBER>
38231-86-6

$$$$
