859
 OpenBabel10282417163D

 39 41  0  0  0  0  0  0  0  0999 V2000
    0.0719    1.2747   -0.0779 C   0  0  0  0  0  0  0  0  0  0  0  0
    1.1725    0.5416   -0.2360 N   0  0  0  0  0  0  0  0  0  0  0  0
    1.0981   -0.7899   -0.1601 C   0  0  0  0  0  0  0  0  0  0  0  0
   -0.1135   -1.4271   -0.0708 C   0  0  0  0  0  0  0  0  0  0  0  0
   -1.2154   -0.6028   -0.0219 C   0  0  0  0  0  0  0  0  0  0  0  0
   -1.1553    0.7460   -0.0096 N   0  0  0  0  0  0  0  0  0  0  0  0
    2.3021   -1.5079   -0.2621 N   0  0  0  0  0  0  0  0  0  0  0  0
    3.5723   -0.9095   -0.0092 C   0  0  0  0  0  0  0  0  0  0  0  0
    3.9222   -0.0905    1.1013 C   0  0  0  0  0  0  0  0  0  0  0  0
    5.2381    0.4216    1.1586 C   0  0  0  0  0  0  0  0  0  0  0  0
    6.1948    0.0967    0.1925 C   0  0  0  0  0  0  0  0  0  0  0  0
    5.8678   -0.7634   -0.8437 C   0  0  0  0  0  0  0  0  0  0  0  0
    4.5656   -1.2414   -0.9526 C   0  0  0  0  0  0  0  0  0  0  0  0
    0.2346    2.6480    0.0734 N   0  0  0  0  0  0  0  0  0  0  0  0
    1.4369    3.3633   -0.0090 C   0  0  0  0  0  0  0  0  0  0  0  0
    1.7861    4.2779    0.9911 C   0  0  0  0  0  0  0  0  0  0  0  0
    2.9755    5.0092    0.9019 C   0  0  0  0  0  0  0  0  0  0  0  0
    3.8570    4.7852   -0.1549 C   0  0  0  0  0  0  0  0  0  0  0  0
    3.5276    3.8618   -1.1359 C   0  0  0  0  0  0  0  0  0  0  0  0
    2.3337    3.1518   -1.0675 C   0  0  0  0  0  0  0  0  0  0  0  0
    4.3947    3.6926   -2.1756 O   0  0  0  0  0  0  0  0  0  0  0  0
    2.9646    0.2431    2.2229 C   0  0  0  0  0  0  0  0  0  0  0  0
    3.3196    1.1911    3.1467 N   0  0  0  0  0  0  0  0  0  0  0  0
    1.8893   -0.3286    2.4121 O   0  0  0  0  0  0  0  0  0  0  0  0
   -0.2021   -2.5020   -0.0208 H   0  0  0  0  0  0  0  0  0  0  0  0
   -2.2161   -1.0224    0.0188 H   0  0  0  0  0  0  0  0  0  0  0  0
    2.2460   -2.4223    0.1712 H   0  0  0  0  0  0  0  0  0  0  0  0
    5.5658    1.0768    1.9569 H   0  0  0  0  0  0  0  0  0  0  0  0
    7.1944    0.5206    0.2522 H   0  0  0  0  0  0  0  0  0  0  0  0
    6.6163   -1.0496   -1.5766 H   0  0  0  0  0  0  0  0  0  0  0  0
    4.2937   -1.8422   -1.8181 H   0  0  0  0  0  0  0  0  0  0  0  0
   -0.6301    3.1528    0.1616 H   0  0  0  0  0  0  0  0  0  0  0  0
    1.1546    4.3937    1.8685 H   0  0  0  0  0  0  0  0  0  0  0  0
    3.2136    5.7557    1.6540 H   0  0  0  0  0  0  0  0  0  0  0  0
    4.7957    5.3269   -0.2149 H   0  0  0  0  0  0  0  0  0  0  0  0
    2.0825    2.4236   -1.8334 H   0  0  0  0  0  0  0  0  0  0  0  0
    3.9958    3.0617   -2.7990 H   0  0  0  0  0  0  0  0  0  0  0  0
    2.6099    1.4232    3.8283 H   0  0  0  0  0  0  0  0  0  0  0  0
    4.2028    1.6688    3.2045 H   0  0  0  0  0  0  0  0  0  0  0  0
  1  6  2  0  0  0  0
  1  2  1  0  0  0  0
  1 14  1  0  0  0  0
  2  3  2  0  0  0  0
  3  4  1  0  0  0  0
  3  7  1  0  0  0  0
  4  5  2  0  0  0  0
  4 25  1  0  0  0  0
  5  6  1  0  0  0  0
  5 26  1  0  0  0  0
  7  8  1  0  0  0  0
  7 27  1  0  0  0  0
  8  9  1  0  0  0  0
  8 13  2  0  0  0  0
  9 22  1  0  0  0  0
  9 10  2  0  0  0  0
 10 11  1  0  0  0  0
 10 28  1  0  0  0  0
 11 12  2  0  0  0  0
 11 29  1  0  0  0  0
 12 13  1  0  0  0  0
 12 30  1  0  0  0  0
 13 31  1  0  0  0  0
 14 15  1  0  0  0  0
 14 32  1  0  0  0  0
 15 20  2  0  0  0  0
 15 16  1  0  0  0  0
 16 17  2  0  0  0  0
 16 33  1  0  0  0  0
 17 18  1  0  0  0  0
 17 34  1  0  0  0  0
 18 19  2  0  0  0  0
 18 35  1  0  0  0  0
 19 20  1  0  0  0  0
 19 21  1  0  0  0  0
 20 36  1  0  0  0  0
 21 37  1  0  0  0  0
 22 23  1  0  0  0  0
 22 24  2  0  0  0  0
 23 38  1  0  0  0  0
 23 39  1  0  0  0  0
M  END
>  <DRUGBANK_ID>
DB07268

>  <COMMON_NAME>
2-({2-[(3-HYDROXYPHENYL)AMINO]PYRIMIDIN-4-YL}AMINO)BENZAMIDE

>  <UNII>
MU563H6ION

$$$$
