M8E
 OpenBabel10282417173D

 55 57  0  0  0  0  0  0  0  0999 V2000
    0.9911    0.1214    0.3708 N   0  0  0  0  0  0  0  0  0  0  0  0
    0.2756   -1.1463    0.4170 O   0  0  0  0  0  0  0  0  0  0  0  0
    0.9732   -0.1354   -2.5354 C   0  0  0  0  0  0  0  0  0  0  0  0
    2.5235   -0.1692   -2.5219 C   0  0  0  0  0  0  0  0  0  0  0  0
    3.1627   -1.0106   -3.5546 N   0  0  0  0  0  0  0  0  0  0  0  0
    4.6196   -0.8533   -3.5453 C   0  0  0  0  0  0  0  0  0  0  0  0
    2.8478   -2.4498   -3.4598 C   0  0  0  0  0  0  0  0  0  0  0  0
    3.2989   -3.1389   -2.1407 C   0  0  1  0  0  0  0  0  0  0  0  0
    2.2521   -3.8739   -1.4821 O   0  0  0  0  0  0  0  0  0  0  0  0
    2.5429   -5.2738   -1.4173 C   0  0  1  0  0  0  0  0  0  0  0  0
    1.3558   -5.9627   -1.8812 N   0  0  0  0  0  0  0  0  0  0  0  0
    0.8854   -5.7298   -3.1520 C   0  0  0  0  0  0  0  0  0  0  0  0
    1.4618   -4.9412   -4.0819 N   0  0  0  0  0  0  0  0  0  0  0  0
    0.7605   -4.9190   -5.2159 C   0  0  0  0  0  0  0  0  0  0  0  0
   -0.3679   -5.5867   -5.4907 N   0  0  0  0  0  0  0  0  0  0  0  0
   -0.9004   -6.3791   -4.5267 C   0  0  0  0  0  0  0  0  0  0  0  0
   -2.0430   -7.0704   -4.8192 N   0  0  0  0  0  0  0  0  0  0  0  0
   -0.2538   -6.4570   -3.2826 C   0  0  0  0  0  0  0  0  0  0  0  0
   -0.5192   -7.1402   -2.1197 N   0  0  0  0  0  0  0  0  0  0  0  0
    0.4526   -6.8254   -1.2694 C   0  0  0  0  0  0  0  0  0  0  0  0
    3.7901   -5.4654   -2.2941 C   0  0  2  0  0  0  0  0  0  0  0  0
    4.6429   -6.4799   -1.7787 O   0  0  0  0  0  0  0  0  0  0  0  0
    4.4577   -4.0958   -2.2963 C   0  0  2  0  0  0  0  0  0  0  0  0
    5.3335   -3.9907   -1.1591 O   0  0  0  0  0  0  0  0  0  0  0  0
    0.2073   -1.3863   -2.0539 C   0  0  0  0  0  0  0  0  0  0  0  0
    0.6663   -1.9330   -0.7032 C   0  0  0  0  0  0  0  0  0  0  0  0
   -0.3543   -8.1516    0.5464 C   0  0  0  0  0  0  0  0  0  0  0  0
    0.5699   -7.2975    0.0734 C   0  0  0  0  0  0  0  0  0  0  0  0
    3.5895   -2.3735   -1.4169 H   0  0  0  0  0  0  0  0  0  0  0  0
    2.7259   -5.5224   -0.3673 H   0  0  0  0  0  0  0  0  0  0  0  0
    3.5452   -5.7276   -3.3243 H   0  0  0  0  0  0  0  0  0  0  0  0
    5.0511   -3.8880   -3.1913 H   0  0  0  0  0  0  0  0  0  0  0  0
    0.6572    0.5666    1.2191 H   0  0  0  0  0  0  0  0  0  0  0  0
    1.9661   -0.1360    0.5236 H   0  0  0  0  0  0  0  0  0  0  0  0
    0.6289    0.1420   -3.5373 H   0  0  0  0  0  0  0  0  0  0  0  0
    0.6524    0.7056   -1.9097 H   0  0  0  0  0  0  0  0  0  0  0  0
    2.8522    0.8694   -2.6761 H   0  0  0  0  0  0  0  0  0  0  0  0
    2.9070   -0.4146   -1.5266 H   0  0  0  0  0  0  0  0  0  0  0  0
    5.0678   -1.2080   -2.6109 H   0  0  0  0  0  0  0  0  0  0  0  0
    5.0517   -1.4369   -4.3667 H   0  0  0  0  0  0  0  0  0  0  0  0
    4.9203    0.1860   -3.6928 H   0  0  0  0  0  0  0  0  0  0  0  0
    1.7947   -2.5743   -3.6779 H   0  0  0  0  0  0  0  0  0  0  0  0
    3.3127   -2.9465   -4.3202 H   0  0  0  0  0  0  0  0  0  0  0  0
    1.1653   -4.2823   -5.9996 H   0  0  0  0  0  0  0  0  0  0  0  0
   -2.4504   -7.6609   -4.1076 H   0  0  0  0  0  0  0  0  0  0  0  0
   -2.4409   -6.9567   -5.7368 H   0  0  0  0  0  0  0  0  0  0  0  0
    5.1315   -6.0804   -1.0343 H   0  0  0  0  0  0  0  0  0  0  0  0
    4.7935   -3.9180   -0.3523 H   0  0  0  0  0  0  0  0  0  0  0  0
    0.2520   -2.1733   -2.8078 H   0  0  0  0  0  0  0  0  0  0  0  0
   -0.8600   -1.1558   -1.9934 H   0  0  0  0  0  0  0  0  0  0  0  0
    1.7457   -1.9917   -0.6313 H   0  0  0  0  0  0  0  0  0  0  0  0
    0.2693   -2.9474   -0.5649 H   0  0  0  0  0  0  0  0  0  0  0  0
   -0.3169   -8.5500    1.5563 H   0  0  0  0  0  0  0  0  0  0  0  0
   -1.1912   -8.4905   -0.0650 H   0  0  0  0  0  0  0  0  0  0  0  0
    1.3789   -6.9946    0.7274 H   0  0  0  0  0  0  0  0  0  0  0  0
  1  2  1  0  0  0  0
  1 33  1  0  0  0  0
  1 34  1  0  0  0  0
  2 26  1  0  0  0  0
  3  4  1  0  0  0  0
  3 25  1  0  0  0  0
  3 35  1  0  0  0  0
  3 36  1  0  0  0  0
  4  5  1  0  0  0  0
  4 37  1  0  0  0  0
  4 38  1  0  0  0  0
  5  6  1  0  0  0  0
  5  7  1  0  0  0  0
  6 39  1  0  0  0  0
  6 40  1  0  0  0  0
  6 41  1  0  0  0  0
  7 42  1  0  0  0  0
  7 43  1  0  0  0  0
  8  7  1  0  0  0  0
  8  9  1  0  0  0  0
  8 23  1  0  0  0  0
  8 29  1  1  0  0  0
  9 10  1  0  0  0  0
 10 21  1  0  0  0  0
 10 30  1  1  0  0  0
 10 11  1  0  0  0  0
 11 12  1  0  0  0  0
 11 20  1  0  0  0  0
 12 13  2  0  0  0  0
 12 18  1  0  0  0  0
 13 14  1  0  0  0  0
 14 15  2  0  0  0  0
 14 44  1  0  0  0  0
 15 16  1  0  0  0  0
 16 17  1  0  0  0  0
 16 18  2  0  0  0  0
 17 45  1  0  0  0  0
 17 46  1  0  0  0  0
 18 19  1  0  0  0  0
 19 20  2  0  0  0  0
 20 28  1  0  0  0  0
 21 22  1  0  0  0  0
 21 23  1  0  0  0  0
 21 31  1  6  0  0  0
 22 47  1  0  0  0  0
 23 24  1  0  0  0  0
 23 32  1  6  0  0  0
 24 48  1  0  0  0  0
 25 26  1  0  0  0  0
 25 49  1  0  0  0  0
 25 50  1  0  0  0  0
 26 51  1  0  0  0  0
 26 52  1  0  0  0  0
 27 28  2  0  0  0  0
 27 53  1  0  0  0  0
 27 54  1  0  0  0  0
 28 55  1  0  0  0  0
M  END
>  <DRUGBANK_ID>
DB08163

>  <COMMON_NAME>
5'-{[4-(aminooxy)butyl](methyl)amino}-5'-deoxy-8-ethenyladenosine

$$$$
