
 OpenBabel10282417213D

  8  6  0  0  0  0  0  0  0  0999 V2000
    0.5190   -1.6075   -0.6888 K   0  3  0  0  0  0  0  0  0  0  0  0
    1.0889    0.5055    0.3533 O   0  5  0  0  0  0  0  0  0  0  0  0
    2.3363    0.3165    0.2295 C   0  0  0  0  0  0  0  0  0  0  0  0
    3.2480    1.4802    0.4577 C   0  0  0  0  0  0  0  0  0  0  0  0
    2.8346   -0.7800   -0.1491 O   0  0  0  0  0  0  0  0  0  0  0  0
    3.9020    1.2861    1.3115 H   0  0  0  0  0  0  0  0  0  0  0  0
    3.8581    1.6554   -0.4334 H   0  0  0  0  0  0  0  0  0  0  0  0
    2.6648    2.3840    0.6582 H   0  0  0  0  0  0  0  0  0  0  0  0
  2  3  1  0  0  0  0
  3  4  1  0  0  0  0
  3  5  2  0  0  0  0
  4  6  1  0  0  0  0
  4  7  1  0  0  0  0
  4  8  1  0  0  0  0
M  CHG  2   1   1   2  -1
M  END
>  <DRUGBANK_ID>
DB14498

>  <SECONDARY_ACCESSION_NUMBERS>
DBSALT001427

>  <COMMON_NAME>
Potassium acetate

>  <CAS_NUMBER>
127-08-2

>  <UNII>
M911911U02

>  <SYNONYMS>
Potassium acetate

$$$$
