214
 OpenBabel10282417103D

 44 45  0  0  0  0  0  0  0  0999 V2000
    1.0672   -0.4156    0.0055 S   0  0  0  0  0  0  0  0  0  0  0  0
    0.6310   -0.9036   -1.2894 O   0  0  0  0  0  0  0  0  0  0  0  0
    0.6798   -0.9657    1.2828 O   0  0  0  0  0  0  0  0  0  0  0  0
    0.4899    3.8865    0.0687 O   0  0  0  0  0  0  0  0  0  0  0  0
    2.0132    2.5005    0.8353 N   0  0  0  0  0  0  0  0  0  0  0  0
    3.9560    2.6950   -0.4655 N   0  0  0  0  0  0  0  0  0  0  0  0
    0.1567    1.5055    0.0726 N   0  0  0  0  0  0  0  0  0  0  0  0
    5.2650   -1.5177   -0.0170 N   0  0  0  0  0  0  0  0  0  0  0  0
    2.6325    1.4527    0.2502 C   0  0  0  0  0  0  0  0  0  0  0  0
    3.3731   -0.3954   -0.0907 C   0  0  0  0  0  0  0  0  0  0  0  0
    4.5650    1.0459   -0.1844 C   0  0  0  0  0  0  0  0  0  0  0  0
    4.2062    4.0179   -0.2404 C   0  0  0  0  0  0  0  0  0  0  0  0
    3.1723    1.0966   -1.7383 C   0  0  0  0  0  0  0  0  0  0  0  0
    3.5767    0.9922    1.8298 C   0  0  0  0  0  0  0  0  0  0  0  0
    0.8240    2.7561    0.3274 C   0  0  0  0  0  0  0  0  0  0  0  0
    3.8998   -1.5937   -0.0354 C   0  0  0  0  0  0  0  0  0  0  0  0
    5.8707    1.0921   -0.0939 C   0  0  0  0  0  0  0  0  0  0  0  0
    4.7723    4.4610   -1.3713 C   0  0  0  0  0  0  0  0  0  0  0  0
    5.4352    5.6117   -1.2423 C   0  0  0  0  0  0  0  0  0  0  0  0
    3.6981    4.8832    0.7572 C   0  0  0  0  0  0  0  0  0  0  0  0
    6.1259   -0.2444   -0.0246 C   0  0  0  0  0  0  0  0  0  0  0  0
    5.2103    6.4346   -0.1268 C   0  0  0  0  0  0  0  0  0  0  0  0
    4.2837    6.1061    0.8581 C   0  0  0  0  0  0  0  0  0  0  0  0
    6.4104    5.7583   -2.3319 C   0  0  0  0  0  0  0  0  0  0  0  0
    2.7399    3.1202    1.0533 H   0  0  0  0  0  0  0  0  0  0  0  0
    3.0140    2.7833   -0.9651 H   0  0  0  0  0  0  0  0  0  0  0  0
   -0.7895    1.5825   -0.2823 H   0  0  0  0  0  0  0  0  0  0  0  0
    1.8707    1.1794   -0.3520 H   0  0  0  0  0  0  0  0  0  0  0  0
    4.1349    1.5942   -2.1213 H   0  0  0  0  0  0  0  0  0  0  0  0
    3.6489    0.0852   -2.0012 H   0  0  0  0  0  0  0  0  0  0  0  0
    2.5155    1.3704   -2.5411 H   0  0  0  0  0  0  0  0  0  0  0  0
    3.0305    1.1357    2.7567 H   0  0  0  0  0  0  0  0  0  0  0  0
    4.1020    0.0101    1.9206 H   0  0  0  0  0  0  0  0  0  0  0  0
    4.4542    1.6867    1.9652 H   0  0  0  0  0  0  0  0  0  0  0  0
    3.3047   -2.5015   -0.0262 H   0  0  0  0  0  0  0  0  0  0  0  0
    6.3940    2.0444   -0.1018 H   0  0  0  0  0  0  0  0  0  0  0  0
    4.9153    3.7549   -2.1940 H   0  0  0  0  0  0  0  0  0  0  0  0
    2.9661    4.6633    1.5464 H   0  0  0  0  0  0  0  0  0  0  0  0
    7.1716   -0.4975    0.0521 H   0  0  0  0  0  0  0  0  0  0  0  0
    5.7603    7.3511   -0.0251 H   0  0  0  0  0  0  0  0  0  0  0  0
    4.0788    6.7242    1.7282 H   0  0  0  0  0  0  0  0  0  0  0  0
    6.1007    6.6221   -2.9003 H   0  0  0  0  0  0  0  0  0  0  0  0
    7.4076    5.7704   -1.9027 H   0  0  0  0  0  0  0  0  0  0  0  0
    6.3727    4.8824   -3.0082 H   0  0  0  0  0  0  0  0  0  0  0  0
  1  2  2  0  0  0  0
  1  3  2  0  0  0  0
  1  7  1  0  0  0  0
  1 10  1  0  0  0  0
  4 15  2  0  0  0  0
  5  9  1  0  0  0  0
  5 15  1  0  0  0  0
  5 25  1  0  0  0  0
  6 11  1  0  0  0  0
  6 12  1  0  0  0  0
  6 26  1  0  0  0  0
  7 15  1  0  0  0  0
  7 27  1  0  0  0  0
  8 16  2  0  0  0  0
  8 21  1  0  0  0  0
  9 13  1  0  0  0  0
  9 14  1  0  0  0  0
  9 28  1  0  0  0  0
 10 11  2  0  0  0  0
 10 16  1  0  0  0  0
 11 17  1  0  0  0  0
 12 18  1  0  0  0  0
 12 20  2  0  0  0  0
 13 29  1  0  0  0  0
 13 30  1  0  0  0  0
 13 31  1  0  0  0  0
 14 32  1  0  0  0  0
 14 33  1  0  0  0  0
 14 34  1  0  0  0  0
 16 35  1  0  0  0  0
 17 21  2  0  0  0  0
 17 36  1  0  0  0  0
 18 19  2  0  0  0  0
 18 37  1  0  0  0  0
 19 22  1  0  0  0  0
 19 24  1  0  0  0  0
 20 23  1  0  0  0  0
 20 38  1  0  0  0  0
 21 39  1  0  0  0  0
 22 23  2  0  0  0  0
 22 40  1  0  0  0  0
 23 41  1  0  0  0  0
 24 42  1  0  0  0  0
 24 43  1  0  0  0  0
 24 44  1  0  0  0  0
M  END
>  <DRUGBANK_ID>
DB00214

>  <SECONDARY_ACCESSION_NUMBERS>
APRD00295; APRD00217

>  <COMMON_NAME>
Torasemide

>  <CAS_NUMBER>
56211-40-6

>  <UNII>
W31X2H97FB

>  <SYNONYMS>
1-Isopropyl-3-((4-m-toluidino-3-pyridyl)sulfonyl)urea; N-(((1-Methylethyl)amino)carbonyl)-4-((3-methylphenyl)amino)-3-pyridinesulfonamide; Torasemida; Torasemide; Toras√©mide; Torasemidum; Torsemide

$$$$
