26C
 OpenBabel10282417163D

 25 26  0  0  0  0  0  0  0  0999 V2000
    0.9434    0.0089   -0.0225 O   0  0  0  0  0  0  0  0  0  0  0  0
    2.1665    0.0108   -0.0744 C   0  0  0  0  0  0  0  0  0  0  0  0
    2.9260   -0.9773    0.4367 O   0  0  0  0  0  0  0  0  0  0  0  0
    2.9262    1.1549   -0.6259 C   0  0  0  0  0  0  0  0  0  0  0  0
    2.4652    2.4360   -0.3110 C   0  0  0  0  0  0  0  0  0  0  0  0
    4.0356    1.0025   -1.4637 C   0  0  0  0  0  0  0  0  0  0  0  0
    4.7014    2.1412   -1.9434 C   0  0  0  0  0  0  0  0  0  0  0  0
    4.2223    3.4349   -1.6668 C   0  0  0  0  0  0  0  0  0  0  0  0
    3.1086    3.5625   -0.8237 C   0  0  0  0  0  0  0  0  0  0  0  0
    4.8760    4.6276   -2.2213 C   0  0  0  0  0  0  0  0  0  0  0  0
    5.4121    5.6027   -1.3724 C   0  0  0  0  0  0  0  0  0  0  0  0
    5.3066    5.4621   -0.0419 F   0  0  0  0  0  0  0  0  0  0  0  0
    6.0614    6.7339   -1.8626 C   0  0  0  0  0  0  0  0  0  0  0  0
    6.2041    6.9112   -3.2360 C   0  0  0  0  0  0  0  0  0  0  0  0
    5.6904    5.9542   -4.1083 C   0  0  0  0  0  0  0  0  0  0  0  0
    4.9998    4.8503   -3.6011 C   0  0  0  0  0  0  0  0  0  0  0  0
    4.4217    4.0137   -4.4777 F   0  0  0  0  0  0  0  0  0  0  0  0
    3.8854   -0.8072    0.4645 H   0  0  0  0  0  0  0  0  0  0  0  0
    1.5917    2.5610    0.3257 H   0  0  0  0  0  0  0  0  0  0  0  0
    4.3692    0.0196   -1.7865 H   0  0  0  0  0  0  0  0  0  0  0  0
    5.6072    2.0188   -2.5370 H   0  0  0  0  0  0  0  0  0  0  0  0
    2.7339    4.5488   -0.5544 H   0  0  0  0  0  0  0  0  0  0  0  0
    6.4586    7.4603   -1.1607 H   0  0  0  0  0  0  0  0  0  0  0  0
    6.7035    7.7955   -3.6231 H   0  0  0  0  0  0  0  0  0  0  0  0
    5.8204    6.0611   -5.1820 H   0  0  0  0  0  0  0  0  0  0  0  0
  1  2  2  0  0  0  0
  2  3  1  0  0  0  0
  2  4  1  0  0  0  0
  3 18  1  0  0  0  0
  4  5  2  0  0  0  0
  4  6  1  0  0  0  0
  5  9  1  0  0  0  0
  5 19  1  0  0  0  0
  6  7  2  0  0  0  0
  6 20  1  0  0  0  0
  7  8  1  0  0  0  0
  7 21  1  0  0  0  0
  8  9  2  0  0  0  0
  8 10  1  0  0  0  0
  9 22  1  0  0  0  0
 10 11  1  0  0  0  0
 10 16  2  0  0  0  0
 11 12  1  0  0  0  0
 11 13  2  0  0  0  0
 13 14  1  0  0  0  0
 13 23  1  0  0  0  0
 14 15  2  0  0  0  0
 14 24  1  0  0  0  0
 15 16  1  0  0  0  0
 15 25  1  0  0  0  0
 16 17  1  0  0  0  0
M  END
>  <DRUGBANK_ID>
DB06935

>  <COMMON_NAME>
2',6'-DIFLUOROBIPHENYL-4-CARBOXYLIC ACID

$$$$
