
 OpenBabel10282417113D

 47 50  0  0  0  0  0  0  0  0999 V2000
    2.0325    1.9507   -0.1175 C   0  0  2  0  0  0  0  0  0  0  0  0
    2.7017    0.6775    0.3440 C   0  0  0  0  0  0  0  0  0  0  0  0
    3.4704    3.1756    0.4435 C   0  0  0  0  0  0  0  0  0  0  0  0
    3.3831    0.8038    1.4926 C   0  0  0  0  0  0  0  0  0  0  0  0
    4.1858    3.0414    1.9337 C   0  0  0  0  0  0  0  0  0  0  0  0
    3.1126    2.1332    2.1921 C   0  0  0  0  0  0  0  0  0  0  0  0
    0.3186    1.1431    0.2115 C   0  0  2  0  0  0  0  0  0  0  0  0
   -0.1584   -0.5619   -0.4424 C   0  0  1  0  0  0  0  0  0  0  0  0
    2.4497   -0.6884   -0.2702 C   0  0  0  0  0  0  0  0  0  0  0  0
    1.0650   -1.3831    0.1387 C   0  0  0  0  0  0  0  0  0  0  0  0
   -0.9966    1.8431   -0.1324 C   0  0  0  0  0  0  0  0  0  0  0  0
   -2.2408    1.0559    0.3562 C   0  0  0  0  0  0  0  0  0  0  0  0
   -1.8872   -1.4257   -0.7456 C   0  0  1  0  0  0  0  0  0  0  0  0
   -2.5304   -0.1992   -0.3438 C   0  0  1  0  0  0  0  0  0  0  0  0
   -3.8645   -1.1424   -1.3299 C   0  0  0  0  0  0  0  0  0  0  0  0
   -4.8287   -0.8139   -0.1558 C   0  0  0  0  0  0  0  0  0  0  0  0
   -3.6610   -1.2685    0.5318 C   0  0  2  0  0  0  0  0  0  0  0  0
    2.0054    2.6467    2.4203 O   0  0  0  0  0  0  0  0  0  0  0  0
    4.6148    0.1600    1.5568 O   0  0  0  0  0  0  0  0  0  0  0  0
   -3.6518   -1.1796    1.9129 O   0  0  0  0  0  0  0  0  0  0  0  0
   -2.1363   -0.0511   -2.1751 C   0  0  0  0  0  0  0  0  0  0  0  0
    2.0320    2.1680   -1.1954 H   0  0  0  0  0  0  0  0  0  0  0  0
    0.3447    0.9916    1.3061 H   0  0  0  0  0  0  0  0  0  0  0  0
    0.1937   -0.5184   -1.4723 H   0  0  0  0  0  0  0  0  0  0  0  0
   -1.8611   -2.3490   -0.1820 H   0  0  0  0  0  0  0  0  0  0  0  0
    3.3439    4.2752    0.4452 H   0  0  0  0  0  0  0  0  0  0  0  0
    4.3482    3.0763   -0.2573 H   0  0  0  0  0  0  0  0  0  0  0  0
    4.1262    3.8413    2.6980 H   0  0  0  0  0  0  0  0  0  0  0  0
    5.1893    2.5923    2.0644 H   0  0  0  0  0  0  0  0  0  0  0  0
    3.2555   -1.3443    0.0797 H   0  0  0  0  0  0  0  0  0  0  0  0
    2.5476   -0.6621   -1.3621 H   0  0  0  0  0  0  0  0  0  0  0  0
    1.0333   -1.4404    1.2372 H   0  0  0  0  0  0  0  0  0  0  0  0
    1.0805   -2.4120   -0.2356 H   0  0  0  0  0  0  0  0  0  0  0  0
   -1.0603    1.9019   -1.2190 H   0  0  0  0  0  0  0  0  0  0  0  0
   -1.0746    2.8464    0.2689 H   0  0  0  0  0  0  0  0  0  0  0  0
   -3.1310    1.6647    0.1319 H   0  0  0  0  0  0  0  0  0  0  0  0
   -2.2649    0.8981    1.4416 H   0  0  0  0  0  0  0  0  0  0  0  0
   -4.4473   -1.6469   -2.1116 H   0  0  0  0  0  0  0  0  0  0  0  0
   -4.0507   -0.1704   -1.8345 H   0  0  0  0  0  0  0  0  0  0  0  0
   -5.7624   -1.3859   -0.0518 H   0  0  0  0  0  0  0  0  0  0  0  0
   -5.0356    0.2473    0.0567 H   0  0  0  0  0  0  0  0  0  0  0  0
   -3.6583   -2.3849    0.3098 H   0  0  0  0  0  0  0  0  0  0  0  0
    5.3162    0.7929    1.7901 H   0  0  0  0  0  0  0  0  0  0  0  0
   -2.7026   -1.1614    2.1068 H   0  0  0  0  0  0  0  0  0  0  0  0
   -1.1133    0.1947   -2.4043 H   0  0  0  0  0  0  0  0  0  0  0  0
   -2.2530   -1.0489   -2.7313 H   0  0  0  0  0  0  0  0  0  0  0  0
   -2.7560    0.6594   -2.7116 H   0  0  0  0  0  0  0  0  0  0  0  0
  1  3  1  0  0  0  0
  1  7  1  0  0  0  0
  1  2  1  0  0  0  0
  1 22  1  6  0  0  0
  2  4  2  0  0  0  0
  2  9  1  0  0  0  0
  3  5  1  0  0  0  0
  3 26  1  0  0  0  0
  3 27  1  0  0  0  0
  4  6  1  0  0  0  0
  4 19  1  0  0  0  0
  5  6  1  0  0  0  0
  5 28  1  0  0  0  0
  5 29  1  0  0  0  0
  6 18  2  0  0  0  0
  7 11  1  0  0  0  0
  7  8  1  0  0  0  0
  7 23  1  1  0  0  0
  8 10  1  0  0  0  0
  8 13  1  0  0  0  0
  8 24  1  6  0  0  0
  9 10  1  0  0  0  0
  9 30  1  0  0  0  0
  9 31  1  0  0  0  0
 10 32  1  0  0  0  0
 10 33  1  0  0  0  0
 11 12  1  0  0  0  0
 11 34  1  0  0  0  0
 11 35  1  0  0  0  0
 12 14  1  0  0  0  0
 12 36  1  0  0  0  0
 12 37  1  0  0  0  0
 13 15  1  0  0  0  0
 13 14  1  0  0  0  0
 13 25  1  1  0  0  0
 14 17  1  0  0  0  0
 14 21  1  6  0  0  0
 15 16  1  0  0  0  0
 15 38  1  0  0  0  0
 15 39  1  0  0  0  0
 16 17  1  0  0  0  0
 16 40  1  0  0  0  0
 16 41  1  0  0  0  0
 17 42  1  6  0  0  0
 17 20  1  0  0  0  0
 19 43  1  0  0  0  0
 20 44  1  0  0  0  0
 21 45  1  0  0  0  0
 21 46  1  0  0  0  0
 21 47  1  0  0  0  0
M  END
>  <DRUGBANK_ID>
DB01500

>  <COMMON_NAME>
Oxabolone

>  <CAS_NUMBER>
4721-69-1

>  <UNII>
51RPF719WE

>  <SYNONYMS>
4-hydroxy nandrolone; 4-hydroxy-19-nortestosterone

$$$$
