
 OpenBabel10282417123D

 26 26  0  0  1  0  0  0  0  0999 V2000
   -2.9996   -5.2316   -2.9275 C   0  0  0  0  0  0  0  0  0  0  0  0
   -1.4795   -5.1196   -2.9286 C   0  0  0  0  0  0  0  0  0  0  0  0
   -0.9751   -3.8494   -3.6165 C   0  0  0  0  0  0  0  0  0  0  0  0
   -1.5227   -2.5239   -3.0591 C   0  0  0  0  0  0  0  0  0  0  0  0
   -1.6082   -0.8527   -1.1418 C   0  0  0  0  0  0  0  0  0  0  0  0
   -1.3994   -0.8452    0.3636 C   0  0  0  0  0  0  0  0  0  0  0  0
   -1.6466   -3.2282   -0.5622 C   0  0  0  0  0  0  0  0  0  0  0  0
   -1.1206   -2.2278   -1.6006 C   0  0  1  0  0  0  0  0  0  0  0  0
   -1.4026   -2.9252    2.0860 O   0  0  0  0  0  0  0  0  0  0  0  0
   -2.1888   -2.3694    0.9446 S   0  0  1  0  0  0  0  0  0  0  0  0
   -0.0222   -2.2303   -1.5593 H   0  0  0  0  0  0  0  0  0  0  0  0
   -3.5039   -4.3246   -2.5824 H   0  0  0  0  0  0  0  0  0  0  0  0
   -3.3188   -6.0404   -2.2641 H   0  0  0  0  0  0  0  0  0  0  0  0
   -3.3655   -5.4289   -3.9368 H   0  0  0  0  0  0  0  0  0  0  0  0
   -1.0891   -5.1802   -1.9112 H   0  0  0  0  0  0  0  0  0  0  0  0
   -1.0550   -5.9998   -3.4221 H   0  0  0  0  0  0  0  0  0  0  0  0
    0.1211   -3.8277   -3.5687 H   0  0  0  0  0  0  0  0  0  0  0  0
   -1.2333   -3.9150   -4.6811 H   0  0  0  0  0  0  0  0  0  0  0  0
   -1.1442   -1.7155   -3.7010 H   0  0  0  0  0  0  0  0  0  0  0  0
   -2.6122   -2.4848   -3.1719 H   0  0  0  0  0  0  0  0  0  0  0  0
   -2.6710   -0.7237   -1.3862 H   0  0  0  0  0  0  0  0  0  0  0  0
   -1.0519   -0.0446   -1.6258 H   0  0  0  0  0  0  0  0  0  0  0  0
   -1.8626    0.0088    0.8574 H   0  0  0  0  0  0  0  0  0  0  0  0
   -0.3358   -0.8978    0.6175 H   0  0  0  0  0  0  0  0  0  0  0  0
   -0.8588   -3.9311   -0.2752 H   0  0  0  0  0  0  0  0  0  0  0  0
   -2.5308   -3.7680   -0.8833 H   0  0  0  0  0  0  0  0  0  0  0  0
  1 12  1  0  0  0  0
  1 13  1  0  0  0  0
  1 14  1  0  0  0  0
  2  1  1  0  0  0  0
  2 15  1  0  0  0  0
  2 16  1  0  0  0  0
  3  2  1  0  0  0  0
  3 17  1  0  0  0  0
  3 18  1  0  0  0  0
  4  3  1  0  0  0  0
  4 19  1  0  0  0  0
  4 20  1  0  0  0  0
  5 21  1  0  0  0  0
  5 22  1  0  0  0  0
  6  5  1  0  0  0  0
  6 23  1  0  0  0  0
  6 24  1  0  0  0  0
  7 25  1  0  0  0  0
  7 26  1  0  0  0  0
  8  5  1  0  0  0  0
  8  7  1  0  0  0  0
  8 11  1  1  0  0  0
  8  4  1  0  0  0  0
 10  6  1  0  0  0  0
 10  7  1  0  0  0  0
 10  9  2  1  0  0  0
M  END
>  <DRUGBANK_ID>
DB02871

>  <SECONDARY_ACCESSION_NUMBERS>
EXPT02956

>  <COMMON_NAME>
3-Butylthiolane 1-Oxide

$$$$
