
 OpenBabel10282417103D

139144  0  0  0  0  0  0  0  0999 V2000
   -7.3991    1.9055   -8.4950 N   0  3  1  0  0  0  0  0  0  0  0  0
   -4.6060    5.7577   -3.1562 N   0  3  1  0  0  0  0  0  0  0  0  0
   -8.0455   -0.5003   -7.8687 C   0  0  0  0  0  0  0  0  0  0  0  0
   -5.2963    8.1479   -2.4438 C   0  0  0  0  0  0  0  0  0  0  0  0
   -5.5489    6.6207   -2.1965 C   0  0  1  0  0  0  0  0  0  0  0  0
   -8.1295    0.9340   -7.4687 C   0  0  1  0  0  0  0  0  0  0  0  0
   -7.7063   -0.8402   -9.1800 C   0  0  0  0  0  0  0  0  0  0  0  0
   -4.0078    8.6040   -2.7746 C   0  0  0  0  0  0  0  0  0  0  0  0
   -8.3845   -1.5050   -6.9542 C   0  0  0  0  0  0  0  0  0  0  0  0
   -6.3721    9.0971   -2.5382 C   0  0  0  0  0  0  0  0  0  0  0  0
   -8.3099   -2.8432   -7.3085 C   0  0  0  0  0  0  0  0  0  0  0  0
   -6.2439   10.4040   -3.0645 C   0  0  0  0  0  0  0  0  0  0  0  0
   -3.8780   10.0077   -3.2516 C   0  0  0  0  0  0  0  0  0  0  0  0
   -7.6178   -2.1724   -9.5261 C   0  0  0  0  0  0  0  0  0  0  0  0
   -7.9200   -3.1787   -8.6100 C   0  0  0  0  0  0  0  0  0  0  0  0
   -4.9980   10.8101   -3.5403 C   0  0  0  0  0  0  0  0  0  0  0  0
   -5.0711    2.5553   -9.4729 C   0  0  0  0  0  0  0  0  0  0  0  0
   -5.5896    7.2601   -5.2190 C   0  0  0  0  0  0  0  0  0  0  0  0
   -5.8519    1.8641   -8.3599 C   0  0  0  0  0  0  0  0  0  0  0  0
   -4.7234    6.0472   -4.6981 C   0  0  0  0  0  0  0  0  0  0  0  0
   -5.0010    4.0464   -9.5968 C   0  0  0  0  0  0  0  0  0  0  0  0
   -4.7482    8.2791   -5.7948 C   0  0  0  0  0  0  0  0  0  0  0  0
   -9.5683    4.5109   -5.4328 C   0  0  0  0  0  0  0  0  0  0  0  0
   -8.0314    2.9536   -0.3459 C   0  0  0  0  0  0  0  0  0  0  0  0
   -3.1505    6.1526   -2.7901 C   0  0  0  0  0  0  0  0  0  0  0  0
   -7.8723    1.5257   -9.8846 C   0  0  0  0  0  0  0  0  0  0  0  0
   -7.6717    1.1684   -6.0226 C   0  0  0  0  0  0  0  0  0  0  0  0
   -7.0605    6.1379   -2.2733 C   0  0  0  0  0  0  0  0  0  0  0  0
   -8.5270    5.3889   -5.2967 C   0  0  0  0  0  0  0  0  0  0  0  0
   -8.3841    2.0081   -1.3181 C   0  0  0  0  0  0  0  0  0  0  0  0
   -7.5544    4.2686   -0.6723 C   0  0  0  0  0  0  0  0  0  0  0  0
   -9.3111    3.1347   -5.6955 C   0  0  0  0  0  0  0  0  0  0  0  0
   -2.8774    7.5803   -3.2035 C   0  0  0  0  0  0  0  0  0  0  0  0
   -7.3744    0.1611  -10.2426 C   0  0  0  0  0  0  0  0  0  0  0  0
   -7.9878    2.5930   -5.7107 C   0  0  0  0  0  0  0  0  0  0  0  0
   -7.5621    4.7383   -1.9267 C   0  0  0  0  0  0  0  0  0  0  0  0
   -3.9101    4.5865   -9.4797 O   0  0  0  0  0  0  0  0  0  0  0  0
   -3.7598    8.8205   -5.2082 O   0  0  0  0  0  0  0  0  0  0  0  0
   -8.3479    2.4274   -2.5822 C   0  0  0  0  0  0  0  0  0  0  0  0
   -7.2665    4.7524   -5.2437 C   0  0  0  0  0  0  0  0  0  0  0  0
   -6.9304    3.4157   -5.4559 C   0  0  0  0  0  0  0  0  0  0  0  0
   -8.0974    3.7752   -2.7591 C   0  0  0  0  0  0  0  0  0  0  0  0
   -7.9395    3.2827   -8.3516 C   0  0  0  0  0  0  0  0  0  0  0  0
   -4.6708    4.2452   -2.7982 C   0  0  0  0  0  0  0  0  0  0  0  0
   -7.4321   11.1009   -3.2000 O   0  0  0  0  0  0  0  0  0  0  0  0
   -8.6413   -3.6665   -6.2682 O   0  0  0  0  0  0  0  0  0  0  0  0
   -4.9914   11.8790   -4.3978 O   0  0  0  0  0  0  0  0  0  0  0  0
   -7.8522   -4.4939   -8.9498 O   0  0  0  0  0  0  0  0  0  0  0  0
  -10.6973    5.0175   -4.8812 O   0  0  0  0  0  0  0  0  0  0  0  0
   -8.1691    2.5979    0.9601 O   0  0  0  0  0  0  0  0  0  0  0  0
   -4.5263    8.8911   -7.0544 O   0  0  0  0  0  0  0  0  0  0  0  0
   -6.2020    4.6302   -9.8544 O   0  0  0  0  0  0  0  0  0  0  0  0
   -8.6205    6.6863   -4.8384 O   0  0  0  0  0  0  0  0  0  0  0  0
   -8.8462    0.7349   -1.2850 O   0  0  0  0  0  0  0  0  0  0  0  0
   -4.6893    8.4147   -8.3556 C   0  0  0  0  0  0  0  0  0  0  0  0
   -6.7625    5.9218   -9.4086 C   0  0  0  0  0  0  0  0  0  0  0  0
  -11.7842    4.1567   -4.7097 C   0  0  0  0  0  0  0  0  0  0  0  0
   -3.8090   12.3108   -5.0549 C   0  0  0  0  0  0  0  0  0  0  0  0
   -8.6214   -5.0611   -6.5300 C   0  0  0  0  0  0  0  0  0  0  0  0
   -7.9171    3.6809    1.8341 C   0  0  0  0  0  0  0  0  0  0  0  0
   -7.3466   12.5108   -3.4633 C   0  0  0  0  0  0  0  0  0  0  0  0
   -7.4978   -4.8095  -10.2844 C   0  0  0  0  0  0  0  0  0  0  0  0
   -9.5566    7.0451   -3.7775 C   0  0  0  0  0  0  0  0  0  0  0  0
   -9.1900    0.2898    0.0002 C   0  0  0  0  0  0  0  0  0  0  0  0
   -6.4624    6.2217   -7.9767 C   0  0  0  0  0  0  0  0  0  0  0  0
   -4.1831    7.0124   -8.5649 C   0  0  0  0  0  0  0  0  0  0  0  0
   -4.9858    6.0612   -7.7142 C   0  0  0  0  0  0  0  0  0  0  0  0
   -5.2022    6.3923   -1.1848 H   0  0  0  0  0  0  0  0  0  0  0  0
   -9.1941    1.1944   -7.5413 H   0  0  0  0  0  0  0  0  0  0  0  0
   -8.7224   -1.2858   -5.9411 H   0  0  0  0  0  0  0  0  0  0  0  0
   -7.3967    8.8038   -2.3201 H   0  0  0  0  0  0  0  0  0  0  0  0
   -2.9502   10.2428   -3.7887 H   0  0  0  0  0  0  0  0  0  0  0  0
   -7.3068   -2.3945  -10.5411 H   0  0  0  0  0  0  0  0  0  0  0  0
   -4.0273    2.2605   -9.2836 H   0  0  0  0  0  0  0  0  0  0  0  0
   -5.3181    2.1880  -10.4623 H   0  0  0  0  0  0  0  0  0  0  0  0
   -6.3231    7.6723   -4.5471 H   0  0  0  0  0  0  0  0  0  0  0  0
   -6.2972    6.9331   -5.9690 H   0  0  0  0  0  0  0  0  0  0  0  0
   -5.5565    2.2246   -7.3689 H   0  0  0  0  0  0  0  0  0  0  0  0
   -5.5708    0.8022   -8.3624 H   0  0  0  0  0  0  0  0  0  0  0  0
   -4.9837    5.0695   -5.1509 H   0  0  0  0  0  0  0  0  0  0  0  0
   -3.6971    6.0197   -5.0964 H   0  0  0  0  0  0  0  0  0  0  0  0
   -3.0230    6.0157   -1.7204 H   0  0  0  0  0  0  0  0  0  0  0  0
   -2.5092    5.4401   -3.3302 H   0  0  0  0  0  0  0  0  0  0  0  0
   -8.9672    1.5949   -9.8686 H   0  0  0  0  0  0  0  0  0  0  0  0
   -7.4943    2.2739  -10.5899 H   0  0  0  0  0  0  0  0  0  0  0  0
   -8.1741    0.5506   -5.2716 H   0  0  0  0  0  0  0  0  0  0  0  0
   -6.6043    0.9130   -5.9009 H   0  0  0  0  0  0  0  0  0  0  0  0
   -7.7035    6.8305   -1.7253 H   0  0  0  0  0  0  0  0  0  0  0  0
   -7.2903    6.3497   -3.2913 H   0  0  0  0  0  0  0  0  0  0  0  0
   -7.2246    4.9972    0.0533 H   0  0  0  0  0  0  0  0  0  0  0  0
  -10.1453    2.4476   -5.7907 H   0  0  0  0  0  0  0  0  0  0  0  0
   -1.8633    7.9355   -2.9796 H   0  0  0  0  0  0  0  0  0  0  0  0
   -2.7552    7.4668   -4.2849 H   0  0  0  0  0  0  0  0  0  0  0  0
   -7.8268   -0.1035  -11.2001 H   0  0  0  0  0  0  0  0  0  0  0  0
   -6.2888    0.1726  -10.3852 H   0  0  0  0  0  0  0  0  0  0  0  0
   -8.6513    1.7612   -3.3861 H   0  0  0  0  0  0  0  0  0  0  0  0
   -6.6196    5.1756   -4.5176 H   0  0  0  0  0  0  0  0  0  0  0  0
   -5.9265    3.0213   -5.2760 H   0  0  0  0  0  0  0  0  0  0  0  0
   -8.4583    4.0411   -3.6864 H   0  0  0  0  0  0  0  0  0  0  0  0
   -8.9909    3.2914   -8.0435 H   0  0  0  0  0  0  0  0  0  0  0  0
   -7.2613    3.7963   -7.7035 H   0  0  0  0  0  0  0  0  0  0  0  0
   -7.9734    3.7665   -9.3152 H   0  0  0  0  0  0  0  0  0  0  0  0
   -5.6821    3.9161   -2.6758 H   0  0  0  0  0  0  0  0  0  0  0  0
   -4.2673    3.6347   -3.6156 H   0  0  0  0  0  0  0  0  0  0  0  0
   -4.1483    4.0705   -1.8544 H   0  0  0  0  0  0  0  0  0  0  0  0
   -4.0673    9.1042   -8.9217 H   0  0  0  0  0  0  0  0  0  0  0  0
   -5.7344    8.6198   -8.5597 H   0  0  0  0  0  0  0  0  0  0  0  0
   -6.5003    6.7664  -10.0405 H   0  0  0  0  0  0  0  0  0  0  0  0
   -7.8591    5.8360   -9.4435 H   0  0  0  0  0  0  0  0  0  0  0  0
  -12.1186    3.9235   -5.7167 H   0  0  0  0  0  0  0  0  0  0  0  0
  -11.5407    3.2675   -4.1194 H   0  0  0  0  0  0  0  0  0  0  0  0
  -12.5374    4.7354   -4.1773 H   0  0  0  0  0  0  0  0  0  0  0  0
   -2.9345   12.2249   -4.4137 H   0  0  0  0  0  0  0  0  0  0  0  0
   -3.6678   11.7802   -6.0039 H   0  0  0  0  0  0  0  0  0  0  0  0
   -3.9228   13.3764   -5.2955 H   0  0  0  0  0  0  0  0  0  0  0  0
   -9.3526   -5.3132   -7.3046 H   0  0  0  0  0  0  0  0  0  0  0  0
   -7.6080   -5.3881   -6.7844 H   0  0  0  0  0  0  0  0  0  0  0  0
   -8.9140   -5.5869   -5.6193 H   0  0  0  0  0  0  0  0  0  0  0  0
   -6.8569    3.9556    1.7574 H   0  0  0  0  0  0  0  0  0  0  0  0
   -8.5718    4.5347    1.5995 H   0  0  0  0  0  0  0  0  0  0  0  0
   -8.1258    3.3497    2.8409 H   0  0  0  0  0  0  0  0  0  0  0  0
   -6.5259   12.9864   -2.9161 H   0  0  0  0  0  0  0  0  0  0  0  0
   -7.2675   12.6916   -4.5420 H   0  0  0  0  0  0  0  0  0  0  0  0
   -8.2684   13.0008   -3.1293 H   0  0  0  0  0  0  0  0  0  0  0  0
   -8.2157   -4.3802  -10.9921 H   0  0  0  0  0  0  0  0  0  0  0  0
   -6.4770   -4.4748  -10.4971 H   0  0  0  0  0  0  0  0  0  0  0  0
   -7.5323   -5.8942  -10.3769 H   0  0  0  0  0  0  0  0  0  0  0  0
  -10.5106    7.3786   -4.1879 H   0  0  0  0  0  0  0  0  0  0  0  0
   -9.7074    6.2640   -3.0186 H   0  0  0  0  0  0  0  0  0  0  0  0
   -9.1508    7.9042   -3.2249 H   0  0  0  0  0  0  0  0  0  0  0  0
   -8.2741    0.2316    0.5873 H   0  0  0  0  0  0  0  0  0  0  0  0
   -9.9465    0.9532    0.4275 H   0  0  0  0  0  0  0  0  0  0  0  0
   -9.6153   -0.7094   -0.0903 H   0  0  0  0  0  0  0  0  0  0  0  0
   -6.9090    7.1927   -7.7152 H   0  0  0  0  0  0  0  0  0  0  0  0
   -7.0151    5.5419   -7.3446 H   0  0  0  0  0  0  0  0  0  0  0  0
   -3.1358    6.9077   -8.2568 H   0  0  0  0  0  0  0  0  0  0  0  0
   -4.2632    6.8055   -9.6314 H   0  0  0  0  0  0  0  0  0  0  0  0
   -4.5753    6.2983   -6.7728 H   0  0  0  0  0  0  0  0  0  0  0  0
   -4.7565    4.9971   -7.6013 H   0  0  0  0  0  0  0  0  0  0  0  0
  1 19  1  1  0  0  0
  2 44  1  1  0  0  0
  2 20  1  0  0  0  0
  3  6  1  0  0  0  0
  4  5  1  0  0  0  0
  5  2  1  0  0  0  0
  5 28  1  0  0  0  0
  5 68  1  1  0  0  0
  6  1  1  0  0  0  0
  6 27  1  0  0  0  0
  6 69  1  6  0  0  0
  7 34  1  0  0  0  0
  7  3  2  0  0  0  0
  8 33  1  0  0  0  0
  8  4  2  0  0  0  0
  9  3  1  0  0  0  0
  9 70  1  0  0  0  0
 10  4  1  0  0  0  0
 10 71  1  0  0  0  0
 11  9  2  0  0  0  0
 12 10  2  0  0  0  0
 13  8  1  0  0  0  0
 13 72  1  0  0  0  0
 14  7  1  0  0  0  0
 14 73  1  0  0  0  0
 15 14  2  0  0  0  0
 15 11  1  0  0  0  0
 16 13  2  0  0  0  0
 16 12  1  0  0  0  0
 17 19  1  0  0  0  0
 17 74  1  0  0  0  0
 17 75  1  0  0  0  0
 18 22  1  0  0  0  0
 18 76  1  0  0  0  0
 18 77  1  0  0  0  0
 19 78  1  0  0  0  0
 19 79  1  0  0  0  0
 20 18  1  0  0  0  0
 20 80  1  0  0  0  0
 20 81  1  0  0  0  0
 21 17  1  0  0  0  0
 22 51  1  0  0  0  0
 23 32  1  0  0  0  0
 24 31  1  0  0  0  0
 25  2  1  0  0  0  0
 25 82  1  0  0  0  0
 25 83  1  0  0  0  0
 26  1  1  0  0  0  0
 26 84  1  0  0  0  0
 26 85  1  0  0  0  0
 27 86  1  0  0  0  0
 27 87  1  0  0  0  0
 28 88  1  0  0  0  0
 28 89  1  0  0  0  0
 29 40  1  0  0  0  0
 29 23  2  0  0  0  0
 30 39  1  0  0  0  0
 30 24  2  0  0  0  0
 31 36  2  0  0  0  0
 31 90  1  0  0  0  0
 32 35  2  0  0  0  0
 32 91  1  0  0  0  0
 33 25  1  0  0  0  0
 33 92  1  0  0  0  0
 33 93  1  0  0  0  0
 34 26  1  0  0  0  0
 34 94  1  0  0  0  0
 34 95  1  0  0  0  0
 35 27  1  0  0  0  0
 36 28  1  0  0  0  0
 37 21  2  0  0  0  0
 38 22  2  0  0  0  0
 39 42  2  0  0  0  0
 39 96  1  0  0  0  0
 40 41  2  0  0  0  0
 40 97  1  0  0  0  0
 41 35  1  0  0  0  0
 41 98  1  0  0  0  0
 42 36  1  0  0  0  0
 42 99  1  0  0  0  0
 43  1  1  0  0  0  0
 43100  1  0  0  0  0
 43101  1  0  0  0  0
 43102  1  0  0  0  0
 44103  1  0  0  0  0
 44104  1  0  0  0  0
 44105  1  0  0  0  0
 45 12  1  0  0  0  0
 46 11  1  0  0  0  0
 47 16  1  0  0  0  0
 48 15  1  0  0  0  0
 49 23  1  0  0  0  0
 50 24  1  0  0  0  0
 51 55  1  0  0  0  0
 52 21  1  0  0  0  0
 53 29  1  0  0  0  0
 54 30  1  0  0  0  0
 55 66  1  0  0  0  0
 55106  1  0  0  0  0
 55107  1  0  0  0  0
 56 52  1  0  0  0  0
 56108  1  0  0  0  0
 56109  1  0  0  0  0
 57 49  1  0  0  0  0
 57110  1  0  0  0  0
 57111  1  0  0  0  0
 57112  1  0  0  0  0
 58 47  1  0  0  0  0
 58113  1  0  0  0  0
 58114  1  0  0  0  0
 58115  1  0  0  0  0
 59 46  1  0  0  0  0
 59116  1  0  0  0  0
 59117  1  0  0  0  0
 59118  1  0  0  0  0
 60 50  1  0  0  0  0
 60119  1  0  0  0  0
 60120  1  0  0  0  0
 60121  1  0  0  0  0
 61 45  1  0  0  0  0
 61122  1  0  0  0  0
 61123  1  0  0  0  0
 61124  1  0  0  0  0
 62 48  1  0  0  0  0
 62125  1  0  0  0  0
 62126  1  0  0  0  0
 62127  1  0  0  0  0
 63 53  1  0  0  0  0
 63128  1  0  0  0  0
 63129  1  0  0  0  0
 63130  1  0  0  0  0
 64 54  1  0  0  0  0
 64131  1  0  0  0  0
 64132  1  0  0  0  0
 64133  1  0  0  0  0
 65 56  1  0  0  0  0
 65134  1  0  0  0  0
 65135  1  0  0  0  0
 66 67  1  0  0  0  0
 66136  1  0  0  0  0
 66137  1  0  0  0  0
 67 65  1  0  0  0  0
 67138  1  0  0  0  0
 67139  1  0  0  0  0
M  CHG  2   1   1   2   1
M  END
>  <DRUGBANK_ID>
DB00565

>  <SECONDARY_ACCESSION_NUMBERS>
APRD00874

>  <COMMON_NAME>
Cisatracurium

>  <CAS_NUMBER>
96946-41-7

>  <UNII>
QX62KLI41N

>  <SYNONYMS>
(1r,2r,1'r,2'r)-2,2'-{pentane-1,5-diylbis[oxy(3-oxopropane-3,1-diyl)]}bis[1-(3,4-dimethoxybenzyl)-6,7-dimethoxy-2-methyl-1,2,3,4-tetrahydroisoquinolinium]; Cisatracurium cation; Cisatracurium ion

$$$$
