
 OpenBabel10282417203D

 34 35  0  0  0  0  0  0  0  0999 V2000
    0.8670   -0.3436    0.0169 C   0  0  0  0  0  0  0  0  0  0  0  0
    0.1730   -0.3790    1.4692 C   0  0  0  0  0  0  0  0  0  0  0  0
   -0.0963    0.5661    2.8246 C   0  0  0  0  0  0  0  0  0  0  0  0
   -1.2434   -0.3320    1.0542 C   0  0  0  0  0  0  0  0  0  0  0  0
   -1.9048   -1.5455    1.2609 C   0  0  0  0  0  0  0  0  0  0  0  0
   -3.2666   -1.4904    1.5325 C   0  0  0  0  0  0  0  0  0  0  0  0
   -3.8403   -0.2321    1.6172 C   0  0  0  0  0  0  0  0  0  0  0  0
   -3.1227    0.9869    1.3732 C   0  0  0  0  0  0  0  0  0  0  0  0
   -1.7689    0.9525    0.9568 C   0  0  0  0  0  0  0  0  0  0  0  0
   -0.9684    2.1198    0.8448 O   0  0  0  0  0  0  0  0  0  0  0  0
    0.5760    2.2501    0.7921 C   0  0  0  0  0  0  0  0  0  0  0  0
    1.9671    1.7402    1.8760 C   0  0  0  0  0  0  0  0  0  0  0  0
    2.3170    2.5837    2.8377 N   0  0  0  0  0  0  0  0  0  0  0  0
    2.9390    1.7097    3.9391 C   0  0  0  0  0  0  0  0  0  0  0  0
    2.6865    0.2494    3.5823 C   0  0  0  0  0  0  0  0  0  0  0  0
    2.5572    0.4482    2.1341 N   0  0  0  0  0  0  0  0  0  0  0  0
    0.4509    0.3545   -0.7197 H   0  0  0  0  0  0  0  0  0  0  0  0
    0.6850   -1.3040   -0.4877 H   0  0  0  0  0  0  0  0  0  0  0  0
    1.9547   -0.2242   -0.0392 H   0  0  0  0  0  0  0  0  0  0  0  0
    0.4842   -1.3374    1.8868 H   0  0  0  0  0  0  0  0  0  0  0  0
   -0.5637    1.5555    2.7443 H   0  0  0  0  0  0  0  0  0  0  0  0
   -0.6847    0.0366    3.5718 H   0  0  0  0  0  0  0  0  0  0  0  0
    0.6975    0.9602    3.4003 H   0  0  0  0  0  0  0  0  0  0  0  0
   -1.3552   -2.4671    1.3705 H   0  0  0  0  0  0  0  0  0  0  0  0
   -3.7761   -2.4161    1.7528 H   0  0  0  0  0  0  0  0  0  0  0  0
   -4.8967   -0.1986    1.9158 H   0  0  0  0  0  0  0  0  0  0  0  0
   -3.6094    1.9159    1.6353 H   0  0  0  0  0  0  0  0  0  0  0  0
    0.8450    2.1094   -0.2611 H   0  0  0  0  0  0  0  0  0  0  0  0
    0.6758    3.3466    0.8585 H   0  0  0  0  0  0  0  0  0  0  0  0
    2.4546    1.9763    4.8850 H   0  0  0  0  0  0  0  0  0  0  0  0
    4.0153    1.8600    3.9940 H   0  0  0  0  0  0  0  0  0  0  0  0
    3.3992   -0.5119    3.9079 H   0  0  0  0  0  0  0  0  0  0  0  0
    1.7803   -0.1532    4.0828 H   0  0  0  0  0  0  0  0  0  0  0  0
    2.3425   -0.4204    1.6738 H   0  0  0  0  0  0  0  0  0  0  0  0
  1  2  1  0  0  0  0
  1 17  1  0  0  0  0
  1 18  1  0  0  0  0
  1 19  1  0  0  0  0
  2  3  1  0  0  0  0
  2  4  1  0  0  0  0
  2 20  1  0  0  0  0
  3 21  1  0  0  0  0
  3 22  1  0  0  0  0
  3 23  1  0  0  0  0
  4  5  2  0  0  0  0
  4  9  1  0  0  0  0
  5  6  1  0  0  0  0
  5 24  1  0  0  0  0
  6  7  2  0  0  0  0
  6 25  1  0  0  0  0
  7  8  1  0  0  0  0
  7 26  1  0  0  0  0
  8  9  2  0  0  0  0
  8 27  1  0  0  0  0
  9 10  1  0  0  0  0
 10 11  1  0  0  0  0
 11 12  1  0  0  0  0
 11 28  1  0  0  0  0
 11 29  1  0  0  0  0
 12 13  2  0  0  0  0
 12 16  1  0  0  0  0
 13 14  1  0  0  0  0
 14 15  1  0  0  0  0
 14 30  1  0  0  0  0
 14 31  1  0  0  0  0
 15 16  1  0  0  0  0
 15 32  1  0  0  0  0
 15 33  1  0  0  0  0
 16 34  1  0  0  0  0
M  END
>  <DRUGBANK_ID>
DB13736

>  <COMMON_NAME>
Fenoxazoline

>  <CAS_NUMBER>
4846-91-7

>  <UNII>
97JJW1W1R3

>  <SYNONYMS>
Fenoxazoline

$$$$
