
 OpenBabel10282417133D

 52 55  0  0  0  0  0  0  0  0999 V2000
    0.9437   -0.1747   -0.1404 O   0  0  0  0  0  0  0  0  0  0  0  0
    2.9915   -0.7998   -0.8072 N   0  0  0  0  0  0  0  0  0  0  0  0
    2.7170    0.7507    0.9091 N   0  0  0  0  0  0  0  0  0  0  0  0
    2.9914   -0.2768    7.3846 N   0  0  0  0  0  0  0  0  0  0  0  0
    3.3185    1.8571    8.4499 N   0  0  0  0  0  0  0  0  0  0  0  0
    3.3954    0.0093    9.6339 N   0  0  0  0  0  0  0  0  0  0  0  0
    4.4663   -0.8445   -0.9477 C   0  0  3  0  0  0  0  0  0  0  0  0
    6.5039   -2.3238   -1.2994 C   0  0  3  0  0  0  0  0  0  0  0  0
    6.6543   -0.4528    0.3412 C   0  0  3  0  0  0  0  0  0  0  0  0
    6.5166    0.0740   -2.1132 C   0  0  3  0  0  0  0  0  0  0  0  0
    4.9556   -2.2835   -1.2659 C   0  0  0  0  0  0  0  0  0  0  0  0
    5.1563   -0.4049    0.3471 C   0  0  0  0  0  0  0  0  0  0  0  0
    4.9672    0.0837   -2.0780 C   0  0  0  0  0  0  0  0  0  0  0  0
    7.0746   -1.8822    0.0592 C   0  0  0  0  0  0  0  0  0  0  0  0
    7.0089   -1.3575   -2.3883 C   0  0  0  0  0  0  0  0  0  0  0  0
    7.0941    0.5239   -0.7568 C   0  0  0  0  0  0  0  0  0  0  0  0
    2.1484   -0.0691   -0.0085 C   0  0  0  0  0  0  0  0  0  0  0  0
    2.0532    1.4346    1.9610 C   0  0  0  0  0  0  0  0  0  0  0  0
    2.5036    0.9187    3.3116 C   0  0  0  0  0  0  0  0  0  0  0  0
    2.6628    1.8664    4.3038 C   0  0  0  0  0  0  0  0  0  0  0  0
    2.5746   -0.4381    3.6700 C   0  0  0  0  0  0  0  0  0  0  0  0
    2.7031    1.4717    5.6301 C   0  0  0  0  0  0  0  0  0  0  0  0
    2.6980   -0.8168    5.0261 C   0  0  0  0  0  0  0  0  0  0  0  0
    2.8030    0.1432    6.0434 C   0  0  0  0  0  0  0  0  0  0  0  0
    3.2152    0.5082    8.3911 C   0  0  0  0  0  0  0  0  0  0  0  0
    2.4550   -1.2950   -1.5118 H   0  0  0  0  0  0  0  0  0  0  0  0
    3.6137    0.5445    1.2540 H   0  0  0  0  0  0  0  0  0  0  0  0
    3.5269    2.3385    9.3062 H   0  0  0  0  0  0  0  0  0  0  0  0
    3.6375    2.3441    7.6316 H   0  0  0  0  0  0  0  0  0  0  0  0
    3.4445   -0.9926    9.7549 H   0  0  0  0  0  0  0  0  0  0  0  0
    3.6481    0.5938   10.4129 H   0  0  0  0  0  0  0  0  0  0  0  0
    6.8457   -3.3417   -1.5129 H   0  0  0  0  0  0  0  0  0  0  0  0
    7.0101   -0.1157    1.3216 H   0  0  0  0  0  0  0  0  0  0  0  0
    6.8663    0.7537   -2.8970 H   0  0  0  0  0  0  0  0  0  0  0  0
    4.5804   -2.9877   -0.5118 H   0  0  0  0  0  0  0  0  0  0  0  0
    4.5575   -2.6279   -2.2309 H   0  0  0  0  0  0  0  0  0  0  0  0
    4.9954    0.6698    0.4528 H   0  0  0  0  0  0  0  0  0  0  0  0
    4.7567   -0.9776    1.1946 H   0  0  0  0  0  0  0  0  0  0  0  0
    4.5695   -0.2384   -3.0508 H   0  0  0  0  0  0  0  0  0  0  0  0
    4.5984    1.1051   -1.9203 H   0  0  0  0  0  0  0  0  0  0  0  0
    8.1671   -1.9378    0.0694 H   0  0  0  0  0  0  0  0  0  0  0  0
    6.7054   -2.5421    0.8560 H   0  0  0  0  0  0  0  0  0  0  0  0
    8.1055   -1.3675   -2.4109 H   0  0  0  0  0  0  0  0  0  0  0  0
    6.6594   -1.6889   -3.3715 H   0  0  0  0  0  0  0  0  0  0  0  0
    6.7347    1.5383   -0.5278 H   0  0  0  0  0  0  0  0  0  0  0  0
    8.1853    0.5746   -0.7828 H   0  0  0  0  0  0  0  0  0  0  0  0
    2.3832    2.4769    1.8581 H   0  0  0  0  0  0  0  0  0  0  0  0
    0.9701    1.3794    1.8773 H   0  0  0  0  0  0  0  0  0  0  0  0
    2.6504    2.9295    4.0823 H   0  0  0  0  0  0  0  0  0  0  0  0
    2.4952   -1.2133    2.9095 H   0  0  0  0  0  0  0  0  0  0  0  0
    2.5310    2.2829    6.3122 H   0  0  0  0  0  0  0  0  0  0  0  0
    2.6363   -1.8732    5.2869 H   0  0  0  0  0  0  0  0  0  0  0  0
  1 17  2  0  0  0  0
  2  7  1  0  0  0  0
  2 17  1  0  0  0  0
  2 26  1  0  0  0  0
  3 17  1  0  0  0  0
  3 18  1  0  0  0  0
  3 27  1  0  0  0  0
  4 24  1  0  0  0  0
  4 25  2  0  0  0  0
  5 25  1  0  0  0  0
  5 28  1  0  0  0  0
  5 29  1  0  0  0  0
  6 25  1  0  0  0  0
  6 30  1  0  0  0  0
  6 31  1  0  0  0  0
  7 11  1  0  0  0  0
  7 12  1  0  0  0  0
  7 13  1  0  0  0  0
  8 11  1  0  0  0  0
  8 14  1  0  0  0  0
  8 15  1  0  0  0  0
  8 32  1  0  0  0  0
  9 12  1  0  0  0  0
  9 14  1  0  0  0  0
  9 16  1  0  0  0  0
  9 33  1  0  0  0  0
 10 13  1  0  0  0  0
 10 15  1  0  0  0  0
 10 16  1  0  0  0  0
 10 34  1  0  0  0  0
 11 35  1  0  0  0  0
 11 36  1  0  0  0  0
 12 37  1  0  0  0  0
 12 38  1  0  0  0  0
 13 39  1  0  0  0  0
 13 40  1  0  0  0  0
 14 41  1  0  0  0  0
 14 42  1  0  0  0  0
 15 43  1  0  0  0  0
 15 44  1  0  0  0  0
 16 45  1  0  0  0  0
 16 46  1  0  0  0  0
 18 19  1  0  0  0  0
 18 47  1  0  0  0  0
 18 48  1  0  0  0  0
 19 20  2  0  0  0  0
 19 21  1  0  0  0  0
 20 22  1  0  0  0  0
 20 49  1  0  0  0  0
 21 23  2  0  0  0  0
 21 50  1  0  0  0  0
 22 24  2  0  0  0  0
 22 51  1  0  0  0  0
 23 24  1  0  0  0  0
 23 52  1  0  0  0  0
M  END
>  <DRUGBANK_ID>
DB03782

>  <SECONDARY_ACCESSION_NUMBERS>
EXPT00454

>  <COMMON_NAME>
N-(1-adamantyl)-N'-(4-guanidinobenzyl)urea

$$$$
