
 OpenBabel10282417193D

 31 30  0  0  1  0  0  0  0  0999 V2000
    0.9457   -0.1327   -0.1107 C   0  0  0  0  0  0  0  0  0  0  0  0
    0.4488   -0.5534    1.2652 C   0  0  0  0  0  0  0  0  0  0  0  0
    0.8987    0.4257    2.3431 C   0  0  0  0  0  0  0  0  0  0  0  0
    0.3781    1.8588    2.1265 C   0  0  1  0  0  0  0  0  0  0  0  0
   -1.1454    1.9125    2.0984 C   0  0  0  0  0  0  0  0  0  0  0  0
    0.9378    2.8061    3.2016 C   0  0  0  0  0  0  0  0  0  0  0  0
    2.4732    2.9263    3.1238 C   0  0  1  0  0  0  0  0  0  0  0  0
    2.9814    3.3701    1.7407 C   0  0  0  0  0  0  0  0  0  0  0  0
    2.5213    4.7505    1.3544 C   0  0  0  0  0  0  0  0  0  0  0  0
    3.2482    5.7271    1.2237 O   0  0  0  0  0  0  0  0  0  0  0  0
    1.1920    4.8658    1.1921 O   0  0  0  0  0  0  0  0  0  0  0  0
    2.9599    3.7958    4.1973 N   0  0  0  0  0  0  0  0  0  0  0  0
    0.5667    0.8512   -0.4031 H   0  0  0  0  0  0  0  0  0  0  0  0
    0.6102   -0.8414   -0.8697 H   0  0  0  0  0  0  0  0  0  0  0  0
    2.0398   -0.0876   -0.1261 H   0  0  0  0  0  0  0  0  0  0  0  0
   -0.6410   -0.6438    1.2632 H   0  0  0  0  0  0  0  0  0  0  0  0
    0.8399   -1.5476    1.5061 H   0  0  0  0  0  0  0  0  0  0  0  0
    0.5789    0.0704    3.3303 H   0  0  0  0  0  0  0  0  0  0  0  0
    1.9945    0.4058    2.3504 H   0  0  0  0  0  0  0  0  0  0  0  0
    0.7020    2.2218    1.1481 H   0  0  0  0  0  0  0  0  0  0  0  0
   -1.5609    1.5812    3.0528 H   0  0  0  0  0  0  0  0  0  0  0  0
   -1.4894    2.9302    1.8909 H   0  0  0  0  0  0  0  0  0  0  0  0
   -1.5514    1.2805    1.3028 H   0  0  0  0  0  0  0  0  0  0  0  0
    0.4741    3.7933    3.0960 H   0  0  0  0  0  0  0  0  0  0  0  0
    0.6282    2.4578    4.1946 H   0  0  0  0  0  0  0  0  0  0  0  0
    2.9067    1.9438    3.3419 H   0  0  0  0  0  0  0  0  0  0  0  0
    4.0780    3.3622    1.7370 H   0  0  0  0  0  0  0  0  0  0  0  0
    2.6987    2.6686    0.9477 H   0  0  0  0  0  0  0  0  0  0  0  0
    1.0024    5.8238    1.1128 H   0  0  0  0  0  0  0  0  0  0  0  0
    3.9800    3.8222    4.1732 H   0  0  0  0  0  0  0  0  0  0  0  0
    2.6527    4.7542    4.0354 H   0  0  0  0  0  0  0  0  0  0  0  0
  1  2  1  0  0  0  0
  1 13  1  0  0  0  0
  1 14  1  0  0  0  0
  1 15  1  0  0  0  0
  2  3  1  0  0  0  0
  2 16  1  0  0  0  0
  2 17  1  0  0  0  0
  3  4  1  0  0  0  0
  3 18  1  0  0  0  0
  3 19  1  0  0  0  0
  4  5  1  0  0  0  0
  4  6  1  0  0  0  0
  4 20  1  6  0  0  0
  5 21  1  0  0  0  0
  5 22  1  0  0  0  0
  5 23  1  0  0  0  0
  6  7  1  0  0  0  0
  6 24  1  0  0  0  0
  6 25  1  0  0  0  0
  7  8  1  0  0  0  0
  7 12  1  0  0  0  0
  7 26  1  1  0  0  0
  8  9  1  0  0  0  0
  8 27  1  0  0  0  0
  8 28  1  0  0  0  0
  9 10  2  0  0  0  0
  9 11  1  0  0  0  0
 11 29  1  0  0  0  0
 12 30  1  0  0  0  0
 12 31  1  0  0  0  0
M  END
>  <DRUGBANK_ID>
DB12105

>  <COMMON_NAME>
Imagabalin

>  <CAS_NUMBER>
610300-07-7

>  <UNII>
NDG6931B7H

>  <SYNONYMS>
Imagabalin

$$$$
