
 OpenBabel10282417103D

 39 41  0  0  0  0  0  0  0  0999 V2000
   -1.9538   -0.9972   -0.0765 C   0  0  0  0  0  0  0  0  0  0  0  0
   -3.0410   -0.1376   -0.0455 C   0  0  0  0  0  0  0  0  0  0  0  0
   -2.8274    1.2386    0.0309 C   0  0  0  0  0  0  0  0  0  0  0  0
   -1.5313    1.7559    0.0735 C   0  0  0  0  0  0  0  0  0  0  0  0
   -0.6546   -0.4804   -0.0326 C   0  0  0  0  0  0  0  0  0  0  0  0
   -0.4553    0.8835    0.0544 C   0  0  0  0  0  0  0  0  0  0  0  0
    1.7398   -0.8776    0.1412 C   0  0  0  0  0  0  0  0  0  0  0  0
    3.0425   -2.6074    1.4134 C   0  0  0  0  0  0  0  0  0  0  0  0
    2.9938   -1.7333    0.1437 C   0  0  3  0  0  0  0  0  0  0  0  0
    3.1826   -2.5667   -1.1523 C   0  0  0  0  0  0  0  0  0  0  0  0
    0.4970   -1.3471   -0.0771 C   0  0  0  0  0  0  0  0  0  0  0  0
    0.1567   -2.6342   -0.4193 O   0  0  0  0  0  0  0  0  0  0  0  0
    0.8342    1.4230    0.1239 O   0  0  0  0  0  0  0  0  0  0  0  0
    1.9620    0.6090    0.1814 C   0  0  0  0  0  0  0  0  0  0  0  0
    3.0799    1.0936    0.1278 O   0  0  0  0  0  0  0  0  0  0  0  0
    2.0204   -3.5094    1.7700 C   0  0  0  0  0  0  0  0  0  0  0  0
    4.1325   -2.5298    2.2862 C   0  0  0  0  0  0  0  0  0  0  0  0
    4.2271   -3.4053    3.3792 C   0  0  0  0  0  0  0  0  0  0  0  0
    3.2146   -4.3236    3.6600 C   0  0  0  0  0  0  0  0  0  0  0  0
    2.1030   -4.3727    2.8508 C   0  0  0  0  0  0  0  0  0  0  0  0
    3.2598   -1.7585   -2.4444 C   0  0  0  0  0  0  0  0  0  0  0  0
    4.2112   -1.9121   -3.2106 O   0  0  0  0  0  0  0  0  0  0  0  0
    2.1042   -0.8661   -2.8413 C   0  0  0  0  0  0  0  0  0  0  0  0
   -2.1229   -2.0720   -0.1314 H   0  0  0  0  0  0  0  0  0  0  0  0
   -4.0458   -0.5475   -0.0830 H   0  0  0  0  0  0  0  0  0  0  0  0
   -3.6780    1.9111    0.0618 H   0  0  0  0  0  0  0  0  0  0  0  0
   -1.3590    2.8252    0.1246 H   0  0  0  0  0  0  0  0  0  0  0  0
    3.8798   -1.0812    0.1733 H   0  0  0  0  0  0  0  0  0  0  0  0
    4.1114   -3.1468   -1.0665 H   0  0  0  0  0  0  0  0  0  0  0  0
    2.4253   -3.3332   -1.3195 H   0  0  0  0  0  0  0  0  0  0  0  0
    0.9254   -3.2131   -0.4438 H   0  0  0  0  0  0  0  0  0  0  0  0
    1.0658   -3.5818    1.2853 H   0  0  0  0  0  0  0  0  0  0  0  0
    4.9149   -1.7861    2.1404 H   0  0  0  0  0  0  0  0  0  0  0  0
    5.1047   -3.3794    4.0177 H   0  0  0  0  0  0  0  0  0  0  0  0
    3.2698   -4.9831    4.5186 H   0  0  0  0  0  0  0  0  0  0  0  0
    1.2806   -5.0592    3.0361 H   0  0  0  0  0  0  0  0  0  0  0  0
    1.1677   -1.4296   -2.8632 H   0  0  0  0  0  0  0  0  0  0  0  0
    2.0226   -0.0150   -2.1735 H   0  0  0  0  0  0  0  0  0  0  0  0
    2.2807   -0.4335   -3.8270 H   0  0  0  0  0  0  0  0  0  0  0  0
  1  2  2  0  0  0  0
  1  5  1  0  0  0  0
  1 24  1  0  0  0  0
  2  3  1  0  0  0  0
  2 25  1  0  0  0  0
  3  4  2  0  0  0  0
  3 26  1  0  0  0  0
  4  6  1  0  0  0  0
  4 27  1  0  0  0  0
  6  5  2  0  0  0  0
  6 13  1  0  0  0  0
  7  9  1  0  0  0  0
  8 16  2  0  0  0  0
  8 17  1  0  0  0  0
  9  8  1  0  0  0  0
  9 10  1  0  0  0  0
  9 28  1  0  0  0  0
 10 21  1  0  0  0  0
 10 29  1  0  0  0  0
 10 30  1  0  0  0  0
 11  5  1  0  0  0  0
 11  7  2  0  0  0  0
 11 12  1  0  0  0  0
 12 31  1  0  0  0  0
 13 14  1  0  0  0  0
 14  7  1  0  0  0  0
 14 15  2  0  0  0  0
 16 32  1  0  0  0  0
 17 18  2  0  0  0  0
 17 33  1  0  0  0  0
 18 19  1  0  0  0  0
 18 34  1  0  0  0  0
 19 20  2  0  0  0  0
 19 35  1  0  0  0  0
 20 16  1  0  0  0  0
 20 36  1  0  0  0  0
 21 22  2  0  0  0  0
 21 23  1  0  0  0  0
 23 37  1  0  0  0  0
 23 38  1  0  0  0  0
 23 39  1  0  0  0  0
M  END
>  <DRUGBANK_ID>
DB00682

>  <SECONDARY_ACCESSION_NUMBERS>
APRD00341

>  <COMMON_NAME>
Warfarin

>  <CAS_NUMBER>
81-81-2

>  <UNII>
5Q7ZVV76EI

>  <SYNONYMS>
4-Hydroxy-3-(3-oxo-1-phenylbutyl)coumarin; Coumafene; Warfarin; Warfarina; Zoocoumarin

$$$$
