
 OpenBabel10282417183D

 33 30  0  0  1  0  0  0  0  0999 V2000
    0.8515   -0.7297    2.7585 C   0  0  0  0  0  0  0  0  0  0  0  0
    0.6115   -2.2027    2.3405 C   0  0  1  0  0  0  0  0  0  0  0  0
    1.2201   -2.6378    1.0035 C   0  0  2  0  0  0  0  0  0  0  0  0
    1.4578   -1.4279    0.1091 C   0  0  0  0  0  0  0  0  0  0  0  0
    2.5547   -1.4431   -0.5601 O   0  0  0  0  0  0  0  0  0  0  0  0
    0.7255   -0.4191    0.2508 O   0  5  0  0  0  0  0  0  0  0  0  0
    0.5405   -3.7554    0.3983 O   0  0  0  0  0  0  0  0  0  0  0  0
    1.1968   -3.0200    3.3580 O   0  0  0  0  0  0  0  0  0  0  0  0
    2.1001   -0.1223    2.3600 O   0  0  0  0  0  0  0  0  0  0  0  0
   -1.1598   -1.6360   -1.3873 C   0  0  0  0  0  0  0  0  0  0  0  0
    0.1548   -1.6796   -2.3313 C   0  0  1  0  0  0  0  0  0  0  0  0
    0.9724   -0.3085   -2.6889 C   0  0  2  0  0  0  0  0  0  0  0  0
    0.9133    1.0275   -1.8909 C   0  0  0  0  0  0  0  0  0  0  0  0
   -0.2173    1.5502   -1.6139 O   0  0  0  0  0  0  0  0  0  0  0  0
    1.9166    1.4983   -1.2479 O   0  5  0  0  0  0  0  0  0  0  0  0
    0.4995    0.0737   -4.0153 O   0  0  0  0  0  0  0  0  0  0  0  0
    0.9171   -2.9084   -2.2423 O   0  0  0  0  0  0  0  0  0  0  0  0
   -1.2160   -1.6889    0.0496 O   0  0  0  0  0  0  0  0  0  0  0  0
    0.8694    1.7010    0.5634 Ca  0  2  0  0  0  0  0  0  0  0  0  0
    0.7576   -0.5894    3.8333 H   0  0  0  0  0  0  0  0  0  0  0  0
    0.0628   -0.1019    2.3289 H   0  0  0  0  0  0  0  0  0  0  0  0
   -0.4699   -2.3996    2.3896 H   0  0  0  0  0  0  0  0  0  0  0  0
    2.2323   -3.0100    1.1487 H   0  0  0  0  0  0  0  0  0  0  0  0
   -0.4278   -3.6195    0.4158 H   0  0  0  0  0  0  0  0  0  0  0  0
    2.1581   -2.9982    3.2081 H   0  0  0  0  0  0  0  0  0  0  0  0
    2.6129   -0.7314    1.7769 H   0  0  0  0  0  0  0  0  0  0  0  0
   -1.7596   -2.5190   -1.6069 H   0  0  0  0  0  0  0  0  0  0  0  0
   -1.6904   -0.7224   -1.6386 H   0  0  0  0  0  0  0  0  0  0  0  0
   -0.3129   -1.9059   -3.2969 H   0  0  0  0  0  0  0  0  0  0  0  0
    2.0434   -0.5233   -2.8252 H   0  0  0  0  0  0  0  0  0  0  0  0
   -0.4225    0.3544   -3.8639 H   0  0  0  0  0  0  0  0  0  0  0  0
    1.6468   -2.8710   -1.5922 H   0  0  0  0  0  0  0  0  0  0  0  0
   -0.6594   -0.9514    0.3644 H   0  0  0  0  0  0  0  0  0  0  0  0
  1  2  1  0  0  0  0
  1  9  1  0  0  0  0
  1 20  1  0  0  0  0
  1 21  1  0  0  0  0
  2  8  1  0  0  0  0
  2 22  1  6  0  0  0
  3  7  1  0  0  0  0
  3 23  1  1  0  0  0
  3  4  1  0  0  0  0
  3  2  1  0  0  0  0
  4  5  2  0  0  0  0
  4  6  1  0  0  0  0
  7 24  1  0  0  0  0
  8 25  1  0  0  0  0
  9 26  1  0  0  0  0
 10 11  1  0  0  0  0
 10 18  1  0  0  0  0
 10 27  1  0  0  0  0
 10 28  1  0  0  0  0
 11 17  1  0  0  0  0
 11 29  1  6  0  0  0
 12 16  1  0  0  0  0
 12 30  1  6  0  0  0
 12 13  1  0  0  0  0
 12 11  1  0  0  0  0
 13 14  2  0  0  0  0
 13 15  1  0  0  0  0
 16 31  1  0  0  0  0
 17 32  1  0  0  0  0
 18 33  1  0  0  0  0
M  CHG  3   6  -1  15  -1  19   2
M  END
>  <DRUGBANK_ID>
DB11168

>  <COMMON_NAME>
Calcium threonate

>  <CAS_NUMBER>
70753-61-6

>  <UNII>
HBB4YPO93U

>  <SYNONYMS>
Calcium L-threonate; Threonine, calcium salt

$$$$
