
 OpenBabel10282417103D

181188  0  0  0  0  0  0  0  0999 V2000
   -2.9922   -1.4701    0.3849 C   0  0  0  0  0  0  0  0  0  0  0  0
   -1.7098   -0.7719    0.8073 C   0  0  2  0  0  0  0  0  0  0  0  0
   -0.5513   -1.2913   -0.0285 C   0  0  0  0  0  0  0  0  0  0  0  0
   -0.6646   -2.7182   -0.3631 N   0  0  0  0  0  0  0  0  0  0  0  0
   -0.7252   -3.1407   -1.7698 C   0  0  0  0  0  0  0  0  0  0  0  0
   -0.8232   -4.3743   -2.0592 O   0  0  0  0  0  0  0  0  0  0  0  0
   -0.6707   -2.1021   -2.8783 C   0  0  0  0  0  0  0  0  0  0  0  0
   -1.8409   -1.1432   -2.7322 C   0  0  0  0  0  0  0  0  0  0  0  0
   -1.6592   -0.4525   -1.3904 C   0  0  2  0  0  0  0  0  0  0  0  0
   -1.3805   -1.8154   -0.7779 C   0  0  0  0  0  0  0  0  0  0  0  0
   -2.1597    0.2622   -0.1132 C   0  0  1  0  0  0  0  0  0  0  0  0
   -2.6895   -0.0438    1.2783 C   0  0  0  0  0  0  0  0  0  0  0  0
   -1.4969   -0.3145    2.1811 C   0  0  0  0  0  0  0  0  0  0  0  0
   -1.4445    0.2758    3.5263 N   0  0  0  0  0  0  0  0  0  0  0  0
   -0.5451   -1.0511    1.7729 O   0  0  0  0  0  0  0  0  0  0  0  0
   -1.4713    1.6411   -0.2447 C   0  0  1  0  0  0  0  0  0  0  0  0
   -1.2236    1.8071   -1.7253 N   0  0  0  0  0  0  0  0  0  0  0  0
   -1.3257    0.6663   -2.3507 C   0  0  0  0  0  0  0  0  0  0  0  0
   -1.1344    0.4862   -3.8478 C   0  0  0  0  0  0  0  0  0  0  0  0
   -0.8002    1.6847   -4.7210 C   0  0  0  0  0  0  0  0  0  0  0  0
   -1.2623   -0.7477   -4.4063 C   0  0  0  0  0  0  0  0  0  0  0  0
   -1.5896   -2.0476   -3.7104 N   0  0  0  0  0  0  0  0  0  0  0  0
   -1.9717   -2.9563   -4.5655 C   0  0  0  0  0  0  0  0  0  0  0  0
   -2.3730   -4.3740   -4.1919 C   0  0  0  0  0  0  0  0  0  0  0  0
   -2.3475   -4.7675   -2.8899 C   0  0  0  0  0  0  0  0  0  0  0  0
   -1.9705   -3.9391   -1.6846 N   0  0  0  0  0  0  0  0  0  0  0  0
   -2.3912   -4.4944   -0.5811 C   0  0  0  0  0  0  0  0  0  0  0  0
   -2.1768   -3.9168    0.8084 C   0  0  0  0  0  0  0  0  0  0  0  0
   -1.4275   -2.6054    0.9790 C   0  0  0  0  0  0  0  0  0  0  0  0
   -2.6556   -4.5735    1.8993 C   0  0  0  0  0  0  0  0  0  0  0  0
   -2.4965   -4.0811    3.3526 C   0  0  1  0  0  0  0  0  0  0  0  0
   -2.4554   -2.8724    2.4318 C   0  0  0  0  0  0  0  0  0  0  0  0
   -1.6743   -1.7574    3.1079 C   0  0  0  0  0  0  0  0  0  0  0  0
   -0.2626   -2.2359    3.4053 C   0  0  0  0  0  0  0  0  0  0  0  0
    0.8895   -1.5356    2.8194 N   0  0  0  0  0  0  0  0  0  0  0  0
   -0.0782   -3.2414    4.1604 O   0  0  0  0  0  0  0  0  0  0  0  0
   -2.7865   -5.2891    4.2608 C   0  0  2  0  0  0  0  0  0  0  0  0
   -2.8713   -4.1938    5.3113 C   0  0  0  0  0  0  0  0  0  0  0  0
   -2.7241   -5.6792    5.7285 C   0  0  0  0  0  0  0  0  0  0  0  0
   -1.3529   -6.2315    6.0826 C   0  0  0  0  0  0  0  0  0  0  0  0
   -0.5412   -5.5753    7.1177 N   0  0  0  0  0  0  0  0  0  0  0  0
   -0.9083   -7.2605    5.4838 O   0  0  0  0  0  0  0  0  0  0  0  0
   -3.1119   -6.4738    3.3271 C   0  0  2  0  0  0  0  0  0  0  0  0
   -3.1703   -7.9271    3.7687 C   0  0  0  0  0  0  0  0  0  0  0  0
   -3.5907   -5.8026    2.0123 N   0  0  0  0  0  0  0  0  0  0  0  0
   -5.0288   -6.3718    0.7921 Co  0  3  0  0  0  0  0  0  0  0  0  0
   -6.5029   -6.9555   -0.4596 C   0  0  0  0  0  0  0  0  0  0  0  0
   -7.4231   -7.3198   -1.2409 N   0  0  0  0  0  0  0  0  0  0  0  0
   -3.1199   -5.7877   -0.8666 C   0  0  1  0  0  0  0  0  0  0  0  0
   -3.7513   -6.8298    0.0422 C   0  0  0  0  0  0  0  0  0  0  0  0
   -4.4801   -5.5079   -0.2484 C   0  0  0  0  0  0  0  0  0  0  0  0
   -5.5835   -6.2522   -0.9825 C   0  0  0  0  0  0  0  0  0  0  0  0
   -6.4525   -7.1857   -0.2517 N   0  0  0  0  0  0  0  0  0  0  0  0
   -5.7548   -6.0673   -2.2282 O   0  0  0  0  0  0  0  0  0  0  0  0
   -2.7162   -6.1549   -2.3140 C   0  0  2  0  0  0  0  0  0  0  0  0
   -2.6410   -7.6620   -2.4971 C   0  0  0  0  0  0  0  0  0  0  0  0
   -3.7359   -8.2904   -1.6505 C   0  0  0  0  0  0  0  0  0  0  0  0
   -5.0924   -7.8045   -2.1344 C   0  0  0  0  0  0  0  0  0  0  0  0
   -6.0881   -8.7700   -2.6215 N   0  0  0  0  0  0  0  0  0  0  0  0
   -5.3657   -6.5635   -2.1179 O   0  0  0  0  0  0  0  0  0  0  0  0
   -1.9629   -2.4136   -5.9763 C   0  0  0  0  0  0  0  0  0  0  0  0
   -2.3149   -3.3707   -7.1036 C   0  0  0  0  0  0  0  0  0  0  0  0
   -3.0846   -1.8550   -6.8366 C   0  0  0  0  0  0  0  0  0  0  0  0
   -1.1061   -1.1282   -5.8975 C   0  0  2  0  0  0  0  0  0  0  0  0
   -0.0335   -1.0478   -6.9715 C   0  0  0  0  0  0  0  0  0  0  0  0
    0.4336   -2.4499   -7.3267 C   0  0  0  0  0  0  0  0  0  0  0  0
   -0.7433   -3.2598   -7.8456 C   0  0  0  0  0  0  0  0  0  0  0  0
   -0.7081   -3.8201   -9.2042 N   0  0  0  0  0  0  0  0  0  0  0  0
   -1.7579   -3.4527   -7.1048 O   0  0  0  0  0  0  0  0  0  0  0  0
   -1.4581   -1.0342    2.1800 O   0  0  0  0  0  0  0  0  0  0  0  0
   -1.2925   -2.7394    2.4204 P   0  0  3  0  0  0  0  0  0  0  0  0
   -2.8808   -2.7973    3.1036 O   0  5  0  0  0  0  0  0  0  0  0  0
   -1.0974   -2.9352    0.8969 O   0  0  0  0  0  0  0  0  0  0  0  0
   -1.1269   -4.4446    2.6608 O   0  0  0  0  0  0  0  0  0  0  0  0
   -0.8857   -4.7076    4.0352 C   0  0  2  0  0  0  0  0  0  0  0  0
   -0.6603   -6.2152    4.2718 C   0  0  1  0  0  0  0  0  0  0  0  0
    0.8276   -6.5208    4.3262 C   0  0  0  0  0  0  0  0  0  0  0  0
    1.4081   -5.9950    3.1418 O   0  0  0  0  0  0  0  0  0  0  0  0
   -1.3212   -6.5527    5.6199 O   0  0  0  0  0  0  0  0  0  0  0  0
   -1.9255   -5.2377    6.1555 C   0  0  1  0  0  0  0  0  0  0  0  0
   -2.1344   -4.3695    4.8863 C   0  0  2  0  0  0  0  0  0  0  0  0
   -3.3291   -4.7308    4.2092 O   0  0  0  0  0  0  0  0  0  0  0  0
   -3.1738   -5.4545    6.9008 N   0  0  0  0  0  0  0  0  0  0  0  0
   -4.3588   -5.0703    6.4451 C   0  0  0  0  0  0  0  0  0  0  0  0
   -5.3215   -5.5414    7.2131 N   0  0  0  0  0  0  0  0  0  0  0  0
   -4.7597   -6.2496    8.2038 C   0  0  0  0  0  0  0  0  0  0  0  0
   -5.2518   -6.9720    9.3018 C   0  0  0  0  0  0  0  0  0  0  0  0
   -4.3345   -7.6024   10.1512 C   0  0  0  0  0  0  0  0  0  0  0  0
   -4.8325   -8.3933   11.3499 C   0  0  0  0  0  0  0  0  0  0  0  0
   -2.9966   -7.5095    9.9073 C   0  0  0  0  0  0  0  0  0  0  0  0
   -2.0235   -8.2049   10.8453 C   0  0  0  0  0  0  0  0  0  0  0  0
   -2.5160   -6.8207    8.8613 C   0  0  0  0  0  0  0  0  0  0  0  0
   -3.3539   -6.1852    7.9961 C   0  0  0  0  0  0  0  0  0  0  0  0
   -3.6278   -1.6042    1.2353 H   0  0  0  0  0  0  0  0  0  0  0  0
   -2.7581   -2.4241   -0.0394 H   0  0  0  0  0  0  0  0  0  0  0  0
   -3.4941   -0.8689   -0.3442 H   0  0  0  0  0  0  0  0  0  0  0  0
   -1.8123    0.2827    0.6586 H   0  0  0  0  0  0  0  0  0  0  0  0
   -0.5269   -0.7145   -0.9294 H   0  0  0  0  0  0  0  0  0  0  0  0
    0.3488   -1.1253    0.5257 H   0  0  0  0  0  0  0  0  0  0  0  0
   -0.7012   -3.4152    0.3807 H   0  0  0  0  0  0  0  0  0  0  0  0
    0.2476   -1.5569   -2.8115 H   0  0  0  0  0  0  0  0  0  0  0  0
   -0.7268   -2.5911   -3.8284 H   0  0  0  0  0  0  0  0  0  0  0  0
   -1.8026   -0.4120   -3.5125 H   0  0  0  0  0  0  0  0  0  0  0  0
   -2.7592   -1.6883   -2.7990 H   0  0  0  0  0  0  0  0  0  0  0  0
   -0.3119   -1.8502   -0.8194 H   0  0  0  0  0  0  0  0  0  0  0  0
   -1.7005   -1.8894    0.2404 H   0  0  0  0  0  0  0  0  0  0  0  0
   -1.7860   -2.6311   -1.3394 H   0  0  0  0  0  0  0  0  0  0  0  0
   -3.1000   -0.2483   -0.1236 H   0  0  0  0  0  0  0  0  0  0  0  0
   -3.3847    0.5912    1.7865 H   0  0  0  0  0  0  0  0  0  0  0  0
   -3.1666   -0.9690    1.0306 H   0  0  0  0  0  0  0  0  0  0  0  0
   -0.6443    0.0942    4.1322 H   0  0  0  0  0  0  0  0  0  0  0  0
   -2.2084    0.8670    3.8540 H   0  0  0  0  0  0  0  0  0  0  0  0
   -1.1982    2.6329    0.0497 H   0  0  0  0  0  0  0  0  0  0  0  0
    0.2508    1.6974   -4.9215 H   0  0  0  0  0  0  0  0  0  0  0  0
   -1.3384    1.6153   -5.6431 H   0  0  0  0  0  0  0  0  0  0  0  0
   -1.0773    2.5848   -4.2131 H   0  0  0  0  0  0  0  0  0  0  0  0
   -2.6755   -5.0626   -4.9531 H   0  0  0  0  0  0  0  0  0  0  0  0
   -2.1269   -1.8159    1.1589 H   0  0  0  0  0  0  0  0  0  0  0  0
   -0.7564   -2.6835    1.8088 H   0  0  0  0  0  0  0  0  0  0  0  0
   -0.8717   -2.3937    0.0895 H   0  0  0  0  0  0  0  0  0  0  0  0
   -2.2084   -3.6050    4.2665 H   0  0  0  0  0  0  0  0  0  0  0  0
   -1.9706   -3.1437    1.5173 H   0  0  0  0  0  0  0  0  0  0  0  0
   -3.4492   -2.5356    2.2225 H   0  0  0  0  0  0  0  0  0  0  0  0
   -1.6336   -0.9069    2.4600 H   0  0  0  0  0  0  0  0  0  0  0  0
   -2.1590   -1.4862    4.0225 H   0  0  0  0  0  0  0  0  0  0  0  0
    1.8369   -1.8567    3.0190 H   0  0  0  0  0  0  0  0  0  0  0  0
    0.7416   -0.7286    2.2134 H   0  0  0  0  0  0  0  0  0  0  0  0
   -2.2451   -4.4332    6.1453 H   0  0  0  0  0  0  0  0  0  0  0  0
   -2.5614   -3.2609    4.8888 H   0  0  0  0  0  0  0  0  0  0  0  0
   -3.8872   -4.1173    5.6383 H   0  0  0  0  0  0  0  0  0  0  0  0
   -2.9280   -4.8181    6.3300 H   0  0  0  0  0  0  0  0  0  0  0  0
   -3.4677   -6.4264    5.9117 H   0  0  0  0  0  0  0  0  0  0  0  0
    0.3789   -5.9459    7.3554 H   0  0  0  0  0  0  0  0  0  0  0  0
   -0.8981   -4.7494    7.5983 H   0  0  0  0  0  0  0  0  0  0  0  0
   -3.2293   -8.4712    2.8493 H   0  0  0  0  0  0  0  0  0  0  0  0
   -2.2760   -8.2009    4.2884 H   0  0  0  0  0  0  0  0  0  0  0  0
   -4.0206   -8.1588    4.3755 H   0  0  0  0  0  0  0  0  0  0  0  0
   -2.9983   -7.5506    0.2833 H   0  0  0  0  0  0  0  0  0  0  0  0
   -4.1325   -6.3970    0.9435 H   0  0  0  0  0  0  0  0  0  0  0  0
   -4.5476   -7.3095   -0.4877 H   0  0  0  0  0  0  0  0  0  0  0  0
   -4.4869   -5.7879    0.7843 H   0  0  0  0  0  0  0  0  0  0  0  0
   -4.6432   -4.4539   -0.3332 H   0  0  0  0  0  0  0  0  0  0  0  0
   -7.1930   -7.6852   -0.7443 H   0  0  0  0  0  0  0  0  0  0  0  0
   -6.3151   -7.3341    0.7481 H   0  0  0  0  0  0  0  0  0  0  0  0
   -2.7778   -6.4829   -3.3306 H   0  0  0  0  0  0  0  0  0  0  0  0
   -2.7761   -7.9428   -3.5207 H   0  0  0  0  0  0  0  0  0  0  0  0
   -1.6861   -8.0041   -2.1565 H   0  0  0  0  0  0  0  0  0  0  0  0
   -3.6868   -9.3558   -1.7375 H   0  0  0  0  0  0  0  0  0  0  0  0
   -3.6007   -8.0096   -0.6269 H   0  0  0  0  0  0  0  0  0  0  0  0
   -6.9984   -8.4440   -2.9462 H   0  0  0  0  0  0  0  0  0  0  0  0
   -5.8687   -9.7661   -2.6347 H   0  0  0  0  0  0  0  0  0  0  0  0
   -1.7436   -3.0819   -7.9610 H   0  0  0  0  0  0  0  0  0  0  0  0
   -2.1069   -4.3926   -6.8641 H   0  0  0  0  0  0  0  0  0  0  0  0
   -3.3577   -3.2591   -7.3157 H   0  0  0  0  0  0  0  0  0  0  0  0
   -3.7853   -2.6234   -7.0883 H   0  0  0  0  0  0  0  0  0  0  0  0
   -3.5831   -1.0832   -6.2882 H   0  0  0  0  0  0  0  0  0  0  0  0
   -2.6687   -1.4440   -7.7328 H   0  0  0  0  0  0  0  0  0  0  0  0
   -1.2009   -0.1346   -6.2829 H   0  0  0  0  0  0  0  0  0  0  0  0
   -0.4357   -0.5744   -7.8427 H   0  0  0  0  0  0  0  0  0  0  0  0
    0.7951   -0.4777   -6.6062 H   0  0  0  0  0  0  0  0  0  0  0  0
    1.1887   -2.3935   -8.0827 H   0  0  0  0  0  0  0  0  0  0  0  0
    0.8359   -2.9233   -6.4555 H   0  0  0  0  0  0  0  0  0  0  0  0
   -1.4979   -4.3635   -9.5523 H   0  0  0  0  0  0  0  0  0  0  0  0
    0.1061   -3.6653   -9.7987 H   0  0  0  0  0  0  0  0  0  0  0  0
   -0.0344   -4.1191    4.3070 H   0  0  0  0  0  0  0  0  0  0  0  0
   -1.0819   -6.7973    3.4791 H   0  0  0  0  0  0  0  0  0  0  0  0
    1.2367   -6.0180    5.1775 H   0  0  0  0  0  0  0  0  0  0  0  0
    1.0406   -7.5672    4.3936 H   0  0  0  0  0  0  0  0  0  0  0  0
    1.0258   -6.4649    2.3461 H   0  0  0  0  0  0  0  0  0  0  0  0
   -1.2516   -4.7598    6.8354 H   0  0  0  0  0  0  0  0  0  0  0  0
   -2.2352   -3.3253    5.0972 H   0  0  0  0  0  0  0  0  0  0  0  0
   -3.8094   -4.3730    3.4084 H   0  0  0  0  0  0  0  0  0  0  0  0
   -4.5118   -4.4638    5.5770 H   0  0  0  0  0  0  0  0  0  0  0  0
   -6.3037   -7.0395    9.4855 H   0  0  0  0  0  0  0  0  0  0  0  0
   -5.3857   -7.7470   11.9988 H   0  0  0  0  0  0  0  0  0  0  0  0
   -5.4650   -9.1886   11.0147 H   0  0  0  0  0  0  0  0  0  0  0  0
   -3.9973   -8.8012   11.8800 H   0  0  0  0  0  0  0  0  0  0  0  0
   -1.4482   -8.9205   10.2960 H   0  0  0  0  0  0  0  0  0  0  0  0
   -1.3685   -7.4798   11.2814 H   0  0  0  0  0  0  0  0  0  0  0  0
   -2.5688   -8.7039   11.6190 H   0  0  0  0  0  0  0  0  0  0  0  0
   -1.4588   -6.7699    8.7045 H   0  0  0  0  0  0  0  0  0  0  0  0
  1 94  1  0  0  0  0
  1 95  1  0  0  0  0
  1 96  1  0  0  0  0
  2 70  1  0  0  0  0
  2 97  1  6  0  0  0
  2  3  1  0  0  0  0
  2  1  1  0  0  0  0
  3  4  1  0  0  0  0
  3 98  1  0  0  0  0
  3 99  1  0  0  0  0
  4  5  1  0  0  0  0
  4100  1  0  0  0  0
  5  6  2  0  0  0  0
  5  7  1  0  0  0  0
  7  8  1  0  0  0  0
  7101  1  0  0  0  0
  7102  1  0  0  0  0
  8103  1  0  0  0  0
  8104  1  0  0  0  0
  9 11  1  0  0  0  0
  9 18  1  0  0  0  0
  9 10  1  1  0  0  0
  9  8  1  0  0  0  0
 10105  1  0  0  0  0
 10106  1  0  0  0  0
 10107  1  0  0  0  0
 11 16  1  0  0  0  0
 11 12  1  0  0  0  0
 11108  1  6  0  0  0
 12 13  1  0  0  0  0
 12109  1  0  0  0  0
 12110  1  0  0  0  0
 13 14  1  0  0  0  0
 13 15  2  0  0  0  0
 14111  1  0  0  0  0
 14112  1  0  0  0  0
 16 17  1  0  0  0  0
 16 43  1  0  0  0  0
 16113  1  6  0  0  0
 17 18  2  0  0  0  0
 18 19  1  0  0  0  0
 19 21  2  0  0  0  0
 19 20  1  0  0  0  0
 20114  1  0  0  0  0
 20115  1  0  0  0  0
 20116  1  0  0  0  0
 21 22  1  0  0  0  0
 21 64  1  0  0  0  0
 22 23  2  0  0  0  0
 23 24  1  0  0  0  0
 23 61  1  0  0  0  0
 24 25  2  0  0  0  0
 24117  1  0  0  0  0
 25 26  1  0  0  0  0
 25 55  1  0  0  0  0
 26 27  2  0  0  0  0
 27 28  1  0  0  0  0
 27 49  1  0  0  0  0
 28 30  2  0  0  0  0
 28 29  1  0  0  0  0
 29118  1  0  0  0  0
 29119  1  0  0  0  0
 29120  1  0  0  0  0
 30 31  1  0  0  0  0
 30 45  1  0  0  0  0
 31 37  1  0  0  0  0
 31121  1  1  0  0  0
 31 32  1  0  0  0  0
 32 33  1  0  0  0  0
 32122  1  0  0  0  0
 32123  1  0  0  0  0
 33 34  1  0  0  0  0
 33124  1  0  0  0  0
 33125  1  0  0  0  0
 34 35  1  0  0  0  0
 34 36  2  0  0  0  0
 35126  1  0  0  0  0
 35127  1  0  0  0  0
 37 43  1  0  0  0  0
 37 39  1  1  0  0  0
 37 38  1  0  0  0  0
 38128  1  0  0  0  0
 38129  1  0  0  0  0
 38130  1  0  0  0  0
 39 40  1  0  0  0  0
 39131  1  0  0  0  0
 39132  1  0  0  0  0
 40 41  1  0  0  0  0
 40 42  2  0  0  0  0
 41133  1  0  0  0  0
 41134  1  0  0  0  0
 43 45  1  0  0  0  0
 43 44  1  6  0  0  0
 44135  1  0  0  0  0
 44136  1  0  0  0  0
 44137  1  0  0  0  0
 45 46  1  0  0  0  0
 46 47  1  0  0  0  0
 47 48  3  0  0  0  0
 49 55  1  0  0  0  0
 49 50  1  1  0  0  0
 49 51  1  0  0  0  0
 50138  1  0  0  0  0
 50139  1  0  0  0  0
 50140  1  0  0  0  0
 51 52  1  0  0  0  0
 51141  1  0  0  0  0
 51142  1  0  0  0  0
 52 53  1  0  0  0  0
 52 54  2  0  0  0  0
 53143  1  0  0  0  0
 53144  1  0  0  0  0
 55 56  1  0  0  0  0
 55145  1  6  0  0  0
 56 57  1  0  0  0  0
 56146  1  0  0  0  0
 56147  1  0  0  0  0
 57 58  1  0  0  0  0
 57148  1  0  0  0  0
 57149  1  0  0  0  0
 58 59  1  0  0  0  0
 58 60  2  0  0  0  0
 59150  1  0  0  0  0
 59151  1  0  0  0  0
 61 64  1  0  0  0  0
 61 62  1  0  0  0  0
 61 63  1  0  0  0  0
 62152  1  0  0  0  0
 62153  1  0  0  0  0
 62154  1  0  0  0  0
 63155  1  0  0  0  0
 63156  1  0  0  0  0
 63157  1  0  0  0  0
 64 65  1  0  0  0  0
 64158  1  6  0  0  0
 65 66  1  0  0  0  0
 65159  1  0  0  0  0
 65160  1  0  0  0  0
 66 67  1  0  0  0  0
 66161  1  0  0  0  0
 66162  1  0  0  0  0
 67 68  1  0  0  0  0
 67 69  2  0  0  0  0
 68163  1  0  0  0  0
 68164  1  0  0  0  0
 70 71  1  0  0  0  0
 71 72  1  0  0  0  0
 71 73  2  0  0  0  0
 71 74  1  0  0  0  0
 75 74  1  0  0  0  0
 75 76  1  0  0  0  0
 75 81  1  0  0  0  0
 75165  1  1  0  0  0
 76 79  1  0  0  0  0
 76166  1  6  0  0  0
 76 77  1  0  0  0  0
 77 78  1  0  0  0  0
 77167  1  0  0  0  0
 77168  1  0  0  0  0
 78169  1  0  0  0  0
 79 80  1  0  0  0  0
 80 81  1  0  0  0  0
 80 83  1  0  0  0  0
 80170  1  1  0  0  0
 81171  1  1  0  0  0
 81 82  1  0  0  0  0
 82172  1  0  0  0  0
 83 84  1  0  0  0  0
 83 93  1  0  0  0  0
 84 85  2  0  0  0  0
 84173  1  0  0  0  0
 85 86  1  0  0  0  0
 86 87  1  0  0  0  0
 86 93  2  0  0  0  0
 87 88  2  0  0  0  0
 87174  1  0  0  0  0
 88 89  1  0  0  0  0
 88 90  1  0  0  0  0
 89175  1  0  0  0  0
 89176  1  0  0  0  0
 89177  1  0  0  0  0
 90 91  1  0  0  0  0
 90 92  2  0  0  0  0
 91178  1  0  0  0  0
 91179  1  0  0  0  0
 91180  1  0  0  0  0
 92 93  1  0  0  0  0
 92181  1  0  0  0  0
M  CHG  2  46   1  72  -1
M  END
>  <DRUGBANK_ID>
DB00115

>  <SECONDARY_ACCESSION_NUMBERS>
NUTR00004; APRD00326; EXPT00965

>  <COMMON_NAME>
Cyanocobalamin

>  <CAS_NUMBER>
68-19-9

>  <UNII>
P6YC3EG204

>  <SYNONYMS>
Cianocobalamina; Cyanocob(III)alamin; Cyanocobalamin; Cyanocobalamine; Cyanocobalaminum; Vitamin B12; Vitamin B12 complex; Vitamin B12 NOS

$$$$
