
 OpenBabel10282417203D

  9  8  0  0  0  0  0  0  0  0999 V2000
    0.8985    0.1176   -0.0175 C   0  0  0  0  0  0  0  0  0  0  0  0
    0.2507    1.6685   -0.6752 S   0  0  0  0  0  0  0  0  0  0  0  0
    0.8808    1.9928   -1.9337 O   0  0  0  0  0  0  0  0  0  0  0  0
   -1.1833    1.7388   -0.4969 O   0  0  0  0  0  0  0  0  0  0  0  0
    0.8787    2.6902    0.4090 O   0  0  0  0  0  0  0  0  0  0  0  0
    0.2521   -1.5141   -1.2344 I   0  0  0  0  0  0  0  0  0  0  0  0
    0.5316    0.0074    1.0072 H   0  0  0  0  0  0  0  0  0  0  0  0
    1.9902    0.1870   -0.0085 H   0  0  0  0  0  0  0  0  0  0  0  0
    0.5944    3.5980    0.1610 H   0  0  0  0  0  0  0  0  0  0  0  0
  1  2  1  0  0  0  0
  1  6  1  0  0  0  0
  1  7  1  0  0  0  0
  1  8  1  0  0  0  0
  2  3  2  0  0  0  0
  2  4  2  0  0  0  0
  2  5  1  0  0  0  0
  5  9  1  0  0  0  0
M  END
>  <DRUGBANK_ID>
DB13321

>  <COMMON_NAME>
Methiodal

>  <CAS_NUMBER>
143-47-5

>  <UNII>
H20847G0I0

$$$$
