
 OpenBabel10282417133D

 58 61  0  0  0  0  0  0  0  0999 V2000
    0.9577    0.0816   -0.3962 S   0  0  0  0  0  0  0  0  0  0  0  0
    0.6823   -2.8729    0.0373 O   0  0  0  0  0  0  0  0  0  0  0  0
    1.8374   -5.9517    1.2753 O   0  0  0  0  0  0  0  0  0  0  0  0
   -0.3633   -4.8662    2.2016 O   0  0  0  0  0  0  0  0  0  0  0  0
    0.2430   -0.3493    1.0064 O   0  0  0  0  0  0  0  0  0  0  0  0
    0.4226    1.3875   -0.7344 O   0  0  0  0  0  0  0  0  0  0  0  0
    0.7689   -0.9573   -1.3669 O   0  0  0  0  0  0  0  0  0  0  0  0
    4.6342    0.9760    0.4773 O   0  0  0  0  0  0  0  0  0  0  0  0
    5.1192   -0.9680    6.4486 O   0  0  0  0  0  0  0  0  0  0  0  0
    2.6455   -3.7133   -0.9607 N   0  0  0  0  0  0  0  0  0  0  0  0
    3.9610   -3.9303   -2.7520 N   0  0  0  0  0  0  0  0  0  0  0  0
    4.0814   -2.2895    0.4233 N   0  0  0  0  0  0  0  0  0  0  0  0
    2.5896    0.1485   -0.0948 N   0  0  0  0  0  0  0  0  0  0  0  0
    6.1874   -1.7981   -0.7044 N   0  0  0  0  0  0  0  0  0  0  0  0
    6.7203   -2.5741   -2.8484 N   0  0  0  0  0  0  0  0  0  0  0  0
    2.0193    3.0518    0.3446 N   0  0  0  0  0  0  0  0  0  0  0  0
    1.8408   -4.5247    1.2748 C   0  0  2  0  0  0  0  0  0  0  0  0
    0.7282   -3.9354    2.1436 C   0  0  1  0  0  0  0  0  0  0  0  0
    1.5085   -4.0066   -0.1119 C   0  0  1  0  0  0  0  0  0  0  0  0
    0.2332   -2.7217    1.3718 C   0  0  1  0  0  0  0  0  0  0  0  0
    0.7534   -1.4012    1.8053 C   0  0  0  0  0  0  0  0  0  0  0  0
    3.7819   -2.9960   -0.6830 C   0  0  0  0  0  0  0  0  0  0  0  0
    2.8044   -4.2474   -2.2151 C   0  0  0  0  0  0  0  0  0  0  0  0
    4.5822   -3.1435   -1.8082 C   0  0  0  0  0  0  0  0  0  0  0  0
    5.8344   -2.5037   -1.7982 C   0  0  0  0  0  0  0  0  0  0  0  0
    5.3210   -1.7398    0.3267 C   0  0  0  0  0  0  0  0  0  0  0  0
    2.8124    2.2806    1.2872 C   0  0  2  0  0  0  0  0  0  0  0  0
    3.4144    1.1022    0.5320 C   0  0  0  0  0  0  0  0  0  0  0  0
    2.0371    1.7858    2.5210 C   0  0  0  0  0  0  0  0  0  0  0  0
    2.8837    1.0676    3.5550 C   0  0  0  0  0  0  0  0  0  0  0  0
    2.7739   -0.2990    3.8214 C   0  0  0  0  0  0  0  0  0  0  0  0
    3.7872    1.7467    4.3440 C   0  0  0  0  0  0  0  0  0  0  0  0
    3.5454   -1.0360    4.6992 C   0  0  0  0  0  0  0  0  0  0  0  0
    4.5204    1.0513    5.3217 C   0  0  0  0  0  0  0  0  0  0  0  0
    4.4120   -0.3316    5.4798 C   0  0  0  0  0  0  0  0  0  0  0  0
    3.0935   -0.6377   -0.5022 H   0  0  0  0  0  0  0  0  0  0  0  0
    6.4836   -3.1434   -3.6480 H   0  0  0  0  0  0  0  0  0  0  0  0
    7.6068   -2.1029   -2.7656 H   0  0  0  0  0  0  0  0  0  0  0  0
    1.4572    3.7932    0.7349 H   0  0  0  0  0  0  0  0  0  0  0  0
    2.5390    3.3573   -0.4757 H   0  0  0  0  0  0  0  0  0  0  0  0
    0.9101   -6.2363    1.1578 H   0  0  0  0  0  0  0  0  0  0  0  0
   -0.8273   -4.8316    1.3444 H   0  0  0  0  0  0  0  0  0  0  0  0
    4.9069   -1.9174    6.4061 H   0  0  0  0  0  0  0  0  0  0  0  0
    2.8190   -4.1839    1.6239 H   0  0  0  0  0  0  0  0  0  0  0  0
    1.0592   -3.7314    3.1708 H   0  0  0  0  0  0  0  0  0  0  0  0
    0.8688   -4.7063   -0.6563 H   0  0  0  0  0  0  0  0  0  0  0  0
   -0.8563   -2.6343    1.3711 H   0  0  0  0  0  0  0  0  0  0  0  0
    1.8434   -1.4250    1.7313 H   0  0  0  0  0  0  0  0  0  0  0  0
    0.3738   -1.2419    2.8267 H   0  0  0  0  0  0  0  0  0  0  0  0
    2.0494   -4.8690   -2.6786 H   0  0  0  0  0  0  0  0  0  0  0  0
    5.6425   -1.1326    1.1717 H   0  0  0  0  0  0  0  0  0  0  0  0
    3.6352    2.9241    1.6169 H   0  0  0  0  0  0  0  0  0  0  0  0
    1.5068    2.6198    2.9924 H   0  0  0  0  0  0  0  0  0  0  0  0
    1.2340    1.1306    2.2141 H   0  0  0  0  0  0  0  0  0  0  0  0
    1.9913   -0.8811    3.4404 H   0  0  0  0  0  0  0  0  0  0  0  0
    3.8863    2.8223    4.2394 H   0  0  0  0  0  0  0  0  0  0  0  0
    3.3710   -2.1059    4.7852 H   0  0  0  0  0  0  0  0  0  0  0  0
    5.1693    1.6059    5.9852 H   0  0  0  0  0  0  0  0  0  0  0  0
  1  5  1  0  0  0  0
  1  6  2  0  0  0  0
  1  7  2  0  0  0  0
  1 13  1  0  0  0  0
  2 19  1  0  0  0  0
  2 20  1  0  0  0  0
  3 41  1  0  0  0  0
  4 42  1  0  0  0  0
  5 21  1  0  0  0  0
  8 28  2  0  0  0  0
  9 35  1  0  0  0  0
  9 43  1  0  0  0  0
 10 22  1  0  0  0  0
 10 23  1  0  0  0  0
 11 23  2  0  0  0  0
 11 24  1  0  0  0  0
 12 22  2  0  0  0  0
 12 26  1  0  0  0  0
 13 28  1  0  0  0  0
 13 36  1  0  0  0  0
 14 25  1  0  0  0  0
 14 26  2  0  0  0  0
 15 25  1  0  0  0  0
 15 37  1  0  0  0  0
 15 38  1  0  0  0  0
 16 39  1  0  0  0  0
 16 40  1  0  0  0  0
 17  3  1  0  0  0  0
 17 18  1  0  0  0  0
 17 19  1  0  0  0  0
 17 44  1  1  0  0  0
 18  4  1  0  0  0  0
 18 20  1  0  0  0  0
 18 45  1  1  0  0  0
 19 46  1  6  0  0  0
 19 10  1  0  0  0  0
 20 21  1  0  0  0  0
 20 47  1  1  0  0  0
 21 48  1  0  0  0  0
 21 49  1  0  0  0  0
 22 24  1  0  0  0  0
 23 50  1  0  0  0  0
 24 25  2  0  0  0  0
 26 51  1  0  0  0  0
 27 16  1  0  0  0  0
 27 28  1  0  0  0  0
 27 29  1  0  0  0  0
 27 52  1  1  0  0  0
 29 30  1  0  0  0  0
 29 53  1  0  0  0  0
 29 54  1  0  0  0  0
 30 31  2  0  0  0  0
 30 32  1  0  0  0  0
 31 33  1  0  0  0  0
 31 55  1  0  0  0  0
 32 34  2  0  0  0  0
 32 56  1  0  0  0  0
 33 35  2  0  0  0  0
 33 57  1  0  0  0  0
 34 35  1  0  0  0  0
 34 58  1  0  0  0  0
M  END
>  <DRUGBANK_ID>
DB03325

>  <SECONDARY_ACCESSION_NUMBERS>
EXPT03277

>  <COMMON_NAME>
Tyrosyladenylate

>  <SYNONYMS>
5'-O-(L-Tyrosylsulfamoyl)adenosine

$$$$
