700
 OpenBabel10282417133D

 50 53  0  0  0  0  0  0  0  0999 V2000
    1.0355   -0.2150   -0.1084 C   0  0  0  0  0  0  0  0  0  0  0  0
    0.6046    0.5517   -1.3448 C   0  0  0  0  0  0  0  0  0  0  0  0
    0.0424   -0.0759   -2.4583 C   0  0  0  0  0  0  0  0  0  0  0  0
   -0.5015    0.6603   -3.5100 C   0  0  0  0  0  0  0  0  0  0  0  0
   -0.3774    2.0424   -3.5268 C   0  0  0  0  0  0  0  0  0  0  0  0
    0.2952    2.6841   -2.4903 C   0  0  0  0  0  0  0  0  0  0  0  0
    0.7668    1.9479   -1.3962 C   0  0  0  0  0  0  0  0  0  0  0  0
    0.6544   -1.7228    0.0442 C   0  0  1  0  0  0  0  0  0  0  0  0
    1.2907   -2.3006    1.3353 C   0  0  0  0  0  0  0  0  0  0  0  0
    0.6321   -2.6353    2.3157 O   0  0  0  0  0  0  0  0  0  0  0  0
    2.6635   -2.4791    1.2574 N   0  0  0  0  0  0  0  0  0  0  0  0
    3.6420   -1.4046    1.4912 C   0  0  0  0  0  0  0  0  0  0  0  0
    4.2486   -2.2495    2.6082 C   0  0  3  0  0  0  0  0  0  0  0  0
    5.7757   -2.4279    2.6309 C   0  0  0  0  0  0  0  0  0  0  0  0
    6.5382   -2.2375    3.5703 O   0  0  0  0  0  0  0  0  0  0  0  0
    6.3030   -2.8438    1.4537 O   0  0  0  0  0  0  0  0  0  0  0  0
    3.4020   -3.4173    2.1122 C   0  0  0  0  0  0  0  0  0  0  0  0
   -0.7925   -1.9383    0.1872 N   0  0  0  0  0  0  0  0  0  0  0  0
   -1.7092   -2.1463   -0.8306 C   0  0  0  0  0  0  0  0  0  0  0  0
   -2.8945   -1.2918   -0.6511 C   0  0  0  0  0  0  0  0  0  0  0  0
   -2.7961    0.0940   -0.4767 C   0  0  0  0  0  0  0  0  0  0  0  0
   -2.8128    0.1524    0.9516 C   0  0  0  0  0  0  0  0  0  0  0  0
   -3.6397   -0.8959    1.3682 C   0  0  0  0  0  0  0  0  0  0  0  0
   -3.8975   -1.1818    2.7070 C   0  0  0  0  0  0  0  0  0  0  0  0
   -3.0699   -0.5274    3.6305 C   0  0  0  0  0  0  0  0  0  0  0  0
   -2.1295    0.4249    3.2244 C   0  0  0  0  0  0  0  0  0  0  0  0
   -0.9610    1.0056    4.3498 Cl  0  0  0  0  0  0  0  0  0  0  0  0
   -2.0463    0.8475    1.8973 C   0  0  0  0  0  0  0  0  0  0  0  0
   -3.9860   -1.5386    0.1855 N   0  0  0  0  0  0  0  0  0  0  0  0
   -1.5012   -2.8576   -1.7948 O   0  0  0  0  0  0  0  0  0  0  0  0
    1.0169   -2.3005   -0.8092 H   0  0  0  0  0  0  0  0  0  0  0  0
    0.6584    0.3258    0.7720 H   0  0  0  0  0  0  0  0  0  0  0  0
    2.1233   -0.1086   -0.0805 H   0  0  0  0  0  0  0  0  0  0  0  0
   -0.0337   -1.1545   -2.5165 H   0  0  0  0  0  0  0  0  0  0  0  0
   -1.0311    0.1405   -4.3037 H   0  0  0  0  0  0  0  0  0  0  0  0
   -0.7936    2.6121   -4.3528 H   0  0  0  0  0  0  0  0  0  0  0  0
    0.4378    3.7610   -2.5296 H   0  0  0  0  0  0  0  0  0  0  0  0
    1.2583    2.4811   -0.5848 H   0  0  0  0  0  0  0  0  0  0  0  0
    4.2618   -1.2380    0.6084 H   0  0  0  0  0  0  0  0  0  0  0  0
    3.2255   -0.4556    1.8370 H   0  0  0  0  0  0  0  0  0  0  0  0
    3.9010   -1.9020    3.5935 H   0  0  0  0  0  0  0  0  0  0  0  0
    7.2636   -2.9215    1.6385 H   0  0  0  0  0  0  0  0  0  0  0  0
    2.8115   -3.9215    2.8793 H   0  0  0  0  0  0  0  0  0  0  0  0
    3.9135   -4.1614    1.5005 H   0  0  0  0  0  0  0  0  0  0  0  0
   -1.1620   -1.6537    1.0850 H   0  0  0  0  0  0  0  0  0  0  0  0
   -2.1615    0.7355   -1.0724 H   0  0  0  0  0  0  0  0  0  0  0  0
   -4.5677   -1.9779    3.0113 H   0  0  0  0  0  0  0  0  0  0  0  0
   -3.1183   -0.8209    4.6765 H   0  0  0  0  0  0  0  0  0  0  0  0
   -1.2858    1.5491    1.5708 H   0  0  0  0  0  0  0  0  0  0  0  0
   -4.7769   -2.0627   -0.0118 H   0  0  0  0  0  0  0  0  0  0  0  0
  1  2  1  0  0  0  0
  1  8  1  0  0  0  0
  1 32  1  0  0  0  0
  1 33  1  0  0  0  0
  2  3  2  0  0  0  0
  2  7  1  0  0  0  0
  3  4  1  0  0  0  0
  3 34  1  0  0  0  0
  4  5  2  0  0  0  0
  4 35  1  0  0  0  0
  5  6  1  0  0  0  0
  5 36  1  0  0  0  0
  6  7  2  0  0  0  0
  6 37  1  0  0  0  0
  7 38  1  0  0  0  0
  8  9  1  0  0  0  0
  8 18  1  0  0  0  0
  8 31  1  6  0  0  0
  9 10  2  0  0  0  0
  9 11  1  0  0  0  0
 11 12  1  0  0  0  0
 11 17  1  0  0  0  0
 12 13  1  0  0  0  0
 12 39  1  0  0  0  0
 12 40  1  0  0  0  0
 13 14  1  0  0  0  0
 13 17  1  0  0  0  0
 13 41  1  0  0  0  0
 14 15  2  0  0  0  0
 14 16  1  0  0  0  0
 16 42  1  0  0  0  0
 17 43  1  0  0  0  0
 17 44  1  0  0  0  0
 18 19  1  0  0  0  0
 18 45  1  0  0  0  0
 19 20  1  0  0  0  0
 19 30  2  0  0  0  0
 20 21  2  0  0  0  0
 20 29  1  0  0  0  0
 21 22  1  0  0  0  0
 21 46  1  0  0  0  0
 22 23  2  0  0  0  0
 22 28  1  0  0  0  0
 23 24  1  0  0  0  0
 23 29  1  0  0  0  0
 24 25  2  0  0  0  0
 24 47  1  0  0  0  0
 25 26  1  0  0  0  0
 25 48  1  0  0  0  0
 26 27  1  0  0  0  0
 26 28  2  0  0  0  0
 28 49  1  0  0  0  0
 29 50  1  0  0  0  0
M  END
>  <DRUGBANK_ID>
DB03744

>  <SECONDARY_ACCESSION_NUMBERS>
EXPT00293

>  <COMMON_NAME>
Cp403700, (S)-1-{2-[(5-Chloro-1h-Indole-2-Carbonyl)-Amino]-3-Phenyl-Propionyl}-Azetidine-3-Carboxylate

$$$$
