
 OpenBabel10282417193D

 38 38  0  0  1  0  0  0  0  0999 V2000
   -4.8670   -5.3458    9.0699 C   0  0  0  0  0  0  0  0  0  0  0  0
   -4.1225   -4.3997   10.0097 C   0  0  0  0  0  0  0  0  0  0  0  0
   -0.0141   -0.1646    5.4130 C   0  0  0  0  0  0  0  0  0  0  0  0
   -0.7201   -1.1427    4.4764 C   0  0  0  0  0  0  0  0  0  0  0  0
    0.2959   -0.7569    6.7775 C   0  0  0  0  0  0  0  0  0  0  0  0
   -2.6081   -4.4740    9.8702 C   0  0  0  0  0  0  0  0  0  0  0  0
   -2.1490   -3.1247    5.1116 C   0  0  0  0  0  0  0  0  0  0  0  0
   -2.7465   -3.9177    7.4081 C   0  0  0  0  0  0  0  0  0  0  0  0
   -0.8174   -3.6560    8.3708 C   0  0  0  0  0  0  0  0  0  0  0  0
   -2.1400   -1.6006    4.8968 C   0  0  1  0  0  0  0  0  0  0  0  0
   -1.8100   -3.5729    6.4824 C   0  0  0  0  0  0  0  0  0  0  0  0
   -2.8895   -0.7359    5.9454 C   0  0  0  0  0  0  0  0  0  0  0  0
    1.2533   -1.8533    6.6927 N   0  0  0  0  0  0  0  0  0  0  0  0
   -0.5829   -3.5463    7.0765 N   0  0  0  0  0  0  0  0  0  0  0  0
   -2.1047   -4.0315    8.5923 N   0  0  0  0  0  0  0  0  0  0  0  0
   -3.5782    0.2209    5.6881 O   0  0  0  0  0  0  0  0  0  0  0  0
   -2.6265   -1.0250    7.2370 O   0  0  0  0  0  0  0  0  0  0  0  0
   -2.7554   -1.4517    3.9949 H   0  0  0  0  0  0  0  0  0  0  0  0
   -4.7757   -5.1325    8.0128 H   0  0  0  0  0  0  0  0  0  0  0  0
   -5.9405   -5.2829    9.2388 H   0  0  0  0  0  0  0  0  0  0  0  0
   -4.4994   -6.3681    9.1747 H   0  0  0  0  0  0  0  0  0  0  0  0
   -4.4464   -3.3619    9.8627 H   0  0  0  0  0  0  0  0  0  0  0  0
   -4.3844   -4.6777   11.0364 H   0  0  0  0  0  0  0  0  0  0  0  0
    0.9263    0.1620    4.9545 H   0  0  0  0  0  0  0  0  0  0  0  0
   -0.6411    0.7263    5.5208 H   0  0  0  0  0  0  0  0  0  0  0  0
   -0.0746   -2.0169    4.3109 H   0  0  0  0  0  0  0  0  0  0  0  0
   -0.7798   -0.6865    3.4786 H   0  0  0  0  0  0  0  0  0  0  0  0
    0.5983   -0.0054    7.5075 H   0  0  0  0  0  0  0  0  0  0  0  0
   -0.5970   -1.1787    7.1982 H   0  0  0  0  0  0  0  0  0  0  0  0
   -2.1309   -3.8593   10.6470 H   0  0  0  0  0  0  0  0  0  0  0  0
   -2.2453   -5.5002   10.0026 H   0  0  0  0  0  0  0  0  0  0  0  0
   -1.4983   -3.6380    4.3956 H   0  0  0  0  0  0  0  0  0  0  0  0
   -3.1648   -3.4763    4.8791 H   0  0  0  0  0  0  0  0  0  0  0  0
   -3.7983   -3.9428    7.2215 H   0  0  0  0  0  0  0  0  0  0  0  0
   -0.1175   -3.4535    9.1744 H   0  0  0  0  0  0  0  0  0  0  0  0
    1.1834   -2.3456    7.5897 H   0  0  0  0  0  0  0  0  0  0  0  0
    0.7723   -2.5905    6.1442 H   0  0  0  0  0  0  0  0  0  0  0  0
   -2.6532   -0.2058    7.7694 H   0  0  0  0  0  0  0  0  0  0  0  0
  1 19  1  0  0  0  0
  1 20  1  0  0  0  0
  1 21  1  0  0  0  0
  2  1  1  0  0  0  0
  2 22  1  0  0  0  0
  2 23  1  0  0  0  0
  3 24  1  0  0  0  0
  3 25  1  0  0  0  0
  4  3  1  0  0  0  0
  4 26  1  0  0  0  0
  4 27  1  0  0  0  0
  5  3  1  0  0  0  0
  5 28  1  0  0  0  0
  5 29  1  0  0  0  0
  6  2  1  0  0  0  0
  6 30  1  0  0  0  0
  6 31  1  0  0  0  0
  7 32  1  0  0  0  0
  7 33  1  0  0  0  0
  8 34  1  0  0  0  0
  9 35  1  0  0  0  0
 10 12  1  0  0  0  0
 10 18  1  6  0  0  0
 10  7  1  0  0  0  0
 10  4  1  0  0  0  0
 11  7  1  0  0  0  0
 11  8  2  0  0  0  0
 13  5  1  0  0  0  0
 13 36  1  0  0  0  0
 13 37  1  0  0  0  0
 14  9  2  0  0  0  0
 14 11  1  0  0  0  0
 15  6  1  0  0  0  0
 15  8  1  0  0  0  0
 15  9  1  0  0  0  0
 16 12  2  0  0  0  0
 17 12  1  0  0  0  0
 17 38  1  0  0  0  0
M  END
>  <DRUGBANK_ID>
DB12099

>  <COMMON_NAME>
UK-396,082

>  <CAS_NUMBER>
400044-47-5

>  <UNII>
2Q5861SUIG

$$$$
