
 OpenBabel10282417183D

 37 33  0  0  0  0  0  0  0  0999 V2000
   -0.2560   -0.2428    0.5077 C   0  0  0  0  0  0  0  0  0  0  0  0
    0.3474    1.5206    0.7097 C   0  0  1  0  0  0  0  0  0  0  0  0
    1.4904    2.9840   -0.2891 C   0  0  0  0  0  0  0  0  0  0  0  0
   -1.1696    1.7374    1.0182 N   0  0  0  0  0  0  0  0  0  0  0  0
    0.8215    3.8441   -0.9404 O   0  0  0  0  0  0  0  0  0  0  0  0
    2.6570    2.6902   -0.4380 O   0  5  0  0  0  0  0  0  0  0  0  0
   -1.8179   -0.5310   -1.2039 S   0  5  0  0  0  0  0  0  0  0  0  0
    0.7705   -0.1005   -1.7073 C   0  0  0  0  0  0  0  0  0  0  0  0
   -0.0194    1.5318   -1.7694 C   0  0  1  0  0  0  0  0  0  0  0  0
    0.7802    1.8538   -2.9627 C   0  0  0  0  0  0  0  0  0  0  0  0
   -1.5092    1.9250   -1.5048 N   0  0  0  0  0  0  0  0  0  0  0  0
    0.2883    2.0249   -3.9472 O   0  0  0  0  0  0  0  0  0  0  0  0
    2.1134    1.4738   -2.7603 O   0  0  0  0  0  0  0  0  0  0  0  0
    0.1086   -2.2658   -1.5614 S   0  0  0  0  0  0  0  0  0  0  0  0
    2.4800   -0.2177    0.7058 C   0  0  0  0  0  0  0  0  0  0  0  0
    2.2743   -1.8873    0.0015 C   0  0  0  0  0  0  0  0  0  0  0  0
    1.6424    0.0931    2.2138 N   0  0  0  0  0  0  0  0  0  0  0  0
    1.6618   -2.7750    0.6187 O   0  0  0  0  0  0  0  0  0  0  0  0
    2.4735   -2.1120   -1.3965 O   0  0  0  0  0  0  0  0  0  0  0  0
   -2.4683   -0.6741    0.6440 Fe  0  2  0  0  0  0  0  0  0  0  0  0
    0.8401    1.9726    1.6061 H   0  0  0  0  0  0  0  0  0  0  0  0
   -0.0876    2.2658   -0.9799 H   0  0  0  0  0  0  0  0  0  0  0  0
   -0.6147   -0.9969    1.3279 H   0  0  0  0  0  0  0  0  0  0  0  0
    0.6046   -0.9624    0.6874 H   0  0  0  0  0  0  0  0  0  0  0  0
   -1.3161    2.7227    0.8275 H   0  0  0  0  0  0  0  0  0  0  0  0
   -1.6164    1.4782    0.1080 H   0  0  0  0  0  0  0  0  0  0  0  0
    0.3677    0.3763   -0.8098 H   0  0  0  0  0  0  0  0  0  0  0  0
    1.8407   -0.1079   -1.4792 H   0  0  0  0  0  0  0  0  0  0  0  0
   -1.6897    2.8761   -1.6691 H   0  0  0  0  0  0  0  0  0  0  0  0
   -1.8479    1.1814   -2.1336 H   0  0  0  0  0  0  0  0  0  0  0  0
    2.6823    1.8760   -3.4144 H   0  0  0  0  0  0  0  0  0  0  0  0
    0.0496   -1.9743   -2.7999 H   0  0  0  0  0  0  0  0  0  0  0  0
    2.1509    0.6158    0.0786 H   0  0  0  0  0  0  0  0  0  0  0  0
    3.5058    0.1552    0.6583 H   0  0  0  0  0  0  0  0  0  0  0  0
    0.6277    0.4229    2.1833 H   0  0  0  0  0  0  0  0  0  0  0  0
    1.3892   -0.7711    2.6748 H   0  0  0  0  0  0  0  0  0  0  0  0
    1.6797   -2.6912   -1.7457 H   0  0  0  0  0  0  0  0  0  0  0  0
  1 23  1  0  0  0  0
  1 24  1  0  0  0  0
  2  1  1  0  0  0  0
  2  3  1  0  0  0  0
  2  4  1  0  0  0  0
  2 21  1  1  0  0  0
  4 25  1  0  0  0  0
  4 26  1  0  0  0  0
  5  3  2  0  0  0  0
  6  3  1  0  0  0  0
  7  1  1  0  0  0  0
  8 27  1  0  0  0  0
  8 28  1  0  0  0  0
  9  8  1  0  0  0  0
  9 10  1  0  0  0  0
  9 11  1  0  0  0  0
  9 22  1  1  0  0  0
 11 29  1  0  0  0  0
 11 30  1  0  0  0  0
 12 10  2  0  0  0  0
 13 10  1  0  0  0  0
 13 31  1  0  0  0  0
 14  8  1  0  0  0  0
 14 32  1  0  0  0  0
 15 33  1  0  0  0  0
 15 34  1  0  0  0  0
 16 15  1  0  0  0  0
 17 15  1  0  0  0  0
 17 35  1  0  0  0  0
 17 36  1  0  0  0  0
 18 16  2  0  0  0  0
 19 16  1  0  0  0  0
 19 37  1  0  0  0  0
M  CHG  3   6  -1   7  -1  20   2
M  END
>  <DRUGBANK_ID>
DB11197

>  <COMMON_NAME>
Ferrous cysteine glycinate

>  <UNII>
8B4OP7RK5N

>  <SYNONYMS>
Ferrous cysteine glycinate chelate (1:2:1)

$$$$
