
 OpenBabel10282417153D

 67 71  0  0  1  0  0  0  0  0999 V2000
    0.9822    0.2753    0.0034 Br  0  0  0  0  0  0  0  0  0  0  0  0
    3.2149   -7.8781    1.2703 Br  0  0  0  0  0  0  0  0  0  0  0  0
    5.8370    2.6000    1.2050 Cl  0  0  0  0  0  0  0  0  0  0  0  0
    4.3692   -7.0389   -4.4488 O   0  0  0  0  0  0  0  0  0  0  0  0
    8.4547   -0.9298   -1.6639 O   0  0  0  0  0  0  0  0  0  0  0  0
    4.2452   -5.0271   -3.3852 N   0  0  0  0  0  0  0  0  0  0  0  0
    7.4848   -2.4760   -3.0661 N   0  0  0  0  0  0  0  0  0  0  0  0
    1.8668   -4.2273   -0.1649 N   0  0  0  0  0  0  0  0  0  0  0  0
    7.1020   -0.1616   -3.2395 N   0  0  0  0  0  0  0  0  0  0  0  0
    2.9980   -2.3696   -2.6211 C   0  0  0  0  0  0  0  0  0  0  0  0
    2.8344   -2.2166   -1.0507 C   0  0  2  0  0  0  0  0  0  0  0  0
    2.3408   -3.4917   -3.5006 C   0  0  0  0  0  0  0  0  0  0  0  0
    4.4058   -2.5703   -2.9829 C   0  0  0  0  0  0  0  0  0  0  0  0
    2.8042   -4.9403   -3.2191 C   0  0  0  0  0  0  0  0  0  0  0  0
    4.8624   -4.0318   -2.6181 C   0  0  0  0  0  0  0  0  0  0  0  0
    7.6108   -5.1291   -4.2839 C   0  0  0  0  0  0  0  0  0  0  0  0
    3.5651   -0.9857   -0.4577 C   0  0  0  0  0  0  0  0  0  0  0  0
    2.9934   -3.4603   -0.1692 C   0  0  0  0  0  0  0  0  0  0  0  0
    6.5265   -6.1674   -3.7692 C   0  0  0  0  0  0  0  0  0  0  0  0
    4.9594   -6.0899   -3.9182 C   0  0  0  0  0  0  0  0  0  0  0  0
    8.5560   -4.6949   -3.1244 C   0  0  0  0  0  0  0  0  0  0  0  0
    7.2576   -3.9067   -5.1508 C   0  0  0  0  0  0  0  0  0  0  0  0
    4.9715   -0.9637   -0.2646 C   0  0  0  0  0  0  0  0  0  0  0  0
    4.1911   -3.9380    0.4205 C   0  0  0  0  0  0  0  0  0  0  0  0
    7.9597   -3.6316   -2.2327 C   0  0  0  0  0  0  0  0  0  0  0  0
    6.8072   -2.7384   -4.3483 C   0  0  0  0  0  0  0  0  0  0  0  0
    5.8462   -2.1518   -0.3557 C   0  0  0  0  0  0  0  0  0  0  0  0
    5.5509   -3.2956    0.5401 C   0  0  0  0  0  0  0  0  0  0  0  0
    2.8798    0.1552   -0.0175 C   0  0  0  0  0  0  0  0  0  0  0  0
    5.6668    0.1892    0.1097 C   0  0  0  0  0  0  0  0  0  0  0  0
    4.2393   -5.2990    0.7726 C   0  0  0  0  0  0  0  0  0  0  0  0
    3.5774    1.2532    0.5187 C   0  0  0  0  0  0  0  0  0  0  0  0
    4.9656    1.2814    0.5420 C   0  0  0  0  0  0  0  0  0  0  0  0
    7.7421   -1.1869   -2.6008 C   0  0  0  0  0  0  0  0  0  0  0  0
    1.9445   -5.5009    0.2945 C   0  0  0  0  0  0  0  0  0  0  0  0
    3.1117   -6.0847    0.7265 C   0  0  0  0  0  0  0  0  0  0  0  0
    6.2851   -0.2556   -3.8157 H   0  0  0  0  0  0  0  0  0  0  0  0
    7.2084    0.7422   -2.7934 H   0  0  0  0  0  0  0  0  0  0  0  0
    2.7349   -1.3967   -3.0757 H   0  0  0  0  0  0  0  0  0  0  0  0
    1.7601   -2.0093   -1.0355 H   0  0  0  0  0  0  0  0  0  0  0  0
    1.2646   -3.3794   -3.5049 H   0  0  0  0  0  0  0  0  0  0  0  0
    2.6739   -3.3150   -4.5458 H   0  0  0  0  0  0  0  0  0  0  0  0
    4.4039   -2.3554   -4.0605 H   0  0  0  0  0  0  0  0  0  0  0  0
    5.0047   -1.7266   -2.6460 H   0  0  0  0  0  0  0  0  0  0  0  0
    2.5997   -5.1835   -2.1833 H   0  0  0  0  0  0  0  0  0  0  0  0
    2.3033   -5.6887   -3.8256 H   0  0  0  0  0  0  0  0  0  0  0  0
    5.8839   -4.2133   -2.7630 H   0  0  0  0  0  0  0  0  0  0  0  0
    4.7643   -4.3613   -1.6080 H   0  0  0  0  0  0  0  0  0  0  0  0
    8.2222   -5.7160   -4.9760 H   0  0  0  0  0  0  0  0  0  0  0  0
    6.7257   -6.4195   -2.7127 H   0  0  0  0  0  0  0  0  0  0  0  0
    6.7975   -7.1097   -4.2755 H   0  0  0  0  0  0  0  0  0  0  0  0
    8.8224   -5.5671   -2.5181 H   0  0  0  0  0  0  0  0  0  0  0  0
    9.4719   -4.2627   -3.5299 H   0  0  0  0  0  0  0  0  0  0  0  0
    8.1097   -3.5232   -5.7061 H   0  0  0  0  0  0  0  0  0  0  0  0
    6.4622   -4.1650   -5.8681 H   0  0  0  0  0  0  0  0  0  0  0  0
    7.1831   -4.1440   -1.6514 H   0  0  0  0  0  0  0  0  0  0  0  0
    8.5964   -3.3036   -1.4039 H   0  0  0  0  0  0  0  0  0  0  0  0
    6.5212   -1.8384   -4.8935 H   0  0  0  0  0  0  0  0  0  0  0  0
    5.8661   -3.1877   -4.2208 H   0  0  0  0  0  0  0  0  0  0  0  0
    5.8086   -2.5399   -1.3307 H   0  0  0  0  0  0  0  0  0  0  0  0
    6.8998   -1.8991   -0.2592 H   0  0  0  0  0  0  0  0  0  0  0  0
    6.2808   -4.0554    0.2160 H   0  0  0  0  0  0  0  0  0  0  0  0
    5.8281   -3.0568    1.5675 H   0  0  0  0  0  0  0  0  0  0  0  0
    6.7582    0.1805    0.1342 H   0  0  0  0  0  0  0  0  0  0  0  0
    5.2040   -5.7555    0.9951 H   0  0  0  0  0  0  0  0  0  0  0  0
    3.0327    2.0867    0.9455 H   0  0  0  0  0  0  0  0  0  0  0  0
    1.0188   -6.0610    0.2396 H   0  0  0  0  0  0  0  0  0  0  0  0
  1 29  1  0  0  0  0
  2 36  1  0  0  0  0
  3 33  1  0  0  0  0
  4 20  2  0  0  0  0
  5 34  2  0  0  0  0
  6 14  1  0  0  0  0
  6 15  1  0  0  0  0
  6 20  1  0  0  0  0
  7 25  1  0  0  0  0
  7 26  1  0  0  0  0
  7 34  1  0  0  0  0
  8 18  1  0  0  0  0
  8 35  2  0  0  0  0
  9 34  1  0  0  0  0
  9 37  1  0  0  0  0
  9 38  1  0  0  0  0
 10 12  1  0  0  0  0
 10 13  1  0  0  0  0
 10 39  1  0  0  0  0
 11 10  1  0  0  0  0
 11 17  1  0  0  0  0
 11 18  1  0  0  0  0
 11 40  1  1  0  0  0
 12 14  1  0  0  0  0
 12 41  1  0  0  0  0
 12 42  1  0  0  0  0
 13 15  1  0  0  0  0
 13 43  1  0  0  0  0
 13 44  1  0  0  0  0
 14 45  1  0  0  0  0
 14 46  1  0  0  0  0
 15 47  1  0  0  0  0
 15 48  1  0  0  0  0
 16 19  1  0  0  0  0
 16 21  1  0  0  0  0
 16 22  1  0  0  0  0
 16 49  1  0  0  0  0
 17 23  2  0  0  0  0
 17 29  1  0  0  0  0
 18 24  2  0  0  0  0
 19 20  1  0  0  0  0
 19 50  1  0  0  0  0
 19 51  1  0  0  0  0
 21 25  1  0  0  0  0
 21 52  1  0  0  0  0
 21 53  1  0  0  0  0
 22 26  1  0  0  0  0
 22 54  1  0  0  0  0
 22 55  1  0  0  0  0
 23 27  1  0  0  0  0
 23 30  1  0  0  0  0
 24 28  1  0  0  0  0
 24 31  1  0  0  0  0
 25 56  1  0  0  0  0
 25 57  1  0  0  0  0
 26 58  1  0  0  0  0
 26 59  1  0  0  0  0
 27 28  1  0  0  0  0
 27 60  1  0  0  0  0
 27 61  1  0  0  0  0
 28 62  1  0  0  0  0
 28 63  1  0  0  0  0
 29 32  2  0  0  0  0
 30 33  2  0  0  0  0
 30 64  1  0  0  0  0
 31 36  2  0  0  0  0
 31 65  1  0  0  0  0
 32 33  1  0  0  0  0
 32 66  1  0  0  0  0
 35 36  1  0  0  0  0
 35 67  1  0  0  0  0
M  END
>  <DRUGBANK_ID>
DB06448

>  <COMMON_NAME>
Lonafarnib

>  <CAS_NUMBER>
193275-84-2

>  <UNII>
IOW153004F

>  <SYNONYMS>
Lonafarnib; Lonafarnibum

$$$$
