
 OpenBabel10282417163D

 51 54  0  0  1  0  0  0  0  0999 V2000
   -1.1468   -1.8216    1.7318 C   0  0  0  0  0  0  0  0  0  0  0  0
   -1.1816   -3.1612    1.0474 C   0  0  0  0  0  0  0  0  0  0  0  0
   -2.5155   -2.3324    2.9027 C   0  0  0  0  0  0  0  0  0  0  0  0
   -2.2954   -3.8283    0.7130 C   0  0  0  0  0  0  0  0  0  0  0  0
   -3.6949   -3.4432    2.5247 C   0  0  0  0  0  0  0  0  0  0  0  0
   -3.5060   -3.1058    1.1212 C   0  0  0  0  0  0  0  0  0  0  0  0
    1.3282   -1.4491    0.7360 C   0  0  2  0  0  0  0  0  0  0  0  0
    1.2533   -3.0147    0.7433 C   0  0  0  0  0  0  0  0  0  0  0  0
   -0.2903   -0.9983    0.8405 C   0  0  0  0  0  0  0  0  0  0  0  0
   -0.0397   -3.7093    0.3324 C   0  0  0  0  0  0  0  0  0  0  0  0
    2.1405   -0.3692   -1.7920 C   0  0  2  0  0  0  0  0  0  0  0  0
    2.5480   -0.8051   -0.4164 C   0  0  1  0  0  0  0  0  0  0  0  0
    0.7865    0.5488   -1.0460 C   0  0  0  0  0  0  0  0  0  0  0  0
   -0.1714    0.2894   -0.0305 C   0  0  0  0  0  0  0  0  0  0  0  0
    2.6001   -2.0765   -2.6663 C   0  0  1  0  0  0  0  0  0  0  0  0
    3.7619   -2.5304   -1.4559 C   0  0  0  0  0  0  0  0  0  0  0  0
    4.0107   -1.2603   -0.7167 C   0  0  0  0  0  0  0  0  0  0  0  0
    2.8391    0.7693   -2.6722 C   0  0  0  0  0  0  0  0  0  0  0  0
    2.1489   -1.7129   -0.7597 H   0  0  0  0  0  0  0  0  0  0  0  0
    1.7792   -1.0553    1.6511 H   0  0  0  0  0  0  0  0  0  0  0  0
   -3.9386   -2.1099    0.6418 O   0  0  0  0  0  0  0  0  0  0  0  0
    1.1371   -2.4334   -3.2015 C   0  0  0  0  0  0  0  0  0  0  0  0
    2.5772   -3.6389   -2.4493 O   0  0  0  0  0  0  0  0  0  0  0  0
    1.9763    0.8749   -3.9312 C   0  0  0  0  0  0  0  0  0  0  0  0
    0.1868   -2.0745   -2.1586 C   0  0  0  0  0  0  0  0  0  0  0  0
   -3.1211   -1.5822    3.4249 H   0  0  0  0  0  0  0  0  0  0  0  0
   -1.9970   -2.8453    3.7499 H   0  0  0  0  0  0  0  0  0  0  0  0
   -2.1982   -4.9034    0.8299 H   0  0  0  0  0  0  0  0  0  0  0  0
   -4.7686   -3.2788    2.7085 H   0  0  0  0  0  0  0  0  0  0  0  0
   -3.5036   -4.5228    2.7194 H   0  0  0  0  0  0  0  0  0  0  0  0
    1.5119   -3.3261    1.7494 H   0  0  0  0  0  0  0  0  0  0  0  0
    1.9555   -3.4942    0.0928 H   0  0  0  0  0  0  0  0  0  0  0  0
    0.0969   -4.7886    0.3682 H   0  0  0  0  0  0  0  0  0  0  0  0
   -0.4375   -3.6888   -0.6938 H   0  0  0  0  0  0  0  0  0  0  0  0
    0.7977    1.5910   -1.4098 H   0  0  0  0  0  0  0  0  0  0  0  0
   -0.9368    1.0662    0.0809 H   0  0  0  0  0  0  0  0  0  0  0  0
    4.6473   -3.0580   -1.8363 H   0  0  0  0  0  0  0  0  0  0  0  0
    3.4516   -3.2429   -0.6684 H   0  0  0  0  0  0  0  0  0  0  0  0
    4.5505   -0.7198   -1.5125 H   0  0  0  0  0  0  0  0  0  0  0  0
    4.6655   -1.3055    0.1432 H   0  0  0  0  0  0  0  0  0  0  0  0
    2.8521    1.7714   -2.2072 H   0  0  0  0  0  0  0  0  0  0  0  0
    3.8899    0.5925   -2.9459 H   0  0  0  0  0  0  0  0  0  0  0  0
    0.9198   -2.0097   -4.1680 H   0  0  0  0  0  0  0  0  0  0  0  0
    0.8672   -3.5115   -3.3275 H   0  0  0  0  0  0  0  0  0  0  0  0
    2.7587   -4.1308   -3.2795 H   0  0  0  0  0  0  0  0  0  0  0  0
    1.0322    1.3774   -3.6954 H   0  0  0  0  0  0  0  0  0  0  0  0
    2.4464    1.3984   -4.7663 H   0  0  0  0  0  0  0  0  0  0  0  0
    1.7280   -0.1248   -4.2740 H   0  0  0  0  0  0  0  0  0  0  0  0
    0.4659   -1.3282   -1.5124 H   0  0  0  0  0  0  0  0  0  0  0  0
   -0.8200   -1.7218   -2.2908 H   0  0  0  0  0  0  0  0  0  0  0  0
    0.5428   -2.7903   -1.4744 H   0  0  0  0  0  0  0  0  0  0  0  0
  1  9  2  0  0  0  0
  2 10  1  0  0  0  0
  2  1  1  0  0  0  0
  3  1  1  0  0  0  0
  3 26  1  0  0  0  0
  3 27  1  0  0  0  0
  4  2  2  0  0  0  0
  4 28  1  0  0  0  0
  5  3  1  0  0  0  0
  5 29  1  0  0  0  0
  5 30  1  0  0  0  0
  6  4  1  0  0  0  0
  6  5  1  0  0  0  0
  6 21  2  0  0  0  0
  7 12  1  0  0  0  0
  7 20  1  1  0  0  0
  8  7  1  0  0  0  0
  8 31  1  0  0  0  0
  8 32  1  0  0  0  0
  9  7  1  0  0  0  0
  9 14  1  0  0  0  0
 10  8  1  0  0  0  0
 10 33  1  0  0  0  0
 10 34  1  0  0  0  0
 11 18  1  6  0  0  0
 12 11  1  0  0  0  0
 12 19  1  6  0  0  0
 13 11  1  0  0  0  0
 13 35  1  0  0  0  0
 14 13  2  0  0  0  0
 14 36  1  0  0  0  0
 15 11  1  0  0  0  0
 15 23  1  6  0  0  0
 15 22  1  0  0  0  0
 16 15  1  0  0  0  0
 16 37  1  0  0  0  0
 16 38  1  0  0  0  0
 17 12  1  0  0  0  0
 17 16  1  0  0  0  0
 17 39  1  0  0  0  0
 17 40  1  0  0  0  0
 18 24  1  0  0  0  0
 18 41  1  0  0  0  0
 18 42  1  0  0  0  0
 22 25  1  0  0  0  0
 22 43  1  0  0  0  0
 22 44  1  0  0  0  0
 23 45  1  0  0  0  0
 24 46  1  0  0  0  0
 24 47  1  0  0  0  0
 24 48  1  0  0  0  0
 25 49  1  0  0  0  0
 25 50  1  0  0  0  0
 25 51  1  0  0  0  0
M  END
>  <DRUGBANK_ID>
DB06870

>  <COMMON_NAME>
Tetrahydrogestrinone

>  <CAS_NUMBER>
618903-56-3

>  <UNII>
643MR6L9LB

$$$$
