
 OpenBabel10282417183D

 81 86  0  0  0  0  0  0  0  0999 V2000
    1.0585    1.7692   -1.9384 C   0  0  0  0  0  0  0  0  0  0  0  0
    0.6992    2.9911   -3.8459 N   0  0  0  0  0  0  0  0  0  0  0  0
    0.7229    5.0816   -5.4996 C   0  0  0  0  0  0  0  0  0  0  0  0
    0.6819    6.8745   -7.2581 C   0  0  0  0  0  0  0  0  0  0  0  0
    0.7395    8.8345   -8.3047 O   0  0  0  0  0  0  0  0  0  0  0  0
   -0.0917   10.6697   -8.7296 C   0  0  0  0  0  0  0  0  0  0  0  0
   -1.6085   10.7335   -9.2349 C   0  0  0  0  0  0  0  0  0  0  0  0
   -2.0009    9.3219   -9.0223 N   0  0  0  0  0  0  0  0  0  0  0  0
   -1.7840    8.9641   -7.2551 S   0  0  0  0  0  0  0  0  0  0  0  0
   -2.7520    9.7609   -6.5529 O   0  0  0  0  0  0  0  0  0  0  0  0
   -0.4387    9.2281   -6.7984 O   0  0  0  0  0  0  0  0  0  0  0  0
   -2.1542    7.2294   -7.1729 N   0  0  0  0  0  0  0  0  0  0  0  0
   -1.3376    6.3032   -6.5382 C   0  0  0  0  0  0  0  0  0  0  0  0
   -0.5434    6.9405   -5.8791 O   0  0  0  0  0  0  0  0  0  0  0  0
   -1.4636    4.6737   -6.3258 C   0  0  0  0  0  0  0  0  0  0  0  0
   -0.6277    3.8232   -5.9537 C   0  0  0  0  0  0  0  0  0  0  0  0
   -0.5569    2.4386   -5.6281 C   0  0  0  0  0  0  0  0  0  0  0  0
    0.4845    1.8224   -5.4151 C   0  0  0  0  0  0  0  0  0  0  0  0
   -0.8065    1.5566   -5.4975 C   0  0  0  0  0  0  0  0  0  0  0  0
   -1.8422    3.3353   -6.2203 C   0  0  0  0  0  0  0  0  0  0  0  0
    0.6057    0.3145   -4.8937 N   0  0  0  0  0  0  0  0  0  0  0  0
    2.1466    0.9529   -4.5023 C   0  0  0  0  0  0  0  0  0  0  0  0
    1.7964    2.0034   -5.1399 C   0  0  0  0  0  0  0  0  0  0  0  0
    2.2637    3.4904   -4.9184 C   0  0  0  0  0  0  0  0  0  0  0  0
    1.3790    4.5724   -3.7642 C   0  0  0  0  0  0  0  0  0  0  0  0
    1.8076    5.8588   -3.7473 C   0  0  0  0  0  0  0  0  0  0  0  0
    2.1114    6.4783   -5.0101 C   0  0  0  0  0  0  0  0  0  0  0  0
    2.8281    5.5540   -6.0993 C   0  0  0  0  0  0  0  0  0  0  0  0
    2.3598    4.1024   -6.2581 C   0  0  0  0  0  0  0  0  0  0  0  0
    3.4628    0.7772   -3.9104 C   0  0  0  0  0  0  0  0  0  0  0  0
    4.4405    1.5592   -4.5417 C   0  0  0  0  0  0  0  0  0  0  0  0
    5.7633    1.4602   -4.2029 C   0  0  0  0  0  0  0  0  0  0  0  0
    6.1620    0.5731   -3.2212 C   0  0  0  0  0  0  0  0  0  0  0  0
    5.1896   -0.1815   -2.5531 C   0  0  0  0  0  0  0  0  0  0  0  0
    3.8419   -0.0621   -2.8772 C   0  0  0  0  0  0  0  0  0  0  0  0
    2.9085   -0.8484   -2.1286 C   0  0  0  0  0  0  0  0  0  0  0  0
    1.6928   -0.8410   -2.7469 C   0  0  0  0  0  0  0  0  0  0  0  0
    1.2935   -1.3063   -4.1576 C   0  0  0  0  0  0  0  0  0  0  0  0
    0.7535    1.0373   -2.9709 C   0  0  0  0  0  0  0  0  0  0  0  0
    0.4097   -0.5276   -2.4465 O   0  0  0  0  0  0  0  0  0  0  0  0
    7.4812    0.4030   -2.8675 O   0  0  0  0  0  0  0  0  0  0  0  0
    8.4670    1.1838   -3.5571 C   0  0  0  0  0  0  0  0  0  0  0  0
   -1.2827    8.3890  -10.0132 C   0  0  0  0  0  0  0  0  0  0  0  0
    0.8717    0.9734   -0.4099 H   0  0  0  0  0  0  0  0  0  0  0  0
    0.2831    0.7343   -1.0109 H   0  0  0  0  0  0  0  0  0  0  0  0
    1.8020    0.6290   -0.8564 H   0  0  0  0  0  0  0  0  0  0  0  0
    0.5730    5.8200   -6.8982 H   0  0  0  0  0  0  0  0  0  0  0  0
    1.2309    6.3384   -6.3969 H   0  0  0  0  0  0  0  0  0  0  0  0
   -0.0578    8.0597   -8.2218 H   0  0  0  0  0  0  0  0  0  0  0  0
    1.1137    7.5397   -8.7703 H   0  0  0  0  0  0  0  0  0  0  0  0
    0.1129   12.0239   -8.9476 H   0  0  0  0  0  0  0  0  0  0  0  0
   -0.0878   10.8892   -7.7141 H   0  0  0  0  0  0  0  0  0  0  0  0
   -1.7283   11.0466  -10.2894 H   0  0  0  0  0  0  0  0  0  0  0  0
   -2.2996   11.3966   -8.6630 H   0  0  0  0  0  0  0  0  0  0  0  0
   -3.0653    6.9148   -7.3794 H   0  0  0  0  0  0  0  0  0  0  0  0
    0.3270    3.6544   -5.6428 H   0  0  0  0  0  0  0  0  0  0  0  0
   -2.0711    1.9117   -5.9784 H   0  0  0  0  0  0  0  0  0  0  0  0
   -2.9578    4.2163   -6.7699 H   0  0  0  0  0  0  0  0  0  0  0  0
    3.1618    3.4297   -4.4581 H   0  0  0  0  0  0  0  0  0  0  0  0
    0.1631    4.4820   -4.0878 H   0  0  0  0  0  0  0  0  0  0  0  0
    1.2488    4.0837   -2.7906 H   0  0  0  0  0  0  0  0  0  0  0  0
    1.0252    6.3541   -3.2227 H   0  0  0  0  0  0  0  0  0  0  0  0
    2.7286    5.7423   -3.3201 H   0  0  0  0  0  0  0  0  0  0  0  0
    1.0752    6.7785   -5.1646 H   0  0  0  0  0  0  0  0  0  0  0  0
    2.3511    7.4717   -5.0751 H   0  0  0  0  0  0  0  0  0  0  0  0
    2.7779    5.9919   -7.0993 H   0  0  0  0  0  0  0  0  0  0  0  0
    3.7865    5.5393   -5.6955 H   0  0  0  0  0  0  0  0  0  0  0  0
    2.9876    3.5201   -6.8273 H   0  0  0  0  0  0  0  0  0  0  0  0
    1.4016    4.0611   -6.8449 H   0  0  0  0  0  0  0  0  0  0  0  0
    4.1605    2.2534   -5.3318 H   0  0  0  0  0  0  0  0  0  0  0  0
    6.4804    2.0701   -4.7229 H   0  0  0  0  0  0  0  0  0  0  0  0
    5.4793   -0.8846   -1.7815 H   0  0  0  0  0  0  0  0  0  0  0  0
    3.0425   -0.9295   -1.0501 H   0  0  0  0  0  0  0  0  0  0  0  0
    2.2215   -1.8493   -4.6028 H   0  0  0  0  0  0  0  0  0  0  0  0
    0.5088   -2.0458   -4.1562 H   0  0  0  0  0  0  0  0  0  0  0  0
    8.4540    0.9650   -4.6232 H   0  0  0  0  0  0  0  0  0  0  0  0
    8.2926    2.2466   -3.4007 H   0  0  0  0  0  0  0  0  0  0  0  0
    9.4627    0.9437   -3.1738 H   0  0  0  0  0  0  0  0  0  0  0  0
   -0.1327    8.2433   -9.9529 H   0  0  0  0  0  0  0  0  0  0  0  0
   -1.2907    7.3751   -9.7016 H   0  0  0  0  0  0  0  0  0  0  0  0
   -1.1350    8.8247  -10.9747 H   0  0  0  0  0  0  0  0  0  0  0  0
  1  2  1  0  0  0  0
  1 44  1  0  0  0  0
  1 45  1  0  0  0  0
  1 46  1  0  0  0  0
  2  3  1  0  0  0  0
  2 39  1  0  0  0  0
  3  4  1  0  0  0  0
  3 47  1  0  0  0  0
  3 48  1  0  0  0  0
  4  5  1  0  0  0  0
  4 49  1  0  0  0  0
  4 50  1  0  0  0  0
  5  6  1  0  0  0  0
  6  7  1  0  0  0  0
  6 51  1  0  0  0  0
  6 52  1  0  0  0  0
  7  8  1  0  0  0  0
  7 53  1  0  0  0  0
  7 54  1  0  0  0  0
  8  9  1  0  0  0  0
  8 43  1  0  0  0  0
  9 10  2  0  0  0  0
  9 11  2  0  0  0  0
  9 12  1  0  0  0  0
 12 13  1  0  0  0  0
 12 55  1  0  0  0  0
 13 14  2  0  0  0  0
 13 15  1  0  0  0  0
 15 16  2  0  0  0  0
 15 20  1  0  0  0  0
 16 17  1  0  0  0  0
 16 56  1  0  0  0  0
 17 18  2  0  0  0  0
 17 57  1  0  0  0  0
 18 19  1  0  0  0  0
 18 23  1  0  0  0  0
 19 20  2  0  0  0  0
 19 21  1  0  0  0  0
 20 58  1  0  0  0  0
 21 22  1  0  0  0  0
 21 38  1  0  0  0  0
 22 23  2  0  0  0  0
 22 30  1  0  0  0  0
 23 24  1  0  0  0  0
 24 25  1  0  0  0  0
 24 29  1  0  0  0  0
 24 59  1  0  0  0  0
 25 26  1  0  0  0  0
 25 60  1  0  0  0  0
 25 61  1  0  0  0  0
 26 27  1  0  0  0  0
 26 62  1  0  0  0  0
 26 63  1  0  0  0  0
 27 28  1  0  0  0  0
 27 64  1  0  0  0  0
 27 65  1  0  0  0  0
 28 29  1  0  0  0  0
 28 66  1  0  0  0  0
 28 67  1  0  0  0  0
 29 68  1  0  0  0  0
 29 69  1  0  0  0  0
 30 31  2  0  0  0  0
 30 35  1  0  0  0  0
 31 32  1  0  0  0  0
 31 70  1  0  0  0  0
 32 33  2  0  0  0  0
 32 71  1  0  0  0  0
 33 34  1  0  0  0  0
 33 41  1  0  0  0  0
 34 35  2  0  0  0  0
 34 72  1  0  0  0  0
 35 36  1  0  0  0  0
 36 37  2  0  0  0  0
 36 73  1  0  0  0  0
 37 38  1  0  0  0  0
 37 39  1  0  0  0  0
 38 74  1  0  0  0  0
 38 75  1  0  0  0  0
 39 40  2  0  0  0  0
 41 42  1  0  0  0  0
 42 76  1  0  0  0  0
 42 77  1  0  0  0  0
 42 78  1  0  0  0  0
 43 79  1  0  0  0  0
 43 80  1  0  0  0  0
 43 81  1  0  0  0  0
M  END
>  <DRUGBANK_ID>
DB11822

>  <COMMON_NAME>
TMC-647055

>  <CAS_NUMBER>
1204416-97-6

>  <UNII>
11BD024G7J

$$$$
