
 OpenBabel10282417133D

 23 23  0  0  0  0  0  0  0  0999 V2000
    0.7228    1.1674   -0.2379 O   0  0  0  0  0  0  0  0  0  0  0  0
    1.4210   -0.0009    0.2145 C   0  0  1  0  0  0  0  0  0  0  0  0
   -0.6262    1.2397    0.2237 C   0  0  2  0  0  0  0  0  0  0  0  0
   -1.4578    0.0198   -0.2093 C   0  0  1  0  0  0  0  0  0  0  0  0
   -0.7352   -1.2588    0.2337 C   0  0  2  0  0  0  0  0  0  0  0  0
    0.7050   -1.2702   -0.2782 C   0  0  1  0  0  0  0  0  0  0  0  0
   -1.2166    2.4157   -0.3132 O   0  0  0  0  0  0  0  0  0  0  0  0
   -2.7745    0.0893    0.3579 O   0  0  0  0  0  0  0  0  0  0  0  0
   -1.4487   -2.4079   -0.2304 O   0  0  0  0  0  0  0  0  0  0  0  0
    0.6786   -1.3409   -1.7134 O   0  0  0  0  0  0  0  0  0  0  0  0
    2.8497    0.0570   -0.3141 C   0  0  0  0  0  0  0  0  0  0  0  0
    1.4533    0.0171    1.3117 H   0  0  0  0  0  0  0  0  0  0  0  0
   -0.6336    1.3301    1.3183 H   0  0  0  0  0  0  0  0  0  0  0  0
   -1.5882    0.0246   -1.2996 H   0  0  0  0  0  0  0  0  0  0  0  0
   -0.7359   -1.3195    1.3286 H   0  0  0  0  0  0  0  0  0  0  0  0
    1.2236   -2.1691    0.0720 H   0  0  0  0  0  0  0  0  0  0  0  0
   -1.5765    2.9167    0.4387 H   0  0  0  0  0  0  0  0  0  0  0  0
   -2.8413   -0.5937    1.0522 H   0  0  0  0  0  0  0  0  0  0  0  0
   -1.3638   -2.4078   -1.2049 H   0  0  0  0  0  0  0  0  0  0  0  0
    0.5281   -0.4377   -2.0552 H   0  0  0  0  0  0  0  0  0  0  0  0
    3.3603    0.9580    0.0411 H   0  0  0  0  0  0  0  0  0  0  0  0
    3.4191   -0.8184    0.0148 H   0  0  0  0  0  0  0  0  0  0  0  0
    2.8706    0.0953   -1.4084 H   0  0  0  0  0  0  0  0  0  0  0  0
  1  2  1  0  0  0  0
  2 11  1  0  0  0  0
  2  6  1  0  0  0  0
  2 12  1  1  0  0  0
  3  1  1  0  0  0  0
  3  4  1  0  0  0  0
  3 13  1  1  0  0  0
  3  7  1  0  0  0  0
  4  5  1  0  0  0  0
  4 14  1  6  0  0  0
  4  8  1  0  0  0  0
  5  9  1  0  0  0  0
  5  6  1  0  0  0  0
  5 15  1  1  0  0  0
  6 10  1  0  0  0  0
  6 16  1  1  0  0  0
  7 17  1  0  0  0  0
  8 18  1  0  0  0  0
  9 19  1  0  0  0  0
 10 20  1  0  0  0  0
 11 21  1  0  0  0  0
 11 22  1  0  0  0  0
 11 23  1  0  0  0  0
M  END
>  <DRUGBANK_ID>
DB04062

>  <SECONDARY_ACCESSION_NUMBERS>
EXPT01401

>  <COMMON_NAME>
beta-D-fucose

>  <CAS_NUMBER>
28161-52-6

>  <UNII>
ZU9GS9H79G

>  <SYNONYMS>
β-D-Fuc; β-D-fucose

$$$$
