
 OpenBabel10282417203D

 30 31  0  0  0  0  0  0  0  0999 V2000
    1.0331    0.0519    0.0857 C   0  0  0  0  0  0  0  0  0  0  0  0
    0.3981   -0.1652    1.7708 S   0  0  0  0  0  0  0  0  0  0  0  0
    1.0462   -1.8313    2.1975 C   0  0  0  0  0  0  0  0  0  0  0  0
    0.4524   -2.9553    1.3353 C   0  0  3  0  0  0  0  0  0  0  0  0
   -0.1569   -4.0781    2.1651 C   0  0  0  0  0  0  0  0  0  0  0  0
    0.7869   -5.1520    2.0273 N   0  0  0  0  0  0  0  0  0  0  0  0
    1.6804   -4.8695    1.0088 C   0  0  0  0  0  0  0  0  0  0  0  0
    2.5381   -5.6044    0.5329 O   0  0  0  0  0  0  0  0  0  0  0  0
    1.4896   -3.5893    0.5597 O   0  0  0  0  0  0  0  0  0  0  0  0
    0.6887   -6.2941    2.8031 N   0  0  0  0  0  0  0  0  0  0  0  0
    1.6160   -7.2089    2.7468 C   0  0  0  0  0  0  0  0  0  0  0  0
    1.5071   -8.4049    3.5615 C   0  0  0  0  0  0  0  0  0  0  0  0
    0.3781   -9.1256    3.9059 C   0  0  0  0  0  0  0  0  0  0  0  0
    0.7877  -10.1958    4.7273 C   0  0  0  0  0  0  0  0  0  0  0  0
    2.1499  -10.0735    4.8479 C   0  0  0  0  0  0  0  0  0  0  0  0
    2.6242   -9.0079    4.1227 O   0  0  0  0  0  0  0  0  0  0  0  0
    3.0642  -10.8820    5.6060 N   0  3  0  0  0  0  0  0  0  0  0  0
    4.2657  -10.5937    5.5922 O   0  0  0  0  0  0  0  0  0  0  0  0
    2.5546  -11.8237    6.2344 O   0  5  0  0  0  0  0  0  0  0  0  0
    0.6869    1.0238   -0.2816 H   0  0  0  0  0  0  0  0  0  0  0  0
    0.6514   -0.7133   -0.5944 H   0  0  0  0  0  0  0  0  0  0  0  0
    2.1254    0.0550    0.0750 H   0  0  0  0  0  0  0  0  0  0  0  0
    2.1411   -1.8162    2.1805 H   0  0  0  0  0  0  0  0  0  0  0  0
    0.7461   -1.9611    3.2425 H   0  0  0  0  0  0  0  0  0  0  0  0
   -0.2810   -2.5664    0.6206 H   0  0  0  0  0  0  0  0  0  0  0  0
   -1.1246   -4.3755    1.7436 H   0  0  0  0  0  0  0  0  0  0  0  0
   -0.3102   -3.8180    3.2165 H   0  0  0  0  0  0  0  0  0  0  0  0
    2.5012   -7.1590    2.0985 H   0  0  0  0  0  0  0  0  0  0  0  0
   -0.6231   -8.8922    3.5745 H   0  0  0  0  0  0  0  0  0  0  0  0
    0.1762  -10.9598    5.1859 H   0  0  0  0  0  0  0  0  0  0  0  0
  1  2  1  0  0  0  0
  1 20  1  0  0  0  0
  1 21  1  0  0  0  0
  1 22  1  0  0  0  0
  2  3  1  0  0  0  0
  3  4  1  0  0  0  0
  3 23  1  0  0  0  0
  3 24  1  0  0  0  0
  4  5  1  0  0  0  0
  4  9  1  0  0  0  0
  4 25  1  0  0  0  0
  5  6  1  0  0  0  0
  5 26  1  0  0  0  0
  5 27  1  0  0  0  0
  6  7  1  0  0  0  0
  6 10  1  0  0  0  0
  7  8  2  0  0  0  0
  7  9  1  0  0  0  0
 10 11  2  0  0  0  0
 11 12  1  0  0  0  0
 11 28  1  0  0  0  0
 12 13  2  0  0  0  0
 12 16  1  0  0  0  0
 13 14  1  0  0  0  0
 13 29  1  0  0  0  0
 14 15  2  0  0  0  0
 14 30  1  0  0  0  0
 15 16  1  0  0  0  0
 15 17  1  0  0  0  0
 17 18  2  0  0  0  0
 17 19  1  0  0  0  0
M  CHG  2  17   1  19  -1
M  END
>  <DRUGBANK_ID>
DB13724

>  <COMMON_NAME>
Nifuratel

>  <CAS_NUMBER>
4936-47-4

>  <UNII>
U60U6P08SP

>  <SYNONYMS>
Nifuratel

$$$$
