
 OpenBabel10282417143D

 41 43  0  0  0  0  0  0  0  0999 V2000
   -2.9878    4.1269    4.7338 Cl  0  0  0  0  0  0  0  0  0  0  0  0
   -4.3664    6.9151    5.7013 Cl  0  0  0  0  0  0  0  0  0  0  0  0
   -9.3355    4.6131    1.8472 O   0  0  0  0  0  0  0  0  0  0  0  0
   -4.8057    2.3973   -1.5327 N   0  0  0  0  0  0  0  0  0  0  0  0
   -7.9512    4.5010    1.6719 N   0  0  0  0  0  0  0  0  0  0  0  0
   -6.1758    2.6156   -1.0408 C   0  0  1  0  0  0  0  0  0  0  0  0
   -4.3446    3.7352   -1.9140 C   0  0  2  0  0  0  0  0  0  0  0  0
   -6.2298    3.4112    0.2858 C   0  0  1  0  0  0  0  0  0  0  0  0
   -5.4353    4.7405    0.1740 C   0  0  2  0  0  0  0  0  0  0  0  0
   -4.1613    4.6401   -0.6902 C   0  0  0  0  0  0  0  0  0  0  0  0
   -6.7289    3.4290   -2.2228 C   0  0  0  0  0  0  0  0  0  0  0  0
   -5.5204    4.1904   -2.7806 C   0  0  0  0  0  0  0  0  0  0  0  0
   -5.0818    5.2951    1.5402 C   0  0  0  0  0  0  0  0  0  0  0  0
   -3.9039    1.6548   -0.6702 C   0  0  0  0  0  0  0  0  0  0  0  0
   -7.6785    3.6834    0.7008 C   0  0  0  0  0  0  0  0  0  0  0  0
   -4.2705    4.5752    2.4310 C   0  0  0  0  0  0  0  0  0  0  0  0
   -5.6336    6.5139    1.9477 C   0  0  0  0  0  0  0  0  0  0  0  0
   -4.0199    5.0625    3.7126 C   0  0  0  0  0  0  0  0  0  0  0  0
   -5.4053    6.9899    3.2351 C   0  0  0  0  0  0  0  0  0  0  0  0
   -4.5996    6.2671    4.1190 C   0  0  0  0  0  0  0  0  0  0  0  0
   -9.5765    5.5473    2.9011 C   0  0  0  0  0  0  0  0  0  0  0  0
   -6.7193    1.6690   -0.9400 H   0  0  0  0  0  0  0  0  0  0  0  0
   -3.4184    3.7056   -2.4985 H   0  0  0  0  0  0  0  0  0  0  0  0
   -5.8169    2.7699    1.0749 H   0  0  0  0  0  0  0  0  0  0  0  0
   -6.0917    5.4688   -0.3262 H   0  0  0  0  0  0  0  0  0  0  0  0
   -3.3106    4.2745   -0.1028 H   0  0  0  0  0  0  0  0  0  0  0  0
   -3.8716    5.6491   -1.0132 H   0  0  0  0  0  0  0  0  0  0  0  0
   -7.1244    2.7579   -2.9951 H   0  0  0  0  0  0  0  0  0  0  0  0
   -7.5344    4.1134   -1.9407 H   0  0  0  0  0  0  0  0  0  0  0  0
   -5.6746    5.2741   -2.7505 H   0  0  0  0  0  0  0  0  0  0  0  0
   -5.3605    3.9059   -3.8273 H   0  0  0  0  0  0  0  0  0  0  0  0
   -3.7398    2.1128    0.3081 H   0  0  0  0  0  0  0  0  0  0  0  0
   -4.2818    0.6412   -0.5053 H   0  0  0  0  0  0  0  0  0  0  0  0
   -2.9247    1.5521   -1.1532 H   0  0  0  0  0  0  0  0  0  0  0  0
   -8.4795    3.1431    0.1703 H   0  0  0  0  0  0  0  0  0  0  0  0
   -3.8460    3.6194    2.1329 H   0  0  0  0  0  0  0  0  0  0  0  0
   -6.2909    7.0685    1.2799 H   0  0  0  0  0  0  0  0  0  0  0  0
   -5.8749    7.9190    3.5441 H   0  0  0  0  0  0  0  0  0  0  0  0
   -9.1222    5.1993    3.8345 H   0  0  0  0  0  0  0  0  0  0  0  0
   -9.1822    6.5360    2.6415 H   0  0  0  0  0  0  0  0  0  0  0  0
  -10.6567    5.6329    3.0489 H   0  0  0  0  0  0  0  0  0  0  0  0
  1 18  1  0  0  0  0
  2 20  1  0  0  0  0
  3  5  1  0  0  0  0
  3 21  1  0  0  0  0
  4  6  1  0  0  0  0
  4  7  1  0  0  0  0
  4 14  1  0  0  0  0
  5 15  2  0  0  0  0
  6  8  1  0  0  0  0
  6 11  1  0  0  0  0
  6 22  1  1  0  0  0
  7 10  1  0  0  0  0
  7 12  1  0  0  0  0
  7 23  1  6  0  0  0
  8  9  1  0  0  0  0
  8 24  1  1  0  0  0
  8 15  1  0  0  0  0
  9 10  1  0  0  0  0
  9 25  1  6  0  0  0
  9 13  1  0  0  0  0
 10 26  1  0  0  0  0
 10 27  1  0  0  0  0
 11 12  1  0  0  0  0
 11 28  1  0  0  0  0
 11 29  1  0  0  0  0
 12 30  1  0  0  0  0
 12 31  1  0  0  0  0
 13 16  2  0  0  0  0
 13 17  1  0  0  0  0
 14 32  1  0  0  0  0
 14 33  1  0  0  0  0
 14 34  1  0  0  0  0
 15 35  1  0  0  0  0
 16 18  1  0  0  0  0
 16 36  1  0  0  0  0
 17 19  2  0  0  0  0
 17 37  1  0  0  0  0
 18 20  2  0  0  0  0
 19 20  1  0  0  0  0
 19 38  1  0  0  0  0
 21 39  1  0  0  0  0
 21 40  1  0  0  0  0
 21 41  1  0  0  0  0
M  END
>  <DRUGBANK_ID>
DB04857

>  <COMMON_NAME>
Brasofensine

>  <CAS_NUMBER>
171655-91-7

>  <UNII>
1YP2S94RVH

>  <SYNONYMS>
Brasofensine

$$$$
