
 OpenBabel10282417193D

 45 46  0  0  0  0  0  0  0  0999 V2000
    1.0905   -0.0518    0.5945 C   0  0  0  0  0  0  0  0  0  0  0  0
    0.5353   -1.3992    0.6092 N   0  0  0  0  0  0  0  0  0  0  0  0
   -0.9319   -1.3040    0.5740 C   0  0  0  0  0  0  0  0  0  0  0  0
    1.0164   -2.1758   -0.5625 C   0  0  0  0  0  0  0  0  0  0  0  0
    0.5506   -1.7761   -1.9924 C   0  0  0  0  0  0  0  0  0  0  0  0
    1.0910   -0.5397   -2.4764 O   0  0  0  0  0  0  0  0  0  0  0  0
    0.3341    0.5794   -2.0234 N   0  0  0  0  0  0  0  0  0  0  0  0
    0.9822    1.7045   -2.1907 C   0  0  0  0  0  0  0  0  0  0  0  0
    0.6976    2.8865   -1.2740 C   0  0  0  0  0  0  0  0  0  0  0  0
    1.1277    4.1366   -1.4312 C   0  0  0  0  0  0  0  0  0  0  0  0
    0.8069    5.2835   -0.5542 C   0  0  0  0  0  0  0  0  0  0  0  0
    0.9039    5.2489    0.8443 C   0  0  0  0  0  0  0  0  0  0  0  0
    0.6021    6.3898    1.6085 C   0  0  0  0  0  0  0  0  0  0  0  0
    0.2143    7.5640    0.9701 C   0  0  0  0  0  0  0  0  0  0  0  0
    0.1260    7.6175   -0.4134 C   0  0  0  0  0  0  0  0  0  0  0  0
    0.4320    6.4847   -1.1709 C   0  0  0  0  0  0  0  0  0  0  0  0
   -0.0883    8.7005    1.6603 O   0  0  0  0  0  0  0  0  0  0  0  0
    1.9896    1.8370   -3.2571 C   0  0  0  0  0  0  0  0  0  0  0  0
    3.2437    2.4358   -3.1188 C   0  0  0  0  0  0  0  0  0  0  0  0
    4.1027    2.4430   -4.2199 C   0  0  0  0  0  0  0  0  0  0  0  0
    3.7325    1.8056   -5.4114 C   0  0  0  0  0  0  0  0  0  0  0  0
    2.4887    1.2006   -5.5325 C   0  0  0  0  0  0  0  0  0  0  0  0
    1.6120    1.2581   -4.4733 C   0  0  0  0  0  0  0  0  0  0  0  0
    0.3904    0.7298   -4.6476 F   0  0  0  0  0  0  0  0  0  0  0  0
    0.9530    0.5184    1.5144 H   0  0  0  0  0  0  0  0  0  0  0  0
    0.4963    0.5295   -0.0714 H   0  0  0  0  0  0  0  0  0  0  0  0
    2.1425   -0.0060    0.2872 H   0  0  0  0  0  0  0  0  0  0  0  0
   -1.3196   -0.9462   -0.3866 H   0  0  0  0  0  0  0  0  0  0  0  0
   -1.3774   -2.2817    0.7739 H   0  0  0  0  0  0  0  0  0  0  0  0
   -1.3009   -0.6019    1.3283 H   0  0  0  0  0  0  0  0  0  0  0  0
    2.1149   -2.2022   -0.5370 H   0  0  0  0  0  0  0  0  0  0  0  0
    0.7057   -3.2166   -0.3888 H   0  0  0  0  0  0  0  0  0  0  0  0
    0.9262   -2.5526   -2.6715 H   0  0  0  0  0  0  0  0  0  0  0  0
   -0.5371   -1.7966   -2.1080 H   0  0  0  0  0  0  0  0  0  0  0  0
    0.0755    2.6347   -0.4106 H   0  0  0  0  0  0  0  0  0  0  0  0
    1.7173    4.4221   -2.3016 H   0  0  0  0  0  0  0  0  0  0  0  0
    1.2226    4.3450    1.3572 H   0  0  0  0  0  0  0  0  0  0  0  0
    0.6744    6.3409    2.6911 H   0  0  0  0  0  0  0  0  0  0  0  0
   -0.1830    8.5362   -0.9034 H   0  0  0  0  0  0  0  0  0  0  0  0
    0.3595    6.5484   -2.2548 H   0  0  0  0  0  0  0  0  0  0  0  0
    0.0320    8.5399    2.6099 H   0  0  0  0  0  0  0  0  0  0  0  0
    3.5653    2.8960   -2.1865 H   0  0  0  0  0  0  0  0  0  0  0  0
    5.0705    2.9340   -4.1530 H   0  0  0  0  0  0  0  0  0  0  0  0
    4.4120    1.7808   -6.2567 H   0  0  0  0  0  0  0  0  0  0  0  0
    2.1697    0.6836   -6.4291 H   0  0  0  0  0  0  0  0  0  0  0  0
  1  2  1  0  0  0  0
  1 25  1  0  0  0  0
  1 26  1  0  0  0  0
  1 27  1  0  0  0  0
  2  3  1  0  0  0  0
  2  4  1  0  0  0  0
  3 28  1  0  0  0  0
  3 29  1  0  0  0  0
  3 30  1  0  0  0  0
  4  5  1  0  0  0  0
  4 31  1  0  0  0  0
  4 32  1  0  0  0  0
  5  6  1  0  0  0  0
  5 33  1  0  0  0  0
  5 34  1  0  0  0  0
  6  7  1  0  0  0  0
  7  8  2  0  0  0  0
  8  9  1  0  0  0  0
  8 18  1  0  0  0  0
  9 10  2  0  0  0  0
  9 35  1  0  0  0  0
 10 11  1  0  0  0  0
 10 36  1  0  0  0  0
 11 12  2  0  0  0  0
 11 16  1  0  0  0  0
 12 13  1  0  0  0  0
 12 37  1  0  0  0  0
 13 14  2  0  0  0  0
 13 38  1  0  0  0  0
 14 15  1  0  0  0  0
 14 17  1  0  0  0  0
 15 16  2  0  0  0  0
 15 39  1  0  0  0  0
 16 40  1  0  0  0  0
 17 41  1  0  0  0  0
 18 19  2  0  0  0  0
 18 23  1  0  0  0  0
 19 20  1  0  0  0  0
 19 42  1  0  0  0  0
 20 21  2  0  0  0  0
 20 43  1  0  0  0  0
 21 22  1  0  0  0  0
 21 44  1  0  0  0  0
 22 23  2  0  0  0  0
 22 45  1  0  0  0  0
 23 24  1  0  0  0  0
M  END
>  <DRUGBANK_ID>
DB12177

>  <SECONDARY_ACCESSION_NUMBERS>
DB06392

>  <COMMON_NAME>
Eplivanserin

>  <CAS_NUMBER>
130579-75-8

>  <UNII>
3CO94WO6DJ

>  <SYNONYMS>
Eplivanserin; Eplivanserine

$$$$
