
 OpenBabel10282417193D

 76 79  0  0  0  0  0  0  0  0999 V2000
   -0.4319    0.2520   -0.1126 C   0  0  0  0  0  0  0  0  0  0  0  0
   -0.1963   -1.5028    0.0080 C   0  0  0  0  0  0  0  0  0  0  0  0
    0.8564   -2.2950    0.8934 O   0  0  0  0  0  0  0  0  0  0  0  0
    2.2628   -2.5603    0.6880 C   0  0  0  0  0  0  0  0  0  0  0  0
    2.7698   -3.8727    0.8475 C   0  0  0  0  0  0  0  0  0  0  0  0
    4.1962   -4.0880    0.9143 C   0  0  0  0  0  0  0  0  0  0  0  0
    5.1365   -3.0474    0.7418 C   0  0  0  0  0  0  0  0  0  0  0  0
    4.7220   -1.7790    0.5668 C   0  0  0  0  0  0  0  0  0  0  0  0
    3.3385   -1.5614    0.6277 C   0  0  0  0  0  0  0  0  0  0  0  0
    3.2293   -0.2121    0.8443 O   0  0  0  0  0  0  0  0  0  0  0  0
    1.9535    0.0661    0.4750 C   0  0  0  0  0  0  0  0  0  0  0  0
    1.8301   -0.4565   -1.1647 C   0  0  0  0  0  0  0  0  0  0  0  0
    5.5578   -0.7386    0.7786 F   0  0  0  0  0  0  0  0  0  0  0  0
    6.4272   -3.4686    1.2904 C   0  0  0  0  0  0  0  0  0  0  0  0
    7.4977   -2.7147    1.3598 N   0  0  0  0  0  0  0  0  0  0  0  0
    6.2723   -4.7326    1.7713 N   0  0  0  0  0  0  0  0  0  0  0  0
    4.9861   -5.3169    1.3377 C   0  0  0  0  0  0  0  0  0  0  0  0
    7.1779   -5.4054    2.7114 C   0  0  0  0  0  0  0  0  0  0  0  0
    6.5651   -5.8232    4.0647 C   0  0  0  0  0  0  0  0  0  0  0  0
    6.4922   -7.0257    4.4010 O   0  0  0  0  0  0  0  0  0  0  0  0
    6.1077   -4.7861    5.0364 C   0  0  0  0  0  0  0  0  0  0  0  0
    5.2943   -3.7736    4.5861 C   0  0  0  0  0  0  0  0  0  0  0  0
    4.8493   -2.6852    5.3843 C   0  0  0  0  0  0  0  0  0  0  0  0
    5.1761   -2.6241    6.7310 C   0  0  0  0  0  0  0  0  0  0  0  0
    5.9390   -3.7162    7.2434 C   0  0  0  0  0  0  0  0  0  0  0  0
    6.3939   -4.7767    6.3904 C   0  0  0  0  0  0  0  0  0  0  0  0
    6.2457   -3.8425    8.5885 N   0  0  0  0  0  0  0  0  0  0  0  0
    5.2177   -3.6493    9.6079 C   0  0  0  0  0  0  0  0  0  0  0  0
    5.5116   -2.4191   10.4735 C   0  0  0  0  0  0  0  0  0  0  0  0
    6.8499   -2.4502   10.9997 O   0  0  0  0  0  0  0  0  0  0  0  0
    7.7979   -2.4673    9.9160 C   0  0  0  0  0  0  0  0  0  0  0  0
    7.6314   -3.7170    9.0369 C   0  0  0  0  0  0  0  0  0  0  0  0
    4.8439   -1.6116    7.6062 O   0  0  0  0  0  0  0  0  0  0  0  0
    4.1127   -0.3934    7.4030 C   0  0  0  0  0  0  0  0  0  0  0  0
    4.0522   -1.5932    4.7478 C   0  0  0  0  0  0  0  0  0  0  0  0
    2.5830   -1.6581    5.2409 C   0  0  0  0  0  0  0  0  0  0  0  0
    4.9686   -0.3287    4.6081 C   0  0  0  0  0  0  0  0  0  0  0  0
    3.7881   -1.8442    3.3184 C   0  0  0  0  0  0  0  0  0  0  0  0
   -0.6755    0.7137    0.8480 H   0  0  0  0  0  0  0  0  0  0  0  0
   -1.0363    0.5727   -0.9720 H   0  0  0  0  0  0  0  0  0  0  0  0
    0.3906    0.9269   -0.4263 H   0  0  0  0  0  0  0  0  0  0  0  0
   -1.1862   -1.8200    0.3621 H   0  0  0  0  0  0  0  0  0  0  0  0
   -0.1312   -1.9835   -0.9771 H   0  0  0  0  0  0  0  0  0  0  0  0
    2.0995   -4.7075    1.0371 H   0  0  0  0  0  0  0  0  0  0  0  0
    1.3113   -0.3557    1.2909 H   0  0  0  0  0  0  0  0  0  0  0  0
    1.8071    1.1280    0.6934 H   0  0  0  0  0  0  0  0  0  0  0  0
    2.1269   -1.5072   -1.3395 H   0  0  0  0  0  0  0  0  0  0  0  0
    0.8577   -0.4676   -1.6795 H   0  0  0  0  0  0  0  0  0  0  0  0
    2.4226    0.1728   -1.8065 H   0  0  0  0  0  0  0  0  0  0  0  0
    7.3269   -1.7897    0.9545 H   0  0  0  0  0  0  0  0  0  0  0  0
    5.1510   -5.9224    0.4445 H   0  0  0  0  0  0  0  0  0  0  0  0
    4.4933   -5.8705    2.1353 H   0  0  0  0  0  0  0  0  0  0  0  0
    7.5639   -6.3061    2.2206 H   0  0  0  0  0  0  0  0  0  0  0  0
    8.0581   -4.7898    2.9453 H   0  0  0  0  0  0  0  0  0  0  0  0
    4.9830   -3.8477    3.5608 H   0  0  0  0  0  0  0  0  0  0  0  0
    6.9495   -5.6073    6.8217 H   0  0  0  0  0  0  0  0  0  0  0  0
    5.2532   -4.5428   10.2403 H   0  0  0  0  0  0  0  0  0  0  0  0
    4.2067   -3.6031    9.1854 H   0  0  0  0  0  0  0  0  0  0  0  0
    5.3816   -1.4824    9.9247 H   0  0  0  0  0  0  0  0  0  0  0  0
    4.8166   -2.3974   11.3179 H   0  0  0  0  0  0  0  0  0  0  0  0
    8.7994   -2.4584   10.3570 H   0  0  0  0  0  0  0  0  0  0  0  0
    7.6825   -1.5487    9.3278 H   0  0  0  0  0  0  0  0  0  0  0  0
    7.8514   -4.6089    9.6331 H   0  0  0  0  0  0  0  0  0  0  0  0
    8.3459   -3.6856    8.2053 H   0  0  0  0  0  0  0  0  0  0  0  0
    4.5668    0.3446    6.7505 H   0  0  0  0  0  0  0  0  0  0  0  0
    3.0690   -0.4947    7.1277 H   0  0  0  0  0  0  0  0  0  0  0  0
    4.0548    0.1356    8.3519 H   0  0  0  0  0  0  0  0  0  0  0  0
    2.4429   -1.9323    6.2849 H   0  0  0  0  0  0  0  0  0  0  0  0
    2.0353   -0.7486    4.9795 H   0  0  0  0  0  0  0  0  0  0  0  0
    2.0441   -2.5008    4.7735 H   0  0  0  0  0  0  0  0  0  0  0  0
    5.7238   -0.4536    3.8110 H   0  0  0  0  0  0  0  0  0  0  0  0
    4.3926    0.5650    4.3546 H   0  0  0  0  0  0  0  0  0  0  0  0
    5.6543   -0.1419    5.4354 H   0  0  0  0  0  0  0  0  0  0  0  0
    4.7567   -1.8858    2.8378 H   0  0  0  0  0  0  0  0  0  0  0  0
    3.2428   -2.7730    3.1488 H   0  0  0  0  0  0  0  0  0  0  0  0
    3.2003   -1.0023    2.9602 H   0  0  0  0  0  0  0  0  0  0  0  0
  1  2  1  0  0  0  0
  1 39  1  0  0  0  0
  1 40  1  0  0  0  0
  1 41  1  0  0  0  0
  2  3  1  0  0  0  0
  2 42  1  0  0  0  0
  2 43  1  0  0  0  0
  3  4  1  0  0  0  0
  4  5  2  0  0  0  0
  4  9  1  0  0  0  0
  5  6  1  0  0  0  0
  5 44  1  0  0  0  0
  6  7  2  0  0  0  0
  6 17  1  0  0  0  0
  7  8  1  0  0  0  0
  7 14  1  0  0  0  0
  8  9  2  0  0  0  0
  8 13  1  0  0  0  0
  9 10  1  0  0  0  0
 10 11  1  0  0  0  0
 11 12  1  0  0  0  0
 11 45  1  0  0  0  0
 11 46  1  0  0  0  0
 12 47  1  0  0  0  0
 12 48  1  0  0  0  0
 12 49  1  0  0  0  0
 14 15  2  0  0  0  0
 14 16  1  0  0  0  0
 15 50  1  0  0  0  0
 16 17  1  0  0  0  0
 16 18  1  0  0  0  0
 17 51  1  0  0  0  0
 17 52  1  0  0  0  0
 18 19  1  0  0  0  0
 18 53  1  0  0  0  0
 18 54  1  0  0  0  0
 19 20  2  0  0  0  0
 19 21  1  0  0  0  0
 21 22  2  0  0  0  0
 21 26  1  0  0  0  0
 22 23  1  0  0  0  0
 22 55  1  0  0  0  0
 23 24  2  0  0  0  0
 23 35  1  0  0  0  0
 24 25  1  0  0  0  0
 24 33  1  0  0  0  0
 25 26  2  0  0  0  0
 25 27  1  0  0  0  0
 26 56  1  0  0  0  0
 27 28  1  0  0  0  0
 27 32  1  0  0  0  0
 28 29  1  0  0  0  0
 28 57  1  0  0  0  0
 28 58  1  0  0  0  0
 29 30  1  0  0  0  0
 29 59  1  0  0  0  0
 29 60  1  0  0  0  0
 30 31  1  0  0  0  0
 31 32  1  0  0  0  0
 31 61  1  0  0  0  0
 31 62  1  0  0  0  0
 32 63  1  0  0  0  0
 32 64  1  0  0  0  0
 33 34  1  0  0  0  0
 34 65  1  0  0  0  0
 34 66  1  0  0  0  0
 34 67  1  0  0  0  0
 35 36  1  0  0  0  0
 35 37  1  0  0  0  0
 35 38  1  0  0  0  0
 36 68  1  0  0  0  0
 36 69  1  0  0  0  0
 36 70  1  0  0  0  0
 37 71  1  0  0  0  0
 37 72  1  0  0  0  0
 37 73  1  0  0  0  0
 38 74  1  0  0  0  0
 38 75  1  0  0  0  0
 38 76  1  0  0  0  0
M  END
>  <DRUGBANK_ID>
DB12046

>  <COMMON_NAME>
Atopaxar

>  <CAS_NUMBER>
751475-53-3

>  <UNII>
HTI275SD2D

>  <SYNONYMS>
Atopaxar

$$$$
