12H
 OpenBabel10282417133D

 39 38  0  0  0  0  0  0  0  0999 V2000
    0.9642   -0.0981    0.0587 C   0  0  0  0  0  0  0  0  0  0  0  0
    0.5165    1.3344   -0.2080 C   0  0  0  0  0  0  0  0  0  0  0  0
    1.0256    1.8723   -1.5502 C   0  0  0  0  0  0  0  0  0  0  0  0
    0.4750    1.1153   -2.7599 C   0  0  0  0  0  0  0  0  0  0  0  0
   -1.0565    1.0757   -2.7161 C   0  0  0  0  0  0  0  0  0  0  0  0
   -1.5886    2.5000   -2.8846 C   0  0  0  0  0  0  0  0  0  0  0  0
   -1.1077    3.0656   -4.2251 C   0  0  0  0  0  0  0  0  0  0  0  0
   -1.6002    2.1694   -5.3657 C   0  0  0  0  0  0  0  0  0  0  0  0
   -3.1323    2.1388   -5.3643 C   0  0  0  0  0  0  0  0  0  0  0  0
   -3.6917    3.5389   -5.6305 C   0  0  0  0  0  0  0  0  0  0  0  0
   -3.1799    4.1164   -6.9503 C   0  0  0  0  0  0  0  0  0  0  0  0
   -3.6504    3.3123   -8.1377 C   0  0  0  0  0  0  0  0  0  0  0  0
    0.3766   -1.0400   -0.8259 O   0  0  0  0  0  0  0  0  0  0  0  0
   -4.4186    3.6983   -8.9929 O   0  0  0  0  0  0  0  0  0  0  0  0
   -3.1447    2.0621   -8.1805 O   0  0  0  0  0  0  0  0  0  0  0  0
    0.6554   -0.3939    1.0617 H   0  0  0  0  0  0  0  0  0  0  0  0
    2.0534   -0.1713   -0.0120 H   0  0  0  0  0  0  0  0  0  0  0  0
   -0.5764    1.4034   -0.1491 H   0  0  0  0  0  0  0  0  0  0  0  0
    0.8877    1.9858    0.5899 H   0  0  0  0  0  0  0  0  0  0  0  0
    0.7522    2.9335   -1.6248 H   0  0  0  0  0  0  0  0  0  0  0  0
    2.1187    1.8600   -1.5766 H   0  0  0  0  0  0  0  0  0  0  0  0
    0.8542    1.5809   -3.6732 H   0  0  0  0  0  0  0  0  0  0  0  0
    0.8863    0.1165   -2.8699 H   0  0  0  0  0  0  0  0  0  0  0  0
   -1.4368    0.3939   -3.4835 H   0  0  0  0  0  0  0  0  0  0  0  0
   -1.4515    0.6398   -1.7950 H   0  0  0  0  0  0  0  0  0  0  0  0
   -2.6794    2.5032   -2.8022 H   0  0  0  0  0  0  0  0  0  0  0  0
   -1.2690    3.1528   -2.0680 H   0  0  0  0  0  0  0  0  0  0  0  0
   -1.4380    4.1009   -4.3332 H   0  0  0  0  0  0  0  0  0  0  0  0
   -0.0194    3.1582   -4.2733 H   0  0  0  0  0  0  0  0  0  0  0  0
   -1.1824    2.5200   -6.3125 H   0  0  0  0  0  0  0  0  0  0  0  0
   -1.2118    1.1481   -5.2955 H   0  0  0  0  0  0  0  0  0  0  0  0
   -3.4993    1.4103   -6.0877 H   0  0  0  0  0  0  0  0  0  0  0  0
   -3.5333    1.7519   -4.4223 H   0  0  0  0  0  0  0  0  0  0  0  0
   -4.7844    3.5073   -5.6135 H   0  0  0  0  0  0  0  0  0  0  0  0
   -3.4152    4.2175   -4.8121 H   0  0  0  0  0  0  0  0  0  0  0  0
   -3.5478    5.1407   -7.0570 H   0  0  0  0  0  0  0  0  0  0  0  0
   -2.0885    4.2042   -6.9837 H   0  0  0  0  0  0  0  0  0  0  0  0
    0.9588   -1.1197   -1.5993 H   0  0  0  0  0  0  0  0  0  0  0  0
   -3.6411    1.5867   -8.8769 H   0  0  0  0  0  0  0  0  0  0  0  0
  1  2  1  0  0  0  0
  1 13  1  0  0  0  0
  1 16  1  0  0  0  0
  1 17  1  0  0  0  0
  2  3  1  0  0  0  0
  2 18  1  0  0  0  0
  2 19  1  0  0  0  0
  3  4  1  0  0  0  0
  3 20  1  0  0  0  0
  3 21  1  0  0  0  0
  4  5  1  0  0  0  0
  4 22  1  0  0  0  0
  4 23  1  0  0  0  0
  5  6  1  0  0  0  0
  5 24  1  0  0  0  0
  5 25  1  0  0  0  0
  6  7  1  0  0  0  0
  6 26  1  0  0  0  0
  6 27  1  0  0  0  0
  7  8  1  0  0  0  0
  7 28  1  0  0  0  0
  7 29  1  0  0  0  0
  8  9  1  0  0  0  0
  8 30  1  0  0  0  0
  8 31  1  0  0  0  0
  9 10  1  0  0  0  0
  9 32  1  0  0  0  0
  9 33  1  0  0  0  0
 10 11  1  0  0  0  0
 10 34  1  0  0  0  0
 10 35  1  0  0  0  0
 11 12  1  0  0  0  0
 11 36  1  0  0  0  0
 11 37  1  0  0  0  0
 12 14  2  0  0  0  0
 12 15  1  0  0  0  0
 13 38  1  0  0  0  0
 15 39  1  0  0  0  0
M  END
>  <DRUGBANK_ID>
DB03704

>  <SECONDARY_ACCESSION_NUMBERS>
EXPT00021

>  <COMMON_NAME>
12-Hydroxydodecanoic Acid

>  <CAS_NUMBER>
505-95-3

>  <UNII>
SUH3LR2K9D

$$$$
