
 OpenBabel10282417193D

 27 28  0  0  1  0  0  0  0  0999 V2000
   -3.2948    4.0725   -3.2259 C   0  0  0  0  0  0  0  0  0  0  0  0
   -3.3584    2.7938   -3.4728 C   0  0  0  0  0  0  0  0  0  0  0  0
   -3.4325    1.3032   -3.7605 C   0  0  0  0  0  0  0  0  0  0  0  0
   -2.1244    0.7822   -3.3193 O   0  0  0  0  0  0  0  0  0  0  0  0
   -1.7785    0.9294   -1.8996 C   0  0  1  0  0  0  0  0  0  0  0  0
   -0.2301    0.8494   -1.6330 C   0  0  0  0  0  0  0  0  0  0  0  0
    0.3537    2.0139   -0.8533 N   0  0  3  0  0  0  0  0  0  0  0  0
   -0.4120    2.3053    0.3931 C   0  0  0  0  0  0  0  0  0  0  0  0
   -1.9195    2.3328    0.1926 C   0  0  0  0  0  0  0  0  0  0  0  0
   -2.1598    2.2769   -1.2851 C   0  0  3  0  0  0  0  0  0  0  0  0
   -1.2404    3.3867   -1.9469 C   0  0  0  0  0  0  0  0  0  0  0  0
    0.2298    3.1940   -1.7012 C   0  0  0  0  0  0  0  0  0  0  0  0
   -3.2941    5.1276   -3.0706 H   0  0  0  0  0  0  0  0  0  0  0  0
   -4.2258    0.8117   -3.1915 H   0  0  0  0  0  0  0  0  0  0  0  0
   -3.5401    1.1084   -4.8298 H   0  0  0  0  0  0  0  0  0  0  0  0
   -2.2695    0.0974   -1.3790 H   0  0  0  0  0  0  0  0  0  0  0  0
   -0.0032   -0.0532   -1.0625 H   0  0  0  0  0  0  0  0  0  0  0  0
    0.3049    0.7583   -2.5893 H   0  0  0  0  0  0  0  0  0  0  0  0
   -0.1608    1.5890    1.1683 H   0  0  0  0  0  0  0  0  0  0  0  0
   -0.1244    3.2987    0.7747 H   0  0  0  0  0  0  0  0  0  0  0  0
   -2.4284    1.5068    0.7024 H   0  0  0  0  0  0  0  0  0  0  0  0
   -2.3663    3.2650    0.5660 H   0  0  0  0  0  0  0  0  0  0  0  0
   -3.2510    2.4160   -1.3557 H   0  0  0  0  0  0  0  0  0  0  0  0
   -1.2411    3.3478   -3.0417 H   0  0  0  0  0  0  0  0  0  0  0  0
   -1.5527    4.3755   -1.5987 H   0  0  0  0  0  0  0  0  0  0  0  0
    0.6340    4.1182   -1.2710 H   0  0  0  0  0  0  0  0  0  0  0  0
    0.7514    3.0697   -2.6605 H   0  0  0  0  0  0  0  0  0  0  0  0
  1  2  3  0  0  0  0
  1 13  1  0  0  0  0
  2  3  1  0  0  0  0
  3  4  1  0  0  0  0
  3 14  1  0  0  0  0
  3 15  1  0  0  0  0
  5  6  1  0  0  0  0
  5 10  1  0  0  0  0
  5 16  1  1  0  0  0
  5  4  1  0  0  0  0
  6  7  1  0  0  0  0
  6 17  1  0  0  0  0
  6 18  1  0  0  0  0
  7  8  1  0  0  0  0
  7 12  1  0  0  0  0
  8  9  1  0  0  0  0
  8 19  1  0  0  0  0
  8 20  1  0  0  0  0
  9 10  1  0  0  0  0
  9 21  1  0  0  0  0
  9 22  1  0  0  0  0
 10 11  1  0  0  0  0
 10 23  1  0  0  0  0
 11 12  1  0  0  0  0
 11 24  1  0  0  0  0
 11 25  1  0  0  0  0
 12 26  1  0  0  0  0
 12 27  1  0  0  0  0
M  END
>  <DRUGBANK_ID>
DB12287

>  <COMMON_NAME>
Talsaclidine

>  <CAS_NUMBER>
147025-53-4

>  <UNII>
1O8VSL798T

>  <SYNONYMS>
Talsaclidine

$$$$
