
 OpenBabel10282417193D

 57 59  0  0  0  0  0  0  0  0999 V2000
   -2.8097    0.5681   -0.0574 C   0  0  0  0  0  0  0  0  0  0  0  0
    1.2611   -2.0550    0.0069 C   0  0  0  0  0  0  0  0  0  0  0  0
   -4.0890   11.1102    1.8527 C   0  0  0  0  0  0  0  0  0  0  0  0
   -0.1258   12.2551   -1.0318 C   0  0  0  0  0  0  0  0  0  0  0  0
   -1.0749   13.0351   -0.3808 C   0  0  0  0  0  0  0  0  0  0  0  0
   -0.8410    4.9510   -1.2067 C   0  0  0  0  0  0  0  0  0  0  0  0
   -0.2662   10.8761   -1.0352 C   0  0  0  0  0  0  0  0  0  0  0  0
   -2.1349   12.4382    0.3063 C   0  0  0  0  0  0  0  0  0  0  0  0
   -0.4881    4.1668    0.0291 C   0  0  0  0  0  0  0  0  0  0  0  0
   -2.2668    5.4796   -1.1493 C   0  0  0  0  0  0  0  0  0  0  0  0
   -3.5422    7.3895   -0.3866 C   0  0  0  0  0  0  0  0  0  0  0  0
   -1.4482    7.0088    0.6744 C   0  0  0  0  0  0  0  0  0  0  0  0
   -2.8792    8.4595   -1.2954 C   0  0  0  0  0  0  0  0  0  0  0  0
   -0.6875    7.9829   -0.2320 C   0  0  0  0  0  0  0  0  0  0  0  0
    0.7400    1.6023    0.0230 C   0  0  0  0  0  0  0  0  0  0  0  0
   -1.3985   10.2774   -0.4647 C   0  0  0  0  0  0  0  0  0  0  0  0
   -2.2894   11.0555    0.2924 C   0  0  0  0  0  0  0  0  0  0  0  0
   -0.5930    1.6891   -0.0048 C   0  0  0  0  0  0  0  0  0  0  0  0
    1.4355    0.3351    0.0094 C   0  0  0  0  0  0  0  0  0  0  0  0
   -0.7663   -0.7267    0.0106 C   0  0  0  0  0  0  0  0  0  0  0  0
   -1.1705    2.9189   -0.0550 N   0  0  0  0  0  0  0  0  0  0  0  0
   -1.3499    0.5383   -0.0042 N   0  0  0  0  0  0  0  0  0  0  0  0
    0.6225   -0.7679    0.0182 N   0  0  0  0  0  0  0  0  0  0  0  0
   -2.5972    6.3119    0.0269 N   0  0  0  0  0  0  0  0  0  0  0  0
   -1.6253    8.9510   -0.7220 N   0  0  0  0  0  0  0  0  0  0  0  0
    2.6573    0.3445   -0.0187 O   0  0  0  0  0  0  0  0  0  0  0  0
   -1.4483   -1.7556    0.0080 O   0  0  0  0  0  0  0  0  0  0  0  0
   -3.2458   10.3619    0.9932 O   0  0  0  0  0  0  0  0  0  0  0  0
   -3.1396    0.0606   -0.9690 H   0  0  0  0  0  0  0  0  0  0  0  0
   -3.2083    0.0353    0.8115 H   0  0  0  0  0  0  0  0  0  0  0  0
   -3.2541    1.5649   -0.0615 H   0  0  0  0  0  0  0  0  0  0  0  0
    0.9488   -2.6006    0.9000 H   0  0  0  0  0  0  0  0  0  0  0  0
    0.9366   -2.5943   -0.8862 H   0  0  0  0  0  0  0  0  0  0  0  0
    2.3508   -1.9709   -0.0007 H   0  0  0  0  0  0  0  0  0  0  0  0
   -3.5141   11.6751    2.5944 H   0  0  0  0  0  0  0  0  0  0  0  0
   -4.7338   11.7658    1.2616 H   0  0  0  0  0  0  0  0  0  0  0  0
   -4.7295   10.4084    2.3958 H   0  0  0  0  0  0  0  0  0  0  0  0
    0.6989   12.7138   -1.5677 H   0  0  0  0  0  0  0  0  0  0  0  0
   -0.9854   14.1161   -0.3963 H   0  0  0  0  0  0  0  0  0  0  0  0
   -0.1013    5.7368   -1.3197 H   0  0  0  0  0  0  0  0  0  0  0  0
   -0.7096    4.3496   -2.1149 H   0  0  0  0  0  0  0  0  0  0  0  0
    0.4737   10.2611   -1.5433 H   0  0  0  0  0  0  0  0  0  0  0  0
   -2.8377   13.0778    0.8243 H   0  0  0  0  0  0  0  0  0  0  0  0
   -0.7777    4.5681    0.9954 H   0  0  0  0  0  0  0  0  0  0  0  0
    0.6010    4.1281    0.0657 H   0  0  0  0  0  0  0  0  0  0  0  0
   -2.4608    5.9835   -2.1017 H   0  0  0  0  0  0  0  0  0  0  0  0
   -2.9663    4.6311   -1.1600 H   0  0  0  0  0  0  0  0  0  0  0  0
   -4.4184    6.9556   -0.8851 H   0  0  0  0  0  0  0  0  0  0  0  0
   -3.9260    7.8672    0.5231 H   0  0  0  0  0  0  0  0  0  0  0  0
   -1.8397    7.5356    1.5549 H   0  0  0  0  0  0  0  0  0  0  0  0
   -0.7126    6.3455    1.1168 H   0  0  0  0  0  0  0  0  0  0  0  0
   -2.6215    8.0083   -2.2611 H   0  0  0  0  0  0  0  0  0  0  0  0
   -3.5842    9.2622   -1.5268 H   0  0  0  0  0  0  0  0  0  0  0  0
   -0.2542    7.5298   -1.1207 H   0  0  0  0  0  0  0  0  0  0  0  0
    0.1609    8.3962    0.3252 H   0  0  0  0  0  0  0  0  0  0  0  0
    1.4196    2.4402    0.0309 H   0  0  0  0  0  0  0  0  0  0  0  0
   -2.1615    2.9941    0.1332 H   0  0  0  0  0  0  0  0  0  0  0  0
  1 29  1  0  0  0  0
  1 30  1  0  0  0  0
  1 31  1  0  0  0  0
  2 32  1  0  0  0  0
  2 33  1  0  0  0  0
  2 34  1  0  0  0  0
  3 35  1  0  0  0  0
  3 36  1  0  0  0  0
  3 37  1  0  0  0  0
  4 38  1  0  0  0  0
  5  4  2  0  0  0  0
  5 39  1  0  0  0  0
  6 40  1  0  0  0  0
  6 41  1  0  0  0  0
  7  4  1  0  0  0  0
  7 42  1  0  0  0  0
  8  5  1  0  0  0  0
  8 43  1  0  0  0  0
  9  6  1  0  0  0  0
  9 44  1  0  0  0  0
  9 45  1  0  0  0  0
 10  6  1  0  0  0  0
 10 46  1  0  0  0  0
 10 47  1  0  0  0  0
 11 48  1  0  0  0  0
 11 49  1  0  0  0  0
 12 50  1  0  0  0  0
 12 51  1  0  0  0  0
 13 11  1  0  0  0  0
 13 52  1  0  0  0  0
 13 53  1  0  0  0  0
 14 12  1  0  0  0  0
 14 54  1  0  0  0  0
 14 55  1  0  0  0  0
 15 56  1  0  0  0  0
 16  7  2  0  0  0  0
 17  8  2  0  0  0  0
 17 16  1  0  0  0  0
 18 15  2  0  0  0  0
 19 15  1  0  0  0  0
 21  9  1  0  0  0  0
 21 18  1  0  0  0  0
 21 57  1  0  0  0  0
 22  1  1  0  0  0  0
 22 18  1  0  0  0  0
 22 20  1  0  0  0  0
 23  2  1  0  0  0  0
 23 19  1  0  0  0  0
 23 20  1  0  0  0  0
 24 10  1  0  0  0  0
 24 11  1  0  0  0  0
 24 12  1  0  0  0  0
 25 13  1  0  0  0  0
 25 14  1  0  0  0  0
 25 16  1  0  0  0  0
 26 19  2  0  0  0  0
 27 20  2  0  0  0  0
 28  3  1  0  0  0  0
 28 17  1  0  0  0  0
M  END
>  <DRUGBANK_ID>
DB12661

>  <COMMON_NAME>
Urapidil

>  <CAS_NUMBER>
34661-75-1

>  <UNII>
A78GF17HJS

>  <SYNONYMS>
Urapidil

$$$$
