
 OpenBabel10282417183D

 37 40  0  0  0  0  0  0  0  0999 V2000
    3.1031    0.5032   -0.8352 C   0  0  0  0  0  0  0  0  0  0  0  0
    3.1844   -0.6487   -0.0600 C   0  0  0  0  0  0  0  0  0  0  0  0
    2.1816   -1.5818   -0.1824 C   0  0  0  0  0  0  0  0  0  0  0  0
    0.9314   -1.1327   -0.6455 C   0  0  0  0  0  0  0  0  0  0  0  0
    0.6864   -0.1670   -1.6785 C   0  0  0  0  0  0  0  0  0  0  0  0
    1.9950    0.6759   -1.8782 C   0  0  0  0  0  0  0  0  0  0  0  0
   -0.0473   -0.9858    0.5493 C   0  0  3  0  0  0  0  0  0  0  0  0
    0.0653    0.7418    1.2846 C   0  0  3  0  0  0  0  0  0  0  0  0
   -1.4189    1.1210    0.3050 C   0  0  3  0  0  0  0  0  0  0  0  0
   -0.9729    0.4120   -1.3438 O   0  0  0  0  0  0  0  0  0  0  0  0
    1.2730    2.1922    1.2274 C   0  0  0  0  0  0  0  0  0  0  0  0
    0.6119    3.1074    0.2961 N   0  0  0  0  0  0  0  0  0  0  0  0
   -0.6627    3.4255    0.8574 C   0  0  0  0  0  0  0  0  0  0  0  0
   -1.7471    2.7149    0.0773 C   0  0  0  0  0  0  0  0  0  0  0  0
    0.5505    2.1979   -0.7413 C   0  0  0  0  0  0  0  0  0  0  0  0
    4.3433   -0.8213    1.2144 Cl  0  0  0  0  0  0  0  0  0  0  0  0
   -1.5686   -1.5457    0.6542 C   0  0  0  0  0  0  0  0  0  0  0  0
   -2.5115    0.4991    1.0957 N   0  0  0  0  0  0  0  0  0  0  0  0
   -2.0660   -0.6666    1.6521 C   0  0  0  0  0  0  0  0  0  0  0  0
   -1.6596   -0.7697    2.8930 O   0  0  0  0  0  0  0  0  0  0  0  0
    3.6187    1.3571   -0.3178 H   0  0  0  0  0  0  0  0  0  0  0  0
    2.1901   -2.4674    0.4412 H   0  0  0  0  0  0  0  0  0  0  0  0
    1.9712    1.7837   -2.1603 H   0  0  0  0  0  0  0  0  0  0  0  0
   -0.5389   -1.1307   -0.4046 H   0  0  0  0  0  0  0  0  0  0  0  0
   -0.0434    0.7384    2.3876 H   0  0  0  0  0  0  0  0  0  0  0  0
    2.2465    2.1568    0.6921 H   0  0  0  0  0  0  0  0  0  0  0  0
    1.5234    2.8972    2.0278 H   0  0  0  0  0  0  0  0  0  0  0  0
   -0.6094    4.5066    0.8269 H   0  0  0  0  0  0  0  0  0  0  0  0
   -0.7473    3.1077    1.9067 H   0  0  0  0  0  0  0  0  0  0  0  0
   -1.7092    3.0156   -0.9850 H   0  0  0  0  0  0  0  0  0  0  0  0
   -2.7052    3.1148    0.4386 H   0  0  0  0  0  0  0  0  0  0  0  0
    0.1204    1.3204   -0.4439 H   0  0  0  0  0  0  0  0  0  0  0  0
    0.0361    2.2762   -1.6901 H   0  0  0  0  0  0  0  0  0  0  0  0
    1.2310    1.4295   -0.4316 H   0  0  0  0  0  0  0  0  0  0  0  0
   -1.7249   -2.6128    0.8068 H   0  0  0  0  0  0  0  0  0  0  0  0
   -2.2261   -1.3195   -0.2477 H   0  0  0  0  0  0  0  0  0  0  0  0
   -2.8248    1.1085    1.8513 H   0  0  0  0  0  0  0  0  0  0  0  0
  1  2  2  0  0  0  0
  1  6  1  0  0  0  0
  1 21  1  0  0  0  0
  2  3  1  0  0  0  0
  2 16  1  0  0  0  0
  3  4  2  0  0  0  0
  3 22  1  0  0  0  0
  4  5  1  0  0  0  0
  4  7  1  0  0  0  0
  5  6  2  0  0  0  0
  5 10  1  0  0  0  0
  6 23  1  0  0  0  0
  7  8  1  0  0  0  0
  7 17  1  0  0  0  0
  7 24  1  0  0  0  0
  8  9  1  0  0  0  0
  8 11  1  0  0  0  0
  8 25  1  0  0  0  0
  9 10  1  0  0  0  0
  9 14  1  0  0  0  0
  9 18  1  0  0  0  0
 11 12  1  0  0  0  0
 11 26  1  0  0  0  0
 11 27  1  0  0  0  0
 12 13  1  0  0  0  0
 12 15  1  0  0  0  0
 13 14  1  0  0  0  0
 13 28  1  0  0  0  0
 13 29  1  0  0  0  0
 14 30  1  0  0  0  0
 14 31  1  0  0  0  0
 15 32  1  0  0  0  0
 15 33  1  0  0  0  0
 15 34  1  0  0  0  0
 17 19  1  0  0  0  0
 17 35  1  0  0  0  0
 17 36  1  0  0  0  0
 18 37  1  0  0  0  0
 19 18  1  0  0  0  0
 19 20  2  0  0  0  0
M  END
>  <DRUGBANK_ID>
DB09187

>  <COMMON_NAME>
Lortalamine

>  <CAS_NUMBER>
70384-91-7

>  <UNII>
9GIR4SV22T

>  <SYNONYMS>
Lortalamine

$$$$
