4SP
 OpenBabel10282417163D

 50 53  0  0  0  0  0  0  0  0999 V2000
   -1.9617   -0.7206    0.2131 C   0  0  0  0  0  0  0  0  0  0  0  0
    2.3491    0.0237   -0.0064 C   0  0  0  0  0  0  0  0  0  0  0  0
   -2.2480    3.3846    0.1676 C   0  0  0  0  0  0  0  0  0  0  0  0
   -3.0963    3.1778   -1.1151 C   0  0  0  0  0  0  0  0  0  0  0  0
   -4.3219    4.0970   -1.1642 C   0  0  0  0  0  0  0  0  0  0  0  0
   -5.2256    3.7451   -2.3547 C   0  0  0  0  0  0  0  0  0  0  0  0
   -5.6917    2.2908   -2.3253 C   0  0  0  0  0  0  0  0  0  0  0  0
   -4.5057    1.3662   -2.3200 C   0  0  0  0  0  0  0  0  0  0  0  0
   -3.5725    1.7370   -1.2098 C   0  0  0  0  0  0  0  0  0  0  0  0
   -3.5765   -4.8840   -1.2317 C   0  0  0  0  0  0  0  0  0  0  0  0
   -2.8583   -5.5642   -0.2370 C   0  0  0  0  0  0  0  0  0  0  0  0
   -2.4072   -4.8901    0.8919 C   0  0  0  0  0  0  0  0  0  0  0  0
   -2.6436   -3.5274    0.9991 C   0  0  0  0  0  0  0  0  0  0  0  0
   -0.9433   -7.5046   -0.3204 N   0  0  0  0  0  0  0  0  0  0  0  0
   -1.9970    0.6064    0.4740 N   0  0  0  0  0  0  0  0  0  0  0  0
   -0.8838    1.3743    0.2693 C   0  0  0  0  0  0  0  0  0  0  0  0
   -0.9600    2.7512    0.1459 O   0  0  0  0  0  0  0  0  0  0  0  0
    0.3363    0.7269    0.0945 C   0  0  0  0  0  0  0  0  0  0  0  0
    1.6470    1.1380   -0.0115 N   0  0  0  0  0  0  0  0  0  0  0  0
    1.5491   -1.0836   -0.0122 N   0  0  0  0  0  0  0  0  0  0  0  0
    0.2617   -0.6484    0.0251 C   0  0  0  0  0  0  0  0  0  0  0  0
   -0.8271   -1.4136    0.0186 N   0  0  0  0  0  0  0  0  0  0  0  0
   -3.1797   -1.4077    0.0311 N   0  0  0  0  0  0  0  0  0  0  0  0
   -3.2865   -2.8054   -0.0169 C   0  0  0  0  0  0  0  0  0  0  0  0
   -3.8283   -3.5059   -1.1014 C   0  0  0  0  0  0  0  0  0  0  0  0
   -2.6197   -7.3140   -0.3449 S   0  0  0  0  0  0  0  0  0  0  0  0
   -3.1251   -7.9076    0.8777 O   0  0  0  0  0  0  0  0  0  0  0  0
   -3.0326   -7.7666   -1.6464 O   0  0  0  0  0  0  0  0  0  0  0  0
    3.4275   -0.0444    0.0187 H   0  0  0  0  0  0  0  0  0  0  0  0
   -2.7869    3.1183    1.0842 H   0  0  0  0  0  0  0  0  0  0  0  0
   -2.0346    4.4604    0.2486 H   0  0  0  0  0  0  0  0  0  0  0  0
   -2.4598    3.3792   -1.9863 H   0  0  0  0  0  0  0  0  0  0  0  0
   -4.8961    4.0061   -0.2332 H   0  0  0  0  0  0  0  0  0  0  0  0
   -4.0023    5.1424   -1.2438 H   0  0  0  0  0  0  0  0  0  0  0  0
   -6.1006    4.3994   -2.3619 H   0  0  0  0  0  0  0  0  0  0  0  0
   -4.6701    3.9205   -3.2846 H   0  0  0  0  0  0  0  0  0  0  0  0
   -6.2985    2.1095   -1.4295 H   0  0  0  0  0  0  0  0  0  0  0  0
   -6.3061    2.0570   -3.1983 H   0  0  0  0  0  0  0  0  0  0  0  0
   -4.8120    0.3217   -2.1813 H   0  0  0  0  0  0  0  0  0  0  0  0
   -3.9510    1.4189   -3.2624 H   0  0  0  0  0  0  0  0  0  0  0  0
   -2.7067    1.1295   -1.4477 H   0  0  0  0  0  0  0  0  0  0  0  0
   -4.0468    1.4657   -0.2543 H   0  0  0  0  0  0  0  0  0  0  0  0
   -3.9266   -5.4171   -2.1146 H   0  0  0  0  0  0  0  0  0  0  0  0
   -1.8606   -5.3958    1.6815 H   0  0  0  0  0  0  0  0  0  0  0  0
   -2.2891   -2.9848    1.8732 H   0  0  0  0  0  0  0  0  0  0  0  0
   -0.7430   -8.5069   -0.2538 H   0  0  0  0  0  0  0  0  0  0  0  0
   -0.5118   -7.1073   -1.1543 H   0  0  0  0  0  0  0  0  0  0  0  0
    1.8315   -2.0513    0.0180 H   0  0  0  0  0  0  0  0  0  0  0  0
   -3.9969   -0.8319   -0.0853 H   0  0  0  0  0  0  0  0  0  0  0  0
   -4.3912   -2.9990   -1.8825 H   0  0  0  0  0  0  0  0  0  0  0  0
  1 15  2  0  0  0  0
  1 22  1  0  0  0  0
  1 23  1  0  0  0  0
  2 19  2  0  0  0  0
  2 20  1  0  0  0  0
  2 29  1  0  0  0  0
  3  4  1  0  0  0  0
  3 17  1  0  0  0  0
  3 30  1  0  0  0  0
  3 31  1  0  0  0  0
  4  5  1  0  0  0  0
  4  9  1  0  0  0  0
  4 32  1  0  0  0  0
  5  6  1  0  0  0  0
  5 33  1  0  0  0  0
  5 34  1  0  0  0  0
  6  7  1  0  0  0  0
  6 35  1  0  0  0  0
  6 36  1  0  0  0  0
  7  8  1  0  0  0  0
  7 37  1  0  0  0  0
  7 38  1  0  0  0  0
  8  9  1  0  0  0  0
  8 39  1  0  0  0  0
  8 40  1  0  0  0  0
  9 41  1  0  0  0  0
  9 42  1  0  0  0  0
 10 11  2  0  0  0  0
 10 25  1  0  0  0  0
 10 43  1  0  0  0  0
 11 12  1  0  0  0  0
 11 26  1  0  0  0  0
 12 13  2  0  0  0  0
 12 44  1  0  0  0  0
 13 24  1  0  0  0  0
 13 45  1  0  0  0  0
 14 26  1  0  0  0  0
 14 46  1  0  0  0  0
 14 47  1  0  0  0  0
 15 16  1  0  0  0  0
 16 17  1  0  0  0  0
 16 18  2  0  0  0  0
 18 19  1  0  0  0  0
 18 21  1  0  0  0  0
 20 21  1  0  0  0  0
 20 48  1  0  0  0  0
 21 22  2  0  0  0  0
 23 24  1  0  0  0  0
 23 49  1  0  0  0  0
 24 25  2  0  0  0  0
 25 50  1  0  0  0  0
 26 27  2  0  0  0  0
 26 28  2  0  0  0  0
M  END
>  <DRUGBANK_ID>
DB07126

>  <COMMON_NAME>
O6-CYCLOHEXYLMETHOXY-2-(4'-SULPHAMOYLANILINO) PURINE

>  <UNII>
X5J53DR704

$$$$
