
 OpenBabel10282417223D

 50 54  0  0  0  0  0  0  0  0999 V2000
    0.7668    0.0003   -0.0965 C   0  0  0  0  0  0  0  0  0  0  0  0
    0.0638   -0.7251   -0.7542 O   0  0  0  0  0  0  0  0  0  0  0  0
    0.1888    0.8765    0.8083 O   0  0  0  0  0  0  0  0  0  0  0  0
    0.7599    2.0373    1.4862 C   0  0  0  0  0  0  0  0  0  0  0  0
    2.2325    0.0991   -0.3428 C   0  0  0  0  0  0  0  0  0  0  0  0
    4.3153   -2.9340   -0.0948 N   0  0  3  0  0  0  0  0  0  0  0  0
    1.7348   -3.5413    1.1762 C   0  0  0  0  0  0  0  0  0  0  0  0
    4.2117   -3.6527    1.2219 C   0  0  0  0  0  0  0  0  0  0  0  0
    3.0963   -2.9799   -0.9466 C   0  0  1  0  0  0  0  0  0  0  0  0
    2.8503   -1.8067   -1.9210 C   0  0  0  0  0  0  0  0  0  0  0  0
    3.1905   -0.4512   -1.3581 C   0  0  1  0  0  0  0  0  0  0  0  0
    4.6897   -0.4651   -0.7431 C   0  0  2  0  0  0  0  0  0  0  0  0
    4.9540   -1.6588    0.1583 C   0  0  0  0  0  0  0  0  0  0  0  0
    1.8516   -3.3024   -0.1732 C   0  0  0  0  0  0  0  0  0  0  0  0
    0.3645   -3.7878    1.4632 C   0  0  0  0  0  0  0  0  0  0  0  0
   -0.3331   -3.6688    0.2616 C   0  0  0  0  0  0  0  0  0  0  0  0
   -1.7555   -4.2211    2.5528 C   0  0  0  0  0  0  0  0  0  0  0  0
   -2.4248   -4.0747    1.3392 C   0  0  0  0  0  0  0  0  0  0  0  0
   -1.7264   -3.7749    0.1686 C   0  0  0  0  0  0  0  0  0  0  0  0
   -0.3660   -4.0616    2.6324 C   0  0  0  0  0  0  0  0  0  0  0  0
    0.5943   -3.3942   -0.7166 N   0  0  0  0  0  0  0  0  0  0  0  0
    2.9168   -3.4308    2.0563 C   0  0  0  0  0  0  0  0  0  0  0  0
    3.2603   -3.8493   -1.5951 H   0  0  0  0  0  0  0  0  0  0  0  0
    3.1687    0.2755   -2.1846 H   0  0  0  0  0  0  0  0  0  0  0  0
    5.0299    0.8575    0.0924 C   0  0  1  0  0  0  0  0  0  0  0  0
    3.9132    1.7040   -0.1674 O   0  0  0  0  0  0  0  0  0  0  0  0
    2.8301    1.0165    0.3330 C   0  0  0  0  0  0  0  0  0  0  0  0
    5.3686   -0.5208   -1.6116 H   0  0  0  0  0  0  0  0  0  0  0  0
    5.0522    0.9320    1.6499 C   0  0  0  0  0  0  0  0  0  0  0  0
    1.3445    1.7041    2.3547 H   0  0  0  0  0  0  0  0  0  0  0  0
    1.3488    2.6672    0.8044 H   0  0  0  0  0  0  0  0  0  0  0  0
   -0.0270    2.6714    1.8831 H   0  0  0  0  0  0  0  0  0  0  0  0
    4.3490   -4.7201    1.0314 H   0  0  0  0  0  0  0  0  0  0  0  0
    5.0634   -3.3788    1.8680 H   0  0  0  0  0  0  0  0  0  0  0  0
    3.4295   -1.9593   -2.8400 H   0  0  0  0  0  0  0  0  0  0  0  0
    1.8092   -1.7580   -2.2639 H   0  0  0  0  0  0  0  0  0  0  0  0
    6.0443   -1.8052    0.2328 H   0  0  0  0  0  0  0  0  0  0  0  0
    4.6542   -1.3943    1.1619 H   0  0  0  0  0  0  0  0  0  0  0  0
   -2.3177   -4.4557    3.4519 H   0  0  0  0  0  0  0  0  0  0  0  0
   -3.5050   -4.1927    1.3004 H   0  0  0  0  0  0  0  0  0  0  0  0
   -2.2471   -3.6269   -0.7727 H   0  0  0  0  0  0  0  0  0  0  0  0
    0.1435   -4.1501    3.5849 H   0  0  0  0  0  0  0  0  0  0  0  0
    0.3392   -3.1191   -1.6547 H   0  0  0  0  0  0  0  0  0  0  0  0
    2.8870   -4.1471    2.8849 H   0  0  0  0  0  0  0  0  0  0  0  0
    2.8917   -2.4276    2.5047 H   0  0  0  0  0  0  0  0  0  0  0  0
    5.9409    1.3343   -0.2953 H   0  0  0  0  0  0  0  0  0  0  0  0
    2.7289    0.9187    1.4109 H   0  0  0  0  0  0  0  0  0  0  0  0
    4.5803    1.8864    1.9597 H   0  0  0  0  0  0  0  0  0  0  0  0
    4.4018    0.1595    2.0601 H   0  0  0  0  0  0  0  0  0  0  0  0
    5.9801    0.8408    2.1995 H   0  0  0  0  0  0  0  0  0  0  0  0
  1  3  1  0  0  0  0
  1  2  2  0  0  0  0
  1  5  1  0  0  0  0
  3  4  1  0  0  0  0
  4 30  1  0  0  0  0
  4 31  1  0  0  0  0
  4 32  1  0  0  0  0
  5 11  1  0  0  0  0
  6  8  1  0  0  0  0
  7 15  1  0  0  0  0
  7 14  2  0  0  0  0
  8 22  1  0  0  0  0
  8 33  1  0  0  0  0
  8 34  1  0  0  0  0
  9  6  1  0  0  0  0
  9 10  1  0  0  0  0
  9 23  1  1  0  0  0
 10 11  1  0  0  0  0
 10 35  1  0  0  0  0
 10 36  1  0  0  0  0
 11 12  1  0  0  0  0
 11 24  1  1  0  0  0
 12 13  1  0  0  0  0
 12 25  1  0  0  0  0
 12 28  1  6  0  0  0
 13  6  1  0  0  0  0
 13 37  1  0  0  0  0
 13 38  1  0  0  0  0
 14  9  1  0  0  0  0
 15 20  2  0  0  0  0
 15 16  1  0  0  0  0
 16 21  1  0  0  0  0
 17 18  2  0  0  0  0
 17 39  1  0  0  0  0
 18 19  1  0  0  0  0
 18 40  1  0  0  0  0
 19 16  2  0  0  0  0
 19 41  1  0  0  0  0
 20 17  1  0  0  0  0
 20 42  1  0  0  0  0
 21 14  1  0  0  0  0
 21 43  1  0  0  0  0
 22  7  1  0  0  0  0
 22 44  1  0  0  0  0
 22 45  1  0  0  0  0
 25 26  1  0  0  0  0
 25 46  1  6  0  0  0
 25 29  1  0  0  0  0
 26 27  1  0  0  0  0
 27  5  2  0  0  0  0
 27 47  1  0  0  0  0
 29 48  1  0  0  0  0
 29 49  1  0  0  0  0
 29 50  1  0  0  0  0
M  END
>  <DRUGBANK_ID>
DB15949

>  <COMMON_NAME>
Raubasine

>  <CAS_NUMBER>
483-04-5

>  <UNII>
4QJL8OX71Z

>  <SYNONYMS>
Ajmalicin; Circolene; delta-Yohimbine; Hydrosarpan

$$$$
