
 OpenBabel10282417143D

 29 28  0  0  0  0  0  0  0  0999 V2000
    1.4243   -0.2071    0.1778 C   0  0  0  0  0  0  0  0  0  0  0  0
    1.0391    1.1688   -0.2948 C   0  0  0  0  0  0  0  0  0  0  0  0
    1.3475    1.4349   -1.7914 C   0  0  0  0  0  0  0  0  0  0  0  0
    0.5907    0.5413   -2.7916 C   0  0  0  0  0  0  0  0  0  0  0  0
   -1.2393    0.5413   -2.7916 P   0  0  3  0  0  0  0  0  0  0  0  0
   -1.2565   -0.7973   -2.0543 O   0  0  0  0  0  0  0  0  0  0  0  0
   -1.4872    1.9895   -1.5944 C   0  0  0  0  0  0  0  0  0  0  0  0
   -2.2343    3.2225   -2.0826 C   0  0  0  0  0  0  0  0  0  0  0  0
   -3.7208    3.0479   -2.3278 C   0  0  0  0  0  0  0  0  0  0  0  0
   -4.3832    2.3957   -1.1975 N   0  0  0  0  0  0  0  0  0  0  0  0
   -2.9693    0.5413   -2.7916 O   0  0  0  0  0  0  0  0  0  0  0  0
    0.9543   -0.9738   -0.4429 H   0  0  0  0  0  0  0  0  0  0  0  0
    1.0520   -0.3505    1.1980 H   0  0  0  0  0  0  0  0  0  0  0  0
    2.5054   -0.3273    0.1632 H   0  0  0  0  0  0  0  0  0  0  0  0
   -0.0162    1.2129   -0.0322 H   0  0  0  0  0  0  0  0  0  0  0  0
    1.4956    1.9567    0.3159 H   0  0  0  0  0  0  0  0  0  0  0  0
    1.1473    2.4854   -2.0510 H   0  0  0  0  0  0  0  0  0  0  0  0
    2.4259    1.3318   -1.9473 H   0  0  0  0  0  0  0  0  0  0  0  0
    0.8890    0.8237   -3.8086 H   0  0  0  0  0  0  0  0  0  0  0  0
    0.9634   -0.4834   -2.6691 H   0  0  0  0  0  0  0  0  0  0  0  0
   -1.9416    1.5590   -0.6935 H   0  0  0  0  0  0  0  0  0  0  0  0
   -0.5793    2.4663   -1.2791 H   0  0  0  0  0  0  0  0  0  0  0  0
   -2.1057    3.9934   -1.3082 H   0  0  0  0  0  0  0  0  0  0  0  0
   -1.7348    3.5950   -2.9829 H   0  0  0  0  0  0  0  0  0  0  0  0
   -4.1745    4.0292   -2.4923 H   0  0  0  0  0  0  0  0  0  0  0  0
   -3.8848    2.4909   -3.2547 H   0  0  0  0  0  0  0  0  0  0  0  0
   -5.2931    2.0759   -1.4879 H   0  0  0  0  0  0  0  0  0  0  0  0
   -3.8830    1.5038   -1.0262 H   0  0  0  0  0  0  0  0  0  0  0  0
   -3.3088   -0.0657   -3.4781 H   0  0  0  0  0  0  0  0  0  0  0  0
  1  2  1  0  0  0  0
  1 12  1  0  0  0  0
  1 13  1  0  0  0  0
  1 14  1  0  0  0  0
  2  3  1  0  0  0  0
  2 15  1  0  0  0  0
  2 16  1  0  0  0  0
  3  4  1  0  0  0  0
  3 17  1  0  0  0  0
  3 18  1  0  0  0  0
  4  5  1  0  0  0  0
  4 19  1  0  0  0  0
  4 20  1  0  0  0  0
  5  6  2  0  0  0  0
  5  7  1  0  0  0  0
  5 11  1  0  0  0  0
  7  8  1  0  0  0  0
  7 21  1  0  0  0  0
  7 22  1  0  0  0  0
  8  9  1  0  0  0  0
  8 23  1  0  0  0  0
  8 24  1  0  0  0  0
  9 10  1  0  0  0  0
  9 25  1  0  0  0  0
  9 26  1  0  0  0  0
 10 27  1  0  0  0  0
 10 28  1  0  0  0  0
 11 29  1  0  0  0  0
M  END
>  <DRUGBANK_ID>
DB05010

>  <SECONDARY_ACCESSION_NUMBERS>
DB12646

>  <COMMON_NAME>
SGS-742

>  <CAS_NUMBER>
123690-78-8

>  <UNII>
GBZ5UC0RME

>  <SYNONYMS>
(3-Aminopropyl)(n-butyl)phosphinic acid; 3-Aminopropyl-Butyl Phosphinic Acid; SGS 742; SGS-742; SGS742

$$$$
