
 OpenBabel10282417123D

 28 27  0  0  0  0  0  0  0  0999 V2000
   -0.9497    1.3722    1.2804 P   0  0  0  0  0  0  0  0  0  0  0  0
   -0.8085    4.6847   -2.6677 O   0  0  0  0  0  0  0  0  0  0  0  0
   -1.6467    1.5198   -1.2107 O   0  0  0  0  0  0  0  0  0  0  0  0
   -0.0692    2.7080    0.9336 O   0  0  0  0  0  0  0  0  0  0  0  0
   -0.2577    1.7423   -3.8908 O   0  0  0  0  0  0  0  0  0  0  0  0
   -2.4814    3.3798   -5.8029 O   0  0  0  0  0  0  0  0  0  0  0  0
   -0.0584    0.6272    2.4139 O   0  0  0  0  0  0  0  0  0  0  0  0
    0.0491    0.5501    0.1317 O   0  0  0  0  0  0  0  0  0  0  0  0
   -1.8436    2.1079    2.3084 O   0  0  0  0  0  0  0  0  0  0  0  0
    0.7807    4.2341   -4.6251 O   0  0  0  0  0  0  0  0  0  0  0  0
   -0.4156    4.1821   -5.3643 N   0  0  0  0  0  0  0  0  0  0  0  0
   -1.5084    3.4554   -2.5137 C   0  0  2  0  0  0  0  0  0  0  0  0
   -0.8725    2.7203   -1.3519 C   0  0  1  0  0  0  0  0  0  0  0  0
   -1.4442    2.5509   -3.7920 C   0  0  1  0  0  0  0  0  0  0  0  0
   -0.7663    3.5059   -0.0380 C   0  0  0  0  0  0  0  0  0  0  0  0
   -1.4857    3.3943   -5.0604 C   0  0  0  0  0  0  0  0  0  0  0  0
   -0.4768    4.8157   -6.1487 H   0  0  0  0  0  0  0  0  0  0  0  0
   -1.0208    5.2772   -1.9251 H   0  0  0  0  0  0  0  0  0  0  0  0
   -0.9701    0.8191   -1.0646 H   0  0  0  0  0  0  0  0  0  0  0  0
   -0.1225    1.2443   -3.0712 H   0  0  0  0  0  0  0  0  0  0  0  0
   -0.5363    0.7879    3.2563 H   0  0  0  0  0  0  0  0  0  0  0  0
    0.1008   -0.3829    0.4267 H   0  0  0  0  0  0  0  0  0  0  0  0
    0.5130    3.9726   -3.7222 H   0  0  0  0  0  0  0  0  0  0  0  0
   -2.5639    3.6757   -2.3043 H   0  0  0  0  0  0  0  0  0  0  0  0
    0.1651    2.4540   -1.5945 H   0  0  0  0  0  0  0  0  0  0  0  0
   -2.2992    1.8587   -3.7905 H   0  0  0  0  0  0  0  0  0  0  0  0
   -1.7642    3.7580    0.3375 H   0  0  0  0  0  0  0  0  0  0  0  0
   -0.1960    4.4291   -0.1629 H   0  0  0  0  0  0  0  0  0  0  0  0
  1  4  1  0  0  0  0
  1  7  1  0  0  0  0
  1  8  1  0  0  0  0
  1  9  2  0  0  0  0
  2 18  1  0  0  0  0
  3 19  1  0  0  0  0
  4 15  1  0  0  0  0
  5 20  1  0  0  0  0
  6 16  2  0  0  0  0
  7 21  1  0  0  0  0
  8 22  1  0  0  0  0
 10 11  1  0  0  0  0
 10 23  1  0  0  0  0
 11 16  1  0  0  0  0
 11 17  1  0  0  0  0
 12  2  1  0  0  0  0
 12 13  1  0  0  0  0
 12 24  1  1  0  0  0
 13  3  1  0  0  0  0
 13 15  1  0  0  0  0
 13 25  1  6  0  0  0
 14 16  1  0  0  0  0
 14 26  1  1  0  0  0
 14 12  1  0  0  0  0
 14  5  1  0  0  0  0
 15 27  1  0  0  0  0
 15 28  1  0  0  0  0
M  END
>  <DRUGBANK_ID>
DB02093

>  <SECONDARY_ACCESSION_NUMBERS>
EXPT02496

>  <COMMON_NAME>
5-phospho-D-arabinohydroxamic acid

>  <SYNONYMS>
(2R,3R,4S)-2,3,4-Trihydroxy-5-(hydroxyamino)-5-oxopentyl dihydrogen phosphate

$$$$
