
 OpenBabel10282417173D

 43 42  0  0  0  0  0  0  0  0999 V2000
    0.9930    0.0683   -0.0728 C   0  0  0  0  0  0  0  0  0  0  0  0
    0.4864    1.2187   -0.9272 C   0  0  0  0  0  0  0  0  0  0  0  0
    0.9069    2.4906   -0.5660 C   0  0  0  0  0  0  0  0  0  0  0  0
    0.5955    3.5536   -1.4012 C   0  0  0  0  0  0  0  0  0  0  0  0
   -0.1141    3.3122   -2.5617 C   0  0  0  0  0  0  0  0  0  0  0  0
   -0.4950    2.0862   -2.8793 C   0  0  0  0  0  0  0  0  0  0  0  0
   -0.2193    1.0509   -2.1018 C   0  0  0  0  0  0  0  0  0  0  0  0
   -0.6696   -0.2925   -2.4935 N   0  0  0  0  0  0  0  0  0  0  0  0
   -1.4216   -0.4805   -3.7425 C   0  0  0  0  0  0  0  0  0  0  0  0
   -1.8110   -1.6419   -4.0812 O   0  0  0  0  0  0  0  0  0  0  0  0
   -1.7335    0.7142   -4.6290 C   0  0  0  0  0  0  0  0  0  0  0  0
   -2.5358    1.6879   -3.8746 N   0  0  0  0  0  0  0  0  0  0  0  0
   -2.8375    2.8433   -4.7320 C   0  0  0  0  0  0  0  0  0  0  0  0
   -3.6181    2.3796   -5.9509 C   0  0  0  0  0  0  0  0  0  0  0  0
   -4.7815    2.8403   -6.1735 O   0  0  0  0  0  0  0  0  0  0  0  0
   -3.0476    1.4316   -6.8410 O   0  0  0  0  0  0  0  0  0  0  0  0
   -3.7914    1.0578   -3.4418 C   0  0  0  0  0  0  0  0  0  0  0  0
   -4.5721    0.5941   -4.6608 C   0  0  0  0  0  0  0  0  0  0  0  0
   -4.8588   -0.6360   -4.8016 O   0  0  0  0  0  0  0  0  0  0  0  0
   -4.9811    1.5353   -5.6422 O   0  0  0  0  0  0  0  0  0  0  0  0
   -1.2680    1.8604   -4.1684 C   0  0  0  0  0  0  0  0  0  0  0  0
   -0.5616    4.8042   -3.7514 Br  0  0  0  0  0  0  0  0  0  0  0  0
    1.0294    4.9659   -1.0440 C   0  0  0  0  0  0  0  0  0  0  0  0
    1.0633    0.0415    0.0654 Tc  0  0  0  0  0  0  0  0  0  0  0  0
    0.6364   -0.8576   -0.4734 H   0  0  0  0  0  0  0  0  0  0  0  0
    0.6364    0.1842    0.9294 H   0  0  0  0  0  0  0  0  0  0  0  0
    2.0630    0.0683   -0.0728 H   0  0  0  0  0  0  0  0  0  0  0  0
    1.4592    2.6481    0.3368 H   0  0  0  0  0  0  0  0  0  0  0  0
   -0.4603   -1.0942   -1.8986 H   0  0  0  0  0  0  0  0  0  0  0  0
   -0.8196    1.1728   -4.9441 H   0  0  0  0  0  0  0  0  0  0  0  0
   -2.2831    0.3877   -5.4871 H   0  0  0  0  0  0  0  0  0  0  0  0
   -3.4214    3.5521   -4.1829 H   0  0  0  0  0  0  0  0  0  0  0  0
   -1.9235    3.3019   -5.0470 H   0  0  0  0  0  0  0  0  0  0  0  0
   -3.5612    1.1265   -7.6430 H   0  0  0  0  0  0  0  0  0  0  0  0
   -3.5718    0.2169   -2.8178 H   0  0  0  0  0  0  0  0  0  0  0  0
   -4.3754    1.7666   -2.8927 H   0  0  0  0  0  0  0  0  0  0  0  0
   -5.4947    1.2303   -6.4442 H   0  0  0  0  0  0  0  0  0  0  0  0
   -0.7213    1.1914   -4.7996 H   0  0  0  0  0  0  0  0  0  0  0  0
   -2.2236    1.4358   -3.9416 H   0  0  0  0  0  0  0  0  0  0  0  0
   -1.4033    2.7950   -4.6715 H   0  0  0  0  0  0  0  0  0  0  0  0
    1.6646    5.3496   -1.8150 H   0  0  0  0  0  0  0  0  0  0  0  0
    0.1662    5.5910   -0.9490 H   0  0  0  0  0  0  0  0  0  0  0  0
    1.5630    4.9513   -0.1167 H   0  0  0  0  0  0  0  0  0  0  0  0
  1  2  1  0  0  0  0
  1 25  1  0  0  0  0
  1 26  1  0  0  0  0
  1 27  1  0  0  0  0
  2  3  2  0  0  0  0
  2  7  1  0  0  0  0
  3  4  1  0  0  0  0
  3 28  1  0  0  0  0
  4  5  2  0  0  0  0
  4 23  1  0  0  0  0
  5  6  1  0  0  0  0
  5 22  1  0  0  0  0
  6  7  2  0  0  0  0
  6 21  1  0  0  0  0
  7  8  1  0  0  0  0
  8  9  1  0  0  0  0
  8 29  1  0  0  0  0
  9 10  2  0  0  0  0
  9 11  1  0  0  0  0
 11 12  1  0  0  0  0
 11 30  1  0  0  0  0
 11 31  1  0  0  0  0
 12 13  1  0  0  0  0
 12 17  1  0  0  0  0
 13 14  1  0  0  0  0
 13 32  1  0  0  0  0
 13 33  1  0  0  0  0
 14 15  2  0  0  0  0
 14 16  1  0  0  0  0
 16 34  1  0  0  0  0
 17 18  1  0  0  0  0
 17 35  1  0  0  0  0
 17 36  1  0  0  0  0
 18 19  2  0  0  0  0
 18 20  1  0  0  0  0
 20 37  1  0  0  0  0
 21 38  1  0  0  0  0
 21 39  1  0  0  0  0
 21 40  1  0  0  0  0
 23 41  1  0  0  0  0
 23 42  1  0  0  0  0
 23 43  1  0  0  0  0
M  END
>  <DRUGBANK_ID>
DB09137

>  <COMMON_NAME>
Technetium Tc-99m mebrofenin

>  <CAS_NUMBER>
1415247-71-0

>  <UNII>
F2NQ468L52

>  <SYNONYMS>
Bis(2-[[2-(3-bromo-2,4,6-trimethylanilino)-2-oxoethyl]-(carboxymethyl)amino]acetate) technetium; Technetium (99mTc) mebrofenin; Technetium Tc 99m diisopropyl-iminodiacetic acid; Technetium Tc 99m DISIDA; Technetium Tc 99m Mebrofenin

$$$$
