
 OpenBabel10282417183D

 40 32  0  0  0  0  0  0  0  0999 V2000
    1.0660    0.0417   -0.0625 C   0  0  0  0  0  0  0  0  0  0  0  0
    1.0660   -0.2638    2.4008 C   0  0  0  0  0  0  0  0  0  0  0  0
    0.5594   -0.5166   -1.3823 C   0  0  0  0  0  0  0  0  0  0  0  0
    0.5594    1.1584    2.5772 C   0  0  0  0  0  0  0  0  0  0  0  0
   -0.9606   -0.8221    1.0810 C   0  0  0  0  0  0  0  0  0  0  0  0
    0.5594   -0.8221    1.0810 C   0  0  0  0  0  0  0  0  0  0  0  0
   -0.1713   -1.5564   -1.3937 O   0  0  0  0  0  0  0  0  0  0  0  0
    0.9024    0.1236   -2.6025 O   0  5  0  0  0  0  0  0  0  0  0  0
   -0.1713    1.4536    3.5743 O   0  0  0  0  0  0  0  0  0  0  0  0
    0.9024    2.1572    1.6279 O   0  5  0  0  0  0  0  0  0  0  0  0
   -1.5961   -1.9144    0.9455 O   0  0  0  0  0  0  0  0  0  0  0  0
   -1.6706    0.3983    1.2324 O   0  5  0  0  0  0  0  0  0  0  0  0
    1.0327   -2.1507    0.9162 O   0  5  0  0  0  0  0  0  0  0  0  0
    1.0750   -0.0625    0.0214 C   0  0  0  0  0  0  0  0  0  0  0  0
    1.0750   -2.5188   -0.3361 C   0  0  0  0  0  0  0  0  0  0  0  0
    0.5684    1.2688   -0.5089 C   0  0  0  0  0  0  0  0  0  0  0  0
    0.5684   -2.7252    1.0820 C   0  0  0  0  0  0  0  0  0  0  0  0
   -0.9516   -1.1874   -0.8664 C   0  0  0  0  0  0  0  0  0  0  0  0
    0.5684   -1.1874   -0.8664 C   0  0  0  0  0  0  0  0  0  0  0  0
   -0.1623    1.3023   -1.5482 O   0  0  0  0  0  0  0  0  0  0  0  0
    0.9114    2.4752    0.1570 O   0  5  0  0  0  0  0  0  0  0  0  0
   -0.1623   -3.7283    1.3560 O   0  0  0  0  0  0  0  0  0  0  0  0
    0.9114   -1.7973    2.1007 O   0  5  0  0  0  0  0  0  0  0  0  0
   -1.5871   -1.0289   -1.9555 O   0  0  0  0  0  0  0  0  0  0  0  0
   -1.6616   -1.3646    0.3505 O   0  5  0  0  0  0  0  0  0  0  0  0
    1.0417   -0.9946   -2.1912 O   0  5  0  0  0  0  0  0  0  0  0  0
    1.0474    0.0456   -0.0753 Bi  0  1  0  0  0  0  0  0  0  0  0  0
    0.9111   -0.0254   -0.0381 K   0  3  0  0  0  0  0  0  0  0  0  0
    1.0434   -0.0355   -0.0828 K   0  3  0  0  0  0  0  0  0  0  0  0
    1.0442    0.0620    0.0648 K   0  3  0  0  0  0  0  0  0  0  0  0
    0.9805    0.0387    0.0901 K   0  3  0  0  0  0  0  0  0  0  0  0
    0.9278    0.0673   -0.0157 K   0  3  0  0  0  0  0  0  0  0  0  0
    0.7094    1.0428    0.0617 H   0  0  0  0  0  0  0  0  0  0  0  0
    2.1360    0.0417   -0.0625 H   0  0  0  0  0  0  0  0  0  0  0  0
    0.7094   -0.8719    3.2057 H   0  0  0  0  0  0  0  0  0  0  0  0
    2.1360   -0.2638    2.4008 H   0  0  0  0  0  0  0  0  0  0  0  0
    0.7184   -0.2078    1.0197 H   0  0  0  0  0  0  0  0  0  0  0  0
    2.1450   -0.0625    0.0214 H   0  0  0  0  0  0  0  0  0  0  0  0
    0.7184   -3.3107   -0.9611 H   0  0  0  0  0  0  0  0  0  0  0  0
    2.1450   -2.5188   -0.3361 H   0  0  0  0  0  0  0  0  0  0  0  0
  1 33  1  0  0  0  0
  1 34  1  0  0  0  0
  2 35  1  0  0  0  0
  2 36  1  0  0  0  0
  3  1  1  0  0  0  0
  4  2  1  0  0  0  0
  6  1  1  0  0  0  0
  6  2  1  0  0  0  0
  6  5  1  0  0  0  0
  7  3  2  0  0  0  0
  8  3  1  0  0  0  0
  9  4  2  0  0  0  0
 10  4  1  0  0  0  0
 11  5  2  0  0  0  0
 12  5  1  0  0  0  0
 13  6  1  0  0  0  0
 14 37  1  0  0  0  0
 14 38  1  0  0  0  0
 15 39  1  0  0  0  0
 15 40  1  0  0  0  0
 16 14  1  0  0  0  0
 17 15  1  0  0  0  0
 19 14  1  0  0  0  0
 19 15  1  0  0  0  0
 19 18  1  0  0  0  0
 20 16  2  0  0  0  0
 21 16  1  0  0  0  0
 22 17  2  0  0  0  0
 23 17  1  0  0  0  0
 24 18  2  0  0  0  0
 25 18  1  0  0  0  0
 26 19  1  0  0  0  0
M  CHG  8   8  -1  10  -1  12  -1  13  -1  21  -1  23  -1  25  -1  26  -1
M  CHG  6  27   3  28   1  29   1  30   1  31   1  32   1
M  END
>  <DRUGBANK_ID>
DB09275

>  <SECONDARY_ACCESSION_NUMBERS>
DBSALT001961

>  <COMMON_NAME>
Bismuth subcitrate potassium

>  <CAS_NUMBER>
880149-29-1

>  <UNII>
BQE6KE1T4H

>  <SYNONYMS>
Bismuth subcitrate potassium anhydrous

$$$$
