
 OpenBabel10282417183D

 52 56  0  0  0  0  0  0  0  0999 V2000
    1.0293    0.2742    0.0959 C   0  0  0  0  0  0  0  0  0  0  0  0
    0.4297    1.6066    0.3717 C   0  0  0  0  0  0  0  0  0  0  0  0
   -0.8992    1.9817    0.3722 C   0  0  0  0  0  0  0  0  0  0  0  0
   -0.9527    3.3968    0.3215 C   0  0  0  0  0  0  0  0  0  0  0  0
    0.3537    3.8526    0.5040 C   0  0  0  0  0  0  0  0  0  0  0  0
    1.1574    2.7419    0.6436 N   0  0  0  0  0  0  0  0  0  0  0  0
    0.6746    5.2054    0.5378 C   0  0  0  0  0  0  0  0  0  0  0  0
   -0.3869    6.1008    0.4538 C   0  0  0  0  0  0  0  0  0  0  0  0
   -1.6959    5.6889    0.1640 C   0  0  0  0  0  0  0  0  0  0  0  0
   -1.9853    4.3281    0.1089 C   0  0  0  0  0  0  0  0  0  0  0  0
   -3.2277    3.9061   -0.1767 F   0  0  0  0  0  0  0  0  0  0  0  0
   -2.7226    6.5624   -0.1139 O   0  0  0  0  0  0  0  0  0  0  0  0
   -2.3949    7.8616   -0.4652 C   0  0  0  0  0  0  0  0  0  0  0  0
   -3.0472    8.8529    0.2330 C   0  0  0  0  0  0  0  0  0  0  0  0
   -2.5315   10.0963   -0.0145 C   0  0  0  0  0  0  0  0  0  0  0  0
   -1.9069   10.3623   -1.2212 N   0  0  0  0  0  0  0  0  0  0  0  0
   -1.5234    9.3049   -2.1298 C   0  0  0  0  0  0  0  0  0  0  0  0
   -1.3840    8.1485   -1.4415 C   0  0  0  0  0  0  0  0  0  0  0  0
   -0.3167    7.3612   -1.9699 C   0  0  0  0  0  0  0  0  0  0  0  0
    0.5675    7.8158   -2.9757 C   0  0  0  0  0  0  0  0  0  0  0  0
   -0.1871    7.7520   -4.0467 C   0  0  0  0  0  0  0  0  0  0  0  0
   -1.1675    8.8510   -3.6373 C   0  0  0  0  0  0  0  0  0  0  0  0
   -0.3363    6.3211   -4.2900 O   0  0  0  0  0  0  0  0  0  0  0  0
    0.8477    5.3816   -4.6738 C   0  0  0  0  0  0  0  0  0  0  0  0
    0.6919    5.1475   -6.1696 C   0  0  0  0  0  0  0  0  0  0  0  0
    1.7784    5.1016   -7.2489 C   0  0  0  0  0  0  0  0  0  0  0  0
    1.1028    6.3857   -6.9133 C   0  0  0  0  0  0  0  0  0  0  0  0
   -0.5031    4.3337   -6.4520 N   0  0  0  0  0  0  0  0  0  0  0  0
    1.3358    8.9805   -2.8639 O   0  0  0  0  0  0  0  0  0  0  0  0
    1.6043    9.6970   -4.1198 C   0  0  0  0  0  0  0  0  0  0  0  0
    0.7067   -0.0586   -0.8994 H   0  0  0  0  0  0  0  0  0  0  0  0
    0.6886   -0.4753    0.8155 H   0  0  0  0  0  0  0  0  0  0  0  0
    2.1233    0.2875    0.0898 H   0  0  0  0  0  0  0  0  0  0  0  0
   -1.7498    1.3198    0.2926 H   0  0  0  0  0  0  0  0  0  0  0  0
    2.1428    2.7849    0.8690 H   0  0  0  0  0  0  0  0  0  0  0  0
    1.6903    5.5795    0.6112 H   0  0  0  0  0  0  0  0  0  0  0  0
   -0.1250    7.1575    0.4795 H   0  0  0  0  0  0  0  0  0  0  0  0
   -3.7872    8.6519    1.0014 H   0  0  0  0  0  0  0  0  0  0  0  0
   -2.6371   10.8740    0.7493 H   0  0  0  0  0  0  0  0  0  0  0  0
   -0.8006    6.3636   -2.1279 H   0  0  0  0  0  0  0  0  0  0  0  0
   -1.1354    9.7919   -4.2285 H   0  0  0  0  0  0  0  0  0  0  0  0
    1.8980    5.5993   -4.3770 H   0  0  0  0  0  0  0  0  0  0  0  0
    0.6755    4.3804   -4.2189 H   0  0  0  0  0  0  0  0  0  0  0  0
    2.8200    4.9676   -6.9868 H   0  0  0  0  0  0  0  0  0  0  0  0
    1.5471    4.7112   -8.2400 H   0  0  0  0  0  0  0  0  0  0  0  0
    0.3955    6.8453   -7.5837 H   0  0  0  0  0  0  0  0  0  0  0  0
    1.7000    7.1070   -6.3551 H   0  0  0  0  0  0  0  0  0  0  0  0
   -1.2112    4.5483   -5.7424 H   0  0  0  0  0  0  0  0  0  0  0  0
   -0.9322    4.4822   -7.3571 H   0  0  0  0  0  0  0  0  0  0  0  0
    2.6512    9.5713   -4.3937 H   0  0  0  0  0  0  0  0  0  0  0  0
    1.0217    9.4064   -5.0122 H   0  0  0  0  0  0  0  0  0  0  0  0
    1.3758   10.7605   -3.9742 H   0  0  0  0  0  0  0  0  0  0  0  0
  1  2  1  0  0  0  0
  1 31  1  0  0  0  0
  1 32  1  0  0  0  0
  1 33  1  0  0  0  0
  2  3  2  0  0  0  0
  2  6  1  0  0  0  0
  3  4  1  0  0  0  0
  3 34  1  0  0  0  0
  4  5  1  0  0  0  0
  4 10  2  0  0  0  0
  5  6  1  0  0  0  0
  5  7  2  0  0  0  0
  6 35  1  0  0  0  0
  7  8  1  0  0  0  0
  7 36  1  0  0  0  0
  8  9  2  0  0  0  0
  8 37  1  0  0  0  0
  9 10  1  0  0  0  0
  9 12  1  0  0  0  0
 10 11  1  0  0  0  0
 12 13  1  0  0  0  0
 13 14  1  0  0  0  0
 13 18  2  0  0  0  0
 14 15  2  0  0  0  0
 14 38  1  0  0  0  0
 15 16  1  0  0  0  0
 15 39  1  0  0  0  0
 16 17  2  0  0  0  0
 17 18  1  0  0  0  0
 17 22  1  0  0  0  0
 18 19  1  0  0  0  0
 19 20  2  0  0  0  0
 19 40  1  0  0  0  0
 20 21  1  0  0  0  0
 20 29  1  0  0  0  0
 21 22  2  0  0  0  0
 21 23  1  0  0  0  0
 22 41  1  0  0  0  0
 23 24  1  0  0  0  0
 24 25  1  0  0  0  0
 24 42  1  0  0  0  0
 24 43  1  0  0  0  0
 25 26  1  0  0  0  0
 25 27  1  0  0  0  0
 25 28  1  0  0  0  0
 26 27  1  0  0  0  0
 26 44  1  0  0  0  0
 26 45  1  0  0  0  0
 27 46  1  0  0  0  0
 27 47  1  0  0  0  0
 28 48  1  0  0  0  0
 28 49  1  0  0  0  0
 29 30  1  0  0  0  0
 30 50  1  0  0  0  0
 30 51  1  0  0  0  0
 30 52  1  0  0  0  0
M  END
>  <DRUGBANK_ID>
DB11885

>  <COMMON_NAME>
Anlotinib

>  <CAS_NUMBER>
1058156-90-3

>  <UNII>
GKF8S4C432

>  <SYNONYMS>
1-((4-(4-fluoro-2-methyl-1h-indol-5-yloxy)-6-methoxyquinolin-7-yloxy)methyl)cyclopropan-amine; Catequentinib

$$$$
