
 OpenBabel10282417213D

 35 36  0  0  0  0  0  0  0  0999 V2000
    0.7477   -0.0562   -0.0802 C   0  0  0  0  0  0  0  0  0  0  0  0
    0.5158    1.2713    0.3948 O   0  0  0  0  0  0  0  0  0  0  0  0
    0.9630    1.5041    1.6741 C   0  0  0  0  0  0  0  0  0  0  0  0
   -0.0199    1.9513    2.5573 C   0  0  0  0  0  0  0  0  0  0  0  0
    0.2089    2.3017    3.8963 C   0  0  0  0  0  0  0  0  0  0  0  0
    1.5313    2.1571    4.3295 C   0  0  0  0  0  0  0  0  0  0  0  0
    2.5763    1.7661    3.4377 C   0  0  0  0  0  0  0  0  0  0  0  0
    2.2907    1.4952    2.0769 C   0  0  0  0  0  0  0  0  0  0  0  0
    3.5748    1.3587    0.6502 Br  0  0  0  0  0  0  0  0  0  0  0  0
    3.7932    1.7277    4.0789 O   0  0  0  0  0  0  0  0  0  0  0  0
    4.9060    1.2840    3.3231 C   0  0  0  0  0  0  0  0  0  0  0  0
   -0.9158    2.7724    4.8342 C   0  0  0  0  0  0  0  0  0  0  0  0
   -1.6668    4.0129    4.4070 C   0  0  0  0  0  0  0  0  0  0  0  0
   -1.6459    5.1878    5.1382 C   0  0  0  0  0  0  0  0  0  0  0  0
   -2.2195    6.3392    4.7369 N   0  0  0  0  0  0  0  0  0  0  0  0
   -2.7986    6.3249    3.5320 C   0  0  0  0  0  0  0  0  0  0  0  0
   -2.9101    5.2387    2.7681 N   0  0  0  0  0  0  0  0  0  0  0  0
   -2.4276    4.0950    3.2534 C   0  0  0  0  0  0  0  0  0  0  0  0
   -2.8773    2.9785    2.5818 N   0  0  0  0  0  0  0  0  0  0  0  0
   -3.3446    7.4662    3.0448 N   0  0  0  0  0  0  0  0  0  0  0  0
    0.2495   -0.1477   -1.0493 H   0  0  0  0  0  0  0  0  0  0  0  0
    0.3526   -0.8135    0.6029 H   0  0  0  0  0  0  0  0  0  0  0  0
    1.7984   -0.2644   -0.2765 H   0  0  0  0  0  0  0  0  0  0  0  0
   -0.9722    2.0548    2.0785 H   0  0  0  0  0  0  0  0  0  0  0  0
    1.7862    2.3848    5.3663 H   0  0  0  0  0  0  0  0  0  0  0  0
    4.7271    0.2790    2.9215 H   0  0  0  0  0  0  0  0  0  0  0  0
    5.1458    2.0290    2.5604 H   0  0  0  0  0  0  0  0  0  0  0  0
    5.7917    1.2258    3.9545 H   0  0  0  0  0  0  0  0  0  0  0  0
   -1.6353    1.9541    4.9726 H   0  0  0  0  0  0  0  0  0  0  0  0
   -0.4993    2.9420    5.8391 H   0  0  0  0  0  0  0  0  0  0  0  0
   -1.1690    5.2489    6.1138 H   0  0  0  0  0  0  0  0  0  0  0  0
   -3.0394    3.1530    1.5967 H   0  0  0  0  0  0  0  0  0  0  0  0
   -2.6118    2.0578    2.8851 H   0  0  0  0  0  0  0  0  0  0  0  0
   -3.7774    7.4109    2.1372 H   0  0  0  0  0  0  0  0  0  0  0  0
   -3.3644    8.2836    3.6290 H   0  0  0  0  0  0  0  0  0  0  0  0
  1  2  1  0  0  0  0
  1 21  1  0  0  0  0
  1 22  1  0  0  0  0
  1 23  1  0  0  0  0
  2  3  1  0  0  0  0
  3  4  2  0  0  0  0
  3  8  1  0  0  0  0
  4  5  1  0  0  0  0
  4 24  1  0  0  0  0
  5  6  2  0  0  0  0
  5 12  1  0  0  0  0
  6  7  1  0  0  0  0
  6 25  1  0  0  0  0
  7  8  2  0  0  0  0
  7 10  1  0  0  0  0
  8  9  1  0  0  0  0
 10 11  1  0  0  0  0
 11 26  1  0  0  0  0
 11 27  1  0  0  0  0
 11 28  1  0  0  0  0
 12 13  1  0  0  0  0
 12 29  1  0  0  0  0
 12 30  1  0  0  0  0
 13 14  2  0  0  0  0
 13 18  1  0  0  0  0
 14 15  1  0  0  0  0
 14 31  1  0  0  0  0
 15 16  2  0  0  0  0
 16 17  1  0  0  0  0
 16 20  1  0  0  0  0
 17 18  2  0  0  0  0
 18 19  1  0  0  0  0
 19 32  1  0  0  0  0
 19 33  1  0  0  0  0
 20 34  1  0  0  0  0
 20 35  1  0  0  0  0
M  END
>  <DRUGBANK_ID>
DB13795

>  <COMMON_NAME>
Brodimoprim

>  <CAS_NUMBER>
56518-41-3

>  <UNII>
V1YC7T6LLI

>  <SYNONYMS>
2,4-diamino-5-(4-bromo-3,5-dimethoxybenzyl)pyrimidine; Brodimoprim; Brodimoprima; Brodimoprime; Brodimoprimum

$$$$
