
 OpenBabel10282417123D

 58 60  0  0  0  0  0  0  0  0999 V2000
   -4.0838   -1.3111   -1.3108 O   0  0  0  0  0  0  0  0  0  0  0  0
   -4.5065   -3.5702   -1.9735 O   0  0  0  0  0  0  0  0  0  0  0  0
   -2.8235   -2.5049    2.3950 O   0  0  0  0  0  0  0  0  0  0  0  0
   -4.7823    1.0739   -1.9257 O   0  0  0  0  0  0  0  0  0  0  0  0
   -1.8720    2.3701   -0.1015 O   0  0  0  0  0  0  0  0  0  0  0  0
   -1.2134   -3.4865   -1.5573 O   0  0  0  0  0  0  0  0  0  0  0  0
   -2.1153   -2.3795   -3.2603 O   0  0  0  0  0  0  0  0  0  0  0  0
   -3.1525    4.7968   -1.0876 O   0  0  0  0  0  0  0  0  0  0  0  0
    0.3043    0.1374    1.8793 O   0  0  0  0  0  0  0  0  0  0  0  0
   -8.6533   -1.3687   -0.9838 O   0  0  0  0  0  0  0  0  0  0  0  0
  -10.6225   -0.3155   -0.4952 O   0  0  0  0  0  0  0  0  0  0  0  0
   -1.8846    0.0668    1.3486 N   0  0  0  0  0  0  0  0  0  0  0  0
   -2.9467   -0.7122    0.7476 C   0  0  1  0  0  0  0  0  0  0  0  0
   -3.2040   -0.3273   -0.7289 C   0  0  2  0  0  0  0  0  0  0  0  0
   -2.6370   -2.2074    1.0070 C   0  0  2  0  0  0  0  0  0  0  0  0
   -3.4731   -3.1398    0.1684 C   0  0  0  0  0  0  0  0  0  0  0  0
   -3.5905   -2.6639   -1.2850 C   0  0  2  0  0  0  0  0  0  0  0  0
   -3.8584    1.0867   -0.8319 C   0  0  1  0  0  0  0  0  0  0  0  0
   -2.9529    2.3362   -1.0287 C   0  0  1  0  0  0  0  0  0  0  0  0
   -2.2626   -2.8459   -2.1332 C   0  0  0  0  0  0  0  0  0  0  0  0
   -3.8554    3.5798   -0.8546 C   0  0  0  0  0  0  0  0  0  0  0  0
   -0.5604   -0.0831    1.0263 C   0  0  0  0  0  0  0  0  0  0  0  0
   -5.7978   -3.5907   -1.5154 C   0  0  0  0  0  0  0  0  0  0  0  0
   -0.1996   -0.5629   -0.3615 C   0  0  0  0  0  0  0  0  0  0  0  0
   -6.6178   -2.4702   -1.5013 C   0  0  0  0  0  0  0  0  0  0  0  0
   -6.3115   -4.8142   -1.0869 C   0  0  0  0  0  0  0  0  0  0  0  0
   -7.9138   -2.5660   -0.9999 C   0  0  0  0  0  0  0  0  0  0  0  0
   -8.4492   -3.7692   -0.5464 C   0  0  0  0  0  0  0  0  0  0  0  0
   -7.6247   -4.9011   -0.5963 C   0  0  0  0  0  0  0  0  0  0  0  0
   -9.8423   -3.7792   -0.0801 C   0  0  0  0  0  0  0  0  0  0  0  0
  -10.5291   -2.6266   -0.0922 C   0  0  0  0  0  0  0  0  0  0  0  0
   -9.9594   -1.3441   -0.5332 C   0  0  0  0  0  0  0  0  0  0  0  0
  -10.4777   -5.0575    0.3759 C   0  0  0  0  0  0  0  0  0  0  0  0
   -2.3383   -0.3012   -1.3811 H   0  0  0  0  0  0  0  0  0  0  0  0
   -2.0532    0.4176    2.2851 H   0  0  0  0  0  0  0  0  0  0  0  0
   -2.3194   -3.3089    2.6166 H   0  0  0  0  0  0  0  0  0  0  0  0
   -5.0445    0.1397   -2.0208 H   0  0  0  0  0  0  0  0  0  0  0  0
   -1.6229    3.2892    0.0836 H   0  0  0  0  0  0  0  0  0  0  0  0
   -1.2273   -3.7620   -0.6256 H   0  0  0  0  0  0  0  0  0  0  0  0
   -2.4846    4.9174   -0.3977 H   0  0  0  0  0  0  0  0  0  0  0  0
   -3.8686   -0.4999    1.3112 H   0  0  0  0  0  0  0  0  0  0  0  0
   -1.5849   -2.4278    0.8345 H   0  0  0  0  0  0  0  0  0  0  0  0
   -3.0791   -4.1633    0.2192 H   0  0  0  0  0  0  0  0  0  0  0  0
   -4.4592   -3.2051    0.6417 H   0  0  0  0  0  0  0  0  0  0  0  0
   -4.4442    1.2515    0.0795 H   0  0  0  0  0  0  0  0  0  0  0  0
   -2.5190    2.3609   -2.0373 H   0  0  0  0  0  0  0  0  0  0  0  0
   -4.6925    3.5507   -1.5590 H   0  0  0  0  0  0  0  0  0  0  0  0
   -4.2666    3.6104    0.1610 H   0  0  0  0  0  0  0  0  0  0  0  0
   -0.7997   -1.4157   -0.6427 H   0  0  0  0  0  0  0  0  0  0  0  0
   -0.3590    0.2181   -1.1076 H   0  0  0  0  0  0  0  0  0  0  0  0
    0.8251   -0.9248   -0.4080 H   0  0  0  0  0  0  0  0  0  0  0  0
   -6.2901   -1.5164   -1.8894 H   0  0  0  0  0  0  0  0  0  0  0  0
   -5.6931   -5.7077   -1.1251 H   0  0  0  0  0  0  0  0  0  0  0  0
   -7.9845   -5.8714   -0.2636 H   0  0  0  0  0  0  0  0  0  0  0  0
  -11.5640   -2.5700    0.2263 H   0  0  0  0  0  0  0  0  0  0  0  0
  -10.4851   -5.7964   -0.4322 H   0  0  0  0  0  0  0  0  0  0  0  0
   -9.9414   -5.4730    1.2351 H   0  0  0  0  0  0  0  0  0  0  0  0
  -11.5179   -4.9051    0.6852 H   0  0  0  0  0  0  0  0  0  0  0  0
  1 14  1  0  0  0  0
  1 17  1  0  0  0  0
  2 23  1  0  0  0  0
  3 36  1  0  0  0  0
  4 37  1  0  0  0  0
  5 38  1  0  0  0  0
  6 20  1  0  0  0  0
  6 39  1  0  0  0  0
  7 20  2  0  0  0  0
  8 21  1  0  0  0  0
  8 40  1  0  0  0  0
  9 22  2  0  0  0  0
 10 27  1  0  0  0  0
 10 32  1  0  0  0  0
 11 32  2  0  0  0  0
 12 22  1  0  0  0  0
 12 35  1  0  0  0  0
 13 14  1  0  0  0  0
 13 15  1  0  0  0  0
 13 41  1  1  0  0  0
 13 12  1  0  0  0  0
 14 34  1  6  0  0  0
 15 16  1  0  0  0  0
 15 42  1  6  0  0  0
 15  3  1  0  0  0  0
 16 17  1  0  0  0  0
 16 43  1  0  0  0  0
 16 44  1  0  0  0  0
 17  2  1  6  0  0  0
 17 20  1  0  0  0  0
 18 45  1  1  0  0  0
 18 14  1  0  0  0  0
 18  4  1  0  0  0  0
 19 21  1  0  0  0  0
 19 46  1  6  0  0  0
 19 18  1  0  0  0  0
 19  5  1  0  0  0  0
 21 47  1  0  0  0  0
 21 48  1  0  0  0  0
 22 24  1  0  0  0  0
 23 25  2  0  0  0  0
 23 26  1  0  0  0  0
 24 49  1  0  0  0  0
 24 50  1  0  0  0  0
 24 51  1  0  0  0  0
 25 27  1  0  0  0  0
 25 52  1  0  0  0  0
 26 29  2  0  0  0  0
 26 53  1  0  0  0  0
 27 28  2  0  0  0  0
 28 29  1  0  0  0  0
 28 30  1  0  0  0  0
 29 54  1  0  0  0  0
 30 31  2  0  0  0  0
 30 33  1  0  0  0  0
 31 32  1  0  0  0  0
 31 55  1  0  0  0  0
 33 56  1  0  0  0  0
 33 57  1  0  0  0  0
 33 58  1  0  0  0  0
M  END
>  <DRUGBANK_ID>
DB01768

>  <SECONDARY_ACCESSION_NUMBERS>
EXPT02257

>  <COMMON_NAME>
Methylumbelliferyl sialic acid

>  <CAS_NUMBER>
59322-44-0

$$$$
