
 OpenBabel10282417123D

 55 57  0  0  0  0  0  0  0  0999 V2000
   -0.9081   -1.4471   -0.0226 N   0  0  0  0  0  0  0  0  0  0  0  0
    0.3244   -0.8504    0.0279 C   0  0  0  0  0  0  0  0  0  0  0  0
    0.4960    0.4959    0.1116 C   0  0  0  0  0  0  0  0  0  0  0  0
    1.7506    1.1002    0.1796 N   0  0  0  0  0  0  0  0  0  0  0  0
    1.4636   -1.6488   -0.0316 N   0  0  0  0  0  0  0  0  0  0  0  0
   -1.8975    0.6663    0.0315 N   0  0  0  0  0  0  0  0  0  0  0  0
    2.8073   -1.1052    0.1504 C   0  0  0  0  0  0  0  0  0  0  0  0
    2.8786    0.3540   -0.3885 C   0  0  2  0  0  0  0  0  0  0  0  0
    4.2095    1.0129   -0.0264 C   0  0  0  0  0  0  0  0  0  0  0  0
    5.2960    0.2737   -0.6476 N   0  0  0  0  0  0  0  0  0  0  0  0
    6.2477    0.8862   -1.4297 C   0  0  0  0  0  0  0  0  0  0  0  0
    7.6806    2.7659   -1.9773 C   0  0  0  0  0  0  0  0  0  0  0  0
    6.7362    2.1587   -1.1461 C   0  0  0  0  0  0  0  0  0  0  0  0
    6.7224    0.2314   -2.5688 C   0  0  0  0  0  0  0  0  0  0  0  0
    7.6987    0.8155   -3.3865 C   0  0  0  0  0  0  0  0  0  0  0  0
    8.1535    2.1120   -3.1235 C   0  0  0  0  0  0  0  0  0  0  0  0
    9.0768    2.8690   -4.0301 C   0  0  0  0  0  0  0  0  0  0  0  0
    9.4114    4.0168   -3.7511 O   0  0  0  0  0  0  0  0  0  0  0  0
    9.5057    2.2544   -5.1882 N   0  0  0  0  0  0  0  0  0  0  0  0
   11.6792    0.4986   -9.3288 O   0  0  0  0  0  0  0  0  0  0  0  0
   10.3431    2.9435   -6.1763 C   0  0  2  0  0  0  0  0  0  0  0  0
    9.7269    4.4951   -7.9930 O   0  0  0  0  0  0  0  0  0  0  0  0
    9.5138    3.2775   -7.4451 C   0  0  0  0  0  0  0  0  0  0  0  0
    8.7293    2.5213   -7.9760 O   0  0  0  0  0  0  0  0  0  0  0  0
   11.6115    2.1003   -6.4333 C   0  0  0  0  0  0  0  0  0  0  0  0
   11.4083    0.6550   -6.9212 C   0  0  0  0  0  0  0  0  0  0  0  0
   10.9521    0.4929   -8.3481 C   0  0  0  0  0  0  0  0  0  0  0  0
    9.6175    0.3839   -8.4339 O   0  0  0  0  0  0  0  0  0  0  0  0
   -0.7213    1.3450    0.0902 C   0  0  0  0  0  0  0  0  0  0  0  0
   -0.6634    2.5727    0.0986 O   0  0  0  0  0  0  0  0  0  0  0  0
   -1.9551   -0.6888   -0.0325 C   0  0  0  0  0  0  0  0  0  0  0  0
   -3.1876   -1.2283   -0.1153 N   0  0  0  0  0  0  0  0  0  0  0  0
    1.7446    2.1169    0.2006 H   0  0  0  0  0  0  0  0  0  0  0  0
    1.2891   -2.6303    0.1425 H   0  0  0  0  0  0  0  0  0  0  0  0
   -2.7318    1.2241    0.0032 H   0  0  0  0  0  0  0  0  0  0  0  0
    3.0660   -1.1116    1.2168 H   0  0  0  0  0  0  0  0  0  0  0  0
    3.5185   -1.7491   -0.3752 H   0  0  0  0  0  0  0  0  0  0  0  0
    2.7773    0.3286   -1.4853 H   0  0  0  0  0  0  0  0  0  0  0  0
    4.1716    2.0508   -0.3831 H   0  0  0  0  0  0  0  0  0  0  0  0
    4.3377    1.0553    1.0609 H   0  0  0  0  0  0  0  0  0  0  0  0
    5.4808   -0.6787   -0.3514 H   0  0  0  0  0  0  0  0  0  0  0  0
    8.0382    3.7593   -1.7160 H   0  0  0  0  0  0  0  0  0  0  0  0
    6.3949    2.6888   -0.2609 H   0  0  0  0  0  0  0  0  0  0  0  0
    6.2965   -0.7286   -2.8579 H   0  0  0  0  0  0  0  0  0  0  0  0
    8.0665    0.2304   -4.2203 H   0  0  0  0  0  0  0  0  0  0  0  0
    9.1168    1.3657   -5.4704 H   0  0  0  0  0  0  0  0  0  0  0  0
   10.6625    3.9014   -5.7472 H   0  0  0  0  0  0  0  0  0  0  0  0
   10.0119    5.1877   -7.3711 H   0  0  0  0  0  0  0  0  0  0  0  0
   12.2983    2.6353   -7.0991 H   0  0  0  0  0  0  0  0  0  0  0  0
   12.1370    2.0190   -5.4667 H   0  0  0  0  0  0  0  0  0  0  0  0
   12.3699    0.1322   -6.8641 H   0  0  0  0  0  0  0  0  0  0  0  0
   10.7387    0.0983   -6.2572 H   0  0  0  0  0  0  0  0  0  0  0  0
    9.2815    1.1270   -8.9998 H   0  0  0  0  0  0  0  0  0  0  0  0
   -4.0330   -0.6868   -0.0428 H   0  0  0  0  0  0  0  0  0  0  0  0
   -3.2533   -2.2382   -0.1191 H   0  0  0  0  0  0  0  0  0  0  0  0
  1  2  1  0  0  0  0
  2  3  2  0  0  0  0
  2  5  1  0  0  0  0
  3  4  1  0  0  0  0
  3 29  1  0  0  0  0
  4  8  1  0  0  0  0
  4 33  1  0  0  0  0
  5 34  1  0  0  0  0
  6 35  1  0  0  0  0
  7  5  1  0  0  0  0
  7  8  1  0  0  0  0
  7 36  1  0  0  0  0
  7 37  1  0  0  0  0
  8  9  1  0  0  0  0
  8 38  1  6  0  0  0
  9 10  1  0  0  0  0
  9 39  1  0  0  0  0
  9 40  1  0  0  0  0
 10 11  1  0  0  0  0
 10 41  1  0  0  0  0
 11 14  1  0  0  0  0
 12 13  1  0  0  0  0
 12 16  2  0  0  0  0
 12 42  1  0  0  0  0
 13 11  2  0  0  0  0
 13 43  1  0  0  0  0
 14 15  2  0  0  0  0
 14 44  1  0  0  0  0
 15 16  1  0  0  0  0
 15 45  1  0  0  0  0
 16 17  1  0  0  0  0
 17 19  1  0  0  0  0
 17 18  2  0  0  0  0
 19 46  1  0  0  0  0
 21 19  1  0  0  0  0
 21 25  1  0  0  0  0
 21 23  1  0  0  0  0
 21 47  1  1  0  0  0
 22 48  1  0  0  0  0
 23 22  1  0  0  0  0
 23 24  2  0  0  0  0
 25 26  1  0  0  0  0
 25 49  1  0  0  0  0
 25 50  1  0  0  0  0
 26 27  1  0  0  0  0
 26 51  1  0  0  0  0
 26 52  1  0  0  0  0
 27 20  2  0  0  0  0
 27 28  1  0  0  0  0
 28 53  1  0  0  0  0
 29  6  1  0  0  0  0
 29 30  2  0  0  0  0
 31  1  2  0  0  0  0
 31  6  1  0  0  0  0
 31 32  1  0  0  0  0
 32 54  1  0  0  0  0
 32 55  1  0  0  0  0
M  END
>  <DRUGBANK_ID>
DB02031

>  <SECONDARY_ACCESSION_NUMBERS>
EXPT03050

>  <COMMON_NAME>
(6S)-5,6,7,8-tetrahydrofolic acid

>  <CAS_NUMBER>
135-16-0

>  <SYNONYMS>
(6S)-5,6,7,8-tetrahydrofolate; (6S)-5,6,7,8-tetrahydropteroylglutamate; (6S)-H4folate; (6S)-tetrahydrofolate; (6S)-Tetrahydrofolic acid; (6S)-THFA

$$$$
