
 OpenBabel10282417133D

 46 47  0  0  0  0  0  0  0  0999 V2000
    0.8736   -5.0614   -2.0448 S   0  0  0  0  0  0  0  0  0  0  0  0
    1.4820   -2.1605    2.0729 O   0  0  0  0  0  0  0  0  0  0  0  0
    1.9116   -4.3377    2.4007 O   0  0  0  0  0  0  0  0  0  0  0  0
   -2.9819   -6.8372   -3.0126 O   0  0  0  0  0  0  0  0  0  0  0  0
   -3.9280   -2.6928    0.7043 O   0  0  0  0  0  0  0  0  0  0  0  0
    0.9752   -3.5079   -5.0603 O   0  0  0  0  0  0  0  0  0  0  0  0
   -0.2397   -4.7225    0.3373 N   0  0  0  0  0  0  0  0  0  0  0  0
   -3.1466   -4.2837   -0.6708 N   0  0  0  0  0  0  0  0  0  0  0  0
   -1.5093   -1.0045    0.6202 N   0  0  0  0  0  0  0  0  0  0  0  0
    1.9340   -4.1092   -0.8069 C   0  0  0  0  0  0  0  0  0  0  0  0
    0.9219   -3.7403    0.2715 C   0  0  2  0  0  0  0  0  0  0  0  0
   -0.6406   -5.2562   -0.9884 C   0  0  1  0  0  0  0  0  0  0  0  0
   -2.1828   -5.0728   -1.5291 C   0  0  1  0  0  0  0  0  0  0  0  0
    2.8606   -5.1945   -0.3316 C   0  0  0  0  0  0  0  0  0  0  0  0
    2.9230   -2.9489   -1.2240 C   0  0  0  0  0  0  0  0  0  0  0  0
    1.4944   -3.4731    1.6810 C   0  0  0  0  0  0  0  0  0  0  0  0
   -2.7405   -6.4617   -1.8643 C   0  0  0  0  0  0  0  0  0  0  0  0
   -3.0122   -3.0449   -0.0455 C   0  0  0  0  0  0  0  0  0  0  0  0
   -1.6853   -2.2404   -0.1814 C   0  0  1  0  0  0  0  0  0  0  0  0
   -1.0610   -2.1089   -1.6229 C   0  0  0  0  0  0  0  0  0  0  0  0
    0.2349   -1.6683   -1.9421 C   0  0  0  0  0  0  0  0  0  0  0  0
   -1.7250   -2.5953   -2.7392 C   0  0  0  0  0  0  0  0  0  0  0  0
    0.8978   -2.0265   -3.1706 C   0  0  0  0  0  0  0  0  0  0  0  0
   -1.0396   -3.1260   -3.8696 C   0  0  0  0  0  0  0  0  0  0  0  0
    0.2899   -2.8594   -4.0776 C   0  0  0  0  0  0  0  0  0  0  0  0
   -0.6280   -6.3367   -0.8486 H   0  0  0  0  0  0  0  0  0  0  0  0
    0.0757   -5.5183    0.8905 H   0  0  0  0  0  0  0  0  0  0  0  0
   -4.1407   -4.4928   -0.7680 H   0  0  0  0  0  0  0  0  0  0  0  0
   -0.7299   -0.4914    0.2244 H   0  0  0  0  0  0  0  0  0  0  0  0
   -1.2170   -1.2680    1.5711 H   0  0  0  0  0  0  0  0  0  0  0  0
    1.0937   -1.4668    1.5106 H   0  0  0  0  0  0  0  0  0  0  0  0
    1.9326   -3.3583   -4.9641 H   0  0  0  0  0  0  0  0  0  0  0  0
    0.5684   -2.7559    0.0460 H   0  0  0  0  0  0  0  0  0  0  0  0
   -2.3022   -4.6825   -2.5341 H   0  0  0  0  0  0  0  0  0  0  0  0
    3.4891   -4.7983    0.4677 H   0  0  0  0  0  0  0  0  0  0  0  0
    2.2987   -6.0468    0.0492 H   0  0  0  0  0  0  0  0  0  0  0  0
    3.5123   -5.5006   -1.1546 H   0  0  0  0  0  0  0  0  0  0  0  0
    2.5639   -1.9577   -1.4887 H   0  0  0  0  0  0  0  0  0  0  0  0
    3.5536   -2.6588   -0.3750 H   0  0  0  0  0  0  0  0  0  0  0  0
    3.5684   -3.2462   -2.0592 H   0  0  0  0  0  0  0  0  0  0  0  0
   -2.8528   -7.1542   -1.0225 H   0  0  0  0  0  0  0  0  0  0  0  0
   -1.1765   -2.8847    0.5239 H   0  0  0  0  0  0  0  0  0  0  0  0
    0.8297   -1.1675   -1.1810 H   0  0  0  0  0  0  0  0  0  0  0  0
   -2.7883   -2.7837   -2.6525 H   0  0  0  0  0  0  0  0  0  0  0  0
    1.9546   -1.8289   -3.3372 H   0  0  0  0  0  0  0  0  0  0  0  0
   -1.5179   -3.8861   -4.4870 H   0  0  0  0  0  0  0  0  0  0  0  0
  1 10  1  0  0  0  0
  1 12  1  0  0  0  0
  2 16  1  0  0  0  0
  2 31  1  0  0  0  0
  3 16  2  0  0  0  0
  4 17  2  0  0  0  0
  5 18  2  0  0  0  0
  6 25  1  0  0  0  0
  6 32  1  0  0  0  0
  7 11  1  0  0  0  0
  7 12  1  0  0  0  0
  7 27  1  0  0  0  0
  8 18  1  0  0  0  0
  8 28  1  0  0  0  0
  9 29  1  0  0  0  0
  9 30  1  0  0  0  0
 10 11  1  0  0  0  0
 10 14  1  0  0  0  0
 10 15  1  0  0  0  0
 11 16  1  0  0  0  0
 11 33  1  6  0  0  0
 12 26  1  1  0  0  0
 13 17  1  0  0  0  0
 13 34  1  6  0  0  0
 13 12  1  0  0  0  0
 13  8  1  0  0  0  0
 14 35  1  0  0  0  0
 14 36  1  0  0  0  0
 14 37  1  0  0  0  0
 15 38  1  0  0  0  0
 15 39  1  0  0  0  0
 15 40  1  0  0  0  0
 17 41  1  0  0  0  0
 19 20  1  0  0  0  0
 19 42  1  1  0  0  0
 19 18  1  0  0  0  0
 19  9  1  0  0  0  0
 20 21  2  0  0  0  0
 20 22  1  0  0  0  0
 21 23  1  0  0  0  0
 21 43  1  0  0  0  0
 22 24  2  0  0  0  0
 22 44  1  0  0  0  0
 23 25  2  0  0  0  0
 23 45  1  0  0  0  0
 24 25  1  0  0  0  0
 24 46  1  0  0  0  0
M  END
>  <DRUGBANK_ID>
DB03658

>  <SECONDARY_ACCESSION_NUMBERS>
EXPT00594

>  <COMMON_NAME>
(2R,4S)-2-[(1R)-1-{[(2R)-2-Amino-2-(4-hydroxyphenyl)acetyl]amino}-2-oxoethyl]-5,5-dimethyl-1,3-thiazolidine-4-carboxylic acid

>  <SYNONYMS>
(2R,4S)-2-[(1R)-1-[[(2R)-2-Amino-2-(4-hydroxyphenyl)acetyl]amino]-2-oxoethyl]-5,5-dimethyl-1,3-thiazolidine-4-carboxylic acid

$$$$
