87Y
 OpenBabel10282417143D

 42 44  0  0  0  0  0  0  0  0999 V2000
   -2.4192   -0.7169    0.0094 N   0  0  0  0  0  0  0  0  0  0  0  0
   -1.2985   -1.4949   -0.0118 C   0  0  0  0  0  0  0  0  0  0  0  0
   -1.3951   -2.7257    0.0210 O   0  0  0  0  0  0  0  0  0  0  0  0
    0.0093   -0.7828   -0.0751 C   0  0  0  0  0  0  0  0  0  0  0  0
    1.1972   -1.5043    0.0094 N   0  0  0  0  0  0  0  0  0  0  0  0
    2.3176   -0.8352   -0.0380 C   0  0  0  0  0  0  0  0  0  0  0  0
    3.6544   -1.5918    0.0244 C   0  0  0  0  0  0  0  0  0  0  0  0
    3.8313   -2.3570    1.1972 O   0  0  0  0  0  0  0  0  0  0  0  0
    2.4214    0.6989   -0.1420 C   0  0  1  0  0  0  0  0  0  0  0  0
    3.1509    1.1691    1.1580 C   0  0  0  0  0  0  0  0  0  0  0  0
    3.1273    1.0524   -1.4470 C   0  0  0  0  0  0  0  0  0  0  0  0
    1.0944    1.2625   -0.3155 N   0  0  0  0  0  0  0  0  0  0  0  0
   -0.0834    0.5569   -0.2377 C   0  0  0  0  0  0  0  0  0  0  0  0
   -1.2662    1.2627   -0.2707 N   0  0  0  0  0  0  0  0  0  0  0  0
   -2.3784    0.6331   -0.1035 C   0  0  0  0  0  0  0  0  0  0  0  0
   -3.5592    1.2910   -0.0184 N   0  0  0  0  0  0  0  0  0  0  0  0
    3.1623    2.6728    1.4311 C   0  0  0  0  0  0  0  0  0  0  0  0
    1.8003    3.2672    1.6981 C   0  0  0  0  0  0  0  0  0  0  0  0
    0.7197    2.4969    2.1638 C   0  0  0  0  0  0  0  0  0  0  0  0
   -0.5848    2.9772    2.0753 C   0  0  0  0  0  0  0  0  0  0  0  0
   -0.8173    4.2675    1.6255 C   0  0  0  0  0  0  0  0  0  0  0  0
    0.2586    5.0868    1.2923 C   0  0  0  0  0  0  0  0  0  0  0  0
    1.5617    4.5894    1.3187 C   0  0  0  0  0  0  0  0  0  0  0  0
   -3.2948   -1.2053    0.0593 H   0  0  0  0  0  0  0  0  0  0  0  0
    3.7251   -2.2367   -0.8548 H   0  0  0  0  0  0  0  0  0  0  0  0
    4.4981   -0.8980   -0.0316 H   0  0  0  0  0  0  0  0  0  0  0  0
    3.6850   -1.7736    1.9606 H   0  0  0  0  0  0  0  0  0  0  0  0
    2.7493    0.6446    2.0384 H   0  0  0  0  0  0  0  0  0  0  0  0
    4.2018    0.8480    1.1322 H   0  0  0  0  0  0  0  0  0  0  0  0
    4.1501    0.6795   -1.5028 H   0  0  0  0  0  0  0  0  0  0  0  0
    2.5682    0.6037   -2.2804 H   0  0  0  0  0  0  0  0  0  0  0  0
    3.1334    2.1343   -1.6119 H   0  0  0  0  0  0  0  0  0  0  0  0
    0.9609    2.2700   -0.3295 H   0  0  0  0  0  0  0  0  0  0  0  0
   -3.5510    2.3026   -0.0769 H   0  0  0  0  0  0  0  0  0  0  0  0
   -4.4564    0.8310   -0.0015 H   0  0  0  0  0  0  0  0  0  0  0  0
    3.8102    2.8924    2.2884 H   0  0  0  0  0  0  0  0  0  0  0  0
    3.6208    3.1548    0.5575 H   0  0  0  0  0  0  0  0  0  0  0  0
    0.8312    1.4378    2.3913 H   0  0  0  0  0  0  0  0  0  0  0  0
   -1.4150    2.2914    2.2336 H   0  0  0  0  0  0  0  0  0  0  0  0
   -1.8373    4.6162    1.5043 H   0  0  0  0  0  0  0  0  0  0  0  0
    0.0773    6.1037    0.9616 H   0  0  0  0  0  0  0  0  0  0  0  0
    2.3808    5.2152    0.9738 H   0  0  0  0  0  0  0  0  0  0  0  0
  1  2  1  0  0  0  0
  1 15  1  0  0  0  0
  1 24  1  0  0  0  0
  2  3  2  0  0  0  0
  2  4  1  0  0  0  0
  4  5  1  0  0  0  0
  4 13  2  0  0  0  0
  5  6  2  0  0  0  0
  6  7  1  0  0  0  0
  6  9  1  0  0  0  0
  7  8  1  0  0  0  0
  7 25  1  0  0  0  0
  7 26  1  0  0  0  0
  8 27  1  0  0  0  0
  9 12  1  0  0  0  0
  9 11  1  6  0  0  0
  9 10  1  0  0  0  0
 10 17  1  0  0  0  0
 10 28  1  0  0  0  0
 10 29  1  0  0  0  0
 11 30  1  0  0  0  0
 11 31  1  0  0  0  0
 11 32  1  0  0  0  0
 12 13  1  0  0  0  0
 12 33  1  0  0  0  0
 13 14  1  0  0  0  0
 14 15  2  0  0  0  0
 15 16  1  0  0  0  0
 16 34  1  0  0  0  0
 16 35  1  0  0  0  0
 17 18  1  0  0  0  0
 17 36  1  0  0  0  0
 17 37  1  0  0  0  0
 18 19  2  0  0  0  0
 18 23  1  0  0  0  0
 19 20  1  0  0  0  0
 19 38  1  0  0  0  0
 20 21  2  0  0  0  0
 20 39  1  0  0  0  0
 21 22  1  0  0  0  0
 21 40  1  0  0  0  0
 22 23  2  0  0  0  0
 22 41  1  0  0  0  0
 23 42  1  0  0  0  0
M  END
>  <DRUGBANK_ID>
DB04610

>  <COMMON_NAME>
7,8-dihydro-6-hydroxymethyl-7-methyl-7-[2-phenylethyl]-pterin

$$$$
