Crocin
 OpenBabel10282417183D
Mrv0541 05141315032D
132135  0  0  1  0  0  0  0  0999 V2000
   14.9516  -19.7900    6.0046 O   0  0  0  0  0  0  0  0  0  0  0  0
   -0.0322   -8.0883   18.9495 O   0  0  0  0  0  0  0  0  0  0  0  0
   16.4594  -21.5371    6.4310 O   0  0  0  0  0  0  0  0  0  0  0  0
    1.4070  -10.8011   17.4376 O   0  0  0  0  0  0  0  0  0  0  0  0
   -0.4812   -8.7191   16.7302 O   0  0  0  0  0  0  0  0  0  0  0  0
   16.1825  -20.1441    4.0437 O   0  0  0  0  0  0  0  0  0  0  0  0
    3.4817   -7.7014   17.5030 O   0  0  0  0  0  0  0  0  0  0  0  0
   19.4175  -23.0502    5.1780 O   0  0  0  0  0  0  0  0  0  0  0  0
   -3.2801   -8.9324   17.3859 O   0  0  0  0  0  0  0  0  0  0  0  0
   13.8812  -21.6308    2.8924 O   0  0  0  0  0  0  0  0  0  0  0  0
   -3.7201   -9.5339   20.1823 O   0  0  0  0  0  0  0  0  0  0  0  0
   12.6015  -23.2968    4.8024 O   0  0  0  0  0  0  0  0  0  0  0  0
    5.3355   -9.8111   18.3766 O   0  0  0  0  0  0  0  0  0  0  0  0
   19.0913  -24.1077    7.9112 O   0  0  0  0  0  0  0  0  0  0  0  0
   12.2577  -22.2225    7.2122 O   0  0  0  0  0  0  0  0  0  0  0  0
   -1.9835   -8.1366   22.0246 O   0  0  0  0  0  0  0  0  0  0  0  0
    4.0559  -11.9903   19.6759 O   0  0  0  0  0  0  0  0  0  0  0  0
   17.8363  -22.1025    9.7723 O   0  0  0  0  0  0  0  0  0  0  0  0
    1.5759  -12.9502   18.5436 O   0  0  0  0  0  0  0  0  0  0  0  0
   15.3168  -21.6330    8.5679 O   0  0  0  0  0  0  0  0  0  0  0  0
    1.9104   -7.1121   20.6742 O   0  0  0  0  0  0  0  0  0  0  0  0
   15.3287  -18.2548    8.3807 O   0  0  0  0  0  0  0  0  0  0  0  0
   14.3046  -23.5597    8.9861 O   0  0  0  0  0  0  0  0  0  0  0  0
    0.8648  -14.9257   17.9052 O   0  0  0  0  0  0  0  0  0  0  0  0
   17.6300  -21.4491    5.6303 C   0  0  1  0  0  0  0  0  0  0  0  0
    1.7347   -9.3994   17.5480 C   0  0  1  0  0  0  0  0  0  0  0  0
    3.2242   -9.1041   17.4391 C   0  0  2  0  0  0  0  0  0  0  0  0
   18.2982  -22.7791    5.9944 C   0  0  2  0  0  0  0  0  0  0  0  0
   -2.2087   -9.0304   18.3359 C   0  0  2  0  0  0  0  0  0  0  0  0
   14.2430  -21.6325    4.2845 C   0  0  2  0  0  0  0  0  0  0  0  0
   13.0388  -21.9393    5.1095 C   0  0  2  0  0  0  0  0  0  0  0  0
   -2.7019   -8.6346   19.7327 C   0  0  2  0  0  0  0  0  0  0  0  0
    3.9168   -9.8338   18.5930 C   0  0  1  0  0  0  0  0  0  0  0  0
   18.6715  -22.7979    7.5236 C   0  0  1  0  0  0  0  0  0  0  0  0
   14.8759  -20.2727    4.6658 C   0  0  1  0  0  0  0  0  0  0  0  0
   -1.0149   -8.1472   17.9312 C   0  0  1  0  0  0  0  0  0  0  0  0
   13.4378  -21.7643    6.5790 C   0  0  1  0  0  0  0  0  0  0  0  0
   -1.5526   -8.6029   20.7488 C   0  0  1  0  0  0  0  0  0  0  0  0
   14.0137  -20.2024    7.0054 C   0  0  1  0  0  0  0  0  0  0  0  0
   -0.4293   -7.7060   20.2471 C   0  0  1  0  0  0  0  0  0  0  0  0
   17.4978  -22.4941    8.4310 C   0  0  2  0  0  0  0  0  0  0  0  0
    3.4346  -11.2716   18.6153 C   0  0  2  0  0  0  0  0  0  0  0  0
    0.9243   -8.5557   16.5532 C   0  0  0  0  0  0  0  0  0  0  0  0
   17.1172  -21.2553    4.1801 C   0  0  0  0  0  0  0  0  0  0  0  0
    1.9419  -11.5276   18.5483 C   0  0  1  0  0  0  0  0  0  0  0  0
   16.6426  -21.4784    7.8154 C   0  0  1  0  0  0  0  0  0  0  0  0
   14.7990  -19.5445    8.4720 C   0  0  0  0  0  0  0  0  0  0  0  0
    0.7955   -7.8478   21.1759 C   0  0  0  0  0  0  0  0  0  0  0  0
   14.3142  -22.3601    9.1150 C   0  0  0  0  0  0  0  0  0  0  0  0
    1.7749  -14.0942   17.8495 C   0  0  0  0  0  0  0  0  0  0  0  0
   13.0358  -21.4361    9.7226 C   0  0  0  0  0  0  0  0  0  0  0  0
    3.0260  -14.4853   17.1164 C   0  0  0  0  0  0  0  0  0  0  0  0
   12.7257  -19.8852   10.2392 C   0  0  0  0  0  0  0  0  0  0  0  0
    4.3079  -13.7414   17.1506 C   0  0  0  0  0  0  0  0  0  0  0  0
    3.0611  -15.6779   16.4630 C   0  0  0  0  0  0  0  0  0  0  0  0
   11.8987  -22.1622    9.6997 C   0  0  0  0  0  0  0  0  0  0  0  0
    4.2467  -16.1200   15.7298 C   0  0  0  0  0  0  0  0  0  0  0  0
   10.6340  -21.6325   10.1405 C   0  0  0  0  0  0  0  0  0  0  0  0
    4.4424  -17.2560   15.0507 C   0  0  0  0  0  0  0  0  0  0  0  0
    9.4996  -22.3161   10.1244 C   0  0  0  0  0  0  0  0  0  0  0  0
    5.6835  -17.5879   14.3343 C   0  0  0  0  0  0  0  0  0  0  0  0
    8.2952  -21.8857   10.8162 C   0  0  0  0  0  0  0  0  0  0  0  0
    6.8695  -16.6408   14.3291 C   0  0  0  0  0  0  0  0  0  0  0  0
    7.1859  -22.8938   10.7819 C   0  0  0  0  0  0  0  0  0  0  0  0
    5.7739  -18.7552   13.6632 C   0  0  0  0  0  0  0  0  0  0  0  0
    8.1859  -20.7320   11.5072 C   0  0  0  0  0  0  0  0  0  0  0  0
    7.0132  -20.3327   12.2524 C   0  0  0  0  0  0  0  0  0  0  0  0
    6.9464  -19.1759   12.9192 C   0  0  0  0  0  0  0  0  0  0  0  0
    3.5085   -7.4066   18.4296 H   0  0  0  0  0  0  0  0  0  0  0  0
   20.1109  -22.4087    5.4008 H   0  0  0  0  0  0  0  0  0  0  0  0
   -3.5379   -7.9999   17.3013 H   0  0  0  0  0  0  0  0  0  0  0  0
   13.1316  -21.0175    2.7942 H   0  0  0  0  0  0  0  0  0  0  0  0
   -3.3694  -10.4418   20.1394 H   0  0  0  0  0  0  0  0  0  0  0  0
   13.2725  -23.9393    5.1004 H   0  0  0  0  0  0  0  0  0  0  0  0
    5.5233  -10.2809   17.5423 H   0  0  0  0  0  0  0  0  0  0  0  0
   18.2782  -24.6466    8.0011 H   0  0  0  0  0  0  0  0  0  0  0  0
   11.5764  -21.5344    7.2022 H   0  0  0  0  0  0  0  0  0  0  0  0
   -2.3562   -7.2437   21.9172 H   0  0  0  0  0  0  0  0  0  0  0  0
    3.7144  -11.6845   20.5313 H   0  0  0  0  0  0  0  0  0  0  0  0
   18.3151  -21.2552    9.7884 H   0  0  0  0  0  0  0  0  0  0  0  0
    2.0260   -7.4115   19.7602 H   0  0  0  0  0  0  0  0  0  0  0  0
   16.2149  -18.4667    8.0219 H   0  0  0  0  0  0  0  0  0  0  0  0
   18.2896  -20.5883    5.8474 H   0  0  0  0  0  0  0  0  0  0  0  0
    1.5268   -9.1459   18.5772 H   0  0  0  0  0  0  0  0  0  0  0  0
    3.6005   -9.4631   16.4754 H   0  0  0  0  0  0  0  0  0  0  0  0
   17.5552  -23.5743    5.8350 H   0  0  0  0  0  0  0  0  0  0  0  0
   -1.9060  -10.0867   18.3332 H   0  0  0  0  0  0  0  0  0  0  0  0
   14.9173  -22.4855    4.4051 H   0  0  0  0  0  0  0  0  0  0  0  0
   12.1690  -21.3274    4.8593 H   0  0  0  0  0  0  0  0  0  0  0  0
   -3.1784   -7.6495   19.6838 H   0  0  0  0  0  0  0  0  0  0  0  0
    3.7499   -9.3578   19.5650 H   0  0  0  0  0  0  0  0  0  0  0  0
   19.4980  -22.1039    7.7221 H   0  0  0  0  0  0  0  0  0  0  0  0
   14.2353  -19.5222    4.1961 H   0  0  0  0  0  0  0  0  0  0  0  0
   -1.3374   -7.1280   17.6962 H   0  0  0  0  0  0  0  0  0  0  0  0
   14.2035  -22.5443    6.7004 H   0  0  0  0  0  0  0  0  0  0  0  0
   -1.1868   -9.6297   20.8877 H   0  0  0  0  0  0  0  0  0  0  0  0
   13.1085  -19.5897    6.9442 H   0  0  0  0  0  0  0  0  0  0  0  0
   -0.7184   -6.6516   20.2002 H   0  0  0  0  0  0  0  0  0  0  0  0
   16.8632  -23.3709    8.5327 H   0  0  0  0  0  0  0  0  0  0  0  0
    3.7713  -11.5782   17.6280 H   0  0  0  0  0  0  0  0  0  0  0  0
    1.1691   -7.4887   16.6125 H   0  0  0  0  0  0  0  0  0  0  0  0
    1.1595   -8.8940   15.5386 H   0  0  0  0  0  0  0  0  0  0  0  0
   16.6838  -22.1794    3.7917 H   0  0  0  0  0  0  0  0  0  0  0  0
   17.9405  -21.0304    3.4917 H   0  0  0  0  0  0  0  0  0  0  0  0
    1.4725  -11.1496   19.4711 H   0  0  0  0  0  0  0  0  0  0  0  0
   17.1015  -20.4834    8.0155 H   0  0  0  0  0  0  0  0  0  0  0  0
   14.4493  -19.8272    9.4301 H   0  0  0  0  0  0  0  0  0  0  0  0
   15.7125  -19.9309    8.9440 H   0  0  0  0  0  0  0  0  0  0  0  0
    0.5740   -7.4803   22.1802 H   0  0  0  0  0  0  0  0  0  0  0  0
    1.1206   -8.8928   21.2464 H   0  0  0  0  0  0  0  0  0  0  0  0
   11.9273  -19.4057    9.6291 H   0  0  0  0  0  0  0  0  0  0  0  0
   12.4468  -19.9436   11.2924 H   0  0  0  0  0  0  0  0  0  0  0  0
   13.4080  -19.0175   10.3098 H   0  0  0  0  0  0  0  0  0  0  0  0
    5.1797  -14.3654   17.3663 H   0  0  0  0  0  0  0  0  0  0  0  0
    4.4691  -13.1785   16.2229 H   0  0  0  0  0  0  0  0  0  0  0  0
    4.3821  -13.1438   18.0143 H   0  0  0  0  0  0  0  0  0  0  0  0
    2.2024  -16.3454   16.4648 H   0  0  0  0  0  0  0  0  0  0  0  0
   11.8877  -23.1707    9.2879 H   0  0  0  0  0  0  0  0  0  0  0  0
    5.0690  -15.4216   15.7278 H   0  0  0  0  0  0  0  0  0  0  0  0
   10.6193  -20.6482   10.5858 H   0  0  0  0  0  0  0  0  0  0  0  0
    3.6328  -17.9810   15.0162 H   0  0  0  0  0  0  0  0  0  0  0  0
    9.5021  -23.2944    9.6497 H   0  0  0  0  0  0  0  0  0  0  0  0
    7.7460  -17.1346   14.7656 H   0  0  0  0  0  0  0  0  0  0  0  0
    7.1056  -16.3409   13.3008 H   0  0  0  0  0  0  0  0  0  0  0  0
    6.7457  -15.7145   14.8857 H   0  0  0  0  0  0  0  0  0  0  0  0
    6.9581  -23.2274   11.7996 H   0  0  0  0  0  0  0  0  0  0  0  0
    6.2968  -22.4453   10.3311 H   0  0  0  0  0  0  0  0  0  0  0  0
    7.4389  -23.7842   10.1991 H   0  0  0  0  0  0  0  0  0  0  0  0
    4.9316  -19.4453   13.6549 H   0  0  0  0  0  0  0  0  0  0  0  0
    9.0072  -20.0198   11.5570 H   0  0  0  0  0  0  0  0  0  0  0  0
    6.1650  -21.0075   12.2628 H   0  0  0  0  0  0  0  0  0  0  0  0
    7.8098  -18.5151   12.9003 H   0  0  0  0  0  0  0  0  0  0  0  0
  1 35  1  0  0  0  0
  1 39  1  0  0  0  0
  2 36  1  0  0  0  0
  2 40  1  0  0  0  0
  3 25  1  0  0  0  0
  3 46  1  0  0  0  0
  4 26  1  0  0  0  0
  4 45  1  0  0  0  0
  5 43  1  0  0  0  0
  6 44  1  0  0  0  0
  7 69  1  0  0  0  0
  8 70  1  0  0  0  0
  9 71  1  0  0  0  0
 10 72  1  0  0  0  0
 11 73  1  0  0  0  0
 12 74  1  0  0  0  0
 13 75  1  0  0  0  0
 14 76  1  0  0  0  0
 15 77  1  0  0  0  0
 16 78  1  0  0  0  0
 17 79  1  0  0  0  0
 18 80  1  0  0  0  0
 19 50  1  0  0  0  0
 20 49  1  0  0  0  0
 21 48  1  0  0  0  0
 21 81  1  0  0  0  0
 22 47  1  0  0  0  0
 22 82  1  0  0  0  0
 23 49  2  0  0  0  0
 24 50  2  0  0  0  0
 25 28  1  0  0  0  0
 25 83  1  1  0  0  0
 25 44  1  0  0  0  0
 26 27  1  0  0  0  0
 26 43  1  0  0  0  0
 26 84  1  1  0  0  0
 27  7  1  0  0  0  0
 27 33  1  0  0  0  0
 27 85  1  6  0  0  0
 28  8  1  0  0  0  0
 28 34  1  0  0  0  0
 28 86  1  6  0  0  0
 29  9  1  0  0  0  0
 29 32  1  0  0  0  0
 29 36  1  0  0  0  0
 29 87  1  1  0  0  0
 30 10  1  0  0  0  0
 30 31  1  0  0  0  0
 30 35  1  0  0  0  0
 30 88  1  1  0  0  0
 31 12  1  0  0  0  0
 31 37  1  0  0  0  0
 31 89  1  6  0  0  0
 32 11  1  0  0  0  0
 32 38  1  0  0  0  0
 32 90  1  6  0  0  0
 33 13  1  0  0  0  0
 33 42  1  0  0  0  0
 33 91  1  1  0  0  0
 34 14  1  0  0  0  0
 34 41  1  0  0  0  0
 34 92  1  1  0  0  0
 35  6  1  0  0  0  0
 35 93  1  6  0  0  0
 36 94  1  6  0  0  0
 36  5  1  0  0  0  0
 37 15  1  0  0  0  0
 37 39  1  0  0  0  0
 37 95  1  1  0  0  0
 38 16  1  0  0  0  0
 38 40  1  0  0  0  0
 38 96  1  1  0  0  0
 39 47  1  0  0  0  0
 39 97  1  6  0  0  0
 40 48  1  0  0  0  0
 40 98  1  6  0  0  0
 41 18  1  0  0  0  0
 41 46  1  0  0  0  0
 41 99  1  1  0  0  0
 42 17  1  0  0  0  0
 42 45  1  0  0  0  0
 42100  1  6  0  0  0
 43101  1  0  0  0  0
 43102  1  0  0  0  0
 44103  1  0  0  0  0
 44104  1  0  0  0  0
 45105  1  1  0  0  0
 45 19  1  0  0  0  0
 46 20  1  0  0  0  0
 46106  1  1  0  0  0
 47107  1  0  0  0  0
 47108  1  0  0  0  0
 48109  1  0  0  0  0
 48110  1  0  0  0  0
 49 51  1  0  0  0  0
 50 52  1  0  0  0  0
 51 53  1  0  0  0  0
 51 56  2  0  0  0  0
 52 54  1  0  0  0  0
 52 55  2  0  0  0  0
 53111  1  0  0  0  0
 53112  1  0  0  0  0
 53113  1  0  0  0  0
 54114  1  0  0  0  0
 54115  1  0  0  0  0
 54116  1  0  0  0  0
 55 57  1  0  0  0  0
 55117  1  0  0  0  0
 56 58  1  0  0  0  0
 56118  1  0  0  0  0
 57 59  2  0  0  0  0
 57119  1  0  0  0  0
 58 60  2  0  0  0  0
 58120  1  0  0  0  0
 59 61  1  0  0  0  0
 59121  1  0  0  0  0
 60 62  1  0  0  0  0
 60122  1  0  0  0  0
 61 63  1  0  0  0  0
 61 65  2  0  0  0  0
 62 64  1  0  0  0  0
 62 66  2  0  0  0  0
 63123  1  0  0  0  0
 63124  1  0  0  0  0
 63125  1  0  0  0  0
 64126  1  0  0  0  0
 64127  1  0  0  0  0
 64128  1  0  0  0  0
 65 68  1  0  0  0  0
 65129  1  0  0  0  0
 66 67  1  0  0  0  0
 66130  1  0  0  0  0
 67 68  2  0  0  0  0
 67131  1  0  0  0  0
 68132  1  0  0  0  0
M  END
>  <DRUGBANK_ID>
DB11874

>  <COMMON_NAME>
Crocin

>  <CAS_NUMBER>
42553-65-1

>  <UNII>
877GWI46C2

$$$$
