CK8
 OpenBabel10282417163D

 42 44  0  0  0  0  0  0  0  0999 V2000
    1.0995   -0.8337    0.0235 C   0  0  0  0  0  0  0  0  0  0  0  0
    1.2157    0.4985    0.0129 N   0  0  0  0  0  0  0  0  0  0  0  0
    0.0943    1.2350    0.0244 C   0  0  0  0  0  0  0  0  0  0  0  0
   -1.1388    0.7064    0.0243 N   0  0  0  0  0  0  0  0  0  0  0  0
   -1.2127   -0.6476    0.0376 C   0  0  0  0  0  0  0  0  0  0  0  0
   -0.1070   -1.4689    0.0398 C   0  0  0  0  0  0  0  0  0  0  0  0
   -2.5552   -1.2167   -0.0595 C   0  0  0  0  0  0  0  0  0  0  0  0
   -3.5068   -1.0649   -1.0548 C   0  0  0  0  0  0  0  0  0  0  0  0
   -4.6592   -1.8225   -0.8888 N   0  0  0  0  0  0  0  0  0  0  0  0
   -4.5886   -2.5220    0.2224 C   0  0  0  0  0  0  0  0  0  0  0  0
   -3.1424   -2.3171    1.1253 S   0  0  0  0  0  0  0  0  0  0  0  0
   -3.3921   -0.2348   -2.2816 C   0  0  0  0  0  0  0  0  0  0  0  0
   -5.6626   -3.4453    0.6876 C   0  0  0  0  0  0  0  0  0  0  0  0
    0.2256    2.6204    0.0887 N   0  0  0  0  0  0  0  0  0  0  0  0
    1.4112    3.3525    0.0005 C   0  0  0  0  0  0  0  0  0  0  0  0
    2.3165    3.1599   -1.0417 C   0  0  0  0  0  0  0  0  0  0  0  0
    3.5240    3.8714   -1.0968 C   0  0  0  0  0  0  0  0  0  0  0  0
    3.8911    4.8019   -0.1106 C   0  0  0  0  0  0  0  0  0  0  0  0
    2.9414    5.0045    0.9045 C   0  0  0  0  0  0  0  0  0  0  0  0
    1.7433    4.2776    0.9818 C   0  0  0  0  0  0  0  0  0  0  0  0
    5.1078    5.4703   -0.1467 N   0  0  0  0  0  0  0  0  0  0  0  0
    5.5667    6.3546    0.9186 C   0  0  0  0  0  0  0  0  0  0  0  0
    6.1052    5.1402   -1.1636 C   0  0  0  0  0  0  0  0  0  0  0  0
    2.0386   -1.3746    0.0115 H   0  0  0  0  0  0  0  0  0  0  0  0
   -0.1746   -2.5477    0.0227 H   0  0  0  0  0  0  0  0  0  0  0  0
   -3.4725   -0.8681   -3.1705 H   0  0  0  0  0  0  0  0  0  0  0  0
   -4.1923    0.5098   -2.3062 H   0  0  0  0  0  0  0  0  0  0  0  0
   -2.4353    0.2916   -2.3357 H   0  0  0  0  0  0  0  0  0  0  0  0
   -6.5979   -2.8928    0.8240 H   0  0  0  0  0  0  0  0  0  0  0  0
   -5.8376   -4.2246   -0.0621 H   0  0  0  0  0  0  0  0  0  0  0  0
   -5.4185   -3.9373    1.6342 H   0  0  0  0  0  0  0  0  0  0  0  0
   -0.6442    3.1207    0.1496 H   0  0  0  0  0  0  0  0  0  0  0  0
    2.0923    2.4415   -1.8265 H   0  0  0  0  0  0  0  0  0  0  0  0
    4.1713    3.6637   -1.9435 H   0  0  0  0  0  0  0  0  0  0  0  0
    3.0944    5.7351    1.6887 H   0  0  0  0  0  0  0  0  0  0  0  0
    1.1047    4.4130    1.8503 H   0  0  0  0  0  0  0  0  0  0  0  0
    6.4589    5.9399    1.4004 H   0  0  0  0  0  0  0  0  0  0  0  0
    5.8230    7.3303    0.4934 H   0  0  0  0  0  0  0  0  0  0  0  0
    4.8458    6.5459    1.7136 H   0  0  0  0  0  0  0  0  0  0  0  0
    6.3665    4.0755   -1.1404 H   0  0  0  0  0  0  0  0  0  0  0  0
    5.7421    5.4048   -2.1624 H   0  0  0  0  0  0  0  0  0  0  0  0
    7.0361    5.6978   -1.0055 H   0  0  0  0  0  0  0  0  0  0  0  0
  1  2  2  0  0  0  0
  1  6  1  0  0  0  0
  1 24  1  0  0  0  0
  2  3  1  0  0  0  0
  3  4  2  0  0  0  0
  3 14  1  0  0  0  0
  4  5  1  0  0  0  0
  5  6  2  0  0  0  0
  5  7  1  0  0  0  0
  6 25  1  0  0  0  0
  7  8  2  0  0  0  0
  7 11  1  0  0  0  0
  8  9  1  0  0  0  0
  8 12  1  0  0  0  0
  9 10  2  0  0  0  0
 10 11  1  0  0  0  0
 10 13  1  0  0  0  0
 12 26  1  0  0  0  0
 12 27  1  0  0  0  0
 12 28  1  0  0  0  0
 13 29  1  0  0  0  0
 13 30  1  0  0  0  0
 13 31  1  0  0  0  0
 14 15  1  0  0  0  0
 14 32  1  0  0  0  0
 15 16  2  0  0  0  0
 15 20  1  0  0  0  0
 16 17  1  0  0  0  0
 16 33  1  0  0  0  0
 17 18  2  0  0  0  0
 17 34  1  0  0  0  0
 18 19  1  0  0  0  0
 18 21  1  0  0  0  0
 19 20  2  0  0  0  0
 19 35  1  0  0  0  0
 20 36  1  0  0  0  0
 21 22  1  0  0  0  0
 21 23  1  0  0  0  0
 22 37  1  0  0  0  0
 22 38  1  0  0  0  0
 22 39  1  0  0  0  0
 23 40  1  0  0  0  0
 23 41  1  0  0  0  0
 23 42  1  0  0  0  0
M  END
>  <DRUGBANK_ID>
DB07562

>  <COMMON_NAME>
N-[4-(2,4-DIMETHYL-THIAZOL-5-YL)-PYRIMIDIN-2-YL]-N',N'-DIMETHYL-BENZENE-1,4-DIAMINE

$$$$
