
 OpenBabel10282417173D

 25 26  0  0  0  0  0  0  0  0999 V2000
    1.3642   -1.1922    0.2918 C   0  0  0  0  0  0  0  0  0  0  0  0
    2.5370   -0.4797    0.0989 C   0  0  0  0  0  0  0  0  0  0  0  0
   -1.1526   -1.4017    0.0629 C   0  0  0  0  0  0  0  0  0  0  0  0
   -2.3786   -0.7142    0.0053 C   0  0  0  0  0  0  0  0  0  0  0  0
   -2.4184    0.6784   -0.0111 C   0  0  0  0  0  0  0  0  0  0  0  0
   -1.2285    1.4033   -0.0068 C   0  0  0  0  0  0  0  0  0  0  0  0
    0.0156    0.7539    0.0414 C   0  0  0  0  0  0  0  0  0  0  0  0
    1.2152    1.5021    0.0067 C   0  0  0  0  0  0  0  0  0  0  0  0
    2.4660    0.8843   -0.0250 C   0  0  0  0  0  0  0  0  0  0  0  0
    0.0671   -0.6578    0.1325 C   0  0  0  0  0  0  0  0  0  0  0  0
   -1.3223   -2.7672   -0.0074 O   0  0  0  0  0  0  0  0  0  0  0  0
   -0.2097   -3.6412   -0.1144 C   0  0  0  0  0  0  0  0  0  0  0  0
    1.8982   -3.4650   -1.3978 O   0  0  0  0  0  0  0  0  0  0  0  0
    0.6817   -3.5297   -1.3657 C   0  0  0  0  0  0  0  0  0  0  0  0
   -0.0112   -3.5189   -2.5208 O   0  0  0  0  0  0  0  0  0  0  0  0
    1.5470   -2.2113    0.5764 H   0  0  0  0  0  0  0  0  0  0  0  0
    3.4775   -1.0237    0.0767 H   0  0  0  0  0  0  0  0  0  0  0  0
   -3.3156   -1.2687   -0.0342 H   0  0  0  0  0  0  0  0  0  0  0  0
   -3.3723    1.2003   -0.0437 H   0  0  0  0  0  0  0  0  0  0  0  0
   -1.2775    2.4900   -0.0434 H   0  0  0  0  0  0  0  0  0  0  0  0
    1.1858    2.5880   -0.0117 H   0  0  0  0  0  0  0  0  0  0  0  0
    3.3839    1.4556   -0.1034 H   0  0  0  0  0  0  0  0  0  0  0  0
    0.3626   -3.6047    0.8190 H   0  0  0  0  0  0  0  0  0  0  0  0
   -0.5795   -4.6717   -0.1114 H   0  0  0  0  0  0  0  0  0  0  0  0
    0.6823   -3.3356   -3.1894 H   0  0  0  0  0  0  0  0  0  0  0  0
  1 10  2  0  0  0  0
  1 16  1  0  0  0  0
  2  1  1  0  0  0  0
  2 17  1  0  0  0  0
  3  4  2  0  0  0  0
  3 10  1  0  0  0  0
  4  5  1  0  0  0  0
  4 18  1  0  0  0  0
  5  6  2  0  0  0  0
  5 19  1  0  0  0  0
  6  7  1  0  0  0  0
  6 20  1  0  0  0  0
  7  8  2  0  0  0  0
  7 10  1  0  0  0  0
  8  9  1  0  0  0  0
  8 21  1  0  0  0  0
  9  2  2  0  0  0  0
  9 22  1  0  0  0  0
 11  3  1  0  0  0  0
 12 11  1  0  0  0  0
 12 14  1  0  0  0  0
 12 23  1  0  0  0  0
 12 24  1  0  0  0  0
 14 13  2  0  0  0  0
 14 15  1  0  0  0  0
 15 25  1  0  0  0  0
M  END
>  <DRUGBANK_ID>
DB08286

>  <COMMON_NAME>
1-Naphthoxyacetic acid

>  <CAS_NUMBER>
2976-75-2

>  <UNII>
9QI2464POA

>  <SYNONYMS>
(1-naphthalenyloxy)acetic acid; (1-naphthyloxy)acetic acid; 1-naphthyloxyacetic acid

$$$$
