
 OpenBabel10282417123D

 28 29  0  0  1  0  0  0  0  0999 V2000
    1.1500   -0.8341   -0.3569 C   0  0  2  0  0  0  0  0  0  0  0  0
    2.3705   -1.6285   -0.2189 N   0  0  0  0  0  0  0  0  0  0  0  0
    1.3885    0.5627   -0.1865 O   0  0  0  0  0  0  0  0  0  0  0  0
   -0.0143   -1.2365    0.5329 C   0  0  0  0  0  0  0  0  0  0  0  0
    3.0910   -1.6846    0.9760 C   0  0  0  0  0  0  0  0  0  0  0  0
    2.6814   -2.4620   -1.2756 C   0  0  0  0  0  0  0  0  0  0  0  0
    0.2189    1.1395    0.4431 C   0  0  1  0  0  0  0  0  0  0  0  0
   -0.8369    0.0312    0.5408 C   0  0  1  0  0  0  0  0  0  0  0  0
    4.1487   -2.5758    0.9758 N   0  0  0  0  0  0  0  0  0  0  0  0
    2.8244   -1.0462    1.9908 O   0  0  0  0  0  0  0  0  0  0  0  0
    3.5641   -3.4535   -1.1717 C   0  0  0  0  0  0  0  0  0  0  0  0
    0.6258    1.6666    1.8223 C   0  0  0  0  0  0  0  0  0  0  0  0
   -1.7133    0.0303   -0.5924 O   0  0  0  0  0  0  0  0  0  0  0  0
    4.3265   -3.5824    0.0722 C   0  0  0  0  0  0  0  0  0  0  0  0
    0.0199    2.9378    2.0527 O   0  0  0  0  0  0  0  0  0  0  0  0
    5.0716   -4.5420    0.2542 O   0  0  0  0  0  0  0  0  0  0  0  0
    0.8089   -0.9280   -1.3956 H   0  0  0  0  0  0  0  0  0  0  0  0
    0.3144   -1.4862    1.5455 H   0  0  0  0  0  0  0  0  0  0  0  0
   -0.5480   -2.0981    0.1184 H   0  0  0  0  0  0  0  0  0  0  0  0
    2.1390   -2.3124   -2.2032 H   0  0  0  0  0  0  0  0  0  0  0  0
   -0.1327    1.9564   -0.1991 H   0  0  0  0  0  0  0  0  0  0  0  0
   -1.4754    0.1174    1.4246 H   0  0  0  0  0  0  0  0  0  0  0  0
    4.6812   -2.6494    1.8298 H   0  0  0  0  0  0  0  0  0  0  0  0
    3.7381   -4.1672   -1.9638 H   0  0  0  0  0  0  0  0  0  0  0  0
    0.2939    0.9974    2.6222 H   0  0  0  0  0  0  0  0  0  0  0  0
    1.7104    1.7802    1.9134 H   0  0  0  0  0  0  0  0  0  0  0  0
   -1.1946    0.0954   -1.4112 H   0  0  0  0  0  0  0  0  0  0  0  0
    0.3807    3.5490    1.3857 H   0  0  0  0  0  0  0  0  0  0  0  0
  1  3  1  0  0  0  0
  1  4  1  0  0  0  0
  1 17  1  6  0  0  0
  1  2  1  0  0  0  0
  2  5  1  0  0  0  0
  2  6  1  0  0  0  0
  3  7  1  0  0  0  0
  4  8  1  0  0  0  0
  4 18  1  0  0  0  0
  4 19  1  0  0  0  0
  5  9  1  0  0  0  0
  5 10  2  0  0  0  0
  6 11  2  0  0  0  0
  6 20  1  0  0  0  0
  7  8  1  0  0  0  0
  7 21  1  6  0  0  0
  7 12  1  0  0  0  0
  8 13  1  0  0  0  0
  8 22  1  1  0  0  0
  9 14  1  0  0  0  0
  9 23  1  0  0  0  0
 11 14  1  0  0  0  0
 11 24  1  0  0  0  0
 12 15  1  0  0  0  0
 12 25  1  0  0  0  0
 12 26  1  0  0  0  0
 13 27  1  0  0  0  0
 14 16  2  0  0  0  0
 15 28  1  0  0  0  0
M  END
>  <DRUGBANK_ID>
DB02256

>  <SECONDARY_ACCESSION_NUMBERS>
EXPT01300

>  <COMMON_NAME>
2'-Deoxyuridine

>  <CAS_NUMBER>
951-78-0

>  <UNII>
W78I7AY22C

$$$$
