3FP
 OpenBabel10282417163D

 56 58  0  0  0  0  0  0  0  0999 V2000
    1.1833   -0.7686    0.0385 C   0  0  0  0  0  0  0  0  0  0  0  0
   -1.0753    0.7204   -0.0288 N   0  0  0  0  0  0  0  0  0  0  0  0
   -0.0207   -1.4208   -0.0094 C   0  0  0  0  0  0  0  0  0  0  0  0
    6.1294    0.3239    0.0643 C   0  0  0  0  0  0  0  0  0  0  0  0
    5.2302    0.5479    1.1038 C   0  0  0  0  0  0  0  0  0  0  0  0
    3.9986   -0.0891    1.0879 C   0  0  0  0  0  0  0  0  0  0  0  0
    3.6403   -0.9535    0.0423 C   0  0  0  0  0  0  0  0  0  0  0  0
   -1.1283   -0.6184   -0.1110 C   0  0  0  0  0  0  0  0  0  0  0  0
   -3.8163    0.5028   -1.5330 C   0  0  0  0  0  0  0  0  0  0  0  0
   -3.4999   -0.4434   -0.5527 C   0  0  0  0  0  0  0  0  0  0  0  0
    4.5628   -1.2047   -0.9748 C   0  0  0  0  0  0  0  0  0  0  0  0
    5.8062   -0.5550   -0.9826 C   0  0  0  0  0  0  0  0  0  0  0  0
   -5.0210    1.2849   -1.5296 C   0  0  0  0  0  0  0  0  0  0  0  0
   -7.9418    1.8722    0.8147 C   0  0  0  0  0  0  0  0  0  0  0  0
   -5.4457    0.3141    0.4400 C   0  0  0  0  0  0  0  0  0  0  0  0
   -5.9088    1.1785   -0.4831 C   0  0  0  0  0  0  0  0  0  0  0  0
   -4.3072   -0.4513    0.5353 C   0  0  0  0  0  0  0  0  0  0  0  0
    0.1309    1.2617    0.0256 C   0  0  0  0  0  0  0  0  0  0  0  0
    1.2668    0.5765    0.0254 N   0  0  0  0  0  0  0  0  0  0  0  0
    2.3619   -1.5133   -0.0558 N   0  0  0  0  0  0  0  0  0  0  0  0
    3.1545    0.1310    2.1090 F   0  0  0  0  0  0  0  0  0  0  0  0
   -2.3443   -1.2213   -0.4918 N   0  0  0  0  0  0  0  0  0  0  0  0
   -7.1015    1.8405   -0.3920 O   0  0  0  0  0  0  0  0  0  0  0  0
    6.7631   -0.7938   -2.1206 C   0  0  0  0  0  0  0  0  0  0  0  0
    7.1066   -2.1062   -2.2348 F   0  0  0  0  0  0  0  0  0  0  0  0
    6.2451   -0.4345   -3.3267 F   0  0  0  0  0  0  0  0  0  0  0  0
    7.9330   -0.1094   -1.9947 F   0  0  0  0  0  0  0  0  0  0  0  0
   -8.7226    0.5901    1.2452 C   0  0  1  0  0  0  0  0  0  0  0  0
   -7.8983   -0.6339    1.6785 C   0  0  0  0  0  0  0  0  0  0  0  0
   -6.1315   -1.6377    2.9953 C   0  0  0  0  0  0  0  0  0  0  0  0
   -6.2481    0.8013    3.2355 C   0  0  0  0  0  0  0  0  0  0  0  0
   -7.0290   -0.4669    2.9453 N   0  0  0  0  0  0  0  0  0  0  0  0
   -9.5838    0.8637    2.3639 O   0  0  0  0  0  0  0  0  0  0  0  0
   -9.3644    0.3090    0.3984 H   0  0  0  0  0  0  0  0  0  0  0  0
   -0.0942   -2.4981   -0.0515 H   0  0  0  0  0  0  0  0  0  0  0  0
    7.0861    0.8422    0.0714 H   0  0  0  0  0  0  0  0  0  0  0  0
    5.4688    1.2213    1.9199 H   0  0  0  0  0  0  0  0  0  0  0  0
   -3.0841    0.6605   -2.3178 H   0  0  0  0  0  0  0  0  0  0  0  0
    4.2827   -1.8542   -1.8038 H   0  0  0  0  0  0  0  0  0  0  0  0
   -5.2382    1.9587   -2.3408 H   0  0  0  0  0  0  0  0  0  0  0  0
   -7.4434    2.3710    1.6511 H   0  0  0  0  0  0  0  0  0  0  0  0
   -8.7315    2.6118    0.5990 H   0  0  0  0  0  0  0  0  0  0  0  0
   -6.0896    0.1930    1.2416 H   0  0  0  0  0  0  0  0  0  0  0  0
   -4.0483   -1.0002    1.4308 H   0  0  0  0  0  0  0  0  0  0  0  0
    0.1889    2.3422    0.0344 H   0  0  0  0  0  0  0  0  0  0  0  0
    2.2976   -2.5171    0.0126 H   0  0  0  0  0  0  0  0  0  0  0  0
   -2.4872   -2.0648    0.0621 H   0  0  0  0  0  0  0  0  0  0  0  0
   -8.5631   -1.4871    1.8724 H   0  0  0  0  0  0  0  0  0  0  0  0
   -7.3889   -1.0029    0.7696 H   0  0  0  0  0  0  0  0  0  0  0  0
   -5.7028   -1.8865    2.0224 H   0  0  0  0  0  0  0  0  0  0  0  0
   -5.3009   -1.4927    3.6936 H   0  0  0  0  0  0  0  0  0  0  0  0
   -6.6789   -2.5383    3.2716 H   0  0  0  0  0  0  0  0  0  0  0  0
   -5.4860    1.1837    2.5339 H   0  0  0  0  0  0  0  0  0  0  0  0
   -6.9039    1.6549    3.4044 H   0  0  0  0  0  0  0  0  0  0  0  0
   -5.6253    0.6983    4.1287 H   0  0  0  0  0  0  0  0  0  0  0  0
   -9.0574    0.6162    3.1541 H   0  0  0  0  0  0  0  0  0  0  0  0
  1  3  2  0  0  0  0
  1 19  1  0  0  0  0
  1 20  1  0  0  0  0
  2  8  2  0  0  0  0
  2 18  1  0  0  0  0
  3  8  1  0  0  0  0
  3 35  1  0  0  0  0
  4  5  2  0  0  0  0
  4 12  1  0  0  0  0
  4 36  1  0  0  0  0
  5  6  1  0  0  0  0
  5 37  1  0  0  0  0
  6  7  2  0  0  0  0
  6 21  1  0  0  0  0
  7 11  1  0  0  0  0
  7 20  1  0  0  0  0
  8 22  1  0  0  0  0
  9 10  2  0  0  0  0
  9 13  1  0  0  0  0
  9 38  1  0  0  0  0
 10 17  1  0  0  0  0
 10 22  1  0  0  0  0
 11 12  2  0  0  0  0
 11 39  1  0  0  0  0
 12 24  1  0  0  0  0
 13 16  2  0  0  0  0
 13 40  1  0  0  0  0
 14 23  1  0  0  0  0
 14 28  1  0  0  0  0
 14 41  1  0  0  0  0
 14 42  1  0  0  0  0
 15 16  1  0  0  0  0
 15 17  2  0  0  0  0
 15 43  1  0  0  0  0
 16 23  1  0  0  0  0
 17 44  1  0  0  0  0
 18 19  2  0  0  0  0
 18 45  1  0  0  0  0
 20 46  1  0  0  0  0
 22 47  1  0  0  0  0
 24 25  1  0  0  0  0
 24 26  1  0  0  0  0
 24 27  1  0  0  0  0
 28 29  1  0  0  0  0
 28 33  1  0  0  0  0
 28 34  1  6  0  0  0
 29 32  1  0  0  0  0
 29 48  1  0  0  0  0
 29 49  1  0  0  0  0
 30 32  1  0  0  0  0
 30 50  1  0  0  0  0
 30 51  1  0  0  0  0
 30 52  1  0  0  0  0
 31 32  1  0  0  0  0
 31 53  1  0  0  0  0
 31 54  1  0  0  0  0
 31 55  1  0  0  0  0
 33 56  1  0  0  0  0
M  END
>  <DRUGBANK_ID>
DB07054

>  <COMMON_NAME>
(2R)-1-(DIMETHYLAMINO)-3-{4-[(6-{[2-FLUORO-5-(TRIFLUOROMETHYL)PHENYL]AMINO}PYRIMIDIN-4-YL)AMINO]PHENOXY}PROPAN-2-OL

$$$$
