
 OpenBabel10282417183D

 26 27  0  0  1  0  0  0  0  0999 V2000
    1.7803    0.3907    0.0058 C   0  0  0  0  0  0  0  0  0  0  0  0
    1.0013    2.7405   -0.1053 C   0  0  0  0  0  0  0  0  0  0  0  0
   -0.0203   -1.9176    1.1894 C   0  0  0  0  0  0  0  0  0  0  0  0
   -0.0157   -1.7571   -0.3397 C   0  0  0  0  0  0  0  0  0  0  0  0
   -0.9775   -0.6998    1.1892 C   0  0  2  0  0  0  0  0  0  0  0  0
   -0.4786    0.6489   -0.9454 C   0  0  1  0  0  0  0  0  0  0  0  0
   -1.7363    1.4506   -1.2960 C   0  0  0  0  0  0  0  0  0  0  0  0
    0.5256    1.2935    0.0528 C   0  0  0  0  0  0  0  0  0  0  0  0
   -0.8520   -0.6674   -0.3136 N   0  0  0  0  0  0  0  0  0  0  0  0
    0.6731   -2.2182   -1.2403 O   0  0  0  0  0  0  0  0  0  0  0  0
   -1.9338    2.0333   -2.3514 O   0  0  0  0  0  0  0  0  0  0  0  0
   -2.6374    1.5125   -0.3054 O   0  0  0  0  0  0  0  0  0  0  0  0
    0.6568    0.8376    2.7178 O   0  0  0  0  0  0  0  0  0  0  0  0
   -1.4218    1.9044    1.8649 O   0  0  0  0  0  0  0  0  0  0  0  0
   -0.3341    0.9638    1.6661 S   0  0  0  0  0  0  0  0  0  0  0  0
   -1.9959   -0.9074    1.5235 H   0  0  0  0  0  0  0  0  0  0  0  0
    0.0169    0.4709   -1.9103 H   0  0  0  0  0  0  0  0  0  0  0  0
    1.8055   -0.1535   -0.9414 H   0  0  0  0  0  0  0  0  0  0  0  0
    1.7309   -0.3145    0.8208 H   0  0  0  0  0  0  0  0  0  0  0  0
    2.7659    0.8273    0.1262 H   0  0  0  0  0  0  0  0  0  0  0  0
    1.7451    2.9802    0.6717 H   0  0  0  0  0  0  0  0  0  0  0  0
    1.5191    2.8832   -1.0634 H   0  0  0  0  0  0  0  0  0  0  0  0
    0.2186    3.4991   -0.0263 H   0  0  0  0  0  0  0  0  0  0  0  0
    0.9510   -1.7974    1.6851 H   0  0  0  0  0  0  0  0  0  0  0  0
   -0.3908   -2.8919    1.5158 H   0  0  0  0  0  0  0  0  0  0  0  0
   -3.3030    2.1946   -0.5346 H   0  0  0  0  0  0  0  0  0  0  0  0
  1 18  1  0  0  0  0
  1 19  1  0  0  0  0
  1 20  1  0  0  0  0
  2 21  1  0  0  0  0
  2 22  1  0  0  0  0
  2 23  1  0  0  0  0
  3 24  1  0  0  0  0
  3 25  1  0  0  0  0
  4  3  1  0  0  0  0
  5  3  1  0  0  0  0
  5 16  1  1  0  0  0
  6  7  1  0  0  0  0
  6 17  1  6  0  0  0
  8  1  1  0  0  0  0
  8  2  1  0  0  0  0
  8  6  1  0  0  0  0
  9  4  1  0  0  0  0
  9  5  1  0  0  0  0
  9  6  1  0  0  0  0
 10  4  2  0  0  0  0
 11  7  2  0  0  0  0
 12  7  1  0  0  0  0
 12 26  1  0  0  0  0
 15  5  1  0  0  0  0
 15  8  1  0  0  0  0
 15 13  2  0  0  0  0
 15 14  2  0  0  0  0
M  END
>  <DRUGBANK_ID>
DB09324

>  <COMMON_NAME>
Sulbactam

>  <CAS_NUMBER>
68373-14-8

>  <UNII>
S4TF6I2330

>  <SYNONYMS>
(2S,5R)-3,3-dimethyl-7-oxo-4-thia-1-azabicyclo(3.2.0)heptane-2-carboxylic acid 4,4-dioxide; (2S,5R)-3,3-dimethyl-7-oxo-4-thia-1-azabicyclo[3.2.0]heptane-2-carboxylic acid 4,4-dioxide; Penicillanic acid 1,1-dioxide; Penicillanic acid sulfone; Sulbactam; Sulbactamum

$$$$
