
 OpenBabel10282417143D

 34 36  0  0  0  0  0  0  0  0999 V2000
    0.0122    0.6836    0.0359 C   0  0  0  0  0  0  0  0  0  0  0  0
   -1.1733    1.4629    0.0057 C   0  0  0  0  0  0  0  0  0  0  0  0
    2.4869   -0.6279   -0.0416 C   0  0  0  0  0  0  0  0  0  0  0  0
    2.4580    0.7658   -0.0335 C   0  0  0  0  0  0  0  0  0  0  0  0
    1.2266    1.4040    0.0160 C   0  0  0  0  0  0  0  0  0  0  0  0
    1.2840   -1.4208    0.0187 C   0  0  0  0  0  0  0  0  0  0  0  0
   -0.0412   -0.7542    0.0838 C   0  0  0  0  0  0  0  0  0  0  0  0
   -2.4352    0.9264    0.0079 C   0  0  0  0  0  0  0  0  0  0  0  0
   -2.5387   -0.3924    0.1110 C   0  0  0  0  0  0  0  0  0  0  0  0
   -1.4333   -1.2041    0.1861 C   0  0  0  0  0  0  0  0  0  0  0  0
    1.5004   -2.8453    0.1804 N   0  0  0  0  0  0  0  0  0  0  0  0
    0.6577   -4.0152   -0.1173 C   0  0  0  0  0  0  0  0  0  0  0  0
   -0.9295   -5.8257    1.0160 C   0  0  0  0  0  0  0  0  0  0  0  0
   -1.8035   -5.8122   -0.2317 C   0  0  0  0  0  0  0  0  0  0  0  0
   -1.4239   -4.9929   -1.4491 C   0  0  0  0  0  0  0  0  0  0  0  0
   -0.2029   -4.0691   -1.4057 C   0  0  0  0  0  0  0  0  0  0  0  0
    0.3001   -4.9198    1.1073 C   0  0  0  0  0  0  0  0  0  0  0  0
   -2.8570   -2.8840    1.7863 O   0  0  0  0  0  0  0  0  0  0  0  0
   -3.2871   -2.8101   -0.7609 O   0  0  0  0  0  0  0  0  0  0  0  0
   -2.3301   -2.6612    0.2977 S   0  0  0  0  0  0  0  0  0  0  0  0
   -1.3453   -3.6163    0.5449 O   0  0  0  0  0  0  0  0  0  0  0  0
   -1.1573    2.5432   -0.0428 H   0  0  0  0  0  0  0  0  0  0  0  0
    3.4694   -1.1043   -0.0685 H   0  0  0  0  0  0  0  0  0  0  0  0
    3.3816    1.3484   -0.0469 H   0  0  0  0  0  0  0  0  0  0  0  0
    1.2171    2.4969    0.0504 H   0  0  0  0  0  0  0  0  0  0  0  0
   -3.3766    1.4399   -0.0545 H   0  0  0  0  0  0  0  0  0  0  0  0
   -3.5404   -0.8219    0.0830 H   0  0  0  0  0  0  0  0  0  0  0  0
    2.4562   -3.0970   -0.0752 H   0  0  0  0  0  0  0  0  0  0  0  0
   -1.3460   -6.3009    1.9393 H   0  0  0  0  0  0  0  0  0  0  0  0
   -2.9129   -6.0243   -0.0935 H   0  0  0  0  0  0  0  0  0  0  0  0
   -2.2874   -4.7126   -2.1285 H   0  0  0  0  0  0  0  0  0  0  0  0
   -0.2991   -3.1062   -2.0090 H   0  0  0  0  0  0  0  0  0  0  0  0
    0.6456   -4.5821    2.1368 H   0  0  0  0  0  0  0  0  0  0  0  0
   -2.0353   -3.3289    2.1840 H   0  0  0  0  0  0  0  0  0  0  0  0
  1  2  1  0  0  0  0
  2  8  2  0  0  0  0
  2 22  1  0  0  0  0
  3  4  2  0  0  0  0
  3 23  1  0  0  0  0
  4  5  1  0  0  0  0
  4 24  1  0  0  0  0
  5  1  2  0  0  0  0
  5 25  1  0  0  0  0
  6  3  1  0  0  0  0
  6 11  1  0  0  0  0
  7  1  1  0  0  0  0
  7  6  2  0  0  0  0
  8  9  1  0  0  0  0
  8 26  1  0  0  0  0
  9 10  2  0  0  0  0
  9 27  1  0  0  0  0
 10  7  1  0  0  0  0
 10 20  1  0  0  0  0
 11 12  1  0  0  0  0
 11 28  1  0  0  0  0
 12 17  1  0  0  0  0
 13 14  1  0  0  0  0
 13 17  2  0  0  0  0
 13 29  1  0  0  0  0
 14 15  2  0  0  0  0
 14 30  1  0  0  0  0
 15 16  1  0  0  0  0
 15 31  1  0  0  0  0
 16 12  2  0  0  0  0
 16 32  1  0  0  0  0
 17 33  1  0  0  0  0
 18 34  1  0  0  0  0
 20 18  1  0  0  0  0
 20 19  2  0  0  0  0
 20 21  2  0  0  0  0
M  END
>  <DRUGBANK_ID>
DB04474

>  <SECONDARY_ACCESSION_NUMBERS>
EXPT00103

>  <COMMON_NAME>
8-anilinonaphthalene-1-sulfonic acid

>  <CAS_NUMBER>
82-76-8

>  <UNII>
630I4V6051

>  <SYNONYMS>
1-(phenylamino)-8-naphthalenesulfonic acid; 1-Anilino-8-naphthalenesulfonate; 1-anilino-8-naphthalenesulfonic acid; 8-Anilino-1-naphthalene sulfonic acid; 8-anilinonaphthalene-1-sulphonic acid

$$$$
