
 OpenBabel10282417113D

 61 64  0  0  0  0  0  0  0  0999 V2000
    0.8798    0.0917   -0.3656 O   0  0  0  0  0  0  0  0  0  0  0  0
    6.5937   -2.2709   -2.5091 O   0  0  0  0  0  0  0  0  0  0  0  0
    2.7242   -0.1452   -1.6856 N   0  0  0  0  0  0  0  0  0  0  0  0
    4.8934   -1.3002   -0.5039 N   0  0  0  0  0  0  0  0  0  0  0  0
    2.9336    0.2814    1.1659 C   0  0  0  0  0  0  0  0  0  0  0  0
    2.0773    0.0184   -0.3851 C   0  0  0  0  0  0  0  0  0  0  0  0
    2.4407    1.7339    1.7132 C   0  0  0  0  0  0  0  0  0  0  0  0
    2.6143   -0.8928    2.2298 C   0  0  0  0  0  0  0  0  0  0  0  0
    4.5459    0.3639    1.2055 C   0  0  1  0  0  0  0  0  0  0  0  0
    2.4644   -2.2057    1.7796 C   0  0  0  0  0  0  0  0  0  0  0  0
    2.0760    1.9795    3.0457 C   0  0  0  0  0  0  0  0  0  0  0  0
    2.5792    2.8965    0.9440 C   0  0  0  0  0  0  0  0  0  0  0  0
    2.7558   -0.7664    3.6462 C   0  0  0  0  0  0  0  0  0  0  0  0
    5.2667   -0.9561    0.8245 C   0  0  0  0  0  0  0  0  0  0  0  0
    5.0385    1.5768    0.4093 C   0  0  0  0  0  0  0  0  0  0  0  0
    2.2904    0.5668   -2.8876 C   0  0  0  0  0  0  0  0  0  0  0  0
    3.0141   -1.4482   -2.2774 C   0  0  0  0  0  0  0  0  0  0  0  0
    2.4868   -3.2942    2.6723 C   0  0  0  0  0  0  0  0  0  0  0  0
    2.2123    3.2138    3.6811 C   0  0  0  0  0  0  0  0  0  0  0  0
    2.6426   -1.8268    4.5465 C   0  0  0  0  0  0  0  0  0  0  0  0
    2.6616    4.1665    1.5455 C   0  0  0  0  0  0  0  0  0  0  0  0
    3.5167   -1.3619   -3.7189 C   0  0  0  0  0  0  0  0  0  0  0  0
    2.4491   -0.4350   -4.1156 C   0  0  0  0  0  0  0  0  0  0  0  0
    2.4999    4.3234    2.9190 C   0  0  0  0  0  0  0  0  0  0  0  0
    2.5340   -3.1060    4.0527 C   0  0  0  0  0  0  0  0  0  0  0  0
    5.5117   -0.3822   -1.5438 C   0  0  0  0  0  0  0  0  0  0  0  0
    4.9172   -2.7964   -0.7777 C   0  0  0  0  0  0  0  0  0  0  0  0
    6.2261   -3.1485   -1.4276 C   0  0  0  0  0  0  0  0  0  0  0  0
    6.7693   -0.9147   -2.1126 C   0  0  0  0  0  0  0  0  0  0  0  0
    4.8933    0.5540    2.2322 H   0  0  0  0  0  0  0  0  0  0  0  0
    2.4476   -2.4115    0.7154 H   0  0  0  0  0  0  0  0  0  0  0  0
    1.5902    1.2212    3.6392 H   0  0  0  0  0  0  0  0  0  0  0  0
    2.7100    2.8372   -0.1323 H   0  0  0  0  0  0  0  0  0  0  0  0
    3.0036    0.1580    4.1559 H   0  0  0  0  0  0  0  0  0  0  0  0
    6.3574   -0.9090    0.8548 H   0  0  0  0  0  0  0  0  0  0  0  0
    4.9988   -1.7629    1.5161 H   0  0  0  0  0  0  0  0  0  0  0  0
    5.0147    2.5199    0.9467 H   0  0  0  0  0  0  0  0  0  0  0  0
    6.0862    1.4855    0.1129 H   0  0  0  0  0  0  0  0  0  0  0  0
    4.3829    1.7032   -0.4637 H   0  0  0  0  0  0  0  0  0  0  0  0
    2.9818    1.4123   -2.9876 H   0  0  0  0  0  0  0  0  0  0  0  0
    1.2645    0.9083   -2.8023 H   0  0  0  0  0  0  0  0  0  0  0  0
    2.3823   -2.2564   -1.9223 H   0  0  0  0  0  0  0  0  0  0  0  0
    3.9889   -1.7193   -2.1193 H   0  0  0  0  0  0  0  0  0  0  0  0
    2.5058   -4.3047    2.2769 H   0  0  0  0  0  0  0  0  0  0  0  0
    2.0470    3.2832    4.7538 H   0  0  0  0  0  0  0  0  0  0  0  0
    2.7110   -1.6318    5.6153 H   0  0  0  0  0  0  0  0  0  0  0  0
    2.8903    5.0337    0.9340 H   0  0  0  0  0  0  0  0  0  0  0  0
    3.6954   -2.3737   -4.1130 H   0  0  0  0  0  0  0  0  0  0  0  0
    4.5020   -0.8881   -3.9276 H   0  0  0  0  0  0  0  0  0  0  0  0
    1.5916   -1.1055   -4.1964 H   0  0  0  0  0  0  0  0  0  0  0  0
    2.7104    0.0285   -5.0629 H   0  0  0  0  0  0  0  0  0  0  0  0
    2.5138    5.3053    3.3801 H   0  0  0  0  0  0  0  0  0  0  0  0
    2.5238   -3.9450    4.7407 H   0  0  0  0  0  0  0  0  0  0  0  0
    4.8742   -0.1189   -2.3756 H   0  0  0  0  0  0  0  0  0  0  0  0
    5.6271    0.6779   -1.3838 H   0  0  0  0  0  0  0  0  0  0  0  0
    4.1824   -3.2271   -1.5009 H   0  0  0  0  0  0  0  0  0  0  0  0
    4.5535   -3.4015    0.0655 H   0  0  0  0  0  0  0  0  0  0  0  0
    6.9758   -3.1338   -0.6456 H   0  0  0  0  0  0  0  0  0  0  0  0
    6.1317   -4.1411   -1.8748 H   0  0  0  0  0  0  0  0  0  0  0  0
    7.0061   -0.3078   -2.9960 H   0  0  0  0  0  0  0  0  0  0  0  0
    7.5428   -0.7850   -1.3582 H   0  0  0  0  0  0  0  0  0  0  0  0
  1  6  2  0  0  0  0
  2 28  1  0  0  0  0
  2 29  1  0  0  0  0
  3  6  1  0  0  0  0
  3 16  1  0  0  0  0
  3 17  1  0  0  0  0
  4 14  1  0  0  0  0
  4 26  1  0  0  0  0
  4 27  1  0  0  0  0
  5  6  1  0  0  0  0
  5  7  1  0  0  0  0
  5  8  1  0  0  0  0
  5  9  1  0  0  0  0
  7 11  2  0  0  0  0
  7 12  1  0  0  0  0
  8 10  2  0  0  0  0
  8 13  1  0  0  0  0
  9 14  1  0  0  0  0
  9 15  1  0  0  0  0
  9 30  1  1  0  0  0
 10 18  1  0  0  0  0
 10 31  1  0  0  0  0
 11 19  1  0  0  0  0
 11 32  1  0  0  0  0
 12 21  2  0  0  0  0
 12 33  1  0  0  0  0
 13 20  2  0  0  0  0
 13 34  1  0  0  0  0
 14 35  1  0  0  0  0
 14 36  1  0  0  0  0
 15 37  1  0  0  0  0
 15 38  1  0  0  0  0
 15 39  1  0  0  0  0
 16 23  1  0  0  0  0
 16 40  1  0  0  0  0
 16 41  1  0  0  0  0
 17 22  1  0  0  0  0
 17 42  1  0  0  0  0
 17 43  1  0  0  0  0
 18 25  2  0  0  0  0
 18 44  1  0  0  0  0
 19 24  2  0  0  0  0
 19 45  1  0  0  0  0
 20 25  1  0  0  0  0
 20 46  1  0  0  0  0
 21 24  1  0  0  0  0
 21 47  1  0  0  0  0
 22 23  1  0  0  0  0
 22 48  1  0  0  0  0
 22 49  1  0  0  0  0
 23 50  1  0  0  0  0
 23 51  1  0  0  0  0
 24 52  1  0  0  0  0
 25 53  1  0  0  0  0
 26 29  1  0  0  0  0
 26 54  1  0  0  0  0
 26 55  1  0  0  0  0
 27 28  1  0  0  0  0
 27 56  1  0  0  0  0
 27 57  1  0  0  0  0
 28 58  1  0  0  0  0
 28 59  1  0  0  0  0
 29 60  1  0  0  0  0
 29 61  1  0  0  0  0
M  END
>  <DRUGBANK_ID>
DB01529

>  <COMMON_NAME>
Dextromoramide

>  <CAS_NUMBER>
357-56-2

>  <UNII>
9S4S6CIY83

>  <SYNONYMS>
(+)-1-(3-methyl-4-morpholino-2,2-diphenylbutyryl)pyrrolidine; (+)-4-(2-methyl-4-oxo-3,3-diphenyl-4-(1-pyrrolidinyl)butyl)morpholine; 1-((3S)-3-methyl-4-(4-morpholinyl)-1-oxo-2,2-diphenylbutyl)pyrrolidine; 4-(2-methyl-4-oxo-3,3-diphenyl-4-(1-pyrrolidinyl)butyl)morpholine; D-2,2-diphenyl-3-methyl-4-morpholinobutyrylpyrrolidine; dextromoramida; Dextromoramide; dextromoramidum; palphium; Pyrrolamidol

$$$$
