
 OpenBabel10282417183D

 27 29  0  0  1  0  0  0  0  0999 V2000
    4.4007   -2.2030    0.3827 C   0  0  0  0  0  0  0  0  0  0  0  0
    3.7860   -0.9694    0.6487 C   0  0  0  0  0  0  0  0  0  0  0  0
    4.0117    0.1377   -0.1923 C   0  0  0  0  0  0  0  0  0  0  0  0
    4.9431   -0.0347   -1.2266 C   0  0  0  0  0  0  0  0  0  0  0  0
    5.5742   -1.2353   -1.4796 C   0  0  0  0  0  0  0  0  0  0  0  0
    5.3214   -2.3210   -0.6628 C   0  0  0  0  0  0  0  0  0  0  0  0
    6.1168   -3.4976   -0.8377 C   0  0  0  0  0  0  0  0  0  0  0  0
    6.8281   -4.3987   -0.9677 N   0  0  0  0  0  0  0  0  0  0  0  0
    5.3377    0.9663   -2.0118 F   0  0  0  0  0  0  0  0  0  0  0  0
    3.2015    1.4084   -0.0077 C   0  0  1  0  0  0  0  0  0  0  0  0
    3.4087    2.1043    1.3753 C   0  0  0  0  0  0  0  0  0  0  0  0
    3.9265    3.5364    1.1072 C   0  0  0  0  0  0  0  0  0  0  0  0
    3.9812    3.6099   -0.3489 C   0  0  0  0  0  0  0  0  0  0  0  0
    3.5188    2.4835   -0.9491 N   0  0  0  0  0  0  0  0  0  0  0  0
    3.6126    2.6492   -2.2878 C   0  0  0  0  0  0  0  0  0  0  0  0
    4.1498    3.8240   -2.5696 N   0  0  0  0  0  0  0  0  0  0  0  0
    4.3820    4.4350   -1.3574 C   0  0  0  0  0  0  0  0  0  0  0  0
    4.1712   -3.0665    1.0050 H   0  0  0  0  0  0  0  0  0  0  0  0
    3.1481   -0.8853    1.5296 H   0  0  0  0  0  0  0  0  0  0  0  0
    6.2842   -1.2680   -2.3017 H   0  0  0  0  0  0  0  0  0  0  0  0
    2.1358    1.1756   -0.1370 H   0  0  0  0  0  0  0  0  0  0  0  0
    2.4575    2.1650    1.9215 H   0  0  0  0  0  0  0  0  0  0  0  0
    4.1048    1.5706    2.0331 H   0  0  0  0  0  0  0  0  0  0  0  0
    3.2264    4.2844    1.4895 H   0  0  0  0  0  0  0  0  0  0  0  0
    4.9111    3.6852    1.5562 H   0  0  0  0  0  0  0  0  0  0  0  0
    3.4014    1.8793   -3.0210 H   0  0  0  0  0  0  0  0  0  0  0  0
    4.8256    5.4173   -1.2849 H   0  0  0  0  0  0  0  0  0  0  0  0
  1  2  2  0  0  0  0
  1  6  1  0  0  0  0
  1 18  1  0  0  0  0
  2  3  1  0  0  0  0
  2 19  1  0  0  0  0
  3  4  2  0  0  0  0
  4  5  1  0  0  0  0
  4  9  1  0  0  0  0
  5  6  2  0  0  0  0
  5 20  1  0  0  0  0
  6  7  1  0  0  0  0
  7  8  3  0  0  0  0
 10 11  1  0  0  0  0
 10 14  1  0  0  0  0
 10 21  1  6  0  0  0
 10  3  1  0  0  0  0
 11 12  1  0  0  0  0
 11 22  1  0  0  0  0
 11 23  1  0  0  0  0
 12 13  1  0  0  0  0
 12 24  1  0  0  0  0
 12 25  1  0  0  0  0
 13 14  1  0  0  0  0
 13 17  2  0  0  0  0
 14 15  1  0  0  0  0
 15 16  2  0  0  0  0
 15 26  1  0  0  0  0
 16 17  1  0  0  0  0
 17 27  1  0  0  0  0
M  END
>  <DRUGBANK_ID>
DB11837

>  <COMMON_NAME>
Osilodrostat

>  <CAS_NUMBER>
928134-65-0

>  <UNII>
5YL4IQ1078

>  <SYNONYMS>
Osilodrostat

$$$$
