
 OpenBabel10282417193D

 59 63  0  0  0  0  0  0  0  0999 V2000
    1.3430    0.0590    0.9485 C   0  0  0  0  0  0  0  0  0  0  0  0
    0.5378   -0.8445    1.7676 N   0  0  0  0  0  0  0  0  0  0  0  0
   -0.9284   -0.7088    1.6612 C   0  0  0  0  0  0  0  0  0  0  0  0
    0.9192   -2.2158    1.3647 C   0  0  0  0  0  0  0  0  0  0  0  0
    0.3690   -2.8268    0.0112 C   0  0  0  0  0  0  0  0  0  0  0  0
    0.6192   -2.1898   -1.2939 N   0  0  0  0  0  0  0  0  0  0  0  0
    1.3538   -2.8037   -2.3275 C   0  0  0  0  0  0  0  0  0  0  0  0
    1.5866   -1.8811   -3.3505 C   0  0  0  0  0  0  0  0  0  0  0  0
    1.0561   -0.6840   -2.8171 C   0  0  0  0  0  0  0  0  0  0  0  0
    0.2394   -0.9127   -1.7346 C   0  0  0  0  0  0  0  0  0  0  0  0
   -0.4997    0.2315   -1.2421 C   0  0  0  0  0  0  0  0  0  0  0  0
   -0.1424    1.5588   -1.5817 C   0  0  0  0  0  0  0  0  0  0  0  0
    0.6353    1.7792   -2.6565 C   0  0  0  0  0  0  0  0  0  0  0  0
    1.0746    0.6283   -3.2482 C   0  0  0  0  0  0  0  0  0  0  0  0
   -0.5661    2.9032   -0.5920 Cl  0  0  0  0  0  0  0  0  0  0  0  0
    2.1632   -2.0511   -4.7209 C   0  0  0  0  0  0  0  0  0  0  0  0
    2.4195   -3.2085   -5.1388 O   0  0  0  0  0  0  0  0  0  0  0  0
    2.1444   -0.9168   -5.5976 N   0  0  0  0  0  0  0  0  0  0  0  0
    3.0262    0.2639   -5.4723 C   0  0  0  0  0  0  0  0  0  0  0  0
    2.2578    1.6567   -5.8080 C   0  0  0  0  0  0  0  0  0  0  0  0
    1.5755    1.6938   -7.2360 C   0  0  0  0  0  0  0  0  0  0  0  0
    0.6767    0.3721   -7.1920 C   0  0  0  0  0  0  0  0  0  0  0  0
    1.5104   -0.9677   -6.9131 C   0  0  0  0  0  0  0  0  0  0  0  0
    1.3088    3.2149   -7.6914 C   0  0  0  0  0  0  0  0  0  0  0  0
    0.3615    4.1956   -8.0944 C   0  0  0  0  0  0  0  0  0  0  0  0
    0.7599    5.5878   -8.2973 C   0  0  0  0  0  0  0  0  0  0  0  0
    2.0518    6.0170   -7.9958 C   0  0  0  0  0  0  0  0  0  0  0  0
    2.9839    5.0475   -7.7051 C   0  0  0  0  0  0  0  0  0  0  0  0
    2.6158    3.7055   -7.7716 C   0  0  0  0  0  0  0  0  0  0  0  0
    3.5728    2.5822   -7.9516 C   0  0  0  0  0  0  0  0  0  0  0  0
    2.7095    1.4349   -8.1022 O   0  0  0  0  0  0  0  0  0  0  0  0
    1.0695    1.1137    0.9603 H   0  0  0  0  0  0  0  0  0  0  0  0
    1.2126   -0.2816   -0.0343 H   0  0  0  0  0  0  0  0  0  0  0  0
    2.4342   -0.0616    0.9392 H   0  0  0  0  0  0  0  0  0  0  0  0
   -1.3604   -1.1940    0.7766 H   0  0  0  0  0  0  0  0  0  0  0  0
   -1.4354   -1.2222    2.4807 H   0  0  0  0  0  0  0  0  0  0  0  0
   -1.2799    0.3312    1.6628 H   0  0  0  0  0  0  0  0  0  0  0  0
    2.0159   -2.2783    1.3817 H   0  0  0  0  0  0  0  0  0  0  0  0
    0.5916   -2.8558    2.1955 H   0  0  0  0  0  0  0  0  0  0  0  0
    0.8000   -3.8362   -0.0379 H   0  0  0  0  0  0  0  0  0  0  0  0
   -0.7123   -2.9741    0.0649 H   0  0  0  0  0  0  0  0  0  0  0  0
    1.6251   -3.8535   -2.2497 H   0  0  0  0  0  0  0  0  0  0  0  0
   -1.1409    0.1861   -0.3963 H   0  0  0  0  0  0  0  0  0  0  0  0
    0.8376    2.7595   -3.0693 H   0  0  0  0  0  0  0  0  0  0  0  0
    1.4227    0.6403   -4.2126 H   0  0  0  0  0  0  0  0  0  0  0  0
    3.4920    0.2653   -4.4762 H   0  0  0  0  0  0  0  0  0  0  0  0
    3.8609    0.1227   -6.1705 H   0  0  0  0  0  0  0  0  0  0  0  0
    1.4326    1.9872   -5.1778 H   0  0  0  0  0  0  0  0  0  0  0  0
    2.9797    2.4418   -5.5686 H   0  0  0  0  0  0  0  0  0  0  0  0
   -0.0568    0.4337   -6.3688 H   0  0  0  0  0  0  0  0  0  0  0  0
    0.1162    0.2209   -8.1158 H   0  0  0  0  0  0  0  0  0  0  0  0
    2.2972   -1.1045   -7.6655 H   0  0  0  0  0  0  0  0  0  0  0  0
    0.8713   -1.8595   -6.9492 H   0  0  0  0  0  0  0  0  0  0  0  0
   -0.6920    4.0196   -8.3182 H   0  0  0  0  0  0  0  0  0  0  0  0
    0.0724    6.3638   -8.6599 H   0  0  0  0  0  0  0  0  0  0  0  0
    2.3543    7.0649   -8.0274 H   0  0  0  0  0  0  0  0  0  0  0  0
    3.9990    5.3067   -7.4322 H   0  0  0  0  0  0  0  0  0  0  0  0
    4.2111    2.4892   -7.0729 H   0  0  0  0  0  0  0  0  0  0  0  0
    4.1752    2.6663   -8.8485 H   0  0  0  0  0  0  0  0  0  0  0  0
  1  2  1  0  0  0  0
  1 32  1  0  0  0  0
  1 33  1  0  0  0  0
  1 34  1  0  0  0  0
  2  3  1  0  0  0  0
  2  4  1  0  0  0  0
  3 35  1  0  0  0  0
  3 36  1  0  0  0  0
  3 37  1  0  0  0  0
  4  5  1  0  0  0  0
  4 38  1  0  0  0  0
  4 39  1  0  0  0  0
  5  6  1  0  0  0  0
  5 40  1  0  0  0  0
  5 41  1  0  0  0  0
  6  7  1  0  0  0  0
  6 10  1  0  0  0  0
  7  8  2  0  0  0  0
  7 42  1  0  0  0  0
  8  9  1  0  0  0  0
  8 16  1  0  0  0  0
  9 10  1  0  0  0  0
  9 14  2  0  0  0  0
 10 11  2  0  0  0  0
 11 12  1  0  0  0  0
 11 43  1  0  0  0  0
 12 13  2  0  0  0  0
 12 15  1  0  0  0  0
 13 14  1  0  0  0  0
 13 44  1  0  0  0  0
 14 45  1  0  0  0  0
 16 17  2  0  0  0  0
 16 18  1  0  0  0  0
 18 19  1  0  0  0  0
 18 23  1  0  0  0  0
 19 20  1  0  0  0  0
 19 46  1  0  0  0  0
 19 47  1  0  0  0  0
 20 21  1  0  0  0  0
 20 48  1  0  0  0  0
 20 49  1  0  0  0  0
 21 22  1  0  0  0  0
 21 24  1  0  0  0  0
 21 31  1  0  0  0  0
 22 23  1  0  0  0  0
 22 50  1  0  0  0  0
 22 51  1  0  0  0  0
 23 52  1  0  0  0  0
 23 53  1  0  0  0  0
 24 25  2  0  0  0  0
 24 29  1  0  0  0  0
 25 26  1  0  0  0  0
 25 54  1  0  0  0  0
 26 27  2  0  0  0  0
 26 55  1  0  0  0  0
 27 28  1  0  0  0  0
 27 56  1  0  0  0  0
 28 29  2  0  0  0  0
 28 57  1  0  0  0  0
 29 30  1  0  0  0  0
 30 31  1  0  0  0  0
 30 58  1  0  0  0  0
 30 59  1  0  0  0  0
M  END
>  <DRUGBANK_ID>
DB12721

>  <COMMON_NAME>
RO-5028442

>  <CAS_NUMBER>
920022-47-5

>  <UNII>
LZ0EU1YHCK

$$$$
