
 OpenBabel10282417243D

138140  0  0  1  0  0  0  0  0999 V2000
   -3.9323   -0.6267    0.8687 H   0  0  0  0  0  0  0  0  0  0  0  0
   -3.8890   -0.7986   -0.7000 C   0  0  2  0  0  0  0  0  0  0  0  0
   -5.6402    0.0105    0.4084 C   0  0  0  0  0  0  0  0  0  0  0  0
   -6.2009   -0.0077   -0.8664 C   0  0  0  0  0  0  0  0  0  0  0  0
   -5.5616    1.1260   -1.5906 C   0  0  1  0  0  0  0  0  0  0  0  0
   -6.2243    2.3130   -1.4229 O   0  0  0  0  0  0  0  0  0  0  0  0
   -4.2562    1.5476   -1.1721 N   0  0  0  0  0  0  0  0  0  0  0  0
   -2.9800    1.4986   -1.8315 C   0  0  0  0  0  0  0  0  0  0  0  0
   -2.1879    2.6145   -2.0889 C   0  0  1  0  0  0  0  0  0  0  0  0
   -1.6948    3.0435   -0.8301 C   0  0  0  0  0  0  0  0  0  0  0  0
   -1.0065    2.4035   -2.9496 C   0  0  0  0  0  0  0  0  0  0  0  0
   -1.3398    2.3049   -4.3601 C   0  0  0  0  0  0  0  0  0  0  0  0
   -2.0932    0.5574   -1.1173 C   0  0  0  0  0  0  0  0  0  0  0  0
   -2.2906   -0.2574   -1.8818 O   0  0  0  0  0  0  0  0  0  0  0  0
   -1.5032    0.2879    0.0063 N   0  0  0  0  0  0  0  0  0  0  0  0
   -1.7290    1.2926    0.8933 C   0  0  0  0  0  0  0  0  0  0  0  0
   -0.6389   -0.7890    0.4764 C   0  0  0  0  0  0  0  0  0  0  0  0
   -1.4051   -2.1190    0.7012 C   0  0  0  0  0  0  0  0  0  0  0  0
   -1.9394   -2.8535   -0.3596 C   0  0  0  0  0  0  0  0  0  0  0  0
   -3.0068   -3.5529   -0.7013 C   0  0  0  0  0  0  0  0  0  0  0  0
   -3.4745   -4.0975   -1.8479 C   0  0  0  0  0  0  0  0  0  0  0  0
   -2.9315   -3.6522   -2.9340 C   0  0  0  0  0  0  0  0  0  0  0  0
   -3.3212   -3.8081   -4.9808 O   0  0  0  0  0  0  0  0  0  0  0  0
   -1.4745   -2.4923   -2.8668 C   0  0  0  0  0  0  0  0  0  0  0  0
   -1.1505   -2.6518   -1.2614 C   0  0  0  0  0  0  0  0  0  0  0  0
    0.7462   -0.8909   -0.4294 C   0  0  0  0  0  0  0  0  0  0  0  0
    1.8175   -0.7803    0.0981 O   0  0  0  0  0  0  0  0  0  0  0  0
    0.8512   -1.1209   -1.7996 N   0  0  0  0  0  0  0  0  0  0  0  0
   -0.2487   -1.3915   -2.3854 C   0  0  1  0  0  0  0  0  0  0  0  0
   -0.9662   -0.5278   -3.2297 C   0  0  1  0  0  0  0  0  0  0  0  0
    0.1554   -0.8360   -4.2477 C   0  0  0  0  0  0  0  0  0  0  0  0
   -2.6364   -0.4308   -3.5767 C   0  0  0  0  0  0  0  0  0  0  0  0
   -4.0691   -0.3724   -3.0474 C   0  0  0  0  0  0  0  0  0  0  0  0
   -0.2091   -3.5777   -2.4477 C   0  0  0  0  0  0  0  0  0  0  0  0
   -1.1945   -4.4344   -2.1770 O   0  0  0  0  0  0  0  0  0  0  0  0
    0.4008   -3.7519   -3.4337 O   0  0  0  0  0  0  0  0  0  0  0  0
   -0.2290   -5.2249   -3.9243 C   0  0  2  0  0  0  0  0  0  0  0  0
    1.1850   -5.3967   -5.2759 C   0  0  0  0  0  0  0  0  0  0  0  0
   -2.0630   -5.5605   -4.5242 C   0  0  2  0  0  0  0  0  0  0  0  0
   -3.2463   -5.1368   -3.8622 N   0  0  0  0  0  0  0  0  0  0  0  0
   -4.2950   -3.4012   -3.9382 C   0  0  0  0  0  0  0  0  0  0  0  0
   -4.8688   -2.8556   -3.0325 O   0  0  0  0  0  0  0  0  0  0  0  0
   -2.7562   -2.3161   -5.1244 C   0  0  2  0  0  0  0  0  0  0  0  0
   -3.3537   -1.2305   -4.9722 C   0  0  0  0  0  0  0  0  0  0  0  0
   -1.6414    0.0894   -4.9031 C   0  0  0  0  0  0  0  0  0  0  0  0
   -1.4071    0.3747   -6.1546 C   0  0  0  0  0  0  0  0  0  0  0  0
   -1.3490    1.5336   -6.5984 N   0  0  0  0  0  0  0  0  0  0  0  0
   -1.0931   -0.5717   -6.7495 O   0  0  0  0  0  0  0  0  0  0  0  0
   -2.6247   -2.3852   -6.4658 N   0  0  0  0  0  0  0  0  0  0  0  0
   -1.5099   -2.7864   -7.1427 C   0  0  0  0  0  0  0  0  0  0  0  0
   -1.7523   -3.1945   -8.2472 O   0  0  0  0  0  0  0  0  0  0  0  0
   -0.0318   -2.9153   -6.6063 C   0  0  0  0  0  0  0  0  0  0  0  0
    0.5724   -1.7898   -6.1166 C   0  0  0  0  0  0  0  0  0  0  0  0
    0.2992   -3.5293   -5.4008 C   0  0  0  0  0  0  0  0  0  0  0  0
   -1.9736   -6.7084   -5.3408 C   0  0  0  0  0  0  0  0  0  0  0  0
   -2.7945   -7.4364   -4.9125 O   0  0  0  0  0  0  0  0  0  0  0  0
   -1.1704   -6.8252   -6.3124 N   0  0  0  0  0  0  0  0  0  0  0  0
   -1.0441   -5.0465   -5.8577 C   0  0  1  0  0  0  0  0  0  0  0  0
    0.6476   -6.2560   -6.9169 C   0  0  0  0  0  0  0  0  0  0  0  0
    1.3968   -7.9554   -7.5332 C   0  0  0  0  0  0  0  0  0  0  0  0
    1.2532   -7.8661   -9.0175 C   0  0  0  0  0  0  0  0  0  0  0  0
    2.8734   -8.5542   -7.3123 C   0  0  0  0  0  0  0  0  0  0  0  0
   -1.8111   -3.5763   -4.0741 C   0  0  0  0  0  0  0  0  0  0  0  0
   -1.6902   -3.8782   -5.6097 O   0  0  0  0  0  0  0  0  0  0  0  0
   -2.9646   -2.1065   -2.3889 N   0  0  0  0  0  0  0  0  0  0  0  0
   -4.1148    1.2451    0.1051 C   0  0  0  0  0  0  0  0  0  0  0  0
   -3.8760    2.4871    0.7223 O   0  0  0  0  0  0  0  0  0  0  0  0
   -6.4265   -0.4984    1.2418 H   0  0  0  0  0  0  0  0  0  0  0  0
   -6.5259    1.1769    0.8307 H   0  0  0  0  0  0  0  0  0  0  0  0
   -5.7139   -0.9485   -0.9960 H   0  0  0  0  0  0  0  0  0  0  0  0
   -7.2246   -0.1254   -1.0721 H   0  0  0  0  0  0  0  0  0  0  0  0
   -5.5539    0.9019   -2.6326 H   0  0  0  0  0  0  0  0  0  0  0  0
   -5.4411    2.7792   -1.7635 H   0  0  0  0  0  0  0  0  0  0  0  0
   -3.3626    1.3765   -2.9366 H   0  0  0  0  0  0  0  0  0  0  0  0
   -2.8879    3.2811   -2.4960 H   0  0  0  0  0  0  0  0  0  0  0  0
   -1.0005    2.2799   -0.5058 H   0  0  0  0  0  0  0  0  0  0  0  0
   -1.1710    3.9047   -0.7614 H   0  0  0  0  0  0  0  0  0  0  0  0
   -2.5204    3.2771   -0.1969 H   0  0  0  0  0  0  0  0  0  0  0  0
   -0.4468    3.2768   -3.0156 H   0  0  0  0  0  0  0  0  0  0  0  0
   -0.3139    1.6398   -2.5440 H   0  0  0  0  0  0  0  0  0  0  0  0
   -2.1545    2.8361   -4.7176 H   0  0  0  0  0  0  0  0  0  0  0  0
   -0.4977    1.9194   -4.9219 H   0  0  0  0  0  0  0  0  0  0  0  0
   -2.1246    1.6980   -4.8246 H   0  0  0  0  0  0  0  0  0  0  0  0
   -2.3199    1.1085    1.7191 H   0  0  0  0  0  0  0  0  0  0  0  0
   -0.8779    1.9261    1.0528 H   0  0  0  0  0  0  0  0  0  0  0  0
   -2.3903    1.8159    0.3123 H   0  0  0  0  0  0  0  0  0  0  0  0
   -0.3136   -0.5116    1.4653 H   0  0  0  0  0  0  0  0  0  0  0  0
   -0.7446   -2.8903    1.0080 H   0  0  0  0  0  0  0  0  0  0  0  0
   -2.2855   -1.9803    1.2403 H   0  0  0  0  0  0  0  0  0  0  0  0
   -3.6031   -3.7559    0.0523 H   0  0  0  0  0  0  0  0  0  0  0  0
   -4.3269   -4.5229   -2.2018 H   0  0  0  0  0  0  0  0  0  0  0  0
   -4.0464   -4.3825   -5.1251 H   0  0  0  0  0  0  0  0  0  0  0  0
   -1.0022   -2.1379   -3.7535 H   0  0  0  0  0  0  0  0  0  0  0  0
   -0.4702   -1.9446   -0.9837 H   0  0  0  0  0  0  0  0  0  0  0  0
    1.4250   -1.5239   -2.4947 H   0  0  0  0  0  0  0  0  0  0  0  0
   -1.3978   -1.1632   -1.3719 H   0  0  0  0  0  0  0  0  0  0  0  0
   -1.1586    0.4384   -2.8352 H   0  0  0  0  0  0  0  0  0  0  0  0
    0.1257   -2.1146   -4.4855 H   0  0  0  0  0  0  0  0  0  0  0  0
    0.1590   -0.1246   -5.1448 H   0  0  0  0  0  0  0  0  0  0  0  0
    1.1225   -0.6562   -4.0937 H   0  0  0  0  0  0  0  0  0  0  0  0
   -3.0807    0.2433   -4.8133 H   0  0  0  0  0  0  0  0  0  0  0  0
   -2.1951   -1.3060   -3.9241 H   0  0  0  0  0  0  0  0  0  0  0  0
   -3.9014    0.1924   -2.3370 H   0  0  0  0  0  0  0  0  0  0  0  0
   -4.8897   -0.7783   -3.4596 H   0  0  0  0  0  0  0  0  0  0  0  0
   -4.1447   -1.0771   -2.3162 H   0  0  0  0  0  0  0  0  0  0  0  0
   -0.0352   -5.8160   -3.1914 H   0  0  0  0  0  0  0  0  0  0  0  0
    0.3686   -5.9544   -5.5128 H   0  0  0  0  0  0  0  0  0  0  0  0
    1.4380   -4.4556   -6.1658 H   0  0  0  0  0  0  0  0  0  0  0  0
    1.8526   -5.6614   -4.6804 H   0  0  0  0  0  0  0  0  0  0  0  0
   -2.7026   -5.0161   -5.6354 H   0  0  0  0  0  0  0  0  0  0  0  0
   -3.2290   -5.7256   -3.1139 H   0  0  0  0  0  0  0  0  0  0  0  0
   -1.5292   -2.3945   -5.0433 H   0  0  0  0  0  0  0  0  0  0  0  0
   -4.0726   -0.6359   -5.3087 H   0  0  0  0  0  0  0  0  0  0  0  0
   -3.5587   -1.7188   -3.7535 H   0  0  0  0  0  0  0  0  0  0  0  0
   -2.2584    0.9805   -3.7989 H   0  0  0  0  0  0  0  0  0  0  0  0
   -0.5185    0.6732   -4.0686 H   0  0  0  0  0  0  0  0  0  0  0  0
   -0.8708    1.5455   -7.4178 H   0  0  0  0  0  0  0  0  0  0  0  0
   -1.7965    2.2896   -6.1685 H   0  0  0  0  0  0  0  0  0  0  0  0
   -3.5726   -2.6020   -6.4524 H   0  0  0  0  0  0  0  0  0  0  0  0
    0.6081   -3.3074   -7.2919 H   0  0  0  0  0  0  0  0  0  0  0  0
   -0.4868   -1.5461   -5.5965 H   0  0  0  0  0  0  0  0  0  0  0  0
    1.4420   -1.8413   -5.4283 H   0  0  0  0  0  0  0  0  0  0  0  0
    0.6303   -0.9805   -6.7073 H   0  0  0  0  0  0  0  0  0  0  0  0
    0.0460   -4.4181   -5.2436 H   0  0  0  0  0  0  0  0  0  0  0  0
    1.1631   -3.7827   -4.8126 H   0  0  0  0  0  0  0  0  0  0  0  0
   -0.4462   -3.6804   -4.7827 H   0  0  0  0  0  0  0  0  0  0  0  0
   -1.0558   -7.8294   -6.8339 H   0  0  0  0  0  0  0  0  0  0  0  0
   -0.1436   -4.8544   -6.9036 H   0  0  0  0  0  0  0  0  0  0  0  0
    2.0066   -5.9126   -7.2749 H   0  0  0  0  0  0  0  0  0  0  0  0
    1.5718   -6.8845   -5.9152 H   0  0  0  0  0  0  0  0  0  0  0  0
    0.7650   -8.6918   -7.0966 H   0  0  0  0  0  0  0  0  0  0  0  0
    1.9864   -7.1917   -9.4590 H   0  0  0  0  0  0  0  0  0  0  0  0
    1.3166   -8.8326   -9.5049 H   0  0  0  0  0  0  0  0  0  0  0  0
    0.2677   -7.4709   -9.1803 H   0  0  0  0  0  0  0  0  0  0  0  0
    3.0929   -8.6938   -6.2568 H   0  0  0  0  0  0  0  0  0  0  0  0
    2.9687   -9.5504   -7.7943 H   0  0  0  0  0  0  0  0  0  0  0  0
    3.6438   -7.9205   -7.7510 H   0  0  0  0  0  0  0  0  0  0  0  0
   -3.0172   -1.2908   -1.2035 H   0  0  0  0  0  0  0  0  0  0  0  0
  2  1  1  6  0  0  0
  2  3  1  0  0  0  0
  2 65  1  0  0  0  0
  2 66  1  0  0  0  0
  3  4  1  0  0  0  0
  3 68  1  0  0  0  0
  3 69  1  0  0  0  0
  4 70  1  0  0  0  0
  4 71  1  0  0  0  0
  5  4  1  0  0  0  0
  5  7  1  0  0  0  0
  5 72  1  6  0  0  0
  5  6  1  0  0  0  0
  6 73  1  0  0  0  0
  7 66  1  0  0  0  0
  8  7  1  0  0  0  0
  8  9  1  0  0  0  0
  8 13  1  0  0  0  0
  8 74  1  0  0  0  0
  9 10  1  0  0  0  0
  9 11  1  0  0  0  0
  9 75  1  6  0  0  0
 10 76  1  0  0  0  0
 10 77  1  0  0  0  0
 10 78  1  0  0  0  0
 11 12  1  0  0  0  0
 11 79  1  0  0  0  0
 11 80  1  0  0  0  0
 12 81  1  0  0  0  0
 12 82  1  0  0  0  0
 12 83  1  0  0  0  0
 13 14  2  0  0  0  0
 13 15  1  0  0  0  0
 15 16  1  0  0  0  0
 16 84  1  0  0  0  0
 16 85  1  0  0  0  0
 16 86  1  0  0  0  0
 17 15  1  0  0  0  0
 17 18  1  0  0  0  0
 17 26  1  0  0  0  0
 17 87  1  0  0  0  0
 18 19  1  0  0  0  0
 18 88  1  0  0  0  0
 18 89  1  0  0  0  0
 19 20  2  0  0  0  0
 19 25  1  0  0  0  0
 20 21  1  0  0  0  0
 20 90  1  0  0  0  0
 21 22  2  0  0  0  0
 21 91  1  0  0  0  0
 22 23  1  0  0  0  0
 22 24  1  0  0  0  0
 23 92  1  0  0  0  0
 24 25  2  0  0  0  0
 24 93  1  0  0  0  0
 25 94  1  0  0  0  0
 26 27  2  0  0  0  0
 26 28  1  0  0  0  0
 28 95  1  0  0  0  0
 29 28  1  0  0  0  0
 29 30  1  0  0  0  0
 29 34  1  0  0  0  0
 29 96  1  1  0  0  0
 30 31  1  0  0  0  0
 30 32  1  0  0  0  0
 30 97  1  1  0  0  0
 31 98  1  0  0  0  0
 31 99  1  0  0  0  0
 31100  1  0  0  0  0
 32 33  1  0  0  0  0
 32101  1  0  0  0  0
 32102  1  0  0  0  0
 33103  1  0  0  0  0
 33104  1  0  0  0  0
 33105  1  0  0  0  0
 34 35  2  0  0  0  0
 34 36  1  0  0  0  0
 37 36  1  0  0  0  0
 37 39  1  0  0  0  0
 37106  1  1  0  0  0
 37 38  1  0  0  0  0
 38107  1  0  0  0  0
 38108  1  0  0  0  0
 38109  1  0  0  0  0
 39 55  1  0  0  0  0
 39110  1  6  0  0  0
 39 40  1  0  0  0  0
 40 41  1  0  0  0  0
 40111  1  0  0  0  0
 41 42  2  0  0  0  0
 43 49  1  0  0  0  0
 43112  1  1  0  0  0
 43 44  1  0  0  0  0
 43 41  1  0  0  0  0
 44 45  1  0  0  0  0
 44113  1  0  0  0  0
 44114  1  0  0  0  0
 45 46  1  0  0  0  0
 45115  1  0  0  0  0
 45116  1  0  0  0  0
 46 47  1  0  0  0  0
 46 48  2  0  0  0  0
 47117  1  0  0  0  0
 47118  1  0  0  0  0
 49 50  1  0  0  0  0
 49119  1  0  0  0  0
 50 51  2  0  0  0  0
 50 52  1  0  0  0  0
 52 53  1  0  0  0  0
 52 54  1  0  0  0  0
 52120  1  0  0  0  0
 53121  1  0  0  0  0
 53122  1  0  0  0  0
 53123  1  0  0  0  0
 54124  1  0  0  0  0
 54125  1  0  0  0  0
 54126  1  0  0  0  0
 55 56  2  0  0  0  0
 55 57  1  0  0  0  0
 57127  1  0  0  0  0
 58 57  1  0  0  0  0
 58 59  1  0  0  0  0
 58 63  1  0  0  0  0
 58128  1  1  0  0  0
 59 60  1  0  0  0  0
 59129  1  0  0  0  0
 59130  1  0  0  0  0
 60 61  1  0  0  0  0
 60 62  1  0  0  0  0
 60131  1  0  0  0  0
 61132  1  0  0  0  0
 61133  1  0  0  0  0
 61134  1  0  0  0  0
 62135  1  0  0  0  0
 62136  1  0  0  0  0
 62137  1  0  0  0  0
 63 64  2  0  0  0  0
 63 65  1  0  0  0  0
 65138  1  0  0  0  0
 66 67  2  0  0  0  0
M  END
>  <DRUGBANK_ID>
DB18283

>  <COMMON_NAME>
LM-030

>  <CAS_NUMBER>
1122484-55-2

>  <UNII>
31I6DBK5RW

>  <SYNONYMS>
(S)-2-ISOBUTYRYLAMINO-PENTANEDIOIC ACID 5-AMIDE 1-{[(2S,5S,8S,11R,12S,15S,18S,21R)-2,8-BIS-((S)-SEC-BUTYL)-21-HYDROXY-5-(4-HYDROXY-BENZYL)-15-ISOBUTYL-4,11-DIMETHYL-3,6,9,13,16,22-HEXAOXO-10-OXA-1,4,7,14,17-PENTAAZA-BICYCLO[16.3.1]DOCOS-12-YL]-AMIDE; L-ISOLEUCINE, N2-(2-METHYL-1-OXOPROPYL)-L-GLUTAMINYL-L-THREONYL-L-LEUCYL-(.ALPHA.S,3S,6R)-3-AMINO-6-HYDROXY-.ALPHA.-((1S)-1-METHYLPROPYL)-2-OXO-1-PIPERIDINEACETYL-N-METHYL-L-TYROSYL-, (6->2)-LACTONE

$$$$
