
 OpenBabel10282417223D

157160  0  0  0  0  0  0  0  0999 V2000
    4.7503    0.0707    0.7300 C   0  0  0  0  0  0  0  0  0  0  0  0
    7.6828   -0.9069    1.1761 N   0  0  0  0  0  0  0  0  0  0  0  0
    4.6269   -1.1039    0.5361 C   0  0  1  0  0  0  0  0  0  0  0  0
    1.7397   -1.1846    0.4660 C   0  0  0  0  0  0  0  0  0  0  0  0
   -0.3447   -0.1232    0.0378 C   0  0  0  0  0  0  0  0  0  0  0  0
    1.8704    0.6917    0.5359 C   0  0  0  0  0  0  0  0  0  0  0  0
    2.3794   -1.1797   -0.9034 C   0  0  0  0  0  0  0  0  0  0  0  0
    1.2822   -2.1817   -1.9981 O   0  0  0  0  0  0  0  0  0  0  0  0
    0.8142   -0.2083   -2.0802 O   0  0  0  0  0  0  0  0  0  0  0  0
    0.3244   -0.2755   -4.0401 C   0  0  1  0  0  0  0  0  0  0  0  0
    1.6123   -0.3198   -4.4446 C   0  0  0  0  0  0  0  0  0  0  0  0
   -0.5579   -1.5869   -4.4976 C   0  0  1  0  0  0  0  0  0  0  0  0
    2.2850   -1.5491   -3.9047 C   0  0  0  0  0  0  0  0  0  0  0  0
    2.8252   -2.5920   -4.8420 C   0  0  1  0  0  0  0  0  0  0  0  0
    2.5949   -1.6447   -2.7392 O   0  0  0  0  0  0  0  0  0  0  0  0
    4.3121   -2.7376   -4.6128 C   0  0  0  0  0  0  0  0  0  0  0  0
    2.1003   -3.8887   -4.6104 C   0  0  0  0  0  0  0  0  0  0  0  0
    4.8429   -3.9028   -4.2882 C   0  0  0  0  0  0  0  0  0  0  0  0
    6.3279   -4.0734   -4.0061 C   0  0  2  0  0  0  0  0  0  0  0  0
    3.7905   -5.0931   -4.2832 C   0  0  0  0  0  0  0  0  0  0  0  0
    6.5884   -4.5300   -2.5750 C   0  0  1  0  0  0  0  0  0  0  0  0
    6.9976   -2.8405   -4.2496 O   0  0  0  0  0  0  0  0  0  0  0  0
    5.9621   -5.7858   -2.3254 O   0  0  0  0  0  0  0  0  0  0  0  0
   10.7233   -1.3314    1.6840 C   0  0  0  0  0  0  0  0  0  0  0  0
   12.6505   -1.3007    2.3638 O   0  0  0  0  0  0  0  0  0  0  0  0
   14.1169   -1.9274    2.1163 C   0  0  0  0  0  0  0  0  0  0  0  0
   17.2390   -2.5461    2.1090 C   0  0  1  0  0  0  0  0  0  0  0  0
   15.9863   -2.2310    2.8862 O   0  0  0  0  0  0  0  0  0  0  0  0
   19.2432   -4.2071    1.9139 C   0  0  1  0  0  0  0  0  0  0  0  0
   20.0283   -4.9520    0.4853 C   0  0  0  0  0  0  0  0  0  0  0  0
   19.7275   -3.8140   -0.6208 C   0  0  0  0  0  0  0  0  0  0  0  0
   19.9666   -2.5781   -0.2617 C   0  0  2  0  0  0  0  0  0  0  0  0
   19.3320   -2.1652    1.0744 O   0  0  0  0  0  0  0  0  0  0  0  0
   19.3175   -1.7615   -1.3182 C   0  0  0  0  0  0  0  0  0  0  0  0
   18.6066   -2.5911   -2.3882 C   0  0  1  0  0  0  0  0  0  0  0  0
   17.4945   -3.4714   -1.7817 C   0  0  0  0  0  0  0  0  0  0  0  0
   16.2267   -3.3421   -2.1109 C   0  0  0  0  0  0  0  0  0  0  0  0
   17.6726   -4.6627   -0.6999 C   0  0  0  0  0  0  0  0  0  0  0  0
   15.1687   -4.1752   -1.4817 C   0  0  0  0  0  0  0  0  0  0  0  0
   13.8742   -4.0670   -1.8369 C   0  0  0  0  0  0  0  0  0  0  0  0
   12.8153   -4.9029   -1.2099 C   0  0  0  0  0  0  0  0  0  0  0  0
   11.5355   -4.8253   -1.5500 C   0  0  0  0  0  0  0  0  0  0  0  0
   10.4399   -5.6431   -0.9256 C   0  0  2  0  0  0  0  0  0  0  0  0
    9.4076   -4.7518   -0.2561 C   0  0  0  0  0  0  0  0  0  0  0  0
    8.7644   -3.8377   -1.2816 C   0  0  2  0  0  0  0  0  0  0  0  0
    8.0831   -4.6837   -2.3548 C   0  0  0  0  0  0  0  0  0  0  0  0
    8.7393   -5.4857   -3.0414 O   0  0  0  0  0  0  0  0  0  0  0  0
    4.6012   -5.6792   -2.3672 C   0  0  0  0  0  0  0  0  0  0  0  0
    9.7946   -2.9445   -1.9086 C   0  0  0  0  0  0  0  0  0  0  0  0
   11.0624   -6.5617    0.0981 C   0  0  0  0  0  0  0  0  0  0  0  0
   -2.1452   -1.6628   -3.9907 C   0  0  0  0  0  0  0  0  0  0  0  0
   -2.8114   -0.2147   -4.5193 C   0  0  2  0  0  0  0  0  0  0  0  0
   -0.5848   -1.5548   -5.9440 C   0  0  0  0  0  0  0  0  0  0  0  0
   -2.2397    1.2235   -4.7378 C   0  0  0  0  0  0  0  0  0  0  0  0
   -1.7126    1.8760   -3.5128 C   0  0  0  0  0  0  0  0  0  0  0  0
   -2.9493    1.8218   -2.7868 C   0  0  2  0  0  0  0  0  0  0  0  0
   -3.1355    0.4362   -2.4875 C   0  0  1  0  0  0  0  0  0  0  0  0
   -3.7809   -0.2256   -3.4227 C   0  0  0  0  0  0  0  0  0  0  0  0
   -2.0781   -0.4151   -2.0183 O   0  0  0  0  0  0  0  0  0  0  0  0
   -1.1634   -0.3459   -2.8580 C   0  0  0  0  0  0  0  0  0  0  0  0
   -3.9262    2.5910   -2.7369 O   0  0  0  0  0  0  0  0  0  0  0  0
   -4.1128    3.5205   -1.7218 C   0  0  0  0  0  0  0  0  0  0  0  0
   -4.0899    2.9130   -0.3380 C   0  0  0  0  0  0  0  0  0  0  0  0
   -2.8424    2.3576   -0.0035 O   0  0  0  0  0  0  0  0  0  0  0  0
   -2.5598    1.2665   -0.8045 C   0  0  0  0  0  0  0  0  0  0  0  0
   -3.4900    0.2255   -0.6123 C   0  0  0  0  0  0  0  0  0  0  0  0
   20.1141   -5.4395    2.8975 C   0  0  0  0  0  0  0  0  0  0  0  0
   19.9233   -2.9084    2.2400 O   0  0  0  0  0  0  0  0  0  0  0  0
   18.0240   -1.7373   -3.3547 O   0  0  0  0  0  0  0  0  0  0  0  0
   17.3811   -0.6387   -2.7262 C   0  0  0  0  0  0  0  0  0  0  0  0
   21.0288   -2.6929   -0.2923 H   0  0  0  0  0  0  0  0  0  0  0  0
   -0.2786    0.6121   -4.3795 H   0  0  0  0  0  0  0  0  0  0  0  0
    2.7836   -1.6827    0.3571 H   0  0  0  0  0  0  0  0  0  0  0  0
    3.0650    1.1057    0.4251 H   0  0  0  0  0  0  0  0  0  0  0  0
    3.0477    0.6199   -0.1606 H   0  0  0  0  0  0  0  0  0  0  0  0
   -0.2167   -1.7492    0.0585 H   0  0  0  0  0  0  0  0  0  0  0  0
   -0.1656   -1.2155    1.1331 H   0  0  0  0  0  0  0  0  0  0  0  0
   -1.0172   -0.0277   -1.1197 H   0  0  0  0  0  0  0  0  0  0  0  0
   -2.1338   -0.0497    0.2478 H   0  0  0  0  0  0  0  0  0  0  0  0
   -0.0663    1.0986    1.1129 H   0  0  0  0  0  0  0  0  0  0  0  0
   -0.0241    1.5490    0.1163 H   0  0  0  0  0  0  0  0  0  0  0  0
    1.5960   -0.3391   -5.5075 H   0  0  0  0  0  0  0  0  0  0  0  0
    2.1075    0.5611   -4.0929 H   0  0  0  0  0  0  0  0  0  0  0  0
   -0.1139   -2.4004   -4.0341 H   0  0  0  0  0  0  0  0  0  0  0  0
    2.6484   -2.2848   -5.8563 H   0  0  0  0  0  0  0  0  0  0  0  0
    4.9624   -1.8925   -4.7376 H   0  0  0  0  0  0  0  0  0  0  0  0
    1.0756   -3.8313   -4.7609 H   0  0  0  0  0  0  0  0  0  0  0  0
    2.4480   -4.6126   -5.3138 H   0  0  0  0  0  0  0  0  0  0  0  0
    2.2310   -4.1846   -3.5927 H   0  0  0  0  0  0  0  0  0  0  0  0
    6.7301   -4.8233   -4.6862 H   0  0  0  0  0  0  0  0  0  0  0  0
    3.2092   -4.9735   -3.3022 H   0  0  0  0  0  0  0  0  0  0  0  0
    3.4420   -5.4398   -5.0612 H   0  0  0  0  0  0  0  0  0  0  0  0
    4.4800   -6.2072   -3.9917 H   0  0  0  0  0  0  0  0  0  0  0  0
    6.1872   -3.7932   -1.8963 H   0  0  0  0  0  0  0  0  0  0  0  0
    6.9521   -1.8613   -4.1628 H   0  0  0  0  0  0  0  0  0  0  0  0
   18.4515   -4.5780    1.9071 H   0  0  0  0  0  0  0  0  0  0  0  0
   21.0756   -5.0160    0.4056 H   0  0  0  0  0  0  0  0  0  0  0  0
   19.6030   -5.9591    0.2549 H   0  0  0  0  0  0  0  0  0  0  0  0
   19.8265   -4.2786   -1.5802 H   0  0  0  0  0  0  0  0  0  0  0  0
   18.6290   -3.5356   -0.4932 H   0  0  0  0  0  0  0  0  0  0  0  0
   20.0664   -1.1472   -1.7805 H   0  0  0  0  0  0  0  0  0  0  0  0
   18.5882   -1.1287   -0.8309 H   0  0  0  0  0  0  0  0  0  0  0  0
   19.3380   -3.2249   -2.8792 H   0  0  0  0  0  0  0  0  0  0  0  0
   15.9704   -2.6218   -2.8745 H   0  0  0  0  0  0  0  0  0  0  0  0
   17.3860   -4.2453    0.2570 H   0  0  0  0  0  0  0  0  0  0  0  0
   17.6225   -5.5431   -1.0199 H   0  0  0  0  0  0  0  0  0  0  0  0
   18.7065   -4.8769   -0.4746 H   0  0  0  0  0  0  0  0  0  0  0  0
   15.4398   -4.8980   -0.7129 H   0  0  0  0  0  0  0  0  0  0  0  0
   13.6039   -3.3457   -2.6044 H   0  0  0  0  0  0  0  0  0  0  0  0
   13.0806   -5.6227   -0.4451 H   0  0  0  0  0  0  0  0  0  0  0  0
   11.4117   -4.1919   -2.3371 H   0  0  0  0  0  0  0  0  0  0  0  0
    9.9513   -6.2443   -1.6783 H   0  0  0  0  0  0  0  0  0  0  0  0
    9.8935   -4.1582    0.5067 H   0  0  0  0  0  0  0  0  0  0  0  0
    8.6482   -5.3614    0.2115 H   0  0  0  0  0  0  0  0  0  0  0  0
    8.0418   -3.2042   -0.7962 H   0  0  0  0  0  0  0  0  0  0  0  0
    4.1501   -4.9010   -1.8577 H   0  0  0  0  0  0  0  0  0  0  0  0
    4.6531   -5.2108   -3.1745 H   0  0  0  0  0  0  0  0  0  0  0  0
    4.0634   -6.5961   -2.3758 H   0  0  0  0  0  0  0  0  0  0  0  0
    9.3831   -2.3219   -2.6581 H   0  0  0  0  0  0  0  0  0  0  0  0
   10.3281   -2.3789   -1.1743 H   0  0  0  0  0  0  0  0  0  0  0  0
   10.3995   -3.4876   -2.4608 H   0  0  0  0  0  0  0  0  0  0  0  0
   10.3119   -7.1722    0.5602 H   0  0  0  0  0  0  0  0  0  0  0  0
   11.7935   -7.1979   -0.3808 H   0  0  0  0  0  0  0  0  0  0  0  0
   11.5569   -5.9708    0.8575 H   0  0  0  0  0  0  0  0  0  0  0  0
   -2.6004   -2.4031   -4.2906 H   0  0  0  0  0  0  0  0  0  0  0  0
   -2.1060   -1.6092   -2.9048 H   0  0  0  0  0  0  0  0  0  0  0  0
   -2.8543   -0.3723   -5.5381 H   0  0  0  0  0  0  0  0  0  0  0  0
    0.4267   -1.5836   -6.2932 H   0  0  0  0  0  0  0  0  0  0  0  0
   -1.1112   -2.4236   -6.2796 H   0  0  0  0  0  0  0  0  0  0  0  0
   -1.0664   -0.6698   -6.3282 H   0  0  0  0  0  0  0  0  0  0  0  0
   -1.4955    1.2203   -5.5077 H   0  0  0  0  0  0  0  0  0  0  0  0
   -3.0745    1.8220   -5.0583 H   0  0  0  0  0  0  0  0  0  0  0  0
   -0.7678    1.6333   -3.1395 H   0  0  0  0  0  0  0  0  0  0  0  0
   -1.3750    2.8352   -3.6069 H   0  0  0  0  0  0  0  0  0  0  0  0
   -2.2054    2.6269   -1.4484 H   0  0  0  0  0  0  0  0  0  0  0  0
   -4.0032    0.3858   -1.9545 H   0  0  0  0  0  0  0  0  0  0  0  0
   -4.6079    0.3727   -3.6232 H   0  0  0  0  0  0  0  0  0  0  0  0
   -4.0564   -1.2166   -3.1146 H   0  0  0  0  0  0  0  0  0  0  0  0
   -1.4179   -0.4157   -3.8047 H   0  0  0  0  0  0  0  0  0  0  0  0
   -0.8227    0.4413   -3.0674 H   0  0  0  0  0  0  0  0  0  0  0  0
   -0.3651   -1.1096   -2.7763 H   0  0  0  0  0  0  0  0  0  0  0  0
   -3.3762    4.3051   -1.7895 H   0  0  0  0  0  0  0  0  0  0  0  0
   -5.0894    3.9383   -1.9133 H   0  0  0  0  0  0  0  0  0  0  0  0
   -4.3007    3.6614    0.3972 H   0  0  0  0  0  0  0  0  0  0  0  0
   -4.8271    2.1381   -0.2689 H   0  0  0  0  0  0  0  0  0  0  0  0
   -2.1689    1.5202   -1.7262 H   0  0  0  0  0  0  0  0  0  0  0  0
   -1.5732    1.1108   -0.8841 H   0  0  0  0  0  0  0  0  0  0  0  0
   -4.6854    0.7387   -0.9718 H   0  0  0  0  0  0  0  0  0  0  0  0
   -3.4238   -0.7521   -1.4989 H   0  0  0  0  0  0  0  0  0  0  0  0
   -3.6092   -0.2548    0.1311 H   0  0  0  0  0  0  0  0  0  0  0  0
   19.8254   -5.1308    3.8758 H   0  0  0  0  0  0  0  0  0  0  0  0
   19.7734   -6.4539    2.7200 H   0  0  0  0  0  0  0  0  0  0  0  0
   21.2045   -5.4450    2.8345 H   0  0  0  0  0  0  0  0  0  0  0  0
   21.5872   -3.5783    2.7130 H   0  0  0  0  0  0  0  0  0  0  0  0
   16.5725   -0.9889   -2.1051 H   0  0  0  0  0  0  0  0  0  0  0  0
   18.0867   -0.1052   -2.1144 H   0  0  0  0  0  0  0  0  0  0  0  0
   16.9945    0.0261   -3.4717 H   0  0  0  0  0  0  0  0  0  0  0  0
  1  2  1  0  0  0  0
  1 74  1  0  0  0  0
  1 75  1  0  0  0  0
  2  3  1  0  0  0  0
  2 24  1  0  0  0  0
  3  4  1  0  0  0  0
  3  7  1  0  0  0  0
  3 73  1  1  0  0  0
  4  5  1  0  0  0  0
  4 76  1  0  0  0  0
  4 77  1  0  0  0  0
  5  6  1  0  0  0  0
  5 78  1  0  0  0  0
  5 79  1  0  0  0  0
  6  1  1  0  0  0  0
  6 80  1  0  0  0  0
  6 81  1  0  0  0  0
  7  8  2  0  0  0  0
  7  9  1  0  0  0  0
  9 10  1  0  0  0  0
 10 11  1  0  0  0  0
 10 12  1  0  0  0  0
 10 72  1  6  0  0  0
 11 13  1  0  0  0  0
 11 82  1  0  0  0  0
 11 83  1  0  0  0  0
 12 51  1  0  0  0  0
 12 53  1  0  0  0  0
 12 84  1  1  0  0  0
 13 14  1  0  0  0  0
 13 15  2  0  0  0  0
 14 16  1  0  0  0  0
 14 17  1  0  0  0  0
 14 85  1  6  0  0  0
 16 18  2  0  0  0  0
 16 86  1  0  0  0  0
 17 87  1  0  0  0  0
 17 88  1  0  0  0  0
 17 89  1  0  0  0  0
 18 19  1  0  0  0  0
 18 20  1  0  0  0  0
 19 21  1  0  0  0  0
 19 90  1  6  0  0  0
 19 22  1  0  0  0  0
 20 91  1  0  0  0  0
 20 92  1  0  0  0  0
 20 93  1  0  0  0  0
 21 23  1  0  0  0  0
 21 46  1  0  0  0  0
 21 94  1  1  0  0  0
 22 95  1  0  0  0  0
 23 48  1  0  0  0  0
 24 25  2  0  0  0  0
 24 26  1  0  0  0  0
 26 27  1  0  0  0  0
 26 28  2  0  0  0  0
 27 29  1  0  0  0  0
 27 68  1  1  0  0  0
 29 30  1  0  0  0  0
 29 67  1  0  0  0  0
 29 96  1  6  0  0  0
 30 31  1  0  0  0  0
 30 97  1  0  0  0  0
 30 98  1  0  0  0  0
 31 32  1  0  0  0  0
 31 99  1  0  0  0  0
 31100  1  0  0  0  0
 32 33  1  0  0  0  0
 32 34  1  0  0  0  0
 32 71  1  1  0  0  0
 33 27  1  0  0  0  0
 34 35  1  0  0  0  0
 34101  1  0  0  0  0
 34102  1  0  0  0  0
 35 36  1  0  0  0  0
 35103  1  6  0  0  0
 35 69  1  0  0  0  0
 36 37  2  0  0  0  0
 36 38  1  0  0  0  0
 37 39  1  0  0  0  0
 37104  1  0  0  0  0
 38105  1  0  0  0  0
 38106  1  0  0  0  0
 38107  1  0  0  0  0
 39 40  2  0  0  0  0
 39108  1  0  0  0  0
 40 41  1  0  0  0  0
 40109  1  0  0  0  0
 41 42  2  0  0  0  0
 41110  1  0  0  0  0
 42 43  1  0  0  0  0
 42111  1  0  0  0  0
 43 44  1  0  0  0  0
 43 50  1  0  0  0  0
 43112  1  6  0  0  0
 44 45  1  0  0  0  0
 44113  1  0  0  0  0
 44114  1  0  0  0  0
 45 46  1  0  0  0  0
 45 49  1  0  0  0  0
 45115  1  1  0  0  0
 46 47  2  0  0  0  0
 48116  1  0  0  0  0
 48117  1  0  0  0  0
 48118  1  0  0  0  0
 49119  1  0  0  0  0
 49120  1  0  0  0  0
 49121  1  0  0  0  0
 50122  1  0  0  0  0
 50123  1  0  0  0  0
 50124  1  0  0  0  0
 51125  1  0  0  0  0
 51126  1  0  0  0  0
 52 51  1  0  0  0  0
 52 54  1  0  0  0  0
 52127  1  6  0  0  0
 53128  1  0  0  0  0
 53129  1  0  0  0  0
 53130  1  0  0  0  0
 54 55  1  0  0  0  0
 54131  1  0  0  0  0
 54132  1  0  0  0  0
 55 56  1  0  0  0  0
 55133  1  0  0  0  0
 55134  1  0  0  0  0
 56 57  1  0  0  0  0
 56135  1  1  0  0  0
 56 61  1  0  0  0  0
 57 58  1  0  0  0  0
 57 59  1  0  0  0  0
 57136  1  1  0  0  0
 58 52  1  0  0  0  0
 58137  1  0  0  0  0
 58138  1  0  0  0  0
 59 60  1  0  0  0  0
 60139  1  0  0  0  0
 60140  1  0  0  0  0
 60141  1  0  0  0  0
 61 62  1  0  0  0  0
 62 63  1  0  0  0  0
 62142  1  0  0  0  0
 62143  1  0  0  0  0
 63 64  1  0  0  0  0
 63144  1  0  0  0  0
 63145  1  0  0  0  0
 64 65  1  0  0  0  0
 65 66  1  0  0  0  0
 65146  1  0  0  0  0
 65147  1  0  0  0  0
 66148  1  0  0  0  0
 66149  1  0  0  0  0
 66150  1  0  0  0  0
 67151  1  0  0  0  0
 67152  1  0  0  0  0
 67153  1  0  0  0  0
 68154  1  0  0  0  0
 69 70  1  0  0  0  0
 70155  1  0  0  0  0
 70156  1  0  0  0  0
 70157  1  0  0  0  0
M  END
>  <DRUGBANK_ID>
DB15527

>  <COMMON_NAME>
Umirolimus

>  <CAS_NUMBER>
851536-75-9

>  <UNII>
U36PGF65JH

>  <SYNONYMS>
42-O-(2-ethoxyethyl) rapamycin; Biolimus A9; Umirolimus

$$$$
