
 OpenBabel10282417203D

 67 73  0  0  1  0  0  0  0  0999 V2000
    1.1116   -0.2244   -0.0920 C   0  0  0  0  0  0  0  0  0  0  0  0
    0.5492   -1.1775    0.8867 N   0  0  0  0  0  0  0  0  0  0  0  0
   -0.0500   -0.7026    2.1773 C   0  0  2  0  0  0  0  0  0  0  0  0
   -0.7056    0.6311    2.0702 C   0  0  0  0  0  0  0  0  0  0  0  0
    0.0166    1.4502    3.0815 C   0  0  0  0  0  0  0  0  0  0  0  0
   -0.1681    0.9683    4.7738 C   0  0  1  0  0  0  0  0  0  0  0  0
    0.2688    1.4265    6.4805 C   0  0  1  0  0  0  0  0  0  0  0  0
   -0.4854    0.6259    7.5122 C   0  0  0  0  0  0  0  0  0  0  0  0
   -0.0531   -0.7500    7.1234 C   0  0  0  0  0  0  0  0  0  0  0  0
   -0.3087   -1.7794    8.0200 C   0  0  0  0  0  0  0  0  0  0  0  0
   -0.1936   -3.0612    7.5680 C   0  0  0  0  0  0  0  0  0  0  0  0
    0.1565   -3.2745    6.2383 C   0  0  0  0  0  0  0  0  0  0  0  0
    0.4991   -2.2313    5.3551 C   0  0  0  0  0  0  0  0  0  0  0  0
    0.5546   -0.9640    5.8469 C   0  0  0  0  0  0  0  0  0  0  0  0
    1.0217    0.0931    4.7816 C   0  0  1  0  0  0  0  0  0  0  0  0
    0.9812   -0.9096    3.4875 C   0  0  1  0  0  0  0  0  0  0  0  0
    0.8206   -2.2959    4.0289 O   0  0  0  0  0  0  0  0  0  0  0  0
    2.1651    1.6175    4.9935 C   0  0  0  0  0  0  0  0  0  0  0  0
    1.8851    2.8829    6.2912 C   0  0  0  0  0  0  0  0  0  0  0  0
    0.5269    2.7705    6.8685 N   0  0  0  0  0  0  0  0  0  0  0  0
   -0.6040    3.7081    6.6528 C   0  0  0  0  0  0  0  0  0  0  0  0
   -0.9411    4.2821    5.2786 C   0  0  0  0  0  0  0  0  0  0  0  0
   -1.8032    3.4958    4.2257 C   0  0  0  0  0  0  0  0  0  0  0  0
   -0.3022    3.5565    4.2454 C   0  0  0  0  0  0  0  0  0  0  0  0
    0.3112   -4.6002    6.0148 O   0  0  0  0  0  0  0  0  0  0  0  0
   -1.5163    0.6451    4.9379 O   0  0  0  0  0  0  0  0  0  0  0  0
    0.8141   -2.5083    0.6461 C   0  0  0  0  0  0  0  0  0  0  0  0
    1.5955   -2.8504   -0.3108 O   0  0  0  0  0  0  0  0  0  0  0  0
    0.2768   -3.6257    1.4665 C   0  0  0  0  0  0  0  0  0  0  0  0
   -0.7651   -3.6309    2.3028 C   0  0  0  0  0  0  0  0  0  0  0  0
   -1.2106   -4.6481    3.1703 C   0  0  0  0  0  0  0  0  0  0  0  0
   -0.5008   -5.7226    3.7225 C   0  0  0  0  0  0  0  0  0  0  0  0
   -1.3552   -6.2764    4.6527 C   0  0  0  0  0  0  0  0  0  0  0  0
   -2.5289   -5.5927    4.7091 O   0  0  0  0  0  0  0  0  0  0  0  0
   -2.4170   -4.5729    3.8267 C   0  0  0  0  0  0  0  0  0  0  0  0
    0.8963    0.8271    0.0950 H   0  0  0  0  0  0  0  0  0  0  0  0
    0.7138   -0.4654   -1.0883 H   0  0  0  0  0  0  0  0  0  0  0  0
    2.2002   -0.3208   -0.1140 H   0  0  0  0  0  0  0  0  0  0  0  0
   -0.9806   -1.2342    2.2245 H   0  0  0  0  0  0  0  0  0  0  0  0
   -1.7925    0.6320    2.2524 H   0  0  0  0  0  0  0  0  0  0  0  0
   -0.6730    1.0843    1.0661 H   0  0  0  0  0  0  0  0  0  0  0  0
    1.0662    1.5043    2.7458 H   0  0  0  0  0  0  0  0  0  0  0  0
   -0.4410    2.3503    2.7045 H   0  0  0  0  0  0  0  0  0  0  0  0
    1.2675    0.9716    6.7641 H   0  0  0  0  0  0  0  0  0  0  0  0
   -1.5620    0.7794    7.4425 H   0  0  0  0  0  0  0  0  0  0  0  0
   -0.1737    0.8215    8.5466 H   0  0  0  0  0  0  0  0  0  0  0  0
   -0.5406   -1.5801    9.0602 H   0  0  0  0  0  0  0  0  0  0  0  0
   -0.3118   -3.9041    8.2432 H   0  0  0  0  0  0  0  0  0  0  0  0
    1.9788   -0.9273    3.0440 H   0  0  0  0  0  0  0  0  0  0  0  0
    1.9927    2.3354    4.1780 H   0  0  0  0  0  0  0  0  0  0  0  0
    3.2267    1.4332    4.8058 H   0  0  0  0  0  0  0  0  0  0  0  0
    2.0181    3.9335    5.9969 H   0  0  0  0  0  0  0  0  0  0  0  0
    2.6382    2.7243    7.0906 H   0  0  0  0  0  0  0  0  0  0  0  0
   -1.5117    3.2151    7.0380 H   0  0  0  0  0  0  0  0  0  0  0  0
   -0.4551    4.5741    7.2966 H   0  0  0  0  0  0  0  0  0  0  0  0
   -0.5412    5.2740    5.1395 H   0  0  0  0  0  0  0  0  0  0  0  0
   -2.4237    2.6618    4.5593 H   0  0  0  0  0  0  0  0  0  0  0  0
   -2.1231    3.6162    3.1873 H   0  0  0  0  0  0  0  0  0  0  0  0
    0.3777    3.9019    3.4821 H   0  0  0  0  0  0  0  0  0  0  0  0
    0.3131    2.8641    4.7178 H   0  0  0  0  0  0  0  0  0  0  0  0
    1.0418   -4.6785    5.3920 H   0  0  0  0  0  0  0  0  0  0  0  0
   -1.7615    1.3548    5.5739 H   0  0  0  0  0  0  0  0  0  0  0  0
    0.8208   -4.5546    1.3138 H   0  0  0  0  0  0  0  0  0  0  0  0
   -1.3624   -2.7704    2.5044 H   0  0  0  0  0  0  0  0  0  0  0  0
    0.5552   -5.9306    3.6176 H   0  0  0  0  0  0  0  0  0  0  0  0
   -1.2226   -7.0222    5.4200 H   0  0  0  0  0  0  0  0  0  0  0  0
   -3.2258   -3.8507    3.8218 H   0  0  0  0  0  0  0  0  0  0  0  0
  1  2  1  0  0  0  0
  1 36  1  0  0  0  0
  1 37  1  0  0  0  0
  1 38  1  0  0  0  0
  2 27  1  0  0  0  0
  3  2  1  0  0  0  0
  3  4  1  0  0  0  0
  3 16  1  0  0  0  0
  3 39  1  1  0  0  0
  4  5  1  0  0  0  0
  4 40  1  0  0  0  0
  4 41  1  0  0  0  0
  5  6  1  0  0  0  0
  5 42  1  0  0  0  0
  5 43  1  0  0  0  0
  6  7  1  0  0  0  0
  6 15  1  0  0  0  0
  6 26  1  6  0  0  0
  7  8  1  0  0  0  0
  7 20  1  0  0  0  0
  7 44  1  6  0  0  0
  8  9  1  0  0  0  0
  8 45  1  0  0  0  0
  8 46  1  0  0  0  0
  9 10  2  0  0  0  0
  9 14  1  0  0  0  0
 10 11  1  0  0  0  0
 10 47  1  0  0  0  0
 11 12  2  0  0  0  0
 11 48  1  0  0  0  0
 12 13  1  0  0  0  0
 12 25  1  0  0  0  0
 13 14  2  0  0  0  0
 13 17  1  0  0  0  0
 15 14  1  1  0  0  0
 15 16  1  0  0  0  0
 15 18  1  0  0  0  0
 16 17  1  0  0  0  0
 16 49  1  6  0  0  0
 18 19  1  0  0  0  0
 18 50  1  0  0  0  0
 18 51  1  0  0  0  0
 19 20  1  0  0  0  0
 19 52  1  0  0  0  0
 19 53  1  0  0  0  0
 20 21  1  0  0  0  0
 21 22  1  0  0  0  0
 21 54  1  0  0  0  0
 21 55  1  0  0  0  0
 22 23  1  0  0  0  0
 22 24  1  0  0  0  0
 22 56  1  0  0  0  0
 23 24  1  0  0  0  0
 23 57  1  0  0  0  0
 23 58  1  0  0  0  0
 24 59  1  0  0  0  0
 24 60  1  0  0  0  0
 25 61  1  0  0  0  0
 26 62  1  0  0  0  0
 27 28  2  0  0  0  0
 27 29  1  0  0  0  0
 29 30  2  0  0  0  0
 29 63  1  0  0  0  0
 30 31  1  0  0  0  0
 30 64  1  0  0  0  0
 31 32  1  0  0  0  0
 31 35  2  0  0  0  0
 32 33  2  0  0  0  0
 32 65  1  0  0  0  0
 33 34  1  0  0  0  0
 33 66  1  0  0  0  0
 34 35  1  0  0  0  0
 35 67  1  0  0  0  0
M  END
>  <DRUGBANK_ID>
DB13471

>  <COMMON_NAME>
Nalfurafine

>  <CAS_NUMBER>
152657-84-6

>  <UNII>
XC41AVD567

>  <SYNONYMS>
Nalfurafine

$$$$
