
 OpenBabel10282417233D

 22 22  0  0  0  0  0  0  0  0999 V2000
    1.4139   -0.1966    0.0269 C   0  0  0  0  0  0  0  0  0  0  0  0
    2.8789   -0.4900    0.1539 C   0  0  0  0  0  0  0  0  0  0  0  0
    0.5253   -1.2853    0.0082 C   0  0  0  0  0  0  0  0  0  0  0  0
    0.8857    1.1003   -0.0116 C   0  0  0  0  0  0  0  0  0  0  0  0
    3.7543    0.5734    0.2178 N   0  0  0  0  0  0  0  0  0  0  0  0
    3.2595   -1.6547    0.2422 O   0  0  0  0  0  0  0  0  0  0  0  0
   -0.8575   -1.0823   -0.0210 C   0  0  0  0  0  0  0  0  0  0  0  0
   -0.4991    1.3002    0.0172 C   0  0  0  0  0  0  0  0  0  0  0  0
    5.1916    0.3777    0.3530 C   0  0  0  0  0  0  0  0  0  0  0  0
   -1.3688    0.2122   -0.0104 C   0  0  0  0  0  0  0  0  0  0  0  0
    5.9571    0.9633   -0.8201 C   0  0  0  0  0  0  0  0  0  0  0  0
    6.8707    1.7751   -0.7420 O   0  0  0  0  0  0  0  0  0  0  0  0
    5.5843    0.4690   -2.0171 O   0  0  0  0  0  0  0  0  0  0  0  0
    0.9085   -2.3046    0.0253 H   0  0  0  0  0  0  0  0  0  0  0  0
    1.5173    1.9789   -0.0547 H   0  0  0  0  0  0  0  0  0  0  0  0
    3.4310    1.5255    0.1606 H   0  0  0  0  0  0  0  0  0  0  0  0
   -1.5325   -1.9348   -0.0300 H   0  0  0  0  0  0  0  0  0  0  0  0
   -0.9000    2.3094    0.0740 H   0  0  0  0  0  0  0  0  0  0  0  0
    5.5055    0.8894    1.2681 H   0  0  0  0  0  0  0  0  0  0  0  0
    5.4493   -0.6816    0.4438 H   0  0  0  0  0  0  0  0  0  0  0  0
   -2.4439    0.3745   -0.0254 H   0  0  0  0  0  0  0  0  0  0  0  0
    6.1885    0.8804   -2.6689 H   0  0  0  0  0  0  0  0  0  0  0  0
  1  2  1  0  0  0  0
  1  3  1  0  0  0  0
  1  4  2  0  0  0  0
  2  5  1  0  0  0  0
  2  6  2  0  0  0  0
  3  7  2  0  0  0  0
  3 14  1  0  0  0  0
  4  8  1  0  0  0  0
  4 15  1  0  0  0  0
  5  9  1  0  0  0  0
  5 16  1  0  0  0  0
  7 10  1  0  0  0  0
  7 17  1  0  0  0  0
  8 10  2  0  0  0  0
  8 18  1  0  0  0  0
  9 11  1  0  0  0  0
  9 19  1  0  0  0  0
  9 20  1  0  0  0  0
 10 21  1  0  0  0  0
 11 12  2  0  0  0  0
 11 13  1  0  0  0  0
 13 22  1  0  0  0  0
M  END
>  <DRUGBANK_ID>
DB16842

>  <COMMON_NAME>
Hippuric acid

>  <CAS_NUMBER>
495-69-2

>  <UNII>
TE0865N2ET

>  <SYNONYMS>
Acido ippurico; Benzamidoacetic acid; Benzoylaminoacetic acid; N-Benzoylglycine

$$$$
