
 OpenBabel10282417153D

 74 79  0  0  0  0  0  0  0  0999 V2000
    2.6871   -0.7297    0.2954 C   0  0  0  0  0  0  0  0  0  0  0  0
    1.4515    1.5007    0.2279 C   0  0  0  0  0  0  0  0  0  0  0  0
   -1.1829    1.2678    0.9220 C   0  0  0  0  0  0  0  0  0  0  0  0
   -2.4203    0.4149    0.5288 C   0  0  0  0  0  0  0  0  0  0  0  0
   -3.2898   -2.8633   -2.0269 C   0  0  0  0  0  0  0  0  0  0  0  0
   -1.6342   -2.8390   -1.5874 C   0  0  0  0  0  0  0  0  0  0  0  0
   -5.0044   -0.6326    0.2358 C   0  0  0  0  0  0  0  0  0  0  0  0
    1.5038   -1.6896    0.1398 C   0  0  0  0  0  0  0  0  0  0  0  0
    2.5828    0.6515   -0.3676 C   0  0  1  0  0  0  0  0  0  0  0  0
    3.8416    1.3080   -0.2235 O   0  0  0  0  0  0  0  0  0  0  0  0
   -5.2245    0.3801   -0.9165 C   0  0  2  0  0  0  0  0  0  0  0  0
   -6.3095    0.5217   -0.9758 H   0  0  0  0  0  0  0  0  0  0  0  0
   -4.6626    1.7158   -0.7327 O   0  0  0  0  0  0  0  0  0  0  0  0
   -1.2603   -2.0053   -0.1884 C   0  0  1  0  0  0  0  0  0  0  0  0
   -1.0582   -2.8400    0.5007 H   0  0  0  0  0  0  0  0  0  0  0  0
   -3.8190   -1.4961   -0.2020 C   0  0  2  0  0  0  0  0  0  0  0  0
   -4.0596   -2.5189    0.1479 H   0  0  0  0  0  0  0  0  0  0  0  0
   -4.6454   -0.2506   -2.2096 C   0  0  1  0  0  0  0  0  0  0  0  0
   -5.4645   -0.6625   -2.8069 H   0  0  0  0  0  0  0  0  0  0  0  0
   -3.6788   -1.4062   -1.7541 C   0  0  1  0  0  0  0  0  0  0  0  0
   -2.5788   -0.8731   -2.6376 C   0  0  0  0  0  0  0  0  0  0  0  0
   -2.5284   -1.1600    0.4967 C   0  0  2  0  0  0  0  0  0  0  0  0
   -2.6217   -1.4735    1.5469 H   0  0  0  0  0  0  0  0  0  0  0  0
    0.1511   -0.9906    0.0089 C   0  0  1  0  0  0  0  0  0  0  0  0
    0.1017   -0.8638    1.5238 C   0  0  0  0  0  0  0  0  0  0  0  0
    0.0830    0.7856   -0.1500 C   0  0  1  0  0  0  0  0  0  0  0  0
   -0.0737    1.0135   -1.2262 H   0  0  0  0  0  0  0  0  0  0  0  0
   -4.0079    1.1106   -2.9587 C   0  0  2  0  0  0  0  0  0  0  0  0
   -2.6937    1.1395   -3.8793 C   0  0  0  0  0  0  0  0  0  0  0  0
   -3.9329    3.6032   -2.2222 C   0  0  0  0  0  0  0  0  0  0  0  0
   -3.3304    4.5257   -1.1143 C   0  0  0  0  0  0  0  0  0  0  0  0
   -1.6880    3.1016   -0.8967 C   0  0  0  0  0  0  0  0  0  0  0  0
   -3.7997    2.1392   -1.8166 C   0  0  1  0  0  0  0  0  0  0  0  0
   -2.4094    2.0810   -1.5448 O   0  0  0  0  0  0  0  0  0  0  0  0
   -1.7811    4.4930   -1.3893 C   0  0  2  0  0  0  0  0  0  0  0  0
   -1.1967    5.8744   -1.0000 C   0  0  0  0  0  0  0  0  0  0  0  0
    3.5901   -1.2527   -0.0254 H   0  0  0  0  0  0  0  0  0  0  0  0
    2.8332   -0.5598    1.3757 H   0  0  0  0  0  0  0  0  0  0  0  0
    1.5513    2.5523   -0.1142 H   0  0  0  0  0  0  0  0  0  0  0  0
    1.5589    1.6282    1.3161 H   0  0  0  0  0  0  0  0  0  0  0  0
   -1.5384    2.2535    1.2438 H   0  0  0  0  0  0  0  0  0  0  0  0
   -0.8300    1.1501    1.9560 H   0  0  0  0  0  0  0  0  0  0  0  0
   -3.3067    0.9300    0.9062 H   0  0  0  0  0  0  0  0  0  0  0  0
   -2.4339    0.5280   -0.5203 H   0  0  0  0  0  0  0  0  0  0  0  0
   -3.5500   -3.1008   -3.0740 H   0  0  0  0  0  0  0  0  0  0  0  0
   -3.8169   -3.6699   -1.4890 H   0  0  0  0  0  0  0  0  0  0  0  0
   -1.1367   -3.6701   -2.1143 H   0  0  0  0  0  0  0  0  0  0  0  0
   -0.9939   -2.1883   -2.1792 H   0  0  0  0  0  0  0  0  0  0  0  0
   -5.8782   -1.2898    0.3644 H   0  0  0  0  0  0  0  0  0  0  0  0
   -4.8493   -0.2142    1.2417 H   0  0  0  0  0  0  0  0  0  0  0  0
    1.6507   -2.5450   -0.5255 H   0  0  0  0  0  0  0  0  0  0  0  0
    1.4832   -2.2347    1.1059 H   0  0  0  0  0  0  0  0  0  0  0  0
    2.3989    0.5453   -1.4393 H   0  0  0  0  0  0  0  0  0  0  0  0
    3.9317    1.9300   -0.9695 H   0  0  0  0  0  0  0  0  0  0  0  0
   -1.5349   -0.7250   -2.9627 H   0  0  0  0  0  0  0  0  0  0  0  0
   -2.0037   -0.5915   -1.7852 H   0  0  0  0  0  0  0  0  0  0  0  0
   -2.5634   -1.5664   -3.5028 H   0  0  0  0  0  0  0  0  0  0  0  0
   -0.6008   -1.3340    2.2417 H   0  0  0  0  0  0  0  0  0  0  0  0
    0.6608   -0.0777    1.9261 H   0  0  0  0  0  0  0  0  0  0  0  0
   -0.8651   -0.4347    1.2231 H   0  0  0  0  0  0  0  0  0  0  0  0
   -4.8111    1.4256   -3.6239 H   0  0  0  0  0  0  0  0  0  0  0  0
   -2.5853    2.0603   -4.4429 H   0  0  0  0  0  0  0  0  0  0  0  0
   -1.7433    1.1281   -3.3051 H   0  0  0  0  0  0  0  0  0  0  0  0
   -2.6393    0.3089   -4.5923 H   0  0  0  0  0  0  0  0  0  0  0  0
   -4.9468    3.8759   -2.4973 H   0  0  0  0  0  0  0  0  0  0  0  0
   -3.2888    3.7439   -3.1045 H   0  0  0  0  0  0  0  0  0  0  0  0
   -3.7644    5.5146   -1.1333 H   0  0  0  0  0  0  0  0  0  0  0  0
   -3.6287    4.1161   -0.1225 H   0  0  0  0  0  0  0  0  0  0  0  0
   -1.9912    3.2384    0.1313 H   0  0  0  0  0  0  0  0  0  0  0  0
   -0.6506    2.7484   -0.9510 H   0  0  0  0  0  0  0  0  0  0  0  0
   -0.8349    4.3607   -0.8667 H   0  0  0  0  0  0  0  0  0  0  0  0
   -1.9006    6.5317   -0.5103 H   0  0  0  0  0  0  0  0  0  0  0  0
   -0.3168    5.8379   -0.3038 H   0  0  0  0  0  0  0  0  0  0  0  0
   -0.7873    6.2743   -1.9300 H   0  0  0  0  0  0  0  0  0  0  0  0
  1  9  1  0  0  0  0
  1 37  1  0  0  0  0
  1 38  1  0  0  0  0
  2 39  1  0  0  0  0
  2 40  1  0  0  0  0
  3  4  1  0  0  0  0
  3 41  1  0  0  0  0
  3 42  1  0  0  0  0
  4 43  1  0  0  0  0
  4 44  1  0  0  0  0
  5  6  1  0  0  0  0
  5 45  1  0  0  0  0
  5 46  1  0  0  0  0
  6 47  1  0  0  0  0
  6 48  1  0  0  0  0
  7 49  1  0  0  0  0
  7 50  1  0  0  0  0
  8  1  1  0  0  0  0
  8 51  1  0  0  0  0
  8 52  1  0  0  0  0
  9  2  1  0  0  0  0
  9 10  1  0  0  0  0
  9 53  1  6  0  0  0
 10 54  1  0  0  0  0
 11  7  1  0  0  0  0
 11 13  1  0  0  0  0
 11 12  1  1  0  0  0
 14  6  1  0  0  0  0
 14 24  1  0  0  0  0
 14 15  1  6  0  0  0
 16  7  1  0  0  0  0
 16 22  1  0  0  0  0
 16 20  1  0  0  0  0
 16 17  1  6  0  0  0
 18 11  1  0  0  0  0
 18 28  1  0  0  0  0
 18 19  1  1  0  0  0
 20  5  1  0  0  0  0
 20 18  1  0  0  0  0
 20 21  1  1  0  0  0
 21 55  1  0  0  0  0
 21 56  1  0  0  0  0
 21 57  1  0  0  0  0
 22  4  1  0  0  0  0
 22 14  1  0  0  0  0
 22 23  1  1  0  0  0
 24  8  1  0  0  0  0
 24 26  1  0  0  0  0
 24 25  1  1  0  0  0
 25 58  1  0  0  0  0
 25 59  1  0  0  0  0
 25 60  1  0  0  0  0
 26  2  1  0  0  0  0
 26  3  1  0  0  0  0
 26 27  1  1  0  0  0
 28 33  1  0  0  0  0
 28 61  1  6  0  0  0
 28 29  1  0  0  0  0
 29 62  1  0  0  0  0
 29 63  1  0  0  0  0
 29 64  1  0  0  0  0
 30 31  1  0  0  0  0
 30 65  1  0  0  0  0
 30 66  1  0  0  0  0
 31 35  1  0  0  0  0
 31 67  1  0  0  0  0
 31 68  1  0  0  0  0
 32 34  1  0  0  0  0
 32 69  1  0  0  0  0
 32 70  1  0  0  0  0
 33 13  1  1  0  0  0
 33 30  1  0  0  0  0
 33 34  1  0  0  0  0
 35 32  1  0  0  0  0
 35 36  1  0  0  0  0
 35 71  1  6  0  0  0
 36 72  1  0  0  0  0
 36 73  1  0  0  0  0
 36 74  1  0  0  0  0
M  END
>  <DRUGBANK_ID>
DB05450

>  <COMMON_NAME>
Smilagenin

>  <CAS_NUMBER>
126-18-1

>  <UNII>
GQE3Q7YMVZ

>  <SYNONYMS>
(25R)-5beta-Spirostan-3beta-ol; (25R)-Spirostan-3beta-ol; Isosarsapogenin; Smilagenin

$$$$
