BSM
 OpenBabel10282417163D

 45 47  0  0  0  0  0  0  0  0999 V2000
    1.0532    0.0671    0.0325 C   0  0  0  0  0  0  0  0  0  0  0  0
    0.4997    0.7174   -1.1115 O   0  0  0  0  0  0  0  0  0  0  0  0
    1.0490    1.8967   -1.5370 C   0  0  0  0  0  0  0  0  0  0  0  0
    2.3553    2.3304   -1.3053 C   0  0  0  0  0  0  0  0  0  0  0  0
    2.7230    3.6588   -1.6016 C   0  0  0  0  0  0  0  0  0  0  0  0
    0.1521    2.7746   -2.1626 C   0  0  0  0  0  0  0  0  0  0  0  0
    0.5405    4.0673   -2.5665 C   0  0  0  0  0  0  0  0  0  0  0  0
    1.8009    4.5535   -2.1899 C   0  0  0  0  0  0  0  0  0  0  0  0
    2.0121    6.0210   -2.0807 C   0  0  0  0  0  0  0  0  0  0  0  0
    1.4505    7.1245   -1.2800 C   0  0  0  0  0  0  0  0  0  0  0  0
    0.3739    7.2696   -0.1924 C   0  0  0  0  0  0  0  0  0  0  0  0
   -0.0021    8.3641    0.2055 O   0  0  0  0  0  0  0  0  0  0  0  0
   -0.2433    6.1848    0.4398 N   0  0  0  0  0  0  0  0  0  0  0  0
   -0.0240    4.8274    0.1437 C   0  0  0  0  0  0  0  0  0  0  0  0
    0.6072    3.9052    1.1411 C   0  0  0  0  0  0  0  0  0  0  0  0
    2.0987    8.2673   -1.6303 N   0  0  0  0  0  0  0  0  0  0  0  0
    2.9938    7.9224   -2.5612 N   0  0  0  0  0  0  0  0  0  0  0  0
    3.0292    6.5867   -2.8190 C   0  0  0  0  0  0  0  0  0  0  0  0
    3.9562    5.9295   -3.7190 C   0  0  0  0  0  0  0  0  0  0  0  0
    3.4245    5.1503   -4.7614 C   0  0  0  0  0  0  0  0  0  0  0  0
    4.2620    4.3993   -5.5718 C   0  0  0  0  0  0  0  0  0  0  0  0
    3.5777    3.4402   -6.8277 Cl  0  0  0  0  0  0  0  0  0  0  0  0
    5.6388    4.4484   -5.3628 C   0  0  0  0  0  0  0  0  0  0  0  0
    6.5102    3.7136   -6.1178 O   0  0  0  0  0  0  0  0  0  0  0  0
    6.1790    5.2359   -4.3464 C   0  0  0  0  0  0  0  0  0  0  0  0
    5.3329    5.9254   -3.4859 C   0  0  0  0  0  0  0  0  0  0  0  0
    5.9000    6.5190   -2.3906 O   0  0  0  0  0  0  0  0  0  0  0  0
    0.6794   -0.9633    0.0401 H   0  0  0  0  0  0  0  0  0  0  0  0
    0.7041    0.5439    0.9558 H   0  0  0  0  0  0  0  0  0  0  0  0
    2.1434    0.0069    0.0222 H   0  0  0  0  0  0  0  0  0  0  0  0
    3.0621    1.7194   -0.7531 H   0  0  0  0  0  0  0  0  0  0  0  0
    3.6819    4.0194   -1.2298 H   0  0  0  0  0  0  0  0  0  0  0  0
   -0.9140    2.5422   -2.1247 H   0  0  0  0  0  0  0  0  0  0  0  0
   -0.2255    4.7711   -2.8920 H   0  0  0  0  0  0  0  0  0  0  0  0
   -1.0377    6.4218    1.0173 H   0  0  0  0  0  0  0  0  0  0  0  0
   -0.8777    4.4283   -0.4081 H   0  0  0  0  0  0  0  0  0  0  0  0
    0.8019    4.9496   -0.4778 H   0  0  0  0  0  0  0  0  0  0  0  0
   -0.0957    3.5971    1.9004 H   0  0  0  0  0  0  0  0  0  0  0  0
    0.9432    2.9909    0.6541 H   0  0  0  0  0  0  0  0  0  0  0  0
    1.5201    4.3528    1.5437 H   0  0  0  0  0  0  0  0  0  0  0  0
    3.5716    8.6532   -2.9699 H   0  0  0  0  0  0  0  0  0  0  0  0
    2.3464    5.0879   -4.9008 H   0  0  0  0  0  0  0  0  0  0  0  0
    5.9796    3.1378   -6.6999 H   0  0  0  0  0  0  0  0  0  0  0  0
    7.2535    5.2890   -4.2105 H   0  0  0  0  0  0  0  0  0  0  0  0
    5.2162    6.6882   -1.7168 H   0  0  0  0  0  0  0  0  0  0  0  0
  1  2  1  0  0  0  0
  1 28  1  0  0  0  0
  1 29  1  0  0  0  0
  1 30  1  0  0  0  0
  2  3  1  0  0  0  0
  3  4  2  0  0  0  0
  3  6  1  0  0  0  0
  4  5  1  0  0  0  0
  4 31  1  0  0  0  0
  5  8  2  0  0  0  0
  5 32  1  0  0  0  0
  6  7  2  0  0  0  0
  6 33  1  0  0  0  0
  7  8  1  0  0  0  0
  7 34  1  0  0  0  0
  8  9  1  0  0  0  0
  9 10  1  0  0  0  0
  9 18  2  0  0  0  0
 10 11  1  0  0  0  0
 10 16  2  0  0  0  0
 11 12  2  0  0  0  0
 11 13  1  0  0  0  0
 13 14  1  0  0  0  0
 13 35  1  0  0  0  0
 14 15  1  0  0  0  0
 14 36  1  0  0  0  0
 14 37  1  0  0  0  0
 15 38  1  0  0  0  0
 15 39  1  0  0  0  0
 15 40  1  0  0  0  0
 16 17  1  0  0  0  0
 17 18  1  0  0  0  0
 17 41  1  0  0  0  0
 18 19  1  0  0  0  0
 19 20  2  0  0  0  0
 19 26  1  0  0  0  0
 20 21  1  0  0  0  0
 20 42  1  0  0  0  0
 21 22  1  0  0  0  0
 21 23  2  0  0  0  0
 23 24  1  0  0  0  0
 23 25  1  0  0  0  0
 24 43  1  0  0  0  0
 25 26  2  0  0  0  0
 25 44  1  0  0  0  0
 26 27  1  0  0  0  0
 27 45  1  0  0  0  0
M  END
>  <DRUGBANK_ID>
DB07495

>  <COMMON_NAME>
5-(5-CHLORO-2,4-DIHYDROXYPHENYL)-N-ETHYL-4-(4-METHOXYPHENYL)-1H-PYRAZOLE-3-CARBOXAMIDE

$$$$
