
 OpenBabel10282417163D

 49 51  0  0  1  0  0  0  0  0999 V2000
   -9.9249   -0.2548   -0.5037 O   0  0  0  0  0  0  0  0  0  0  0  0
   -7.1538   -3.5087    0.0217 O   0  0  0  0  0  0  0  0  0  0  0  0
   -6.7362   -0.8006    3.2803 O   0  0  0  0  0  0  0  0  0  0  0  0
   -5.0232    0.0500   -1.6706 O   0  0  0  0  0  0  0  0  0  0  0  0
   -6.8599   -5.2545    2.7840 O   0  0  0  0  0  0  0  0  0  0  0  0
   -4.0984   -3.2337   -0.7285 O   0  0  0  0  0  0  0  0  0  0  0  0
   -5.1333   -3.6084    4.0457 O   0  0  0  0  0  0  0  0  0  0  0  0
   -7.0829    0.5308   -1.0838 O   0  0  0  0  0  0  0  0  0  0  0  0
  -10.1306   -0.8488    0.8349 C   0  0  1  0  0  0  0  0  0  0  0  0
   -8.8265   -0.5535    0.2404 C   0  0  1  0  0  0  0  0  0  0  0  0
   -9.2248   -1.7030    1.6736 C   0  0  0  0  0  0  0  0  0  0  0  0
   -8.2025   -2.1534   -0.1193 C   0  0  0  0  0  0  0  0  0  0  0  0
   -7.2746   -2.2429    1.5414 C   0  0  1  0  0  0  0  0  0  0  0  0
   -6.7702   -2.2021    3.0069 C   0  0  1  0  0  0  0  0  0  0  0  0
   -6.5753   -1.8472   -0.8533 C   0  0  0  0  0  0  0  0  0  0  0  0
   -8.4631   -3.6178    1.1278 C   0  0  0  0  0  0  0  0  0  0  0  0
   -5.3913   -3.0713   -0.4377 C   0  0  0  0  0  0  0  0  0  0  0  0
   -6.9728   -4.5328    1.6517 C   0  0  0  0  0  0  0  0  0  0  0  0
   -5.3347   -2.6520    3.3000 C   0  0  0  0  0  0  0  0  0  0  0  0
   -6.2436   -0.3550   -1.2143 C   0  0  0  0  0  0  0  0  0  0  0  0
   -5.5476   -4.2765    0.7581 C   0  0  0  0  0  0  0  0  0  0  0  0
   -3.9167   -0.8043   -1.5365 C   0  0  2  0  0  0  0  0  0  0  0  0
   -4.2285   -2.1423    2.2954 C   0  0  0  0  0  0  0  0  0  0  0  0
   -3.3432   -0.8141    0.1437 C   0  0  0  0  0  0  0  0  0  0  0  0
   -4.2615   -1.1297    1.3717 C   0  0  0  0  0  0  0  0  0  0  0  0
   -2.7259   -0.5059   -2.3982 C   0  0  0  0  0  0  0  0  0  0  0  0
   -5.6078   -5.9740    2.8139 C   0  0  0  0  0  0  0  0  0  0  0  0
   -4.9001   -2.8138    1.8245 H   0  0  0  0  0  0  0  0  0  0  0  0
   -5.2267   -0.6758    1.1930 H   0  0  0  0  0  0  0  0  0  0  0  0
   -7.3833   -4.4891   -0.0542 H   0  0  0  0  0  0  0  0  0  0  0  0
   -6.2876   -0.7779    4.1383 H   0  0  0  0  0  0  0  0  0  0  0  0
   -3.9865   -2.3244   -0.5951 H   0  0  0  0  0  0  0  0  0  0  0  0
  -10.9643   -1.6309    0.6518 H   0  0  0  0  0  0  0  0  0  0  0  0
   -8.3401    0.1554    1.0101 H   0  0  0  0  0  0  0  0  0  0  0  0
   -9.7035   -2.4491    0.7890 H   0  0  0  0  0  0  0  0  0  0  0  0
   -9.8179   -2.0945    2.4917 H   0  0  0  0  0  0  0  0  0  0  0  0
   -6.4005   -1.8392    1.1223 H   0  0  0  0  0  0  0  0  0  0  0  0
   -7.5074   -2.6714    3.6526 H   0  0  0  0  0  0  0  0  0  0  0  0
   -8.9357   -3.5658    2.2352 H   0  0  0  0  0  0  0  0  0  0  0  0
   -4.5674   -4.5865    1.0870 H   0  0  0  0  0  0  0  0  0  0  0  0
   -4.2400   -1.7236   -2.0967 H   0  0  0  0  0  0  0  0  0  0  0  0
   -2.5212   -1.5565    0.1801 H   0  0  0  0  0  0  0  0  0  0  0  0
   -3.0025    0.1910    0.3476 H   0  0  0  0  0  0  0  0  0  0  0  0
   -2.9011   -0.8991   -3.4118 H   0  0  0  0  0  0  0  0  0  0  0  0
   -2.6044    0.5665   -2.4039 H   0  0  0  0  0  0  0  0  0  0  0  0
   -1.8483   -1.0307   -2.0010 H   0  0  0  0  0  0  0  0  0  0  0  0
   -5.3553   -6.4057    1.8369 H   0  0  0  0  0  0  0  0  0  0  0  0
   -4.6939   -5.4327    3.1186 H   0  0  0  0  0  0  0  0  0  0  0  0
   -5.7636   -6.7282    3.5665 H   0  0  0  0  0  0  0  0  0  0  0  0
  2 30  1  0  0  0  0
  3 31  1  0  0  0  0
  4 20  1  0  0  0  0
  4 22  1  0  0  0  0
  5 18  1  0  0  0  0
  5 27  1  0  0  0  0
  6 17  1  0  0  0  0
  6 32  1  0  0  0  0
  7 19  2  0  0  0  0
  8 20  2  0  0  0  0
  9  1  1  0  0  0  0
  9 10  1  0  0  0  0
  9 11  1  0  0  0  0
  9 33  1  6  0  0  0
 10  1  1  0  0  0  0
 10 12  1  0  0  0  0
 10 34  1  1  0  0  0
 11 13  1  0  0  0  0
 11 35  1  0  0  0  0
 11 36  1  0  0  0  0
 12 15  2  0  0  0  0
 12 16  1  0  0  0  0
 13  2  1  0  0  0  0
 13 14  1  0  0  0  0
 13 37  1  6  0  0  0
 14  3  1  0  0  0  0
 14 19  1  0  0  0  0
 14 38  1  1  0  0  0
 15 17  1  0  0  0  0
 15 20  1  0  0  0  0
 16 18  2  0  0  0  0
 16 39  1  0  0  0  0
 17 21  2  0  0  0  0
 18 21  1  0  0  0  0
 19 23  1  0  0  0  0
 21 40  1  0  0  0  0
 22 24  1  0  0  0  0
 22 41  1  6  0  0  0
 22 26  1  0  0  0  0
 23 25  2  0  0  0  0
 23 28  1  0  0  0  0
 24 25  1  0  0  0  0
 24 42  1  0  0  0  0
 24 43  1  0  0  0  0
 25 29  1  0  0  0  0
 26 44  1  0  0  0  0
 26 45  1  0  0  0  0
 26 46  1  0  0  0  0
 27 47  1  0  0  0  0
 27 48  1  0  0  0  0
 27 49  1  0  0  0  0
M  END
>  <DRUGBANK_ID>
DB07905

>  <COMMON_NAME>
Hypothemycin

>  <CAS_NUMBER>
76958-67-3

>  <SYNONYMS>
Aigialomycin A

$$$$
