[NO NAME]
 OpenBabel10282417133D
Created with ChemWriter - http://chemwriter.com
 29 30  0  0  1  0  0  0  0  0999 V2000
   -0.6683   -1.4156    0.3593 C   0  0  0  0  0  0  0  0  0  0  0  0
    0.8633   -1.4075    0.4232 C   0  0  0  0  0  0  0  0  0  0  0  0
   -0.5680    0.2509   -1.4071 O   0  0  0  0  0  0  0  0  0  0  0  0
    1.3540    1.5412   -2.1517 C   0  0  0  0  0  0  0  0  0  0  0  0
    0.8895    0.2454   -1.4514 C   0  0  0  0  0  0  0  0  0  0  0  0
    1.4603   -0.8589   -2.3816 C   0  0  0  0  0  0  0  0  0  0  0  0
   -1.1485   -0.0301   -0.0984 C   0  0  1  0  0  0  0  0  0  0  0  0
   -2.6781    0.0106   -0.1624 C   0  0  0  0  0  0  0  0  0  0  0  0
    1.4106   -0.0135   -0.0072 C   0  0  1  0  0  0  0  0  0  0  0  0
   -0.6717    0.9757    0.9685 C   0  0  0  0  0  0  0  0  0  0  0  0
    0.8486    1.0486    0.9554 C   0  0  0  0  0  0  0  0  0  0  0  0
   -1.0190   -2.1907   -0.3339 H   0  0  0  0  0  0  0  0  0  0  0  0
   -1.0780   -1.6626    1.3464 H   0  0  0  0  0  0  0  0  0  0  0  0
    1.2060   -1.6791    1.4280 H   0  0  0  0  0  0  0  0  0  0  0  0
    1.2425   -2.2021   -0.2259 H   0  0  0  0  0  0  0  0  0  0  0  0
    1.1092    2.4606   -1.6364 H   0  0  0  0  0  0  0  0  0  0  0  0
    2.4399    1.5207   -2.3510 H   0  0  0  0  0  0  0  0  0  0  0  0
    0.8679    1.6072   -3.1416 H   0  0  0  0  0  0  0  0  0  0  0  0
    1.2944   -0.6205   -3.4454 H   0  0  0  0  0  0  0  0  0  0  0  0
    2.5570   -0.9077   -2.2464 H   0  0  0  0  0  0  0  0  0  0  0  0
    1.0431   -1.8396   -2.2283 H   0  0  0  0  0  0  0  0  0  0  0  0
   -3.1187   -0.1485    0.8309 H   0  0  0  0  0  0  0  0  0  0  0  0
   -3.0374    0.9774   -0.5340 H   0  0  0  0  0  0  0  0  0  0  0  0
   -3.0752   -0.7590   -0.8315 H   0  0  0  0  0  0  0  0  0  0  0  0
    2.5020   -0.0064    0.0340 H   0  0  0  0  0  0  0  0  0  0  0  0
   -1.1033    1.9734    0.8215 H   0  0  0  0  0  0  0  0  0  0  0  0
   -1.0097    0.6453    1.9626 H   0  0  0  0  0  0  0  0  0  0  0  0
    1.2324    0.8861    1.9722 H   0  0  0  0  0  0  0  0  0  0  0  0
    1.1646    2.0537    0.6630 H   0  0  0  0  0  0  0  0  0  0  0  0
  1  2  1  0  0  0  0
  1 12  1  0  0  0  0
  1 13  1  0  0  0  0
  2 14  1  0  0  0  0
  2 15  1  0  0  0  0
  3  7  1  0  0  0  0
  4 16  1  0  0  0  0
  4 17  1  0  0  0  0
  4 18  1  0  0  0  0
  5  3  1  0  0  0  0
  5  4  1  0  0  0  0
  5  6  1  0  0  0  0
  6 19  1  0  0  0  0
  6 20  1  0  0  0  0
  6 21  1  0  0  0  0
  7  1  1  0  0  0  0
  7 10  1  0  0  0  0
  7  8  1  6  0  0  0
  8 22  1  0  0  0  0
  8 23  1  0  0  0  0
  8 24  1  0  0  0  0
  9  5  1  0  0  0  0
  9  2  1  0  0  0  0
  9 11  1  0  0  0  0
  9 25  1  1  0  0  0
 10 26  1  0  0  0  0
 10 27  1  0  0  0  0
 11 10  1  0  0  0  0
 11 28  1  0  0  0  0
 11 29  1  0  0  0  0
M  END
>  <DRUGBANK_ID>
DB03852

>  <SECONDARY_ACCESSION_NUMBERS>
EXPT00969

>  <COMMON_NAME>
Eucalyptol

>  <CAS_NUMBER>
470-82-6

>  <UNII>
RV6J6604TK

>  <SYNONYMS>
1,8-cineol; 1,8-Cineole; 1,8-epoxy-p-menthane; 1,8-oxido-p-menthane; Cajeputol; Cineole; Eucalyptol; Zineol

$$$$
