1AD
 OpenBabel10282417163D

 44 45  0  0  0  0  0  0  0  0999 V2000
   -5.9519    2.2555   -1.0792 C   0  0  2  0  0  0  0  0  0  0  0  0
   -4.4427    0.5163   -0.9748 C   0  0  1  0  0  0  0  0  0  0  0  0
   -4.0308    2.6759    0.4478 C   0  0  0  0  0  0  0  0  0  0  0  0
   -6.8262    1.0113   -1.0463 C   0  0  0  0  0  0  0  0  0  0  0  0
   -5.6479    2.6128   -2.5250 C   0  0  0  0  0  0  0  0  0  0  0  0
   -5.8380   -0.1298   -0.8661 C   0  0  0  0  0  0  0  0  0  0  0  0
   -3.6968    0.3173   -2.3082 C   0  0  0  0  0  0  0  0  0  0  0  0
   -2.7778    2.2071    1.3022 C   0  0  2  0  0  0  0  0  0  0  0  0
   -4.6749    1.8745   -0.4897 N   0  0  0  0  0  0  0  0  0  0  0  0
   -4.4471    3.8454    0.6531 O   0  0  0  0  0  0  0  0  0  0  0  0
   -5.3871    2.9192   -3.7652 C   0  0  0  0  0  0  0  0  0  0  0  0
   -2.2702    0.0176   -2.0831 N   0  0  0  0  0  0  0  0  0  0  0  0
   -2.4506    0.7267    1.2444 C   0  0  0  0  0  0  0  0  0  0  0  0
   -2.9074    2.5677    2.7368 N   0  0  0  0  0  0  0  0  0  0  0  0
   -5.0831    3.2765   -5.2110 C   0  0  0  0  0  0  0  0  0  0  0  0
   -3.5695   -0.2299    1.7341 C   0  0  0  0  0  0  0  0  0  0  0  0
   -1.2527    0.2028    2.0236 C   0  0  0  0  0  0  0  0  0  0  0  0
   -2.9097   -1.5701    1.9291 C   0  0  0  0  0  0  0  0  0  0  0  0
   -1.4169   -1.3062    1.8513 C   0  0  0  0  0  0  0  0  0  0  0  0
   -6.4223    3.1102   -0.5836 H   0  0  0  0  0  0  0  0  0  0  0  0
   -3.7676   -0.0146   -0.3742 H   0  0  0  0  0  0  0  0  0  0  0  0
   -1.9229    2.7880    0.9220 H   0  0  0  0  0  0  0  0  0  0  0  0
   -7.5097    1.0577   -0.1877 H   0  0  0  0  0  0  0  0  0  0  0  0
   -7.4338    0.8648   -1.9435 H   0  0  0  0  0  0  0  0  0  0  0  0
   -6.0384   -0.5301    0.1381 H   0  0  0  0  0  0  0  0  0  0  0  0
   -5.9847   -0.9600   -1.5551 H   0  0  0  0  0  0  0  0  0  0  0  0
   -4.1275   -0.5507   -2.8097 H   0  0  0  0  0  0  0  0  0  0  0  0
   -3.7241    1.1825   -2.9561 H   0  0  0  0  0  0  0  0  0  0  0  0
   -1.8069   -0.1678   -2.9667 H   0  0  0  0  0  0  0  0  0  0  0  0
   -1.8119    0.8408   -1.6907 H   0  0  0  0  0  0  0  0  0  0  0  0
   -2.1193    0.5728    0.2218 H   0  0  0  0  0  0  0  0  0  0  0  0
   -3.0930    3.5637    2.8368 H   0  0  0  0  0  0  0  0  0  0  0  0
   -3.6990    2.0772    3.1439 H   0  0  0  0  0  0  0  0  0  0  0  0
   -5.9719    3.1204   -5.8286 H   0  0  0  0  0  0  0  0  0  0  0  0
   -4.7807    4.3250   -5.2804 H   0  0  0  0  0  0  0  0  0  0  0  0
   -4.2725    2.6464   -5.5877 H   0  0  0  0  0  0  0  0  0  0  0  0
   -4.1324    0.1716    2.5745 H   0  0  0  0  0  0  0  0  0  0  0  0
   -4.3950   -0.4939    1.0964 H   0  0  0  0  0  0  0  0  0  0  0  0
   -0.3018    0.5559    1.6109 H   0  0  0  0  0  0  0  0  0  0  0  0
   -1.3115    0.4755    3.0787 H   0  0  0  0  0  0  0  0  0  0  0  0
   -3.2473   -1.9810    2.8792 H   0  0  0  0  0  0  0  0  0  0  0  0
   -3.2054   -2.2675    1.1305 H   0  0  0  0  0  0  0  0  0  0  0  0
   -0.8828   -1.8802    2.6056 H   0  0  0  0  0  0  0  0  0  0  0  0
   -1.0488   -1.6092    0.8599 H   0  0  0  0  0  0  0  0  0  0  0  0
  1  4  1  0  0  0  0
  1  5  1  0  0  0  0
  1  9  1  0  0  0  0
  1 20  1  1  0  0  0
  2  6  1  0  0  0  0
  2  9  1  0  0  0  0
  2 21  1  1  0  0  0
  2  7  1  0  0  0  0
  3  9  1  0  0  0  0
  3 10  2  0  0  0  0
  4  6  1  0  0  0  0
  4 23  1  0  0  0  0
  4 24  1  0  0  0  0
  5 11  3  0  0  0  0
  6 25  1  0  0  0  0
  6 26  1  0  0  0  0
  7 12  1  0  0  0  0
  7 27  1  0  0  0  0
  7 28  1  0  0  0  0
  8 14  1  0  0  0  0
  8 22  1  6  0  0  0
  8 13  1  0  0  0  0
  8  3  1  0  0  0  0
 11 15  1  0  0  0  0
 12 29  1  0  0  0  0
 12 30  1  0  0  0  0
 13 16  1  0  0  0  0
 13 17  1  0  0  0  0
 13 31  1  0  0  0  0
 14 32  1  0  0  0  0
 14 33  1  0  0  0  0
 15 34  1  0  0  0  0
 15 35  1  0  0  0  0
 15 36  1  0  0  0  0
 16 18  1  0  0  0  0
 16 37  1  0  0  0  0
 16 38  1  0  0  0  0
 17 19  1  0  0  0  0
 17 39  1  0  0  0  0
 17 40  1  0  0  0  0
 18 19  1  0  0  0  0
 18 41  1  0  0  0  0
 18 42  1  0  0  0  0
 19 43  1  0  0  0  0
 19 44  1  0  0  0  0
M  END
>  <DRUGBANK_ID>
DB06880

>  <COMMON_NAME>
(1S)-2-[(2S,5R)-2-(AMINOMETHYL)-5-PROP-1-YN-1-YLPYRROLIDIN-1-YL]-1-CYCLOPENTYL-2-OXOETHANAMINE

$$$$
