639
 OpenBabel10282417103D

 42 44  0  0  1  0  0  0  0  0999 V2000
   -1.3800   -0.1056    1.8560 Cl  0  0  0  0  0  0  0  0  0  0  0  0
    3.0785    0.7248   -0.1205 Cl  0  0  0  0  0  0  0  0  0  0  0  0
   -4.8225   -1.0237    3.7814 Cl  0  0  0  0  0  0  0  0  0  0  0  0
    0.1916    2.3570   -0.1084 S   0  0  0  0  0  0  0  0  0  0  0  0
   -1.5647    3.3874    2.5151 N   0  0  0  0  0  0  0  0  0  0  0  0
   -0.6558    3.3158    4.5437 N   0  0  0  0  0  0  0  0  0  0  0  0
   -1.6043    2.9488   -0.0466 C   0  0  3  0  0  0  0  0  0  0  0  0
   -2.5100    2.5468   -1.2706 C   0  0  0  0  0  0  0  0  0  0  0  0
   -2.2877    2.9463    1.3410 C   0  0  0  0  0  0  0  0  0  0  0  0
   -2.9620    1.0750   -1.4639 C   0  0  0  0  0  0  0  0  0  0  0  0
   -3.8508    0.4711   -0.3764 C   0  0  0  0  0  0  0  0  0  0  0  0
    0.3336    0.5579   -0.0504 C   0  0  0  0  0  0  0  0  0  0  0  0
   -1.6092    4.6622    3.0020 C   0  0  0  0  0  0  0  0  0  0  0  0
   -1.0344    2.6078    3.5043 C   0  0  0  0  0  0  0  0  0  0  0  0
   -4.5686    1.2722    0.5145 C   0  0  0  0  0  0  0  0  0  0  0  0
   -3.8128   -0.9040   -0.1002 C   0  0  0  0  0  0  0  0  0  0  0  0
   -1.0148    4.5918    4.2400 C   0  0  0  0  0  0  0  0  0  0  0  0
   -4.8673    0.8123    1.8080 C   0  0  0  0  0  0  0  0  0  0  0  0
   -4.1523   -1.3871    1.1814 C   0  0  0  0  0  0  0  0  0  0  0  0
   -0.6939   -0.3073    0.2861 C   0  0  0  0  0  0  0  0  0  0  0  0
    1.5663   -0.1138   -0.1657 C   0  0  0  0  0  0  0  0  0  0  0  0
   -4.6283   -0.5106    2.1509 C   0  0  0  0  0  0  0  0  0  0  0  0
   -0.7106   -1.6760   -0.0021 C   0  0  0  0  0  0  0  0  0  0  0  0
    1.6348   -1.5290   -0.1537 C   0  0  0  0  0  0  0  0  0  0  0  0
    0.4982   -2.3153   -0.1573 C   0  0  0  0  0  0  0  0  0  0  0  0
   -1.4619    4.0300   -0.2191 H   0  0  0  0  0  0  0  0  0  0  0  0
   -3.4106    3.1787   -1.2791 H   0  0  0  0  0  0  0  0  0  0  0  0
   -1.9699    2.8501   -2.1812 H   0  0  0  0  0  0  0  0  0  0  0  0
   -3.1836    3.5857    1.2964 H   0  0  0  0  0  0  0  0  0  0  0  0
   -2.6422    1.9697    1.6043 H   0  0  0  0  0  0  0  0  0  0  0  0
   -3.4562    0.9568   -2.4355 H   0  0  0  0  0  0  0  0  0  0  0  0
   -2.0419    0.4957   -1.5775 H   0  0  0  0  0  0  0  0  0  0  0  0
   -2.0703    5.4698    2.4580 H   0  0  0  0  0  0  0  0  0  0  0  0
   -0.9525    1.5399    3.4877 H   0  0  0  0  0  0  0  0  0  0  0  0
   -4.7150    2.3274    0.3077 H   0  0  0  0  0  0  0  0  0  0  0  0
   -3.3529   -1.5877   -0.8103 H   0  0  0  0  0  0  0  0  0  0  0  0
   -0.8521    5.3872    4.9486 H   0  0  0  0  0  0  0  0  0  0  0  0
   -5.1469    1.5311    2.5761 H   0  0  0  0  0  0  0  0  0  0  0  0
   -3.8878   -2.4042    1.4674 H   0  0  0  0  0  0  0  0  0  0  0  0
   -1.5719   -2.2838    0.2408 H   0  0  0  0  0  0  0  0  0  0  0  0
    2.5969   -2.0360   -0.0773 H   0  0  0  0  0  0  0  0  0  0  0  0
    0.5140   -3.3971   -0.0973 H   0  0  0  0  0  0  0  0  0  0  0  0
  1 20  1  0  0  0  0
  2 21  1  0  0  0  0
  3 22  1  0  0  0  0
  4  7  1  0  0  0  0
  4 12  1  0  0  0  0
  5  9  1  0  0  0  0
  5 13  1  0  0  0  0
  5 14  1  0  0  0  0
  6 14  2  0  0  0  0
  6 17  1  0  0  0  0
  7  8  1  0  0  0  0
  7  9  1  0  0  0  0
  7 26  1  0  0  0  0
  8 10  1  0  0  0  0
  8 27  1  0  0  0  0
  8 28  1  0  0  0  0
  9 29  1  0  0  0  0
  9 30  1  0  0  0  0
 10 11  1  0  0  0  0
 10 31  1  0  0  0  0
 10 32  1  0  0  0  0
 11 15  2  0  0  0  0
 11 16  1  0  0  0  0
 12 20  2  0  0  0  0
 12 21  1  0  0  0  0
 13 17  2  0  0  0  0
 13 33  1  0  0  0  0
 14 34  1  0  0  0  0
 15 18  1  0  0  0  0
 15 35  1  0  0  0  0
 16 19  2  0  0  0  0
 16 36  1  0  0  0  0
 17 37  1  0  0  0  0
 18 22  2  0  0  0  0
 18 38  1  0  0  0  0
 19 22  1  0  0  0  0
 19 39  1  0  0  0  0
 20 23  1  0  0  0  0
 21 24  2  0  0  0  0
 23 25  2  0  0  0  0
 23 40  1  0  0  0  0
 24 25  1  0  0  0  0
 24 41  1  0  0  0  0
 25 42  1  0  0  0  0
M  END
>  <DRUGBANK_ID>
DB00639

>  <SECONDARY_ACCESSION_NUMBERS>
APRD00834

>  <COMMON_NAME>
Butoconazole

>  <CAS_NUMBER>
64872-76-0

>  <UNII>
0Q771797PH

>  <SYNONYMS>
1-[4-(4-Chloro-phenyl)-2-(2,6-dichloro-phenylsulfanyl)-butyl]-1H-imidazole; Butoconazol; Butoconazole; Butoconazolum

$$$$
