TG(18:1(9Z)/18:1(9Z)/18:1(9Z))
 OpenBabel10282417203D

167166  0  0  0  0  0  0  0  0999 V2000
    0.9435   -0.1068    0.3396 C   0  0  0  0  0  0  0  0  0  0  0  0
    0.4747    1.3847    0.0579 C   0  0  1  0  0  0  0  0  0  0  0  0
    1.0686    2.2379   -1.1723 C   0  0  0  0  0  0  0  0  0  0  0  0
    0.5947   -1.0461   -0.6831 O   0  0  0  0  0  0  0  0  0  0  0  0
    0.6437    1.8173   -2.5721 O   0  0  0  0  0  0  0  0  0  0  0  0
   -0.9801    1.5529    0.0604 O   0  0  0  0  0  0  0  0  0  0  0  0
    0.8032    1.8989    0.9797 H   0  0  0  0  0  0  0  0  0  0  0  0
    1.4396   -0.8355   -1.7228 C   0  0  0  0  0  0  0  0  0  0  0  0
    2.3839   -0.0726   -1.5599 O   0  0  0  0  0  0  0  0  0  0  0  0
    1.0856   -1.4322   -3.0861 C   0  0  0  0  0  0  0  0  0  0  0  0
    1.2338   -2.7967   -3.5551 C   0  0  0  0  0  0  0  0  0  0  0  0
    0.4468   -3.4270   -2.4606 C   0  0  0  0  0  0  0  0  0  0  0  0
   -1.0931   -3.1485   -2.5825 C   0  0  0  0  0  0  0  0  0  0  0  0
   -1.6221   -3.5996   -3.9503 C   0  0  0  0  0  0  0  0  0  0  0  0
   -1.1627   -5.0336   -4.1265 C   0  0  0  0  0  0  0  0  0  0  0  0
   -1.6020   -5.8235   -2.9065 C   0  0  0  0  0  0  0  0  0  0  0  0
   -3.0934   -5.8583   -2.8682 C   0  0  0  0  0  0  0  0  0  0  0  0
   -3.7612   -6.9959   -3.0091 C   0  0  0  0  0  0  0  0  0  0  0  0
   -3.0632   -8.3156   -3.0786 C   0  0  0  0  0  0  0  0  0  0  0  0
   -3.4416   -9.1441   -1.8674 C   0  0  0  0  0  0  0  0  0  0  0  0
   -4.9340   -9.4453   -1.9045 C   0  0  0  0  0  0  0  0  0  0  0  0
   -5.2894  -10.1624   -3.2119 C   0  0  0  0  0  0  0  0  0  0  0  0
   -4.5194  -11.4835   -3.3190 C   0  0  0  0  0  0  0  0  0  0  0  0
   -4.8855  -12.4071   -2.1534 C   0  0  0  0  0  0  0  0  0  0  0  0
   -6.3862  -12.6968   -2.1410 C   0  0  0  0  0  0  0  0  0  0  0  0
   -6.7965  -13.3774   -3.4360 C   0  0  0  0  0  0  0  0  0  0  0  0
   -1.6210    0.8357   -0.9029 C   0  0  0  0  0  0  0  0  0  0  0  0
   -1.0609    0.1574   -1.6685 O   0  0  0  0  0  0  0  0  0  0  0  0
   -3.1201    0.8504   -0.9321 C   0  0  0  0  0  0  0  0  0  0  0  0
   -3.5933   -0.0170    0.2103 C   0  0  0  0  0  0  0  0  0  0  0  0
   -3.1295    0.6070    1.5213 C   0  0  0  0  0  0  0  0  0  0  0  0
   -3.6115    2.0641    1.5843 C   0  0  0  0  0  0  0  0  0  0  0  0
   -5.1412    2.0879    1.5549 C   0  0  0  0  0  0  0  0  0  0  0  0
   -5.6748    1.2953    2.7396 C   0  0  0  0  0  0  0  0  0  0  0  0
   -5.1133    1.8724    4.0252 C   0  0  0  0  0  0  0  0  0  0  0  0
   -5.6143    3.2704    4.1954 C   0  0  0  0  0  0  0  0  0  0  0  0
   -6.4244    3.6159    5.1907 C   0  0  0  0  0  0  0  0  0  0  0  0
   -6.7955    2.6666    6.2851 C   0  0  0  0  0  0  0  0  0  0  0  0
   -6.2373    3.1735    7.6013 C   0  0  0  0  0  0  0  0  0  0  0  0
   -6.8904    4.5034    7.9563 C   0  0  0  0  0  0  0  0  0  0  0  0
   -8.4128    4.3372    8.0224 C   0  0  0  0  0  0  0  0  0  0  0  0
   -8.7887    3.3064    9.0929 C   0  0  0  0  0  0  0  0  0  0  0  0
   -8.2999    3.7674   10.4692 C   0  0  0  0  0  0  0  0  0  0  0  0
   -8.9085    5.1207   10.8363 C   0  0  0  0  0  0  0  0  0  0  0  0
  -10.4237    5.0167   10.8785 C   0  0  0  0  0  0  0  0  0  0  0  0
    1.2722    1.0901   -3.5673 C   0  0  0  0  0  0  0  0  0  0  0  0
    2.4895    0.9218   -3.6786 O   0  0  0  0  0  0  0  0  0  0  0  0
    0.2453    0.2958   -4.6123 C   0  0  0  0  0  0  0  0  0  0  0  0
   -1.2670    0.0362   -4.2230 C   0  0  0  0  0  0  0  0  0  0  0  0
   -1.8187    1.3941   -3.9843 C   0  0  0  0  0  0  0  0  0  0  0  0
   -1.2705    2.1744   -5.1504 C   0  0  0  0  0  0  0  0  0  0  0  0
   -1.6489    1.3681   -6.4256 C   0  0  0  0  0  0  0  0  0  0  0  0
   -3.1605    1.2554   -6.4118 C   0  0  0  0  0  0  0  0  0  0  0  0
   -3.6833    2.6566   -6.1996 C   0  0  0  0  0  0  0  0  0  0  0  0
   -3.2036    3.4937   -7.3388 C   0  0  0  0  0  0  0  0  0  0  0  0
   -4.0540    4.0055   -8.2140 C   0  0  0  0  0  0  0  0  0  0  0  0
   -5.5285    3.9003   -8.0145 C   0  0  0  0  0  0  0  0  0  0  0  0
   -6.0942    5.2876   -7.7955 C   0  0  0  0  0  0  0  0  0  0  0  0
   -5.8814    6.1232   -9.0505 C   0  0  0  0  0  0  0  0  0  0  0  0
   -6.5274    5.4288  -10.2547 C   0  0  0  0  0  0  0  0  0  0  0  0
   -8.0335    5.2608  -10.0250 C   0  0  0  0  0  0  0  0  0  0  0  0
   -8.6989    6.6289   -9.8484 C   0  0  0  0  0  0  0  0  0  0  0  0
   -8.4701    7.5066  -11.0787 C   0  0  0  0  0  0  0  0  0  0  0  0
   -9.0632    6.8429  -12.3100 C   0  0  0  0  0  0  0  0  0  0  0  0
    0.5767   -0.5270    1.2820 H   0  0  0  0  0  0  0  0  0  0  0  0
    2.0350   -0.1340    0.4810 H   0  0  0  0  0  0  0  0  0  0  0  0
    0.6362    3.2517   -1.0452 H   0  0  0  0  0  0  0  0  0  0  0  0
    2.1509    2.3664   -1.0820 H   0  0  0  0  0  0  0  0  0  0  0  0
    0.0374   -1.2896   -3.2491 H   0  0  0  0  0  0  0  0  0  0  0  0
    1.7094   -1.0229   -3.8698 H   0  0  0  0  0  0  0  0  0  0  0  0
    0.7999   -2.9163   -4.5716 H   0  0  0  0  0  0  0  0  0  0  0  0
    2.3120   -2.9029   -3.6683 H   0  0  0  0  0  0  0  0  0  0  0  0
    0.7468   -4.4589   -2.4409 H   0  0  0  0  0  0  0  0  0  0  0  0
    0.7822   -3.0344   -1.5066 H   0  0  0  0  0  0  0  0  0  0  0  0
   -1.5767   -3.6276   -1.7310 H   0  0  0  0  0  0  0  0  0  0  0  0
   -1.4444   -2.1370   -2.3929 H   0  0  0  0  0  0  0  0  0  0  0  0
   -2.7131   -3.5083   -3.9925 H   0  0  0  0  0  0  0  0  0  0  0  0
   -1.2733   -2.9894   -4.7903 H   0  0  0  0  0  0  0  0  0  0  0  0
   -1.5314   -5.4641   -5.0598 H   0  0  0  0  0  0  0  0  0  0  0  0
   -0.0711   -5.0927   -4.2052 H   0  0  0  0  0  0  0  0  0  0  0  0
   -1.0856   -6.7701   -2.9691 H   0  0  0  0  0  0  0  0  0  0  0  0
   -1.2456   -5.4552   -1.9420 H   0  0  0  0  0  0  0  0  0  0  0  0
   -3.6614   -4.9329   -2.7700 H   0  0  0  0  0  0  0  0  0  0  0  0
   -4.8479   -6.9507   -3.0309 H   0  0  0  0  0  0  0  0  0  0  0  0
   -3.2825   -8.7791   -4.0409 H   0  0  0  0  0  0  0  0  0  0  0  0
   -1.9801   -8.2779   -3.0796 H   0  0  0  0  0  0  0  0  0  0  0  0
   -2.8399  -10.0597   -1.8725 H   0  0  0  0  0  0  0  0  0  0  0  0
   -3.1718   -8.6350   -0.9348 H   0  0  0  0  0  0  0  0  0  0  0  0
   -5.2077  -10.0309   -1.0242 H   0  0  0  0  0  0  0  0  0  0  0  0
   -5.5245   -8.5298   -1.8131 H   0  0  0  0  0  0  0  0  0  0  0  0
   -6.3703  -10.3072   -3.2646 H   0  0  0  0  0  0  0  0  0  0  0  0
   -5.0822   -9.5470   -4.0926 H   0  0  0  0  0  0  0  0  0  0  0  0
   -4.7253  -11.9526   -4.2841 H   0  0  0  0  0  0  0  0  0  0  0  0
   -3.4361  -11.3250   -3.3391 H   0  0  0  0  0  0  0  0  0  0  0  0
   -4.3157  -13.3378   -2.2261 H   0  0  0  0  0  0  0  0  0  0  0  0
   -4.5903  -11.9637   -1.1948 H   0  0  0  0  0  0  0  0  0  0  0  0
   -6.6351  -13.3242   -1.2818 H   0  0  0  0  0  0  0  0  0  0  0  0
   -6.9682  -11.7771   -2.0084 H   0  0  0  0  0  0  0  0  0  0  0  0
   -6.2414  -14.3127   -3.5518 H   0  0  0  0  0  0  0  0  0  0  0  0
   -7.8665  -13.5821   -3.4433 H   0  0  0  0  0  0  0  0  0  0  0  0
   -6.5915  -12.7546   -4.3129 H   0  0  0  0  0  0  0  0  0  0  0  0
   -3.5066    1.8688   -0.9908 H   0  0  0  0  0  0  0  0  0  0  0  0
   -3.4464    0.3793   -1.8659 H   0  0  0  0  0  0  0  0  0  0  0  0
   -4.6831   -0.1129    0.1602 H   0  0  0  0  0  0  0  0  0  0  0  0
   -3.2040   -1.0368    0.1158 H   0  0  0  0  0  0  0  0  0  0  0  0
   -3.4619   -0.0004    2.3626 H   0  0  0  0  0  0  0  0  0  0  0  0
   -2.0463    0.5598    1.6361 H   0  0  0  0  0  0  0  0  0  0  0  0
   -3.1885    2.5500    2.4658 H   0  0  0  0  0  0  0  0  0  0  0  0
   -3.2316    2.6918    0.7736 H   0  0  0  0  0  0  0  0  0  0  0  0
   -5.4963    3.1208    1.5676 H   0  0  0  0  0  0  0  0  0  0  0  0
   -5.5464    1.6756    0.6270 H   0  0  0  0  0  0  0  0  0  0  0  0
   -6.7691    1.2922    2.7412 H   0  0  0  0  0  0  0  0  0  0  0  0
   -5.3952    0.2371    2.6831 H   0  0  0  0  0  0  0  0  0  0  0  0
   -5.3896    1.1753    4.8073 H   0  0  0  0  0  0  0  0  0  0  0  0
   -4.0236    1.8778    4.0891 H   0  0  0  0  0  0  0  0  0  0  0  0
   -5.3491    4.0318    3.4627 H   0  0  0  0  0  0  0  0  0  0  0  0
   -6.7910    4.6411    5.2200 H   0  0  0  0  0  0  0  0  0  0  0  0
   -7.8767    2.5205    6.2751 H   0  0  0  0  0  0  0  0  0  0  0  0
   -6.4193    1.6560    6.1738 H   0  0  0  0  0  0  0  0  0  0  0  0
   -6.4174    2.4140    8.3704 H   0  0  0  0  0  0  0  0  0  0  0  0
   -5.1470    3.2774    7.5582 H   0  0  0  0  0  0  0  0  0  0  0  0
   -6.4745    4.8726    8.8965 H   0  0  0  0  0  0  0  0  0  0  0  0
   -6.6345    5.2764    7.2268 H   0  0  0  0  0  0  0  0  0  0  0  0
   -8.8772    5.3090    8.2023 H   0  0  0  0  0  0  0  0  0  0  0  0
   -8.8391    4.0366    7.0607 H   0  0  0  0  0  0  0  0  0  0  0  0
   -9.8691    3.1431    9.0837 H   0  0  0  0  0  0  0  0  0  0  0  0
   -8.3798    2.3159    8.8679 H   0  0  0  0  0  0  0  0  0  0  0  0
   -8.5533    3.0161   11.2224 H   0  0  0  0  0  0  0  0  0  0  0  0
   -7.2059    3.8397   10.4922 H   0  0  0  0  0  0  0  0  0  0  0  0
   -8.5192    5.4520   11.8019 H   0  0  0  0  0  0  0  0  0  0  0  0
   -8.6128    5.8974   10.1210 H   0  0  0  0  0  0  0  0  0  0  0  0
  -10.7204    4.2666   11.6172 H   0  0  0  0  0  0  0  0  0  0  0  0
  -10.8705    5.9777   11.1311 H   0  0  0  0  0  0  0  0  0  0  0  0
  -10.8446    4.7209    9.9119 H   0  0  0  0  0  0  0  0  0  0  0  0
    0.5348    0.8117   -5.5296 H   0  0  0  0  0  0  0  0  0  0  0  0
    0.4746   -0.6671   -5.1042 H   0  0  0  0  0  0  0  0  0  0  0  0
   -1.7345   -0.6081   -4.9890 H   0  0  0  0  0  0  0  0  0  0  0  0
   -1.6321   -0.5835   -3.4095 H   0  0  0  0  0  0  0  0  0  0  0  0
   -2.9013    1.3354   -3.8471 H   0  0  0  0  0  0  0  0  0  0  0  0
   -1.4623    1.8536   -3.0743 H   0  0  0  0  0  0  0  0  0  0  0  0
   -1.5796    3.2033   -5.0589 H   0  0  0  0  0  0  0  0  0  0  0  0
   -0.1976    2.3587   -5.0924 H   0  0  0  0  0  0  0  0  0  0  0  0
   -1.2108    1.8470   -7.2937 H   0  0  0  0  0  0  0  0  0  0  0  0
   -1.2499    0.3463   -6.5284 H   0  0  0  0  0  0  0  0  0  0  0  0
   -3.5213    0.7803   -7.3242 H   0  0  0  0  0  0  0  0  0  0  0  0
   -3.5430    0.6142   -5.6027 H   0  0  0  0  0  0  0  0  0  0  0  0
   -4.7445    2.5561   -6.0472 H   0  0  0  0  0  0  0  0  0  0  0  0
   -3.3927    3.1442   -5.2665 H   0  0  0  0  0  0  0  0  0  0  0  0
   -2.1360    3.6456   -7.5102 H   0  0  0  0  0  0  0  0  0  0  0  0
   -3.6444    4.5487   -9.0617 H   0  0  0  0  0  0  0  0  0  0  0  0
   -5.9564    3.3490   -8.8513 H   0  0  0  0  0  0  0  0  0  0  0  0
   -5.8531    3.3160   -7.1617 H   0  0  0  0  0  0  0  0  0  0  0  0
   -7.1554    5.1911   -7.5424 H   0  0  0  0  0  0  0  0  0  0  0  0
   -5.6392    5.7730   -6.9240 H   0  0  0  0  0  0  0  0  0  0  0  0
   -6.2791    7.1270   -8.8888 H   0  0  0  0  0  0  0  0  0  0  0  0
   -4.8171    6.2833   -9.2437 H   0  0  0  0  0  0  0  0  0  0  0  0
   -6.3067    5.9949  -11.1618 H   0  0  0  0  0  0  0  0  0  0  0  0
   -6.0789    4.4523  -10.4615 H   0  0  0  0  0  0  0  0  0  0  0  0
   -8.4729    4.7038  -10.8559 H   0  0  0  0  0  0  0  0  0  0  0  0
   -8.2469    4.6307   -9.1552 H   0  0  0  0  0  0  0  0  0  0  0  0
   -9.7689    6.4986   -9.6637 H   0  0  0  0  0  0  0  0  0  0  0  0
   -8.3138    7.1397   -8.9576 H   0  0  0  0  0  0  0  0  0  0  0  0
   -8.9174    8.4907  -10.9197 H   0  0  0  0  0  0  0  0  0  0  0  0
   -7.4021    7.6948  -11.2406 H   0  0  0  0  0  0  0  0  0  0  0  0
  -10.1357    6.6865  -12.1629 H   0  0  0  0  0  0  0  0  0  0  0  0
   -8.8995    7.4551  -13.1962 H   0  0  0  0  0  0  0  0  0  0  0  0
   -8.6069    5.8688  -12.5146 H   0  0  0  0  0  0  0  0  0  0  0  0
  1 65  1  0  0  0  0
  1 66  1  0  0  0  0
  2  1  1  0  0  0  0
  2  6  1  0  0  0  0
  2  7  1  1  0  0  0
  3  2  1  0  0  0  0
  3 67  1  0  0  0  0
  3 68  1  0  0  0  0
  4  1  1  0  0  0  0
  4  8  1  0  0  0  0
  5  3  1  0  0  0  0
  8  9  2  0  0  0  0
  8 10  1  0  0  0  0
 10 11  1  0  0  0  0
 10 69  1  0  0  0  0
 10 70  1  0  0  0  0
 11 12  1  0  0  0  0
 11 71  1  0  0  0  0
 11 72  1  0  0  0  0
 12 13  1  0  0  0  0
 12 73  1  0  0  0  0
 12 74  1  0  0  0  0
 13 14  1  0  0  0  0
 13 75  1  0  0  0  0
 13 76  1  0  0  0  0
 14 15  1  0  0  0  0
 14 77  1  0  0  0  0
 14 78  1  0  0  0  0
 15 16  1  0  0  0  0
 15 79  1  0  0  0  0
 15 80  1  0  0  0  0
 16 17  1  0  0  0  0
 16 81  1  0  0  0  0
 16 82  1  0  0  0  0
 17 18  2  0  0  0  0
 17 83  1  0  0  0  0
 18 19  1  0  0  0  0
 18 84  1  0  0  0  0
 19 20  1  0  0  0  0
 19 85  1  0  0  0  0
 19 86  1  0  0  0  0
 20 21  1  0  0  0  0
 20 87  1  0  0  0  0
 20 88  1  0  0  0  0
 21 22  1  0  0  0  0
 21 89  1  0  0  0  0
 21 90  1  0  0  0  0
 22 23  1  0  0  0  0
 22 91  1  0  0  0  0
 22 92  1  0  0  0  0
 23 24  1  0  0  0  0
 23 93  1  0  0  0  0
 23 94  1  0  0  0  0
 24 25  1  0  0  0  0
 24 95  1  0  0  0  0
 24 96  1  0  0  0  0
 25 26  1  0  0  0  0
 25 97  1  0  0  0  0
 25 98  1  0  0  0  0
 26 99  1  0  0  0  0
 26100  1  0  0  0  0
 26101  1  0  0  0  0
 27  6  1  0  0  0  0
 27 28  2  0  0  0  0
 27 29  1  0  0  0  0
 29 30  1  0  0  0  0
 29102  1  0  0  0  0
 29103  1  0  0  0  0
 30 31  1  0  0  0  0
 30104  1  0  0  0  0
 30105  1  0  0  0  0
 31 32  1  0  0  0  0
 31106  1  0  0  0  0
 31107  1  0  0  0  0
 32 33  1  0  0  0  0
 32108  1  0  0  0  0
 32109  1  0  0  0  0
 33 34  1  0  0  0  0
 33110  1  0  0  0  0
 33111  1  0  0  0  0
 34 35  1  0  0  0  0
 34112  1  0  0  0  0
 34113  1  0  0  0  0
 35 36  1  0  0  0  0
 35114  1  0  0  0  0
 35115  1  0  0  0  0
 36 37  2  0  0  0  0
 36116  1  0  0  0  0
 37 38  1  0  0  0  0
 37117  1  0  0  0  0
 38 39  1  0  0  0  0
 38118  1  0  0  0  0
 38119  1  0  0  0  0
 39 40  1  0  0  0  0
 39120  1  0  0  0  0
 39121  1  0  0  0  0
 40 41  1  0  0  0  0
 40122  1  0  0  0  0
 40123  1  0  0  0  0
 41 42  1  0  0  0  0
 41124  1  0  0  0  0
 41125  1  0  0  0  0
 42 43  1  0  0  0  0
 42126  1  0  0  0  0
 42127  1  0  0  0  0
 43 44  1  0  0  0  0
 43128  1  0  0  0  0
 43129  1  0  0  0  0
 44 45  1  0  0  0  0
 44130  1  0  0  0  0
 44131  1  0  0  0  0
 45132  1  0  0  0  0
 45133  1  0  0  0  0
 45134  1  0  0  0  0
 46  5  1  0  0  0  0
 46 47  2  0  0  0  0
 46 48  1  0  0  0  0
 48 49  1  0  0  0  0
 48135  1  0  0  0  0
 48136  1  0  0  0  0
 49 50  1  0  0  0  0
 49137  1  0  0  0  0
 49138  1  0  0  0  0
 50 51  1  0  0  0  0
 50139  1  0  0  0  0
 50140  1  0  0  0  0
 51 52  1  0  0  0  0
 51141  1  0  0  0  0
 51142  1  0  0  0  0
 52 53  1  0  0  0  0
 52143  1  0  0  0  0
 52144  1  0  0  0  0
 53 54  1  0  0  0  0
 53145  1  0  0  0  0
 53146  1  0  0  0  0
 54 55  1  0  0  0  0
 54147  1  0  0  0  0
 54148  1  0  0  0  0
 55 56  2  0  0  0  0
 55149  1  0  0  0  0
 56 57  1  0  0  0  0
 56150  1  0  0  0  0
 57 58  1  0  0  0  0
 57151  1  0  0  0  0
 57152  1  0  0  0  0
 58 59  1  0  0  0  0
 58153  1  0  0  0  0
 58154  1  0  0  0  0
 59 60  1  0  0  0  0
 59155  1  0  0  0  0
 59156  1  0  0  0  0
 60 61  1  0  0  0  0
 60157  1  0  0  0  0
 60158  1  0  0  0  0
 61 62  1  0  0  0  0
 61159  1  0  0  0  0
 61160  1  0  0  0  0
 62 63  1  0  0  0  0
 62161  1  0  0  0  0
 62162  1  0  0  0  0
 63 64  1  0  0  0  0
 63163  1  0  0  0  0
 63164  1  0  0  0  0
 64165  1  0  0  0  0
 64166  1  0  0  0  0
 64167  1  0  0  0  0
M  END
>  <DRUGBANK_ID>
DB13038

>  <COMMON_NAME>
Glyceryl Trioleate

>  <CAS_NUMBER>
122-32-7

>  <UNII>
O05EC62663

>  <SYNONYMS>
Triolein

$$$$
