
 OpenBabel10282417203D

 39 41  0  0  0  0  0  0  0  0999 V2000
    0.8617   -0.1265    0.0165 C   0  0  0  0  0  0  0  0  0  0  0  0
    0.4352    0.6605    1.2092 C   0  0  0  0  0  0  0  0  0  0  0  0
   -0.1289    0.0940    2.3331 C   0  0  0  0  0  0  0  0  0  0  0  0
   -0.1792    0.8380    3.5033 C   0  0  0  0  0  0  0  0  0  0  0  0
    0.0820    2.2155    3.4847 C   0  0  0  0  0  0  0  0  0  0  0  0
    0.4870    2.8336    2.3155 C   0  0  0  0  0  0  0  0  0  0  0  0
    0.7354    2.0149    1.2178 C   0  0  0  0  0  0  0  0  0  0  0  0
    0.6144    4.2448    2.2632 N   0  0  0  0  0  0  0  0  0  0  0  0
    0.3075    5.0114    3.3951 C   0  0  0  0  0  0  0  0  0  0  0  0
    0.3776    6.2489    3.3606 O   0  0  0  0  0  0  0  0  0  0  0  0
   -0.0782    4.3872    4.5563 N   0  0  0  0  0  0  0  0  0  0  0  0
   -0.1748    3.0940    4.6336 C   0  0  0  0  0  0  0  0  0  0  0  0
   -0.6323    2.4972    5.9147 C   0  0  0  0  0  0  0  0  0  0  0  0
   -1.8534    2.9153    6.4454 C   0  0  0  0  0  0  0  0  0  0  0  0
   -2.2727    2.4151    7.6769 C   0  0  0  0  0  0  0  0  0  0  0  0
   -1.5399    1.4095    8.3094 C   0  0  0  0  0  0  0  0  0  0  0  0
   -0.3857    0.9028    7.7145 C   0  0  0  0  0  0  0  0  0  0  0  0
    0.1111    1.4981    6.5566 C   0  0  0  0  0  0  0  0  0  0  0  0
    0.9983    4.9150    1.0005 C   0  0  0  0  0  0  0  0  0  0  0  0
    2.4433    4.5821    0.5875 C   0  0  0  0  0  0  0  0  0  0  0  0
   -0.0335    4.7009   -0.1258 C   0  0  0  0  0  0  0  0  0  0  0  0
    0.4934    0.3358   -0.9048 H   0  0  0  0  0  0  0  0  0  0  0  0
    0.5145   -1.1577    0.0724 H   0  0  0  0  0  0  0  0  0  0  0  0
    1.9584   -0.1249   -0.0064 H   0  0  0  0  0  0  0  0  0  0  0  0
   -0.5020   -0.9239    2.3241 H   0  0  0  0  0  0  0  0  0  0  0  0
   -0.4373    0.3084    4.4111 H   0  0  0  0  0  0  0  0  0  0  0  0
    1.1463    2.3830    0.2911 H   0  0  0  0  0  0  0  0  0  0  0  0
   -2.4729    3.6258    5.9036 H   0  0  0  0  0  0  0  0  0  0  0  0
   -3.1736    2.8067    8.1411 H   0  0  0  0  0  0  0  0  0  0  0  0
   -1.8698    1.0206    9.2692 H   0  0  0  0  0  0  0  0  0  0  0  0
    0.1311    0.0559    8.1588 H   0  0  0  0  0  0  0  0  0  0  0  0
    1.0565    1.1551    6.1440 H   0  0  0  0  0  0  0  0  0  0  0  0
    0.9982    5.9986    1.1733 H   0  0  0  0  0  0  0  0  0  0  0  0
    2.6343    3.5281    0.3848 H   0  0  0  0  0  0  0  0  0  0  0  0
    2.7224    5.1162   -0.3238 H   0  0  0  0  0  0  0  0  0  0  0  0
    3.1374    4.8462    1.3912 H   0  0  0  0  0  0  0  0  0  0  0  0
   -1.0223    5.0537    0.1855 H   0  0  0  0  0  0  0  0  0  0  0  0
    0.2632    5.2318   -1.0343 H   0  0  0  0  0  0  0  0  0  0  0  0
   -0.1754    3.6603   -0.4214 H   0  0  0  0  0  0  0  0  0  0  0  0
  1  2  1  0  0  0  0
  1 22  1  0  0  0  0
  1 23  1  0  0  0  0
  1 24  1  0  0  0  0
  2  3  2  0  0  0  0
  2  7  1  0  0  0  0
  3  4  1  0  0  0  0
  3 25  1  0  0  0  0
  4  5  2  0  0  0  0
  4 26  1  0  0  0  0
  5  6  1  0  0  0  0
  5 12  1  0  0  0  0
  6  7  2  0  0  0  0
  6  8  1  0  0  0  0
  7 27  1  0  0  0  0
  8  9  1  0  0  0  0
  8 19  1  0  0  0  0
  9 10  2  0  0  0  0
  9 11  1  0  0  0  0
 11 12  2  0  0  0  0
 12 13  1  0  0  0  0
 13 14  2  0  0  0  0
 13 18  1  0  0  0  0
 14 15  1  0  0  0  0
 14 28  1  0  0  0  0
 15 16  2  0  0  0  0
 15 29  1  0  0  0  0
 16 17  1  0  0  0  0
 16 30  1  0  0  0  0
 17 18  2  0  0  0  0
 17 31  1  0  0  0  0
 18 32  1  0  0  0  0
 19 20  1  0  0  0  0
 19 21  1  0  0  0  0
 19 33  1  0  0  0  0
 20 34  1  0  0  0  0
 20 35  1  0  0  0  0
 20 36  1  0  0  0  0
 21 37  1  0  0  0  0
 21 38  1  0  0  0  0
 21 39  1  0  0  0  0
M  END
>  <DRUGBANK_ID>
DB13649

>  <COMMON_NAME>
Proquazone

>  <CAS_NUMBER>
22760-18-5

>  <UNII>
42VPJ2980S

>  <SYNONYMS>
Proquazone

$$$$
