
 OpenBabel10282417213D

  3  0  0  0  0  0  0  0  0  0999 V2000
    2.6465   -0.9285   -1.2034 Cl  0  5  0  0  0  0  0  0  0  0  0  0
   -0.6694    0.8057    1.2922 Cl  0  5  0  0  0  0  0  0  0  0  0  0
    0.9833   -0.0690    0.0429 Zn  0  2  0  0  0  0  0  0  0  0  0  0
M  CHG  3   1  -1   2  -1   3   2
M  END
>  <DRUGBANK_ID>
DB14533

>  <SECONDARY_ACCESSION_NUMBERS>
DBSALT001307

>  <COMMON_NAME>
Zinc chloride

>  <CAS_NUMBER>
7646-85-7

>  <UNII>
86Q357L16B

>  <SYNONYMS>
Zinc chloride

$$$$
