
 OpenBabel10282417133D

 10  9  0  0  0  0  0  0  0  0999 V2000
    0.9286    0.0915   -0.0524 N   0  0  0  0  0  0  0  0  0  0  0  0
    0.3622    1.2023   -0.3894 C   0  0  0  0  0  0  0  0  0  0  0  0
    1.0606    2.3167   -0.7273 N   0  0  0  0  0  0  0  0  0  0  0  0
   -0.9813    1.2174   -0.3939 N   0  0  0  0  0  0  0  0  0  0  0  0
    0.4363    3.5028   -1.0871 O   0  0  0  0  0  0  0  0  0  0  0  0
    1.9438    0.2019   -0.0859 H   0  0  0  0  0  0  0  0  0  0  0  0
    2.0741    2.3250   -0.7299 H   0  0  0  0  0  0  0  0  0  0  0  0
   -1.4158    0.3415   -0.1283 H   0  0  0  0  0  0  0  0  0  0  0  0
   -1.5988    1.9712   -0.6226 H   0  0  0  0  0  0  0  0  0  0  0  0
   -0.5113    3.3148   -1.0301 H   0  0  0  0  0  0  0  0  0  0  0  0
  1  6  1  0  0  0  0
  2  1  2  0  0  0  0
  2  4  1  0  0  0  0
  3  2  1  0  0  0  0
  3  7  1  0  0  0  0
  4  8  1  0  0  0  0
  4  9  1  0  0  0  0
  5  3  1  0  0  0  0
  5 10  1  0  0  0  0
M  END
>  <DRUGBANK_ID>
DB03770

>  <SECONDARY_ACCESSION_NUMBERS>
EXPT01741

>  <COMMON_NAME>
N-hydroxyguanidine

>  <CAS_NUMBER>
13115-21-4

>  <UNII>
8767F421T7

>  <SYNONYMS>
Hydroxyguanidine

$$$$
