1587
 OpenBabel10282417123D

 43 46  0  0  1  0  0  0  0  0999 V2000
    7.4439  -10.0427   -7.8755 Cl  0  0  0  0  0  0  0  0  0  0  0  0
    8.2243   -4.5846   -5.6356 O   0  0  0  0  0  0  0  0  0  0  0  0
    5.2193   -4.6164   -5.6484 O   0  0  0  0  0  0  0  0  0  0  0  0
   10.7762   -3.7124   -6.1337 O   0  0  0  0  0  0  0  0  0  0  0  0
    7.0119   -3.4397   -6.7471 N   0  0  0  0  0  0  0  0  0  0  0  0
   10.1254   -4.7043   -8.0536 N   0  0  0  0  0  0  0  0  0  0  0  0
    7.1666   -4.7636   -7.1213 C   0  0  3  0  0  0  0  0  0  0  0  0
    8.0404   -5.9842   -7.5701 C   0  0  0  0  0  0  0  0  0  0  0  0
    6.9429   -4.0799   -8.8493 C   0  0  0  0  0  0  0  0  0  0  0  0
    8.4740   -2.7310   -6.8981 C   0  0  0  0  0  0  0  0  0  0  0  0
    9.3912   -5.9308   -7.9815 C   0  0  0  0  0  0  0  0  0  0  0  0
    6.0653   -3.7562   -5.6469 C   0  0  0  0  0  0  0  0  0  0  0  0
    9.9255   -3.7357   -7.0337 C   0  0  0  0  0  0  0  0  0  0  0  0
    7.4201   -7.2913   -7.6724 C   0  0  0  0  0  0  0  0  0  0  0  0
    7.8005   -3.5198   -4.3956 C   0  0  0  0  0  0  0  0  0  0  0  0
    6.5102   -3.2849   -4.3565 C   0  0  0  0  0  0  0  0  0  0  0  0
   10.1042   -7.1238   -8.2835 C   0  0  0  0  0  0  0  0  0  0  0  0
    8.0044   -3.4255   -9.4670 C   0  0  0  0  0  0  0  0  0  0  0  0
    5.8552   -3.8780   -9.7263 C   0  0  0  0  0  0  0  0  0  0  0  0
   10.7634   -4.3674   -9.3904 C   0  0  0  0  0  0  0  0  0  0  0  0
    8.1660   -8.4705   -7.9263 C   0  0  0  0  0  0  0  0  0  0  0  0
    9.5237   -8.3893   -8.1776 C   0  0  0  0  0  0  0  0  0  0  0  0
    8.5680   -2.4926   -3.3792 C   0  0  0  0  0  0  0  0  0  0  0  0
    8.1784   -2.5470  -10.5584 C   0  0  0  0  0  0  0  0  0  0  0  0
    5.9773   -3.0454  -10.9801 C   0  0  0  0  0  0  0  0  0  0  0  0
    7.1157   -2.3197  -11.3460 C   0  0  0  0  0  0  0  0  0  0  0  0
    8.4108   -2.0507   -7.7479 H   0  0  0  0  0  0  0  0  0  0  0  0
    8.6611   -2.0404   -6.0781 H   0  0  0  0  0  0  0  0  0  0  0  0
    6.3416   -7.4260   -7.5563 H   0  0  0  0  0  0  0  0  0  0  0  0
    5.9951   -3.2008   -3.4038 H   0  0  0  0  0  0  0  0  0  0  0  0
   11.1690   -7.0774   -8.5015 H   0  0  0  0  0  0  0  0  0  0  0  0
    8.8794   -3.5319   -8.9516 H   0  0  0  0  0  0  0  0  0  0  0  0
    4.8720   -4.3079   -9.5740 H   0  0  0  0  0  0  0  0  0  0  0  0
   10.5147   -3.3387   -9.6769 H   0  0  0  0  0  0  0  0  0  0  0  0
   11.8449   -4.3127   -9.3437 H   0  0  0  0  0  0  0  0  0  0  0  0
   10.3990   -5.0073  -10.2165 H   0  0  0  0  0  0  0  0  0  0  0  0
   10.1363   -9.2875   -8.2701 H   0  0  0  0  0  0  0  0  0  0  0  0
    7.8397   -1.6884   -3.0413 H   0  0  0  0  0  0  0  0  0  0  0  0
    8.8258   -2.9178   -2.4004 H   0  0  0  0  0  0  0  0  0  0  0  0
    9.3772   -1.8240   -3.7245 H   0  0  0  0  0  0  0  0  0  0  0  0
    9.1439   -2.0737  -10.7322 H   0  0  0  0  0  0  0  0  0  0  0  0
    5.1616   -2.9712  -11.6993 H   0  0  0  0  0  0  0  0  0  0  0  0
    7.2282   -1.6463  -12.1958 H   0  0  0  0  0  0  0  0  0  0  0  0
  1 21  1  0  0  0  0
  2  7  1  0  0  0  0
  2 15  1  0  0  0  0
  3 12  2  0  0  0  0
  4 13  2  0  0  0  0
  5  7  1  0  0  0  0
  5 10  1  0  0  0  0
  5 12  1  0  0  0  0
  6 11  1  0  0  0  0
  6 13  1  0  0  0  0
  6 20  1  0  0  0  0
  7  8  1  0  0  0  0
  7  9  1  0  0  0  0
  8 11  2  0  0  0  0
  8 14  1  0  0  0  0
  9 18  2  0  0  0  0
  9 19  1  0  0  0  0
 10 13  1  0  0  0  0
 10 27  1  0  0  0  0
 10 28  1  0  0  0  0
 11 17  1  0  0  0  0
 12 16  1  0  0  0  0
 14 21  2  0  0  0  0
 14 29  1  0  0  0  0
 15 16  2  0  0  0  0
 15 23  1  0  0  0  0
 16 30  1  0  0  0  0
 17 22  2  0  0  0  0
 17 31  1  0  0  0  0
 18 24  1  0  0  0  0
 18 32  1  0  0  0  0
 19 25  2  0  0  0  0
 19 33  1  0  0  0  0
 20 34  1  0  0  0  0
 20 35  1  0  0  0  0
 20 36  1  0  0  0  0
 21 22  1  0  0  0  0
 22 37  1  0  0  0  0
 23 38  1  0  0  0  0
 23 39  1  0  0  0  0
 23 40  1  0  0  0  0
 24 26  2  0  0  0  0
 24 41  1  0  0  0  0
 25 26  1  0  0  0  0
 25 42  1  0  0  0  0
 26 43  1  0  0  0  0
M  END
>  <DRUGBANK_ID>
DB01587

>  <COMMON_NAME>
Ketazolam

>  <CAS_NUMBER>
27223-35-4

>  <UNII>
92A214MD7Y

>  <SYNONYMS>
Ketazolam; Ketazolamum

$$$$
