1OH
 OpenBabel10282417163D

 32 33  0  0  0  0  0  0  0  0999 V2000
    2.3437    0.0342    0.0298 O   0  0  0  0  0  0  0  0  0  0  0  0
    0.9819    0.0094    0.0108 C   0  0  0  0  0  0  0  0  0  0  0  0
    0.2888   -1.1913   -0.0279 C   0  0  0  0  0  0  0  0  0  0  0  0
   -1.1049   -1.1690   -0.0855 C   0  0  0  0  0  0  0  0  0  0  0  0
    0.3036    1.2162    0.0190 C   0  0  0  0  0  0  0  0  0  0  0  0
   -1.0929    1.2325    0.0008 C   0  0  0  0  0  0  0  0  0  0  0  0
   -1.8343    0.0348   -0.0469 C   0  0  0  0  0  0  0  0  0  0  0  0
   -3.3834    0.0774   -0.0624 C   0  0  0  0  0  0  0  0  0  0  0  0
   -3.8298    0.8899   -1.3081 C   0  0  0  0  0  0  0  0  0  0  0  0
   -3.9063    0.8384    1.1867 C   0  0  0  0  0  0  0  0  0  0  0  0
   -4.0378   -1.3254   -0.0360 C   0  0  0  0  0  0  0  0  0  0  0  0
   -3.8093   -2.1883    1.0565 C   0  0  0  0  0  0  0  0  0  0  0  0
   -4.3476   -3.4734    1.0925 C   0  0  0  0  0  0  0  0  0  0  0  0
   -5.1917   -3.8943    0.0706 C   0  0  0  0  0  0  0  0  0  0  0  0
   -5.4641   -3.0499   -0.9983 C   0  0  0  0  0  0  0  0  0  0  0  0
   -4.8594   -1.7948   -1.0745 C   0  0  0  0  0  0  0  0  0  0  0  0
    2.6635   -0.8806   -0.0202 H   0  0  0  0  0  0  0  0  0  0  0  0
    0.7978   -2.1480   -0.0202 H   0  0  0  0  0  0  0  0  0  0  0  0
   -1.5999   -2.1347   -0.1554 H   0  0  0  0  0  0  0  0  0  0  0  0
    0.8573    2.1512    0.0394 H   0  0  0  0  0  0  0  0  0  0  0  0
   -1.5932    2.1970    0.0146 H   0  0  0  0  0  0  0  0  0  0  0  0
   -3.4673    0.4287   -2.2354 H   0  0  0  0  0  0  0  0  0  0  0  0
   -4.9230    0.9632   -1.3672 H   0  0  0  0  0  0  0  0  0  0  0  0
   -3.4556    1.9192   -1.2975 H   0  0  0  0  0  0  0  0  0  0  0  0
   -3.5604    1.8773    1.2167 H   0  0  0  0  0  0  0  0  0  0  0  0
   -5.0034    0.8632    1.2001 H   0  0  0  0  0  0  0  0  0  0  0  0
   -3.5785    0.3712    2.1228 H   0  0  0  0  0  0  0  0  0  0  0  0
   -3.1497   -1.8821    1.8685 H   0  0  0  0  0  0  0  0  0  0  0  0
   -4.1044   -4.1373    1.9156 H   0  0  0  0  0  0  0  0  0  0  0  0
   -5.6332   -4.8858    0.1050 H   0  0  0  0  0  0  0  0  0  0  0  0
   -6.1444   -3.3626   -1.7864 H   0  0  0  0  0  0  0  0  0  0  0  0
   -5.0521   -1.2036   -1.9639 H   0  0  0  0  0  0  0  0  0  0  0  0
  1 17  1  0  0  0  0
  2  1  1  0  0  0  0
  2  3  2  0  0  0  0
  3 18  1  0  0  0  0
  4  3  1  0  0  0  0
  4 19  1  0  0  0  0
  5  2  1  0  0  0  0
  5 20  1  0  0  0  0
  6  5  2  0  0  0  0
  6  7  1  0  0  0  0
  6 21  1  0  0  0  0
  7  4  2  0  0  0  0
  8  7  1  0  0  0  0
  8 10  1  0  0  0  0
  8  9  1  0  0  0  0
  9 22  1  0  0  0  0
  9 23  1  0  0  0  0
  9 24  1  0  0  0  0
 10 25  1  0  0  0  0
 10 26  1  0  0  0  0
 10 27  1  0  0  0  0
 11  8  1  0  0  0  0
 12 11  1  0  0  0  0
 12 28  1  0  0  0  0
 13 12  2  0  0  0  0
 13 29  1  0  0  0  0
 14 15  2  0  0  0  0
 14 13  1  0  0  0  0
 14 30  1  0  0  0  0
 15 16  1  0  0  0  0
 15 31  1  0  0  0  0
 16 11  2  0  0  0  0
 16 32  1  0  0  0  0
M  END
>  <DRUGBANK_ID>
DB06902

>  <COMMON_NAME>
p-Cumylphenol

>  <CAS_NUMBER>
599-64-4

>  <UNII>
2RLA3OL3QT

>  <SYNONYMS>
4-(alpha,alpha-Dimethylbenzyl)phenol; 4-Cumylphenol

$$$$
