
 OpenBabel10282417143D

 41 43  0  0  1  0  0  0  0  0999 V2000
    0.9189   -0.0392   -0.1530 O   0  0  0  0  0  0  0  0  0  0  0  0
    0.4487    0.3571    1.1359 C   0  0  0  0  0  0  0  0  0  0  0  0
    0.9425   -0.6046    2.2237 C   0  0  2  0  0  0  0  0  0  0  0  0
    2.4812   -0.6527    2.1829 C   0  0  1  0  0  0  0  0  0  0  0  0
    3.0062   -0.4493    3.5026 O   0  0  0  0  0  0  0  0  0  0  0  0
    3.1350   -1.8682    1.5031 C   0  0  2  0  0  0  0  0  0  0  0  0
    3.4912   -1.5101    0.1543 O   0  0  0  0  0  0  0  0  0  0  0  0
    2.3568   -3.1968    1.5091 C   0  0  1  0  0  0  0  0  0  0  0  0
    2.9012   -4.0437    2.5224 O   0  0  0  0  0  0  0  0  0  0  0  0
    0.9033   -3.0733    1.7837 C   0  0  0  0  0  0  0  0  0  0  0  0
    0.0088   -4.0523    1.7144 N   0  0  0  0  0  0  0  0  0  0  0  0
   -1.2056   -3.4923    2.0308 C   0  0  0  0  0  0  0  0  0  0  0  0
   -2.4638   -4.3136    2.0491 C   0  0  0  0  0  0  0  0  0  0  0  0
   -2.8697   -4.9025    0.7713 N   0  0  0  0  0  0  0  0  0  0  0  0
   -2.9385   -6.2866    0.6494 C   0  0  0  0  0  0  0  0  0  0  0  0
   -3.6446   -7.0529    1.5827 C   0  0  0  0  0  0  0  0  0  0  0  0
   -3.8336   -8.4236    1.4010 C   0  0  0  0  0  0  0  0  0  0  0  0
   -3.3024   -9.0552    0.2814 C   0  0  0  0  0  0  0  0  0  0  0  0
   -2.5555   -8.3193   -0.6360 C   0  0  0  0  0  0  0  0  0  0  0  0
   -2.3502   -6.9484   -0.4354 C   0  0  0  0  0  0  0  0  0  0  0  0
   -1.0436   -2.1450    2.2931 C   0  0  0  0  0  0  0  0  0  0  0  0
    0.2928   -1.9016    2.1116 N   0  0  0  0  0  0  0  0  0  0  0  0
    1.8268    0.3006   -0.2624 H   0  0  0  0  0  0  0  0  0  0  0  0
    0.8149    1.3701    1.3432 H   0  0  0  0  0  0  0  0  0  0  0  0
   -0.6441    0.4086    1.1057 H   0  0  0  0  0  0  0  0  0  0  0  0
    0.6244   -0.2204    3.2023 H   0  0  0  0  0  0  0  0  0  0  0  0
    2.8377    0.2339    1.6419 H   0  0  0  0  0  0  0  0  0  0  0  0
    2.7733   -1.2139    4.0564 H   0  0  0  0  0  0  0  0  0  0  0  0
    4.0935   -2.0330    2.0124 H   0  0  0  0  0  0  0  0  0  0  0  0
    2.7114   -1.6470   -0.4157 H   0  0  0  0  0  0  0  0  0  0  0  0
    2.4703   -3.7033    0.5413 H   0  0  0  0  0  0  0  0  0  0  0  0
    3.8601   -4.0893    2.3691 H   0  0  0  0  0  0  0  0  0  0  0  0
   -2.3527   -5.0627    2.8434 H   0  0  0  0  0  0  0  0  0  0  0  0
   -3.2909   -3.6642    2.3618 H   0  0  0  0  0  0  0  0  0  0  0  0
   -2.5258   -4.4000   -0.0381 H   0  0  0  0  0  0  0  0  0  0  0  0
   -4.1011   -6.5712    2.4417 H   0  0  0  0  0  0  0  0  0  0  0  0
   -4.4204   -8.9836    2.1227 H   0  0  0  0  0  0  0  0  0  0  0  0
   -3.4687  -10.1175    0.1273 H   0  0  0  0  0  0  0  0  0  0  0  0
   -2.1438   -8.8087   -1.5150 H   0  0  0  0  0  0  0  0  0  0  0  0
   -1.7199   -6.4047   -1.1347 H   0  0  0  0  0  0  0  0  0  0  0  0
   -1.7556   -1.3792    2.5568 H   0  0  0  0  0  0  0  0  0  0  0  0
  1  2  1  0  0  0  0
  1 23  1  0  0  0  0
  2 24  1  0  0  0  0
  2 25  1  0  0  0  0
  3  2  1  0  0  0  0
  3  4  1  0  0  0  0
  3 22  1  0  0  0  0
  3 26  1  1  0  0  0
  4  5  1  0  0  0  0
  4  6  1  0  0  0  0
  4 27  1  6  0  0  0
  5 28  1  0  0  0  0
  6  7  1  0  0  0  0
  6  8  1  0  0  0  0
  6 29  1  1  0  0  0
  7 30  1  0  0  0  0
  8 10  1  0  0  0  0
  8 31  1  6  0  0  0
  8  9  1  0  0  0  0
  9 32  1  0  0  0  0
 10 11  2  0  0  0  0
 10 22  1  0  0  0  0
 11 12  1  0  0  0  0
 12 13  1  0  0  0  0
 12 21  2  0  0  0  0
 13 14  1  0  0  0  0
 13 33  1  0  0  0  0
 13 34  1  0  0  0  0
 14 15  1  0  0  0  0
 14 35  1  0  0  0  0
 15 16  2  0  0  0  0
 15 20  1  0  0  0  0
 16 17  1  0  0  0  0
 16 36  1  0  0  0  0
 17 18  2  0  0  0  0
 17 37  1  0  0  0  0
 18 19  1  0  0  0  0
 18 38  1  0  0  0  0
 19 20  2  0  0  0  0
 19 39  1  0  0  0  0
 20 40  1  0  0  0  0
 21 22  1  0  0  0  0
 21 41  1  0  0  0  0
M  END
>  <DRUGBANK_ID>
DB04712

>  <COMMON_NAME>
ANILINOMETHYL GLUCO-PHENYLIMIDAZOLE

$$$$
