
 OpenBabel10282417233D

 33 32  0  0  1  0  0  0  0  0999 V2000
    3.4943    2.4617   -1.0427 C   0  0  0  0  0  0  0  0  0  0  0  0
   -2.3279    1.6765    4.0672 C   0  0  0  0  0  0  0  0  0  0  0  0
    0.2111    3.6268    5.2475 C   0  0  0  0  0  0  0  0  0  0  0  0
   -1.2302    4.0650    5.2299 C   0  0  0  0  0  0  0  0  0  0  0  0
    0.6037    3.8866    0.6893 C   0  0  0  0  0  0  0  0  0  0  0  0
    2.7110    3.4157   -0.2015 C   0  0  0  0  0  0  0  0  0  0  0  0
   -1.3225    0.7936    4.7447 C   0  0  0  0  0  0  0  0  0  0  0  0
    1.0193    3.8221    2.1734 C   0  0  2  0  0  0  0  0  0  0  0  0
    0.5817    2.4293    4.3420 C   0  0  2  0  0  0  0  0  0  0  0  0
    0.4255    2.5558    2.8021 C   0  0  2  0  0  0  0  0  0  0  0  0
   -2.0054    3.8885    6.1644 O   0  0  0  0  0  0  0  0  0  0  0  0
    3.1991    4.3695    0.3676 O   0  0  0  0  0  0  0  0  0  0  0  0
   -1.6729   -0.2774    5.2255 O   0  0  0  0  0  0  0  0  0  0  0  0
    0.5031    4.9865    2.8281 O   0  0  0  0  0  0  0  0  0  0  0  0
    0.7316    1.3524    2.0885 O   0  0  0  0  0  0  0  0  0  0  0  0
    1.4002    3.0506   -0.1518 O   0  0  0  0  0  0  0  0  0  0  0  0
   -0.0298    1.1945    4.8356 O   0  0  0  0  0  0  0  0  0  0  0  0
    2.1016    3.8153    2.3193 H   0  0  0  0  0  0  0  0  0  0  0  0
    1.6565    2.2620    4.5218 H   0  0  0  0  0  0  0  0  0  0  0  0
   -0.6134    2.6761    2.5589 H   0  0  0  0  0  0  0  0  0  0  0  0
    4.5393    2.7822   -1.0226 H   0  0  0  0  0  0  0  0  0  0  0  0
    3.1329    2.4972   -2.0713 H   0  0  0  0  0  0  0  0  0  0  0  0
    3.4345    1.4500   -0.6347 H   0  0  0  0  0  0  0  0  0  0  0  0
   -2.7857    1.1957    3.2045 H   0  0  0  0  0  0  0  0  0  0  0  0
   -3.0693    2.0307    4.7830 H   0  0  0  0  0  0  0  0  0  0  0  0
   -1.8993    2.5700    3.6687 H   0  0  0  0  0  0  0  0  0  0  0  0
    0.4378    3.3837    6.2900 H   0  0  0  0  0  0  0  0  0  0  0  0
    0.8071    4.5096    5.0068 H   0  0  0  0  0  0  0  0  0  0  0  0
   -1.6110    4.4936    4.2868 H   0  0  0  0  0  0  0  0  0  0  0  0
    0.5945    4.9159    0.3141 H   0  0  0  0  0  0  0  0  0  0  0  0
   -0.4393    3.5482    0.5923 H   0  0  0  0  0  0  0  0  0  0  0  0
   -0.4471    5.0586    2.6385 H   0  0  0  0  0  0  0  0  0  0  0  0
    1.5340    0.9165    2.4184 H   0  0  0  0  0  0  0  0  0  0  0  0
  1 21  1  0  0  0  0
  1 22  1  0  0  0  0
  1 23  1  0  0  0  0
  2 24  1  0  0  0  0
  2 25  1  0  0  0  0
  2 26  1  0  0  0  0
  3 27  1  0  0  0  0
  3 28  1  0  0  0  0
  4  3  1  0  0  0  0
  4 29  1  0  0  0  0
  5 30  1  0  0  0  0
  5 31  1  0  0  0  0
  6  1  1  0  0  0  0
  7  2  1  0  0  0  0
  8 14  1  0  0  0  0
  8 18  1  1  0  0  0
  8 10  1  0  0  0  0
  8  5  1  0  0  0  0
  9  3  1  0  0  0  0
  9 17  1  0  0  0  0
  9 19  1  1  0  0  0
 10 20  1  6  0  0  0
 10 15  1  0  0  0  0
 10  9  1  0  0  0  0
 11  4  2  0  0  0  0
 12  6  2  0  0  0  0
 13  7  2  0  0  0  0
 14 32  1  0  0  0  0
 15 33  1  0  0  0  0
 16  5  1  0  0  0  0
 16  6  1  0  0  0  0
 17  7  1  0  0  0  0
M  END
>  <DRUGBANK_ID>
DB17192

>  <COMMON_NAME>
WP-1122

>  <UNII>
54EAA28C5Y

>  <SYNONYMS>
3,6-di-O-acetyl-2-deoxy-D-glucopyranose; an acetic acid diester of 2-deoxy-D-glucose

$$$$
