
 OpenBabel10282417133D

 37 39  0  0  1  0  0  0  0  0999 V2000
    1.2898    0.1867   -0.0776 C   0  0  0  0  0  0  0  0  0  0  0  0
    2.7996    7.5151   -0.9479 C   0  0  0  0  0  0  0  0  0  0  0  0
    0.5997    1.4171    0.6580 C   0  0  2  0  0  0  0  0  0  0  0  0
    2.8292    5.6454    0.2395 C   0  0  0  0  0  0  0  0  0  0  0  0
    2.4655    4.4600    0.8016 C   0  0  0  0  0  0  0  0  0  0  0  0
    4.1534    5.9245    0.6839 C   0  0  0  0  0  0  0  0  0  0  0  0
   -0.0983    2.2453   -0.3645 C   0  0  2  0  0  0  0  0  0  0  0  0
    0.8155    3.3877   -0.6972 C   0  0  2  0  0  0  0  0  0  0  0  0
    1.2396    3.6760    0.7236 C   0  0  1  0  0  0  0  0  0  0  0  0
    4.7804    7.1182    0.2659 C   0  0  0  0  0  0  0  0  0  0  0  0
    6.0330    7.4967    0.6790 N   0  0  0  0  0  0  0  0  0  0  0  0
    2.0868    6.4227   -0.5738 N   0  0  0  0  0  0  0  0  0  0  0  0
    4.0589    7.9068   -0.5783 N   0  0  0  0  0  0  0  0  0  0  0  0
    3.5516    4.0614    1.5193 N   0  0  0  0  0  0  0  0  0  0  0  0
    4.5816    4.9258    1.4917 N   0  0  0  0  0  0  0  0  0  0  0  0
   -1.4747    2.5147   -0.2371 O   0  0  0  0  0  0  0  0  0  0  0  0
    0.1636    4.3965   -1.4375 O   0  0  0  0  0  0  0  0  0  0  0  0
    0.7067   -0.4660   -3.8930 O   0  0  0  0  0  0  0  0  0  0  0  0
   -0.4323    1.4749   -3.0855 O   0  0  0  0  0  0  0  0  0  0  0  0
    2.1865    1.4826   -3.0249 O   0  0  0  0  0  0  0  0  0  0  0  0
    0.8619   -0.1680   -1.4345 O   0  0  0  0  0  0  0  0  0  0  0  0
    1.5061    2.3526    1.2989 O   0  0  0  0  0  0  0  0  0  0  0  0
    0.9369    0.6802   -2.8171 P   0  0  0  0  0  0  0  0  0  0  0  0
   -0.0901    1.0505    1.4269 H   0  0  0  0  0  0  0  0  0  0  0  0
   -0.1327    1.5718   -1.1360 H   0  0  0  0  0  0  0  0  0  0  0  0
    1.7004    3.0716   -1.2652 H   0  0  0  0  0  0  0  0  0  0  0  0
    0.4302    4.1706    1.2753 H   0  0  0  0  0  0  0  0  0  0  0  0
    0.9499   -0.6907    0.4959 H   0  0  0  0  0  0  0  0  0  0  0  0
    2.3816    0.1721    0.0228 H   0  0  0  0  0  0  0  0  0  0  0  0
    2.2908    8.1826   -1.6413 H   0  0  0  0  0  0  0  0  0  0  0  0
    6.5267    6.8785    1.3082 H   0  0  0  0  0  0  0  0  0  0  0  0
    6.4119    8.3675    0.3507 H   0  0  0  0  0  0  0  0  0  0  0  0
    3.6356    3.1990    2.0492 H   0  0  0  0  0  0  0  0  0  0  0  0
   -1.6191    3.2349    0.3895 H   0  0  0  0  0  0  0  0  0  0  0  0
   -0.7405    4.5152   -1.1142 H   0  0  0  0  0  0  0  0  0  0  0  0
    1.5459   -0.7827   -4.2560 H   0  0  0  0  0  0  0  0  0  0  0  0
   -1.1414    1.5863   -2.4156 H   0  0  0  0  0  0  0  0  0  0  0  0
  1 28  1  0  0  0  0
  1 29  1  0  0  0  0
  2 30  1  0  0  0  0
  3  1  1  0  0  0  0
  3 24  1  1  0  0  0
  5  4  2  0  0  0  0
  6  4  1  0  0  0  0
  7  3  1  0  0  0  0
  7 16  1  0  0  0  0
  7 25  1  6  0  0  0
  8  7  1  0  0  0  0
  8 17  1  0  0  0  0
  8 26  1  6  0  0  0
  9  8  1  0  0  0  0
  9 27  1  1  0  0  0
  9  5  1  0  0  0  0
 10  6  1  0  0  0  0
 11 10  1  0  0  0  0
 11 31  1  0  0  0  0
 11 32  1  0  0  0  0
 12  2  2  0  0  0  0
 12  4  1  0  0  0  0
 13  2  1  0  0  0  0
 13 10  2  0  0  0  0
 14  5  1  0  0  0  0
 14 33  1  0  0  0  0
 15  6  2  0  0  0  0
 15 14  1  0  0  0  0
 16 34  1  0  0  0  0
 17 35  1  0  0  0  0
 18 36  1  0  0  0  0
 19 37  1  0  0  0  0
 21  1  1  0  0  0  0
 22  3  1  0  0  0  0
 22  9  1  0  0  0  0
 23 18  1  0  0  0  0
 23 19  1  0  0  0  0
 23 20  2  0  0  0  0
 23 21  1  0  0  0  0
M  END
>  <DRUGBANK_ID>
DB03464

>  <SECONDARY_ACCESSION_NUMBERS>
EXPT01459

>  <COMMON_NAME>
Formycin-5'-Monophosphate

$$$$
