
 OpenBabel10282417233D

 54 56  0  0  1  0  0  0  0  0999 V2000
    1.0172   -0.0688    0.0577 C   0  0  0  0  0  0  0  0  0  0  0  0
    0.4375   -1.3940    0.2043 N   0  0  0  0  0  0  0  0  0  0  0  0
   -0.3276   -1.7267    1.4183 C   0  0  0  0  0  0  0  0  0  0  0  0
   -1.7083   -2.2674    1.1092 C   0  0  0  0  0  0  0  0  0  0  0  0
   -1.9056   -3.6536    1.0433 C   0  0  0  0  0  0  0  0  0  0  0  0
   -3.0224   -4.2227    0.5266 N   0  0  0  0  0  0  0  0  0  0  0  0
   -3.9697   -3.3602    0.0945 C   0  0  0  0  0  0  0  0  0  0  0  0
   -5.1302   -3.9612   -0.4037 N   0  0  0  0  0  0  0  0  0  0  0  0
   -6.1013   -3.1886   -0.7622 C   0  0  0  0  0  0  0  0  0  0  0  0
   -7.2543   -3.7181   -1.2150 N   0  0  0  0  0  0  0  0  0  0  0  0
   -6.0213   -1.8280   -0.6992 N   0  0  0  0  0  0  0  0  0  0  0  0
   -4.9129   -1.1419   -0.2527 C   0  0  0  0  0  0  0  0  0  0  0  0
   -4.8976    0.0837   -0.2157 O   0  0  0  0  0  0  0  0  0  0  0  0
   -3.7857   -1.9846    0.1888 C   0  0  0  0  0  0  0  0  0  0  0  0
   -2.6649   -1.3977    0.6893 N   0  0  0  0  0  0  0  0  0  0  0  0
    0.7731   -2.3658   -0.7129 C   0  0  0  0  0  0  0  0  0  0  0  0
    2.0832   -2.5860   -1.0516 C   0  0  0  0  0  0  0  0  0  0  0  0
    2.4136   -3.6872   -1.8246 C   0  0  0  0  0  0  0  0  0  0  0  0
    1.4801   -4.5136   -2.4620 C   0  0  0  0  0  0  0  0  0  0  0  0
    0.1630   -4.3249   -2.0911 C   0  0  0  0  0  0  0  0  0  0  0  0
   -0.1658   -3.2239   -1.2985 C   0  0  0  0  0  0  0  0  0  0  0  0
    1.7488   -5.5172   -3.5481 C   0  0  0  0  0  0  0  0  0  0  0  0
    0.8340   -6.2346   -3.9540 O   0  0  0  0  0  0  0  0  0  0  0  0
    2.9682   -5.6281   -4.1714 N   0  0  0  0  0  0  0  0  0  0  0  0
    4.1870   -4.8457   -4.0238 C   0  0  1  0  0  0  0  0  0  0  0  0
    5.3010   -5.7017   -3.4129 C   0  0  0  0  0  0  0  0  0  0  0  0
    5.8560   -6.7461   -4.3654 C   0  0  0  0  0  0  0  0  0  0  0  0
    6.4682   -6.1727   -5.6210 C   0  0  0  0  0  0  0  0  0  0  0  0
    7.8086   -6.0436   -5.6011 O   0  0  0  0  0  0  0  0  0  0  0  0
    5.8216   -5.8678   -6.5905 O   0  0  0  0  0  0  0  0  0  0  0  0
    4.4211   -3.7729   -5.1118 C   0  0  0  0  0  0  0  0  0  0  0  0
    4.7154   -2.5349   -4.6172 O   0  0  0  0  0  0  0  0  0  0  0  0
    4.2541   -3.9248   -6.3016 O   0  0  0  0  0  0  0  0  0  0  0  0
    0.6814    0.6110    0.8447 H   0  0  0  0  0  0  0  0  0  0  0  0
    0.7002    0.3492   -0.9033 H   0  0  0  0  0  0  0  0  0  0  0  0
    2.1139   -0.0713    0.0847 H   0  0  0  0  0  0  0  0  0  0  0  0
    0.2276   -2.4482    2.0341 H   0  0  0  0  0  0  0  0  0  0  0  0
   -0.4525   -0.8355    2.0436 H   0  0  0  0  0  0  0  0  0  0  0  0
   -1.0991   -4.3495    1.2645 H   0  0  0  0  0  0  0  0  0  0  0  0
   -8.0598   -3.1811   -1.4942 H   0  0  0  0  0  0  0  0  0  0  0  0
   -7.3147   -4.7293   -1.2557 H   0  0  0  0  0  0  0  0  0  0  0  0
   -6.8010   -1.2568   -0.9830 H   0  0  0  0  0  0  0  0  0  0  0  0
    2.8944   -1.9760   -0.6673 H   0  0  0  0  0  0  0  0  0  0  0  0
    3.4675   -3.8676   -1.7593 H   0  0  0  0  0  0  0  0  0  0  0  0
   -0.6289   -5.0056   -2.4029 H   0  0  0  0  0  0  0  0  0  0  0  0
   -1.2215   -3.0244   -1.1930 H   0  0  0  0  0  0  0  0  0  0  0  0
    2.9395   -6.2667   -4.9632 H   0  0  0  0  0  0  0  0  0  0  0  0
    4.0192   -4.1712   -3.2375 H   0  0  0  0  0  0  0  0  0  0  0  0
    6.0902   -5.0702   -2.9873 H   0  0  0  0  0  0  0  0  0  0  0  0
    4.8781   -6.2427   -2.5416 H   0  0  0  0  0  0  0  0  0  0  0  0
    6.5762   -7.3858   -3.8488 H   0  0  0  0  0  0  0  0  0  0  0  0
    5.0389   -7.4017   -4.6848 H   0  0  0  0  0  0  0  0  0  0  0  0
    8.2602   -6.7003   -5.0465 H   0  0  0  0  0  0  0  0  0  0  0  0
    4.2263   -2.2828   -3.8105 H   0  0  0  0  0  0  0  0  0  0  0  0
  1  2  1  0  0  0  0
  1 34  1  0  0  0  0
  1 35  1  0  0  0  0
  1 36  1  0  0  0  0
  2  3  1  0  0  0  0
  2 16  1  0  0  0  0
  3  4  1  0  0  0  0
  3 37  1  0  0  0  0
  3 38  1  0  0  0  0
  4  5  2  0  0  0  0
  4 15  1  0  0  0  0
  5  6  1  0  0  0  0
  5 39  1  0  0  0  0
  6  7  2  0  0  0  0
  7  8  1  0  0  0  0
  7 14  1  0  0  0  0
  8  9  2  0  0  0  0
  9 10  1  0  0  0  0
  9 11  1  0  0  0  0
 10 40  1  0  0  0  0
 10 41  1  0  0  0  0
 11 12  1  0  0  0  0
 11 42  1  0  0  0  0
 12 13  2  0  0  0  0
 12 14  1  0  0  0  0
 14 15  2  0  0  0  0
 16 17  2  0  0  0  0
 16 21  1  0  0  0  0
 17 18  1  0  0  0  0
 17 43  1  0  0  0  0
 18 19  2  0  0  0  0
 18 44  1  0  0  0  0
 19 20  1  0  0  0  0
 19 22  1  0  0  0  0
 20 21  2  0  0  0  0
 20 45  1  0  0  0  0
 21 46  1  0  0  0  0
 22 23  2  0  0  0  0
 22 24  1  0  0  0  0
 24 47  1  0  0  0  0
 25 24  1  0  0  0  0
 25 26  1  0  0  0  0
 25 31  1  0  0  0  0
 25 48  1  1  0  0  0
 26 27  1  0  0  0  0
 26 49  1  0  0  0  0
 26 50  1  0  0  0  0
 27 28  1  0  0  0  0
 27 51  1  0  0  0  0
 27 52  1  0  0  0  0
 28 29  1  0  0  0  0
 28 30  2  0  0  0  0
 29 53  1  0  0  0  0
 31 32  1  0  0  0  0
 31 33  2  0  0  0  0
 32 54  1  0  0  0  0
M  END
>  <DRUGBANK_ID>
DB16620

>  <COMMON_NAME>
Methopterin

>  <CAS_NUMBER>
2410-93-7

>  <UNII>
9TJY624421

>  <SYNONYMS>
10-methylfolic acid; 10-methylpteroylglutamic acid; alpha-Methopterin; Methopterine; Methotrexate related compound C; N10-methylfolic acid; N10-methylpteroylglutamic acid

$$$$
