
 OpenBabel10282417133D

 45 47  0  0  0  0  0  0  0  0999 V2000
    0.9356    0.1004    0.2326 C   0  0  0  0  0  0  0  0  0  0  0  0
    0.5725    1.5505    0.0069 C   0  0  0  0  0  0  0  0  0  0  0  0
    1.0552    2.1056   -1.3024 C   0  0  0  0  0  0  0  0  0  0  0  0
    1.5740    1.5745   -2.4868 C   0  0  0  0  0  0  0  0  0  0  0  0
    1.9366    0.1819   -2.7776 C   0  0  0  0  0  0  0  0  0  0  0  0
    1.9866   -0.7581   -1.9843 O   0  0  0  0  0  0  0  0  0  0  0  0
    2.3486   -0.2353   -4.1101 C   0  0  0  0  0  0  0  0  0  0  0  0
    3.6040    0.1482   -4.5837 C   0  0  0  0  0  0  0  0  0  0  0  0
    3.9955   -0.2748   -5.8462 C   0  0  0  0  0  0  0  0  0  0  0  0
    5.6219    0.3901   -6.5505 Br  0  0  0  0  0  0  0  0  0  0  0  0
    3.1761   -1.1327   -6.5909 C   0  0  0  0  0  0  0  0  0  0  0  0
    3.5631   -1.5574   -7.8330 O   0  0  0  0  0  0  0  0  0  0  0  0
    1.9492   -1.5621   -6.0708 C   0  0  0  0  0  0  0  0  0  0  0  0
    0.8167   -2.7414   -7.0288 Br  0  0  0  0  0  0  0  0  0  0  0  0
    1.5292   -1.1157   -4.8223 C   0  0  0  0  0  0  0  0  0  0  0  0
    1.6660    2.6996   -3.3797 C   0  0  0  0  0  0  0  0  0  0  0  0
    1.2818    3.8342   -2.6768 C   0  0  0  0  0  0  0  0  0  0  0  0
    0.9154    3.4718   -1.4151 O   0  0  0  0  0  0  0  0  0  0  0  0
    1.2536    5.1257   -3.2313 C   0  0  0  0  0  0  0  0  0  0  0  0
    1.6758    5.2411   -4.5725 C   0  0  0  0  0  0  0  0  0  0  0  0
    2.1357    4.1369   -5.2715 C   0  0  0  0  0  0  0  0  0  0  0  0
    2.0513    2.8708   -4.7170 C   0  0  0  0  0  0  0  0  0  0  0  0
    1.5465    6.8111   -5.4038 S   0  0  0  0  0  0  0  0  0  0  0  0
    0.1505    7.1949   -5.3782 O   0  0  0  0  0  0  0  0  0  0  0  0
    2.5756    7.6567   -4.8388 O   0  0  0  0  0  0  0  0  0  0  0  0
    1.9481    6.5460   -7.0723 N   0  0  0  0  0  0  0  0  0  0  0  0
    1.0370    5.6494   -7.8365 C   0  0  0  0  0  0  0  0  0  0  0  0
    2.0439    7.8447   -7.8064 C   0  0  0  0  0  0  0  0  0  0  0  0
    0.4135   -0.5154   -0.5077 H   0  0  0  0  0  0  0  0  0  0  0  0
    0.6260   -0.2830    1.2047 H   0  0  0  0  0  0  0  0  0  0  0  0
    2.0220   -0.0311    0.1618 H   0  0  0  0  0  0  0  0  0  0  0  0
   -0.5208    1.6350    0.0343 H   0  0  0  0  0  0  0  0  0  0  0  0
    0.9622    2.1459    0.8406 H   0  0  0  0  0  0  0  0  0  0  0  0
    4.2288    0.8115   -3.9888 H   0  0  0  0  0  0  0  0  0  0  0  0
    4.4505   -1.1971   -8.0119 H   0  0  0  0  0  0  0  0  0  0  0  0
    0.5906   -1.4584   -4.3894 H   0  0  0  0  0  0  0  0  0  0  0  0
    0.9268    5.9865   -2.6564 H   0  0  0  0  0  0  0  0  0  0  0  0
    2.5468    4.2093   -6.2711 H   0  0  0  0  0  0  0  0  0  0  0  0
    2.2944    2.0430   -5.3642 H   0  0  0  0  0  0  0  0  0  0  0  0
    0.0287    6.0610   -7.8864 H   0  0  0  0  0  0  0  0  0  0  0  0
    1.4285    5.5274   -8.8538 H   0  0  0  0  0  0  0  0  0  0  0  0
    0.9751    4.6429   -7.4287 H   0  0  0  0  0  0  0  0  0  0  0  0
    1.0589    8.3221   -7.8532 H   0  0  0  0  0  0  0  0  0  0  0  0
    2.7603    8.5229   -7.3372 H   0  0  0  0  0  0  0  0  0  0  0  0
    2.3839    7.6691   -8.8334 H   0  0  0  0  0  0  0  0  0  0  0  0
  1  2  1  0  0  0  0
  1 29  1  0  0  0  0
  1 30  1  0  0  0  0
  1 31  1  0  0  0  0
  2  3  1  0  0  0  0
  2 32  1  0  0  0  0
  2 33  1  0  0  0  0
  3  4  2  0  0  0  0
  3 18  1  0  0  0  0
  4  5  1  0  0  0  0
  4 16  1  0  0  0  0
  5  6  2  0  0  0  0
  5  7  1  0  0  0  0
  7  8  2  0  0  0  0
  7 15  1  0  0  0  0
  8  9  1  0  0  0  0
  8 34  1  0  0  0  0
  9 10  1  0  0  0  0
  9 11  2  0  0  0  0
 11 12  1  0  0  0  0
 11 13  1  0  0  0  0
 12 35  1  0  0  0  0
 13 14  1  0  0  0  0
 13 15  2  0  0  0  0
 15 36  1  0  0  0  0
 16 17  2  0  0  0  0
 16 22  1  0  0  0  0
 17 18  1  0  0  0  0
 17 19  1  0  0  0  0
 19 20  2  0  0  0  0
 19 37  1  0  0  0  0
 20 21  1  0  0  0  0
 20 23  1  0  0  0  0
 21 22  2  0  0  0  0
 21 38  1  0  0  0  0
 22 39  1  0  0  0  0
 23 24  2  0  0  0  0
 23 25  2  0  0  0  0
 23 26  1  0  0  0  0
 26 27  1  0  0  0  0
 26 28  1  0  0  0  0
 27 40  1  0  0  0  0
 27 41  1  0  0  0  0
 27 42  1  0  0  0  0
 28 43  1  0  0  0  0
 28 44  1  0  0  0  0
 28 45  1  0  0  0  0
M  END
>  <DRUGBANK_ID>
DB04142

>  <SECONDARY_ACCESSION_NUMBERS>
EXPT00631

>  <COMMON_NAME>
3-(3,5-Dibromo-4-Hydroxy-Benzoyl)-2-Ethyl-Benzofuran-6-Sulfonic Acid Dimethylamide

$$$$
