
 OpenBabel10282417123D

 65 69  0  0  1  0  0  0  0  0999 V2000
    1.4463   -0.1754    0.0186 C   0  0  0  0  0  0  0  0  0  0  0  0
    0.6052   -1.2733    0.0210 C   0  0  0  0  0  0  0  0  0  0  0  0
    0.9029    1.1082    0.0064 C   0  0  0  0  0  0  0  0  0  0  0  0
   -6.4360   -8.0895   -0.0237 C   0  0  0  0  0  0  0  0  0  0  0  0
   -6.2816   -6.7765    0.4505 C   0  0  0  0  0  0  0  0  0  0  0  0
   -0.7704   -1.0807   -0.0125 C   0  0  0  0  0  0  0  0  0  0  0  0
   -0.4848    1.2958    0.0268 C   0  0  0  0  0  0  0  0  0  0  0  0
   -7.6975   -8.6261   -0.2743 C   0  0  0  0  0  0  0  0  0  0  0  0
   -7.3697   -6.0344    0.9035 C   0  0  0  0  0  0  0  0  0  0  0  0
   -5.5241   -3.9427   -1.4419 C   0  0  0  0  0  0  0  0  0  0  0  0
   -6.7259   -2.2692   -0.2347 C   0  0  0  0  0  0  0  0  0  0  0  0
   -6.7428   -4.5142   -1.8563 C   0  0  0  0  0  0  0  0  0  0  0  0
   -7.9586   -2.8094   -0.6715 C   0  0  0  0  0  0  0  0  0  0  0  0
   -3.6999   -0.1778    0.9539 C   0  0  0  0  0  0  0  0  0  0  0  0
   -3.3815   -0.0870   -1.5511 C   0  0  0  0  0  0  0  0  0  0  0  0
   -3.8682   -1.6936    0.8715 C   0  0  0  0  0  0  0  0  0  0  0  0
   -3.5335   -1.6119   -1.6187 C   0  0  0  0  0  0  0  0  0  0  0  0
  -11.2450   -7.2474   -1.2877 C   0  0  0  0  0  0  0  0  0  0  0  0
  -10.4826   -7.7498    1.0003 C   0  0  0  0  0  0  0  0  0  0  0  0
   -1.3517    0.1963   -0.0321 C   0  0  0  0  0  0  0  0  0  0  0  0
   -2.8559    0.4116   -0.1894 C   0  0  3  0  0  0  0  0  0  0  0  0
  -10.1732   -7.8446   -0.3320 C   0  0  0  0  0  0  0  0  0  0  0  0
   -5.4925   -2.7646   -0.6871 C   0  0  0  0  0  0  0  0  0  0  0  0
   -7.9701   -3.9095   -1.5232 C   0  0  0  0  0  0  0  0  0  0  0  0
   -8.7693   -7.7533   -0.1307 C   0  0  0  0  0  0  0  0  0  0  0  0
   -8.5635   -6.7214    0.7992 C   0  0  0  0  0  0  0  0  0  0  0  0
  -11.7798   -5.8296   -0.7582 C   0  0  1  0  0  0  0  0  0  0  0  0
  -12.8547   -5.8635    0.6024 C   0  0  0  0  0  0  0  0  0  0  0  0
   -9.7979   -6.5836    1.3821 N   0  0  0  0  0  0  0  0  0  0  0  0
  -10.4957   -4.8815   -0.7044 N   0  0  0  0  0  0  0  0  0  0  0  0
   -4.2929   -2.1117   -0.4611 N   0  0  0  0  0  0  0  0  0  0  0  0
  -13.9597   -5.4073    0.6204 O   0  0  0  0  0  0  0  0  0  0  0  0
  -12.4185   -6.4419    1.7680 O   0  0  0  0  0  0  0  0  0  0  0  0
  -10.2009   -3.6298   -2.9517 O   0  0  0  0  0  0  0  0  0  0  0  0
   -9.1435   -5.8985   -2.6693 O   0  0  0  0  0  0  0  0  0  0  0  0
   -9.5346   -4.5933   -2.1427 S   0  0  0  0  0  0  0  0  0  0  0  0
  -12.4356   -5.3711   -1.5102 H   0  0  0  0  0  0  0  0  0  0  0  0
    2.5207   -0.3260    0.0280 H   0  0  0  0  0  0  0  0  0  0  0  0
    0.9976   -2.2863    0.0228 H   0  0  0  0  0  0  0  0  0  0  0  0
    1.5654    1.9680   -0.0344 H   0  0  0  0  0  0  0  0  0  0  0  0
   -5.5684   -8.6937   -0.2537 H   0  0  0  0  0  0  0  0  0  0  0  0
   -5.2932   -6.3315    0.4950 H   0  0  0  0  0  0  0  0  0  0  0  0
   -1.3587   -1.9858   -0.0456 H   0  0  0  0  0  0  0  0  0  0  0  0
   -0.8751    2.3107    0.0724 H   0  0  0  0  0  0  0  0  0  0  0  0
   -7.8713   -9.6519   -0.5736 H   0  0  0  0  0  0  0  0  0  0  0  0
   -7.2862   -5.0256    1.2973 H   0  0  0  0  0  0  0  0  0  0  0  0
   -4.5863   -4.4450   -1.6827 H   0  0  0  0  0  0  0  0  0  0  0  0
   -6.7425   -1.4104    0.4309 H   0  0  0  0  0  0  0  0  0  0  0  0
   -6.7048   -5.4583   -2.4002 H   0  0  0  0  0  0  0  0  0  0  0  0
   -8.8919   -2.3571   -0.3534 H   0  0  0  0  0  0  0  0  0  0  0  0
   -3.2678    0.0996    1.9227 H   0  0  0  0  0  0  0  0  0  0  0  0
   -4.6993    0.2760    0.9120 H   0  0  0  0  0  0  0  0  0  0  0  0
   -4.3674    0.3644   -1.7300 H   0  0  0  0  0  0  0  0  0  0  0  0
   -2.7310    0.2649   -2.3629 H   0  0  0  0  0  0  0  0  0  0  0  0
   -2.9213   -2.1857    1.1044 H   0  0  0  0  0  0  0  0  0  0  0  0
   -4.5432   -2.0490    1.6562 H   0  0  0  0  0  0  0  0  0  0  0  0
   -3.9935   -1.8830   -2.5766 H   0  0  0  0  0  0  0  0  0  0  0  0
   -2.5521   -2.0900   -1.6469 H   0  0  0  0  0  0  0  0  0  0  0  0
  -12.0801   -7.9498   -1.3914 H   0  0  0  0  0  0  0  0  0  0  0  0
  -10.8599   -7.1595   -2.3098 H   0  0  0  0  0  0  0  0  0  0  0  0
  -11.4705   -8.0119    1.2988 H   0  0  0  0  0  0  0  0  0  0  0  0
   -3.0246    1.5003   -0.1702 H   0  0  0  0  0  0  0  0  0  0  0  0
  -10.1925   -5.6679    1.6228 H   0  0  0  0  0  0  0  0  0  0  0  0
   -9.7868   -5.5094   -0.3603 H   0  0  0  0  0  0  0  0  0  0  0  0
  -13.0428   -6.8101    2.4445 H   0  0  0  0  0  0  0  0  0  0  0  0
  1 38  1  0  0  0  0
  2  1  2  0  0  0  0
  2 39  1  0  0  0  0
  3  1  1  0  0  0  0
  3 40  1  0  0  0  0
  4 41  1  0  0  0  0
  5  4  2  0  0  0  0
  5 42  1  0  0  0  0
  6  2  1  0  0  0  0
  6 43  1  0  0  0  0
  7  3  2  0  0  0  0
  7 44  1  0  0  0  0
  8  4  1  0  0  0  0
  8 45  1  0  0  0  0
  9  5  1  0  0  0  0
  9 46  1  0  0  0  0
 10 47  1  0  0  0  0
 11 48  1  0  0  0  0
 12 10  1  0  0  0  0
 12 49  1  0  0  0  0
 13 11  2  0  0  0  0
 13 50  1  0  0  0  0
 14 51  1  0  0  0  0
 14 52  1  0  0  0  0
 15 53  1  0  0  0  0
 15 54  1  0  0  0  0
 16 14  1  0  0  0  0
 16 55  1  0  0  0  0
 16 56  1  0  0  0  0
 17 15  1  0  0  0  0
 17 57  1  0  0  0  0
 17 58  1  0  0  0  0
 18 59  1  0  0  0  0
 18 60  1  0  0  0  0
 19 61  1  0  0  0  0
 20  6  2  0  0  0  0
 20  7  1  0  0  0  0
 21 14  1  0  0  0  0
 21 15  1  0  0  0  0
 21 20  1  0  0  0  0
 21 62  1  0  0  0  0
 22 18  1  0  0  0  0
 22 19  2  0  0  0  0
 23 10  2  0  0  0  0
 23 11  1  0  0  0  0
 24 12  2  0  0  0  0
 24 13  1  0  0  0  0
 25  8  2  0  0  0  0
 25 22  1  0  0  0  0
 26  9  2  0  0  0  0
 26 25  1  0  0  0  0
 27 18  1  0  0  0  0
 27 30  1  0  0  0  0
 27 37  1  6  0  0  0
 28 27  1  0  0  0  0
 29 19  1  0  0  0  0
 29 26  1  0  0  0  0
 29 63  1  0  0  0  0
 30 64  1  0  0  0  0
 31 16  1  0  0  0  0
 31 17  1  0  0  0  0
 31 23  1  0  0  0  0
 32 28  2  0  0  0  0
 33 28  1  0  0  0  0
 33 65  1  0  0  0  0
 36 24  1  0  0  0  0
 36 30  1  0  0  0  0
 36 34  2  0  0  0  0
 36 35  2  0  0  0  0
M  END
>  <DRUGBANK_ID>
DB02449

>  <SECONDARY_ACCESSION_NUMBERS>
EXPT01260

>  <COMMON_NAME>
3-(1h-Indol-3-Yl)-2-[4-(4-Phenyl-Piperidin-1-Yl)-Benzenesulfonylamino]-Propionic Acid

$$$$
