
 OpenBabel10282417183D

 38 41  0  0  0  0  0  0  0  0999 V2000
    2.2438   -0.7946   -0.7609 C   0  0  0  0  0  0  0  0  0  0  0  0
    2.2312    0.6223   -0.8045 C   0  0  0  0  0  0  0  0  0  0  0  0
    1.1303    1.3889   -0.3745 C   0  0  0  0  0  0  0  0  0  0  0  0
   -0.0700    0.6603   -0.1867 C   0  0  0  0  0  0  0  0  0  0  0  0
   -0.0838   -0.7850   -0.1565 C   0  0  0  0  0  0  0  0  0  0  0  0
    1.1262   -1.4994   -0.3245 C   0  0  0  0  0  0  0  0  0  0  0  0
   -1.2825    1.3536   -0.0445 C   0  0  0  0  0  0  0  0  0  0  0  0
   -2.4934    0.6779    0.0191 C   0  0  0  0  0  0  0  0  0  0  0  0
   -2.5107   -0.7069    0.0455 C   0  0  0  0  0  0  0  0  0  0  0  0
   -1.3201   -1.4273    0.0283 C   0  0  0  0  0  0  0  0  0  0  0  0
    1.2366   -2.9127   -0.0972 N   0  0  0  0  0  0  0  0  0  0  0  0
    1.8669   -3.6419    0.9201 C   0  0  0  0  0  0  0  0  0  0  0  0
    1.6993   -4.9326    0.7046 N   0  0  0  0  0  0  0  0  0  0  0  0
    0.9898   -5.1010   -0.4400 N   0  0  0  0  0  0  0  0  0  0  0  0
    0.7211   -3.9103   -0.9210 C   0  0  0  0  0  0  0  0  0  0  0  0
    2.6971   -3.2101    2.3802 S   0  0  0  0  0  0  0  0  0  0  0  0
    2.7205   -1.4610    2.5952 C   0  0  0  0  0  0  0  0  0  0  0  0
    3.7047   -0.7530    1.7069 C   0  0  0  0  0  0  0  0  0  0  0  0
    3.2765    0.5245    1.5529 O   0  0  0  0  0  0  0  0  0  0  0  0
    4.7242   -1.1662    1.2146 O   0  0  0  0  0  0  0  0  0  0  0  0
   -0.2030   -3.7109   -2.5386 Br  0  0  0  0  0  0  0  0  0  0  0  0
    1.2667    2.8880    0.0258 C   0  0  0  0  0  0  0  0  0  0  0  0
    1.8672    3.8897   -0.9234 C   0  0  0  0  0  0  0  0  0  0  0  0
    2.6062    3.5367    0.3374 C   0  0  0  0  0  0  0  0  0  0  0  0
    3.1970   -1.3026   -0.9172 H   0  0  0  0  0  0  0  0  0  0  0  0
    3.1959    1.1228   -0.9228 H   0  0  0  0  0  0  0  0  0  0  0  0
   -1.3223    2.4410   -0.0750 H   0  0  0  0  0  0  0  0  0  0  0  0
   -3.4224    1.2405    0.0132 H   0  0  0  0  0  0  0  0  0  0  0  0
   -3.4570   -1.2389    0.0452 H   0  0  0  0  0  0  0  0  0  0  0  0
   -1.3993   -2.5097    0.0774 H   0  0  0  0  0  0  0  0  0  0  0  0
    1.7044   -1.0768    2.4802 H   0  0  0  0  0  0  0  0  0  0  0  0
    3.0587   -1.1790    3.5983 H   0  0  0  0  0  0  0  0  0  0  0  0
    2.2940    0.5152    1.5056 H   0  0  0  0  0  0  0  0  0  0  0  0
    0.4782    3.2732    0.6769 H   0  0  0  0  0  0  0  0  0  0  0  0
    2.2474    3.5324   -1.8712 H   0  0  0  0  0  0  0  0  0  0  0  0
    1.3979    4.8673   -0.9845 H   0  0  0  0  0  0  0  0  0  0  0  0
    2.6690    4.3005    1.1113 H   0  0  0  0  0  0  0  0  0  0  0  0
    3.5211    2.9598    0.2822 H   0  0  0  0  0  0  0  0  0  0  0  0
  1  2  1  0  0  0  0
  1  6  2  0  0  0  0
  1 25  1  0  0  0  0
  2  3  2  0  0  0  0
  2 26  1  0  0  0  0
  3  4  1  0  0  0  0
  3 22  1  0  0  0  0
  4  5  2  0  0  0  0
  4  7  1  0  0  0  0
  5  6  1  0  0  0  0
  5 10  1  0  0  0  0
  6 11  1  0  0  0  0
  7  8  2  0  0  0  0
  7 27  1  0  0  0  0
  8  9  1  0  0  0  0
  8 28  1  0  0  0  0
  9 10  2  0  0  0  0
  9 29  1  0  0  0  0
 10 30  1  0  0  0  0
 11 12  1  0  0  0  0
 11 15  1  0  0  0  0
 12 13  2  0  0  0  0
 12 16  1  0  0  0  0
 13 14  1  0  0  0  0
 14 15  2  0  0  0  0
 15 21  1  0  0  0  0
 16 17  1  0  0  0  0
 17 18  1  0  0  0  0
 17 31  1  0  0  0  0
 17 32  1  0  0  0  0
 18 19  1  0  0  0  0
 18 20  2  0  0  0  0
 19 33  1  0  0  0  0
 22 23  1  0  0  0  0
 22 24  1  0  0  0  0
 22 34  1  0  0  0  0
 23 24  1  0  0  0  0
 23 35  1  0  0  0  0
 23 36  1  0  0  0  0
 24 37  1  0  0  0  0
 24 38  1  0  0  0  0
M  END
>  <DRUGBANK_ID>
DB11560

>  <COMMON_NAME>
Lesinurad

>  <CAS_NUMBER>
878672-00-5

>  <UNII>
09ERP08I3W

>  <SYNONYMS>
{[5-bromo-4-(4-cyclopropylnaphthalen-1-yl)-4H-1,2,4-triazol-3-yl]sulfanyl}acetic acid; Lesinurad

$$$$
