
 OpenBabel10282417203D

 79 83  0  0  1  0  0  0  0  0999 V2000
    1.0197   -0.0929    0.0823 C   0  0  0  0  0  0  0  0  0  0  0  0
    0.4644   -0.4134    1.3757 N   0  0  0  0  0  0  0  0  0  0  0  0
   -0.3171    0.4169    2.1529 C   0  0  0  0  0  0  0  0  0  0  0  0
   -0.6994    0.0725    3.2692 O   0  0  0  0  0  0  0  0  0  0  0  0
   -0.6658    1.7767    1.6553 C   0  0  0  0  0  0  0  0  0  0  0  0
   -1.1836    1.9718    0.3600 C   0  0  0  0  0  0  0  0  0  0  0  0
   -1.5267    3.2381   -0.1152 C   0  0  0  0  0  0  0  0  0  0  0  0
   -1.4271    4.3250    0.7183 C   0  0  0  0  0  0  0  0  0  0  0  0
   -1.0033    4.1186    2.0165 C   0  0  0  0  0  0  0  0  0  0  0  0
   -0.5196    2.8793    2.4929 C   0  0  0  0  0  0  0  0  0  0  0  0
    0.1609    2.8252    3.7218 N   0  0  0  0  0  0  0  0  0  0  0  0
    0.2669    3.8760    4.6381 C   0  0  0  0  0  0  0  0  0  0  0  0
   -0.8759    4.5217    5.1123 C   0  0  0  0  0  0  0  0  0  0  0  0
   -0.6945    5.5902    5.9405 C   0  0  0  0  0  0  0  0  0  0  0  0
    0.5056    5.9772    6.3413 N   0  0  0  0  0  0  0  0  0  0  0  0
    1.5349    5.2260    5.9324 C   0  0  0  0  0  0  0  0  0  0  0  0
    1.4926    4.2429    5.0274 N   0  0  0  0  0  0  0  0  0  0  0  0
    2.7222    5.3807    6.5803 N   0  0  0  0  0  0  0  0  0  0  0  0
    3.0823    6.1880    7.6406 C   0  0  0  0  0  0  0  0  0  0  0  0
    2.2949    6.6192    8.6794 C   0  0  0  0  0  0  0  0  0  0  0  0
    2.7711    7.5657    9.5911 C   0  0  0  0  0  0  0  0  0  0  0  0
    4.1361    8.0585    9.4683 C   0  0  0  0  0  0  0  0  0  0  0  0
    5.1820    7.7392    8.6370 C   0  0  0  0  0  0  0  0  0  0  0  0
    4.4172    6.6738    7.5658 C   0  0  0  0  0  0  0  0  0  0  0  0
    4.6763    6.5576    5.8923 O   0  0  0  0  0  0  0  0  0  0  0  0
    3.8313    6.6648    4.5121 C   0  0  0  0  0  0  0  0  0  0  0  0
    6.4299    9.2778    8.5882 C   0  0  0  0  0  0  0  0  0  0  0  0
    7.3655    8.7359    7.6211 C   0  0  0  0  0  0  0  0  0  0  0  0
    6.6921    8.1771    6.4847 C   0  0  0  0  0  0  0  0  0  0  0  0
    5.4832    9.0074    6.5740 C   0  0  1  0  0  0  0  0  0  0  0  0
    4.3105    9.0932    8.4904 C   0  0  0  0  0  0  0  0  0  0  0  0
    5.0532   10.0212    5.2596 N   0  0  0  0  0  0  0  0  0  0  0  0
    4.8998   11.2196    5.9899 C   0  0  0  0  0  0  0  0  0  0  0  0
    4.2585   10.7521    7.1640 C   0  0  0  0  0  0  0  0  0  0  0  0
    3.0908    9.7349    7.0055 N   0  0  0  0  0  0  0  0  0  0  0  0
    3.2826    8.6211    6.1294 C   0  0  0  0  0  0  0  0  0  0  0  0
    3.8078    9.3233    4.8740 C   0  0  0  0  0  0  0  0  0  0  0  0
    1.9261   10.1014    7.7053 C   0  0  0  0  0  0  0  0  0  0  0  0
    1.7298   11.0544    6.5759 C   0  0  0  0  0  0  0  0  0  0  0  0
    1.4368   10.3104    5.4160 O   0  0  0  0  0  0  0  0  0  0  0  0
   -2.4892    4.0483    4.7439 Cl  0  0  0  0  0  0  0  0  0  0  0  0
    0.7608    0.9113   -0.2238 H   0  0  0  0  0  0  0  0  0  0  0  0
    0.6291   -0.7970   -0.6546 H   0  0  0  0  0  0  0  0  0  0  0  0
    2.1063   -0.1172    0.1140 H   0  0  0  0  0  0  0  0  0  0  0  0
    0.7005   -1.3113    1.7912 H   0  0  0  0  0  0  0  0  0  0  0  0
   -1.2613    1.1421   -0.3337 H   0  0  0  0  0  0  0  0  0  0  0  0
   -1.8983    3.3696   -1.1236 H   0  0  0  0  0  0  0  0  0  0  0  0
   -1.6647    5.3319    0.3902 H   0  0  0  0  0  0  0  0  0  0  0  0
   -1.0974    4.9790    2.6663 H   0  0  0  0  0  0  0  0  0  0  0  0
    0.5393    1.9327    4.0310 H   0  0  0  0  0  0  0  0  0  0  0  0
   -1.5259    6.1429    6.3545 H   0  0  0  0  0  0  0  0  0  0  0  0
    3.5520    5.1488    6.0442 H   0  0  0  0  0  0  0  0  0  0  0  0
    1.4173    6.0222    8.8648 H   0  0  0  0  0  0  0  0  0  0  0  0
    2.2293    7.7063   10.5294 H   0  0  0  0  0  0  0  0  0  0  0  0
    4.0860    5.6731    4.2584 H   0  0  0  0  0  0  0  0  0  0  0  0
    2.7340    6.9758    4.4607 H   0  0  0  0  0  0  0  0  0  0  0  0
    4.3225    7.1911    3.6328 H   0  0  0  0  0  0  0  0  0  0  0  0
    6.4769   10.3253    7.8142 H   0  0  0  0  0  0  0  0  0  0  0  0
    6.2586   10.2410    9.2208 H   0  0  0  0  0  0  0  0  0  0  0  0
    7.9805    9.5563    7.2328 H   0  0  0  0  0  0  0  0  0  0  0  0
    7.4667    7.9289    8.2810 H   0  0  0  0  0  0  0  0  0  0  0  0
    7.3699    7.7764    5.7045 H   0  0  0  0  0  0  0  0  0  0  0  0
    6.2782    7.1923    6.4770 H   0  0  0  0  0  0  0  0  0  0  0  0
    5.4909    8.5143    5.5195 H   0  0  0  0  0  0  0  0  0  0  0  0
    4.0256   10.3354    8.9969 H   0  0  0  0  0  0  0  0  0  0  0  0
    4.2315    9.6749    9.6511 H   0  0  0  0  0  0  0  0  0  0  0  0
    5.8937   11.5746    6.2006 H   0  0  0  0  0  0  0  0  0  0  0  0
    4.2678   12.0760    5.9839 H   0  0  0  0  0  0  0  0  0  0  0  0
    5.0565   10.2684    7.5891 H   0  0  0  0  0  0  0  0  0  0  0  0
    4.4714   11.4070    7.9875 H   0  0  0  0  0  0  0  0  0  0  0  0
    4.0560    8.0925    6.5225 H   0  0  0  0  0  0  0  0  0  0  0  0
    2.4863    7.9017    6.1202 H   0  0  0  0  0  0  0  0  0  0  0  0
    3.1457    9.9977    4.4100 H   0  0  0  0  0  0  0  0  0  0  0  0
    3.7738    8.7054    4.0085 H   0  0  0  0  0  0  0  0  0  0  0  0
    1.2998    9.2175    7.8499 H   0  0  0  0  0  0  0  0  0  0  0  0
    2.1889   10.5644    8.6612 H   0  0  0  0  0  0  0  0  0  0  0  0
    0.9907   11.7668    6.6530 H   0  0  0  0  0  0  0  0  0  0  0  0
    2.6269   11.6478    6.4085 H   0  0  0  0  0  0  0  0  0  0  0  0
    2.0255    9.6130    5.6948 H   0  0  0  0  0  0  0  0  0  0  0  0
  1  2  1  0  0  0  0
  1 42  1  0  0  0  0
  1 43  1  0  0  0  0
  1 44  1  0  0  0  0
  2  3  1  0  0  0  0
  2 45  1  0  0  0  0
  3  4  2  0  0  0  0
  3  5  1  0  0  0  0
  5  6  2  0  0  0  0
  5 10  1  0  0  0  0
  6  7  1  0  0  0  0
  6 46  1  0  0  0  0
  7  8  2  0  0  0  0
  7 47  1  0  0  0  0
  8  9  1  0  0  0  0
  8 48  1  0  0  0  0
  9 10  2  0  0  0  0
  9 49  1  0  0  0  0
 10 11  1  0  0  0  0
 11 12  1  0  0  0  0
 11 50  1  0  0  0  0
 12 13  2  0  0  0  0
 12 17  1  0  0  0  0
 13 14  1  0  0  0  0
 13 41  1  0  0  0  0
 14 15  2  0  0  0  0
 14 51  1  0  0  0  0
 15 16  1  0  0  0  0
 16 17  2  0  0  0  0
 16 18  1  0  0  0  0
 18 19  1  0  0  0  0
 18 52  1  0  0  0  0
 19 20  2  0  0  0  0
 19 24  1  0  0  0  0
 20 21  1  0  0  0  0
 20 53  1  0  0  0  0
 21 22  2  0  0  0  0
 21 54  1  0  0  0  0
 22 23  1  0  0  0  0
 22 31  1  0  0  0  0
 23 24  2  0  0  0  0
 23 27  1  0  0  0  0
 24 25  1  0  0  0  0
 25 26  1  0  0  0  0
 26 55  1  0  0  0  0
 26 56  1  0  0  0  0
 26 57  1  0  0  0  0
 27 28  1  0  0  0  0
 27 58  1  0  0  0  0
 27 59  1  0  0  0  0
 28 29  1  0  0  0  0
 28 60  1  0  0  0  0
 28 61  1  0  0  0  0
 29 30  1  0  0  0  0
 29 62  1  0  0  0  0
 29 63  1  0  0  0  0
 30 31  1  0  0  0  0
 30 64  1  6  0  0  0
 30 32  1  0  0  0  0
 31 65  1  0  0  0  0
 31 66  1  0  0  0  0
 32 33  1  0  0  0  0
 32 37  1  0  0  0  0
 33 34  1  0  0  0  0
 33 67  1  0  0  0  0
 33 68  1  0  0  0  0
 34 35  1  0  0  0  0
 34 69  1  0  0  0  0
 34 70  1  0  0  0  0
 35 36  1  0  0  0  0
 35 38  1  0  0  0  0
 36 37  1  0  0  0  0
 36 71  1  0  0  0  0
 36 72  1  0  0  0  0
 37 73  1  0  0  0  0
 37 74  1  0  0  0  0
 38 39  1  0  0  0  0
 38 75  1  0  0  0  0
 38 76  1  0  0  0  0
 39 40  1  0  0  0  0
 39 77  1  0  0  0  0
 39 78  1  0  0  0  0
 40 79  1  0  0  0  0
M  END
>  <DRUGBANK_ID>
DB13060

>  <COMMON_NAME>
CEP-37440

>  <CAS_NUMBER>
1391712-60-9

>  <UNII>
O3MNS8782H

$$$$
