38521
 OpenBabel10282417103D

 34 35  0  0  1  0  0  0  0  0999 V2000
   -0.6870   -0.0052   -1.0310 O   0  0  0  0  0  0  0  0  0  0  0  0
   -1.4424   -0.5117    1.0665 O   0  0  0  0  0  0  0  0  0  0  0  0
   -1.6618    2.2343   -2.7835 N   0  0  0  0  0  0  0  0  0  0  0  0
    0.5745    1.6808   -2.3415 N   0  0  0  0  0  0  0  0  0  0  0  0
    0.0484    2.3172   -4.3447 N   0  0  0  0  0  0  0  0  0  0  0  0
   -0.2691   -0.2253    0.3126 C   0  0  0  0  0  0  0  0  0  0  0  0
    0.6981   -1.4079    0.2743 C   0  0  0  0  0  0  0  0  0  0  0  0
    0.4541    1.0043    0.9217 C   0  0  0  0  0  0  0  0  0  0  0  0
    1.8207    1.3636    0.3234 C   0  0  0  0  0  0  0  0  0  0  0  0
    1.9748   -1.0599   -0.5018 C   0  0  0  0  0  0  0  0  0  0  0  0
    2.7055    0.1499    0.0820 C   0  0  0  0  0  0  0  0  0  0  0  0
   -2.0408    0.4689   -1.0168 C   0  0  3  0  0  0  0  0  0  0  0  0
   -2.5263    0.1445    0.3857 C   0  0  0  0  0  0  0  0  0  0  0  0
   -2.0915    1.9704   -1.3823 C   0  0  0  0  0  0  0  0  0  0  0  0
   -0.4415    2.0828   -3.1175 C   0  0  0  0  0  0  0  0  0  0  0  0
    1.3177    1.1404   -2.7511 H   0  0  0  0  0  0  0  0  0  0  0  0
    0.1878    1.1287   -1.5852 H   0  0  0  0  0  0  0  0  0  0  0  0
   -0.5578    2.7099   -5.0435 H   0  0  0  0  0  0  0  0  0  0  0  0
    1.0100    2.1205   -4.5642 H   0  0  0  0  0  0  0  0  0  0  0  0
    0.9503   -1.7247    1.2919 H   0  0  0  0  0  0  0  0  0  0  0  0
    0.2175   -2.2665   -0.2125 H   0  0  0  0  0  0  0  0  0  0  0  0
    0.6150    0.8047    1.9871 H   0  0  0  0  0  0  0  0  0  0  0  0
   -0.1908    1.8876    0.8845 H   0  0  0  0  0  0  0  0  0  0  0  0
    2.3305    2.0848    0.9719 H   0  0  0  0  0  0  0  0  0  0  0  0
    1.7437    1.9374   -0.5936 H   0  0  0  0  0  0  0  0  0  0  0  0
    1.7336   -0.8773   -1.5570 H   0  0  0  0  0  0  0  0  0  0  0  0
    2.6522   -1.9212   -0.4928 H   0  0  0  0  0  0  0  0  0  0  0  0
    3.5340    0.4275   -0.5825 H   0  0  0  0  0  0  0  0  0  0  0  0
    3.1492   -0.1321    1.0415 H   0  0  0  0  0  0  0  0  0  0  0  0
   -2.6130   -0.0881   -1.7687 H   0  0  0  0  0  0  0  0  0  0  0  0
   -2.8207    1.0322    0.9535 H   0  0  0  0  0  0  0  0  0  0  0  0
   -3.3820   -0.5389    0.3616 H   0  0  0  0  0  0  0  0  0  0  0  0
   -3.1261    2.3215   -1.2873 H   0  0  0  0  0  0  0  0  0  0  0  0
   -1.5009    2.5785   -0.6879 H   0  0  0  0  0  0  0  0  0  0  0  0
  1  6  1  0  0  0  0
  1 12  1  0  0  0  0
  2  6  1  0  0  0  0
  2 13  1  0  0  0  0
  3 14  1  0  0  0  0
  3 15  2  0  0  0  0
  4 15  1  0  0  0  0
  4 16  1  0  0  0  0
  4 17  1  0  0  0  0
  5 15  1  0  0  0  0
  5 18  1  0  0  0  0
  5 19  1  0  0  0  0
  6  7  1  0  0  0  0
  6  8  1  0  0  0  0
  7 10  1  0  0  0  0
  7 20  1  0  0  0  0
  7 21  1  0  0  0  0
  8  9  1  0  0  0  0
  8 22  1  0  0  0  0
  8 23  1  0  0  0  0
  9 11  1  0  0  0  0
  9 24  1  0  0  0  0
  9 25  1  0  0  0  0
 10 11  1  0  0  0  0
 10 26  1  0  0  0  0
 10 27  1  0  0  0  0
 11 28  1  0  0  0  0
 11 29  1  0  0  0  0
 12 13  1  0  0  0  0
 12 14  1  0  0  0  0
 12 30  1  0  0  0  0
 13 31  1  0  0  0  0
 13 32  1  0  0  0  0
 14 33  1  0  0  0  0
 14 34  1  0  0  0  0
M  END
>  <DRUGBANK_ID>
DB00226

>  <SECONDARY_ACCESSION_NUMBERS>
APRD01006

>  <COMMON_NAME>
Guanadrel

>  <CAS_NUMBER>
40580-59-4

>  <UNII>
765C9332T4

>  <SYNONYMS>
Guanadrel; Guanadrelum

$$$$
