
 OpenBabel10282417133D

 22 21  0  0  1  0  0  0  0  0999 V2000
    1.1090   -2.5101    0.3088 C   0  0  2  0  0  0  0  0  0  0  0  0
    0.6134   -1.3052   -0.5369 C   0  0  2  0  0  0  0  0  0  0  0  0
    1.2247   -2.1337    1.7995 C   0  0  0  0  0  0  0  0  0  0  0  0
    2.4144   -3.0855   -0.2588 C   0  0  0  0  0  0  0  0  0  0  0  0
    0.1570   -3.5901    0.2199 O   0  0  0  0  0  0  0  0  0  0  0  0
    1.1062    0.0736   -0.0408 C   0  0  0  0  0  0  0  0  0  0  0  0
   -0.8313   -1.3474   -0.5446 O   0  0  0  0  0  0  0  0  0  0  0  0
    1.6335   -3.2942    2.6847 C   0  0  0  0  0  0  0  0  0  0  0  0
    2.4290    0.2071    0.1875 O   0  0  0  0  0  0  0  0  0  0  0  0
    0.3459    1.0166    0.1717 O   0  0  0  0  0  0  0  0  0  0  0  0
    0.9131   -1.4073   -1.5863 H   0  0  0  0  0  0  0  0  0  0  0  0
    1.9649   -1.3442    1.9534 H   0  0  0  0  0  0  0  0  0  0  0  0
    0.2621   -1.7429    2.1551 H   0  0  0  0  0  0  0  0  0  0  0  0
    2.7095   -3.9981    0.2678 H   0  0  0  0  0  0  0  0  0  0  0  0
    2.2848   -3.3848   -1.3053 H   0  0  0  0  0  0  0  0  0  0  0  0
    3.2546   -2.3941   -0.2072 H   0  0  0  0  0  0  0  0  0  0  0  0
   -0.7323   -3.2083    0.3519 H   0  0  0  0  0  0  0  0  0  0  0  0
   -1.1400   -1.0346    0.3252 H   0  0  0  0  0  0  0  0  0  0  0  0
    2.6151   -3.6771    2.3940 H   0  0  0  0  0  0  0  0  0  0  0  0
    1.7094   -2.9571    3.7209 H   0  0  0  0  0  0  0  0  0  0  0  0
    0.9047   -4.1060    2.6283 H   0  0  0  0  0  0  0  0  0  0  0  0
    2.9905   -0.5830    0.1137 H   0  0  0  0  0  0  0  0  0  0  0  0
  1  3  1  0  0  0  0
  1  4  1  0  0  0  0
  1  5  1  6  0  0  0
  2  7  1  0  0  0  0
  2 11  1  6  0  0  0
  2  6  1  0  0  0  0
  2  1  1  0  0  0  0
  3  8  1  0  0  0  0
  3 12  1  0  0  0  0
  3 13  1  0  0  0  0
  4 14  1  0  0  0  0
  4 15  1  0  0  0  0
  4 16  1  0  0  0  0
  5 17  1  0  0  0  0
  6  9  1  0  0  0  0
  6 10  2  0  0  0  0
  7 18  1  0  0  0  0
  8 19  1  0  0  0  0
  8 20  1  0  0  0  0
  8 21  1  0  0  0  0
  9 22  1  0  0  0  0
M  END
>  <DRUGBANK_ID>
DB03675

>  <SECONDARY_ACCESSION_NUMBERS>
EXPT01232

>  <COMMON_NAME>
2,3-Dihydroxy-Valerianic Acid

$$$$
